# Generated by pormake.
# Topology reo, (8)-cn, num edge types: 1
# Building blocks:
#     Node 0, Type 0, BuildingBlock: VETTIZ_charged_sbu_0, # of connection points: 8
#     Node 1, Type 0, BuildingBlock: VETTIZ_charged_sbu_0, # of connection points: 8
#     Node 2, Type 0, BuildingBlock: VETTIZ_charged_sbu_0, # of connection points: 8
#     Edge 3, Type (0, 0), BuildingBlock: FUNLAD_clean_linker_1, # of connection points: 2
#     Edge 4, Type (0, 0), BuildingBlock: FUNLAD_clean_linker_1, # of connection points: 2
#     Edge 5, Type (0, 0), BuildingBlock: FUNLAD_clean_linker_1, # of connection points: 2
#     Edge 6, Type (0, 0), BuildingBlock: FUNLAD_clean_linker_1, # of connection points: 2
#     Edge 7, Type (0, 0), BuildingBlock: FUNLAD_clean_linker_1, # of connection points: 2
#     Edge 8, Type (0, 0), BuildingBlock: FUNLAD_clean_linker_1, # of connection points: 2
#     Edge 9, Type (0, 0), BuildingBlock: FUNLAD_clean_linker_1, # of connection points: 2
#     Edge 10, Type (0, 0), BuildingBlock: FUNLAD_clean_linker_1, # of connection points: 2
#     Edge 11, Type (0, 0), BuildingBlock: FUNLAD_clean_linker_1, # of connection points: 2
#     Edge 12, Type (0, 0), BuildingBlock: FUNLAD_clean_linker_1, # of connection points: 2
#     Edge 13, Type (0, 0), BuildingBlock: FUNLAD_clean_linker_1, # of connection points: 2
#     Edge 14, Type (0, 0), BuildingBlock: FUNLAD_clean_linker_1, # of connection points: 2
# Relax obj value: 0.145
# Max RMSD: 0.165
# Mean RMSD: 0.165
data_MOF--net-reo--node1-VETTIZ_charged_sbu_0--edge1-FUNLAD_clean_linker_1
_symmetry_space_group_name_H-M    P1
_symmetry_Int_Tables_number       1
_symmetry_cell_setting            triclinic
loop_
_symmetry_equiv_pos_as_xyz
'x, y, z'
_cell_length_a     25.486745
_cell_length_b     24.198188
_cell_length_c     23.76422
_cell_angle_alpha  90.142615
_cell_angle_beta   90.427555
_cell_angle_gamma 90.887835
loop_
_atom_site_label
_atom_site_type_symbol
_atom_site_fract_x
_atom_site_fract_y
_atom_site_fract_z
_atom_type_partial_charge
Fe0 Fe -0.00713 1.00543 0.4551 0.0
O1 O 0.93785 0.01469 0.5142 0.0
Fe2 Fe 0.08922 0.93149 0.52611 0.0
Fe3 Fe 0.89124 0.07932 0.51521 0.0
O4 O 0.03992 0.9924 0.52107 0.0
O5 O 0.03945 0.99185 0.52644 0.0
O6 O 0.93754 0.01472 0.52056 0.0
Fe7 Fe -0.01376 1.00428 0.5861 0.0
C8 C 0.98176 0.12662 0.44406 0.0
O9 O 0.93355 0.0195 0.39413 0.0
O10 O 0.85958 0.03739 0.44685 0.0
O11 O 0.96704 0.92097 0.59078 0.0
O12 O 0.0466 0.8839 0.58164 0.0
O13 O 0.05521 0.88774 0.46056 0.0
O14 O 0.97522 0.92201 0.44684 0.0
O15 O 0.85351 0.0377 0.57962 0.0
O16 O 0.92257 0.01901 0.63983 0.0
C17 C 0.00923 0.88454 0.43947 0.0
O18 O 0.04515 0.99337 0.64706 0.0
O19 O 0.11873 0.97328 0.59521 0.0
O20 O 0.01253 0.08822 0.45799 0.0
O21 O 0.93304 0.12403 0.4554 0.0
C22 C 0.88279 0.02357 0.40034 0.0
C23 C 0.87276 0.02443 0.62854 0.0
C24 C 0.97623 0.12618 0.59578 0.0
O25 O 0.92853 0.12442 0.57931 0.0
O26 O 0.00709 0.08667 0.58645 0.0
C27 C -0.00106 0.88124 0.59723 0.0
O28 O 0.1264 0.97719 0.46534 0.0
O29 O 0.05887 0.99584 0.40274 0.0
C30 C 0.09559 0.98865 0.64102 0.0
C31 C 0.10844 0.99199 0.41655 0.0
Fe32 Fe 0.42524 0.01262 0.02501 0.0
O33 O 0.47483 0.94989 0.02298 0.0
Fe34 Fe 0.49702 0.12433 0.97173 0.0
Fe35 Fe 0.47085 0.88804 0.07653 0.0
O36 O 0.48867 0.0617 0.0234 0.0
O37 O 0.4928 0.06125 0.02329 0.0
O38 O 0.47895 0.94944 0.02295 0.0
Fe39 Fe 0.5424 0.9986 0.01999 0.0
C40 C 0.40918 0.97662 0.14026 0.0
O41 O 0.36397 0.95366 0.02535 0.0
O42 O 0.40474 0.86894 0.02866 0.0
O43 O 0.53916 0.99712 0.93362 0.0
O44 O 0.54961 0.08717 0.91792 0.0
O45 O 0.4353 0.10025 0.91959 0.0
O46 O 0.42042 0.01136 0.93951 0.0
O47 O 0.52783 0.85441 0.02556 0.0
O48 O 0.58679 0.92754 1.01619 0.0
C49 C 0.41413 0.05342 0.90855 0.0
O50 O 0.60318 0.0569 0.01877 0.0
O51 O 0.56301 0.14196 0.02028 0.0
O52 O 0.42865 0.01472 0.11045 0.0
O53 O 0.4176 0.92592 0.12956 0.0
C54 C 0.3644 0.9001 0.01945 0.0
C55 C 0.57319 0.87577 1.01185 0.0
C56 C 0.55662 0.95884 0.13683 0.0
O57 O 0.53358 0.91255 0.1277 0.0
O58 O 0.5493 1.00054 0.10568 0.0
C59 C 0.55626 0.0369 0.90391 0.0
O60 O 0.43916 0.15715 0.0226 0.0
O61 O 0.38045 0.0835 0.02829 0.0
C62 C 0.6032 0.11003 0.02717 0.0
C63 C 0.3933 0.13537 0.03374 0.0
Fe64 Fe -0.0045 0.44584 0.02798 0.0
O65 O 0.92981 0.48905 0.03279 0.0
Fe66 Fe 0.07829 0.53167 0.95079 0.0
Fe67 Fe 0.87671 0.48048 0.09059 0.0
O68 O 0.03011 0.51942 1.01486 0.0
O69 O 0.02849 0.52477 1.01374 0.0
O70 O 0.92826 0.49338 0.03115 0.0
Fe71 Fe 0.96146 0.56675 1.01522 0.0
C72 C 0.90119 0.36571 0.04369 0.0
O73 O 0.00894 0.44996 0.11399 0.0
O74 O 0.92647 0.44153 0.14565 0.0
O75 O 0.00605 0.6387 0.9991 0.0
O76 O 0.0911 0.60787 0.98884 0.0
O77 O 0.12577 0.48309 0.99999 0.0
O78 O 0.06951 0.41029 0.02075 0.0
O79 O 0.89284 0.55439 0.13131 0.0
O80 O 0.97107 0.58341 0.10018 0.0
C81 C 0.11599 0.43315 0.01716 0.0
O82 O 0.94885 0.55514 0.9302 0.0
O83 O 0.02847 0.57531 0.89932 0.0
O84 O 0.95148 0.37393 0.04049 0.0
O85 O 0.86664 0.40369 0.05301 0.0
C86 C 0.97588 0.43746 0.1523 0.0
C87 C 0.93391 0.58479 0.13586 0.0
C88 C 0.84055 0.57562 0.01791 0.0
O89 O 0.83077 0.52627 0.03692 0.0
O90 O 0.88651 0.59996 0.01684 0.0
C91 C 0.05671 0.64657 0.99655 0.0
O92 O 0.0581 0.4585 0.90794 0.0
O93 O 0.98041 0.43643 0.94367 0.0
C94 C 0.97893 0.57564 0.89313 0.0
C95 C 0.01399 0.43301 0.90492 0.0
H96 H 0.96944 0.41822 0.24199 0.0
C97 C -0.00717 0.41033 0.2048 0.0
H98 H 0.04189 0.35326 0.16516 0.0
H99 H 0.02751 0.27839 0.43869 0.0
H100 H 0.08028 0.36059 0.45856 0.0
H101 H 0.10482 0.42514 0.38266 0.0
H102 H 0.07643 0.40807 0.2862 0.0
C103 C 0.02247 0.36483 0.20394 0.0
C104 C 0.01551 0.32181 0.24864 0.0
C105 C 0.0335 0.33135 0.30451 0.0
C106 C 0.02031 0.2933 0.34817 0.0
C107 C 0.03724 0.30518 0.4038 0.0
C108 C 0.06741 0.35232 0.41582 0.0
C109 C 0.08117 0.38874 0.37307 0.0
C110 C 0.06447 0.37861 0.31799 0.0
H111 H 0.04413 0.17225 0.39813 0.0
C112 C 0.00245 0.17157 0.40758 0.0
H113 H 0.92871 0.20536 0.38835 0.0
H114 H 0.97678 0.28875 0.1456 0.0
H115 H 0.92738 0.20485 0.12509 0.0
H116 H 0.90597 0.13831 0.20024 0.0
H117 H 0.93425 0.15519 0.29647 0.0
C118 C 0.9708 0.20769 0.38152 0.0
C119 C -0.01024 0.2452 0.33574 0.0
C120 C 0.97382 0.2344 0.27936 0.0
C121 C -0.01331 0.27259 0.23585 0.0
C122 C 0.96896 0.26105 0.18027 0.0
C123 C 0.94043 0.21296 0.16783 0.0
C124 C 0.92834 0.17553 0.21014 0.0
C125 C 0.94466 0.18589 0.26528 0.0
H126 H 0.86604 0.01758 0.30863 0.0
C127 C 0.84872 0.01486 0.3502 0.0
H128 H 0.77962 1.0036 0.39731 0.0
H129 H 0.60892 0.08832 0.23481 0.0
H130 H 0.61225 0.16127 0.3049 0.0
H131 H 0.68285 0.16494 0.37642 0.0
H132 H 0.75049 0.09572 0.37835 0.0
C133 C 0.79665 1.00592 0.35556 0.0
C134 C 0.75884 1.0068 0.30736 0.0
C135 C 0.71974 0.04799 0.30644 0.0
C136 C 0.67941 0.04639 0.26476 0.0
C137 C 0.64066 0.08775 0.26529 0.0
C138 C 0.64206 0.12989 0.30531 0.0
C139 C 0.68175 0.13189 0.34562 0.0
C140 C 0.7202 0.09162 0.34641 0.0
H141 H 0.59898 0.92942 0.2125 0.0
C142 C 0.59731 0.96228 0.18146 0.0
H143 H 0.63414 0.03478 0.1501 0.0
H144 H 0.82696 0.92055 0.29691 0.0
H145 H 0.82809 0.85302 0.2215 0.0
H146 H 0.76202 0.85489 0.14519 0.0
H147 H 0.69299 0.92283 0.14513 0.0
C148 C 0.635 1.00195 0.18122 0.0
C149 C 0.6782 1.00378 0.22382 0.0
C150 C 0.71893 0.96442 0.22264 0.0
C151 C 0.75872 0.96518 0.26514 0.0
C152 C 0.79709 0.92345 0.26459 0.0
C153 C 0.798 0.88413 0.22169 0.0
C154 C 0.76059 0.88495 0.1789 0.0
C155 C 0.72117 0.92419 0.17939 0.0
H156 H 0.02919 0.80633 0.39882 0.0
C157 C -0.00127 0.83725 0.40128 0.0
H158 H 0.92812 0.86504 0.36506 0.0
H159 H 0.96871 0.7505 0.12958 0.0
H160 H 0.96265 0.84726 0.10498 0.0
H161 H 0.95442 0.91864 0.17849 0.0
H162 H 0.9518 0.89374 0.27702 0.0
C163 C 0.95765 0.83314 0.36559 0.0
C164 C 0.95658 0.78922 0.32088 0.0
C165 C 0.95844 0.8045 0.26325 0.0
C166 C 0.96408 0.76329 0.22077 0.0
C167 C 0.96515 0.7799 0.16364 0.0
C168 C 0.96158 0.83538 0.14885 0.0
C169 C 0.95697 0.87557 0.19024 0.0
C170 C 0.9555 0.86061 0.24677 0.0
H171 H 0.90206 0.62415 0.21151 0.0
C172 C 0.93521 0.62498 0.18293 0.0
H173 H 0.00524 0.66704 0.16112 0.0
H174 H 0.94337 0.74422 0.42544 0.0
H175 H 0.95285 0.64782 0.4508 0.0
H176 H 0.97289 0.57786 0.37871 0.0
H177 H 0.98193 0.60357 0.28077 0.0
C178 C 0.97299 0.66373 0.19064 0.0
C179 C 0.96832 0.70675 0.23578 0.0
C180 C 0.96629 0.6915 0.29345 0.0
C181 C 0.95839 0.73243 0.33564 0.0
C182 C 0.95234 0.71531 0.39221 0.0
C183 C 0.95722 0.66005 0.40727 0.0
C184 C 0.96821 0.62063 0.36665 0.0
C185 C 0.97282 0.63592 0.31041 0.0
H186 H 0.3449 0.03003 0.16479 0.0
C187 C 0.36422 0.99156 0.17513 0.0
H188 H 0.36226 0.91911 0.22337 0.0
H189 H 0.17591 0.09692 0.31204 0.0
H190 H 0.24424 0.16804 0.31871 0.0
H191 H 0.33591 0.14678 0.29516 0.0
H192 H 0.35923 0.05558 0.26249 0.0
C193 C 0.3433 0.95795 0.21398 0.0
C194 C 0.29067 0.96901 0.23863 0.0
C195 C 0.27912 0.02125 0.26289 0.0
C196 C 0.22747 0.03212 0.28151 0.0
C197 C 0.21537 0.08603 0.30019 0.0
C198 C 0.25408 0.12712 0.30403 0.0
C199 C 0.30559 0.11524 0.29045 0.0
C200 C 0.31828 0.06287 0.27072 0.0
H201 H 0.18918 1.00633 0.39053 0.0
C202 C 0.14927 1.00134 0.3744 0.0
H203 H 0.10318 0.98587 0.3017 0.0
H204 H 0.29646 0.86608 0.18939 0.0
H205 H 0.23062 0.79317 0.19289 0.0
H206 H 0.14594 0.80787 0.23973 0.0
H207 H 0.12546 0.89674 0.28033 0.0
C208 C 0.14199 0.99504 0.31886 0.0
C209 C 0.18935 0.98893 0.28315 0.0
C210 C 0.20092 0.93646 0.26017 0.0
C211 C 0.251 0.92704 0.23618 0.0
C212 C 0.26026 0.87505 0.21072 0.0
C213 C 0.22265 0.8327 0.2122 0.0
C214 C 0.17495 0.84099 0.23848 0.0
C215 C 0.16376 0.89231 0.26173 0.0
H216 H 0.00627 0.79382 0.61974 0.0
C217 C -0.01696 0.83041 0.62736 0.0
H218 H 0.92978 0.86761 0.68284 0.0
H219 H 0.92389 0.59474 0.73918 0.0
H220 H 0.8713 0.5864 0.65384 0.0
H221 H 0.85389 0.66796 0.59485 0.0
H222 H 0.88928 0.75853 0.6207 0.0
C223 C 0.94991 0.83008 0.67109 0.0
C224 C 0.95113 0.783 0.71173 0.0
C225 C 0.92898 0.73072 0.69717 0.0
C226 C 0.93825 0.68378 0.73184 0.0
C227 C 0.91736 0.6318 0.71494 0.0
C228 C 0.88721 0.62645 0.666 0.0
C229 C 0.87746 0.67238 0.63272 0.0
C230 C 0.89809 0.72401 0.64787 0.0
H231 H 0.9143 0.61921 0.84948 0.0
C232 C 0.95614 0.61124 0.84869 0.0
H233 H 0.02938 0.63355 0.81413 0.0
H234 H -0.00436 0.87802 0.75466 0.0
H235 H 0.04623 0.88693 0.84112 0.0
H236 H 0.06116 0.80611 0.90189 0.0
H237 H 0.02574 0.71582 0.87649 0.0
C238 C -0.01273 0.64001 0.81325 0.0
C239 C 0.96928 0.68939 0.78136 0.0
C240 C -0.01123 0.74239 0.79765 0.0
C241 C 0.97965 0.78917 0.76292 0.0
C242 C 0.00106 0.84114 0.77955 0.0
C243 C 0.03018 0.84688 0.82914 0.0
C244 C 0.03864 0.80137 0.86332 0.0
C245 C 0.01823 0.74971 0.84807 0.0
H246 H 0.3757 0.08197 0.83051 0.0
C247 C 0.37571 0.04975 0.86232 0.0
H248 H 0.33656 0.97886 0.89444 0.0
H249 H 0.15667 0.09886 0.73355 0.0
H250 H 0.15886 0.17245 0.80303 0.0
H251 H 0.22209 0.17103 0.88215 0.0
H252 H 0.28413 0.09659 0.89152 0.0
C253 C 0.33746 0.01094 0.86249 0.0
C254 C 0.29587 0.00939 0.81873 0.0
C255 C 0.25818 0.05188 0.81569 0.0
C256 C 0.22018 0.05138 0.77164 0.0
C257 C 0.18513 0.09607 0.76733 0.0
C258 C 0.18613 0.13877 0.80681 0.0
C259 C 0.22184 0.13807 0.85123 0.0
C260 C 0.25748 0.09522 0.8559 0.0
H261 H 0.11235 0.99894 0.73213 0.0
C262 C 0.12955 0.99929 0.69042 0.0
H263 H 0.19878 1.00696 0.64255 0.0
H264 H 0.36184 0.92113 0.81408 0.0
H265 H 0.35767 0.84571 0.74681 0.0
H266 H 0.28861 0.84189 0.67356 0.0
H267 H 0.22401 0.91403 0.66648 0.0
C268 C 0.18156 1.00692 0.68427 0.0
C269 C 0.21863 1.00703 0.73254 0.0
C270 C 0.25503 0.96347 0.73707 0.0
C271 C 0.29398 0.96489 0.78001 0.0
C272 C 0.33099 0.92182 0.78258 0.0
C273 C 0.32913 0.87829 0.74417 0.0
C274 C 0.29028 0.87616 0.70292 0.0
C275 C 0.25352 0.91802 0.69926 0.0
H276 H 0.95946 0.38445 0.85156 0.0
C277 C 0.00063 0.39581 0.85714 0.0
H278 H 0.0778 0.38112 0.82978 0.0
H279 H 0.93192 0.16185 0.74489 0.0
H280 H 0.91764 0.14474 0.84411 0.0
H281 H 0.9523 0.20947 0.91609 0.0
H282 H 0.00107 0.29176 0.88938 0.0
C283 C 0.03639 0.37073 0.82485 0.0
C284 C 0.0202 0.32799 0.78186 0.0
C285 C -0.00652 0.2786 0.79834 0.0
C286 C 0.97484 0.24024 0.75684 0.0
C287 C 0.94718 0.19217 0.77454 0.0
C288 C 0.93886 0.1817 0.8314 0.0
C289 C 0.95827 0.2182 0.87191 0.0
C290 C -0.01435 0.2658 0.85589 0.0
H291 H 0.03791 0.17451 0.64072 0.0
C292 C -0.00388 0.17273 0.63115 0.0
H293 H 0.9222 0.20625 0.64957 0.0
H294 H 0.07264 0.41601 0.73552 0.0
H295 H 0.08978 0.43095 0.63642 0.0
H296 H 0.05893 0.36361 0.56499 0.0
H297 H 0.0107 0.2808 0.59212 0.0
C298 C 0.96441 0.20939 0.65592 0.0
C299 C -0.01521 0.24977 0.69898 0.0
C300 C 0.01334 0.29783 0.68264 0.0
C301 C 0.03105 0.33686 0.72402 0.0
C302 C 0.05859 0.38487 0.70611 0.0
C303 C 0.06861 0.39403 0.64931 0.0
C304 C 0.05126 0.35609 0.60907 0.0
C305 C 0.02378 0.30861 0.62525 0.0
H306 H 0.58769 0.98449 0.8359 0.0
C307 C 0.59179 0.02417 0.85713 0.0
H308 H 0.63699 0.09744 0.86681 0.0
H309 H 0.79847 0.92997 0.73011 0.0
H310 H 0.79325 0.87034 0.81184 0.0
H311 H 0.73405 0.89199 0.89028 0.0
H312 H 0.67895 0.9726 0.88691 0.0
C313 C 0.63225 0.05826 0.84469 0.0
C314 C 0.67051 0.046 0.79943 0.0
C315 C 0.70457 1.00022 0.80361 0.0
C316 C 0.7409 0.98942 0.75979 0.0
C317 C 0.77189 0.94146 0.76324 0.0
C318 C 0.76906 0.90668 0.8098 0.0
C319 C 0.73559 0.91875 0.85386 0.0
C320 C 0.70378 0.96498 0.85113 0.0
H321 H 0.85129 0.02369 0.7186 0.0
C322 C 0.83571 0.02024 0.676 0.0
H323 H 0.76792 0.0137 0.62489 0.0
H324 H 0.61097 0.13705 0.77819 0.0
H325 H 0.61952 0.19941 0.69914 0.0
H326 H 0.68631 0.18422 0.62639 0.0
H327 H 0.74453 0.10639 0.63197 0.0
C328 C 0.78348 0.01663 0.66753 0.0
C329 C 0.7452 0.02618 0.71354 0.0
C330 C 0.71202 0.07267 0.71019 0.0
C331 C 0.67439 0.08225 0.75284 0.0
C332 C 0.64098 0.1283 0.74762 0.0
C333 C 0.64533 0.16442 0.70233 0.0
C334 C 0.68284 0.15581 0.66133 0.0
C335 C 0.71591 0.11067 0.665 0.0
H336 H 0.20058 0.41832 0.02273 0.0
C337 C 0.16205 0.39929 0.02869 0.0
H338 H 0.12092 0.32501 0.04821 0.0
H339 H 0.34939 0.24867 0.94232 0.0
H340 H 0.31124 0.27648 0.85328 0.0
H341 H 0.22422 0.31965 0.84952 0.0
H342 H 0.17511 0.33552 0.93484 0.0
C343 C 0.15858 0.34538 0.04118 0.0
C344 C 0.20683 0.31212 0.04272 0.0
C345 C 0.23465 0.3026 0.99222 0.0
C346 C 0.28416 0.27676 0.99428 0.0
C347 C 0.31142 0.26801 0.94329 0.0
C348 C 0.28997 0.28373 0.8918 0.0
C349 C 0.24105 0.30811 0.88969 0.0
C350 C 0.21348 0.31742 0.93911 0.0
H351 H 0.31241 0.1522 0.05838 0.0
C352 C 0.35028 0.17166 0.0497 0.0
H353 H 0.39022 0.24738 0.0352 0.0
H354 H 0.16048 0.31935 0.14589 0.0
H355 H 0.19579 0.28567 0.2345 0.0
H356 H 0.28174 0.24009 0.23813 0.0
H357 H 0.33291 0.22791 0.15322 0.0
C358 C 0.35375 0.22679 0.04695 0.0
C359 C 0.30475 0.25883 0.04657 0.0
C360 C 0.27585 0.26611 0.09672 0.0
C361 C 0.22657 0.29269 0.09472 0.0
C362 C 0.19826 0.29953 0.14523 0.0
C363 C 0.21805 0.28036 0.19629 0.0
C364 C 0.2664 0.25461 0.19832 0.0
C365 C 0.29526 0.24766 0.14928 0.0
H366 H 0.0479 0.73748 0.99395 0.0
C367 C 0.07606 0.7044 0.99788 0.0
H368 H 0.15577 0.68322 1.00228 0.0
H369 H 0.27543 0.86946 0.8896 0.0
H370 H 0.26933 0.80433 0.81113 0.0
H371 H 0.20739 0.72513 0.81377 0.0
H372 H 0.15136 0.70991 0.89497 0.0
C373 C 0.12757 0.71641 1.00017 0.0
C374 C 0.14967 0.77266 0.99065 0.0
C375 C 0.18112 0.78142 0.94255 0.0
C376 C 0.21665 0.827 0.94091 0.0
C377 C 0.2484 0.83466 0.89293 0.0
C378 C 0.24496 0.79801 0.84765 0.0
C379 C 0.21009 0.7533 0.84917 0.0
C380 C 0.17847 0.74481 0.89605 0.0
H381 H 0.31606 0.8265 1.00056 0.0
C382 C 0.31507 0.87133 1.00388 0.0
H383 H 0.26654 0.94163 1.00133 0.0
H384 H 0.0846 0.77577 0.08226 0.0
H385 H 0.08029 0.84957 0.15135 0.0
H386 H 0.13976 0.93082 0.1458 0.0
H387 H 0.20518 0.9378 0.07217 0.0
C388 C 0.26913 0.89713 0.99639 0.0
C389 C 0.22048 0.8634 0.98745 0.0
C390 C 0.18217 0.86058 0.03021 0.0
C391 C 0.14698 0.8144 0.03245 0.0
C392 C 0.1113 0.81053 0.07762 0.0
C393 C 0.10848 0.8526 0.11761 0.0
C394 C 0.14212 0.89828 0.11465 0.0
C395 C 0.17944 0.90184 0.07224 0.0
H396 H 0.65382 0.18145 0.04792 0.0
C397 C 0.65344 0.13692 0.0413 0.0
H398 H 0.70041 0.06547 0.03262 0.0
H399 H 0.84681 0.26631 0.94014 0.0
H400 H 0.82612 0.21829 0.85267 0.0
H401 H 0.7707 0.13363 0.85229 0.0
H402 H 0.73526 0.09689 0.93977 0.0
C403 C 0.69891 0.10951 0.04135 0.0
C404 C 0.74823 0.14194 0.0444 0.0
C405 C 0.77095 0.16066 0.9937 0.0
C406 C 0.80325 0.20888 0.99412 0.0
C407 C 0.82253 0.22937 0.94238 0.0
C408 C 0.81091 0.20219 0.89186 0.0
C409 C 0.77966 0.15456 0.89162 0.0
C410 C 0.75952 0.134 0.94187 0.0
H411 H 0.91071 0.27607 0.02953 0.0
C412 C 0.88249 0.30821 0.03817 0.0
H413 H 0.80373 0.32603 0.05694 0.0
H414 H 0.72261 0.1052 0.14899 0.0
H415 H 0.74912 0.14814 0.23813 0.0
H416 H 0.80516 0.23217 0.23964 0.0
H417 H 0.83538 0.27386 0.15228 0.0
C418 C 0.83199 0.29474 0.04583 0.0
C419 C 0.813 0.23689 0.04568 0.0
C420 C 0.79664 0.21307 0.09711 0.0
C421 C 0.7643 0.16502 0.0964 0.0
C422 C 0.74704 0.1422 0.14788 0.0
C423 C 0.76202 0.16627 0.199 0.0
C424 C 0.7936 0.21366 0.19983 0.0
C425 C 0.81056 0.23722 0.14954 0.0
H426 H 0.75611 0.59012 1.01008 0.0
C427 C 0.7948 0.60787 1.00189 0.0
H428 H 0.83698 0.67954 0.97579 0.0
H429 H 0.60809 0.76003 0.88727 0.0
H430 H 0.64142 0.72695 0.79776 0.0
H431 H 0.72579 0.6784 0.79319 0.0
H432 H 0.77759 0.66301 0.87805 0.0
C433 C 0.79909 0.66012 0.98397 0.0
C434 C 0.75218 0.69479 0.98478 0.0
C435 C 0.72278 0.70313 0.93494 0.0
C436 C 0.67429 0.73093 0.93759 0.0
C437 C 0.64537 0.7392 0.88735 0.0
C438 C 0.664 0.72034 0.83585 0.0
C439 C 0.71149 0.69295 0.83328 0.0
C440 C 0.74073 0.68425 0.88219 0.0
H441 H 0.65323 0.85694 0.98593 0.0
C442 C 0.61462 0.83877 0.99375 0.0
H443 H 0.57102 0.7639 1.00182 0.0
H444 H 0.80302 0.69097 0.08697 0.0
H445 H 0.76996 0.72409 0.17619 0.0
H446 H 0.68341 0.76808 0.18165 0.0
H447 H 0.6299 0.77985 0.09782 0.0
C448 C 0.6085 0.78383 0.99282 0.0
C449 C 0.65582 0.74986 0.9901 0.0
C450 C 0.68548 0.74177 0.03996 0.0
C451 C 0.73442 0.7152 0.03709 0.0
C452 C 0.76469 0.70961 0.08703 0.0
C453 C 0.74631 0.72863 0.1385 0.0
C454 C 0.69765 0.75347 0.14155 0.0
C455 C 0.66746 0.76019 0.09302 0.0
loop_
_geom_bond_atom_site_label_1
_geom_bond_atom_site_label_2
_geom_bond_distance
_geom_bond_site_symmetry_2
_ccdc_geom_bond_type
Fe0 O1 1.895 . S
Fe0 O4 1.706 1_645 S
Fe0 O9 2.077 1_545 S
Fe0 O14 1.918 1_545 S
Fe0 O20 2.094 1_655 S
Fe0 O29 1.938 1_655 S
O1 Fe0 1.895 . S
O1 Fe3 1.715 . S
Fe2 O4 1.886 . S
Fe2 O5 1.715 . S
Fe2 O12 1.935 . S
Fe2 O13 2.077 . S
Fe2 O19 1.935 . S
Fe2 O28 2.077 . S
Fe3 O1 1.715 . S
Fe3 O6 1.886 . S
Fe3 O10 1.935 . S
Fe3 O15 2.077 . S
Fe3 O21 1.935 . S
Fe3 O25 2.077 . S
O4 Fe0 1.706 1_465 S
O4 Fe2 1.886 . S
O5 Fe2 1.715 . S
O5 Fe7 1.892 . S
O6 Fe3 1.886 . S
O6 Fe7 1.708 1_645 S
Fe7 O5 1.892 . S
Fe7 O6 1.708 1_465 S
Fe7 O11 2.090 1_455 S
Fe7 O16 1.938 1_455 S
Fe7 O18 2.077 1_565 S
Fe7 O26 1.922 1_565 S
C8 O20 1.381 1_655 S
C8 O21 1.421 . S
O9 Fe0 2.077 1_565 S
O9 C22 1.381 1_565 S
O10 Fe3 1.935 . S
O10 C22 1.421 . S
O11 Fe7 2.090 1_655 S
O11 C27 1.381 1_655 S
O12 Fe2 1.935 . S
O12 C27 1.421 . S
O13 Fe2 2.077 . S
O13 C17 1.381 . S
O14 Fe0 1.918 1_565 S
O14 C17 1.421 1_655 S
O15 Fe3 2.077 . S
O15 C23 1.381 . S
O16 Fe7 1.938 1_655 S
O16 C23 1.421 1_565 S
C17 O13 1.381 . S
C17 O14 1.421 1_455 S
O18 Fe7 2.077 1_545 S
O18 C30 1.381 1_545 S
O19 Fe2 1.935 . S
O19 C30 1.421 . S
O20 Fe0 2.094 1_455 S
O20 C8 1.381 1_455 S
O21 Fe3 1.935 . S
O21 C8 1.421 . S
C22 O9 1.381 1_545 S
C22 O10 1.421 . S
C23 O15 1.381 . S
C23 O16 1.421 1_545 S
C24 O25 1.381 . S
C24 O26 1.421 1_655 S
O25 Fe3 2.077 . S
O25 C24 1.381 . S
O26 Fe7 1.922 1_545 S
O26 C24 1.421 1_455 S
C27 O11 1.381 1_455 S
C27 O12 1.421 . S
O28 Fe2 2.077 . S
O28 C31 1.381 . S
O29 Fe0 1.938 1_455 S
O29 C31 1.421 1_545 S
C30 O18 1.381 1_565 S
C30 O19 1.421 . S
C31 O28 1.381 . S
C31 O29 1.421 1_565 S
Fe32 O33 1.895 . S
Fe32 O36 1.706 1_564 S
Fe32 O41 2.077 1_554 S
Fe32 O46 1.918 1_554 S
Fe32 O52 2.094 1_565 S
Fe32 O61 1.938 1_565 S
O33 Fe32 1.895 . S
O33 Fe35 1.715 . S
Fe34 O36 1.886 . S
Fe34 O37 1.715 . S
Fe34 O44 1.935 . S
Fe34 O45 2.077 . S
Fe34 O51 1.935 . S
Fe34 O60 2.077 . S
Fe35 O33 1.715 . S
Fe35 O38 1.886 . S
Fe35 O42 1.935 . S
Fe35 O47 2.077 . S
Fe35 O53 1.935 . S
Fe35 O57 2.077 . S
O36 Fe32 1.706 1_546 S
O36 Fe34 1.886 . S
O37 Fe34 1.715 . S
O37 Fe39 1.892 . S
O38 Fe35 1.886 . S
O38 Fe39 1.708 1_564 S
Fe39 O37 1.892 . S
Fe39 O38 1.708 1_546 S
Fe39 O43 2.090 1_545 S
Fe39 O48 1.938 1_545 S
Fe39 O50 2.077 1_556 S
Fe39 O58 1.922 1_556 S
C40 O52 1.381 1_565 S
C40 O53 1.421 . S
O41 Fe32 2.077 1_556 S
O41 C54 1.381 1_556 S
O42 Fe35 1.935 . S
O42 C54 1.421 . S
O43 Fe39 2.090 1_565 S
O43 C59 1.381 1_565 S
O44 Fe34 1.935 . S
O44 C59 1.421 . S
O45 Fe34 2.077 . S
O45 C49 1.381 . S
O46 Fe32 1.918 1_556 S
O46 C49 1.421 1_565 S
O47 Fe35 2.077 . S
O47 C55 1.381 . S
O48 Fe39 1.938 1_565 S
O48 C55 1.421 1_556 S
C49 O45 1.381 . S
C49 O46 1.421 1_545 S
O50 Fe39 2.077 1_554 S
O50 C62 1.381 1_554 S
O51 Fe34 1.935 . S
O51 C62 1.421 . S
O52 Fe32 2.094 1_545 S
O52 C40 1.381 1_545 S
O53 Fe35 1.935 . S
O53 C40 1.421 . S
C54 O41 1.381 1_554 S
C54 O42 1.421 . S
C55 O47 1.381 . S
C55 O48 1.421 1_554 S
C56 O57 1.381 . S
C56 O58 1.421 1_565 S
O57 Fe35 2.077 . S
O57 C56 1.381 . S
O58 Fe39 1.922 1_554 S
O58 C56 1.421 1_545 S
C59 O43 1.381 1_545 S
C59 O44 1.421 . S
O60 Fe34 2.077 . S
O60 C63 1.381 . S
O61 Fe32 1.938 1_545 S
O61 C63 1.421 1_554 S
C62 O50 1.381 1_556 S
C62 O51 1.421 . S
C63 O60 1.381 . S
C63 O61 1.421 1_556 S
Fe64 O65 1.895 . S
Fe64 O68 1.706 1_654 S
Fe64 O73 2.094 1_655 S
Fe64 O78 1.938 1_655 S
Fe64 O84 2.077 1_554 S
Fe64 O93 1.918 1_554 S
O65 Fe64 1.895 . S
O65 Fe67 1.715 . S
Fe66 O68 1.886 . S
Fe66 O69 1.715 . S
Fe66 O76 1.935 . S
Fe66 O77 2.077 . S
Fe66 O83 1.935 . S
Fe66 O92 2.077 . S
Fe67 O65 1.715 . S
Fe67 O70 1.886 . S
Fe67 O74 1.935 . S
Fe67 O79 2.077 . S
Fe67 O85 1.935 . S
Fe67 O89 2.077 . S
O68 Fe64 1.706 1_456 S
O68 Fe66 1.886 . S
O69 Fe66 1.715 . S
O69 Fe71 1.892 . S
O70 Fe67 1.886 . S
O70 Fe71 1.708 1_654 S
Fe71 O69 1.892 . S
Fe71 O70 1.708 1_456 S
Fe71 O75 2.077 1_556 S
Fe71 O80 1.922 1_556 S
Fe71 O82 2.090 1_455 S
Fe71 O90 1.938 1_455 S
C72 O84 1.381 1_554 S
C72 O85 1.421 . S
O73 Fe64 2.094 1_455 S
O73 C86 1.381 1_455 S
O74 Fe67 1.935 . S
O74 C86 1.421 . S
O75 Fe71 2.077 1_554 S
O75 C91 1.381 1_554 S
O76 Fe66 1.935 . S
O76 C91 1.421 . S
O77 Fe66 2.077 . S
O77 C81 1.381 . S
O78 Fe64 1.938 1_455 S
O78 C81 1.421 1_554 S
O79 Fe67 2.077 . S
O79 C87 1.381 . S
O80 Fe71 1.922 1_554 S
O80 C87 1.421 1_455 S
C81 O77 1.381 . S
C81 O78 1.421 1_556 S
O82 Fe71 2.090 1_655 S
O82 C94 1.381 1_655 S
O83 Fe66 1.935 . S
O83 C94 1.421 . S
O84 Fe64 2.077 1_556 S
O84 C72 1.381 1_556 S
O85 Fe67 1.935 . S
O85 C72 1.421 . S
C86 O73 1.381 1_655 S
C86 O74 1.421 . S
C87 O79 1.381 . S
C87 O80 1.421 1_655 S
C88 O89 1.381 . S
C88 O90 1.421 1_554 S
O89 Fe67 2.077 . S
O89 C88 1.381 . S
O90 Fe71 1.938 1_655 S
O90 C88 1.421 1_556 S
C91 O75 1.381 1_556 S
C91 O76 1.421 . S
O92 Fe66 2.077 . S
O92 C95 1.381 . S
O93 Fe64 1.918 1_556 S
O93 C95 1.421 1_655 S
C94 O82 1.381 1_455 S
C94 O83 1.421 . S
C95 O92 1.381 . S
C95 O93 1.421 1_455 S
H96 C97 0.951 . S
C97 H96 0.951 . S
C97 C103 1.265 1_655 S
H98 C103 0.950 . S
H99 C107 0.949 . S
H100 C108 0.950 . S
H101 C109 0.951 . S
H102 C110 0.951 . S
C103 C97 1.265 1_455 S
C103 H98 0.950 . S
C103 C104 1.478 . S
C104 C103 1.478 . S
C104 C105 1.397 . S
C104 C121 1.394 1_455 S
C105 C104 1.397 . S
C105 C106 1.438 . S
C105 C110 1.429 . S
C106 C105 1.438 . S
C106 C107 1.428 . S
C106 C119 1.394 1_455 S
C107 H99 0.949 . S
C107 C106 1.428 . S
C107 C108 1.345 . S
C108 H100 0.950 . S
C108 C107 1.345 . S
C108 C109 1.424 . S
C109 H101 0.951 . S
C109 C108 1.424 . S
C109 C110 1.347 . S
C110 H102 0.951 . S
C110 C105 1.429 . S
C110 C109 1.347 . S
H111 C112 0.951 . S
C112 H111 0.951 . S
C112 C118 1.265 1_455 S
H113 C118 0.950 . S
H114 C122 0.949 . S
H115 C123 0.950 . S
H116 C124 0.951 . S
H117 C125 0.951 . S
C118 C112 1.265 1_655 S
C118 H113 0.950 . S
C118 C119 1.478 . S
C119 C106 1.394 1_655 S
C119 C118 1.478 . S
C119 C120 1.397 . S
C120 C119 1.397 . S
C120 C121 1.438 . S
C120 C125 1.429 . S
C121 C104 1.394 1_655 S
C121 C120 1.438 . S
C121 C122 1.428 . S
C122 H114 0.949 . S
C122 C121 1.428 . S
C122 C123 1.345 . S
C123 H115 0.950 . S
C123 C122 1.345 . S
C123 C124 1.424 . S
C124 H116 0.951 . S
C124 C123 1.424 . S
C124 C125 1.347 . S
C125 H117 0.951 . S
C125 C120 1.429 . S
C125 C124 1.347 . S
H126 C127 0.949 1_565 S
C127 H126 0.949 1_545 S
C127 C133 1.266 . S
H128 C133 0.950 . S
H129 C137 0.949 . S
H130 C138 0.950 . S
H131 C139 0.951 . S
H132 C140 0.951 . S
C133 C127 1.266 . S
C133 H128 0.950 . S
C133 C134 1.478 . S
C134 C133 1.478 . S
C134 C135 1.397 . S
C134 C151 1.394 1_545 S
C135 C134 1.397 . S
C135 C136 1.438 . S
C135 C140 1.429 . S
C136 C135 1.438 . S
C136 C137 1.428 . S
C136 C149 1.394 1_545 S
C137 H129 0.949 . S
C137 C136 1.428 . S
C137 C138 1.345 . S
C138 H130 0.950 . S
C138 C137 1.345 . S
C138 C139 1.424 . S
C139 H131 0.951 . S
C139 C138 1.424 . S
C139 C140 1.347 . S
C140 H132 0.951 . S
C140 C135 1.429 . S
C140 C139 1.347 . S
H141 C142 0.950 1_545 S
C142 H141 0.950 1_565 S
C142 C148 1.266 . S
H143 C148 0.950 . S
H144 C152 0.949 . S
H145 C153 0.950 . S
H146 C154 0.951 . S
H147 C155 0.951 . S
C148 C142 1.266 . S
C148 H143 0.950 . S
C148 C149 1.478 . S
C149 C136 1.394 1_565 S
C149 C148 1.478 . S
C149 C150 1.397 . S
C150 C149 1.397 . S
C150 C151 1.438 . S
C150 C155 1.429 . S
C151 C134 1.394 1_565 S
C151 C150 1.438 . S
C151 C152 1.428 . S
C152 H144 0.949 . S
C152 C151 1.428 . S
C152 C153 1.345 . S
C153 H145 0.950 . S
C153 C152 1.345 . S
C153 C154 1.424 . S
C154 H146 0.951 . S
C154 C153 1.424 . S
C154 C155 1.347 . S
C155 H147 0.951 . S
C155 C150 1.429 . S
C155 C154 1.347 . S
H156 C157 0.951 . S
C157 H156 0.951 . S
C157 C163 1.265 1_455 S
H158 C163 0.950 . S
H159 C167 0.949 . S
H160 C168 0.950 . S
H161 C169 0.951 . S
H162 C170 0.951 . S
C163 C157 1.265 1_655 S
C163 H158 0.950 . S
C163 C164 1.478 . S
C164 C163 1.478 . S
C164 C165 1.397 . S
C164 C181 1.394 1_655 S
C165 C164 1.397 . S
C165 C166 1.438 . S
C165 C170 1.429 . S
C166 C165 1.438 . S
C166 C167 1.428 . S
C166 C179 1.394 1_655 S
C167 H159 0.949 . S
C167 C166 1.428 . S
C167 C168 1.345 . S
C168 H160 0.950 . S
C168 C167 1.345 . S
C168 C169 1.424 . S
C169 H161 0.951 . S
C169 C168 1.424 . S
C169 C170 1.347 . S
C170 H162 0.951 . S
C170 C165 1.429 . S
C170 C169 1.347 . S
H171 C172 0.951 . S
C172 H171 0.951 . S
C172 C178 1.265 1_655 S
H173 C178 0.950 . S
H174 C182 0.949 . S
H175 C183 0.950 . S
H176 C184 0.951 . S
H177 C185 0.951 . S
C178 C172 1.265 1_455 S
C178 H173 0.950 . S
C178 C179 1.478 . S
C179 C166 1.394 1_455 S
C179 C178 1.478 . S
C179 C180 1.397 . S
C180 C179 1.397 . S
C180 C181 1.438 . S
C180 C185 1.429 . S
C181 C164 1.394 1_455 S
C181 C180 1.438 . S
C181 C182 1.428 . S
C182 H174 0.949 . S
C182 C181 1.428 . S
C182 C183 1.345 . S
C183 H175 0.950 . S
C183 C182 1.345 . S
C183 C184 1.424 . S
C184 H176 0.951 . S
C184 C183 1.424 . S
C184 C185 1.347 . S
C185 H177 0.951 . S
C185 C180 1.429 . S
C185 C184 1.347 . S
H186 C187 0.950 1_545 S
C187 H186 0.950 1_565 S
C187 C193 1.265 . S
H188 C193 0.950 . S
H189 C197 0.949 . S
H190 C198 0.950 . S
H191 C199 0.951 . S
H192 C200 0.951 . S
C193 C187 1.265 . S
C193 H188 0.950 . S
C193 C194 1.478 . S
C194 C193 1.478 . S
C194 C195 1.397 1_565 S
C194 C211 1.394 . S
C195 C194 1.397 1_545 S
C195 C196 1.438 . S
C195 C200 1.429 . S
C196 C195 1.438 . S
C196 C197 1.428 . S
C196 C209 1.384 1_545 S
C197 H189 0.949 . S
C197 C196 1.428 . S
C197 C198 1.345 . S
C198 H190 0.950 . S
C198 C197 1.345 . S
C198 C199 1.424 . S
C199 H191 0.951 . S
C199 C198 1.424 . S
C199 C200 1.347 . S
C200 H192 0.951 . S
C200 C195 1.429 . S
C200 C199 1.347 . S
H201 C202 0.951 . S
C202 H201 0.951 . S
C202 C208 1.265 . S
H203 C208 0.949 1_545 S
H204 C212 0.949 . S
H205 C213 0.950 . S
H206 C214 0.951 . S
H207 C215 0.951 . S
C208 C202 1.265 . S
C208 H203 0.949 1_565 S
C208 C209 1.478 . S
C209 C196 1.384 1_565 S
C209 C208 1.478 . S
C209 C210 1.406 . S
C210 C209 1.406 . S
C210 C211 1.438 . S
C210 C215 1.429 . S
C211 C194 1.394 . S
C211 C210 1.438 . S
C211 C212 1.428 . S
C212 H204 0.949 . S
C212 C211 1.428 . S
C212 C213 1.345 . S
C213 H205 0.950 . S
C213 C212 1.345 . S
C213 C214 1.424 . S
C214 H206 0.951 . S
C214 C213 1.424 . S
C214 C215 1.347 . S
C215 H207 0.951 . S
C215 C210 1.429 . S
C215 C214 1.347 . S
H216 C217 0.951 . S
C217 H216 0.951 . S
C217 C223 1.265 1_455 S
H218 C223 0.950 . S
H219 C227 0.949 . S
H220 C228 0.950 . S
H221 C229 0.951 . S
H222 C230 0.951 . S
C223 C217 1.265 1_655 S
C223 H218 0.950 . S
C223 C224 1.478 . S
C224 C223 1.478 . S
C224 C225 1.397 . S
C224 C241 1.394 1_655 S
C225 C224 1.397 . S
C225 C226 1.438 . S
C225 C230 1.429 . S
C226 C225 1.438 . S
C226 C227 1.428 . S
C226 C239 1.394 1_655 S
C227 H219 0.949 . S
C227 C226 1.428 . S
C227 C228 1.345 . S
C228 H220 0.950 . S
C228 C227 1.345 . S
C228 C229 1.424 . S
C229 H221 0.951 . S
C229 C228 1.424 . S
C229 C230 1.347 . S
C230 H222 0.951 . S
C230 C225 1.429 . S
C230 C229 1.347 . S
H231 C232 0.951 . S
C232 H231 0.951 . S
C232 C238 1.265 1_655 S
H233 C238 0.950 . S
H234 C242 0.949 . S
H235 C243 0.950 . S
H236 C244 0.951 . S
H237 C245 0.951 . S
C238 C232 1.265 1_455 S
C238 H233 0.950 . S
C238 C239 1.478 . S
C239 C226 1.394 1_455 S
C239 C238 1.478 . S
C239 C240 1.397 . S
C240 C239 1.397 . S
C240 C241 1.438 . S
C240 C245 1.429 . S
C241 C224 1.394 1_455 S
C241 C240 1.438 . S
C241 C242 1.428 . S
C242 H234 0.949 . S
C242 C241 1.428 . S
C242 C243 1.345 . S
C243 H235 0.950 . S
C243 C242 1.345 . S
C243 C244 1.424 . S
C244 H236 0.951 . S
C244 C243 1.424 . S
C244 C245 1.347 . S
C245 H237 0.951 . S
C245 C240 1.429 . S
C245 C244 1.347 . S
H246 C247 0.950 1_565 S
C247 H246 0.950 1_545 S
C247 C253 1.265 . S
H248 C253 0.950 . S
H249 C257 0.949 . S
H250 C258 0.950 . S
H251 C259 0.951 . S
H252 C260 0.951 . S
C253 C247 1.265 . S
C253 H248 0.950 . S
C253 C254 1.478 . S
C254 C253 1.478 . S
C254 C255 1.397 . S
C254 C271 1.394 1_545 S
C255 C254 1.397 . S
C255 C256 1.438 . S
C255 C260 1.429 . S
C256 C255 1.438 . S
C256 C257 1.428 . S
C256 C269 1.394 1_545 S
C257 H249 0.949 . S
C257 C256 1.428 . S
C257 C258 1.345 . S
C258 H250 0.950 . S
C258 C257 1.345 . S
C258 C259 1.424 . S
C259 H251 0.951 . S
C259 C258 1.424 . S
C259 C260 1.347 . S
C260 H252 0.951 . S
C260 C255 1.429 . S
C260 C259 1.347 . S
H261 C262 0.950 1_545 S
C262 H261 0.950 1_565 S
C262 C268 1.266 . S
H263 C268 0.950 . S
H264 C272 0.949 . S
H265 C273 0.950 . S
H266 C274 0.951 . S
H267 C275 0.951 . S
C268 C262 1.266 . S
C268 H263 0.950 . S
C268 C269 1.478 . S
C269 C256 1.394 1_565 S
C269 C268 1.478 . S
C269 C270 1.397 . S
C270 C269 1.397 . S
C270 C271 1.438 . S
C270 C275 1.429 . S
C271 C254 1.394 1_565 S
C271 C270 1.438 . S
C271 C272 1.428 . S
C272 H264 0.949 . S
C272 C271 1.428 . S
C272 C273 1.345 . S
C273 H265 0.950 . S
C273 C272 1.345 . S
C273 C274 1.424 . S
C274 H266 0.951 . S
C274 C273 1.424 . S
C274 C275 1.347 . S
C275 H267 0.951 . S
C275 C270 1.429 . S
C275 C274 1.347 . S
H276 C277 0.951 . S
C277 H276 0.951 . S
C277 C283 1.265 1_655 S
H278 C283 0.950 . S
H279 C287 0.949 . S
H280 C288 0.950 . S
H281 C289 0.951 . S
H282 C290 0.951 . S
C283 C277 1.265 1_455 S
C283 H278 0.950 . S
C283 C284 1.478 . S
C284 C283 1.478 . S
C284 C285 1.397 1_455 S
C284 C301 1.394 . S
C285 C284 1.397 1_655 S
C285 C286 1.438 . S
C285 C290 1.429 . S
C286 C285 1.438 . S
C286 C287 1.428 . S
C286 C299 1.394 . S
C287 H279 0.949 . S
C287 C286 1.428 . S
C287 C288 1.345 . S
C288 H280 0.950 . S
C288 C287 1.345 . S
C288 C289 1.424 . S
C289 H281 0.951 . S
C289 C288 1.424 . S
C289 C290 1.347 . S
C290 H282 0.951 . S
C290 C285 1.429 . S
C290 C289 1.347 . S
H291 C292 0.951 . S
C292 H291 0.951 . S
C292 C298 1.265 1_455 S
H293 C298 0.950 . S
H294 C302 0.949 . S
H295 C303 0.950 . S
H296 C304 0.951 . S
H297 C305 0.951 . S
C298 C292 1.265 1_655 S
C298 H293 0.950 . S
C298 C299 1.478 . S
C299 C286 1.394 . S
C299 C298 1.478 . S
C299 C300 1.397 1_655 S
C300 C299 1.397 1_455 S
C300 C301 1.438 . S
C300 C305 1.429 . S
C301 C284 1.394 . S
C301 C300 1.438 . S
C301 C302 1.428 . S
C302 H294 0.949 . S
C302 C301 1.428 . S
C302 C303 1.345 . S
C303 H295 0.950 . S
C303 C302 1.345 . S
C303 C304 1.424 . S
C304 H296 0.951 . S
C304 C303 1.424 . S
C304 C305 1.347 . S
C305 H297 0.951 . S
C305 C300 1.429 . S
C305 C304 1.347 . S
H306 C307 0.950 1_565 S
C307 H306 0.950 1_545 S
C307 C313 1.265 . S
H308 C313 0.950 . S
H309 C317 0.949 . S
H310 C318 0.950 . S
H311 C319 0.951 . S
H312 C320 0.951 . S
C313 C307 1.265 . S
C313 H308 0.950 . S
C313 C314 1.478 . S
C314 C313 1.478 . S
C314 C315 1.397 1_545 S
C314 C331 1.394 . S
C315 C314 1.397 1_565 S
C315 C316 1.438 . S
C315 C320 1.429 . S
C316 C315 1.438 . S
C316 C317 1.428 . S
C316 C329 1.394 1_565 S
C317 H309 0.949 . S
C317 C316 1.428 . S
C317 C318 1.345 . S
C318 H310 0.950 . S
C318 C317 1.345 . S
C318 C319 1.424 . S
C319 H311 0.951 . S
C319 C318 1.424 . S
C319 C320 1.347 . S
C320 H312 0.951 . S
C320 C315 1.429 . S
C320 C319 1.347 . S
H321 C322 0.951 . S
C322 H321 0.951 . S
C322 C328 1.265 . S
H323 C328 0.950 . S
H324 C332 0.949 . S
H325 C333 0.950 . S
H326 C334 0.951 . S
H327 C335 0.951 . S
C328 C322 1.265 . S
C328 H323 0.950 . S
C328 C329 1.478 . S
C329 C316 1.394 1_545 S
C329 C328 1.478 . S
C329 C330 1.397 . S
C330 C329 1.397 . S
C330 C331 1.438 . S
C330 C335 1.429 . S
C331 C314 1.394 . S
C331 C330 1.438 . S
C331 C332 1.428 . S
C332 H324 0.949 . S
C332 C331 1.428 . S
C332 C333 1.345 . S
C333 H325 0.950 . S
C333 C332 1.345 . S
C333 C334 1.424 . S
C334 H326 0.951 . S
C334 C333 1.424 . S
C334 C335 1.347 . S
C335 H327 0.951 . S
C335 C330 1.429 . S
C335 C334 1.347 . S
H336 C337 0.951 . S
C337 H336 0.951 . S
C337 C343 1.265 1_554 S
H338 C343 0.950 . S
H339 C347 0.949 . S
H340 C348 0.950 . S
H341 C349 0.951 . S
H342 C350 0.951 . S
C343 C337 1.265 1_556 S
C343 H338 0.950 . S
C343 C344 1.478 . S
C344 C343 1.478 . S
C344 C345 1.397 . S
C344 C361 1.394 1_556 S
C345 C344 1.397 . S
C345 C346 1.438 . S
C345 C350 1.429 . S
C346 C345 1.438 . S
C346 C347 1.428 . S
C346 C359 1.394 1_556 S
C347 H339 0.949 . S
C347 C346 1.428 . S
C347 C348 1.345 . S
C348 H340 0.950 . S
C348 C347 1.345 . S
C348 C349 1.424 . S
C349 H341 0.951 . S
C349 C348 1.424 . S
C349 C350 1.347 . S
C350 H342 0.951 . S
C350 C345 1.429 . S
C350 C349 1.347 . S
H351 C352 0.951 . S
C352 H351 0.951 . S
C352 C358 1.265 1_556 S
H353 C358 0.950 . S
H354 C362 0.949 . S
H355 C363 0.950 . S
H356 C364 0.951 . S
H357 C365 0.951 . S
C358 C352 1.265 1_554 S
C358 H353 0.950 . S
C358 C359 1.478 . S
C359 C346 1.394 1_554 S
C359 C358 1.478 . S
C359 C360 1.397 . S
C360 C359 1.397 . S
C360 C361 1.438 . S
C360 C365 1.429 . S
C361 C344 1.394 1_554 S
C361 C360 1.438 . S
C361 C362 1.428 . S
C362 H354 0.949 . S
C362 C361 1.428 . S
C362 C363 1.345 . S
C363 H355 0.950 . S
C363 C362 1.345 . S
C363 C364 1.424 . S
C364 H356 0.951 . S
C364 C363 1.424 . S
C364 C365 1.347 . S
C365 H357 0.951 . S
C365 C360 1.429 . S
C365 C364 1.347 . S
H366 C367 0.951 . S
C367 H366 0.951 . S
C367 C373 1.265 . S
H368 C373 0.950 1_554 S
H369 C377 0.949 . S
H370 C378 0.950 . S
H371 C379 0.951 . S
H372 C380 0.951 . S
C373 C367 1.265 . S
C373 H368 0.950 1_556 S
C373 C374 1.478 1_556 S
C374 C373 1.478 1_554 S
C374 C375 1.394 1_554 S
C374 C391 1.396 . S
C375 C374 1.394 1_556 S
C375 C376 1.438 . S
C375 C380 1.429 . S
C376 C375 1.438 . S
C376 C377 1.428 . S
C376 C389 1.393 . S
C377 H369 0.949 . S
C377 C376 1.428 . S
C377 C378 1.345 . S
C378 H370 0.950 . S
C378 C377 1.345 . S
C378 C379 1.424 . S
C379 H371 0.951 . S
C379 C378 1.424 . S
C379 C380 1.347 . S
C380 H372 0.951 . S
C380 C375 1.429 . S
C380 C379 1.347 . S
H381 C382 0.951 . S
C382 H381 0.951 . S
C382 C388 1.265 . S
H383 C388 0.949 1_556 S
H384 C392 0.949 . S
H385 C393 0.950 . S
H386 C394 0.951 . S
H387 C395 0.951 . S
C388 C382 1.265 . S
C388 H383 0.949 1_554 S
C388 C389 1.478 1_554 S
C389 C376 1.393 . S
C389 C388 1.478 1_556 S
C389 C390 1.398 1_556 S
C390 C389 1.398 1_554 S
C390 C391 1.438 . S
C390 C395 1.429 . S
C391 C374 1.396 . S
C391 C390 1.438 . S
C391 C392 1.428 . S
C392 H384 0.949 . S
C392 C391 1.428 . S
C392 C393 1.345 . S
C393 H385 0.950 . S
C393 C392 1.345 . S
C393 C394 1.424 . S
C394 H386 0.951 . S
C394 C393 1.424 . S
C394 C395 1.347 . S
C395 H387 0.951 . S
C395 C390 1.429 . S
C395 C394 1.347 . S
H396 C397 0.950 1_554 S
C397 H396 0.950 1_556 S
C397 C403 1.266 . S
H398 C403 0.950 . S
H399 C407 0.949 . S
H400 C408 0.950 . S
H401 C409 0.951 . S
H402 C410 0.951 . S
C403 C397 1.266 . S
C403 H398 0.950 . S
C403 C404 1.479 . S
C404 C403 1.479 . S
C404 C405 1.413 . S
C404 C421 1.378 1_556 S
C405 C404 1.413 . S
C405 C406 1.438 . S
C405 C410 1.429 . S
C406 C405 1.438 . S
C406 C407 1.428 . S
C406 C419 1.394 1_556 S
C407 H399 0.949 . S
C407 C406 1.428 . S
C407 C408 1.345 . S
C408 H400 0.950 . S
C408 C407 1.345 . S
C408 C409 1.424 . S
C409 H401 0.951 . S
C409 C408 1.424 . S
C409 C410 1.347 . S
C410 H402 0.951 . S
C410 C405 1.429 . S
C410 C409 1.347 . S
H411 C412 0.951 1_556 S
C412 H411 0.951 1_554 S
C412 C418 1.265 . S
H413 C418 0.950 . S
H414 C422 0.949 . S
H415 C423 0.950 . S
H416 C424 0.951 . S
H417 C425 0.951 . S
C418 C412 1.265 . S
C418 H413 0.950 . S
C418 C419 1.478 . S
C419 C406 1.394 1_554 S
C419 C418 1.478 . S
C419 C420 1.397 . S
C420 C419 1.397 . S
C420 C421 1.438 . S
C420 C425 1.429 . S
C421 C404 1.378 1_554 S
C421 C420 1.438 . S
C421 C422 1.428 . S
C422 H414 0.949 . S
C422 C421 1.428 . S
C422 C423 1.345 . S
C423 H415 0.950 . S
C423 C422 1.345 . S
C423 C424 1.424 . S
C424 H416 0.951 . S
C424 C423 1.424 . S
C424 C425 1.347 . S
C425 H417 0.951 . S
C425 C420 1.429 . S
C425 C424 1.347 . S
H426 C427 0.951 1_556 S
C427 H426 0.951 1_554 S
C427 C433 1.265 . S
H428 C433 0.950 . S
H429 C437 0.949 . S
H430 C438 0.950 . S
H431 C439 0.951 . S
H432 C440 0.951 . S
C433 C427 1.265 . S
C433 H428 0.950 . S
C433 C434 1.478 . S
C434 C433 1.478 . S
C434 C435 1.397 1_554 S
C434 C451 1.394 . S
C435 C434 1.397 1_556 S
C435 C436 1.438 . S
C435 C440 1.429 . S
C436 C435 1.438 . S
C436 C437 1.428 . S
C436 C449 1.394 1_556 S
C437 H429 0.949 . S
C437 C436 1.428 . S
C437 C438 1.345 . S
C438 H430 0.950 . S
C438 C437 1.345 . S
C438 C439 1.424 . S
C439 H431 0.951 . S
C439 C438 1.424 . S
C439 C440 1.347 . S
C440 H432 0.951 . S
C440 C435 1.429 . S
C440 C439 1.347 . S
H441 C442 0.951 . S
C442 H441 0.951 . S
C442 C448 1.265 1_554 S
H443 C448 0.950 . S
H444 C452 0.949 . S
H445 C453 0.950 . S
H446 C454 0.951 . S
H447 C455 0.951 . S
C448 C442 1.265 1_556 S
C448 H443 0.950 . S
C448 C449 1.478 1_556 S
C449 C436 1.394 1_554 S
C449 C448 1.478 1_554 S
C449 C450 1.397 . S
C450 C449 1.397 . S
C450 C451 1.438 . S
C450 C455 1.429 . S
C451 C434 1.394 . S
C451 C450 1.438 . S
C451 C452 1.428 . S
C452 H444 0.949 . S
C452 C451 1.428 . S
C452 C453 1.345 . S
C453 H445 0.950 . S
C453 C452 1.345 . S
C453 C454 1.424 . S
C454 H446 0.951 . S
C454 C453 1.424 . S
C454 C455 1.347 . S
C455 H447 0.951 . S
C455 C450 1.429 . S
C455 C454 1.347 . S
C97 C86 1.109 . S
C112 C8 1.198 1_455 S
C127 C22 1.086 . S
C142 C56 1.164 . S
C157 C17 1.058 . S
C172 C87 1.067 . S
C187 C40 1.131 . S
C202 C31 1.191 . S
C217 C27 1.102 . S
C232 C94 1.211 1_655 S
C247 C49 1.161 . S
C262 C30 1.084 . S
C277 C95 1.175 1_655 S
C292 C24 1.081 1_455 S
C307 C59 1.200 . S
C322 C23 1.093 . S
C337 C81 1.195 1_554 S
C352 C63 1.096 . S
C367 C91 1.072 . S
C382 C54 1.145 . S
C397 C62 1.155 . S
C412 C72 1.077 . S
C427 C88 1.207 . S
C442 C55 1.089 . S
