# Generated by pormake.
# Topology ske, (6)-cn, num edge types: 1
# Building blocks:
#     Node 0, Type 0, BuildingBlock: GEDQOX_clean_sbu_0, # of connection points: 6
#     Node 1, Type 0, BuildingBlock: GEDQOX_clean_sbu_0, # of connection points: 6
#     Node 2, Type 0, BuildingBlock: GEDQOX_clean_sbu_0, # of connection points: 6
#     Node 3, Type 0, BuildingBlock: GEDQOX_clean_sbu_0, # of connection points: 6
#     Node 4, Type 0, BuildingBlock: GEDQOX_clean_sbu_0, # of connection points: 6
#     Node 5, Type 0, BuildingBlock: GEDQOX_clean_sbu_0, # of connection points: 6
#     Node 6, Type 0, BuildingBlock: GEDQOX_clean_sbu_0, # of connection points: 6
#     Node 7, Type 0, BuildingBlock: GEDQOX_clean_sbu_0, # of connection points: 6
#     Edge 8, Type (0, 0), BuildingBlock: UVAHIK_clean_linker_0, # of connection points: 2
#     Edge 9, Type (0, 0), BuildingBlock: UVAHIK_clean_linker_0, # of connection points: 2
#     Edge 10, Type (0, 0), BuildingBlock: UVAHIK_clean_linker_0, # of connection points: 2
#     Edge 11, Type (0, 0), BuildingBlock: UVAHIK_clean_linker_0, # of connection points: 2
#     Edge 12, Type (0, 0), BuildingBlock: UVAHIK_clean_linker_0, # of connection points: 2
#     Edge 13, Type (0, 0), BuildingBlock: UVAHIK_clean_linker_0, # of connection points: 2
#     Edge 14, Type (0, 0), BuildingBlock: UVAHIK_clean_linker_0, # of connection points: 2
#     Edge 15, Type (0, 0), BuildingBlock: UVAHIK_clean_linker_0, # of connection points: 2
#     Edge 16, Type (0, 0), BuildingBlock: UVAHIK_clean_linker_0, # of connection points: 2
#     Edge 17, Type (0, 0), BuildingBlock: UVAHIK_clean_linker_0, # of connection points: 2
#     Edge 18, Type (0, 0), BuildingBlock: UVAHIK_clean_linker_0, # of connection points: 2
#     Edge 19, Type (0, 0), BuildingBlock: UVAHIK_clean_linker_0, # of connection points: 2
#     Edge 20, Type (0, 0), BuildingBlock: UVAHIK_clean_linker_0, # of connection points: 2
#     Edge 21, Type (0, 0), BuildingBlock: UVAHIK_clean_linker_0, # of connection points: 2
#     Edge 22, Type (0, 0), BuildingBlock: UVAHIK_clean_linker_0, # of connection points: 2
#     Edge 23, Type (0, 0), BuildingBlock: UVAHIK_clean_linker_0, # of connection points: 2
#     Edge 24, Type (0, 0), BuildingBlock: UVAHIK_clean_linker_0, # of connection points: 2
#     Edge 25, Type (0, 0), BuildingBlock: UVAHIK_clean_linker_0, # of connection points: 2
#     Edge 26, Type (0, 0), BuildingBlock: UVAHIK_clean_linker_0, # of connection points: 2
#     Edge 27, Type (0, 0), BuildingBlock: UVAHIK_clean_linker_0, # of connection points: 2
#     Edge 28, Type (0, 0), BuildingBlock: UVAHIK_clean_linker_0, # of connection points: 2
#     Edge 29, Type (0, 0), BuildingBlock: UVAHIK_clean_linker_0, # of connection points: 2
#     Edge 30, Type (0, 0), BuildingBlock: UVAHIK_clean_linker_0, # of connection points: 2
#     Edge 31, Type (0, 0), BuildingBlock: UVAHIK_clean_linker_0, # of connection points: 2
# Relax obj value: 0.195
# Max RMSD: 0.219
# Mean RMSD: 0.219
data_MOF--net-ske--node1-GEDQOX_clean_sbu_0--edge1-UVAHIK_clean_linker_0
_symmetry_space_group_name_H-M    P1
_symmetry_Int_Tables_number       1
_symmetry_cell_setting            triclinic
loop_
_symmetry_equiv_pos_as_xyz
'x, y, z'
_cell_length_a     70.140823
_cell_length_b     37.659134
_cell_length_c     29.854878
_cell_angle_alpha  90.02494
_cell_angle_beta   89.873783
_cell_angle_gamma 96.200661
loop_
_atom_site_label
_atom_site_type_symbol
_atom_site_fract_x
_atom_site_fract_y
_atom_site_fract_z
_atom_type_partial_charge
Nd0 Nd 0.15474 0.24872 0.53485 0.0
Nd1 Nd 0.13243 0.22838 0.6169 0.0
C2 C 0.16809 0.27528 0.45692 0.0
C3 C 0.16415 0.27066 0.40858 0.0
C4 C 0.17263 0.29599 0.37818 0.0
C5 C 0.16956 0.29167 0.33207 0.0
C6 C 0.15791 0.26182 0.31529 0.0
C7 C 0.14921 0.23667 0.3461 0.0
C8 C 0.15231 0.24106 0.39229 0.0
C9 C 0.15099 0.17609 0.55095 0.0
C10 C 0.10756 0.23299 0.53048 0.0
C11 C 0.11884 0.20227 0.69472 0.0
C12 C 0.12312 0.20682 0.74292 0.0
C13 C 0.11429 0.1822 0.77373 0.0
C14 C 0.11762 0.18664 0.81973 0.0
C15 C 0.12984 0.21594 0.83602 0.0
C16 C 0.13891 0.24031 0.80478 0.0
C17 C 0.13559 0.23577 0.75869 0.0
C18 C 0.13566 0.30056 0.59792 0.0
C19 C 0.1791 0.24635 0.62483 0.0
O20 O 0.15527 0.28953 0.48082 0.0
O21 O 0.17486 0.24873 0.47742 0.0
O22 O 0.1666 0.19443 0.53744 0.0
O23 O 0.13766 0.1959 0.55507 0.0
O24 O 0.12301 0.25232 0.51491 0.0
O25 O 0.10852 0.21354 0.56683 0.0
O26 O 0.13127 0.18718 0.67051 0.0
O27 O 0.11244 0.22931 0.67441 0.0
O28 O 0.12015 0.28262 0.61276 0.0
O29 O 0.14909 0.28095 0.59546 0.0
O30 O 0.16357 0.22725 0.63993 0.0
O31 O 0.17882 0.26324 0.58608 0.0
H32 H 0.18174 0.31912 0.3901 0.0
H33 H 0.17622 0.31191 0.30958 0.0
H34 H 0.14031 0.2132 0.33451 0.0
H35 H 0.14561 0.22118 0.41525 0.0
H36 H 0.1047 0.15956 0.76221 0.0
H37 H 0.11067 0.16693 0.84251 0.0
H38 H 0.14826 0.26336 0.81594 0.0
H39 H 0.14258 0.25507 0.7354 0.0
Nd40 Nd 0.86616 0.26685 0.52777 0.0
Nd41 Nd 0.88919 0.29113 0.61681 0.0
C42 C 0.85388 0.23072 0.45546 0.0
C43 C 0.856 0.23655 0.4067 0.0
C44 C 0.84687 0.21177 0.37652 0.0
C45 C 0.84915 0.21682 0.33019 0.0
C46 C 0.86067 0.24677 0.31309 0.0
C47 C 0.86971 0.27163 0.34368 0.0
C48 C 0.8674 0.26656 0.38996 0.0
C49 C 0.87189 0.34084 0.53089 0.0
C50 C 0.91303 0.28958 0.52742 0.0
C51 C 0.90153 0.31893 0.69454 0.0
C52 C 0.897 0.31335 0.74253 0.0
C53 C 0.90595 0.33678 0.77444 0.0
C54 C 0.90234 0.33123 0.82021 0.0
C55 C 0.88969 0.30199 0.83515 0.0
C56 C 0.88051 0.27881 0.80281 0.0
C57 C 0.88413 0.28445 0.75698 0.0
C58 C 0.88733 0.21985 0.59396 0.0
C59 C 0.84198 0.2703 0.62163 0.0
O60 O 0.86956 0.22511 0.47693 0.0
O61 O 0.84358 0.2523 0.47701 0.0
O62 O 0.8624 0.32289 0.49963 0.0
O63 O 0.87751 0.31933 0.55894 0.0
O64 O 0.89859 0.2673 0.51208 0.0
O65 O 0.91127 0.30929 0.56344 0.0
O66 O 0.88857 0.33226 0.67007 0.0
O67 O 0.90925 0.29318 0.67425 0.0
O68 O 0.90223 0.23741 0.6124 0.0
O69 O 0.87388 0.23934 0.59077 0.0
O70 O 0.85806 0.28398 0.64098 0.0
O71 O 0.84136 0.25913 0.57938 0.0
H72 H 0.83808 0.18835 0.38878 0.0
H73 H 0.84216 0.19689 0.30779 0.0
H74 H 0.87846 0.29523 0.33188 0.0
H75 H 0.87455 0.28604 0.41274 0.0
H76 H 0.91586 0.35934 0.76396 0.0
H77 H 0.9094 0.35005 0.84388 0.0
H78 H 0.87084 0.25583 0.8129 0.0
H79 H 0.87706 0.26603 0.73282 0.0
Nd80 Nd 0.13145 0.72824 0.42476 0.0
Nd81 Nd 0.15469 0.74763 0.50622 0.0
C82 C 0.11741 0.70287 0.34708 0.0
C83 C 0.12161 0.70748 0.29879 0.0
C84 C 0.1115 0.68478 0.26775 0.0
C85 C 0.11487 0.68924 0.22172 0.0
C86 C 0.12842 0.71663 0.20561 0.0
C87 C 0.13873 0.7391 0.23707 0.0
C88 C 0.13535 0.73455 0.28319 0.0
C89 C 0.13457 0.8 0.4457 0.0
C90 C 0.17806 0.747 0.41424 0.0
C91 C 0.16858 0.77309 0.58413 0.0
C92 C 0.16447 0.76887 0.63251 0.0
C93 C 0.17424 0.79249 0.66308 0.0
C94 C 0.17102 0.78841 0.7092 0.0
C95 C 0.15792 0.76052 0.72588 0.0
C96 C 0.14795 0.73711 0.69491 0.0
C97 C 0.1512 0.74125 0.6487 0.0
C98 C 0.15099 0.67545 0.48769 0.0
C99 C 0.10754 0.73092 0.5134 0.0
O100 O 0.12973 0.68724 0.37086 0.0
O101 O 0.11133 0.73009 0.36779 0.0
O102 O 0.119 0.78213 0.43114 0.0
O103 O 0.14812 0.78055 0.44696 0.0
O104 O 0.16236 0.7284 0.39943 0.0
O105 O 0.17833 0.76271 0.45387 0.0
O106 O 0.15628 0.78862 0.56022 0.0
O107 O 0.17459 0.74575 0.56363 0.0
O108 O 0.16673 0.69369 0.50055 0.0
O109 O 0.13754 0.69517 0.48538 0.0
O110 O 0.12312 0.74998 0.52864 0.0
O111 O 0.10809 0.71247 0.47605 0.0
H112 H 0.10091 0.6636 0.27911 0.0
H113 H 0.10691 0.67098 0.19877 0.0
H114 H 0.14914 0.76067 0.22608 0.0
H115 H 0.14333 0.75236 0.30665 0.0
H116 H 0.18448 0.81408 0.65126 0.0
H117 H 0.17871 0.80734 0.73179 0.0
H118 H 0.1379 0.71513 0.7064 0.0
H119 H 0.1435 0.72269 0.62563 0.0
Nd120 Nd 0.89157 0.79083 0.42452 0.0
Nd121 Nd 0.86814 0.77283 0.50599 0.0
C122 C 0.90604 0.81474 0.34646 0.0
C123 C 0.90174 0.81028 0.29825 0.0
C124 C 0.91263 0.83152 0.26693 0.0
C125 C 0.90898 0.82748 0.221 0.0
C126 C 0.89433 0.802 0.20531 0.0
C127 C 0.88337 0.78079 0.23699 0.0
C128 C 0.88702 0.78494 0.28302 0.0
C129 C 0.88813 0.71938 0.44721 0.0
C130 C 0.8449 0.77307 0.41405 0.0
C131 C 0.854 0.74838 0.58426 0.0
C132 C 0.85834 0.75225 0.63252 0.0
C133 C 0.8477 0.73017 0.66344 0.0
C134 C 0.85124 0.73388 0.70945 0.0
C135 C 0.86553 0.75985 0.72564 0.0
C136 C 0.87627 0.78184 0.69434 0.0
C137 C 0.87272 0.77804 0.64823 0.0
C138 C 0.87214 0.84481 0.48611 0.0
C139 C 0.91518 0.7896 0.51329 0.0
O140 O 0.89413 0.83146 0.37025 0.0
O141 O 0.91149 0.78705 0.36728 0.0
O142 O 0.90393 0.73699 0.43334 0.0
O143 O 0.87464 0.73898 0.44742 0.0
O144 O 0.86076 0.79107 0.39892 0.0
O145 O 0.84445 0.75784 0.45397 0.0
O146 O 0.86579 0.73183 0.55997 0.0
O147 O 0.8486 0.77633 0.56402 0.0
O148 O 0.8563 0.82691 0.49909 0.0
O149 O 0.88549 0.82485 0.48433 0.0
O150 O 0.89969 0.77022 0.52851 0.0
O151 O 0.91467 0.80772 0.47576 0.0
H152 H 0.92408 0.85116 0.27799 0.0
H153 H 0.91789 0.84394 0.19772 0.0
H154 H 0.87183 0.76123 0.22626 0.0
H155 H 0.87838 0.76836 0.30671 0.0
H156 H 0.8365 0.71017 0.652 0.0
H157 H 0.8425 0.7168 0.7324 0.0
H158 H 0.88754 0.80181 0.70542 0.0
H159 H 0.88115 0.79529 0.62486 0.0
Nd160 Nd 0.6549 0.75111 0.02976 0.0
Nd161 Nd 0.63237 0.72726 0.11959 0.0
C162 C 0.66702 0.78749 0.95749 0.0
C163 C 0.66493 0.78182 0.90876 0.0
C164 C 0.67482 0.80576 0.87868 0.0
C165 C 0.67273 0.80067 0.83235 0.0
C166 C 0.66069 0.77147 0.81517 0.0
C167 C 0.65083 0.7475 0.84569 0.0
C168 C 0.65293 0.75263 0.89197 0.0
C169 C 0.64977 0.67721 0.03377 0.0
C170 C 0.60811 0.72661 0.03055 0.0
C171 C 0.62019 0.69981 0.19768 0.0
C172 C 0.62492 0.70534 0.24548 0.0
C173 C 0.6155 0.68276 0.27773 0.0
C174 C 0.61945 0.68811 0.32334 0.0
C175 C 0.63291 0.71628 0.33769 0.0
C176 C 0.64242 0.73876 0.30506 0.0
C177 C 0.63848 0.7333 0.25939 0.0
C178 C 0.63376 0.79826 0.0958 0.0
C179 C 0.67949 0.74833 0.12302 0.0
O180 O 0.65132 0.79286 0.97919 0.0
O181 O 0.6774 0.76594 0.9787 0.0
O182 O 0.65901 0.69512 1.00201 0.0
O183 O 0.64407 0.69872 0.06184 0.0
O184 O 0.62238 0.7487 1.01381 0.0
O185 O 0.61029 0.70793 0.06722 0.0
O186 O 0.63301 0.68624 0.17286 0.0
O187 O 0.61256 0.72572 0.17766 0.0
O188 O 0.61895 0.78058 0.1146 0.0
O189 O 0.64732 0.77903 0.09262 0.0
O190 O 0.6635 0.73491 0.14307 0.0
O191 O 0.67993 0.75903 0.08059 0.0
H192 H 0.68417 0.82841 0.89101 0.0
H193 H 0.68075 0.81941 0.81 0.0
H194 H 0.64123 0.72502 0.83384 0.0
H195 H 0.64511 0.73389 0.9147 0.0
H196 H 0.60495 0.6611 0.26766 0.0
H197 H 0.61167 0.67056 0.34743 0.0
H198 H 0.65302 0.76042 0.31479 0.0
H199 H 0.64595 0.75098 0.23493 0.0
Nd200 Nd 0.36808 0.76928 0.02834 0.0
Nd201 Nd 0.39056 0.79331 0.11801 0.0
C202 C 0.35597 0.73273 0.95627 0.0
C203 C 0.35817 0.7382 0.90752 0.0
C204 C 0.34849 0.71394 0.87754 0.0
C205 C 0.35074 0.71878 0.83119 0.0
C206 C 0.36277 0.74799 0.8139 0.0
C207 C 0.37239 0.77231 0.84429 0.0
C208 C 0.3701 0.76747 0.89059 0.0
C209 C 0.37329 0.84317 0.03211 0.0
C210 C 0.41486 0.79359 0.02886 0.0
C211 C 0.40276 0.82096 0.19588 0.0
C212 C 0.39834 0.8151 0.24382 0.0
C213 C 0.40777 0.83777 0.27588 0.0
C214 C 0.40422 0.83197 0.32161 0.0
C215 C 0.39117 0.80325 0.33632 0.0
C216 C 0.38154 0.78083 0.30384 0.0
C217 C 0.38509 0.78671 0.25804 0.0
C218 C 0.38891 0.72215 0.09473 0.0
C219 C 0.34343 0.77256 0.12169 0.0
O220 O 0.37161 0.72726 0.97801 0.0
O221 O 0.34564 0.75449 0.97737 0.0
O222 O 0.36406 0.82523 1.00044 0.0
O223 O 0.37896 0.82169 0.06018 0.0
O224 O 0.40062 0.77139 1.01236 0.0
O225 O 0.41263 0.81251 0.06533 0.0
O226 O 0.38961 0.83398 0.17166 0.0
O227 O 0.41066 0.79554 0.17537 0.0
O228 O 0.40375 0.73969 0.11345 0.0
O229 O 0.37547 0.7416 0.09141 0.0
O230 O 0.3594 0.78602 0.14159 0.0
O231 O 0.34302 0.76164 0.07933 0.0
H232 H 0.33928 0.69112 0.88998 0.0
H233 H 0.3433 0.69927 0.80892 0.0
H234 H 0.38154 0.79536 0.8323 0.0
H235 H 0.37767 0.78656 0.91324 0.0
H236 H 0.41798 0.85992 0.26555 0.0
H237 H 0.41165 0.85019 0.34545 0.0
H238 H 0.37154 0.75826 0.31379 0.0
H239 H 0.37767 0.76888 0.23374 0.0
Nd240 Nd 0.63039 0.22762 0.92716 0.0
Nd241 Nd 0.65388 0.24515 1.0085 0.0
C242 C 0.61592 0.20381 0.84919 0.0
C243 C 0.62044 0.20795 0.801 0.0
C244 C 0.60982 0.18623 0.76977 0.0
C245 C 0.61359 0.19012 0.72384 0.0
C246 C 0.62808 0.21594 0.70807 0.0
C247 C 0.63878 0.23759 0.73966 0.0
C248 C 0.63503 0.23357 0.78569 0.0
C249 C 0.63416 0.29902 0.94993 0.0
C250 C 0.67712 0.24474 0.91633 0.0
C251 C 0.66816 0.26931 0.08663 0.0
C252 C 0.66384 0.26545 0.13495 0.0
C253 C 0.67422 0.28805 0.16567 0.0
C254 C 0.67071 0.28435 0.21173 0.0
C255 C 0.65672 0.25787 0.22816 0.0
C256 C 0.64624 0.23537 0.19705 0.0
C257 C 0.64974 0.23917 0.1509 0.0
C258 C 0.64944 0.17321 0.9885 0.0
C259 C 0.60668 0.22993 1.01607 0.0
O260 O 0.62753 0.18668 0.87321 0.0
O261 O 0.61073 0.23186 0.86977 0.0
O262 O 0.61833 0.28171 0.93594 0.0
O263 O 0.64755 0.27918 0.95007 0.0
O264 O 0.6612 0.22702 0.90125 0.0
O265 O 0.67762 0.25989 0.95631 0.0
O266 O 0.65643 0.28607 0.06258 0.0
O267 O 0.67343 0.24129 0.06622 0.0
O268 O 0.66538 0.19078 1.0013 0.0
O269 O 0.63622 0.19347 0.98692 0.0
O270 O 0.62243 0.24831 0.0315 0.0
O271 O 0.60698 0.21195 0.97832 0.0
H272 H 0.59848 0.16635 0.7809 0.0
H273 H 0.60489 0.1733 0.70062 0.0
H274 H 0.65019 0.25743 0.72886 0.0
H275 H 0.64345 0.25052 0.80931 0.0
H276 H 0.6852 0.30844 0.15404 0.0
H277 H 0.67926 0.30184 0.23453 0.0
H278 H 0.63519 0.215 0.20832 0.0
H279 H 0.64151 0.22152 0.12768 0.0
Nd280 Nd 0.39035 0.29291 0.92794 0.0
Nd281 Nd 0.36739 0.27409 1.00994 0.0
C282 C 0.40447 0.31753 0.8499 0.0
C283 C 0.40007 0.31306 0.80175 0.0
C284 C 0.41072 0.33464 0.77035 0.0
C285 C 0.40704 0.33044 0.72446 0.0
C286 C 0.39262 0.30445 0.70892 0.0
C287 C 0.38189 0.28294 0.74068 0.0
C288 C 0.38555 0.28726 0.78667 0.0
C289 C 0.38699 0.22125 0.9494 0.0
C290 C 0.34363 0.27531 0.91893 0.0
C291 C 0.35355 0.2488 0.08807 0.0
C292 C 0.35776 0.2529 0.13634 0.0
C293 C 0.34743 0.23024 0.16716 0.0
C294 C 0.35086 0.23412 0.21319 0.0
C295 C 0.36473 0.26082 0.22948 0.0
C296 C 0.37516 0.28339 0.19827 0.0
C297 C 0.37173 0.27943 0.15215 0.0
C298 C 0.37148 0.34631 0.99131 0.0
C299 C 0.41446 0.29061 1.01595 0.0
O300 O 0.39244 0.33378 0.87395 0.0
O301 O 0.41022 0.28999 0.87044 0.0
O302 O 0.40269 0.23893 0.93515 0.0
O303 O 0.37352 0.24087 0.9505 0.0
O304 O 0.35934 0.29373 0.90368 0.0
O305 O 0.34353 0.25929 0.95831 0.0
O306 O 0.36573 0.23311 0.06388 0.0
O307 O 0.34764 0.27631 0.06781 0.0
O308 O 0.35569 0.32849 1.00476 0.0
O309 O 0.38473 0.3262 0.98863 0.0
O310 O 0.39904 0.27112 0.03136 0.0
O311 O 0.41373 0.30918 0.9788 0.0
H312 H 0.42201 0.35464 0.78133 0.0
H313 H 0.41576 0.34716 0.7011 0.0
H314 H 0.37053 0.26297 0.73003 0.0
H315 H 0.3771 0.27043 0.81044 0.0
H316 H 0.33655 0.20967 0.15562 0.0
H317 H 0.34235 0.21657 0.23607 0.0
H318 H 0.38611 0.30394 0.20945 0.0
H319 H 0.37991 0.29712 0.12884 0.0
C320 C 0.19588 0.23192 0.69526 0.0
C321 C 0.19649 0.24936 0.65349 0.0
C322 C 0.21186 0.23466 0.72328 0.0
C323 C 0.25727 0.29055 0.74687 0.0
H324 H 0.26913 0.20731 0.81353 0.0
C325 C 0.32716 0.28935 0.84787 0.0
C326 C 0.32635 0.27223 0.88986 0.0
C327 C 0.31127 0.28659 0.81956 0.0
C328 C 0.26588 0.23092 0.79563 0.0
H329 H 0.21457 0.28343 0.60856 0.0
H330 H 0.24272 0.28801 0.65759 0.0
H331 H 0.24215 0.20223 0.7617 0.0
H332 H 0.30802 0.23869 0.93486 0.0
H333 H 0.28005 0.23401 0.88529 0.0
H334 H 0.28101 0.31922 0.78077 0.0
C335 C 0.22968 0.27242 0.66869 0.0
C336 C 0.25042 0.22802 0.76579 0.0
C337 C 0.2136 0.26966 0.64046 0.0
C338 C 0.30914 0.25221 0.9028 0.0
C339 C 0.29316 0.24938 0.87427 0.0
C340 C 0.27273 0.29345 0.77669 0.0
C341 C 0.22899 0.25489 0.71047 0.0
C342 C 0.24588 0.25781 0.74108 0.0
C343 C 0.29405 0.26662 0.8323 0.0
C344 C 0.27724 0.26367 0.80146 0.0
H345 H 0.18294 0.2162 0.70673 0.0
H346 H 0.21064 0.22134 0.75547 0.0
H347 H 0.25401 0.31417 0.72901 0.0
H348 H 0.34018 0.30486 0.83647 0.0
H349 H 0.31261 0.2997 0.78725 0.0
C350 C 0.71211 0.26423 0.90074 0.0
C351 C 0.69417 0.24803 0.8864 0.0
C352 C 0.72798 0.26667 0.87173 0.0
C353 C 0.74092 0.26357 0.75107 0.0
H354 H 0.79037 0.24315 0.79588 0.0
C355 C 0.80657 0.25147 0.63411 0.0
C356 C 0.82442 0.26693 0.65006 0.0
C357 C 0.79037 0.24852 0.66219 0.0
C358 C 0.77671 0.24928 0.78284 0.0
H359 H 0.6789 0.22198 0.82996 0.0
H360 H 0.70636 0.22607 0.78012 0.0
H361 H 0.76308 0.24089 0.8468 0.0
H362 H 0.839 0.29177 0.70825 0.0
H363 H 0.81107 0.28705 0.75609 0.0
H364 H 0.7546 0.27212 0.68711 0.0
C365 C 0.70822 0.2372 0.81349 0.0
C366 C 0.76106 0.24806 0.81214 0.0
C367 C 0.69247 0.23462 0.84238 0.0
C368 C 0.8256 0.27947 0.69454 0.0
C369 C 0.80953 0.27655 0.72236 0.0
C370 C 0.7566 0.26487 0.72175 0.0
C371 C 0.7262 0.25319 0.8277 0.0
C372 C 0.74297 0.25524 0.79668 0.0
C373 C 0.79171 0.26089 0.70679 0.0
C374 C 0.77473 0.25792 0.7373 0.0
H375 H 0.71392 0.27489 0.93434 0.0
H376 H 0.7416 0.27946 0.88361 0.0
H377 H 0.72724 0.26964 0.7381 0.0
H378 H 0.80513 0.24151 0.60011 0.0
H379 H 0.77687 0.23609 0.64919 0.0
C380 C 0.32676 0.78115 0.19434 0.0
C381 C 0.3257 0.76943 0.14949 0.0
C382 C 0.31046 0.77909 0.22135 0.0
C383 C 0.26195 0.73279 0.23482 0.0
H384 H 0.25526 0.81189 0.31463 0.0
C385 C 0.19331 0.73766 0.34005 0.0
C386 C 0.19508 0.75069 0.38424 0.0
C387 C 0.20902 0.74044 0.31108 0.0
C388 C 0.25702 0.78938 0.293 0.0
H389 H 0.30644 0.74599 0.09822 0.0
H390 H 0.27771 0.74239 0.14583 0.0
H391 H 0.28247 0.81589 0.26328 0.0
H392 H 0.21487 0.7771 0.4324 0.0
H393 H 0.24256 0.78155 0.38176 0.0
H394 H 0.23661 0.7061 0.26482 0.0
C395 C 0.29136 0.75309 0.15985 0.0
C396 C 0.27259 0.79171 0.2634 0.0
C397 C 0.30779 0.75526 0.13252 0.0
C398 C 0.21301 0.76684 0.39862 0.0
C399 C 0.22885 0.76952 0.36948 0.0
C400 C 0.24639 0.73041 0.26452 0.0
C401 C 0.29253 0.76524 0.20453 0.0
C402 C 0.27532 0.76337 0.23412 0.0
C403 C 0.22704 0.75619 0.32537 0.0
C404 C 0.24375 0.75864 0.2941 0.0
H405 H 0.34025 0.79205 0.20899 0.0
H406 H 0.31199 0.78802 0.25579 0.0
H407 H 0.26378 0.71029 0.21322 0.0
H408 H 0.17969 0.72537 0.32747 0.0
H409 H 0.20695 0.73056 0.27717 0.0
C410 C 0.69611 0.74011 0.19567 0.0
C411 C 0.69721 0.75158 0.15073 0.0
C412 C 0.71241 0.74217 0.22255 0.0
C413 C 0.76108 0.78797 0.23528 0.0
H414 H 0.76747 0.70905 0.31546 0.0
C415 C 0.82969 0.78255 0.33997 0.0
C416 C 0.82788 0.76961 0.3842 0.0
C417 C 0.81397 0.77994 0.31115 0.0
C418 C 0.7658 0.73152 0.29374 0.0
H419 H 0.71652 0.77463 0.09915 0.0
H420 H 0.74524 0.77824 0.14652 0.0
H421 H 0.74025 0.70522 0.26445 0.0
H422 H 0.80799 0.74356 0.43259 0.0
H423 H 0.78031 0.7394 0.38225 0.0
H424 H 0.78653 0.81443 0.26485 0.0
C425 C 0.73157 0.76772 0.16072 0.0
C426 C 0.75022 0.72928 0.26433 0.0
C427 C 0.71514 0.76555 0.13353 0.0
C428 C 0.80989 0.75375 0.39878 0.0
C429 C 0.79406 0.75122 0.36981 0.0
C430 C 0.77665 0.79025 0.2648 0.0
C431 C 0.73037 0.75578 0.20549 0.0
C432 C 0.74759 0.75756 0.23491 0.0
C433 C 0.79591 0.76443 0.32564 0.0
C434 C 0.77919 0.76209 0.29452 0.0
H435 H 0.6826 0.72937 0.2105 0.0
H436 H 0.71086 0.73341 0.25705 0.0
H437 H 0.75935 0.81041 0.21356 0.0
H438 H 0.84334 0.79466 0.32725 0.0
H439 H 0.81608 0.78973 0.2772 0.0
C440 C 0.15361 0.85677 0.47132 0.0
C441 C 0.13594 0.83796 0.45971 0.0
C442 C 0.15467 0.89272 0.48439 0.0
C443 C 0.12719 0.97227 0.47943 0.0
H444 H 0.16359 1.00949 0.56984 0.0
C445 C 0.12983 0.11772 0.54602 0.0
C446 C 0.14823 0.13656 0.54808 0.0
C447 C 0.12761 0.08065 0.53881 0.0
C448 C 0.1534 0.99955 0.5444 0.0
H449 H 0.10545 0.84173 0.45369 0.0
H450 H 0.10716 0.9039 0.47731 0.0
H451 H 0.16128 0.94636 0.5499 0.0
H452 H 0.17867 0.13124 0.54588 0.0
H453 H 0.17483 0.06686 0.53381 0.0
H454 H 0.1193 0.02553 0.47415 0.0
C455 C 0.12034 0.89143 0.47531 0.0
C456 C 0.15212 0.96331 0.53276 0.0
C457 C 0.11932 0.85564 0.46197 0.0
C458 C 0.1643 0.11747 0.5444 0.0
C459 C 0.1621 0.0805 0.53769 0.0
C460 C 0.12838 1.00843 0.49132 0.0
C461 C 0.13804 0.91063 0.48649 0.0
C462 C 0.13911 0.94916 0.49982 0.0
C463 C 0.14375 0.06164 0.5341 0.0
C464 C 0.14161 0.02263 0.52366 0.0
H465 H 0.16666 0.84381 0.46993 0.0
H466 H 0.1686 0.9066 0.49213 0.0
H467 H 0.11721 0.96267 0.4534 0.0
H468 H 0.11718 0.13172 0.54871 0.0
H469 H 0.11327 0.06687 0.53666 0.0
C470 C 0.85784 0.3975 0.51822 0.0
C471 C 0.87324 0.38022 0.53397 0.0
C472 C 0.85936 0.43462 0.51443 0.0
C473 C 0.89013 0.5196 0.54223 0.0
H474 H 0.86282 0.55442 0.44122 0.0
C475 C 0.90289 0.66454 0.4702 0.0
C476 C 0.88638 0.68144 0.46131 0.0
C477 C 0.90139 0.62852 0.48292 0.0
C478 C 0.8704 0.54518 0.46981 0.0
H479 H 0.90225 0.38815 0.55924 0.0
H480 H 0.90539 0.45341 0.5508 0.0
H481 H 0.86053 0.49077 0.4561 0.0
H482 H 0.85534 0.67407 0.45941 0.0
H483 H 0.85272 0.61077 0.48036 0.0
H484 H 0.90064 0.57457 0.55419 0.0
C485 C 0.89183 0.43835 0.5425 0.0
C486 C 0.86901 0.50854 0.47867 0.0
C487 C 0.8901 0.40093 0.54737 0.0
C488 C 0.86831 0.6617 0.46584 0.0
C489 C 0.86682 0.62549 0.47775 0.0
C490 C 0.89179 0.55636 0.53279 0.0
C491 C 0.87659 0.45568 0.52487 0.0
C492 C 0.87865 0.49507 0.51536 0.0
C493 C 0.88335 0.60846 0.48626 0.0
C494 C 0.88178 0.56955 0.49669 0.0
H495 H 0.84459 0.38215 0.50806 0.0
H496 H 0.847 0.44667 0.50245 0.0
H497 H 0.89765 0.51057 0.57098 0.0
H498 H 0.91701 0.67919 0.46731 0.0
H499 H 0.91437 0.61611 0.489 0.0
C500 C 0.85908 0.90388 0.48955 0.0
C501 C 0.87505 0.88437 0.48818 0.0
C502 C 0.86139 0.94091 0.49588 0.0
C503 C 0.89449 0.01229 0.54567 0.0
H504 H 0.86348 0.07526 0.48262 0.0
C505 C 0.90319 0.16479 0.57773 0.0
C506 C 0.88655 0.18245 0.57799 0.0
C507 C 0.90254 0.12927 0.56341 0.0
C508 C 0.87211 0.05806 0.50098 0.0
H509 H 0.90607 0.88853 0.49115 0.0
H510 H 0.91016 0.95342 0.50255 0.0
H511 H 0.86122 0.01211 0.46271 0.0
H512 H 0.85618 0.17689 0.56302 0.0
H513 H 0.85485 0.11462 0.53915 0.0
H514 H 0.905 0.05778 0.58484 0.0
C515 C 0.8958 0.93996 0.49888 0.0
C516 C 0.87086 0.02182 0.48937 0.0
C517 C 0.89349 0.90285 0.49203 0.0
C518 C 0.86925 0.16395 0.56319 0.0
C519 C 0.86855 0.12829 0.54917 0.0
C520 C 0.89563 0.04846 0.55754 0.0
C521 C 0.87975 0.95938 0.5014 0.0
C522 C 0.88195 0.99841 0.51175 0.0
C523 C 0.88518 0.11032 0.54928 0.0
C524 C 0.88436 0.07189 0.53558 0.0
H525 H 0.84469 0.89038 0.48666 0.0
H526 H 0.84871 0.95489 0.49803 0.0
H527 H 0.90302 0.99494 0.56409 0.0
H528 H 0.91678 0.17849 0.58852 0.0
H529 H 0.91573 0.11675 0.56318 0.0
C530 C 0.12992 0.61712 0.49425 0.0
C531 C 0.14828 0.63592 0.49047 0.0
C532 C 0.12779 0.58012 0.50188 0.0
C533 C 0.15345 0.49886 0.49528 0.0
H534 H 0.11852 0.46338 0.58982 0.0
C535 C 0.15449 0.35706 0.57065 0.0
C536 C 0.13693 0.33845 0.58371 0.0
C537 C 0.15543 0.39286 0.55703 0.0
C538 C 0.12814 0.47259 0.56283 0.0
H539 H 0.17873 0.63057 0.48988 0.0
H540 H 0.17504 0.56627 0.50272 0.0
H541 H 0.12037 0.52595 0.56788 0.0
H542 H 0.10653 0.34243 0.59184 0.0
H543 H 0.10805 0.40436 0.56736 0.0
H544 H 0.16121 0.44556 0.49006 0.0
C545 C 0.16227 0.5799 0.49986 0.0
C546 C 0.12919 0.50858 0.55025 0.0
C547 C 0.16439 0.61682 0.4927 0.0
C548 C 0.12032 0.3562 0.58245 0.0
C549 C 0.12123 0.39184 0.56859 0.0
C550 C 0.15231 0.46279 0.50764 0.0
C551 C 0.14397 0.56113 0.50533 0.0
C552 C 0.14197 0.52227 0.51658 0.0
C553 C 0.1388 0.41082 0.55586 0.0
C554 C 0.13975 0.44915 0.54186 0.0
H555 H 0.11724 0.63114 0.4927 0.0
H556 H 0.11349 0.56641 0.50546 0.0
H557 H 0.16329 0.50841 0.46885 0.0
H558 H 0.16752 0.34403 0.57122 0.0
H559 H 0.16927 0.4066 0.54809 0.0
C560 C 0.66418 0.62086 0.0215 0.0
C561 C 0.64866 0.6379 0.03721 0.0
C562 C 0.66286 0.58374 1.01795 0.0
C563 C 0.63235 0.49846 0.04616 0.0
H564 H 0.65982 0.4638 0.94498 0.0
C565 C 0.61954 0.35387 0.97348 0.0
C566 C 0.63602 0.33688 0.96436 0.0
C567 C 0.62111 0.38982 0.98646 0.0
C568 C 0.65221 0.47301 0.97362 0.0
H569 H 0.61965 0.62958 0.06272 0.0
H570 H 0.61684 0.56432 0.05468 0.0
H571 H 0.662 0.52744 0.9599 0.0
H572 H 0.66706 0.34398 0.96235 0.0
H573 H 0.66981 0.40721 0.98377 0.0
H574 H 0.62189 0.44347 0.05809 0.0
C575 C 0.63034 0.57956 0.04623 0.0
C576 C 0.65353 0.50963 0.98251 0.0
C577 C 0.63189 0.61697 0.05087 0.0
C578 C 0.65412 0.35644 0.96896 0.0
C579 C 0.65568 0.3926 0.98114 0.0
C580 C 0.63076 0.46172 0.03669 0.0
C581 C 0.6457 0.56245 0.02861 0.0
C582 C 0.64381 0.52304 1.01922 0.0
C583 C 0.63919 0.40973 0.98986 0.0
C584 C 0.64081 0.4486 1.0005 0.0
H585 H 0.67736 0.63639 1.01115 0.0
H586 H 0.67529 0.57186 1.00597 0.0
H587 H 0.62478 0.50745 0.07494 0.0
H588 H 0.6054 0.33936 0.97055 0.0
H589 H 0.60816 0.40232 0.99269 0.0
C590 C 0.39104 0.90355 0.04884 0.0
C591 C 0.37427 0.88245 0.03571 0.0
C592 C 0.39242 0.94095 0.0443 0.0
C593 C 0.36868 0.01052 0.98164 0.0
H594 H 0.40042 0.07704 0.05632 0.0
C595 C 0.36738 0.16355 0.96883 0.0
C596 C 0.38538 0.18336 0.96357 0.0
C597 C 0.36604 0.12739 0.98088 0.0
C598 C 0.39152 0.05869 0.03518 0.0
H599 H 0.34541 0.8836 1.01075 0.0
H600 H 0.34722 0.94812 1.00577 0.0
H601 H 0.39784 0.01306 0.07309 0.0
H602 H 0.41607 0.18133 0.96844 0.0
H603 H 0.4137 0.11834 0.99038 0.0
H604 H 0.36205 0.05624 0.94446 0.0
C605 C 0.35976 0.93639 1.01724 0.0
C606 C 0.39011 0.02195 0.0446 0.0
C607 C 0.35859 0.89929 0.02067 0.0
C608 C 0.402 0.16661 0.97188 0.0
C609 C 0.40065 0.13065 0.98475 0.0
C610 C 0.36982 0.04713 0.97281 0.0
C611 C 0.37691 0.95786 0.02732 0.0
C612 C 0.37861 0.99725 1.01799 0.0
C613 C 0.38266 0.11051 0.98882 0.0
C614 C 0.38125 0.07166 0.99938 0.0
H615 H 0.40338 0.8911 0.06017 0.0
H616 H 0.40591 0.95635 0.0523 0.0
H617 H 0.36017 0.99261 0.95928 0.0
H618 H 0.35434 0.17582 0.96285 0.0
H619 H 0.35197 0.11258 0.98405 0.0
C620 C 0.35871 0.40562 0.99529 0.0
C621 C 0.37457 0.38584 0.99331 0.0
C622 C 0.36126 0.44268 1.00123 0.0
C623 C 0.39493 0.51384 0.04919 0.0
H624 H 0.36429 0.57704 0.98545 0.0
C625 C 0.40452 0.66661 0.07952 0.0
C626 C 0.388 0.6846 0.07932 0.0
C627 C 0.40369 0.63093 0.06566 0.0
C628 C 0.37281 0.5598 1.00401 0.0
H629 H 0.40559 0.38947 0.9949 0.0
H630 H 0.41009 0.45441 1.00575 0.0
H631 H 0.36153 0.51369 0.96653 0.0
H632 H 0.35766 0.67949 0.06414 0.0
H633 H 0.35599 0.61703 0.04119 0.0
H634 H 0.4058 0.55947 0.08768 0.0
C635 C 0.39566 0.44115 1.00278 0.0
C636 C 0.37128 0.52344 0.99296 0.0
C637 C 0.3931 0.40403 0.99627 0.0
C638 C 0.37064 0.6663 0.06462 0.0
C639 C 0.36975 0.63051 0.05111 0.0
C640 C 0.39634 0.55013 0.06056 0.0
C641 C 0.37974 0.46087 1.0058 0.0
C642 C 0.38223 0.49995 1.0156 0.0
C643 C 0.38625 0.6122 0.05159 0.0
C644 C 0.38521 0.57365 0.03835 0.0
H645 H 0.34425 0.39234 0.99308 0.0
H646 H 0.3487 0.45694 1.00378 0.0
H647 H 0.40336 0.49642 0.06776 0.0
H648 H 0.41815 0.68014 0.0903 0.0
H649 H 0.41679 0.61814 0.06574 0.0
C650 C 0.62783 0.11548 0.99473 0.0
C651 C 0.64632 0.13367 0.99041 0.0
C652 C 0.62536 0.07837 1.00147 0.0
C653 C 0.64986 0.99607 0.99077 0.0
H654 H 0.61616 0.9605 0.08755 0.0
C655 C 0.65168 0.85412 0.06447 0.0
C656 C 0.63445 0.83567 0.07992 0.0
C657 C 0.65232 0.88976 0.05046 0.0
C658 C 0.6254 0.96972 0.05989 0.0
H659 H 0.67662 0.12714 0.98795 0.0
H660 H 0.67233 0.06264 0.99912 0.0
H661 H 0.61821 0.02336 0.06681 0.0
H662 H 0.60429 0.83972 0.09176 0.0
H663 H 0.60524 0.90145 0.06644 0.0
H664 H 0.65704 0.94253 0.98364 0.0
C665 C 0.65972 0.07685 0.99741 0.0
C666 C 0.62658 1.00589 0.04802 0.0
C667 C 0.66219 0.11387 0.9912 0.0
C668 C 0.61782 0.85336 0.08039 0.0
C669 C 0.61842 0.88889 0.0661 0.0
C670 C 0.64857 0.95983 1.00237 0.0
C671 C 0.64131 0.05866 1.00341 0.0
C672 C 0.63898 0.01962 1.01366 0.0
C673 C 0.63571 0.90776 0.05124 0.0
C674 C 0.63649 0.94616 0.03746 0.0
H675 H 0.61533 0.13003 0.9943 0.0
H676 H 0.61097 0.06512 1.00553 0.0
H677 H 0.65938 1.00567 0.96375 0.0
H678 H 0.66473 0.84116 0.06376 0.0
H679 H 0.66597 0.90338 0.0399 0.0
C680 C 0.17027 0.26559 0.23576 0.0
C681 C 0.15502 0.25692 0.26592 0.0
C682 C 0.16761 0.26125 0.18951 0.0
C683 C 0.12984 0.2523 0.10195 0.0
H684 H 0.16948 0.21618 0.02963 0.0
C685 C 0.1176 0.21328 0.91568 0.0
C686 C 0.13287 0.22115 0.88532 0.0
C687 C 0.12037 0.21789 0.96185 0.0
C688 C 0.15835 0.22673 0.04916 0.0
H689 H 0.12489 0.237 0.27048 0.0
H690 H 0.12033 0.22884 0.18999 0.0
H691 H 0.1741 0.22342 0.11014 0.0
H692 H 0.16314 0.24 0.88041 0.0
H693 H 0.16786 0.24879 0.96072 0.0
H694 H 0.11411 0.2557 0.041 0.0
C695 C 0.13435 0.23938 0.20213 0.0
C696 C 0.161 0.23087 0.09546 0.0
C697 C 0.13702 0.24367 0.24843 0.0
C698 C 0.15098 0.23395 0.90258 0.0
C699 C 0.15375 0.23858 0.94881 0.0
C700 C 0.12721 0.24821 0.05564 0.0
C701 C 0.14961 0.24813 0.17199 0.0
C702 C 0.14677 0.24367 0.12256 0.0
C703 C 0.13848 0.23058 0.97914 0.0
C704 C 0.14141 0.23531 0.02855 0.0
H705 H 0.1844 0.27545 0.2479 0.0
H706 H 0.17965 0.26862 0.16743 0.0
H707 H 0.1187 0.2628 0.12152 0.0
H708 H 0.10338 0.20384 0.90377 0.0
H709 H 0.10831 0.21104 0.98405 0.0
C710 C 0.88137 0.26494 0.24587 0.0
C711 C 0.86336 0.25193 0.26367 0.0
C712 C 0.88395 0.26967 0.19962 0.0
C713 C 0.85733 0.28056 0.0939 0.0
H714 H 0.90403 0.25563 0.03807 0.0
C715 C 0.86805 0.28294 0.90077 0.0
C716 C 0.88635 0.29553 0.8842 0.0
C717 C 0.86501 0.27702 0.94675 0.0
C718 C 0.89099 0.26316 0.0531 0.0
H719 H 0.83387 0.23412 0.24622 0.0
H720 H 0.83843 0.24187 0.16562 0.0
H721 H 0.89922 0.24667 0.11828 0.0
H722 H 0.91586 0.31114 0.9036 0.0
H723 H 0.91049 0.30175 0.98344 0.0
H724 H 0.84915 0.29724 0.02875 0.0
C725 C 0.85056 0.24869 0.18753 0.0
C726 C 0.88822 0.25798 0.09923 0.0
C727 C 0.84799 0.24385 0.23381 0.0
C728 C 0.90151 0.30191 0.91498 0.0
C729 C 0.89848 0.29603 0.96089 0.0
C730 C 0.86011 0.28581 0.04774 0.0
C731 C 0.86858 0.26162 0.16975 0.0
C732 C 0.87138 0.26672 0.12036 0.0
C733 C 0.88019 0.28348 0.97751 0.0
C734 C 0.87702 0.2773 0.02666 0.0
H735 H 0.8936 0.27109 0.26767 0.0
H736 H 0.89798 0.28005 0.18731 0.0
H737 H 0.8443 0.28807 0.10901 0.0
H738 H 0.85597 0.27801 0.87827 0.0
H739 H 0.85077 0.267 0.95811 0.0
C740 C 0.11611 0.71695 0.12616 0.0
C741 C 0.1316 0.72182 0.15628 0.0
C742 C 0.11901 0.72138 0.07996 0.0
C743 C 0.15678 0.72381 0.99188 0.0
H744 H 0.11949 0.76746 0.92055 0.0
C745 C 0.17036 0.7615 0.80526 0.0
C746 C 0.15485 0.75581 0.77529 0.0
C747 C 0.16755 0.75737 0.85153 0.0
C748 C 0.12995 0.75483 0.93982 0.0
H749 H 0.1624 0.7352 0.1607 0.0
H750 H 0.16739 0.74371 0.08038 0.0
H751 H 0.11469 0.76078 1.00111 0.0
H752 H 0.12412 0.7414 0.77114 0.0
H753 H 0.11928 0.7336 0.85165 0.0
H754 H 0.17205 0.71793 0.93056 0.0
C755 C 0.15298 0.73597 0.09248 0.0
C756 C 0.1272 0.75099 0.98616 0.0
C757 C 0.15008 0.73151 0.13874 0.0
C758 C 0.13645 0.74572 0.79302 0.0
C759 C 0.13363 0.74166 0.83935 0.0
C760 C 0.15954 0.7277 0.94554 0.0
C761 C 0.13749 0.73091 0.06238 0.0
C762 C 0.14055 0.73537 1.01291 0.0
C763 C 0.14914 0.74744 0.8693 0.0
C764 C 0.14616 0.74323 0.9188 0.0
H765 H 0.10163 0.70997 0.13827 0.0
H766 H 0.10673 0.71686 0.05797 0.0
H767 H 0.16722 0.71113 1.01111 0.0
H768 H 0.18478 0.76886 0.79297 0.0
H769 H 0.17982 0.76244 0.87345 0.0
C770 C 0.86816 0.7341 0.80326 0.0
C771 C 0.86901 0.76412 0.77492 0.0
C772 C 0.87091 0.73808 0.84955 0.0
C773 C 0.89112 0.8026 0.93603 0.0
H774 H 0.85932 0.74142 1.01722 0.0
C775 C 0.89172 0.8274 0.12758 0.0
C776 C 0.8907 0.79751 0.15613 0.0
C777 C 0.88889 0.82324 0.08134 0.0
C778 C 0.8685 0.75848 0.9951 0.0
H779 H 0.87334 0.822 0.77371 0.0
H780 H 0.87815 0.82894 0.85425 0.0
H781 H 0.85502 0.73438 0.93658 0.0
H782 H 0.88593 0.73968 0.1579 0.0
H783 H 0.88106 0.7324 0.07739 0.0
H784 H 0.90463 0.82666 0.9945 0.0
C785 C 0.87561 0.80222 0.84057 0.0
C786 C 0.86603 0.75443 0.94872 0.0
C787 C 0.87286 0.79823 0.79425 0.0
C788 C 0.88657 0.76335 0.13713 0.0
C789 C 0.88377 0.75918 0.09083 0.0
C790 C 0.89361 0.80663 0.9824 0.0
C791 C 0.8746 0.7722 0.86894 0.0
C792 C 0.87729 0.77645 0.91848 0.0
C793 C 0.88498 0.78906 0.06221 0.0
C794 C 0.88232 0.78466 1.01266 0.0
H795 H 0.86556 0.70738 0.78961 0.0
H796 H 0.87036 0.71431 0.8701 0.0
H797 H 0.90029 0.81967 0.9139 0.0
H798 H 0.89453 0.85416 0.14101 0.0
H799 H 0.88956 0.84694 0.06064 0.0
C800 C 0.63903 0.75704 0.40448 0.0
C801 C 0.63677 0.7223 0.38649 0.0
C802 C 0.64203 0.76256 0.45048 0.0
C803 C 0.63587 0.71588 0.56018 0.0
H804 H 0.67063 0.79569 0.60286 0.0
C805 C 0.65706 0.73155 0.74708 0.0
C806 C 0.65838 0.76605 0.76576 0.0
C807 C 0.6547 0.7264 0.70087 0.0
C808 C 0.66071 0.77347 0.59157 0.0
H809 H 0.63652 0.66618 0.40297 0.0
H810 H 0.64186 0.67576 0.48289 0.0
H811 H 0.6662 0.7864 0.52252 0.0
H812 H 0.65803 0.82219 0.74994 0.0
H813 H 0.65398 0.81323 0.66947 0.0
H814 H 0.63039 0.70293 0.62918 0.0
C815 C 0.6409 0.69878 0.46163 0.0
C816 C 0.65816 0.76814 0.5454 0.0
C817 C 0.63786 0.69327 0.41568 0.0
C818 C 0.65737 0.79528 0.7368 0.0
C819 C 0.65504 0.79014 0.69055 0.0
C820 C 0.63844 0.72118 0.6063 0.0
C821 C 0.64291 0.73349 0.47977 0.0
C822 C 0.6457 0.73924 0.52902 0.0
C823 C 0.65362 0.75561 0.67194 0.0
C824 C 0.6509 0.75003 0.62267 0.0
H825 H 0.63801 0.78002 0.38316 0.0
H826 H 0.64324 0.78964 0.4632 0.0
H827 H 0.62589 0.69373 0.54897 0.0
H828 H 0.65811 0.70843 0.76812 0.0
H829 H 0.65399 0.69949 0.68773 0.0
C830 C 0.38352 0.76453 0.74635 0.0
C831 C 0.36537 0.75295 0.76449 0.0
C832 C 0.38601 0.76914 0.70008 0.0
C833 C 0.35941 0.78272 0.59522 0.0
H834 H 0.40493 0.7537 0.53808 0.0
C835 C 0.36943 0.78517 0.40201 0.0
C836 C 0.38786 0.79655 0.38527 0.0
C837 C 0.36642 0.77912 0.44796 0.0
C838 C 0.39223 0.76236 0.5535 0.0
H839 H 0.33556 0.73754 0.74771 0.0
H840 H 0.33995 0.74509 0.66703 0.0
H841 H 0.40022 0.74474 0.61832 0.0
H842 H 0.41763 0.80982 0.40423 0.0
H843 H 0.41232 0.80016 0.48405 0.0
H844 H 0.35146 0.80054 0.53042 0.0
C845 C 0.35225 0.75087 0.68869 0.0
C846 C 0.38952 0.75718 0.59963 0.0
C847 C 0.34978 0.74615 0.73499 0.0
C848 C 0.40319 0.80154 0.41579 0.0
C849 C 0.40018 0.79552 0.46166 0.0
C850 C 0.36213 0.78796 0.54906 0.0
C851 C 0.37041 0.76239 0.67057 0.0
C852 C 0.37311 0.76742 0.6212 0.0
C853 C 0.38176 0.78423 0.47846 0.0
C854 C 0.37862 0.77798 0.52755 0.0
H855 H 0.39591 0.76967 0.7679 0.0
H856 H 0.40016 0.77842 0.68747 0.0
H857 H 0.34672 0.79138 0.61072 0.0
H858 H 0.35724 0.78133 0.37968 0.0
H859 H 0.35207 0.77009 0.4595 0.0
C860 C 0.65376 0.28363 0.30571 0.0
C861 C 0.65331 0.25359 0.27748 0.0
C862 C 0.65106 0.27965 0.35203 0.0
C863 C 0.63162 0.21464 0.43885 0.0
H864 H 0.66268 0.27726 0.51962 0.0
C865 C 0.63115 0.19046 0.63048 0.0
C866 C 0.63177 0.2204 0.65889 0.0
C867 C 0.634 0.19458 0.58423 0.0
C868 C 0.65371 0.25979 0.49762 0.0
H869 H 0.64976 0.19567 0.27648 0.0
H870 H 0.64503 0.18874 0.35708 0.0
H871 H 0.66693 0.28427 0.43892 0.0
H872 H 0.63587 0.27828 0.66041 0.0
H873 H 0.64077 0.28549 0.57986 0.0
H874 H 0.61836 0.1902 0.49749 0.0
C875 C 0.64721 0.21547 0.3433 0.0
C876 C 0.65616 0.26381 0.45121 0.0
C877 C 0.64991 0.21945 0.29695 0.0
C878 C 0.63554 0.25458 0.63974 0.0
C879 C 0.63836 0.25871 0.59343 0.0
C880 C 0.62916 0.21063 0.48525 0.0
C881 C 0.64781 0.24552 0.37156 0.0
C882 C 0.64516 0.24128 0.42113 0.0
C883 C 0.63753 0.22877 0.56493 0.0
C884 C 0.64018 0.23312 0.51536 0.0
H885 H 0.656 0.31036 0.29195 0.0
H886 H 0.65128 0.30344 0.37251 0.0
H887 H 0.62266 0.19715 0.41684 0.0
H888 H 0.62862 0.1637 0.64405 0.0
H889 H 0.63363 0.17084 0.56362 0.0
C890 C 0.36776 0.23529 0.30704 0.0
C891 C 0.36807 0.26525 0.27876 0.0
C892 C 0.37039 0.23939 0.35334 0.0
C893 C 0.36769 0.3051 0.44556 0.0
H894 H 0.39728 0.24114 0.51101 0.0
C895 C 0.38952 0.3295 0.63119 0.0
C896 C 0.389 0.29971 0.65981 0.0
C897 C 0.38667 0.32512 0.585 0.0
C898 C 0.38877 0.25899 0.49339 0.0
H899 H 0.37139 0.32317 0.27758 0.0
H900 H 0.37635 0.33032 0.35805 0.0
H901 H 0.39327 0.23408 0.43028 0.0
H902 H 0.38506 0.24183 0.66179 0.0
H903 H 0.37982 0.23419 0.58138 0.0
H904 H 0.36325 0.33007 0.50867 0.0
C905 C 0.37385 0.30356 0.34447 0.0
C906 C 0.38647 0.25494 0.44697 0.0
C907 C 0.37124 0.29945 0.29813 0.0
C908 C 0.38539 0.2654 0.64092 0.0
C909 C 0.38261 0.26101 0.59466 0.0
C910 C 0.37001 0.30917 0.49196 0.0
C911 C 0.37339 0.27359 0.37279 0.0
C912 C 0.3759 0.27795 0.42235 0.0
C913 C 0.38327 0.29081 0.56601 0.0
C914 C 0.3806 0.2862 0.51655 0.0
H915 H 0.36558 0.20852 0.29337 0.0
H916 H 0.36976 0.21566 0.37399 0.0
H917 H 0.35917 0.32295 0.42798 0.0
H918 H 0.39205 0.35634 0.64453 0.0
H919 H 0.38745 0.3487 0.56405 0.0
C920 C 0.07298 0.21119 0.51805 0.0
C921 C 0.08853 0.2375 0.51151 0.0
C922 C 0.05436 0.21799 0.50682 0.0
C923 C 0.02519 0.28895 0.51111 0.0
H924 H 0.98843 0.23134 0.43735 0.0
C925 C 0.94637 0.31716 0.5111 0.0
C926 C 0.93248 0.2875 0.50929 0.0
C927 C 0.96553 0.31358 0.50066 0.0
C928 C 0.99839 0.24752 0.45858 0.0
H929 H 0.09689 0.29109 0.48681 0.0
H930 H 0.06421 0.30331 0.46863 0.0
H931 H 0.02182 0.21845 0.43909 0.0
H932 H 0.92752 0.23102 0.49411 0.0
H933 H 0.96086 0.22415 0.47842 0.0
H934 H 1.00195 0.31631 0.53369 0.0
C935 C 0.06655 0.27727 0.48161 0.0
C936 C 0.01756 0.24026 0.45913 0.0
C937 C 0.08522 0.27017 0.49181 0.0
C938 C 0.93792 0.25449 0.49521 0.0
C939 C 0.95714 0.25063 0.48601 0.0
C940 C 1.00599 0.29565 0.51152 0.0
C941 C 0.05094 0.25149 0.48986 0.0
C942 C 0.03106 0.26077 0.48568 0.0
C943 C 0.97136 0.27995 0.48964 0.0
C944 C 0.99219 0.27481 0.48565 0.0
H945 H 0.07514 0.18582 0.53325 0.0
H946 H 0.04251 0.19782 0.51375 0.0
H947 H 0.03533 0.30483 0.53233 0.0
H948 H 0.9425 0.34298 0.52159 0.0
H949 H 0.97581 0.33712 0.50246 0.0
C950 C 0.93886 0.75336 0.54788 0.0
C951 C 0.93394 0.7868 0.53426 0.0
C952 C 0.95783 0.74899 0.55899 0.0
C953 C 1.00711 0.79417 0.53869 0.0
H954 H 0.02167 0.71399 0.60733 0.0
C955 C 0.0857 0.76638 0.5566 0.0
C956 C 0.08875 0.73461 0.53427 0.0
C957 C 0.06714 0.77325 0.56832 0.0
C958 C 0.01775 0.73666 0.58844 0.0
H959 H 0.94435 0.84248 0.52504 0.0
H960 H 0.97709 0.83573 0.54788 0.0
H961 H 0.98836 0.72753 0.6085 0.0
H962 H 0.07505 0.68399 0.50979 0.0
H963 H 0.04262 0.69559 0.53175 0.0
H964 H 0.03665 0.80345 0.51947 0.0
C965 C 0.96673 0.81226 0.54767 0.0
C966 C 0.99864 0.7443 0.58865 0.0
C967 C 0.9479 0.81635 0.53515 0.0
C968 C 0.07309 0.70871 0.52693 0.0
C969 C 0.05458 0.71525 0.53961 0.0
C970 C 0.02622 0.78707 0.5395 0.0
C971 C 0.9722 0.77821 0.55781 0.0
C972 C 0.99292 0.77266 0.5628 0.0
C973 C 0.0514 0.74809 0.55894 0.0
C974 C 0.03163 0.75783 0.56353 0.0
H975 H 0.92835 0.73006 0.54687 0.0
H976 H 0.96129 0.72223 0.56591 0.0
H977 H 1.00346 0.81565 0.51739 0.0
H978 H 0.09746 0.78697 0.56237 0.0
H979 H 0.06497 0.7988 0.5831 0.0
C980 C 0.5731 0.70526 0.03227 0.0
C981 C 0.58838 0.72735 1.01296 0.0
C982 C 0.55415 0.71103 0.02353 0.0
C983 C 0.52068 0.75489 0.03371 0.0
H984 H 0.49524 0.76829 0.92063 0.0
C985 C 0.44984 0.81509 0.03028 0.0
C986 C 0.43463 0.79267 1.01138 0.0
C987 C 0.46883 0.80923 0.02184 0.0
C988 C 0.50225 0.76465 0.95234 0.0
H989 H 0.59561 0.77075 0.966 0.0
H990 H 0.56231 0.78051 0.95045 0.0
H991 H 0.52805 0.75041 0.92105 0.0
H992 H 0.42754 0.74857 0.9654 0.0
H993 H 0.4609 0.73865 0.95038 0.0
H994 H 0.49528 0.76948 0.06521 0.0
C995 C 0.56514 0.75892 0.97259 0.0
C996 C 0.52095 0.75454 0.95258 0.0
C997 C 0.5842 0.75332 0.98159 0.0
C998 C 0.4389 0.76626 0.98065 0.0
C999 C 0.45799 0.76057 0.97196 0.0
C1000 C 0.50227 0.76555 0.03347 0.0
C1001 C 0.55 0.73878 0.99499 0.0
C1002 C 0.53023 0.74928 0.99337 0.0
C1003 C 0.47307 0.78106 0.99402 0.0
C1004 C 0.49284 0.77054 0.99289 0.0
H1005 H 0.57574 0.68471 0.05615 0.0
H1006 H 0.54271 0.69479 0.04073 0.0
H1007 H 0.52757 0.75146 0.06562 0.0
H1008 H 0.44714 0.83599 0.05365 0.0
H1009 H 0.48022 0.82575 0.03876 0.0
C1010 C 0.44735 0.31715 0.03688 0.0
C1011 C 0.43332 0.28771 0.0364 0.0
C1012 C 0.46619 0.31298 0.04925 0.0
C1013 C 0.49795 0.24508 0.09105 0.0
H1014 H 0.53611 0.30352 0.02145 0.0
C1015 C 0.57223 0.20823 0.03019 0.0
C1016 C 0.58796 0.23403 0.03708 0.0
C1017 C 0.55376 0.21513 0.04278 0.0
C1018 C 0.52564 0.28735 0.0416 0.0
H1019 H 0.42764 0.23104 0.04951 0.0
H1020 H 0.46059 0.22307 0.06832 0.0
H1021 H 0.50295 0.31593 1.01904 0.0
H1022 H 0.59689 0.28662 0.06422 0.0
H1023 H 0.56447 0.29908 0.08481 0.0
H1024 H 0.52089 0.21473 0.11022 0.0
C1025 C 0.45717 0.24982 0.06118 0.0
C1026 C 0.50654 0.29456 0.04059 0.0
C1027 C 0.4382 0.25428 0.0502 0.0
C1028 C 0.58505 0.2661 0.05887 0.0
C1029 C 0.56653 0.27333 0.07048 0.0
C1030 C 0.51704 0.23731 0.09106 0.0
C1031 C 0.4716 0.27895 0.0597 0.0
C1032 C 0.4923 0.27329 0.06484 0.0
C1033 C 0.55071 0.24824 0.06154 0.0
C1034 C 0.53097 0.25823 0.06599 0.0
H1035 H 0.44384 0.34327 0.02665 0.0
H1036 H 0.4766 0.33639 0.0492 0.0
H1037 H 0.48763 0.2285 0.11103 0.0
H1038 H 0.57408 0.18331 1.01344 0.0
H1039 H 0.54174 0.19551 0.03526 0.0
loop_
_geom_bond_atom_site_label_1
_geom_bond_atom_site_label_2
_geom_bond_distance
_geom_bond_site_symmetry_2
_ccdc_geom_bond_type
Nd0 C2 2.836 . S
Nd0 O20 2.500 . S
Nd0 O21 2.492 . S
Nd0 O22 2.487 . S
Nd0 O23 2.682 . S
Nd0 O24 2.410 . S
Nd0 O29 2.414 . S
Nd0 O31 2.424 . S
Nd1 C11 2.836 . S
Nd1 O23 2.414 . S
Nd1 O25 2.424 . S
Nd1 O26 2.500 . S
Nd1 O27 2.492 . S
Nd1 O28 2.487 . S
Nd1 O29 2.682 . S
Nd1 O30 2.410 . S
C2 Nd0 2.836 . S
C2 C3 1.498 . S
C2 O20 1.258 . S
C2 O21 1.239 . S
C3 C2 1.498 . S
C3 C4 1.366 . S
C3 C8 1.407 . S
C4 C3 1.366 . S
C4 C5 1.392 . S
C4 H32 0.930 . S
C5 C4 1.392 . S
C5 C6 1.398 . S
C5 H33 0.929 . S
C6 C5 1.398 . S
C6 C7 1.352 . S
C7 C6 1.352 . S
C7 C8 1.384 . S
C7 H34 0.930 . S
C8 C3 1.407 . S
C8 C7 1.384 . S
C8 H35 0.929 . S
C9 O22 1.241 . S
C9 O23 1.273 . S
C10 O24 1.251 . S
C10 O25 1.268 . S
C11 Nd1 2.836 . S
C11 C12 1.498 . S
C11 O26 1.258 . S
C11 O27 1.239 . S
C12 C11 1.498 . S
C12 C13 1.366 . S
C12 C17 1.407 . S
C13 C12 1.366 . S
C13 C14 1.392 . S
C13 H36 0.930 . S
C14 C13 1.392 . S
C14 C15 1.398 . S
C14 H37 0.929 . S
C15 C14 1.398 . S
C15 C16 1.352 . S
C16 C15 1.352 . S
C16 C17 1.384 . S
C16 H38 0.930 . S
C17 C12 1.407 . S
C17 C16 1.384 . S
C17 H39 0.929 . S
C18 O28 1.241 . S
C18 O29 1.273 . S
C19 O30 1.251 . S
C19 O31 1.268 . S
O20 Nd0 2.500 . S
O20 C2 1.258 . S
O21 Nd0 2.492 . S
O21 C2 1.239 . S
O22 Nd0 2.487 . S
O22 C9 1.241 . S
O23 Nd0 2.682 . S
O23 Nd1 2.414 . S
O23 C9 1.273 . S
O24 Nd0 2.410 . S
O24 C10 1.251 . S
O25 Nd1 2.424 . S
O25 C10 1.268 . S
O26 Nd1 2.500 . S
O26 C11 1.258 . S
O27 Nd1 2.492 . S
O27 C11 1.239 . S
O28 Nd1 2.487 . S
O28 C18 1.241 . S
O29 Nd0 2.414 . S
O29 Nd1 2.682 . S
O29 C18 1.273 . S
O30 Nd1 2.410 . S
O30 C19 1.251 . S
O31 Nd0 2.424 . S
O31 C19 1.268 . S
H32 C4 0.930 . S
H33 C5 0.929 . S
H34 C7 0.930 . S
H35 C8 0.929 . S
H36 C13 0.930 . S
H37 C14 0.929 . S
H38 C16 0.930 . S
H39 C17 0.929 . S
Nd40 C42 2.836 . S
Nd40 O60 2.500 . S
Nd40 O61 2.492 . S
Nd40 O62 2.487 . S
Nd40 O63 2.682 . S
Nd40 O64 2.410 . S
Nd40 O69 2.414 . S
Nd40 O71 2.424 . S
Nd41 C51 2.836 . S
Nd41 O63 2.414 . S
Nd41 O65 2.424 . S
Nd41 O66 2.500 . S
Nd41 O67 2.492 . S
Nd41 O68 2.487 . S
Nd41 O69 2.682 . S
Nd41 O70 2.410 . S
C42 Nd40 2.836 . S
C42 C43 1.498 . S
C42 O60 1.258 . S
C42 O61 1.239 . S
C43 C42 1.498 . S
C43 C44 1.366 . S
C43 C48 1.407 . S
C44 C43 1.366 . S
C44 C45 1.392 . S
C44 H72 0.930 . S
C45 C44 1.392 . S
C45 C46 1.398 . S
C45 H73 0.929 . S
C46 C45 1.398 . S
C46 C47 1.352 . S
C47 C46 1.352 . S
C47 C48 1.384 . S
C47 H74 0.930 . S
C48 C43 1.407 . S
C48 C47 1.384 . S
C48 H75 0.929 . S
C49 O62 1.241 . S
C49 O63 1.273 . S
C50 O64 1.251 . S
C50 O65 1.268 . S
C51 Nd41 2.836 . S
C51 C52 1.498 . S
C51 O66 1.258 . S
C51 O67 1.239 . S
C52 C51 1.498 . S
C52 C53 1.366 . S
C52 C57 1.407 . S
C53 C52 1.366 . S
C53 C54 1.392 . S
C53 H76 0.930 . S
C54 C53 1.392 . S
C54 C55 1.398 . S
C54 H77 0.929 . S
C55 C54 1.398 . S
C55 C56 1.352 . S
C56 C55 1.352 . S
C56 C57 1.384 . S
C56 H78 0.930 . S
C57 C52 1.407 . S
C57 C56 1.384 . S
C57 H79 0.929 . S
C58 O68 1.241 . S
C58 O69 1.273 . S
C59 O70 1.251 . S
C59 O71 1.268 . S
O60 Nd40 2.500 . S
O60 C42 1.258 . S
O61 Nd40 2.492 . S
O61 C42 1.239 . S
O62 Nd40 2.487 . S
O62 C49 1.241 . S
O63 Nd40 2.682 . S
O63 Nd41 2.414 . S
O63 C49 1.273 . S
O64 Nd40 2.410 . S
O64 C50 1.251 . S
O65 Nd41 2.424 . S
O65 C50 1.268 . S
O66 Nd41 2.500 . S
O66 C51 1.258 . S
O67 Nd41 2.492 . S
O67 C51 1.239 . S
O68 Nd41 2.487 . S
O68 C58 1.241 . S
O69 Nd40 2.414 . S
O69 Nd41 2.682 . S
O69 C58 1.273 . S
O70 Nd41 2.410 . S
O70 C59 1.251 . S
O71 Nd40 2.424 . S
O71 C59 1.268 . S
H72 C44 0.930 . S
H73 C45 0.929 . S
H74 C47 0.930 . S
H75 C48 0.929 . S
H76 C53 0.930 . S
H77 C54 0.929 . S
H78 C56 0.930 . S
H79 C57 0.929 . S
Nd80 C82 2.836 . S
Nd80 O100 2.500 . S
Nd80 O101 2.492 . S
Nd80 O102 2.487 . S
Nd80 O103 2.682 . S
Nd80 O104 2.410 . S
Nd80 O109 2.414 . S
Nd80 O111 2.424 . S
Nd81 C91 2.836 . S
Nd81 O103 2.414 . S
Nd81 O105 2.424 . S
Nd81 O106 2.500 . S
Nd81 O107 2.492 . S
Nd81 O108 2.487 . S
Nd81 O109 2.682 . S
Nd81 O110 2.410 . S
C82 Nd80 2.836 . S
C82 C83 1.498 . S
C82 O100 1.258 . S
C82 O101 1.239 . S
C83 C82 1.498 . S
C83 C84 1.366 . S
C83 C88 1.407 . S
C84 C83 1.366 . S
C84 C85 1.392 . S
C84 H112 0.930 . S
C85 C84 1.392 . S
C85 C86 1.398 . S
C85 H113 0.929 . S
C86 C85 1.398 . S
C86 C87 1.352 . S
C87 C86 1.352 . S
C87 C88 1.384 . S
C87 H114 0.930 . S
C88 C83 1.407 . S
C88 C87 1.384 . S
C88 H115 0.929 . S
C89 O102 1.241 . S
C89 O103 1.273 . S
C90 O104 1.251 . S
C90 O105 1.268 . S
C91 Nd81 2.836 . S
C91 C92 1.498 . S
C91 O106 1.258 . S
C91 O107 1.239 . S
C92 C91 1.498 . S
C92 C93 1.366 . S
C92 C97 1.407 . S
C93 C92 1.366 . S
C93 C94 1.392 . S
C93 H116 0.930 . S
C94 C93 1.392 . S
C94 C95 1.398 . S
C94 H117 0.929 . S
C95 C94 1.398 . S
C95 C96 1.352 . S
C96 C95 1.352 . S
C96 C97 1.384 . S
C96 H118 0.930 . S
C97 C92 1.407 . S
C97 C96 1.384 . S
C97 H119 0.929 . S
C98 O108 1.241 . S
C98 O109 1.273 . S
C99 O110 1.251 . S
C99 O111 1.268 . S
O100 Nd80 2.500 . S
O100 C82 1.258 . S
O101 Nd80 2.492 . S
O101 C82 1.239 . S
O102 Nd80 2.487 . S
O102 C89 1.241 . S
O103 Nd80 2.682 . S
O103 Nd81 2.414 . S
O103 C89 1.273 . S
O104 Nd80 2.410 . S
O104 C90 1.251 . S
O105 Nd81 2.424 . S
O105 C90 1.268 . S
O106 Nd81 2.500 . S
O106 C91 1.258 . S
O107 Nd81 2.492 . S
O107 C91 1.239 . S
O108 Nd81 2.487 . S
O108 C98 1.241 . S
O109 Nd80 2.414 . S
O109 Nd81 2.682 . S
O109 C98 1.273 . S
O110 Nd81 2.410 . S
O110 C99 1.251 . S
O111 Nd80 2.424 . S
O111 C99 1.268 . S
H112 C84 0.930 . S
H113 C85 0.929 . S
H114 C87 0.930 . S
H115 C88 0.929 . S
H116 C93 0.930 . S
H117 C94 0.929 . S
H118 C96 0.930 . S
H119 C97 0.929 . S
Nd120 C122 2.836 . S
Nd120 O140 2.500 . S
Nd120 O141 2.492 . S
Nd120 O142 2.487 . S
Nd120 O143 2.682 . S
Nd120 O144 2.410 . S
Nd120 O149 2.414 . S
Nd120 O151 2.424 . S
Nd121 C131 2.836 . S
Nd121 O143 2.414 . S
Nd121 O145 2.424 . S
Nd121 O146 2.500 . S
Nd121 O147 2.492 . S
Nd121 O148 2.487 . S
Nd121 O149 2.682 . S
Nd121 O150 2.410 . S
C122 Nd120 2.836 . S
C122 C123 1.498 . S
C122 O140 1.258 . S
C122 O141 1.239 . S
C123 C122 1.498 . S
C123 C124 1.366 . S
C123 C128 1.407 . S
C124 C123 1.366 . S
C124 C125 1.392 . S
C124 H152 0.930 . S
C125 C124 1.392 . S
C125 C126 1.398 . S
C125 H153 0.929 . S
C126 C125 1.398 . S
C126 C127 1.352 . S
C127 C126 1.352 . S
C127 C128 1.384 . S
C127 H154 0.930 . S
C128 C123 1.407 . S
C128 C127 1.384 . S
C128 H155 0.929 . S
C129 O142 1.241 . S
C129 O143 1.273 . S
C130 O144 1.251 . S
C130 O145 1.268 . S
C131 Nd121 2.836 . S
C131 C132 1.498 . S
C131 O146 1.258 . S
C131 O147 1.239 . S
C132 C131 1.498 . S
C132 C133 1.366 . S
C132 C137 1.407 . S
C133 C132 1.366 . S
C133 C134 1.392 . S
C133 H156 0.930 . S
C134 C133 1.392 . S
C134 C135 1.398 . S
C134 H157 0.929 . S
C135 C134 1.398 . S
C135 C136 1.352 . S
C136 C135 1.352 . S
C136 C137 1.384 . S
C136 H158 0.930 . S
C137 C132 1.407 . S
C137 C136 1.384 . S
C137 H159 0.929 . S
C138 O148 1.241 . S
C138 O149 1.273 . S
C139 O150 1.251 . S
C139 O151 1.268 . S
O140 Nd120 2.500 . S
O140 C122 1.258 . S
O141 Nd120 2.492 . S
O141 C122 1.239 . S
O142 Nd120 2.487 . S
O142 C129 1.241 . S
O143 Nd120 2.682 . S
O143 Nd121 2.414 . S
O143 C129 1.273 . S
O144 Nd120 2.410 . S
O144 C130 1.251 . S
O145 Nd121 2.424 . S
O145 C130 1.268 . S
O146 Nd121 2.500 . S
O146 C131 1.258 . S
O147 Nd121 2.492 . S
O147 C131 1.239 . S
O148 Nd121 2.487 . S
O148 C138 1.241 . S
O149 Nd120 2.414 . S
O149 Nd121 2.682 . S
O149 C138 1.273 . S
O150 Nd121 2.410 . S
O150 C139 1.251 . S
O151 Nd120 2.424 . S
O151 C139 1.268 . S
H152 C124 0.930 . S
H153 C125 0.929 . S
H154 C127 0.930 . S
H155 C128 0.929 . S
H156 C133 0.930 . S
H157 C134 0.929 . S
H158 C136 0.930 . S
H159 C137 0.929 . S
Nd160 C162 2.836 . S
Nd160 O180 2.500 . S
Nd160 O181 2.492 . S
Nd160 O182 2.487 . S
Nd160 O183 2.682 1_556 S
Nd160 O184 2.410 . S
Nd160 O189 2.414 1_556 S
Nd160 O191 2.424 1_556 S
Nd161 C171 2.836 . S
Nd161 O183 2.414 . S
Nd161 O185 2.424 . S
Nd161 O186 2.500 . S
Nd161 O187 2.492 . S
Nd161 O188 2.487 . S
Nd161 O189 2.682 . S
Nd161 O190 2.410 . S
C162 Nd160 2.836 . S
C162 C163 1.498 . S
C162 O180 1.258 . S
C162 O181 1.239 . S
C163 C162 1.498 . S
C163 C164 1.366 . S
C163 C168 1.407 . S
C164 C163 1.366 . S
C164 C165 1.392 . S
C164 H192 0.930 . S
C165 C164 1.392 . S
C165 C166 1.398 . S
C165 H193 0.929 . S
C166 C165 1.398 . S
C166 C167 1.352 . S
C167 C166 1.352 . S
C167 C168 1.384 . S
C167 H194 0.930 . S
C168 C163 1.407 . S
C168 C167 1.384 . S
C168 H195 0.929 . S
C169 O182 1.241 1_554 S
C169 O183 1.273 . S
C170 O184 1.251 . S
C170 O185 1.268 1_556 S
C171 Nd161 2.836 . S
C171 C172 1.498 . S
C171 O186 1.258 . S
C171 O187 1.239 . S
C172 C171 1.498 . S
C172 C173 1.366 . S
C172 C177 1.407 . S
C173 C172 1.366 . S
C173 C174 1.392 . S
C173 H196 0.930 . S
C174 C173 1.392 . S
C174 C175 1.398 . S
C174 H197 0.929 . S
C175 C174 1.398 . S
C175 C176 1.352 . S
C176 C175 1.352 . S
C176 C177 1.384 . S
C176 H198 0.930 . S
C177 C172 1.407 . S
C177 C176 1.384 . S
C177 H199 0.929 . S
C178 O188 1.241 . S
C178 O189 1.273 . S
C179 O190 1.251 . S
C179 O191 1.268 . S
O180 Nd160 2.500 . S
O180 C162 1.258 . S
O181 Nd160 2.492 . S
O181 C162 1.239 . S
O182 Nd160 2.487 . S
O182 C169 1.241 1_556 S
O183 Nd160 2.682 1_554 S
O183 Nd161 2.414 . S
O183 C169 1.273 . S
O184 Nd160 2.410 . S
O184 C170 1.251 . S
O185 Nd161 2.424 . S
O185 C170 1.268 1_554 S
O186 Nd161 2.500 . S
O186 C171 1.258 . S
O187 Nd161 2.492 . S
O187 C171 1.239 . S
O188 Nd161 2.487 . S
O188 C178 1.241 . S
O189 Nd160 2.414 1_554 S
O189 Nd161 2.682 . S
O189 C178 1.273 . S
O190 Nd161 2.410 . S
O190 C179 1.251 . S
O191 Nd160 2.424 1_554 S
O191 C179 1.268 . S
H192 C164 0.930 . S
H193 C165 0.929 . S
H194 C167 0.930 . S
H195 C168 0.929 . S
H196 C173 0.930 . S
H197 C174 0.929 . S
H198 C176 0.930 . S
H199 C177 0.929 . S
Nd200 C202 2.836 . S
Nd200 O220 2.500 . S
Nd200 O221 2.492 . S
Nd200 O222 2.487 . S
Nd200 O223 2.682 1_556 S
Nd200 O224 2.410 . S
Nd200 O229 2.414 1_556 S
Nd200 O231 2.424 1_556 S
Nd201 C211 2.836 . S
Nd201 O223 2.414 . S
Nd201 O225 2.424 . S
Nd201 O226 2.500 . S
Nd201 O227 2.492 . S
Nd201 O228 2.487 . S
Nd201 O229 2.682 . S
Nd201 O230 2.410 . S
C202 Nd200 2.836 . S
C202 C203 1.498 . S
C202 O220 1.258 . S
C202 O221 1.239 . S
C203 C202 1.498 . S
C203 C204 1.366 . S
C203 C208 1.407 . S
C204 C203 1.366 . S
C204 C205 1.392 . S
C204 H232 0.930 . S
C205 C204 1.392 . S
C205 C206 1.398 . S
C205 H233 0.929 . S
C206 C205 1.398 . S
C206 C207 1.352 . S
C207 C206 1.352 . S
C207 C208 1.384 . S
C207 H234 0.930 . S
C208 C203 1.407 . S
C208 C207 1.384 . S
C208 H235 0.929 . S
C209 O222 1.241 1_554 S
C209 O223 1.273 . S
C210 O224 1.251 . S
C210 O225 1.268 1_556 S
C211 Nd201 2.836 . S
C211 C212 1.498 . S
C211 O226 1.258 . S
C211 O227 1.239 . S
C212 C211 1.498 . S
C212 C213 1.366 . S
C212 C217 1.407 . S
C213 C212 1.366 . S
C213 C214 1.392 . S
C213 H236 0.930 . S
C214 C213 1.392 . S
C214 C215 1.398 . S
C214 H237 0.929 . S
C215 C214 1.398 . S
C215 C216 1.352 . S
C216 C215 1.352 . S
C216 C217 1.384 . S
C216 H238 0.930 . S
C217 C212 1.407 . S
C217 C216 1.384 . S
C217 H239 0.929 . S
C218 O228 1.241 . S
C218 O229 1.273 . S
C219 O230 1.251 . S
C219 O231 1.268 . S
O220 Nd200 2.500 . S
O220 C202 1.258 . S
O221 Nd200 2.492 . S
O221 C202 1.239 . S
O222 Nd200 2.487 . S
O222 C209 1.241 1_556 S
O223 Nd200 2.682 1_554 S
O223 Nd201 2.414 . S
O223 C209 1.273 . S
O224 Nd200 2.410 . S
O224 C210 1.251 . S
O225 Nd201 2.424 . S
O225 C210 1.268 1_554 S
O226 Nd201 2.500 . S
O226 C211 1.258 . S
O227 Nd201 2.492 . S
O227 C211 1.239 . S
O228 Nd201 2.487 . S
O228 C218 1.241 . S
O229 Nd200 2.414 1_554 S
O229 Nd201 2.682 . S
O229 C218 1.273 . S
O230 Nd201 2.410 . S
O230 C219 1.251 . S
O231 Nd200 2.424 1_554 S
O231 C219 1.268 . S
H232 C204 0.930 . S
H233 C205 0.929 . S
H234 C207 0.930 . S
H235 C208 0.929 . S
H236 C213 0.930 . S
H237 C214 0.929 . S
H238 C216 0.930 . S
H239 C217 0.929 . S
Nd240 C242 2.836 . S
Nd240 O260 2.500 . S
Nd240 O261 2.492 . S
Nd240 O262 2.487 . S
Nd240 O263 2.682 . S
Nd240 O264 2.410 . S
Nd240 O269 2.414 . S
Nd240 O271 2.424 . S
Nd241 C251 2.836 . S
Nd241 O263 2.414 1_554 S
Nd241 O265 2.424 1_554 S
Nd241 O266 2.500 . S
Nd241 O267 2.492 . S
Nd241 O268 2.487 . S
Nd241 O269 2.682 1_554 S
Nd241 O270 2.410 . S
C242 Nd240 2.836 . S
C242 C243 1.498 . S
C242 O260 1.258 . S
C242 O261 1.239 . S
C243 C242 1.498 . S
C243 C244 1.366 . S
C243 C248 1.407 . S
C244 C243 1.366 . S
C244 C245 1.392 . S
C244 H272 0.930 . S
C245 C244 1.392 . S
C245 C246 1.398 . S
C245 H273 0.929 . S
C246 C245 1.398 . S
C246 C247 1.352 . S
C247 C246 1.352 . S
C247 C248 1.384 . S
C247 H274 0.930 . S
C248 C243 1.407 . S
C248 C247 1.384 . S
C248 H275 0.929 . S
C249 O262 1.241 . S
C249 O263 1.273 . S
C250 O264 1.251 . S
C250 O265 1.268 . S
C251 Nd241 2.836 . S
C251 C252 1.498 . S
C251 O266 1.258 . S
C251 O267 1.239 . S
C252 C251 1.498 . S
C252 C253 1.366 . S
C252 C257 1.407 . S
C253 C252 1.366 . S
C253 C254 1.392 . S
C253 H276 0.930 . S
C254 C253 1.392 . S
C254 C255 1.398 . S
C254 H277 0.929 . S
C255 C254 1.398 . S
C255 C256 1.352 . S
C256 C255 1.352 . S
C256 C257 1.384 . S
C256 H278 0.930 . S
C257 C252 1.407 . S
C257 C256 1.384 . S
C257 H279 0.929 . S
C258 O268 1.241 1_556 S
C258 O269 1.273 . S
C259 O270 1.251 . S
C259 O271 1.268 1_554 S
O260 Nd240 2.500 . S
O260 C242 1.258 . S
O261 Nd240 2.492 . S
O261 C242 1.239 . S
O262 Nd240 2.487 . S
O262 C249 1.241 . S
O263 Nd240 2.682 . S
O263 Nd241 2.414 1_556 S
O263 C249 1.273 . S
O264 Nd240 2.410 . S
O264 C250 1.251 . S
O265 Nd241 2.424 1_556 S
O265 C250 1.268 . S
O266 Nd241 2.500 . S
O266 C251 1.258 . S
O267 Nd241 2.492 . S
O267 C251 1.239 . S
O268 Nd241 2.487 . S
O268 C258 1.241 1_554 S
O269 Nd240 2.414 . S
O269 Nd241 2.682 1_556 S
O269 C258 1.273 . S
O270 Nd241 2.410 . S
O270 C259 1.251 . S
O271 Nd240 2.424 . S
O271 C259 1.268 1_556 S
H272 C244 0.930 . S
H273 C245 0.929 . S
H274 C247 0.930 . S
H275 C248 0.929 . S
H276 C253 0.930 . S
H277 C254 0.929 . S
H278 C256 0.930 . S
H279 C257 0.929 . S
Nd280 C282 2.836 . S
Nd280 O300 2.500 . S
Nd280 O301 2.492 . S
Nd280 O302 2.487 . S
Nd280 O303 2.682 . S
Nd280 O304 2.410 . S
Nd280 O309 2.414 . S
Nd280 O311 2.424 . S
Nd281 C291 2.836 . S
Nd281 O303 2.414 1_554 S
Nd281 O305 2.424 1_554 S
Nd281 O306 2.500 . S
Nd281 O307 2.492 . S
Nd281 O308 2.487 . S
Nd281 O309 2.682 1_554 S
Nd281 O310 2.410 . S
C282 Nd280 2.836 . S
C282 C283 1.498 . S
C282 O300 1.258 . S
C282 O301 1.239 . S
C283 C282 1.498 . S
C283 C284 1.366 . S
C283 C288 1.407 . S
C284 C283 1.366 . S
C284 C285 1.392 . S
C284 H312 0.930 . S
C285 C284 1.392 . S
C285 C286 1.398 . S
C285 H313 0.929 . S
C286 C285 1.398 . S
C286 C287 1.352 . S
C287 C286 1.352 . S
C287 C288 1.384 . S
C287 H314 0.930 . S
C288 C283 1.407 . S
C288 C287 1.384 . S
C288 H315 0.929 . S
C289 O302 1.241 . S
C289 O303 1.273 . S
C290 O304 1.251 . S
C290 O305 1.268 . S
C291 Nd281 2.836 . S
C291 C292 1.498 . S
C291 O306 1.258 . S
C291 O307 1.239 . S
C292 C291 1.498 . S
C292 C293 1.366 . S
C292 C297 1.407 . S
C293 C292 1.366 . S
C293 C294 1.392 . S
C293 H316 0.930 . S
C294 C293 1.392 . S
C294 C295 1.398 . S
C294 H317 0.929 . S
C295 C294 1.398 . S
C295 C296 1.352 . S
C296 C295 1.352 . S
C296 C297 1.384 . S
C296 H318 0.930 . S
C297 C292 1.407 . S
C297 C296 1.384 . S
C297 H319 0.929 . S
C298 O308 1.241 1_556 S
C298 O309 1.273 . S
C299 O310 1.251 . S
C299 O311 1.268 1_554 S
O300 Nd280 2.500 . S
O300 C282 1.258 . S
O301 Nd280 2.492 . S
O301 C282 1.239 . S
O302 Nd280 2.487 . S
O302 C289 1.241 . S
O303 Nd280 2.682 . S
O303 Nd281 2.414 1_556 S
O303 C289 1.273 . S
O304 Nd280 2.410 . S
O304 C290 1.251 . S
O305 Nd281 2.424 1_556 S
O305 C290 1.268 . S
O306 Nd281 2.500 . S
O306 C291 1.258 . S
O307 Nd281 2.492 . S
O307 C291 1.239 . S
O308 Nd281 2.487 . S
O308 C298 1.241 1_554 S
O309 Nd280 2.414 . S
O309 Nd281 2.682 1_556 S
O309 C298 1.273 . S
O310 Nd281 2.410 . S
O310 C299 1.251 . S
O311 Nd280 2.424 . S
O311 C299 1.268 1_556 S
H312 C284 0.930 . S
H313 C285 0.929 . S
H314 C287 0.930 . S
H315 C288 0.929 . S
H316 C293 0.930 . S
H317 C294 0.929 . S
H318 C296 0.930 . S
H319 C297 0.929 . S
C320 C321 1.349 . S
C320 C322 1.327 . S
C320 H345 0.950 . S
C321 C320 1.349 . S
C321 C337 1.349 . S
C322 C320 1.327 . S
C322 C341 1.429 . S
C322 H346 0.950 . S
C323 C340 1.574 . S
C323 C342 1.368 . S
C323 H347 0.949 . S
H324 C328 0.949 . S
C325 C326 1.349 . S
C325 C327 1.327 . S
C325 H348 0.950 . S
C326 C325 1.349 . S
C326 C338 1.349 . S
C327 C325 1.327 . S
C327 C343 1.429 . S
C327 H349 0.950 . S
C328 H324 0.949 . S
C328 C336 1.574 . S
C328 C344 1.368 . S
H329 C337 0.950 . S
H330 C335 0.950 . S
H331 C336 0.949 . S
H332 C338 0.950 . S
H333 C339 0.950 . S
H334 C340 0.949 . S
C335 H330 0.950 . S
C335 C337 1.327 . S
C335 C341 1.429 . S
C336 C328 1.574 . S
C336 H331 0.949 . S
C336 C342 1.368 . S
C337 C321 1.349 . S
C337 H329 0.950 . S
C337 C335 1.327 . S
C338 C326 1.349 . S
C338 H332 0.950 . S
C338 C339 1.327 . S
C339 H333 0.950 . S
C339 C338 1.327 . S
C339 C343 1.429 . S
C340 C323 1.574 . S
C340 H334 0.949 . S
C340 C344 1.368 . S
C341 C322 1.429 . S
C341 C335 1.429 . S
C341 C342 1.523 . S
C342 C323 1.368 . S
C342 C336 1.368 . S
C342 C341 1.523 . S
C343 C327 1.429 . S
C343 C339 1.429 . S
C343 C344 1.523 . S
C344 C328 1.368 . S
C344 C340 1.368 . S
C344 C343 1.523 . S
H345 C320 0.950 . S
H346 C322 0.950 . S
H347 C323 0.949 . S
H348 C325 0.950 . S
H349 C327 0.950 . S
C350 C351 1.349 . S
C350 C352 1.327 . S
C350 H375 0.950 . S
C351 C350 1.349 . S
C351 C367 1.349 . S
C352 C350 1.327 . S
C352 C371 1.429 . S
C352 H376 0.950 . S
C353 C370 1.574 . S
C353 C372 1.368 . S
C353 H377 0.949 . S
H354 C358 0.949 . S
C355 C356 1.349 . S
C355 C357 1.327 . S
C355 H378 0.950 . S
C356 C355 1.349 . S
C356 C368 1.349 . S
C357 C355 1.327 . S
C357 C373 1.429 . S
C357 H379 0.950 . S
C358 H354 0.949 . S
C358 C366 1.574 . S
C358 C374 1.368 . S
H359 C367 0.950 . S
H360 C365 0.950 . S
H361 C366 0.949 . S
H362 C368 0.950 . S
H363 C369 0.950 . S
H364 C370 0.949 . S
C365 H360 0.950 . S
C365 C367 1.327 . S
C365 C371 1.429 . S
C366 C358 1.574 . S
C366 H361 0.949 . S
C366 C372 1.368 . S
C367 C351 1.349 . S
C367 H359 0.950 . S
C367 C365 1.327 . S
C368 C356 1.349 . S
C368 H362 0.950 . S
C368 C369 1.327 . S
C369 H363 0.950 . S
C369 C368 1.327 . S
C369 C373 1.429 . S
C370 C353 1.574 . S
C370 H364 0.949 . S
C370 C374 1.368 . S
C371 C352 1.429 . S
C371 C365 1.429 . S
C371 C372 1.523 . S
C372 C353 1.368 . S
C372 C366 1.368 . S
C372 C371 1.523 . S
C373 C357 1.429 . S
C373 C369 1.429 . S
C373 C374 1.523 . S
C374 C358 1.368 . S
C374 C370 1.368 . S
C374 C373 1.523 . S
H375 C350 0.950 . S
H376 C352 0.950 . S
H377 C353 0.949 . S
H378 C355 0.950 . S
H379 C357 0.950 . S
C380 C381 1.349 . S
C380 C382 1.327 . S
C380 H405 0.950 . S
C381 C380 1.349 . S
C381 C397 1.349 . S
C382 C380 1.327 . S
C382 C401 1.429 . S
C382 H406 0.950 . S
C383 C400 1.574 . S
C383 C402 1.368 . S
C383 H407 0.949 . S
H384 C388 0.949 . S
C385 C386 1.349 . S
C385 C387 1.327 . S
C385 H408 0.950 . S
C386 C385 1.349 . S
C386 C398 1.349 . S
C387 C385 1.327 . S
C387 C403 1.429 . S
C387 H409 0.950 . S
C388 H384 0.949 . S
C388 C396 1.574 . S
C388 C404 1.368 . S
H389 C397 0.950 . S
H390 C395 0.950 . S
H391 C396 0.949 . S
H392 C398 0.950 . S
H393 C399 0.950 . S
H394 C400 0.949 . S
C395 H390 0.950 . S
C395 C397 1.327 . S
C395 C401 1.429 . S
C396 C388 1.574 . S
C396 H391 0.949 . S
C396 C402 1.368 . S
C397 C381 1.349 . S
C397 H389 0.950 . S
C397 C395 1.327 . S
C398 C386 1.349 . S
C398 H392 0.950 . S
C398 C399 1.327 . S
C399 H393 0.950 . S
C399 C398 1.327 . S
C399 C403 1.429 . S
C400 C383 1.574 . S
C400 H394 0.949 . S
C400 C404 1.368 . S
C401 C382 1.429 . S
C401 C395 1.429 . S
C401 C402 1.523 . S
C402 C383 1.368 . S
C402 C396 1.368 . S
C402 C401 1.523 . S
C403 C387 1.429 . S
C403 C399 1.429 . S
C403 C404 1.523 . S
C404 C388 1.368 . S
C404 C400 1.368 . S
C404 C403 1.523 . S
H405 C380 0.950 . S
H406 C382 0.950 . S
H407 C383 0.949 . S
H408 C385 0.950 . S
H409 C387 0.950 . S
C410 C411 1.349 . S
C410 C412 1.327 . S
C410 H435 0.950 . S
C411 C410 1.349 . S
C411 C427 1.349 . S
C412 C410 1.327 . S
C412 C431 1.429 . S
C412 H436 0.950 . S
C413 C430 1.574 . S
C413 C432 1.368 . S
C413 H437 0.949 . S
H414 C418 0.949 . S
C415 C416 1.349 . S
C415 C417 1.327 . S
C415 H438 0.950 . S
C416 C415 1.349 . S
C416 C428 1.349 . S
C417 C415 1.327 . S
C417 C433 1.429 . S
C417 H439 0.950 . S
C418 H414 0.949 . S
C418 C426 1.574 . S
C418 C434 1.368 . S
H419 C427 0.950 . S
H420 C425 0.950 . S
H421 C426 0.949 . S
H422 C428 0.950 . S
H423 C429 0.950 . S
H424 C430 0.949 . S
C425 H420 0.950 . S
C425 C427 1.327 . S
C425 C431 1.429 . S
C426 C418 1.574 . S
C426 H421 0.949 . S
C426 C432 1.368 . S
C427 C411 1.349 . S
C427 H419 0.950 . S
C427 C425 1.327 . S
C428 C416 1.349 . S
C428 H422 0.950 . S
C428 C429 1.327 . S
C429 H423 0.950 . S
C429 C428 1.327 . S
C429 C433 1.429 . S
C430 C413 1.574 . S
C430 H424 0.949 . S
C430 C434 1.368 . S
C431 C412 1.429 . S
C431 C425 1.429 . S
C431 C432 1.523 . S
C432 C413 1.368 . S
C432 C426 1.368 . S
C432 C431 1.523 . S
C433 C417 1.429 . S
C433 C429 1.429 . S
C433 C434 1.523 . S
C434 C418 1.368 . S
C434 C430 1.368 . S
C434 C433 1.523 . S
H435 C410 0.950 . S
H436 C412 0.950 . S
H437 C413 0.949 . S
H438 C415 0.950 . S
H439 C417 0.950 . S
C440 C441 1.349 . S
C440 C442 1.327 . S
C440 H465 0.950 . S
C441 C440 1.349 . S
C441 C457 1.349 . S
C442 C440 1.327 . S
C442 C461 1.429 . S
C442 H466 0.950 . S
C443 C460 1.574 1_565 S
C443 C462 1.368 . S
C443 H467 0.949 . S
H444 C448 0.949 . S
C445 C446 1.349 . S
C445 C447 1.327 . S
C445 H468 0.950 . S
C446 C445 1.349 . S
C446 C458 1.349 . S
C447 C445 1.327 . S
C447 C463 1.429 . S
C447 H469 0.950 . S
C448 H444 0.949 . S
C448 C456 1.574 1_545 S
C448 C464 1.368 . S
H449 C457 0.950 . S
H450 C455 0.950 . S
H451 C456 0.949 . S
H452 C458 0.950 . S
H453 C459 0.950 . S
H454 C460 0.949 . S
C455 H450 0.950 . S
C455 C457 1.327 . S
C455 C461 1.429 . S
C456 C448 1.574 1_565 S
C456 H451 0.949 . S
C456 C462 1.368 . S
C457 C441 1.349 . S
C457 H449 0.950 . S
C457 C455 1.327 . S
C458 C446 1.349 . S
C458 H452 0.950 . S
C458 C459 1.327 . S
C459 H453 0.950 . S
C459 C458 1.327 . S
C459 C463 1.429 . S
C460 C443 1.574 1_545 S
C460 H454 0.949 . S
C460 C464 1.368 . S
C461 C442 1.429 . S
C461 C455 1.429 . S
C461 C462 1.523 . S
C462 C443 1.368 . S
C462 C456 1.368 . S
C462 C461 1.523 . S
C463 C447 1.429 . S
C463 C459 1.429 . S
C463 C464 1.523 . S
C464 C448 1.368 . S
C464 C460 1.368 . S
C464 C463 1.523 . S
H465 C440 0.950 . S
H466 C442 0.950 . S
H467 C443 0.949 . S
H468 C445 0.950 . S
H469 C447 0.950 . S
C470 C471 1.349 . S
C470 C472 1.327 . S
C470 H495 0.950 . S
C471 C470 1.349 . S
C471 C487 1.349 . S
C472 C470 1.327 . S
C472 C491 1.429 . S
C472 H496 0.950 . S
C473 C490 1.574 . S
C473 C492 1.368 . S
C473 H497 0.949 . S
H474 C478 0.949 . S
C475 C476 1.349 . S
C475 C477 1.327 . S
C475 H498 0.950 . S
C476 C475 1.349 . S
C476 C488 1.349 . S
C477 C475 1.327 . S
C477 C493 1.429 . S
C477 H499 0.950 . S
C478 H474 0.949 . S
C478 C486 1.574 . S
C478 C494 1.368 . S
H479 C487 0.950 . S
H480 C485 0.950 . S
H481 C486 0.949 . S
H482 C488 0.950 . S
H483 C489 0.950 . S
H484 C490 0.949 . S
C485 H480 0.950 . S
C485 C487 1.327 . S
C485 C491 1.429 . S
C486 C478 1.574 . S
C486 H481 0.949 . S
C486 C492 1.368 . S
C487 C471 1.349 . S
C487 H479 0.950 . S
C487 C485 1.327 . S
C488 C476 1.349 . S
C488 H482 0.950 . S
C488 C489 1.327 . S
C489 H483 0.950 . S
C489 C488 1.327 . S
C489 C493 1.429 . S
C490 C473 1.574 . S
C490 H484 0.949 . S
C490 C494 1.368 . S
C491 C472 1.429 . S
C491 C485 1.429 . S
C491 C492 1.523 . S
C492 C473 1.368 . S
C492 C486 1.368 . S
C492 C491 1.523 . S
C493 C477 1.429 . S
C493 C489 1.429 . S
C493 C494 1.523 . S
C494 C478 1.368 . S
C494 C490 1.368 . S
C494 C493 1.523 . S
H495 C470 0.950 . S
H496 C472 0.950 . S
H497 C473 0.949 . S
H498 C475 0.950 . S
H499 C477 0.950 . S
C500 C501 1.349 . S
C500 C502 1.327 . S
C500 H525 0.950 . S
C501 C500 1.349 . S
C501 C517 1.349 . S
C502 C500 1.327 . S
C502 C521 1.429 . S
C502 H526 0.950 . S
C503 C520 1.574 1_565 S
C503 C522 1.368 . S
C503 H527 0.949 . S
H504 C508 0.949 . S
C505 C506 1.349 . S
C505 C507 1.327 . S
C505 H528 0.950 . S
C506 C505 1.349 . S
C506 C518 1.349 . S
C507 C505 1.327 . S
C507 C523 1.429 . S
C507 H529 0.950 . S
C508 H504 0.949 . S
C508 C516 1.574 1_545 S
C508 C524 1.368 . S
H509 C517 0.950 . S
H510 C515 0.950 . S
H511 C516 0.949 . S
H512 C518 0.950 . S
H513 C519 0.950 . S
H514 C520 0.949 . S
C515 H510 0.950 . S
C515 C517 1.327 . S
C515 C521 1.429 . S
C516 C508 1.574 1_565 S
C516 H511 0.949 . S
C516 C522 1.368 . S
C517 C501 1.349 . S
C517 H509 0.950 . S
C517 C515 1.327 . S
C518 C506 1.349 . S
C518 H512 0.950 . S
C518 C519 1.327 . S
C519 H513 0.950 . S
C519 C518 1.327 . S
C519 C523 1.429 . S
C520 C503 1.574 1_545 S
C520 H514 0.949 . S
C520 C524 1.368 . S
C521 C502 1.429 . S
C521 C515 1.429 . S
C521 C522 1.523 . S
C522 C503 1.368 . S
C522 C516 1.368 . S
C522 C521 1.523 . S
C523 C507 1.429 . S
C523 C519 1.429 . S
C523 C524 1.523 . S
C524 C508 1.368 . S
C524 C520 1.368 . S
C524 C523 1.523 . S
H525 C500 0.950 . S
H526 C502 0.950 . S
H527 C503 0.949 . S
H528 C505 0.950 . S
H529 C507 0.950 . S
C530 C531 1.349 . S
C530 C532 1.327 . S
C530 H555 0.950 . S
C531 C530 1.349 . S
C531 C547 1.349 . S
C532 C530 1.327 . S
C532 C551 1.429 . S
C532 H556 0.950 . S
C533 C550 1.574 . S
C533 C552 1.368 . S
C533 H557 0.949 . S
H534 C538 0.949 . S
C535 C536 1.349 . S
C535 C537 1.327 . S
C535 H558 0.950 . S
C536 C535 1.349 . S
C536 C548 1.349 . S
C537 C535 1.327 . S
C537 C553 1.429 . S
C537 H559 0.950 . S
C538 H534 0.949 . S
C538 C546 1.574 . S
C538 C554 1.368 . S
H539 C547 0.950 . S
H540 C545 0.950 . S
H541 C546 0.949 . S
H542 C548 0.950 . S
H543 C549 0.950 . S
H544 C550 0.949 . S
C545 H540 0.950 . S
C545 C547 1.327 . S
C545 C551 1.429 . S
C546 C538 1.574 . S
C546 H541 0.949 . S
C546 C552 1.368 . S
C547 C531 1.349 . S
C547 H539 0.950 . S
C547 C545 1.327 . S
C548 C536 1.349 . S
C548 H542 0.950 . S
C548 C549 1.327 . S
C549 H543 0.950 . S
C549 C548 1.327 . S
C549 C553 1.429 . S
C550 C533 1.574 . S
C550 H544 0.949 . S
C550 C554 1.368 . S
C551 C532 1.429 . S
C551 C545 1.429 . S
C551 C552 1.523 . S
C552 C533 1.368 . S
C552 C546 1.368 . S
C552 C551 1.523 . S
C553 C537 1.429 . S
C553 C549 1.429 . S
C553 C554 1.523 . S
C554 C538 1.368 . S
C554 C550 1.368 . S
C554 C553 1.523 . S
H555 C530 0.950 . S
H556 C532 0.950 . S
H557 C533 0.949 . S
H558 C535 0.950 . S
H559 C537 0.950 . S
C560 C561 1.349 1_556 S
C560 C562 1.327 . S
C560 H585 0.950 . S
C561 C560 1.349 1_554 S
C561 C577 1.349 . S
C562 C560 1.327 . S
C562 C581 1.429 1_556 S
C562 H586 0.950 . S
C563 C580 1.574 . S
C563 C582 1.368 . S
C563 H587 0.949 . S
H564 C568 0.949 . S
C565 C566 1.349 1_554 S
C565 C567 1.327 . S
C565 H588 0.950 . S
C566 C565 1.349 1_556 S
C566 C578 1.349 . S
C567 C565 1.327 . S
C567 C583 1.429 1_554 S
C567 H589 0.950 . S
C568 H564 0.949 . S
C568 C576 1.574 . S
C568 C584 1.371 . S
H569 C577 0.950 . S
H570 C575 0.950 . S
H571 C576 0.949 . S
H572 C578 0.950 . S
H573 C579 0.950 . S
H574 C580 0.949 . S
C575 H570 0.950 . S
C575 C577 1.327 . S
C575 C581 1.429 . S
C576 C568 1.574 . S
C576 H571 0.949 . S
C576 C582 1.368 1_556 S
C577 C561 1.349 . S
C577 H569 0.950 . S
C577 C575 1.327 . S
C578 C566 1.349 . S
C578 H572 0.950 . S
C578 C579 1.327 . S
C579 H573 0.950 . S
C579 C578 1.327 . S
C579 C583 1.429 . S
C580 C563 1.574 . S
C580 H574 0.949 . S
C580 C584 1.366 1_554 S
C581 C562 1.429 1_554 S
C581 C575 1.429 . S
C581 C582 1.523 . S
C582 C563 1.368 . S
C582 C576 1.368 1_554 S
C582 C581 1.523 . S
C583 C567 1.429 1_556 S
C583 C579 1.429 . S
C583 C584 1.523 . S
C584 C568 1.371 . S
C584 C580 1.366 1_556 S
C584 C583 1.523 . S
H585 C560 0.950 . S
H586 C562 0.950 . S
H587 C563 0.949 . S
H588 C565 0.950 . S
H589 C567 0.950 . S
C590 C591 1.349 . S
C590 C592 1.327 . S
C590 H615 0.950 . S
C591 C590 1.349 . S
C591 C607 1.349 1_554 S
C592 C590 1.327 . S
C592 C611 1.429 . S
C592 H616 0.950 . S
C593 C610 1.574 1_565 S
C593 C612 1.368 1_556 S
C593 H617 0.949 . S
H594 C598 0.949 . S
C595 C596 1.349 . S
C595 C597 1.327 . S
C595 H618 0.950 . S
C596 C595 1.349 . S
C596 C608 1.349 1_556 S
C597 C595 1.327 . S
C597 C613 1.429 . S
C597 H619 0.950 . S
C598 H594 0.949 . S
C598 C606 1.574 1_545 S
C598 C614 1.366 1_554 S
H599 C607 0.950 . S
H600 C605 0.950 . S
H601 C606 0.949 . S
H602 C608 0.950 . S
H603 C609 0.950 . S
H604 C610 0.949 . S
C605 H600 0.950 . S
C605 C607 1.327 . S
C605 C611 1.429 1_556 S
C606 C598 1.574 1_565 S
C606 H601 0.949 . S
C606 C612 1.368 . S
C607 C591 1.349 1_556 S
C607 H599 0.950 . S
C607 C605 1.327 . S
C608 C596 1.349 1_554 S
C608 H602 0.950 . S
C608 C609 1.327 . S
C609 H603 0.950 . S
C609 C608 1.327 . S
C609 C613 1.429 1_554 S
C610 C593 1.574 1_545 S
C610 H604 0.949 . S
C610 C614 1.371 . S
C611 C592 1.429 . S
C611 C605 1.429 1_554 S
C611 C612 1.523 . S
C612 C593 1.368 1_554 S
C612 C606 1.368 . S
C612 C611 1.523 . S
C613 C597 1.429 . S
C613 C609 1.429 1_556 S
C613 C614 1.523 . S
C614 C598 1.366 1_556 S
C614 C610 1.371 . S
C614 C613 1.523 . S
H615 C590 0.950 . S
H616 C592 0.950 . S
H617 C593 0.949 . S
H618 C595 0.950 . S
H619 C597 0.950 . S
C620 C621 1.349 . S
C620 C622 1.327 . S
C620 H645 0.950 . S
C621 C620 1.349 . S
C621 C637 1.349 1_556 S
C622 C620 1.327 . S
C622 C641 1.429 . S
C622 H646 0.950 . S
C623 C640 1.574 . S
C623 C642 1.368 1_554 S
C623 H647 0.949 . S
H624 C628 0.949 . S
C625 C626 1.349 . S
C625 C627 1.327 . S
C625 H648 0.950 . S
C626 C625 1.349 . S
C626 C638 1.349 1_554 S
C627 C625 1.327 . S
C627 C643 1.429 . S
C627 H649 0.950 . S
C628 H624 0.949 . S
C628 C636 1.574 . S
C628 C644 1.366 1_556 S
H629 C637 0.950 . S
H630 C635 0.950 . S
H631 C636 0.949 . S
H632 C638 0.950 . S
H633 C639 0.950 . S
H634 C640 0.949 . S
C635 H630 0.950 . S
C635 C637 1.327 . S
C635 C641 1.429 1_554 S
C636 C628 1.574 . S
C636 H631 0.949 . S
C636 C642 1.368 . S
C637 C621 1.349 1_554 S
C637 H629 0.950 . S
C637 C635 1.327 . S
C638 C626 1.349 1_556 S
C638 H632 0.950 . S
C638 C639 1.327 . S
C639 H633 0.950 . S
C639 C638 1.327 . S
C639 C643 1.429 1_556 S
C640 C623 1.574 . S
C640 H634 0.949 . S
C640 C644 1.371 . S
C641 C622 1.429 . S
C641 C635 1.429 1_556 S
C641 C642 1.523 . S
C642 C623 1.368 1_556 S
C642 C636 1.368 . S
C642 C641 1.523 . S
C643 C627 1.429 . S
C643 C639 1.429 1_554 S
C643 C644 1.523 . S
C644 C628 1.366 1_554 S
C644 C640 1.371 . S
C644 C643 1.523 . S
H645 C620 0.950 . S
H646 C622 0.950 . S
H647 C623 0.949 . S
H648 C625 0.950 . S
H649 C627 0.950 . S
C650 C651 1.349 1_554 S
C650 C652 1.327 . S
C650 H675 0.950 . S
C651 C650 1.349 1_556 S
C651 C667 1.349 . S
C652 C650 1.327 . S
C652 C671 1.429 1_554 S
C652 H676 0.950 . S
C653 C670 1.574 1_545 S
C653 C672 1.368 . S
C653 H677 0.949 . S
H654 C658 0.949 . S
C655 C656 1.349 1_556 S
C655 C657 1.327 . S
C655 H678 0.950 . S
C656 C655 1.349 1_554 S
C656 C668 1.349 . S
C657 C655 1.327 . S
C657 C673 1.429 1_556 S
C657 H679 0.950 . S
C658 H654 0.949 . S
C658 C666 1.574 1_565 S
C658 C674 1.371 . S
H659 C667 0.950 . S
H660 C665 0.950 . S
H661 C666 0.949 . S
H662 C668 0.950 . S
H663 C669 0.950 . S
H664 C670 0.949 . S
C665 H660 0.950 . S
C665 C667 1.327 . S
C665 C671 1.429 . S
C666 C658 1.574 1_545 S
C666 H661 0.949 . S
C666 C672 1.368 1_554 S
C667 C651 1.349 . S
C667 H659 0.950 . S
C667 C665 1.327 . S
C668 C656 1.349 . S
C668 H662 0.950 . S
C668 C669 1.327 . S
C669 H663 0.950 . S
C669 C668 1.327 . S
C669 C673 1.429 . S
C670 C653 1.574 1_565 S
C670 H664 0.949 . S
C670 C674 1.366 1_556 S
C671 C652 1.429 1_556 S
C671 C665 1.429 . S
C671 C672 1.523 . S
C672 C653 1.368 . S
C672 C666 1.368 1_556 S
C672 C671 1.523 . S
C673 C657 1.429 1_554 S
C673 C669 1.429 . S
C673 C674 1.523 . S
C674 C658 1.371 . S
C674 C670 1.366 1_554 S
C674 C673 1.523 . S
H675 C650 0.950 . S
H676 C652 0.950 . S
H677 C653 0.949 . S
H678 C655 0.950 . S
H679 C657 0.950 . S
C680 C681 1.349 . S
C680 C682 1.327 . S
C680 H705 0.950 . S
C681 C680 1.349 . S
C681 C697 1.349 . S
C682 C680 1.327 . S
C682 C701 1.429 . S
C682 H706 0.950 . S
C683 C700 1.574 1_554 S
C683 C702 1.368 . S
C683 H707 0.949 . S
H684 C688 0.961 . S
C685 C686 1.349 . S
C685 C687 1.327 . S
C685 H708 0.950 . S
C686 C685 1.349 . S
C686 C698 1.349 . S
C687 C685 1.327 . S
C687 C703 1.429 . S
C687 H709 0.950 . S
C688 H684 0.961 . S
C688 C696 1.550 1_556 S
C688 C704 1.379 . S
H689 C697 0.950 . S
H690 C695 0.950 . S
H691 C696 0.949 . S
H692 C698 0.950 . S
H693 C699 0.950 . S
H694 C700 0.949 . S
C695 H690 0.950 . S
C695 C697 1.327 . S
C695 C701 1.429 . S
C696 C688 1.550 1_554 S
C696 H691 0.949 . S
C696 C702 1.368 . S
C697 C681 1.349 . S
C697 H689 0.950 . S
C697 C695 1.327 . S
C698 C686 1.349 . S
C698 H692 0.950 . S
C698 C699 1.327 . S
C699 H693 0.950 . S
C699 C698 1.327 . S
C699 C703 1.429 . S
C700 C683 1.574 1_556 S
C700 H694 0.949 . S
C700 C704 1.368 . S
C701 C682 1.429 . S
C701 C695 1.429 . S
C701 C702 1.523 . S
C702 C683 1.368 . S
C702 C696 1.368 . S
C702 C701 1.523 . S
C703 C687 1.429 . S
C703 C699 1.429 . S
C703 C704 1.523 . S
C704 C688 1.379 . S
C704 C700 1.368 . S
C704 C703 1.523 . S
H705 C680 0.950 . S
H706 C682 0.950 . S
H707 C683 0.949 . S
H708 C685 0.950 . S
H709 C687 0.950 . S
C710 C711 1.349 . S
C710 C712 1.327 . S
C710 H735 0.950 . S
C711 C710 1.349 . S
C711 C727 1.349 . S
C712 C710 1.327 . S
C712 C731 1.429 . S
C712 H736 0.950 . S
C713 C730 1.574 1_554 S
C713 C732 1.368 . S
C713 H737 0.949 . S
H714 C718 0.949 . S
C715 C716 1.349 . S
C715 C717 1.327 . S
C715 H738 0.950 . S
C716 C715 1.349 . S
C716 C728 1.349 . S
C717 C715 1.327 . S
C717 C733 1.429 . S
C717 H739 0.950 . S
C718 H714 0.949 . S
C718 C726 1.574 1_556 S
C718 C734 1.368 . S
H719 C727 0.950 . S
H720 C725 0.950 . S
H721 C726 0.949 . S
H722 C728 0.950 . S
H723 C729 0.950 . S
H724 C730 0.949 . S
C725 H720 0.950 . S
C725 C727 1.327 . S
C725 C731 1.429 . S
C726 C718 1.574 1_554 S
C726 H721 0.949 . S
C726 C732 1.368 . S
C727 C711 1.349 . S
C727 H719 0.950 . S
C727 C725 1.327 . S
C728 C716 1.349 . S
C728 H722 0.950 . S
C728 C729 1.327 . S
C729 H723 0.950 . S
C729 C728 1.327 . S
C729 C733 1.429 . S
C730 C713 1.574 1_556 S
C730 H724 0.949 . S
C730 C734 1.368 . S
C731 C712 1.429 . S
C731 C725 1.429 . S
C731 C732 1.523 . S
C732 C713 1.368 . S
C732 C726 1.368 . S
C732 C731 1.523 . S
C733 C717 1.429 . S
C733 C729 1.429 . S
C733 C734 1.523 . S
C734 C718 1.368 . S
C734 C730 1.368 . S
C734 C733 1.523 . S
H735 C710 0.950 . S
H736 C712 0.950 . S
H737 C713 0.949 . S
H738 C715 0.950 . S
H739 C717 0.950 . S
C740 C741 1.349 . S
C740 C742 1.327 . S
C740 H765 0.950 . S
C741 C740 1.349 . S
C741 C757 1.349 . S
C742 C740 1.327 . S
C742 C761 1.429 . S
C742 H766 0.950 . S
C743 C760 1.574 1_554 S
C743 C762 1.368 . S
C743 H767 0.949 . S
H744 C748 0.949 . S
C745 C746 1.349 . S
C745 C747 1.327 . S
C745 H768 0.950 . S
C746 C745 1.349 . S
C746 C758 1.349 . S
C747 C745 1.327 . S
C747 C763 1.429 . S
C747 H769 0.950 . S
C748 H744 0.949 . S
C748 C756 1.574 1_556 S
C748 C764 1.368 . S
H749 C757 0.950 . S
H750 C755 0.950 . S
H751 C756 0.949 . S
H752 C758 0.950 . S
H753 C759 0.950 . S
H754 C760 0.949 . S
C755 H750 0.950 . S
C755 C757 1.327 . S
C755 C761 1.429 . S
C756 C748 1.574 1_554 S
C756 H751 0.949 . S
C756 C762 1.368 . S
C757 C741 1.349 . S
C757 H749 0.950 . S
C757 C755 1.327 . S
C758 C746 1.349 . S
C758 H752 0.950 . S
C758 C759 1.327 . S
C759 H753 0.950 . S
C759 C758 1.327 . S
C759 C763 1.429 . S
C760 C743 1.574 1_556 S
C760 H754 0.949 . S
C760 C764 1.368 . S
C761 C742 1.429 . S
C761 C755 1.429 . S
C761 C762 1.523 . S
C762 C743 1.368 . S
C762 C756 1.368 . S
C762 C761 1.523 . S
C763 C747 1.429 . S
C763 C759 1.429 . S
C763 C764 1.523 . S
C764 C748 1.368 . S
C764 C760 1.368 . S
C764 C763 1.523 . S
H765 C740 0.950 . S
H766 C742 0.950 . S
H767 C743 0.949 . S
H768 C745 0.950 . S
H769 C747 0.950 . S
C770 C771 1.349 . S
C770 C772 1.327 . S
C770 H795 0.950 . S
C771 C770 1.349 . S
C771 C787 1.349 . S
C772 C770 1.327 . S
C772 C791 1.429 . S
C772 H796 0.950 . S
C773 C790 1.574 . S
C773 C792 1.368 . S
C773 H797 0.949 . S
H774 C778 0.949 . S
C775 C776 1.349 . S
C775 C777 1.327 . S
C775 H798 0.950 . S
C776 C775 1.349 . S
C776 C788 1.349 . S
C777 C775 1.327 . S
C777 C793 1.429 . S
C777 H799 0.950 . S
C778 H774 0.949 . S
C778 C786 1.574 1_554 S
C778 C794 1.368 . S
H779 C787 0.950 . S
H780 C785 0.950 . S
H781 C786 0.949 . S
H782 C788 0.950 . S
H783 C789 0.950 . S
H784 C790 0.949 1_554 S
C785 H780 0.950 . S
C785 C787 1.327 . S
C785 C791 1.429 . S
C786 C778 1.574 1_556 S
C786 H781 0.949 . S
C786 C792 1.368 . S
C787 C771 1.349 . S
C787 H779 0.950 . S
C787 C785 1.327 . S
C788 C776 1.349 . S
C788 H782 0.950 . S
C788 C789 1.327 . S
C789 H783 0.950 . S
C789 C788 1.327 . S
C789 C793 1.429 . S
C790 C773 1.574 . S
C790 H784 0.949 1_556 S
C790 C794 1.368 1_556 S
C791 C772 1.429 . S
C791 C785 1.429 . S
C791 C792 1.523 . S
C792 C773 1.368 . S
C792 C786 1.368 . S
C792 C791 1.523 . S
C793 C777 1.429 . S
C793 C789 1.429 . S
C793 C794 1.523 . S
C794 C778 1.368 . S
C794 C790 1.368 1_554 S
C794 C793 1.523 . S
H795 C770 0.950 . S
H796 C772 0.950 . S
H797 C773 0.949 . S
H798 C775 0.950 . S
H799 C777 0.950 . S
C800 C801 1.349 . S
C800 C802 1.327 . S
C800 H825 0.950 . S
C801 C800 1.349 . S
C801 C817 1.349 . S
C802 C800 1.327 . S
C802 C821 1.429 . S
C802 H826 0.950 . S
C803 C820 1.574 . S
C803 C822 1.368 . S
C803 H827 0.949 . S
H804 C808 0.949 . S
C805 C806 1.349 . S
C805 C807 1.327 . S
C805 H828 0.950 . S
C806 C805 1.349 . S
C806 C818 1.349 . S
C807 C805 1.327 . S
C807 C823 1.429 . S
C807 H829 0.950 . S
C808 H804 0.949 . S
C808 C816 1.574 . S
C808 C824 1.368 . S
H809 C817 0.950 . S
H810 C815 0.950 . S
H811 C816 0.949 . S
H812 C818 0.950 . S
H813 C819 0.950 . S
H814 C820 0.949 . S
C815 H810 0.950 . S
C815 C817 1.327 . S
C815 C821 1.429 . S
C816 C808 1.574 . S
C816 H811 0.949 . S
C816 C822 1.368 . S
C817 C801 1.349 . S
C817 H809 0.950 . S
C817 C815 1.327 . S
C818 C806 1.349 . S
C818 H812 0.950 . S
C818 C819 1.327 . S
C819 H813 0.950 . S
C819 C818 1.327 . S
C819 C823 1.429 . S
C820 C803 1.574 . S
C820 H814 0.949 . S
C820 C824 1.368 . S
C821 C802 1.429 . S
C821 C815 1.429 . S
C821 C822 1.523 . S
C822 C803 1.368 . S
C822 C816 1.368 . S
C822 C821 1.523 . S
C823 C807 1.429 . S
C823 C819 1.429 . S
C823 C824 1.523 . S
C824 C808 1.368 . S
C824 C820 1.368 . S
C824 C823 1.523 . S
H825 C800 0.950 . S
H826 C802 0.950 . S
H827 C803 0.949 . S
H828 C805 0.950 . S
H829 C807 0.950 . S
C830 C831 1.349 . S
C830 C832 1.327 . S
C830 H855 0.950 . S
C831 C830 1.349 . S
C831 C847 1.349 . S
C832 C830 1.327 . S
C832 C851 1.429 . S
C832 H856 0.950 . S
C833 C850 1.574 . S
C833 C852 1.368 . S
C833 H857 0.949 . S
H834 C838 0.949 . S
C835 C836 1.349 . S
C835 C837 1.327 . S
C835 H858 0.950 . S
C836 C835 1.349 . S
C836 C848 1.349 . S
C837 C835 1.327 . S
C837 C853 1.429 . S
C837 H859 0.950 . S
C838 H834 0.949 . S
C838 C846 1.574 . S
C838 C854 1.368 . S
H839 C847 0.950 . S
H840 C845 0.950 . S
H841 C846 0.949 . S
H842 C848 0.950 . S
H843 C849 0.950 . S
H844 C850 0.949 . S
C845 H840 0.950 . S
C845 C847 1.327 . S
C845 C851 1.429 . S
C846 C838 1.574 . S
C846 H841 0.949 . S
C846 C852 1.368 . S
C847 C831 1.349 . S
C847 H839 0.950 . S
C847 C845 1.327 . S
C848 C836 1.349 . S
C848 H842 0.950 . S
C848 C849 1.327 . S
C849 H843 0.950 . S
C849 C848 1.327 . S
C849 C853 1.429 . S
C850 C833 1.574 . S
C850 H844 0.949 . S
C850 C854 1.368 . S
C851 C832 1.429 . S
C851 C845 1.429 . S
C851 C852 1.523 . S
C852 C833 1.368 . S
C852 C846 1.368 . S
C852 C851 1.523 . S
C853 C837 1.429 . S
C853 C849 1.429 . S
C853 C854 1.523 . S
C854 C838 1.368 . S
C854 C850 1.368 . S
C854 C853 1.523 . S
H855 C830 0.950 . S
H856 C832 0.950 . S
H857 C833 0.949 . S
H858 C835 0.950 . S
H859 C837 0.950 . S
C860 C861 1.349 . S
C860 C862 1.327 . S
C860 H885 0.950 . S
C861 C860 1.349 . S
C861 C877 1.349 . S
C862 C860 1.327 . S
C862 C881 1.429 . S
C862 H886 0.950 . S
C863 C880 1.574 . S
C863 C882 1.368 . S
C863 H887 0.949 . S
H864 C868 0.949 . S
C865 C866 1.349 . S
C865 C867 1.327 . S
C865 H888 0.950 . S
C866 C865 1.349 . S
C866 C878 1.349 . S
C867 C865 1.327 . S
C867 C883 1.429 . S
C867 H889 0.950 . S
C868 H864 0.949 . S
C868 C876 1.574 . S
C868 C884 1.368 . S
H869 C877 0.950 . S
H870 C875 0.950 . S
H871 C876 0.949 . S
H872 C878 0.950 . S
H873 C879 0.950 . S
H874 C880 0.949 . S
C875 H870 0.950 . S
C875 C877 1.327 . S
C875 C881 1.429 . S
C876 C868 1.574 . S
C876 H871 0.949 . S
C876 C882 1.368 . S
C877 C861 1.349 . S
C877 H869 0.950 . S
C877 C875 1.327 . S
C878 C866 1.349 . S
C878 H872 0.950 . S
C878 C879 1.327 . S
C879 H873 0.950 . S
C879 C878 1.327 . S
C879 C883 1.429 . S
C880 C863 1.574 . S
C880 H874 0.949 . S
C880 C884 1.368 . S
C881 C862 1.429 . S
C881 C875 1.429 . S
C881 C882 1.523 . S
C882 C863 1.368 . S
C882 C876 1.368 . S
C882 C881 1.523 . S
C883 C867 1.429 . S
C883 C879 1.429 . S
C883 C884 1.523 . S
C884 C868 1.368 . S
C884 C880 1.368 . S
C884 C883 1.523 . S
H885 C860 0.950 . S
H886 C862 0.950 . S
H887 C863 0.949 . S
H888 C865 0.950 . S
H889 C867 0.950 . S
C890 C891 1.349 . S
C890 C892 1.327 . S
C890 H915 0.950 . S
C891 C890 1.349 . S
C891 C907 1.349 . S
C892 C890 1.327 . S
C892 C911 1.429 . S
C892 H916 0.950 . S
C893 C910 1.574 . S
C893 C912 1.368 . S
C893 H917 0.949 . S
H894 C898 0.949 . S
C895 C896 1.349 . S
C895 C897 1.327 . S
C895 H918 0.950 . S
C896 C895 1.349 . S
C896 C908 1.349 . S
C897 C895 1.327 . S
C897 C913 1.429 . S
C897 H919 0.950 . S
C898 H894 0.949 . S
C898 C906 1.574 . S
C898 C914 1.368 . S
H899 C907 0.950 . S
H900 C905 0.950 . S
H901 C906 0.949 . S
H902 C908 0.950 . S
H903 C909 0.950 . S
H904 C910 0.949 . S
C905 H900 0.950 . S
C905 C907 1.327 . S
C905 C911 1.429 . S
C906 C898 1.574 . S
C906 H901 0.949 . S
C906 C912 1.368 . S
C907 C891 1.349 . S
C907 H899 0.950 . S
C907 C905 1.327 . S
C908 C896 1.349 . S
C908 H902 0.950 . S
C908 C909 1.327 . S
C909 H903 0.950 . S
C909 C908 1.327 . S
C909 C913 1.429 . S
C910 C893 1.574 . S
C910 H904 0.949 . S
C910 C914 1.368 . S
C911 C892 1.429 . S
C911 C905 1.429 . S
C911 C912 1.523 . S
C912 C893 1.368 . S
C912 C906 1.368 . S
C912 C911 1.523 . S
C913 C897 1.429 . S
C913 C909 1.429 . S
C913 C914 1.523 . S
C914 C898 1.368 . S
C914 C910 1.368 . S
C914 C913 1.523 . S
H915 C890 0.950 . S
H916 C892 0.950 . S
H917 C893 0.949 . S
H918 C895 0.950 . S
H919 C897 0.950 . S
C920 C921 1.349 . S
C920 C922 1.327 . S
C920 H945 0.950 . S
C921 C920 1.349 . S
C921 C937 1.349 . S
C922 C920 1.327 . S
C922 C941 1.429 . S
C922 H946 0.950 . S
C923 C940 1.574 1_455 S
C923 C942 1.368 . S
C923 H947 0.949 . S
H924 C928 0.949 . S
C925 C926 1.349 . S
C925 C927 1.327 . S
C925 H948 0.950 . S
C926 C925 1.349 . S
C926 C938 1.349 . S
C927 C925 1.327 . S
C927 C943 1.429 . S
C927 H949 0.950 . S
C928 H924 0.949 . S
C928 C936 1.574 1_655 S
C928 C944 1.368 . S
H929 C937 0.950 . S
H930 C935 0.950 . S
H931 C936 0.949 . S
H932 C938 0.950 . S
H933 C939 0.950 . S
H934 C940 0.949 . S
C935 H930 0.950 . S
C935 C937 1.327 . S
C935 C941 1.429 . S
C936 C928 1.574 1_455 S
C936 H931 0.949 . S
C936 C942 1.368 . S
C937 C921 1.349 . S
C937 H929 0.950 . S
C937 C935 1.327 . S
C938 C926 1.349 . S
C938 H932 0.950 . S
C938 C939 1.327 . S
C939 H933 0.950 . S
C939 C938 1.327 . S
C939 C943 1.429 . S
C940 C923 1.574 1_655 S
C940 H934 0.949 . S
C940 C944 1.368 . S
C941 C922 1.429 . S
C941 C935 1.429 . S
C941 C942 1.523 . S
C942 C923 1.368 . S
C942 C936 1.368 . S
C942 C941 1.523 . S
C943 C927 1.429 . S
C943 C939 1.429 . S
C943 C944 1.523 . S
C944 C928 1.368 . S
C944 C940 1.368 . S
C944 C943 1.523 . S
H945 C920 0.950 . S
H946 C922 0.950 . S
H947 C923 0.949 . S
H948 C925 0.950 . S
H949 C927 0.950 . S
C950 C951 1.349 . S
C950 C952 1.327 . S
C950 H975 0.950 . S
C951 C950 1.349 . S
C951 C967 1.349 . S
C952 C950 1.327 . S
C952 C971 1.429 . S
C952 H976 0.950 . S
C953 C970 1.574 1_655 S
C953 C972 1.368 . S
C953 H977 0.949 . S
H954 C958 0.949 . S
C955 C956 1.349 . S
C955 C957 1.327 . S
C955 H978 0.950 . S
C956 C955 1.349 . S
C956 C968 1.349 . S
C957 C955 1.327 . S
C957 C973 1.429 . S
C957 H979 0.950 . S
C958 H954 0.949 . S
C958 C966 1.574 1_455 S
C958 C974 1.368 . S
H959 C967 0.950 . S
H960 C965 0.950 . S
H961 C966 0.949 . S
H962 C968 0.950 . S
H963 C969 0.950 . S
H964 C970 0.949 . S
C965 H960 0.950 . S
C965 C967 1.327 . S
C965 C971 1.429 . S
C966 C958 1.574 1_655 S
C966 H961 0.949 . S
C966 C972 1.368 . S
C967 C951 1.349 . S
C967 H959 0.950 . S
C967 C965 1.327 . S
C968 C956 1.349 . S
C968 H962 0.950 . S
C968 C969 1.327 . S
C969 H963 0.950 . S
C969 C968 1.327 . S
C969 C973 1.429 . S
C970 C953 1.574 1_455 S
C970 H964 0.949 . S
C970 C974 1.368 . S
C971 C952 1.429 . S
C971 C965 1.429 . S
C971 C972 1.523 . S
C972 C953 1.368 . S
C972 C966 1.368 . S
C972 C971 1.523 . S
C973 C957 1.429 . S
C973 C969 1.429 . S
C973 C974 1.523 . S
C974 C958 1.368 . S
C974 C970 1.368 . S
C974 C973 1.523 . S
H975 C950 0.950 . S
H976 C952 0.950 . S
H977 C953 0.949 . S
H978 C955 0.950 . S
H979 C957 0.950 . S
C980 C981 1.349 . S
C980 C982 1.327 . S
C980 H1005 0.950 . S
C981 C980 1.349 . S
C981 C997 1.349 . S
C982 C980 1.327 . S
C982 C1001 1.429 . S
C982 H1006 0.950 . S
C983 C1000 1.574 . S
C983 C1002 1.359 1_554 S
C983 H1007 0.958 . S
H984 C988 0.949 . S
C985 C986 1.349 . S
C985 C987 1.327 . S
C985 H1008 0.950 1_556 S
C986 C985 1.349 . S
C986 C998 1.349 . S
C987 C985 1.327 . S
C987 C1003 1.429 . S
C987 H1009 0.950 1_556 S
C988 H984 0.949 . S
C988 C996 1.574 . S
C988 C1004 1.368 . S
H989 C997 0.950 1_554 S
H990 C995 0.950 1_554 S
H991 C996 0.949 . S
H992 C998 0.950 . S
H993 C999 0.950 . S
H994 C1000 0.958 . S
C995 H990 0.950 1_556 S
C995 C997 1.327 . S
C995 C1001 1.429 . S
C996 C988 1.574 . S
C996 H991 0.949 . S
C996 C1002 1.368 . S
C997 C981 1.349 . S
C997 H989 0.950 1_556 S
C997 C995 1.327 . S
C998 C986 1.349 . S
C998 H992 0.950 . S
C998 C999 1.327 . S
C999 H993 0.950 . S
C999 C998 1.327 . S
C999 C1003 1.429 . S
C1000 C983 1.574 . S
C1000 H994 0.958 . S
C1000 C1004 1.359 1_554 S
C1001 C982 1.429 . S
C1001 C995 1.429 . S
C1001 C1002 1.523 . S
C1002 C983 1.359 1_556 S
C1002 C996 1.368 . S
C1002 C1001 1.523 . S
C1003 C987 1.429 . S
C1003 C999 1.429 . S
C1003 C1004 1.523 . S
C1004 C988 1.368 . S
C1004 C1000 1.359 1_556 S
C1004 C1003 1.523 . S
H1005 C980 0.950 . S
H1006 C982 0.950 . S
H1007 C983 0.958 . S
H1008 C985 0.950 1_554 S
H1009 C987 0.950 1_554 S
C1010 C1011 1.349 . S
C1010 C1012 1.327 . S
C1010 H1035 0.950 1_554 S
C1011 C1010 1.349 . S
C1011 C1027 1.349 . S
C1012 C1010 1.327 . S
C1012 C1031 1.429 . S
C1012 H1036 0.950 1_554 S
C1013 C1030 1.574 . S
C1013 C1032 1.368 . S
C1013 H1037 0.949 . S
H1014 C1018 0.958 . S
C1015 C1016 1.349 . S
C1015 C1017 1.327 . S
C1015 H1038 0.950 . S
C1016 C1015 1.349 . S
C1016 C1028 1.349 . S
C1017 C1015 1.327 . S
C1017 C1033 1.429 . S
C1017 H1039 0.950 . S
C1018 H1014 0.958 . S
C1018 C1026 1.574 . S
C1018 C1034 1.359 1_556 S
H1019 C1027 0.950 . S
H1020 C1025 0.950 . S
H1021 C1026 0.958 . S
H1022 C1028 0.950 1_556 S
H1023 C1029 0.950 1_556 S
H1024 C1030 0.949 . S
C1025 H1020 0.950 . S
C1025 C1027 1.327 . S
C1025 C1031 1.429 . S
C1026 C1018 1.574 . S
C1026 H1021 0.958 . S
C1026 C1032 1.359 1_556 S
C1027 C1011 1.349 . S
C1027 H1019 0.950 . S
C1027 C1025 1.327 . S
C1028 C1016 1.349 . S
C1028 H1022 0.950 1_554 S
C1028 C1029 1.327 . S
C1029 H1023 0.950 1_554 S
C1029 C1028 1.327 . S
C1029 C1033 1.429 . S
C1030 C1013 1.574 . S
C1030 H1024 0.949 . S
C1030 C1034 1.368 . S
C1031 C1012 1.429 . S
C1031 C1025 1.429 . S
C1031 C1032 1.523 . S
C1032 C1013 1.368 . S
C1032 C1026 1.359 1_554 S
C1032 C1031 1.523 . S
C1033 C1017 1.429 . S
C1033 C1029 1.429 . S
C1033 C1034 1.523 . S
C1034 C1018 1.359 1_554 S
C1034 C1030 1.368 . S
C1034 C1033 1.523 . S
H1035 C1010 0.950 1_556 S
H1036 C1012 0.950 1_556 S
H1037 C1013 0.949 . S
H1038 C1015 0.950 . S
H1039 C1017 0.950 . S
C321 C19 2.236 . S
C326 C290 2.236 . S
C351 C250 2.236 . S
C356 C59 2.236 . S
C381 C219 2.236 . S
C386 C90 2.236 . S
C411 C179 2.236 . S
C416 C130 2.236 . S
C441 C89 1.493 . S
C446 C9 1.452 . S
C471 C49 1.452 . S
C476 C129 1.493 . S
C501 C138 1.452 . S
C506 C58 1.493 . S
C531 C98 1.452 . S
C536 C18 1.493 . S
C561 C169 1.452 . S
C566 C249 1.493 . S
C591 C209 1.452 . S
C596 C289 1.493 . S
C621 C298 1.452 . S
C626 C218 1.493 . S
C651 C258 1.452 . S
C656 C178 1.493 . S
C681 C6 1.477 . S
C686 C15 1.477 . S
C711 C46 1.477 . S
C716 C55 1.477 . S
C741 C86 1.477 . S
C746 C95 1.477 . S
C771 C135 1.477 . S
C776 C126 1.477 . S
C801 C175 1.477 . S
C806 C166 1.477 . S
C831 C206 1.477 . S
C836 C215 1.477 . S
C861 C255 1.477 . S
C866 C246 1.477 . S
C891 C295 1.477 . S
C896 C286 1.477 . S
C921 C10 2.187 . S
C926 C50 2.187 . S
C951 C139 2.187 . S
C956 C99 2.187 . S
C981 C170 2.187 . S
C986 C210 2.187 . S
C1011 C299 2.187 . S
C1016 C259 2.187 . S
