# Generated by pormake.
# Topology zfg, (5)-cn, num edge types: 1
# Building blocks:
#     Node 0, Type 0, BuildingBlock: XOMCOT_clean_sbu_1, # of connection points: 5
#     Node 1, Type 0, BuildingBlock: XOMCOT_clean_sbu_1, # of connection points: 5
#     Node 2, Type 0, BuildingBlock: XOMCOT_clean_sbu_1, # of connection points: 5
#     Node 3, Type 0, BuildingBlock: XOMCOT_clean_sbu_1, # of connection points: 5
#     Node 4, Type 0, BuildingBlock: XOMCOT_clean_sbu_1, # of connection points: 5
#     Node 5, Type 0, BuildingBlock: XOMCOT_clean_sbu_1, # of connection points: 5
#     Node 6, Type 0, BuildingBlock: XOMCOT_clean_sbu_1, # of connection points: 5
#     Node 7, Type 0, BuildingBlock: XOMCOT_clean_sbu_1, # of connection points: 5
#     Node 8, Type 0, BuildingBlock: XOMCOT_clean_sbu_1, # of connection points: 5
#     Node 9, Type 0, BuildingBlock: XOMCOT_clean_sbu_1, # of connection points: 5
#     Node 10, Type 0, BuildingBlock: XOMCOT_clean_sbu_1, # of connection points: 5
#     Node 11, Type 0, BuildingBlock: XOMCOT_clean_sbu_1, # of connection points: 5
#     Node 12, Type 0, BuildingBlock: XOMCOT_clean_sbu_1, # of connection points: 5
#     Node 13, Type 0, BuildingBlock: XOMCOT_clean_sbu_1, # of connection points: 5
#     Node 14, Type 0, BuildingBlock: XOMCOT_clean_sbu_1, # of connection points: 5
#     Node 15, Type 0, BuildingBlock: XOMCOT_clean_sbu_1, # of connection points: 5
#     Edge 16, Type (0, 0), BuildingBlock: XUDNAN_clean_linker_2, # of connection points: 2
#     Edge 17, Type (0, 0), BuildingBlock: XUDNAN_clean_linker_2, # of connection points: 2
#     Edge 18, Type (0, 0), BuildingBlock: XUDNAN_clean_linker_2, # of connection points: 2
#     Edge 19, Type (0, 0), BuildingBlock: XUDNAN_clean_linker_2, # of connection points: 2
#     Edge 20, Type (0, 0), BuildingBlock: XUDNAN_clean_linker_2, # of connection points: 2
#     Edge 21, Type (0, 0), BuildingBlock: XUDNAN_clean_linker_2, # of connection points: 2
#     Edge 22, Type (0, 0), BuildingBlock: XUDNAN_clean_linker_2, # of connection points: 2
#     Edge 23, Type (0, 0), BuildingBlock: XUDNAN_clean_linker_2, # of connection points: 2
#     Edge 24, Type (0, 0), BuildingBlock: XUDNAN_clean_linker_2, # of connection points: 2
#     Edge 25, Type (0, 0), BuildingBlock: XUDNAN_clean_linker_2, # of connection points: 2
#     Edge 26, Type (0, 0), BuildingBlock: XUDNAN_clean_linker_2, # of connection points: 2
#     Edge 27, Type (0, 0), BuildingBlock: XUDNAN_clean_linker_2, # of connection points: 2
#     Edge 28, Type (0, 0), BuildingBlock: XUDNAN_clean_linker_2, # of connection points: 2
#     Edge 29, Type (0, 0), BuildingBlock: XUDNAN_clean_linker_2, # of connection points: 2
#     Edge 30, Type (0, 0), BuildingBlock: XUDNAN_clean_linker_2, # of connection points: 2
#     Edge 31, Type (0, 0), BuildingBlock: XUDNAN_clean_linker_2, # of connection points: 2
#     Edge 32, Type (0, 0), BuildingBlock: XUDNAN_clean_linker_2, # of connection points: 2
#     Edge 33, Type (0, 0), BuildingBlock: XUDNAN_clean_linker_2, # of connection points: 2
#     Edge 34, Type (0, 0), BuildingBlock: XUDNAN_clean_linker_2, # of connection points: 2
#     Edge 35, Type (0, 0), BuildingBlock: XUDNAN_clean_linker_2, # of connection points: 2
#     Edge 36, Type (0, 0), BuildingBlock: XUDNAN_clean_linker_2, # of connection points: 2
#     Edge 37, Type (0, 0), BuildingBlock: XUDNAN_clean_linker_2, # of connection points: 2
#     Edge 38, Type (0, 0), BuildingBlock: XUDNAN_clean_linker_2, # of connection points: 2
#     Edge 39, Type (0, 0), BuildingBlock: XUDNAN_clean_linker_2, # of connection points: 2
#     Edge 40, Type (0, 0), BuildingBlock: XUDNAN_clean_linker_2, # of connection points: 2
#     Edge 41, Type (0, 0), BuildingBlock: XUDNAN_clean_linker_2, # of connection points: 2
#     Edge 42, Type (0, 0), BuildingBlock: XUDNAN_clean_linker_2, # of connection points: 2
#     Edge 43, Type (0, 0), BuildingBlock: XUDNAN_clean_linker_2, # of connection points: 2
#     Edge 44, Type (0, 0), BuildingBlock: XUDNAN_clean_linker_2, # of connection points: 2
#     Edge 45, Type (0, 0), BuildingBlock: XUDNAN_clean_linker_2, # of connection points: 2
#     Edge 46, Type (0, 0), BuildingBlock: XUDNAN_clean_linker_2, # of connection points: 2
#     Edge 47, Type (0, 0), BuildingBlock: XUDNAN_clean_linker_2, # of connection points: 2
#     Edge 48, Type (0, 0), BuildingBlock: XUDNAN_clean_linker_2, # of connection points: 2
#     Edge 49, Type (0, 0), BuildingBlock: XUDNAN_clean_linker_2, # of connection points: 2
#     Edge 50, Type (0, 0), BuildingBlock: XUDNAN_clean_linker_2, # of connection points: 2
#     Edge 51, Type (0, 0), BuildingBlock: XUDNAN_clean_linker_2, # of connection points: 2
#     Edge 52, Type (0, 0), BuildingBlock: XUDNAN_clean_linker_2, # of connection points: 2
#     Edge 53, Type (0, 0), BuildingBlock: XUDNAN_clean_linker_2, # of connection points: 2
#     Edge 54, Type (0, 0), BuildingBlock: XUDNAN_clean_linker_2, # of connection points: 2
#     Edge 55, Type (0, 0), BuildingBlock: XUDNAN_clean_linker_2, # of connection points: 2
# Relax obj value: 0.101
# Max RMSD: 0.138
# Mean RMSD: 0.138
data_MOF--net-zfg--node1-XOMCOT_clean_sbu_1--edge1-XUDNAN_clean_linker_2
_symmetry_space_group_name_H-M    P1
_symmetry_Int_Tables_number       1
_symmetry_cell_setting            triclinic
loop_
_symmetry_equiv_pos_as_xyz
'x, y, z'
_cell_length_a     42.544465
_cell_length_b     42.553025
_cell_length_c     52.210872
_cell_angle_alpha  89.996621
_cell_angle_beta   89.908882
_cell_angle_gamma 89.961279
loop_
_atom_site_label
_atom_site_type_symbol
_atom_site_fract_x
_atom_site_fract_y
_atom_site_fract_z
_atom_type_partial_charge
C0 C 0.06982 0.23782 0.19844 0.0
C1 C 0.09104 0.21359 0.19634 0.0
N2 N 0.11066 0.22007 0.17677 0.0
N3 N 0.07616 0.25953 0.18036 0.0
C4 C 0.10123 0.2481 0.16749 0.0
H5 H 0.05047 0.23917 0.21185 0.0
Co6 Co 0.0526 0.29544 0.17435 0.0
C7 C 0.08146 0.32382 0.12809 0.0
O8 O 0.0815 0.35174 0.1388 0.0
N9 N 0.02833 0.33157 0.16803 0.0
C10 C 0.99804 0.36595 0.14756 0.0
C11 C 0.00861 0.33555 0.148 0.0
C12 C 0.02901 0.35999 0.17965 0.0
N13 N 0.01109 0.38137 0.16734 0.0
O14 O 0.08452 0.32011 0.19119 0.0
H15 H 0.00352 0.31805 0.13361 0.0
H16 H 0.04395 0.36564 0.19572 0.0
O17 O 0.07181 0.30003 0.1407 0.0
C18 C 0.07902 0.31721 0.21516 0.0
O19 O 0.05397 0.30148 0.22237 0.0
N20 N 0.02091 0.27031 0.16103 0.0
C21 C 0.97052 0.23102 0.1495 0.0
C22 C 0.99525 0.23517 0.1319 0.0
C23 C 0.02059 0.25468 0.13819 0.0
C24 C 0.99731 0.26654 0.17829 0.0
C25 C 0.97207 0.24692 0.17305 0.0
H26 H 0.03984 0.25695 0.1248 0.0
H27 H 0.99854 0.27848 0.19655 0.0
H28 H 0.11231 0.25992 0.15153 0.0
H29 H 0.09128 0.19234 0.20773 0.0
H30 H 0.98292 0.37623 0.13316 0.0
H31 H 0.99516 0.22342 0.11351 0.0
H32 H 0.95438 0.24372 0.18774 0.0
C33 C 0.7542 0.07908 0.2005 0.0
C34 C 0.78032 0.09782 0.19803 0.0
N35 N 0.78899 0.09773 0.17326 0.0
N36 N 0.7461 0.06782 0.17725 0.0
C37 C 0.76815 0.07924 0.1611 0.0
H38 H 0.74208 0.07408 0.2182 0.0
Co39 Co 0.71185 0.04243 0.16953 0.0
C40 C 0.68812 0.06976 0.12106 0.0
O41 O 0.65956 0.07122 0.13059 0.0
N42 N 0.67727 0.01634 0.1615 0.0
C43 C 0.6454 0.98411 0.14021 0.0
C44 C 0.67453 0.99788 0.14054 0.0
C45 C 0.64929 0.01311 0.17362 0.0
N46 N 0.62945 0.99387 0.16099 0.0
O47 O 0.68435 0.07479 0.18261 0.0
H48 H 0.69189 0.99553 0.12561 0.0
H49 H 0.64265 0.02574 0.19066 0.0
O50 O 0.71066 0.05978 0.13499 0.0
C51 C 0.67887 0.07033 0.2064 0.0
O52 O 0.68945 0.04459 0.21731 0.0
N53 N 0.73955 0.01066 0.15969 0.0
C54 C 0.78176 0.96089 0.15338 0.0
C55 C 0.77236 0.97936 0.13235 0.0
C56 C 0.75173 0.0046 0.13599 0.0
C57 C 0.74846 0.99333 0.18029 0.0
C58 C 0.76981 0.96873 0.17768 0.0
H59 H 0.74514 0.01863 0.11963 0.0
H60 H 0.73916 0.99907 0.19901 0.0
H61 H 0.76878 0.07447 0.14075 0.0
H62 H 0.79231 0.11021 0.21326 0.0
H63 H 0.63641 0.96883 0.12537 0.0
H64 H 0.78045 0.97432 0.11313 0.0
H65 H 0.77702 0.95636 0.19479 0.0
C66 C 0.95319 0.75122 0.19658 0.0
C67 C 0.93471 0.77778 0.19653 0.0
N68 N 0.92016 0.77942 0.17374 0.0
N69 N 0.94999 0.73617 0.17397 0.0
C70 C 0.92958 0.75397 0.16046 0.0
H71 H 0.96844 0.74366 0.21193 0.0
Co72 Co 0.97 0.6987 0.16491 0.0
C73 C 0.96671 0.71145 0.10744 0.0
O74 O 0.99543 0.72255 0.1072 0.0
N75 N 0.98917 0.66013 0.15588 0.0
C76 C 0.0148 0.62234 0.13497 0.0
C77 C 0.00625 0.65342 0.1347 0.0
C78 C 0.98818 0.63262 0.16888 0.0
N79 N 0.00334 0.60931 0.15648 0.0
O80 O 0.93256 0.67646 0.17557 0.0
H81 H 0.01278 0.66995 0.12005 0.0
H82 H 0.97603 0.62931 0.18684 0.0
O83 O 0.95443 0.70196 0.12861 0.0
C84 C 0.9351 0.67296 0.19987 0.0
O85 O 0.96126 0.68245 0.21078 0.0
N86 N 0.00829 0.72121 0.15892 0.0
C87 C 0.06396 0.7563 0.1643 0.0
C88 C 0.03665 0.7699 0.15398 0.0
C89 C 0.00924 0.75207 0.15147 0.0
C90 C 0.03465 0.70785 0.16918 0.0
C91 C 0.06277 0.72442 0.17106 0.0
H92 H 0.98851 0.76357 0.14413 0.0
H93 H 0.03391 0.68457 0.17735 0.0
H94 H 0.92203 0.74881 0.14114 0.0
H95 H 0.93292 0.79512 0.21163 0.0
H96 H 0.02855 0.61029 0.12053 0.0
H97 H 0.03572 0.79454 0.14896 0.0
H98 H 0.08305 0.71236 0.17878 0.0
C99 C 0.24285 0.96534 0.18023 0.0
C100 C 0.21722 0.94646 0.18461 0.0
N101 N 0.22694 0.91645 0.18391 0.0
N102 N 0.26844 0.94721 0.17582 0.0
C103 C 0.25802 0.91745 0.17912 0.0
H104 H 0.24243 0.99072 0.17978 0.0
Co105 Co 0.30938 0.96024 0.16684 0.0
C106 C 0.28871 0.9235 0.11922 0.0
O107 O 0.25935 0.9201 0.12645 0.0
N108 N 0.34982 0.97304 0.15799 0.0
C109 C 0.38987 0.98975 0.1344 0.0
C110 C 0.35805 0.98503 0.135 0.0
C111 C 0.37706 0.97088 0.17114 0.0
N112 N 0.40188 0.98062 0.15707 0.0
O113 O 0.32656 0.92453 0.18477 0.0
H114 H 0.34198 0.98946 0.11938 0.0
H115 H 0.37886 0.96131 0.19026 0.0
O116 O 0.30821 0.93773 0.13382 0.0
C117 C 0.32467 0.93063 0.20869 0.0
O118 O 0.31226 0.95752 0.21587 0.0
N119 N 0.29327 0.99704 0.15229 0.0
C120 C 0.26377 0.05443 0.14386 0.0
C121 C 0.25897 0.02921 0.12699 0.0
C122 C 0.27402 1.00049 0.13156 0.0
C123 C 0.29988 0.02198 0.16769 0.0
C124 C 0.28558 0.05094 0.16373 0.0
H125 H 0.26842 0.98089 0.11942 0.0
H126 H 0.31508 0.01878 0.18408 0.0
H127 H 0.27247 0.89677 0.1763 0.0
H128 H 0.1932 0.95406 0.1876 0.0
H129 H 0.40314 0.99899 0.11839 0.0
H130 H 0.24214 0.03094 0.11151 0.0
H131 H 0.29034 0.06998 0.17694 0.0
C132 C 0.55102 0.25504 0.35825 0.0
C133 C 0.56962 0.28118 0.36084 0.0
N134 N 0.58433 0.27968 0.38367 0.0
N135 N 0.55376 0.23707 0.37934 0.0
C136 C 0.57437 0.25253 0.39449 0.0
H137 H 0.53669 0.24917 0.34185 0.0
Co138 Co 0.53297 0.19907 0.3826 0.0
C139 C 0.53461 0.18097 0.43758 0.0
O140 O 0.50624 0.16934 0.43471 0.0
N141 N 0.51188 0.15984 0.38484 0.0
C142 C 0.47717 0.12072 0.38411 0.0
C143 C 0.48139 0.15246 0.38075 0.0
C144 C 0.52564 0.13193 0.3903 0.0
N145 N 0.50507 0.10773 0.39014 0.0
O146 O 0.56936 0.17826 0.36874 0.0
H147 H 0.46298 0.16872 0.37575 0.0
H148 H 0.55046 0.12955 0.39427 0.0
O149 O 0.54828 0.19433 0.41852 0.0
C150 C 0.56391 0.17112 0.3454 0.0
O151 O 0.53592 0.17692 0.3359 0.0
N152 N 0.49682 0.22117 0.39259 0.0
C153 C 0.44322 0.25867 0.39645 0.0
C154 C 0.46256 0.25372 0.41784 0.0
C155 C 0.48987 0.23549 0.41535 0.0
C156 C 0.47877 0.22674 0.37155 0.0
C157 C 0.45176 0.24506 0.37307 0.0
H158 H 0.50566 0.23405 0.43142 0.0
H159 H 0.48555 0.21672 0.35331 0.0
H160 H 0.58197 0.24408 0.41299 0.0
H161 H 0.57274 0.29939 0.3466 0.0
H162 H 0.45504 0.10838 0.38252 0.0
H163 H 0.45725 0.26479 0.43602 0.0
H164 H 0.43764 0.24852 0.35604 0.0
C165 C 0.73987 0.56002 0.35156 0.0
C166 C 0.71269 0.57604 0.35704 0.0
N167 N 0.71249 0.58276 0.38223 0.0
N168 N 0.75698 0.55668 0.37312 0.0
C169 C 0.73945 0.57057 0.3916 0.0
H170 H 0.74656 0.55118 0.33295 0.0
Co171 Co 0.79523 0.53505 0.37391 0.0
C172 C 0.80782 0.5754 0.42146 0.0
O173 O 0.80271 0.603 0.41098 0.0
N174 N 0.83336 0.51347 0.37434 0.0
C175 C 0.8719 0.47866 0.36993 0.0
C176 C 0.84014 0.48394 0.36682 0.0
C177 C 0.86117 0.52572 0.38165 0.0
N178 N 0.88515 0.50507 0.3793 0.0
O179 O 0.81557 0.56991 0.35679 0.0
H180 H 0.8232 0.46736 0.3594 0.0
H181 H 0.86368 0.54975 0.38803 0.0
O182 O 0.80491 0.55041 0.40816 0.0
C183 C 0.81527 0.56314 0.33291 0.0
O184 O 0.80394 0.53573 0.32594 0.0
N185 N 0.77444 0.50015 0.38747 0.0
C186 C 0.73653 0.44877 0.39952 0.0
C187 C 0.75377 0.4642 0.41871 0.0
C188 C 0.77266 0.49009 0.41228 0.0
C189 C 0.75878 0.4847 0.36859 0.0
C190 C 0.73971 0.45907 0.37415 0.0
H191 H 0.78533 0.50205 0.42728 0.0
H192 H 0.76086 0.49271 0.34901 0.0
H193 H 0.74578 0.57121 0.41163 0.0
H194 H 0.69477 0.58282 0.34342 0.0
H195 H 0.8841 0.45695 0.36574 0.0
H196 H 0.75204 0.45685 0.43852 0.0
H197 H 0.72749 0.44743 0.35864 0.0
C198 C 0.42387 0.76116 0.3591 0.0
C199 C 0.40348 0.7364 0.36131 0.0
N200 N 0.40313 0.72685 0.38593 0.0
N201 N 0.43616 0.7677 0.38224 0.0
C202 C 0.42338 0.74618 0.39822 0.0
H203 H 0.42945 0.77355 0.34162 0.0
Co204 Co 0.46537 0.79953 0.38748 0.0
C205 C 0.42255 0.81126 0.43211 0.0
O206 O 0.39692 0.80949 0.41818 0.0
N207 N 0.49477 0.83151 0.39218 0.0
C208 C 0.53893 0.85937 0.39234 0.0
C209 C 0.52607 0.8302 0.38802 0.0
C210 C 0.4891 0.8617 0.39872 0.0
N211 N 0.51557 0.87916 0.3989 0.0
O212 O 0.43655 0.82893 0.37213 0.0
H213 H 0.5387 0.80962 0.38157 0.0
H214 H 0.46587 0.87085 0.40279 0.0
O215 O 0.44941 0.80776 0.42164 0.0
C216 C 0.44379 0.8364 0.34917 0.0
O217 O 0.47083 0.82658 0.33992 0.0
N218 N 0.49389 0.77005 0.40019 0.0
C219 C 0.54028 0.72577 0.4115 0.0
C220 C 0.52803 0.74539 0.43077 0.0
C221 C 0.50482 0.76757 0.4247 0.0
C222 C 0.50533 0.75115 0.38135 0.0
C223 C 0.52848 0.72895 0.38654 0.0
H224 H 0.49632 0.78309 0.43954 0.0
H225 H 0.4969 0.75398 0.36195 0.0
H226 H 0.42914 0.74453 0.41835 0.0
H227 H 0.38965 0.7266 0.34589 0.0
H228 H 0.56332 0.86586 0.38971 0.0
H229 H 0.53642 0.74381 0.4503 0.0
H230 H 0.53772 0.71513 0.37082 0.0
C231 C 0.26027 0.461 0.37368 0.0
C232 C 0.28362 0.43922 0.36956 0.0
N233 N 0.27285 0.41079 0.37673 0.0
N234 N 0.23497 0.44653 0.38388 0.0
C235 C 0.24288 0.41577 0.38432 0.0
H236 H 0.2623 0.48599 0.37044 0.0
Co237 Co 0.19777 0.4653 0.39572 0.0
C238 C 0.21806 0.42689 0.44305 0.0
O239 O 0.24731 0.42244 0.4359 0.0
N240 N 0.16046 0.48409 0.40736 0.0
C241 C 0.12715 0.50882 0.43327 0.0
C242 C 0.15719 0.49773 0.43056 0.0
C243 C 0.13184 0.48719 0.39628 0.0
N244 N 0.11114 0.50226 0.41171 0.0
O245 O 0.17447 0.43184 0.38006 0.0
H246 H 0.17553 0.49945 0.44478 0.0
H247 H 0.12628 0.47884 0.37727 0.0
O248 O 0.19925 0.44268 0.42885 0.0
C249 C 0.17045 0.43771 0.35628 0.0
O250 O 0.18001 0.46499 0.34739 0.0
N251 N 0.22074 0.49971 0.40842 0.0
C252 C 0.25779 0.55291 0.41602 0.0
C253 C 0.25924 0.52759 0.43316 0.0
C254 C 0.24057 0.50103 0.42896 0.0
C255 C 0.21777 0.52487 0.39248 0.0
C256 C 0.23611 0.55165 0.39586 0.0
H257 H 0.24302 0.48158 0.44186 0.0
H258 H 0.20198 0.52346 0.3763 0.0
H259 H 0.22755 0.39762 0.39175 0.0
H260 H 0.3074 0.44437 0.36347 0.0
H261 H 0.11767 0.52027 0.45011 0.0
H262 H 0.27573 0.52767 0.44895 0.0
H263 H 0.23394 0.57089 0.38238 0.0
C264 C 0.92339 0.73721 0.84673 0.0
C265 C 0.9034 0.76245 0.84849 0.0
N266 N 0.9033 0.77268 0.87294 0.0
N267 N 0.93567 0.73131 0.86997 0.0
C268 C 0.92312 0.75331 0.88559 0.0
H269 H 0.92896 0.72417 0.82954 0.0
Co270 Co 0.96492 0.70016 0.87638 0.0
C271 C 0.92761 0.68284 0.92351 0.0
O272 O 0.90735 0.66585 0.91059 0.0
N273 N 0.9945 0.6687 0.88255 0.0
C274 C 0.03891 0.64121 0.88264 0.0
C275 C 0.02544 0.66965 0.87677 0.0
C276 C 0.9896 0.63935 0.89153 0.0
N277 N 0.01627 0.62217 0.89174 0.0
O278 O 0.93539 0.66961 0.86324 0.0
H279 H 0.03732 0.6894 0.86807 0.0
H280 H 0.96676 0.63047 0.89709 0.0
O281 O 0.95008 0.69657 0.91176 0.0
C282 C 0.94358 0.6577 0.84175 0.0
O283 O 0.97175 0.66387 0.83273 0.0
N284 N 0.99413 0.73054 0.8861 0.0
C285 C 0.04419 0.7721 0.89205 0.0
C286 C 0.03373 0.75366 0.91273 0.0
C287 C 0.00865 0.73279 0.90932 0.0
C288 C 0.00349 0.74872 0.86605 0.0
C289 C 0.02833 0.7697 0.8686 0.0
H290 H 0.00216 0.71733 0.92484 0.0
H291 H 0.99248 0.7458 0.84755 0.0
H292 H 0.92911 0.75555 0.90564 0.0
H293 H 0.8899 0.77232 0.83289 0.0
H294 H 0.06311 0.6345 0.87923 0.0
H295 H 0.04531 0.75473 0.93117 0.0
H296 H 0.03598 0.78273 0.85191 0.0
C297 C 0.23267 0.97189 0.86998 0.0
C298 C 0.20707 0.95252 0.86717 0.0
N299 N 0.21633 0.92263 0.87129 0.0
N300 N 0.25792 0.95447 0.87649 0.0
C301 C 0.24757 0.9245 0.87577 0.0
H302 H 0.23245 0.99724 0.86849 0.0
Co303 Co 0.29813 0.96891 0.88548 0.0
C304 C 0.28078 0.92936 0.93325 0.0
O305 O 0.2511 0.92495 0.92752 0.0
N306 N 0.33816 0.98307 0.89434 0.0
C307 C 0.37778 1.00015 0.91816 0.0
C308 C 0.34605 0.99484 0.91747 0.0
C309 C 0.36555 0.98157 0.88124 0.0
N310 N 0.3901 0.99157 0.89544 0.0
O311 O 0.31665 0.93464 0.86633 0.0
H312 H 0.32983 0.99852 0.93316 0.0
H313 H 0.3677 0.97207 0.8621 0.0
O314 O 0.29862 0.94491 0.91804 0.0
C315 C 0.31425 0.94128 0.84252 0.0
O316 O 0.30054 0.96781 0.83606 0.0
N317 N 0.28027 0.0044 0.90146 0.0
C318 C 0.25054 0.06039 0.91493 0.0
C319 C 0.24342 0.0324 0.92782 0.0
C320 C 0.25875 0.00458 0.92091 0.0
C321 C 0.28792 0.03164 0.88918 0.0
C322 C 0.27367 0.05999 0.89585 0.0
H323 H 0.25174 0.98322 0.93019 0.0
H324 H 0.30438 0.03108 0.87337 0.0
H325 H 0.26246 0.9046 0.88011 0.0
H326 H 0.18317 0.96025 0.86398 0.0
H327 H 0.3908 0.00923 0.93434 0.0
H328 H 0.22539 0.03184 0.94249 0.0
H329 H 0.27935 0.08104 0.88513 0.0
C330 C 0.05571 0.24205 0.87025 0.0
C331 C 0.07592 0.2173 0.87391 0.0
N332 N 0.09604 0.22504 0.89276 0.0
N333 N 0.06273 0.26516 0.88695 0.0
C334 C 0.08776 0.2543 0.9002 0.0
H335 H 0.03716 0.24319 0.85616 0.0
Co336 Co 0.04103 0.30291 0.88933 0.0
C337 C 0.04751 0.32476 0.94376 0.0
O338 O 0.02074 0.34003 0.94233 0.0
N339 N 0.01905 0.34151 0.89079 0.0
C340 C 0.98297 0.37947 0.8909 0.0
C341 C 0.98794 0.34767 0.88891 0.0
C342 C 0.03237 0.37019 0.8936 0.0
N343 N 0.01097 0.39366 0.89392 0.0
O344 O 0.07623 0.32411 0.87441 0.0
H345 H 0.96955 0.33052 0.88656 0.0
H346 H 0.0574 0.37371 0.89561 0.0
O347 O 0.05766 0.30928 0.92436 0.0
C348 C 0.0739 0.32485 0.85005 0.0
O349 O 0.04963 0.31098 0.83937 0.0
N350 N 0.00599 0.28068 0.90119 0.0
C351 C 0.9549 0.24077 0.90835 0.0
C352 C 0.97455 0.24845 0.92896 0.0
C353 C 1.00054 0.26806 0.92487 0.0
C354 C 0.98706 0.27326 0.88108 0.0
C355 C 0.96131 0.25359 0.88423 0.0
H356 H 0.01666 0.27176 0.94045 0.0
H357 H 0.99238 0.28253 0.86227 0.0
H358 H 0.0996 0.26741 0.91507 0.0
H359 H 0.07625 0.19555 0.86316 0.0
H360 H 0.96034 0.39107 0.89068 0.0
H361 H 0.97063 0.23834 0.94774 0.0
H362 H 0.94668 0.24823 0.86784 0.0
C363 C 0.75782 0.0592 0.85495 0.0
C364 C 0.78357 0.07864 0.85633 0.0
N365 N 0.78231 0.09466 0.87863 0.0
N366 N 0.74025 0.06298 0.87617 0.0
C367 C 0.75566 0.08472 0.89018 0.0
H368 H 0.75247 0.04296 0.83964 0.0
Co369 Co 0.70406 0.04062 0.88385 0.0
C370 C 0.68256 0.0689 0.93303 0.0
O371 O 0.65381 0.07221 0.92429 0.0
N372 N 0.66767 0.01768 0.89165 0.0
C373 C 0.63374 0.98721 0.91244 0.0
C374 C 0.66389 0.99862 0.91212 0.0
C375 C 0.63951 0.0172 0.8797 0.0
N376 N 0.61836 0.99905 0.89209 0.0
O377 O 0.67932 0.07499 0.87073 0.0
H378 H 0.68168 0.99399 0.9264 0.0
H379 H 0.63406 0.03089 0.86287 0.0
O380 O 0.7039 0.0575 0.91855 0.0
C381 C 0.67653 0.0725 0.84643 0.0
O382 O 0.68851 0.04755 0.83522 0.0
N383 N 0.72891 0.00676 0.8939 0.0
C384 C 0.76824 0.95514 0.90065 0.0
C385 C 0.76873 0.98017 0.91814 0.0
C386 C 0.749 0.00608 0.91428 0.0
C387 C 0.72783 0.98249 0.87698 0.0
C388 C 0.74715 0.95636 0.88005 0.0
H389 H 0.75064 0.02583 0.92718 0.0
H390 H 0.71218 0.98378 0.8607 0.0
H391 H 0.74787 0.09252 0.9088 0.0
H392 H 0.80173 0.08058 0.84191 0.0
H393 H 0.62381 0.97182 0.92682 0.0
H394 H 0.78501 0.98027 0.93407 0.0
H395 H 0.74583 0.93742 0.86624 0.0
C396 C 0.43216 0.76152 0.69777 0.0
C397 C 0.41264 0.73621 0.69494 0.0
N398 N 0.40809 0.73124 0.66973 0.0
N399 N 0.43978 0.77287 0.67451 0.0
C400 C 0.42474 0.75397 0.65767 0.0
H401 H 0.44089 0.77065 0.7157 0.0
Co402 Co 0.4684 0.8053 0.67094 0.0
C403 C 0.46471 0.82822 0.61673 0.0
O404 O 0.49351 0.83899 0.61857 0.0
N405 N 0.49826 0.83857 0.66882 0.0
C406 C 0.54303 0.86575 0.66842 0.0
C407 C 0.52996 0.83635 0.6674 0.0
C408 C 0.49289 0.86995 0.67062 0.0
N409 N 0.51975 0.88697 0.67066 0.0
O410 O 0.43816 0.83336 0.68636 0.0
H411 H 0.54332 0.81492 0.66578 0.0
H412 H 0.46974 0.88017 0.67251 0.0
O413 O 0.45196 0.81465 0.63609 0.0
C414 C 0.44251 0.8384 0.71023 0.0
O415 O 0.46798 0.82698 0.72101 0.0
N416 N 0.4978 0.77596 0.65853 0.0
C417 C 0.54453 0.73132 0.6489 0.0
C418 C 0.52584 0.74299 0.6289 0.0
C419 C 0.50224 0.76505 0.63416 0.0
C420 C 0.51431 0.7633 0.67834 0.0
C421 C 0.53795 0.74126 0.67397 0.0
H422 H 0.48763 0.77272 0.61858 0.0
H423 H 0.50954 0.77112 0.69768 0.0
H424 H 0.4269 0.75606 0.63708 0.0
H425 H 0.40266 0.72243 0.71036 0.0
H426 H 0.5679 0.87098 0.6676 0.0
H427 H 0.52966 0.73551 0.60932 0.0
H428 H 0.55095 0.73209 0.69015 0.0
C429 C 0.25443 0.44952 0.70234 0.0
C430 C 0.27981 0.42995 0.69904 0.0
N431 N 0.28097 0.42153 0.67425 0.0
N432 N 0.2393 0.45291 0.67982 0.0
C433 C 0.25642 0.43592 0.6629 0.0
H434 H 0.24711 0.46003 0.72022 0.0
Co435 Co 0.20143 0.47432 0.67598 0.0
C436 C 0.18023 0.46251 0.62261 0.0
O437 O 0.16892 0.49123 0.62194 0.0
N438 N 0.16264 0.49569 0.67296 0.0
C439 C 0.12337 0.53017 0.67048 0.0
C440 C 0.15521 0.52653 0.67419 0.0
C441 C 0.13477 0.48118 0.66909 0.0
N442 N 0.11054 0.50155 0.66709 0.0
O443 O 0.18068 0.44164 0.69522 0.0
H444 H 0.17158 0.5455 0.67724 0.0
H445 H 0.1325 0.45596 0.66735 0.0
O446 O 0.19382 0.4526 0.64299 0.0
C447 C 0.17948 0.45088 0.71847 0.0
O448 O 0.18927 0.47944 0.72377 0.0
N449 N 0.22357 0.50732 0.66032 0.0
C450 C 0.26456 0.55642 0.64842 0.0
C451 C 0.25736 0.53346 0.63008 0.0
C452 C 0.23732 0.50854 0.63662 0.0
C453 C 0.23075 0.52931 0.67831 0.0
C454 C 0.25075 0.55422 0.67271 0.0
H455 H 0.23449 0.48968 0.62306 0.0
H456 H 0.22126 0.52704 0.69745 0.0
H457 H 0.25061 0.43327 0.64288 0.0
H458 H 0.29604 0.42224 0.71371 0.0
H459 H 0.11089 0.55231 0.66969 0.0
H460 H 0.26841 0.53387 0.61137 0.0
H461 H 0.25587 0.57132 0.6875 0.0
C462 C 0.54545 0.27025 0.69051 0.0
C463 C 0.56357 0.29602 0.68506 0.0
N464 N 0.58217 0.28912 0.6649 0.0
N465 N 0.55241 0.247 0.67395 0.0
C466 C 0.57506 0.25908 0.65863 0.0
H467 H 0.52826 0.26855 0.70572 0.0
Co468 Co 0.53244 0.20812 0.67487 0.0
C469 C 0.53807 0.18038 0.62266 0.0
O470 O 0.51082 0.16665 0.62641 0.0
N471 N 0.51217 0.16858 0.67702 0.0
C472 C 0.47821 0.12909 0.6816 0.0
C473 C 0.4815 0.16122 0.68038 0.0
C474 C 0.52694 0.14037 0.67664 0.0
N475 N 0.50687 0.11602 0.67929 0.0
O476 O 0.56816 0.19047 0.69258 0.0
H477 H 0.4624 0.17774 0.68198 0.0
H478 H 0.55202 0.13773 0.67391 0.0
O479 O 0.54988 0.19748 0.64048 0.0
C480 C 0.56354 0.19511 0.71648 0.0
O481 O 0.53781 0.20988 0.7235 0.0
N482 N 0.49668 0.22738 0.66067 0.0
C483 C 0.4454 0.26656 0.64981 0.0
C484 C 0.46619 0.25698 0.63032 0.0
C485 C 0.49218 0.23808 0.63626 0.0
C486 C 0.47688 0.23658 0.67975 0.0
C487 C 0.45127 0.25598 0.67483 0.0
H488 H 0.50919 0.23365 0.6214 0.0
H489 H 0.48178 0.22961 0.69927 0.0
H490 H 0.58596 0.24623 0.64313 0.0
H491 H 0.56341 0.31793 0.69557 0.0
H492 H 0.45645 0.1164 0.68449 0.0
H493 H 0.46306 0.26469 0.61074 0.0
H494 H 0.43713 0.26362 0.69091 0.0
C495 C 0.76488 0.57648 0.68714 0.0
C496 C 0.73972 0.59648 0.68577 0.0
N497 N 0.72894 0.59642 0.66153 0.0
N498 N 0.77042 0.56404 0.66385 0.0
C499 C 0.7477 0.57616 0.64863 0.0
H500 H 0.77801 0.57085 0.70424 0.0
Co501 Co 0.80255 0.53504 0.65871 0.0
C502 C 0.81115 0.57493 0.61041 0.0
O503 O 0.80482 0.60235 0.62076 0.0
N504 N 0.83486 0.50583 0.65424 0.0
C505 C 0.86361 0.4623 0.6561 0.0
C506 C 0.83406 0.47478 0.65948 0.0
C507 C 0.86508 0.51173 0.64789 0.0
N508 N 0.88311 0.48566 0.64905 0.0
O509 O 0.83177 0.56462 0.674 0.0
H510 H 0.81363 0.46224 0.66634 0.0
H511 H 0.87392 0.53495 0.64344 0.0
O512 O 0.81061 0.55008 0.62409 0.0
C513 C 0.84259 0.55616 0.6958 0.0
O514 O 0.83601 0.52789 0.70435 0.0
N515 N 0.77341 0.50585 0.64633 0.0
C516 C 0.73159 0.45715 0.63569 0.0
C517 C 0.75299 0.46752 0.617 0.0
C518 C 0.77376 0.49209 0.62269 0.0
C519 C 0.75268 0.49618 0.66458 0.0
C520 C 0.73143 0.4721 0.65962 0.0
H521 H 0.79091 0.49903 0.6085 0.0
H522 H 0.75337 0.50661 0.68346 0.0
H523 H 0.74505 0.57034 0.62857 0.0
H524 H 0.72961 0.60946 0.70159 0.0
H525 H 0.87058 0.4383 0.65998 0.0
H526 H 0.75396 0.45644 0.59834 0.0
H527 H 0.71589 0.4644 0.67482 0.0
H528 H 0.04516 0.36645 0.98337 0.0
H529 H 0.08275 0.27545 0.96191 0.0
H530 H 0.10066 0.26717 1.00651 0.0
H531 H 0.10799 0.38632 0.03044 0.0
H532 H 0.08048 0.40573 0.05144 0.0
H533 H 0.07389 0.40566 1.01734 0.0
H534 H 0.0187 0.38149 1.02458 0.0
H535 H 0.02518 0.38131 0.0586 0.0
H536 H 0.01512 0.34533 0.04236 0.0
H537 H 0.10659 0.26559 0.05494 0.0
H538 H 0.10463 0.27302 0.10198 0.0
H539 H 0.06681 0.36666 0.0911 0.0
C540 C 0.05782 0.34509 0.98794 0.0
C541 C 0.06268 0.32163 0.96917 0.0
C542 C 0.07915 0.29391 0.97589 0.0
C543 C 0.08927 0.28896 1.00122 0.0
C544 C 0.08335 0.31226 1.01944 0.0
C545 C 0.06855 0.34006 1.01295 0.0
C546 C 0.06374 0.36084 0.03622 0.0
C547 C 0.08266 0.39145 0.03371 0.0
C548 C 0.0286 0.36762 0.04069 0.0
C549 C 0.07708 0.33994 0.05703 0.0
C550 C 0.08826 0.31198 0.04702 0.0
C551 C 0.09871 0.28773 0.06288 0.0
C552 C 0.09748 0.29212 0.08956 0.0
C553 C 0.08632 0.32069 0.10012 0.0
C554 C 0.07648 0.345 0.08354 0.0
H555 H 0.64068 0.07565 0.973 0.0
H556 H 0.74044 0.07406 0.95549 0.0
H557 H 0.75255 0.07851 1.00153 0.0
H558 H 0.64514 0.13066 0.02766 0.0
H559 H 0.61536 0.10999 0.04556 0.0
H560 H 0.61444 0.1098 1.01105 0.0
H561 H 0.61432 0.04892 1.01123 0.0
H562 H 0.61531 0.04892 0.04569 0.0
H563 H 0.64509 0.02814 0.02785 0.0
H564 H 0.754 0.07887 0.04965 0.0
H565 H 0.74465 0.07488 0.09618 0.0
H566 H 0.64397 0.07618 0.08283 0.0
C567 C 0.66508 0.07692 0.97879 0.0
C568 C 0.68961 0.07467 0.96052 0.0
C569 C 0.72121 0.07576 0.96903 0.0
C570 C 0.72835 0.07838 0.99518 0.0
C571 C 0.70365 0.07994 1.01271 0.0
C572 C 0.67263 0.07935 1.00489 0.0
C573 C 0.65055 0.0794 0.02776 0.0
C574 C 0.63017 0.10925 0.02802 0.0
C575 C 0.63012 0.04957 0.02815 0.0
C576 C 0.67399 0.0795 0.04965 0.0
C577 C 0.70449 0.08007 0.04053 0.0
C578 C 0.73021 0.07877 0.05701 0.0
C579 C 0.72464 0.07646 0.08346 0.0
C580 C 0.69358 0.0754 0.09329 0.0
C581 C 0.668 0.07739 0.07604 0.0
H582 H 0.96109 0.72154 0.95558 0.0
H583 H 0.88882 0.64971 0.95612 0.0
H584 H 0.88717 0.65207 1.00349 0.0
H585 H 0.00322 0.6934 1.00877 0.0
H586 H 0.01323 0.73189 1.02065 0.0
H587 H 0.00647 0.72611 0.98697 0.0
H588 H 0.96393 0.76971 0.98769 0.0
H589 H 0.97045 0.77554 1.02145 0.0
H590 H 0.93154 0.7668 1.00986 0.0
H591 H 0.89624 0.66049 0.05194 0.0
H592 H 0.91633 0.67288 0.09544 0.0
H593 H 0.98254 0.73865 0.06199 0.0
C594 C 0.94483 0.70631 0.96554 0.0
C595 C 0.92523 0.6853 0.95196 0.0
C596 C 0.90407 0.66607 0.96598 0.0
C597 C 0.90295 0.66727 0.99295 0.0
C598 C 0.92298 0.68796 1.00573 0.0
C599 C 0.94345 0.70718 0.99236 0.0
C600 C 0.96359 0.72639 1.01038 0.0
C601 C 0.99869 0.71899 1.00646 0.0
C602 C 0.95697 0.7617 1.00715 0.0
C603 C 0.95186 0.71453 0.03602 0.0
C604 C 0.92817 0.69264 0.03312 0.0
C605 C 0.91462 0.6778 0.05436 0.0
C606 C 0.92605 0.68507 0.07904 0.0
C607 C 0.95099 0.70675 0.08224 0.0
C608 C 0.96343 0.72198 0.06034 0.0
H609 H 0.24572 0.90531 0.97262 0.0
H610 H 0.33944 0.93881 0.95434 0.0
H611 H 0.35411 0.93432 1.00002 0.0
H612 H 0.23665 0.94809 0.02791 0.0
H613 H 0.21494 0.91851 0.04519 0.0
H614 H 0.21357 0.91945 1.0108 0.0
H615 H 0.2326 0.86162 1.009 0.0
H616 H 0.23392 0.86046 0.04349 0.0
H617 H 0.26842 0.85061 1.02508 0.0
H618 H 0.35628 0.93227 0.04869 0.0
H619 H 0.34557 0.93357 0.09522 0.0
H620 H 0.25022 0.90185 0.08107 0.0
C621 C 0.26963 0.91093 0.978 0.0
C622 C 0.29144 0.92232 0.95976 0.0
C623 C 0.32231 0.9299 0.96787 0.0
C624 C 0.33088 0.92736 0.99381 0.0
C625 C 0.30842 0.91699 1.0114 0.0
C626 C 0.27847 0.90868 1.00374 0.0
C627 C 0.25773 0.90101 1.0265 0.0
C628 C 0.22905 0.92309 0.02766 0.0
C629 C 0.24758 0.86636 1.02598 0.0
C630 C 0.28031 0.90729 0.04828 0.0
C631 C 0.30958 0.91604 0.03926 0.0
C632 C 0.33357 0.92501 0.05592 0.0
C633 C 0.32724 0.92571 0.08237 0.0
C634 C 0.29704 0.91779 0.09193 0.0
C635 C 0.27366 0.90773 0.07455 0.0
H636 H 0.52107 0.14083 0.47624 0.0
H637 H 0.5768 0.22325 0.45864 0.0
H638 H 0.59061 0.22832 0.50466 0.0
H639 H 0.48716 0.1688 0.53078 0.0
H640 H 0.48723 0.13199 0.54787 0.0
H641 H 0.48656 0.13213 0.51349 0.0
H642 H 0.53672 0.09752 0.51242 0.0
H643 H 0.53747 0.09716 0.54694 0.0
H644 H 0.57143 0.11025 0.52923 0.0
H645 H 0.59144 0.22818 0.55424 0.0
H646 H 0.57946 0.22276 0.60053 0.0
H647 H 0.52371 0.13995 0.5842 0.0
C648 C 0.53686 0.15952 0.48192 0.0
C649 C 0.54794 0.18159 0.46384 0.0
C650 C 0.56836 0.20583 0.4721 0.0
C651 C 0.57623 0.2089 0.49824 0.0
C652 C 0.56392 0.18724 0.51575 0.0
C653 C 0.545 0.16275 0.50771 0.0
C654 C 0.53243 0.144 0.5301 0.0
C655 C 0.49622 0.14428 0.53058 0.0
C656 C 0.54529 0.11023 0.52964 0.0
C657 C 0.54602 0.16246 0.55219 0.0
C658 C 0.56454 0.18706 0.54373 0.0
C659 C 0.57747 0.20861 0.56098 0.0
C660 C 0.57064 0.2053 0.58731 0.0
C661 C 0.55076 0.18083 0.59609 0.0
C662 C 0.53918 0.15878 0.57822 0.0
H663 H 0.794 0.6171 0.46077 0.0
H664 H 0.83675 0.52642 0.44523 0.0
H665 H 0.84488 0.51829 0.49147 0.0
H666 H 0.84449 0.63815 0.51561 0.0
H667 H 0.81282 0.65624 0.53322 0.0
H668 H 0.81231 0.65626 0.4987 0.0
H669 H 0.75756 0.62972 0.49924 0.0
H670 H 0.75792 0.62957 0.53372 0.0
H671 H 0.75233 0.59335 0.51643 0.0
H672 H 0.84556 0.51806 0.5392 0.0
H673 H 0.83895 0.52584 0.58565 0.0
H674 H 0.79589 0.61673 0.57155 0.0
C675 C 0.80558 0.59581 0.46711 0.0
C676 C 0.81478 0.57239 0.44929 0.0
C677 C 0.82935 0.54463 0.45844 0.0
C678 C 0.83419 0.53983 0.48471 0.0
C679 C 0.82439 0.56301 0.50179 0.0
C680 C 0.81047 0.59052 0.49345 0.0
C681 C 0.8008 0.61087 0.5161 0.0
C682 C 0.81868 0.64224 0.51589 0.0
C683 C 0.76503 0.61618 0.51638 0.0
C684 C 0.81112 0.5903 0.5384 0.0
C685 C 0.82479 0.56287 0.5296 0.0
C686 C 0.83511 0.53955 0.54632 0.0
C687 C 0.83115 0.54417 0.57273 0.0
C688 C 0.81698 0.57193 0.58237 0.0
C689 C 0.80718 0.59544 0.56486 0.0
H690 H 0.49273 0.84161 0.57097 0.0
H691 H 0.40425 0.81033 0.6036 0.0
H692 H 0.38223 0.80528 0.55977 0.0
H693 H 0.46131 0.8857 0.51746 0.0
H694 H 0.4923 0.87338 0.49611 0.0
H695 H 0.49976 0.87671 0.52996 0.0
H696 H 0.51881 0.81884 0.53098 0.0
H697 H 0.51133 0.8153 0.49718 0.0
H698 H 0.49327 0.78824 0.51931 0.0
H699 H 0.37075 0.8027 0.51125 0.0
H700 H 0.37199 0.79991 0.46382 0.0
H701 H 0.46914 0.83068 0.46439 0.0
C702 C 0.46853 0.83413 0.56909 0.0
C703 C 0.4501 0.82673 0.59087 0.0
C704 C 0.41875 0.81641 0.58728 0.0
C705 C 0.40607 0.81349 0.56244 0.0
C706 C 0.42512 0.82075 0.5414 0.0
C707 C 0.45576 0.83071 0.5446 0.0
C708 C 0.47219 0.83533 0.51914 0.0
C709 C 0.48196 0.86983 0.51546 0.0
C710 C 0.50057 0.8131 0.51651 0.0
C711 C 0.44612 0.8263 0.50093 0.0
C712 C 0.41899 0.81827 0.51399 0.0
C713 C 0.39191 0.80899 0.50093 0.0
C714 C 0.39279 0.80757 0.47397 0.0
C715 C 0.42067 0.815 0.46037 0.0
C716 C 0.4475 0.82469 0.47418 0.0
H717 H 0.15046 0.47581 0.57765 0.0
H718 H 0.21599 0.40998 0.61191 0.0
H719 H 0.22715 0.3878 0.5691 0.0
H720 H 0.12176 0.42184 0.52539 0.0
H721 H 0.11906 0.45402 0.50305 0.0
H722 H 0.11228 0.46074 0.53671 0.0
H723 H 0.15517 0.50397 0.53653 0.0
H724 H 0.16218 0.49722 0.50304 0.0
H725 H 0.19421 0.4944 0.52549 0.0
H726 H 0.23831 0.37987 0.52205 0.0
H727 H 0.24637 0.38498 0.47535 0.0
H728 H 0.17141 0.45392 0.472 0.0
C729 C 0.16651 0.45611 0.57631 0.0
C730 C 0.18255 0.44482 0.59817 0.0
C731 C 0.20346 0.41912 0.5955 0.0
C732 C 0.20989 0.4063 0.57122 0.0
C733 C 0.19466 0.41897 0.54991 0.0
C734 C 0.17292 0.44293 0.55232 0.0
C735 C 0.16175 0.45432 0.52637 0.0
C736 C 0.12662 0.4473 0.52267 0.0
C737 C 0.16877 0.48955 0.52266 0.0
C738 C 0.18179 0.43417 0.50891 0.0
C739 C 0.20038 0.41367 0.5228 0.0
C740 C 0.2233 0.39524 0.51096 0.0
C741 C 0.22777 0.39837 0.48442 0.0
C742 C 0.20939 0.41973 0.46995 0.0
C743 C 0.18547 0.43702 0.48236 0.0
H744 H 0.23477 0.08251 0.18415 0.0
H745 H 0.24577 0.08916 0.10172 0.0
H746 H 0.20942 0.13481 0.10121 0.0
H747 H 0.15417 0.09912 0.18598 0.0
H748 H 0.15592 0.12117 0.21542 0.0
H749 H 0.18433 0.09076 0.20923 0.0
H750 H 0.22965 0.13066 0.21583 0.0
H751 H 0.20136 0.16121 0.22217 0.0
H752 H 0.23031 0.16639 0.19728 0.0
H753 H 0.17028 0.17887 0.11018 0.0
H754 H 0.13038 0.21563 0.12732 0.0
H755 H 0.14604 0.17897 0.20374 0.0
C756 C 0.23016 0.09398 0.16602 0.0
C757 C 0.24346 0.08268 0.143 0.0
C758 C 0.23589 0.09761 0.11957 0.0
C759 C 0.21543 0.12356 0.11914 0.0
C760 C 0.20274 0.13406 0.14228 0.0
C761 C 0.20984 0.11962 0.16525 0.0
C762 C 0.19203 0.1341 0.18735 0.0
C763 C 0.17033 0.10984 0.20024 0.0
C764 C 0.21469 0.14898 0.2068 0.0
C765 C 0.17342 0.15883 0.17327 0.0
C766 C 0.18005 0.15874 0.14733 0.0
C767 C 0.1651 0.17926 0.13047 0.0
C768 C 0.1426 0.20015 0.1404 0.0
C769 C 0.13513 0.20011 0.16687 0.0
C770 C 0.15105 0.17934 0.18341 0.0
H771 H 0.80478 0.15782 0.18232 0.0
H772 H 0.83181 0.07476 0.13986 0.0
H773 H 0.87976 0.10213 0.12437 0.0
H774 H 0.83436 0.21551 0.13423 0.0
H775 H 0.84657 0.24256 0.15884 0.0
H776 H 0.81323 0.21726 0.16415 0.0
H777 H 0.83933 0.19586 0.20548 0.0
H778 H 0.87271 0.22093 0.20026 0.0
H779 H 0.87823 0.17915 0.20371 0.0
H780 H 0.92827 0.13627 0.11936 0.0
H781 H 0.97133 0.17483 0.12298 0.0
H782 H 0.90912 0.23755 0.16484 0.0
C783 C 0.82064 0.1457 0.16943 0.0
C784 C 0.81501 0.11432 0.16227 0.0
C785 C 0.83592 0.09895 0.14532 0.0
C786 C 0.86308 0.1143 0.1365 0.0
C787 C 0.86833 0.1452 0.14433 0.0
C788 C 0.84731 0.1609 0.16003 0.0
C789 C 0.8588 0.1935 0.16657 0.0
C790 C 0.83694 0.21869 0.15526 0.0
C791 C 0.86249 0.19757 0.19573 0.0
C792 C 0.89027 0.19322 0.15314 0.0
C793 C 0.8954 0.16529 0.14032 0.0
C794 C 0.9242 0.15858 0.12876 0.0
C795 C 0.94852 0.18076 0.13081 0.0
C796 C 0.94381 0.20937 0.14423 0.0
C797 C 0.91384 0.21585 0.15471 0.0
H798 H 0.78558 0.90682 0.18264 0.0
H799 H 0.82908 0.95321 0.11732 0.0
H800 H 0.86603 0.90903 0.11314 0.0
H801 H 0.85795 0.88368 0.21041 0.0
H802 H 0.84272 0.84731 0.22303 0.0
H803 H 0.81694 0.88043 0.21872 0.0
H804 H 0.78021 0.84637 0.19053 0.0
H805 H 0.80597 0.81313 0.19465 0.0
H806 H 0.79606 0.82646 0.1629 0.0
H807 H 0.89929 0.85983 0.11664 0.0
H808 H 0.9294 0.81285 0.1306 0.0
H809 H 0.86866 0.80326 0.19667 0.0
C810 C 0.80292 0.90817 0.16751 0.0
C811 C 0.80392 0.93384 0.15024 0.0
C812 C 0.82693 0.9337 0.13049 0.0
C813 C 0.8483 0.90872 0.12802 0.0
C814 C 0.84679 0.88421 0.14566 0.0
C815 C 0.82495 0.88401 0.16523 0.0
C816 C 0.82989 0.85642 0.18307 0.0
C817 C 0.83733 0.86764 0.21042 0.0
C818 C 0.80133 0.83429 0.18275 0.0
C819 C 0.85819 0.84125 0.17063 0.0
C820 C 0.86717 0.85718 0.14872 0.0
C821 C 0.89251 0.84725 0.1338 0.0
C822 C 0.90937 0.82062 0.14175 0.0
C823 C 0.90118 0.80486 0.16464 0.0
C824 C 0.87525 0.8152 0.17915 0.0
H825 H 0.17774 0.90534 0.15295 0.0
H826 H 0.23271 0.86617 0.21487 0.0
H827 H 0.19768 0.81944 0.21598 0.0
H828 H 0.1024 0.88006 0.17346 0.0
H829 H 0.0884 0.87061 0.14182 0.0
H830 H 0.11787 0.90051 0.14596 0.0
H831 H 0.1548 0.87105 0.11454 0.0
H832 H 0.12537 0.8411 0.11023 0.0
H833 H 0.16439 0.83043 0.12046 0.0
H834 H 0.15376 0.78008 0.21261 0.0
H835 H 0.10758 0.74793 0.20293 0.0
H836 H 0.08516 0.80966 0.13902 0.0
C837 C 0.18221 0.88681 0.16669 0.0
C838 C 0.20738 0.88912 0.1841 0.0
C839 C 0.21328 0.86449 0.20156 0.0
C840 C 0.19357 0.83807 0.20228 0.0
C841 C 0.16868 0.83654 0.18495 0.0
C842 C 0.16329 0.86 0.16718 0.0
C843 C 0.13541 0.85235 0.15032 0.0
C844 C 0.10949 0.87737 0.15307 0.0
C845 C 0.14561 0.84849 0.12222 0.0
C846 C 0.12538 0.82128 0.16182 0.0
C847 C 0.14474 0.81271 0.18185 0.0
C848 C 0.13891 0.7861 0.19653 0.0
C849 C 0.1126 0.76772 0.1906 0.0
C850 C 0.09259 0.77556 0.16975 0.0
C851 C 0.09953 0.80273 0.15513 0.0
H852 H 0.67726 0.44004 0.38114 0.0
H853 H 0.74717 0.39746 0.43052 0.0
H854 H 0.71304 0.35062 0.43556 0.0
H855 H 0.60714 0.40805 0.41377 0.0
H856 H 0.58664 0.40264 0.38391 0.0
H857 H 0.6148 0.43399 0.38718 0.0
H858 H 0.64505 0.41304 0.34756 0.0
H859 H 0.61718 0.38157 0.34425 0.0
H860 H 0.65847 0.37284 0.34724 0.0
H861 H 0.67322 0.30589 0.43089 0.0
H862 H 0.63187 0.26847 0.41755 0.0
H863 H 0.58866 0.34154 0.37157 0.0
C864 C 0.68526 0.42104 0.3933 0.0
C865 C 0.71491 0.4223 0.40537 0.0
C866 C 0.72441 0.39707 0.42128 0.0
C867 C 0.70521 0.37037 0.42417 0.0
C868 C 0.67648 0.36951 0.41129 0.0
C869 C 0.66647 0.39442 0.39638 0.0
C870 C 0.63573 0.38721 0.38315 0.0
C871 C 0.60953 0.40928 0.39258 0.0
C872 C 0.63935 0.38875 0.35382 0.0
C873 C 0.63037 0.35392 0.39222 0.0
C874 C 0.65384 0.34411 0.40866 0.0
C875 C 0.65451 0.31354 0.41832 0.0
C876 C 0.63084 0.29244 0.4107 0.0
C877 C 0.60697 0.30194 0.39342 0.0
C878 C 0.60665 0.33332 0.38457 0.0
H879 H 0.54852 0.66704 0.39092 0.0
H880 H 0.59165 0.7338 0.44293 0.0
H881 H 0.63825 0.69941 0.44629 0.0
H882 H 0.58325 0.59408 0.41839 0.0
H883 H 0.58857 0.57712 0.38704 0.0
H884 H 0.55633 0.60369 0.39292 0.0
H885 H 0.57509 0.63886 0.35535 0.0
H886 H 0.60735 0.61257 0.34943 0.0
H887 H 0.6148 0.65363 0.35533 0.0
H888 H 0.68317 0.66107 0.43922 0.0
H889 H 0.72218 0.62381 0.42124 0.0
H890 H 0.65014 0.58409 0.37247 0.0
C891 C 0.56752 0.67429 0.40336 0.0
C892 C 0.5663 0.7032 0.41666 0.0
C893 C 0.59168 0.71157 0.43286 0.0
C894 C 0.61835 0.69219 0.43482 0.0
C895 C 0.61923 0.66445 0.4206 0.0
C896 C 0.59433 0.65548 0.40528 0.0
C897 C 0.60224 0.62659 0.38966 0.0
C898 C 0.58135 0.59872 0.39748 0.0
C899 C 0.59973 0.63334 0.36075 0.0
C900 C 0.63595 0.6214 0.39774 0.0
C901 C 0.6452 0.64296 0.41603 0.0
C902 C 0.676 0.64379 0.42519 0.0
C903 C 0.69798 0.62251 0.41495 0.0
C904 C 0.68913 0.60114 0.39546 0.0
C905 C 0.65754 0.60022 0.3873 0.0
H906 H 0.29198 0.57838 0.37719 0.0
H907 H 0.27476 0.5868 0.45877 0.0
H908 H 0.31222 0.63144 0.46079 0.0
H909 H 0.37486 0.59617 0.37931 0.0
H910 H 0.37414 0.61741 0.34945 0.0
H911 H 0.34665 0.58595 0.35497 0.0
H912 H 0.30027 0.62378 0.34552 0.0
H913 H 0.32759 0.65532 0.33995 0.0
H914 H 0.29681 0.65984 0.36343 0.0
H915 H 0.35018 0.67725 0.45276 0.0
H916 H 0.38508 0.71885 0.43578 0.0
H917 H 0.37804 0.67756 0.35998 0.0
C918 C 0.29593 0.58972 0.39548 0.0
C919 C 0.28028 0.57942 0.41779 0.0
C920 C 0.28658 0.59439 0.44146 0.0
C921 C 0.30775 0.61973 0.44276 0.0
C922 C 0.32262 0.62945 0.42026 0.0
C923 C 0.31705 0.61469 0.39713 0.0
C924 C 0.3357 0.62944 0.37564 0.0
C925 C 0.35924 0.60584 0.36418 0.0
C926 C 0.31378 0.6429 0.35492 0.0
C927 C 0.35231 0.65524 0.39012 0.0
C928 C 0.34463 0.65498 0.41584 0.0
C929 C 0.35655 0.67745 0.43269 0.0
C930 C 0.37652 0.70091 0.42288 0.0
C931 C 0.38436 0.7017 0.39647 0.0
C932 C 0.37231 0.67813 0.38015 0.0
H933 H 0.32541 0.39316 0.35084 0.0
H934 H 0.26404 0.36629 0.41357 0.0
H935 H 0.30067 0.32384 0.42528 0.0
H936 H 0.3506 0.31327 0.33398 0.0
H937 H 0.39009 0.32563 0.32654 0.0
H938 H 0.35774 0.35241 0.3221 0.0
H939 H 0.38555 0.39307 0.35125 0.0
H940 H 0.41777 0.36628 0.35606 0.0
H941 H 0.39682 0.38191 0.38326 0.0
H942 H 0.34676 0.28739 0.43271 0.0
H943 H 0.39589 0.25601 0.43202 0.0
H944 H 0.4264 0.30626 0.36415 0.0
C945 C 0.31948 0.37812 0.36684 0.0
C946 C 0.29182 0.38322 0.38127 0.0
C947 C 0.28484 0.3628 0.402 0.0
C948 C 0.30567 0.3387 0.40895 0.0
C949 C 0.33322 0.33503 0.39482 0.0
C950 C 0.33989 0.35384 0.37392 0.0
C951 C 0.3713 0.34538 0.36215 0.0
C952 C 0.36717 0.33345 0.33456 0.0
C953 C 0.3942 0.37332 0.36326 0.0
C954 C 0.38148 0.31921 0.37993 0.0
C955 C 0.35931 0.31365 0.39874 0.0
C956 C 0.36413 0.29129 0.41789 0.0
C957 C 0.39214 0.27378 0.41749 0.0
C958 C 0.41472 0.2786 0.39795 0.0
C959 C 0.4093 0.30179 0.37911 0.0
H960 H 0.88172 0.82304 0.84627 0.0
H961 H 0.88523 0.78246 0.92248 0.0
H962 H 0.85355 0.82683 0.93897 0.0
H963 H 0.88512 0.9048 0.86534 0.0
H964 H 0.85816 0.91709 0.84069 0.0
H965 H 0.88306 0.88341 0.83559 0.0
H966 H 0.83403 0.84928 0.82585 0.0
H967 H 0.809 0.88281 0.83094 0.0
H968 H 0.80263 0.84729 0.84903 0.0
H969 H 0.81879 0.87497 0.94643 0.0
H970 H 0.78367 0.92142 0.94382 0.0
H971 H 0.80296 0.92862 0.86245 0.0
C972 C 0.87586 0.82328 0.86643 0.0
C973 C 0.88597 0.7991 0.88302 0.0
C974 C 0.8781 0.80083 0.90939 0.0
C975 C 0.86001 0.82591 0.91893 0.0
C976 C 0.85009 0.84909 0.90187 0.0
C977 C 0.85784 0.84793 0.87618 0.0
C978 C 0.8434 0.8749 0.86149 0.0
C979 C 0.86896 0.89631 0.85012 0.0
C980 C 0.82093 0.86284 0.8406 0.0
C981 C 0.82573 0.89116 0.8828 0.0
C982 C 0.83004 0.87623 0.90604 0.0
C983 C 0.8154 0.88691 0.92834 0.0
C984 C 0.7956 0.91332 0.92672 0.0
C985 C 0.79046 0.92843 0.90291 0.0
C986 C 0.80611 0.91731 0.88085 0.0
H987 H 0.15616 0.91494 0.85444 0.0
H988 H 0.22987 0.8694 0.89847 0.0
H989 H 0.1936 0.8265 0.90922 0.0
H990 H 0.09403 0.89761 0.89803 0.0
H991 H 0.06514 0.89118 0.87336 0.0
H992 H 0.09745 0.91763 0.86772 0.0
H993 H 0.11327 0.88605 0.82723 0.0
H994 H 0.08081 0.85971 0.8326 0.0
H995 H 0.12016 0.84436 0.8298 0.0
H996 H 0.14861 0.78904 0.91643 0.0
H997 H 0.09929 0.75852 0.91709 0.0
H998 H 0.05435 0.83021 0.8706 0.0
C999 C 0.16483 0.89601 0.8663 0.0
C1000 C 0.19609 0.89584 0.87549 0.0
C1001 C 0.20633 0.87017 0.89075 0.0
C1002 C 0.18575 0.84569 0.89723 0.0
C1003 C 0.15495 0.84713 0.88838 0.0
C1004 C 0.14458 0.87152 0.87311 0.0
C1005 C 0.1102 0.86773 0.86638 0.0
C1006 C 0.09055 0.89517 0.87701 0.0
C1007 C 0.10587 0.86425 0.83728 0.0
C1008 C 0.10287 0.83738 0.88025 0.0
C1009 C 0.12896 0.82587 0.89286 0.0
C1010 C 0.12798 0.79788 0.9067 0.0
C1011 C 0.09974 0.78086 0.90718 0.0
C1012 C 0.07285 0.79194 0.89395 0.0
C1013 C 0.0745 0.82089 0.88072 0.0
H1014 H 0.18703 0.0652 0.91227 0.0
H1015 H 0.27133 0.12011 0.92472 0.0
H1016 H 0.23937 0.16885 0.92545 0.0
H1017 H 0.15412 0.11575 0.8684 0.0
H1018 H 0.11393 0.11006 0.87834 0.0
H1019 H 0.14237 0.07943 0.8834 0.0
H1020 H 0.12937 0.07893 0.93191 0.0
H1021 H 0.1006 0.10945 0.92698 0.0
H1022 H 0.13165 0.11494 0.94999 0.0
H1023 H 0.19858 0.21178 0.92082 0.0
H1024 H 0.15321 0.24519 0.9088 0.0
H1025 H 0.09653 0.16181 0.89749 0.0
C1026 C 0.19855 0.08741 0.91606 0.0
C1027 C 0.23145 0.08902 0.91897 0.0
C1028 C 0.24603 0.11853 0.92279 0.0
C1029 C 0.22808 0.14623 0.92329 0.0
C1030 C 0.19566 0.14392 0.91977 0.0
C1031 C 0.18107 0.11521 0.91619 0.0
C1032 C 0.1466 0.11922 0.90991 0.0
C1033 C 0.13882 0.1053 0.88344 0.0
C1034 C 0.12583 0.10478 0.93096 0.0
C1035 C 0.1442 0.15467 0.90981 0.0
C1036 C 0.17253 0.16856 0.91605 0.0
C1037 C 0.1762 0.20114 0.91619 0.0
C1038 C 0.15035 0.21993 0.90941 0.0
C1039 C 0.12149 0.20602 0.90217 0.0
C1040 C 0.1184 0.17302 0.9028 0.0
H1041 H 0.84187 0.10518 0.86085 0.0
H1042 H 0.775 0.13529 0.91897 0.0
H1043 H 0.81394 0.1726 0.93562 0.0
H1044 H 0.91233 0.11242 0.89912 0.0
H1045 H 0.93538 0.12731 0.8728 0.0
H1046 H 0.90313 0.10093 0.86675 0.0
H1047 H 0.87831 0.14161 0.8358 0.0
H1048 H 0.91054 0.16799 0.84162 0.0
H1049 H 0.87074 0.18098 0.84701 0.0
H1050 H 0.85996 0.20859 0.94505 0.0
H1051 H 0.9075 0.24234 0.94396 0.0
H1052 H 0.94248 0.18972 0.87878 0.0
C1053 C 0.83511 0.11947 0.87705 0.0
C1054 C 0.8051 0.11677 0.88853 0.0
C1055 C 0.79781 0.13618 0.90989 0.0
C1056 C 0.81984 0.15764 0.91955 0.0
C1057 C 0.84908 0.15959 0.90768 0.0
C1058 C 0.85663 0.14114 0.88679 0.0
C1059 C 0.8889 0.14897 0.87646 0.0
C1060 C 0.91125 0.12073 0.87894 0.0
C1061 C 0.88699 0.16058 0.84858 0.0
C1062 C 0.89809 0.17516 0.8945 0.0
C1063 C 0.87509 0.18069 0.91266 0.0
C1064 C 0.87819 0.20436 0.93099 0.0
C1065 C 0.90523 0.2233 0.93032 0.0
C1066 C 0.92841 0.2186 0.91125 0.0
C1067 C 0.92496 0.19386 0.89349 0.0
H1068 H 0.39835 0.67384 0.69043 0.0
H1069 H 0.37637 0.7314 0.62435 0.0
H1070 H 0.34073 0.68962 0.60837 0.0
H1071 H 0.39409 0.59685 0.65864 0.0
H1072 H 0.37648 0.57873 0.68636 0.0
H1073 H 0.4032 0.61121 0.69025 0.0
H1074 H 0.36073 0.6415 0.71603 0.0
H1075 H 0.33392 0.60923 0.71219 0.0
H1076 H 0.32265 0.64807 0.7019 0.0
H1077 H 0.30302 0.64287 0.6024 0.0
H1078 H 0.26716 0.5972 0.60752 0.0
H1079 H 0.31422 0.57244 0.67823 0.0
C1080 C 0.38627 0.67768 0.67249 0.0
C1081 C 0.38997 0.70599 0.65872 0.0
C1082 C 0.37407 0.70978 0.6351 0.0
C1083 C 0.35375 0.6862 0.62594 0.0
C1084 C 0.34994 0.65892 0.64052 0.0
C1085 C 0.36603 0.6546 0.66322 0.0
C1086 C 0.35645 0.62455 0.67648 0.0
C1087 C 0.38421 0.60147 0.67801 0.0
C1088 C 0.34261 0.63126 0.70321 0.0
C1089 C 0.3316 0.61296 0.65819 0.0
C1090 C 0.32838 0.63267 0.6373 0.0
C1091 C 0.30565 0.62715 0.61855 0.0
C1092 C 0.28545 0.60119 0.62155 0.0
C1093 C 0.2879 0.58151 0.64332 0.0
C1094 C 0.31172 0.58723 0.66147 0.0
H1095 H 0.29524 0.364 0.69197 0.0
H1096 H 0.31586 0.43044 0.63157 0.0
H1097 H 0.35776 0.39499 0.6151 0.0
H1098 H 0.37114 0.34134 0.7058 0.0
H1099 H 0.3625 0.30039 0.71113 0.0
H1100 H 0.33251 0.32951 0.71626 0.0
H1101 H 0.29575 0.30053 0.68453 0.0
H1102 H 0.32564 0.27114 0.67939 0.0
H1103 H 0.30936 0.29217 0.65253 0.0
H1104 H 0.40242 0.35567 0.60993 0.0
H1105 H 0.44305 0.31477 0.6142 0.0
H1106 H 0.38843 0.27089 0.67486 0.0
C1107 C 0.30831 0.37068 0.67501 0.0
C1108 C 0.30272 0.39978 0.66299 0.0
C1109 C 0.31995 0.40804 0.64083 0.0
C1110 C 0.34368 0.3881 0.63144 0.0
C1111 C 0.34911 0.35969 0.64409 0.0
C1112 C 0.33139 0.35073 0.66508 0.0
C1113 C 0.34235 0.31959 0.67579 0.0
C1114 C 0.35275 0.32293 0.7039 0.0
C1115 C 0.31675 0.29436 0.67287 0.0
C1116 C 0.36999 0.31306 0.65834 0.0
C1117 C 0.37355 0.33635 0.64013 0.0
C1118 C 0.39935 0.33685 0.62364 0.0
C1119 C 0.42229 0.31325 0.62613 0.0
C1120 C 0.41922 0.28924 0.64487 0.0
C1121 C 0.39204 0.2889 0.66053 0.0
H1122 H 0.58256 0.35293 0.66617 0.0
H1123 H 0.63444 0.27231 0.63771 0.0
H1124 H 0.67595 0.30785 0.62159 0.0
H1125 H 0.605 0.40881 0.61547 0.0
H1126 H 0.60793 0.44095 0.63783 0.0
H1127 H 0.58042 0.40953 0.64363 0.0
H1128 H 0.60531 0.39994 0.68826 0.0
H1129 H 0.63279 0.43125 0.68262 0.0
H1130 H 0.64694 0.39253 0.69056 0.0
H1131 H 0.71462 0.35223 0.61292 0.0
H1132 H 0.74703 0.40051 0.61384 0.0
H1133 H 0.66963 0.45125 0.64875 0.0
C1134 C 0.60247 0.3426 0.65641 0.0
C1135 C 0.60517 0.3097 0.65334 0.0
C1136 C 0.63157 0.2974 0.64009 0.0
C1137 C 0.65532 0.31744 0.6309 0.0
C1138 C 0.65222 0.34972 0.63491 0.0
C1139 C 0.62632 0.36216 0.64728 0.0
C1140 C 0.62954 0.39723 0.65118 0.0
C1141 C 0.60422 0.41518 0.63612 0.0
C1142 C 0.6286 0.40571 0.67985 0.0
C1143 C 0.66181 0.40254 0.63986 0.0
C1144 C 0.67438 0.37503 0.63015 0.0
C1145 C 0.70478 0.37397 0.62012 0.0
C1146 C 0.72298 0.40154 0.62059 0.0
C1147 C 0.71081 0.42963 0.63131 0.0
C1148 C 0.67956 0.43013 0.64044 0.0
H1149 H 0.60256 0.73148 0.67122 0.0
H1150 H 0.54628 0.68098 0.61558 0.0
H1151 H 0.58974 0.64293 0.6095 0.0
H1152 H 0.67879 0.71927 0.64068 0.0
H1153 H 0.69867 0.7146 0.6709 0.0
H1154 H 0.66431 0.73923 0.66878 0.0
H1155 H 0.63763 0.70705 0.70495 0.0
H1156 H 0.67186 0.68239 0.70721 0.0
H1157 H 0.63385 0.66507 0.70152 0.0
H1158 H 0.63882 0.60802 0.61217 0.0
H1159 H 0.6875 0.57949 0.62426 0.0
H1160 H 0.71005 0.65341 0.67826 0.0
C1161 C 0.5993 0.71248 0.6577 0.0
C1162 C 0.57094 0.70919 0.64394 0.0
C1163 C 0.56791 0.68419 0.62615 0.0
C1164 C 0.59244 0.66242 0.62262 0.0
C1165 C 0.61991 0.66612 0.63688 0.0
C1166 C 0.62339 0.69066 0.654 0.0
C1167 C 0.65433 0.68874 0.66807 0.0
C1168 C 0.67526 0.71715 0.66172 0.0
C1169 C 0.64909 0.68561 0.69715 0.0
C1170 C 0.66749 0.65884 0.65673 0.0
C1171 C 0.64762 0.64622 0.63853 0.0
C1172 C 0.65464 0.6179 0.62623 0.0
C1173 C 0.68236 0.60192 0.63311 0.0
C1174 C 0.70243 0.61417 0.65228 0.0
C1175 C 0.69502 0.64329 0.66374 0.0
H1176 H 0.14911 0.44819 0.30766 0.0
H1177 H 0.16337 0.37411 0.3636 0.0
H1178 H 0.14608 0.33479 0.3316 0.0
H1179 H 0.07907 0.41561 0.27969 0.0
H1180 H 0.08872 0.42838 0.24772 0.0
H1181 H 0.10274 0.45024 0.27492 0.0
H1182 H 0.15982 0.44432 0.25823 0.0
H1183 H 0.14602 0.42199 0.23118 0.0
H1184 H 0.17543 0.40563 0.25214 0.0
H1185 H 0.12685 0.30389 0.29382 0.0
H1186 H 0.10209 0.28371 0.2544 0.0
H1187 H 0.10049 0.37773 0.22257 0.0
C1188 C 0.14858 0.42368 0.31324 0.0
C1189 C 0.15767 0.41416 0.33815 0.0
C1190 C 0.15636 0.38193 0.34471 0.0
C1191 C 0.14682 0.35946 0.32658 0.0
C1192 C 0.13857 0.36963 0.30206 0.0
C1193 C 0.13896 0.40103 0.29546 0.0
C1194 C 0.12774 0.40594 0.26814 0.0
C1195 C 0.09779 0.42623 0.2676 0.0
C1196 C 0.15382 0.42032 0.25144 0.0
C1197 C 0.1209 0.37233 0.26031 0.0
C1198 C 0.12756 0.35179 0.28017 0.0
C1199 C 0.12183 0.31971 0.27812 0.0
C1200 C 0.10794 0.30845 0.25562 0.0
C1201 C 0.10008 0.32909 0.23534 0.0
C1202 C 0.10726 0.36136 0.23747 0.0
H1203 H 0.62211 0.06479 0.22952 0.0
H1204 H 0.70249 0.12642 0.22206 0.0
H1205 H 0.68333 0.15804 0.25886 0.0
H1206 H 0.56523 0.12735 0.24748 0.0
H1207 H 0.54437 0.10147 0.2689 0.0
H1208 H 0.56382 0.08575 0.24104 0.0
H1209 H 0.59455 0.04739 0.27029 0.0
H1210 H 0.57602 0.06367 0.29833 0.0
H1211 H 0.61828 0.06284 0.29595 0.0
H1212 H 0.65796 0.17891 0.30003 0.0
H1213 H 0.62297 0.19398 0.33618 0.0
H1214 H 0.55784 0.12053 0.31445 0.0
C1215 C 0.63496 0.08567 0.23509 0.0
C1216 C 0.66331 0.09376 0.22274 0.0
C1217 C 0.68022 0.12052 0.23092 0.0
C1218 C 0.66973 0.13829 0.252 0.0
C1219 C 0.64213 0.12907 0.2644 0.0
C1220 C 0.6245 0.10393 0.25572 0.0
C1221 C 0.59565 0.09886 0.27221 0.0
C1222 C 0.56548 0.10366 0.25647 0.0
C1223 C 0.59618 0.06625 0.28494 0.0
C1224 C 0.59998 0.12472 0.29179 0.0
C1225 C 0.62718 0.14162 0.2873 0.0
C1226 C 0.63646 0.16603 0.30352 0.0
C1227 C 0.61675 0.17416 0.32419 0.0
C1228 C 0.58803 0.15816 0.32811 0.0
C1229 C 0.57987 0.13292 0.31192 0.0
H1230 H 0.86899 0.59962 0.3303 0.0
H1231 H 0.78491 0.57392 0.28856 0.0
H1232 H 0.80462 0.60172 0.25032 0.0
H1233 H 0.8809 0.67798 0.29942 0.0
H1234 H 0.923 0.6733 0.29869 0.0
H1235 H 0.90029 0.6551 0.3238 0.0
H1236 H 0.92444 0.60108 0.31198 0.0
H1237 H 0.94686 0.61901 0.28665 0.0
H1238 H 0.92089 0.5867 0.27963 0.0
H1239 H 0.83594 0.62772 0.21493 0.0
H1240 H 0.87571 0.65212 0.1863 0.0
H1241 H 0.9394 0.65999 0.25087 0.0
C1242 C 0.85435 0.6009 0.31338 0.0
C1243 C 0.82523 0.58508 0.31247 0.0
C1244 C 0.80718 0.58619 0.28969 0.0
C1245 C 0.81818 0.60187 0.26783 0.0
C1246 C 0.84746 0.61632 0.26892 0.0
C1247 C 0.86521 0.61625 0.29118 0.0
C1248 C 0.89688 0.63155 0.28661 0.0
C1249 C 0.90047 0.66125 0.30311 0.0
C1250 C 0.92385 0.60819 0.29151 0.0
C1251 C 0.89427 0.63969 0.25838 0.0
C1252 C 0.86558 0.6309 0.24848 0.0
C1253 C 0.85841 0.63504 0.22255 0.0
C1254 C 0.88113 0.64878 0.20638 0.0
C1255 C 0.91065 0.65808 0.21622 0.0
C1256 C 0.91703 0.65337 0.24261 0.0
H1257 H 0.4545 0.85854 0.30071 0.0
H1258 H 0.38062 0.846 0.35723 0.0
H1259 H 0.34142 0.86437 0.3256 0.0
H1260 H 0.4228 0.92925 0.27218 0.0
H1261 H 0.43516 0.91872 0.24028 0.0
H1262 H 0.45702 0.90489 0.26755 0.0
H1263 H 0.45005 0.84762 0.25166 0.0
H1264 H 0.42761 0.86126 0.22461 0.0
H1265 H 0.41105 0.83255 0.24613 0.0
H1266 H 0.31044 0.88414 0.28788 0.0
H1267 H 0.29046 0.9088 0.24824 0.0
H1268 H 0.38419 0.90728 0.21577 0.0
C1269 C 0.4301 0.85985 0.30655 0.0
C1270 C 0.42062 0.85082 0.33151 0.0
C1271 C 0.38847 0.85298 0.33832 0.0
C1272 C 0.36602 0.86313 0.3204 0.0
C1273 C 0.37611 0.87107 0.29578 0.0
C1274 C 0.40745 0.86995 0.28894 0.0
C1275 C 0.41226 0.88052 0.26143 0.0
C1276 C 0.43303 0.9101 0.2603 0.0
C1277 C 0.42606 0.85389 0.24499 0.0
C1278 C 0.37868 0.88778 0.25379 0.0
C1279 C 0.35821 0.882 0.27388 0.0
C1280 C 0.3262 0.88844 0.27198 0.0
C1281 C 0.31503 0.90219 0.24935 0.0
C1282 C 0.33567 0.90907 0.22883 0.0
C1283 C 0.36778 0.90114 0.23084 0.0
H1284 H 0.95093 0.60428 0.81373 0.0
H1285 H 0.88594 0.68059 0.82845 0.0
H1286 H 0.85492 0.66518 0.79033 0.0
H1287 H 0.95184 0.60751 0.74694 0.0
H1288 H 0.95216 0.5656 0.74197 0.0
H1289 H 0.96838 0.58185 0.77088 0.0
H1290 H 0.9313 0.54692 0.79821 0.0
H1291 H 0.91561 0.53018 0.76925 0.0
H1292 H 0.88957 0.54798 0.79233 0.0
H1293 H 0.83534 0.64523 0.74703 0.0
H1294 H 0.82034 0.61424 0.70874 0.0
H1295 H 0.89477 0.54772 0.72512 0.0
C1296 C 0.92959 0.61709 0.80934 0.0
C1297 C 0.92063 0.64349 0.82404 0.0
C1298 C 0.89287 0.66001 0.81763 0.0
C1299 C 0.87538 0.65166 0.79582 0.0
C1300 C 0.88561 0.62627 0.78104 0.0
C1301 C 0.91139 0.60849 0.78811 0.0
C1302 C 0.91687 0.58165 0.76955 0.0
C1303 C 0.94924 0.58435 0.75657 0.0
C1304 C 0.9131 0.5498 0.78314 0.0
C1305 C 0.89055 0.58743 0.75059 0.0
C1306 C 0.87318 0.61369 0.75721 0.0
C1307 C 0.84848 0.62437 0.74191 0.0
C1308 C 0.84038 0.6069 0.72001 0.0
C1309 C 0.8565 0.57875 0.71399 0.0
C1310 C 0.88223 0.5693 0.72925 0.0
H1311 H 0.44708 0.85382 0.76113 0.0
H1312 H 0.38347 0.85834 0.69628 0.0
H1313 H 0.34258 0.88144 0.72429 0.0
H1314 H 0.38955 0.83316 0.80882 0.0
H1315 H 0.40687 0.85701 0.83358 0.0
H1316 H 0.43123 0.84075 0.80861 0.0
H1317 H 0.45144 0.89643 0.79713 0.0
H1318 H 0.42747 0.91281 0.82226 0.0
H1319 H 0.42352 0.92706 0.78992 0.0
H1320 H 0.30907 0.90463 0.75903 0.0
H1321 H 0.2861 0.92967 0.79733 0.0
H1322 H 0.37088 0.9094 0.84024 0.0
C1323 C 0.42458 0.85971 0.75273 0.0
C1324 C 0.41849 0.85421 0.72642 0.0
C1325 C 0.38874 0.8624 0.71629 0.0
C1326 C 0.36532 0.87536 0.73211 0.0
C1327 C 0.37199 0.88 0.75802 0.0
C1328 C 0.40098 0.87268 0.76824 0.0
C1329 C 0.40237 0.88075 0.79657 0.0
C1330 C 0.40783 0.85115 0.81285 0.0
C1331 C 0.4277 0.90575 0.80177 0.0
C1332 C 0.3696 0.89388 0.80074 0.0
C1333 C 0.35249 0.89307 0.77821 0.0
C1334 C 0.32215 0.90515 0.77678 0.0
C1335 C 0.30928 0.91923 0.79866 0.0
C1336 C 0.32653 0.921 0.8218 0.0
C1337 C 0.35687 0.90756 0.823 0.0
H1338 H 0.07268 0.33118 0.79787 0.0
H1339 H 0.12557 0.35879 0.86527 0.0
H1340 H 0.16091 0.39048 0.83787 0.0
H1341 H 0.13951 0.3267 0.75343 0.0
H1342 H 0.11728 0.34249 0.72703 0.0
H1343 H 0.09773 0.32001 0.75159 0.0
H1344 H 0.05933 0.36625 0.7596 0.0
H1345 H 0.07873 0.38887 0.73512 0.0
H1346 H 0.07487 0.40459 0.76703 0.0
H1347 H 0.18754 0.42216 0.80398 0.0
H1348 H 0.20419 0.45206 0.76597 0.0
H1349 H 0.13468 0.40358 0.7199 0.0
C1350 C 0.09195 0.34352 0.8069 0.0
C1351 C 0.09645 0.34239 0.83378 0.0
C1352 C 0.12176 0.35917 0.84476 0.0
C1353 C 0.14195 0.37718 0.82934 0.0
C1354 C 0.1366 0.37803 0.80297 0.0
C1355 C 0.11229 0.36157 0.7918 0.0
C1356 C 0.11067 0.36774 0.76317 0.0
C1357 C 0.11666 0.33742 0.74791 0.0
C1358 C 0.07903 0.38276 0.75581 0.0
C1359 C 0.13754 0.39078 0.76 0.0
C1360 C 0.15222 0.39619 0.78324 0.0
C1361 C 0.17647 0.41785 0.78567 0.0
C1362 C 0.18566 0.43479 0.76395 0.0
C1363 C 0.17081 0.43 0.73998 0.0
C1364 C 0.14679 0.40727 0.73788 0.0
H1365 H 0.59842 0.14014 0.71814 0.0
H1366 H 0.57534 0.22406 0.76139 0.0
H1367 H 0.60317 0.20287 0.79897 0.0
H1368 H 0.586 0.08713 0.76856 0.0
H1369 H 0.61793 0.06099 0.76067 0.0
H1370 H 0.59949 0.08392 0.73592 0.0
H1371 H 0.65323 0.10783 0.72325 0.0
H1372 H 0.67203 0.08457 0.74768 0.0
H1373 H 0.677 0.12663 0.74735 0.0
H1374 H 0.6293 0.1708 0.83327 0.0
H1375 H 0.65502 0.131 0.86085 0.0
H1376 H 0.66101 0.06782 0.79574 0.0
C1377 C 0.60016 0.15438 0.73527 0.0
C1378 C 0.58506 0.1839 0.73678 0.0
C1379 C 0.58692 0.20145 0.7598 0.0
C1380 C 0.60263 0.18961 0.78129 0.0
C1381 C 0.6164 0.16003 0.77958 0.0
C1382 C 0.61563 0.14272 0.75712 0.0
C1383 C 0.63085 0.11083 0.76098 0.0
C1384 C 0.60715 0.08416 0.75625 0.0
C1385 C 0.66002 0.10727 0.7438 0.0
C1386 C 0.63987 0.11291 0.78907 0.0
C1387 C 0.63137 0.14148 0.79946 0.0
C1388 C 0.63639 0.14842 0.82529 0.0
C1389 C 0.65086 0.12565 0.84087 0.0
C1390 C 0.66017 0.09636 0.83053 0.0
C1391 C 0.65442 0.09006 0.80427 0.0
H1392 H 0.00354 0.55936 0.12462 0.0
H1393 H 0.00664 0.58569 0.20476 0.0
H1394 H 0.00935 0.52942 0.2169 0.0
H1395 H 0.95451 0.49216 0.13259 0.0
H1396 H 0.97419 0.46959 0.10814 0.0
H1397 H 0.97333 0.51181 0.1061 0.0
H1398 H 0.03421 0.51304 0.10355 0.0
H1399 H 0.03524 0.4708 0.10549 0.0
H1400 H 0.05696 0.49408 0.12823 0.0
H1401 H 0.01299 0.46958 0.21974 0.0
H1402 H 0.0141 0.41183 0.21302 0.0
H1403 H 0.00732 0.42641 0.13104 0.0
C1404 C 0.00516 0.55332 0.14471 0.0
C1405 C 0.00515 0.57678 0.16376 0.0
C1406 C 0.00651 0.56796 0.1899 0.0
C1407 C 0.0082 0.53614 0.19693 0.0
C1408 C 0.0082 0.51356 0.17758 0.0
C1409 C 0.00652 0.52184 0.15201 0.0
C1410 C 0.00601 0.49331 0.13482 0.0
C1411 C 0.97517 0.49163 0.11952 0.0
C1412 C 0.03483 0.49279 0.11698 0.0
C1413 C 0.00775 0.46759 0.15467 0.0
C1414 C 0.00923 0.47957 0.17924 0.0
C1415 C 0.01163 0.45997 0.20058 0.0
C1416 C 0.01234 0.4273 0.19662 0.0
C1417 C 0.01031 0.41474 0.17157 0.0
C1418 C 0.00813 0.43528 0.15045 0.0
H1419 H 0.45088 0.97353 0.12452 0.0
H1420 H 0.42729 0.98533 0.20479 0.0
H1421 H 0.48402 0.98644 0.21548 0.0
H1422 H 0.51969 0.92439 0.13355 0.0
H1423 H 0.54063 0.94246 0.10737 0.0
H1424 H 0.49835 0.94028 0.10669 0.0
H1425 H 0.4952 1.00071 0.10064 0.0
H1426 H 0.5374 0.00306 0.10124 0.0
H1427 H 0.51442 0.02609 0.12338 0.0
H1428 H 0.54391 0.99049 0.21641 0.0
H1429 H 0.6009 0.99547 0.20773 0.0
H1430 H 0.58336 0.9816 0.12668 0.0
C1431 C 0.45752 0.97642 0.14436 0.0
C1432 C 0.43466 0.97966 0.16379 0.0
C1433 C 0.44444 0.98268 0.18961 0.0
C1434 C 0.47657 0.98341 0.19583 0.0
C1435 C 0.49847 0.98078 0.17602 0.0
C1436 C 0.48924 0.97713 0.15084 0.0
C1437 C 0.51705 0.97589 0.13286 0.0
C1438 C 0.51904 0.94385 0.11933 0.0
C1439 C 0.51594 0.00306 0.1134 0.0
C1440 C 0.54351 0.98004 0.15176 0.0
C1441 C 0.5325 0.98268 0.17658 0.0
C1442 C 0.55277 0.98813 0.19706 0.0
C1443 C 0.58506 0.9911 0.19193 0.0
C1444 C 0.59668 0.98869 0.16653 0.0
C1445 C 0.57547 0.98281 0.14636 0.0
H1446 H 0.46919 0.05728 0.37641 0.0
H1447 H 0.55547 0.0831 0.41551 0.0
H1448 H 0.56673 0.02713 0.42322 0.0
H1449 H 0.44854 0.99306 0.419 0.0
H1450 H 0.43277 0.96925 0.39353 0.0
H1451 H 0.43137 0.01147 0.39124 0.0
H1452 H 0.46069 0.00901 0.34773 0.0
H1453 H 0.46215 0.96682 0.34987 0.0
H1454 H 0.49793 0.98892 0.34576 0.0
H1455 H 0.56974 0.96797 0.42505 0.0
H1456 H 0.56342 0.91027 0.42157 0.0
H1457 H 0.47407 0.92357 0.38333 0.0
C1458 C 0.49027 0.05141 0.38691 0.0
C1459 C 0.51145 0.07493 0.39521 0.0
C1460 C 0.53903 0.06576 0.40852 0.0
C1461 C 0.54555 0.03394 0.4132 0.0
C1462 C 0.52416 0.0115 0.40468 0.0
C1463 C 0.49699 0.01984 0.39194 0.0
C1464 C 0.47799 0.99118 0.3845 0.0
C1465 C 0.44576 0.99125 0.39787 0.0
C1466 C 0.4745 0.98885 0.35523 0.0
C1467 C 0.49889 0.96534 0.39484 0.0
C1468 C 0.52545 0.97753 0.40637 0.0
C1469 C 0.5489 0.95817 0.41628 0.0
C1470 C 0.54519 0.92552 0.41417 0.0
C1471 C 0.51816 0.91258 0.40243 0.0
C1472 C 0.49463 0.93284 0.3929 0.0
H1473 H 0.93637 0.47088 0.36348 0.0
H1474 H 0.90885 0.55117 0.40992 0.0
H1475 H 0.96416 0.56093 0.42025 0.0
H1476 H 0.99608 0.4436 0.40618 0.0
H1477 H 0.02232 0.4309 0.38108 0.0
H1478 H 0.98053 0.43123 0.3757 0.0
H1479 H 0.9886 0.4666 0.33584 0.0
H1480 H 0.03043 0.46653 0.34121 0.0
H1481 H 0.00944 0.50325 0.33909 0.0
H1482 H 0.02184 0.56165 0.42676 0.0
H1483 H 0.07854 0.55149 0.43091 0.0
H1484 H 0.06958 0.46944 0.38211 0.0
C1485 C 0.94182 0.49051 0.37584 0.0
C1486 C 0.91786 0.51045 0.38552 0.0
C1487 C 0.92644 0.53589 0.40164 0.0
C1488 C 0.95793 0.5416 0.40778 0.0
C1489 C 0.98079 0.52164 0.39783 0.0
C1490 C 0.97323 0.49648 0.38235 0.0
C1491 C 0.00241 0.47784 0.37519 0.0
C1492 C 1.00019 0.44388 0.38514 0.0
C1493 C 0.00804 0.47861 0.3461 0.0
C1494 C 0.02744 0.49631 0.38936 0.0
C1495 C 0.01436 0.52163 0.40208 0.0
C1496 C 0.03238 0.54187 0.41694 0.0
C1497 C 0.06456 0.53579 0.41929 0.0
C1498 C 0.07853 0.50954 0.40702 0.0
C1499 C 0.05969 0.48986 0.3915 0.0
H1500 H 0.9748 0.57614 0.88004 0.0
H1501 H 0.06558 0.59384 0.91463 0.0
H1502 H 0.07337 0.53665 0.92064 0.0
H1503 H 0.95269 0.50861 0.91972 0.0
H1504 H 0.93453 0.48819 0.89337 0.0
H1505 H 0.93515 0.53052 0.89386 0.0
H1506 H 0.96209 0.53089 0.8493 0.0
H1507 H 0.96174 0.4886 0.84873 0.0
H1508 H 0.99826 0.50949 0.84478 0.0
H1509 H 0.07196 0.47766 0.9213 0.0
H1510 H 0.06195 0.42099 0.91626 0.0
H1511 H 0.973 0.44201 0.87926 0.0
C1512 C 0.99595 0.56794 0.88942 0.0
C1513 C 0.0195 0.58924 0.89716 0.0
C1514 C 0.04733 0.57773 0.90864 0.0
C1515 C 0.05187 0.54539 0.91217 0.0
C1516 C 0.02842 0.52494 0.90394 0.0
C1517 C 1.00101 0.53574 0.89278 0.0
C1518 C 0.98034 0.50879 0.88422 0.0
C1519 C 0.94881 0.50905 0.89866 0.0
C1520 C 0.97533 0.5095 0.85503 0.0
C1521 C 1.0005 0.48115 0.89218 0.0
C1522 C 0.02801 0.49095 0.90367 0.0
C1523 C 0.05049 0.46967 0.91232 0.0
C1524 C 0.04469 0.43748 0.90915 0.0
C1525 C 0.01671 0.42683 0.89725 0.0
C1526 C 0.99442 0.44917 0.88873 0.0
H1527 H 0.5716 0.98882 0.92631 0.0
H1528 H 0.59008 0.00315 0.84544 0.0
H1529 H 0.53295 1.00049 0.83667 0.0
H1530 H 0.50658 0.93399 0.91886 0.0
H1531 H 0.48559 0.94997 0.94591 0.0
H1532 H 0.52791 0.9512 0.94516 0.0
H1533 H 0.52624 0.01157 0.95188 0.0
H1534 H 0.48398 0.01056 0.95249 0.0
H1535 H 0.50406 0.03563 0.92996 0.0
H1536 H 0.47291 0.99776 0.83742 0.0
H1537 H 0.41605 0.99705 0.84791 0.0
H1538 H 0.43879 0.98407 0.92817 0.0
C1539 C 0.56382 0.99073 0.90666 0.0
C1540 C 0.58536 0.99596 0.88654 0.0
C1541 C 0.57397 0.99928 0.86118 0.0
C1542 C 0.5416 0.99761 0.85601 0.0
C1543 C 0.52102 0.99263 0.87642 0.0
C1544 C 0.53179 0.98923 0.90123 0.0
C1545 C 0.50505 0.98552 0.92003 0.0
C1546 C 0.50637 0.95325 0.93326 0.0
C1547 C 0.50483 0.01243 0.93974 0.0
C1548 C 0.47743 0.98776 0.90202 0.0
C1549 C 0.48694 0.99158 0.8769 0.0
C1550 C 0.46524 0.99467 0.85704 0.0
C1551 C 0.43304 0.99414 0.86314 0.0
C1552 C 0.42298 0.99084 0.88888 0.0
C1553 C 0.44564 0.98724 0.90837 0.0
H1554 H 0.47701 0.93288 0.65926 0.0
H1555 H 0.57052 0.91746 0.69005 0.0
H1556 H 0.57734 0.97447 0.69526 0.0
H1557 H 0.49495 0.00324 0.62437 0.0
H1558 H 0.458 0.02207 0.63149 0.0
H1559 H 0.46032 0.97984 0.63003 0.0
H1560 H 0.4375 0.97604 0.67597 0.0
H1561 H 0.43507 0.01826 0.67756 0.0
H1562 H 0.45649 0.99689 0.70171 0.0
H1563 H 0.57442 0.03322 0.69706 0.0
H1564 H 0.56133 0.08971 0.69577 0.0
H1565 H 0.46964 0.06732 0.66442 0.0
C1566 C 0.49882 0.94142 0.66728 0.0
C1567 C 0.5233 0.92048 0.67402 0.0
C1568 C 0.5516 0.93286 0.68423 0.0
C1569 C 0.55566 0.96528 0.68746 0.0
C1570 C 0.53119 0.9852 0.68049 0.0
C1571 C 0.50328 0.9738 0.67068 0.0
C1572 C 0.48073 1.0004 0.6647 0.0
C1573 C 0.47306 1.00144 0.63594 0.0
C1574 C 0.45067 0.99773 0.68096 0.0
C1575 C 0.50036 0.02844 0.6727 0.0
C1576 C 0.52941 0.01914 0.68171 0.0
C1577 C 0.55175 0.0408 0.69 0.0
C1578 C 0.54418 0.07287 0.68905 0.0
C1579 C 0.51449 0.083 0.67996 0.0
C1580 C 0.49238 0.06034 0.67173 0.0
H1581 H 0.92546 0.52933 0.66453 0.0
H1582 H 0.91679 0.43718 0.62993 0.0
H1583 H 0.97473 0.4319 0.62947 0.0
H1584 H 0.99699 0.55366 0.63077 0.0
H1585 H 0.01284 0.5734 0.65842 0.0
H1586 H 0.9709 0.57074 0.6542 0.0
H1587 H 0.96559 0.5448 0.69882 0.0
H1588 H 0.00746 0.5474 0.70324 0.0
H1589 H 0.98799 0.50994 0.70602 0.0
H1590 H 0.03327 0.43613 0.63399 0.0
H1591 H 0.08838 0.44894 0.64351 0.0
H1592 H 0.0588 0.53761 0.67705 0.0
C1593 C 0.93583 0.50838 0.65633 0.0
C1594 C 0.91677 0.48374 0.647 0.0
C1595 C 0.93109 0.45625 0.63714 0.0
C1596 C 0.9639 0.45313 0.63674 0.0
C1597 C 0.98202 0.47766 0.64643 0.0
C1598 C 0.96852 0.50476 0.65604 0.0
C1599 C 0.99323 0.52689 0.66655 0.0
C1600 C 0.9935 0.55801 0.65158 0.0
C1601 C 0.98828 0.53257 0.69538 0.0
C1602 C 0.02273 0.50791 0.66148 0.0
C1603 C 0.01574 0.4797 0.64971 0.0
C1604 C 0.03903 0.45812 0.64326 0.0
C1605 C 0.07034 0.46554 0.64899 0.0
C1606 C 0.07817 0.49423 0.66127 0.0
C1607 C 0.05384 0.51563 0.66748 0.0
loop_
_geom_bond_atom_site_label_1
_geom_bond_atom_site_label_2
_geom_bond_distance
_geom_bond_site_symmetry_2
_ccdc_geom_bond_type
C0 C1 1.351 . S
C0 N3 1.368 . S
C0 H5 0.931 . S
C1 C0 1.351 . S
C1 N2 1.373 . S
C1 H29 0.930 . S
N2 C1 1.373 . S
N2 C4 1.340 . S
N3 C0 1.368 . S
N3 C4 1.321 . S
N3 Co6 2.135 . S
C4 N2 1.340 . S
C4 N3 1.321 . S
C4 H28 0.930 . S
H5 C0 0.931 . S
Co6 N3 2.135 . S
Co6 N9 2.121 . S
Co6 O14 2.055 . S
Co6 O17 2.039 . S
Co6 N20 2.140 . S
C7 O8 1.227 . S
C7 O17 1.265 . S
O8 C7 1.227 . S
N9 Co6 2.121 . S
N9 C11 1.375 . S
N9 C12 1.313 . S
C10 C11 1.338 . S
C10 N13 1.377 . S
C10 H30 0.930 . S
C11 N9 1.375 . S
C11 C10 1.338 . S
C11 H15 0.931 . S
C12 N9 1.313 . S
C12 N13 1.344 . S
C12 H16 0.930 . S
N13 C10 1.377 . S
N13 C12 1.344 . S
O14 Co6 2.055 . S
O14 C18 1.253 . S
H15 C11 0.931 . S
H16 C12 0.930 . S
O17 Co6 2.039 . S
O17 C7 1.265 . S
C18 O14 1.253 . S
C18 O19 1.227 . S
O19 C18 1.227 . S
N20 Co6 2.140 . S
N20 C23 1.346 . S
N20 C24 1.345 . S
C21 C22 1.387 1_655 S
C21 C25 1.391 . S
C22 C21 1.387 1_455 S
C22 C23 1.369 . S
C22 H31 0.929 . S
C23 N20 1.346 . S
C23 C22 1.369 . S
C23 H26 0.928 . S
C24 N20 1.345 . S
C24 C25 1.371 1_455 S
C24 H27 0.931 . S
C25 C21 1.391 . S
C25 C24 1.371 1_655 S
C25 H32 0.930 . S
H26 C23 0.928 . S
H27 C24 0.931 . S
H28 C4 0.930 . S
H29 C1 0.930 . S
H30 C10 0.930 . S
H31 C22 0.929 . S
H32 C25 0.930 . S
C33 C34 1.351 . S
C33 N36 1.368 . S
C33 H38 0.931 . S
C34 C33 1.351 . S
C34 N35 1.373 . S
C34 H62 0.930 . S
N35 C34 1.373 . S
N35 C37 1.340 . S
N36 C33 1.368 . S
N36 C37 1.321 . S
N36 Co39 2.135 . S
C37 N35 1.340 . S
C37 N36 1.321 . S
C37 H61 0.930 . S
H38 C33 0.931 . S
Co39 N36 2.135 . S
Co39 N42 2.121 . S
Co39 O47 2.055 . S
Co39 O50 2.039 . S
Co39 N53 2.140 . S
C40 O41 1.227 . S
C40 O50 1.265 . S
O41 C40 1.227 . S
N42 Co39 2.121 . S
N42 C44 1.375 . S
N42 C45 1.313 . S
C43 C44 1.338 . S
C43 N46 1.377 . S
C43 H63 0.930 . S
C44 N42 1.375 . S
C44 C43 1.338 . S
C44 H48 0.931 . S
C45 N42 1.313 . S
C45 N46 1.344 . S
C45 H49 0.930 . S
N46 C43 1.377 . S
N46 C45 1.344 . S
O47 Co39 2.055 . S
O47 C51 1.253 . S
H48 C44 0.931 . S
H49 C45 0.930 . S
O50 Co39 2.039 . S
O50 C40 1.265 . S
C51 O47 1.253 . S
C51 O52 1.227 . S
O52 C51 1.227 . S
N53 Co39 2.140 . S
N53 C56 1.346 . S
N53 C57 1.345 . S
C54 C55 1.387 1_565 S
C54 C58 1.391 . S
C55 C54 1.387 1_545 S
C55 C56 1.369 . S
C55 H64 0.929 . S
C56 N53 1.346 . S
C56 C55 1.369 . S
C56 H59 0.928 . S
C57 N53 1.345 . S
C57 C58 1.371 1_545 S
C57 H60 0.931 . S
C58 C54 1.391 . S
C58 C57 1.371 1_565 S
C58 H65 0.930 . S
H59 C56 0.928 . S
H60 C57 0.931 . S
H61 C37 0.930 . S
H62 C34 0.930 . S
H63 C43 0.930 . S
H64 C55 0.929 . S
H65 C58 0.930 . S
C66 C67 1.351 . S
C66 N69 1.368 . S
C66 H71 0.931 . S
C67 C66 1.351 . S
C67 N68 1.373 . S
C67 H95 0.930 . S
N68 C67 1.373 . S
N68 C70 1.340 . S
N69 C66 1.368 . S
N69 C70 1.321 . S
N69 Co72 2.135 . S
C70 N68 1.340 . S
C70 N69 1.321 . S
C70 H94 0.930 . S
H71 C66 0.931 . S
Co72 N69 2.135 . S
Co72 N75 2.121 . S
Co72 O80 2.055 . S
Co72 O83 2.039 . S
Co72 N86 2.140 . S
C73 O74 1.227 . S
C73 O83 1.265 . S
O74 C73 1.227 . S
N75 Co72 2.121 . S
N75 C77 1.375 . S
N75 C78 1.313 . S
C76 C77 1.338 . S
C76 N79 1.377 . S
C76 H96 0.930 . S
C77 N75 1.375 . S
C77 C76 1.338 . S
C77 H81 0.931 . S
C78 N75 1.313 . S
C78 N79 1.344 . S
C78 H82 0.930 . S
N79 C76 1.377 . S
N79 C78 1.344 . S
O80 Co72 2.055 . S
O80 C84 1.253 . S
H81 C77 0.931 . S
H82 C78 0.930 . S
O83 Co72 2.039 . S
O83 C73 1.265 . S
C84 O80 1.253 . S
C84 O85 1.227 . S
O85 C84 1.227 . S
N86 Co72 2.140 . S
N86 C89 1.346 . S
N86 C90 1.345 . S
C87 C88 1.387 1_455 S
C87 C91 1.391 . S
C88 C87 1.387 1_655 S
C88 C89 1.369 . S
C88 H97 0.929 . S
C89 N86 1.346 . S
C89 C88 1.369 . S
C89 H92 0.928 . S
C90 N86 1.345 . S
C90 C91 1.371 1_655 S
C90 H93 0.931 . S
C91 C87 1.391 . S
C91 C90 1.371 1_455 S
C91 H98 0.930 . S
H92 C89 0.928 . S
H93 C90 0.931 . S
H94 C70 0.930 . S
H95 C67 0.930 . S
H96 C76 0.930 . S
H97 C88 0.929 . S
H98 C91 0.930 . S
C99 C100 1.351 . S
C99 N102 1.368 . S
C99 H104 0.931 . S
C100 C99 1.351 . S
C100 N101 1.373 . S
C100 H128 0.930 . S
N101 C100 1.373 . S
N101 C103 1.340 . S
N102 C99 1.368 . S
N102 C103 1.321 . S
N102 Co105 2.135 . S
C103 N101 1.340 . S
C103 N102 1.321 . S
C103 H127 0.930 . S
H104 C99 0.931 . S
Co105 N102 2.135 . S
Co105 N108 2.121 . S
Co105 O113 2.055 . S
Co105 O116 2.039 . S
Co105 N119 2.140 . S
C106 O107 1.227 . S
C106 O116 1.265 . S
O107 C106 1.227 . S
N108 Co105 2.121 . S
N108 C110 1.375 . S
N108 C111 1.313 . S
C109 C110 1.338 . S
C109 N112 1.377 . S
C109 H129 0.930 . S
C110 N108 1.375 . S
C110 C109 1.338 . S
C110 H114 0.931 . S
C111 N108 1.313 . S
C111 N112 1.344 . S
C111 H115 0.930 . S
N112 C109 1.377 . S
N112 C111 1.344 . S
O113 Co105 2.055 . S
O113 C117 1.253 . S
H114 C110 0.931 . S
H115 C111 0.930 . S
O116 Co105 2.039 . S
O116 C106 1.265 . S
C117 O113 1.253 . S
C117 O118 1.227 . S
O118 C117 1.227 . S
N119 Co105 2.140 . S
N119 C122 1.346 . S
N119 C123 1.345 . S
C120 C121 1.387 1_545 S
C120 C124 1.391 . S
C121 C120 1.387 1_565 S
C121 C122 1.369 . S
C121 H130 0.929 . S
C122 N119 1.346 . S
C122 C121 1.369 . S
C122 H125 0.928 . S
C123 N119 1.345 . S
C123 C124 1.371 1_565 S
C123 H126 0.931 . S
C124 C120 1.391 . S
C124 C123 1.371 1_545 S
C124 H131 0.930 . S
H125 C122 0.928 . S
H126 C123 0.931 . S
H127 C103 0.930 . S
H128 C100 0.930 . S
H129 C109 0.930 . S
H130 C121 0.929 . S
H131 C124 0.930 . S
C132 C133 1.351 . S
C132 N135 1.368 . S
C132 H137 0.931 . S
C133 C132 1.351 . S
C133 N134 1.373 . S
C133 H161 0.930 . S
N134 C133 1.373 . S
N134 C136 1.340 . S
N135 C132 1.368 . S
N135 C136 1.321 . S
N135 Co138 2.135 . S
C136 N134 1.340 . S
C136 N135 1.321 . S
C136 H160 0.930 . S
H137 C132 0.931 . S
Co138 N135 2.135 . S
Co138 N141 2.121 . S
Co138 O146 2.055 . S
Co138 O149 2.039 . S
Co138 N152 2.140 . S
C139 O140 1.227 . S
C139 O149 1.265 . S
O140 C139 1.227 . S
N141 Co138 2.121 . S
N141 C143 1.375 . S
N141 C144 1.313 . S
C142 C143 1.338 . S
C142 N145 1.377 . S
C142 H162 0.930 . S
C143 N141 1.375 . S
C143 C142 1.338 . S
C143 H147 0.931 . S
C144 N141 1.313 . S
C144 N145 1.344 . S
C144 H148 0.930 . S
N145 C142 1.377 . S
N145 C144 1.344 . S
O146 Co138 2.055 . S
O146 C150 1.253 . S
H147 C143 0.931 . S
H148 C144 0.930 . S
O149 Co138 2.039 . S
O149 C139 1.265 . S
C150 O146 1.253 . S
C150 O151 1.227 . S
O151 C150 1.227 . S
N152 Co138 2.140 . S
N152 C155 1.346 . S
N152 C156 1.345 . S
C153 C154 1.387 . S
C153 C157 1.391 . S
C154 C153 1.387 . S
C154 C155 1.369 . S
C154 H163 0.929 . S
C155 N152 1.346 . S
C155 C154 1.369 . S
C155 H158 0.928 . S
C156 N152 1.345 . S
C156 C157 1.371 . S
C156 H159 0.931 . S
C157 C153 1.391 . S
C157 C156 1.371 . S
C157 H164 0.930 . S
H158 C155 0.928 . S
H159 C156 0.931 . S
H160 C136 0.930 . S
H161 C133 0.930 . S
H162 C142 0.930 . S
H163 C154 0.929 . S
H164 C157 0.930 . S
C165 C166 1.351 . S
C165 N168 1.368 . S
C165 H170 0.931 . S
C166 C165 1.351 . S
C166 N167 1.373 . S
C166 H194 0.930 . S
N167 C166 1.373 . S
N167 C169 1.340 . S
N168 C165 1.368 . S
N168 C169 1.321 . S
N168 Co171 2.135 . S
C169 N167 1.340 . S
C169 N168 1.321 . S
C169 H193 0.930 . S
H170 C165 0.931 . S
Co171 N168 2.135 . S
Co171 N174 2.121 . S
Co171 O179 2.055 . S
Co171 O182 2.039 . S
Co171 N185 2.140 . S
C172 O173 1.227 . S
C172 O182 1.265 . S
O173 C172 1.227 . S
N174 Co171 2.121 . S
N174 C176 1.375 . S
N174 C177 1.313 . S
C175 C176 1.338 . S
C175 N178 1.377 . S
C175 H195 0.930 . S
C176 N174 1.375 . S
C176 C175 1.338 . S
C176 H180 0.931 . S
C177 N174 1.313 . S
C177 N178 1.344 . S
C177 H181 0.930 . S
N178 C175 1.377 . S
N178 C177 1.344 . S
O179 Co171 2.055 . S
O179 C183 1.253 . S
H180 C176 0.931 . S
H181 C177 0.930 . S
O182 Co171 2.039 . S
O182 C172 1.265 . S
C183 O179 1.253 . S
C183 O184 1.227 . S
O184 C183 1.227 . S
N185 Co171 2.140 . S
N185 C188 1.346 . S
N185 C189 1.345 . S
C186 C187 1.387 . S
C186 C190 1.391 . S
C187 C186 1.387 . S
C187 C188 1.369 . S
C187 H196 0.929 . S
C188 N185 1.346 . S
C188 C187 1.369 . S
C188 H191 0.928 . S
C189 N185 1.345 . S
C189 C190 1.371 . S
C189 H192 0.931 . S
C190 C186 1.391 . S
C190 C189 1.371 . S
C190 H197 0.930 . S
H191 C188 0.928 . S
H192 C189 0.931 . S
H193 C169 0.930 . S
H194 C166 0.930 . S
H195 C175 0.930 . S
H196 C187 0.929 . S
H197 C190 0.930 . S
C198 C199 1.351 . S
C198 N201 1.368 . S
C198 H203 0.931 . S
C199 C198 1.351 . S
C199 N200 1.373 . S
C199 H227 0.930 . S
N200 C199 1.373 . S
N200 C202 1.340 . S
N201 C198 1.368 . S
N201 C202 1.321 . S
N201 Co204 2.135 . S
C202 N200 1.340 . S
C202 N201 1.321 . S
C202 H226 0.930 . S
H203 C198 0.931 . S
Co204 N201 2.135 . S
Co204 N207 2.121 . S
Co204 O212 2.055 . S
Co204 O215 2.039 . S
Co204 N218 2.140 . S
C205 O206 1.227 . S
C205 O215 1.265 . S
O206 C205 1.227 . S
N207 Co204 2.121 . S
N207 C209 1.375 . S
N207 C210 1.313 . S
C208 C209 1.338 . S
C208 N211 1.377 . S
C208 H228 0.930 . S
C209 N207 1.375 . S
C209 C208 1.338 . S
C209 H213 0.931 . S
C210 N207 1.313 . S
C210 N211 1.344 . S
C210 H214 0.930 . S
N211 C208 1.377 . S
N211 C210 1.344 . S
O212 Co204 2.055 . S
O212 C216 1.253 . S
H213 C209 0.931 . S
H214 C210 0.930 . S
O215 Co204 2.039 . S
O215 C205 1.265 . S
C216 O212 1.253 . S
C216 O217 1.227 . S
O217 C216 1.227 . S
N218 Co204 2.140 . S
N218 C221 1.346 . S
N218 C222 1.345 . S
C219 C220 1.387 . S
C219 C223 1.391 . S
C220 C219 1.387 . S
C220 C221 1.369 . S
C220 H229 0.929 . S
C221 N218 1.346 . S
C221 C220 1.369 . S
C221 H224 0.928 . S
C222 N218 1.345 . S
C222 C223 1.371 . S
C222 H225 0.931 . S
C223 C219 1.391 . S
C223 C222 1.371 . S
C223 H230 0.930 . S
H224 C221 0.928 . S
H225 C222 0.931 . S
H226 C202 0.930 . S
H227 C199 0.930 . S
H228 C208 0.930 . S
H229 C220 0.929 . S
H230 C223 0.930 . S
C231 C232 1.351 . S
C231 N234 1.368 . S
C231 H236 0.931 . S
C232 C231 1.351 . S
C232 N233 1.373 . S
C232 H260 0.930 . S
N233 C232 1.373 . S
N233 C235 1.340 . S
N234 C231 1.368 . S
N234 C235 1.321 . S
N234 Co237 2.135 . S
C235 N233 1.340 . S
C235 N234 1.321 . S
C235 H259 0.930 . S
H236 C231 0.931 . S
Co237 N234 2.135 . S
Co237 N240 2.121 . S
Co237 O245 2.055 . S
Co237 O248 2.039 . S
Co237 N251 2.140 . S
C238 O239 1.227 . S
C238 O248 1.265 . S
O239 C238 1.227 . S
N240 Co237 2.121 . S
N240 C242 1.375 . S
N240 C243 1.313 . S
C241 C242 1.338 . S
C241 N244 1.377 . S
C241 H261 0.930 . S
C242 N240 1.375 . S
C242 C241 1.338 . S
C242 H246 0.931 . S
C243 N240 1.313 . S
C243 N244 1.344 . S
C243 H247 0.930 . S
N244 C241 1.377 . S
N244 C243 1.344 . S
O245 Co237 2.055 . S
O245 C249 1.253 . S
H246 C242 0.931 . S
H247 C243 0.930 . S
O248 Co237 2.039 . S
O248 C238 1.265 . S
C249 O245 1.253 . S
C249 O250 1.227 . S
O250 C249 1.227 . S
N251 Co237 2.140 . S
N251 C254 1.346 . S
N251 C255 1.345 . S
C252 C253 1.387 . S
C252 C256 1.391 . S
C253 C252 1.387 . S
C253 C254 1.369 . S
C253 H262 0.929 . S
C254 N251 1.346 . S
C254 C253 1.369 . S
C254 H257 0.928 . S
C255 N251 1.345 . S
C255 C256 1.371 . S
C255 H258 0.931 . S
C256 C252 1.391 . S
C256 C255 1.371 . S
C256 H263 0.930 . S
H257 C254 0.928 . S
H258 C255 0.931 . S
H259 C235 0.930 . S
H260 C232 0.930 . S
H261 C241 0.930 . S
H262 C253 0.929 . S
H263 C256 0.930 . S
C264 C265 1.351 . S
C264 N267 1.368 . S
C264 H269 0.931 . S
C265 C264 1.351 . S
C265 N266 1.373 . S
C265 H293 0.930 . S
N266 C265 1.373 . S
N266 C268 1.340 . S
N267 C264 1.368 . S
N267 C268 1.321 . S
N267 Co270 2.135 . S
C268 N266 1.340 . S
C268 N267 1.321 . S
C268 H292 0.930 . S
H269 C264 0.931 . S
Co270 N267 2.135 . S
Co270 N273 2.121 . S
Co270 O278 2.055 . S
Co270 O281 2.039 . S
Co270 N284 2.140 . S
C271 O272 1.227 . S
C271 O281 1.265 . S
O272 C271 1.227 . S
N273 Co270 2.121 . S
N273 C275 1.375 . S
N273 C276 1.313 . S
C274 C275 1.338 . S
C274 N277 1.377 . S
C274 H294 0.930 . S
C275 N273 1.375 . S
C275 C274 1.338 . S
C275 H279 0.931 . S
C276 N273 1.313 . S
C276 N277 1.344 . S
C276 H280 0.930 . S
N277 C274 1.377 . S
N277 C276 1.344 . S
O278 Co270 2.055 . S
O278 C282 1.253 . S
H279 C275 0.931 . S
H280 C276 0.930 . S
O281 Co270 2.039 . S
O281 C271 1.265 . S
C282 O278 1.253 . S
C282 O283 1.227 . S
O283 C282 1.227 . S
N284 Co270 2.140 . S
N284 C287 1.346 . S
N284 C288 1.345 . S
C285 C286 1.387 1_455 S
C285 C289 1.391 . S
C286 C285 1.387 1_655 S
C286 C287 1.369 . S
C286 H295 0.929 . S
C287 N284 1.346 . S
C287 C286 1.369 . S
C287 H290 0.928 . S
C288 N284 1.345 . S
C288 C289 1.371 1_655 S
C288 H291 0.931 . S
C289 C285 1.391 . S
C289 C288 1.371 1_455 S
C289 H296 0.930 . S
H290 C287 0.928 . S
H291 C288 0.931 . S
H292 C268 0.930 . S
H293 C265 0.930 . S
H294 C274 0.930 . S
H295 C286 0.929 . S
H296 C289 0.930 . S
C297 C298 1.351 . S
C297 N300 1.368 . S
C297 H302 0.931 . S
C298 C297 1.351 . S
C298 N299 1.373 . S
C298 H326 0.930 . S
N299 C298 1.373 . S
N299 C301 1.340 . S
N300 C297 1.368 . S
N300 C301 1.321 . S
N300 Co303 2.135 . S
C301 N299 1.340 . S
C301 N300 1.321 . S
C301 H325 0.930 . S
H302 C297 0.931 . S
Co303 N300 2.135 . S
Co303 N306 2.121 . S
Co303 O311 2.055 . S
Co303 O314 2.039 . S
Co303 N317 2.140 . S
C304 O305 1.227 . S
C304 O314 1.265 . S
O305 C304 1.227 . S
N306 Co303 2.121 . S
N306 C308 1.375 . S
N306 C309 1.313 . S
C307 C308 1.338 . S
C307 N310 1.377 . S
C307 H327 0.930 . S
C308 N306 1.375 . S
C308 C307 1.338 . S
C308 H312 0.931 . S
C309 N306 1.313 . S
C309 N310 1.344 . S
C309 H313 0.930 . S
N310 C307 1.377 . S
N310 C309 1.344 . S
O311 Co303 2.055 . S
O311 C315 1.253 . S
H312 C308 0.931 . S
H313 C309 0.930 . S
O314 Co303 2.039 . S
O314 C304 1.265 . S
C315 O311 1.253 . S
C315 O316 1.227 . S
O316 C315 1.227 . S
N317 Co303 2.140 . S
N317 C320 1.346 . S
N317 C321 1.345 . S
C318 C319 1.387 1_545 S
C318 C322 1.391 . S
C319 C318 1.387 1_565 S
C319 C320 1.369 . S
C319 H328 0.929 . S
C320 N317 1.346 . S
C320 C319 1.369 . S
C320 H323 0.928 . S
C321 N317 1.345 . S
C321 C322 1.371 1_565 S
C321 H324 0.931 . S
C322 C318 1.391 . S
C322 C321 1.371 1_545 S
C322 H329 0.930 . S
H323 C320 0.928 . S
H324 C321 0.931 . S
H325 C301 0.930 . S
H326 C298 0.930 . S
H327 C307 0.930 . S
H328 C319 0.929 . S
H329 C322 0.930 . S
C330 C331 1.351 . S
C330 N333 1.368 . S
C330 H335 0.931 . S
C331 C330 1.351 . S
C331 N332 1.373 . S
C331 H359 0.930 . S
N332 C331 1.373 . S
N332 C334 1.340 . S
N333 C330 1.368 . S
N333 C334 1.321 . S
N333 Co336 2.135 . S
C334 N332 1.340 . S
C334 N333 1.321 . S
C334 H358 0.930 . S
H335 C330 0.931 . S
Co336 N333 2.135 . S
Co336 N339 2.121 . S
Co336 O344 2.055 . S
Co336 O347 2.039 . S
Co336 N350 2.140 . S
C337 O338 1.227 . S
C337 O347 1.265 . S
O338 C337 1.227 . S
N339 Co336 2.121 . S
N339 C341 1.375 . S
N339 C342 1.313 . S
C340 C341 1.338 . S
C340 N343 1.377 . S
C340 H360 0.930 . S
C341 N339 1.375 . S
C341 C340 1.338 . S
C341 H345 0.931 . S
C342 N339 1.313 . S
C342 N343 1.344 . S
C342 H346 0.930 . S
N343 C340 1.377 . S
N343 C342 1.344 . S
O344 Co336 2.055 . S
O344 C348 1.253 . S
H345 C341 0.931 . S
H346 C342 0.930 . S
O347 Co336 2.039 . S
O347 C337 1.265 . S
C348 O344 1.253 . S
C348 O349 1.227 . S
O349 C348 1.227 . S
N350 Co336 2.140 . S
N350 C353 1.346 . S
N350 C354 1.345 . S
C351 C352 1.387 1_655 S
C351 C355 1.391 . S
C352 C351 1.387 1_455 S
C352 C353 1.369 . S
C352 H361 0.929 . S
C353 N350 1.346 . S
C353 C352 1.369 . S
C353 H356 0.928 . S
C354 N350 1.345 . S
C354 C355 1.371 1_455 S
C354 H357 0.931 . S
C355 C351 1.391 . S
C355 C354 1.371 1_655 S
C355 H362 0.930 . S
H356 C353 0.928 . S
H357 C354 0.931 . S
H358 C334 0.930 . S
H359 C331 0.930 . S
H360 C340 0.930 . S
H361 C352 0.929 . S
H362 C355 0.930 . S
C363 C364 1.351 . S
C363 N366 1.368 . S
C363 H368 0.931 . S
C364 C363 1.351 . S
C364 N365 1.373 . S
C364 H392 0.930 . S
N365 C364 1.373 . S
N365 C367 1.340 . S
N366 C363 1.368 . S
N366 C367 1.321 . S
N366 Co369 2.135 . S
C367 N365 1.340 . S
C367 N366 1.321 . S
C367 H391 0.930 . S
H368 C363 0.931 . S
Co369 N366 2.135 . S
Co369 N372 2.121 . S
Co369 O377 2.055 . S
Co369 O380 2.039 . S
Co369 N383 2.140 . S
C370 O371 1.227 . S
C370 O380 1.265 . S
O371 C370 1.227 . S
N372 Co369 2.121 . S
N372 C374 1.375 . S
N372 C375 1.313 . S
C373 C374 1.338 . S
C373 N376 1.377 . S
C373 H393 0.930 . S
C374 N372 1.375 . S
C374 C373 1.338 . S
C374 H378 0.931 . S
C375 N372 1.313 . S
C375 N376 1.344 . S
C375 H379 0.930 . S
N376 C373 1.377 . S
N376 C375 1.344 . S
O377 Co369 2.055 . S
O377 C381 1.253 . S
H378 C374 0.931 . S
H379 C375 0.930 . S
O380 Co369 2.039 . S
O380 C370 1.265 . S
C381 O377 1.253 . S
C381 O382 1.227 . S
O382 C381 1.227 . S
N383 Co369 2.140 . S
N383 C386 1.346 . S
N383 C387 1.345 . S
C384 C385 1.387 1_565 S
C384 C388 1.391 . S
C385 C384 1.387 1_545 S
C385 C386 1.369 . S
C385 H394 0.929 . S
C386 N383 1.346 . S
C386 C385 1.369 . S
C386 H389 0.928 . S
C387 N383 1.345 . S
C387 C388 1.371 1_545 S
C387 H390 0.931 . S
C388 C384 1.391 . S
C388 C387 1.371 1_565 S
C388 H395 0.930 . S
H389 C386 0.928 . S
H390 C387 0.931 . S
H391 C367 0.930 . S
H392 C364 0.930 . S
H393 C373 0.930 . S
H394 C385 0.929 . S
H395 C388 0.930 . S
C396 C397 1.351 . S
C396 N399 1.368 . S
C396 H401 0.931 . S
C397 C396 1.351 . S
C397 N398 1.373 . S
C397 H425 0.930 . S
N398 C397 1.373 . S
N398 C400 1.340 . S
N399 C396 1.368 . S
N399 C400 1.321 . S
N399 Co402 2.135 . S
C400 N398 1.340 . S
C400 N399 1.321 . S
C400 H424 0.930 . S
H401 C396 0.931 . S
Co402 N399 2.135 . S
Co402 N405 2.121 . S
Co402 O410 2.055 . S
Co402 O413 2.039 . S
Co402 N416 2.140 . S
C403 O404 1.227 . S
C403 O413 1.265 . S
O404 C403 1.227 . S
N405 Co402 2.121 . S
N405 C407 1.375 . S
N405 C408 1.313 . S
C406 C407 1.338 . S
C406 N409 1.377 . S
C406 H426 0.930 . S
C407 N405 1.375 . S
C407 C406 1.338 . S
C407 H411 0.931 . S
C408 N405 1.313 . S
C408 N409 1.344 . S
C408 H412 0.930 . S
N409 C406 1.377 . S
N409 C408 1.344 . S
O410 Co402 2.055 . S
O410 C414 1.253 . S
H411 C407 0.931 . S
H412 C408 0.930 . S
O413 Co402 2.039 . S
O413 C403 1.265 . S
C414 O410 1.253 . S
C414 O415 1.227 . S
O415 C414 1.227 . S
N416 Co402 2.140 . S
N416 C419 1.346 . S
N416 C420 1.345 . S
C417 C418 1.387 . S
C417 C421 1.391 . S
C418 C417 1.387 . S
C418 C419 1.369 . S
C418 H427 0.929 . S
C419 N416 1.346 . S
C419 C418 1.369 . S
C419 H422 0.928 . S
C420 N416 1.345 . S
C420 C421 1.371 . S
C420 H423 0.931 . S
C421 C417 1.391 . S
C421 C420 1.371 . S
C421 H428 0.930 . S
H422 C419 0.928 . S
H423 C420 0.931 . S
H424 C400 0.930 . S
H425 C397 0.930 . S
H426 C406 0.930 . S
H427 C418 0.929 . S
H428 C421 0.930 . S
C429 C430 1.351 . S
C429 N432 1.368 . S
C429 H434 0.931 . S
C430 C429 1.351 . S
C430 N431 1.373 . S
C430 H458 0.930 . S
N431 C430 1.373 . S
N431 C433 1.340 . S
N432 C429 1.368 . S
N432 C433 1.321 . S
N432 Co435 2.135 . S
C433 N431 1.340 . S
C433 N432 1.321 . S
C433 H457 0.930 . S
H434 C429 0.931 . S
Co435 N432 2.135 . S
Co435 N438 2.121 . S
Co435 O443 2.055 . S
Co435 O446 2.039 . S
Co435 N449 2.140 . S
C436 O437 1.227 . S
C436 O446 1.265 . S
O437 C436 1.227 . S
N438 Co435 2.121 . S
N438 C440 1.375 . S
N438 C441 1.313 . S
C439 C440 1.338 . S
C439 N442 1.377 . S
C439 H459 0.930 . S
C440 N438 1.375 . S
C440 C439 1.338 . S
C440 H444 0.931 . S
C441 N438 1.313 . S
C441 N442 1.344 . S
C441 H445 0.930 . S
N442 C439 1.377 . S
N442 C441 1.344 . S
O443 Co435 2.055 . S
O443 C447 1.253 . S
H444 C440 0.931 . S
H445 C441 0.930 . S
O446 Co435 2.039 . S
O446 C436 1.265 . S
C447 O443 1.253 . S
C447 O448 1.227 . S
O448 C447 1.227 . S
N449 Co435 2.140 . S
N449 C452 1.346 . S
N449 C453 1.345 . S
C450 C451 1.387 . S
C450 C454 1.391 . S
C451 C450 1.387 . S
C451 C452 1.369 . S
C451 H460 0.929 . S
C452 N449 1.346 . S
C452 C451 1.369 . S
C452 H455 0.928 . S
C453 N449 1.345 . S
C453 C454 1.371 . S
C453 H456 0.931 . S
C454 C450 1.391 . S
C454 C453 1.371 . S
C454 H461 0.930 . S
H455 C452 0.928 . S
H456 C453 0.931 . S
H457 C433 0.930 . S
H458 C430 0.930 . S
H459 C439 0.930 . S
H460 C451 0.929 . S
H461 C454 0.930 . S
C462 C463 1.351 . S
C462 N465 1.368 . S
C462 H467 0.931 . S
C463 C462 1.351 . S
C463 N464 1.373 . S
C463 H491 0.930 . S
N464 C463 1.373 . S
N464 C466 1.340 . S
N465 C462 1.368 . S
N465 C466 1.321 . S
N465 Co468 2.135 . S
C466 N464 1.340 . S
C466 N465 1.321 . S
C466 H490 0.930 . S
H467 C462 0.931 . S
Co468 N465 2.135 . S
Co468 N471 2.121 . S
Co468 O476 2.055 . S
Co468 O479 2.039 . S
Co468 N482 2.140 . S
C469 O470 1.227 . S
C469 O479 1.265 . S
O470 C469 1.227 . S
N471 Co468 2.121 . S
N471 C473 1.375 . S
N471 C474 1.313 . S
C472 C473 1.338 . S
C472 N475 1.377 . S
C472 H492 0.930 . S
C473 N471 1.375 . S
C473 C472 1.338 . S
C473 H477 0.931 . S
C474 N471 1.313 . S
C474 N475 1.344 . S
C474 H478 0.930 . S
N475 C472 1.377 . S
N475 C474 1.344 . S
O476 Co468 2.055 . S
O476 C480 1.253 . S
H477 C473 0.931 . S
H478 C474 0.930 . S
O479 Co468 2.039 . S
O479 C469 1.265 . S
C480 O476 1.253 . S
C480 O481 1.227 . S
O481 C480 1.227 . S
N482 Co468 2.140 . S
N482 C485 1.346 . S
N482 C486 1.345 . S
C483 C484 1.387 . S
C483 C487 1.391 . S
C484 C483 1.387 . S
C484 C485 1.369 . S
C484 H493 0.929 . S
C485 N482 1.346 . S
C485 C484 1.369 . S
C485 H488 0.928 . S
C486 N482 1.345 . S
C486 C487 1.371 . S
C486 H489 0.931 . S
C487 C483 1.391 . S
C487 C486 1.371 . S
C487 H494 0.930 . S
H488 C485 0.928 . S
H489 C486 0.931 . S
H490 C466 0.930 . S
H491 C463 0.930 . S
H492 C472 0.930 . S
H493 C484 0.929 . S
H494 C487 0.930 . S
C495 C496 1.351 . S
C495 N498 1.368 . S
C495 H500 0.931 . S
C496 C495 1.351 . S
C496 N497 1.373 . S
C496 H524 0.930 . S
N497 C496 1.373 . S
N497 C499 1.340 . S
N498 C495 1.368 . S
N498 C499 1.321 . S
N498 Co501 2.135 . S
C499 N497 1.340 . S
C499 N498 1.321 . S
C499 H523 0.930 . S
H500 C495 0.931 . S
Co501 N498 2.135 . S
Co501 N504 2.121 . S
Co501 O509 2.055 . S
Co501 O512 2.039 . S
Co501 N515 2.140 . S
C502 O503 1.227 . S
C502 O512 1.265 . S
O503 C502 1.227 . S
N504 Co501 2.121 . S
N504 C506 1.375 . S
N504 C507 1.313 . S
C505 C506 1.338 . S
C505 N508 1.377 . S
C505 H525 0.930 . S
C506 N504 1.375 . S
C506 C505 1.338 . S
C506 H510 0.931 . S
C507 N504 1.313 . S
C507 N508 1.344 . S
C507 H511 0.930 . S
N508 C505 1.377 . S
N508 C507 1.344 . S
O509 Co501 2.055 . S
O509 C513 1.253 . S
H510 C506 0.931 . S
H511 C507 0.930 . S
O512 Co501 2.039 . S
O512 C502 1.265 . S
C513 O509 1.253 . S
C513 O514 1.227 . S
O514 C513 1.227 . S
N515 Co501 2.140 . S
N515 C518 1.346 . S
N515 C519 1.345 . S
C516 C517 1.387 . S
C516 C520 1.391 . S
C517 C516 1.387 . S
C517 C518 1.369 . S
C517 H526 0.929 . S
C518 N515 1.346 . S
C518 C517 1.369 . S
C518 H521 0.928 . S
C519 N515 1.345 . S
C519 C520 1.371 . S
C519 H522 0.931 . S
C520 C516 1.391 . S
C520 C519 1.371 . S
C520 H527 0.930 . S
H521 C518 0.928 . S
H522 C519 0.931 . S
H523 C499 0.930 . S
H524 C496 0.930 . S
H525 C505 0.930 . S
H526 C517 0.929 . S
H527 C520 0.930 . S
H528 C540 0.930 . S
H529 C542 0.930 . S
H530 C543 0.930 . S
H531 C547 0.962 . S
H532 C547 0.979 . S
H533 C547 0.939 1_556 S
H534 C548 0.957 1_556 S
H535 C548 0.963 . S
H536 C548 0.959 . S
H537 C551 0.929 . S
H538 C552 0.931 . S
H539 C554 0.930 . S
C540 H528 0.930 . S
C540 C541 1.399 . S
C540 C545 1.399 . S
C541 C540 1.399 . S
C541 C542 1.376 . S
C542 H529 0.930 . S
C542 C541 1.376 . S
C542 C543 1.388 . S
C543 H530 0.930 . S
C543 C542 1.388 . S
C543 C544 1.390 . S
C544 C543 1.390 . S
C544 C545 1.394 . S
C544 C550 1.465 1_556 S
C545 C540 1.399 . S
C545 C544 1.394 . S
C545 C546 1.517 1_556 S
C546 C545 1.517 1_554 S
C546 C547 1.502 . S
C546 C548 1.561 . S
C546 C549 1.525 . S
C547 H531 0.962 . S
C547 H532 0.979 . S
C547 H533 0.939 1_554 S
C547 C546 1.502 . S
C548 H534 0.957 1_554 S
C548 H535 0.963 . S
C548 H536 0.959 . S
C548 C546 1.561 . S
C549 C546 1.525 . S
C549 C550 1.396 . S
C549 C554 1.390 . S
C550 C544 1.465 1_554 S
C550 C549 1.396 . S
C550 C551 1.399 . S
C551 H537 0.929 . S
C551 C550 1.399 . S
C551 C552 1.385 . S
C552 H538 0.931 . S
C552 C551 1.385 . S
C552 C553 1.389 . S
C553 C552 1.389 . S
C553 C554 1.387 . S
C554 H539 0.930 . S
C554 C549 1.390 . S
C554 C553 1.387 . S
H555 C567 0.930 . S
H556 C569 0.930 . S
H557 C570 0.930 . S
H558 C574 0.962 . S
H559 C574 0.979 . S
H560 C574 0.939 1_556 S
H561 C575 0.957 1_556 S
H562 C575 0.963 . S
H563 C575 0.959 . S
H564 C578 0.929 . S
H565 C579 0.931 . S
H566 C581 0.930 . S
C567 H555 0.930 . S
C567 C568 1.399 . S
C567 C572 1.399 . S
C568 C567 1.399 . S
C568 C569 1.376 . S
C569 H556 0.930 . S
C569 C568 1.376 . S
C569 C570 1.388 . S
C570 H557 0.930 . S
C570 C569 1.388 . S
C570 C571 1.390 . S
C571 C570 1.390 . S
C571 C572 1.394 . S
C571 C577 1.465 1_556 S
C572 C567 1.399 . S
C572 C571 1.394 . S
C572 C573 1.517 1_556 S
C573 C572 1.517 1_554 S
C573 C574 1.502 . S
C573 C575 1.561 . S
C573 C576 1.525 . S
C574 H558 0.962 . S
C574 H559 0.979 . S
C574 H560 0.939 1_554 S
C574 C573 1.502 . S
C575 H561 0.957 1_554 S
C575 H562 0.963 . S
C575 H563 0.959 . S
C575 C573 1.561 . S
C576 C573 1.525 . S
C576 C577 1.396 . S
C576 C581 1.390 . S
C577 C571 1.465 1_554 S
C577 C576 1.396 . S
C577 C578 1.399 . S
C578 H564 0.929 . S
C578 C577 1.399 . S
C578 C579 1.385 . S
C579 H565 0.931 . S
C579 C578 1.385 . S
C579 C580 1.389 . S
C580 C579 1.389 . S
C580 C581 1.387 . S
C581 H566 0.930 . S
C581 C576 1.390 . S
C581 C580 1.387 . S
H582 C594 0.930 . S
H583 C596 0.930 . S
H584 C597 0.930 . S
H585 C601 0.962 . S
H586 C601 0.979 . S
H587 C601 0.939 1_556 S
H588 C602 0.957 1_556 S
H589 C602 0.963 . S
H590 C602 0.959 . S
H591 C605 0.929 . S
H592 C606 0.931 . S
H593 C608 0.930 . S
C594 H582 0.930 . S
C594 C595 1.399 . S
C594 C599 1.399 . S
C595 C594 1.399 . S
C595 C596 1.376 . S
C596 H583 0.930 . S
C596 C595 1.376 . S
C596 C597 1.388 . S
C597 H584 0.930 . S
C597 C596 1.388 . S
C597 C598 1.390 . S
C598 C597 1.390 . S
C598 C599 1.394 . S
C598 C604 1.465 1_556 S
C599 C594 1.399 . S
C599 C598 1.394 . S
C599 C600 1.517 1_556 S
C600 C599 1.517 1_554 S
C600 C601 1.502 . S
C600 C602 1.561 . S
C600 C603 1.525 . S
C601 H585 0.962 . S
C601 H586 0.979 . S
C601 H587 0.939 1_554 S
C601 C600 1.502 . S
C602 H588 0.957 1_554 S
C602 H589 0.963 . S
C602 H590 0.959 . S
C602 C600 1.561 . S
C603 C600 1.525 . S
C603 C604 1.396 . S
C603 C608 1.390 . S
C604 C598 1.465 1_554 S
C604 C603 1.396 . S
C604 C605 1.399 . S
C605 H591 0.929 . S
C605 C604 1.399 . S
C605 C606 1.385 . S
C606 H592 0.931 . S
C606 C605 1.385 . S
C606 C607 1.389 . S
C607 C606 1.389 . S
C607 C608 1.387 . S
C608 H593 0.930 . S
C608 C603 1.390 . S
C608 C607 1.387 . S
H609 C621 0.930 . S
H610 C623 0.930 . S
H611 C624 0.930 . S
H612 C628 0.962 . S
H613 C628 0.979 . S
H614 C628 0.939 1_556 S
H615 C629 0.957 1_556 S
H616 C629 0.963 . S
H617 C629 0.959 . S
H618 C632 0.929 . S
H619 C633 0.931 . S
H620 C635 0.930 . S
C621 H609 0.930 . S
C621 C622 1.399 . S
C621 C626 1.399 . S
C622 C621 1.399 . S
C622 C623 1.376 . S
C623 H610 0.930 . S
C623 C622 1.376 . S
C623 C624 1.388 . S
C624 H611 0.930 . S
C624 C623 1.388 . S
C624 C625 1.390 . S
C625 C624 1.390 . S
C625 C626 1.394 . S
C625 C631 1.465 1_556 S
C626 C621 1.399 . S
C626 C625 1.394 . S
C626 C627 1.517 1_556 S
C627 C626 1.517 1_554 S
C627 C628 1.502 . S
C627 C629 1.561 . S
C627 C630 1.525 . S
C628 H612 0.962 . S
C628 H613 0.979 . S
C628 H614 0.939 1_554 S
C628 C627 1.502 . S
C629 H615 0.957 1_554 S
C629 H616 0.963 . S
C629 H617 0.959 . S
C629 C627 1.561 . S
C630 C627 1.525 . S
C630 C631 1.396 . S
C630 C635 1.390 . S
C631 C625 1.465 1_554 S
C631 C630 1.396 . S
C631 C632 1.399 . S
C632 H618 0.929 . S
C632 C631 1.399 . S
C632 C633 1.385 . S
C633 H619 0.931 . S
C633 C632 1.385 . S
C633 C634 1.389 . S
C634 C633 1.389 . S
C634 C635 1.387 . S
C635 H620 0.930 . S
C635 C630 1.390 . S
C635 C634 1.387 . S
H636 C648 0.930 . S
H637 C650 0.930 . S
H638 C651 0.930 . S
H639 C655 0.959 . S
H640 C655 0.959 . S
H641 C655 0.961 . S
H642 C656 0.960 . S
H643 C656 0.961 . S
H644 C656 0.959 . S
H645 C659 0.929 . S
H646 C660 0.931 . S
H647 C662 0.930 . S
C648 H636 0.930 . S
C648 C649 1.399 . S
C648 C653 1.399 . S
C649 C648 1.399 . S
C649 C650 1.376 . S
C650 H637 0.930 . S
C650 C649 1.376 . S
C650 C651 1.388 . S
C651 H638 0.930 . S
C651 C650 1.388 . S
C651 C652 1.390 . S
C652 C651 1.390 . S
C652 C653 1.394 . S
C652 C658 1.465 . S
C653 C648 1.399 . S
C653 C652 1.394 . S
C653 C654 1.516 . S
C654 C653 1.516 . S
C654 C655 1.502 . S
C654 C656 1.561 . S
C654 C657 1.526 . S
C655 H639 0.959 . S
C655 H640 0.959 . S
C655 H641 0.961 . S
C655 C654 1.502 . S
C656 H642 0.960 . S
C656 H643 0.961 . S
C656 H644 0.959 . S
C656 C654 1.561 . S
C657 C654 1.526 . S
C657 C658 1.396 . S
C657 C662 1.390 . S
C658 C652 1.465 . S
C658 C657 1.396 . S
C658 C659 1.399 . S
C659 H645 0.929 . S
C659 C658 1.399 . S
C659 C660 1.385 . S
C660 H646 0.931 . S
C660 C659 1.385 . S
C660 C661 1.389 . S
C661 C660 1.389 . S
C661 C662 1.387 . S
C662 H647 0.930 . S
C662 C657 1.390 . S
C662 C661 1.387 . S
H663 C675 0.930 . S
H664 C677 0.930 . S
H665 C678 0.930 . S
H666 C682 0.959 . S
H667 C682 0.959 . S
H668 C682 0.961 . S
H669 C683 0.960 . S
H670 C683 0.961 . S
H671 C683 0.959 . S
H672 C686 0.929 . S
H673 C687 0.931 . S
H674 C689 0.930 . S
C675 H663 0.930 . S
C675 C676 1.399 . S
C675 C680 1.399 . S
C676 C675 1.399 . S
C676 C677 1.376 . S
C677 H664 0.930 . S
C677 C676 1.376 . S
C677 C678 1.388 . S
C678 H665 0.930 . S
C678 C677 1.388 . S
C678 C679 1.390 . S
C679 C678 1.390 . S
C679 C680 1.394 . S
C679 C685 1.465 . S
C680 C675 1.399 . S
C680 C679 1.394 . S
C680 C681 1.516 . S
C681 C680 1.516 . S
C681 C682 1.502 . S
C681 C683 1.561 . S
C681 C684 1.526 . S
C682 H666 0.959 . S
C682 H667 0.959 . S
C682 H668 0.961 . S
C682 C681 1.502 . S
C683 H669 0.960 . S
C683 H670 0.961 . S
C683 H671 0.959 . S
C683 C681 1.561 . S
C684 C681 1.526 . S
C684 C685 1.396 . S
C684 C689 1.390 . S
C685 C679 1.465 . S
C685 C684 1.396 . S
C685 C686 1.399 . S
C686 H672 0.929 . S
C686 C685 1.399 . S
C686 C687 1.385 . S
C687 H673 0.931 . S
C687 C686 1.385 . S
C687 C688 1.389 . S
C688 C687 1.389 . S
C688 C689 1.387 . S
C689 H674 0.930 . S
C689 C684 1.390 . S
C689 C688 1.387 . S
H690 C702 0.930 . S
H691 C704 0.930 . S
H692 C705 0.930 . S
H693 C709 0.959 . S
H694 C709 0.959 . S
H695 C709 0.961 . S
H696 C710 0.960 . S
H697 C710 0.961 . S
H698 C710 0.959 . S
H699 C713 0.929 . S
H700 C714 0.931 . S
H701 C716 0.930 . S
C702 H690 0.930 . S
C702 C703 1.399 . S
C702 C707 1.399 . S
C703 C702 1.399 . S
C703 C704 1.376 . S
C704 H691 0.930 . S
C704 C703 1.376 . S
C704 C705 1.388 . S
C705 H692 0.930 . S
C705 C704 1.388 . S
C705 C706 1.390 . S
C706 C705 1.390 . S
C706 C707 1.394 . S
C706 C712 1.465 . S
C707 C702 1.399 . S
C707 C706 1.394 . S
C707 C708 1.516 . S
C708 C707 1.516 . S
C708 C709 1.502 . S
C708 C710 1.561 . S
C708 C711 1.526 . S
C709 H693 0.959 . S
C709 H694 0.959 . S
C709 H695 0.961 . S
C709 C708 1.502 . S
C710 H696 0.960 . S
C710 H697 0.961 . S
C710 H698 0.959 . S
C710 C708 1.561 . S
C711 C708 1.526 . S
C711 C712 1.396 . S
C711 C716 1.390 . S
C712 C706 1.465 . S
C712 C711 1.396 . S
C712 C713 1.399 . S
C713 H699 0.929 . S
C713 C712 1.399 . S
C713 C714 1.385 . S
C714 H700 0.931 . S
C714 C713 1.385 . S
C714 C715 1.389 . S
C715 C714 1.389 . S
C715 C716 1.387 . S
C716 H701 0.930 . S
C716 C711 1.390 . S
C716 C715 1.387 . S
H717 C729 0.930 . S
H718 C731 0.930 . S
H719 C732 0.930 . S
H720 C736 0.959 . S
H721 C736 0.959 . S
H722 C736 0.961 . S
H723 C737 0.960 . S
H724 C737 0.961 . S
H725 C737 0.959 . S
H726 C740 0.929 . S
H727 C741 0.931 . S
H728 C743 0.930 . S
C729 H717 0.930 . S
C729 C730 1.399 . S
C729 C734 1.399 . S
C730 C729 1.399 . S
C730 C731 1.376 . S
C731 H718 0.930 . S
C731 C730 1.376 . S
C731 C732 1.388 . S
C732 H719 0.930 . S
C732 C731 1.388 . S
C732 C733 1.390 . S
C733 C732 1.390 . S
C733 C734 1.394 . S
C733 C739 1.465 . S
C734 C729 1.399 . S
C734 C733 1.394 . S
C734 C735 1.516 . S
C735 C734 1.516 . S
C735 C736 1.502 . S
C735 C737 1.561 . S
C735 C738 1.526 . S
C736 H720 0.959 . S
C736 H721 0.959 . S
C736 H722 0.961 . S
C736 C735 1.502 . S
C737 H723 0.960 . S
C737 H724 0.961 . S
C737 H725 0.959 . S
C737 C735 1.561 . S
C738 C735 1.526 . S
C738 C739 1.396 . S
C738 C743 1.390 . S
C739 C733 1.465 . S
C739 C738 1.396 . S
C739 C740 1.399 . S
C740 H726 0.929 . S
C740 C739 1.399 . S
C740 C741 1.385 . S
C741 H727 0.931 . S
C741 C740 1.385 . S
C741 C742 1.389 . S
C742 C741 1.389 . S
C742 C743 1.387 . S
C743 H728 0.930 . S
C743 C738 1.390 . S
C743 C742 1.387 . S
H744 C756 0.930 . S
H745 C758 0.930 . S
H746 C759 0.930 . S
H747 C763 0.959 . S
H748 C763 0.959 . S
H749 C763 0.961 . S
H750 C764 0.960 . S
H751 C764 0.961 . S
H752 C764 0.959 . S
H753 C767 0.929 . S
H754 C768 0.931 . S
H755 C770 0.930 . S
C756 H744 0.930 . S
C756 C757 1.399 . S
C756 C761 1.399 . S
C757 C756 1.399 . S
C757 C758 1.376 . S
C758 H745 0.930 . S
C758 C757 1.376 . S
C758 C759 1.388 . S
C759 H746 0.930 . S
C759 C758 1.388 . S
C759 C760 1.390 . S
C760 C759 1.390 . S
C760 C761 1.394 . S
C760 C766 1.465 . S
C761 C756 1.399 . S
C761 C760 1.394 . S
C761 C762 1.516 . S
C762 C761 1.516 . S
C762 C763 1.502 . S
C762 C764 1.561 . S
C762 C765 1.526 . S
C763 H747 0.959 . S
C763 H748 0.959 . S
C763 H749 0.961 . S
C763 C762 1.502 . S
C764 H750 0.960 . S
C764 H751 0.961 . S
C764 H752 0.959 . S
C764 C762 1.561 . S
C765 C762 1.526 . S
C765 C766 1.396 . S
C765 C770 1.390 . S
C766 C760 1.465 . S
C766 C765 1.396 . S
C766 C767 1.399 . S
C767 H753 0.929 . S
C767 C766 1.399 . S
C767 C768 1.385 . S
C768 H754 0.931 . S
C768 C767 1.385 . S
C768 C769 1.389 . S
C769 C768 1.389 . S
C769 C770 1.387 . S
C770 H755 0.930 . S
C770 C765 1.390 . S
C770 C769 1.387 . S
H771 C783 0.930 . S
H772 C785 0.930 . S
H773 C786 0.930 . S
H774 C790 0.959 . S
H775 C790 0.959 . S
H776 C790 0.961 . S
H777 C791 0.960 . S
H778 C791 0.961 . S
H779 C791 0.959 . S
H780 C794 0.929 . S
H781 C795 0.931 . S
H782 C797 0.930 . S
C783 H771 0.930 . S
C783 C784 1.399 . S
C783 C788 1.399 . S
C784 C783 1.399 . S
C784 C785 1.376 . S
C785 H772 0.930 . S
C785 C784 1.376 . S
C785 C786 1.388 . S
C786 H773 0.930 . S
C786 C785 1.388 . S
C786 C787 1.390 . S
C787 C786 1.390 . S
C787 C788 1.394 . S
C787 C793 1.465 . S
C788 C783 1.399 . S
C788 C787 1.394 . S
C788 C789 1.516 . S
C789 C788 1.516 . S
C789 C790 1.502 . S
C789 C791 1.561 . S
C789 C792 1.526 . S
C790 H774 0.959 . S
C790 H775 0.959 . S
C790 H776 0.961 . S
C790 C789 1.502 . S
C791 H777 0.960 . S
C791 H778 0.961 . S
C791 H779 0.959 . S
C791 C789 1.561 . S
C792 C789 1.526 . S
C792 C793 1.396 . S
C792 C797 1.390 . S
C793 C787 1.465 . S
C793 C792 1.396 . S
C793 C794 1.399 . S
C794 H780 0.929 . S
C794 C793 1.399 . S
C794 C795 1.385 . S
C795 H781 0.931 . S
C795 C794 1.385 . S
C795 C796 1.389 . S
C796 C795 1.389 . S
C796 C797 1.387 . S
C797 H782 0.930 . S
C797 C792 1.390 . S
C797 C796 1.387 . S
H798 C810 0.930 . S
H799 C812 0.930 . S
H800 C813 0.930 . S
H801 C817 0.959 . S
H802 C817 0.959 . S
H803 C817 0.961 . S
H804 C818 0.960 . S
H805 C818 0.961 . S
H806 C818 0.959 . S
H807 C821 0.929 . S
H808 C822 0.931 . S
H809 C824 0.930 . S
C810 H798 0.930 . S
C810 C811 1.399 . S
C810 C815 1.399 . S
C811 C810 1.399 . S
C811 C812 1.376 . S
C812 H799 0.930 . S
C812 C811 1.376 . S
C812 C813 1.388 . S
C813 H800 0.930 . S
C813 C812 1.388 . S
C813 C814 1.390 . S
C814 C813 1.390 . S
C814 C815 1.394 . S
C814 C820 1.465 . S
C815 C810 1.399 . S
C815 C814 1.394 . S
C815 C816 1.516 . S
C816 C815 1.516 . S
C816 C817 1.502 . S
C816 C818 1.561 . S
C816 C819 1.526 . S
C817 H801 0.959 . S
C817 H802 0.959 . S
C817 H803 0.961 . S
C817 C816 1.502 . S
C818 H804 0.960 . S
C818 H805 0.961 . S
C818 H806 0.959 . S
C818 C816 1.561 . S
C819 C816 1.526 . S
C819 C820 1.396 . S
C819 C824 1.390 . S
C820 C814 1.465 . S
C820 C819 1.396 . S
C820 C821 1.399 . S
C821 H807 0.929 . S
C821 C820 1.399 . S
C821 C822 1.385 . S
C822 H808 0.931 . S
C822 C821 1.385 . S
C822 C823 1.389 . S
C823 C822 1.389 . S
C823 C824 1.387 . S
C824 H809 0.930 . S
C824 C819 1.390 . S
C824 C823 1.387 . S
H825 C837 0.930 . S
H826 C839 0.930 . S
H827 C840 0.930 . S
H828 C844 0.959 . S
H829 C844 0.959 . S
H830 C844 0.961 . S
H831 C845 0.960 . S
H832 C845 0.961 . S
H833 C845 0.959 . S
H834 C848 0.929 . S
H835 C849 0.931 . S
H836 C851 0.930 . S
C837 H825 0.930 . S
C837 C838 1.399 . S
C837 C842 1.399 . S
C838 C837 1.399 . S
C838 C839 1.376 . S
C839 H826 0.930 . S
C839 C838 1.376 . S
C839 C840 1.388 . S
C840 H827 0.930 . S
C840 C839 1.388 . S
C840 C841 1.390 . S
C841 C840 1.390 . S
C841 C842 1.394 . S
C841 C847 1.465 . S
C842 C837 1.399 . S
C842 C841 1.394 . S
C842 C843 1.516 . S
C843 C842 1.516 . S
C843 C844 1.502 . S
C843 C845 1.561 . S
C843 C846 1.526 . S
C844 H828 0.959 . S
C844 H829 0.959 . S
C844 H830 0.961 . S
C844 C843 1.502 . S
C845 H831 0.960 . S
C845 H832 0.961 . S
C845 H833 0.959 . S
C845 C843 1.561 . S
C846 C843 1.526 . S
C846 C847 1.396 . S
C846 C851 1.390 . S
C847 C841 1.465 . S
C847 C846 1.396 . S
C847 C848 1.399 . S
C848 H834 0.929 . S
C848 C847 1.399 . S
C848 C849 1.385 . S
C849 H835 0.931 . S
C849 C848 1.385 . S
C849 C850 1.389 . S
C850 C849 1.389 . S
C850 C851 1.387 . S
C851 H836 0.930 . S
C851 C846 1.390 . S
C851 C850 1.387 . S
H852 C864 0.930 . S
H853 C866 0.930 . S
H854 C867 0.930 . S
H855 C871 0.959 . S
H856 C871 0.959 . S
H857 C871 0.961 . S
H858 C872 0.960 . S
H859 C872 0.961 . S
H860 C872 0.959 . S
H861 C875 0.929 . S
H862 C876 0.931 . S
H863 C878 0.930 . S
C864 H852 0.930 . S
C864 C865 1.399 . S
C864 C869 1.399 . S
C865 C864 1.399 . S
C865 C866 1.376 . S
C866 H853 0.930 . S
C866 C865 1.376 . S
C866 C867 1.388 . S
C867 H854 0.930 . S
C867 C866 1.388 . S
C867 C868 1.390 . S
C868 C867 1.390 . S
C868 C869 1.394 . S
C868 C874 1.465 . S
C869 C864 1.399 . S
C869 C868 1.394 . S
C869 C870 1.516 . S
C870 C869 1.516 . S
C870 C871 1.502 . S
C870 C872 1.561 . S
C870 C873 1.526 . S
C871 H855 0.959 . S
C871 H856 0.959 . S
C871 H857 0.961 . S
C871 C870 1.502 . S
C872 H858 0.960 . S
C872 H859 0.961 . S
C872 H860 0.959 . S
C872 C870 1.561 . S
C873 C870 1.526 . S
C873 C874 1.396 . S
C873 C878 1.390 . S
C874 C868 1.465 . S
C874 C873 1.396 . S
C874 C875 1.399 . S
C875 H861 0.929 . S
C875 C874 1.399 . S
C875 C876 1.385 . S
C876 H862 0.931 . S
C876 C875 1.385 . S
C876 C877 1.389 . S
C877 C876 1.389 . S
C877 C878 1.387 . S
C878 H863 0.930 . S
C878 C873 1.390 . S
C878 C877 1.387 . S
H879 C891 0.930 . S
H880 C893 0.930 . S
H881 C894 0.930 . S
H882 C898 0.959 . S
H883 C898 0.959 . S
H884 C898 0.961 . S
H885 C899 0.960 . S
H886 C899 0.961 . S
H887 C899 0.959 . S
H888 C902 0.929 . S
H889 C903 0.931 . S
H890 C905 0.930 . S
C891 H879 0.930 . S
C891 C892 1.399 . S
C891 C896 1.399 . S
C892 C891 1.399 . S
C892 C893 1.376 . S
C893 H880 0.930 . S
C893 C892 1.376 . S
C893 C894 1.388 . S
C894 H881 0.930 . S
C894 C893 1.388 . S
C894 C895 1.390 . S
C895 C894 1.390 . S
C895 C896 1.394 . S
C895 C901 1.465 . S
C896 C891 1.399 . S
C896 C895 1.394 . S
C896 C897 1.516 . S
C897 C896 1.516 . S
C897 C898 1.502 . S
C897 C899 1.561 . S
C897 C900 1.526 . S
C898 H882 0.959 . S
C898 H883 0.959 . S
C898 H884 0.961 . S
C898 C897 1.502 . S
C899 H885 0.960 . S
C899 H886 0.961 . S
C899 H887 0.959 . S
C899 C897 1.561 . S
C900 C897 1.526 . S
C900 C901 1.396 . S
C900 C905 1.390 . S
C901 C895 1.465 . S
C901 C900 1.396 . S
C901 C902 1.399 . S
C902 H888 0.929 . S
C902 C901 1.399 . S
C902 C903 1.385 . S
C903 H889 0.931 . S
C903 C902 1.385 . S
C903 C904 1.389 . S
C904 C903 1.389 . S
C904 C905 1.387 . S
C905 H890 0.930 . S
C905 C900 1.390 . S
C905 C904 1.387 . S
H906 C918 0.930 . S
H907 C920 0.930 . S
H908 C921 0.930 . S
H909 C925 0.959 . S
H910 C925 0.959 . S
H911 C925 0.961 . S
H912 C926 0.960 . S
H913 C926 0.961 . S
H914 C926 0.959 . S
H915 C929 0.929 . S
H916 C930 0.931 . S
H917 C932 0.930 . S
C918 H906 0.930 . S
C918 C919 1.399 . S
C918 C923 1.399 . S
C919 C918 1.399 . S
C919 C920 1.376 . S
C920 H907 0.930 . S
C920 C919 1.376 . S
C920 C921 1.388 . S
C921 H908 0.930 . S
C921 C920 1.388 . S
C921 C922 1.390 . S
C922 C921 1.390 . S
C922 C923 1.394 . S
C922 C928 1.465 . S
C923 C918 1.399 . S
C923 C922 1.394 . S
C923 C924 1.516 . S
C924 C923 1.516 . S
C924 C925 1.502 . S
C924 C926 1.561 . S
C924 C927 1.526 . S
C925 H909 0.959 . S
C925 H910 0.959 . S
C925 H911 0.961 . S
C925 C924 1.502 . S
C926 H912 0.960 . S
C926 H913 0.961 . S
C926 H914 0.959 . S
C926 C924 1.561 . S
C927 C924 1.526 . S
C927 C928 1.396 . S
C927 C932 1.390 . S
C928 C922 1.465 . S
C928 C927 1.396 . S
C928 C929 1.399 . S
C929 H915 0.929 . S
C929 C928 1.399 . S
C929 C930 1.385 . S
C930 H916 0.931 . S
C930 C929 1.385 . S
C930 C931 1.389 . S
C931 C930 1.389 . S
C931 C932 1.387 . S
C932 H917 0.930 . S
C932 C927 1.390 . S
C932 C931 1.387 . S
H933 C945 0.930 . S
H934 C947 0.930 . S
H935 C948 0.930 . S
H936 C952 0.959 . S
H937 C952 0.959 . S
H938 C952 0.961 . S
H939 C953 0.960 . S
H940 C953 0.961 . S
H941 C953 0.959 . S
H942 C956 0.929 . S
H943 C957 0.931 . S
H944 C959 0.930 . S
C945 H933 0.930 . S
C945 C946 1.399 . S
C945 C950 1.399 . S
C946 C945 1.399 . S
C946 C947 1.376 . S
C947 H934 0.930 . S
C947 C946 1.376 . S
C947 C948 1.388 . S
C948 H935 0.930 . S
C948 C947 1.388 . S
C948 C949 1.390 . S
C949 C948 1.390 . S
C949 C950 1.394 . S
C949 C955 1.465 . S
C950 C945 1.399 . S
C950 C949 1.394 . S
C950 C951 1.516 . S
C951 C950 1.516 . S
C951 C952 1.502 . S
C951 C953 1.561 . S
C951 C954 1.526 . S
C952 H936 0.959 . S
C952 H937 0.959 . S
C952 H938 0.961 . S
C952 C951 1.502 . S
C953 H939 0.960 . S
C953 H940 0.961 . S
C953 H941 0.959 . S
C953 C951 1.561 . S
C954 C951 1.526 . S
C954 C955 1.396 . S
C954 C959 1.390 . S
C955 C949 1.465 . S
C955 C954 1.396 . S
C955 C956 1.399 . S
C956 H942 0.929 . S
C956 C955 1.399 . S
C956 C957 1.385 . S
C957 H943 0.931 . S
C957 C956 1.385 . S
C957 C958 1.389 . S
C958 C957 1.389 . S
C958 C959 1.387 . S
C959 H944 0.930 . S
C959 C954 1.390 . S
C959 C958 1.387 . S
H960 C972 0.930 . S
H961 C974 0.930 . S
H962 C975 0.930 . S
H963 C979 0.959 . S
H964 C979 0.959 . S
H965 C979 0.961 . S
H966 C980 0.960 . S
H967 C980 0.961 . S
H968 C980 0.959 . S
H969 C983 0.929 . S
H970 C984 0.931 . S
H971 C986 0.930 . S
C972 H960 0.930 . S
C972 C973 1.399 . S
C972 C977 1.399 . S
C973 C972 1.399 . S
C973 C974 1.376 . S
C974 H961 0.930 . S
C974 C973 1.376 . S
C974 C975 1.388 . S
C975 H962 0.930 . S
C975 C974 1.388 . S
C975 C976 1.390 . S
C976 C975 1.390 . S
C976 C977 1.394 . S
C976 C982 1.465 . S
C977 C972 1.399 . S
C977 C976 1.394 . S
C977 C978 1.516 . S
C978 C977 1.516 . S
C978 C979 1.502 . S
C978 C980 1.561 . S
C978 C981 1.526 . S
C979 H963 0.959 . S
C979 H964 0.959 . S
C979 H965 0.961 . S
C979 C978 1.502 . S
C980 H966 0.960 . S
C980 H967 0.961 . S
C980 H968 0.959 . S
C980 C978 1.561 . S
C981 C978 1.526 . S
C981 C982 1.396 . S
C981 C986 1.390 . S
C982 C976 1.465 . S
C982 C981 1.396 . S
C982 C983 1.399 . S
C983 H969 0.929 . S
C983 C982 1.399 . S
C983 C984 1.385 . S
C984 H970 0.931 . S
C984 C983 1.385 . S
C984 C985 1.389 . S
C985 C984 1.389 . S
C985 C986 1.387 . S
C986 H971 0.930 . S
C986 C981 1.390 . S
C986 C985 1.387 . S
H987 C999 0.930 . S
H988 C1001 0.930 . S
H989 C1002 0.930 . S
H990 C1006 0.959 . S
H991 C1006 0.959 . S
H992 C1006 0.961 . S
H993 C1007 0.960 . S
H994 C1007 0.961 . S
H995 C1007 0.959 . S
H996 C1010 0.929 . S
H997 C1011 0.931 . S
H998 C1013 0.930 . S
C999 H987 0.930 . S
C999 C1000 1.399 . S
C999 C1004 1.399 . S
C1000 C999 1.399 . S
C1000 C1001 1.376 . S
C1001 H988 0.930 . S
C1001 C1000 1.376 . S
C1001 C1002 1.388 . S
C1002 H989 0.930 . S
C1002 C1001 1.388 . S
C1002 C1003 1.390 . S
C1003 C1002 1.390 . S
C1003 C1004 1.394 . S
C1003 C1009 1.465 . S
C1004 C999 1.399 . S
C1004 C1003 1.394 . S
C1004 C1005 1.516 . S
C1005 C1004 1.516 . S
C1005 C1006 1.502 . S
C1005 C1007 1.561 . S
C1005 C1008 1.526 . S
C1006 H990 0.959 . S
C1006 H991 0.959 . S
C1006 H992 0.961 . S
C1006 C1005 1.502 . S
C1007 H993 0.960 . S
C1007 H994 0.961 . S
C1007 H995 0.959 . S
C1007 C1005 1.561 . S
C1008 C1005 1.526 . S
C1008 C1009 1.396 . S
C1008 C1013 1.390 . S
C1009 C1003 1.465 . S
C1009 C1008 1.396 . S
C1009 C1010 1.399 . S
C1010 H996 0.929 . S
C1010 C1009 1.399 . S
C1010 C1011 1.385 . S
C1011 H997 0.931 . S
C1011 C1010 1.385 . S
C1011 C1012 1.389 . S
C1012 C1011 1.389 . S
C1012 C1013 1.387 . S
C1013 H998 0.930 . S
C1013 C1008 1.390 . S
C1013 C1012 1.387 . S
H1014 C1026 0.930 . S
H1015 C1028 0.930 . S
H1016 C1029 0.930 . S
H1017 C1033 0.959 . S
H1018 C1033 0.959 . S
H1019 C1033 0.961 . S
H1020 C1034 0.960 . S
H1021 C1034 0.961 . S
H1022 C1034 0.959 . S
H1023 C1037 0.929 . S
H1024 C1038 0.931 . S
H1025 C1040 0.930 . S
C1026 H1014 0.930 . S
C1026 C1027 1.399 . S
C1026 C1031 1.399 . S
C1027 C1026 1.399 . S
C1027 C1028 1.376 . S
C1028 H1015 0.930 . S
C1028 C1027 1.376 . S
C1028 C1029 1.388 . S
C1029 H1016 0.930 . S
C1029 C1028 1.388 . S
C1029 C1030 1.390 . S
C1030 C1029 1.390 . S
C1030 C1031 1.394 . S
C1030 C1036 1.465 . S
C1031 C1026 1.399 . S
C1031 C1030 1.394 . S
C1031 C1032 1.516 . S
C1032 C1031 1.516 . S
C1032 C1033 1.502 . S
C1032 C1034 1.561 . S
C1032 C1035 1.526 . S
C1033 H1017 0.959 . S
C1033 H1018 0.959 . S
C1033 H1019 0.961 . S
C1033 C1032 1.502 . S
C1034 H1020 0.960 . S
C1034 H1021 0.961 . S
C1034 H1022 0.959 . S
C1034 C1032 1.561 . S
C1035 C1032 1.526 . S
C1035 C1036 1.396 . S
C1035 C1040 1.390 . S
C1036 C1030 1.465 . S
C1036 C1035 1.396 . S
C1036 C1037 1.399 . S
C1037 H1023 0.929 . S
C1037 C1036 1.399 . S
C1037 C1038 1.385 . S
C1038 H1024 0.931 . S
C1038 C1037 1.385 . S
C1038 C1039 1.389 . S
C1039 C1038 1.389 . S
C1039 C1040 1.387 . S
C1040 H1025 0.930 . S
C1040 C1035 1.390 . S
C1040 C1039 1.387 . S
H1041 C1053 0.930 . S
H1042 C1055 0.930 . S
H1043 C1056 0.930 . S
H1044 C1060 0.959 . S
H1045 C1060 0.959 . S
H1046 C1060 0.961 . S
H1047 C1061 0.960 . S
H1048 C1061 0.961 . S
H1049 C1061 0.959 . S
H1050 C1064 0.929 . S
H1051 C1065 0.931 . S
H1052 C1067 0.930 . S
C1053 H1041 0.930 . S
C1053 C1054 1.399 . S
C1053 C1058 1.399 . S
C1054 C1053 1.399 . S
C1054 C1055 1.376 . S
C1055 H1042 0.930 . S
C1055 C1054 1.376 . S
C1055 C1056 1.388 . S
C1056 H1043 0.930 . S
C1056 C1055 1.388 . S
C1056 C1057 1.390 . S
C1057 C1056 1.390 . S
C1057 C1058 1.394 . S
C1057 C1063 1.465 . S
C1058 C1053 1.399 . S
C1058 C1057 1.394 . S
C1058 C1059 1.516 . S
C1059 C1058 1.516 . S
C1059 C1060 1.502 . S
C1059 C1061 1.561 . S
C1059 C1062 1.526 . S
C1060 H1044 0.959 . S
C1060 H1045 0.959 . S
C1060 H1046 0.961 . S
C1060 C1059 1.502 . S
C1061 H1047 0.960 . S
C1061 H1048 0.961 . S
C1061 H1049 0.959 . S
C1061 C1059 1.561 . S
C1062 C1059 1.526 . S
C1062 C1063 1.396 . S
C1062 C1067 1.390 . S
C1063 C1057 1.465 . S
C1063 C1062 1.396 . S
C1063 C1064 1.399 . S
C1064 H1050 0.929 . S
C1064 C1063 1.399 . S
C1064 C1065 1.385 . S
C1065 H1051 0.931 . S
C1065 C1064 1.385 . S
C1065 C1066 1.389 . S
C1066 C1065 1.389 . S
C1066 C1067 1.387 . S
C1067 H1052 0.930 . S
C1067 C1062 1.390 . S
C1067 C1066 1.387 . S
H1068 C1080 0.930 . S
H1069 C1082 0.930 . S
H1070 C1083 0.930 . S
H1071 C1087 0.959 . S
H1072 C1087 0.959 . S
H1073 C1087 0.961 . S
H1074 C1088 0.960 . S
H1075 C1088 0.961 . S
H1076 C1088 0.959 . S
H1077 C1091 0.929 . S
H1078 C1092 0.931 . S
H1079 C1094 0.930 . S
C1080 H1068 0.930 . S
C1080 C1081 1.399 . S
C1080 C1085 1.399 . S
C1081 C1080 1.399 . S
C1081 C1082 1.376 . S
C1082 H1069 0.930 . S
C1082 C1081 1.376 . S
C1082 C1083 1.388 . S
C1083 H1070 0.930 . S
C1083 C1082 1.388 . S
C1083 C1084 1.390 . S
C1084 C1083 1.390 . S
C1084 C1085 1.394 . S
C1084 C1090 1.465 . S
C1085 C1080 1.399 . S
C1085 C1084 1.394 . S
C1085 C1086 1.516 . S
C1086 C1085 1.516 . S
C1086 C1087 1.502 . S
C1086 C1088 1.561 . S
C1086 C1089 1.526 . S
C1087 H1071 0.959 . S
C1087 H1072 0.959 . S
C1087 H1073 0.961 . S
C1087 C1086 1.502 . S
C1088 H1074 0.960 . S
C1088 H1075 0.961 . S
C1088 H1076 0.959 . S
C1088 C1086 1.561 . S
C1089 C1086 1.526 . S
C1089 C1090 1.396 . S
C1089 C1094 1.390 . S
C1090 C1084 1.465 . S
C1090 C1089 1.396 . S
C1090 C1091 1.399 . S
C1091 H1077 0.929 . S
C1091 C1090 1.399 . S
C1091 C1092 1.385 . S
C1092 H1078 0.931 . S
C1092 C1091 1.385 . S
C1092 C1093 1.389 . S
C1093 C1092 1.389 . S
C1093 C1094 1.387 . S
C1094 H1079 0.930 . S
C1094 C1089 1.390 . S
C1094 C1093 1.387 . S
H1095 C1107 0.930 . S
H1096 C1109 0.930 . S
H1097 C1110 0.930 . S
H1098 C1114 0.959 . S
H1099 C1114 0.959 . S
H1100 C1114 0.961 . S
H1101 C1115 0.960 . S
H1102 C1115 0.961 . S
H1103 C1115 0.959 . S
H1104 C1118 0.929 . S
H1105 C1119 0.931 . S
H1106 C1121 0.930 . S
C1107 H1095 0.930 . S
C1107 C1108 1.399 . S
C1107 C1112 1.399 . S
C1108 C1107 1.399 . S
C1108 C1109 1.376 . S
C1109 H1096 0.930 . S
C1109 C1108 1.376 . S
C1109 C1110 1.388 . S
C1110 H1097 0.930 . S
C1110 C1109 1.388 . S
C1110 C1111 1.390 . S
C1111 C1110 1.390 . S
C1111 C1112 1.394 . S
C1111 C1117 1.465 . S
C1112 C1107 1.399 . S
C1112 C1111 1.394 . S
C1112 C1113 1.516 . S
C1113 C1112 1.516 . S
C1113 C1114 1.502 . S
C1113 C1115 1.561 . S
C1113 C1116 1.526 . S
C1114 H1098 0.959 . S
C1114 H1099 0.959 . S
C1114 H1100 0.961 . S
C1114 C1113 1.502 . S
C1115 H1101 0.960 . S
C1115 H1102 0.961 . S
C1115 H1103 0.959 . S
C1115 C1113 1.561 . S
C1116 C1113 1.526 . S
C1116 C1117 1.396 . S
C1116 C1121 1.390 . S
C1117 C1111 1.465 . S
C1117 C1116 1.396 . S
C1117 C1118 1.399 . S
C1118 H1104 0.929 . S
C1118 C1117 1.399 . S
C1118 C1119 1.385 . S
C1119 H1105 0.931 . S
C1119 C1118 1.385 . S
C1119 C1120 1.389 . S
C1120 C1119 1.389 . S
C1120 C1121 1.387 . S
C1121 H1106 0.930 . S
C1121 C1116 1.390 . S
C1121 C1120 1.387 . S
H1122 C1134 0.930 . S
H1123 C1136 0.930 . S
H1124 C1137 0.930 . S
H1125 C1141 0.959 . S
H1126 C1141 0.959 . S
H1127 C1141 0.961 . S
H1128 C1142 0.960 . S
H1129 C1142 0.961 . S
H1130 C1142 0.959 . S
H1131 C1145 0.929 . S
H1132 C1146 0.931 . S
H1133 C1148 0.930 . S
C1134 H1122 0.930 . S
C1134 C1135 1.399 . S
C1134 C1139 1.399 . S
C1135 C1134 1.399 . S
C1135 C1136 1.376 . S
C1136 H1123 0.930 . S
C1136 C1135 1.376 . S
C1136 C1137 1.388 . S
C1137 H1124 0.930 . S
C1137 C1136 1.388 . S
C1137 C1138 1.390 . S
C1138 C1137 1.390 . S
C1138 C1139 1.394 . S
C1138 C1144 1.465 . S
C1139 C1134 1.399 . S
C1139 C1138 1.394 . S
C1139 C1140 1.516 . S
C1140 C1139 1.516 . S
C1140 C1141 1.502 . S
C1140 C1142 1.561 . S
C1140 C1143 1.526 . S
C1141 H1125 0.959 . S
C1141 H1126 0.959 . S
C1141 H1127 0.961 . S
C1141 C1140 1.502 . S
C1142 H1128 0.960 . S
C1142 H1129 0.961 . S
C1142 H1130 0.959 . S
C1142 C1140 1.561 . S
C1143 C1140 1.526 . S
C1143 C1144 1.396 . S
C1143 C1148 1.390 . S
C1144 C1138 1.465 . S
C1144 C1143 1.396 . S
C1144 C1145 1.399 . S
C1145 H1131 0.929 . S
C1145 C1144 1.399 . S
C1145 C1146 1.385 . S
C1146 H1132 0.931 . S
C1146 C1145 1.385 . S
C1146 C1147 1.389 . S
C1147 C1146 1.389 . S
C1147 C1148 1.387 . S
C1148 H1133 0.930 . S
C1148 C1143 1.390 . S
C1148 C1147 1.387 . S
H1149 C1161 0.930 . S
H1150 C1163 0.930 . S
H1151 C1164 0.930 . S
H1152 C1168 0.959 . S
H1153 C1168 0.959 . S
H1154 C1168 0.961 . S
H1155 C1169 0.960 . S
H1156 C1169 0.961 . S
H1157 C1169 0.959 . S
H1158 C1172 0.929 . S
H1159 C1173 0.931 . S
H1160 C1175 0.930 . S
C1161 H1149 0.930 . S
C1161 C1162 1.399 . S
C1161 C1166 1.399 . S
C1162 C1161 1.399 . S
C1162 C1163 1.376 . S
C1163 H1150 0.930 . S
C1163 C1162 1.376 . S
C1163 C1164 1.388 . S
C1164 H1151 0.930 . S
C1164 C1163 1.388 . S
C1164 C1165 1.390 . S
C1165 C1164 1.390 . S
C1165 C1166 1.394 . S
C1165 C1171 1.465 . S
C1166 C1161 1.399 . S
C1166 C1165 1.394 . S
C1166 C1167 1.516 . S
C1167 C1166 1.516 . S
C1167 C1168 1.502 . S
C1167 C1169 1.561 . S
C1167 C1170 1.526 . S
C1168 H1152 0.959 . S
C1168 H1153 0.959 . S
C1168 H1154 0.961 . S
C1168 C1167 1.502 . S
C1169 H1155 0.960 . S
C1169 H1156 0.961 . S
C1169 H1157 0.959 . S
C1169 C1167 1.561 . S
C1170 C1167 1.526 . S
C1170 C1171 1.396 . S
C1170 C1175 1.390 . S
C1171 C1165 1.465 . S
C1171 C1170 1.396 . S
C1171 C1172 1.399 . S
C1172 H1158 0.929 . S
C1172 C1171 1.399 . S
C1172 C1173 1.385 . S
C1173 H1159 0.931 . S
C1173 C1172 1.385 . S
C1173 C1174 1.389 . S
C1174 C1173 1.389 . S
C1174 C1175 1.387 . S
C1175 H1160 0.930 . S
C1175 C1170 1.390 . S
C1175 C1174 1.387 . S
H1176 C1188 0.930 . S
H1177 C1190 0.930 . S
H1178 C1191 0.930 . S
H1179 C1195 0.959 . S
H1180 C1195 0.959 . S
H1181 C1195 0.961 . S
H1182 C1196 0.960 . S
H1183 C1196 0.961 . S
H1184 C1196 0.959 . S
H1185 C1199 0.929 . S
H1186 C1200 0.931 . S
H1187 C1202 0.930 . S
C1188 H1176 0.930 . S
C1188 C1189 1.399 . S
C1188 C1193 1.399 . S
C1189 C1188 1.399 . S
C1189 C1190 1.376 . S
C1190 H1177 0.930 . S
C1190 C1189 1.376 . S
C1190 C1191 1.388 . S
C1191 H1178 0.930 . S
C1191 C1190 1.388 . S
C1191 C1192 1.390 . S
C1192 C1191 1.390 . S
C1192 C1193 1.394 . S
C1192 C1198 1.465 . S
C1193 C1188 1.399 . S
C1193 C1192 1.394 . S
C1193 C1194 1.516 . S
C1194 C1193 1.516 . S
C1194 C1195 1.502 . S
C1194 C1196 1.561 . S
C1194 C1197 1.526 . S
C1195 H1179 0.959 . S
C1195 H1180 0.959 . S
C1195 H1181 0.961 . S
C1195 C1194 1.502 . S
C1196 H1182 0.960 . S
C1196 H1183 0.961 . S
C1196 H1184 0.959 . S
C1196 C1194 1.561 . S
C1197 C1194 1.526 . S
C1197 C1198 1.396 . S
C1197 C1202 1.390 . S
C1198 C1192 1.465 . S
C1198 C1197 1.396 . S
C1198 C1199 1.399 . S
C1199 H1185 0.929 . S
C1199 C1198 1.399 . S
C1199 C1200 1.385 . S
C1200 H1186 0.931 . S
C1200 C1199 1.385 . S
C1200 C1201 1.389 . S
C1201 C1200 1.389 . S
C1201 C1202 1.387 . S
C1202 H1187 0.930 . S
C1202 C1197 1.390 . S
C1202 C1201 1.387 . S
H1203 C1215 0.930 . S
H1204 C1217 0.930 . S
H1205 C1218 0.930 . S
H1206 C1222 0.959 . S
H1207 C1222 0.959 . S
H1208 C1222 0.961 . S
H1209 C1223 0.960 . S
H1210 C1223 0.961 . S
H1211 C1223 0.959 . S
H1212 C1226 0.929 . S
H1213 C1227 0.931 . S
H1214 C1229 0.930 . S
C1215 H1203 0.930 . S
C1215 C1216 1.399 . S
C1215 C1220 1.399 . S
C1216 C1215 1.399 . S
C1216 C1217 1.376 . S
C1217 H1204 0.930 . S
C1217 C1216 1.376 . S
C1217 C1218 1.388 . S
C1218 H1205 0.930 . S
C1218 C1217 1.388 . S
C1218 C1219 1.390 . S
C1219 C1218 1.390 . S
C1219 C1220 1.394 . S
C1219 C1225 1.465 . S
C1220 C1215 1.399 . S
C1220 C1219 1.394 . S
C1220 C1221 1.516 . S
C1221 C1220 1.516 . S
C1221 C1222 1.502 . S
C1221 C1223 1.561 . S
C1221 C1224 1.526 . S
C1222 H1206 0.959 . S
C1222 H1207 0.959 . S
C1222 H1208 0.961 . S
C1222 C1221 1.502 . S
C1223 H1209 0.960 . S
C1223 H1210 0.961 . S
C1223 H1211 0.959 . S
C1223 C1221 1.561 . S
C1224 C1221 1.526 . S
C1224 C1225 1.396 . S
C1224 C1229 1.390 . S
C1225 C1219 1.465 . S
C1225 C1224 1.396 . S
C1225 C1226 1.399 . S
C1226 H1212 0.929 . S
C1226 C1225 1.399 . S
C1226 C1227 1.385 . S
C1227 H1213 0.931 . S
C1227 C1226 1.385 . S
C1227 C1228 1.389 . S
C1228 C1227 1.389 . S
C1228 C1229 1.387 . S
C1229 H1214 0.930 . S
C1229 C1224 1.390 . S
C1229 C1228 1.387 . S
H1230 C1242 0.930 . S
H1231 C1244 0.930 . S
H1232 C1245 0.930 . S
H1233 C1249 0.959 . S
H1234 C1249 0.959 . S
H1235 C1249 0.961 . S
H1236 C1250 0.960 . S
H1237 C1250 0.961 . S
H1238 C1250 0.959 . S
H1239 C1253 0.929 . S
H1240 C1254 0.931 . S
H1241 C1256 0.930 . S
C1242 H1230 0.930 . S
C1242 C1243 1.399 . S
C1242 C1247 1.399 . S
C1243 C1242 1.399 . S
C1243 C1244 1.376 . S
C1244 H1231 0.930 . S
C1244 C1243 1.376 . S
C1244 C1245 1.388 . S
C1245 H1232 0.930 . S
C1245 C1244 1.388 . S
C1245 C1246 1.390 . S
C1246 C1245 1.390 . S
C1246 C1247 1.394 . S
C1246 C1252 1.465 . S
C1247 C1242 1.399 . S
C1247 C1246 1.394 . S
C1247 C1248 1.516 . S
C1248 C1247 1.516 . S
C1248 C1249 1.502 . S
C1248 C1250 1.561 . S
C1248 C1251 1.526 . S
C1249 H1233 0.959 . S
C1249 H1234 0.959 . S
C1249 H1235 0.961 . S
C1249 C1248 1.502 . S
C1250 H1236 0.960 . S
C1250 H1237 0.961 . S
C1250 H1238 0.959 . S
C1250 C1248 1.561 . S
C1251 C1248 1.526 . S
C1251 C1252 1.396 . S
C1251 C1256 1.390 . S
C1252 C1246 1.465 . S
C1252 C1251 1.396 . S
C1252 C1253 1.399 . S
C1253 H1239 0.929 . S
C1253 C1252 1.399 . S
C1253 C1254 1.385 . S
C1254 H1240 0.931 . S
C1254 C1253 1.385 . S
C1254 C1255 1.389 . S
C1255 C1254 1.389 . S
C1255 C1256 1.387 . S
C1256 H1241 0.930 . S
C1256 C1251 1.390 . S
C1256 C1255 1.387 . S
H1257 C1269 0.930 . S
H1258 C1271 0.930 . S
H1259 C1272 0.930 . S
H1260 C1276 0.959 . S
H1261 C1276 0.959 . S
H1262 C1276 0.961 . S
H1263 C1277 0.960 . S
H1264 C1277 0.961 . S
H1265 C1277 0.959 . S
H1266 C1280 0.929 . S
H1267 C1281 0.931 . S
H1268 C1283 0.930 . S
C1269 H1257 0.930 . S
C1269 C1270 1.399 . S
C1269 C1274 1.399 . S
C1270 C1269 1.399 . S
C1270 C1271 1.376 . S
C1271 H1258 0.930 . S
C1271 C1270 1.376 . S
C1271 C1272 1.388 . S
C1272 H1259 0.930 . S
C1272 C1271 1.388 . S
C1272 C1273 1.390 . S
C1273 C1272 1.390 . S
C1273 C1274 1.394 . S
C1273 C1279 1.465 . S
C1274 C1269 1.399 . S
C1274 C1273 1.394 . S
C1274 C1275 1.516 . S
C1275 C1274 1.516 . S
C1275 C1276 1.502 . S
C1275 C1277 1.561 . S
C1275 C1278 1.526 . S
C1276 H1260 0.959 . S
C1276 H1261 0.959 . S
C1276 H1262 0.961 . S
C1276 C1275 1.502 . S
C1277 H1263 0.960 . S
C1277 H1264 0.961 . S
C1277 H1265 0.959 . S
C1277 C1275 1.561 . S
C1278 C1275 1.526 . S
C1278 C1279 1.396 . S
C1278 C1283 1.390 . S
C1279 C1273 1.465 . S
C1279 C1278 1.396 . S
C1279 C1280 1.399 . S
C1280 H1266 0.929 . S
C1280 C1279 1.399 . S
C1280 C1281 1.385 . S
C1281 H1267 0.931 . S
C1281 C1280 1.385 . S
C1281 C1282 1.389 . S
C1282 C1281 1.389 . S
C1282 C1283 1.387 . S
C1283 H1268 0.930 . S
C1283 C1278 1.390 . S
C1283 C1282 1.387 . S
H1284 C1296 0.930 . S
H1285 C1298 0.930 . S
H1286 C1299 0.930 . S
H1287 C1303 0.959 . S
H1288 C1303 0.959 . S
H1289 C1303 0.961 . S
H1290 C1304 0.960 . S
H1291 C1304 0.961 . S
H1292 C1304 0.959 . S
H1293 C1307 0.929 . S
H1294 C1308 0.931 . S
H1295 C1310 0.930 . S
C1296 H1284 0.930 . S
C1296 C1297 1.399 . S
C1296 C1301 1.399 . S
C1297 C1296 1.399 . S
C1297 C1298 1.376 . S
C1298 H1285 0.930 . S
C1298 C1297 1.376 . S
C1298 C1299 1.388 . S
C1299 H1286 0.930 . S
C1299 C1298 1.388 . S
C1299 C1300 1.390 . S
C1300 C1299 1.390 . S
C1300 C1301 1.394 . S
C1300 C1306 1.465 . S
C1301 C1296 1.399 . S
C1301 C1300 1.394 . S
C1301 C1302 1.516 . S
C1302 C1301 1.516 . S
C1302 C1303 1.502 . S
C1302 C1304 1.561 . S
C1302 C1305 1.526 . S
C1303 H1287 0.959 . S
C1303 H1288 0.959 . S
C1303 H1289 0.961 . S
C1303 C1302 1.502 . S
C1304 H1290 0.960 . S
C1304 H1291 0.961 . S
C1304 H1292 0.959 . S
C1304 C1302 1.561 . S
C1305 C1302 1.526 . S
C1305 C1306 1.396 . S
C1305 C1310 1.390 . S
C1306 C1300 1.465 . S
C1306 C1305 1.396 . S
C1306 C1307 1.399 . S
C1307 H1293 0.929 . S
C1307 C1306 1.399 . S
C1307 C1308 1.385 . S
C1308 H1294 0.931 . S
C1308 C1307 1.385 . S
C1308 C1309 1.389 . S
C1309 C1308 1.389 . S
C1309 C1310 1.387 . S
C1310 H1295 0.930 . S
C1310 C1305 1.390 . S
C1310 C1309 1.387 . S
H1311 C1323 0.930 . S
H1312 C1325 0.930 . S
H1313 C1326 0.930 . S
H1314 C1330 0.959 . S
H1315 C1330 0.959 . S
H1316 C1330 0.961 . S
H1317 C1331 0.960 . S
H1318 C1331 0.961 . S
H1319 C1331 0.959 . S
H1320 C1334 0.929 . S
H1321 C1335 0.931 . S
H1322 C1337 0.930 . S
C1323 H1311 0.930 . S
C1323 C1324 1.399 . S
C1323 C1328 1.399 . S
C1324 C1323 1.399 . S
C1324 C1325 1.376 . S
C1325 H1312 0.930 . S
C1325 C1324 1.376 . S
C1325 C1326 1.388 . S
C1326 H1313 0.930 . S
C1326 C1325 1.388 . S
C1326 C1327 1.390 . S
C1327 C1326 1.390 . S
C1327 C1328 1.394 . S
C1327 C1333 1.465 . S
C1328 C1323 1.399 . S
C1328 C1327 1.394 . S
C1328 C1329 1.516 . S
C1329 C1328 1.516 . S
C1329 C1330 1.502 . S
C1329 C1331 1.561 . S
C1329 C1332 1.526 . S
C1330 H1314 0.959 . S
C1330 H1315 0.959 . S
C1330 H1316 0.961 . S
C1330 C1329 1.502 . S
C1331 H1317 0.960 . S
C1331 H1318 0.961 . S
C1331 H1319 0.959 . S
C1331 C1329 1.561 . S
C1332 C1329 1.526 . S
C1332 C1333 1.396 . S
C1332 C1337 1.390 . S
C1333 C1327 1.465 . S
C1333 C1332 1.396 . S
C1333 C1334 1.399 . S
C1334 H1320 0.929 . S
C1334 C1333 1.399 . S
C1334 C1335 1.385 . S
C1335 H1321 0.931 . S
C1335 C1334 1.385 . S
C1335 C1336 1.389 . S
C1336 C1335 1.389 . S
C1336 C1337 1.387 . S
C1337 H1322 0.930 . S
C1337 C1332 1.390 . S
C1337 C1336 1.387 . S
H1338 C1350 0.930 . S
H1339 C1352 0.930 . S
H1340 C1353 0.930 . S
H1341 C1357 0.959 . S
H1342 C1357 0.959 . S
H1343 C1357 0.961 . S
H1344 C1358 0.960 . S
H1345 C1358 0.961 . S
H1346 C1358 0.959 . S
H1347 C1361 0.929 . S
H1348 C1362 0.931 . S
H1349 C1364 0.930 . S
C1350 H1338 0.930 . S
C1350 C1351 1.399 . S
C1350 C1355 1.399 . S
C1351 C1350 1.399 . S
C1351 C1352 1.376 . S
C1352 H1339 0.930 . S
C1352 C1351 1.376 . S
C1352 C1353 1.388 . S
C1353 H1340 0.930 . S
C1353 C1352 1.388 . S
C1353 C1354 1.390 . S
C1354 C1353 1.390 . S
C1354 C1355 1.394 . S
C1354 C1360 1.465 . S
C1355 C1350 1.399 . S
C1355 C1354 1.394 . S
C1355 C1356 1.516 . S
C1356 C1355 1.516 . S
C1356 C1357 1.502 . S
C1356 C1358 1.561 . S
C1356 C1359 1.526 . S
C1357 H1341 0.959 . S
C1357 H1342 0.959 . S
C1357 H1343 0.961 . S
C1357 C1356 1.502 . S
C1358 H1344 0.960 . S
C1358 H1345 0.961 . S
C1358 H1346 0.959 . S
C1358 C1356 1.561 . S
C1359 C1356 1.526 . S
C1359 C1360 1.396 . S
C1359 C1364 1.390 . S
C1360 C1354 1.465 . S
C1360 C1359 1.396 . S
C1360 C1361 1.399 . S
C1361 H1347 0.929 . S
C1361 C1360 1.399 . S
C1361 C1362 1.385 . S
C1362 H1348 0.931 . S
C1362 C1361 1.385 . S
C1362 C1363 1.389 . S
C1363 C1362 1.389 . S
C1363 C1364 1.387 . S
C1364 H1349 0.930 . S
C1364 C1359 1.390 . S
C1364 C1363 1.387 . S
H1365 C1377 0.930 . S
H1366 C1379 0.930 . S
H1367 C1380 0.930 . S
H1368 C1384 0.959 . S
H1369 C1384 0.959 . S
H1370 C1384 0.961 . S
H1371 C1385 0.960 . S
H1372 C1385 0.961 . S
H1373 C1385 0.959 . S
H1374 C1388 0.929 . S
H1375 C1389 0.931 . S
H1376 C1391 0.930 . S
C1377 H1365 0.930 . S
C1377 C1378 1.399 . S
C1377 C1382 1.399 . S
C1378 C1377 1.399 . S
C1378 C1379 1.376 . S
C1379 H1366 0.930 . S
C1379 C1378 1.376 . S
C1379 C1380 1.388 . S
C1380 H1367 0.930 . S
C1380 C1379 1.388 . S
C1380 C1381 1.390 . S
C1381 C1380 1.390 . S
C1381 C1382 1.394 . S
C1381 C1387 1.465 . S
C1382 C1377 1.399 . S
C1382 C1381 1.394 . S
C1382 C1383 1.516 . S
C1383 C1382 1.516 . S
C1383 C1384 1.502 . S
C1383 C1385 1.561 . S
C1383 C1386 1.526 . S
C1384 H1368 0.959 . S
C1384 H1369 0.959 . S
C1384 H1370 0.961 . S
C1384 C1383 1.502 . S
C1385 H1371 0.960 . S
C1385 H1372 0.961 . S
C1385 H1373 0.959 . S
C1385 C1383 1.561 . S
C1386 C1383 1.526 . S
C1386 C1387 1.396 . S
C1386 C1391 1.390 . S
C1387 C1381 1.465 . S
C1387 C1386 1.396 . S
C1387 C1388 1.399 . S
C1388 H1374 0.929 . S
C1388 C1387 1.399 . S
C1388 C1389 1.385 . S
C1389 H1375 0.931 . S
C1389 C1388 1.385 . S
C1389 C1390 1.389 . S
C1390 C1389 1.389 . S
C1390 C1391 1.387 . S
C1391 H1376 0.930 . S
C1391 C1386 1.390 . S
C1391 C1390 1.387 . S
H1392 C1404 0.930 . S
H1393 C1406 0.930 . S
H1394 C1407 0.930 . S
H1395 C1411 0.959 . S
H1396 C1411 0.959 . S
H1397 C1411 0.961 . S
H1398 C1412 0.960 . S
H1399 C1412 0.961 . S
H1400 C1412 0.959 . S
H1401 C1415 0.929 . S
H1402 C1416 0.931 . S
H1403 C1418 0.930 . S
C1404 H1392 0.930 . S
C1404 C1405 1.399 . S
C1404 C1409 1.399 . S
C1405 C1404 1.399 . S
C1405 C1406 1.376 . S
C1406 H1393 0.930 . S
C1406 C1405 1.376 . S
C1406 C1407 1.388 1_655 S
C1407 H1394 0.930 . S
C1407 C1406 1.388 1_455 S
C1407 C1408 1.390 . S
C1408 C1407 1.390 . S
C1408 C1409 1.394 1_455 S
C1408 C1414 1.465 . S
C1409 C1404 1.399 . S
C1409 C1408 1.394 1_655 S
C1409 C1410 1.516 . S
C1410 C1409 1.516 . S
C1410 C1411 1.502 . S
C1410 C1412 1.561 1_655 S
C1410 C1413 1.526 1_655 S
C1411 H1395 0.959 . S
C1411 H1396 0.959 . S
C1411 H1397 0.961 . S
C1411 C1410 1.502 . S
C1412 H1398 0.960 . S
C1412 H1399 0.961 . S
C1412 H1400 0.959 . S
C1412 C1410 1.561 1_455 S
C1413 C1410 1.526 1_455 S
C1413 C1414 1.396 . S
C1413 C1418 1.390 . S
C1414 C1408 1.465 . S
C1414 C1413 1.396 . S
C1414 C1415 1.399 . S
C1415 H1401 0.929 . S
C1415 C1414 1.399 . S
C1415 C1416 1.385 . S
C1416 H1402 0.931 . S
C1416 C1415 1.385 . S
C1416 C1417 1.389 . S
C1417 C1416 1.389 . S
C1417 C1418 1.387 . S
C1418 H1403 0.930 . S
C1418 C1413 1.390 . S
C1418 C1417 1.387 . S
H1419 C1431 0.930 . S
H1420 C1433 0.930 . S
H1421 C1434 0.930 . S
H1422 C1438 0.959 . S
H1423 C1438 0.959 . S
H1424 C1438 0.961 . S
H1425 C1439 0.960 . S
H1426 C1439 0.961 . S
H1427 C1439 0.959 . S
H1428 C1442 0.929 . S
H1429 C1443 0.931 . S
H1430 C1445 0.930 . S
C1431 H1419 0.930 . S
C1431 C1432 1.399 . S
C1431 C1436 1.399 . S
C1432 C1431 1.399 . S
C1432 C1433 1.376 . S
C1433 H1420 0.930 . S
C1433 C1432 1.376 . S
C1433 C1434 1.388 1_565 S
C1434 H1421 0.930 . S
C1434 C1433 1.388 1_545 S
C1434 C1435 1.390 . S
C1435 C1434 1.390 . S
C1435 C1436 1.394 1_545 S
C1435 C1441 1.465 . S
C1436 C1431 1.399 . S
C1436 C1435 1.394 1_565 S
C1436 C1437 1.516 . S
C1437 C1436 1.516 . S
C1437 C1438 1.502 . S
C1437 C1439 1.561 1_565 S
C1437 C1440 1.526 1_565 S
C1438 H1422 0.959 . S
C1438 H1423 0.959 . S
C1438 H1424 0.961 . S
C1438 C1437 1.502 . S
C1439 H1425 0.960 . S
C1439 H1426 0.961 . S
C1439 H1427 0.959 . S
C1439 C1437 1.561 1_545 S
C1440 C1437 1.526 1_545 S
C1440 C1441 1.396 . S
C1440 C1445 1.390 . S
C1441 C1435 1.465 . S
C1441 C1440 1.396 . S
C1441 C1442 1.399 . S
C1442 H1428 0.929 . S
C1442 C1441 1.399 . S
C1442 C1443 1.385 . S
C1443 H1429 0.931 . S
C1443 C1442 1.385 . S
C1443 C1444 1.389 . S
C1444 C1443 1.389 . S
C1444 C1445 1.387 . S
C1445 H1430 0.930 . S
C1445 C1440 1.390 . S
C1445 C1444 1.387 . S
H1446 C1458 0.930 . S
H1447 C1460 0.930 . S
H1448 C1461 0.930 . S
H1449 C1465 0.959 . S
H1450 C1465 0.959 1_565 S
H1451 C1465 0.961 . S
H1452 C1466 0.960 1_545 S
H1453 C1466 0.961 . S
H1454 C1466 0.959 . S
H1455 C1469 0.929 . S
H1456 C1470 0.931 . S
H1457 C1472 0.930 . S
C1458 H1446 0.930 . S
C1458 C1459 1.399 . S
C1458 C1463 1.399 . S
C1459 C1458 1.399 . S
C1459 C1460 1.376 . S
C1460 H1447 0.930 . S
C1460 C1459 1.376 . S
C1460 C1461 1.388 . S
C1461 H1448 0.930 . S
C1461 C1460 1.388 . S
C1461 C1462 1.390 . S
C1462 C1461 1.390 . S
C1462 C1463 1.394 . S
C1462 C1468 1.465 1_545 S
C1463 C1458 1.399 . S
C1463 C1462 1.394 . S
C1463 C1464 1.516 . S
C1464 C1463 1.516 . S
C1464 C1465 1.502 . S
C1464 C1466 1.561 1_545 S
C1464 C1467 1.526 1_545 S
C1465 H1449 0.959 . S
C1465 H1450 0.959 1_545 S
C1465 H1451 0.961 . S
C1465 C1464 1.502 . S
C1466 H1452 0.960 1_565 S
C1466 H1453 0.961 . S
C1466 H1454 0.959 . S
C1466 C1464 1.561 1_565 S
C1467 C1464 1.526 1_565 S
C1467 C1468 1.396 . S
C1467 C1472 1.390 . S
C1468 C1462 1.465 1_565 S
C1468 C1467 1.396 . S
C1468 C1469 1.399 . S
C1469 H1455 0.929 . S
C1469 C1468 1.399 . S
C1469 C1470 1.385 . S
C1470 H1456 0.931 . S
C1470 C1469 1.385 . S
C1470 C1471 1.389 . S
C1471 C1470 1.389 . S
C1471 C1472 1.387 . S
C1472 H1457 0.930 . S
C1472 C1467 1.390 . S
C1472 C1471 1.387 . S
H1473 C1485 0.930 . S
H1474 C1487 0.930 . S
H1475 C1488 0.930 . S
H1476 C1492 0.959 . S
H1477 C1492 0.959 1_455 S
H1478 C1492 0.961 . S
H1479 C1493 0.960 1_655 S
H1480 C1493 0.961 . S
H1481 C1493 0.959 . S
H1482 C1496 0.929 . S
H1483 C1497 0.931 . S
H1484 C1499 0.930 . S
C1485 H1473 0.930 . S
C1485 C1486 1.399 . S
C1485 C1490 1.399 . S
C1486 C1485 1.399 . S
C1486 C1487 1.376 . S
C1487 H1474 0.930 . S
C1487 C1486 1.376 . S
C1487 C1488 1.388 . S
C1488 H1475 0.930 . S
C1488 C1487 1.388 . S
C1488 C1489 1.390 . S
C1489 C1488 1.390 . S
C1489 C1490 1.394 . S
C1489 C1495 1.465 1_655 S
C1490 C1485 1.399 . S
C1490 C1489 1.394 . S
C1490 C1491 1.516 . S
C1491 C1490 1.516 . S
C1491 C1492 1.502 . S
C1491 C1493 1.561 1_655 S
C1491 C1494 1.526 1_655 S
C1492 H1476 0.959 . S
C1492 H1477 0.959 1_655 S
C1492 H1478 0.961 . S
C1492 C1491 1.502 . S
C1493 H1479 0.960 1_455 S
C1493 H1480 0.961 . S
C1493 H1481 0.959 . S
C1493 C1491 1.561 1_455 S
C1494 C1491 1.526 1_455 S
C1494 C1495 1.396 . S
C1494 C1499 1.390 . S
C1495 C1489 1.465 1_455 S
C1495 C1494 1.396 . S
C1495 C1496 1.399 . S
C1496 H1482 0.929 . S
C1496 C1495 1.399 . S
C1496 C1497 1.385 . S
C1497 H1483 0.931 . S
C1497 C1496 1.385 . S
C1497 C1498 1.389 . S
C1498 C1497 1.389 . S
C1498 C1499 1.387 . S
C1499 H1484 0.930 . S
C1499 C1494 1.390 . S
C1499 C1498 1.387 . S
H1500 C1512 0.930 . S
H1501 C1514 0.930 . S
H1502 C1515 0.930 . S
H1503 C1519 0.959 . S
H1504 C1519 0.959 . S
H1505 C1519 0.961 . S
H1506 C1520 0.960 . S
H1507 C1520 0.961 . S
H1508 C1520 0.959 . S
H1509 C1523 0.929 . S
H1510 C1524 0.931 . S
H1511 C1526 0.930 . S
C1512 H1500 0.930 . S
C1512 C1513 1.399 . S
C1512 C1517 1.399 . S
C1513 C1512 1.399 . S
C1513 C1514 1.376 . S
C1514 H1501 0.930 . S
C1514 C1513 1.376 . S
C1514 C1515 1.388 1_655 S
C1515 H1502 0.930 . S
C1515 C1514 1.388 1_455 S
C1515 C1516 1.390 . S
C1516 C1515 1.390 . S
C1516 C1517 1.394 1_455 S
C1516 C1522 1.465 . S
C1517 C1512 1.399 . S
C1517 C1516 1.394 1_655 S
C1517 C1518 1.516 . S
C1518 C1517 1.516 . S
C1518 C1519 1.502 . S
C1518 C1520 1.561 1_655 S
C1518 C1521 1.526 1_655 S
C1519 H1503 0.959 . S
C1519 H1504 0.959 . S
C1519 H1505 0.961 . S
C1519 C1518 1.502 . S
C1520 H1506 0.960 . S
C1520 H1507 0.961 . S
C1520 H1508 0.959 . S
C1520 C1518 1.561 1_455 S
C1521 C1518 1.526 1_455 S
C1521 C1522 1.396 . S
C1521 C1526 1.390 . S
C1522 C1516 1.465 . S
C1522 C1521 1.396 . S
C1522 C1523 1.399 . S
C1523 H1509 0.929 . S
C1523 C1522 1.399 . S
C1523 C1524 1.385 . S
C1524 H1510 0.931 . S
C1524 C1523 1.385 . S
C1524 C1525 1.389 . S
C1525 C1524 1.389 . S
C1525 C1526 1.387 . S
C1526 H1511 0.930 . S
C1526 C1521 1.390 . S
C1526 C1525 1.387 . S
H1527 C1539 0.930 . S
H1528 C1541 0.930 . S
H1529 C1542 0.930 . S
H1530 C1546 0.959 . S
H1531 C1546 0.959 . S
H1532 C1546 0.961 . S
H1533 C1547 0.960 . S
H1534 C1547 0.961 . S
H1535 C1547 0.959 . S
H1536 C1550 0.919 1_545 S
H1537 C1551 0.931 . S
H1538 C1553 0.930 . S
C1539 H1527 0.930 . S
C1539 C1540 1.399 . S
C1539 C1544 1.399 . S
C1540 C1539 1.399 . S
C1540 C1541 1.376 . S
C1541 H1528 0.930 . S
C1541 C1540 1.376 . S
C1541 C1542 1.388 . S
C1542 H1529 0.930 . S
C1542 C1541 1.388 . S
C1542 C1543 1.390 . S
C1543 C1542 1.390 . S
C1543 C1544 1.394 . S
C1543 C1549 1.475 . S
C1544 C1539 1.399 . S
C1544 C1543 1.394 . S
C1544 C1545 1.516 1_545 S
C1545 C1544 1.516 1_565 S
C1545 C1546 1.502 . S
C1545 C1547 1.561 1_565 S
C1545 C1548 1.526 . S
C1546 H1530 0.959 . S
C1546 H1531 0.959 . S
C1546 H1532 0.961 . S
C1546 C1545 1.502 . S
C1547 H1533 0.960 . S
C1547 H1534 0.961 . S
C1547 H1535 0.959 . S
C1547 C1545 1.561 1_545 S
C1548 C1545 1.526 . S
C1548 C1549 1.388 1_565 S
C1548 C1553 1.390 . S
C1549 C1543 1.475 . S
C1549 C1548 1.388 1_545 S
C1549 C1550 1.397 1_545 S
C1550 H1536 0.919 1_565 S
C1550 C1549 1.397 1_565 S
C1550 C1551 1.399 . S
C1551 H1537 0.931 . S
C1551 C1550 1.399 . S
C1551 C1552 1.389 . S
C1552 C1551 1.389 . S
C1552 C1553 1.387 . S
C1553 H1538 0.930 . S
C1553 C1548 1.390 . S
C1553 C1552 1.387 . S
H1554 C1566 0.930 . S
H1555 C1568 0.930 . S
H1556 C1569 0.930 . S
H1557 C1573 0.959 . S
H1558 C1573 0.959 . S
H1559 C1573 0.961 1_565 S
H1560 C1574 0.960 . S
H1561 C1574 0.961 1_545 S
H1562 C1574 0.959 . S
H1563 C1577 0.929 . S
H1564 C1578 0.931 . S
H1565 C1580 0.930 . S
C1566 H1554 0.930 . S
C1566 C1567 1.399 . S
C1566 C1571 1.399 . S
C1567 C1566 1.399 . S
C1567 C1568 1.376 . S
C1568 H1555 0.930 . S
C1568 C1567 1.376 . S
C1568 C1569 1.388 . S
C1569 H1556 0.930 . S
C1569 C1568 1.388 . S
C1569 C1570 1.390 . S
C1570 C1569 1.390 . S
C1570 C1571 1.394 . S
C1570 C1576 1.465 1_565 S
C1571 C1566 1.399 . S
C1571 C1570 1.394 . S
C1571 C1572 1.516 1_565 S
C1572 C1571 1.516 1_545 S
C1572 C1573 1.502 . S
C1572 C1574 1.561 1_545 S
C1572 C1575 1.526 . S
C1573 H1557 0.959 . S
C1573 H1558 0.959 . S
C1573 H1559 0.961 1_545 S
C1573 C1572 1.502 . S
C1574 H1560 0.960 . S
C1574 H1561 0.961 1_565 S
C1574 H1562 0.959 . S
C1574 C1572 1.561 1_565 S
C1575 C1572 1.526 . S
C1575 C1576 1.396 . S
C1575 C1580 1.390 . S
C1576 C1570 1.465 1_545 S
C1576 C1575 1.396 . S
C1576 C1577 1.399 . S
C1577 H1563 0.929 . S
C1577 C1576 1.399 . S
C1577 C1578 1.385 . S
C1578 H1564 0.931 . S
C1578 C1577 1.385 . S
C1578 C1579 1.389 . S
C1579 C1578 1.389 . S
C1579 C1580 1.387 . S
C1580 H1565 0.930 . S
C1580 C1575 1.390 . S
C1580 C1579 1.387 . S
H1581 C1593 0.930 . S
H1582 C1595 0.930 . S
H1583 C1596 0.930 . S
H1584 C1600 0.959 . S
H1585 C1600 0.959 . S
H1586 C1600 0.961 1_655 S
H1587 C1601 0.960 . S
H1588 C1601 0.961 1_455 S
H1589 C1601 0.959 . S
H1590 C1604 0.929 . S
H1591 C1605 0.931 . S
H1592 C1607 0.930 . S
C1593 H1581 0.930 . S
C1593 C1594 1.399 . S
C1593 C1598 1.399 . S
C1594 C1593 1.399 . S
C1594 C1595 1.376 . S
C1595 H1582 0.930 . S
C1595 C1594 1.376 . S
C1595 C1596 1.388 . S
C1596 H1583 0.930 . S
C1596 C1595 1.388 . S
C1596 C1597 1.390 . S
C1597 C1596 1.390 . S
C1597 C1598 1.394 . S
C1597 C1603 1.465 1_655 S
C1598 C1593 1.399 . S
C1598 C1597 1.394 . S
C1598 C1599 1.535 . S
C1599 C1598 1.535 . S
C1599 C1600 1.496 1_655 S
C1599 C1601 1.568 . S
C1599 C1602 1.507 1_655 S
C1600 H1584 0.959 . S
C1600 H1585 0.959 . S
C1600 H1586 0.961 1_455 S
C1600 C1599 1.496 1_455 S
C1601 H1587 0.960 . S
C1601 H1588 0.961 1_655 S
C1601 H1589 0.959 . S
C1601 C1599 1.568 . S
C1602 C1599 1.507 1_455 S
C1602 C1603 1.396 . S
C1602 C1607 1.390 . S
C1603 C1597 1.465 1_455 S
C1603 C1602 1.396 . S
C1603 C1604 1.399 . S
C1604 H1590 0.929 . S
C1604 C1603 1.399 . S
C1604 C1605 1.385 . S
C1605 H1591 0.931 . S
C1605 C1604 1.385 . S
C1605 C1606 1.389 . S
C1606 C1605 1.389 . S
C1606 C1607 1.387 . S
C1607 H1592 0.930 . S
C1607 C1602 1.390 . S
C1607 C1606 1.387 . S
C541 C337 1.281 . S
C553 C7 1.288 . S
C568 C370 1.310 . S
C580 C40 1.319 . S
C595 C271 1.336 . S
C607 C73 1.332 . S
C622 C304 1.306 . S
C634 C106 1.297 . S
C649 C139 1.311 . S
C661 C469 1.302 . S
C676 C172 1.276 . S
C688 C502 1.276 . S
C703 C403 1.338 . S
C715 C205 1.336 . S
C730 C436 1.309 . S
C742 C238 1.319 . S
C757 C120 1.502 . S
C769 N2 1.466 . S
C784 N35 1.443 . S
C796 C21 1.510 . S
C811 C54 1.520 . S
C823 N68 1.423 . S
C838 N101 1.407 . S
C850 C87 1.528 . S
C865 C186 1.496 . S
C877 N134 1.479 . S
C892 C219 1.505 . S
C904 N167 1.460 . S
C919 C252 1.501 . S
C931 N200 1.468 . S
C946 N233 1.488 . S
C958 C153 1.491 . S
C973 N266 1.420 . S
C985 C384 1.513 . S
C1000 N299 1.482 . S
C1012 C285 1.489 . S
C1027 C318 1.523 . S
C1039 N332 1.408 . S
C1054 N365 1.461 . S
C1066 C351 1.494 . S
C1081 N398 1.474 . S
C1093 C450 1.490 . S
C1108 N431 1.455 . S
C1120 C483 1.517 . S
C1135 N464 1.477 . S
C1147 C516 1.490 . S
C1162 C417 1.514 . S
C1174 N497 1.461 . S
C1189 C249 1.057 . S
C1201 C18 1.050 . S
C1216 C51 1.033 . S
C1228 C150 1.069 . S
C1243 C183 1.038 . S
C1255 C84 1.038 . S
C1270 C216 1.034 . S
C1282 C117 1.069 . S
C1297 C282 1.059 . S
C1309 C513 1.063 . S
C1324 C414 1.029 . S
C1336 C315 1.031 . S
C1351 C348 1.062 . S
C1363 C447 1.019 . S
C1378 C480 1.056 . S
C1390 C381 1.066 . S
C1405 N79 1.559 . S
C1417 N13 1.562 . S
C1432 N112 1.561 . S
C1444 N46 1.563 . S
C1459 N145 1.512 . S
C1471 N211 1.510 . S
C1486 N178 1.518 . S
C1498 N244 1.515 . S
C1513 N277 1.516 . S
C1525 N343 1.509 . S
C1540 N376 1.560 . S
C1552 N310 1.566 . S
C1567 N409 1.519 . S
C1579 N475 1.511 . S
C1594 N508 1.510 . S
C1606 N442 1.507 . S
