# Generated by pormake.
# Topology whz, (6)-cn, num edge types: 1
# Building blocks:
#     Node 0, Type 0, BuildingBlock: IZENUY_clean_sbu_0, # of connection points: 6
#     Node 1, Type 0, BuildingBlock: IZENUY_clean_sbu_0, # of connection points: 6
#     Node 2, Type 0, BuildingBlock: IZENUY_clean_sbu_0, # of connection points: 6
#     Node 3, Type 0, BuildingBlock: IZENUY_clean_sbu_0, # of connection points: 6
#     Node 4, Type 0, BuildingBlock: IZENUY_clean_sbu_0, # of connection points: 6
#     Node 5, Type 0, BuildingBlock: IZENUY_clean_sbu_0, # of connection points: 6
#     Node 6, Type 0, BuildingBlock: IZENUY_clean_sbu_0, # of connection points: 6
#     Node 7, Type 0, BuildingBlock: IZENUY_clean_sbu_0, # of connection points: 6
#     Node 8, Type 0, BuildingBlock: IZENUY_clean_sbu_0, # of connection points: 6
#     Node 9, Type 0, BuildingBlock: IZENUY_clean_sbu_0, # of connection points: 6
#     Node 10, Type 0, BuildingBlock: IZENUY_clean_sbu_0, # of connection points: 6
#     Node 11, Type 0, BuildingBlock: IZENUY_clean_sbu_0, # of connection points: 6
#     Node 12, Type 0, BuildingBlock: IZENUY_clean_sbu_0, # of connection points: 6
#     Node 13, Type 0, BuildingBlock: IZENUY_clean_sbu_0, # of connection points: 6
#     Node 14, Type 0, BuildingBlock: IZENUY_clean_sbu_0, # of connection points: 6
#     Node 15, Type 0, BuildingBlock: IZENUY_clean_sbu_0, # of connection points: 6
#     Edge 16, Type (0, 0), BuildingBlock: MIFKUJ_clean_linker_0, # of connection points: 2
#     Edge 17, Type (0, 0), BuildingBlock: MIFKUJ_clean_linker_0, # of connection points: 2
#     Edge 18, Type (0, 0), BuildingBlock: MIFKUJ_clean_linker_0, # of connection points: 2
#     Edge 19, Type (0, 0), BuildingBlock: MIFKUJ_clean_linker_0, # of connection points: 2
#     Edge 20, Type (0, 0), BuildingBlock: MIFKUJ_clean_linker_0, # of connection points: 2
#     Edge 21, Type (0, 0), BuildingBlock: MIFKUJ_clean_linker_0, # of connection points: 2
#     Edge 22, Type (0, 0), BuildingBlock: MIFKUJ_clean_linker_0, # of connection points: 2
#     Edge 23, Type (0, 0), BuildingBlock: MIFKUJ_clean_linker_0, # of connection points: 2
#     Edge 24, Type (0, 0), BuildingBlock: MIFKUJ_clean_linker_0, # of connection points: 2
#     Edge 25, Type (0, 0), BuildingBlock: MIFKUJ_clean_linker_0, # of connection points: 2
#     Edge 26, Type (0, 0), BuildingBlock: MIFKUJ_clean_linker_0, # of connection points: 2
#     Edge 27, Type (0, 0), BuildingBlock: MIFKUJ_clean_linker_0, # of connection points: 2
#     Edge 28, Type (0, 0), BuildingBlock: MIFKUJ_clean_linker_0, # of connection points: 2
#     Edge 29, Type (0, 0), BuildingBlock: MIFKUJ_clean_linker_0, # of connection points: 2
#     Edge 30, Type (0, 0), BuildingBlock: MIFKUJ_clean_linker_0, # of connection points: 2
#     Edge 31, Type (0, 0), BuildingBlock: MIFKUJ_clean_linker_0, # of connection points: 2
#     Edge 32, Type (0, 0), BuildingBlock: MIFKUJ_clean_linker_0, # of connection points: 2
#     Edge 33, Type (0, 0), BuildingBlock: MIFKUJ_clean_linker_0, # of connection points: 2
#     Edge 34, Type (0, 0), BuildingBlock: MIFKUJ_clean_linker_0, # of connection points: 2
#     Edge 35, Type (0, 0), BuildingBlock: MIFKUJ_clean_linker_0, # of connection points: 2
#     Edge 36, Type (0, 0), BuildingBlock: MIFKUJ_clean_linker_0, # of connection points: 2
#     Edge 37, Type (0, 0), BuildingBlock: MIFKUJ_clean_linker_0, # of connection points: 2
#     Edge 38, Type (0, 0), BuildingBlock: MIFKUJ_clean_linker_0, # of connection points: 2
#     Edge 39, Type (0, 0), BuildingBlock: MIFKUJ_clean_linker_0, # of connection points: 2
#     Edge 40, Type (0, 0), BuildingBlock: MIFKUJ_clean_linker_0, # of connection points: 2
#     Edge 41, Type (0, 0), BuildingBlock: MIFKUJ_clean_linker_0, # of connection points: 2
#     Edge 42, Type (0, 0), BuildingBlock: MIFKUJ_clean_linker_0, # of connection points: 2
#     Edge 43, Type (0, 0), BuildingBlock: MIFKUJ_clean_linker_0, # of connection points: 2
#     Edge 44, Type (0, 0), BuildingBlock: MIFKUJ_clean_linker_0, # of connection points: 2
#     Edge 45, Type (0, 0), BuildingBlock: MIFKUJ_clean_linker_0, # of connection points: 2
#     Edge 46, Type (0, 0), BuildingBlock: MIFKUJ_clean_linker_0, # of connection points: 2
#     Edge 47, Type (0, 0), BuildingBlock: MIFKUJ_clean_linker_0, # of connection points: 2
#     Edge 48, Type (0, 0), BuildingBlock: MIFKUJ_clean_linker_0, # of connection points: 2
#     Edge 49, Type (0, 0), BuildingBlock: MIFKUJ_clean_linker_0, # of connection points: 2
#     Edge 50, Type (0, 0), BuildingBlock: MIFKUJ_clean_linker_0, # of connection points: 2
#     Edge 51, Type (0, 0), BuildingBlock: MIFKUJ_clean_linker_0, # of connection points: 2
#     Edge 52, Type (0, 0), BuildingBlock: MIFKUJ_clean_linker_0, # of connection points: 2
#     Edge 53, Type (0, 0), BuildingBlock: MIFKUJ_clean_linker_0, # of connection points: 2
#     Edge 54, Type (0, 0), BuildingBlock: MIFKUJ_clean_linker_0, # of connection points: 2
#     Edge 55, Type (0, 0), BuildingBlock: MIFKUJ_clean_linker_0, # of connection points: 2
#     Edge 56, Type (0, 0), BuildingBlock: MIFKUJ_clean_linker_0, # of connection points: 2
#     Edge 57, Type (0, 0), BuildingBlock: MIFKUJ_clean_linker_0, # of connection points: 2
#     Edge 58, Type (0, 0), BuildingBlock: MIFKUJ_clean_linker_0, # of connection points: 2
#     Edge 59, Type (0, 0), BuildingBlock: MIFKUJ_clean_linker_0, # of connection points: 2
#     Edge 60, Type (0, 0), BuildingBlock: MIFKUJ_clean_linker_0, # of connection points: 2
#     Edge 61, Type (0, 0), BuildingBlock: MIFKUJ_clean_linker_0, # of connection points: 2
#     Edge 62, Type (0, 0), BuildingBlock: MIFKUJ_clean_linker_0, # of connection points: 2
#     Edge 63, Type (0, 0), BuildingBlock: MIFKUJ_clean_linker_0, # of connection points: 2
# Relax obj value: 0.407
# Max RMSD: 0.252
# Mean RMSD: 0.252
data_MOF--net-whz--node1-IZENUY_clean_sbu_0--edge1-MIFKUJ_clean_linker_0
_symmetry_space_group_name_H-M    P1
_symmetry_Int_Tables_number       1
_symmetry_cell_setting            triclinic
loop_
_symmetry_equiv_pos_as_xyz
'x, y, z'
_cell_length_a     44.050057
_cell_length_b     43.936279
_cell_length_c     66.648405
_cell_angle_alpha  90.022214
_cell_angle_beta   90.058548
_cell_angle_gamma 89.85917
loop_
_atom_site_label
_atom_site_type_symbol
_atom_site_fract_x
_atom_site_fract_y
_atom_site_fract_z
_atom_type_partial_charge
Fe0 Fe 0.33279 0.19272 0.12906 0.0
Fe1 Fe 0.2669 0.17996 0.11767 0.0
O2 O 0.30568 0.17005 0.11652 0.0
Fe3 Fe 0.3176 0.13708 0.10329 0.0
O4 O 0.3325 0.12048 0.12622 0.0
O5 O 0.35845 0.16069 0.13516 0.0
O6 O 0.31535 0.18584 0.15298 0.0
C7 C 0.28829 0.19231 0.15716 0.0
C8 C 0.36313 0.18088 0.0946 0.0
O9 O 0.2688 0.19609 0.14331 0.0
C10 C 0.27483 0.15889 0.07726 0.0
O11 O 0.31199 0.22887 0.12569 0.0
O12 O 0.27371 0.21667 0.10623 0.0
O13 O 0.35509 0.15319 0.0961 0.0
O14 O 0.35165 0.20089 0.10575 0.0
C15 C 0.26268 0.11841 0.12174 0.0
O16 O 0.25817 0.16548 0.09225 0.0
O17 O 0.3024 0.15152 0.07973 0.0
C18 C 0.29097 0.23654 0.11369 0.0
O19 O 0.25756 0.14414 0.12933 0.0
O20 O 0.28254 0.11523 0.10813 0.0
C21 C 0.35131 0.13303 0.13783 0.0
Fe22 Fe 0.54702 0.57167 0.38515 0.0
Fe23 Fe 0.55807 0.51252 0.3621 0.0
O24 O 0.5697 0.54976 0.36855 0.0
Fe25 Fe 0.60389 0.56528 0.35883 0.0
O26 O 0.61294 0.58701 0.38193 0.0
O27 O 0.57758 0.57294 0.40331 0.0
O28 O 0.53165 0.53947 0.39893 0.0
C29 C 0.54221 0.51315 0.40161 0.0
C30 C 0.56551 0.61469 0.35693 0.0
O31 O 0.55819 0.50044 0.38835 0.0
C32 C 0.57979 0.53121 0.32573 0.0
O33 O 0.51496 0.57116 0.36801 0.0
O34 O 0.51732 0.52173 0.36255 0.0
O35 O 0.58329 0.5973 0.34739 0.0
O36 O 0.55785 0.60827 0.37463 0.0
C37 C 0.62202 0.50635 0.36642 0.0
O38 O 0.5574 0.52149 0.3356 0.0
O39 O 0.60111 0.5456 0.33437 0.0
C40 C 0.50296 0.54681 0.3618 0.0
O41 O 0.59653 0.497 0.36023 0.0
O42 O 0.62675 0.53439 0.36933 0.0
C43 C 0.60395 0.58286 0.39988 0.0
Fe44 Fe 0.23885 0.82574 0.61269 0.0
Fe45 Fe 0.18539 0.8681 0.60184 0.0
O46 O 0.20013 0.83594 0.61476 0.0
Fe47 Fe 0.17576 0.81416 0.63019 0.0
O48 O 0.19781 0.82297 0.6521 0.0
O49 O 0.2423 0.81225 0.63891 0.0
O50 O 0.25133 0.86252 0.62152 0.0
C51 C 0.24434 0.88769 0.61371 0.0
C52 C 0.21449 0.76889 0.61332 0.0
O53 O 0.22073 0.89048 0.60298 0.0
C54 C 0.13897 0.82352 0.5982 0.0
O55 O 0.24183 0.83751 0.58634 0.0
O56 O 0.1958 0.85239 0.5775 0.0
O57 O 0.19588 0.77774 0.62657 0.0
O58 O 0.2297 0.78804 0.60355 0.0
C59 C 0.15841 0.87416 0.63873 0.0
O60 O 0.1471 0.85128 0.59827 0.0
O61 O 0.15238 0.80422 0.60899 0.0
C62 C 0.22227 0.84354 0.57289 0.0
O63 O 0.17495 0.88612 0.62547 0.0
O64 O 0.15114 0.84638 0.63725 0.0
C65 C 0.22554 0.81681 0.65414 0.0
Fe66 Fe 0.94579 0.43802 0.88724 0.0
Fe67 Fe 0.93387 0.49834 0.86537 0.0
O68 O 0.92366 0.46006 0.87036 0.0
Fe69 Fe 0.8912 0.44378 0.85866 0.0
O70 O 0.8811 0.41916 0.8801 0.0
O71 O 0.91361 0.43239 0.90354 0.0
O72 O 0.95622 0.46981 0.90333 0.0
C73 C 0.9437 0.49533 0.90592 0.0
C74 C 0.93267 0.39694 0.8562 0.0
O75 O 0.93041 0.50893 0.89174 0.0
C76 C 0.91692 0.48064 0.82769 0.0
O77 O 0.97984 0.44243 0.87224 0.0
O78 O 0.97484 0.4918 0.86782 0.0
O79 O 0.91431 0.41401 0.84686 0.0
O80 O 0.9393 0.40212 0.87431 0.0
C81 C 0.86963 0.5009 0.86775 0.0
O82 O 0.93798 0.49072 0.8387 0.0
O83 O 0.89503 0.46585 0.83526 0.0
C84 C 0.99093 0.46786 0.86747 0.0
O85 O 0.89478 0.51174 0.86203 0.0
O86 O 0.86612 0.47248 0.86962 0.0
C87 C 0.88844 0.42124 0.89847 0.0
Fe88 Fe 0.67455 0.80915 0.87646 0.0
Fe89 Fe 0.73806 0.82269 0.89308 0.0
O90 O 0.69946 0.83327 0.89007 0.0
Fe91 Fe 0.68565 0.86809 0.90029 0.0
O92 O 0.65809 0.87536 0.87977 0.0
O93 O 0.66755 0.83881 0.85818 0.0
O94 O 0.70335 0.79468 0.85948 0.0
C95 C 0.72784 0.80665 0.85387 0.0
C96 C 0.63877 0.82906 0.90861 0.0
O97 O 0.74405 0.82154 0.86598 0.0
C98 C 0.72669 0.84646 0.93039 0.0
O99 O 0.68061 0.7774 0.89357 0.0
O100 O 0.73041 0.78175 0.89424 0.0
O101 O 0.65784 0.84772 0.91555 0.0
O102 O 0.64083 0.81925 0.89089 0.0
C103 C 0.74106 0.88587 0.88549 0.0
O104 O 0.73508 0.82352 0.92033 0.0
O105 O 0.71098 0.86738 0.9223 0.0
C106 C 0.70656 0.76631 0.89725 0.0
O107 O 0.75245 0.86156 0.89232 0.0
O108 O 0.71277 0.89064 0.88594 0.0
C109 C 0.65821 0.86535 0.86187 0.0
Fe110 Fe 0.39473 0.43716 0.64987 0.0
Fe111 Fe 0.45217 0.42385 0.62512 0.0
O112 O 0.42967 0.44962 0.63939 0.0
Fe113 Fe 0.44231 0.48748 0.64271 0.0
O114 O 0.40451 0.50457 0.6422 0.0
O115 O 0.37289 0.46656 0.63705 0.0
O116 O 0.38538 0.41205 0.62827 0.0
C117 C 0.39529 0.41263 0.6103 0.0
C118 C 0.41935 0.47591 0.68036 0.0
O119 O 0.4223 0.42041 0.60668 0.0
C120 C 0.49617 0.45168 0.64695 0.0
O121 O 0.41393 0.40686 0.66389 0.0
O122 O 0.43949 0.38964 0.63813 0.0
O123 O 0.44166 0.48419 0.66983 0.0
O124 O 0.39779 0.46063 0.67275 0.0
C125 C 0.45981 0.47837 0.60395 0.0
O126 O 0.4837 0.42656 0.64266 0.0
O127 O 0.48256 0.47678 0.64393 0.0
C128 C 0.43014 0.38657 0.65585 0.0
O129 O 0.46939 0.45256 0.60913 0.0
O130 O 0.44369 0.49404 0.61566 0.0
C131 C 0.37889 0.49464 0.63676 0.0
Fe132 Fe 0.82166 0.13726 0.40442 0.0
Fe133 Fe 0.83462 0.19134 0.37677 0.0
O134 O 0.80853 0.16908 0.39042 0.0
Fe135 Fe 0.76953 0.17823 0.38962 0.0
O136 O 0.76045 0.1415 0.37926 0.0
O137 O 0.78686 0.11424 0.40069 0.0
O138 O 0.83618 0.11934 0.38181 0.0
C139 C 0.85416 0.13151 0.36951 0.0
C140 C 0.77944 0.16003 0.43036 0.0
O141 O 0.86069 0.15948 0.37123 0.0
C142 C 0.7923 0.23558 0.39125 0.0
O143 O 0.85905 0.15474 0.41069 0.0
O144 O 0.85422 0.20148 0.39942 0.0
O145 O 0.76214 0.16537 0.41549 0.0
O146 O 0.80702 0.15298 0.42772 0.0
C147 C 0.78915 0.18843 0.34953 0.0
O148 O 0.81321 0.22735 0.37933 0.0
O149 O 0.77598 0.21593 0.39978 0.0
C150 C 0.86689 0.18264 0.41091 0.0
O151 O 0.81639 0.1824 0.35345 0.0
O152 O 0.77006 0.19253 0.36353 0.0
C153 C 0.76613 0.11635 0.38751 0.0
Fe154 Fe 0.06888 0.51611 0.14124 0.0
Fe155 Fe 0.11399 0.56854 0.14791 0.0
O156 O 0.07946 0.55458 0.13757 0.0
Fe157 Fe 0.05558 0.57905 0.12326 0.0
O158 O 0.04203 0.54937 0.10647 0.0
O159 O 0.06896 0.5089 0.11426 0.0
O160 O 0.10765 0.50138 0.14157 0.0
C161 C 0.1321 0.51214 0.13472 0.0
C162 C 0.01254 0.54774 0.14403 0.0
O163 O 0.13671 0.5405 0.13435 0.0
C164 C 0.07487 0.61633 0.15499 0.0
O165 O 0.06854 0.52065 0.16843 0.0
O166 O 0.11264 0.54404 0.17038 0.0
O167 O 0.02349 0.57359 0.14005 0.0
O168 O 0.02805 0.52376 0.14145 0.0
C169 C 0.11197 0.59472 0.10901 0.0
O170 O 0.09348 0.59746 0.16237 0.0
O171 O 0.06497 0.61337 0.13734 0.0
C172 C 0.09133 0.52909 0.17853 0.0
O173 O 0.12193 0.59497 0.12692 0.0
O174 O 0.08546 0.58569 0.10525 0.0
C175 C 0.05435 0.52453 0.10164 0.0
Fe176 Fe 0.83212 0.6866 0.63049 0.0
Fe177 Fe 0.76641 0.67215 0.61927 0.0
O178 O 0.80543 0.66296 0.61836 0.0
Fe179 Fe 0.81794 0.62972 0.6057 0.0
O180 O 0.83294 0.61426 0.62894 0.0
O181 O 0.85814 0.65522 0.63742 0.0
O182 O 0.81445 0.68092 0.65453 0.0
C183 C 0.78738 0.68795 0.65834 0.0
C184 C 0.86317 0.67357 0.59647 0.0
O185 O 0.76787 0.68983 0.64438 0.0
C186 C 0.77472 0.64934 0.57941 0.0
O187 O 0.81086 0.72212 0.62615 0.0
O188 O 0.77254 0.70855 0.60706 0.0
O189 O 0.85527 0.64592 0.59836 0.0
O190 O 0.85121 0.6939 0.60711 0.0
C191 C 0.76335 0.61066 0.62443 0.0
O192 O 0.75804 0.65607 0.59432 0.0
O193 O 0.80258 0.64311 0.58184 0.0
C194 C 0.78962 0.72898 0.6141 0.0
O195 O 0.7577 0.63657 0.63168 0.0
O196 O 0.78329 0.60751 0.61086 0.0
C197 C 0.85149 0.62751 0.64038 0.0
Fe198 Fe 0.0731 0.01777 0.86548 0.0
Fe199 Fe 0.11712 0.06874 0.85348 0.0
O200 O 0.08387 0.05639 0.86607 0.0
Fe201 Fe 0.06162 0.08275 0.87968 0.0
O202 O 0.0679 0.06261 0.90285 0.0
O203 O 0.05637 0.0176 0.89086 0.0
O204 O 0.10838 0.0063 0.87707 0.0
C205 C 0.13435 0.01165 0.87003 0.0
C206 C 0.01728 0.04366 0.86221 0.0
O207 O 0.13823 0.03275 0.85727 0.0
C208 C 0.07419 0.11609 0.84645 0.0
O209 O 0.08794 0.01092 0.84005 0.0
O210 O 0.10292 0.05582 0.82923 0.0
O211 O 0.02522 0.06314 0.87524 0.0
O212 O 0.03691 0.02686 0.85398 0.0
C213 C 0.12143 0.09945 0.88929 0.0
O214 O 0.10166 0.10719 0.84753 0.0
O215 O 0.05405 0.10419 0.85722 0.0
C216 C 0.09506 0.02862 0.82575 0.0
O217 O 0.13374 0.08148 0.87698 0.0
O218 O 0.09387 0.1071 0.88701 0.0
C219 C 0.06036 0.03535 0.90563 0.0
Fe220 Fe 0.67014 0.31573 0.13104 0.0
Fe221 Fe 0.73503 0.32635 0.11623 0.0
O222 O 0.69664 0.33797 0.11757 0.0
Fe223 Fe 0.68472 0.37211 0.10563 0.0
O224 O 0.67321 0.38827 0.12948 0.0
O225 O 0.64741 0.34857 0.13977 0.0
O226 O 0.69132 0.31925 0.15405 0.0
C227 C 0.71843 0.31082 0.15615 0.0
C228 C 0.63576 0.3314 0.09876 0.0
O229 O 0.7359 0.30831 0.14116 0.0
C230 C 0.72325 0.35018 0.07712 0.0
O231 O 0.68824 0.27906 0.12502 0.0
O232 O 0.72505 0.2907 0.10417 0.0
O233 O 0.64581 0.35838 0.10004 0.0
O234 O 0.64726 0.31031 0.10896 0.0
C235 C 0.74256 0.38744 0.12162 0.0
O236 O 0.74124 0.34231 0.09108 0.0
O237 O 0.6963 0.35818 0.08104 0.0
C238 C 0.70729 0.2713 0.11169 0.0
O239 O 0.74754 0.36104 0.1283 0.0
O240 O 0.72118 0.39214 0.10921 0.0
C241 C 0.65539 0.37613 0.1419 0.0
Fe242 Fe 0.44483 0.93854 0.38471 0.0
Fe243 Fe 0.43332 1.00091 0.36521 0.0
O244 O 0.42274 0.96229 0.36873 0.0
Fe245 Fe 0.39008 0.9474 0.35657 0.0
O246 O 0.37942 0.92197 0.37759 0.0
O247 O 0.41297 0.93222 0.40115 0.0
O248 O 0.45623 0.96896 0.40167 0.0
C249 C 0.44374 0.99415 0.40543 0.0
C250 C 0.42962 0.89924 0.35293 0.0
O251 O 0.43002 0.00896 0.39198 0.0
C252 C 0.41634 0.98654 0.32683 0.0
O253 O 0.47856 0.94365 0.3695 0.0
O254 O 0.47428 0.99349 0.36728 0.0
O255 O 0.41254 0.91796 0.34401 0.0
O256 O 0.43741 0.90339 0.37092 0.0
C257 C 0.36897 0.00409 0.36712 0.0
O258 O 0.43714 0.99598 0.33829 0.0
O259 O 0.3946 0.97066 0.33366 0.0
C260 C 0.49005 0.96937 0.3659 0.0
O261 O 0.39442 0.01527 0.36239 0.0
O262 O 0.36532 0.97565 0.36812 0.0
C263 C 0.3873 0.92243 0.39595 0.0
Fe264 Fe 0.17512 0.30976 0.37569 0.0
Fe265 Fe 0.23826 0.32494 0.39218 0.0
O266 O 0.1995 0.3346 0.38913 0.0
Fe267 Fe 0.18492 0.36919 0.39916 0.0
O268 O 0.1572 0.3754 0.37855 0.0
O269 O 0.16787 0.3389 0.35715 0.0
O270 O 0.20425 0.29536 0.35885 0.0
C271 C 0.22879 0.30731 0.35326 0.0
C272 C 0.13893 0.32941 0.40771 0.0
O273 O 0.24435 0.32324 0.36515 0.0
C274 C 0.22675 0.34906 0.42931 0.0
O275 O 0.18164 0.2787 0.39322 0.0
O276 O 0.23136 0.28389 0.39376 0.0
O277 O 0.15767 0.34843 0.41457 0.0
O278 O 0.14113 0.31961 0.38998 0.0
C279 C 0.23979 0.38831 0.38431 0.0
O280 O 0.2353 0.32615 0.41934 0.0
O281 O 0.21037 0.3695 0.42122 0.0
C282 C 0.20775 0.26827 0.39718 0.0
O283 O 0.25174 0.36421 0.39113 0.0
O284 O 0.21135 0.39206 0.38457 0.0
C285 C 0.15807 0.36532 0.36067 0.0
Fe286 Fe 0.92807 0.99294 0.14024 0.0
Fe287 Fe 0.88477 0.94165 0.15335 0.0
O288 O 0.91684 0.95443 0.13961 0.0
Fe289 Fe 0.93761 0.92856 0.12466 0.0
O290 O 0.92828 0.94919 0.10214 0.0
O291 O 0.94188 0.99366 0.11405 0.0
O292 O 0.89201 0.00503 0.13047 0.0
C293 C 0.8664 0.99956 0.13798 0.0
C294 C 0.98378 0.96665 0.14049 0.0
O295 O 0.86289 0.97768 0.15028 0.0
C296 C 0.9292 0.89432 0.15804 0.0
O297 O 0.9159 0.99927 0.16633 0.0
O298 O 0.90077 0.95444 0.17713 0.0
O299 O 0.97419 0.94829 0.1273 0.0
O300 O 0.96533 0.98322 0.14999 0.0
C301 C 0.87759 0.91118 0.11761 0.0
O302 O 0.90157 0.90324 0.1587 0.0
O303 O 0.94784 0.90689 0.14641 0.0
C304 C 0.90941 0.98137 0.18063 0.0
O305 O 0.86609 0.92884 0.13044 0.0
O306 O 0.90525 0.90381 0.11893 0.0
C307 C 0.93541 0.97655 0.09929 0.0
Fe308 Fe 0.32151 0.63603 0.90154 0.0
Fe309 Fe 0.33531 0.68979 0.87369 0.0
O310 O 0.30899 0.66809 0.88757 0.0
Fe311 Fe 0.27018 0.67817 0.88703 0.0
O312 O 0.26024 0.64185 0.87629 0.0
O313 O 0.28638 0.61383 0.89754 0.0
O314 O 0.33574 0.61787 0.87893 0.0
C315 C 0.35383 0.6295 0.8665 0.0
C316 C 0.27938 0.65874 0.9276 0.0
O317 O 0.36064 0.65745 0.86781 0.0
C318 C 0.29475 0.73465 0.88927 0.0
O319 O 0.35919 0.65279 0.90792 0.0
O320 O 0.35571 0.69938 0.89611 0.0
O321 O 0.26242 0.66466 0.91267 0.0
O322 O 0.30699 0.65173 0.925 0.0
C323 C 0.28925 0.68935 0.84686 0.0
O324 O 0.31476 0.72614 0.87677 0.0
O325 O 0.27788 0.71533 0.89769 0.0
C326 C 0.36773 0.68048 0.90785 0.0
O327 O 0.31621 0.6816 0.85042 0.0
O328 O 0.27071 0.69348 0.86117 0.0
C329 C 0.26578 0.61644 0.88429 0.0
Fe330 Fe 0.55606 0.07086 0.62111 0.0
Fe331 Fe 0.56617 0.00991 0.64244 0.0
O332 O 0.57789 0.04773 0.63753 0.0
Fe333 Fe 0.61144 0.06265 0.6487 0.0
O334 O 0.62159 0.08659 0.62683 0.0
O335 O 0.58761 0.07434 0.60399 0.0
O336 O 0.54238 0.03986 0.60549 0.0
C337 C 0.55377 0.01406 0.60226 0.0
C338 C 0.57246 0.11155 0.65151 0.0
O339 O 0.56767 0.99981 0.61586 0.0
C340 C 0.58603 0.02598 0.67998 0.0
O341 O 0.52276 0.06845 0.63708 0.0
O342 O 0.52548 0.01877 0.64121 0.0
O343 O 0.58984 0.09346 0.66087 0.0
O344 O 0.56573 0.10644 0.63345 0.0
C345 C 0.62984 0.0047 0.63832 0.0
O346 O 0.56415 0.01678 0.66933 0.0
O347 O 0.60774 0.04075 0.67218 0.0
C348 C 0.5106 0.0435 0.64196 0.0
O349 O 0.60462 0.99462 0.64441 0.0
O350 O 0.63503 0.03296 0.63746 0.0
C351 C 0.61348 0.08444 0.60855 0.0
H352 H 0.32504 0.18579 0.18978 0.0
H353 H 0.31695 0.20551 0.22339 0.0
H354 H 0.22763 0.23672 0.20624 0.0
H355 H 0.23602 0.21791 0.17211 0.0
H356 H 0.25638 0.28006 0.2244 0.0
H357 H 0.23987 0.17487 0.23902 0.0
H358 H 0.25086 0.11982 0.23972 0.0
H359 H 0.33185 0.13629 0.27386 0.0
H360 H 0.32153 0.19154 0.2732 0.0
H361 H 0.1936 0.30271 0.32049 0.0
H362 H 0.20815 0.28538 0.28711 0.0
H363 H 0.30141 0.27791 0.30635 0.0
H364 H 0.28689 0.29607 0.34006 0.0
H365 H 0.27498 0.22386 0.28778 0.0
H366 H 0.28705 0.33018 0.27521 0.0
H367 H 0.27233 0.38435 0.27535 0.0
H368 H 0.19592 0.36445 0.23757 0.0
H369 H 0.20979 0.31005 0.23751 0.0
C370 C 0.30348 0.19655 0.19314 0.0
C371 C 0.28123 0.20049 0.17817 0.0
C372 C 0.29882 0.20762 0.21248 0.0
C373 C 0.2716 0.22239 0.21743 0.0
C374 C 0.24884 0.22538 0.20275 0.0
C375 C 0.25358 0.21448 0.18327 0.0
C376 C 0.2679 0.23667 0.23745 0.0
C377 C 0.26012 0.26766 0.23825 0.0
C378 C 0.27369 0.22067 0.25552 0.0
C379 C 0.28009 0.18743 0.25585 0.0
C380 C 0.26018 0.16681 0.24652 0.0
C381 C 0.26625 0.13556 0.24695 0.0
C382 C 0.2921 0.12458 0.25675 0.0
C383 C 0.31189 0.14485 0.26621 0.0
C384 C 0.3059 0.17613 0.26585 0.0
C385 C 0.21732 0.29789 0.31752 0.0
C386 C 0.23918 0.30064 0.33277 0.0
C387 C 0.22558 0.28805 0.29847 0.0
C388 C 0.2558 0.28043 0.29432 0.0
C389 C 0.27796 0.28381 0.30935 0.0
C390 C 0.26974 0.2943 0.32846 0.0
C391 C 0.26328 0.26705 0.2746 0.0
C392 C 0.27168 0.23626 0.27386 0.0
C393 C 0.2577 0.28309 0.25659 0.0
C394 C 0.24933 0.3159 0.25653 0.0
C395 C 0.26692 0.33727 0.2671 0.0
C396 C 0.25876 0.36804 0.26714 0.0
C397 C 0.23317 0.37781 0.25652 0.0
C398 C 0.21572 0.35684 0.24581 0.0
C399 C 0.22374 0.32602 0.24576 0.0
H400 H 0.22694 0.40164 0.25654 0.0
H401 H 0.29672 0.10038 0.25708 0.0
H402 H 0.51627 0.47504 0.58887 0.0
H403 H 0.53101 0.48129 0.5539 0.0
H404 H 0.44042 0.51203 0.53949 0.0
H405 H 0.42551 0.50561 0.57483 0.0
H406 H 0.459 0.46351 0.51672 0.0
H407 H 0.50137 0.56062 0.53571 0.0
H408 H 0.53297 0.59524 0.55603 0.0
H409 H 0.6125 0.54356 0.54072 0.0
H410 H 0.58123 0.50829 0.52076 0.0
H411 H 0.48597 0.50876 0.41679 0.0
H412 H 0.47287 0.49837 0.45158 0.0
H413 H 0.56616 0.47436 0.46391 0.0
H414 H 0.57937 0.48517 0.42878 0.0
H415 H 0.5475 0.51788 0.48821 0.0
H416 H 0.50766 0.42258 0.46808 0.0
H417 H 0.47766 0.38487 0.44924 0.0
H418 H 0.39516 0.42858 0.46808 0.0
H419 H 0.4247 0.46723 0.48628 0.0
C420 C 0.49979 0.48409 0.57835 0.0
C421 C 0.46983 0.49 0.58443 0.0
C422 C 0.50824 0.4877 0.55839 0.0
C423 C 0.48686 0.49722 0.54411 0.0
C424 C 0.45728 0.5048 0.55035 0.0
C425 C 0.44885 0.50144 0.57049 0.0
C426 C 0.49467 0.49568 0.52254 0.0
C427 C 0.47794 0.47588 0.5103 0.0
C428 C 0.52038 0.51058 0.51458 0.0
C429 C 0.53901 0.53179 0.52676 0.0
C430 C 0.52557 0.55652 0.53681 0.0
C431 C 0.54342 0.57626 0.54828 0.0
C432 C 0.57475 0.57159 0.54971 0.0
C433 C 0.58827 0.54718 0.53966 0.0
C434 C 0.57052 0.52734 0.52825 0.0
C435 C 0.50342 0.50008 0.42676 0.0
C436 C 0.5336 0.49758 0.42021 0.0
C437 C 0.49592 0.49411 0.44665 0.0
C438 C 0.5185 0.48556 0.46039 0.0
C439 C 0.54837 0.48087 0.45352 0.0
C440 C 0.55586 0.48669 0.43346 0.0
C441 C 0.51152 0.48596 0.48216 0.0
C442 C 0.52847 0.5055 0.4945 0.0
C443 C 0.48615 0.47054 0.49026 0.0
C444 C 0.46843 0.44801 0.47847 0.0
C445 C 0.48314 0.42448 0.46792 0.0
C446 C 0.46621 0.40291 0.45733 0.0
C447 C 0.43452 0.40439 0.45735 0.0
C448 C 0.4197 0.42752 0.46791 0.0
C449 C 0.43653 0.44931 0.47834 0.0
H450 H 0.42145 0.38754 0.44926 0.0
H451 H 0.58855 0.5869 0.55858 0.0
H452 H 0.19446 0.82322 0.68912 0.0
H453 H 0.20773 0.80271 0.72169 0.0
H454 H 0.29434 0.77287 0.69859 0.0
H455 H 0.28053 0.79228 0.66531 0.0
H456 H 0.26785 0.72849 0.71823 0.0
H457 H 0.2888 0.83312 0.73409 0.0
H458 H 0.27766 0.88819 0.73478 0.0
H459 H 0.19727 0.87149 0.7693 0.0
H460 H 0.20777 0.81635 0.76875 0.0
H461 H 0.3275 0.69371 0.8149 0.0
H462 H 0.31708 0.71637 0.78229 0.0
H463 H 0.22406 0.73175 0.7993 0.0
H464 H 0.23432 0.7099 0.83254 0.0
H465 H 0.25605 0.78348 0.78273 0.0
H466 H 0.23783 0.67793 0.76855 0.0
H467 H 0.24883 0.62303 0.76634 0.0
H468 H 0.32408 0.64101 0.72726 0.0
H469 H 0.31412 0.6961 0.72968 0.0
C470 C 0.21656 0.81268 0.69092 0.0
C471 C 0.23635 0.80914 0.67452 0.0
C472 C 0.22421 0.80115 0.70968 0.0
C473 C 0.25216 0.78651 0.71267 0.0
C474 C 0.27263 0.78412 0.69659 0.0
C475 C 0.26481 0.79538 0.67763 0.0
C476 C 0.25869 0.77176 0.73219 0.0
C477 C 0.2658 0.74061 0.73235 0.0
C478 C 0.25512 0.78742 0.75059 0.0
C479 C 0.24907 0.82063 0.75135 0.0
C480 C 0.26872 0.84122 0.74181 0.0
C481 C 0.2625 0.87244 0.74219 0.0
C482 C 0.23674 0.88334 0.7521 0.0
C483 C 0.21719 0.86304 0.76168 0.0
C484 C 0.2233 0.83181 0.76137 0.0
C485 C 0.30464 0.70148 0.81174 0.0
C486 C 0.28165 0.69978 0.82635 0.0
C487 C 0.2988 0.71433 0.79303 0.0
C488 C 0.26983 0.72525 0.78835 0.0
C489 C 0.2466 0.72329 0.80269 0.0
C490 C 0.25245 0.71063 0.82158 0.0
C491 C 0.26456 0.74012 0.76879 0.0
C492 C 0.25793 0.77134 0.76864 0.0
C493 C 0.26878 0.72449 0.75042 0.0
C494 C 0.27542 0.6913 0.74951 0.0
C495 C 0.25703 0.67028 0.75974 0.0
C496 C 0.26301 0.63907 0.75839 0.0
C497 C 0.28711 0.62852 0.74665 0.0
C498 C 0.30533 0.64918 0.73628 0.0
C499 C 0.29959 0.68042 0.7377 0.0
H500 H 0.29169 0.60436 0.74564 0.0
H501 H 0.2319 0.90751 0.75236 0.0
H502 H 0.91781 0.478 0.94051 0.0
H503 H 0.93673 0.48923 0.97419 0.0
H504 H 1.00032 0.55346 0.94927 0.0
H505 H 0.98136 0.54199 0.91542 0.0
H506 H 0.02825 0.51076 0.9707 0.0
H507 H 0.94539 0.57608 0.98023 0.0
H508 H 0.89306 0.5957 0.98156 0.0
H509 H 0.87078 0.53015 0.02691 0.0
H510 H 0.92266 0.50937 0.02543 0.0
H511 H 0.08335 0.54685 0.06954 0.0
H512 H 0.06568 0.54412 0.03481 0.0
H513 H 0.9969 0.47961 0.0524 0.0
H514 H 0.01446 0.48282 0.08733 0.0
H515 H 0.97322 0.52908 0.03435 0.0
H516 H 0.05614 0.46006 0.02055 0.0
H517 H 0.10961 0.44334 0.01952 0.0
H518 H 0.13227 0.52019 0.98281 0.0
H519 H 0.07906 0.53777 0.98391 0.0
C520 C 0.93482 0.49557 0.94238 0.0
C521 C 0.94779 0.50964 0.92557 0.0
C522 C 0.94566 0.50194 0.96159 0.0
C523 C 0.96982 0.52231 0.96427 0.0
C524 C 0.98151 0.53784 0.94754 0.0
C525 C 0.97049 0.53158 0.92827 0.0
C526 C 0.98555 0.52363 0.98395 0.0
C527 C 0.01633 0.51524 0.98461 0.0
C528 C 0.96979 0.52911 1.0021 0.0
C529 C 0.93803 0.5408 1.00249 0.0
C530 C 0.92926 0.5654 0.99023 0.0
C531 C 0.89963 0.57684 0.99107 0.0
C532 C 0.87859 0.56416 0.00429 0.0
C533 C 0.88711 0.54 0.0167 0.0
C534 C 0.91663 0.52832 0.01581 0.0
C535 C 0.06535 0.53108 0.06576 0.0
C536 C 0.05053 0.51458 0.08086 0.0
C537 C 0.05518 0.52962 0.04595 0.0
C538 C 0.02997 0.51166 0.041 0.0
C539 C 0.01644 0.49357 0.05591 0.0
C540 C 0.02666 0.49505 0.07577 0.0
C541 C 0.01538 0.51477 0.02104 0.0
C542 C 0.98496 0.52439 0.02038 0.0
C543 C 0.03148 0.51065 1.0029 0.0
C544 C 0.06362 0.5004 1.0025 0.0
C545 C 0.07258 0.47361 0.01245 0.0
C546 C 0.10284 0.46395 0.01181 0.0
C547 C 0.12432 0.48076 1.00114 0.0
C548 C 0.11561 0.5073 0.99112 0.0
C549 C 0.08541 0.51712 0.99175 0.0
H550 H 0.14769 0.47318 1.00057 0.0
H551 H 0.85568 0.57308 0.00493 0.0
H552 H 0.78488 0.79588 0.83838 0.0
H553 H 0.79628 0.77934 0.80389 0.0
H554 H 0.70193 0.79111 0.78791 0.0
H555 H 0.69044 0.80577 0.8222 0.0
H556 H 0.71878 0.73807 0.7773 0.0
H557 H 0.75991 0.83816 0.76977 0.0
H558 H 0.79235 0.88204 0.77811 0.0
H559 H 0.87206 0.82721 0.76935 0.0
H560 H 0.84007 0.78285 0.76122 0.0
H561 H 0.73304 0.71016 0.67222 0.0
H562 H 0.72333 0.73408 0.70476 0.0
H563 H 0.81625 0.71775 0.7222 0.0
H564 H 0.82609 0.69345 0.69008 0.0
H565 H 0.80002 0.77365 0.73165 0.0
H566 H 0.75519 0.67319 0.73871 0.0
H567 H 0.72055 0.63137 0.72994 0.0
H568 H 0.64396 0.6906 0.73849 0.0
H569 H 0.67832 0.73289 0.74713 0.0
C570 C 0.76685 0.79541 0.82732 0.0
C571 C 0.7368 0.80186 0.83287 0.0
C572 C 0.77331 0.78605 0.80765 0.0
C573 C 0.74988 0.78385 0.79332 0.0
C574 C 0.7203 0.79227 0.79871 0.0
C575 C 0.7138 0.80084 0.81829 0.0
C576 C 0.75513 0.77031 0.77324 0.0
C577 C 0.73629 0.7462 0.76721 0.0
C578 C 0.77829 0.78048 0.76022 0.0
C579 C 0.79758 0.8071 0.7651 0.0
C580 C 0.78435 0.83538 0.76979 0.0
C581 C 0.80266 0.86036 0.77445 0.0
C582 C 0.83424 0.85739 0.77432 0.0
C583 C 0.84759 0.82946 0.76947 0.0
C584 C 0.82938 0.8044 0.76483 0.0
C585 C 0.75125 0.71118 0.68313 0.0
C586 C 0.78026 0.69968 0.67858 0.0
C587 C 0.74569 0.7249 0.70169 0.0
C588 C 0.76899 0.72724 0.71601 0.0
C589 C 0.79789 0.71586 0.71146 0.0
C590 C 0.80341 0.70189 0.69307 0.0
C591 C 0.76356 0.74161 0.73576 0.0
C592 C 0.78244 0.76571 0.74175 0.0
C593 C 0.74006 0.73179 0.74865 0.0
C594 C 0.71943 0.70629 0.74342 0.0
C595 C 0.73104 0.67736 0.73862 0.0
C596 C 0.71142 0.65355 0.73368 0.0
C597 C 0.68006 0.65833 0.73361 0.0
C598 C 0.66827 0.68692 0.73853 0.0
C599 C 0.68782 0.71081 0.74346 0.0
H600 H 0.66489 0.63987 0.72978 0.0
H601 H 0.84838 0.87676 0.77793 0.0
H602 H 0.77549 0.31 0.1723 0.0
H603 H 0.79061 0.28907 0.20493 0.0
H604 H 0.69832 0.26122 0.21587 0.0
H605 H 0.68272 0.28384 0.18405 0.0
H606 H 0.72794 0.2938 0.24767 0.0
H607 H 0.75475 0.17814 0.2195 0.0
H608 H 0.77949 0.14848 0.19259 0.0
H609 H 0.84482 0.21973 0.1844 0.0
H610 H 0.82148 0.24888 0.212 0.0
H611 H 0.73278 0.19792 0.33296 0.0
H612 H 0.72175 0.21665 0.29907 0.0
H613 H 0.81767 0.21795 0.28586 0.0
H614 H 0.82867 0.19785 0.31891 0.0
H615 H 0.7892 0.19957 0.25484 0.0
H616 H 0.77561 0.2832 0.30149 0.0
H617 H 0.75238 0.30551 0.33182 0.0
H618 H 0.66392 0.29709 0.3053 0.0
H619 H 0.68657 0.27425 0.27496 0.0
C620 C 0.75854 0.29929 0.18169 0.0
C621 C 0.72798 0.29856 0.17572 0.0
C622 C 0.76729 0.2868 0.20012 0.0
C623 C 0.74583 0.27234 0.21238 0.0
C624 C 0.71531 0.27183 0.20645 0.0
C625 C 0.70642 0.28493 0.18835 0.0
C626 C 0.75421 0.25968 0.23215 0.0
C627 C 0.74152 0.2733 0.24928 0.0
C628 C 0.77195 0.23299 0.23423 0.0
C629 C 0.78527 0.21651 0.21698 0.0
C630 C 0.77419 0.1876 0.21177 0.0
C631 C 0.78823 0.17066 0.19662 0.0
C632 C 0.81337 0.18246 0.18653 0.0
C633 C 0.82494 0.2109 0.19192 0.0
C634 C 0.81127 0.22766 0.20731 0.0
C635 C 0.7514 0.20183 0.32269 0.0
C636 C 0.78155 0.19669 0.32868 0.0
C637 C 0.74513 0.21272 0.30341 0.0
C638 C 0.76898 0.21942 0.29012 0.0
C639 C 0.79892 0.21309 0.29586 0.0
C640 C 0.80514 0.20163 0.31485 0.0
C641 C 0.76326 0.23383 0.27041 0.0
C642 C 0.77608 0.22038 0.25332 0.0
C643 C 0.74611 0.26095 0.26843 0.0
C644 C 0.73276 0.27672 0.28605 0.0
C645 C 0.75121 0.28613 0.30213 0.0
C646 C 0.73814 0.29877 0.31934 0.0
C647 C 0.70668 0.30239 0.32055 0.0
C648 C 0.68827 0.29404 0.30439 0.0
C649 C 0.70121 0.28129 0.28717 0.0
H650 H 0.69654 0.31173 0.33401 0.0
H651 H 0.82406 0.16943 0.17469 0.0
H652 H 0.92168 0.94659 0.0646 0.0
H653 H 0.9414 0.9572 0.03116 0.0
H654 H 0.98431 0.03868 0.05336 0.0
H655 H 0.96531 0.0279 0.08709 0.0
H656 H 0.93767 0.00459 0.00419 0.0
H657 H 0.05537 0.04124 0.03333 0.0
H658 H 0.08889 0.033 0.06249 0.0
H659 H 0.04741 0.9462 0.0732 0.0
H660 H 0.01374 0.95384 0.04402 0.0
H661 H 0.07004 0.06572 0.9407 0.0
H662 H 0.04696 0.05542 0.97322 0.0
H663 H 0.00442 0.97497 0.94909 0.0
H664 H 0.02756 0.98514 0.91634 0.0
H665 H 0.05003 0.00775 0.99898 0.0
H666 H 0.93103 0.97195 0.9704 0.0
H667 H 0.89742 0.98025 0.94125 0.0
H668 H 0.9416 0.06521 0.929 0.0
H669 H 0.97506 0.05774 0.95827 0.0
C670 C 0.93502 0.967 0.06237 0.0
C671 C 0.94246 0.98612 0.07859 0.0
C672 C 0.9461 0.97308 0.04321 0.0
C673 C 0.96466 0.99842 0.03992 0.0
C674 C 0.97034 0.01875 0.05573 0.0
C675 C 0.95935 0.01264 0.07495 0.0
C676 C 0.97995 1.0022 0.02037 0.0
C677 C 0.96223 0.00497 1.00296 0.0
C678 C 0.01196 0.003 0.01891 0.0
C679 C 0.03192 0.99824 0.03658 0.0
C680 C 0.05346 0.02038 0.04189 0.0
C681 C 0.07249 0.01579 0.05841 0.0
C682 C 0.07038 0.98903 0.06963 0.0
C683 C 0.04902 0.96691 0.06448 0.0
C684 C 0.0299 0.97139 0.04798 0.0
C685 C 0.05605 0.04563 0.94233 0.0
C686 C 0.05022 0.02644 0.92589 0.0
C687 C 0.04291 0.03978 0.96093 0.0
C688 C 0.02356 0.01479 0.96341 0.0
C689 C 0.01889 0.99469 0.94733 0.0
C690 C 0.03223 1.00042 0.9287 0.0
C691 C 0.00781 0.01039 0.98275 0.0
C692 C 0.02547 0.00738 1.00014 0.0
C693 C 0.97575 0.00936 0.98413 0.0
C694 C 0.95581 0.01407 0.96641 0.0
C695 C 0.93352 0.99244 0.96152 0.0
C696 C 0.91444 0.99705 0.94501 0.0
C697 C 0.91732 0.02329 0.93333 0.0
C698 C 0.93938 0.04491 0.93808 0.0
C699 C 0.95845 0.04047 0.95461 0.0
H700 H 0.90252 0.02681 0.92056 0.0
H701 H 0.08541 0.98534 0.08222 0.0
H702 H 0.48576 0.03547 0.41716 0.0
H703 H 0.50467 0.04157 0.45161 0.0
H704 H 0.43291 0.98353 0.4732 0.0
H705 H 0.41405 0.9776 0.43885 0.0
H706 H 0.44819 0.03011 0.50035 0.0
H707 H 0.49847 0.95296 0.45921 0.0
H708 H 0.52688 0.93679 0.42914 0.0
H709 H 0.59873 0.99872 0.444 0.0
H710 H 0.57052 0.01561 0.47399 0.0
H711 H 0.50793 0.97724 0.59038 0.0
H712 H 0.48929 0.97308 0.55578 0.0
H713 H 0.56799 0.02195 0.53482 0.0
H714 H 0.58677 0.0255 0.56929 0.0
H715 H 0.55007 0.98252 0.50701 0.0
H716 H 0.50502 0.05805 0.54819 0.0
H717 H 0.4781 0.07946 0.57735 0.0
H718 H 0.39815 0.0293 0.56156 0.0
H719 H 0.42503 0.00622 0.53283 0.0
C720 C 0.47324 0.02534 0.42944 0.0
C721 C 0.44822 0.00656 0.42558 0.0
C722 C 0.48422 0.02849 0.44903 0.0
C723 C 0.47044 0.01258 0.46488 0.0
C724 C 0.44383 0.99601 0.4612 0.0
C725 C 0.43295 0.99279 0.44164 0.0
C726 C 0.48569 0.00975 0.48463 0.0
C727 C 0.47031 0.01945 0.50189 0.0
C728 C 0.51495 0.99656 0.48647 0.0
C729 C 0.53227 0.98572 0.46876 0.0
C730 C 0.52027 0.96322 0.45602 0.0
C731 C 0.53634 0.95393 0.43899 0.0
C732 C 0.56459 0.96673 0.43467 0.0
C733 C 0.57686 0.98881 0.44738 0.0
C734 C 0.56085 0.99825 0.4644 0.0
C735 C 0.52194 0.98556 0.57821 0.0
C736 C 0.54899 1.00113 0.58229 0.0
C737 C 0.51111 0.98363 0.55852 0.0
C738 C 0.52692 0.99784 0.54279 0.0
C739 C 0.55538 0.01088 0.54669 0.0
C740 C 0.56624 0.01268 0.56635 0.0
C741 C 0.51234 1.00239 0.52291 0.0
C742 C 0.5279 0.99311 0.50558 0.0
C743 C 0.48349 0.01657 0.521 0.0
C744 C 0.46727 0.02997 0.53849 0.0
C745 C 0.48188 0.05108 0.55111 0.0
C746 C 0.46663 0.06348 0.5676 0.0
C747 C 0.43652 0.05548 0.57139 0.0
C748 C 0.4216 0.03507 0.55872 0.0
C749 C 0.43687 0.02224 0.54238 0.0
H750 H 0.42466 0.0653 0.58405 0.0
H751 H 0.57702 0.95947 0.42151 0.0
H752 H 0.10084 0.13296 0.92136 0.0
H753 H 0.12817 0.14551 0.9522 0.0
H754 H 0.20885 0.10263 0.92874 0.0
H755 H 0.18152 0.08953 0.89801 0.0
H756 H 0.19968 0.08445 0.96586 0.0
H757 H 0.20172 0.18163 0.93327 0.0
H758 H 0.1801 0.22649 0.91617 0.0
H759 H 0.1258 0.24648 0.96801 0.0
H760 H 0.1468 0.20148 0.98533 0.0
H761 H 0.30032 0.13676 0.04245 0.0
H762 H 0.27554 0.12885 0.00996 0.0
H763 H 0.19213 0.16562 0.03365 0.0
H764 H 0.21665 0.17366 0.06614 0.0
H765 H 0.2036 0.1875 0.99614 0.0
H766 H 0.20169 0.09075 0.02868 0.0
H767 H 0.22205 0.04531 0.04572 0.0
H768 H 0.27552 0.02388 0.99373 0.0
H769 H 0.25583 0.06955 0.97653 0.0
C770 C 0.12454 0.12663 0.92259 0.0
C771 C 0.13895 0.11038 0.90705 0.0
C772 C 0.14021 0.13385 0.94029 0.0
C773 C 0.17076 0.12527 0.94285 0.0
C774 C 0.18533 0.10953 0.92721 0.0
C775 C 0.16967 0.10221 0.90955 0.0
C776 C 0.18716 0.13152 0.9621 0.0
C777 C 0.20099 0.10711 0.97227 0.0
C778 C 0.18823 0.1609 0.97088 0.0
C779 C 0.17563 0.18802 0.96052 0.0
C780 C 0.185 0.19546 0.94097 0.0
C781 C 0.17289 0.22093 0.93124 0.0
C782 C 0.15153 0.23928 0.94098 0.0
C783 C 0.14231 0.23223 0.96048 0.0
C784 C 0.15433 0.20676 0.97027 0.0
C785 C 0.27676 0.14339 0.04075 0.0
C786 C 0.26055 0.15584 0.05702 0.0
C787 C 0.26255 0.13869 0.02215 0.0
C788 C 0.23183 0.14638 0.01934 0.0
C789 C 0.21582 0.1595 0.03539 0.0
C790 C 0.22993 0.16404 0.05401 0.0
C791 C 0.21625 0.14047 0.99979 0.0
C792 C 0.20249 0.1649 0.98962 0.0
C793 C 0.21526 0.11109 0.99101 0.0
C794 C 0.22755 0.08384 1.00142 0.0
C795 C 0.21803 0.07656 0.02097 0.0
C796 C 0.22942 0.05071 0.03065 0.0
C797 C 0.25017 0.03177 0.02084 0.0
C798 C 0.25953 0.03863 1.00133 0.0
C799 C 0.24826 0.06451 0.99162 0.0
H800 H 0.25892 0.01174 0.02834 0.0
H801 H 0.14218 0.25899 0.93342 0.0
H802 H 0.548 0.48662 0.30631 0.0
H803 H 0.55955 0.46326 0.27398 0.0
H804 H 0.63228 0.5272 0.26498 0.0
H805 H 0.62133 0.55051 0.29768 0.0
H806 H 0.59362 0.51404 0.22947 0.0
H807 H 0.65136 0.46526 0.28113 0.0
H808 H 0.65786 0.43989 0.31378 0.0
H809 H 0.60271 0.3654 0.29375 0.0
H810 H 0.59451 0.39109 0.26128 0.0
H811 H 0.67204 0.43383 0.15272 0.0
H812 H 0.65755 0.46211 0.1827 0.0
H813 H 0.59948 0.38822 0.2009 0.0
H814 H 0.61451 0.35933 0.17106 0.0
H815 H 0.63121 0.40752 0.23199 0.0
H816 H 0.57095 0.45676 0.18147 0.0
H817 H 0.56131 0.48309 0.14942 0.0
H818 H 0.62055 0.55572 0.16725 0.0
H819 H 0.63086 0.52962 0.19932 0.0
C820 C 0.56616 0.49616 0.29738 0.0
C821 C 0.58385 0.52042 0.30472 0.0
C822 C 0.57277 0.48265 0.27889 0.0
C823 C 0.59693 0.4933 0.26717 0.0
C824 C 0.61356 0.51861 0.27382 0.0
C825 C 0.60728 0.53187 0.29253 0.0
C826 C 0.6059 0.47666 0.24866 0.0
C827 C 0.60222 0.4909 0.22999 0.0
C828 C 0.61652 0.44621 0.24939 0.0
C829 C 0.62192 0.43038 0.26881 0.0
C830 C 0.64019 0.44371 0.28375 0.0
C831 C 0.64416 0.42927 0.30226 0.0
C832 C 0.63072 0.40105 0.30585 0.0
C833 C 0.61309 0.38729 0.29096 0.0
C834 C 0.60863 0.40187 0.27253 0.0
C835 C 0.65589 0.42364 0.16294 0.0
C836 C 0.64428 0.3943 0.15932 0.0
C837 C 0.64756 0.43994 0.18013 0.0
C838 C 0.62709 0.42756 0.19405 0.0
C839 C 0.61528 0.39835 0.19042 0.0
C840 C 0.62376 0.38191 0.17326 0.0
C841 C 0.61869 0.44476 0.2126 0.0
C842 C 0.62257 0.43064 0.23137 0.0
C843 C 0.60814 0.47529 0.21196 0.0
C844 C 0.60189 0.49109 0.19272 0.0
C845 C 0.58209 0.47824 0.1785 0.0
C846 C 0.57648 0.49314 0.16034 0.0
C847 C 0.59036 0.52102 0.15628 0.0
C848 C 0.60983 0.5341 0.1704 0.0
C849 C 0.61555 0.51928 0.18858 0.0
H850 H 0.58599 0.53252 0.14221 0.0
H851 H 0.63405 0.38981 0.32013 0.0
H852 H 0.27309 0.81757 0.55705 0.0
H853 H 0.29534 0.8269 0.52414 0.0
H854 H 0.21794 0.8817 0.5077 0.0
H855 H 0.19518 0.87225 0.54073 0.0
H856 H 0.24545 0.84433 0.47488 0.0
H857 H 0.27257 0.91614 0.52725 0.0
H858 H 0.28934 0.92417 0.56216 0.0
H859 H 0.3744 0.88071 0.54902 0.0
H860 H 0.35759 0.87111 0.51427 0.0
H861 H 0.32509 0.92422 0.39742 0.0
H862 H 0.29248 0.90914 0.42549 0.0
H863 H 0.37132 0.87761 0.45804 0.0
H864 H 0.40384 0.89429 0.43061 0.0
H865 H 0.33935 0.90543 0.48274 0.0
H866 H 0.31498 0.82888 0.4339 0.0
H867 H 0.29828 0.80883 0.40114 0.0
H868 H 0.21201 0.85328 0.40814 0.0
H869 H 0.22835 0.87391 0.44085 0.0
C870 C 0.26042 0.83112 0.54633 0.0
C871 C 0.23258 0.84463 0.55169 0.0
C872 C 0.27315 0.8363 0.52747 0.0
C873 C 0.25852 0.85536 0.5136 0.0
C874 C 0.22961 0.86694 0.51821 0.0
C875 C 0.2167 0.86161 0.53713 0.0
C876 C 0.2754 0.86643 0.49574 0.0
C877 C 0.26573 0.85809 0.47647 0.0
C878 C 0.30224 0.88377 0.49797 0.0
C879 C 0.31366 0.8926 0.51817 0.0
C880 C 0.29482 0.90819 0.5318 0.0
C881 C 0.3042 0.91275 0.55162 0.0
C882 C 0.33279 0.90266 0.55784 0.0
C883 C 0.35217 0.8883 0.5442 0.0
C884 C 0.34268 0.88321 0.52445 0.0
C885 C 0.33531 0.91371 0.41049 0.0
C886 C 0.36698 0.91028 0.41176 0.0
C887 C 0.31666 0.90501 0.42656 0.0
C888 C 0.32923 0.89183 0.44398 0.0
C889 C 0.36088 0.88784 0.44495 0.0
C890 C 0.3795 0.89721 0.42916 0.0
C891 C 0.30988 0.88292 0.46149 0.0
C892 C 0.31899 0.89188 0.48088 0.0
C893 C 0.28289 0.86557 0.45936 0.0
C894 C 0.27302 0.85321 0.43971 0.0
C895 C 0.29253 0.83456 0.42838 0.0
C896 C 0.28312 0.82306 0.40983 0.0
C897 C 0.25414 0.82985 0.40254 0.0
C898 C 0.23447 0.84809 0.4138 0.0
C899 C 0.24379 0.85967 0.43235 0.0
H900 H 0.24689 0.82093 0.38818 0.0
H901 H 0.34006 0.90631 0.57317 0.0
H902 H 0.82926 0.57597 0.65769 0.0
H903 H 0.84591 0.55149 0.68875 0.0
H904 H 0.9184 0.61655 0.69447 0.0
H905 H 0.90123 0.64204 0.66361 0.0
H906 H 0.9238 0.53737 0.69934 0.0
H907 H 0.89162 0.63517 0.72541 0.0
H908 H 0.85937 0.67996 0.73186 0.0
H909 H 0.78591 0.6217 0.74938 0.0
H910 H 0.81765 0.57644 0.74264 0.0
H911 H 0.96129 0.5071 0.80451 0.0
H912 H 0.95538 0.52976 0.77106 0.0
H913 H 0.86177 0.50154 0.76978 0.0
H914 H 0.86749 0.47851 0.8029 0.0
H915 H 0.8714 0.56473 0.76271 0.0
H916 H 0.90858 0.46705 0.74028 0.0
H917 H 0.9454 0.42474 0.73896 0.0
H918 H 0.01404 0.48564 0.7173 0.0
H919 H 0.97773 0.52843 0.71878 0.0
C920 C 0.84896 0.58498 0.66539 0.0
C921 C 0.86396 0.61099 0.65808 0.0
C922 C 0.85834 0.571 0.68321 0.0
C923 C 0.88318 0.58236 0.694 0.0
C924 C 0.89898 0.60761 0.68645 0.0
C925 C 0.88921 0.62206 0.66878 0.0
C926 C 0.89186 0.56787 0.71333 0.0
C927 C 0.91277 0.54366 0.71329 0.0
C928 C 0.87714 0.57571 0.73144 0.0
C929 C 0.85679 0.60244 0.73308 0.0
C930 C 0.8683 0.63187 0.73003 0.0
C931 C 0.85021 0.65734 0.73392 0.0
C932 C 0.82064 0.65366 0.74103 0.0
C933 C 0.80882 0.62449 0.74383 0.0
C934 C 0.82683 0.59892 0.73993 0.0
C935 C 0.93958 0.50527 0.79696 0.0
C936 C 0.91485 0.49104 0.80647 0.0
C937 C 0.93628 0.51819 0.77783 0.0
C938 C 0.90811 0.51739 0.76794 0.0
C939 C 0.8837 0.50243 0.77713 0.0
C940 C 0.88708 0.48916 0.79608 0.0
C941 C 0.90321 0.5341 0.74879 0.0
C942 C 0.8827 0.55854 0.74882 0.0
C943 C 0.91876 0.52675 0.73084 0.0
C944 C 0.94053 0.50101 0.72986 0.0
C945 C 0.93161 0.47149 0.73542 0.0
C946 C 0.95237 0.4474 0.73461 0.0
C947 C 0.98207 0.45251 0.72811 0.0
C948 C 0.99104 0.48172 0.72236 0.0
C949 C 0.97037 0.50589 0.72317 0.0
H950 H 0.99811 0.43383 0.72749 0.0
H951 H 0.8071 0.67343 0.74466 0.0
H952 H 0.8989 0.88921 0.08203 0.0
H953 H 0.87003 0.87752 0.05168 0.0
H954 H 0.78659 0.89798 0.08263 0.0
H955 H 0.81545 0.91051 0.11311 0.0
H956 H 0.78633 0.84233 0.05734 0.0
H957 H 0.80906 0.94899 0.05527 0.0
H958 H 0.84199 0.9942 0.05679 0.0
H959 H 0.89248 0.9617 0.00602 0.0
H960 H 0.86045 0.91576 0.00457 0.0
H961 H 0.72007 0.89674 0.95431 0.0
H962 H 0.74238 0.90617 0.98725 0.0
H963 H 0.78316 0.81688 0.98655 0.0
H964 H 0.76082 0.80714 0.95348 0.0
H965 H 0.80132 0.90888 0.99804 0.0
H966 H 0.78734 0.79106 0.03545 0.0
H967 H 0.75252 0.74719 0.03435 0.0
H968 H 0.67989 0.80563 0.01505 0.0
H969 H 0.71415 0.8499 0.01631 0.0
C970 C 0.87437 0.8908 0.08255 0.0
C971 C 0.85949 0.90067 0.10009 0.0
C972 C 0.85792 0.88424 0.06512 0.0
C973 C 0.82619 0.88696 0.06487 0.0
C974 C 0.81108 0.89568 0.08253 0.0
C975 C 0.8276 0.90284 0.09991 0.0
C976 C 0.8091 0.88195 0.04589 0.0
C977 C 0.78959 0.85684 0.04436 0.0
C978 C 0.81307 0.90115 0.02904 0.0
C979 C 0.83253 0.9287 0.02996 0.0
C980 C 0.82743 0.95124 0.04459 0.0
C981 C 0.8459 0.97705 0.04542 0.0
C982 C 0.86929 0.98083 0.0315 0.0
C983 C 0.87435 0.95873 0.01679 0.0
C984 C 0.85608 0.93277 0.01599 0.0
C985 C 0.73355 0.87891 0.96117 0.0
C986 C 0.7386 0.85113 0.95113 0.0
C987 C 0.74644 0.88445 0.98002 0.0
C988 C 0.76444 0.86227 0.98947 0.0
C989 C 0.76914 0.83428 0.97968 0.0
C990 C 0.75638 0.82876 0.96073 0.0
C991 C 0.77889 0.86885 0.00928 0.0
C992 C 0.79802 0.89428 0.01097 0.0
C993 C 0.77434 0.8501 0.02631 0.0
C994 C 0.75341 0.82373 0.02579 0.0
C995 C 0.76391 0.79456 0.03105 0.0
C996 C 0.74427 0.76962 0.03039 0.0
C997 C 0.71404 0.7736 0.02457 0.0
C998 C 0.70334 0.80256 0.01948 0.0
C999 C 0.72287 0.82757 0.02014 0.0
H1000 H 0.69888 0.75426 0.02405 0.0
H1001 H 0.88349 1.00088 0.03212 0.0
H1002 H 0.40031 0.6427 0.84035 0.0
H1003 H 0.41583 0.61386 0.81065 0.0
H1004 H 0.34809 0.54595 0.82374 0.0
H1005 H 0.33346 0.57394 0.85385 0.0
H1006 H 0.3941 0.51792 0.80978 0.0
H1007 H 0.33808 0.60451 0.78646 0.0
H1008 H 0.32447 0.65828 0.78204 0.0
H1009 H 0.41251 0.67657 0.75725 0.0
H1010 H 0.42669 0.62257 0.76155 0.0
H1011 H 0.37644 0.46148 0.70877 0.0
H1012 H 0.36984 0.48419 0.74208 0.0
H1013 H 0.44923 0.53953 0.73269 0.0
H1014 H 0.45613 0.51695 0.69952 0.0
H1015 H 0.39953 0.57286 0.7449 0.0
H1016 H 0.45182 0.48193 0.76546 0.0
H1017 H 0.46022 0.42651 0.76744 0.0
H1018 H 0.37352 0.41533 0.79585 0.0
H1019 H 0.3644 0.47067 0.79378 0.0
C1020 C 0.389 0.62141 0.83706 0.0
C1021 C 0.36562 0.61072 0.84955 0.0
C1022 C 0.39771 0.60501 0.81992 0.0
C1023 C 0.38274 0.5779 0.81454 0.0
C1024 C 0.36008 0.56672 0.8274 0.0
C1025 C 0.3517 0.58283 0.84469 0.0
C1026 C 0.38996 0.56165 0.79533 0.0
C1027 C 0.39499 0.52999 0.7956 0.0
C1028 C 0.3916 0.5771 0.77668 0.0
C1029 C 0.38358 0.60967 0.77461 0.0
C1030 C 0.35469 0.62008 0.78032 0.0
C1031 C 0.3469 0.65065 0.77785 0.0
C1032 C 0.36772 0.67102 0.76955 0.0
C1033 C 0.39644 0.66081 0.76373 0.0
C1034 C 0.40437 0.63021 0.76617 0.0
C1035 C 0.39274 0.4782 0.71388 0.0
C1036 C 0.41678 0.48739 0.70135 0.0
C1037 C 0.38898 0.4911 0.73298 0.0
C1038 C 0.40909 0.51353 0.73995 0.0
C1039 C 0.43343 0.52227 0.72767 0.0
C1040 C 0.43736 0.50923 0.70868 0.0
C1041 C 0.40372 0.52937 0.75943 0.0
C1042 C 0.39892 0.56092 0.75915 0.0
C1043 C 0.40179 0.51368 0.77793 0.0
C1044 C 0.40731 0.48043 0.7793 0.0
C1045 C 0.43444 0.46764 0.77198 0.0
C1046 C 0.43935 0.43624 0.77315 0.0
C1047 C 0.41739 0.4174 0.78172 0.0
C1048 C 0.3905 0.42994 0.7892 0.0
C1049 C 0.38546 0.46133 0.78805 0.0
H1050 H 0.42124 0.3931 0.78261 0.0
H1051 H 0.36158 0.69465 0.76746 0.0
H1052 H 0.80709 0.14259 0.46562 0.0
H1053 H 0.78292 0.13339 0.49812 0.0
H1054 H 0.6966 0.16126 0.47356 0.0
H1055 H 0.72054 0.17093 0.44123 0.0
H1056 H 0.70234 0.18267 0.51044 0.0
H1057 H 0.71649 0.08754 0.47777 0.0
H1058 H 0.74373 0.04547 0.46118 0.0
H1059 H 0.79622 0.03041 0.51461 0.0
H1060 H 0.76942 0.07264 0.53148 0.0
H1061 H 0.59668 0.10181 0.57086 0.0
H1062 H 0.62925 0.11842 0.54335 0.0
H1063 H 0.70808 0.10805 0.58112 0.0
H1064 H 0.6754 0.09193 0.60908 0.0
H1065 H 0.71029 0.07945 0.54021 0.0
H1066 H 0.69045 0.17516 0.57297 0.0
H1067 H 0.65772 0.21451 0.58813 0.0
H1068 H 0.61052 0.22555 0.53219 0.0
H1069 H 0.64268 0.18591 0.51677 0.0
C1070 C 0.78304 0.14712 0.46718 0.0
C1071 C 0.76578 0.15733 0.4507 0.0
C1072 C 0.76921 0.14171 0.48578 0.0
C1073 C 0.73782 0.14625 0.48826 0.0
C1074 C 0.72083 0.15757 0.47206 0.0
C1075 C 0.73459 0.16301 0.45352 0.0
C1076 C 0.72231 0.1381 0.50739 0.0
C1077 C 0.70406 0.16006 0.51688 0.0
C1078 C 0.72468 0.10865 0.51598 0.0
C1079 C 0.74116 0.08349 0.50582 0.0
C1080 C 0.73399 0.07541 0.48594 0.0
C1081 C 0.74933 0.0515 0.47649 0.0
C1082 C 0.77178 0.03533 0.48682 0.0
C1083 C 0.77887 0.043 0.50662 0.0
C1084 C 0.7636 0.06692 0.51614 0.0
C1085 C 0.62092 0.10323 0.57342 0.0
C1086 C 0.63344 0.09567 0.59222 0.0
C1087 C 0.63949 0.11277 0.55766 0.0
C1088 C 0.67104 0.11455 0.56021 0.0
C1089 C 0.68375 0.10688 0.57888 0.0
C1090 C 0.66506 0.09784 0.59485 0.0
C1091 C 0.69047 0.12402 0.54312 0.0
C1092 C 0.70919 0.10222 0.53394 0.0
C1093 C 0.68806 0.15338 0.53456 0.0
C1094 C 0.66883 0.17738 0.54376 0.0
C1095 C 0.67293 0.18579 0.56394 0.0
C1096 C 0.65451 0.20819 0.57258 0.0
C1097 C 0.63201 0.22248 0.56115 0.0
C1098 C 0.62794 0.21445 0.54104 0.0
C1099 C 0.64629 0.19204 0.53233 0.0
H1100 H 0.61778 0.23981 0.56786 0.0
H1101 H 0.78362 0.01681 0.47949 0.0
H1102 H 0.17414 0.35902 0.32152 0.0
H1103 H 0.15973 0.39085 0.29303 0.0
H1104 H 0.10441 0.44645 0.33181 0.0
H1105 H 0.11943 0.41495 0.36078 0.0
H1106 H 0.07953 0.42033 0.28896 0.0
H1107 H 0.15824 0.47999 0.32261 0.0
H1108 H 0.20878 0.48371 0.3384 0.0
H1109 H 0.25068 0.45452 0.2835 0.0
H1110 H 0.20032 0.45026 0.26748 0.0
H1111 H 0.05072 0.52476 0.20961 0.0
H1112 H 0.05938 0.50216 0.24279 0.0
H1113 H 0.15102 0.47895 0.22538 0.0
H1114 H 0.14307 0.50394 0.19312 0.0
H1115 H 0.1551 0.49189 0.26062 0.0
H1116 H 0.0843 0.42635 0.22715 0.0
H1117 H 0.03716 0.41266 0.20932 0.0
H1118 H 0.98433 0.44185 0.25994 0.0
H1119 H 0.03117 0.45603 0.27799 0.0
C1120 C 0.15869 0.37785 0.32406 0.0
C1121 C 0.14781 0.38433 0.34347 0.0
C1122 C 0.15055 0.39606 0.30772 0.0
C1123 C 0.13096 0.42093 0.31029 0.0
C1124 C 0.11949 0.42725 0.32953 0.0
C1125 C 0.12815 0.40933 0.34605 0.0
C1126 C 0.12348 0.4406 0.29281 0.0
C1127 C 0.09568 0.43652 0.28292 0.0
C1128 C 0.14516 0.46062 0.28452 0.0
C1129 C 0.17549 0.46455 0.2939 0.0
C1130 C 0.17821 0.47422 0.31394 0.0
C1131 C 0.20683 0.47646 0.32293 0.0
C1132 C 0.23292 0.46931 0.31198 0.0
C1133 C 0.23046 0.46007 0.29197 0.0
C1134 C 0.20189 0.45778 0.28293 0.0
C1135 C 0.07275 0.51506 0.21305 0.0
C1136 C 0.09623 0.51617 0.19884 0.0
C1137 C 0.07767 0.5018 0.23196 0.0
C1138 C 0.10573 0.48798 0.23671 0.0
C1139 C 0.12919 0.48941 0.22241 0.0
C1140 C 0.12462 0.50365 0.20386 0.0
C1141 C 0.11085 0.47174 0.25629 0.0
C1142 C 0.13845 0.47621 0.26662 0.0
C1143 C 0.08936 0.45118 0.26458 0.0
C1144 C 0.06119 0.44258 0.25381 0.0
C1145 C 0.06261 0.43001 0.23442 0.0
C1146 C 0.03596 0.42215 0.22429 0.0
C1147 C 0.00777 0.42648 0.23346 0.0
C1148 C 0.00618 0.43857 0.25283 0.0
C1149 C 0.03277 0.44651 0.26303 0.0
H1150 H 0.98715 0.42039 0.22559 0.0
H1151 H 0.25505 0.47098 0.31898 0.0
H1152 H 0.8008 0.64758 0.54182 0.0
H1153 H 0.77551 0.63646 0.5097 0.0
H1154 H 0.69022 0.62597 0.54058 0.0
H1155 H 0.71496 0.63748 0.57242 0.0
H1156 H 0.7037 0.57821 0.51345 0.0
H1157 H 0.70197 0.68856 0.51546 0.0
H1158 H 0.72568 0.73923 0.51772 0.0
H1159 H 0.77819 0.72034 0.46489 0.0
H1160 H 0.75508 0.66934 0.46249 0.0
H1161 H 0.58994 0.58049 0.43983 0.0
H1162 H 0.62261 0.59151 0.4684 0.0
H1163 H 0.69606 0.61362 0.42826 0.0
H1164 H 0.66314 0.60308 0.39938 0.0
H1165 H 0.69456 0.65334 0.45822 0.0
H1166 H 0.69261 0.54636 0.45298 0.0
H1167 H 0.67172 0.49458 0.45033 0.0
H1168 H 0.63169 0.50349 0.5087 0.0
H1169 H 0.65093 0.55596 0.51134 0.0
C1170 C 0.77664 0.64308 0.54171 0.0
C1171 C 0.75991 0.64367 0.55969 0.0
C1172 C 0.76222 0.63676 0.52337 0.0
C1173 C 0.73094 0.63046 0.52273 0.0
C1174 C 0.71434 0.63079 0.54068 0.0
C1175 C 0.72855 0.6376 0.55888 0.0
C1176 C 0.71522 0.62325 0.50352 0.0
C1177 C 0.70141 0.59468 0.50142 0.0
C1178 C 0.7133 0.64435 0.48753 0.0
C1179 C 0.72708 0.67502 0.48893 0.0
C1180 C 0.71878 0.69511 0.50443 0.0
C1181 C 0.73206 0.72391 0.50572 0.0
C1182 C 0.7535 0.73296 0.49149 0.0
C1183 C 0.76163 0.71327 0.47592 0.0
C1184 C 0.74843 0.68443 0.47458 0.0
C1185 C 0.61299 0.58782 0.43697 0.0
C1186 C 0.62384 0.59084 0.4172 0.0
C1187 C 0.63176 0.59396 0.45341 0.0
C1188 C 0.66204 0.60295 0.45058 0.0
C1189 C 0.67283 0.60663 0.43088 0.0
C1190 C 0.65398 0.60055 0.41436 0.0
C1191 C 0.68218 0.60843 0.46827 0.0
C1192 C 0.69692 0.63665 0.47011 0.0
C1193 C 0.68531 0.58676 0.48394 0.0
C1194 C 0.67292 0.55539 0.48223 0.0
C1195 C 0.67885 0.53756 0.46511 0.0
C1196 C 0.66723 0.50807 0.4636 0.0
C1197 C 0.65008 0.49588 0.47925 0.0
C1198 C 0.64455 0.51316 0.49647 0.0
C1199 C 0.65575 0.54281 0.49796 0.0
H1200 H 0.64125 0.47298 0.47811 0.0
H1201 H 0.76376 0.75527 0.49251 0.0
H1202 H 0.07554 0.9732 0.81244 0.0
H1203 H 0.08496 0.94925 0.78004 0.0
H1204 H 0.13229 0.0295 0.76008 0.0
H1205 H 0.12243 0.054 0.79252 0.0
H1206 H 0.0975 0.00681 0.73041 0.0
H1207 H 0.1728 0.96521 0.77519 0.0
H1208 H 0.19024 0.94106 0.8066 0.0
H1209 H 0.13451 0.86317 0.7944 0.0
H1210 H 0.11671 0.88689 0.76292 0.0
H1211 H 0.17125 0.93382 0.64771 0.0
H1212 H 0.15924 0.96152 0.67855 0.0
H1213 H 0.11189 0.883 0.70128 0.0
H1214 H 0.12413 0.855 0.67063 0.0
H1215 H 0.14811 0.90578 0.72955 0.0
H1216 H 0.07364 0.94698 0.68432 0.0
H1217 H 0.05537 0.97167 0.65334 0.0
H1218 H 0.10868 0.05084 0.66668 0.0
H1219 H 0.12758 0.02645 0.69763 0.0
C1220 C 0.0878 0.98594 0.80116 0.0
C1221 C 0.09844 0.01551 0.80523 0.0
C1222 C 0.09334 0.97208 0.78262 0.0
C1223 C 0.10997 0.98722 0.7677 0.0
C1224 C 0.1196 0.01722 0.77138 0.0
C1225 C 0.11391 0.03122 0.78995 0.0
C1226 C 0.11758 0.97147 0.74847 0.0
C1227 C 0.10898 0.98494 0.73021 0.0
C1228 C 0.13203 0.9426 0.74813 0.0
C1229 C 0.14329 0.92791 0.76678 0.0
C1230 C 0.16423 0.94295 0.77924 0.0
C1231 C 0.17419 0.92934 0.79704 0.0
C1232 C 0.16341 0.90064 0.80253 0.0
C1233 C 0.14276 0.88544 0.79017 0.0
C1234 C 0.13284 0.89889 0.77229 0.0
C1235 C 0.15791 0.92253 0.65914 0.0
C1236 C 0.14848 0.89218 0.65653 0.0
C1237 C 0.15105 0.93845 0.67681 0.0
C1238 C 0.13444 0.9245 0.69228 0.0
C1239 C 0.12474 0.89432 0.68963 0.0
C1240 C 0.13159 0.87839 0.67197 0.0
C1241 C 0.12781 0.94102 0.71142 0.0
C1242 C 0.13669 0.92769 0.7297 0.0
C1243 C 0.11364 0.97003 0.71175 0.0
C1244 C 0.10226 0.98476 0.69318 0.0
C1245 C 0.08165 0.96956 0.68057 0.0
C1246 C 0.07115 0.98352 0.66303 0.0
C1247 C 0.08092 0.01277 0.65802 0.0
C1248 C 0.10116 0.02816 0.67057 0.0
C1249 C 0.11176 0.01429 0.68812 0.0
H1250 H 0.07276 0.02354 0.64444 0.0
H1251 H 0.17117 0.89013 0.81631 0.0
H1252 H 0.69265 0.36096 0.04163 0.0
H1253 H 0.71501 0.37205 0.00861 0.0
H1254 H 0.8047 0.36231 0.03378 0.0
H1255 H 0.78289 0.35091 0.06642 0.0
H1256 H 0.7963 0.41633 0.01157 0.0
H1257 H 0.7779 0.30754 0.00583 0.0
H1258 H 0.74546 0.26187 0.00581 0.0
H1259 H 0.69228 0.29927 0.9577 0.0
H1260 H 0.72418 0.34539 0.95764 0.0
H1261 H 0.90349 0.40635 0.93684 0.0
H1262 H 0.86967 0.39258 0.96419 0.0
H1263 H 0.79281 0.3976 0.92417 0.0
H1264 H 0.82695 0.41066 0.89631 0.0
H1265 H 0.78684 0.35051 0.95133 0.0
H1266 H 0.80646 0.45682 0.9544 0.0
H1267 H 0.8397 0.50182 0.95271 0.0
H1268 H 0.8883 0.47074 0.00473 0.0
H1269 H 0.85546 0.42554 0.00668 0.0
C1270 C 0.71712 0.36094 0.04005 0.0
C1271 C 0.73592 0.35499 0.05671 0.0
C1272 C 0.72984 0.36726 0.0212 0.0
C1273 C 0.76152 0.36806 0.01878 0.0
C1274 C 0.78021 0.36189 0.03532 0.0
C1275 C 0.76762 0.3552 0.05398 0.0
C1276 C 0.77572 0.376 0.99926 0.0
C1277 C 0.79424 0.40191 0.99842 0.0
C1278 C 0.77225 0.35778 0.98189 0.0
C1279 C 0.75317 0.33006 0.98191 0.0
C1280 C 0.75911 0.30615 0.99538 0.0
C1281 C 0.74086 0.28016 0.99536 0.0
C1282 C 0.71676 0.27772 0.98181 0.0
C1283 C 0.71091 0.30123 0.96822 0.0
C1284 C 0.72908 0.32728 0.9682 0.0
C1285 C 0.87944 0.40423 0.93372 0.0
C1286 C 0.86789 0.40988 0.9144 0.0
C1287 C 0.86009 0.39641 0.94942 0.0
C1288 C 0.8286 0.39471 0.94636 0.0
C1289 C 0.81702 0.39893 0.92691 0.0
C1290 C 0.83653 0.40641 0.91102 0.0
C1291 C 0.80813 0.3903 0.96388 0.0
C1292 C 0.78842 0.36524 0.96435 0.0
C1293 C 0.81006 0.40954 0.98089 0.0
C1294 C 0.82859 0.43771 0.98062 0.0
C1295 C 0.82419 0.45965 0.96552 0.0
C1296 C 0.84296 0.48519 0.9645 0.0
C1297 C 0.8661 0.48915 0.97859 0.0
C1298 C 0.87031 0.46775 0.99386 0.0
C1299 C 0.85156 0.44219 0.99497 0.0
H1300 H 0.88078 0.50877 0.9776 0.0
H1301 H 0.70266 0.25757 0.98181 0.0
H1302 H 0.39243 0.1521 0.16633 0.0
H1303 H 0.40726 0.1257 0.19723 0.0
H1304 H 0.35161 0.04917 0.18053 0.0
H1305 H 0.33671 0.07526 0.14971 0.0
H1306 H 0.34075 0.06735 0.21896 0.0
H1307 H 0.42828 0.04441 0.17836 0.0
H1308 H 0.47206 0.05678 0.15686 0.0
H1309 H 0.51116 0.10978 0.20441 0.0
H1310 H 0.46738 0.09806 0.22612 0.0
H1311 H 0.38182 0.96504 0.29562 0.0
H1312 H 0.37515 0.98764 0.26238 0.0
H1313 H 0.43914 0.05817 0.27757 0.0
H1314 H 0.44688 0.03493 0.3105 0.0
H1315 H 0.4464 0.04417 0.23992 0.0
H1316 H 0.35947 0.06767 0.28059 0.0
H1317 H 0.3168 0.05418 0.30276 0.0
H1318 H 0.27619 1.00211 0.2553 0.0
H1319 H 0.31902 0.01464 0.23301 0.0
C1320 C 0.38373 0.12944 0.16905 0.0
C1321 C 0.36346 0.11582 0.1554 0.0
C1322 C 0.39224 0.11436 0.18676 0.0
C1323 C 0.38062 0.08536 0.19124 0.0
C1324 C 0.36087 0.07152 0.17746 0.0
C1325 C 0.35251 0.08645 0.15973 0.0
C1326 C 0.38788 0.0699 0.21063 0.0
C1327 C 0.36385 0.06194 0.22341 0.0
C1328 C 0.41803 0.06362 0.2168 0.0
C1329 C 0.4444 0.07061 0.20379 0.0
C1330 C 0.44609 0.05891 0.18418 0.0
C1331 C 0.47093 0.06577 0.17196 0.0
C1332 C 0.49434 0.08413 0.17925 0.0
C1333 C 0.49299 0.0956 0.19878 0.0
C1334 C 0.46818 0.08884 0.21105 0.0
C1335 C 0.39477 0.98514 0.2918 0.0
C1336 C 0.41471 0.99824 0.30585 0.0
C1337 C 0.39079 0.99822 0.27279 0.0
C1338 C 0.40601 0.02519 0.26752 0.0
C1339 C 0.42695 0.03752 0.28121 0.0
C1340 C 0.43134 0.02416 0.3001 0.0
C1341 C 0.39922 0.04121 0.24818 0.0
C1342 C 0.4233 0.04952 0.23548 0.0
C1343 C 0.36908 0.0481 0.24212 0.0
C1344 C 0.34264 0.04178 0.25522 0.0
C1345 C 0.3415 0.05323 0.27492 0.0
C1346 C 0.31731 0.04571 0.28751 0.0
C1347 C 0.29389 0.02715 0.28046 0.0
C1348 C 0.29442 0.01637 0.26075 0.0
C1349 C 0.31865 0.02365 0.24814 0.0
H1350 H 0.27531 0.0211 0.29024 0.0
H1351 H 0.51355 0.0894 0.16977 0.0
H1352 H 0.41087 0.40913 0.57067 0.0
H1353 H 0.37846 0.39775 0.54206 0.0
H1354 H 0.3023 0.38476 0.5817 0.0
H1355 H 0.33488 0.39588 0.61071 0.0
H1356 H 0.30259 0.34221 0.55227 0.0
H1357 H 0.31055 0.4497 0.55612 0.0
H1358 H 0.33643 0.4992 0.55865 0.0
H1359 H 0.37866 0.48417 0.50151 0.0
H1360 H 0.354 0.43398 0.49893 0.0
H1361 H 0.21712 0.39756 0.45459 0.0
H1362 H 0.2412 0.40756 0.48701 0.0
H1363 H 0.29054 0.32294 0.48249 0.0
H1364 H 0.26616 0.31247 0.45033 0.0
H1365 H 0.29791 0.41695 0.49654 0.0
H1366 H 0.30573 0.2942 0.5284 0.0
H1367 H 0.27664 0.24632 0.52725 0.0
H1368 H 0.19484 0.29644 0.51517 0.0
H1369 H 0.22335 0.34463 0.51651 0.0
C1370 C 0.38729 0.40364 0.57345 0.0
C1371 C 0.37555 0.40353 0.59312 0.0
C1372 C 0.3687 0.39726 0.55698 0.0
C1373 C 0.33777 0.39083 0.55962 0.0
C1374 C 0.32607 0.38975 0.57925 0.0
C1375 C 0.34474 0.39615 0.59583 0.0
C1376 C 0.31777 0.38593 0.5418 0.0
C1377 C 0.30154 0.35857 0.54011 0.0
C1378 C 0.31576 0.40757 0.52605 0.0
C1379 C 0.33065 0.43783 0.52746 0.0
C1380 C 0.32567 0.45672 0.5442 0.0
C1381 C 0.34018 0.4849 0.54565 0.0
C1382 C 0.3594 0.49469 0.53031 0.0
C1383 C 0.36405 0.47637 0.51345 0.0
C1384 C 0.34983 0.44803 0.512 0.0
C1385 C 0.2328 0.38085 0.46059 0.0
C1386 C 0.23954 0.35413 0.44978 0.0
C1387 C 0.2467 0.3867 0.47913 0.0
C1388 C 0.2676 0.36595 0.48738 0.0
C1389 C 0.27414 0.33912 0.47671 0.0
C1390 C 0.2602 0.3332 0.45821 0.0
C1391 C 0.28337 0.37282 0.50675 0.0
C1392 C 0.29886 0.40059 0.50872 0.0
C1393 C 0.2842 0.35184 0.52291 0.0
C1394 C 0.26675 0.323 0.52239 0.0
C1395 C 0.28151 0.29501 0.5256 0.0
C1396 C 0.26513 0.26781 0.52489 0.0
C1397 C 0.23393 0.26833 0.52108 0.0
C1398 C 0.21902 0.29606 0.51805 0.0
C1399 C 0.23529 0.32332 0.51876 0.0
H1400 H 0.2213 0.24725 0.52051 0.0
H1401 H 0.37057 0.51654 0.53144 0.0
H1402 H 0.88917 0.95337 0.21514 0.0
H1403 H 0.88387 0.97585 0.24861 0.0
H1404 H 0.9214 0.0601 0.22679 0.0
H1405 H 0.92717 0.03779 0.19349 0.0
H1406 H 0.94317 0.04806 0.2633 0.0
H1407 H 0.8445 0.05058 0.23248 0.0
H1408 H 0.79958 0.02889 0.21568 0.0
H1409 H 0.78365 0.97088 0.26642 0.0
H1410 H 0.82877 0.99195 0.2834 0.0
H1411 H 0.8873 0.15167 0.33727 0.0
H1412 H 0.90054 0.12344 0.30689 0.0
H1413 H 0.86038 0.04239 0.33176 0.0
H1414 H 0.84659 0.0706 0.36204 0.0
H1415 H 0.84113 0.05036 0.29466 0.0
H1416 H 0.93885 0.05083 0.32637 0.0
H1417 H 0.98342 0.07377 0.34285 0.0
H1418 H 1.00086 0.12742 0.29029 0.0
H1419 H 0.95613 0.10511 0.27359 0.0
C1420 C 0.89658 0.97659 0.21749 0.0
C1421 C 0.9084 0.99377 0.20148 0.0
C1422 C 0.89338 0.98949 0.23665 0.0
C1423 C 0.90181 0.01989 0.24024 0.0
C1424 C 0.91464 0.03667 0.22447 0.0
C1425 C 0.91783 0.02383 0.20535 0.0
C1426 C 0.89642 0.03467 0.26015 0.0
C1427 C 0.9208 0.04876 0.27008 0.0
C1428 C 0.86737 0.03522 0.26926 0.0
C1429 C 0.8402 0.02259 0.25911 0.0
C1430 C 0.83156 0.03303 0.23998 0.0
C1431 C 0.80604 0.02087 0.23044 0.0
C1432 C 0.78883 0.99845 0.23995 0.0
C1433 C 0.79705 0.9882 0.25905 0.0
C1434 C 0.82258 1.00025 0.26865 0.0
C1435 C 0.88177 0.1277 0.33647 0.0
C1436 C 0.86599 0.11345 0.35223 0.0
C1437 C 0.88939 0.11152 0.31903 0.0
C1438 C 0.88169 0.08061 0.31698 0.0
C1439 C 0.86659 0.06618 0.3329 0.0
C1440 C 0.85887 0.08234 0.3503 0.0
C1441 C 0.88789 0.06379 0.29788 0.0
C1442 C 0.8636 0.04941 0.28803 0.0
C1443 C 0.91699 0.06312 0.28882 0.0
C1444 C 0.94398 0.07648 0.29879 0.0
C1445 C 0.95206 0.06768 0.31838 0.0
C1446 C 0.97737 0.08055 0.32775 0.0
C1447 C 0.99492 0.10209 0.31764 0.0
C1448 C 0.98723 0.11076 0.29811 0.0
C1449 C 0.96192 0.09798 0.28868 0.0
H1450 H 0.01451 0.11202 0.32492 0.0
H1451 H 0.76907 0.98907 0.23254 0.0
H1452 H 0.17417 0.60052 0.10769 0.0
H1453 H 0.20562 0.61193 0.07832 0.0
H1454 H 0.1248 0.62344 0.04244 0.0
H1455 H 0.09353 0.6111 0.07142 0.0
H1456 H 0.16218 0.59119 0.0224 0.0
H1457 H 0.17204 0.68475 0.05929 0.0
H1458 H 0.18413 0.71686 0.08857 0.0
H1459 H 0.27634 0.68497 0.08752 0.0
H1460 H 0.26468 0.65236 0.05837 0.0
H1461 H 0.2196 0.66649 0.93737 0.0
H1462 H 0.1947 0.65609 0.96924 0.0
H1463 H 0.28087 0.63215 0.99563 0.0
H1464 H 0.30625 0.6425 0.96355 0.0
H1465 H 0.24471 0.66774 0.02107 0.0
H1466 H 0.23376 0.57725 0.98137 0.0
H1467 H 0.21996 0.54705 0.95154 0.0
H1468 H 0.12711 0.57559 0.95733 0.0
H1469 H 0.14041 0.60639 0.987 0.0
C1470 C 0.16313 0.60593 0.09361 0.0
C1471 C 0.13129 0.60501 0.09199 0.0
C1472 C 0.18115 0.61248 0.07677 0.0
C1473 C 0.16771 0.61882 0.05804 0.0
C1474 C 0.13589 0.61853 0.0566 0.0
C1475 C 0.11796 0.61162 0.07328 0.0
C1476 C 0.18645 0.62472 0.0397 0.0
C1477 C 0.17995 0.60823 0.02212 0.0
C1478 C 0.21035 0.64629 0.03928 0.0
C1479 C 0.2174 0.66586 0.0568 0.0
C1480 C 0.19483 0.68441 0.0654 0.0
C1481 C 0.20161 0.70273 0.08196 0.0
C1482 C 0.23096 0.70289 0.08994 0.0
C1483 C 0.2536 0.68478 0.08134 0.0
C1484 C 0.24693 0.66639 0.0648 0.0
C1485 C 0.23346 0.65923 0.94992 0.0
C1486 C 0.26504 0.65518 0.94774 0.0
C1487 C 0.21907 0.65314 0.96817 0.0
C1488 C 0.23578 0.64284 0.98478 0.0
C1489 C 0.26745 0.6399 0.98298 0.0
C1490 C 0.28194 0.64584 0.96462 0.0
C1491 C 0.21986 0.63474 0.0038 0.0
C1492 C 0.22698 0.65066 0.02146 0.0
C1493 C 0.19622 0.61292 0.00423 0.0
C1494 C 0.18818 0.59441 0.98633 0.0
C1495 C 0.21045 0.57734 0.97618 0.0
C1496 C 0.20271 0.56007 0.95931 0.0
C1497 C 0.1727 0.55947 0.95252 0.0
C1498 C 0.15037 0.57616 0.96257 0.0
C1499 C 0.15799 0.59349 0.97944 0.0
H1500 H 0.16672 0.546 0.93951 0.0
H1501 H 0.23617 0.71709 0.10275 0.0
H1502 H 0.54309 0.99711 0.70306 0.0
H1503 H 0.54974 0.9747 0.73639 0.0
H1504 H 0.64242 0.00615 0.73766 0.0
H1505 H 0.63562 0.02941 0.70476 0.0
H1506 H 0.58295 0.93065 0.74793 0.0
H1507 H 0.66899 0.01446 0.78469 0.0
H1508 H 0.67968 0.06953 0.78518 0.0
H1509 H 0.58718 0.08864 0.76905 0.0
H1510 H 0.57581 0.03373 0.76875 0.0
H1511 H 0.66679 0.85558 0.82192 0.0
H1512 H 0.64989 0.88635 0.79377 0.0
H1513 H 0.60694 0.94931 0.83457 0.0
H1514 H 0.62485 0.91876 0.86315 0.0
H1515 H 0.63331 0.98013 0.80597 0.0
H1516 H 0.56491 0.89657 0.80609 0.0
H1517 H 0.54959 0.84265 0.80715 0.0
H1518 H 0.59737 0.8258 0.75212 0.0
H1519 H 0.61332 0.87954 0.75086 0.0
C1520 C 0.56474 0.99973 0.71058 0.0
C1521 C 0.58878 0.01517 0.70114 0.0
C1522 C 0.56857 0.98675 0.72965 0.0
C1523 C 0.59655 0.98879 0.73978 0.0
C1524 C 0.62038 0.00471 0.73052 0.0
C1525 C 0.61647 0.01796 0.71156 0.0
C1526 C 0.60148 0.97259 0.75931 0.0
C1527 C 0.5938 0.94163 0.76062 0.0
C1528 C 0.61508 0.98681 0.77619 0.0
C1529 C 0.62163 0.01993 0.77653 0.0
C1530 C 0.65089 0.03041 0.78134 0.0
C1531 C 0.65708 0.06161 0.78157 0.0
C1532 C 0.63415 0.08257 0.77709 0.0
C1533 C 0.60495 0.07238 0.77244 0.0
C1534 C 0.59864 0.04122 0.77221 0.0
C1535 C 0.65354 0.8758 0.82502 0.0
C1536 C 0.64686 0.88436 0.84489 0.0
C1537 C 0.64377 0.89343 0.80881 0.0
C1538 C 0.62646 0.91991 0.81188 0.0
C1539 C 0.62007 0.92889 0.83172 0.0
C1540 C 0.63023 0.91134 0.84807 0.0
C1541 C 0.61555 0.93809 0.79428 0.0
C1542 C 0.62217 0.96934 0.79332 0.0
C1543 C 0.60027 0.92435 0.77788 0.0
C1544 C 0.59045 0.89206 0.77845 0.0
C1545 C 0.57228 0.88133 0.79427 0.0
C1546 C 0.56347 0.8508 0.7949 0.0
C1547 C 0.57254 0.8308 0.77973 0.0
C1548 C 0.59036 0.84131 0.76386 0.0
C1549 C 0.59925 0.87182 0.76316 0.0
H1550 H 0.56571 0.80717 0.78025 0.0
H1551 H 0.63899 0.10671 0.77726 0.0
H1552 H 0.36828 0.22303 0.06528 0.0
H1553 H 0.41494 0.24891 0.05513 0.0
H1554 H 0.46691 0.18787 0.09268 0.0
H1555 H 0.42041 0.16095 0.10169 0.0
H1556 H 0.44602 0.28123 0.07713 0.0
H1557 H 0.54058 0.18777 0.08335 0.0
H1558 H 0.54853 0.13436 0.07321 0.0
H1559 H 0.48133 0.14408 0.02694 0.0
H1560 H 0.47326 0.19766 0.03659 0.0
H1561 H 0.58138 0.33855 0.11637 0.0
H1562 H 0.53392 0.31443 0.10631 0.0
H1563 H 0.57597 0.28374 0.05136 0.0
H1564 H 0.62412 0.30667 0.06216 0.0
H1565 H 0.54909 0.23896 0.06618 0.0
H1566 H 0.51502 0.33882 0.05291 0.0
H1567 H 0.50649 0.39364 0.05854 0.0
H1568 H 0.45147 0.37357 0.10998 0.0
H1569 H 0.46 0.31864 0.10485 0.0
C1570 C 0.38991 0.21428 0.0705 0.0
C1571 C 0.39095 0.1897 0.08391 0.0
C1572 C 0.41656 0.22931 0.06493 0.0
C1573 C 0.4447 0.22056 0.07312 0.0
C1574 C 0.4458 0.19479 0.08569 0.0
C1575 C 0.41919 0.17929 0.09084 0.0
C1576 C 0.47186 0.24058 0.07079 0.0
C1577 C 0.46849 0.27194 0.07447 0.0
C1578 C 0.50126 0.22891 0.0668 0.0
C1579 C 0.50619 0.19673 0.06079 0.0
C1580 C 0.52762 0.17858 0.07093 0.0
C1581 C 0.53211 0.14825 0.06529 0.0
C1582 C 0.5154 0.13582 0.04947 0.0
C1583 C 0.49419 0.15371 0.03923 0.0
C1584 C 0.48962 0.18405 0.0448 0.0
C1585 C 0.58006 0.32765 0.1018 0.0
C1586 C 0.606 0.32506 0.08976 0.0
C1587 C 0.55291 0.31379 0.09602 0.0
C1588 C 0.55099 0.29747 0.07788 0.0
C1589 C 0.5767 0.2962 0.06538 0.0
C1590 C 0.60408 0.30965 0.07137 0.0
C1591 C 0.52324 0.27932 0.07319 0.0
C1592 C 0.52653 0.24832 0.06834 0.0
C1593 C 0.49363 0.29151 0.07538 0.0
C1594 C 0.48828 0.32457 0.07853 0.0
C1595 C 0.50124 0.34609 0.0655 0.0
C1596 C 0.49639 0.3772 0.06859 0.0
C1597 C 0.47848 0.38708 0.08462 0.0
C1598 C 0.46533 0.36588 0.09757 0.0
C1599 C 0.47012 0.33475 0.09455 0.0
H1600 H 0.47476 0.41118 0.087 0.0
H1601 H 0.5189 0.11233 0.04514 0.0
H1602 H 0.59123 0.65454 0.32942 0.0
H1603 H 0.56992 0.70393 0.31847 0.0
H1604 H 0.48983 0.68727 0.35396 0.0
H1605 H 0.51073 0.63886 0.36484 0.0
H1606 H 0.47505 0.71171 0.31785 0.0
H1607 H 0.54717 0.72978 0.37212 0.0
H1608 H 0.59807 0.72882 0.38757 0.0
H1609 H 0.63302 0.78298 0.33924 0.0
H1610 H 0.58235 0.7839 0.32337 0.0
H1611 H 0.41077 0.84232 0.36163 0.0
H1612 H 0.43513 0.79451 0.35164 0.0
H1613 H 0.49756 0.8443 0.31423 0.0
H1614 H 0.47267 0.8923 0.32406 0.0
H1615 H 0.52654 0.80564 0.34103 0.0
H1616 H 0.44932 0.7974 0.29184 0.0
H1617 H 0.39737 0.79891 0.27808 0.0
H1618 H 0.37093 0.7266 0.31765 0.0
H1619 H 0.42259 0.72494 0.33188 0.0
C1620 C 0.56895 0.66138 0.3346 0.0
C1621 C 0.55282 0.64302 0.34816 0.0
C1622 C 0.55683 0.68957 0.32841 0.0
C1623 C 0.52828 0.69939 0.33548 0.0
C1624 C 0.51179 0.68027 0.34824 0.0
C1625 C 0.52393 0.65262 0.35458 0.0
C1626 C 0.51572 0.73016 0.33097 0.0
C1627 C 0.48637 0.73229 0.32279 0.0
C1628 C 0.53073 0.75715 0.33692 0.0
C1629 C 0.56114 0.75652 0.34641 0.0
C1630 C 0.56579 0.74124 0.3647 0.0
C1631 C 0.59457 0.74075 0.37355 0.0
C1632 C 0.6188 0.75573 0.36435 0.0
C1633 C 0.61426 0.7713 0.34631 0.0
C1634 C 0.58552 0.77181 0.33738 0.0
C1635 C 0.42895 0.84288 0.35069 0.0
C1636 C 0.43945 0.87076 0.34322 0.0
C1637 C 0.44295 0.81561 0.34503 0.0
C1638 C 0.4681 0.81574 0.33206 0.0
C1639 C 0.47808 0.84361 0.32412 0.0
C1640 C 0.4637 0.87093 0.32956 0.0
C1641 C 0.48539 0.78703 0.3286 0.0
C1642 C 0.51556 0.78527 0.33539 0.0
C1643 C 0.47102 0.76033 0.32151 0.0
C1644 C 0.43986 0.76115 0.313 0.0
C1645 C 0.43238 0.78196 0.29772 0.0
C1646 C 0.40298 0.78282 0.28982 0.0
C1647 C 0.38086 0.76288 0.297 0.0
C1648 C 0.3881 0.74202 0.31209 0.0
C1649 C 0.41746 0.74108 0.32006 0.0
H1650 H 0.35811 0.76358 0.29086 0.0
H1651 H 0.64106 0.75535 0.37124 0.0
H1652 H 0.86972 0.71576 0.56726 0.0
H1653 H 0.91709 0.74043 0.55726 0.0
H1654 H 0.96719 0.67846 0.59526 0.0
H1655 H 0.91997 0.65268 0.60407 0.0
H1656 H 0.94882 0.7722 0.57901 0.0
H1657 H 0.04105 0.67663 0.5864 0.0
H1658 H 0.04781 0.62284 0.5768 0.0
H1659 H 0.98121 0.63313 0.53019 0.0
H1660 H 0.97434 0.68709 0.53931 0.0
H1661 H 0.08521 0.82898 0.61694 0.0
H1662 H 0.03769 0.80393 0.60795 0.0
H1663 H 0.07843 0.77143 0.55302 0.0
H1664 H 0.12664 0.79545 0.56271 0.0
H1665 H 0.05092 0.72725 0.56869 0.0
H1666 H 0.01899 0.82736 0.55409 0.0
H1667 H 0.01171 0.88252 0.55897 0.0
H1668 H 0.9565 0.86533 0.61078 0.0
H1669 H 0.96378 0.81006 0.60638 0.0
C1670 C 0.89108 0.70657 0.57264 0.0
C1671 C 0.89138 0.68203 0.5861 0.0
C1672 C 0.91814 0.7209 0.56715 0.0
C1673 C 0.94599 0.71151 0.57547 0.0
C1674 C 0.94633 0.68585 0.58815 0.0
C1675 C 0.9193 0.67101 0.5932 0.0
C1676 C 0.9737 0.73079 0.57313 0.0
C1677 C 0.97106 0.7623 0.57649 0.0
C1678 C 0.00284 0.71832 0.56933 0.0
C1679 C 0.00704 0.68591 0.56365 0.0
C1680 C 0.02797 0.66748 0.57403 0.0
C1681 C 0.03178 0.63694 0.56869 0.0
C1682 C 0.0149 0.62456 0.55293 0.0
C1683 C 0.9942 0.64272 0.54244 0.0
C1684 C 0.99031 0.67328 0.54771 0.0
C1685 C 0.08363 0.81727 0.60267 0.0
C1686 C 0.10916 0.81464 0.59026 0.0
C1687 C 0.05646 0.80293 0.59748 0.0
C1688 C 0.0541 0.78606 0.57959 0.0
C1689 C 0.07951 0.78435 0.56685 0.0
C1690 C 0.10691 0.79833 0.57223 0.0
C1691 C 0.02598 0.76833 0.57523 0.0
C1692 C 0.02856 0.73715 0.57073 0.0
C1693 C 0.99666 0.78127 0.57723 0.0
C1694 C 0.99207 0.81453 0.57995 0.0
C1695 C 0.00544 0.83534 0.56659 0.0
C1696 C 1.0013 0.86663 0.56927 0.0
C1697 C 0.98368 0.87742 0.58519 0.0
C1698 C 0.97013 0.85693 0.59845 0.0
C1699 C 0.97422 0.82561 0.59585 0.0
H1700 H 0.98051 0.90166 0.58724 0.0
H1701 H 0.01788 0.6009 0.54883 0.0
H1702 H 0.98981 0.37744 0.86223 0.0
H1703 H 0.01358 0.33073 0.85042 0.0
H1704 H 0.93245 0.30824 0.81735 0.0
H1705 H 0.90837 0.35588 0.82909 0.0
H1706 H 0.95383 0.26148 0.84328 0.0
H1707 H 0.99374 0.32385 0.79128 0.0
H1708 H 0.01816 0.3693 0.77691 0.0
H1709 H 0.09918 0.35056 0.81063 0.0
H1710 H 0.07511 0.30523 0.82545 0.0
H1711 H 0.02629 0.12476 0.82175 0.0
H1712 H 0.00302 0.17357 0.81298 0.0
H1713 H 0.07748 0.22066 0.8413 0.0
H1714 H 0.10148 0.17165 0.84926 0.0
H1715 H 0.05515 0.25432 0.81104 0.0
H1716 H 0.0135 0.20036 0.86771 0.0
H1717 H 0.9907 0.15582 0.88437 0.0
H1718 H 0.91414 0.16049 0.84455 0.0
H1719 H 0.93676 0.20479 0.82742 0.0
C1720 C 0.9771 0.36281 0.85219 0.0
C1721 C 0.94717 0.3702 0.84665 0.0
C1722 C 0.99082 0.33617 0.84535 0.0
C1723 C 0.97492 0.31605 0.8329 0.0
C1724 C 0.94518 0.32359 0.82688 0.0
C1725 C 0.9315 0.35077 0.8335 0.0
C1726 C 0.98893 0.28616 0.82789 0.0
C1727 C 0.97555 0.25977 0.83568 0.0
C1728 C 0.01778 0.28409 0.81859 0.0
C1729 C 0.03253 0.31117 0.80955 0.0
C1730 C 0.0167 0.32951 0.79574 0.0
C1731 C 0.0305 0.35524 0.78749 0.0
C1732 C 0.06019 0.36283 0.79287 0.0
C1733 C 0.07618 0.34464 0.80647 0.0
C1734 C 0.06249 0.31889 0.81477 0.0
C1735 C 0.03827 0.14558 0.82533 0.0
C1736 C 0.06565 0.14454 0.83613 0.0
C1737 C 0.02484 0.17346 0.82049 0.0
C1738 C 0.03801 0.20083 0.827 0.0
C1739 C 0.06678 0.19988 0.8362 0.0
C1740 C 0.08058 0.17188 0.84067 0.0
C1741 C 0.02019 0.22973 0.82664 0.0
C1742 C 0.03301 0.2559 0.81808 0.0
C1743 C 0.99099 0.23177 0.83553 0.0
C1744 C 0.97697 0.20565 0.84614 0.0
C1745 C 0.99186 0.1918 0.86245 0.0
C1746 C 0.97899 0.16659 0.87197 0.0
C1747 C 0.95104 0.15527 0.86548 0.0
C1748 C 0.93583 0.16924 0.84952 0.0
C1749 C 0.94866 0.1944 0.83991 0.0
H1750 H 0.94114 0.13572 0.87284 0.0
H1751 H 0.07083 0.38277 0.78648 0.0
H1752 H 0.64006 0.7779 0.93075 0.0
H1753 H 0.59578 0.74856 0.94168 0.0
H1754 H 0.53693 0.82194 0.92313 0.0
H1755 H 0.58132 0.85118 0.91203 0.0
H1756 H 0.51661 0.7886 0.95888 0.0
H1757 H 0.55231 0.77114 0.89012 0.0
H1758 H 0.59222 0.75745 0.86578 0.0
H1759 H 0.60456 0.67122 0.89502 0.0
H1760 H 0.56495 0.68463 0.91972 0.0
H1761 H 0.38032 0.73806 0.91927 0.0
H1762 H 0.42866 0.75848 0.93002 0.0
H1763 H 0.46632 0.66774 0.93212 0.0
H1764 H 0.4175 0.64704 0.92047 0.0
H1765 H 0.50237 0.70214 0.91188 0.0
H1766 H 0.45845 0.71395 0.97572 0.0
H1767 H 0.41978 0.72685 1.00106 0.0
H1768 H 0.42417 0.82091 0.9839 0.0
H1769 H 0.46254 0.80856 0.95824 0.0
C1770 C 0.61775 0.78827 0.9299 0.0
C1771 C 0.61397 0.81695 0.92094 0.0
C1772 C 0.59248 0.77143 0.936 0.0
C1773 C 0.56306 0.78299 0.93309 0.0
C1774 C 0.55945 0.81271 0.92564 0.0
C1775 C 0.58475 0.82946 0.9194 0.0
C1776 C 0.53624 0.76272 0.93479 0.0
C1777 C 0.51335 0.76968 0.94866 0.0
C1778 C 0.53262 0.7373 0.92195 0.0
C1779 C 0.5559 0.72898 0.90685 0.0
C1780 C 0.56365 0.74933 0.89141 0.0
C1781 C 0.5862 0.74162 0.87755 0.0
C1782 C 0.60092 0.71348 0.87886 0.0
C1783 C 0.59312 0.69299 0.89403 0.0
C1784 C 0.57062 0.70063 0.90795 0.0
C1785 C 0.39864 0.72226 0.92242 0.0
C1786 C 0.39509 0.69091 0.91885 0.0
C1787 C 0.42635 0.73402 0.9288 0.0
C1788 C 0.45131 0.71476 0.93214 0.0
C1789 C 0.44741 0.68313 0.92972 0.0
C1790 C 0.41945 0.67126 0.92321 0.0
C1791 C 0.48188 0.72842 0.93565 0.0
C1792 C 0.50564 0.7204 0.92262 0.0
C1793 C 0.48639 0.75258 0.94949 0.0
C1794 C 0.46336 0.76027 0.96498 0.0
C1795 C 0.45105 0.73736 0.97725 0.0
C1796 C 0.42919 0.74459 0.99169 0.0
C1797 C 0.41951 0.77467 0.99408 0.0
C1798 C 0.43171 0.79761 0.98205 0.0
C1799 C 0.45358 0.79052 0.96758 0.0
H1800 H 0.40258 0.78021 0.00526 0.0
H1801 H 0.61831 0.70752 0.86809 0.0
H1802 H 0.45957 0.3794 0.69167 0.0
H1803 H 0.48394 0.33224 0.70369 0.0
H1804 H 0.44343 0.2828 0.65459 0.0
H1805 H 0.41978 0.32966 0.64249 0.0
H1806 H 0.44542 0.24884 0.69023 0.0
H1807 H 0.5114 0.31357 0.6489 0.0
H1808 H 0.53835 0.36177 0.64258 0.0
H1809 H 0.58668 0.35191 0.69819 0.0
H1810 H 0.55961 0.30382 0.70498 0.0
H1811 H 0.52467 0.1437 0.63769 0.0
H1812 H 0.50218 0.18962 0.65095 0.0
H1813 H 0.56674 0.1899 0.69961 0.0
H1814 H 0.59007 0.14279 0.68613 0.0
H1815 H 0.55669 0.2492 0.67848 0.0
H1816 H 0.49985 0.17457 0.71329 0.0
H1817 H 0.47296 0.12576 0.71707 0.0
H1818 H 0.40735 0.1537 0.67306 0.0
H1819 H 0.43407 0.20252 0.66878 0.0
C1820 C 0.45504 0.35817 0.68396 0.0
C1821 C 0.43764 0.35795 0.66628 0.0
C1822 C 0.46913 0.33134 0.69072 0.0
C1823 C 0.46565 0.30401 0.67996 0.0
C1824 C 0.44635 0.30352 0.6632 0.0
C1825 C 0.43279 0.33028 0.65629 0.0
C1826 C 0.4845 0.27664 0.68428 0.0
C1827 C 0.46981 0.24893 0.68801 0.0
C1828 C 0.51648 0.27687 0.68188 0.0
C1829 C 0.53324 0.30534 0.67757 0.0
C1830 C 0.52765 0.32178 0.65983 0.0
C1831 C 0.54294 0.34908 0.65616 0.0
C1832 C 0.56414 0.35997 0.67001 0.0
C1833 C 0.57019 0.34349 0.68751 0.0
C1834 C 0.55488 0.31622 0.69128 0.0
C1835 C 0.53443 0.15331 0.6512 0.0
C1836 C 0.55943 0.1395 0.66076 0.0
C1837 C 0.52129 0.17963 0.65883 0.0
C1838 C 0.53254 0.1931 0.67635 0.0
C1839 C 0.55765 0.17975 0.68607 0.0
C1840 C 0.57087 0.15285 0.67843 0.0
C1841 C 0.51737 0.22126 0.6837 0.0
C1842 C 0.5326 0.24916 0.68186 0.0
C1843 C 0.48583 0.22124 0.68783 0.0
C1844 C 0.46901 0.19228 0.69074 0.0
C1845 C 0.47972 0.1703 0.70439 0.0
C1846 C 0.46451 0.14262 0.7066 0.0
C1847 C 0.43847 0.13664 0.69531 0.0
C1848 C 0.4275 0.1584 0.68183 0.0
C1849 C 0.44263 0.18613 0.67954 0.0
H1850 H 0.42681 0.11515 0.69699 0.0
H1851 H 0.57594 0.38112 0.66716 0.0
H1852 H 0.14045 0.27839 0.43 0.0
H1853 H 0.09635 0.2495 0.44178 0.0
H1854 H 0.03729 0.32263 0.42307 0.0
H1855 H 0.08149 0.35146 0.41121 0.0
H1856 H 0.01765 0.29092 0.45921 0.0
H1857 H 0.05241 0.26984 0.39056 0.0
H1858 H 0.09226 0.25463 0.36654 0.0
H1859 H 0.10397 0.16985 0.39767 0.0
H1860 H 0.06442 0.18478 0.42204 0.0
H1861 H 0.88031 0.24056 0.42135 0.0
H1862 H 0.92904 0.26074 0.43151 0.0
H1863 H 0.96562 0.16965 0.43483 0.0
H1864 H 0.91646 0.14915 0.42374 0.0
H1865 H 0.00186 0.20263 0.41394 0.0
H1866 H 0.95896 0.21755 0.47773 0.0
H1867 H 0.92085 0.23185 0.50311 0.0
H1868 H 0.92604 0.32517 0.48438 0.0
H1869 H 0.96385 0.31141 0.45867 0.0
C1870 C 0.11814 0.28878 0.42925 0.0
C1871 C 0.11422 0.31726 0.42007 0.0
C1872 C 0.09299 0.27221 0.43585 0.0
C1873 C 0.06354 0.28383 0.43317 0.0
C1874 C 0.05983 0.31335 0.4254 0.0
C1875 C 0.08502 0.32986 0.41871 0.0
C1876 C 0.03666 0.2638 0.43549 0.0
C1877 C 0.01405 0.27159 0.44937 0.0
C1878 C 0.03263 0.23785 0.42319 0.0
C1879 C 0.05569 0.22852 0.4082 0.0
C1880 C 0.06358 0.24801 0.39231 0.0
C1881 C 0.08609 0.23944 0.37865 0.0
C1882 C 0.10065 0.2113 0.38059 0.0
C1883 C 0.09266 0.19164 0.39619 0.0
C1884 C 0.07019 0.20013 0.40992 0.0
C1885 C 0.89848 0.22464 0.42464 0.0
C1886 C 0.89453 0.19322 0.42155 0.0
C1887 C 0.92642 0.23627 0.43068 0.0
C1888 C 0.95118 0.21682 0.43418 0.0
C1889 C 0.94688 0.18517 0.43227 0.0
C1890 C 0.91872 0.17343 0.42608 0.0
C1891 C 0.98195 0.23019 0.43731 0.0
C1892 C 0.00547 0.22131 0.42431 0.0
C1893 C 0.98693 0.25483 0.45069 0.0
C1894 C 0.96422 0.26338 0.46619 0.0
C1895 C 0.95186 0.2411 0.47893 0.0
C1896 C 0.93031 0.24912 0.49339 0.0
C1897 C 0.92101 0.2794 0.49534 0.0
C1898 C 0.93328 0.30173 0.48286 0.0
C1899 C 0.95483 0.29384 0.46836 0.0
H1900 H 0.90432 0.28556 0.50655 0.0
H1901 H 0.11808 0.20471 0.37 0.0
H1902 H 0.0238 0.61727 0.17718 0.0
H1903 H 0.99554 0.66271 0.18774 0.0
H1904 H 0.06931 0.71937 0.16766 0.0
H1905 H 0.09751 0.67381 0.15703 0.0
H1906 H 0.0389 0.7415 0.20337 0.0
H1907 H 0.01491 0.70381 0.13594 0.0
H1908 H 0.9983 0.66294 0.11306 0.0
H1909 H 0.91435 0.6552 0.14532 0.0
H1910 H 0.93069 0.69577 0.16858 0.0
H1911 H 0.98716 0.87994 0.16735 0.0
H1912 H 0.00766 0.83067 0.17616 0.0
H1913 H 0.91699 0.79423 0.18039 0.0
H1914 H 0.8961 0.84405 0.17041 0.0
H1915 H 0.94905 0.75724 0.15955 0.0
H1916 H 0.96719 0.80126 0.22289 0.0
H1917 H 0.98291 0.83997 0.24756 0.0
H1918 H 0.07483 0.83392 0.22655 0.0
H1919 H 0.05964 0.79548 0.20156 0.0
C1920 C 0.03447 0.63938 0.17586 0.0
C1921 C 0.06303 0.64214 0.16672 0.0
C1922 C 0.01822 0.66532 0.18172 0.0
C1923 C 0.03019 0.69447 0.17834 0.0
C1924 C 0.05971 0.69711 0.17052 0.0
C1925 C 0.0759 0.67113 0.16456 0.0
C1926 C 0.01072 0.72206 0.1804 0.0
C1927 C 0.01927 0.74508 0.19381 0.0
C1928 C 0.98436 0.72615 0.1685 0.0
C1929 C 0.97412 0.70261 0.15408 0.0
C1930 C 0.99296 0.69331 0.13818 0.0
C1931 C 0.9836 0.6702 0.12516 0.0
C1932 C 0.95531 0.65645 0.12776 0.0
C1933 C 0.93626 0.66587 0.14334 0.0
C1934 C 0.94555 0.68893 0.15643 0.0
C1935 C 0.97138 0.86168 0.17051 0.0
C1936 C 0.93992 0.86598 0.16803 0.0
C1937 C 0.98323 0.83337 0.17579 0.0
C1938 C 0.96403 0.80849 0.17927 0.0
C1939 C 0.93238 0.81302 0.17787 0.0
C1940 C 0.92039 0.84158 0.17235 0.0
C1941 C 0.97763 0.77753 0.18219 0.0
C1942 C 0.96813 0.7537 0.16959 0.0
C1943 C 0.00281 0.77253 0.19514 0.0
C1944 C 0.01221 0.79551 0.21027 0.0
C1945 C 0.99074 0.80829 0.22344 0.0
C1946 C 0.99956 0.83018 0.2375 0.0
C1947 C 0.02984 0.83941 0.23861 0.0
C1948 C 0.05138 0.82672 0.22569 0.0
C1949 C 0.04269 0.80482 0.2116 0.0
H1950 H 0.03662 0.85638 0.2495 0.0
H1951 H 0.94811 0.63853 0.11768 0.0
H1952 H 0.32158 0.28636 0.1281 0.0
H1953 H 0.30433 0.33934 0.12818 0.0
H1954 H 0.22418 0.31342 0.09513 0.0
H1955 H 0.24162 0.2608 0.09446 0.0
H1956 H 0.24245 0.3662 0.08235 0.0
H1957 H 0.22602 0.32097 0.14745 0.0
H1958 H 0.24037 0.296 0.17926 0.0
H1959 H 0.29841 0.37118 0.1939 0.0
H1960 H 0.28482 0.39635 0.16202 0.0
H1961 H 0.12294 0.45831 0.1164 0.0
H1962 H 0.16008 0.4186 0.10916 0.0
H1963 H 0.23163 0.47573 0.13211 0.0
H1964 H 0.19418 0.51622 0.13914 0.0
H1965 H 0.22788 0.41441 0.14899 0.0
H1966 H 0.23395 0.46298 0.08499 0.0
H1967 H 0.21289 0.48711 0.0546 0.0
H1968 H 0.16767 0.4039 0.0391 0.0
H1969 H 0.18811 0.37935 0.06955 0.0
C1970 C 0.30051 0.29202 0.12057 0.0
C1971 C 0.28284 0.26919 0.11146 0.0
C1972 C 0.29059 0.32233 0.12073 0.0
C1973 C 0.26263 0.33035 0.11201 0.0
C1974 C 0.24579 0.30787 0.10201 0.0
C1975 C 0.25579 0.27767 0.10169 0.0
C1976 C 0.24983 0.36158 0.11418 0.0
C1977 C 0.23933 0.37672 0.09693 0.0
C1978 C 0.24623 0.37572 0.13317 0.0
C1979 C 0.25476 0.36034 0.1522 0.0
C1980 C 0.24211 0.33202 0.15735 0.0
C1981 C 0.25005 0.31786 0.17541 0.0
C1982 C 0.27037 0.33196 0.18855 0.0
C1983 C 0.28275 0.36025 0.18367 0.0
C1984 C 0.27496 0.37446 0.16561 0.0
C1985 C 0.14665 0.46264 0.11964 0.0
C1986 C 0.15572 0.49028 0.12837 0.0
C1987 C 0.16786 0.43997 0.11543 0.0
C1988 C 0.1986 0.44426 0.12003 0.0
C1989 C 0.20798 0.47209 0.12838 0.0
C1990 C 0.18668 0.49519 0.13229 0.0
C1991 C 0.22001 0.41851 0.11724 0.0
C1992 C 0.23192 0.40428 0.13437 0.0
C1993 C 0.22432 0.4049 0.09822 0.0
C1994 C 0.21252 0.41935 0.07962 0.0
C1995 C 0.21941 0.44985 0.07516 0.0
C1996 C 0.20759 0.4636 0.05791 0.0
C1997 C 0.18894 0.44705 0.04494 0.0
C1998 C 0.18215 0.41668 0.04916 0.0
C1999 C 0.19391 0.40281 0.06639 0.0
H2000 H 0.17977 0.45776 0.03163 0.0
H2001 H 0.27647 0.32104 0.20254 0.0
H2002 H 0.30026 0.38419 0.37727 0.0
H2003 H 0.33565 0.42504 0.37016 0.0
H2004 H 0.26201 0.48982 0.36926 0.0
H2005 H 0.2258 0.44856 0.37638 0.0
H2006 H 0.31245 0.49665 0.33781 0.0
H2007 H 0.29723 0.49321 0.41009 0.0
H2008 H 0.29058 0.46462 0.44167 0.0
H2009 H 0.37711 0.42141 0.43301 0.0
H2010 H 0.38446 0.45005 0.40164 0.0
H2011 H 0.45873 0.58072 0.37995 0.0
H2012 H 0.40425 0.56935 0.3804 0.0
H2013 H 0.41818 0.49842 0.33661 0.0
H2014 H 0.47264 0.50913 0.33649 0.0
H2015 H 0.38732 0.51007 0.39282 0.0
H2016 H 0.35058 0.49227 0.30944 0.0
H2017 H 0.35778 0.51737 0.27673 0.0
H2018 H 0.37558 0.60226 0.30637 0.0
H2019 H 0.36799 0.57784 0.33926 0.0
C2020 C 0.29135 0.40702 0.37544 0.0
C2021 C 0.26022 0.41319 0.37784 0.0
C2022 C 0.31167 0.43034 0.37128 0.0
C2023 C 0.30147 0.46043 0.3695 0.0
C2024 C 0.27025 0.46668 0.37069 0.0
C2025 C 0.24967 0.44314 0.37483 0.0
C2026 C 0.32431 0.48498 0.36816 0.0
C2027 C 0.32861 0.50015 0.34988 0.0
C2028 C 0.345 0.48973 0.38408 0.0
C2029 C 0.34144 0.47389 0.40359 0.0
C2030 C 0.31493 0.47778 0.41504 0.0
C2031 C 0.31107 0.46161 0.43293 0.0
C2032 C 0.33353 0.44139 0.43946 0.0
C2033 C 0.35993 0.43739 0.42814 0.0
C2034 C 0.36403 0.45371 0.41036 0.0
C2035 C 0.45 0.56343 0.36991 0.0
C2036 C 0.46988 0.54566 0.35826 0.0
C2037 C 0.4189 0.55691 0.37023 0.0
C2038 C 0.40719 0.53311 0.3585 0.0
C2039 C 0.42668 0.51711 0.3456 0.0
C2040 C 0.4578 0.52315 0.3456 0.0
C2041 C 0.37624 0.5212 0.36218 0.0
C2042 C 0.37063 0.50788 0.38093 0.0
C2043 C 0.35451 0.51823 0.34664 0.0
C2044 C 0.35888 0.53312 0.32686 0.0
C2045 C 0.35585 0.51633 0.309 0.0
C2046 C 0.36004 0.53044 0.29041 0.0
C2047 C 0.3672 0.56137 0.28947 0.0
C2048 C 0.37013 0.57827 0.30712 0.0
C2049 C 0.36595 0.56429 0.32575 0.0
H2050 H 0.37043 0.57224 0.27507 0.0
H2051 H 0.33043 0.42873 0.45324 0.0
H2052 H 0.25893 0.74273 0.59031 0.0
H2053 H 0.27792 0.69073 0.59212 0.0
H2054 H 0.20862 0.6685 0.63536 0.0
H2055 H 0.18988 0.72093 0.63403 0.0
H2056 H 0.261 0.6492 0.64839 0.0
H2057 H 0.2082 0.63841 0.58679 0.0
H2058 H 0.19167 0.65151 0.55251 0.0
H2059 H 0.28343 0.64322 0.53152 0.0
H2060 H 0.30062 0.6305 0.56573 0.0
H2061 H 0.31829 0.49465 0.64626 0.0
H2062 H 0.28165 0.53615 0.64024 0.0
H2063 H 0.35035 0.58639 0.60837 0.0
H2064 H 0.38706 0.54568 0.61485 0.0
H2065 H 0.28974 0.58572 0.5898 0.0
H2066 H 0.34194 0.60399 0.65296 0.0
H2067 H 0.35784 0.59082 0.68736 0.0
H2068 H 0.26454 0.58448 0.70541 0.0
H2069 H 0.24806 0.59697 0.67095 0.0
C2070 C 0.24732 0.72672 0.59996 0.0
C2071 C 0.22291 0.73616 0.61209 0.0
C2072 C 0.25816 0.69683 0.60091 0.0
C2073 C 0.2446 0.67548 0.61376 0.0
C2074 C 0.2195 0.68451 0.62533 0.0
C2075 C 0.20872 0.7145 0.62448 0.0
C2076 C 0.25825 0.64462 0.61622 0.0
C2077 C 0.26655 0.635 0.63558 0.0
C2078 C 0.26593 0.62612 0.59954 0.0
C2079 C 0.25572 0.63367 0.57889 0.0
C2080 C 0.2249 0.63959 0.5749 0.0
C2081 C 0.2154 0.64692 0.55547 0.0
C2082 C 0.23649 0.64825 0.53985 0.0
C2083 C 0.26712 0.64219 0.54363 0.0
C2084 C 0.27675 0.63487 0.56304 0.0
C2085 C 0.32531 0.51437 0.63771 0.0
C2086 C 0.35545 0.51712 0.63108 0.0
C2087 C 0.30447 0.53803 0.63435 0.0
C2088 C 0.31338 0.56433 0.62391 0.0
C2089 C 0.34303 0.56628 0.61641 0.0
C2090 C 0.36397 0.54309 0.62018 0.0
C2091 C 0.29277 0.59087 0.62183 0.0
C2092 C 0.28338 0.59967 0.60257 0.0
C2093 C 0.28387 0.6085 0.63859 0.0
C2094 C 0.29376 0.60085 0.65928 0.0
C2095 C 0.3248 0.59935 0.66418 0.0
C2096 C 0.33392 0.59209 0.6837 0.0
C2097 C 0.31221 0.5866 0.69852 0.0
C2098 C 0.28132 0.58855 0.69387 0.0
C2099 C 0.27208 0.59569 0.67435 0.0
H2100 H 0.31933 0.58099 0.71362 0.0
H2101 H 0.2291 0.65393 0.52482 0.0
H2102 H 0.03613 0.4309 0.88217 0.0
H2103 H 0.0907 0.44221 0.88306 0.0
H2104 H 0.07488 0.52371 0.8485 0.0
H2105 H 0.02063 0.51276 0.84768 0.0
H2106 H 0.12784 0.49217 0.8372 0.0
H2107 H 0.07483 0.52489 0.89869 0.0
H2108 H 0.04621 0.51455 0.92976 0.0
H2109 H 0.11857 0.45736 0.951 0.0
H2110 H 0.14734 0.46682 0.91987 0.0
H2111 H 0.2206 0.61477 0.85642 0.0
H2112 H 0.18227 0.57592 0.85183 0.0
H2113 H 0.22461 0.52082 0.89762 0.0
H2114 H 0.26294 0.56048 0.90283 0.0
H2115 H 0.16663 0.52323 0.90402 0.0
H2116 H 0.22459 0.49825 0.84722 0.0
H2117 H 0.255 0.50659 0.8167 0.0
H2118 H 0.17735 0.54512 0.78704 0.0
H2119 H 0.14656 0.53749 0.81748 0.0
C2120 C 0.04443 0.45084 0.87437 0.0
C2121 C 0.02411 0.47113 0.865 0.0
C2122 C 0.07555 0.45731 0.87498 0.0
C2123 C 0.08673 0.48396 0.86603 0.0
C2124 C 0.06671 0.50305 0.85552 0.0
C2125 C 0.0357 0.49682 0.85512 0.0
C2126 C 0.11858 0.49387 0.86886 0.0
C2127 C 0.13648 0.49887 0.85179 0.0
C2128 C 0.1303 0.50136 0.88803 0.0
C2129 C 0.11296 0.49606 0.90677 0.0
C2130 C 0.08449 0.50983 0.90988 0.0
C2131 C 0.06826 0.50417 0.92752 0.0
C2132 C 0.08047 0.48509 0.94224 0.0
C2133 C 0.10906 0.47194 0.9395 0.0
C2134 C 0.1253 0.4774 0.92186 0.0
C2135 C 0.22212 0.59428 0.8654 0.0
C2136 C 0.24484 0.59085 0.88007 0.0
C2137 C 0.20026 0.57184 0.8626 0.0
C2138 C 0.20077 0.54511 0.87412 0.0
C2139 C 0.22387 0.54116 0.88845 0.0
C2140 C 0.24581 0.5638 0.89137 0.0
C2141 C 0.17542 0.52301 0.87221 0.0
C2142 C 0.15865 0.51571 0.88945 0.0
C2143 C 0.16497 0.51297 0.85322 0.0
C2144 C 0.18325 0.51733 0.83471 0.0
C2145 C 0.21401 0.50864 0.83423 0.0
C2146 C 0.23133 0.51324 0.81694 0.0
C2147 C 0.21812 0.52639 0.79995 0.0
C2148 C 0.18755 0.53491 0.80021 0.0
C2149 C 0.17013 0.53038 0.81748 0.0
H2150 H 0.23157 0.52996 0.78658 0.0
H2151 H 0.06785 0.48046 0.9558 0.0
H2152 H 0.67042 0.71994 0.88363 0.0
H2153 H 0.68451 0.66593 0.88148 0.0
H2154 H 0.76631 0.68428 0.91497 0.0
H2155 H 0.7524 0.73794 0.91707 0.0
H2156 H 0.73477 0.64737 0.86157 0.0
H2157 H 0.79019 0.6217 0.93938 0.0
H2158 H 0.77994 0.63203 0.9751 0.0
H2159 H 0.68502 0.64292 0.96218 0.0
H2160 H 0.69459 0.63218 0.92643 0.0
H2161 H 0.86657 0.56051 0.85685 0.0
H2162 H 0.82636 0.59701 0.86354 0.0
H2163 H 0.77396 0.52728 0.89291 0.0
H2164 H 0.81469 0.49014 0.88635 0.0
H2165 H 0.77568 0.57988 0.91484 0.0
H2166 H 0.75128 0.5533 0.84767 0.0
H2167 H 0.76098 0.54284 0.81189 0.0
H2168 H 0.7906 0.63494 0.80336 0.0
H2169 H 0.78158 0.64586 0.83915 0.0
C2170 C 0.69081 0.71219 0.89116 0.0
C2171 C 0.71035 0.73316 0.90047 0.0
C2172 C 0.69897 0.68138 0.88978 0.0
C2173 C 0.7265 0.67098 0.89805 0.0
C2174 C 0.74481 0.69157 0.90867 0.0
C2175 C 0.73687 0.72231 0.90982 0.0
C2176 C 0.73844 0.64003 0.89342 0.0
C2177 C 0.74331 0.63238 0.87322 0.0
C2178 C 0.74916 0.62018 0.9086 0.0
C2179 C 0.74316 0.62625 0.93017 0.0
C2180 C 0.76709 0.62608 0.94416 0.0
C2181 C 0.76141 0.63207 0.96442 0.0
C2182 C 0.73186 0.63818 0.97089 0.0
C2183 C 0.70791 0.63826 0.95713 0.0
C2184 C 0.71347 0.63227 0.93686 0.0
C2185 C 0.84647 0.55269 0.86463 0.0
C2186 C 0.8439 0.52228 0.87103 0.0
C2187 C 0.82334 0.57365 0.86833 0.0
C2188 C 0.7969 0.56486 0.87848 0.0
C2189 C 0.79408 0.53452 0.88492 0.0
C2190 C 0.8173 0.51332 0.8811 0.0
C2191 C 0.77326 0.58813 0.88304 0.0
C2192 C 0.7664 0.59443 0.9032 0.0
C2193 C 0.76058 0.60673 0.86781 0.0
C2194 C 0.76583 0.60036 0.84617 0.0
C2195 C 0.76004 0.57129 0.8382 0.0
C2196 C 0.7654 0.56528 0.8179 0.0
C2197 C 0.77642 0.5882 0.80536 0.0
C2198 C 0.78205 0.61721 0.81309 0.0
C2199 C 0.77676 0.62333 0.83338 0.0
H2200 H 0.78058 0.5835 0.78966 0.0
H2201 H 0.72751 0.64284 0.98658 0.0
H2202 H 0.75942 0.55486 0.60608 0.0
H2203 H 0.72171 0.51511 0.61225 0.0
H2204 H 0.68361 0.56852 0.66038 0.0
H2205 H 0.72126 0.60815 0.65448 0.0
H2206 H 0.6844 0.5076 0.66952 0.0
H2207 H 0.65437 0.57264 0.61399 0.0
H2208 H 0.66235 0.59671 0.58098 0.0
H2209 H 0.66813 0.50866 0.55329 0.0
H2210 H 0.66071 0.48402 0.58623 0.0
H2211 H 0.52595 0.48985 0.67189 0.0
H2212 H 0.57974 0.50299 0.67043 0.0
H2213 H 0.59454 0.43219 0.62664 0.0
H2214 H 0.54052 0.41864 0.62831 0.0
H2215 H 0.61194 0.49027 0.61363 0.0
H2216 H 0.63026 0.42603 0.66921 0.0
H2217 H 0.6211 0.40348 0.70248 0.0
H2218 H 0.63586 0.49037 0.73029 0.0
H2219 H 0.64456 0.51362 0.69714 0.0
C2220 C 0.74333 0.55794 0.61819 0.0
C2221 C 0.74312 0.5849 0.62961 0.0
C2222 C 0.72176 0.53521 0.62167 0.0
C2223 C 0.69962 0.53902 0.63662 0.0
C2224 C 0.70046 0.5651 0.64876 0.0
C2225 C 0.72191 0.58784 0.64527 0.0
C2226 C 0.67396 0.51738 0.63861 0.0
C2227 C 0.66855 0.50373 0.65732 0.0
C2228 C 0.65375 0.51171 0.6225 0.0
C2229 C 0.65745 0.52648 0.60262 0.0
C2230 C 0.65757 0.5584 0.60089 0.0
C2231 C 0.662 0.57215 0.5822 0.0
C2232 C 0.666 0.55422 0.56509 0.0
C2233 C 0.66526 0.5225 0.5666 0.0
C2234 C 0.66093 0.50863 0.58527 0.0
C2235 C 0.54093 0.47631 0.66256 0.0
C2236 C 0.5292 0.45314 0.65032 0.0
C2237 C 0.57164 0.48387 0.66168 0.0
C2238 C 0.59113 0.46863 0.64837 0.0
C2239 C 0.57987 0.44418 0.63703 0.0
C2240 C 0.54913 0.43624 0.63816 0.0
C2241 C 0.62193 0.48107 0.64471 0.0
C2242 C 0.62823 0.49326 0.62569 0.0
C2243 C 0.64283 0.48551 0.66056 0.0
C2244 C 0.63796 0.47162 0.68062 0.0
C2245 C 0.63137 0.4404 0.68239 0.0
C2246 C 0.62627 0.42748 0.70125 0.0
C2247 C 0.62788 0.44549 0.71849 0.0
C2248 C 0.63464 0.47645 0.71692 0.0
C2249 C 0.6397 0.48951 0.69809 0.0
H2250 H 0.62393 0.43544 0.73308 0.0
H2251 H 0.66945 0.5649 0.55063 0.0
H2252 H 0.81991 0.28453 0.37339 0.0
H2253 H 0.8008 0.33672 0.37107 0.0
H2254 H 0.72361 0.31222 0.40738 0.0
H2255 H 0.74294 0.26042 0.41024 0.0
H2256 H 0.75294 0.35702 0.35392 0.0
H2257 H 0.69443 0.37142 0.43207 0.0
H2258 H 0.70396 0.3573 0.46733 0.0
H2259 H 0.79946 0.35024 0.45531 0.0
H2260 H 0.79059 0.36476 0.42005 0.0
H2261 H 0.62461 0.44943 0.35048 0.0
H2262 H 0.66316 0.41055 0.35555 0.0
H2263 H 0.71436 0.47212 0.39288 0.0
H2264 H 0.67535 0.51161 0.38789 0.0
H2265 H 0.70983 0.41702 0.4102 0.0
H2266 H 0.74157 0.4534 0.34718 0.0
H2267 H 0.73829 0.4704 0.31198 0.0
H2268 H 0.70645 0.38205 0.29432 0.0
H2269 H 0.70871 0.36493 0.3295 0.0
C2270 C 0.79917 0.29039 0.38123 0.0
C2271 C 0.783 0.26816 0.39201 0.0
C2272 C 0.78818 0.32027 0.3798 0.0
C2273 C 0.76082 0.32865 0.38915 0.0
C2274 C 0.74509 0.30667 0.40036 0.0
C2275 C 0.75614 0.27689 0.40191 0.0
C2276 C 0.74744 0.35955 0.386 0.0
C2277 C 0.74376 0.37021 0.36627 0.0
C2278 C 0.73623 0.37744 0.40209 0.0
C2279 C 0.74179 0.36898 0.42335 0.0
C2280 C 0.71749 0.36703 0.43696 0.0
C2281 C 0.72277 0.35891 0.45695 0.0
C2282 C 0.75228 0.35281 0.46354 0.0
C2283 C 0.77659 0.35488 0.45017 0.0
C2284 C 0.77144 0.36301 0.43017 0.0
C2285 C 0.6441 0.45492 0.35972 0.0
C2286 C 0.64682 0.48368 0.36885 0.0
C2287 C 0.6663 0.43263 0.36248 0.0
C2288 C 0.69187 0.43843 0.37443 0.0
C2289 C 0.69488 0.46718 0.38351 0.0
C2290 C 0.67266 0.48975 0.3806 0.0
C2291 C 0.71425 0.41359 0.37812 0.0
C2292 C 0.71951 0.40404 0.39792 0.0
C2293 C 0.72767 0.39717 0.36213 0.0
C2294 C 0.72539 0.40777 0.341 0.0
C2295 C 0.73362 0.43767 0.33582 0.0
C2296 C 0.73197 0.44735 0.31586 0.0
C2297 C 0.72235 0.42728 0.3009 0.0
C2298 C 0.71414 0.39754 0.30589 0.0
C2299 C 0.71555 0.38784 0.32584 0.0
H2300 H 0.72106 0.43482 0.28546 0.0
H2301 H 0.75632 0.34651 0.47902 0.0
H2302 H 0.74529 0.44516 0.10575 0.0
H2303 H 0.78419 0.48386 0.11187 0.0
H2304 H 0.82862 0.42383 0.15391 0.0
H2305 H 0.78981 0.38539 0.14815 0.0
H2306 H 0.82829 0.48092 0.16781 0.0
H2307 H 0.85171 0.43063 0.10476 0.0
H2308 H 0.84174 0.41469 0.06988 0.0
H2309 H 0.83204 0.50815 0.05217 0.0
H2310 H 0.84155 0.52464 0.08702 0.0
H2311 H 0.98525 0.50379 0.16587 0.0
H2312 H 0.93192 0.48926 0.16481 0.0
H2313 H 0.91193 0.56726 0.12773 0.0
H2314 H 0.96571 0.58203 0.12883 0.0
H2315 H 0.89285 0.51343 0.11082 0.0
H2316 H 0.88021 0.56308 0.17338 0.0
H2317 H 0.89285 0.57757 0.20812 0.0
H2318 H 0.88423 0.48446 0.22676 0.0
H2319 H 0.87196 0.4693 0.19208 0.0
C2320 C 0.76317 0.44032 0.11645 0.0
C2321 C 0.76454 0.41202 0.12632 0.0
C2322 C 0.78546 0.46244 0.11988 0.0
C2323 C 0.80955 0.45664 0.13319 0.0
C2324 C 0.81028 0.42886 0.14358 0.0
C2325 C 0.7881 0.40681 0.14018 0.0
C2326 C 0.83487 0.47862 0.13583 0.0
C2327 C 0.84241 0.48805 0.15535 0.0
C2328 C 0.85275 0.48879 0.1195 0.0
C2329 C 0.84689 0.47885 0.09856 0.0
C2330 C 0.84716 0.44777 0.09347 0.0
C2331 C 0.84167 0.43864 0.07369 0.0
C2332 C 0.83621 0.46039 0.05882 0.0
C2333 C 0.83626 0.49133 0.0637 0.0
C2334 C 0.84167 0.50058 0.08346 0.0
C2335 C 0.96934 0.51839 0.15801 0.0
C2336 C 0.97961 0.54401 0.14743 0.0
C2337 C 0.93881 0.51009 0.15743 0.0
C2338 C 0.91786 0.52716 0.1462 0.0
C2339 C 0.9277 0.5538 0.13652 0.0
C2340 C 0.95835 0.56237 0.13731 0.0
C2341 C 0.88686 0.51483 0.14288 0.0
C2342 C 0.87825 0.5071 0.12323 0.0
C2343 C 0.86812 0.50605 0.1591 0.0
C2344 C 0.87525 0.51504 0.18007 0.0
C2345 C 0.88118 0.54565 0.18485 0.0
C2346 C 0.88826 0.55399 0.20455 0.0
C2347 C 0.88937 0.53195 0.21964 0.0
C2348 C 0.88334 0.50152 0.21506 0.0
C2349 C 0.87626 0.49305 0.19539 0.0
H2350 H 0.89487 0.53845 0.23487 0.0
H2351 H 0.832 0.45328 0.04351 0.0
H2352 H 0.8189 0.77899 0.62909 0.0
H2353 H 0.80042 0.83141 0.62991 0.0
H2354 H 0.72213 0.80531 0.59508 0.0
H2355 H 0.74059 0.75282 0.59396 0.0
H2356 H 0.74186 0.86138 0.58431 0.0
H2357 H 0.71777 0.80865 0.6454 0.0
H2358 H 0.729 0.77851 0.67569 0.0
H2359 H 0.78734 0.84943 0.69742 0.0
H2360 H 0.7767 0.87989 0.66706 0.0
H2361 H 0.62036 0.95155 0.6192 0.0
H2362 H 0.65702 0.9114 0.6118 0.0
H2363 H 0.72858 0.96563 0.63761 0.0
H2364 H 0.6917 0.0067 0.64464 0.0
H2365 H 0.72085 0.90129 0.6526 0.0
H2366 H 0.73538 0.95755 0.59211 0.0
H2367 H 0.71919 0.98601 0.56206 0.0
H2368 H 0.67381 0.90661 0.53958 0.0
H2369 H 0.68933 0.87777 0.56965 0.0
C2370 C 0.79801 0.78442 0.62128 0.0
C2371 C 0.78104 0.76151 0.61168 0.0
C2372 C 0.78743 0.81444 0.62183 0.0
C2373 C 0.75961 0.82219 0.61289 0.0
C2374 C 0.74361 0.79984 0.60216 0.0
C2375 C 0.75419 0.76979 0.60158 0.0
C2376 C 0.74595 0.85283 0.61601 0.0
C2377 C 0.73729 0.87012 0.59923 0.0
C2378 C 0.74042 0.8645 0.63551 0.0
C2379 C 0.74676 0.84637 0.65384 0.0
C2380 C 0.7332 0.81771 0.65655 0.0
C2381 C 0.73944 0.80058 0.67375 0.0
C2382 C 0.759 0.81196 0.68844 0.0
C2383 C 0.77227 0.84059 0.68599 0.0
C2384 C 0.76613 0.85782 0.6688 0.0
C2385 C 0.64397 0.95512 0.62311 0.0
C2386 C 0.65322 0.98216 0.63255 0.0
C2387 C 0.66489 0.9322 0.61881 0.0
C2388 C 0.69547 0.93557 0.62413 0.0
C2389 C 0.70503 0.9627 0.63334 0.0
C2390 C 0.68407 0.98612 0.63727 0.0
C2391 C 0.71654 0.90964 0.62091 0.0
C2392 C 0.72629 0.89301 0.63769 0.0
C2393 C 0.72262 0.89837 0.60143 0.0
C2394 C 0.71339 0.91554 0.58322 0.0
C2395 C 0.72175 0.94621 0.58084 0.0
C2396 C 0.71273 0.9624 0.56378 0.0
C2397 C 0.69545 0.94814 0.54894 0.0
C2398 C 0.6872 0.91763 0.5511 0.0
C2399 C 0.69615 0.90133 0.56813 0.0
H2400 H 0.68848 0.96072 0.53574 0.0
H2401 H 0.76379 0.79867 0.70174 0.0
H2402 H 0.74363 0.94687 0.89463 0.0
H2403 H 0.78631 0.98124 0.88734 0.0
H2404 H 0.8288 0.91061 0.85207 0.0
H2405 H 0.78707 0.87628 0.85991 0.0
H2406 H 0.86609 0.92967 0.87944 0.0
H2407 H 0.80011 0.97807 0.83139 0.0
H2408 H 0.75371 0.00443 0.82001 0.0
H2409 H 0.77136 0.07765 0.86106 0.0
H2410 H 0.81767 0.05151 0.87289 0.0
H2411 H 0.99229 0.99992 0.83813 0.0
H2412 H 0.94049 0.98052 0.83923 0.0
H2413 H 0.91635 0.04931 0.88254 0.0
H2414 H 0.9683 0.06903 0.8816 0.0
H2415 H 0.86879 0.0352 0.85309 0.0
H2416 H 0.93415 0.98623 0.90094 0.0
H2417 H 0.97933 0.95901 0.9133 0.0
H2418 H 0.96245 0.88634 0.87171 0.0
H2419 H 0.91675 0.91304 0.85934 0.0
C2420 C 0.76175 0.93915 0.88489 0.0
C2421 C 0.7623 0.90899 0.8779 0.0
C2422 C 0.78611 0.95873 0.88073 0.0
C2423 C 0.81093 0.94846 0.86924 0.0
C2424 C 0.81014 0.91899 0.86112 0.0
C2425 C 0.78625 0.89942 0.86553 0.0
C2426 C 0.83932 0.96657 0.86744 0.0
C2427 C 0.86658 0.95258 0.87337 0.0
C2428 C 0.84 0.99692 0.86028 0.0
C2429 C 0.81218 0.01266 0.85319 0.0
C2430 C 0.79396 0.99966 0.83812 0.0
C2431 C 0.7677 0.01459 0.83156 0.0
C2432 C 0.75954 0.04265 0.83985 0.0
C2433 C 0.77768 0.05588 0.85468 0.0
C2434 C 0.80394 0.04103 0.8613 0.0
C2435 C 0.97591 0.0114 0.8476 0.0
C2436 C 0.98467 0.03578 0.86 0.0
C2437 C 0.94626 1.00026 0.8482 0.0
C2438 C 0.92472 0.01325 0.86114 0.0
C2439 C 0.93265 0.03898 0.87244 0.0
C2440 C 0.96242 0.05013 0.87192 0.0
C2441 C 0.89528 0.99771 0.86443 0.0
C2442 C 0.86803 0.01224 0.85904 0.0
C2443 C 0.89441 0.96769 0.87202 0.0
C2444 C 0.92214 0.95176 0.87916 0.0
C2445 C 0.94013 0.96454 0.8944 0.0
C2446 C 0.96583 0.94918 0.90141 0.0
C2447 C 0.97394 0.92106 0.8932 0.0
C2448 C 0.95619 0.90816 0.87803 0.0
C2449 C 0.9303 0.92334 0.87108 0.0
H2450 H 0.99389 0.90922 0.89863 0.0
H2451 H 0.73921 0.05418 0.83475 0.0
H2452 H 0.8092 0.00431 0.15516 0.0
H2453 H 0.77038 0.04335 0.14802 0.0
H2454 H 0.82967 0.08376 0.10404 0.0
H2455 H 0.86743 0.04501 0.11043 0.0
H2456 H 0.77094 0.1038 0.15226 0.0
H2457 H 0.79412 0.11401 0.06588 0.0
H2458 H 0.80646 0.07999 0.0376 0.0
H2459 H 0.76756 0.0044 0.06915 0.0
H2460 H 0.75441 0.03804 0.09748 0.0
H2461 H 0.75458 0.24488 0.09129 0.0
H2462 H 0.76945 0.19132 0.09201 0.0
H2463 H 0.68779 0.16937 0.12448 0.0
H2464 H 0.67294 0.22301 0.12419 0.0
H2465 H 0.74547 0.13304 0.08224 0.0
H2466 H 0.71041 0.1228 0.16345 0.0
H2467 H 0.69118 0.15687 0.19004 0.0
H2468 H 0.74765 0.22912 0.16819 0.0
H2469 H 0.76794 0.19519 0.1419 0.0
C2470 C 0.81365 0.02128 0.14376 0.0
C2471 C 0.84147 0.02139 0.13338 0.0
C2472 C 0.79154 0.04366 0.13977 0.0
C2473 C 0.79684 0.06628 0.12523 0.0
C2474 C 0.82457 0.06622 0.11494 0.0
C2475 C 0.84637 0.04401 0.11878 0.0
C2476 C 0.77448 0.09103 0.12108 0.0
C2477 C 0.76478 0.10968 0.13698 0.0
C2478 C 0.76623 0.09888 0.10114 0.0
C2479 C 0.77337 0.07861 0.08388 0.0
C2480 C 0.78792 0.0902 0.06674 0.0
C2481 C 0.79511 0.07096 0.0507 0.0
C2482 C 0.7878 0.04006 0.05159 0.0
C2483 C 0.77322 0.02834 0.0685 0.0
C2484 C 0.76591 0.04749 0.08455 0.0
C2485 C 0.73937 0.22862 0.09817 0.0
C2486 C 0.7129 0.2384 0.1081 0.0
C2487 C 0.74785 0.19792 0.09847 0.0
C2488 C 0.73002 0.17645 0.10863 0.0
C2489 C 0.70209 0.18564 0.11678 0.0
C2490 C 0.69369 0.21636 0.11664 0.0
C2491 C 0.74301 0.14601 0.11329 0.0
C2492 C 0.75106 0.12653 0.09751 0.0
C2493 C 0.74926 0.13711 0.13332 0.0
C2494 C 0.74035 0.15655 0.15056 0.0
C2495 C 0.71903 0.14581 0.16451 0.0
C2496 C 0.70785 0.16514 0.17946 0.0
C2497 C 0.71782 0.19526 0.18059 0.0
C2498 C 0.73961 0.20592 0.16711 0.0
C2499 C 0.75115 0.18656 0.15229 0.0
H2500 H 0.70896 0.21016 0.19211 0.0
H2501 H 0.79342 0.02521 0.03917 0.0
H2502 H 0.52111 0.01385 0.34658 0.0
H2503 H 0.5755 0.02428 0.34851 0.0
H2504 H 0.5886 0.9435 0.38425 0.0
H2505 H 0.53401 0.93269 0.38218 0.0
H2506 H 0.61149 0.99806 0.40169 0.0
H2507 H 0.62011 0.94294 0.34068 0.0
H2508 H 0.60642 0.92782 0.30622 0.0
H2509 H 0.62499 0.01831 0.28534 0.0
H2510 H 0.63836 0.03413 0.31972 0.0
H2511 H 0.76149 0.06129 0.40732 0.0
H2512 H 0.72225 0.02231 0.40247 0.0
H2513 H 0.68332 0.07561 0.35448 0.0
H2514 H 0.72256 0.11357 0.35869 0.0
H2515 H 0.68036 0.01924 0.3446 0.0
H2516 H 0.65838 0.07683 0.40576 0.0
H2517 H 0.66683 0.0945 0.44048 0.0
H2518 H 0.66989 1.00191 0.46098 0.0
H2519 H 0.66194 0.9837 0.42634 0.0
C2520 C 0.53568 0.99792 0.35445 0.0
C2521 C 0.52335 0.97243 0.36416 0.0
C2522 C 0.56675 0.00385 0.35551 0.0
C2523 C 0.58607 0.98462 0.36649 0.0
C2524 C 0.57405 0.95854 0.37565 0.0
C2525 C 0.54294 0.9523 0.37432 0.0
C2526 C 0.61806 0.99376 0.36982 0.0
C2527 C 0.62698 1.00192 0.3893 0.0
C2528 C 0.63796 0.99917 0.35361 0.0
C2529 C 0.63015 0.98975 0.33283 0.0
C2530 C 0.6211 0.95968 0.32877 0.0
C2531 C 0.61342 0.95098 0.30924 0.0
C2532 C 0.61481 0.9721 0.29361 0.0
C2533 C 0.62394 1.00197 0.29747 0.0
C2534 C 0.63163 0.0108 0.31697 0.0
C2535 C 0.74485 0.06435 0.39552 0.0
C2536 C 0.74503 0.09074 0.38355 0.0
C2537 C 0.7223 0.04217 0.39285 0.0
C2538 C 0.69946 0.04618 0.37829 0.0
C2539 C 0.70058 0.07185 0.36581 0.0
C2540 C 0.72306 0.09374 0.36834 0.0
C2541 C 0.67323 0.02505 0.37637 0.0
C2542 C 0.66537 0.01454 0.35712 0.0
C2543 C 0.65408 0.01789 0.39278 0.0
C2544 C 0.66003 0.02891 0.41343 0.0
C2545 C 0.66125 0.06025 0.41764 0.0
C2546 C 0.66587 0.07036 0.43731 0.0
C2547 C 0.6689 0.04933 0.45291 0.0
C2548 C 0.6676 0.01816 0.44887 0.0
C2549 C 0.6631 0.00794 0.42923 0.0
H2550 H 0.67204 0.05716 0.46816 0.0
H2551 H 0.60885 0.96532 0.2785 0.0
H2552 H 0.16974 0.221 0.38763 0.0
H2553 H 0.18343 0.16687 0.38681 0.0
H2554 H 0.26947 0.18765 0.41454 0.0
H2555 H 0.25591 0.24139 0.41546 0.0
H2556 H 0.22985 0.14772 0.3644 0.0
H2557 H 0.29864 0.127 0.43807 0.0
H2558 H 0.29443 0.13938 0.47404 0.0
H2559 H 0.19777 0.14847 0.46809 0.0
H2560 H 0.2013 0.1357 0.43216 0.0
H2561 H 0.363 0.06228 0.35367 0.0
H2562 H 0.32233 0.09838 0.36078 0.0
H2563 H 0.27541 0.03008 0.39524 0.0
H2564 H 0.31627 0.99345 0.38803 0.0
H2565 H 0.28073 0.08372 0.41573 0.0
H2566 H 0.24252 0.05396 0.35179 0.0
H2567 H 0.24089 0.04271 0.31558 0.0
H2568 H 0.27166 0.13318 0.30239 0.0
H2569 H 0.27339 0.145 0.33853 0.0
C2570 C 0.19108 0.21384 0.3942 0.0
C2571 C 0.21191 0.23546 0.40141 0.0
C2572 C 0.19895 0.18292 0.39363 0.0
C2573 C 0.22751 0.17315 0.40058 0.0
C2574 C 0.24717 0.19447 0.40931 0.0
C2575 C 0.23946 0.22528 0.40973 0.0
C2576 C 0.23905 0.14213 0.39591 0.0
C2577 C 0.24061 0.13351 0.37567 0.0
C2578 C 0.25264 0.12329 0.41063 0.0
C2579 C 0.25028 0.13049 0.43235 0.0
C2580 C 0.27645 0.13141 0.44445 0.0
C2581 C 0.27419 0.13856 0.46484 0.0
C2582 C 0.24586 0.14476 0.47334 0.0
C2583 C 0.21972 0.14375 0.46148 0.0
C2584 C 0.22184 0.13659 0.44109 0.0
C2585 C 0.34392 0.05476 0.36262 0.0
C2586 C 0.34295 0.02501 0.37037 0.0
C2587 C 0.32052 0.0754 0.36653 0.0
C2588 C 0.29565 0.0669 0.37839 0.0
C2589 C 0.2943 0.03706 0.38595 0.0
C2590 C 0.31761 0.01617 0.38179 0.0
C2591 C 0.27271 0.09021 0.38413 0.0
C2592 C 0.26928 0.09751 0.40453 0.0
C2593 C 0.25728 0.10787 0.36957 0.0
C2594 C 0.2582 0.10029 0.34788 0.0
C2595 C 0.2493 0.07133 0.34118 0.0
C2596 C 0.24823 0.06491 0.32064 0.0
C2597 C 0.2562 0.08721 0.30667 0.0
C2598 C 0.26547 0.11593 0.31321 0.0
C2599 C 0.26639 0.12253 0.33371 0.0
H2600 H 0.25518 0.08227 0.29077 0.0
H2601 H 0.24417 0.15032 0.48912 0.0
H2602 H 0.02883 0.94408 0.11649 0.0
H2603 H 0.08191 0.9598 0.11546 0.0
H2604 H 0.06666 0.02006 0.16553 0.0
H2605 H 0.01342 0.00436 0.16681 0.0
H2606 H 0.09929 0.02035 0.10836 0.0
H2607 H 0.13462 0.02434 0.19193 0.0
H2608 H 0.12452 0.99647 0.22334 0.0
H2609 H 0.10382 0.9158 0.18966 0.0
H2610 H 0.11424 0.94302 0.15808 0.0
H2611 H 0.22491 0.11441 0.15393 0.0
H2612 H 0.18353 0.07846 0.15887 0.0
H2613 H 0.21057 0.02987 0.10552 0.0
H2614 H 0.252 0.06614 0.10029 0.0
H2615 H 0.17518 0.01743 0.16336 0.0
H2616 H 0.14682 0.0141 0.07926 0.0
H2617 H 0.15441 0.04493 0.04869 0.0
H2618 H 0.15842 0.1262 0.08438 0.0
H2619 H 0.15052 0.09591 0.11509 0.0
C2620 C 0.0368 0.9603 0.12753 0.0
C2621 C 0.01675 0.97313 0.14167 0.0
C2622 C 0.06714 0.96936 0.12683 0.0
C2623 C 0.07816 0.99116 0.14033 0.0
C2624 C 0.05863 0.00302 0.15504 0.0
C2625 C 0.02819 0.9941 0.15571 0.0
C2626 C 0.10925 0.00346 0.13798 0.0
C2627 C 0.11623 0.01884 0.12013 0.0
C2628 C 0.13085 1.00257 0.15368 0.0
C2629 C 0.12497 0.98584 0.17262 0.0
C2630 C 0.12806 1.00061 0.19123 0.0
C2631 C 0.12225 0.98493 0.20906 0.0
C2632 C 0.11345 0.95441 0.20849 0.0
C2633 C 0.11053 0.93947 0.19008 0.0
C2634 C 0.11634 0.95504 0.17221 0.0
C2635 C 0.2224 0.09579 0.1434 0.0
C2636 C 0.24142 0.09342 0.12652 0.0
C2637 C 0.19884 0.07512 0.14634 0.0
C2638 C 0.19371 0.05177 0.13242 0.0
C2639 C 0.21397 0.04798 0.11632 0.0
C2640 C 0.23768 0.06865 0.11339 0.0
C2641 C 0.16527 0.03387 0.13362 0.0
C2642 C 0.15861 0.01788 0.15132 0.0
C2643 C 0.14377 0.03432 0.11784 0.0
C2644 C 0.14837 0.05271 0.09945 0.0
C2645 C 0.14931 0.03855 0.08055 0.0
C2646 C 0.15366 0.05592 0.06321 0.0
C2647 C 0.1569 0.08749 0.06461 0.0
C2648 C 0.15592 0.10175 0.08333 0.0
C2649 C 0.15154 0.08449 0.1007 0.0
H2650 H 0.16 0.10097 0.05119 0.0
H2651 H 0.10894 0.94232 0.22231 0.0
H2652 H 0.13808 0.97298 0.90182 0.0
H2653 H 0.17465 0.93198 0.90702 0.0
H2654 H 0.22279 0.95918 0.85365 0.0
H2655 H 0.18603 1.0004 0.84827 0.0
H2656 H 0.20811 0.89952 0.85319 0.0
H2657 H 0.25572 0.96695 0.89935 0.0
H2658 H 0.25851 0.00319 0.92753 0.0
H2659 H 0.22655 0.93427 0.96792 0.0
H2660 H 0.22309 0.89771 0.93992 0.0
H2661 H 0.31497 0.78118 0.86555 0.0
H2662 H 0.29575 0.83333 0.86433 0.0
H2663 H 0.23686 0.81469 0.91445 0.0
H2664 H 0.25583 0.76228 0.91576 0.0
H2665 H 0.263 0.87335 0.91594 0.0
H2666 H 0.20807 0.80943 0.87007 0.0
H2667 H 0.20047 0.77363 0.84201 0.0
H2668 H 0.24345 0.83639 0.80173 0.0
H2669 H 0.25144 0.87245 0.82953 0.0
C2670 C 0.15674 0.97059 0.89135 0.0
C2671 C 0.15907 0.98983 0.87456 0.0
C2672 C 0.17777 0.94725 0.89444 0.0
C2673 C 0.20159 0.94262 0.88081 0.0
C2674 C 0.20465 0.96247 0.86441 0.0
C2675 C 0.18371 0.98606 0.86139 0.0
C2676 C 0.22107 0.91514 0.8826 0.0
C2677 C 0.22079 0.8942 0.86672 0.0
C2678 C 0.23675 0.90775 0.90053 0.0
C2679 C 0.23895 0.92962 0.91747 0.0
C2680 C 0.24906 0.95956 0.91421 0.0
C2681 C 0.2508 0.98016 0.93016 0.0
C2682 C 0.24267 0.97106 0.9495 0.0
C2683 C 0.23284 0.9413 0.95293 0.0
C2684 C 0.23102 0.92061 0.93702 0.0
C2685 C 0.29834 0.78824 0.87659 0.0
C2686 C 0.28672 0.7674 0.89064 0.0
C2687 C 0.28733 0.81808 0.87581 0.0
C2688 C 0.26465 0.82775 0.88915 0.0
C2689 C 0.25435 0.80764 0.90401 0.0
C2690 C 0.26515 0.77768 0.90468 0.0
C2691 C 0.24989 0.85789 0.88654 0.0
C2692 C 0.25088 0.87911 0.90228 0.0
C2693 C 0.2346 0.86556 0.86855 0.0
C2694 C 0.2307 0.84347 0.85193 0.0
C2695 C 0.21623 0.81543 0.85526 0.0
C2696 C 0.21169 0.79515 0.83938 0.0
C2697 C 0.22131 0.80278 0.82007 0.0
C2698 C 0.23579 0.83056 0.81664 0.0
C2699 C 0.24036 0.85092 0.83246 0.0
H2700 H 0.21734 0.78725 0.80778 0.0
H2701 H 0.24403 0.98704 0.96183 0.0
H2702 H 0.23279 0.94865 0.61828 0.0
H2703 H 0.27047 0.98966 0.62229 0.0
H2704 H 0.34282 0.92436 0.61497 0.0
H2705 H 0.30559 0.88344 0.61174 0.0
H2706 H 0.32035 0.98566 0.65425 0.0
H2707 H 0.39421 0.96638 0.58286 0.0
H2708 H 0.38866 0.95821 0.54645 0.0
H2709 H 0.2984 0.99514 0.54847 0.0
H2710 H 0.30356 0.00401 0.58484 0.0
H2711 H 0.47857 1.00099 0.66246 0.0
H2712 H 0.42467 0.9896 0.65884 0.0
H2713 H 0.41323 0.06884 0.62139 0.0
H2714 H 0.46742 0.08041 0.62495 0.0
H2715 H 0.3956 0.0163 0.60281 0.0
H2716 H 0.37419 0.06601 0.66411 0.0
H2717 H 0.38091 0.07998 0.69966 0.0
H2718 H 0.36542 0.98728 0.71715 0.0
H2719 H 0.35886 0.97265 0.6817 0.0
C2720 C 0.25676 0.94322 0.61743 0.0
C2721 C 0.26636 0.91291 0.61497 0.0
C2722 C 0.27817 0.96657 0.61967 0.0
C2723 C 0.30936 0.95999 0.61877 0.0
C2724 C 0.31886 0.92991 0.61557 0.0
C2725 C 0.29759 0.90655 0.61389 0.0
C2726 C 0.33247 0.98355 0.623 0.0
C2727 C 0.33661 0.99277 0.64299 0.0
C2728 C 0.35334 0.99312 0.60821 0.0
C2729 C 0.34922 0.9857 0.58664 0.0
C2730 C 0.37312 0.97267 0.57557 0.0
C2731 C 0.37013 0.9681 0.5549 0.0
C2732 C 0.34329 0.97636 0.54512 0.0
C2733 C 0.31924 0.98889 0.55605 0.0
C2734 C 0.32214 0.99357 0.57671 0.0
C2735 C 0.4644 0.01653 0.65396 0.0
C2736 C 0.47724 0.04147 0.64391 0.0
C2737 C 0.43355 0.01006 0.65196 0.0
C2738 C 0.41493 0.02833 0.63979 0.0
C2739 C 0.42724 0.05446 0.63084 0.0
C2740 C 0.45814 0.06116 0.63301 0.0
C2741 C 0.38425 0.0173 0.63421 0.0
C2742 C 0.37891 0.01 0.61402 0.0
C2743 C 0.36229 0.00958 0.6488 0.0
C2744 C 0.36612 0.01822 0.6702 0.0
C2745 C 0.3724 0.04855 0.67552 0.0
C2746 C 0.37616 0.05659 0.69566 0.0
C2747 C 0.37368 0.03452 0.71065 0.0
C2748 C 0.36733 0.00436 0.70552 0.0
C2749 C 0.3635 0.99619 0.6854 0.0
H2750 H 0.37662 0.0408 0.72623 0.0
H2751 H 0.341 0.97277 0.52913 0.0
loop_
_geom_bond_atom_site_label_1
_geom_bond_atom_site_label_2
_geom_bond_distance
_geom_bond_site_symmetry_2
_ccdc_geom_bond_type
Fe0 O2 1.918 . S
Fe0 O5 1.997 . S
Fe0 O6 2.002 . S
Fe0 O11 1.976 . S
Fe0 O14 1.996 . S
Fe1 O2 1.918 . S
Fe1 O9 1.997 . S
Fe1 O12 1.996 . S
Fe1 O16 1.976 . S
Fe1 O19 2.002 . S
O2 Fe0 1.918 . S
O2 Fe1 1.918 . S
O2 Fe3 1.918 . S
Fe3 O2 1.918 . S
Fe3 O4 2.002 . S
Fe3 O13 1.976 . S
Fe3 O17 1.996 . S
Fe3 O20 1.997 . S
O4 Fe3 2.002 . S
O4 C21 1.295 . S
O5 Fe0 1.997 . S
O5 C21 1.235 . S
O6 Fe0 2.002 . S
O6 C7 1.295 . S
C7 O6 1.295 . S
C7 O9 1.235 . S
C8 O13 1.287 . S
C8 O14 1.255 . S
O9 Fe1 1.997 . S
O9 C7 1.235 . S
C10 O16 1.287 . S
C10 O17 1.255 . S
O11 Fe0 1.976 . S
O11 C18 1.287 . S
O12 Fe1 1.996 . S
O12 C18 1.255 . S
O13 Fe3 1.976 . S
O13 C8 1.287 . S
O14 Fe0 1.996 . S
O14 C8 1.255 . S
C15 O19 1.295 . S
C15 O20 1.235 . S
O16 Fe1 1.976 . S
O16 C10 1.287 . S
O17 Fe3 1.996 . S
O17 C10 1.255 . S
C18 O11 1.287 . S
C18 O12 1.255 . S
O19 Fe1 2.002 . S
O19 C15 1.295 . S
O20 Fe3 1.997 . S
O20 C15 1.235 . S
C21 O4 1.295 . S
C21 O5 1.235 . S
Fe22 O24 1.918 . S
Fe22 O27 1.997 . S
Fe22 O28 2.002 . S
Fe22 O33 1.976 . S
Fe22 O36 1.996 . S
Fe23 O24 1.918 . S
Fe23 O31 1.997 . S
Fe23 O34 1.996 . S
Fe23 O38 1.976 . S
Fe23 O41 2.002 . S
O24 Fe22 1.918 . S
O24 Fe23 1.918 . S
O24 Fe25 1.918 . S
Fe25 O24 1.918 . S
Fe25 O26 2.002 . S
Fe25 O35 1.976 . S
Fe25 O39 1.996 . S
Fe25 O42 1.997 . S
O26 Fe25 2.002 . S
O26 C43 1.295 . S
O27 Fe22 1.997 . S
O27 C43 1.235 . S
O28 Fe22 2.002 . S
O28 C29 1.295 . S
C29 O28 1.295 . S
C29 O31 1.235 . S
C30 O35 1.287 . S
C30 O36 1.255 . S
O31 Fe23 1.997 . S
O31 C29 1.235 . S
C32 O38 1.287 . S
C32 O39 1.255 . S
O33 Fe22 1.976 . S
O33 C40 1.287 . S
O34 Fe23 1.996 . S
O34 C40 1.255 . S
O35 Fe25 1.976 . S
O35 C30 1.287 . S
O36 Fe22 1.996 . S
O36 C30 1.255 . S
C37 O41 1.295 . S
C37 O42 1.235 . S
O38 Fe23 1.976 . S
O38 C32 1.287 . S
O39 Fe25 1.996 . S
O39 C32 1.255 . S
C40 O33 1.287 . S
C40 O34 1.255 . S
O41 Fe23 2.002 . S
O41 C37 1.295 . S
O42 Fe25 1.997 . S
O42 C37 1.235 . S
C43 O26 1.295 . S
C43 O27 1.235 . S
Fe44 O46 1.918 . S
Fe44 O49 1.997 . S
Fe44 O50 2.002 . S
Fe44 O55 1.976 . S
Fe44 O58 1.996 . S
Fe45 O46 1.918 . S
Fe45 O53 1.997 . S
Fe45 O56 1.996 . S
Fe45 O60 1.976 . S
Fe45 O63 2.002 . S
O46 Fe44 1.918 . S
O46 Fe45 1.918 . S
O46 Fe47 1.918 . S
Fe47 O46 1.918 . S
Fe47 O48 2.002 . S
Fe47 O57 1.976 . S
Fe47 O61 1.996 . S
Fe47 O64 1.997 . S
O48 Fe47 2.002 . S
O48 C65 1.295 . S
O49 Fe44 1.997 . S
O49 C65 1.235 . S
O50 Fe44 2.002 . S
O50 C51 1.295 . S
C51 O50 1.295 . S
C51 O53 1.235 . S
C52 O57 1.287 . S
C52 O58 1.255 . S
O53 Fe45 1.997 . S
O53 C51 1.235 . S
C54 O60 1.287 . S
C54 O61 1.255 . S
O55 Fe44 1.976 . S
O55 C62 1.287 . S
O56 Fe45 1.996 . S
O56 C62 1.255 . S
O57 Fe47 1.976 . S
O57 C52 1.287 . S
O58 Fe44 1.996 . S
O58 C52 1.255 . S
C59 O63 1.295 . S
C59 O64 1.235 . S
O60 Fe45 1.976 . S
O60 C54 1.287 . S
O61 Fe47 1.996 . S
O61 C54 1.255 . S
C62 O55 1.287 . S
C62 O56 1.255 . S
O63 Fe45 2.002 . S
O63 C59 1.295 . S
O64 Fe47 1.997 . S
O64 C59 1.235 . S
C65 O48 1.295 . S
C65 O49 1.235 . S
Fe66 O68 1.918 . S
Fe66 O71 1.997 . S
Fe66 O72 2.002 . S
Fe66 O77 1.976 . S
Fe66 O80 1.996 . S
Fe67 O68 1.918 . S
Fe67 O75 1.997 . S
Fe67 O78 1.996 . S
Fe67 O82 1.976 . S
Fe67 O85 2.002 . S
O68 Fe66 1.918 . S
O68 Fe67 1.918 . S
O68 Fe69 1.918 . S
Fe69 O68 1.918 . S
Fe69 O70 2.002 . S
Fe69 O79 1.976 . S
Fe69 O83 1.996 . S
Fe69 O86 1.997 . S
O70 Fe69 2.002 . S
O70 C87 1.295 . S
O71 Fe66 1.997 . S
O71 C87 1.235 . S
O72 Fe66 2.002 . S
O72 C73 1.295 . S
C73 O72 1.295 . S
C73 O75 1.235 . S
C74 O79 1.287 . S
C74 O80 1.255 . S
O75 Fe67 1.997 . S
O75 C73 1.235 . S
C76 O82 1.287 . S
C76 O83 1.255 . S
O77 Fe66 1.976 . S
O77 C84 1.287 . S
O78 Fe67 1.996 . S
O78 C84 1.255 . S
O79 Fe69 1.976 . S
O79 C74 1.287 . S
O80 Fe66 1.996 . S
O80 C74 1.255 . S
C81 O85 1.295 . S
C81 O86 1.235 . S
O82 Fe67 1.976 . S
O82 C76 1.287 . S
O83 Fe69 1.996 . S
O83 C76 1.255 . S
C84 O77 1.287 . S
C84 O78 1.255 . S
O85 Fe67 2.002 . S
O85 C81 1.295 . S
O86 Fe69 1.997 . S
O86 C81 1.235 . S
C87 O70 1.295 . S
C87 O71 1.235 . S
Fe88 O90 1.918 . S
Fe88 O93 1.997 . S
Fe88 O94 2.002 . S
Fe88 O99 1.976 . S
Fe88 O102 1.996 . S
Fe89 O90 1.918 . S
Fe89 O97 1.997 . S
Fe89 O100 1.996 . S
Fe89 O104 1.976 . S
Fe89 O107 2.002 . S
O90 Fe88 1.918 . S
O90 Fe89 1.918 . S
O90 Fe91 1.918 . S
Fe91 O90 1.918 . S
Fe91 O92 2.002 . S
Fe91 O101 1.976 . S
Fe91 O105 1.996 . S
Fe91 O108 1.997 . S
O92 Fe91 2.002 . S
O92 C109 1.295 . S
O93 Fe88 1.997 . S
O93 C109 1.235 . S
O94 Fe88 2.002 . S
O94 C95 1.295 . S
C95 O94 1.295 . S
C95 O97 1.235 . S
C96 O101 1.287 . S
C96 O102 1.255 . S
O97 Fe89 1.997 . S
O97 C95 1.235 . S
C98 O104 1.287 . S
C98 O105 1.255 . S
O99 Fe88 1.976 . S
O99 C106 1.287 . S
O100 Fe89 1.996 . S
O100 C106 1.255 . S
O101 Fe91 1.976 . S
O101 C96 1.287 . S
O102 Fe88 1.996 . S
O102 C96 1.255 . S
C103 O107 1.295 . S
C103 O108 1.235 . S
O104 Fe89 1.976 . S
O104 C98 1.287 . S
O105 Fe91 1.996 . S
O105 C98 1.255 . S
C106 O99 1.287 . S
C106 O100 1.255 . S
O107 Fe89 2.002 . S
O107 C103 1.295 . S
O108 Fe91 1.997 . S
O108 C103 1.235 . S
C109 O92 1.295 . S
C109 O93 1.235 . S
Fe110 O112 1.918 . S
Fe110 O115 1.997 . S
Fe110 O116 2.002 . S
Fe110 O121 1.976 . S
Fe110 O124 1.996 . S
Fe111 O112 1.918 . S
Fe111 O119 1.997 . S
Fe111 O122 1.996 . S
Fe111 O126 1.976 . S
Fe111 O129 2.002 . S
O112 Fe110 1.918 . S
O112 Fe111 1.918 . S
O112 Fe113 1.918 . S
Fe113 O112 1.918 . S
Fe113 O114 2.002 . S
Fe113 O123 1.976 . S
Fe113 O127 1.996 . S
Fe113 O130 1.997 . S
O114 Fe113 2.002 . S
O114 C131 1.295 . S
O115 Fe110 1.997 . S
O115 C131 1.235 . S
O116 Fe110 2.002 . S
O116 C117 1.295 . S
C117 O116 1.295 . S
C117 O119 1.235 . S
C118 O123 1.287 . S
C118 O124 1.255 . S
O119 Fe111 1.997 . S
O119 C117 1.235 . S
C120 O126 1.287 . S
C120 O127 1.255 . S
O121 Fe110 1.976 . S
O121 C128 1.287 . S
O122 Fe111 1.996 . S
O122 C128 1.255 . S
O123 Fe113 1.976 . S
O123 C118 1.287 . S
O124 Fe110 1.996 . S
O124 C118 1.255 . S
C125 O129 1.295 . S
C125 O130 1.235 . S
O126 Fe111 1.976 . S
O126 C120 1.287 . S
O127 Fe113 1.996 . S
O127 C120 1.255 . S
C128 O121 1.287 . S
C128 O122 1.255 . S
O129 Fe111 2.002 . S
O129 C125 1.295 . S
O130 Fe113 1.997 . S
O130 C125 1.235 . S
C131 O114 1.295 . S
C131 O115 1.235 . S
Fe132 O134 1.918 . S
Fe132 O137 1.997 . S
Fe132 O138 2.002 . S
Fe132 O143 1.976 . S
Fe132 O146 1.996 . S
Fe133 O134 1.918 . S
Fe133 O141 1.997 . S
Fe133 O144 1.996 . S
Fe133 O148 1.976 . S
Fe133 O151 2.002 . S
O134 Fe132 1.918 . S
O134 Fe133 1.918 . S
O134 Fe135 1.918 . S
Fe135 O134 1.918 . S
Fe135 O136 2.002 . S
Fe135 O145 1.976 . S
Fe135 O149 1.996 . S
Fe135 O152 1.997 . S
O136 Fe135 2.002 . S
O136 C153 1.295 . S
O137 Fe132 1.997 . S
O137 C153 1.235 . S
O138 Fe132 2.002 . S
O138 C139 1.295 . S
C139 O138 1.295 . S
C139 O141 1.235 . S
C140 O145 1.287 . S
C140 O146 1.255 . S
O141 Fe133 1.997 . S
O141 C139 1.235 . S
C142 O148 1.287 . S
C142 O149 1.255 . S
O143 Fe132 1.976 . S
O143 C150 1.287 . S
O144 Fe133 1.996 . S
O144 C150 1.255 . S
O145 Fe135 1.976 . S
O145 C140 1.287 . S
O146 Fe132 1.996 . S
O146 C140 1.255 . S
C147 O151 1.295 . S
C147 O152 1.235 . S
O148 Fe133 1.976 . S
O148 C142 1.287 . S
O149 Fe135 1.996 . S
O149 C142 1.255 . S
C150 O143 1.287 . S
C150 O144 1.255 . S
O151 Fe133 2.002 . S
O151 C147 1.295 . S
O152 Fe135 1.997 . S
O152 C147 1.235 . S
C153 O136 1.295 . S
C153 O137 1.235 . S
Fe154 O156 1.918 . S
Fe154 O159 1.997 . S
Fe154 O160 2.002 . S
Fe154 O165 1.976 . S
Fe154 O168 1.996 . S
Fe155 O156 1.918 . S
Fe155 O163 1.997 . S
Fe155 O166 1.996 . S
Fe155 O170 1.976 . S
Fe155 O173 2.002 . S
O156 Fe154 1.918 . S
O156 Fe155 1.918 . S
O156 Fe157 1.918 . S
Fe157 O156 1.918 . S
Fe157 O158 2.002 . S
Fe157 O167 1.976 . S
Fe157 O171 1.996 . S
Fe157 O174 1.997 . S
O158 Fe157 2.002 . S
O158 C175 1.295 . S
O159 Fe154 1.997 . S
O159 C175 1.235 . S
O160 Fe154 2.002 . S
O160 C161 1.295 . S
C161 O160 1.295 . S
C161 O163 1.235 . S
C162 O167 1.287 . S
C162 O168 1.255 . S
O163 Fe155 1.997 . S
O163 C161 1.235 . S
C164 O170 1.287 . S
C164 O171 1.255 . S
O165 Fe154 1.976 . S
O165 C172 1.287 . S
O166 Fe155 1.996 . S
O166 C172 1.255 . S
O167 Fe157 1.976 . S
O167 C162 1.287 . S
O168 Fe154 1.996 . S
O168 C162 1.255 . S
C169 O173 1.295 . S
C169 O174 1.235 . S
O170 Fe155 1.976 . S
O170 C164 1.287 . S
O171 Fe157 1.996 . S
O171 C164 1.255 . S
C172 O165 1.287 . S
C172 O166 1.255 . S
O173 Fe155 2.002 . S
O173 C169 1.295 . S
O174 Fe157 1.997 . S
O174 C169 1.235 . S
C175 O158 1.295 . S
C175 O159 1.235 . S
Fe176 O178 1.918 . S
Fe176 O181 1.997 . S
Fe176 O182 2.002 . S
Fe176 O187 1.976 . S
Fe176 O190 1.996 . S
Fe177 O178 1.918 . S
Fe177 O185 1.997 . S
Fe177 O188 1.996 . S
Fe177 O192 1.976 . S
Fe177 O195 2.002 . S
O178 Fe176 1.918 . S
O178 Fe177 1.918 . S
O178 Fe179 1.918 . S
Fe179 O178 1.918 . S
Fe179 O180 2.002 . S
Fe179 O189 1.976 . S
Fe179 O193 1.996 . S
Fe179 O196 1.997 . S
O180 Fe179 2.002 . S
O180 C197 1.295 . S
O181 Fe176 1.997 . S
O181 C197 1.235 . S
O182 Fe176 2.002 . S
O182 C183 1.295 . S
C183 O182 1.295 . S
C183 O185 1.235 . S
C184 O189 1.287 . S
C184 O190 1.255 . S
O185 Fe177 1.997 . S
O185 C183 1.235 . S
C186 O192 1.287 . S
C186 O193 1.255 . S
O187 Fe176 1.976 . S
O187 C194 1.287 . S
O188 Fe177 1.996 . S
O188 C194 1.255 . S
O189 Fe179 1.976 . S
O189 C184 1.287 . S
O190 Fe176 1.996 . S
O190 C184 1.255 . S
C191 O195 1.295 . S
C191 O196 1.235 . S
O192 Fe177 1.976 . S
O192 C186 1.287 . S
O193 Fe179 1.996 . S
O193 C186 1.255 . S
C194 O187 1.287 . S
C194 O188 1.255 . S
O195 Fe177 2.002 . S
O195 C191 1.295 . S
O196 Fe179 1.997 . S
O196 C191 1.235 . S
C197 O180 1.295 . S
C197 O181 1.235 . S
Fe198 O200 1.918 . S
Fe198 O203 1.997 . S
Fe198 O204 2.002 . S
Fe198 O209 1.976 . S
Fe198 O212 1.996 . S
Fe199 O200 1.918 . S
Fe199 O207 1.997 . S
Fe199 O210 1.996 . S
Fe199 O214 1.976 . S
Fe199 O217 2.002 . S
O200 Fe198 1.918 . S
O200 Fe199 1.918 . S
O200 Fe201 1.918 . S
Fe201 O200 1.918 . S
Fe201 O202 2.002 . S
Fe201 O211 1.976 . S
Fe201 O215 1.996 . S
Fe201 O218 1.997 . S
O202 Fe201 2.002 . S
O202 C219 1.295 . S
O203 Fe198 1.997 . S
O203 C219 1.235 . S
O204 Fe198 2.002 . S
O204 C205 1.295 . S
C205 O204 1.295 . S
C205 O207 1.235 . S
C206 O211 1.287 . S
C206 O212 1.255 . S
O207 Fe199 1.997 . S
O207 C205 1.235 . S
C208 O214 1.287 . S
C208 O215 1.255 . S
O209 Fe198 1.976 . S
O209 C216 1.287 . S
O210 Fe199 1.996 . S
O210 C216 1.255 . S
O211 Fe201 1.976 . S
O211 C206 1.287 . S
O212 Fe198 1.996 . S
O212 C206 1.255 . S
C213 O217 1.295 . S
C213 O218 1.235 . S
O214 Fe199 1.976 . S
O214 C208 1.287 . S
O215 Fe201 1.996 . S
O215 C208 1.255 . S
C216 O209 1.287 . S
C216 O210 1.255 . S
O217 Fe199 2.002 . S
O217 C213 1.295 . S
O218 Fe201 1.997 . S
O218 C213 1.235 . S
C219 O202 1.295 . S
C219 O203 1.235 . S
Fe220 O222 1.918 . S
Fe220 O225 1.997 . S
Fe220 O226 2.002 . S
Fe220 O231 1.976 . S
Fe220 O234 1.996 . S
Fe221 O222 1.918 . S
Fe221 O229 1.997 . S
Fe221 O232 1.996 . S
Fe221 O236 1.976 . S
Fe221 O239 2.002 . S
O222 Fe220 1.918 . S
O222 Fe221 1.918 . S
O222 Fe223 1.918 . S
Fe223 O222 1.918 . S
Fe223 O224 2.002 . S
Fe223 O233 1.976 . S
Fe223 O237 1.996 . S
Fe223 O240 1.997 . S
O224 Fe223 2.002 . S
O224 C241 1.295 . S
O225 Fe220 1.997 . S
O225 C241 1.235 . S
O226 Fe220 2.002 . S
O226 C227 1.295 . S
C227 O226 1.295 . S
C227 O229 1.235 . S
C228 O233 1.287 . S
C228 O234 1.255 . S
O229 Fe221 1.997 . S
O229 C227 1.235 . S
C230 O236 1.287 . S
C230 O237 1.255 . S
O231 Fe220 1.976 . S
O231 C238 1.287 . S
O232 Fe221 1.996 . S
O232 C238 1.255 . S
O233 Fe223 1.976 . S
O233 C228 1.287 . S
O234 Fe220 1.996 . S
O234 C228 1.255 . S
C235 O239 1.295 . S
C235 O240 1.235 . S
O236 Fe221 1.976 . S
O236 C230 1.287 . S
O237 Fe223 1.996 . S
O237 C230 1.255 . S
C238 O231 1.287 . S
C238 O232 1.255 . S
O239 Fe221 2.002 . S
O239 C235 1.295 . S
O240 Fe223 1.997 . S
O240 C235 1.235 . S
C241 O224 1.295 . S
C241 O225 1.235 . S
Fe242 O244 1.918 . S
Fe242 O247 1.997 . S
Fe242 O248 2.002 . S
Fe242 O253 1.976 . S
Fe242 O256 1.996 . S
Fe243 O244 1.918 . S
Fe243 O251 1.997 . S
Fe243 O254 1.996 . S
Fe243 O258 1.976 . S
Fe243 O261 2.002 . S
O244 Fe242 1.918 . S
O244 Fe243 1.918 . S
O244 Fe245 1.918 . S
Fe245 O244 1.918 . S
Fe245 O246 2.002 . S
Fe245 O255 1.976 . S
Fe245 O259 1.996 . S
Fe245 O262 1.997 . S
O246 Fe245 2.002 . S
O246 C263 1.295 . S
O247 Fe242 1.997 . S
O247 C263 1.235 . S
O248 Fe242 2.002 . S
O248 C249 1.295 . S
C249 O248 1.295 . S
C249 O251 1.235 . S
C250 O255 1.287 . S
C250 O256 1.255 . S
O251 Fe243 1.997 . S
O251 C249 1.235 . S
C252 O258 1.287 . S
C252 O259 1.255 . S
O253 Fe242 1.976 . S
O253 C260 1.287 . S
O254 Fe243 1.996 . S
O254 C260 1.255 . S
O255 Fe245 1.976 . S
O255 C250 1.287 . S
O256 Fe242 1.996 . S
O256 C250 1.255 . S
C257 O261 1.295 . S
C257 O262 1.235 . S
O258 Fe243 1.976 . S
O258 C252 1.287 . S
O259 Fe245 1.996 . S
O259 C252 1.255 . S
C260 O253 1.287 . S
C260 O254 1.255 . S
O261 Fe243 2.002 . S
O261 C257 1.295 . S
O262 Fe245 1.997 . S
O262 C257 1.235 . S
C263 O246 1.295 . S
C263 O247 1.235 . S
Fe264 O266 1.918 . S
Fe264 O269 1.997 . S
Fe264 O270 2.002 . S
Fe264 O275 1.976 . S
Fe264 O278 1.996 . S
Fe265 O266 1.918 . S
Fe265 O273 1.997 . S
Fe265 O276 1.996 . S
Fe265 O280 1.976 . S
Fe265 O283 2.002 . S
O266 Fe264 1.918 . S
O266 Fe265 1.918 . S
O266 Fe267 1.918 . S
Fe267 O266 1.918 . S
Fe267 O268 2.002 . S
Fe267 O277 1.976 . S
Fe267 O281 1.996 . S
Fe267 O284 1.997 . S
O268 Fe267 2.002 . S
O268 C285 1.295 . S
O269 Fe264 1.997 . S
O269 C285 1.235 . S
O270 Fe264 2.002 . S
O270 C271 1.295 . S
C271 O270 1.295 . S
C271 O273 1.235 . S
C272 O277 1.287 . S
C272 O278 1.255 . S
O273 Fe265 1.997 . S
O273 C271 1.235 . S
C274 O280 1.287 . S
C274 O281 1.255 . S
O275 Fe264 1.976 . S
O275 C282 1.287 . S
O276 Fe265 1.996 . S
O276 C282 1.255 . S
O277 Fe267 1.976 . S
O277 C272 1.287 . S
O278 Fe264 1.996 . S
O278 C272 1.255 . S
C279 O283 1.295 . S
C279 O284 1.235 . S
O280 Fe265 1.976 . S
O280 C274 1.287 . S
O281 Fe267 1.996 . S
O281 C274 1.255 . S
C282 O275 1.287 . S
C282 O276 1.255 . S
O283 Fe265 2.002 . S
O283 C279 1.295 . S
O284 Fe267 1.997 . S
O284 C279 1.235 . S
C285 O268 1.295 . S
C285 O269 1.235 . S
Fe286 O288 1.918 . S
Fe286 O291 1.997 . S
Fe286 O292 2.002 . S
Fe286 O297 1.976 . S
Fe286 O300 1.996 . S
Fe287 O288 1.918 . S
Fe287 O295 1.997 . S
Fe287 O298 1.996 . S
Fe287 O302 1.976 . S
Fe287 O305 2.002 . S
O288 Fe286 1.918 . S
O288 Fe287 1.918 . S
O288 Fe289 1.918 . S
Fe289 O288 1.918 . S
Fe289 O290 2.002 . S
Fe289 O299 1.976 . S
Fe289 O303 1.996 . S
Fe289 O306 1.997 . S
O290 Fe289 2.002 . S
O290 C307 1.295 . S
O291 Fe286 1.997 . S
O291 C307 1.235 . S
O292 Fe286 2.002 . S
O292 C293 1.295 . S
C293 O292 1.295 . S
C293 O295 1.235 . S
C294 O299 1.287 . S
C294 O300 1.255 . S
O295 Fe287 1.997 . S
O295 C293 1.235 . S
C296 O302 1.287 . S
C296 O303 1.255 . S
O297 Fe286 1.976 . S
O297 C304 1.287 . S
O298 Fe287 1.996 . S
O298 C304 1.255 . S
O299 Fe289 1.976 . S
O299 C294 1.287 . S
O300 Fe286 1.996 . S
O300 C294 1.255 . S
C301 O305 1.295 . S
C301 O306 1.235 . S
O302 Fe287 1.976 . S
O302 C296 1.287 . S
O303 Fe289 1.996 . S
O303 C296 1.255 . S
C304 O297 1.287 . S
C304 O298 1.255 . S
O305 Fe287 2.002 . S
O305 C301 1.295 . S
O306 Fe289 1.997 . S
O306 C301 1.235 . S
C307 O290 1.295 . S
C307 O291 1.235 . S
Fe308 O310 1.918 . S
Fe308 O313 1.997 . S
Fe308 O314 2.002 . S
Fe308 O319 1.976 . S
Fe308 O322 1.996 . S
Fe309 O310 1.918 . S
Fe309 O317 1.997 . S
Fe309 O320 1.996 . S
Fe309 O324 1.976 . S
Fe309 O327 2.002 . S
O310 Fe308 1.918 . S
O310 Fe309 1.918 . S
O310 Fe311 1.918 . S
Fe311 O310 1.918 . S
Fe311 O312 2.002 . S
Fe311 O321 1.976 . S
Fe311 O325 1.996 . S
Fe311 O328 1.997 . S
O312 Fe311 2.002 . S
O312 C329 1.295 . S
O313 Fe308 1.997 . S
O313 C329 1.235 . S
O314 Fe308 2.002 . S
O314 C315 1.295 . S
C315 O314 1.295 . S
C315 O317 1.235 . S
C316 O321 1.287 . S
C316 O322 1.255 . S
O317 Fe309 1.997 . S
O317 C315 1.235 . S
C318 O324 1.287 . S
C318 O325 1.255 . S
O319 Fe308 1.976 . S
O319 C326 1.287 . S
O320 Fe309 1.996 . S
O320 C326 1.255 . S
O321 Fe311 1.976 . S
O321 C316 1.287 . S
O322 Fe308 1.996 . S
O322 C316 1.255 . S
C323 O327 1.295 . S
C323 O328 1.235 . S
O324 Fe309 1.976 . S
O324 C318 1.287 . S
O325 Fe311 1.996 . S
O325 C318 1.255 . S
C326 O319 1.287 . S
C326 O320 1.255 . S
O327 Fe309 2.002 . S
O327 C323 1.295 . S
O328 Fe311 1.997 . S
O328 C323 1.235 . S
C329 O312 1.295 . S
C329 O313 1.235 . S
Fe330 O332 1.918 . S
Fe330 O335 1.997 . S
Fe330 O336 2.002 . S
Fe330 O341 1.976 . S
Fe330 O344 1.996 . S
Fe331 O332 1.918 . S
Fe331 O339 1.997 . S
Fe331 O342 1.996 . S
Fe331 O346 1.976 . S
Fe331 O349 2.002 . S
O332 Fe330 1.918 . S
O332 Fe331 1.918 . S
O332 Fe333 1.918 . S
Fe333 O332 1.918 . S
Fe333 O334 2.002 . S
Fe333 O343 1.976 . S
Fe333 O347 1.996 . S
Fe333 O350 1.997 . S
O334 Fe333 2.002 . S
O334 C351 1.295 . S
O335 Fe330 1.997 . S
O335 C351 1.235 . S
O336 Fe330 2.002 . S
O336 C337 1.295 . S
C337 O336 1.295 . S
C337 O339 1.235 . S
C338 O343 1.287 . S
C338 O344 1.255 . S
O339 Fe331 1.997 . S
O339 C337 1.235 . S
C340 O346 1.287 . S
C340 O347 1.255 . S
O341 Fe330 1.976 . S
O341 C348 1.287 . S
O342 Fe331 1.996 . S
O342 C348 1.255 . S
O343 Fe333 1.976 . S
O343 C338 1.287 . S
O344 Fe330 1.996 . S
O344 C338 1.255 . S
C345 O349 1.295 . S
C345 O350 1.235 . S
O346 Fe331 1.976 . S
O346 C340 1.287 . S
O347 Fe333 1.996 . S
O347 C340 1.255 . S
C348 O341 1.287 . S
C348 O342 1.255 . S
O349 Fe331 2.002 . S
O349 C345 1.295 . S
O350 Fe333 1.997 . S
O350 C345 1.235 . S
C351 O334 1.295 . S
C351 O335 1.235 . S
H352 C370 0.951 . S
H353 C372 0.951 . S
H354 C374 0.950 . S
H355 C375 0.950 . S
H356 C377 0.950 . S
H357 C380 0.950 . S
H358 C381 0.950 . S
H359 C383 0.950 . S
H360 C384 0.950 . S
H361 C385 0.951 . S
H362 C387 0.951 . S
H363 C389 0.950 . S
H364 C390 0.950 . S
H365 C392 0.950 . S
H366 C395 0.950 . S
H367 C396 0.950 . S
H368 C398 0.950 . S
H369 C399 0.950 . S
C370 H352 0.951 . S
C370 C371 1.366 . S
C370 C372 1.388 . S
C371 C370 1.366 . S
C371 C375 1.385 . S
C372 H353 0.951 . S
C372 C370 1.388 . S
C372 C373 1.366 . S
C373 C372 1.366 . S
C373 C374 1.414 . S
C373 C376 1.499 . S
C374 H354 0.950 . S
C374 C373 1.414 . S
C374 C375 1.374 . S
C375 H355 0.950 . S
C375 C371 1.385 . S
C375 C374 1.374 . S
C376 C373 1.499 . S
C376 C377 1.373 . S
C376 C378 1.389 . S
C377 H356 0.950 . S
C377 C376 1.373 . S
C377 C393 1.377 . S
C378 C376 1.389 . S
C378 C379 1.524 . S
C378 C392 1.377 . S
C379 C378 1.524 . S
C379 C380 1.397 . S
C379 C384 1.363 . S
C380 H357 0.950 . S
C380 C379 1.397 . S
C380 C381 1.334 . S
C381 H358 0.950 . S
C381 C380 1.334 . S
C381 C382 1.287 . S
C382 C381 1.287 . S
C382 C383 1.524 . S
C382 H401 0.913 . S
C383 H359 0.950 . S
C383 C382 1.524 . S
C383 C384 1.415 . S
C384 H360 0.950 . S
C384 C379 1.363 . S
C384 C383 1.415 . S
C385 H361 0.951 . S
C385 C386 1.366 . S
C385 C387 1.388 . S
C386 C385 1.366 . S
C386 C390 1.385 . S
C387 H362 0.951 . S
C387 C385 1.388 . S
C387 C388 1.366 . S
C388 C387 1.366 . S
C388 C389 1.414 . S
C388 C391 1.499 . S
C389 H363 0.950 . S
C389 C388 1.414 . S
C389 C390 1.374 . S
C390 H364 0.950 . S
C390 C386 1.385 . S
C390 C389 1.374 . S
C391 C388 1.499 . S
C391 C392 1.373 . S
C391 C393 1.389 . S
C392 H365 0.950 . S
C392 C378 1.377 . S
C392 C391 1.373 . S
C393 C377 1.377 . S
C393 C391 1.389 . S
C393 C394 1.524 . S
C394 C393 1.524 . S
C394 C395 1.397 . S
C394 C399 1.363 . S
C395 H366 0.950 . S
C395 C394 1.397 . S
C395 C396 1.334 . S
C396 H367 0.950 . S
C396 C395 1.334 . S
C396 C397 1.287 . S
C397 C396 1.287 . S
C397 C398 1.524 . S
C397 H400 0.999 . S
C398 H368 0.950 . S
C398 C397 1.524 . S
C398 C399 1.415 . S
C399 H369 0.950 . S
C399 C394 1.363 . S
C399 C398 1.415 . S
H400 C397 0.999 . S
H401 C382 0.913 . S
H402 C420 0.951 . S
H403 C422 0.951 . S
H404 C424 0.950 . S
H405 C425 0.950 . S
H406 C427 0.950 . S
H407 C430 0.950 . S
H408 C431 0.950 . S
H409 C433 0.950 . S
H410 C434 0.950 . S
H411 C435 0.951 . S
H412 C437 0.951 . S
H413 C439 0.950 . S
H414 C440 0.950 . S
H415 C442 0.950 . S
H416 C445 0.950 . S
H417 C446 0.950 . S
H418 C448 0.950 . S
H419 C449 0.950 . S
C420 H402 0.951 . S
C420 C421 1.366 . S
C420 C422 1.388 . S
C421 C420 1.366 . S
C421 C425 1.385 . S
C422 H403 0.951 . S
C422 C420 1.388 . S
C422 C423 1.366 . S
C423 C422 1.366 . S
C423 C424 1.414 . S
C423 C426 1.499 . S
C424 H404 0.950 . S
C424 C423 1.414 . S
C424 C425 1.374 . S
C425 H405 0.950 . S
C425 C421 1.385 . S
C425 C424 1.374 . S
C426 C423 1.499 . S
C426 C427 1.373 . S
C426 C428 1.389 . S
C427 H406 0.950 . S
C427 C426 1.373 . S
C427 C443 1.377 . S
C428 C426 1.389 . S
C428 C429 1.524 . S
C428 C442 1.377 . S
C429 C428 1.524 . S
C429 C430 1.397 . S
C429 C434 1.363 . S
C430 H407 0.950 . S
C430 C429 1.397 . S
C430 C431 1.334 . S
C431 H408 0.950 . S
C431 C430 1.334 . S
C431 C432 1.287 . S
C432 C431 1.287 . S
C432 C433 1.524 . S
C432 H451 0.913 . S
C433 H409 0.950 . S
C433 C432 1.524 . S
C433 C434 1.415 . S
C434 H410 0.950 . S
C434 C429 1.363 . S
C434 C433 1.415 . S
C435 H411 0.951 . S
C435 C436 1.366 . S
C435 C437 1.388 . S
C436 C435 1.366 . S
C436 C440 1.385 . S
C437 H412 0.951 . S
C437 C435 1.388 . S
C437 C438 1.366 . S
C438 C437 1.366 . S
C438 C439 1.414 . S
C438 C441 1.499 . S
C439 H413 0.950 . S
C439 C438 1.414 . S
C439 C440 1.374 . S
C440 H414 0.950 . S
C440 C436 1.385 . S
C440 C439 1.374 . S
C441 C438 1.499 . S
C441 C442 1.373 . S
C441 C443 1.389 . S
C442 H415 0.950 . S
C442 C428 1.377 . S
C442 C441 1.373 . S
C443 C427 1.377 . S
C443 C441 1.389 . S
C443 C444 1.524 . S
C444 C443 1.524 . S
C444 C445 1.397 . S
C444 C449 1.363 . S
C445 H416 0.950 . S
C445 C444 1.397 . S
C445 C446 1.334 . S
C446 H417 0.950 . S
C446 C445 1.334 . S
C446 C447 1.287 . S
C447 C446 1.287 . S
C447 C448 1.524 . S
C447 H450 0.999 . S
C448 H418 0.950 . S
C448 C447 1.524 . S
C448 C449 1.415 . S
C449 H419 0.950 . S
C449 C444 1.363 . S
C449 C448 1.415 . S
H450 C447 0.999 . S
H451 C432 0.913 . S
H452 C470 0.951 . S
H453 C472 0.951 . S
H454 C474 0.950 . S
H455 C475 0.950 . S
H456 C477 0.950 . S
H457 C480 0.950 . S
H458 C481 0.950 . S
H459 C483 0.950 . S
H460 C484 0.950 . S
H461 C485 0.951 . S
H462 C487 0.951 . S
H463 C489 0.950 . S
H464 C490 0.950 . S
H465 C492 0.950 . S
H466 C495 0.950 . S
H467 C496 0.950 . S
H468 C498 0.950 . S
H469 C499 0.950 . S
C470 H452 0.951 . S
C470 C471 1.366 . S
C470 C472 1.388 . S
C471 C470 1.366 . S
C471 C475 1.385 . S
C472 H453 0.951 . S
C472 C470 1.388 . S
C472 C473 1.366 . S
C473 C472 1.366 . S
C473 C474 1.414 . S
C473 C476 1.499 . S
C474 H454 0.950 . S
C474 C473 1.414 . S
C474 C475 1.374 . S
C475 H455 0.950 . S
C475 C471 1.385 . S
C475 C474 1.374 . S
C476 C473 1.499 . S
C476 C477 1.373 . S
C476 C478 1.389 . S
C477 H456 0.950 . S
C477 C476 1.373 . S
C477 C493 1.377 . S
C478 C476 1.389 . S
C478 C479 1.524 . S
C478 C492 1.377 . S
C479 C478 1.524 . S
C479 C480 1.397 . S
C479 C484 1.363 . S
C480 H457 0.950 . S
C480 C479 1.397 . S
C480 C481 1.334 . S
C481 H458 0.950 . S
C481 C480 1.334 . S
C481 C482 1.287 . S
C482 C481 1.287 . S
C482 C483 1.524 . S
C482 H501 0.913 . S
C483 H459 0.950 . S
C483 C482 1.524 . S
C483 C484 1.415 . S
C484 H460 0.950 . S
C484 C479 1.363 . S
C484 C483 1.415 . S
C485 H461 0.951 . S
C485 C486 1.366 . S
C485 C487 1.388 . S
C486 C485 1.366 . S
C486 C490 1.385 . S
C487 H462 0.951 . S
C487 C485 1.388 . S
C487 C488 1.366 . S
C488 C487 1.366 . S
C488 C489 1.414 . S
C488 C491 1.499 . S
C489 H463 0.950 . S
C489 C488 1.414 . S
C489 C490 1.374 . S
C490 H464 0.950 . S
C490 C486 1.385 . S
C490 C489 1.374 . S
C491 C488 1.499 . S
C491 C492 1.373 . S
C491 C493 1.389 . S
C492 H465 0.950 . S
C492 C478 1.377 . S
C492 C491 1.373 . S
C493 C477 1.377 . S
C493 C491 1.389 . S
C493 C494 1.524 . S
C494 C493 1.524 . S
C494 C495 1.397 . S
C494 C499 1.363 . S
C495 H466 0.950 . S
C495 C494 1.397 . S
C495 C496 1.334 . S
C496 H467 0.950 . S
C496 C495 1.334 . S
C496 C497 1.287 . S
C497 C496 1.287 . S
C497 C498 1.524 . S
C497 H500 0.999 . S
C498 H468 0.950 . S
C498 C497 1.524 . S
C498 C499 1.415 . S
C499 H469 0.950 . S
C499 C494 1.363 . S
C499 C498 1.415 . S
H500 C497 0.999 . S
H501 C482 0.913 . S
H502 C520 0.951 . S
H503 C522 0.951 . S
H504 C524 0.950 1_455 S
H505 C525 0.950 . S
H506 C527 0.950 . S
H507 C530 0.950 . S
H508 C531 0.950 . S
H509 C533 0.950 1_554 S
H510 C534 0.950 . S
H511 C535 0.951 . S
H512 C537 0.951 . S
H513 C539 0.950 1_655 S
H514 C540 0.950 . S
H515 C542 0.950 . S
H516 C545 0.950 . S
H517 C546 0.950 . S
H518 C548 0.950 1_556 S
H519 C549 0.950 . S
C520 H502 0.951 . S
C520 C521 1.366 . S
C520 C522 1.388 . S
C521 C520 1.366 . S
C521 C525 1.385 . S
C522 H503 0.951 . S
C522 C520 1.388 . S
C522 C523 1.366 . S
C523 C522 1.366 . S
C523 C524 1.414 . S
C523 C526 1.499 . S
C524 H504 0.950 1_655 S
C524 C523 1.414 . S
C524 C525 1.374 . S
C525 H505 0.950 . S
C525 C521 1.385 . S
C525 C524 1.374 . S
C526 C523 1.499 . S
C526 C527 1.373 1_655 S
C526 C528 1.389 . S
C527 H506 0.950 . S
C527 C526 1.373 1_455 S
C527 C543 1.377 1_556 S
C528 C526 1.389 . S
C528 C529 1.524 . S
C528 C542 1.377 1_556 S
C529 C528 1.524 . S
C529 C530 1.397 . S
C529 C534 1.363 1_556 S
C530 H507 0.950 . S
C530 C529 1.397 . S
C530 C531 1.334 . S
C531 H508 0.950 . S
C531 C530 1.334 . S
C531 C532 1.287 . S
C532 C531 1.287 . S
C532 C533 1.524 . S
C532 H551 0.913 . S
C533 H509 0.950 1_556 S
C533 C532 1.524 . S
C533 C534 1.415 1_556 S
C534 H510 0.950 . S
C534 C529 1.363 1_554 S
C534 C533 1.415 1_554 S
C535 H511 0.951 . S
C535 C536 1.366 . S
C535 C537 1.388 . S
C536 C535 1.366 . S
C536 C540 1.385 . S
C537 H512 0.951 . S
C537 C535 1.388 . S
C537 C538 1.366 . S
C538 C537 1.366 . S
C538 C539 1.414 . S
C538 C541 1.499 . S
C539 H513 0.950 1_455 S
C539 C538 1.414 . S
C539 C540 1.374 . S
C540 H514 0.950 . S
C540 C536 1.385 . S
C540 C539 1.374 . S
C541 C538 1.499 . S
C541 C542 1.373 1_455 S
C541 C543 1.389 . S
C542 H515 0.950 . S
C542 C528 1.377 1_554 S
C542 C541 1.373 1_655 S
C543 C527 1.377 1_554 S
C543 C541 1.389 . S
C543 C544 1.524 . S
C544 C543 1.524 . S
C544 C545 1.397 . S
C544 C549 1.363 1_554 S
C545 H516 0.950 . S
C545 C544 1.397 . S
C545 C546 1.334 . S
C546 H517 0.950 . S
C546 C545 1.334 . S
C546 C547 1.287 . S
C547 C546 1.287 . S
C547 C548 1.524 . S
C547 H550 0.999 . S
C548 H518 0.950 1_554 S
C548 C547 1.524 . S
C548 C549 1.415 1_554 S
C549 H519 0.950 . S
C549 C544 1.363 1_556 S
C549 C548 1.415 1_556 S
H550 C547 0.999 . S
H551 C532 0.913 . S
H552 C570 0.951 . S
H553 C572 0.951 . S
H554 C574 0.950 . S
H555 C575 0.950 . S
H556 C577 0.950 . S
H557 C580 0.950 . S
H558 C581 0.950 . S
H559 C583 0.950 . S
H560 C584 0.950 . S
H561 C585 0.951 . S
H562 C587 0.951 . S
H563 C589 0.950 . S
H564 C590 0.950 . S
H565 C592 0.950 . S
H566 C595 0.950 . S
H567 C596 0.950 . S
H568 C598 0.950 . S
H569 C599 0.950 . S
C570 H552 0.951 . S
C570 C571 1.366 . S
C570 C572 1.388 . S
C571 C570 1.366 . S
C571 C575 1.385 . S
C572 H553 0.951 . S
C572 C570 1.388 . S
C572 C573 1.366 . S
C573 C572 1.366 . S
C573 C574 1.414 . S
C573 C576 1.499 . S
C574 H554 0.950 . S
C574 C573 1.414 . S
C574 C575 1.374 . S
C575 H555 0.950 . S
C575 C571 1.385 . S
C575 C574 1.374 . S
C576 C573 1.499 . S
C576 C577 1.373 . S
C576 C578 1.389 . S
C577 H556 0.950 . S
C577 C576 1.373 . S
C577 C593 1.377 . S
C578 C576 1.389 . S
C578 C579 1.524 . S
C578 C592 1.377 . S
C579 C578 1.524 . S
C579 C580 1.397 . S
C579 C584 1.363 . S
C580 H557 0.950 . S
C580 C579 1.397 . S
C580 C581 1.334 . S
C581 H558 0.950 . S
C581 C580 1.334 . S
C581 C582 1.287 . S
C582 C581 1.287 . S
C582 C583 1.524 . S
C582 H601 0.913 . S
C583 H559 0.950 . S
C583 C582 1.524 . S
C583 C584 1.415 . S
C584 H560 0.950 . S
C584 C579 1.363 . S
C584 C583 1.415 . S
C585 H561 0.951 . S
C585 C586 1.366 . S
C585 C587 1.388 . S
C586 C585 1.366 . S
C586 C590 1.385 . S
C587 H562 0.951 . S
C587 C585 1.388 . S
C587 C588 1.366 . S
C588 C587 1.366 . S
C588 C589 1.414 . S
C588 C591 1.499 . S
C589 H563 0.950 . S
C589 C588 1.414 . S
C589 C590 1.374 . S
C590 H564 0.950 . S
C590 C586 1.385 . S
C590 C589 1.374 . S
C591 C588 1.499 . S
C591 C592 1.373 . S
C591 C593 1.389 . S
C592 H565 0.950 . S
C592 C578 1.377 . S
C592 C591 1.373 . S
C593 C577 1.377 . S
C593 C591 1.389 . S
C593 C594 1.524 . S
C594 C593 1.524 . S
C594 C595 1.397 . S
C594 C599 1.363 . S
C595 H566 0.950 . S
C595 C594 1.397 . S
C595 C596 1.334 . S
C596 H567 0.950 . S
C596 C595 1.334 . S
C596 C597 1.287 . S
C597 C596 1.287 . S
C597 C598 1.524 . S
C597 H600 0.999 . S
C598 H568 0.950 . S
C598 C597 1.524 . S
C598 C599 1.415 . S
C599 H569 0.950 . S
C599 C594 1.363 . S
C599 C598 1.415 . S
H600 C597 0.999 . S
H601 C582 0.913 . S
H602 C620 0.951 . S
H603 C622 0.951 . S
H604 C624 0.950 . S
H605 C625 0.950 . S
H606 C627 0.950 . S
H607 C630 0.950 . S
H608 C631 0.950 . S
H609 C633 0.950 . S
H610 C634 0.950 . S
H611 C635 0.951 . S
H612 C637 0.951 . S
H613 C639 0.950 . S
H614 C640 0.950 . S
H615 C642 0.950 . S
H616 C645 0.950 . S
H617 C646 0.950 . S
H618 C648 0.950 . S
H619 C649 0.950 . S
C620 H602 0.951 . S
C620 C621 1.366 . S
C620 C622 1.388 . S
C621 C620 1.366 . S
C621 C625 1.385 . S
C622 H603 0.951 . S
C622 C620 1.388 . S
C622 C623 1.366 . S
C623 C622 1.366 . S
C623 C624 1.414 . S
C623 C626 1.499 . S
C624 H604 0.950 . S
C624 C623 1.414 . S
C624 C625 1.374 . S
C625 H605 0.950 . S
C625 C621 1.385 . S
C625 C624 1.374 . S
C626 C623 1.499 . S
C626 C627 1.373 . S
C626 C628 1.389 . S
C627 H606 0.950 . S
C627 C626 1.373 . S
C627 C643 1.377 . S
C628 C626 1.389 . S
C628 C629 1.524 . S
C628 C642 1.377 . S
C629 C628 1.524 . S
C629 C630 1.397 . S
C629 C634 1.363 . S
C630 H607 0.950 . S
C630 C629 1.397 . S
C630 C631 1.334 . S
C631 H608 0.950 . S
C631 C630 1.334 . S
C631 C632 1.287 . S
C632 C631 1.287 . S
C632 C633 1.524 . S
C632 H651 0.913 . S
C633 H609 0.950 . S
C633 C632 1.524 . S
C633 C634 1.415 . S
C634 H610 0.950 . S
C634 C629 1.363 . S
C634 C633 1.415 . S
C635 H611 0.951 . S
C635 C636 1.366 . S
C635 C637 1.388 . S
C636 C635 1.366 . S
C636 C640 1.385 . S
C637 H612 0.951 . S
C637 C635 1.388 . S
C637 C638 1.366 . S
C638 C637 1.366 . S
C638 C639 1.414 . S
C638 C641 1.499 . S
C639 H613 0.950 . S
C639 C638 1.414 . S
C639 C640 1.374 . S
C640 H614 0.950 . S
C640 C636 1.385 . S
C640 C639 1.374 . S
C641 C638 1.499 . S
C641 C642 1.373 . S
C641 C643 1.389 . S
C642 H615 0.950 . S
C642 C628 1.377 . S
C642 C641 1.373 . S
C643 C627 1.377 . S
C643 C641 1.389 . S
C643 C644 1.524 . S
C644 C643 1.524 . S
C644 C645 1.397 . S
C644 C649 1.363 . S
C645 H616 0.950 . S
C645 C644 1.397 . S
C645 C646 1.334 . S
C646 H617 0.950 . S
C646 C645 1.334 . S
C646 C647 1.287 . S
C647 C646 1.287 . S
C647 C648 1.524 . S
C647 H650 0.999 . S
C648 H618 0.950 . S
C648 C647 1.524 . S
C648 C649 1.415 . S
C649 H619 0.950 . S
C649 C644 1.363 . S
C649 C648 1.415 . S
H650 C647 0.999 . S
H651 C632 0.913 . S
H652 C670 0.951 . S
H653 C672 0.951 . S
H654 C674 0.950 . S
H655 C675 0.950 . S
H656 C677 0.950 . S
H657 C680 0.950 . S
H658 C681 0.950 . S
H659 C683 0.950 . S
H660 C684 0.950 . S
H661 C685 0.951 . S
H662 C687 0.951 . S
H663 C689 0.950 . S
H664 C690 0.950 . S
H665 C692 0.950 . S
H666 C695 0.950 . S
H667 C696 0.950 . S
H668 C698 0.950 . S
H669 C699 0.950 . S
C670 H652 0.951 . S
C670 C671 1.366 . S
C670 C672 1.388 . S
C671 C670 1.366 . S
C671 C675 1.385 1_565 S
C672 H653 0.951 . S
C672 C670 1.388 . S
C672 C673 1.366 . S
C673 C672 1.366 . S
C673 C674 1.414 1_565 S
C673 C676 1.499 . S
C674 H654 0.950 . S
C674 C673 1.414 1_545 S
C674 C675 1.374 . S
C675 H655 0.950 . S
C675 C671 1.385 1_545 S
C675 C674 1.374 . S
C676 C673 1.499 . S
C676 C677 1.373 1_565 S
C676 C678 1.389 1_655 S
C677 H656 0.950 . S
C677 C676 1.373 1_545 S
C677 C693 1.377 1_554 S
C678 C676 1.389 1_455 S
C678 C679 1.524 . S
C678 C692 1.377 1_554 S
C679 C678 1.524 . S
C679 C680 1.397 1_565 S
C679 C684 1.363 . S
C680 H657 0.950 . S
C680 C679 1.397 1_545 S
C680 C681 1.334 . S
C681 H658 0.950 . S
C681 C680 1.334 . S
C681 C682 1.287 1_545 S
C682 C681 1.287 1_565 S
C682 C683 1.524 . S
C682 H701 0.913 . S
C683 H659 0.950 . S
C683 C682 1.524 . S
C683 C684 1.415 . S
C684 H660 0.950 . S
C684 C679 1.363 . S
C684 C683 1.415 . S
C685 H661 0.951 . S
C685 C686 1.366 . S
C685 C687 1.388 . S
C686 C685 1.366 . S
C686 C690 1.385 1_545 S
C687 H662 0.951 . S
C687 C685 1.388 . S
C687 C688 1.366 . S
C688 C687 1.366 . S
C688 C689 1.414 1_545 S
C688 C691 1.499 . S
C689 H663 0.950 . S
C689 C688 1.414 1_565 S
C689 C690 1.374 . S
C690 H664 0.950 . S
C690 C686 1.385 1_565 S
C690 C689 1.374 . S
C691 C688 1.499 . S
C691 C692 1.373 1_545 S
C691 C693 1.389 1_455 S
C692 H665 0.950 . S
C692 C678 1.377 1_556 S
C692 C691 1.373 1_565 S
C693 C677 1.377 1_556 S
C693 C691 1.389 1_655 S
C693 C694 1.524 . S
C694 C693 1.524 . S
C694 C695 1.397 1_545 S
C694 C699 1.363 . S
C695 H666 0.950 . S
C695 C694 1.397 1_565 S
C695 C696 1.334 . S
C696 H667 0.950 . S
C696 C695 1.334 . S
C696 C697 1.287 1_565 S
C697 C696 1.287 1_545 S
C697 C698 1.524 . S
C697 H700 0.999 . S
C698 H668 0.950 . S
C698 C697 1.524 . S
C698 C699 1.415 . S
C699 H669 0.950 . S
C699 C694 1.363 . S
C699 C698 1.415 . S
H700 C697 0.999 . S
H701 C682 0.913 . S
H702 C720 0.951 1_545 S
H703 C722 0.951 1_545 S
H704 C724 0.950 . S
H705 C725 0.950 . S
H706 C727 0.950 . S
H707 C730 0.950 . S
H708 C731 0.950 . S
H709 C733 0.950 . S
H710 C734 0.916 1_545 S
H711 C735 0.951 1_565 S
H712 C737 0.951 1_565 S
H713 C739 0.950 . S
H714 C740 0.950 . S
H715 C742 0.950 . S
H716 C745 0.950 . S
H717 C746 0.950 . S
H718 C748 0.950 . S
H719 C749 0.916 1_565 S
C720 H702 0.951 1_565 S
C720 C721 1.366 . S
C720 C722 1.388 . S
C721 C720 1.366 . S
C721 C725 1.385 . S
C722 H703 0.951 1_565 S
C722 C720 1.388 . S
C722 C723 1.366 . S
C723 C722 1.366 . S
C723 C724 1.414 . S
C723 C726 1.499 . S
C724 H704 0.950 . S
C724 C723 1.414 . S
C724 C725 1.374 . S
C725 H705 0.950 . S
C725 C721 1.385 . S
C725 C724 1.374 . S
C726 C723 1.499 . S
C726 C727 1.373 1_565 S
C726 C728 1.389 . S
C727 H706 0.950 . S
C727 C726 1.373 1_545 S
C727 C743 1.377 . S
C728 C726 1.389 . S
C728 C729 1.524 . S
C728 C742 1.377 . S
C729 C728 1.524 . S
C729 C730 1.397 . S
C729 C734 1.363 . S
C730 H707 0.950 . S
C730 C729 1.397 . S
C730 C731 1.334 . S
C731 H708 0.950 . S
C731 C730 1.334 . S
C731 C732 1.287 . S
C732 C731 1.287 . S
C732 C733 1.524 . S
C732 H751 0.913 . S
C733 H709 0.950 . S
C733 C732 1.524 . S
C733 C734 1.415 . S
C734 H710 0.916 1_565 S
C734 C729 1.363 . S
C734 C733 1.415 . S
C735 H711 0.951 1_545 S
C735 C736 1.366 . S
C735 C737 1.388 . S
C736 C735 1.366 . S
C736 C740 1.385 . S
C737 H712 0.951 1_545 S
C737 C735 1.388 . S
C737 C738 1.366 . S
C738 C737 1.366 . S
C738 C739 1.414 . S
C738 C741 1.499 . S
C739 H713 0.950 . S
C739 C738 1.414 . S
C739 C740 1.374 . S
C740 H714 0.950 . S
C740 C736 1.385 . S
C740 C739 1.374 . S
C741 C738 1.499 . S
C741 C742 1.373 1_545 S
C741 C743 1.389 . S
C742 H715 0.950 . S
C742 C728 1.377 . S
C742 C741 1.373 1_565 S
C743 C727 1.377 . S
C743 C741 1.389 . S
C743 C744 1.524 . S
C744 C743 1.524 . S
C744 C745 1.397 . S
C744 C749 1.363 . S
C745 H716 0.950 . S
C745 C744 1.397 . S
C745 C746 1.334 . S
C746 H717 0.950 . S
C746 C745 1.334 . S
C746 C747 1.287 . S
C747 C746 1.287 . S
C747 C748 1.524 . S
C747 H750 0.999 . S
C748 H718 0.950 . S
C748 C747 1.524 . S
C748 C749 1.415 . S
C749 H719 0.916 1_545 S
C749 C744 1.363 . S
C749 C748 1.415 . S
H750 C747 0.999 . S
H751 C732 0.913 . S
H752 C770 0.951 . S
H753 C772 0.951 . S
H754 C774 0.950 . S
H755 C775 0.950 . S
H756 C777 0.950 . S
H757 C780 0.950 . S
H758 C781 0.950 . S
H759 C783 0.950 1_554 S
H760 C784 0.950 1_554 S
H761 C785 0.951 . S
H762 C787 0.951 . S
H763 C789 0.950 . S
H764 C790 0.950 . S
H765 C792 0.950 . S
H766 C795 0.950 . S
H767 C796 0.950 . S
H768 C798 0.950 . S
H769 C799 0.950 . S
C770 H752 0.951 . S
C770 C771 1.366 . S
C770 C772 1.388 . S
C771 C770 1.366 . S
C771 C775 1.385 . S
C772 H753 0.951 . S
C772 C770 1.388 . S
C772 C773 1.366 . S
C773 C772 1.366 . S
C773 C774 1.414 . S
C773 C776 1.499 . S
C774 H754 0.950 . S
C774 C773 1.414 . S
C774 C775 1.374 . S
C775 H755 0.950 . S
C775 C771 1.385 . S
C775 C774 1.374 . S
C776 C773 1.499 . S
C776 C777 1.373 . S
C776 C778 1.389 . S
C777 H756 0.950 . S
C777 C776 1.373 . S
C777 C793 1.377 . S
C778 C776 1.389 . S
C778 C779 1.524 . S
C778 C792 1.377 1_556 S
C779 C778 1.524 . S
C779 C780 1.397 . S
C779 C784 1.363 . S
C780 H757 0.950 . S
C780 C779 1.397 . S
C780 C781 1.334 . S
C781 H758 0.950 . S
C781 C780 1.334 . S
C781 C782 1.287 . S
C782 C781 1.287 . S
C782 C783 1.524 . S
C782 H801 0.913 . S
C783 H759 0.950 1_556 S
C783 C782 1.524 . S
C783 C784 1.415 . S
C784 H760 0.950 1_556 S
C784 C779 1.363 . S
C784 C783 1.415 . S
C785 H761 0.951 . S
C785 C786 1.366 . S
C785 C787 1.388 . S
C786 C785 1.366 . S
C786 C790 1.385 . S
C787 H762 0.951 . S
C787 C785 1.388 . S
C787 C788 1.366 . S
C788 C787 1.366 . S
C788 C789 1.414 . S
C788 C791 1.499 . S
C789 H763 0.950 . S
C789 C788 1.414 . S
C789 C790 1.374 . S
C790 H764 0.950 . S
C790 C786 1.385 . S
C790 C789 1.374 . S
C791 C788 1.499 . S
C791 C792 1.373 . S
C791 C793 1.389 1_554 S
C792 H765 0.950 . S
C792 C778 1.377 1_554 S
C792 C791 1.373 . S
C793 C777 1.377 . S
C793 C791 1.389 1_556 S
C793 C794 1.524 . S
C794 C793 1.524 . S
C794 C795 1.397 1_556 S
C794 C799 1.363 . S
C795 H766 0.950 . S
C795 C794 1.397 1_554 S
C795 C796 1.334 . S
C796 H767 0.950 . S
C796 C795 1.334 . S
C796 C797 1.279 1_554 S
C797 C796 1.279 1_556 S
C797 C798 1.533 . S
C797 H800 0.998 1_556 S
C798 H768 0.950 . S
C798 C797 1.533 . S
C798 C799 1.415 . S
C799 H769 0.950 . S
C799 C794 1.363 . S
C799 C798 1.415 . S
H800 C797 0.998 1_554 S
H801 C782 0.913 . S
H802 C820 0.951 . S
H803 C822 0.951 . S
H804 C824 0.950 . S
H805 C825 0.950 . S
H806 C827 0.950 . S
H807 C830 0.950 . S
H808 C831 0.950 . S
H809 C833 0.950 . S
H810 C834 0.950 . S
H811 C835 0.951 . S
H812 C837 0.951 . S
H813 C839 0.950 . S
H814 C840 0.950 . S
H815 C842 0.950 . S
H816 C845 0.950 . S
H817 C846 0.950 . S
H818 C848 0.950 . S
H819 C849 0.950 . S
C820 H802 0.951 . S
C820 C821 1.366 . S
C820 C822 1.388 . S
C821 C820 1.366 . S
C821 C825 1.385 . S
C822 H803 0.951 . S
C822 C820 1.388 . S
C822 C823 1.366 . S
C823 C822 1.366 . S
C823 C824 1.414 . S
C823 C826 1.499 . S
C824 H804 0.950 . S
C824 C823 1.414 . S
C824 C825 1.374 . S
C825 H805 0.950 . S
C825 C821 1.385 . S
C825 C824 1.374 . S
C826 C823 1.499 . S
C826 C827 1.373 . S
C826 C828 1.389 . S
C827 H806 0.950 . S
C827 C826 1.373 . S
C827 C843 1.377 . S
C828 C826 1.389 . S
C828 C829 1.524 . S
C828 C842 1.377 . S
C829 C828 1.524 . S
C829 C830 1.397 . S
C829 C834 1.363 . S
C830 H807 0.950 . S
C830 C829 1.397 . S
C830 C831 1.334 . S
C831 H808 0.950 . S
C831 C830 1.334 . S
C831 C832 1.287 . S
C832 C831 1.287 . S
C832 C833 1.524 . S
C832 H851 0.913 . S
C833 H809 0.950 . S
C833 C832 1.524 . S
C833 C834 1.415 . S
C834 H810 0.950 . S
C834 C829 1.363 . S
C834 C833 1.415 . S
C835 H811 0.951 . S
C835 C836 1.366 . S
C835 C837 1.388 . S
C836 C835 1.366 . S
C836 C840 1.385 . S
C837 H812 0.951 . S
C837 C835 1.388 . S
C837 C838 1.366 . S
C838 C837 1.366 . S
C838 C839 1.414 . S
C838 C841 1.499 . S
C839 H813 0.950 . S
C839 C838 1.414 . S
C839 C840 1.374 . S
C840 H814 0.950 . S
C840 C836 1.385 . S
C840 C839 1.374 . S
C841 C838 1.499 . S
C841 C842 1.373 . S
C841 C843 1.389 . S
C842 H815 0.950 . S
C842 C828 1.377 . S
C842 C841 1.373 . S
C843 C827 1.377 . S
C843 C841 1.389 . S
C843 C844 1.524 . S
C844 C843 1.524 . S
C844 C845 1.397 . S
C844 C849 1.363 . S
C845 H816 0.950 . S
C845 C844 1.397 . S
C845 C846 1.334 . S
C846 H817 0.950 . S
C846 C845 1.334 . S
C846 C847 1.287 . S
C847 C846 1.287 . S
C847 C848 1.524 . S
C847 H850 0.999 . S
C848 H818 0.950 . S
C848 C847 1.524 . S
C848 C849 1.415 . S
C849 H819 0.950 . S
C849 C844 1.363 . S
C849 C848 1.415 . S
H850 C847 0.999 . S
H851 C832 0.913 . S
H852 C870 0.951 . S
H853 C872 0.951 . S
H854 C874 0.950 . S
H855 C875 0.950 . S
H856 C877 0.950 . S
H857 C880 0.950 . S
H858 C881 0.950 . S
H859 C883 0.950 . S
H860 C884 0.950 . S
H861 C885 0.951 . S
H862 C887 0.951 . S
H863 C889 0.950 . S
H864 C890 0.950 . S
H865 C892 0.950 . S
H866 C895 0.950 . S
H867 C896 0.950 . S
H868 C898 0.950 . S
H869 C899 0.950 . S
C870 H852 0.951 . S
C870 C871 1.366 . S
C870 C872 1.388 . S
C871 C870 1.366 . S
C871 C875 1.385 . S
C872 H853 0.951 . S
C872 C870 1.388 . S
C872 C873 1.366 . S
C873 C872 1.366 . S
C873 C874 1.414 . S
C873 C876 1.499 . S
C874 H854 0.950 . S
C874 C873 1.414 . S
C874 C875 1.374 . S
C875 H855 0.950 . S
C875 C871 1.385 . S
C875 C874 1.374 . S
C876 C873 1.499 . S
C876 C877 1.373 . S
C876 C878 1.389 . S
C877 H856 0.950 . S
C877 C876 1.373 . S
C877 C893 1.377 . S
C878 C876 1.389 . S
C878 C879 1.524 . S
C878 C892 1.377 . S
C879 C878 1.524 . S
C879 C880 1.397 . S
C879 C884 1.363 . S
C880 H857 0.950 . S
C880 C879 1.397 . S
C880 C881 1.334 . S
C881 H858 0.950 . S
C881 C880 1.334 . S
C881 C882 1.287 . S
C882 C881 1.287 . S
C882 C883 1.524 . S
C882 H901 0.913 . S
C883 H859 0.950 . S
C883 C882 1.524 . S
C883 C884 1.415 . S
C884 H860 0.950 . S
C884 C879 1.363 . S
C884 C883 1.415 . S
C885 H861 0.951 . S
C885 C886 1.366 . S
C885 C887 1.388 . S
C886 C885 1.366 . S
C886 C890 1.385 . S
C887 H862 0.951 . S
C887 C885 1.388 . S
C887 C888 1.366 . S
C888 C887 1.366 . S
C888 C889 1.414 . S
C888 C891 1.499 . S
C889 H863 0.950 . S
C889 C888 1.414 . S
C889 C890 1.374 . S
C890 H864 0.950 . S
C890 C886 1.385 . S
C890 C889 1.374 . S
C891 C888 1.499 . S
C891 C892 1.373 . S
C891 C893 1.389 . S
C892 H865 0.950 . S
C892 C878 1.377 . S
C892 C891 1.373 . S
C893 C877 1.377 . S
C893 C891 1.389 . S
C893 C894 1.524 . S
C894 C893 1.524 . S
C894 C895 1.397 . S
C894 C899 1.363 . S
C895 H866 0.950 . S
C895 C894 1.397 . S
C895 C896 1.334 . S
C896 H867 0.950 . S
C896 C895 1.334 . S
C896 C897 1.287 . S
C897 C896 1.287 . S
C897 C898 1.524 . S
C897 H900 0.999 . S
C898 H868 0.950 . S
C898 C897 1.524 . S
C898 C899 1.415 . S
C899 H869 0.950 . S
C899 C894 1.363 . S
C899 C898 1.415 . S
H900 C897 0.999 . S
H901 C882 0.913 . S
H902 C920 0.951 . S
H903 C922 0.951 . S
H904 C924 0.950 . S
H905 C925 0.950 . S
H906 C927 0.950 . S
H907 C930 0.950 . S
H908 C931 0.950 . S
H909 C933 0.950 . S
H910 C934 0.950 . S
H911 C935 0.951 . S
H912 C937 0.951 . S
H913 C939 0.950 . S
H914 C940 0.950 . S
H915 C942 0.950 . S
H916 C945 0.950 . S
H917 C946 0.950 . S
H918 C948 0.950 . S
H919 C949 0.950 . S
C920 H902 0.951 . S
C920 C921 1.366 . S
C920 C922 1.388 . S
C921 C920 1.366 . S
C921 C925 1.385 . S
C922 H903 0.951 . S
C922 C920 1.388 . S
C922 C923 1.366 . S
C923 C922 1.366 . S
C923 C924 1.414 . S
C923 C926 1.499 . S
C924 H904 0.950 . S
C924 C923 1.414 . S
C924 C925 1.374 . S
C925 H905 0.950 . S
C925 C921 1.385 . S
C925 C924 1.374 . S
C926 C923 1.499 . S
C926 C927 1.373 . S
C926 C928 1.389 . S
C927 H906 0.950 . S
C927 C926 1.373 . S
C927 C943 1.377 . S
C928 C926 1.389 . S
C928 C929 1.524 . S
C928 C942 1.377 . S
C929 C928 1.524 . S
C929 C930 1.397 . S
C929 C934 1.363 . S
C930 H907 0.950 . S
C930 C929 1.397 . S
C930 C931 1.334 . S
C931 H908 0.950 . S
C931 C930 1.334 . S
C931 C932 1.287 . S
C932 C931 1.287 . S
C932 C933 1.524 . S
C932 H951 0.913 . S
C933 H909 0.950 . S
C933 C932 1.524 . S
C933 C934 1.415 . S
C934 H910 0.950 . S
C934 C929 1.363 . S
C934 C933 1.415 . S
C935 H911 0.951 . S
C935 C936 1.366 . S
C935 C937 1.388 . S
C936 C935 1.366 . S
C936 C940 1.385 . S
C937 H912 0.951 . S
C937 C935 1.388 . S
C937 C938 1.366 . S
C938 C937 1.366 . S
C938 C939 1.414 . S
C938 C941 1.499 . S
C939 H913 0.950 . S
C939 C938 1.414 . S
C939 C940 1.374 . S
C940 H914 0.950 . S
C940 C936 1.385 . S
C940 C939 1.374 . S
C941 C938 1.499 . S
C941 C942 1.373 . S
C941 C943 1.389 . S
C942 H915 0.950 . S
C942 C928 1.377 . S
C942 C941 1.373 . S
C943 C927 1.377 . S
C943 C941 1.389 . S
C943 C944 1.524 . S
C944 C943 1.524 . S
C944 C945 1.397 . S
C944 C949 1.363 . S
C945 H916 0.950 . S
C945 C944 1.397 . S
C945 C946 1.334 . S
C946 H917 0.950 . S
C946 C945 1.334 . S
C946 C947 1.287 . S
C947 C946 1.287 . S
C947 C948 1.524 . S
C947 H950 0.999 . S
C948 H918 0.950 . S
C948 C947 1.524 . S
C948 C949 1.415 . S
C949 H919 0.950 . S
C949 C944 1.363 . S
C949 C948 1.415 . S
H950 C947 0.999 . S
H951 C932 0.913 . S
H952 C970 0.951 . S
H953 C972 0.951 . S
H954 C974 0.950 . S
H955 C975 0.950 . S
H956 C977 0.950 . S
H957 C980 0.950 . S
H958 C981 0.950 . S
H959 C983 0.950 1_556 S
H960 C984 0.950 1_556 S
H961 C985 0.951 . S
H962 C987 0.951 . S
H963 C989 0.950 . S
H964 C990 0.950 . S
H965 C992 0.950 . S
H966 C995 0.950 . S
H967 C996 0.950 . S
H968 C998 0.950 . S
H969 C999 0.950 . S
C970 H952 0.951 . S
C970 C971 1.366 . S
C970 C972 1.388 . S
C971 C970 1.366 . S
C971 C975 1.385 . S
C972 H953 0.951 . S
C972 C970 1.388 . S
C972 C973 1.366 . S
C973 C972 1.366 . S
C973 C974 1.414 . S
C973 C976 1.499 . S
C974 H954 0.950 . S
C974 C973 1.414 . S
C974 C975 1.374 . S
C975 H955 0.950 . S
C975 C971 1.385 . S
C975 C974 1.374 . S
C976 C973 1.499 . S
C976 C977 1.373 . S
C976 C978 1.389 . S
C977 H956 0.950 . S
C977 C976 1.373 . S
C977 C993 1.377 . S
C978 C976 1.389 . S
C978 C979 1.524 . S
C978 C992 1.377 1_554 S
C979 C978 1.524 . S
C979 C980 1.397 . S
C979 C984 1.363 . S
C980 H957 0.950 . S
C980 C979 1.397 . S
C980 C981 1.334 . S
C981 H958 0.950 . S
C981 C980 1.334 . S
C981 C982 1.287 . S
C982 C981 1.287 . S
C982 C983 1.524 . S
C982 H1001 0.913 1_565 S
C983 H959 0.950 1_554 S
C983 C982 1.524 . S
C983 C984 1.415 . S
C984 H960 0.950 1_554 S
C984 C979 1.363 . S
C984 C983 1.415 . S
C985 H961 0.951 . S
C985 C986 1.366 . S
C985 C987 1.388 . S
C986 C985 1.366 . S
C986 C990 1.385 . S
C987 H962 0.951 . S
C987 C985 1.388 . S
C987 C988 1.366 . S
C988 C987 1.366 . S
C988 C989 1.414 . S
C988 C991 1.499 . S
C989 H963 0.950 . S
C989 C988 1.414 . S
C989 C990 1.374 . S
C990 H964 0.950 . S
C990 C986 1.385 . S
C990 C989 1.374 . S
C991 C988 1.499 . S
C991 C992 1.373 . S
C991 C993 1.389 1_556 S
C992 H965 0.950 . S
C992 C978 1.377 1_556 S
C992 C991 1.373 . S
C993 C977 1.377 . S
C993 C991 1.389 1_554 S
C993 C994 1.524 . S
C994 C993 1.524 . S
C994 C995 1.397 1_554 S
C994 C999 1.363 . S
C995 H966 0.950 . S
C995 C994 1.397 1_556 S
C995 C996 1.334 . S
C996 H967 0.950 . S
C996 C995 1.334 . S
C996 C997 1.287 . S
C997 C996 1.287 . S
C997 C998 1.524 1_556 S
C997 H1000 0.999 . S
C998 H968 0.950 . S
C998 C997 1.524 1_554 S
C998 C999 1.415 . S
C999 H969 0.950 . S
C999 C994 1.363 . S
C999 C998 1.415 . S
H1000 C997 0.999 . S
H1001 C982 0.913 1_545 S
H1002 C1020 0.951 . S
H1003 C1022 0.951 . S
H1004 C1024 0.950 . S
H1005 C1025 0.950 . S
H1006 C1027 0.950 . S
H1007 C1030 0.950 . S
H1008 C1031 0.950 . S
H1009 C1033 0.950 . S
H1010 C1034 0.950 . S
H1011 C1035 0.951 . S
H1012 C1037 0.951 . S
H1013 C1039 0.950 . S
H1014 C1040 0.950 . S
H1015 C1042 0.950 . S
H1016 C1045 0.950 . S
H1017 C1046 0.950 . S
H1018 C1048 0.950 . S
H1019 C1049 0.950 . S
C1020 H1002 0.951 . S
C1020 C1021 1.366 . S
C1020 C1022 1.388 . S
C1021 C1020 1.366 . S
C1021 C1025 1.385 . S
C1022 H1003 0.951 . S
C1022 C1020 1.388 . S
C1022 C1023 1.366 . S
C1023 C1022 1.366 . S
C1023 C1024 1.414 . S
C1023 C1026 1.499 . S
C1024 H1004 0.950 . S
C1024 C1023 1.414 . S
C1024 C1025 1.374 . S
C1025 H1005 0.950 . S
C1025 C1021 1.385 . S
C1025 C1024 1.374 . S
C1026 C1023 1.499 . S
C1026 C1027 1.373 . S
C1026 C1028 1.389 . S
C1027 H1006 0.950 . S
C1027 C1026 1.373 . S
C1027 C1043 1.377 . S
C1028 C1026 1.389 . S
C1028 C1029 1.524 . S
C1028 C1042 1.377 . S
C1029 C1028 1.524 . S
C1029 C1030 1.397 . S
C1029 C1034 1.363 . S
C1030 H1007 0.950 . S
C1030 C1029 1.397 . S
C1030 C1031 1.334 . S
C1031 H1008 0.950 . S
C1031 C1030 1.334 . S
C1031 C1032 1.287 . S
C1032 C1031 1.287 . S
C1032 C1033 1.524 . S
C1032 H1051 0.913 . S
C1033 H1009 0.950 . S
C1033 C1032 1.524 . S
C1033 C1034 1.415 . S
C1034 H1010 0.950 . S
C1034 C1029 1.363 . S
C1034 C1033 1.415 . S
C1035 H1011 0.951 . S
C1035 C1036 1.366 . S
C1035 C1037 1.388 . S
C1036 C1035 1.366 . S
C1036 C1040 1.385 . S
C1037 H1012 0.951 . S
C1037 C1035 1.388 . S
C1037 C1038 1.366 . S
C1038 C1037 1.366 . S
C1038 C1039 1.414 . S
C1038 C1041 1.499 . S
C1039 H1013 0.950 . S
C1039 C1038 1.414 . S
C1039 C1040 1.374 . S
C1040 H1014 0.950 . S
C1040 C1036 1.385 . S
C1040 C1039 1.374 . S
C1041 C1038 1.499 . S
C1041 C1042 1.373 . S
C1041 C1043 1.389 . S
C1042 H1015 0.950 . S
C1042 C1028 1.377 . S
C1042 C1041 1.373 . S
C1043 C1027 1.377 . S
C1043 C1041 1.389 . S
C1043 C1044 1.524 . S
C1044 C1043 1.524 . S
C1044 C1045 1.397 . S
C1044 C1049 1.363 . S
C1045 H1016 0.950 . S
C1045 C1044 1.397 . S
C1045 C1046 1.334 . S
C1046 H1017 0.950 . S
C1046 C1045 1.334 . S
C1046 C1047 1.287 . S
C1047 C1046 1.287 . S
C1047 C1048 1.524 . S
C1047 H1050 0.999 . S
C1048 H1018 0.950 . S
C1048 C1047 1.524 . S
C1048 C1049 1.415 . S
C1049 H1019 0.950 . S
C1049 C1044 1.363 . S
C1049 C1048 1.415 . S
H1050 C1047 0.999 . S
H1051 C1032 0.913 . S
H1052 C1070 0.951 . S
H1053 C1072 0.951 . S
H1054 C1074 0.950 . S
H1055 C1075 0.950 . S
H1056 C1077 0.950 . S
H1057 C1080 0.950 . S
H1058 C1081 0.950 . S
H1059 C1083 0.950 . S
H1060 C1084 0.950 . S
H1061 C1085 0.951 . S
H1062 C1087 0.951 . S
H1063 C1089 0.950 . S
H1064 C1090 0.950 . S
H1065 C1092 0.950 . S
H1066 C1095 0.950 . S
H1067 C1096 0.950 . S
H1068 C1098 0.950 . S
H1069 C1099 0.950 . S
C1070 H1052 0.951 . S
C1070 C1071 1.366 . S
C1070 C1072 1.388 . S
C1071 C1070 1.366 . S
C1071 C1075 1.385 . S
C1072 H1053 0.951 . S
C1072 C1070 1.388 . S
C1072 C1073 1.366 . S
C1073 C1072 1.366 . S
C1073 C1074 1.414 . S
C1073 C1076 1.499 . S
C1074 H1054 0.950 . S
C1074 C1073 1.414 . S
C1074 C1075 1.374 . S
C1075 H1055 0.950 . S
C1075 C1071 1.385 . S
C1075 C1074 1.374 . S
C1076 C1073 1.499 . S
C1076 C1077 1.373 . S
C1076 C1078 1.389 . S
C1077 H1056 0.950 . S
C1077 C1076 1.373 . S
C1077 C1093 1.377 . S
C1078 C1076 1.389 . S
C1078 C1079 1.524 . S
C1078 C1092 1.377 . S
C1079 C1078 1.524 . S
C1079 C1080 1.397 . S
C1079 C1084 1.363 . S
C1080 H1057 0.950 . S
C1080 C1079 1.397 . S
C1080 C1081 1.334 . S
C1081 H1058 0.950 . S
C1081 C1080 1.334 . S
C1081 C1082 1.287 . S
C1082 C1081 1.287 . S
C1082 C1083 1.524 . S
C1082 H1101 0.913 . S
C1083 H1059 0.950 . S
C1083 C1082 1.524 . S
C1083 C1084 1.415 . S
C1084 H1060 0.950 . S
C1084 C1079 1.363 . S
C1084 C1083 1.415 . S
C1085 H1061 0.951 . S
C1085 C1086 1.366 . S
C1085 C1087 1.388 . S
C1086 C1085 1.366 . S
C1086 C1090 1.385 . S
C1087 H1062 0.951 . S
C1087 C1085 1.388 . S
C1087 C1088 1.366 . S
C1088 C1087 1.366 . S
C1088 C1089 1.414 . S
C1088 C1091 1.499 . S
C1089 H1063 0.950 . S
C1089 C1088 1.414 . S
C1089 C1090 1.374 . S
C1090 H1064 0.950 . S
C1090 C1086 1.385 . S
C1090 C1089 1.374 . S
C1091 C1088 1.499 . S
C1091 C1092 1.373 . S
C1091 C1093 1.389 . S
C1092 H1065 0.950 . S
C1092 C1078 1.377 . S
C1092 C1091 1.373 . S
C1093 C1077 1.377 . S
C1093 C1091 1.389 . S
C1093 C1094 1.524 . S
C1094 C1093 1.524 . S
C1094 C1095 1.397 . S
C1094 C1099 1.363 . S
C1095 H1066 0.950 . S
C1095 C1094 1.397 . S
C1095 C1096 1.334 . S
C1096 H1067 0.950 . S
C1096 C1095 1.334 . S
C1096 C1097 1.287 . S
C1097 C1096 1.287 . S
C1097 C1098 1.524 . S
C1097 H1100 0.999 . S
C1098 H1068 0.950 . S
C1098 C1097 1.524 . S
C1098 C1099 1.415 . S
C1099 H1069 0.950 . S
C1099 C1094 1.363 . S
C1099 C1098 1.415 . S
H1100 C1097 0.999 . S
H1101 C1082 0.913 . S
H1102 C1120 0.951 . S
H1103 C1122 0.951 . S
H1104 C1124 0.950 . S
H1105 C1125 0.950 . S
H1106 C1127 0.950 . S
H1107 C1130 0.950 . S
H1108 C1131 0.950 . S
H1109 C1133 0.950 . S
H1110 C1134 0.950 . S
H1111 C1135 0.951 . S
H1112 C1137 0.951 . S
H1113 C1139 0.950 . S
H1114 C1140 0.950 . S
H1115 C1142 0.950 . S
H1116 C1145 0.950 . S
H1117 C1146 0.950 . S
H1118 C1148 0.926 1_655 S
H1119 C1149 0.950 . S
C1120 H1102 0.951 . S
C1120 C1121 1.366 . S
C1120 C1122 1.388 . S
C1121 C1120 1.366 . S
C1121 C1125 1.385 . S
C1122 H1103 0.951 . S
C1122 C1120 1.388 . S
C1122 C1123 1.366 . S
C1123 C1122 1.366 . S
C1123 C1124 1.414 . S
C1123 C1126 1.499 . S
C1124 H1104 0.950 . S
C1124 C1123 1.414 . S
C1124 C1125 1.374 . S
C1125 H1105 0.950 . S
C1125 C1121 1.385 . S
C1125 C1124 1.374 . S
C1126 C1123 1.499 . S
C1126 C1127 1.373 . S
C1126 C1128 1.389 . S
C1127 H1106 0.950 . S
C1127 C1126 1.373 . S
C1127 C1143 1.377 . S
C1128 C1126 1.389 . S
C1128 C1129 1.524 . S
C1128 C1142 1.377 . S
C1129 C1128 1.524 . S
C1129 C1130 1.397 . S
C1129 C1134 1.363 . S
C1130 H1107 0.950 . S
C1130 C1129 1.397 . S
C1130 C1131 1.334 . S
C1131 H1108 0.950 . S
C1131 C1130 1.334 . S
C1131 C1132 1.287 . S
C1132 C1131 1.287 . S
C1132 C1133 1.524 . S
C1132 H1151 0.913 . S
C1133 H1109 0.950 . S
C1133 C1132 1.524 . S
C1133 C1134 1.415 . S
C1134 H1110 0.950 . S
C1134 C1129 1.363 . S
C1134 C1133 1.415 . S
C1135 H1111 0.951 . S
C1135 C1136 1.366 . S
C1135 C1137 1.388 . S
C1136 C1135 1.366 . S
C1136 C1140 1.385 . S
C1137 H1112 0.951 . S
C1137 C1135 1.388 . S
C1137 C1138 1.366 . S
C1138 C1137 1.366 . S
C1138 C1139 1.414 . S
C1138 C1141 1.499 . S
C1139 H1113 0.950 . S
C1139 C1138 1.414 . S
C1139 C1140 1.374 . S
C1140 H1114 0.950 . S
C1140 C1136 1.385 . S
C1140 C1139 1.374 . S
C1141 C1138 1.499 . S
C1141 C1142 1.373 . S
C1141 C1143 1.389 . S
C1142 H1115 0.950 . S
C1142 C1128 1.377 . S
C1142 C1141 1.373 . S
C1143 C1127 1.377 . S
C1143 C1141 1.389 . S
C1143 C1144 1.524 . S
C1144 C1143 1.524 . S
C1144 C1145 1.397 . S
C1144 C1149 1.363 . S
C1145 H1116 0.950 . S
C1145 C1144 1.397 . S
C1145 C1146 1.334 . S
C1146 H1117 0.950 . S
C1146 C1145 1.334 . S
C1146 C1147 1.287 1_455 S
C1147 C1146 1.287 1_655 S
C1147 C1148 1.516 1_655 S
C1147 H1150 0.999 . S
C1148 H1118 0.926 1_455 S
C1148 C1147 1.516 1_455 S
C1148 C1149 1.450 . S
C1149 H1119 0.950 . S
C1149 C1144 1.363 . S
C1149 C1148 1.450 . S
H1150 C1147 0.999 . S
H1151 C1132 0.913 . S
H1152 C1170 0.951 . S
H1153 C1172 0.951 . S
H1154 C1174 0.950 . S
H1155 C1175 0.950 . S
H1156 C1177 0.950 . S
H1157 C1180 0.950 . S
H1158 C1181 0.950 . S
H1159 C1183 0.950 . S
H1160 C1184 0.950 . S
H1161 C1185 0.951 . S
H1162 C1187 0.951 . S
H1163 C1189 0.950 . S
H1164 C1190 0.950 . S
H1165 C1192 0.950 . S
H1166 C1195 0.950 . S
H1167 C1196 0.950 . S
H1168 C1198 0.950 . S
H1169 C1199 0.950 . S
C1170 H1152 0.951 . S
C1170 C1171 1.366 . S
C1170 C1172 1.388 . S
C1171 C1170 1.366 . S
C1171 C1175 1.385 . S
C1172 H1153 0.951 . S
C1172 C1170 1.388 . S
C1172 C1173 1.366 . S
C1173 C1172 1.366 . S
C1173 C1174 1.414 . S
C1173 C1176 1.499 . S
C1174 H1154 0.950 . S
C1174 C1173 1.414 . S
C1174 C1175 1.374 . S
C1175 H1155 0.950 . S
C1175 C1171 1.385 . S
C1175 C1174 1.374 . S
C1176 C1173 1.499 . S
C1176 C1177 1.373 . S
C1176 C1178 1.389 . S
C1177 H1156 0.950 . S
C1177 C1176 1.373 . S
C1177 C1193 1.377 . S
C1178 C1176 1.389 . S
C1178 C1179 1.524 . S
C1178 C1192 1.377 . S
C1179 C1178 1.524 . S
C1179 C1180 1.397 . S
C1179 C1184 1.363 . S
C1180 H1157 0.950 . S
C1180 C1179 1.397 . S
C1180 C1181 1.334 . S
C1181 H1158 0.950 . S
C1181 C1180 1.334 . S
C1181 C1182 1.287 . S
C1182 C1181 1.287 . S
C1182 C1183 1.524 . S
C1182 H1201 0.913 . S
C1183 H1159 0.950 . S
C1183 C1182 1.524 . S
C1183 C1184 1.415 . S
C1184 H1160 0.950 . S
C1184 C1179 1.363 . S
C1184 C1183 1.415 . S
C1185 H1161 0.951 . S
C1185 C1186 1.366 . S
C1185 C1187 1.388 . S
C1186 C1185 1.366 . S
C1186 C1190 1.385 . S
C1187 H1162 0.951 . S
C1187 C1185 1.388 . S
C1187 C1188 1.366 . S
C1188 C1187 1.366 . S
C1188 C1189 1.414 . S
C1188 C1191 1.499 . S
C1189 H1163 0.950 . S
C1189 C1188 1.414 . S
C1189 C1190 1.374 . S
C1190 H1164 0.950 . S
C1190 C1186 1.385 . S
C1190 C1189 1.374 . S
C1191 C1188 1.499 . S
C1191 C1192 1.373 . S
C1191 C1193 1.389 . S
C1192 H1165 0.950 . S
C1192 C1178 1.377 . S
C1192 C1191 1.373 . S
C1193 C1177 1.377 . S
C1193 C1191 1.389 . S
C1193 C1194 1.524 . S
C1194 C1193 1.524 . S
C1194 C1195 1.397 . S
C1194 C1199 1.363 . S
C1195 H1166 0.950 . S
C1195 C1194 1.397 . S
C1195 C1196 1.334 . S
C1196 H1167 0.950 . S
C1196 C1195 1.334 . S
C1196 C1197 1.287 . S
C1197 C1196 1.287 . S
C1197 C1198 1.524 . S
C1197 H1200 0.999 . S
C1198 H1168 0.950 . S
C1198 C1197 1.524 . S
C1198 C1199 1.415 . S
C1199 H1169 0.950 . S
C1199 C1194 1.363 . S
C1199 C1198 1.415 . S
H1200 C1197 0.999 . S
H1201 C1182 0.913 . S
H1202 C1220 0.951 . S
H1203 C1222 0.951 . S
H1204 C1224 0.950 . S
H1205 C1225 0.950 . S
H1206 C1227 0.950 1_545 S
H1207 C1230 0.950 . S
H1208 C1231 0.950 . S
H1209 C1233 0.950 . S
H1210 C1234 0.950 . S
H1211 C1235 0.951 . S
H1212 C1237 0.951 . S
H1213 C1239 0.950 . S
H1214 C1240 0.950 . S
H1215 C1242 0.950 . S
H1216 C1245 0.950 . S
H1217 C1246 0.950 . S
H1218 C1248 0.950 . S
H1219 C1249 0.950 . S
C1220 H1202 0.951 . S
C1220 C1221 1.366 1_565 S
C1220 C1222 1.388 . S
C1221 C1220 1.366 1_545 S
C1221 C1225 1.385 . S
C1222 H1203 0.951 . S
C1222 C1220 1.388 . S
C1222 C1223 1.366 . S
C1223 C1222 1.366 . S
C1223 C1224 1.414 1_565 S
C1223 C1226 1.499 . S
C1224 H1204 0.950 . S
C1224 C1223 1.414 1_545 S
C1224 C1225 1.374 . S
C1225 H1205 0.950 . S
C1225 C1221 1.385 . S
C1225 C1224 1.374 . S
C1226 C1223 1.499 . S
C1226 C1227 1.373 . S
C1226 C1228 1.389 . S
C1227 H1206 0.950 1_565 S
C1227 C1226 1.373 . S
C1227 C1243 1.377 . S
C1228 C1226 1.389 . S
C1228 C1229 1.524 . S
C1228 C1242 1.377 . S
C1229 C1228 1.524 . S
C1229 C1230 1.397 . S
C1229 C1234 1.363 . S
C1230 H1207 0.950 . S
C1230 C1229 1.397 . S
C1230 C1231 1.334 . S
C1231 H1208 0.950 . S
C1231 C1230 1.334 . S
C1231 C1232 1.287 . S
C1232 C1231 1.287 . S
C1232 C1233 1.524 . S
C1232 H1251 0.913 . S
C1233 H1209 0.950 . S
C1233 C1232 1.524 . S
C1233 C1234 1.415 . S
C1234 H1210 0.950 . S
C1234 C1229 1.363 . S
C1234 C1233 1.415 . S
C1235 H1211 0.951 . S
C1235 C1236 1.366 . S
C1235 C1237 1.388 . S
C1236 C1235 1.366 . S
C1236 C1240 1.385 . S
C1237 H1212 0.951 . S
C1237 C1235 1.388 . S
C1237 C1238 1.366 . S
C1238 C1237 1.366 . S
C1238 C1239 1.414 . S
C1238 C1241 1.499 . S
C1239 H1213 0.950 . S
C1239 C1238 1.414 . S
C1239 C1240 1.374 . S
C1240 H1214 0.950 . S
C1240 C1236 1.385 . S
C1240 C1239 1.374 . S
C1241 C1238 1.499 . S
C1241 C1242 1.373 . S
C1241 C1243 1.389 . S
C1242 H1215 0.950 . S
C1242 C1228 1.377 . S
C1242 C1241 1.373 . S
C1243 C1227 1.377 . S
C1243 C1241 1.389 . S
C1243 C1244 1.524 . S
C1244 C1243 1.524 . S
C1244 C1245 1.397 . S
C1244 C1249 1.363 1_565 S
C1245 H1216 0.950 . S
C1245 C1244 1.397 . S
C1245 C1246 1.334 . S
C1246 H1217 0.950 . S
C1246 C1245 1.334 . S
C1246 C1247 1.287 . S
C1247 C1246 1.287 . S
C1247 C1248 1.524 1_565 S
C1247 H1250 0.999 . S
C1248 H1218 0.950 . S
C1248 C1247 1.524 1_545 S
C1248 C1249 1.415 . S
C1249 H1219 0.950 . S
C1249 C1244 1.363 1_545 S
C1249 C1248 1.415 . S
H1250 C1247 0.999 . S
H1251 C1232 0.913 . S
H1252 C1270 0.951 . S
H1253 C1272 0.951 . S
H1254 C1274 0.950 . S
H1255 C1275 0.950 . S
H1256 C1277 0.950 . S
H1257 C1280 0.950 . S
H1258 C1281 0.950 . S
H1259 C1283 0.950 . S
H1260 C1284 0.950 . S
H1261 C1285 0.951 . S
H1262 C1287 0.951 . S
H1263 C1289 0.950 . S
H1264 C1290 0.950 . S
H1265 C1292 0.950 . S
H1266 C1295 0.950 . S
H1267 C1296 0.950 . S
H1268 C1298 0.950 1_554 S
H1269 C1299 0.950 1_554 S
C1270 H1252 0.951 . S
C1270 C1271 1.366 . S
C1270 C1272 1.388 . S
C1271 C1270 1.366 . S
C1271 C1275 1.385 . S
C1272 H1253 0.951 . S
C1272 C1270 1.388 . S
C1272 C1273 1.366 . S
C1273 C1272 1.366 . S
C1273 C1274 1.414 . S
C1273 C1276 1.499 . S
C1274 H1254 0.950 . S
C1274 C1273 1.414 . S
C1274 C1275 1.374 . S
C1275 H1255 0.950 . S
C1275 C1271 1.385 . S
C1275 C1274 1.374 . S
C1276 C1273 1.499 . S
C1276 C1277 1.373 . S
C1276 C1278 1.389 1_554 S
C1277 H1256 0.950 . S
C1277 C1276 1.373 . S
C1277 C1293 1.377 1_554 S
C1278 C1276 1.389 1_556 S
C1278 C1279 1.524 . S
C1278 C1292 1.377 . S
C1279 C1278 1.524 . S
C1279 C1280 1.397 1_556 S
C1279 C1284 1.363 . S
C1280 H1257 0.950 . S
C1280 C1279 1.397 1_554 S
C1280 C1281 1.334 . S
C1281 H1258 0.950 . S
C1281 C1280 1.334 . S
C1281 C1282 1.287 . S
C1282 C1281 1.287 . S
C1282 C1283 1.524 1_554 S
C1282 H1301 0.913 . S
C1283 H1259 0.950 . S
C1283 C1282 1.524 1_556 S
C1283 C1284 1.415 . S
C1284 H1260 0.950 . S
C1284 C1279 1.363 . S
C1284 C1283 1.415 . S
C1285 H1261 0.951 . S
C1285 C1286 1.366 . S
C1285 C1287 1.388 . S
C1286 C1285 1.366 . S
C1286 C1290 1.385 . S
C1287 H1262 0.951 . S
C1287 C1285 1.388 . S
C1287 C1288 1.366 . S
C1288 C1287 1.366 . S
C1288 C1289 1.414 . S
C1288 C1291 1.499 . S
C1289 H1263 0.950 . S
C1289 C1288 1.414 . S
C1289 C1290 1.374 . S
C1290 H1264 0.950 . S
C1290 C1286 1.385 . S
C1290 C1289 1.374 . S
C1291 C1288 1.499 . S
C1291 C1292 1.373 . S
C1291 C1293 1.389 . S
C1292 H1265 0.950 . S
C1292 C1278 1.377 . S
C1292 C1291 1.373 . S
C1293 C1277 1.377 1_556 S
C1293 C1291 1.389 . S
C1293 C1294 1.524 . S
C1294 C1293 1.524 . S
C1294 C1295 1.397 . S
C1294 C1299 1.363 . S
C1295 H1266 0.950 . S
C1295 C1294 1.397 . S
C1295 C1296 1.334 . S
C1296 H1267 0.950 . S
C1296 C1295 1.334 . S
C1296 C1297 1.287 . S
C1297 C1296 1.287 . S
C1297 C1298 1.524 . S
C1297 H1300 0.999 . S
C1298 H1268 0.950 1_556 S
C1298 C1297 1.524 . S
C1298 C1299 1.415 . S
C1299 H1269 0.950 1_556 S
C1299 C1294 1.363 . S
C1299 C1298 1.415 . S
H1300 C1297 0.999 . S
H1301 C1282 0.913 . S
H1302 C1320 0.951 . S
H1303 C1322 0.951 . S
H1304 C1324 0.950 . S
H1305 C1325 0.950 . S
H1306 C1327 0.950 . S
H1307 C1330 0.950 . S
H1308 C1331 0.950 . S
H1309 C1333 0.950 . S
H1310 C1334 0.950 . S
H1311 C1335 0.951 . S
H1312 C1337 0.951 . S
H1313 C1339 0.950 . S
H1314 C1340 0.950 1_545 S
H1315 C1342 0.950 . S
H1316 C1345 0.950 . S
H1317 C1346 0.950 . S
H1318 C1348 0.950 1_565 S
H1319 C1349 0.950 . S
C1320 H1302 0.951 . S
C1320 C1321 1.366 . S
C1320 C1322 1.388 . S
C1321 C1320 1.366 . S
C1321 C1325 1.385 . S
C1322 H1303 0.951 . S
C1322 C1320 1.388 . S
C1322 C1323 1.366 . S
C1323 C1322 1.366 . S
C1323 C1324 1.414 . S
C1323 C1326 1.499 . S
C1324 H1304 0.950 . S
C1324 C1323 1.414 . S
C1324 C1325 1.374 . S
C1325 H1305 0.950 . S
C1325 C1321 1.385 . S
C1325 C1324 1.374 . S
C1326 C1323 1.499 . S
C1326 C1327 1.373 . S
C1326 C1328 1.389 . S
C1327 H1306 0.950 . S
C1327 C1326 1.373 . S
C1327 C1343 1.377 . S
C1328 C1326 1.389 . S
C1328 C1329 1.524 . S
C1328 C1342 1.377 . S
C1329 C1328 1.524 . S
C1329 C1330 1.397 . S
C1329 C1334 1.363 . S
C1330 H1307 0.950 . S
C1330 C1329 1.397 . S
C1330 C1331 1.334 . S
C1331 H1308 0.950 . S
C1331 C1330 1.334 . S
C1331 C1332 1.287 . S
C1332 C1331 1.287 . S
C1332 C1333 1.524 . S
C1332 H1351 0.913 . S
C1333 H1309 0.950 . S
C1333 C1332 1.524 . S
C1333 C1334 1.415 . S
C1334 H1310 0.950 . S
C1334 C1329 1.363 . S
C1334 C1333 1.415 . S
C1335 H1311 0.951 . S
C1335 C1336 1.366 . S
C1335 C1337 1.388 . S
C1336 C1335 1.366 . S
C1336 C1340 1.385 . S
C1337 H1312 0.951 . S
C1337 C1335 1.388 . S
C1337 C1338 1.366 1_565 S
C1338 C1337 1.366 1_545 S
C1338 C1339 1.414 . S
C1338 C1341 1.499 . S
C1339 H1313 0.950 . S
C1339 C1338 1.414 . S
C1339 C1340 1.374 1_545 S
C1340 H1314 0.950 1_565 S
C1340 C1336 1.385 . S
C1340 C1339 1.374 1_565 S
C1341 C1338 1.499 . S
C1341 C1342 1.373 . S
C1341 C1343 1.389 . S
C1342 H1315 0.950 . S
C1342 C1328 1.377 . S
C1342 C1341 1.373 . S
C1343 C1327 1.377 . S
C1343 C1341 1.389 . S
C1343 C1344 1.524 . S
C1344 C1343 1.524 . S
C1344 C1345 1.397 . S
C1344 C1349 1.363 . S
C1345 H1316 0.950 . S
C1345 C1344 1.397 . S
C1345 C1346 1.334 . S
C1346 H1317 0.950 . S
C1346 C1345 1.334 . S
C1346 C1347 1.287 . S
C1347 C1346 1.287 . S
C1347 C1348 1.524 . S
C1347 H1350 0.999 . S
C1348 H1318 0.950 1_545 S
C1348 C1347 1.524 . S
C1348 C1349 1.415 . S
C1349 H1319 0.950 . S
C1349 C1344 1.363 . S
C1349 C1348 1.415 . S
H1350 C1347 0.999 . S
H1351 C1332 0.913 . S
H1352 C1370 0.951 . S
H1353 C1372 0.951 . S
H1354 C1374 0.950 . S
H1355 C1375 0.950 . S
H1356 C1377 0.950 . S
H1357 C1380 0.950 . S
H1358 C1381 0.950 . S
H1359 C1383 0.950 . S
H1360 C1384 0.950 . S
H1361 C1385 0.951 . S
H1362 C1387 0.951 . S
H1363 C1389 0.950 . S
H1364 C1390 0.950 . S
H1365 C1392 0.950 . S
H1366 C1395 0.950 . S
H1367 C1396 0.950 . S
H1368 C1398 0.950 . S
H1369 C1399 0.950 . S
C1370 H1352 0.951 . S
C1370 C1371 1.366 . S
C1370 C1372 1.388 . S
C1371 C1370 1.366 . S
C1371 C1375 1.385 . S
C1372 H1353 0.951 . S
C1372 C1370 1.388 . S
C1372 C1373 1.366 . S
C1373 C1372 1.366 . S
C1373 C1374 1.414 . S
C1373 C1376 1.499 . S
C1374 H1354 0.950 . S
C1374 C1373 1.414 . S
C1374 C1375 1.374 . S
C1375 H1355 0.950 . S
C1375 C1371 1.385 . S
C1375 C1374 1.374 . S
C1376 C1373 1.499 . S
C1376 C1377 1.373 . S
C1376 C1378 1.389 . S
C1377 H1356 0.950 . S
C1377 C1376 1.373 . S
C1377 C1393 1.377 . S
C1378 C1376 1.389 . S
C1378 C1379 1.524 . S
C1378 C1392 1.377 . S
C1379 C1378 1.524 . S
C1379 C1380 1.397 . S
C1379 C1384 1.363 . S
C1380 H1357 0.950 . S
C1380 C1379 1.397 . S
C1380 C1381 1.334 . S
C1381 H1358 0.950 . S
C1381 C1380 1.334 . S
C1381 C1382 1.287 . S
C1382 C1381 1.287 . S
C1382 C1383 1.524 . S
C1382 H1401 0.913 . S
C1383 H1359 0.950 . S
C1383 C1382 1.524 . S
C1383 C1384 1.415 . S
C1384 H1360 0.950 . S
C1384 C1379 1.363 . S
C1384 C1383 1.415 . S
C1385 H1361 0.951 . S
C1385 C1386 1.366 . S
C1385 C1387 1.388 . S
C1386 C1385 1.366 . S
C1386 C1390 1.385 . S
C1387 H1362 0.951 . S
C1387 C1385 1.388 . S
C1387 C1388 1.366 . S
C1388 C1387 1.366 . S
C1388 C1389 1.414 . S
C1388 C1391 1.499 . S
C1389 H1363 0.950 . S
C1389 C1388 1.414 . S
C1389 C1390 1.374 . S
C1390 H1364 0.950 . S
C1390 C1386 1.385 . S
C1390 C1389 1.374 . S
C1391 C1388 1.499 . S
C1391 C1392 1.373 . S
C1391 C1393 1.389 . S
C1392 H1365 0.950 . S
C1392 C1378 1.377 . S
C1392 C1391 1.373 . S
C1393 C1377 1.377 . S
C1393 C1391 1.389 . S
C1393 C1394 1.524 . S
C1394 C1393 1.524 . S
C1394 C1395 1.397 . S
C1394 C1399 1.363 . S
C1395 H1366 0.950 . S
C1395 C1394 1.397 . S
C1395 C1396 1.334 . S
C1396 H1367 0.950 . S
C1396 C1395 1.334 . S
C1396 C1397 1.287 . S
C1397 C1396 1.287 . S
C1397 C1398 1.524 . S
C1397 H1400 0.999 . S
C1398 H1368 0.950 . S
C1398 C1397 1.524 . S
C1398 C1399 1.415 . S
C1399 H1369 0.950 . S
C1399 C1394 1.363 . S
C1399 C1398 1.415 . S
H1400 C1397 0.999 . S
H1401 C1382 0.913 . S
H1402 C1420 0.951 . S
H1403 C1422 0.951 . S
H1404 C1424 0.950 . S
H1405 C1425 0.950 1_545 S
H1406 C1427 0.950 . S
H1407 C1430 0.950 . S
H1408 C1431 0.950 . S
H1409 C1433 0.950 . S
H1410 C1434 0.950 . S
H1411 C1435 0.951 . S
H1412 C1437 0.951 . S
H1413 C1439 0.950 . S
H1414 C1440 0.950 . S
H1415 C1442 0.950 . S
H1416 C1445 0.950 . S
H1417 C1446 0.950 . S
H1418 C1448 0.950 . S
H1419 C1449 0.950 . S
C1420 H1402 0.951 . S
C1420 C1421 1.366 . S
C1420 C1422 1.388 . S
C1421 C1420 1.366 . S
C1421 C1425 1.385 . S
C1422 H1403 0.951 . S
C1422 C1420 1.388 . S
C1422 C1423 1.366 1_565 S
C1423 C1422 1.366 1_545 S
C1423 C1424 1.414 . S
C1423 C1426 1.499 . S
C1424 H1404 0.950 . S
C1424 C1423 1.414 . S
C1424 C1425 1.374 1_545 S
C1425 H1405 0.950 1_565 S
C1425 C1421 1.385 . S
C1425 C1424 1.374 1_565 S
C1426 C1423 1.499 . S
C1426 C1427 1.373 . S
C1426 C1428 1.389 . S
C1427 H1406 0.950 . S
C1427 C1426 1.373 . S
C1427 C1443 1.377 . S
C1428 C1426 1.389 . S
C1428 C1429 1.524 1_545 S
C1428 C1442 1.377 . S
C1429 C1428 1.524 1_565 S
C1429 C1430 1.397 . S
C1429 C1434 1.363 . S
C1430 H1407 0.950 . S
C1430 C1429 1.397 . S
C1430 C1431 1.334 . S
C1431 H1408 0.950 . S
C1431 C1430 1.334 . S
C1431 C1432 1.287 . S
C1432 C1431 1.287 . S
C1432 C1433 1.524 . S
C1432 H1451 0.913 . S
C1433 H1409 0.950 . S
C1433 C1432 1.524 . S
C1433 C1434 1.415 . S
C1434 H1410 0.950 . S
C1434 C1429 1.363 . S
C1434 C1433 1.415 . S
C1435 H1411 0.951 . S
C1435 C1436 1.366 . S
C1435 C1437 1.388 . S
C1436 C1435 1.366 . S
C1436 C1440 1.385 . S
C1437 H1412 0.951 . S
C1437 C1435 1.388 . S
C1437 C1438 1.366 . S
C1438 C1437 1.366 . S
C1438 C1439 1.414 . S
C1438 C1441 1.499 . S
C1439 H1413 0.950 . S
C1439 C1438 1.414 . S
C1439 C1440 1.374 . S
C1440 H1414 0.950 . S
C1440 C1436 1.385 . S
C1440 C1439 1.374 . S
C1441 C1438 1.499 . S
C1441 C1442 1.373 . S
C1441 C1443 1.389 . S
C1442 H1415 0.950 . S
C1442 C1428 1.377 . S
C1442 C1441 1.373 . S
C1443 C1427 1.377 . S
C1443 C1441 1.389 . S
C1443 C1444 1.524 . S
C1444 C1443 1.524 . S
C1444 C1445 1.397 . S
C1444 C1449 1.363 . S
C1445 H1416 0.950 . S
C1445 C1444 1.397 . S
C1445 C1446 1.334 . S
C1446 H1417 0.950 . S
C1446 C1445 1.334 . S
C1446 C1447 1.287 . S
C1447 C1446 1.287 . S
C1447 C1448 1.524 . S
C1447 H1450 0.999 . S
C1448 H1418 0.950 . S
C1448 C1447 1.524 . S
C1448 C1449 1.415 . S
C1449 H1419 0.950 . S
C1449 C1444 1.363 . S
C1449 C1448 1.415 . S
H1450 C1447 0.999 . S
H1451 C1432 0.913 . S
H1452 C1470 0.951 . S
H1453 C1472 0.951 . S
H1454 C1474 0.950 . S
H1455 C1475 0.950 . S
H1456 C1477 0.950 . S
H1457 C1480 0.950 . S
H1458 C1481 0.950 . S
H1459 C1483 0.950 . S
H1460 C1484 0.950 . S
H1461 C1485 0.951 . S
H1462 C1487 0.951 . S
H1463 C1489 0.950 . S
H1464 C1490 0.950 . S
H1465 C1492 0.950 . S
H1466 C1495 0.950 . S
H1467 C1496 0.950 . S
H1468 C1498 0.950 . S
H1469 C1499 0.950 . S
C1470 H1452 0.951 . S
C1470 C1471 1.366 . S
C1470 C1472 1.388 . S
C1471 C1470 1.366 . S
C1471 C1475 1.385 . S
C1472 H1453 0.951 . S
C1472 C1470 1.388 . S
C1472 C1473 1.366 . S
C1473 C1472 1.366 . S
C1473 C1474 1.414 . S
C1473 C1476 1.499 . S
C1474 H1454 0.950 . S
C1474 C1473 1.414 . S
C1474 C1475 1.374 . S
C1475 H1455 0.950 . S
C1475 C1471 1.385 . S
C1475 C1474 1.374 . S
C1476 C1473 1.499 . S
C1476 C1477 1.373 . S
C1476 C1478 1.389 . S
C1477 H1456 0.950 . S
C1477 C1476 1.373 . S
C1477 C1493 1.377 1_554 S
C1478 C1476 1.389 . S
C1478 C1479 1.524 . S
C1478 C1492 1.377 . S
C1479 C1478 1.524 . S
C1479 C1480 1.397 . S
C1479 C1484 1.363 . S
C1480 H1457 0.950 . S
C1480 C1479 1.397 . S
C1480 C1481 1.334 . S
C1481 H1458 0.950 . S
C1481 C1480 1.334 . S
C1481 C1482 1.287 . S
C1482 C1481 1.287 . S
C1482 C1483 1.524 . S
C1482 H1501 0.913 . S
C1483 H1459 0.950 . S
C1483 C1482 1.524 . S
C1483 C1484 1.415 . S
C1484 H1460 0.950 . S
C1484 C1479 1.363 . S
C1484 C1483 1.415 . S
C1485 H1461 0.951 . S
C1485 C1486 1.366 . S
C1485 C1487 1.388 . S
C1486 C1485 1.366 . S
C1486 C1490 1.385 . S
C1487 H1462 0.951 . S
C1487 C1485 1.388 . S
C1487 C1488 1.366 . S
C1488 C1487 1.366 . S
C1488 C1489 1.414 . S
C1488 C1491 1.499 . S
C1489 H1463 0.950 . S
C1489 C1488 1.414 . S
C1489 C1490 1.374 . S
C1490 H1464 0.950 . S
C1490 C1486 1.385 . S
C1490 C1489 1.374 . S
C1491 C1488 1.499 . S
C1491 C1492 1.373 1_556 S
C1491 C1493 1.389 . S
C1492 H1465 0.950 . S
C1492 C1478 1.377 . S
C1492 C1491 1.373 1_554 S
C1493 C1477 1.377 1_556 S
C1493 C1491 1.389 . S
C1493 C1494 1.524 . S
C1494 C1493 1.524 . S
C1494 C1495 1.397 . S
C1494 C1499 1.363 . S
C1495 H1466 0.950 . S
C1495 C1494 1.397 . S
C1495 C1496 1.334 . S
C1496 H1467 0.950 . S
C1496 C1495 1.334 . S
C1496 C1497 1.287 . S
C1497 C1496 1.287 . S
C1497 C1498 1.524 . S
C1497 H1500 0.999 . S
C1498 H1468 0.950 . S
C1498 C1497 1.524 . S
C1498 C1499 1.415 . S
C1499 H1469 0.950 . S
C1499 C1494 1.363 . S
C1499 C1498 1.415 . S
H1500 C1497 0.999 . S
H1501 C1482 0.913 . S
H1502 C1520 0.951 . S
H1503 C1522 0.951 . S
H1504 C1524 0.950 . S
H1505 C1525 0.950 1_565 S
H1506 C1527 0.950 . S
H1507 C1530 0.950 . S
H1508 C1531 0.950 . S
H1509 C1533 0.950 . S
H1510 C1534 0.950 . S
H1511 C1535 0.951 . S
H1512 C1537 0.951 . S
H1513 C1539 0.950 . S
H1514 C1540 0.950 . S
H1515 C1542 0.950 . S
H1516 C1545 0.950 . S
H1517 C1546 0.950 . S
H1518 C1548 0.950 . S
H1519 C1549 0.950 . S
C1520 H1502 0.951 . S
C1520 C1521 1.366 . S
C1520 C1522 1.388 . S
C1521 C1520 1.366 . S
C1521 C1525 1.385 . S
C1522 H1503 0.951 . S
C1522 C1520 1.388 . S
C1522 C1523 1.366 1_545 S
C1523 C1522 1.366 1_565 S
C1523 C1524 1.414 . S
C1523 C1526 1.499 . S
C1524 H1504 0.950 . S
C1524 C1523 1.414 . S
C1524 C1525 1.374 1_565 S
C1525 H1505 0.950 1_545 S
C1525 C1521 1.385 . S
C1525 C1524 1.374 1_545 S
C1526 C1523 1.499 . S
C1526 C1527 1.373 . S
C1526 C1528 1.389 . S
C1527 H1506 0.950 . S
C1527 C1526 1.373 . S
C1527 C1543 1.377 . S
C1528 C1526 1.389 . S
C1528 C1529 1.524 1_565 S
C1528 C1542 1.377 . S
C1529 C1528 1.524 1_545 S
C1529 C1530 1.397 . S
C1529 C1534 1.363 . S
C1530 H1507 0.950 . S
C1530 C1529 1.397 . S
C1530 C1531 1.334 . S
C1531 H1508 0.950 . S
C1531 C1530 1.334 . S
C1531 C1532 1.287 . S
C1532 C1531 1.287 . S
C1532 C1533 1.524 . S
C1532 H1551 0.913 . S
C1533 H1509 0.950 . S
C1533 C1532 1.524 . S
C1533 C1534 1.415 . S
C1534 H1510 0.950 . S
C1534 C1529 1.363 . S
C1534 C1533 1.415 . S
C1535 H1511 0.951 . S
C1535 C1536 1.366 . S
C1535 C1537 1.388 . S
C1536 C1535 1.366 . S
C1536 C1540 1.385 . S
C1537 H1512 0.951 . S
C1537 C1535 1.388 . S
C1537 C1538 1.366 . S
C1538 C1537 1.366 . S
C1538 C1539 1.414 . S
C1538 C1541 1.499 . S
C1539 H1513 0.950 . S
C1539 C1538 1.414 . S
C1539 C1540 1.374 . S
C1540 H1514 0.950 . S
C1540 C1536 1.385 . S
C1540 C1539 1.374 . S
C1541 C1538 1.499 . S
C1541 C1542 1.373 . S
C1541 C1543 1.389 . S
C1542 H1515 0.950 . S
C1542 C1528 1.377 . S
C1542 C1541 1.373 . S
C1543 C1527 1.377 . S
C1543 C1541 1.389 . S
C1543 C1544 1.524 . S
C1544 C1543 1.524 . S
C1544 C1545 1.397 . S
C1544 C1549 1.363 . S
C1545 H1516 0.950 . S
C1545 C1544 1.397 . S
C1545 C1546 1.334 . S
C1546 H1517 0.950 . S
C1546 C1545 1.334 . S
C1546 C1547 1.287 . S
C1547 C1546 1.287 . S
C1547 C1548 1.524 . S
C1547 H1550 0.999 . S
C1548 H1518 0.950 . S
C1548 C1547 1.524 . S
C1548 C1549 1.415 . S
C1549 H1519 0.950 . S
C1549 C1544 1.363 . S
C1549 C1548 1.415 . S
H1550 C1547 0.999 . S
H1551 C1532 0.913 . S
H1552 C1570 0.951 . S
H1553 C1572 0.951 . S
H1554 C1574 0.950 . S
H1555 C1575 0.950 . S
H1556 C1577 0.950 . S
H1557 C1580 0.950 . S
H1558 C1581 0.950 . S
H1559 C1583 0.950 . S
H1560 C1584 0.950 . S
H1561 C1585 0.951 . S
H1562 C1587 0.951 . S
H1563 C1589 0.950 . S
H1564 C1590 0.950 . S
H1565 C1592 0.950 . S
H1566 C1595 0.950 . S
H1567 C1596 0.950 . S
H1568 C1598 0.950 . S
H1569 C1599 0.950 . S
C1570 H1552 0.951 . S
C1570 C1571 1.366 . S
C1570 C1572 1.388 . S
C1571 C1570 1.366 . S
C1571 C1575 1.385 . S
C1572 H1553 0.951 . S
C1572 C1570 1.388 . S
C1572 C1573 1.366 . S
C1573 C1572 1.366 . S
C1573 C1574 1.414 . S
C1573 C1576 1.499 . S
C1574 H1554 0.950 . S
C1574 C1573 1.414 . S
C1574 C1575 1.374 . S
C1575 H1555 0.950 . S
C1575 C1571 1.385 . S
C1575 C1574 1.374 . S
C1576 C1573 1.499 . S
C1576 C1577 1.373 . S
C1576 C1578 1.389 . S
C1577 H1556 0.950 . S
C1577 C1576 1.373 . S
C1577 C1593 1.377 . S
C1578 C1576 1.389 . S
C1578 C1579 1.524 . S
C1578 C1592 1.377 . S
C1579 C1578 1.524 . S
C1579 C1580 1.397 . S
C1579 C1584 1.363 . S
C1580 H1557 0.950 . S
C1580 C1579 1.397 . S
C1580 C1581 1.334 . S
C1581 H1558 0.950 . S
C1581 C1580 1.334 . S
C1581 C1582 1.287 . S
C1582 C1581 1.287 . S
C1582 C1583 1.524 . S
C1582 H1601 0.913 . S
C1583 H1559 0.950 . S
C1583 C1582 1.524 . S
C1583 C1584 1.415 . S
C1584 H1560 0.950 . S
C1584 C1579 1.363 . S
C1584 C1583 1.415 . S
C1585 H1561 0.951 . S
C1585 C1586 1.366 . S
C1585 C1587 1.388 . S
C1586 C1585 1.366 . S
C1586 C1590 1.385 . S
C1587 H1562 0.951 . S
C1587 C1585 1.388 . S
C1587 C1588 1.366 . S
C1588 C1587 1.366 . S
C1588 C1589 1.414 . S
C1588 C1591 1.499 . S
C1589 H1563 0.950 . S
C1589 C1588 1.414 . S
C1589 C1590 1.374 . S
C1590 H1564 0.950 . S
C1590 C1586 1.385 . S
C1590 C1589 1.374 . S
C1591 C1588 1.499 . S
C1591 C1592 1.373 . S
C1591 C1593 1.389 . S
C1592 H1565 0.950 . S
C1592 C1578 1.377 . S
C1592 C1591 1.373 . S
C1593 C1577 1.377 . S
C1593 C1591 1.389 . S
C1593 C1594 1.524 . S
C1594 C1593 1.524 . S
C1594 C1595 1.397 . S
C1594 C1599 1.363 . S
C1595 H1566 0.950 . S
C1595 C1594 1.397 . S
C1595 C1596 1.334 . S
C1596 H1567 0.950 . S
C1596 C1595 1.334 . S
C1596 C1597 1.287 . S
C1597 C1596 1.287 . S
C1597 C1598 1.524 . S
C1597 H1600 0.999 . S
C1598 H1568 0.950 . S
C1598 C1597 1.524 . S
C1598 C1599 1.415 . S
C1599 H1569 0.950 . S
C1599 C1594 1.363 . S
C1599 C1598 1.415 . S
H1600 C1597 0.999 . S
H1601 C1582 0.913 . S
H1602 C1620 0.951 . S
H1603 C1622 0.951 . S
H1604 C1624 0.950 . S
H1605 C1625 0.950 . S
H1606 C1627 0.950 . S
H1607 C1630 0.950 . S
H1608 C1631 0.950 . S
H1609 C1633 0.950 . S
H1610 C1634 0.950 . S
H1611 C1635 0.951 . S
H1612 C1637 0.951 . S
H1613 C1639 0.950 . S
H1614 C1640 0.950 . S
H1615 C1642 0.950 . S
H1616 C1645 0.950 . S
H1617 C1646 0.950 . S
H1618 C1648 0.950 . S
H1619 C1649 0.950 . S
C1620 H1602 0.951 . S
C1620 C1621 1.366 . S
C1620 C1622 1.388 . S
C1621 C1620 1.366 . S
C1621 C1625 1.385 . S
C1622 H1603 0.951 . S
C1622 C1620 1.388 . S
C1622 C1623 1.366 . S
C1623 C1622 1.366 . S
C1623 C1624 1.414 . S
C1623 C1626 1.499 . S
C1624 H1604 0.950 . S
C1624 C1623 1.414 . S
C1624 C1625 1.374 . S
C1625 H1605 0.950 . S
C1625 C1621 1.385 . S
C1625 C1624 1.374 . S
C1626 C1623 1.499 . S
C1626 C1627 1.373 . S
C1626 C1628 1.389 . S
C1627 H1606 0.950 . S
C1627 C1626 1.373 . S
C1627 C1643 1.377 . S
C1628 C1626 1.389 . S
C1628 C1629 1.524 . S
C1628 C1642 1.377 . S
C1629 C1628 1.524 . S
C1629 C1630 1.397 . S
C1629 C1634 1.363 . S
C1630 H1607 0.950 . S
C1630 C1629 1.397 . S
C1630 C1631 1.334 . S
C1631 H1608 0.950 . S
C1631 C1630 1.334 . S
C1631 C1632 1.287 . S
C1632 C1631 1.287 . S
C1632 C1633 1.524 . S
C1632 H1651 0.913 . S
C1633 H1609 0.950 . S
C1633 C1632 1.524 . S
C1633 C1634 1.415 . S
C1634 H1610 0.950 . S
C1634 C1629 1.363 . S
C1634 C1633 1.415 . S
C1635 H1611 0.951 . S
C1635 C1636 1.366 . S
C1635 C1637 1.388 . S
C1636 C1635 1.366 . S
C1636 C1640 1.385 . S
C1637 H1612 0.951 . S
C1637 C1635 1.388 . S
C1637 C1638 1.366 . S
C1638 C1637 1.366 . S
C1638 C1639 1.414 . S
C1638 C1641 1.499 . S
C1639 H1613 0.950 . S
C1639 C1638 1.414 . S
C1639 C1640 1.374 . S
C1640 H1614 0.950 . S
C1640 C1636 1.385 . S
C1640 C1639 1.374 . S
C1641 C1638 1.499 . S
C1641 C1642 1.373 . S
C1641 C1643 1.389 . S
C1642 H1615 0.950 . S
C1642 C1628 1.377 . S
C1642 C1641 1.373 . S
C1643 C1627 1.377 . S
C1643 C1641 1.389 . S
C1643 C1644 1.524 . S
C1644 C1643 1.524 . S
C1644 C1645 1.397 . S
C1644 C1649 1.363 . S
C1645 H1616 0.950 . S
C1645 C1644 1.397 . S
C1645 C1646 1.334 . S
C1646 H1617 0.950 . S
C1646 C1645 1.334 . S
C1646 C1647 1.287 . S
C1647 C1646 1.287 . S
C1647 C1648 1.524 . S
C1647 H1650 0.999 . S
C1648 H1618 0.950 . S
C1648 C1647 1.524 . S
C1648 C1649 1.415 . S
C1649 H1619 0.950 . S
C1649 C1644 1.363 . S
C1649 C1648 1.415 . S
H1650 C1647 0.999 . S
H1651 C1632 0.913 . S
H1652 C1670 0.951 . S
H1653 C1672 0.951 . S
H1654 C1674 0.950 . S
H1655 C1675 0.950 . S
H1656 C1677 0.950 . S
H1657 C1680 0.950 . S
H1658 C1681 0.943 1_655 S
H1659 C1683 0.950 . S
H1660 C1684 0.950 . S
H1661 C1685 0.951 . S
H1662 C1687 0.951 . S
H1663 C1689 0.950 . S
H1664 C1690 0.950 . S
H1665 C1692 0.950 . S
H1666 C1695 0.950 . S
H1667 C1696 0.943 1_455 S
H1668 C1698 0.950 . S
H1669 C1699 0.950 . S
C1670 H1652 0.951 . S
C1670 C1671 1.366 . S
C1670 C1672 1.388 . S
C1671 C1670 1.366 . S
C1671 C1675 1.385 . S
C1672 H1653 0.951 . S
C1672 C1670 1.388 . S
C1672 C1673 1.366 . S
C1673 C1672 1.366 . S
C1673 C1674 1.414 . S
C1673 C1676 1.499 . S
C1674 H1654 0.950 . S
C1674 C1673 1.414 . S
C1674 C1675 1.374 . S
C1675 H1655 0.950 . S
C1675 C1671 1.385 . S
C1675 C1674 1.374 . S
C1676 C1673 1.499 . S
C1676 C1677 1.373 . S
C1676 C1678 1.390 . S
C1677 H1656 0.950 . S
C1677 C1676 1.373 . S
C1677 C1693 1.376 1_655 S
C1678 C1676 1.390 . S
C1678 C1679 1.524 1_655 S
C1678 C1692 1.376 1_655 S
C1679 C1678 1.524 1_455 S
C1679 C1680 1.397 1_455 S
C1679 C1684 1.363 . S
C1680 H1657 0.950 . S
C1680 C1679 1.397 1_655 S
C1680 C1681 1.331 1_655 S
C1681 H1658 0.943 1_455 S
C1681 C1680 1.331 1_455 S
C1681 C1682 1.299 . S
C1682 C1681 1.299 . S
C1682 C1683 1.524 . S
C1682 H1701 0.913 . S
C1683 H1659 0.950 . S
C1683 C1682 1.524 . S
C1683 C1684 1.415 . S
C1684 H1660 0.950 . S
C1684 C1679 1.363 . S
C1684 C1683 1.415 . S
C1685 H1661 0.951 . S
C1685 C1686 1.366 . S
C1685 C1687 1.388 . S
C1686 C1685 1.366 . S
C1686 C1690 1.385 . S
C1687 H1662 0.951 . S
C1687 C1685 1.388 . S
C1687 C1688 1.366 . S
C1688 C1687 1.366 . S
C1688 C1689 1.414 . S
C1688 C1691 1.499 . S
C1689 H1663 0.950 . S
C1689 C1688 1.414 . S
C1689 C1690 1.374 . S
C1690 H1664 0.950 . S
C1690 C1686 1.385 . S
C1690 C1689 1.374 . S
C1691 C1688 1.499 . S
C1691 C1692 1.373 . S
C1691 C1693 1.390 . S
C1692 H1665 0.950 . S
C1692 C1678 1.376 1_455 S
C1692 C1691 1.373 . S
C1693 C1677 1.376 1_455 S
C1693 C1691 1.390 . S
C1693 C1694 1.524 1_455 S
C1694 C1693 1.524 1_655 S
C1694 C1695 1.397 1_655 S
C1694 C1699 1.363 . S
C1695 H1666 0.950 . S
C1695 C1694 1.397 1_455 S
C1695 C1696 1.331 1_455 S
C1696 H1667 0.943 1_655 S
C1696 C1695 1.331 1_655 S
C1696 C1697 1.299 . S
C1697 C1696 1.299 . S
C1697 C1698 1.524 . S
C1697 H1700 0.999 . S
C1698 H1668 0.950 . S
C1698 C1697 1.524 . S
C1698 C1699 1.415 . S
C1699 H1669 0.950 . S
C1699 C1694 1.363 . S
C1699 C1698 1.415 . S
H1700 C1697 0.999 . S
H1701 C1682 0.913 . S
H1702 C1720 0.951 . S
H1703 C1722 0.951 . S
H1704 C1724 0.950 . S
H1705 C1725 0.950 . S
H1706 C1727 0.950 . S
H1707 C1730 0.950 1_655 S
H1708 C1731 0.950 1_655 S
H1709 C1733 0.950 . S
H1710 C1734 0.950 . S
H1711 C1735 0.951 . S
H1712 C1737 0.951 . S
H1713 C1739 0.950 . S
H1714 C1740 0.950 . S
H1715 C1742 0.950 . S
H1716 C1745 0.950 1_455 S
H1717 C1746 0.950 1_455 S
H1718 C1748 0.950 . S
H1719 C1749 0.950 . S
C1720 H1702 0.951 . S
C1720 C1721 1.366 . S
C1720 C1722 1.388 . S
C1721 C1720 1.366 . S
C1721 C1725 1.385 . S
C1722 H1703 0.951 . S
C1722 C1720 1.388 . S
C1722 C1723 1.366 . S
C1723 C1722 1.366 . S
C1723 C1724 1.414 . S
C1723 C1726 1.499 . S
C1724 H1704 0.950 . S
C1724 C1723 1.414 . S
C1724 C1725 1.374 . S
C1725 H1705 0.950 . S
C1725 C1721 1.385 . S
C1725 C1724 1.374 . S
C1726 C1723 1.499 . S
C1726 C1727 1.373 . S
C1726 C1728 1.389 1_655 S
C1727 H1706 0.950 . S
C1727 C1726 1.373 . S
C1727 C1743 1.377 . S
C1728 C1726 1.389 1_455 S
C1728 C1729 1.524 . S
C1728 C1742 1.377 . S
C1729 C1728 1.524 . S
C1729 C1730 1.397 . S
C1729 C1734 1.363 . S
C1730 H1707 0.950 1_455 S
C1730 C1729 1.397 . S
C1730 C1731 1.334 . S
C1731 H1708 0.950 1_455 S
C1731 C1730 1.334 . S
C1731 C1732 1.287 . S
C1732 C1731 1.287 . S
C1732 C1733 1.524 . S
C1732 H1751 0.913 . S
C1733 H1709 0.950 . S
C1733 C1732 1.524 . S
C1733 C1734 1.415 . S
C1734 H1710 0.950 . S
C1734 C1729 1.363 . S
C1734 C1733 1.415 . S
C1735 H1711 0.951 . S
C1735 C1736 1.366 . S
C1735 C1737 1.388 . S
C1736 C1735 1.366 . S
C1736 C1740 1.385 . S
C1737 H1712 0.951 . S
C1737 C1735 1.388 . S
C1737 C1738 1.366 . S
C1738 C1737 1.366 . S
C1738 C1739 1.414 . S
C1738 C1741 1.499 . S
C1739 H1713 0.950 . S
C1739 C1738 1.414 . S
C1739 C1740 1.374 . S
C1740 H1714 0.950 . S
C1740 C1736 1.385 . S
C1740 C1739 1.374 . S
C1741 C1738 1.499 . S
C1741 C1742 1.373 . S
C1741 C1743 1.389 1_455 S
C1742 H1715 0.950 . S
C1742 C1728 1.377 . S
C1742 C1741 1.373 . S
C1743 C1727 1.377 . S
C1743 C1741 1.389 1_655 S
C1743 C1744 1.524 . S
C1744 C1743 1.524 . S
C1744 C1745 1.397 . S
C1744 C1749 1.363 . S
C1745 H1716 0.950 1_655 S
C1745 C1744 1.397 . S
C1745 C1746 1.334 . S
C1746 H1717 0.950 1_655 S
C1746 C1745 1.334 . S
C1746 C1747 1.287 . S
C1747 C1746 1.287 . S
C1747 C1748 1.524 . S
C1747 H1750 0.999 . S
C1748 H1718 0.950 . S
C1748 C1747 1.524 . S
C1748 C1749 1.415 . S
C1749 H1719 0.950 . S
C1749 C1744 1.363 . S
C1749 C1748 1.415 . S
H1750 C1747 0.999 . S
H1751 C1732 0.913 . S
H1752 C1770 0.951 . S
H1753 C1772 0.951 . S
H1754 C1774 0.950 . S
H1755 C1775 0.950 . S
H1756 C1777 0.950 . S
H1757 C1780 0.950 . S
H1758 C1781 0.950 . S
H1759 C1783 0.950 . S
H1760 C1784 0.950 . S
H1761 C1785 0.951 . S
H1762 C1787 0.951 . S
H1763 C1789 0.950 . S
H1764 C1790 0.950 . S
H1765 C1792 0.950 . S
H1766 C1795 0.950 . S
H1767 C1796 0.950 . S
H1768 C1798 0.950 . S
H1769 C1799 0.950 . S
C1770 H1752 0.951 . S
C1770 C1771 1.366 . S
C1770 C1772 1.388 . S
C1771 C1770 1.366 . S
C1771 C1775 1.385 . S
C1772 H1753 0.951 . S
C1772 C1770 1.388 . S
C1772 C1773 1.366 . S
C1773 C1772 1.366 . S
C1773 C1774 1.414 . S
C1773 C1776 1.499 . S
C1774 H1754 0.950 . S
C1774 C1773 1.414 . S
C1774 C1775 1.374 . S
C1775 H1755 0.950 . S
C1775 C1771 1.385 . S
C1775 C1774 1.374 . S
C1776 C1773 1.499 . S
C1776 C1777 1.373 . S
C1776 C1778 1.389 . S
C1777 H1756 0.950 . S
C1777 C1776 1.373 . S
C1777 C1793 1.377 . S
C1778 C1776 1.389 . S
C1778 C1779 1.524 . S
C1778 C1792 1.377 . S
C1779 C1778 1.524 . S
C1779 C1780 1.397 . S
C1779 C1784 1.363 . S
C1780 H1757 0.950 . S
C1780 C1779 1.397 . S
C1780 C1781 1.334 . S
C1781 H1758 0.950 . S
C1781 C1780 1.334 . S
C1781 C1782 1.287 . S
C1782 C1781 1.287 . S
C1782 C1783 1.524 . S
C1782 H1801 0.913 . S
C1783 H1759 0.950 . S
C1783 C1782 1.524 . S
C1783 C1784 1.415 . S
C1784 H1760 0.950 . S
C1784 C1779 1.363 . S
C1784 C1783 1.415 . S
C1785 H1761 0.951 . S
C1785 C1786 1.366 . S
C1785 C1787 1.388 . S
C1786 C1785 1.366 . S
C1786 C1790 1.385 . S
C1787 H1762 0.951 . S
C1787 C1785 1.388 . S
C1787 C1788 1.366 . S
C1788 C1787 1.366 . S
C1788 C1789 1.414 . S
C1788 C1791 1.499 . S
C1789 H1763 0.950 . S
C1789 C1788 1.414 . S
C1789 C1790 1.374 . S
C1790 H1764 0.950 . S
C1790 C1786 1.385 . S
C1790 C1789 1.374 . S
C1791 C1788 1.499 . S
C1791 C1792 1.373 . S
C1791 C1793 1.389 . S
C1792 H1765 0.950 . S
C1792 C1778 1.377 . S
C1792 C1791 1.373 . S
C1793 C1777 1.377 . S
C1793 C1791 1.389 . S
C1793 C1794 1.524 . S
C1794 C1793 1.524 . S
C1794 C1795 1.397 . S
C1794 C1799 1.363 . S
C1795 H1766 0.950 . S
C1795 C1794 1.397 . S
C1795 C1796 1.334 . S
C1796 H1767 0.950 . S
C1796 C1795 1.334 . S
C1796 C1797 1.287 . S
C1797 C1796 1.287 . S
C1797 C1798 1.524 . S
C1797 H1800 0.999 . S
C1798 H1768 0.950 . S
C1798 C1797 1.524 . S
C1798 C1799 1.415 . S
C1799 H1769 0.950 . S
C1799 C1794 1.363 . S
C1799 C1798 1.415 . S
H1800 C1797 0.999 . S
H1801 C1782 0.913 . S
H1802 C1820 0.951 . S
H1803 C1822 0.951 . S
H1804 C1824 0.950 . S
H1805 C1825 0.950 . S
H1806 C1827 0.950 . S
H1807 C1830 0.950 . S
H1808 C1831 0.950 . S
H1809 C1833 0.950 . S
H1810 C1834 0.950 . S
H1811 C1835 0.951 . S
H1812 C1837 0.951 . S
H1813 C1839 0.950 . S
H1814 C1840 0.950 . S
H1815 C1842 0.950 . S
H1816 C1845 0.950 . S
H1817 C1846 0.950 . S
H1818 C1848 0.950 . S
H1819 C1849 0.950 . S
C1820 H1802 0.951 . S
C1820 C1821 1.366 . S
C1820 C1822 1.388 . S
C1821 C1820 1.366 . S
C1821 C1825 1.385 . S
C1822 H1803 0.951 . S
C1822 C1820 1.388 . S
C1822 C1823 1.366 . S
C1823 C1822 1.366 . S
C1823 C1824 1.414 . S
C1823 C1826 1.499 . S
C1824 H1804 0.950 . S
C1824 C1823 1.414 . S
C1824 C1825 1.374 . S
C1825 H1805 0.950 . S
C1825 C1821 1.385 . S
C1825 C1824 1.374 . S
C1826 C1823 1.499 . S
C1826 C1827 1.373 . S
C1826 C1828 1.389 . S
C1827 H1806 0.950 . S
C1827 C1826 1.373 . S
C1827 C1843 1.377 . S
C1828 C1826 1.389 . S
C1828 C1829 1.524 . S
C1828 C1842 1.377 . S
C1829 C1828 1.524 . S
C1829 C1830 1.397 . S
C1829 C1834 1.363 . S
C1830 H1807 0.950 . S
C1830 C1829 1.397 . S
C1830 C1831 1.334 . S
C1831 H1808 0.950 . S
C1831 C1830 1.334 . S
C1831 C1832 1.287 . S
C1832 C1831 1.287 . S
C1832 C1833 1.524 . S
C1832 H1851 0.913 . S
C1833 H1809 0.950 . S
C1833 C1832 1.524 . S
C1833 C1834 1.415 . S
C1834 H1810 0.950 . S
C1834 C1829 1.363 . S
C1834 C1833 1.415 . S
C1835 H1811 0.951 . S
C1835 C1836 1.366 . S
C1835 C1837 1.388 . S
C1836 C1835 1.366 . S
C1836 C1840 1.385 . S
C1837 H1812 0.951 . S
C1837 C1835 1.388 . S
C1837 C1838 1.366 . S
C1838 C1837 1.366 . S
C1838 C1839 1.414 . S
C1838 C1841 1.499 . S
C1839 H1813 0.950 . S
C1839 C1838 1.414 . S
C1839 C1840 1.374 . S
C1840 H1814 0.950 . S
C1840 C1836 1.385 . S
C1840 C1839 1.374 . S
C1841 C1838 1.499 . S
C1841 C1842 1.373 . S
C1841 C1843 1.389 . S
C1842 H1815 0.950 . S
C1842 C1828 1.377 . S
C1842 C1841 1.373 . S
C1843 C1827 1.377 . S
C1843 C1841 1.389 . S
C1843 C1844 1.524 . S
C1844 C1843 1.524 . S
C1844 C1845 1.397 . S
C1844 C1849 1.363 . S
C1845 H1816 0.950 . S
C1845 C1844 1.397 . S
C1845 C1846 1.334 . S
C1846 H1817 0.950 . S
C1846 C1845 1.334 . S
C1846 C1847 1.287 . S
C1847 C1846 1.287 . S
C1847 C1848 1.524 . S
C1847 H1850 0.999 . S
C1848 H1818 0.950 . S
C1848 C1847 1.524 . S
C1848 C1849 1.415 . S
C1849 H1819 0.950 . S
C1849 C1844 1.363 . S
C1849 C1848 1.415 . S
H1850 C1847 0.999 . S
H1851 C1832 0.913 . S
H1852 C1870 0.951 . S
H1853 C1872 0.951 . S
H1854 C1874 0.950 . S
H1855 C1875 0.950 . S
H1856 C1877 0.950 . S
H1857 C1880 0.950 . S
H1858 C1881 0.950 . S
H1859 C1883 0.950 . S
H1860 C1884 0.950 . S
H1861 C1885 0.951 . S
H1862 C1887 0.951 . S
H1863 C1889 0.950 . S
H1864 C1890 0.950 . S
H1865 C1892 0.950 . S
H1866 C1895 0.950 . S
H1867 C1896 0.950 . S
H1868 C1898 0.950 . S
H1869 C1899 0.950 . S
C1870 H1852 0.951 . S
C1870 C1871 1.366 . S
C1870 C1872 1.388 . S
C1871 C1870 1.366 . S
C1871 C1875 1.385 . S
C1872 H1853 0.951 . S
C1872 C1870 1.388 . S
C1872 C1873 1.366 . S
C1873 C1872 1.366 . S
C1873 C1874 1.414 . S
C1873 C1876 1.499 . S
C1874 H1854 0.950 . S
C1874 C1873 1.414 . S
C1874 C1875 1.374 . S
C1875 H1855 0.950 . S
C1875 C1871 1.385 . S
C1875 C1874 1.374 . S
C1876 C1873 1.499 . S
C1876 C1877 1.373 . S
C1876 C1878 1.389 . S
C1877 H1856 0.950 . S
C1877 C1876 1.373 . S
C1877 C1893 1.377 1_455 S
C1878 C1876 1.389 . S
C1878 C1879 1.524 . S
C1878 C1892 1.377 1_455 S
C1879 C1878 1.524 . S
C1879 C1880 1.397 . S
C1879 C1884 1.363 . S
C1880 H1857 0.950 . S
C1880 C1879 1.397 . S
C1880 C1881 1.334 . S
C1881 H1858 0.950 . S
C1881 C1880 1.334 . S
C1881 C1882 1.287 . S
C1882 C1881 1.287 . S
C1882 C1883 1.524 . S
C1882 H1901 0.913 . S
C1883 H1859 0.950 . S
C1883 C1882 1.524 . S
C1883 C1884 1.415 . S
C1884 H1860 0.950 . S
C1884 C1879 1.363 . S
C1884 C1883 1.415 . S
C1885 H1861 0.951 . S
C1885 C1886 1.366 . S
C1885 C1887 1.388 . S
C1886 C1885 1.366 . S
C1886 C1890 1.385 . S
C1887 H1862 0.951 . S
C1887 C1885 1.388 . S
C1887 C1888 1.366 . S
C1888 C1887 1.366 . S
C1888 C1889 1.414 . S
C1888 C1891 1.499 . S
C1889 H1863 0.950 . S
C1889 C1888 1.414 . S
C1889 C1890 1.374 . S
C1890 H1864 0.950 . S
C1890 C1886 1.385 . S
C1890 C1889 1.374 . S
C1891 C1888 1.499 . S
C1891 C1892 1.373 . S
C1891 C1893 1.389 . S
C1892 H1865 0.950 . S
C1892 C1878 1.377 1_655 S
C1892 C1891 1.373 . S
C1893 C1877 1.377 1_655 S
C1893 C1891 1.389 . S
C1893 C1894 1.524 . S
C1894 C1893 1.524 . S
C1894 C1895 1.397 . S
C1894 C1899 1.363 . S
C1895 H1866 0.950 . S
C1895 C1894 1.397 . S
C1895 C1896 1.334 . S
C1896 H1867 0.950 . S
C1896 C1895 1.334 . S
C1896 C1897 1.287 . S
C1897 C1896 1.287 . S
C1897 C1898 1.524 . S
C1897 H1900 0.999 . S
C1898 H1868 0.950 . S
C1898 C1897 1.524 . S
C1898 C1899 1.415 . S
C1899 H1869 0.950 . S
C1899 C1894 1.363 . S
C1899 C1898 1.415 . S
H1900 C1897 0.999 . S
H1901 C1882 0.913 . S
H1902 C1920 0.951 . S
H1903 C1922 0.951 . S
H1904 C1924 0.950 . S
H1905 C1925 0.950 . S
H1906 C1927 0.950 . S
H1907 C1930 0.950 . S
H1908 C1931 0.950 1_455 S
H1909 C1933 0.950 . S
H1910 C1934 0.950 . S
H1911 C1935 0.951 . S
H1912 C1937 0.951 . S
H1913 C1939 0.950 . S
H1914 C1940 0.950 . S
H1915 C1942 0.950 . S
H1916 C1945 0.950 . S
H1917 C1946 0.950 1_655 S
H1918 C1948 0.950 . S
H1919 C1949 0.950 . S
C1920 H1902 0.951 . S
C1920 C1921 1.366 . S
C1920 C1922 1.388 . S
C1921 C1920 1.366 . S
C1921 C1925 1.385 . S
C1922 H1903 0.951 . S
C1922 C1920 1.388 . S
C1922 C1923 1.366 . S
C1923 C1922 1.366 . S
C1923 C1924 1.414 . S
C1923 C1926 1.499 . S
C1924 H1904 0.950 . S
C1924 C1923 1.414 . S
C1924 C1925 1.374 . S
C1925 H1905 0.950 . S
C1925 C1921 1.385 . S
C1925 C1924 1.374 . S
C1926 C1923 1.499 . S
C1926 C1927 1.373 . S
C1926 C1928 1.389 1_455 S
C1927 H1906 0.950 . S
C1927 C1926 1.373 . S
C1927 C1943 1.377 . S
C1928 C1926 1.389 1_655 S
C1928 C1929 1.524 . S
C1928 C1942 1.377 . S
C1929 C1928 1.524 . S
C1929 C1930 1.397 1_655 S
C1929 C1934 1.363 . S
C1930 H1907 0.950 . S
C1930 C1929 1.397 1_455 S
C1930 C1931 1.334 1_455 S
C1931 H1908 0.950 1_655 S
C1931 C1930 1.334 1_655 S
C1931 C1932 1.287 . S
C1932 C1931 1.287 . S
C1932 C1933 1.524 . S
C1932 H1951 0.913 . S
C1933 H1909 0.950 . S
C1933 C1932 1.524 . S
C1933 C1934 1.415 . S
C1934 H1910 0.950 . S
C1934 C1929 1.363 . S
C1934 C1933 1.415 . S
C1935 H1911 0.951 . S
C1935 C1936 1.366 . S
C1935 C1937 1.388 . S
C1936 C1935 1.366 . S
C1936 C1940 1.385 . S
C1937 H1912 0.951 . S
C1937 C1935 1.388 . S
C1937 C1938 1.366 . S
C1938 C1937 1.366 . S
C1938 C1939 1.414 . S
C1938 C1941 1.499 . S
C1939 H1913 0.950 . S
C1939 C1938 1.414 . S
C1939 C1940 1.374 . S
C1940 H1914 0.950 . S
C1940 C1936 1.385 . S
C1940 C1939 1.374 . S
C1941 C1938 1.499 . S
C1941 C1942 1.373 . S
C1941 C1943 1.389 1_655 S
C1942 H1915 0.950 . S
C1942 C1928 1.377 . S
C1942 C1941 1.373 . S
C1943 C1927 1.377 . S
C1943 C1941 1.389 1_455 S
C1943 C1944 1.524 . S
C1944 C1943 1.524 . S
C1944 C1945 1.397 1_455 S
C1944 C1949 1.363 . S
C1945 H1916 0.950 . S
C1945 C1944 1.397 1_655 S
C1945 C1946 1.334 1_655 S
C1946 H1917 0.950 1_455 S
C1946 C1945 1.334 1_455 S
C1946 C1947 1.287 . S
C1947 C1946 1.287 . S
C1947 C1948 1.524 . S
C1947 H1950 0.999 . S
C1948 H1918 0.950 . S
C1948 C1947 1.524 . S
C1948 C1949 1.415 . S
C1949 H1919 0.950 . S
C1949 C1944 1.363 . S
C1949 C1948 1.415 . S
H1950 C1947 0.999 . S
H1951 C1932 0.913 . S
H1952 C1970 0.951 . S
H1953 C1972 0.951 . S
H1954 C1974 0.950 . S
H1955 C1975 0.950 . S
H1956 C1977 0.950 . S
H1957 C1980 0.950 . S
H1958 C1981 0.950 . S
H1959 C1983 0.950 . S
H1960 C1984 0.950 . S
H1961 C1985 0.951 . S
H1962 C1987 0.951 . S
H1963 C1989 0.950 . S
H1964 C1990 0.950 . S
H1965 C1992 0.950 . S
H1966 C1995 0.950 . S
H1967 C1996 0.950 . S
H1968 C1998 0.950 . S
H1969 C1999 0.950 . S
C1970 H1952 0.951 . S
C1970 C1971 1.366 . S
C1970 C1972 1.388 . S
C1971 C1970 1.366 . S
C1971 C1975 1.385 . S
C1972 H1953 0.951 . S
C1972 C1970 1.388 . S
C1972 C1973 1.366 . S
C1973 C1972 1.366 . S
C1973 C1974 1.414 . S
C1973 C1976 1.499 . S
C1974 H1954 0.950 . S
C1974 C1973 1.414 . S
C1974 C1975 1.374 . S
C1975 H1955 0.950 . S
C1975 C1971 1.385 . S
C1975 C1974 1.374 . S
C1976 C1973 1.499 . S
C1976 C1977 1.373 . S
C1976 C1978 1.389 . S
C1977 H1956 0.950 . S
C1977 C1976 1.373 . S
C1977 C1993 1.377 . S
C1978 C1976 1.389 . S
C1978 C1979 1.524 . S
C1978 C1992 1.377 . S
C1979 C1978 1.524 . S
C1979 C1980 1.397 . S
C1979 C1984 1.363 . S
C1980 H1957 0.950 . S
C1980 C1979 1.397 . S
C1980 C1981 1.334 . S
C1981 H1958 0.950 . S
C1981 C1980 1.334 . S
C1981 C1982 1.287 . S
C1982 C1981 1.287 . S
C1982 C1983 1.524 . S
C1982 H2001 0.913 . S
C1983 H1959 0.950 . S
C1983 C1982 1.524 . S
C1983 C1984 1.415 . S
C1984 H1960 0.950 . S
C1984 C1979 1.363 . S
C1984 C1983 1.415 . S
C1985 H1961 0.951 . S
C1985 C1986 1.366 . S
C1985 C1987 1.388 . S
C1986 C1985 1.366 . S
C1986 C1990 1.385 . S
C1987 H1962 0.951 . S
C1987 C1985 1.388 . S
C1987 C1988 1.366 . S
C1988 C1987 1.366 . S
C1988 C1989 1.414 . S
C1988 C1991 1.499 . S
C1989 H1963 0.950 . S
C1989 C1988 1.414 . S
C1989 C1990 1.374 . S
C1990 H1964 0.950 . S
C1990 C1986 1.385 . S
C1990 C1989 1.374 . S
C1991 C1988 1.499 . S
C1991 C1992 1.373 . S
C1991 C1993 1.389 . S
C1992 H1965 0.950 . S
C1992 C1978 1.377 . S
C1992 C1991 1.373 . S
C1993 C1977 1.377 . S
C1993 C1991 1.389 . S
C1993 C1994 1.524 . S
C1994 C1993 1.524 . S
C1994 C1995 1.397 . S
C1994 C1999 1.363 . S
C1995 H1966 0.950 . S
C1995 C1994 1.397 . S
C1995 C1996 1.334 . S
C1996 H1967 0.950 . S
C1996 C1995 1.334 . S
C1996 C1997 1.287 . S
C1997 C1996 1.287 . S
C1997 C1998 1.524 . S
C1997 H2000 0.999 . S
C1998 H1968 0.950 . S
C1998 C1997 1.524 . S
C1998 C1999 1.415 . S
C1999 H1969 0.950 . S
C1999 C1994 1.363 . S
C1999 C1998 1.415 . S
H2000 C1997 0.999 . S
H2001 C1982 0.913 . S
H2002 C2020 0.951 . S
H2003 C2022 0.951 . S
H2004 C2024 0.950 . S
H2005 C2025 0.950 . S
H2006 C2027 0.950 . S
H2007 C2030 0.950 . S
H2008 C2031 0.950 . S
H2009 C2033 0.950 . S
H2010 C2034 0.950 . S
H2011 C2035 0.951 . S
H2012 C2037 0.951 . S
H2013 C2039 0.950 . S
H2014 C2040 0.950 . S
H2015 C2042 0.950 . S
H2016 C2045 0.950 . S
H2017 C2046 0.950 . S
H2018 C2048 0.950 . S
H2019 C2049 0.950 . S
C2020 H2002 0.951 . S
C2020 C2021 1.366 . S
C2020 C2022 1.388 . S
C2021 C2020 1.366 . S
C2021 C2025 1.385 . S
C2022 H2003 0.951 . S
C2022 C2020 1.388 . S
C2022 C2023 1.366 . S
C2023 C2022 1.366 . S
C2023 C2024 1.414 . S
C2023 C2026 1.499 . S
C2024 H2004 0.950 . S
C2024 C2023 1.414 . S
C2024 C2025 1.374 . S
C2025 H2005 0.950 . S
C2025 C2021 1.385 . S
C2025 C2024 1.374 . S
C2026 C2023 1.499 . S
C2026 C2027 1.373 . S
C2026 C2028 1.389 . S
C2027 H2006 0.950 . S
C2027 C2026 1.373 . S
C2027 C2043 1.377 . S
C2028 C2026 1.389 . S
C2028 C2029 1.524 . S
C2028 C2042 1.377 . S
C2029 C2028 1.524 . S
C2029 C2030 1.397 . S
C2029 C2034 1.363 . S
C2030 H2007 0.950 . S
C2030 C2029 1.397 . S
C2030 C2031 1.334 . S
C2031 H2008 0.950 . S
C2031 C2030 1.334 . S
C2031 C2032 1.287 . S
C2032 C2031 1.287 . S
C2032 C2033 1.524 . S
C2032 H2051 0.913 . S
C2033 H2009 0.950 . S
C2033 C2032 1.524 . S
C2033 C2034 1.415 . S
C2034 H2010 0.950 . S
C2034 C2029 1.363 . S
C2034 C2033 1.415 . S
C2035 H2011 0.951 . S
C2035 C2036 1.366 . S
C2035 C2037 1.388 . S
C2036 C2035 1.366 . S
C2036 C2040 1.385 . S
C2037 H2012 0.951 . S
C2037 C2035 1.388 . S
C2037 C2038 1.366 . S
C2038 C2037 1.366 . S
C2038 C2039 1.414 . S
C2038 C2041 1.499 . S
C2039 H2013 0.950 . S
C2039 C2038 1.414 . S
C2039 C2040 1.374 . S
C2040 H2014 0.950 . S
C2040 C2036 1.385 . S
C2040 C2039 1.374 . S
C2041 C2038 1.499 . S
C2041 C2042 1.373 . S
C2041 C2043 1.389 . S
C2042 H2015 0.950 . S
C2042 C2028 1.377 . S
C2042 C2041 1.373 . S
C2043 C2027 1.377 . S
C2043 C2041 1.389 . S
C2043 C2044 1.524 . S
C2044 C2043 1.524 . S
C2044 C2045 1.397 . S
C2044 C2049 1.363 . S
C2045 H2016 0.950 . S
C2045 C2044 1.397 . S
C2045 C2046 1.334 . S
C2046 H2017 0.950 . S
C2046 C2045 1.334 . S
C2046 C2047 1.287 . S
C2047 C2046 1.287 . S
C2047 C2048 1.524 . S
C2047 H2050 0.999 . S
C2048 H2018 0.950 . S
C2048 C2047 1.524 . S
C2048 C2049 1.415 . S
C2049 H2019 0.950 . S
C2049 C2044 1.363 . S
C2049 C2048 1.415 . S
H2050 C2047 0.999 . S
H2051 C2032 0.913 . S
H2052 C2070 0.951 . S
H2053 C2072 0.951 . S
H2054 C2074 0.950 . S
H2055 C2075 0.950 . S
H2056 C2077 0.950 . S
H2057 C2080 0.950 . S
H2058 C2081 0.950 . S
H2059 C2083 0.950 . S
H2060 C2084 0.950 . S
H2061 C2085 0.951 . S
H2062 C2087 0.951 . S
H2063 C2089 0.950 . S
H2064 C2090 0.950 . S
H2065 C2092 0.950 . S
H2066 C2095 0.950 . S
H2067 C2096 0.950 . S
H2068 C2098 0.950 . S
H2069 C2099 0.950 . S
C2070 H2052 0.951 . S
C2070 C2071 1.366 . S
C2070 C2072 1.388 . S
C2071 C2070 1.366 . S
C2071 C2075 1.385 . S
C2072 H2053 0.951 . S
C2072 C2070 1.388 . S
C2072 C2073 1.366 . S
C2073 C2072 1.366 . S
C2073 C2074 1.414 . S
C2073 C2076 1.499 . S
C2074 H2054 0.950 . S
C2074 C2073 1.414 . S
C2074 C2075 1.374 . S
C2075 H2055 0.950 . S
C2075 C2071 1.385 . S
C2075 C2074 1.374 . S
C2076 C2073 1.499 . S
C2076 C2077 1.373 . S
C2076 C2078 1.389 . S
C2077 H2056 0.950 . S
C2077 C2076 1.373 . S
C2077 C2093 1.377 . S
C2078 C2076 1.389 . S
C2078 C2079 1.524 . S
C2078 C2092 1.377 . S
C2079 C2078 1.524 . S
C2079 C2080 1.397 . S
C2079 C2084 1.363 . S
C2080 H2057 0.950 . S
C2080 C2079 1.397 . S
C2080 C2081 1.334 . S
C2081 H2058 0.950 . S
C2081 C2080 1.334 . S
C2081 C2082 1.287 . S
C2082 C2081 1.287 . S
C2082 C2083 1.524 . S
C2082 H2101 0.913 . S
C2083 H2059 0.950 . S
C2083 C2082 1.524 . S
C2083 C2084 1.415 . S
C2084 H2060 0.950 . S
C2084 C2079 1.363 . S
C2084 C2083 1.415 . S
C2085 H2061 0.951 . S
C2085 C2086 1.366 . S
C2085 C2087 1.388 . S
C2086 C2085 1.366 . S
C2086 C2090 1.385 . S
C2087 H2062 0.951 . S
C2087 C2085 1.388 . S
C2087 C2088 1.366 . S
C2088 C2087 1.366 . S
C2088 C2089 1.414 . S
C2088 C2091 1.499 . S
C2089 H2063 0.950 . S
C2089 C2088 1.414 . S
C2089 C2090 1.374 . S
C2090 H2064 0.950 . S
C2090 C2086 1.385 . S
C2090 C2089 1.374 . S
C2091 C2088 1.499 . S
C2091 C2092 1.373 . S
C2091 C2093 1.389 . S
C2092 H2065 0.950 . S
C2092 C2078 1.377 . S
C2092 C2091 1.373 . S
C2093 C2077 1.377 . S
C2093 C2091 1.389 . S
C2093 C2094 1.524 . S
C2094 C2093 1.524 . S
C2094 C2095 1.397 . S
C2094 C2099 1.363 . S
C2095 H2066 0.950 . S
C2095 C2094 1.397 . S
C2095 C2096 1.334 . S
C2096 H2067 0.950 . S
C2096 C2095 1.334 . S
C2096 C2097 1.287 . S
C2097 C2096 1.287 . S
C2097 C2098 1.524 . S
C2097 H2100 0.999 . S
C2098 H2068 0.950 . S
C2098 C2097 1.524 . S
C2098 C2099 1.415 . S
C2099 H2069 0.950 . S
C2099 C2094 1.363 . S
C2099 C2098 1.415 . S
H2100 C2097 0.999 . S
H2101 C2082 0.913 . S
H2102 C2120 0.951 . S
H2103 C2122 0.951 . S
H2104 C2124 0.950 . S
H2105 C2125 0.950 . S
H2106 C2127 0.950 . S
H2107 C2130 0.950 . S
H2108 C2131 0.950 . S
H2109 C2133 0.950 . S
H2110 C2134 0.950 . S
H2111 C2135 0.951 . S
H2112 C2137 0.951 . S
H2113 C2139 0.950 . S
H2114 C2140 0.950 . S
H2115 C2142 0.950 . S
H2116 C2145 0.950 . S
H2117 C2146 0.950 . S
H2118 C2148 0.950 . S
H2119 C2149 0.950 . S
C2120 H2102 0.951 . S
C2120 C2121 1.366 . S
C2120 C2122 1.388 . S
C2121 C2120 1.366 . S
C2121 C2125 1.385 . S
C2122 H2103 0.951 . S
C2122 C2120 1.388 . S
C2122 C2123 1.366 . S
C2123 C2122 1.366 . S
C2123 C2124 1.414 . S
C2123 C2126 1.499 . S
C2124 H2104 0.950 . S
C2124 C2123 1.414 . S
C2124 C2125 1.374 . S
C2125 H2105 0.950 . S
C2125 C2121 1.385 . S
C2125 C2124 1.374 . S
C2126 C2123 1.499 . S
C2126 C2127 1.373 . S
C2126 C2128 1.389 . S
C2127 H2106 0.950 . S
C2127 C2126 1.373 . S
C2127 C2143 1.377 . S
C2128 C2126 1.389 . S
C2128 C2129 1.524 . S
C2128 C2142 1.377 . S
C2129 C2128 1.524 . S
C2129 C2130 1.397 . S
C2129 C2134 1.363 . S
C2130 H2107 0.950 . S
C2130 C2129 1.397 . S
C2130 C2131 1.334 . S
C2131 H2108 0.950 . S
C2131 C2130 1.334 . S
C2131 C2132 1.287 . S
C2132 C2131 1.287 . S
C2132 C2133 1.524 . S
C2132 H2151 0.913 . S
C2133 H2109 0.950 . S
C2133 C2132 1.524 . S
C2133 C2134 1.415 . S
C2134 H2110 0.950 . S
C2134 C2129 1.363 . S
C2134 C2133 1.415 . S
C2135 H2111 0.951 . S
C2135 C2136 1.366 . S
C2135 C2137 1.388 . S
C2136 C2135 1.366 . S
C2136 C2140 1.385 . S
C2137 H2112 0.951 . S
C2137 C2135 1.388 . S
C2137 C2138 1.366 . S
C2138 C2137 1.366 . S
C2138 C2139 1.414 . S
C2138 C2141 1.499 . S
C2139 H2113 0.950 . S
C2139 C2138 1.414 . S
C2139 C2140 1.374 . S
C2140 H2114 0.950 . S
C2140 C2136 1.385 . S
C2140 C2139 1.374 . S
C2141 C2138 1.499 . S
C2141 C2142 1.373 . S
C2141 C2143 1.389 . S
C2142 H2115 0.950 . S
C2142 C2128 1.377 . S
C2142 C2141 1.373 . S
C2143 C2127 1.377 . S
C2143 C2141 1.389 . S
C2143 C2144 1.524 . S
C2144 C2143 1.524 . S
C2144 C2145 1.397 . S
C2144 C2149 1.363 . S
C2145 H2116 0.950 . S
C2145 C2144 1.397 . S
C2145 C2146 1.334 . S
C2146 H2117 0.950 . S
C2146 C2145 1.334 . S
C2146 C2147 1.287 . S
C2147 C2146 1.287 . S
C2147 C2148 1.524 . S
C2147 H2150 0.999 . S
C2148 H2118 0.950 . S
C2148 C2147 1.524 . S
C2148 C2149 1.415 . S
C2149 H2119 0.950 . S
C2149 C2144 1.363 . S
C2149 C2148 1.415 . S
H2150 C2147 0.999 . S
H2151 C2132 0.913 . S
H2152 C2170 0.951 . S
H2153 C2172 0.951 . S
H2154 C2174 0.950 . S
H2155 C2175 0.950 . S
H2156 C2177 0.950 . S
H2157 C2180 0.950 . S
H2158 C2181 0.950 . S
H2159 C2183 0.950 . S
H2160 C2184 0.950 . S
H2161 C2185 0.951 . S
H2162 C2187 0.951 . S
H2163 C2189 0.950 . S
H2164 C2190 0.950 . S
H2165 C2192 0.950 . S
H2166 C2195 0.950 . S
H2167 C2196 0.950 . S
H2168 C2198 0.950 . S
H2169 C2199 0.950 . S
C2170 H2152 0.951 . S
C2170 C2171 1.366 . S
C2170 C2172 1.388 . S
C2171 C2170 1.366 . S
C2171 C2175 1.385 . S
C2172 H2153 0.951 . S
C2172 C2170 1.388 . S
C2172 C2173 1.366 . S
C2173 C2172 1.366 . S
C2173 C2174 1.414 . S
C2173 C2176 1.499 . S
C2174 H2154 0.950 . S
C2174 C2173 1.414 . S
C2174 C2175 1.374 . S
C2175 H2155 0.950 . S
C2175 C2171 1.385 . S
C2175 C2174 1.374 . S
C2176 C2173 1.499 . S
C2176 C2177 1.373 . S
C2176 C2178 1.389 . S
C2177 H2156 0.950 . S
C2177 C2176 1.373 . S
C2177 C2193 1.377 . S
C2178 C2176 1.389 . S
C2178 C2179 1.524 . S
C2178 C2192 1.377 . S
C2179 C2178 1.524 . S
C2179 C2180 1.397 . S
C2179 C2184 1.363 . S
C2180 H2157 0.950 . S
C2180 C2179 1.397 . S
C2180 C2181 1.334 . S
C2181 H2158 0.950 . S
C2181 C2180 1.334 . S
C2181 C2182 1.287 . S
C2182 C2181 1.287 . S
C2182 C2183 1.524 . S
C2182 H2201 0.913 . S
C2183 H2159 0.950 . S
C2183 C2182 1.524 . S
C2183 C2184 1.415 . S
C2184 H2160 0.950 . S
C2184 C2179 1.363 . S
C2184 C2183 1.415 . S
C2185 H2161 0.951 . S
C2185 C2186 1.366 . S
C2185 C2187 1.388 . S
C2186 C2185 1.366 . S
C2186 C2190 1.385 . S
C2187 H2162 0.951 . S
C2187 C2185 1.388 . S
C2187 C2188 1.366 . S
C2188 C2187 1.366 . S
C2188 C2189 1.414 . S
C2188 C2191 1.499 . S
C2189 H2163 0.950 . S
C2189 C2188 1.414 . S
C2189 C2190 1.374 . S
C2190 H2164 0.950 . S
C2190 C2186 1.385 . S
C2190 C2189 1.374 . S
C2191 C2188 1.499 . S
C2191 C2192 1.373 . S
C2191 C2193 1.389 . S
C2192 H2165 0.950 . S
C2192 C2178 1.377 . S
C2192 C2191 1.373 . S
C2193 C2177 1.377 . S
C2193 C2191 1.389 . S
C2193 C2194 1.524 . S
C2194 C2193 1.524 . S
C2194 C2195 1.397 . S
C2194 C2199 1.363 . S
C2195 H2166 0.950 . S
C2195 C2194 1.397 . S
C2195 C2196 1.334 . S
C2196 H2167 0.950 . S
C2196 C2195 1.334 . S
C2196 C2197 1.287 . S
C2197 C2196 1.287 . S
C2197 C2198 1.524 . S
C2197 H2200 0.999 . S
C2198 H2168 0.950 . S
C2198 C2197 1.524 . S
C2198 C2199 1.415 . S
C2199 H2169 0.950 . S
C2199 C2194 1.363 . S
C2199 C2198 1.415 . S
H2200 C2197 0.999 . S
H2201 C2182 0.913 . S
H2202 C2220 0.951 . S
H2203 C2222 0.951 . S
H2204 C2224 0.950 . S
H2205 C2225 0.950 . S
H2206 C2227 0.950 . S
H2207 C2230 0.950 . S
H2208 C2231 0.950 . S
H2209 C2233 0.950 . S
H2210 C2234 0.950 . S
H2211 C2235 0.951 . S
H2212 C2237 0.951 . S
H2213 C2239 0.950 . S
H2214 C2240 0.950 . S
H2215 C2242 0.950 . S
H2216 C2245 0.950 . S
H2217 C2246 0.950 . S
H2218 C2248 0.950 . S
H2219 C2249 0.950 . S
C2220 H2202 0.951 . S
C2220 C2221 1.366 . S
C2220 C2222 1.388 . S
C2221 C2220 1.366 . S
C2221 C2225 1.385 . S
C2222 H2203 0.951 . S
C2222 C2220 1.388 . S
C2222 C2223 1.366 . S
C2223 C2222 1.366 . S
C2223 C2224 1.414 . S
C2223 C2226 1.499 . S
C2224 H2204 0.950 . S
C2224 C2223 1.414 . S
C2224 C2225 1.374 . S
C2225 H2205 0.950 . S
C2225 C2221 1.385 . S
C2225 C2224 1.374 . S
C2226 C2223 1.499 . S
C2226 C2227 1.373 . S
C2226 C2228 1.389 . S
C2227 H2206 0.950 . S
C2227 C2226 1.373 . S
C2227 C2243 1.377 . S
C2228 C2226 1.389 . S
C2228 C2229 1.524 . S
C2228 C2242 1.377 . S
C2229 C2228 1.524 . S
C2229 C2230 1.397 . S
C2229 C2234 1.363 . S
C2230 H2207 0.950 . S
C2230 C2229 1.397 . S
C2230 C2231 1.334 . S
C2231 H2208 0.950 . S
C2231 C2230 1.334 . S
C2231 C2232 1.287 . S
C2232 C2231 1.287 . S
C2232 C2233 1.524 . S
C2232 H2251 0.913 . S
C2233 H2209 0.950 . S
C2233 C2232 1.524 . S
C2233 C2234 1.415 . S
C2234 H2210 0.950 . S
C2234 C2229 1.363 . S
C2234 C2233 1.415 . S
C2235 H2211 0.951 . S
C2235 C2236 1.366 . S
C2235 C2237 1.388 . S
C2236 C2235 1.366 . S
C2236 C2240 1.385 . S
C2237 H2212 0.951 . S
C2237 C2235 1.388 . S
C2237 C2238 1.366 . S
C2238 C2237 1.366 . S
C2238 C2239 1.414 . S
C2238 C2241 1.499 . S
C2239 H2213 0.950 . S
C2239 C2238 1.414 . S
C2239 C2240 1.374 . S
C2240 H2214 0.950 . S
C2240 C2236 1.385 . S
C2240 C2239 1.374 . S
C2241 C2238 1.499 . S
C2241 C2242 1.373 . S
C2241 C2243 1.389 . S
C2242 H2215 0.950 . S
C2242 C2228 1.377 . S
C2242 C2241 1.373 . S
C2243 C2227 1.377 . S
C2243 C2241 1.389 . S
C2243 C2244 1.524 . S
C2244 C2243 1.524 . S
C2244 C2245 1.397 . S
C2244 C2249 1.363 . S
C2245 H2216 0.950 . S
C2245 C2244 1.397 . S
C2245 C2246 1.334 . S
C2246 H2217 0.950 . S
C2246 C2245 1.334 . S
C2246 C2247 1.287 . S
C2247 C2246 1.287 . S
C2247 C2248 1.524 . S
C2247 H2250 0.999 . S
C2248 H2218 0.950 . S
C2248 C2247 1.524 . S
C2248 C2249 1.415 . S
C2249 H2219 0.950 . S
C2249 C2244 1.363 . S
C2249 C2248 1.415 . S
H2250 C2247 0.999 . S
H2251 C2232 0.913 . S
H2252 C2270 0.951 . S
H2253 C2272 0.951 . S
H2254 C2274 0.950 . S
H2255 C2275 0.950 . S
H2256 C2277 0.950 . S
H2257 C2280 0.950 . S
H2258 C2281 0.950 . S
H2259 C2283 0.950 . S
H2260 C2284 0.950 . S
H2261 C2285 0.951 . S
H2262 C2287 0.951 . S
H2263 C2289 0.950 . S
H2264 C2290 0.950 . S
H2265 C2292 0.950 . S
H2266 C2295 0.950 . S
H2267 C2296 0.950 . S
H2268 C2298 0.950 . S
H2269 C2299 0.950 . S
C2270 H2252 0.951 . S
C2270 C2271 1.366 . S
C2270 C2272 1.388 . S
C2271 C2270 1.366 . S
C2271 C2275 1.385 . S
C2272 H2253 0.951 . S
C2272 C2270 1.388 . S
C2272 C2273 1.366 . S
C2273 C2272 1.366 . S
C2273 C2274 1.414 . S
C2273 C2276 1.499 . S
C2274 H2254 0.950 . S
C2274 C2273 1.414 . S
C2274 C2275 1.374 . S
C2275 H2255 0.950 . S
C2275 C2271 1.385 . S
C2275 C2274 1.374 . S
C2276 C2273 1.499 . S
C2276 C2277 1.373 . S
C2276 C2278 1.389 . S
C2277 H2256 0.950 . S
C2277 C2276 1.373 . S
C2277 C2293 1.377 . S
C2278 C2276 1.389 . S
C2278 C2279 1.524 . S
C2278 C2292 1.377 . S
C2279 C2278 1.524 . S
C2279 C2280 1.397 . S
C2279 C2284 1.363 . S
C2280 H2257 0.950 . S
C2280 C2279 1.397 . S
C2280 C2281 1.334 . S
C2281 H2258 0.950 . S
C2281 C2280 1.334 . S
C2281 C2282 1.287 . S
C2282 C2281 1.287 . S
C2282 C2283 1.524 . S
C2282 H2301 0.913 . S
C2283 H2259 0.950 . S
C2283 C2282 1.524 . S
C2283 C2284 1.415 . S
C2284 H2260 0.950 . S
C2284 C2279 1.363 . S
C2284 C2283 1.415 . S
C2285 H2261 0.951 . S
C2285 C2286 1.366 . S
C2285 C2287 1.388 . S
C2286 C2285 1.366 . S
C2286 C2290 1.385 . S
C2287 H2262 0.951 . S
C2287 C2285 1.388 . S
C2287 C2288 1.366 . S
C2288 C2287 1.366 . S
C2288 C2289 1.414 . S
C2288 C2291 1.499 . S
C2289 H2263 0.950 . S
C2289 C2288 1.414 . S
C2289 C2290 1.374 . S
C2290 H2264 0.950 . S
C2290 C2286 1.385 . S
C2290 C2289 1.374 . S
C2291 C2288 1.499 . S
C2291 C2292 1.373 . S
C2291 C2293 1.389 . S
C2292 H2265 0.950 . S
C2292 C2278 1.377 . S
C2292 C2291 1.373 . S
C2293 C2277 1.377 . S
C2293 C2291 1.389 . S
C2293 C2294 1.524 . S
C2294 C2293 1.524 . S
C2294 C2295 1.397 . S
C2294 C2299 1.363 . S
C2295 H2266 0.950 . S
C2295 C2294 1.397 . S
C2295 C2296 1.334 . S
C2296 H2267 0.950 . S
C2296 C2295 1.334 . S
C2296 C2297 1.287 . S
C2297 C2296 1.287 . S
C2297 C2298 1.524 . S
C2297 H2300 0.999 . S
C2298 H2268 0.950 . S
C2298 C2297 1.524 . S
C2298 C2299 1.415 . S
C2299 H2269 0.950 . S
C2299 C2294 1.363 . S
C2299 C2298 1.415 . S
H2300 C2297 0.999 . S
H2301 C2282 0.913 . S
H2302 C2320 0.951 . S
H2303 C2322 0.951 . S
H2304 C2324 0.950 . S
H2305 C2325 0.950 . S
H2306 C2327 0.950 . S
H2307 C2330 0.950 . S
H2308 C2331 0.950 . S
H2309 C2333 0.950 . S
H2310 C2334 0.950 . S
H2311 C2335 0.951 . S
H2312 C2337 0.951 . S
H2313 C2339 0.950 . S
H2314 C2340 0.950 . S
H2315 C2342 0.950 . S
H2316 C2345 0.950 . S
H2317 C2346 0.950 . S
H2318 C2348 0.950 . S
H2319 C2349 0.950 . S
C2320 H2302 0.951 . S
C2320 C2321 1.366 . S
C2320 C2322 1.388 . S
C2321 C2320 1.366 . S
C2321 C2325 1.385 . S
C2322 H2303 0.951 . S
C2322 C2320 1.388 . S
C2322 C2323 1.366 . S
C2323 C2322 1.366 . S
C2323 C2324 1.414 . S
C2323 C2326 1.499 . S
C2324 H2304 0.950 . S
C2324 C2323 1.414 . S
C2324 C2325 1.374 . S
C2325 H2305 0.950 . S
C2325 C2321 1.385 . S
C2325 C2324 1.374 . S
C2326 C2323 1.499 . S
C2326 C2327 1.373 . S
C2326 C2328 1.389 . S
C2327 H2306 0.950 . S
C2327 C2326 1.373 . S
C2327 C2343 1.377 . S
C2328 C2326 1.389 . S
C2328 C2329 1.524 . S
C2328 C2342 1.377 . S
C2329 C2328 1.524 . S
C2329 C2330 1.397 . S
C2329 C2334 1.363 . S
C2330 H2307 0.950 . S
C2330 C2329 1.397 . S
C2330 C2331 1.334 . S
C2331 H2308 0.950 . S
C2331 C2330 1.334 . S
C2331 C2332 1.287 . S
C2332 C2331 1.287 . S
C2332 C2333 1.524 . S
C2332 H2351 0.913 . S
C2333 H2309 0.950 . S
C2333 C2332 1.524 . S
C2333 C2334 1.415 . S
C2334 H2310 0.950 . S
C2334 C2329 1.363 . S
C2334 C2333 1.415 . S
C2335 H2311 0.951 . S
C2335 C2336 1.366 . S
C2335 C2337 1.388 . S
C2336 C2335 1.366 . S
C2336 C2340 1.385 . S
C2337 H2312 0.951 . S
C2337 C2335 1.388 . S
C2337 C2338 1.366 . S
C2338 C2337 1.366 . S
C2338 C2339 1.414 . S
C2338 C2341 1.499 . S
C2339 H2313 0.950 . S
C2339 C2338 1.414 . S
C2339 C2340 1.374 . S
C2340 H2314 0.950 . S
C2340 C2336 1.385 . S
C2340 C2339 1.374 . S
C2341 C2338 1.499 . S
C2341 C2342 1.373 . S
C2341 C2343 1.389 . S
C2342 H2315 0.950 . S
C2342 C2328 1.377 . S
C2342 C2341 1.373 . S
C2343 C2327 1.377 . S
C2343 C2341 1.389 . S
C2343 C2344 1.524 . S
C2344 C2343 1.524 . S
C2344 C2345 1.397 . S
C2344 C2349 1.363 . S
C2345 H2316 0.950 . S
C2345 C2344 1.397 . S
C2345 C2346 1.334 . S
C2346 H2317 0.950 . S
C2346 C2345 1.334 . S
C2346 C2347 1.287 . S
C2347 C2346 1.287 . S
C2347 C2348 1.524 . S
C2347 H2350 0.999 . S
C2348 H2318 0.950 . S
C2348 C2347 1.524 . S
C2348 C2349 1.415 . S
C2349 H2319 0.950 . S
C2349 C2344 1.363 . S
C2349 C2348 1.415 . S
H2350 C2347 0.999 . S
H2351 C2332 0.913 . S
H2352 C2370 0.951 . S
H2353 C2372 0.951 . S
H2354 C2374 0.950 . S
H2355 C2375 0.950 . S
H2356 C2377 0.950 . S
H2357 C2380 0.950 . S
H2358 C2381 0.950 . S
H2359 C2383 0.950 . S
H2360 C2384 0.950 . S
H2361 C2385 0.951 . S
H2362 C2387 0.951 . S
H2363 C2389 0.950 . S
H2364 C2390 0.950 1_545 S
H2365 C2392 0.950 . S
H2366 C2395 0.950 . S
H2367 C2396 0.950 . S
H2368 C2398 0.950 . S
H2369 C2399 0.950 . S
C2370 H2352 0.951 . S
C2370 C2371 1.366 . S
C2370 C2372 1.388 . S
C2371 C2370 1.366 . S
C2371 C2375 1.385 . S
C2372 H2353 0.951 . S
C2372 C2370 1.388 . S
C2372 C2373 1.366 . S
C2373 C2372 1.366 . S
C2373 C2374 1.414 . S
C2373 C2376 1.499 . S
C2374 H2354 0.950 . S
C2374 C2373 1.414 . S
C2374 C2375 1.374 . S
C2375 H2355 0.950 . S
C2375 C2371 1.385 . S
C2375 C2374 1.374 . S
C2376 C2373 1.499 . S
C2376 C2377 1.373 . S
C2376 C2378 1.389 . S
C2377 H2356 0.950 . S
C2377 C2376 1.373 . S
C2377 C2393 1.377 . S
C2378 C2376 1.389 . S
C2378 C2379 1.524 . S
C2378 C2392 1.377 . S
C2379 C2378 1.524 . S
C2379 C2380 1.397 . S
C2379 C2384 1.363 . S
C2380 H2357 0.950 . S
C2380 C2379 1.397 . S
C2380 C2381 1.334 . S
C2381 H2358 0.950 . S
C2381 C2380 1.334 . S
C2381 C2382 1.287 . S
C2382 C2381 1.287 . S
C2382 C2383 1.524 . S
C2382 H2401 0.913 . S
C2383 H2359 0.950 . S
C2383 C2382 1.524 . S
C2383 C2384 1.415 . S
C2384 H2360 0.950 . S
C2384 C2379 1.363 . S
C2384 C2383 1.415 . S
C2385 H2361 0.951 . S
C2385 C2386 1.366 . S
C2385 C2387 1.388 . S
C2386 C2385 1.366 . S
C2386 C2390 1.385 . S
C2387 H2362 0.951 . S
C2387 C2385 1.388 . S
C2387 C2388 1.366 . S
C2388 C2387 1.366 . S
C2388 C2389 1.414 . S
C2388 C2391 1.499 . S
C2389 H2363 0.950 . S
C2389 C2388 1.414 . S
C2389 C2390 1.374 . S
C2390 H2364 0.950 1_565 S
C2390 C2386 1.385 . S
C2390 C2389 1.374 . S
C2391 C2388 1.499 . S
C2391 C2392 1.373 . S
C2391 C2393 1.389 . S
C2392 H2365 0.950 . S
C2392 C2378 1.377 . S
C2392 C2391 1.373 . S
C2393 C2377 1.377 . S
C2393 C2391 1.389 . S
C2393 C2394 1.524 . S
C2394 C2393 1.524 . S
C2394 C2395 1.397 . S
C2394 C2399 1.363 . S
C2395 H2366 0.950 . S
C2395 C2394 1.397 . S
C2395 C2396 1.334 . S
C2396 H2367 0.950 . S
C2396 C2395 1.334 . S
C2396 C2397 1.287 . S
C2397 C2396 1.287 . S
C2397 C2398 1.524 . S
C2397 H2400 0.999 . S
C2398 H2368 0.950 . S
C2398 C2397 1.524 . S
C2398 C2399 1.415 . S
C2399 H2369 0.950 . S
C2399 C2394 1.363 . S
C2399 C2398 1.415 . S
H2400 C2397 0.999 . S
H2401 C2382 0.913 . S
H2402 C2420 0.951 . S
H2403 C2422 0.951 . S
H2404 C2424 0.950 . S
H2405 C2425 0.950 . S
H2406 C2427 0.950 . S
H2407 C2430 0.950 . S
H2408 C2431 0.950 1_565 S
H2409 C2433 0.950 . S
H2410 C2434 0.950 . S
H2411 C2435 0.951 . S
H2412 C2437 0.951 . S
H2413 C2439 0.950 . S
H2414 C2440 0.950 . S
H2415 C2442 0.950 . S
H2416 C2445 0.950 . S
H2417 C2446 0.950 . S
H2418 C2448 0.950 . S
H2419 C2449 0.950 . S
C2420 H2402 0.951 . S
C2420 C2421 1.366 . S
C2420 C2422 1.388 . S
C2421 C2420 1.366 . S
C2421 C2425 1.385 . S
C2422 H2403 0.951 . S
C2422 C2420 1.388 . S
C2422 C2423 1.366 . S
C2423 C2422 1.366 . S
C2423 C2424 1.414 . S
C2423 C2426 1.499 . S
C2424 H2404 0.950 . S
C2424 C2423 1.414 . S
C2424 C2425 1.374 . S
C2425 H2405 0.950 . S
C2425 C2421 1.385 . S
C2425 C2424 1.374 . S
C2426 C2423 1.499 . S
C2426 C2427 1.373 . S
C2426 C2428 1.389 . S
C2427 H2406 0.950 . S
C2427 C2426 1.373 . S
C2427 C2443 1.377 . S
C2428 C2426 1.389 . S
C2428 C2429 1.524 1_565 S
C2428 C2442 1.377 1_565 S
C2429 C2428 1.524 1_545 S
C2429 C2430 1.397 1_545 S
C2429 C2434 1.363 . S
C2430 H2407 0.950 . S
C2430 C2429 1.397 1_565 S
C2430 C2431 1.334 1_565 S
C2431 H2408 0.950 1_545 S
C2431 C2430 1.334 1_545 S
C2431 C2432 1.287 . S
C2432 C2431 1.287 . S
C2432 C2433 1.524 . S
C2432 H2451 0.913 . S
C2433 H2409 0.950 . S
C2433 C2432 1.524 . S
C2433 C2434 1.415 . S
C2434 H2410 0.950 . S
C2434 C2429 1.363 . S
C2434 C2433 1.415 . S
C2435 H2411 0.951 . S
C2435 C2436 1.366 . S
C2435 C2437 1.388 1_545 S
C2436 C2435 1.366 . S
C2436 C2440 1.385 . S
C2437 H2412 0.951 . S
C2437 C2435 1.388 1_565 S
C2437 C2438 1.366 1_565 S
C2438 C2437 1.366 1_545 S
C2438 C2439 1.414 . S
C2438 C2441 1.499 1_545 S
C2439 H2413 0.950 . S
C2439 C2438 1.414 . S
C2439 C2440 1.374 . S
C2440 H2414 0.950 . S
C2440 C2436 1.385 . S
C2440 C2439 1.374 . S
C2441 C2438 1.499 1_565 S
C2441 C2442 1.373 1_565 S
C2441 C2443 1.389 . S
C2442 H2415 0.950 . S
C2442 C2428 1.377 1_545 S
C2442 C2441 1.373 1_545 S
C2443 C2427 1.377 . S
C2443 C2441 1.389 . S
C2443 C2444 1.524 . S
C2444 C2443 1.524 . S
C2444 C2445 1.397 . S
C2444 C2449 1.363 . S
C2445 H2416 0.950 . S
C2445 C2444 1.397 . S
C2445 C2446 1.334 . S
C2446 H2417 0.950 . S
C2446 C2445 1.334 . S
C2446 C2447 1.287 . S
C2447 C2446 1.287 . S
C2447 C2448 1.524 . S
C2447 H2450 0.999 . S
C2448 H2418 0.950 . S
C2448 C2447 1.524 . S
C2448 C2449 1.415 . S
C2449 H2419 0.950 . S
C2449 C2444 1.363 . S
C2449 C2448 1.415 . S
H2450 C2447 0.999 . S
H2451 C2432 0.913 . S
H2452 C2470 0.951 1_565 S
H2453 C2472 0.951 . S
H2454 C2474 0.950 . S
H2455 C2475 0.950 . S
H2456 C2477 0.950 . S
H2457 C2480 0.950 . S
H2458 C2481 0.950 . S
H2459 C2483 0.950 . S
H2460 C2484 0.950 . S
H2461 C2485 0.951 . S
H2462 C2487 0.951 . S
H2463 C2489 0.950 . S
H2464 C2490 0.950 . S
H2465 C2492 0.950 . S
H2466 C2495 0.950 . S
H2467 C2496 0.950 . S
H2468 C2498 0.950 . S
H2469 C2499 0.950 . S
C2470 H2452 0.951 1_545 S
C2470 C2471 1.366 . S
C2470 C2472 1.388 . S
C2471 C2470 1.366 . S
C2471 C2475 1.385 . S
C2472 H2453 0.951 . S
C2472 C2470 1.388 . S
C2472 C2473 1.366 . S
C2473 C2472 1.366 . S
C2473 C2474 1.414 . S
C2473 C2476 1.499 . S
C2474 H2454 0.950 . S
C2474 C2473 1.414 . S
C2474 C2475 1.374 . S
C2475 H2455 0.950 . S
C2475 C2471 1.385 . S
C2475 C2474 1.374 . S
C2476 C2473 1.499 . S
C2476 C2477 1.373 . S
C2476 C2478 1.389 . S
C2477 H2456 0.950 . S
C2477 C2476 1.373 . S
C2477 C2493 1.377 . S
C2478 C2476 1.389 . S
C2478 C2479 1.524 . S
C2478 C2492 1.377 . S
C2479 C2478 1.524 . S
C2479 C2480 1.397 . S
C2479 C2484 1.363 . S
C2480 H2457 0.950 . S
C2480 C2479 1.397 . S
C2480 C2481 1.334 . S
C2481 H2458 0.950 . S
C2481 C2480 1.334 . S
C2481 C2482 1.287 . S
C2482 C2481 1.287 . S
C2482 C2483 1.524 . S
C2482 H2501 0.913 . S
C2483 H2459 0.950 . S
C2483 C2482 1.524 . S
C2483 C2484 1.415 . S
C2484 H2460 0.950 . S
C2484 C2479 1.363 . S
C2484 C2483 1.415 . S
C2485 H2461 0.951 . S
C2485 C2486 1.366 . S
C2485 C2487 1.388 . S
C2486 C2485 1.366 . S
C2486 C2490 1.385 . S
C2487 H2462 0.951 . S
C2487 C2485 1.388 . S
C2487 C2488 1.366 . S
C2488 C2487 1.366 . S
C2488 C2489 1.414 . S
C2488 C2491 1.499 . S
C2489 H2463 0.950 . S
C2489 C2488 1.414 . S
C2489 C2490 1.374 . S
C2490 H2464 0.950 . S
C2490 C2486 1.385 . S
C2490 C2489 1.374 . S
C2491 C2488 1.499 . S
C2491 C2492 1.373 . S
C2491 C2493 1.389 . S
C2492 H2465 0.950 . S
C2492 C2478 1.377 . S
C2492 C2491 1.373 . S
C2493 C2477 1.377 . S
C2493 C2491 1.389 . S
C2493 C2494 1.524 . S
C2494 C2493 1.524 . S
C2494 C2495 1.397 . S
C2494 C2499 1.363 . S
C2495 H2466 0.950 . S
C2495 C2494 1.397 . S
C2495 C2496 1.334 . S
C2496 H2467 0.950 . S
C2496 C2495 1.334 . S
C2496 C2497 1.287 . S
C2497 C2496 1.287 . S
C2497 C2498 1.524 . S
C2497 H2500 0.999 . S
C2498 H2468 0.950 . S
C2498 C2497 1.524 . S
C2498 C2499 1.415 . S
C2499 H2469 0.950 . S
C2499 C2494 1.363 . S
C2499 C2498 1.415 . S
H2500 C2497 0.999 . S
H2501 C2482 0.913 . S
H2502 C2520 0.951 . S
H2503 C2522 0.951 . S
H2504 C2524 0.950 . S
H2505 C2525 0.950 . S
H2506 C2527 0.950 1_565 S
H2507 C2530 0.950 1_565 S
H2508 C2531 0.950 1_565 S
H2509 C2533 0.950 . S
H2510 C2534 0.950 . S
H2511 C2535 0.951 . S
H2512 C2537 0.951 . S
H2513 C2539 0.950 . S
H2514 C2540 0.950 . S
H2515 C2542 0.950 . S
H2516 C2545 0.950 . S
H2517 C2546 0.950 . S
H2518 C2548 0.950 . S
H2519 C2549 0.950 . S
C2520 H2502 0.951 . S
C2520 C2521 1.366 . S
C2520 C2522 1.388 1_565 S
C2521 C2520 1.366 . S
C2521 C2525 1.385 . S
C2522 H2503 0.951 . S
C2522 C2520 1.388 1_545 S
C2522 C2523 1.366 1_545 S
C2523 C2522 1.366 1_565 S
C2523 C2524 1.414 . S
C2523 C2526 1.499 1_565 S
C2524 H2504 0.950 . S
C2524 C2523 1.414 . S
C2524 C2525 1.374 . S
C2525 H2505 0.950 . S
C2525 C2521 1.385 . S
C2525 C2524 1.374 . S
C2526 C2523 1.499 1_545 S
C2526 C2527 1.373 . S
C2526 C2528 1.389 . S
C2527 H2506 0.950 1_545 S
C2527 C2526 1.373 . S
C2527 C2543 1.377 . S
C2528 C2526 1.389 . S
C2528 C2529 1.524 . S
C2528 C2542 1.377 . S
C2529 C2528 1.524 . S
C2529 C2530 1.397 . S
C2529 C2534 1.363 . S
C2530 H2507 0.950 1_545 S
C2530 C2529 1.397 . S
C2530 C2531 1.334 . S
C2531 H2508 0.950 1_545 S
C2531 C2530 1.334 . S
C2531 C2532 1.287 . S
C2532 C2531 1.287 . S
C2532 C2533 1.524 . S
C2532 H2551 0.913 . S
C2533 H2509 0.950 . S
C2533 C2532 1.524 . S
C2533 C2534 1.415 . S
C2534 H2510 0.950 . S
C2534 C2529 1.363 . S
C2534 C2533 1.415 . S
C2535 H2511 0.951 . S
C2535 C2536 1.366 . S
C2535 C2537 1.388 . S
C2536 C2535 1.366 . S
C2536 C2540 1.385 . S
C2537 H2512 0.951 . S
C2537 C2535 1.388 . S
C2537 C2538 1.366 . S
C2538 C2537 1.366 . S
C2538 C2539 1.414 . S
C2538 C2541 1.499 . S
C2539 H2513 0.950 . S
C2539 C2538 1.414 . S
C2539 C2540 1.374 . S
C2540 H2514 0.950 . S
C2540 C2536 1.385 . S
C2540 C2539 1.374 . S
C2541 C2538 1.499 . S
C2541 C2542 1.373 . S
C2541 C2543 1.389 . S
C2542 H2515 0.950 . S
C2542 C2528 1.377 . S
C2542 C2541 1.373 . S
C2543 C2527 1.377 . S
C2543 C2541 1.389 . S
C2543 C2544 1.524 . S
C2544 C2543 1.524 . S
C2544 C2545 1.397 . S
C2544 C2549 1.363 1_545 S
C2545 H2516 0.950 . S
C2545 C2544 1.397 . S
C2545 C2546 1.334 . S
C2546 H2517 0.950 . S
C2546 C2545 1.334 . S
C2546 C2547 1.287 . S
C2547 C2546 1.287 . S
C2547 C2548 1.524 1_545 S
C2547 H2550 0.999 . S
C2548 H2518 0.950 . S
C2548 C2547 1.524 1_565 S
C2548 C2549 1.415 . S
C2549 H2519 0.950 . S
C2549 C2544 1.363 1_565 S
C2549 C2548 1.415 . S
H2550 C2547 0.999 . S
H2551 C2532 0.913 . S
H2552 C2570 0.951 . S
H2553 C2572 0.951 . S
H2554 C2574 0.950 . S
H2555 C2575 0.950 . S
H2556 C2577 0.950 . S
H2557 C2580 0.950 . S
H2558 C2581 0.950 . S
H2559 C2583 0.950 . S
H2560 C2584 0.950 . S
H2561 C2585 0.951 . S
H2562 C2587 0.951 . S
H2563 C2589 0.950 . S
H2564 C2590 0.950 1_565 S
H2565 C2592 0.950 . S
H2566 C2595 0.950 . S
H2567 C2596 0.950 . S
H2568 C2598 0.950 . S
H2569 C2599 0.950 . S
C2570 H2552 0.951 . S
C2570 C2571 1.366 . S
C2570 C2572 1.388 . S
C2571 C2570 1.366 . S
C2571 C2575 1.385 . S
C2572 H2553 0.951 . S
C2572 C2570 1.388 . S
C2572 C2573 1.366 . S
C2573 C2572 1.366 . S
C2573 C2574 1.414 . S
C2573 C2576 1.499 . S
C2574 H2554 0.950 . S
C2574 C2573 1.414 . S
C2574 C2575 1.374 . S
C2575 H2555 0.950 . S
C2575 C2571 1.385 . S
C2575 C2574 1.374 . S
C2576 C2573 1.499 . S
C2576 C2577 1.373 . S
C2576 C2578 1.389 . S
C2577 H2556 0.950 . S
C2577 C2576 1.373 . S
C2577 C2593 1.377 . S
C2578 C2576 1.389 . S
C2578 C2579 1.524 . S
C2578 C2592 1.377 . S
C2579 C2578 1.524 . S
C2579 C2580 1.397 . S
C2579 C2584 1.363 . S
C2580 H2557 0.950 . S
C2580 C2579 1.397 . S
C2580 C2581 1.334 . S
C2581 H2558 0.950 . S
C2581 C2580 1.334 . S
C2581 C2582 1.287 . S
C2582 C2581 1.287 . S
C2582 C2583 1.524 . S
C2582 H2601 0.913 . S
C2583 H2559 0.950 . S
C2583 C2582 1.524 . S
C2583 C2584 1.415 . S
C2584 H2560 0.950 . S
C2584 C2579 1.363 . S
C2584 C2583 1.415 . S
C2585 H2561 0.951 . S
C2585 C2586 1.366 . S
C2585 C2587 1.388 . S
C2586 C2585 1.366 . S
C2586 C2590 1.385 . S
C2587 H2562 0.951 . S
C2587 C2585 1.388 . S
C2587 C2588 1.366 . S
C2588 C2587 1.366 . S
C2588 C2589 1.414 . S
C2588 C2591 1.499 . S
C2589 H2563 0.950 . S
C2589 C2588 1.414 . S
C2589 C2590 1.374 . S
C2590 H2564 0.950 1_545 S
C2590 C2586 1.385 . S
C2590 C2589 1.374 . S
C2591 C2588 1.499 . S
C2591 C2592 1.373 . S
C2591 C2593 1.389 . S
C2592 H2565 0.950 . S
C2592 C2578 1.377 . S
C2592 C2591 1.373 . S
C2593 C2577 1.377 . S
C2593 C2591 1.389 . S
C2593 C2594 1.524 . S
C2594 C2593 1.524 . S
C2594 C2595 1.397 . S
C2594 C2599 1.363 . S
C2595 H2566 0.950 . S
C2595 C2594 1.397 . S
C2595 C2596 1.334 . S
C2596 H2567 0.950 . S
C2596 C2595 1.334 . S
C2596 C2597 1.287 . S
C2597 C2596 1.287 . S
C2597 C2598 1.524 . S
C2597 H2600 0.999 . S
C2598 H2568 0.950 . S
C2598 C2597 1.524 . S
C2598 C2599 1.415 . S
C2599 H2569 0.950 . S
C2599 C2594 1.363 . S
C2599 C2598 1.415 . S
H2600 C2597 0.999 . S
H2601 C2582 0.913 . S
H2602 C2620 0.951 . S
H2603 C2622 0.951 . S
H2604 C2624 0.950 . S
H2605 C2625 0.950 . S
H2606 C2627 0.950 . S
H2607 C2630 0.950 . S
H2608 C2631 0.950 . S
H2609 C2633 0.950 . S
H2610 C2634 0.950 . S
H2611 C2635 0.951 . S
H2612 C2637 0.951 . S
H2613 C2639 0.950 . S
H2614 C2640 0.950 . S
H2615 C2642 0.950 . S
H2616 C2645 0.950 . S
H2617 C2646 0.950 . S
H2618 C2648 0.950 . S
H2619 C2649 0.950 . S
C2620 H2602 0.951 . S
C2620 C2621 1.366 . S
C2620 C2622 1.388 . S
C2621 C2620 1.366 . S
C2621 C2625 1.385 . S
C2622 H2603 0.951 . S
C2622 C2620 1.388 . S
C2622 C2623 1.366 . S
C2623 C2622 1.366 . S
C2623 C2624 1.414 1_565 S
C2623 C2626 1.499 1_565 S
C2624 H2604 0.950 . S
C2624 C2623 1.414 1_545 S
C2624 C2625 1.374 1_545 S
C2625 H2605 0.950 . S
C2625 C2621 1.385 . S
C2625 C2624 1.374 1_565 S
C2626 C2623 1.499 1_545 S
C2626 C2627 1.373 . S
C2626 C2628 1.389 . S
C2627 H2606 0.950 . S
C2627 C2626 1.373 . S
C2627 C2643 1.377 . S
C2628 C2626 1.389 . S
C2628 C2629 1.524 . S
C2628 C2642 1.377 . S
C2629 C2628 1.524 . S
C2629 C2630 1.397 . S
C2629 C2634 1.363 1_545 S
C2630 H2607 0.950 . S
C2630 C2629 1.397 . S
C2630 C2631 1.334 . S
C2631 H2608 0.950 . S
C2631 C2630 1.334 . S
C2631 C2632 1.287 1_545 S
C2632 C2631 1.287 1_565 S
C2632 C2633 1.524 . S
C2632 H2651 0.913 . S
C2633 H2609 0.950 . S
C2633 C2632 1.524 . S
C2633 C2634 1.415 . S
C2634 H2610 0.950 . S
C2634 C2629 1.363 1_565 S
C2634 C2633 1.415 . S
C2635 H2611 0.951 . S
C2635 C2636 1.366 . S
C2635 C2637 1.388 . S
C2636 C2635 1.366 . S
C2636 C2640 1.385 . S
C2637 H2612 0.951 . S
C2637 C2635 1.388 . S
C2637 C2638 1.366 . S
C2638 C2637 1.366 . S
C2638 C2639 1.414 . S
C2638 C2641 1.499 . S
C2639 H2613 0.950 . S
C2639 C2638 1.414 . S
C2639 C2640 1.374 . S
C2640 H2614 0.950 . S
C2640 C2636 1.385 . S
C2640 C2639 1.374 . S
C2641 C2638 1.499 . S
C2641 C2642 1.373 . S
C2641 C2643 1.389 . S
C2642 H2615 0.950 . S
C2642 C2628 1.377 . S
C2642 C2641 1.373 . S
C2643 C2627 1.377 . S
C2643 C2641 1.389 . S
C2643 C2644 1.524 . S
C2644 C2643 1.524 . S
C2644 C2645 1.397 . S
C2644 C2649 1.363 . S
C2645 H2616 0.950 . S
C2645 C2644 1.397 . S
C2645 C2646 1.334 . S
C2646 H2617 0.950 . S
C2646 C2645 1.334 . S
C2646 C2647 1.287 . S
C2647 C2646 1.287 . S
C2647 C2648 1.524 . S
C2647 H2650 0.999 . S
C2648 H2618 0.950 . S
C2648 C2647 1.524 . S
C2648 C2649 1.415 . S
C2649 H2619 0.950 . S
C2649 C2644 1.363 . S
C2649 C2648 1.415 . S
H2650 C2647 0.999 . S
H2651 C2632 0.913 . S
H2652 C2670 0.951 . S
H2653 C2672 0.951 . S
H2654 C2674 0.950 . S
H2655 C2675 0.950 . S
H2656 C2677 0.950 . S
H2657 C2680 0.950 . S
H2658 C2681 0.950 . S
H2659 C2683 0.950 . S
H2660 C2684 0.950 . S
H2661 C2685 0.951 . S
H2662 C2687 0.951 . S
H2663 C2689 0.950 . S
H2664 C2690 0.950 . S
H2665 C2692 0.950 . S
H2666 C2695 0.950 . S
H2667 C2696 0.950 . S
H2668 C2698 0.950 . S
H2669 C2699 0.950 . S
C2670 H2652 0.951 . S
C2670 C2671 1.366 . S
C2670 C2672 1.388 . S
C2671 C2670 1.366 . S
C2671 C2675 1.385 . S
C2672 H2653 0.951 . S
C2672 C2670 1.388 . S
C2672 C2673 1.366 . S
C2673 C2672 1.366 . S
C2673 C2674 1.414 . S
C2673 C2676 1.499 . S
C2674 H2654 0.950 . S
C2674 C2673 1.414 . S
C2674 C2675 1.374 . S
C2675 H2655 0.950 . S
C2675 C2671 1.385 . S
C2675 C2674 1.374 . S
C2676 C2673 1.499 . S
C2676 C2677 1.373 . S
C2676 C2678 1.389 . S
C2677 H2656 0.950 . S
C2677 C2676 1.373 . S
C2677 C2693 1.377 . S
C2678 C2676 1.389 . S
C2678 C2679 1.524 . S
C2678 C2692 1.377 . S
C2679 C2678 1.524 . S
C2679 C2680 1.397 . S
C2679 C2684 1.363 . S
C2680 H2657 0.950 . S
C2680 C2679 1.397 . S
C2680 C2681 1.334 . S
C2681 H2658 0.950 . S
C2681 C2680 1.334 . S
C2681 C2682 1.287 . S
C2682 C2681 1.287 . S
C2682 C2683 1.524 . S
C2682 H2701 0.913 . S
C2683 H2659 0.950 . S
C2683 C2682 1.524 . S
C2683 C2684 1.415 . S
C2684 H2660 0.950 . S
C2684 C2679 1.363 . S
C2684 C2683 1.415 . S
C2685 H2661 0.951 . S
C2685 C2686 1.366 . S
C2685 C2687 1.388 . S
C2686 C2685 1.366 . S
C2686 C2690 1.385 . S
C2687 H2662 0.951 . S
C2687 C2685 1.388 . S
C2687 C2688 1.366 . S
C2688 C2687 1.366 . S
C2688 C2689 1.414 . S
C2688 C2691 1.499 . S
C2689 H2663 0.950 . S
C2689 C2688 1.414 . S
C2689 C2690 1.374 . S
C2690 H2664 0.950 . S
C2690 C2686 1.385 . S
C2690 C2689 1.374 . S
C2691 C2688 1.499 . S
C2691 C2692 1.373 . S
C2691 C2693 1.389 . S
C2692 H2665 0.950 . S
C2692 C2678 1.377 . S
C2692 C2691 1.373 . S
C2693 C2677 1.377 . S
C2693 C2691 1.389 . S
C2693 C2694 1.524 . S
C2694 C2693 1.524 . S
C2694 C2695 1.397 . S
C2694 C2699 1.363 . S
C2695 H2666 0.950 . S
C2695 C2694 1.397 . S
C2695 C2696 1.334 . S
C2696 H2667 0.950 . S
C2696 C2695 1.334 . S
C2696 C2697 1.287 . S
C2697 C2696 1.287 . S
C2697 C2698 1.524 . S
C2697 H2700 0.999 . S
C2698 H2668 0.950 . S
C2698 C2697 1.524 . S
C2698 C2699 1.415 . S
C2699 H2669 0.950 . S
C2699 C2694 1.363 . S
C2699 C2698 1.415 . S
H2700 C2697 0.999 . S
H2701 C2682 0.913 . S
H2702 C2720 0.951 . S
H2703 C2722 0.951 . S
H2704 C2724 0.950 . S
H2705 C2725 0.950 . S
H2706 C2727 0.950 . S
H2707 C2730 0.950 . S
H2708 C2731 0.950 . S
H2709 C2733 0.950 1_545 S
H2710 C2734 0.950 1_545 S
H2711 C2735 0.951 . S
H2712 C2737 0.951 . S
H2713 C2739 0.950 . S
H2714 C2740 0.950 . S
H2715 C2742 0.950 1_545 S
H2716 C2745 0.950 . S
H2717 C2746 0.950 . S
H2718 C2748 0.950 . S
H2719 C2749 0.950 . S
C2720 H2702 0.951 . S
C2720 C2721 1.366 . S
C2720 C2722 1.388 . S
C2721 C2720 1.366 . S
C2721 C2725 1.385 . S
C2722 H2703 0.951 . S
C2722 C2720 1.388 . S
C2722 C2723 1.366 . S
C2723 C2722 1.366 . S
C2723 C2724 1.414 . S
C2723 C2726 1.499 . S
C2724 H2704 0.950 . S
C2724 C2723 1.414 . S
C2724 C2725 1.374 . S
C2725 H2705 0.950 . S
C2725 C2721 1.385 . S
C2725 C2724 1.374 . S
C2726 C2723 1.499 . S
C2726 C2727 1.373 . S
C2726 C2728 1.389 . S
C2727 H2706 0.950 . S
C2727 C2726 1.373 . S
C2727 C2743 1.377 . S
C2728 C2726 1.389 . S
C2728 C2729 1.524 . S
C2728 C2742 1.377 . S
C2729 C2728 1.524 . S
C2729 C2730 1.397 . S
C2729 C2734 1.363 . S
C2730 H2707 0.950 . S
C2730 C2729 1.397 . S
C2730 C2731 1.334 . S
C2731 H2708 0.950 . S
C2731 C2730 1.334 . S
C2731 C2732 1.287 . S
C2732 C2731 1.287 . S
C2732 C2733 1.524 . S
C2732 H2751 0.913 . S
C2733 H2709 0.950 1_565 S
C2733 C2732 1.524 . S
C2733 C2734 1.415 . S
C2734 H2710 0.950 1_565 S
C2734 C2729 1.363 . S
C2734 C2733 1.415 . S
C2735 H2711 0.951 . S
C2735 C2736 1.366 . S
C2735 C2737 1.388 1_545 S
C2736 C2735 1.366 . S
C2736 C2740 1.385 . S
C2737 H2712 0.951 . S
C2737 C2735 1.388 1_565 S
C2737 C2738 1.366 1_565 S
C2738 C2737 1.366 1_545 S
C2738 C2739 1.414 . S
C2738 C2741 1.499 1_545 S
C2739 H2713 0.950 . S
C2739 C2738 1.414 . S
C2739 C2740 1.374 . S
C2740 H2714 0.950 . S
C2740 C2736 1.385 . S
C2740 C2739 1.374 . S
C2741 C2738 1.499 1_565 S
C2741 C2742 1.373 . S
C2741 C2743 1.389 . S
C2742 H2715 0.950 1_565 S
C2742 C2728 1.377 . S
C2742 C2741 1.373 . S
C2743 C2727 1.377 . S
C2743 C2741 1.389 . S
C2743 C2744 1.524 . S
C2744 C2743 1.524 . S
C2744 C2745 1.397 1_565 S
C2744 C2749 1.363 . S
C2745 H2716 0.950 . S
C2745 C2744 1.397 1_545 S
C2745 C2746 1.334 . S
C2746 H2717 0.950 . S
C2746 C2745 1.334 . S
C2746 C2747 1.287 1_545 S
C2747 C2746 1.287 1_565 S
C2747 C2748 1.524 . S
C2747 H2750 0.999 . S
C2748 H2718 0.950 . S
C2748 C2747 1.524 . S
C2748 C2749 1.415 . S
C2749 H2719 0.950 . S
C2749 C2744 1.363 . S
C2749 C2748 1.415 . S
H2750 C2747 0.999 . S
H2751 C2732 0.913 . S
C371 C7 0.839 . S
C386 C271 0.839 . S
C421 C125 0.839 . S
C436 C29 0.839 . S
C471 C65 0.840 . S
C486 C323 0.840 . S
C521 C73 0.839 . S
C536 C175 0.839 . S
C571 C95 0.839 . S
C586 C183 0.839 . S
C621 C227 0.839 . S
C636 C147 0.839 . S
C671 C307 0.840 . S
C686 C219 0.840 . S
C721 C249 0.841 . S
C736 C337 0.840 . S
C771 C213 1.513 . S
C786 C10 1.492 . S
C821 C32 1.492 . S
C836 C241 1.513 . S
C871 C62 1.492 . S
C886 C263 1.513 . S
C921 C197 1.513 . S
C936 C76 1.491 . S
C971 C301 1.513 . S
C986 C98 1.492 . S
C1021 C315 1.513 . S
C1036 C118 1.492 . S
C1071 C140 1.492 . S
C1086 C351 1.512 . S
C1121 C285 1.513 . S
C1136 C172 1.492 . S
C1171 C186 1.492 . S
C1186 C43 1.513 . S
C1221 C216 1.492 . S
C1236 C59 1.512 . S
C1271 C230 1.492 . S
C1286 C87 1.513 . S
C1321 C21 1.512 . S
C1336 C252 1.492 . S
C1371 C117 1.513 . S
C1386 C274 1.492 . S
C1421 C304 1.492 . S
C1436 C139 1.513 . S
C1471 C169 1.512 . S
C1486 C316 1.492 . S
C1521 C340 1.492 . S
C1536 C109 1.513 . S
C1571 C8 0.524 . S
C1586 C228 0.525 . S
C1621 C30 0.526 . S
C1636 C250 0.524 . S
C1671 C184 0.524 . S
C1686 C54 0.525 . S
C1721 C74 0.525 . S
C1736 C208 0.528 . S
C1771 C96 0.527 . S
C1786 C326 0.524 . S
C1821 C128 0.528 . S
C1836 C338 0.525 . S
C1871 C272 0.527 . S
C1886 C150 0.525 . S
C1921 C164 0.528 . S
C1936 C296 0.525 . S
C1971 C18 1.450 . S
C1986 C161 1.475 . S
C2021 C279 1.476 . S
C2036 C40 1.449 . S
C2071 C52 1.449 . S
C2086 C131 1.476 . S
C2121 C84 1.450 1_455 S
C2136 C329 1.476 . S
C2171 C106 1.449 . S
C2186 C81 1.476 . S
C2221 C191 1.476 . S
C2236 C120 1.449 . S
C2271 C142 1.449 . S
C2286 C37 1.476 . S
C2321 C235 1.476 . S
C2336 C162 1.450 1_655 S
C2371 C194 1.450 . S
C2386 C345 1.475 1_565 S
C2421 C103 1.475 . S
C2436 C206 1.450 1_655 S
C2471 C293 1.475 1_545 S
C2486 C238 1.450 . S
C2521 C260 1.449 . S
C2536 C153 1.476 . S
C2571 C282 1.449 . S
C2586 C257 1.476 1_545 S
C2621 C294 1.449 1_455 S
C2636 C15 1.476 . S
C2671 C205 1.475 1_565 S
C2686 C318 1.450 . S
C2721 C51 1.476 . S
C2736 C348 1.449 . S
