# Generated by pormake.
# Topology snk, (6)-cn, num edge types: 1
# Building blocks:
#     Node 0, Type 0, BuildingBlock: BETDEL_clean_sbu_0, # of connection points: 6
#     Node 1, Type 0, BuildingBlock: BETDEL_clean_sbu_0, # of connection points: 6
#     Node 2, Type 0, BuildingBlock: BETDEL_clean_sbu_0, # of connection points: 6
#     Node 3, Type 0, BuildingBlock: BETDEL_clean_sbu_0, # of connection points: 6
#     Node 4, Type 0, BuildingBlock: BETDEL_clean_sbu_0, # of connection points: 6
#     Node 5, Type 0, BuildingBlock: BETDEL_clean_sbu_0, # of connection points: 6
#     Node 6, Type 0, BuildingBlock: BETDEL_clean_sbu_0, # of connection points: 6
#     Node 7, Type 0, BuildingBlock: BETDEL_clean_sbu_0, # of connection points: 6
#     Edge 8, Type (0, 0), BuildingBlock: UVAHIK_clean_linker_0, # of connection points: 2
#     Edge 9, Type (0, 0), BuildingBlock: UVAHIK_clean_linker_0, # of connection points: 2
#     Edge 10, Type (0, 0), BuildingBlock: UVAHIK_clean_linker_0, # of connection points: 2
#     Edge 11, Type (0, 0), BuildingBlock: UVAHIK_clean_linker_0, # of connection points: 2
#     Edge 12, Type (0, 0), BuildingBlock: UVAHIK_clean_linker_0, # of connection points: 2
#     Edge 13, Type (0, 0), BuildingBlock: UVAHIK_clean_linker_0, # of connection points: 2
#     Edge 14, Type (0, 0), BuildingBlock: UVAHIK_clean_linker_0, # of connection points: 2
#     Edge 15, Type (0, 0), BuildingBlock: UVAHIK_clean_linker_0, # of connection points: 2
#     Edge 16, Type (0, 0), BuildingBlock: UVAHIK_clean_linker_0, # of connection points: 2
#     Edge 17, Type (0, 0), BuildingBlock: UVAHIK_clean_linker_0, # of connection points: 2
#     Edge 18, Type (0, 0), BuildingBlock: UVAHIK_clean_linker_0, # of connection points: 2
#     Edge 19, Type (0, 0), BuildingBlock: UVAHIK_clean_linker_0, # of connection points: 2
#     Edge 20, Type (0, 0), BuildingBlock: UVAHIK_clean_linker_0, # of connection points: 2
#     Edge 21, Type (0, 0), BuildingBlock: UVAHIK_clean_linker_0, # of connection points: 2
#     Edge 22, Type (0, 0), BuildingBlock: UVAHIK_clean_linker_0, # of connection points: 2
#     Edge 23, Type (0, 0), BuildingBlock: UVAHIK_clean_linker_0, # of connection points: 2
#     Edge 24, Type (0, 0), BuildingBlock: UVAHIK_clean_linker_0, # of connection points: 2
#     Edge 25, Type (0, 0), BuildingBlock: UVAHIK_clean_linker_0, # of connection points: 2
#     Edge 26, Type (0, 0), BuildingBlock: UVAHIK_clean_linker_0, # of connection points: 2
#     Edge 27, Type (0, 0), BuildingBlock: UVAHIK_clean_linker_0, # of connection points: 2
#     Edge 28, Type (0, 0), BuildingBlock: UVAHIK_clean_linker_0, # of connection points: 2
#     Edge 29, Type (0, 0), BuildingBlock: UVAHIK_clean_linker_0, # of connection points: 2
#     Edge 30, Type (0, 0), BuildingBlock: UVAHIK_clean_linker_0, # of connection points: 2
#     Edge 31, Type (0, 0), BuildingBlock: UVAHIK_clean_linker_0, # of connection points: 2
# Relax obj value: 0.057
# Max RMSD: 0.097
# Mean RMSD: 0.095
data_MOF--net-snk--node1-BETDEL_clean_sbu_0--edge1-UVAHIK_clean_linker_0
_symmetry_space_group_name_H-M    P1
_symmetry_Int_Tables_number       1
_symmetry_cell_setting            triclinic
loop_
_symmetry_equiv_pos_as_xyz
'x, y, z'
_cell_length_a     52.201263
_cell_length_b     52.388124
_cell_length_c     22.483322
_cell_angle_alpha  84.306602
_cell_angle_beta   95.29509
_cell_angle_gamma 89.791962
loop_
_atom_site_label
_atom_site_type_symbol
_atom_site_fract_x
_atom_site_fract_y
_atom_site_fract_z
_atom_type_partial_charge
Dy0 Dy 0.99254 -0.00045 0.46534 0.0
C1 C 0.01995 0.00177 0.71728 0.0
C2 C 0.98178 0.00276 0.34298 0.0
Dy3 Dy 0.00884 0.00566 0.59496 0.0
O4 O 0.98369 0.98178 0.37886 0.0
O5 O 0.98483 0.0223 0.37425 0.0
O6 O 0.00663 0.95894 0.47993 0.0
O7 O 0.02632 0.98657 0.52691 0.0
C8 C 0.02496 0.96307 0.52036 0.0
C9 C 0.97641 0.04231 0.54106 0.0
O10 O 0.04333 0.02271 0.55454 0.0
O11 O 0.02179 0.03082 0.4599 0.0
O12 O 0.01868 0.02287 0.68181 0.0
O13 O 0.01611 0.98246 0.68558 0.0
O14 O 0.99421 0.046 0.5831 0.0
O15 O 0.97521 0.01889 0.53332 0.0
O16 O 0.95786 0.98314 0.50487 0.0
O17 O 0.9794 0.97423 0.5993 0.0
C18 C 0.04148 0.03468 0.49946 0.0
C19 C 0.95972 0.97068 0.55932 0.0
Dy20 Dy 0.24108 0.74302 0.8223 0.0
C21 C 0.25972 0.75991 0.57375 0.0
C22 C 0.23879 0.73552 0.94315 0.0
Dy23 Dy 0.25715 0.75262 0.69454 0.0
O24 O 0.22238 0.74889 0.90567 0.0
O25 O 0.25639 0.72579 0.91454 0.0
O26 O 0.20181 0.7583 0.78829 0.0
O27 O 0.23442 0.77355 0.74956 0.0
C28 C 0.21027 0.7739 0.74619 0.0
C29 C 0.28798 0.72189 0.77105 0.0
O30 O 0.27594 0.78656 0.73144 0.0
O31 O 0.27396 0.77069 0.83119 0.0
O32 O 0.27566 0.74603 0.61135 0.0
O33 O 0.24242 0.77024 0.6022 0.0
O34 O 0.29647 0.73751 0.72902 0.0
O35 O 0.26383 0.72216 0.76725 0.0
O36 O 0.22256 0.70901 0.78552 0.0
O37 O 0.22398 0.72517 0.68579 0.0
C38 C 0.28293 0.78716 0.78948 0.0
C39 C 0.21526 0.70856 0.72763 0.0
Dy40 Dy 0.50704 0.98747 0.07488 0.0
C41 C 0.48435 0.00818 0.81946 0.0
C42 C 0.51644 0.98603 0.19712 0.0
Dy43 Dy 0.49371 0.00657 0.94176 0.0
O44 O 0.50734 0.96726 0.1683 0.0
O45 O 0.52126 0.00528 0.15896 0.0
O46 O 0.49108 0.94896 0.05893 0.0
O47 O 0.47499 0.98188 1.0077 0.0
C48 C 0.47489 0.95769 0.0141 0.0
C49 C 0.52583 0.03628 1.00299 0.0
O50 O 0.45993 0.02431 0.97746 0.0
O51 O 0.47714 0.0183 0.07705 0.0
O52 O 0.49365 0.02683 0.84844 0.0
O53 O 0.47932 0.98896 0.8575 0.0
O54 O 0.50965 0.0451 0.95821 0.0
O55 O 0.5257 0.0121 0.00888 0.0
O56 O 0.54088 0.96985 0.03914 0.0
O57 O 0.52362 0.97573 0.93958 0.0
C58 C 0.45973 0.02863 0.03464 0.0
C59 C 0.54108 0.96548 0.98198 0.0
Dy60 Dy 0.24087 0.25409 0.19032 0.0
C61 C 0.26234 0.23264 0.44596 0.0
C62 C 0.23917 0.26341 0.06799 0.0
Dy63 Dy 0.26056 0.24191 0.32361 0.0
O64 O 0.22054 0.25394 0.09743 0.0
O65 O 0.2584 0.26859 0.10556 0.0
O66 O 0.20296 0.23655 0.20805 0.0
O67 O 0.23667 0.22218 0.25895 0.0
C68 C 0.21247 0.221 0.2534 0.0
C69 C 0.28888 0.27506 0.26026 0.0
O70 O 0.27926 0.20864 0.2885 0.0
O71 O 0.27292 0.2254 0.18848 0.0
O72 O 0.28092 0.24215 0.41645 0.0
O73 O 0.24311 0.2274 0.40845 0.0
O74 O 0.29846 0.25951 0.30554 0.0
O75 O 0.2647 0.2738 0.25508 0.0
O76 O 0.2222 0.28737 0.22541 0.0
O77 O 0.22847 0.27058 0.32541 0.0
C78 C 0.28373 0.20843 0.23133 0.0
C79 C 0.21767 0.28756 0.28256 0.0
Dy80 Dy 0.74196 0.24281 0.32286 0.0
C81 C 0.75857 0.25996 0.07306 0.0
C82 C 0.74053 0.23486 0.44381 0.0
Dy83 Dy 0.75646 0.2529 0.19389 0.0
O84 O 0.7228 0.24647 0.40661 0.0
O85 O 0.75909 0.22717 0.41492 0.0
O86 O 0.70206 0.25687 0.29265 0.0
O87 O 0.73336 0.27302 0.2499 0.0
C88 C 0.70923 0.27249 0.249 0.0
C89 C 0.78906 0.22329 0.26853 0.0
O90 O 0.77513 0.28713 0.22939 0.0
O91 O 0.77302 0.27251 0.32996 0.0
O92 O 0.77462 0.24617 0.1105 0.0
O93 O 0.7413 0.27028 0.1016 0.0
O94 O 0.79639 0.23906 0.22535 0.0
O95 O 0.76493 0.22272 0.2668 0.0
O96 O 0.72412 0.20823 0.28652 0.0
O97 O 0.72418 0.22465 0.18669 0.0
C98 C 0.78176 0.28867 0.28727 0.0
C99 C 0.7163 0.20771 0.22885 0.0
Dy100 Dy 0.74219 0.75478 0.6926 0.0
C101 C 0.76253 0.7316 0.9481 0.0
C102 C 0.74082 0.76439 0.57025 0.0
Dy103 Dy 0.76097 0.74112 0.82571 0.0
O104 O 0.72197 0.75531 0.59944 0.0
O105 O 0.76013 0.76911 0.60813 0.0
O106 O 0.70363 0.7385 0.70866 0.0
O107 O 0.73662 0.72252 0.75963 0.0
C108 C 0.71238 0.7222 0.75329 0.0
C109 C 0.7908 0.77342 0.76444 0.0
O110 O 0.77881 0.70754 0.78981 0.0
O111 O 0.7734 0.72526 0.69043 0.0
O112 O 0.78125 0.74089 0.91874 0.0
O113 O 0.74326 0.72661 0.91037 0.0
O114 O 0.79964 0.75712 0.80898 0.0
O115 O 0.76656 0.77325 0.7587 0.0
O116 O 0.72437 0.78831 0.72835 0.0
O117 O 0.72973 0.7707 0.82782 0.0
C118 C 0.7835 0.70765 0.7327 0.0
C119 C 0.71962 0.78825 0.78539 0.0
Dy120 Dy 0.49102 0.49203 0.92161 0.0
C121 C 0.51811 0.49607 0.17343 0.0
C122 C 0.47983 0.49587 0.79935 0.0
Dy123 Dy 0.50758 0.49889 0.05104 0.0
O124 O 0.48181 0.47472 0.83466 0.0
O125 O 0.483 0.51522 0.83118 0.0
O126 O 0.50499 0.45153 0.93456 0.0
O127 O 0.52444 0.47868 0.98381 0.0
C128 C 0.52284 0.45521 0.97654 0.0
C129 C 0.47544 0.53533 0.99432 0.0
O130 O 0.54246 0.51469 0.01116 0.0
O131 O 0.52131 0.52256 0.91597 0.0
O132 O 0.51569 0.51698 0.13736 0.0
O133 O 0.51572 0.47643 0.14235 0.0
O134 O 0.49392 0.53967 0.03426 0.0
O135 O 0.47395 0.51172 0.98924 0.0
O136 O 0.45649 0.47539 0.96246 0.0
O137 O 0.47786 0.46804 0.05752 0.0
C138 C 0.54098 0.5263 0.95583 0.0
C139 C 0.45822 0.46393 0.01802 0.0
Dy140 Dy 0.00684 0.48793 0.57202 0.0
C141 C 0.98428 0.50958 0.31666 0.0
C142 C 0.01555 0.48545 0.69458 0.0
Dy143 Dy 0.99343 0.50755 0.43903 0.0
O144 O 0.00438 0.46793 0.66478 0.0
O145 O 0.02279 0.50396 0.65724 0.0
O146 O 0.99287 0.449 0.55277 0.0
O147 O 0.97534 0.4819 0.50413 0.0
C148 C 0.97623 0.45772 0.5088 0.0
C149 C 0.02408 0.53792 0.50176 0.0
O150 O 0.95937 0.52459 0.47477 0.0
O151 O 0.97638 0.51824 0.57452 0.0
O152 O 0.99558 0.52721 0.3459 0.0
O153 O 0.97713 0.4912 0.35448 0.0
O154 O 0.00767 0.54647 0.45715 0.0
O155 O 0.02488 0.51371 0.50696 0.0
O156 O 0.04103 0.47102 0.53643 0.0
O157 O 0.02397 0.47731 0.43669 0.0
C158 C 0.95893 0.52852 0.53213 0.0
C159 C 0.04147 0.4671 0.47907 0.0
C160 C 0.08557 0.05383 0.51429 0.0
C161 C 0.0618 0.05235 0.47994 0.0
C162 C 0.10466 0.07036 0.49378 0.0
C163 C 0.12306 0.10635 0.35356 0.0
H164 H 0.16276 0.14843 0.45996 0.0
C165 C 0.1712 0.19862 0.26723 0.0
C166 C 0.19744 0.20116 0.28527 0.0
C167 C 0.15702 0.17905 0.29465 0.0
C168 C 0.15198 0.13655 0.43 0.0
H169 H 0.03918 0.06765 0.39814 0.0
H170 H 0.07188 0.09653 0.36353 0.0
H171 H 0.13351 0.11624 0.50151 0.0
H172 H 0.22938 0.1857 0.34698 0.0
H173 H 0.20417 0.15168 0.39638 0.0
H174 H 0.14066 0.12732 0.28192 0.0
C175 C 0.07626 0.0845 0.40529 0.0
C176 C 0.13533 0.11809 0.45369 0.0
C177 C 0.05738 0.06799 0.42544 0.0
C178 C 0.20912 0.18419 0.33243 0.0
C179 C 0.19477 0.16479 0.36064 0.0
C180 C 0.13939 0.12491 0.32998 0.0
C181 C 0.10025 0.08572 0.43869 0.0
C182 C 0.1202 0.10323 0.41545 0.0
C183 C 0.1687 0.16184 0.34122 0.0
C184 C 0.15356 0.14055 0.36775 0.0
H185 H 0.08954 0.04201 0.55649 0.0
H186 H 0.12298 0.0708 0.5205 0.0
H187 H 0.11228 0.09474 0.323 0.0
H188 H 0.16169 0.21147 0.23114 0.0
H189 H 0.13686 0.17732 0.27936 0.0
C190 C 0.04116 0.91834 0.53833 0.0
C191 C 0.04587 0.94459 0.53918 0.0
C192 C 0.06129 0.90061 0.55177 0.0
C193 C 0.12778 0.89354 0.62389 0.0
H194 H 0.12532 0.83043 0.54663 0.0
C195 C 0.20503 0.81434 0.67844 0.0
C196 C 0.19413 0.79228 0.70599 0.0
C197 C 0.18923 0.83334 0.64599 0.0
C198 C 0.12631 0.84813 0.56787 0.0
H199 H 0.07493 0.97325 0.55434 0.0
H200 H 0.11042 0.94236 0.57569 0.0
H201 H 0.09323 0.86418 0.51406 0.0
H202 H 0.15883 0.7716 0.7181 0.0
H203 H 0.13116 0.80472 0.65997 0.0
H204 H 0.16102 0.87735 0.67735 0.0
C205 C 0.09116 0.93528 0.56633 0.0
C206 C 0.10785 0.86731 0.54989 0.0
C207 C 0.07089 0.95299 0.55409 0.0
C208 C 0.16752 0.78863 0.69756 0.0
C209 C 0.1518 0.80738 0.66408 0.0
C210 C 0.14652 0.87458 0.64093 0.0
C211 C 0.08659 0.90888 0.56506 0.0
C212 C 0.10791 0.88989 0.57903 0.0
C213 C 0.16251 0.83013 0.63963 0.0
C214 C 0.14545 0.85153 0.61414 0.0
H215 H 0.0219 0.91153 0.52722 0.0
H216 H 0.05692 0.88041 0.55208 0.0
H217 H 0.12827 0.91049 0.64785 0.0
H218 H 0.22558 0.81743 0.68426 0.0
H219 H 0.19775 0.85084 0.62738 0.0
C220 C 0.31524 0.80272 0.86594 0.0
C221 C 0.30154 0.80654 0.80899 0.0
C222 C 0.33311 0.82064 0.88479 0.0
C223 C 0.37224 0.87555 0.82871 0.0
H224 H 0.38101 0.8855 0.99802 0.0
C225 C 0.43772 0.95238 0.9375 0.0
C226 C 0.45515 0.94179 0.985 0.0
C227 C 0.41843 0.93723 0.91204 0.0
C228 C 0.37873 0.88288 0.95062 0.0
H229 H 0.29569 0.83227 0.72714 0.0
H230 H 0.32631 0.86416 0.76086 0.0
H231 H 0.34745 0.85728 0.96148 0.0
H232 H 0.46632 0.90715 0.04271 0.0
H233 H 0.43222 0.88099 0.99944 0.0
H234 H 0.40339 0.90185 0.81842 0.0
C235 C 0.32371 0.84696 0.79049 0.0
C236 C 0.35964 0.86658 0.92963 0.0
C237 C 0.30605 0.82876 0.77123 0.0
C238 C 0.45313 0.91583 1.00622 0.0
C239 C 0.43361 0.90088 0.98165 0.0
C240 C 0.3911 0.89226 0.8497 0.0
C241 C 0.33747 0.84313 0.84761 0.0
C242 C 0.35648 0.86221 0.86862 0.0
C243 C 0.41601 0.91147 0.93467 0.0
C244 C 0.39479 0.89562 0.91102 0.0
H245 H 0.31249 0.78561 0.8958 0.0
H246 H 0.34377 0.8166 0.92837 0.0
H247 H 0.37059 0.87251 0.78159 0.0
H248 H 0.43881 0.97239 0.92054 0.0
H249 H 0.40498 0.94578 0.87592 0.0
C250 C 0.43695 0.0461 0.11503 0.0
C251 C 0.43954 0.04526 0.05351 0.0
C252 C 0.41905 0.06253 0.13423 0.0
C253 C 0.36039 0.10161 0.08438 0.0
H254 H 0.38198 0.13729 0.2234 0.0
C255 C 0.30321 0.18685 0.15163 0.0
C256 C 0.30066 0.18838 0.21297 0.0
C257 C 0.31924 0.16838 0.13322 0.0
C258 C 0.37552 0.12722 0.18505 0.0
H259 H 0.42488 0.06079 0.96384 0.0
H260 H 0.39369 0.08993 0.99752 0.0
H261 H 0.41156 0.10745 0.18773 0.0
H262 H 0.31297 0.17145 0.30306 0.0
H263 H 0.34113 0.13904 0.27072 0.0
H264 H 0.32443 0.12173 0.08137 0.0
C265 C 0.40542 0.07756 0.03086 0.0
C266 C 0.39248 0.11011 0.16449 0.0
C267 C 0.42334 0.06093 0.01151 0.0
C268 C 0.31451 0.17083 0.25551 0.0
C269 C 0.33071 0.15235 0.23699 0.0
C270 C 0.34344 0.1188 0.10485 0.0
C271 C 0.40329 0.07875 0.09255 0.0
C272 C 0.38515 0.09708 0.1139 0.0
C273 C 0.33325 0.15095 0.17558 0.0
C274 C 0.35084 0.13186 0.15534 0.0
H275 H 0.44886 0.0341 0.14879 0.0
H276 H 0.41757 0.06249 0.18198 0.0
H277 H 0.35396 0.09163 0.04587 0.0
H278 H 0.29289 0.20001 0.11741 0.0
H279 H 0.32103 0.16809 0.08567 0.0
C280 C 0.94554 0.93319 0.62495 0.0
C281 C 0.94013 0.95158 0.57543 0.0
C282 C 0.92802 0.91391 0.63818 0.0
C283 C 0.86067 0.89698 0.62361 0.0
H284 H 0.88696 0.82704 0.65002 0.0
C285 C 0.79564 0.81122 0.68902 0.0
C286 C 0.80671 0.79275 0.7336 0.0
C287 C 0.81089 0.83013 0.66202 0.0
C288 C 0.87932 0.84646 0.64334 0.0
H289 H 0.91175 0.9646 0.50193 0.0
H290 H 0.88071 0.93101 0.52625 0.0
H291 H 0.91535 0.8617 0.61922 0.0
H292 H 0.84226 0.77931 0.78463 0.0
H293 H 0.86866 0.81251 0.73919 0.0
H294 H 0.82493 0.88197 0.65025 0.0
C295 C 0.89871 0.93153 0.55422 0.0
C296 C 0.89557 0.86627 0.62546 0.0
C297 C 0.91647 0.95066 0.54032 0.0
C298 C 0.83324 0.79327 0.75021 0.0
C299 C 0.84841 0.81222 0.72371 0.0
C300 C 0.84444 0.87717 0.64232 0.0
C301 C 0.90455 0.91277 0.60273 0.0
C302 C 0.88654 0.89174 0.61648 0.0
C303 C 0.83746 0.83097 0.67943 0.0
C304 C 0.85373 0.85172 0.65356 0.0
H305 H 0.96361 0.93329 0.65279 0.0
H306 H 0.93283 0.89982 0.67626 0.0
H307 H 0.85331 0.91652 0.61712 0.0
H308 H 0.77518 0.81119 0.67541 0.0
H309 H 0.80187 0.84408 0.62761 0.0
C310 C 0.93712 0.05643 0.47459 0.0
C311 C 0.95558 0.06086 0.52159 0.0
C312 C 0.91719 0.07416 0.45703 0.0
C313 C 0.90099 0.14214 0.46407 0.0
H314 H 0.83325 0.1209 0.40361 0.0
C315 C 0.79693 0.18807 0.3512 0.0
C316 C 0.80654 0.2065 0.30962 0.0
C317 C 0.81377 0.17119 0.38773 0.0
C318 C 0.85191 0.12715 0.42145 0.0
H319 H 0.96763 0.08666 0.58831 0.0
H320 H 0.93249 0.11716 0.55905 0.0
H321 H 0.86489 0.08862 0.4483 0.0
H322 H 0.84094 0.22243 0.27427 0.0
H323 H 0.87026 0.19265 0.33666 0.0
H324 H 0.88797 0.18064 0.43791 0.0
C325 C 0.93364 0.10046 0.53456 0.0
C326 C 0.87015 0.10865 0.44614 0.0
C327 C 0.95372 0.08298 0.55141 0.0
C328 C 0.83311 0.20832 0.30602 0.0
C329 C 0.84989 0.19143 0.34219 0.0
C330 C 0.8827 0.16061 0.44002 0.0
C331 C 0.91531 0.0964 0.4868 0.0
C332 C 0.89508 0.11594 0.46626 0.0
C333 C 0.84038 0.17251 0.38291 0.0
C334 C 0.85825 0.15326 0.41685 0.0
H335 H 0.93828 0.03945 0.45102 0.0
H336 H 0.90362 0.07071 0.41936 0.0
H337 H 0.92006 0.14843 0.47875 0.0
H338 H 0.77644 0.18639 0.35469 0.0
H339 H 0.80596 0.15694 0.41915 0.0
C340 C 0.68366 0.19185 0.1537 0.0
C341 C 0.69783 0.18805 0.2101 0.0
C342 C 0.66602 0.17368 0.1352 0.0
C343 C 0.62812 0.11793 0.191 0.0
H344 H 0.6192 0.10864 0.02133 0.0
C345 C 0.56294 0.0413 0.07992 0.0
C346 C 0.54544 0.05208 0.03278 0.0
C347 C 0.58214 0.05638 0.10598 0.0
C348 C 0.62153 0.11105 0.06883 0.0
H349 H 0.70463 0.16218 0.29151 0.0
H350 H 0.6743 0.12985 0.25833 0.0
H351 H 0.65255 0.13698 0.05821 0.0
H352 H 0.53401 0.08701 0.97642 0.0
H353 H 0.56795 0.11307 0.02073 0.0
H354 H 0.59718 0.09134 0.20099 0.0
C355 C 0.67646 0.14719 0.22886 0.0
C356 C 0.6405 0.12742 0.09002 0.0
C357 C 0.69393 0.16564 0.24779 0.0
C358 C 0.54727 0.07818 0.01259 0.0
C359 C 0.56669 0.09307 0.03778 0.0
C360 C 0.60936 0.10115 0.16978 0.0
C361 C 0.66234 0.15096 0.17215 0.0
C362 C 0.64365 0.1316 0.15114 0.0
C363 C 0.58439 0.08228 0.08434 0.0
C364 C 0.60558 0.09806 0.10832 0.0
H365 H 0.68588 0.2091 0.12393 0.0
H366 H 0.65503 0.17768 0.09201 0.0
H367 H 0.62983 0.12079 0.23822 0.0
H368 H 0.562 0.02118 0.09607 0.0
H369 H 0.59567 0.04768 0.14175 0.0
C370 C 0.70053 0.81006 0.86528 0.0
C371 C 0.70291 0.80843 0.80391 0.0
C372 C 0.68435 0.82839 0.88373 0.0
C373 C 0.62719 0.86827 0.83205 0.0
H374 H 0.64797 0.90457 0.97057 0.0
C375 C 0.56392 0.94808 0.90157 0.0
C376 C 0.56144 0.94906 0.9631 0.0
C377 C 0.58213 0.93197 0.88243 0.0
C378 C 0.64176 0.89438 0.93225 0.0
H379 H 0.69024 0.82511 0.71382 0.0
H380 H 0.66182 0.85726 0.74622 0.0
H381 H 0.67818 0.8751 0.93517 0.0
H382 H 0.57658 0.93407 0.05282 0.0
H383 H 0.60831 0.90548 0.01925 0.0
H384 H 0.59069 0.88716 0.82949 0.0
C385 C 0.67248 0.84414 0.77995 0.0
C386 C 0.6591 0.87756 0.91183 0.0
C387 C 0.68885 0.82582 0.76139 0.0
C388 C 0.57802 0.93381 1.00514 0.0
C389 C 0.59626 0.91751 0.98586 0.0
C390 C 0.60984 0.885 0.85257 0.0
C391 C 0.67 0.84555 0.84137 0.0
C392 C 0.65199 0.86427 0.86156 0.0
C393 C 0.59832 0.91622 0.92417 0.0
C394 C 0.61689 0.89828 0.90292 0.0
H395 H 0.71106 0.79704 0.89945 0.0
H396 H 0.68264 0.82872 0.9313 0.0
H397 H 0.62095 0.858 0.7939 0.0
H398 H 0.55171 0.95976 0.86776 0.0
H399 H 0.58354 0.93194 0.83467 0.0
C400 C 0.58442 0.54609 0.97451 0.0
C401 C 0.56142 0.54409 0.93759 0.0
C402 C 0.60325 0.56356 0.95722 0.0
C403 C 0.62295 0.60389 0.82359 0.0
H404 H 0.65846 0.64373 0.94157 0.0
C405 C 0.6709 0.6993 0.75868 0.0
C406 C 0.69672 0.7017 0.78072 0.0
C407 C 0.65635 0.67886 0.78094 0.0
C408 C 0.64885 0.63252 0.90838 0.0
H409 H 0.54005 0.55903 0.85389 0.0
H410 H 0.57228 0.58972 0.82476 0.0
H411 H 0.62945 0.60959 0.9741 0.0
H412 H 0.72743 0.6852 0.84461 0.0
H413 H 0.70156 0.6496 0.88495 0.0
H414 H 0.64152 0.62757 0.75773 0.0
C415 C 0.57628 0.5774 0.86621 0.0
C416 C 0.63233 0.61292 0.9269 0.0
C417 C 0.55765 0.55985 0.88316 0.0
C418 C 0.70753 0.68377 0.82694 0.0
C419 C 0.69279 0.66347 0.84998 0.0
C420 C 0.63913 0.62365 0.80512 0.0
C421 C 0.59935 0.57948 0.90287 0.0
C422 C 0.61879 0.59869 0.88451 0.0
C423 C 0.66723 0.66063 0.8263 0.0
C424 C 0.65187 0.63841 0.84717 0.0
H425 H 0.58792 0.53416 0.01669 0.0
H426 H 0.62089 0.56448 0.98626 0.0
H427 H 0.61343 0.59289 0.78987 0.0
H428 H 0.66205 0.71289 0.72319 0.0
H429 H 0.63658 0.67722 0.76249 0.0
C430 C 0.701 0.30774 0.16652 0.0
C431 C 0.6916 0.28941 0.20861 0.0
C432 C 0.68405 0.32475 0.1307 0.0
C433 C 0.64617 0.36906 0.09813 0.0
H434 H 0.57749 0.34826 0.0435 0.0
C435 C 0.56181 0.4408 0.04379 0.0
C436 C 0.54326 0.43632 0.99701 0.0
C437 C 0.58143 0.42279 0.06212 0.0
C438 C 0.59671 0.3544 0.05747 0.0
H439 H 0.65741 0.27379 0.24562 0.0
H440 H 0.62791 0.30379 0.1845 0.0
H441 H 0.60943 0.31585 0.08406 0.0
H442 H 0.53067 0.41012 0.93163 0.0
H443 H 0.56526 0.37914 0.96219 0.0
H444 H 0.6335 0.40763 0.0707 0.0
C445 C 0.6482 0.30484 0.17802 0.0
C446 C 0.61491 0.33583 0.08137 0.0
C447 C 0.66509 0.28781 0.21345 0.0
C448 C 0.54466 0.41386 0.96831 0.0
C449 C 0.56442 0.39609 0.98593 0.0
C450 C 0.62801 0.38766 0.07358 0.0
C451 C 0.65752 0.32366 0.13677 0.0
C452 C 0.63958 0.34301 0.10344 0.0
C453 C 0.58289 0.40023 0.03335 0.0
C454 C 0.60292 0.38054 0.05434 0.0
H455 H 0.72144 0.30926 0.16209 0.0
H456 H 0.69171 0.33891 0.09883 0.0
H457 H 0.665 0.37519 0.11516 0.0
H458 H 0.561 0.45804 0.06653 0.0
H459 H 0.59512 0.42632 0.09951 0.0
C460 C 0.96108 0.41477 0.48368 0.0
C461 C 0.95762 0.44149 0.47721 0.0
C462 C 0.94256 0.39904 0.45788 0.0
C463 C 0.89339 0.37007 0.43811 0.0
H464 H 0.85391 0.38886 0.2853 0.0
C465 C 0.8038 0.31377 0.3656 0.0
C466 C 0.80012 0.30855 0.30535 0.0
C467 C 0.82241 0.33117 0.38381 0.0
C468 C 0.8649 0.38322 0.32783 0.0
H469 H 0.93267 0.47291 0.43708 0.0
H470 H 0.89986 0.44541 0.39322 0.0
H471 H 0.88888 0.41624 0.3194 0.0
H472 H 0.81277 0.31791 0.21664 0.0
H473 H 0.84568 0.34786 0.24868 0.0
H474 H 0.8701 0.33673 0.44594 0.0
C475 C 0.91704 0.43655 0.4174 0.0
C476 C 0.88477 0.39908 0.34771 0.0
C477 C 0.93574 0.45232 0.44278 0.0
C478 C 0.81505 0.3216 0.26338 0.0
C479 C 0.83386 0.33885 0.28173 0.0
C480 C 0.8737 0.3542 0.41813 0.0
C481 C 0.92001 0.40967 0.42559 0.0
C482 C 0.89923 0.3927 0.40319 0.0
C483 C 0.83802 0.34357 0.34236 0.0
C484 C 0.85908 0.36061 0.36294 0.0
H485 H 0.97796 0.40597 0.50941 0.0
H486 H 0.94581 0.37848 0.46385 0.0
H487 H 0.9038 0.36471 0.48149 0.0
H488 H 0.79245 0.30427 0.39901 0.0
H489 H 0.82463 0.33477 0.4306 0.0
C490 C 0.8143 0.66995 0.75539 0.0
C491 C 0.79999 0.68743 0.71356 0.0
C492 C 0.83044 0.65164 0.73587 0.0
C493 C 0.86447 0.63896 0.60373 0.0
H494 H 0.87048 0.56941 0.68085 0.0
C495 C 0.92199 0.5601 0.50873 0.0
C496 C 0.9385 0.54488 0.55096 0.0
C497 C 0.90381 0.57652 0.52775 0.0
C498 C 0.86911 0.58882 0.65906 0.0
H499 H 0.79091 0.69877 0.61825 0.0
H500 H 0.81844 0.66689 0.58478 0.0
H501 H 0.84172 0.60002 0.71725 0.0
H502 H 0.94832 0.5345 0.6464 0.0
H503 H 0.91688 0.56299 0.67908 0.0
H504 H 0.89185 0.6278 0.54563 0.0
C505 C 0.81778 0.6676 0.6326 0.0
C506 C 0.8527 0.60638 0.68007 0.0
C507 C 0.80182 0.68585 0.65197 0.0
C508 C 0.936 0.54599 0.61246 0.0
C509 C 0.9178 0.56221 0.63136 0.0
C510 C 0.88078 0.6214 0.58263 0.0
C511 C 0.83253 0.65043 0.67417 0.0
C512 C 0.85018 0.63168 0.65266 0.0
C513 C 0.90166 0.57787 0.58934 0.0
C514 C 0.88336 0.59614 0.61012 0.0
H515 H 0.81337 0.67066 0.80312 0.0
H516 H 0.8417 0.6388 0.76914 0.0
H517 H 0.86337 0.65841 0.58219 0.0
H518 H 0.92339 0.5597 0.46107 0.0
H519 H 0.89145 0.58818 0.49425 0.0
C520 C 0.32988 0.29808 0.24738 0.0
C521 C 0.30373 0.29519 0.22886 0.0
C522 C 0.34384 0.31797 0.22054 0.0
C523 C 0.3489 0.36079 0.086 0.0
H524 H 0.38689 0.4034 0.19408 0.0
C525 C 0.41436 0.44434 1.00289 0.0
C526 C 0.43787 0.44637 0.03793 0.0
C527 C 0.39536 0.42767 0.02324 0.0
C528 C 0.37659 0.39157 0.16322 0.0
H529 H 0.27176 0.31036 0.1669 0.0
H530 H 0.29661 0.34492 0.11844 0.0
H531 H 0.35892 0.37018 0.2342 0.0
H532 H 0.46007 0.43201 0.12106 0.0
H533 H 0.42757 0.40283 0.15542 0.0
H534 H 0.36748 0.38144 0.01521 0.0
C535 C 0.30609 0.33184 0.15414 0.0
C536 C 0.3605 0.37265 0.18625 0.0
C537 C 0.29194 0.31213 0.18179 0.0
C538 C 0.44208 0.43123 0.09317 0.0
C539 C 0.4233 0.41455 0.11317 0.0
C540 C 0.36534 0.37958 0.06288 0.0
C541 C 0.33205 0.33514 0.17406 0.0
C542 C 0.34694 0.35675 0.14809 0.0
C543 C 0.39961 0.41268 0.07887 0.0
C544 C 0.37985 0.39477 0.10152 0.0
H545 H 0.33947 0.28526 0.28343 0.0
H546 H 0.36393 0.31998 0.23621 0.0
H547 H 0.3386 0.34869 0.05575 0.0
H548 H 0.41054 0.45578 0.96012 0.0
H549 H 0.37727 0.42676 0.99584 0.0
C550 C 0.42925 0.54484 0.96283 0.0
C551 C 0.45427 0.55358 0.97623 0.0
C552 C 0.40872 0.56227 0.95158 0.0
C553 C 0.39142 0.63006 0.96816 0.0
H554 H 0.33749 0.61913 0.84305 0.0
C555 C 0.3307 0.70779 0.82079 0.0
C556 C 0.30415 0.70384 0.81205 0.0
C557 C 0.34653 0.68931 0.85489 0.0
C558 C 0.35219 0.62213 0.87889 0.0
H559 H 0.47793 0.58697 0.9866 0.0
H560 H 0.4424 0.61763 0.96342 0.0
H561 H 0.37072 0.58642 0.87161 0.0
H562 H 0.27288 0.6785 0.83399 0.0
H563 H 0.3009 0.64555 0.892 0.0
H564 H 0.37364 0.66678 0.97165 0.0
C565 C 0.43828 0.59736 0.96413 0.0
C566 C 0.37121 0.60342 0.89538 0.0
C567 C 0.45868 0.5799 0.97658 0.0
C568 C 0.29339 0.68181 0.84003 0.0
C569 C 0.30929 0.66307 0.87314 0.0
C570 C 0.37265 0.64899 0.95074 0.0
C571 C 0.413 0.58874 0.95234 0.0
C572 C 0.39138 0.60742 0.93926 0.0
C573 C 0.33598 0.66653 0.8797 0.0
C574 C 0.35323 0.64529 0.90527 0.0
H575 H 0.42542 0.52452 0.96302 0.0
H576 H 0.38949 0.55493 0.94339 0.0
H577 H 0.40628 0.63345 1.00327 0.0
H578 H 0.33928 0.72481 0.79994 0.0
H579 H 0.36714 0.69217 0.85909 0.0
C580 C 0.1928 0.66668 0.74581 0.0
C581 C 0.19619 0.68948 0.70895 0.0
C582 C 0.17413 0.64908 0.72856 0.0
C583 C 0.11242 0.64517 0.64258 0.0
H584 H 0.13016 0.57447 0.62583 0.0
C585 C 0.04273 0.58077 0.51554 0.0
C586 C 0.0427 0.55431 0.53292 0.0
C587 C 0.06096 0.59644 0.5425 0.0
C588 C 0.1247 0.59398 0.63143 0.0
H589 H 0.18265 0.71182 0.62547 0.0
H590 H 0.14964 0.68136 0.59623 0.0
H591 H 0.16325 0.60323 0.6634 0.0
H592 H 0.0614 0.52344 0.59269 0.0
H593 H 0.09265 0.55098 0.64199 0.0
H594 H 0.0739 0.63614 0.61216 0.0
C595 C 0.16161 0.67704 0.63805 0.0
C596 C 0.14372 0.61044 0.65262 0.0
C597 C 0.18059 0.69435 0.65463 0.0
C598 C 0.06095 0.54383 0.57864 0.0
C599 C 0.07902 0.5596 0.60639 0.0
C600 C 0.09332 0.62865 0.62249 0.0
C601 C 0.1582 0.65429 0.67488 0.0
C602 C 0.13782 0.63628 0.65717 0.0
C603 C 0.07939 0.58612 0.58829 0.0
C604 C 0.09929 0.60297 0.61529 0.0
H605 H 0.20461 0.66241 0.78786 0.0
H606 H 0.17178 0.63165 0.75766 0.0
H607 H 0.10737 0.66496 0.6466 0.0
H608 H 0.02897 0.58936 0.48013 0.0
H609 H 0.0609 0.6166 0.52624 0.0
C610 C 0.18713 0.32534 0.25824 0.0
C611 C 0.20074 0.30763 0.30083 0.0
C612 C 0.17097 0.34388 0.27665 0.0
C613 C 0.15801 0.37722 0.40895 0.0
H614 H 0.09022 0.38931 0.32478 0.0
C615 C 0.07794 0.43491 0.50198 0.0
C616 C 0.06188 0.45077 0.46008 0.0
C617 C 0.09595 0.41841 0.48252 0.0
C618 C 0.10921 0.38645 0.34837 0.0
H619 H 0.20808 0.29574 0.39636 0.0
H620 H 0.18 0.32776 0.42791 0.0
H621 H 0.11974 0.35936 0.28927 0.0
H622 H 0.05292 0.46245 0.36493 0.0
H623 H 0.08437 0.43426 0.33154 0.0
H624 H 0.14745 0.40427 0.46816 0.0
C625 C 0.18197 0.32756 0.38042 0.0
C626 C 0.12614 0.36927 0.32791 0.0
C627 C 0.19796 0.30903 0.36212 0.0
C628 C 0.06472 0.45029 0.39858 0.0
C629 C 0.08271 0.43398 0.37927 0.0
C630 C 0.1411 0.39447 0.42933 0.0
C631 C 0.16822 0.34517 0.33801 0.0
C632 C 0.15069 0.36436 0.35811 0.0
C633 C 0.0983 0.41754 0.42082 0.0
C634 C 0.11646 0.39926 0.39937 0.0
H635 H 0.18885 0.32482 0.21074 0.0
H636 H 0.16076 0.35733 0.24289 0.0
H637 H 0.17692 0.37408 0.4328 0.0
H638 H 0.07619 0.43477 0.54963 0.0
H639 H 0.10754 0.40587 0.51576 0.0
C640 C 0.01524 0.97782 0.81792 0.0
C641 C 0.02016 0.00077 0.7833 0.0
C642 C 0.0116 0.97788 0.87892 0.0
C643 C 0.99204 0.02173 0.98654 0.0
H644 H 0.01724 0.96714 0.1069 0.0
C645 C 0.98626 0.02653 0.24204 0.0
C646 C 0.98164 0.00358 0.277 0.0
C647 C 0.98993 0.02638 0.18108 0.0
C648 C 0.00975 0.98239 0.07373 0.0
H649 H 0.02628 0.04156 0.78575 0.0
H650 H 0.02043 0.04162 0.89206 0.0
H651 H 0.02726 0.96614 1.00336 0.0
H652 H 0.97611 0.96269 0.27521 0.0
H653 H 0.98193 0.96246 0.16892 0.0
H654 H 0.9745 0.03797 0.05684 0.0
C655 C 0.01883 0.02364 0.87212 0.0
C656 C 0.01556 0.98182 0.01432 0.0
C657 C 0.02246 0.02356 0.8113 0.0
C658 C 0.9797 0.98068 0.24938 0.0
C659 C 0.98331 0.98052 0.18857 0.0
C660 C 0.98621 0.02229 0.04593 0.0
C661 C 0.01278 0.00092 0.90645 0.0
C662 C 0.00683 0.00151 0.96995 0.0
C663 C 0.98905 0.00326 0.15389 0.0
C664 C 0.99497 0.00262 0.09035 0.0
H665 H 0.01319 0.96 0.79737 0.0
H666 H 0.00684 0.96004 0.90387 0.0
H667 H 0.98458 0.03699 0.95336 0.0
H668 H 0.98805 0.04444 0.2623 0.0
H669 H 0.99447 0.04423 0.15591 0.0
C670 C 0.23908 0.77272 0.47049 0.0
C671 C 0.25933 0.76053 0.50823 0.0
C672 C 0.23722 0.77051 0.40882 0.0
C673 C 0.25705 0.72745 0.30157 0.0
H674 H 0.2363 0.78411 0.18242 0.0
C675 C 0.25974 0.72295 0.04621 0.0
C676 C 0.23929 0.7349 0.00869 0.0
C677 C 0.26168 0.72516 0.10788 0.0
C678 C 0.24181 0.76804 0.21527 0.0
H679 H 0.29409 0.73747 0.51147 0.0
H680 H 0.29106 0.7339 0.40379 0.0
H681 H 0.24163 0.79124 0.2884 0.0
H682 H 0.20429 0.75757 1.00582 0.0
H683 H 0.20751 0.76121 0.1135 0.0
H684 H 0.25726 0.70426 0.2284 0.0
C685 C 0.27637 0.74475 0.42176 0.0
C686 C 0.24491 0.77214 0.27587 0.0
C687 C 0.27822 0.74697 0.48327 0.0
C688 C 0.22031 0.74824 0.03386 0.0
C689 C 0.22226 0.7505 0.09536 0.0
C690 C 0.25398 0.72335 0.24096 0.0
C691 C 0.25558 0.75605 0.38407 0.0
C692 C 0.25258 0.75189 0.31963 0.0
C693 C 0.24322 0.73942 0.13281 0.0
C694 C 0.24629 0.7436 0.19722 0.0
H695 H 0.22424 0.78322 0.48884 0.0
H696 H 0.2209 0.77931 0.38091 0.0
H697 H 0.26255 0.71136 0.3344 0.0
H698 H 0.27465 0.71261 0.0277 0.0
H699 H 0.27812 0.71653 0.13565 0.0
C700 C 0.4933 0.02801 0.71778 0.0
C701 C 0.48421 0.00721 0.75392 0.0
C702 C 0.49634 0.02596 0.65722 0.0
C703 C 0.47794 0.98722 0.53057 0.0
H704 H 0.54036 0.01486 0.46981 0.0
C705 C 0.50752 0.96628 0.29889 0.0
C706 C 0.51656 0.98707 0.26264 0.0
C707 C 0.50444 0.96838 0.3594 0.0
C708 C 0.52272 0.00724 0.48583 0.0
H709 H 0.47042 0.96824 0.75477 0.0
H710 H 0.47574 0.96459 0.64913 0.0
H711 H 0.53183 0.01994 0.57281 0.0
H712 H 0.53019 0.0261 0.26154 0.0
H713 H 0.52482 0.02985 0.36713 0.0
H714 H 0.46883 0.9745 0.4436 0.0
C715 C 0.48036 0.98258 0.66727 0.0
C716 C 0.51778 0.01021 0.54492 0.0
C717 C 0.47734 0.98464 0.72786 0.0
C718 C 0.52332 0.00971 0.28854 0.0
C719 C 0.52027 0.01182 0.3491 0.0
C720 C 0.48288 0.98424 0.47149 0.0
C721 C 0.49035 0.00306 0.63142 0.0
C722 C 0.49532 0.00025 0.56808 0.0
C723 C 0.51034 0.99134 0.38504 0.0
C724 C 0.50535 0.99419 0.44834 0.0
H725 H 0.49875 0.04565 0.73668 0.0
H726 H 0.50363 0.04227 0.63074 0.0
H727 H 0.46029 0.9796 0.54659 0.0
H728 H 0.50215 0.94859 0.2801 0.0
H729 H 0.49719 0.95208 0.38597 0.0
C730 C 0.21951 0.25426 0.96676 0.0
C731 C 0.24017 0.26365 1.00245 0.0
C732 C 0.22169 0.25134 0.90623 0.0
C733 C 0.26028 0.27056 0.77879 0.0
H734 H 0.23409 0.20772 0.71962 0.0
C735 C 0.28201 0.24183 0.54714 0.0
C736 C 0.26136 0.2324 0.51151 0.0
C737 C 0.27986 0.24474 0.60769 0.0
C738 C 0.2413 0.22548 0.7352 0.0
H739 H 0.27899 0.27812 1.00255 0.0
H740 H 0.28286 0.27301 0.89694 0.0
H741 H 0.22867 0.21605 0.82252 0.0
H742 H 0.22256 0.21788 0.5115 0.0
H743 H 0.21872 0.22299 0.61712 0.0
H744 H 0.27291 0.28 0.69147 0.0
C745 C 0.26489 0.26806 0.91541 0.0
C746 C 0.23814 0.2303 0.79422 0.0
C747 C 0.26271 0.27095 0.97598 0.0
C748 C 0.23884 0.22508 0.53803 0.0
C749 C 0.23668 0.22797 0.5986 0.0
C750 C 0.26345 0.26574 0.71977 0.0
C751 C 0.24457 0.25776 0.88004 0.0
C752 C 0.24757 0.25291 0.81679 0.0
C753 C 0.25699 0.23829 0.63394 0.0
C754 C 0.25401 0.24313 0.6972 0.0
H755 H 0.2019 0.24848 0.98602 0.0
H756 H 0.2055 0.24379 0.88008 0.0
H757 H 0.26749 0.28832 0.79438 0.0
H758 H 0.29961 0.24763 0.52785 0.0
H759 H 0.29605 0.25231 0.63381 0.0
C760 C 0.73768 0.2721 0.96978 0.0
C761 C 0.75828 0.26063 1.00763 0.0
C762 C 0.73607 0.26981 0.90817 0.0
C763 C 0.75802 0.22744 0.80181 0.0
H764 H 0.73517 0.28309 0.68178 0.0
C765 C 0.7622 0.22363 0.54668 0.0
C766 C 0.741 0.23413 0.50928 0.0
C767 C 0.76384 0.22585 0.60831 0.0
C768 C 0.74131 0.26731 0.71492 0.0
H769 H 0.79392 0.23891 0.01126 0.0
H770 H 0.79135 0.2353 0.90374 0.0
H771 H 0.73983 0.29056 0.78762 0.0
H772 H 0.70443 0.25419 0.5065 0.0
H773 H 0.70723 0.25794 0.61408 0.0
H774 H 0.75962 0.20424 0.729 0.0
C775 C 0.77618 0.24556 0.92151 0.0
C776 C 0.74399 0.27159 0.7754 0.0
C777 C 0.77776 0.24781 0.98293 0.0
C778 C 0.72103 0.246 0.53447 0.0
C779 C 0.72271 0.24832 0.59588 0.0
C780 C 0.75541 0.22318 0.74132 0.0
C781 C 0.75505 0.25604 0.8837 0.0
C782 C 0.7524 0.25171 0.81943 0.0
C783 C 0.74435 0.23872 0.63317 0.0
C784 C 0.74698 0.24306 0.69736 0.0
H785 H 0.72241 0.28203 0.98799 0.0
H786 H 0.71949 0.27798 0.88011 0.0
H787 H 0.7641 0.21161 0.83487 0.0
H788 H 0.77785 0.21443 0.52811 0.0
H789 H 0.78078 0.21836 0.6361 0.0
C790 C 0.72089 0.75572 0.4689 0.0
C791 C 0.74186 0.7645 0.50469 0.0
C792 C 0.72294 0.75258 0.40841 0.0
C793 C 0.76209 0.7702 0.28102 0.0
H794 H 0.73352 0.70828 0.22184 0.0
C795 C 0.78249 0.74039 0.04934 0.0
C796 C 0.76154 0.73149 0.01367 0.0
C797 C 0.78047 0.74352 0.10984 0.0
C798 C 0.7414 0.72579 0.2374 0.0
H799 H 0.78115 0.77764 0.50496 0.0
H800 H 0.78481 0.77218 0.39938 0.0
H801 H 0.72857 0.71695 0.32474 0.0
H802 H 0.72232 0.71817 0.01363 0.0
H803 H 0.7187 0.72365 0.1192 0.0
H804 H 0.7749 0.77905 0.19368 0.0
C805 C 0.76669 0.76787 0.41777 0.0
C806 C 0.73851 0.73081 0.29645 0.0
C807 C 0.76462 0.77097 0.47832 0.0
C808 C 0.73883 0.72492 0.04017 0.0
C809 C 0.7368 0.72804 0.10072 0.0
C810 C 0.76497 0.76518 0.22198 0.0
C811 C 0.74602 0.75817 0.38231 0.0
C812 C 0.7488 0.75309 0.31905 0.0
C813 C 0.75744 0.73783 0.13608 0.0
C814 C 0.75468 0.7429 0.19937 0.0
H815 H 0.70309 0.75057 0.48804 0.0
H816 H 0.70649 0.74552 0.38223 0.0
H817 H 0.76997 0.78771 0.2966 0.0
H818 H 0.80025 0.74561 0.0301 0.0
H819 H 0.79691 0.75065 0.13594 0.0
C820 C 0.48358 0.52026 0.69874 0.0
C821 C 0.47954 0.49705 0.73328 0.0
C822 C 0.48711 0.52052 0.63761 0.0
C823 C 0.479 0.48121 0.5079 0.0
H824 H 0.53375 0.52359 0.44865 0.0
C825 C 0.51439 0.47211 0.27451 0.0
C826 C 0.51817 0.49525 0.23941 0.0
C827 C 0.51069 0.4721 0.33549 0.0
C828 C 0.51825 0.51179 0.46428 0.0
H829 H 0.47512 0.45606 0.73065 0.0
H830 H 0.48127 0.45644 0.62453 0.0
H831 H 0.52325 0.52494 0.55175 0.0
H832 H 0.52198 0.53636 0.24089 0.0
H833 H 0.51562 0.53637 0.34691 0.0
H834 H 0.47405 0.46802 0.42047 0.0
C835 C 0.48154 0.47452 0.64411 0.0
C836 C 0.51215 0.51265 0.5234 0.0
C837 C 0.47807 0.47428 0.70508 0.0
C838 C 0.51923 0.5182 0.26692 0.0
C839 C 0.51563 0.51819 0.32779 0.0
C840 C 0.48513 0.48034 0.44881 0.0
C841 C 0.48662 0.49756 0.60978 0.0
C842 C 0.49245 0.49735 0.54605 0.0
C843 C 0.5108 0.49521 0.36264 0.0
C844 C 0.50485 0.4956 0.42621 0.0
H845 H 0.48489 0.5381 0.71937 0.0
H846 H 0.49057 0.53867 0.61234 0.0
H847 H 0.46349 0.46942 0.52348 0.0
H848 H 0.5134 0.45414 0.25443 0.0
H849 H 0.50742 0.454 0.36121 0.0
C850 C 0.02472 0.50804 0.78715 0.0
C851 C 0.01555 0.48639 0.76012 0.0
C852 C 0.02172 0.51035 0.84765 0.0
C853 C 0.00733 0.47338 0.99038 0.0
H854 H 0.98537 0.53975 0.03111 0.0
C855 C 0.9749 0.48671 0.22453 0.0
C856 C 0.98407 0.50846 0.25113 0.0
C857 C 0.97772 0.48429 0.16397 0.0
C858 C 0.99172 0.52114 0.02069 0.0
H859 H 0.99674 0.44985 0.77547 0.0
H860 H 0.99144 0.45384 0.88087 0.0
H861 H 0.994 0.53455 0.92826 0.0
H862 H 0.00273 0.54504 0.23501 0.0
H863 H 0.00775 0.54084 0.12963 0.0
H864 H 0.00508 0.45998 0.08283 0.0
C865 C 0.00115 0.46898 0.85571 0.0
C866 C 0.99675 0.51817 0.96167 0.0
C867 C 0.00413 0.4667 0.79522 0.0
C868 C 0.99533 0.52812 0.21559 0.0
C869 C 0.99815 0.52572 0.1551 0.0
C870 C 0.00231 0.47636 0.04942 0.0
C871 C 0.00949 0.49104 0.88247 0.0
C872 C 0.00465 0.49426 0.94571 0.0
C873 C 0.98979 0.50357 0.12872 0.0
C874 C 0.99445 0.50028 0.0654 0.0
H875 H 0.03359 0.52353 0.76113 0.0
H876 H 0.02878 0.52739 0.86702 0.0
H877 H 0.01369 0.45478 0.97994 0.0
H878 H 0.96616 0.47124 0.25089 0.0
H879 H 0.97066 0.46717 0.14492 0.0
loop_
_geom_bond_atom_site_label_1
_geom_bond_atom_site_label_2
_geom_bond_distance
_geom_bond_site_symmetry_2
_ccdc_geom_bond_type
Dy0 O4 2.398 1_655 S
Dy0 O5 2.491 1_565 S
Dy0 O6 2.403 1_655 S
Dy0 O7 2.664 1_655 S
Dy0 O11 2.326 1_665 S
Dy0 O15 2.310 1_565 S
Dy0 O16 2.351 . S
C1 O12 1.148 1_565 S
C1 O13 1.387 1_655 S
C2 O4 1.185 1_545 S
C2 O5 1.355 1_455 S
Dy3 O7 2.310 1_545 S
Dy3 O10 2.351 . S
Dy3 O12 2.398 1_455 S
Dy3 O13 2.491 1_545 S
Dy3 O14 2.403 1_455 S
Dy3 O15 2.664 1_455 S
Dy3 O17 2.326 1_445 S
O4 Dy0 2.398 1_455 S
O4 C2 1.185 1_565 S
O5 Dy0 2.491 1_545 S
O5 C2 1.355 1_655 S
O6 Dy0 2.403 1_455 S
O6 C8 1.254 . S
O7 Dy0 2.664 1_455 S
O7 Dy3 2.310 1_565 S
O7 C8 1.268 . S
C8 O6 1.254 . S
C8 O7 1.268 . S
C9 O14 1.254 . S
C9 O15 1.268 . S
O10 Dy3 2.351 . S
O10 C18 1.249 . S
O11 Dy0 2.326 1_445 S
O11 C18 1.267 . S
O12 C1 1.148 1_545 S
O12 Dy3 2.398 1_655 S
O13 C1 1.387 1_455 S
O13 Dy3 2.491 1_565 S
O14 Dy3 2.403 1_655 S
O14 C9 1.254 . S
O15 Dy0 2.310 1_545 S
O15 Dy3 2.664 1_655 S
O15 C9 1.268 . S
O16 Dy0 2.351 . S
O16 C19 1.249 . S
O17 Dy3 2.326 1_665 S
O17 C19 1.267 . S
C18 O10 1.249 . S
C18 O11 1.267 . S
C19 O16 1.249 . S
C19 O17 1.267 . S
Dy20 O24 2.398 . S
Dy20 O25 2.491 . S
Dy20 O26 2.403 . S
Dy20 O27 2.664 . S
Dy20 O31 2.326 . S
Dy20 O35 2.310 . S
Dy20 O36 2.351 . S
C21 O32 1.185 . S
C21 O33 1.355 . S
C22 O24 1.185 . S
C22 O25 1.355 . S
Dy23 O27 2.310 . S
Dy23 O30 2.351 . S
Dy23 O32 2.398 . S
Dy23 O33 2.491 . S
Dy23 O34 2.403 . S
Dy23 O35 2.664 . S
Dy23 O37 2.326 . S
O24 Dy20 2.398 . S
O24 C22 1.185 . S
O25 Dy20 2.491 . S
O25 C22 1.355 . S
O26 Dy20 2.403 . S
O26 C28 1.254 . S
O27 Dy20 2.664 . S
O27 Dy23 2.310 . S
O27 C28 1.268 . S
C28 O26 1.254 . S
C28 O27 1.268 . S
C29 O34 1.254 . S
C29 O35 1.268 . S
O30 Dy23 2.351 . S
O30 C38 1.249 . S
O31 Dy20 2.326 . S
O31 C38 1.267 . S
O32 C21 1.185 . S
O32 Dy23 2.398 . S
O33 C21 1.355 . S
O33 Dy23 2.491 . S
O34 Dy23 2.403 . S
O34 C29 1.254 . S
O35 Dy20 2.310 . S
O35 Dy23 2.664 . S
O35 C29 1.268 . S
O36 Dy20 2.351 . S
O36 C39 1.249 . S
O37 Dy23 2.326 . S
O37 C39 1.267 . S
C38 O30 1.249 . S
C38 O31 1.267 . S
C39 O36 1.249 . S
C39 O37 1.267 . S
Dy40 O44 2.398 . S
Dy40 O45 2.491 1_565 S
Dy40 O46 2.403 . S
Dy40 O47 2.664 1_554 S
Dy40 O51 2.326 1_565 S
Dy40 O55 2.310 1_565 S
Dy40 O56 2.351 . S
C41 O52 1.185 . S
C41 O53 1.355 1_545 S
C42 O44 1.185 . S
C42 O45 1.355 1_565 S
Dy43 O47 2.310 1_545 S
Dy43 O50 2.351 . S
Dy43 O52 2.398 . S
Dy43 O53 2.491 1_545 S
Dy43 O54 2.403 . S
Dy43 O55 2.664 1_556 S
Dy43 O57 2.326 1_545 S
O44 Dy40 2.398 . S
O44 C42 1.185 . S
O45 Dy40 2.491 1_545 S
O45 C42 1.355 1_545 S
O46 Dy40 2.403 . S
O46 C48 1.254 1_554 S
O47 Dy40 2.664 1_556 S
O47 Dy43 2.310 1_565 S
O47 C48 1.268 . S
C48 O46 1.254 1_556 S
C48 O47 1.268 . S
C49 O54 1.254 1_554 S
C49 O55 1.268 . S
O50 Dy43 2.351 . S
O50 C58 1.249 1_556 S
O51 Dy40 2.326 1_545 S
O51 C58 1.267 . S
O52 C41 1.185 . S
O52 Dy43 2.398 . S
O53 C41 1.355 1_565 S
O53 Dy43 2.491 1_565 S
O54 Dy43 2.403 . S
O54 C49 1.254 1_556 S
O55 Dy40 2.310 1_545 S
O55 Dy43 2.664 1_554 S
O55 C49 1.268 . S
O56 Dy40 2.351 . S
O56 C59 1.249 1_554 S
O57 Dy43 2.326 1_565 S
O57 C59 1.267 . S
C58 O50 1.249 1_554 S
C58 O51 1.267 . S
C59 O56 1.249 1_556 S
C59 O57 1.267 . S
Dy60 O64 2.398 . S
Dy60 O65 2.491 . S
Dy60 O66 2.403 . S
Dy60 O67 2.664 . S
Dy60 O71 2.326 . S
Dy60 O75 2.310 . S
Dy60 O76 2.351 . S
C61 O72 1.185 . S
C61 O73 1.355 . S
C62 O64 1.185 . S
C62 O65 1.355 . S
Dy63 O67 2.310 . S
Dy63 O70 2.351 . S
Dy63 O72 2.398 . S
Dy63 O73 2.491 . S
Dy63 O74 2.403 . S
Dy63 O75 2.664 . S
Dy63 O77 2.326 . S
O64 Dy60 2.398 . S
O64 C62 1.185 . S
O65 Dy60 2.491 . S
O65 C62 1.355 . S
O66 Dy60 2.403 . S
O66 C68 1.254 . S
O67 Dy60 2.664 . S
O67 Dy63 2.310 . S
O67 C68 1.268 . S
C68 O66 1.254 . S
C68 O67 1.268 . S
C69 O74 1.254 . S
C69 O75 1.268 . S
O70 Dy63 2.351 . S
O70 C78 1.249 . S
O71 Dy60 2.326 . S
O71 C78 1.267 . S
O72 C61 1.185 . S
O72 Dy63 2.398 . S
O73 C61 1.355 . S
O73 Dy63 2.491 . S
O74 Dy63 2.403 . S
O74 C69 1.254 . S
O75 Dy60 2.310 . S
O75 Dy63 2.664 . S
O75 C69 1.268 . S
O76 Dy60 2.351 . S
O76 C79 1.249 . S
O77 Dy63 2.326 . S
O77 C79 1.267 . S
C78 O70 1.249 . S
C78 O71 1.267 . S
C79 O76 1.249 . S
C79 O77 1.267 . S
Dy80 O84 2.398 . S
Dy80 O85 2.491 . S
Dy80 O86 2.403 . S
Dy80 O87 2.664 . S
Dy80 O91 2.326 . S
Dy80 O95 2.310 . S
Dy80 O96 2.351 . S
C81 O92 1.185 . S
C81 O93 1.355 . S
C82 O84 1.185 . S
C82 O85 1.355 . S
Dy83 O87 2.310 . S
Dy83 O90 2.351 . S
Dy83 O92 2.398 . S
Dy83 O93 2.491 . S
Dy83 O94 2.403 . S
Dy83 O95 2.664 . S
Dy83 O97 2.326 . S
O84 Dy80 2.398 . S
O84 C82 1.185 . S
O85 Dy80 2.491 . S
O85 C82 1.355 . S
O86 Dy80 2.403 . S
O86 C88 1.254 . S
O87 Dy80 2.664 . S
O87 Dy83 2.310 . S
O87 C88 1.268 . S
C88 O86 1.254 . S
C88 O87 1.268 . S
C89 O94 1.254 . S
C89 O95 1.268 . S
O90 Dy83 2.351 . S
O90 C98 1.249 . S
O91 Dy80 2.326 . S
O91 C98 1.267 . S
O92 C81 1.185 . S
O92 Dy83 2.398 . S
O93 C81 1.355 . S
O93 Dy83 2.491 . S
O94 Dy83 2.403 . S
O94 C89 1.254 . S
O95 Dy80 2.310 . S
O95 Dy83 2.664 . S
O95 C89 1.268 . S
O96 Dy80 2.351 . S
O96 C99 1.249 . S
O97 Dy83 2.326 . S
O97 C99 1.267 . S
C98 O90 1.249 . S
C98 O91 1.267 . S
C99 O96 1.249 . S
C99 O97 1.267 . S
Dy100 O104 2.398 . S
Dy100 O105 2.491 . S
Dy100 O106 2.403 . S
Dy100 O107 2.664 . S
Dy100 O111 2.326 . S
Dy100 O115 2.310 . S
Dy100 O116 2.351 . S
C101 O112 1.185 . S
C101 O113 1.355 . S
C102 O104 1.185 . S
C102 O105 1.355 . S
Dy103 O107 2.310 . S
Dy103 O110 2.351 . S
Dy103 O112 2.398 . S
Dy103 O113 2.491 . S
Dy103 O114 2.403 . S
Dy103 O115 2.664 . S
Dy103 O117 2.326 . S
O104 Dy100 2.398 . S
O104 C102 1.185 . S
O105 Dy100 2.491 . S
O105 C102 1.355 . S
O106 Dy100 2.403 . S
O106 C108 1.254 . S
O107 Dy100 2.664 . S
O107 Dy103 2.310 . S
O107 C108 1.268 . S
C108 O106 1.254 . S
C108 O107 1.268 . S
C109 O114 1.254 . S
C109 O115 1.268 . S
O110 Dy103 2.351 . S
O110 C118 1.249 . S
O111 Dy100 2.326 . S
O111 C118 1.267 . S
O112 C101 1.185 . S
O112 Dy103 2.398 . S
O113 C101 1.355 . S
O113 Dy103 2.491 . S
O114 Dy103 2.403 . S
O114 C109 1.254 . S
O115 Dy100 2.310 . S
O115 Dy103 2.664 . S
O115 C109 1.268 . S
O116 Dy100 2.351 . S
O116 C119 1.249 . S
O117 Dy103 2.326 . S
O117 C119 1.267 . S
C118 O110 1.249 . S
C118 O111 1.267 . S
C119 O116 1.249 . S
C119 O117 1.267 . S
Dy120 O124 2.398 . S
Dy120 O125 2.491 . S
Dy120 O126 2.403 . S
Dy120 O127 2.664 1_556 S
Dy120 O131 2.326 . S
Dy120 O135 2.310 . S
Dy120 O136 2.351 . S
C121 O132 1.185 . S
C121 O133 1.355 . S
C122 O124 1.185 . S
C122 O125 1.355 . S
Dy123 O127 2.310 . S
Dy123 O130 2.351 . S
Dy123 O132 2.398 . S
Dy123 O133 2.491 . S
Dy123 O134 2.403 . S
Dy123 O135 2.664 1_554 S
Dy123 O137 2.326 . S
O124 Dy120 2.398 . S
O124 C122 1.185 . S
O125 Dy120 2.491 . S
O125 C122 1.355 . S
O126 Dy120 2.403 . S
O126 C128 1.254 1_556 S
O127 Dy120 2.664 1_554 S
O127 Dy123 2.310 . S
O127 C128 1.268 . S
C128 O126 1.254 1_554 S
C128 O127 1.268 . S
C129 O134 1.254 1_556 S
C129 O135 1.268 . S
O130 Dy123 2.351 . S
O130 C138 1.249 1_554 S
O131 Dy120 2.326 . S
O131 C138 1.267 . S
O132 C121 1.185 . S
O132 Dy123 2.398 . S
O133 C121 1.355 . S
O133 Dy123 2.491 . S
O134 Dy123 2.403 . S
O134 C129 1.254 1_554 S
O135 Dy120 2.310 . S
O135 Dy123 2.664 1_556 S
O135 C129 1.268 . S
O136 Dy120 2.351 . S
O136 C139 1.249 1_556 S
O137 Dy123 2.326 . S
O137 C139 1.267 . S
C138 O130 1.249 1_556 S
C138 O131 1.267 . S
C139 O136 1.249 1_554 S
C139 O137 1.267 . S
Dy140 O144 2.398 1_455 S
Dy140 O145 2.491 . S
Dy140 O146 2.403 1_455 S
Dy140 O147 2.664 1_455 S
Dy140 O151 2.326 1_455 S
Dy140 O155 2.310 . S
Dy140 O156 2.351 . S
C141 O152 1.185 . S
C141 O153 1.355 1_455 S
C142 O144 1.185 . S
C142 O145 1.355 1_655 S
Dy143 O147 2.310 . S
Dy143 O150 2.351 . S
Dy143 O152 2.398 1_655 S
Dy143 O153 2.491 . S
Dy143 O154 2.403 1_655 S
Dy143 O155 2.664 1_655 S
Dy143 O157 2.326 1_655 S
O144 Dy140 2.398 1_655 S
O144 C142 1.185 . S
O145 Dy140 2.491 . S
O145 C142 1.355 1_455 S
O146 Dy140 2.403 1_655 S
O146 C148 1.254 . S
O147 Dy140 2.664 1_655 S
O147 Dy143 2.310 . S
O147 C148 1.268 . S
C148 O146 1.254 . S
C148 O147 1.268 . S
C149 O154 1.254 . S
C149 O155 1.268 . S
O150 Dy143 2.351 . S
O150 C158 1.249 . S
O151 Dy140 2.326 1_655 S
O151 C158 1.267 . S
O152 C141 1.185 . S
O152 Dy143 2.398 1_455 S
O153 C141 1.355 1_655 S
O153 Dy143 2.491 . S
O154 Dy143 2.403 1_455 S
O154 C149 1.254 . S
O155 Dy140 2.310 . S
O155 Dy143 2.664 1_455 S
O155 C149 1.268 . S
O156 Dy140 2.351 . S
O156 C159 1.249 . S
O157 Dy143 2.326 1_455 S
O157 C159 1.267 . S
C158 O150 1.249 . S
C158 O151 1.267 . S
C159 O156 1.249 . S
C159 O157 1.267 . S
C160 C161 1.349 . S
C160 C162 1.327 . S
C160 H185 0.950 . S
C161 C160 1.349 . S
C161 C177 1.349 . S
C162 C160 1.327 . S
C162 C181 1.429 . S
C162 H186 0.950 . S
C163 C180 1.574 . S
C163 C182 1.368 . S
C163 H187 0.949 . S
H164 C168 0.949 . S
C165 C166 1.349 . S
C165 C167 1.327 . S
C165 H188 0.950 . S
C166 C165 1.349 . S
C166 C178 1.349 . S
C167 C165 1.327 . S
C167 C183 1.429 . S
C167 H189 0.950 . S
C168 H164 0.949 . S
C168 C176 1.574 . S
C168 C184 1.368 . S
H169 C177 0.950 . S
H170 C175 0.950 . S
H171 C176 0.949 . S
H172 C178 0.950 . S
H173 C179 0.950 . S
H174 C180 0.949 . S
C175 H170 0.950 . S
C175 C177 1.327 . S
C175 C181 1.429 . S
C176 C168 1.574 . S
C176 H171 0.949 . S
C176 C182 1.368 . S
C177 C161 1.349 . S
C177 H169 0.950 . S
C177 C175 1.327 . S
C178 C166 1.349 . S
C178 H172 0.950 . S
C178 C179 1.327 . S
C179 H173 0.950 . S
C179 C178 1.327 . S
C179 C183 1.429 . S
C180 C163 1.574 . S
C180 H174 0.949 . S
C180 C184 1.368 . S
C181 C162 1.429 . S
C181 C175 1.429 . S
C181 C182 1.523 . S
C182 C163 1.368 . S
C182 C176 1.368 . S
C182 C181 1.523 . S
C183 C167 1.429 . S
C183 C179 1.429 . S
C183 C184 1.523 . S
C184 C168 1.368 . S
C184 C180 1.368 . S
C184 C183 1.523 . S
H185 C160 0.950 . S
H186 C162 0.950 . S
H187 C163 0.949 . S
H188 C165 0.950 . S
H189 C167 0.950 . S
C190 C191 1.349 . S
C190 C192 1.327 . S
C190 H215 0.950 . S
C191 C190 1.349 . S
C191 C207 1.349 . S
C192 C190 1.327 . S
C192 C211 1.429 . S
C192 H216 0.950 . S
C193 C210 1.574 . S
C193 C212 1.368 . S
C193 H217 0.949 . S
H194 C198 0.949 . S
C195 C196 1.349 . S
C195 C197 1.327 . S
C195 H218 0.950 . S
C196 C195 1.349 . S
C196 C208 1.349 . S
C197 C195 1.327 . S
C197 C213 1.429 . S
C197 H219 0.950 . S
C198 H194 0.949 . S
C198 C206 1.574 . S
C198 C214 1.368 . S
H199 C207 0.950 . S
H200 C205 0.950 . S
H201 C206 0.949 . S
H202 C208 0.950 . S
H203 C209 0.950 . S
H204 C210 0.949 . S
C205 H200 0.950 . S
C205 C207 1.327 . S
C205 C211 1.429 . S
C206 C198 1.574 . S
C206 H201 0.949 . S
C206 C212 1.368 . S
C207 C191 1.349 . S
C207 H199 0.950 . S
C207 C205 1.327 . S
C208 C196 1.349 . S
C208 H202 0.950 . S
C208 C209 1.327 . S
C209 H203 0.950 . S
C209 C208 1.327 . S
C209 C213 1.429 . S
C210 C193 1.574 . S
C210 H204 0.949 . S
C210 C214 1.368 . S
C211 C192 1.429 . S
C211 C205 1.429 . S
C211 C212 1.523 . S
C212 C193 1.368 . S
C212 C206 1.368 . S
C212 C211 1.523 . S
C213 C197 1.429 . S
C213 C209 1.429 . S
C213 C214 1.523 . S
C214 C198 1.368 . S
C214 C210 1.368 . S
C214 C213 1.523 . S
H215 C190 0.950 . S
H216 C192 0.950 . S
H217 C193 0.949 . S
H218 C195 0.950 . S
H219 C197 0.950 . S
C220 C221 1.349 . S
C220 C222 1.327 . S
C220 H245 0.950 . S
C221 C220 1.349 . S
C221 C237 1.349 . S
C222 C220 1.327 . S
C222 C241 1.429 . S
C222 H246 0.950 . S
C223 C240 1.574 . S
C223 C242 1.368 . S
C223 H247 0.949 . S
H224 C228 0.949 . S
C225 C226 1.349 . S
C225 C227 1.327 . S
C225 H248 0.950 . S
C226 C225 1.349 . S
C226 C238 1.349 . S
C227 C225 1.327 . S
C227 C243 1.429 . S
C227 H249 0.950 . S
C228 H224 0.949 . S
C228 C236 1.574 . S
C228 C244 1.368 . S
H229 C237 0.950 . S
H230 C235 0.950 . S
H231 C236 0.949 . S
H232 C238 0.950 1_554 S
H233 C239 0.950 . S
H234 C240 0.949 . S
C235 H230 0.950 . S
C235 C237 1.327 . S
C235 C241 1.429 . S
C236 C228 1.574 . S
C236 H231 0.949 . S
C236 C242 1.368 . S
C237 C221 1.349 . S
C237 H229 0.950 . S
C237 C235 1.327 . S
C238 C226 1.349 . S
C238 H232 0.950 1_556 S
C238 C239 1.327 . S
C239 H233 0.950 . S
C239 C238 1.327 . S
C239 C243 1.429 . S
C240 C223 1.574 . S
C240 H234 0.949 . S
C240 C244 1.368 . S
C241 C222 1.429 . S
C241 C235 1.429 . S
C241 C242 1.523 . S
C242 C223 1.368 . S
C242 C236 1.368 . S
C242 C241 1.523 . S
C243 C227 1.429 . S
C243 C239 1.429 . S
C243 C244 1.523 . S
C244 C228 1.368 . S
C244 C240 1.368 . S
C244 C243 1.523 . S
H245 C220 0.950 . S
H246 C222 0.950 . S
H247 C223 0.949 . S
H248 C225 0.950 . S
H249 C227 0.950 . S
C250 C251 1.349 . S
C250 C252 1.327 . S
C250 H275 0.950 . S
C251 C250 1.349 . S
C251 C267 1.349 . S
C252 C250 1.327 . S
C252 C271 1.429 . S
C252 H276 0.950 . S
C253 C270 1.574 . S
C253 C272 1.368 . S
C253 H277 0.949 . S
H254 C258 0.949 . S
C255 C256 1.349 . S
C255 C257 1.327 . S
C255 H278 0.950 . S
C256 C255 1.349 . S
C256 C268 1.349 . S
C257 C255 1.327 . S
C257 C273 1.429 . S
C257 H279 0.950 . S
C258 H254 0.949 . S
C258 C266 1.574 . S
C258 C274 1.368 . S
H259 C267 0.950 1_556 S
H260 C265 0.950 . S
H261 C266 0.949 . S
H262 C268 0.950 . S
H263 C269 0.950 . S
H264 C270 0.949 . S
C265 H260 0.950 . S
C265 C267 1.327 . S
C265 C271 1.429 . S
C266 C258 1.574 . S
C266 H261 0.949 . S
C266 C272 1.368 . S
C267 C251 1.349 . S
C267 H259 0.950 1_554 S
C267 C265 1.327 . S
C268 C256 1.349 . S
C268 H262 0.950 . S
C268 C269 1.327 . S
C269 H263 0.950 . S
C269 C268 1.327 . S
C269 C273 1.429 . S
C270 C253 1.574 . S
C270 H264 0.949 . S
C270 C274 1.368 . S
C271 C252 1.429 . S
C271 C265 1.429 . S
C271 C272 1.523 . S
C272 C253 1.368 . S
C272 C266 1.368 . S
C272 C271 1.523 . S
C273 C257 1.429 . S
C273 C269 1.429 . S
C273 C274 1.523 . S
C274 C258 1.368 . S
C274 C270 1.368 . S
C274 C273 1.523 . S
H275 C250 0.950 . S
H276 C252 0.950 . S
H277 C253 0.949 . S
H278 C255 0.950 . S
H279 C257 0.950 . S
C280 C281 1.349 . S
C280 C282 1.327 . S
C280 H305 0.950 . S
C281 C280 1.349 . S
C281 C297 1.349 . S
C282 C280 1.327 . S
C282 C301 1.429 . S
C282 H306 0.950 . S
C283 C300 1.574 . S
C283 C302 1.368 . S
C283 H307 0.949 . S
H284 C288 0.949 . S
C285 C286 1.349 . S
C285 C287 1.327 . S
C285 H308 0.950 . S
C286 C285 1.349 . S
C286 C298 1.349 . S
C287 C285 1.327 . S
C287 C303 1.429 . S
C287 H309 0.950 . S
C288 H284 0.949 . S
C288 C296 1.574 . S
C288 C304 1.368 . S
H289 C297 0.950 . S
H290 C295 0.950 . S
H291 C296 0.949 . S
H292 C298 0.950 . S
H293 C299 0.950 . S
H294 C300 0.949 . S
C295 H290 0.950 . S
C295 C297 1.327 . S
C295 C301 1.429 . S
C296 C288 1.574 . S
C296 H291 0.949 . S
C296 C302 1.368 . S
C297 C281 1.349 . S
C297 H289 0.950 . S
C297 C295 1.327 . S
C298 C286 1.349 . S
C298 H292 0.950 . S
C298 C299 1.327 . S
C299 H293 0.950 . S
C299 C298 1.327 . S
C299 C303 1.429 . S
C300 C283 1.574 . S
C300 H294 0.949 . S
C300 C304 1.368 . S
C301 C282 1.429 . S
C301 C295 1.429 . S
C301 C302 1.523 . S
C302 C283 1.368 . S
C302 C296 1.368 . S
C302 C301 1.523 . S
C303 C287 1.429 . S
C303 C299 1.429 . S
C303 C304 1.523 . S
C304 C288 1.368 . S
C304 C300 1.368 . S
C304 C303 1.523 . S
H305 C280 0.950 . S
H306 C282 0.950 . S
H307 C283 0.949 . S
H308 C285 0.950 . S
H309 C287 0.950 . S
C310 C311 1.349 . S
C310 C312 1.327 . S
C310 H335 0.950 . S
C311 C310 1.349 . S
C311 C327 1.349 . S
C312 C310 1.327 . S
C312 C331 1.429 . S
C312 H336 0.950 . S
C313 C330 1.574 . S
C313 C332 1.368 . S
C313 H337 0.949 . S
H314 C318 0.949 . S
C315 C316 1.349 . S
C315 C317 1.327 . S
C315 H338 0.950 . S
C316 C315 1.349 . S
C316 C328 1.349 . S
C317 C315 1.327 . S
C317 C333 1.429 . S
C317 H339 0.950 . S
C318 H314 0.949 . S
C318 C326 1.574 . S
C318 C334 1.368 . S
H319 C327 0.950 . S
H320 C325 0.950 . S
H321 C326 0.949 . S
H322 C328 0.950 . S
H323 C329 0.950 . S
H324 C330 0.949 . S
C325 H320 0.950 . S
C325 C327 1.327 . S
C325 C331 1.429 . S
C326 C318 1.574 . S
C326 H321 0.949 . S
C326 C332 1.368 . S
C327 C311 1.349 . S
C327 H319 0.950 . S
C327 C325 1.327 . S
C328 C316 1.349 . S
C328 H322 0.950 . S
C328 C329 1.327 . S
C329 H323 0.950 . S
C329 C328 1.327 . S
C329 C333 1.429 . S
C330 C313 1.574 . S
C330 H324 0.949 . S
C330 C334 1.368 . S
C331 C312 1.429 . S
C331 C325 1.429 . S
C331 C332 1.523 . S
C332 C313 1.368 . S
C332 C326 1.368 . S
C332 C331 1.523 . S
C333 C317 1.429 . S
C333 C329 1.429 . S
C333 C334 1.523 . S
C334 C318 1.368 . S
C334 C330 1.368 . S
C334 C333 1.523 . S
H335 C310 0.950 . S
H336 C312 0.950 . S
H337 C313 0.949 . S
H338 C315 0.950 . S
H339 C317 0.950 . S
C340 C341 1.349 . S
C340 C342 1.327 . S
C340 H365 0.950 . S
C341 C340 1.349 . S
C341 C357 1.349 . S
C342 C340 1.327 . S
C342 C361 1.429 . S
C342 H366 0.950 . S
C343 C360 1.574 . S
C343 C362 1.368 . S
C343 H367 0.949 . S
H344 C348 0.949 . S
C345 C346 1.349 . S
C345 C347 1.327 . S
C345 H368 0.950 . S
C346 C345 1.349 . S
C346 C358 1.349 1_554 S
C347 C345 1.327 . S
C347 C363 1.429 . S
C347 H369 0.950 . S
C348 H344 0.949 . S
C348 C356 1.574 . S
C348 C364 1.368 . S
H349 C357 0.950 . S
H350 C355 0.950 . S
H351 C356 0.949 . S
H352 C358 0.950 . S
H353 C359 0.950 1_556 S
H354 C360 0.949 . S
C355 H350 0.950 . S
C355 C357 1.327 . S
C355 C361 1.429 . S
C356 C348 1.574 . S
C356 H351 0.949 . S
C356 C362 1.368 . S
C357 C341 1.349 . S
C357 H349 0.950 . S
C357 C355 1.327 . S
C358 C346 1.349 1_556 S
C358 H352 0.950 . S
C358 C359 1.327 1_556 S
C359 H353 0.950 1_554 S
C359 C358 1.327 1_554 S
C359 C363 1.429 . S
C360 C343 1.574 . S
C360 H354 0.949 . S
C360 C364 1.368 . S
C361 C342 1.429 . S
C361 C355 1.429 . S
C361 C362 1.523 . S
C362 C343 1.368 . S
C362 C356 1.368 . S
C362 C361 1.523 . S
C363 C347 1.429 . S
C363 C359 1.429 . S
C363 C364 1.523 . S
C364 C348 1.368 . S
C364 C360 1.368 . S
C364 C363 1.523 . S
H365 C340 0.950 . S
H366 C342 0.950 . S
H367 C343 0.949 . S
H368 C345 0.950 . S
H369 C347 0.950 . S
C370 C371 1.349 . S
C370 C372 1.327 . S
C370 H395 0.950 . S
C371 C370 1.349 . S
C371 C387 1.349 . S
C372 C370 1.327 . S
C372 C391 1.429 . S
C372 H396 0.950 . S
C373 C390 1.574 . S
C373 C392 1.368 . S
C373 H397 0.949 . S
H374 C378 0.949 . S
C375 C376 1.349 . S
C375 C377 1.327 . S
C375 H398 0.950 . S
C376 C375 1.349 . S
C376 C388 1.349 . S
C377 C375 1.327 . S
C377 C393 1.429 . S
C377 H399 0.950 . S
C378 H374 0.949 . S
C378 C386 1.574 . S
C378 C394 1.368 . S
H379 C387 0.950 . S
H380 C385 0.950 . S
H381 C386 0.949 . S
H382 C388 0.950 1_554 S
H383 C389 0.950 . S
H384 C390 0.949 . S
C385 H380 0.950 . S
C385 C387 1.327 . S
C385 C391 1.429 . S
C386 C378 1.574 . S
C386 H381 0.949 . S
C386 C392 1.368 . S
C387 C371 1.349 . S
C387 H379 0.950 . S
C387 C385 1.327 . S
C388 C376 1.349 . S
C388 H382 0.950 1_556 S
C388 C389 1.327 . S
C389 H383 0.950 . S
C389 C388 1.327 . S
C389 C393 1.429 . S
C390 C373 1.574 . S
C390 H384 0.949 . S
C390 C394 1.368 . S
C391 C372 1.429 . S
C391 C385 1.429 . S
C391 C392 1.523 . S
C392 C373 1.368 . S
C392 C386 1.368 . S
C392 C391 1.523 . S
C393 C377 1.429 . S
C393 C389 1.429 . S
C393 C394 1.523 . S
C394 C378 1.368 . S
C394 C390 1.368 . S
C394 C393 1.523 . S
H395 C370 0.950 . S
H396 C372 0.950 . S
H397 C373 0.949 . S
H398 C375 0.950 . S
H399 C377 0.950 . S
C400 C401 1.349 . S
C400 C402 1.327 . S
C400 H425 0.950 1_556 S
C401 C400 1.349 . S
C401 C417 1.349 . S
C402 C400 1.327 . S
C402 C421 1.429 . S
C402 H426 0.950 . S
C403 C420 1.574 . S
C403 C422 1.368 . S
C403 H427 0.949 . S
H404 C408 0.949 . S
C405 C406 1.349 . S
C405 C407 1.327 . S
C405 H428 0.950 . S
C406 C405 1.349 . S
C406 C418 1.349 . S
C407 C405 1.327 . S
C407 C423 1.429 . S
C407 H429 0.950 . S
C408 H404 0.949 . S
C408 C416 1.574 . S
C408 C424 1.368 . S
H409 C417 0.950 . S
H410 C415 0.950 . S
H411 C416 0.949 . S
H412 C418 0.950 . S
H413 C419 0.950 . S
H414 C420 0.949 . S
C415 H410 0.950 . S
C415 C417 1.327 . S
C415 C421 1.429 . S
C416 C408 1.574 . S
C416 H411 0.949 . S
C416 C422 1.368 . S
C417 C401 1.349 . S
C417 H409 0.950 . S
C417 C415 1.327 . S
C418 C406 1.349 . S
C418 H412 0.950 . S
C418 C419 1.327 . S
C419 H413 0.950 . S
C419 C418 1.327 . S
C419 C423 1.429 . S
C420 C403 1.574 . S
C420 H414 0.949 . S
C420 C424 1.368 . S
C421 C402 1.429 . S
C421 C415 1.429 . S
C421 C422 1.523 . S
C422 C403 1.368 . S
C422 C416 1.368 . S
C422 C421 1.523 . S
C423 C407 1.429 . S
C423 C419 1.429 . S
C423 C424 1.523 . S
C424 C408 1.368 . S
C424 C420 1.368 . S
C424 C423 1.523 . S
H425 C400 0.950 1_554 S
H426 C402 0.950 . S
H427 C403 0.949 . S
H428 C405 0.950 . S
H429 C407 0.950 . S
C430 C431 1.349 . S
C430 C432 1.327 . S
C430 H455 0.950 . S
C431 C430 1.349 . S
C431 C447 1.349 . S
C432 C430 1.327 . S
C432 C451 1.429 . S
C432 H456 0.950 . S
C433 C450 1.574 . S
C433 C452 1.368 . S
C433 H457 0.949 . S
H434 C438 0.949 . S
C435 C436 1.349 . S
C435 C437 1.327 . S
C435 H458 0.950 . S
C436 C435 1.349 . S
C436 C448 1.349 . S
C437 C435 1.327 . S
C437 C453 1.429 . S
C437 H459 0.950 . S
C438 H434 0.949 . S
C438 C446 1.574 . S
C438 C454 1.368 . S
H439 C447 0.950 . S
H440 C445 0.950 . S
H441 C446 0.949 . S
H442 C448 0.950 1_556 S
H443 C449 0.950 1_556 S
H444 C450 0.949 . S
C445 H440 0.950 . S
C445 C447 1.327 . S
C445 C451 1.429 . S
C446 C438 1.574 . S
C446 H441 0.949 . S
C446 C452 1.368 . S
C447 C431 1.349 . S
C447 H439 0.950 . S
C447 C445 1.327 . S
C448 C436 1.349 . S
C448 H442 0.950 1_554 S
C448 C449 1.327 . S
C449 H443 0.950 1_554 S
C449 C448 1.327 . S
C449 C453 1.429 . S
C450 C433 1.574 . S
C450 H444 0.949 . S
C450 C454 1.368 . S
C451 C432 1.429 . S
C451 C445 1.429 . S
C451 C452 1.523 . S
C452 C433 1.368 . S
C452 C446 1.368 . S
C452 C451 1.523 . S
C453 C437 1.429 . S
C453 C449 1.429 . S
C453 C454 1.523 . S
C454 C438 1.368 . S
C454 C450 1.368 . S
C454 C453 1.523 . S
H455 C430 0.950 . S
H456 C432 0.950 . S
H457 C433 0.949 . S
H458 C435 0.950 . S
H459 C437 0.950 . S
C460 C461 1.349 . S
C460 C462 1.327 . S
C460 H485 0.950 . S
C461 C460 1.349 . S
C461 C477 1.349 . S
C462 C460 1.327 . S
C462 C481 1.429 . S
C462 H486 0.950 . S
C463 C480 1.574 . S
C463 C482 1.368 . S
C463 H487 0.949 . S
H464 C468 0.949 . S
C465 C466 1.349 . S
C465 C467 1.327 . S
C465 H488 0.950 . S
C466 C465 1.349 . S
C466 C478 1.349 . S
C467 C465 1.327 . S
C467 C483 1.429 . S
C467 H489 0.950 . S
C468 H464 0.949 . S
C468 C476 1.574 . S
C468 C484 1.368 . S
H469 C477 0.950 . S
H470 C475 0.950 . S
H471 C476 0.949 . S
H472 C478 0.950 . S
H473 C479 0.950 . S
H474 C480 0.949 . S
C475 H470 0.950 . S
C475 C477 1.327 . S
C475 C481 1.429 . S
C476 C468 1.574 . S
C476 H471 0.949 . S
C476 C482 1.368 . S
C477 C461 1.349 . S
C477 H469 0.950 . S
C477 C475 1.327 . S
C478 C466 1.349 . S
C478 H472 0.950 . S
C478 C479 1.327 . S
C479 H473 0.950 . S
C479 C478 1.327 . S
C479 C483 1.429 . S
C480 C463 1.574 . S
C480 H474 0.949 . S
C480 C484 1.368 . S
C481 C462 1.429 . S
C481 C475 1.429 . S
C481 C482 1.523 . S
C482 C463 1.368 . S
C482 C476 1.368 . S
C482 C481 1.523 . S
C483 C467 1.429 . S
C483 C479 1.429 . S
C483 C484 1.523 . S
C484 C468 1.368 . S
C484 C480 1.368 . S
C484 C483 1.523 . S
H485 C460 0.950 . S
H486 C462 0.950 . S
H487 C463 0.949 . S
H488 C465 0.950 . S
H489 C467 0.950 . S
C490 C491 1.349 . S
C490 C492 1.327 . S
C490 H515 0.950 . S
C491 C490 1.349 . S
C491 C507 1.349 . S
C492 C490 1.327 . S
C492 C511 1.429 . S
C492 H516 0.950 . S
C493 C510 1.574 . S
C493 C512 1.368 . S
C493 H517 0.949 . S
H494 C498 0.949 . S
C495 C496 1.349 . S
C495 C497 1.327 . S
C495 H518 0.950 . S
C496 C495 1.349 . S
C496 C508 1.349 . S
C497 C495 1.327 . S
C497 C513 1.429 . S
C497 H519 0.950 . S
C498 H494 0.949 . S
C498 C506 1.574 . S
C498 C514 1.368 . S
H499 C507 0.950 . S
H500 C505 0.950 . S
H501 C506 0.949 . S
H502 C508 0.950 . S
H503 C509 0.950 . S
H504 C510 0.949 . S
C505 H500 0.950 . S
C505 C507 1.327 . S
C505 C511 1.429 . S
C506 C498 1.574 . S
C506 H501 0.949 . S
C506 C512 1.368 . S
C507 C491 1.349 . S
C507 H499 0.950 . S
C507 C505 1.327 . S
C508 C496 1.349 . S
C508 H502 0.950 . S
C508 C509 1.327 . S
C509 H503 0.950 . S
C509 C508 1.327 . S
C509 C513 1.429 . S
C510 C493 1.574 . S
C510 H504 0.949 . S
C510 C514 1.368 . S
C511 C492 1.429 . S
C511 C505 1.429 . S
C511 C512 1.523 . S
C512 C493 1.368 . S
C512 C506 1.368 . S
C512 C511 1.523 . S
C513 C497 1.429 . S
C513 C509 1.429 . S
C513 C514 1.523 . S
C514 C498 1.368 . S
C514 C510 1.368 . S
C514 C513 1.523 . S
H515 C490 0.950 . S
H516 C492 0.950 . S
H517 C493 0.949 . S
H518 C495 0.950 . S
H519 C497 0.950 . S
C520 C521 1.349 . S
C520 C522 1.327 . S
C520 H545 0.950 . S
C521 C520 1.349 . S
C521 C537 1.349 . S
C522 C520 1.327 . S
C522 C541 1.429 . S
C522 H546 0.950 . S
C523 C540 1.574 . S
C523 C542 1.368 . S
C523 H547 0.949 . S
H524 C528 0.949 . S
C525 C526 1.349 . S
C525 C527 1.327 . S
C525 H548 0.950 1_554 S
C526 C525 1.349 . S
C526 C538 1.349 . S
C527 C525 1.327 . S
C527 C543 1.429 . S
C527 H549 0.950 . S
C528 H524 0.949 . S
C528 C536 1.574 . S
C528 C544 1.368 . S
H529 C537 0.950 . S
H530 C535 0.950 . S
H531 C536 0.949 . S
H532 C538 0.950 . S
H533 C539 0.950 . S
H534 C540 0.949 . S
C535 H530 0.950 . S
C535 C537 1.327 . S
C535 C541 1.429 . S
C536 C528 1.574 . S
C536 H531 0.949 . S
C536 C542 1.368 . S
C537 C521 1.349 . S
C537 H529 0.950 . S
C537 C535 1.327 . S
C538 C526 1.349 . S
C538 H532 0.950 . S
C538 C539 1.327 . S
C539 H533 0.950 . S
C539 C538 1.327 . S
C539 C543 1.429 . S
C540 C523 1.574 . S
C540 H534 0.949 . S
C540 C544 1.368 . S
C541 C522 1.429 . S
C541 C535 1.429 . S
C541 C542 1.523 . S
C542 C523 1.368 . S
C542 C536 1.368 . S
C542 C541 1.523 . S
C543 C527 1.429 . S
C543 C539 1.429 . S
C543 C544 1.523 . S
C544 C528 1.368 . S
C544 C540 1.368 . S
C544 C543 1.523 . S
H545 C520 0.950 . S
H546 C522 0.950 . S
H547 C523 0.949 . S
H548 C525 0.950 1_556 S
H549 C527 0.950 . S
C550 C551 1.349 . S
C550 C552 1.327 . S
C550 H575 0.950 . S
C551 C550 1.349 . S
C551 C567 1.349 . S
C552 C550 1.327 . S
C552 C571 1.429 . S
C552 H576 0.950 . S
C553 C570 1.574 . S
C553 C572 1.368 . S
C553 H577 0.949 . S
H554 C558 0.949 . S
C555 C556 1.349 . S
C555 C557 1.327 . S
C555 H578 0.950 . S
C556 C555 1.349 . S
C556 C568 1.349 . S
C557 C555 1.327 . S
C557 C573 1.429 . S
C557 H579 0.950 . S
C558 H554 0.949 . S
C558 C566 1.574 . S
C558 C574 1.368 . S
H559 C567 0.950 . S
H560 C565 0.950 . S
H561 C566 0.949 . S
H562 C568 0.950 . S
H563 C569 0.950 . S
H564 C570 0.949 . S
C565 H560 0.950 . S
C565 C567 1.327 . S
C565 C571 1.429 . S
C566 C558 1.574 . S
C566 H561 0.949 . S
C566 C572 1.368 . S
C567 C551 1.349 . S
C567 H559 0.950 . S
C567 C565 1.327 . S
C568 C556 1.349 . S
C568 H562 0.950 . S
C568 C569 1.327 . S
C569 H563 0.950 . S
C569 C568 1.327 . S
C569 C573 1.429 . S
C570 C553 1.574 . S
C570 H564 0.949 . S
C570 C574 1.368 . S
C571 C552 1.429 . S
C571 C565 1.429 . S
C571 C572 1.523 . S
C572 C553 1.368 . S
C572 C566 1.368 . S
C572 C571 1.523 . S
C573 C557 1.429 . S
C573 C569 1.429 . S
C573 C574 1.523 . S
C574 C558 1.368 . S
C574 C570 1.368 . S
C574 C573 1.523 . S
H575 C550 0.950 . S
H576 C552 0.950 . S
H577 C553 0.949 . S
H578 C555 0.950 . S
H579 C557 0.950 . S
C580 C581 1.349 . S
C580 C582 1.327 . S
C580 H605 0.950 . S
C581 C580 1.349 . S
C581 C597 1.349 . S
C582 C580 1.327 . S
C582 C601 1.429 . S
C582 H606 0.950 . S
C583 C600 1.574 . S
C583 C602 1.368 . S
C583 H607 0.949 . S
H584 C588 0.949 . S
C585 C586 1.349 . S
C585 C587 1.327 . S
C585 H608 0.950 . S
C586 C585 1.349 . S
C586 C598 1.349 . S
C587 C585 1.327 . S
C587 C603 1.429 . S
C587 H609 0.950 . S
C588 H584 0.949 . S
C588 C596 1.574 . S
C588 C604 1.368 . S
H589 C597 0.950 . S
H590 C595 0.950 . S
H591 C596 0.949 . S
H592 C598 0.950 . S
H593 C599 0.950 . S
H594 C600 0.949 . S
C595 H590 0.950 . S
C595 C597 1.327 . S
C595 C601 1.429 . S
C596 C588 1.574 . S
C596 H591 0.949 . S
C596 C602 1.368 . S
C597 C581 1.349 . S
C597 H589 0.950 . S
C597 C595 1.327 . S
C598 C586 1.349 . S
C598 H592 0.950 . S
C598 C599 1.327 . S
C599 H593 0.950 . S
C599 C598 1.327 . S
C599 C603 1.429 . S
C600 C583 1.574 . S
C600 H594 0.949 . S
C600 C604 1.368 . S
C601 C582 1.429 . S
C601 C595 1.429 . S
C601 C602 1.523 . S
C602 C583 1.368 . S
C602 C596 1.368 . S
C602 C601 1.523 . S
C603 C587 1.429 . S
C603 C599 1.429 . S
C603 C604 1.523 . S
C604 C588 1.368 . S
C604 C600 1.368 . S
C604 C603 1.523 . S
H605 C580 0.950 . S
H606 C582 0.950 . S
H607 C583 0.949 . S
H608 C585 0.950 . S
H609 C587 0.950 . S
C610 C611 1.349 . S
C610 C612 1.327 . S
C610 H635 0.950 . S
C611 C610 1.349 . S
C611 C627 1.349 . S
C612 C610 1.327 . S
C612 C631 1.429 . S
C612 H636 0.950 . S
C613 C630 1.574 . S
C613 C632 1.368 . S
C613 H637 0.949 . S
H614 C618 0.949 . S
C615 C616 1.349 . S
C615 C617 1.327 . S
C615 H638 0.950 . S
C616 C615 1.349 . S
C616 C628 1.349 . S
C617 C615 1.327 . S
C617 C633 1.429 . S
C617 H639 0.950 . S
C618 H614 0.949 . S
C618 C626 1.574 . S
C618 C634 1.368 . S
H619 C627 0.950 . S
H620 C625 0.950 . S
H621 C626 0.949 . S
H622 C628 0.950 . S
H623 C629 0.950 . S
H624 C630 0.949 . S
C625 H620 0.950 . S
C625 C627 1.327 . S
C625 C631 1.429 . S
C626 C618 1.574 . S
C626 H621 0.949 . S
C626 C632 1.368 . S
C627 C611 1.349 . S
C627 H619 0.950 . S
C627 C625 1.327 . S
C628 C616 1.349 . S
C628 H622 0.950 . S
C628 C629 1.327 . S
C629 H623 0.950 . S
C629 C628 1.327 . S
C629 C633 1.429 . S
C630 C613 1.574 . S
C630 H624 0.949 . S
C630 C634 1.368 . S
C631 C612 1.429 . S
C631 C625 1.429 . S
C631 C632 1.523 . S
C632 C613 1.368 . S
C632 C626 1.368 . S
C632 C631 1.523 . S
C633 C617 1.429 . S
C633 C629 1.429 . S
C633 C634 1.523 . S
C634 C618 1.368 . S
C634 C630 1.368 . S
C634 C633 1.523 . S
H635 C610 0.950 . S
H636 C612 0.950 . S
H637 C613 0.949 . S
H638 C615 0.950 . S
H639 C617 0.950 . S
C640 C641 1.349 1_455 S
C640 C642 1.327 . S
C640 H665 0.950 . S
C641 C640 1.349 1_655 S
C641 C657 1.349 1_565 S
C642 C640 1.327 . S
C642 C661 1.429 1_455 S
C642 H666 0.950 . S
C643 C660 1.574 1_556 S
C643 C662 1.331 1_545 S
C643 H667 0.949 . S
H644 C648 0.949 . S
C645 C646 1.349 1_655 S
C645 C647 1.327 . S
C645 H668 0.950 . S
C646 C645 1.349 1_455 S
C646 C658 1.349 1_545 S
C647 C645 1.327 . S
C647 C663 1.429 1_655 S
C647 H669 0.950 . S
C648 H644 0.949 . S
C648 C656 1.574 1_554 S
C648 C664 1.368 1_565 S
H649 C657 0.950 . S
H650 C655 0.950 . S
H651 C656 0.949 . S
H652 C658 0.950 . S
H653 C659 0.950 . S
H654 C660 0.949 . S
C655 H650 0.950 . S
C655 C657 1.327 . S
C655 C661 1.429 1_545 S
C656 C648 1.574 1_556 S
C656 H651 0.949 . S
C656 C662 1.400 1_455 S
C657 C641 1.349 1_545 S
C657 H649 0.950 . S
C657 C655 1.327 . S
C658 C646 1.349 1_565 S
C658 H652 0.950 . S
C658 C659 1.327 . S
C659 H653 0.950 . S
C659 C658 1.327 . S
C659 C663 1.429 1_565 S
C660 C643 1.574 1_554 S
C660 H654 0.949 . S
C660 C664 1.368 1_655 S
C661 C642 1.429 1_655 S
C661 C655 1.429 1_565 S
C661 C662 1.532 . S
C662 C643 1.331 1_565 S
C662 C656 1.400 1_655 S
C662 C661 1.532 . S
C663 C647 1.429 1_455 S
C663 C659 1.429 1_545 S
C663 C664 1.523 . S
C664 C648 1.368 1_545 S
C664 C660 1.368 1_455 S
C664 C663 1.523 . S
H665 C640 0.950 . S
H666 C642 0.950 . S
H667 C643 0.949 . S
H668 C645 0.950 . S
H669 C647 0.950 . S
C670 C671 1.349 . S
C670 C672 1.327 . S
C670 H695 0.950 . S
C671 C670 1.349 . S
C671 C687 1.349 . S
C672 C670 1.327 . S
C672 C691 1.429 . S
C672 H696 0.950 . S
C673 C690 1.574 . S
C673 C692 1.368 . S
C673 H697 0.949 . S
H674 C678 0.949 . S
C675 C676 1.349 . S
C675 C677 1.327 . S
C675 H698 0.950 . S
C676 C675 1.349 . S
C676 C688 1.349 . S
C677 C675 1.327 . S
C677 C693 1.429 . S
C677 H699 0.950 . S
C678 H674 0.949 . S
C678 C686 1.574 . S
C678 C694 1.368 . S
H679 C687 0.950 . S
H680 C685 0.950 . S
H681 C686 0.949 . S
H682 C688 0.950 . S
H683 C689 0.950 . S
H684 C690 0.949 . S
C685 H680 0.950 . S
C685 C687 1.327 . S
C685 C691 1.429 . S
C686 C678 1.574 . S
C686 H681 0.949 . S
C686 C692 1.368 . S
C687 C671 1.349 . S
C687 H679 0.950 . S
C687 C685 1.327 . S
C688 C676 1.349 . S
C688 H682 0.950 . S
C688 C689 1.327 . S
C689 H683 0.950 . S
C689 C688 1.327 . S
C689 C693 1.429 . S
C690 C673 1.574 . S
C690 H684 0.949 . S
C690 C694 1.368 . S
C691 C672 1.429 . S
C691 C685 1.429 . S
C691 C692 1.523 . S
C692 C673 1.368 . S
C692 C686 1.368 . S
C692 C691 1.523 . S
C693 C677 1.429 . S
C693 C689 1.429 . S
C693 C694 1.523 . S
C694 C678 1.368 . S
C694 C690 1.368 . S
C694 C693 1.523 . S
H695 C670 0.950 . S
H696 C672 0.950 . S
H697 C673 0.949 . S
H698 C675 0.950 . S
H699 C677 0.950 . S
C700 C701 1.349 . S
C700 C702 1.327 . S
C700 H725 0.950 . S
C701 C700 1.349 . S
C701 C717 1.349 1_545 S
C702 C700 1.327 . S
C702 C721 1.429 . S
C702 H726 0.950 . S
C703 C720 1.574 . S
C703 C722 1.368 1_565 S
C703 H727 0.949 . S
H704 C708 0.949 . S
C705 C706 1.349 . S
C705 C707 1.327 . S
C705 H728 0.950 . S
C706 C705 1.349 . S
C706 C718 1.349 1_565 S
C707 C705 1.327 . S
C707 C723 1.429 . S
C707 H729 0.950 . S
C708 H704 0.949 . S
C708 C716 1.574 . S
C708 C724 1.334 1_545 S
H709 C717 0.950 . S
H710 C715 0.950 . S
H711 C716 0.949 . S
H712 C718 0.950 . S
H713 C719 0.950 . S
H714 C720 0.949 . S
C715 H710 0.950 . S
C715 C717 1.327 . S
C715 C721 1.429 1_565 S
C716 C708 1.574 . S
C716 H711 0.949 . S
C716 C722 1.368 . S
C717 C701 1.349 1_565 S
C717 H709 0.950 . S
C717 C715 1.327 . S
C718 C706 1.349 1_545 S
C718 H712 0.950 . S
C718 C719 1.327 . S
C719 H713 0.950 . S
C719 C718 1.327 . S
C719 C723 1.429 1_545 S
C720 C703 1.574 . S
C720 H714 0.949 . S
C720 C724 1.397 . S
C721 C702 1.429 . S
C721 C715 1.429 1_545 S
C721 C722 1.523 . S
C722 C703 1.368 1_545 S
C722 C716 1.368 . S
C722 C721 1.523 . S
C723 C707 1.429 . S
C723 C719 1.429 1_565 S
C723 C724 1.531 . S
C724 C708 1.334 1_565 S
C724 C720 1.397 . S
C724 C723 1.531 . S
H725 C700 0.950 . S
H726 C702 0.950 . S
H727 C703 0.949 . S
H728 C705 0.950 . S
H729 C707 0.950 . S
C730 C731 1.349 . S
C730 C732 1.327 . S
C730 H755 0.950 . S
C731 C730 1.349 . S
C731 C747 1.349 . S
C732 C730 1.327 . S
C732 C751 1.429 . S
C732 H756 0.950 . S
C733 C750 1.574 . S
C733 C752 1.368 . S
C733 H757 0.949 . S
H734 C738 0.949 . S
C735 C736 1.349 . S
C735 C737 1.327 . S
C735 H758 0.950 . S
C736 C735 1.349 . S
C736 C748 1.349 . S
C737 C735 1.327 . S
C737 C753 1.429 . S
C737 H759 0.950 . S
C738 H734 0.949 . S
C738 C746 1.574 . S
C738 C754 1.368 . S
H739 C747 0.950 . S
H740 C745 0.950 . S
H741 C746 0.949 . S
H742 C748 0.950 . S
H743 C749 0.950 . S
H744 C750 0.949 . S
C745 H740 0.950 . S
C745 C747 1.327 . S
C745 C751 1.429 . S
C746 C738 1.574 . S
C746 H741 0.949 . S
C746 C752 1.368 . S
C747 C731 1.349 . S
C747 H739 0.950 . S
C747 C745 1.327 . S
C748 C736 1.349 . S
C748 H742 0.950 . S
C748 C749 1.327 . S
C749 H743 0.950 . S
C749 C748 1.327 . S
C749 C753 1.429 . S
C750 C733 1.574 . S
C750 H744 0.949 . S
C750 C754 1.368 . S
C751 C732 1.429 . S
C751 C745 1.429 . S
C751 C752 1.523 . S
C752 C733 1.368 . S
C752 C746 1.368 . S
C752 C751 1.523 . S
C753 C737 1.429 . S
C753 C749 1.429 . S
C753 C754 1.523 . S
C754 C738 1.368 . S
C754 C750 1.368 . S
C754 C753 1.523 . S
H755 C730 0.950 . S
H756 C732 0.950 . S
H757 C733 0.949 . S
H758 C735 0.950 . S
H759 C737 0.950 . S
C760 C761 1.349 . S
C760 C762 1.327 . S
C760 H785 0.950 . S
C761 C760 1.349 . S
C761 C777 1.349 . S
C762 C760 1.327 . S
C762 C781 1.429 . S
C762 H786 0.950 . S
C763 C780 1.574 . S
C763 C782 1.368 . S
C763 H787 0.949 . S
H764 C768 0.949 . S
C765 C766 1.349 . S
C765 C767 1.327 . S
C765 H788 0.950 . S
C766 C765 1.349 . S
C766 C778 1.349 . S
C767 C765 1.327 . S
C767 C783 1.429 . S
C767 H789 0.950 . S
C768 H764 0.949 . S
C768 C776 1.574 . S
C768 C784 1.368 . S
H769 C777 0.950 . S
H770 C775 0.950 . S
H771 C776 0.949 . S
H772 C778 0.950 . S
H773 C779 0.950 . S
H774 C780 0.949 . S
C775 H770 0.950 . S
C775 C777 1.327 . S
C775 C781 1.429 . S
C776 C768 1.574 . S
C776 H771 0.949 . S
C776 C782 1.368 . S
C777 C761 1.349 . S
C777 H769 0.950 . S
C777 C775 1.327 . S
C778 C766 1.349 . S
C778 H772 0.950 . S
C778 C779 1.327 . S
C779 H773 0.950 . S
C779 C778 1.327 . S
C779 C783 1.429 . S
C780 C763 1.574 . S
C780 H774 0.949 . S
C780 C784 1.368 . S
C781 C762 1.429 . S
C781 C775 1.429 . S
C781 C782 1.523 . S
C782 C763 1.368 . S
C782 C776 1.368 . S
C782 C781 1.523 . S
C783 C767 1.429 . S
C783 C779 1.429 . S
C783 C784 1.523 . S
C784 C768 1.368 . S
C784 C780 1.368 . S
C784 C783 1.523 . S
H785 C760 0.950 . S
H786 C762 0.950 . S
H787 C763 0.949 . S
H788 C765 0.950 . S
H789 C767 0.950 . S
C790 C791 1.349 . S
C790 C792 1.327 . S
C790 H815 0.950 . S
C791 C790 1.349 . S
C791 C807 1.349 . S
C792 C790 1.327 . S
C792 C811 1.429 . S
C792 H816 0.950 . S
C793 C810 1.574 . S
C793 C812 1.368 . S
C793 H817 0.949 . S
H794 C798 0.949 . S
C795 C796 1.349 . S
C795 C797 1.327 . S
C795 H818 0.950 . S
C796 C795 1.349 . S
C796 C808 1.349 . S
C797 C795 1.327 . S
C797 C813 1.429 . S
C797 H819 0.950 . S
C798 H794 0.949 . S
C798 C806 1.574 . S
C798 C814 1.368 . S
H799 C807 0.950 . S
H800 C805 0.950 . S
H801 C806 0.949 . S
H802 C808 0.950 . S
H803 C809 0.950 . S
H804 C810 0.949 . S
C805 H800 0.950 . S
C805 C807 1.327 . S
C805 C811 1.429 . S
C806 C798 1.574 . S
C806 H801 0.949 . S
C806 C812 1.368 . S
C807 C791 1.349 . S
C807 H799 0.950 . S
C807 C805 1.327 . S
C808 C796 1.349 . S
C808 H802 0.950 . S
C808 C809 1.327 . S
C809 H803 0.950 . S
C809 C808 1.327 . S
C809 C813 1.429 . S
C810 C793 1.574 . S
C810 H804 0.949 . S
C810 C814 1.368 . S
C811 C792 1.429 . S
C811 C805 1.429 . S
C811 C812 1.523 . S
C812 C793 1.368 . S
C812 C806 1.368 . S
C812 C811 1.523 . S
C813 C797 1.429 . S
C813 C809 1.429 . S
C813 C814 1.523 . S
C814 C798 1.368 . S
C814 C810 1.368 . S
C814 C813 1.523 . S
H815 C790 0.950 . S
H816 C792 0.950 . S
H817 C793 0.949 . S
H818 C795 0.950 . S
H819 C797 0.950 . S
C820 C821 1.349 . S
C820 C822 1.327 . S
C820 H845 0.950 . S
C821 C820 1.349 . S
C821 C837 1.349 . S
C822 C820 1.327 . S
C822 C841 1.429 . S
C822 H846 0.950 . S
C823 C840 1.574 . S
C823 C842 1.368 . S
C823 H847 0.949 . S
H824 C828 0.949 . S
C825 C826 1.349 . S
C825 C827 1.327 . S
C825 H848 0.950 . S
C826 C825 1.349 . S
C826 C838 1.349 . S
C827 C825 1.327 . S
C827 C843 1.429 . S
C827 H849 0.950 . S
C828 H824 0.949 . S
C828 C836 1.574 . S
C828 C844 1.368 . S
H829 C837 0.950 . S
H830 C835 0.950 . S
H831 C836 0.949 . S
H832 C838 0.950 . S
H833 C839 0.950 . S
H834 C840 0.949 . S
C835 H830 0.950 . S
C835 C837 1.327 . S
C835 C841 1.429 . S
C836 C828 1.574 . S
C836 H831 0.949 . S
C836 C842 1.368 . S
C837 C821 1.349 . S
C837 H829 0.950 . S
C837 C835 1.327 . S
C838 C826 1.349 . S
C838 H832 0.950 . S
C838 C839 1.327 . S
C839 H833 0.950 . S
C839 C838 1.327 . S
C839 C843 1.429 . S
C840 C823 1.574 . S
C840 H834 0.949 . S
C840 C844 1.368 . S
C841 C822 1.429 . S
C841 C835 1.429 . S
C841 C842 1.523 . S
C842 C823 1.368 . S
C842 C836 1.368 . S
C842 C841 1.523 . S
C843 C827 1.429 . S
C843 C839 1.429 . S
C843 C844 1.523 . S
C844 C828 1.368 . S
C844 C840 1.368 . S
C844 C843 1.523 . S
H845 C820 0.950 . S
H846 C822 0.950 . S
H847 C823 0.949 . S
H848 C825 0.950 . S
H849 C827 0.950 . S
C850 C851 1.349 . S
C850 C852 1.327 . S
C850 H875 0.950 . S
C851 C850 1.349 . S
C851 C867 1.349 1_655 S
C852 C850 1.327 . S
C852 C871 1.429 . S
C852 H876 0.950 . S
C853 C870 1.574 1_556 S
C853 C872 1.368 1_455 S
C853 H877 0.949 . S
H854 C858 0.949 . S
C855 C856 1.349 . S
C855 C857 1.327 . S
C855 H878 0.950 . S
C856 C855 1.349 . S
C856 C868 1.349 1_455 S
C857 C855 1.327 . S
C857 C873 1.429 . S
C857 H879 0.950 . S
C858 H854 0.949 . S
C858 C866 1.574 1_554 S
C858 C874 1.368 1_655 S
H859 C867 0.950 . S
H860 C865 0.950 . S
H861 C866 0.949 . S
H862 C868 0.950 . S
H863 C869 0.950 . S
H864 C870 0.949 . S
C865 H860 0.950 . S
C865 C867 1.327 . S
C865 C871 1.429 1_455 S
C866 C858 1.574 1_556 S
C866 H861 0.949 . S
C866 C872 1.368 . S
C867 C851 1.349 1_455 S
C867 H859 0.950 . S
C867 C865 1.327 . S
C868 C856 1.349 1_655 S
C868 H862 0.950 . S
C868 C869 1.327 . S
C869 H863 0.950 . S
C869 C868 1.327 . S
C869 C873 1.429 1_655 S
C870 C853 1.574 1_554 S
C870 H864 0.949 . S
C870 C874 1.368 . S
C871 C852 1.429 . S
C871 C865 1.429 1_655 S
C871 C872 1.523 . S
C872 C853 1.368 1_655 S
C872 C866 1.368 . S
C872 C871 1.523 . S
C873 C857 1.429 . S
C873 C869 1.429 1_455 S
C873 C874 1.523 . S
C874 C858 1.368 1_455 S
C874 C870 1.368 . S
C874 C873 1.523 . S
H875 C850 0.950 . S
H876 C852 0.950 . S
H877 C853 0.949 . S
H878 C855 0.950 . S
H879 C857 0.950 . S
C161 C18 1.506 . S
C166 C68 1.489 . S
C191 C8 1.054 . S
C196 C28 1.051 . S
C221 C38 1.506 . S
C226 C48 1.492 . S
C251 C58 1.890 . S
C256 C78 1.890 . S
C281 C19 1.506 . S
C286 C109 1.495 . S
C311 C9 1.054 . S
C316 C89 1.056 . S
C341 C99 1.506 . S
C346 C49 1.492 . S
C371 C119 1.890 . S
C376 C59 1.890 . S
C401 C138 1.506 . S
C406 C108 1.492 . S
C431 C88 1.054 . S
C436 C128 1.054 . S
C461 C148 1.492 . S
C466 C98 1.509 . S
C491 C118 1.890 . S
C496 C158 1.893 . S
C521 C69 1.492 . S
C526 C139 1.506 . S
C551 C129 1.054 . S
C556 C29 1.054 . S
C581 C39 1.506 . S
C586 C149 1.488 . S
C611 C79 1.890 . S
C616 C159 1.887 . S
C641 C1 1.477 . S
C646 C2 1.476 . S
C671 C21 1.476 . S
C676 C22 1.476 1_554 S
C701 C41 1.497 . S
C706 C42 1.497 . S
C731 C62 1.497 1_556 S
C736 C61 1.497 . S
C761 C81 1.476 1_556 S
C766 C82 1.476 . S
C791 C102 1.497 . S
C796 C101 1.497 1_554 S
C821 C122 1.476 . S
C826 C121 1.476 . S
C851 C142 1.497 . S
C856 C141 1.497 . S
