# Generated by pormake.
# Topology yfm, (5)-cn, num edge types: 1
# Building blocks:
#     Node 0, Type 0, BuildingBlock: BEQFEK_clean_sbu_0, # of connection points: 5
#     Node 1, Type 0, BuildingBlock: BEQFEK_clean_sbu_0, # of connection points: 5
#     Node 2, Type 0, BuildingBlock: BEQFEK_clean_sbu_0, # of connection points: 5
#     Node 3, Type 0, BuildingBlock: BEQFEK_clean_sbu_0, # of connection points: 5
#     Node 4, Type 0, BuildingBlock: BEQFEK_clean_sbu_0, # of connection points: 5
#     Node 5, Type 0, BuildingBlock: BEQFEK_clean_sbu_0, # of connection points: 5
#     Node 6, Type 0, BuildingBlock: BEQFEK_clean_sbu_0, # of connection points: 5
#     Node 7, Type 0, BuildingBlock: BEQFEK_clean_sbu_0, # of connection points: 5
#     Node 8, Type 0, BuildingBlock: BEQFEK_clean_sbu_0, # of connection points: 5
#     Node 9, Type 0, BuildingBlock: BEQFEK_clean_sbu_0, # of connection points: 5
#     Node 10, Type 0, BuildingBlock: BEQFEK_clean_sbu_0, # of connection points: 5
#     Node 11, Type 0, BuildingBlock: BEQFEK_clean_sbu_0, # of connection points: 5
#     Node 12, Type 0, BuildingBlock: BEQFEK_clean_sbu_0, # of connection points: 5
#     Node 13, Type 0, BuildingBlock: BEQFEK_clean_sbu_0, # of connection points: 5
#     Node 14, Type 0, BuildingBlock: BEQFEK_clean_sbu_0, # of connection points: 5
#     Node 15, Type 0, BuildingBlock: BEQFEK_clean_sbu_0, # of connection points: 5
#     Node 16, Type 0, BuildingBlock: BEQFEK_clean_sbu_0, # of connection points: 5
#     Node 17, Type 0, BuildingBlock: BEQFEK_clean_sbu_0, # of connection points: 5
#     Node 18, Type 0, BuildingBlock: BEQFEK_clean_sbu_0, # of connection points: 5
#     Node 19, Type 0, BuildingBlock: BEQFEK_clean_sbu_0, # of connection points: 5
#     Node 20, Type 0, BuildingBlock: BEQFEK_clean_sbu_0, # of connection points: 5
#     Node 21, Type 0, BuildingBlock: BEQFEK_clean_sbu_0, # of connection points: 5
#     Node 22, Type 0, BuildingBlock: BEQFEK_clean_sbu_0, # of connection points: 5
#     Node 23, Type 0, BuildingBlock: BEQFEK_clean_sbu_0, # of connection points: 5
#     Node 24, Type 0, BuildingBlock: BEQFEK_clean_sbu_0, # of connection points: 5
#     Node 25, Type 0, BuildingBlock: BEQFEK_clean_sbu_0, # of connection points: 5
#     Node 26, Type 0, BuildingBlock: BEQFEK_clean_sbu_0, # of connection points: 5
#     Node 27, Type 0, BuildingBlock: BEQFEK_clean_sbu_0, # of connection points: 5
#     Node 28, Type 0, BuildingBlock: BEQFEK_clean_sbu_0, # of connection points: 5
#     Node 29, Type 0, BuildingBlock: BEQFEK_clean_sbu_0, # of connection points: 5
#     Node 30, Type 0, BuildingBlock: BEQFEK_clean_sbu_0, # of connection points: 5
#     Node 31, Type 0, BuildingBlock: BEQFEK_clean_sbu_0, # of connection points: 5
#     Edge 32, Type (0, 0), BuildingBlock: CIFDUS_clean_linker_0, # of connection points: 2
#     Edge 33, Type (0, 0), BuildingBlock: CIFDUS_clean_linker_0, # of connection points: 2
#     Edge 34, Type (0, 0), BuildingBlock: CIFDUS_clean_linker_0, # of connection points: 2
#     Edge 35, Type (0, 0), BuildingBlock: CIFDUS_clean_linker_0, # of connection points: 2
#     Edge 36, Type (0, 0), BuildingBlock: CIFDUS_clean_linker_0, # of connection points: 2
#     Edge 37, Type (0, 0), BuildingBlock: CIFDUS_clean_linker_0, # of connection points: 2
#     Edge 38, Type (0, 0), BuildingBlock: CIFDUS_clean_linker_0, # of connection points: 2
#     Edge 39, Type (0, 0), BuildingBlock: CIFDUS_clean_linker_0, # of connection points: 2
#     Edge 40, Type (0, 0), BuildingBlock: CIFDUS_clean_linker_0, # of connection points: 2
#     Edge 41, Type (0, 0), BuildingBlock: CIFDUS_clean_linker_0, # of connection points: 2
#     Edge 42, Type (0, 0), BuildingBlock: CIFDUS_clean_linker_0, # of connection points: 2
#     Edge 43, Type (0, 0), BuildingBlock: CIFDUS_clean_linker_0, # of connection points: 2
#     Edge 44, Type (0, 0), BuildingBlock: CIFDUS_clean_linker_0, # of connection points: 2
#     Edge 45, Type (0, 0), BuildingBlock: CIFDUS_clean_linker_0, # of connection points: 2
#     Edge 46, Type (0, 0), BuildingBlock: CIFDUS_clean_linker_0, # of connection points: 2
#     Edge 47, Type (0, 0), BuildingBlock: CIFDUS_clean_linker_0, # of connection points: 2
#     Edge 48, Type (0, 0), BuildingBlock: CIFDUS_clean_linker_0, # of connection points: 2
#     Edge 49, Type (0, 0), BuildingBlock: CIFDUS_clean_linker_0, # of connection points: 2
#     Edge 50, Type (0, 0), BuildingBlock: CIFDUS_clean_linker_0, # of connection points: 2
#     Edge 51, Type (0, 0), BuildingBlock: CIFDUS_clean_linker_0, # of connection points: 2
#     Edge 52, Type (0, 0), BuildingBlock: CIFDUS_clean_linker_0, # of connection points: 2
#     Edge 53, Type (0, 0), BuildingBlock: CIFDUS_clean_linker_0, # of connection points: 2
#     Edge 54, Type (0, 0), BuildingBlock: CIFDUS_clean_linker_0, # of connection points: 2
#     Edge 55, Type (0, 0), BuildingBlock: CIFDUS_clean_linker_0, # of connection points: 2
#     Edge 56, Type (0, 0), BuildingBlock: CIFDUS_clean_linker_0, # of connection points: 2
#     Edge 57, Type (0, 0), BuildingBlock: CIFDUS_clean_linker_0, # of connection points: 2
#     Edge 58, Type (0, 0), BuildingBlock: CIFDUS_clean_linker_0, # of connection points: 2
#     Edge 59, Type (0, 0), BuildingBlock: CIFDUS_clean_linker_0, # of connection points: 2
#     Edge 60, Type (0, 0), BuildingBlock: CIFDUS_clean_linker_0, # of connection points: 2
#     Edge 61, Type (0, 0), BuildingBlock: CIFDUS_clean_linker_0, # of connection points: 2
#     Edge 62, Type (0, 0), BuildingBlock: CIFDUS_clean_linker_0, # of connection points: 2
#     Edge 63, Type (0, 0), BuildingBlock: CIFDUS_clean_linker_0, # of connection points: 2
#     Edge 64, Type (0, 0), BuildingBlock: CIFDUS_clean_linker_0, # of connection points: 2
#     Edge 65, Type (0, 0), BuildingBlock: CIFDUS_clean_linker_0, # of connection points: 2
#     Edge 66, Type (0, 0), BuildingBlock: CIFDUS_clean_linker_0, # of connection points: 2
#     Edge 67, Type (0, 0), BuildingBlock: CIFDUS_clean_linker_0, # of connection points: 2
#     Edge 68, Type (0, 0), BuildingBlock: CIFDUS_clean_linker_0, # of connection points: 2
#     Edge 69, Type (0, 0), BuildingBlock: CIFDUS_clean_linker_0, # of connection points: 2
#     Edge 70, Type (0, 0), BuildingBlock: CIFDUS_clean_linker_0, # of connection points: 2
#     Edge 71, Type (0, 0), BuildingBlock: CIFDUS_clean_linker_0, # of connection points: 2
#     Edge 72, Type (0, 0), BuildingBlock: CIFDUS_clean_linker_0, # of connection points: 2
#     Edge 73, Type (0, 0), BuildingBlock: CIFDUS_clean_linker_0, # of connection points: 2
#     Edge 74, Type (0, 0), BuildingBlock: CIFDUS_clean_linker_0, # of connection points: 2
#     Edge 75, Type (0, 0), BuildingBlock: CIFDUS_clean_linker_0, # of connection points: 2
#     Edge 76, Type (0, 0), BuildingBlock: CIFDUS_clean_linker_0, # of connection points: 2
#     Edge 77, Type (0, 0), BuildingBlock: CIFDUS_clean_linker_0, # of connection points: 2
#     Edge 78, Type (0, 0), BuildingBlock: CIFDUS_clean_linker_0, # of connection points: 2
#     Edge 79, Type (0, 0), BuildingBlock: CIFDUS_clean_linker_0, # of connection points: 2
#     Edge 80, Type (0, 0), BuildingBlock: CIFDUS_clean_linker_0, # of connection points: 2
#     Edge 81, Type (0, 0), BuildingBlock: CIFDUS_clean_linker_0, # of connection points: 2
#     Edge 82, Type (0, 0), BuildingBlock: CIFDUS_clean_linker_0, # of connection points: 2
#     Edge 83, Type (0, 0), BuildingBlock: CIFDUS_clean_linker_0, # of connection points: 2
#     Edge 84, Type (0, 0), BuildingBlock: CIFDUS_clean_linker_0, # of connection points: 2
#     Edge 85, Type (0, 0), BuildingBlock: CIFDUS_clean_linker_0, # of connection points: 2
#     Edge 86, Type (0, 0), BuildingBlock: CIFDUS_clean_linker_0, # of connection points: 2
#     Edge 87, Type (0, 0), BuildingBlock: CIFDUS_clean_linker_0, # of connection points: 2
#     Edge 88, Type (0, 0), BuildingBlock: CIFDUS_clean_linker_0, # of connection points: 2
#     Edge 89, Type (0, 0), BuildingBlock: CIFDUS_clean_linker_0, # of connection points: 2
#     Edge 90, Type (0, 0), BuildingBlock: CIFDUS_clean_linker_0, # of connection points: 2
#     Edge 91, Type (0, 0), BuildingBlock: CIFDUS_clean_linker_0, # of connection points: 2
#     Edge 92, Type (0, 0), BuildingBlock: CIFDUS_clean_linker_0, # of connection points: 2
#     Edge 93, Type (0, 0), BuildingBlock: CIFDUS_clean_linker_0, # of connection points: 2
#     Edge 94, Type (0, 0), BuildingBlock: CIFDUS_clean_linker_0, # of connection points: 2
#     Edge 95, Type (0, 0), BuildingBlock: CIFDUS_clean_linker_0, # of connection points: 2
#     Edge 96, Type (0, 0), BuildingBlock: CIFDUS_clean_linker_0, # of connection points: 2
#     Edge 97, Type (0, 0), BuildingBlock: CIFDUS_clean_linker_0, # of connection points: 2
#     Edge 98, Type (0, 0), BuildingBlock: CIFDUS_clean_linker_0, # of connection points: 2
#     Edge 99, Type (0, 0), BuildingBlock: CIFDUS_clean_linker_0, # of connection points: 2
#     Edge 100, Type (0, 0), BuildingBlock: CIFDUS_clean_linker_0, # of connection points: 2
#     Edge 101, Type (0, 0), BuildingBlock: CIFDUS_clean_linker_0, # of connection points: 2
#     Edge 102, Type (0, 0), BuildingBlock: CIFDUS_clean_linker_0, # of connection points: 2
#     Edge 103, Type (0, 0), BuildingBlock: CIFDUS_clean_linker_0, # of connection points: 2
#     Edge 104, Type (0, 0), BuildingBlock: CIFDUS_clean_linker_0, # of connection points: 2
#     Edge 105, Type (0, 0), BuildingBlock: CIFDUS_clean_linker_0, # of connection points: 2
#     Edge 106, Type (0, 0), BuildingBlock: CIFDUS_clean_linker_0, # of connection points: 2
#     Edge 107, Type (0, 0), BuildingBlock: CIFDUS_clean_linker_0, # of connection points: 2
#     Edge 108, Type (0, 0), BuildingBlock: CIFDUS_clean_linker_0, # of connection points: 2
#     Edge 109, Type (0, 0), BuildingBlock: CIFDUS_clean_linker_0, # of connection points: 2
#     Edge 110, Type (0, 0), BuildingBlock: CIFDUS_clean_linker_0, # of connection points: 2
#     Edge 111, Type (0, 0), BuildingBlock: CIFDUS_clean_linker_0, # of connection points: 2
# Relax obj value: 0.531
# Max RMSD: 0.232
# Mean RMSD: 0.232
data_MOF--net-yfm--node1-BEQFEK_clean_sbu_0--edge1-CIFDUS_clean_linker_0
_symmetry_space_group_name_H-M    P1
_symmetry_Int_Tables_number       1
_symmetry_cell_setting            triclinic
loop_
_symmetry_equiv_pos_as_xyz
'x, y, z'
_cell_length_a     57.104861
_cell_length_b     57.056157
_cell_length_c     45.284784
_cell_angle_alpha  90.019962
_cell_angle_beta   90.012653
_cell_angle_gamma 89.989359
loop_
_atom_site_label
_atom_site_type_symbol
_atom_site_fract_x
_atom_site_fract_y
_atom_site_fract_z
_atom_type_partial_charge
Co0 Co 0.22889 0.12979 0.12641 0.0
Co1 Co 0.23611 0.10725 0.06286 0.0
C2 C 0.27506 0.10947 0.10606 0.0
O3 O 0.26138 0.11877 0.12478 0.0
O4 O 0.26799 0.10435 0.08017 0.0
C5 C 0.24472 0.15859 0.17325 0.0
O6 O 0.26274 0.16073 0.15542 0.0
C7 C 0.25574 0.09352 1.00436 0.0
C8 C 0.22373 0.08754 0.97807 0.0
C9 C 0.24796 0.08706 0.97634 0.0
N10 N 0.23699 0.09795 0.02161 0.0
N11 N 0.21794 0.09434 1.00564 0.0
C12 C 0.28034 0.09302 0.01572 0.0
H13 H 0.28127 0.08055 0.03444 0.0
H14 H 0.28516 0.11066 0.02406 0.0
H15 H 0.29311 0.08731 0.99879 0.0
C16 C 0.21459 0.17014 0.09097 0.0
N17 N 0.22158 0.14774 0.09306 0.0
N18 N 0.22529 0.13916 0.06644 0.0
C19 C 0.22144 0.15641 0.04653 0.0
C20 C 0.21424 0.17644 0.0615 0.0
C21 C 0.21028 0.18574 0.11699 0.0
H22 H 0.20015 0.17612 0.13401 0.0
H23 H 0.22735 0.19088 0.12673 0.0
H24 H 0.20068 0.20186 0.11062 0.0
O25 O 0.20877 0.1021 0.12849 0.0
O26 O 0.21556 0.08424 0.08555 0.0
H27 H 0.21194 0.14295 1.00427 0.0
H28 H 0.22545 0.17152 1.00304 0.0
C29 C 0.22575 0.15416 0.0141 0.0
H30 H 0.2429 0.14555 0.01026 0.0
H31 H 0.20092 0.09631 0.01367 0.0
O32 O 0.22678 0.14734 0.1644 0.0
C33 C 0.20589 0.08483 0.11106 0.0
Co34 Co 0.11258 0.97813 0.37854 0.0
Co35 Co 0.13529 0.98239 0.31438 0.0
C36 C 0.13329 0.02297 0.35601 0.0
O37 O 0.12406 0.01043 0.37594 0.0
O38 O 0.13816 0.01447 0.33082 0.0
C39 C 0.08383 0.99662 0.42331 0.0
O40 O 0.0814 0.01307 0.40326 0.0
C41 C 0.14986 0.00329 0.25737 0.0
C42 C 0.14929 0.97346 0.22646 0.0
C43 C 0.1525 0.99751 0.22776 0.0
N44 N 0.14447 0.98384 0.27284 0.0
N45 N 0.14461 0.96597 0.25418 0.0
C46 C 0.15421 0.02674 0.27104 0.0
H47 H 0.16538 0.02458 0.29086 0.0
H48 H 0.13719 0.03455 0.27756 0.0
H49 H 0.16338 0.03882 0.25578 0.0
C50 C 0.07201 0.96337 0.34352 0.0
N51 N 0.09449 0.97014 0.34528 0.0
N52 N 0.10319 0.97244 0.31844 0.0
C53 C 0.08593 0.96798 0.29875 0.0
C54 C 0.06584 0.96176 0.31409 0.0
C55 C 0.05634 0.95996 0.36965 0.0
H56 H 0.05092 0.97736 0.37818 0.0
H57 H 0.04039 0.9499 0.36369 0.0
H58 H 0.06596 0.95066 0.38741 0.0
O59 O 0.13983 0.95735 0.38141 0.0
O60 O 0.15758 0.96144 0.33775 0.0
H61 H 0.09747 0.95568 0.25675 0.0
H62 H 0.07057 0.97206 0.25545 0.0
C63 C 0.08805 0.97098 0.26607 0.0
H64 H 0.09819 0.98706 0.26102 0.0
H65 H 0.14093 0.94871 0.26021 0.0
O66 O 0.09495 0.978 0.41658 0.0
C67 C 0.15666 0.95287 0.36388 0.0
Co68 Co 0.26579 0.86894 0.62264 0.0
Co69 Co 0.26763 0.89157 0.55832 0.0
C70 C 0.22427 0.89243 0.5955 0.0
O71 O 0.234 0.88127 0.61645 0.0
O72 O 0.23545 0.89763 0.57215 0.0
C73 C 0.24643 0.8452 0.67297 0.0
O74 O 0.22736 0.84564 0.65675 0.0
C75 C 0.2513 0.90004 0.49695 0.0
C76 C 0.28019 0.92131 0.47897 0.0
C77 C 0.25794 0.91308 0.47216 0.0
N78 N 0.26862 0.901 0.51724 0.0
N79 N 0.286 0.91339 0.50601 0.0
C80 C 0.22834 0.88808 0.50222 0.0
H81 H 0.21368 0.90059 0.49889 0.0
H82 H 0.2275 0.88039 0.52458 0.0
H83 H 0.22631 0.87338 0.48643 0.0
C84 C 0.27912 0.82699 0.58909 0.0
N85 N 0.27487 0.85012 0.59039 0.0
N86 N 0.27536 0.85902 0.56352 0.0
C87 C 0.27965 0.8415 0.54419 0.0
C88 C 0.28232 0.82068 0.55977 0.0
C89 C 0.2773 0.81103 0.61523 0.0
H90 H 0.28912 0.81739 0.63295 0.0
H91 H 0.25914 0.81164 0.62391 0.0
H92 H 0.28176 0.79265 0.60966 0.0
O93 O 0.28701 0.89586 0.62672 0.0
O94 O 0.28831 0.91307 0.58263 0.0
H95 H 0.29067 0.85985 0.50537 0.0
H96 H 0.2871 0.82852 0.50035 0.0
C97 C 0.27996 0.84436 0.51138 0.0
H98 H 0.26183 0.84739 0.50348 0.0
H99 H 0.30135 0.91745 0.51741 0.0
O100 O 0.26556 0.85252 0.66182 0.0
C101 C 0.29416 0.91221 0.60987 0.0
Co102 Co 0.39091 0.02441 0.8772 0.0
Co103 Co 0.36559 0.01763 0.8151 0.0
C104 C 0.3685 0.979 0.85931 0.0
O105 O 0.37866 0.99217 0.87791 0.0
O106 O 0.36297 0.98646 0.83382 0.0
C107 C 0.41964 0.0089 0.92442 0.0
O108 O 0.42023 0.98981 0.90821 0.0
C109 C 0.34724 0.99478 0.76116 0.0
C110 C 0.35172 0.02175 0.72682 0.0
C111 C 0.34568 0.99844 0.73086 0.0
N112 N 0.3549 0.01453 0.77432 0.0
N113 N 0.35692 0.03079 0.75364 0.0
C114 C 0.34007 0.97319 0.77754 0.0
H115 H 0.33123 0.97806 0.79845 0.0
H116 H 0.35595 0.96275 0.78252 0.0
H117 H 0.3278 0.96233 0.76436 0.0
C118 C 0.4309 0.03451 0.8389 0.0
N119 N 0.40792 0.03033 0.84239 0.0
N120 N 0.39818 0.02655 0.81642 0.0
C121 C 0.41522 0.02709 0.79567 0.0
C122 C 0.43639 0.03254 0.80921 0.0
C123 C 0.44776 0.03681 0.86407 0.0
H124 H 0.44012 0.04818 0.88143 0.0
H125 H 0.45099 0.01923 0.87368 0.0
H126 H 0.46474 0.04427 0.85688 0.0
O127 O 0.36427 0.04568 0.88012 0.0
O128 O 0.34429 0.0398 0.83844 0.0
H129 H 0.40389 0.03484 0.7519 0.0
H130 H 0.42884 0.01584 0.75332 0.0
C131 C 0.41192 0.02006 0.76411 0.0
H132 H 0.40012 0.00467 0.76271 0.0
H133 H 0.36277 0.04783 0.75763 0.0
O134 O 0.40959 0.0271 0.91421 0.0
C135 C 0.34657 0.04953 0.86379 0.0
Co136 Co 0.23697 0.87019 0.89831 0.0
Co137 Co 0.23459 0.89257 0.96274 0.0
C138 C 0.27815 0.89401 0.92593 0.0
O139 O 0.26862 0.88282 0.90485 0.0
O140 O 0.26682 0.89904 0.94923 0.0
C141 C 0.25679 0.84651 0.84813 0.0
O142 O 0.2758 0.84718 0.86443 0.0
C143 C 0.25018 0.90029 0.02463 0.0
C144 C 0.22094 0.92107 0.04267 0.0
C145 C 0.24306 0.91266 0.04972 0.0
N146 N 0.23318 0.90166 1.00394 0.0
N147 N 0.2156 0.91378 0.01518 0.0
C148 C 0.27338 0.88874 0.01948 0.0
H149 H 0.28781 0.90129 0.02394 0.0
H150 H 0.27476 0.88179 0.99679 0.0
H151 H 0.2753 0.87359 0.03459 0.0
C152 C 0.22413 0.82792 0.93152 0.0
N153 N 0.22798 0.85113 0.93035 0.0
N154 N 0.22728 0.85993 0.95727 0.0
C155 C 0.22322 0.84227 0.97647 0.0
C156 C 0.22098 0.82148 0.96075 0.0
C157 C 0.22603 0.81199 0.90537 0.0
H158 H 0.21483 0.81874 0.88725 0.0
H159 H 0.2444 0.81198 0.89739 0.0
H160 H 0.2208 0.79378 0.91081 0.0
O161 O 0.21548 0.89692 0.8942 0.0
O162 O 0.21379 0.91396 0.93839 0.0
H163 H 0.21208 0.86026 0.01553 0.0
H164 H 0.21588 0.82893 0.02014 0.0
C165 C 0.2229 0.8449 0.00931 0.0
H166 H 0.24101 0.84795 0.01724 0.0
H167 H 0.20039 0.91802 1.00357 0.0
O168 O 0.23757 0.85378 0.85911 0.0
C169 C 0.20809 0.91315 0.91109 0.0
Co170 Co 0.38885 0.96967 0.14217 0.0
Co171 Co 0.3647 0.984 0.20272 0.0
C172 C 0.36695 0.01726 0.15286 0.0
O173 O 0.3764 0.00159 0.13695 0.0
O174 O 0.36216 0.01344 0.17987 0.0
C175 C 0.41848 0.9819 0.09499 0.0
O176 O 0.4202 0.00105 0.11095 0.0
C177 C 0.34577 0.01006 0.25434 0.0
C178 C 0.35029 0.98488 0.29085 0.0
C179 C 0.34353 0.00774 0.28489 0.0
N180 N 0.35428 0.98991 0.24305 0.0
N181 N 0.35646 0.97479 0.26502 0.0
C182 C 0.33816 0.03037 0.23577 0.0
H183 H 0.35368 0.04116 0.23011 0.0
H184 H 0.32513 0.04142 0.24746 0.0
H185 H 0.33006 0.02392 0.21506 0.0
C186 C 0.42918 0.9625 0.18111 0.0
N187 N 0.40631 0.96712 0.17725 0.0
N188 N 0.3971 0.97426 0.20237 0.0
C189 C 0.41441 0.97554 0.22271 0.0
C190 C 0.43521 0.96779 0.21 0.0
C191 C 0.44553 0.95631 0.15646 0.0
H192 H 0.45103 0.9726 0.14504 0.0
H193 H 0.46143 0.94732 0.16471 0.0
H194 H 0.43655 0.94477 0.14035 0.0
O195 O 0.36208 0.94845 0.1427 0.0
O196 O 0.34265 0.96073 0.18253 0.0
H197 H 0.42875 0.99138 0.26226 0.0
H198 H 0.39976 0.00134 0.25188 0.0
C199 C 0.41166 0.98599 0.25282 0.0
H200 H 0.40392 0.97269 0.26773 0.0
H201 H 0.36277 0.95774 0.26252 0.0
O202 O 0.4073 0.96447 0.10545 0.0
C203 C 0.34422 0.94782 0.15945 0.0
Co204 Co 0.26021 0.136 0.39526 0.0
Co205 Co 0.26208 0.11242 0.45907 0.0
C206 C 0.21835 0.11301 0.4222 0.0
O207 O 0.2286 0.12383 0.40143 0.0
O208 O 0.22919 0.1076 0.44579 0.0
C209 C 0.23988 0.16183 0.34779 0.0
O210 O 0.22169 0.16197 0.36554 0.0
C211 C 0.24611 0.09859 0.51915 0.0
C212 C 0.27924 0.09161 0.54256 0.0
C213 C 0.25514 0.09152 0.54628 0.0
N214 N 0.26397 0.103 0.50044 0.0
N215 N 0.28374 0.09885 0.51474 0.0
C216 C 0.22102 0.09809 0.50975 0.0
H217 H 0.21904 0.08435 0.49265 0.0
H218 H 0.21618 0.11526 0.50001 0.0
H219 H 0.20885 0.09385 0.52798 0.0
C220 C 0.27601 0.17676 0.42868 0.0
N221 N 0.26992 0.15408 0.42755 0.0
N222 N 0.2705 0.145 0.45432 0.0
C223 C 0.27659 0.16213 0.47351 0.0
C224 C 0.28051 0.18268 0.45775 0.0
C225 C 0.27609 0.19268 0.4024 0.0
H226 H 0.287 0.18486 0.38468 0.0
H227 H 0.25796 0.19431 0.39383 0.0
H228 H 0.28279 0.2104 0.40786 0.0
O229 O 0.28122 0.10926 0.38999 0.0
O230 O 0.28235 0.09098 0.43343 0.0
H231 H 0.29295 0.14726 0.51145 0.0
H232 H 0.28075 0.17608 0.51761 0.0
C233 C 0.27809 0.15905 0.50622 0.0
H234 H 0.26181 0.15067 0.51443 0.0
H235 H 0.30034 0.10057 0.50536 0.0
O236 O 0.25916 0.15331 0.35701 0.0
C237 C 0.28825 0.09245 0.40618 0.0
Co238 Co 0.11347 0.02412 0.64227 0.0
Co239 Co 0.13712 0.01786 0.70555 0.0
C240 C 0.13539 0.97884 0.66213 0.0
O241 O 0.12599 0.99206 0.64303 0.0
O242 O 0.14012 0.98633 0.68786 0.0
C243 C 0.08448 0.00581 0.59779 0.0
O244 O 0.08253 0.9892 0.61773 0.0
C245 C 0.15524 0.99579 0.76008 0.0
C246 C 0.14905 0.02245 0.79438 0.0
C247 C 0.15606 0.99939 0.79042 0.0
N248 N 0.14707 0.01526 0.74675 0.0
N249 N 0.14404 0.03137 0.76744 0.0
C250 C 0.16363 0.97454 0.74391 0.0
H251 H 0.14834 0.96331 0.73883 0.0
H252 H 0.17628 0.96435 0.75736 0.0
H253 H 0.1724 0.97975 0.72308 0.0
C254 C 0.0727 0.03572 0.67883 0.0
N255 N 0.09558 0.03059 0.67633 0.0
N256 N 0.10455 0.02688 0.70277 0.0
C257 C 0.08702 0.02832 0.72281 0.0
C258 C 0.06642 0.03439 0.70832 0.0
C259 C 0.05663 0.03896 0.65304 0.0
H260 H 0.06581 0.04848 0.63511 0.0
H261 H 0.05123 0.02152 0.64465 0.0
H262 H 0.04065 0.04881 0.65929 0.0
O263 O 0.14008 0.04557 0.63971 0.0
O264 O 0.15886 0.03981 0.68237 0.0
H265 H 0.09655 0.03716 0.76694 0.0
H266 H 0.07212 0.01756 0.76461 0.0
C267 C 0.08933 0.02196 0.75473 0.0
H268 H 0.10139 0.00686 0.75729 0.0
H269 H 0.1377 0.04821 0.76333 0.0
O270 O 0.09539 0.02454 0.60454 0.0
C271 C 0.15733 0.04941 0.65684 0.0
Co272 Co 0.7795 0.86187 0.89343 0.0
Co273 Co 0.77132 0.88755 0.95494 0.0
C274 C 0.73297 0.88174 0.91014 0.0
O275 O 0.74639 0.87138 0.89199 0.0
O276 O 0.74033 0.88854 0.93524 0.0
C277 C 0.76844 0.83298 0.84403 0.0
O278 O 0.74834 0.83106 0.85792 0.0
C279 C 0.74713 0.90552 0.00829 0.0
C280 C 0.7743 0.90349 0.04276 0.0
C281 C 0.75078 0.90838 0.03845 0.0
N282 N 0.76721 0.89838 0.99549 0.0
N283 N 0.78352 0.89771 0.01624 0.0
C284 C 0.72519 0.91097 0.99159 0.0
H285 H 0.72957 0.91976 0.97048 0.0
H286 H 0.71587 0.89435 0.98688 0.0
H287 H 0.71347 0.92273 1.00433 0.0
C288 C 0.79038 0.82249 0.93224 0.0
N289 N 0.78634 0.8455 0.9285 0.0
N290 N 0.78175 0.85529 0.95422 0.0
C291 C 0.7816 0.83824 0.97499 0.0
C292 C 0.78737 0.81695 0.9618 0.0
C293 C 0.79274 0.80552 0.90718 0.0
H294 H 0.80446 0.81292 0.89005 0.0
H295 H 0.77525 0.80251 0.89722 0.0
H296 H 0.79987 0.78845 0.91463 0.0
O297 O 0.79792 0.8904 0.89045 0.0
O298 O 0.79251 0.91018 0.93212 0.0
H299 H 0.78657 0.85068 0.01894 0.0
H300 H 0.76915 0.82455 0.01679 0.0
C301 C 0.77292 0.84155 1.00589 0.0
H302 H 0.75689 0.85253 1.0058 0.0
H303 H 0.80081 0.89256 0.0125 0.0
O304 O 0.7852 0.84382 0.85653 0.0
C305 C 0.80137 0.9085 0.90622 0.0
Co306 Co 0.88459 0.02437 0.6399 0.0
Co307 Co 0.86084 0.02444 0.70321 0.0
C308 C 0.85965 0.9826 0.66256 0.0
O309 O 0.87119 0.99286 0.64246 0.0
O310 O 0.85484 0.99291 0.68666 0.0
C311 C 0.91157 0.00591 0.59261 0.0
O312 O 0.91123 0.98715 0.60942 0.0
C313 C 0.85729 0.0015 0.75996 0.0
C314 C 0.83 0.0211 0.7839 0.0
C315 C 0.84365 0.00097 0.78555 0.0
N316 N 0.85155 0.02051 0.74394 0.0
N317 N 0.83542 0.03238 0.75857 0.0
C318 C 0.87563 0.98431 0.75037 0.0
H319 H 0.88857 0.99289 0.73569 0.0
H320 H 0.88471 0.97666 0.76978 0.0
H321 H 0.86736 0.97005 0.73746 0.0
C322 C 0.92578 0.03705 0.67506 0.0
N323 N 0.90294 0.03171 0.67315 0.0
N324 N 0.89342 0.03252 0.69966 0.0
C325 C 0.91022 0.03854 0.71933 0.0
C326 C 0.93118 0.04151 0.70429 0.0
C327 C 0.94222 0.03722 0.64932 0.0
H328 H 0.93507 0.04869 0.63171 0.0
H329 H 0.94364 0.01922 0.64027 0.0
H330 H 0.95994 0.04344 0.65562 0.0
O331 O 0.85841 0.04665 0.63646 0.0
O332 O 0.84002 0.0468 0.68002 0.0
H333 H 0.88842 0.04803 0.7561 0.0
H334 H 0.91939 0.05401 0.76113 0.0
C335 C 0.90641 0.04158 0.75176 0.0
H336 H 0.9087 0.02444 0.76295 0.0
H337 H 0.82723 0.04745 0.75059 0.0
O338 O 0.90252 0.02482 0.60223 0.0
C339 C 0.84193 0.0537 0.65319 0.0
Co340 Co 0.73676 0.14288 0.38715 0.0
Co341 Co 0.73827 0.11696 0.44921 0.0
C342 C 0.77868 0.11561 0.4071 0.0
O343 O 0.76765 0.12811 0.38857 0.0
O344 O 0.76953 0.11 0.43175 0.0
C345 C 0.75549 0.17041 0.34046 0.0
O346 O 0.77425 0.16966 0.35723 0.0
C347 C 0.75552 0.10548 0.50995 0.0
C348 C 0.72493 0.08704 0.52845 0.0
C349 C 0.74778 0.0935 0.53507 0.0
N350 N 0.7381 0.10584 0.48973 0.0
N351 N 0.71981 0.09501 0.50122 0.0
C352 C 0.77939 0.11544 0.50458 0.0
H353 H 0.78158 0.1209 0.48136 0.0
H354 H 0.7818 0.13126 0.51849 0.0
H355 H 0.79304 0.10244 0.51058 0.0
C356 C 0.72588 0.1831 0.42473 0.0
N357 N 0.73101 0.1603 0.42145 0.0
N358 N 0.73149 0.15004 0.44753 0.0
C359 C 0.72675 0.16637 0.46836 0.0
C360 C 0.72303 0.18777 0.45447 0.0
C361 C 0.72405 0.20008 0.39963 0.0
H362 H 0.74153 0.20208 0.38925 0.0
H363 H 0.71781 0.21754 0.40701 0.0
H364 H 0.71193 0.193 0.38268 0.0
O365 O 0.71336 0.11797 0.38285 0.0
O366 O 0.71503 0.09789 0.42501 0.0
H367 H 0.71356 0.1467 0.50493 0.0
H368 H 0.71963 0.17721 0.51323 0.0
C369 C 0.72563 0.16157 0.50076 0.0
H370 H 0.74327 0.15641 0.50869 0.0
H371 H 0.704 0.09245 0.49011 0.0
O372 O 0.73647 0.16171 0.35016 0.0
C373 C 0.7069 0.10088 0.39894 0.0
Co374 Co 0.61658 0.98434 0.14233 0.0
Co375 Co 0.63985 0.98916 0.20593 0.0
C376 C 0.63518 0.0301 0.16514 0.0
O377 O 0.626 0.01739 0.14525 0.0
O378 O 0.64102 0.02155 0.19003 0.0
C379 C 0.58879 0.99906 0.09333 0.0
O380 O 0.58649 0.01803 0.10954 0.0
C381 C 0.65645 0.00857 0.26327 0.0
C382 C 0.65799 0.97718 0.29161 0.0
C383 C 0.66142 0.00122 0.29191 0.0
N384 N 0.64975 0.98989 0.24706 0.0
N385 N 0.65093 0.97116 0.26419 0.0
C386 C 0.6604 0.03246 0.25063 0.0
H387 H 0.67003 0.03088 0.22948 0.0
H388 H 0.64321 0.04084 0.24631 0.0
H389 H 0.67085 0.04377 0.26554 0.0
C390 C 0.57695 0.96801 0.17766 0.0
N391 N 0.59928 0.97518 0.17564 0.0
N392 N 0.60818 0.97767 0.20234 0.0
C393 C 0.59119 0.97283 0.22226 0.0
C394 C 0.57106 0.96623 0.20718 0.0
C395 C 0.56103 0.96498 0.15168 0.0
H396 H 0.55701 0.98244 0.14219 0.0
H397 H 0.54437 0.9563 0.15797 0.0
H398 H 0.56997 0.95445 0.13445 0.0
O399 O 0.64498 0.96544 0.13898 0.0
O400 O 0.66317 0.96975 0.18211 0.0
H401 H 0.60331 0.96107 0.26424 0.0
H402 H 0.57611 0.97695 0.26572 0.0
C403 C 0.59352 0.97611 0.25488 0.0
H404 H 0.60343 0.9924 0.25964 0.0
H405 H 0.64692 0.95421 0.25716 0.0
O406 O 0.59942 0.98142 0.10413 0.0
C407 C 0.66238 0.96156 0.1558 0.0
Co408 Co 0.76375 0.13857 0.12039 0.0
Co409 Co 0.76283 0.11322 0.0578 0.0
C410 C 0.7199 0.11763 0.09547 0.0
O411 O 0.73126 0.12807 0.11567 0.0
O412 O 0.72985 0.11127 0.07164 0.0
C413 C 0.74626 0.16769 0.16672 0.0
O414 O 0.72768 0.16837 0.14964 0.0
C415 C 0.74633 0.095 0.99992 0.0
C416 C 0.77899 0.09279 0.97408 0.0
C417 C 0.75502 0.08931 0.97212 0.0
N418 N 0.76418 0.10215 0.01721 0.0
N419 N 0.78369 0.10056 1.0016 0.0
C420 C 0.72193 0.09119 0.01095 0.0
H421 H 0.72263 0.08158 0.0322 0.0
H422 H 0.71347 0.10844 0.0147 0.0
H423 H 0.7112 0.08073 0.9954 0.0
C424 C 0.78164 0.17719 0.08471 0.0
N425 N 0.77414 0.15499 0.08704 0.0
N426 N 0.77335 0.14526 0.06063 0.0
C427 C 0.77973 0.16157 0.04049 0.0
C428 C 0.78552 0.1821 0.05525 0.0
C429 C 0.78347 0.19379 0.11022 0.0
H430 H 0.79362 0.18545 0.12828 0.0
H431 H 0.76565 0.19758 0.1187 0.0
H432 H 0.79196 0.21052 0.10384 0.0
O433 O 0.78321 0.11086 0.12657 0.0
O434 O 0.78196 0.09142 0.08397 0.0
H435 H 0.79487 0.14809 1.00096 0.0
H436 H 0.77917 0.17515 0.99598 0.0
C437 C 0.77913 0.1581 0.00778 0.0
H438 H 0.76335 0.14794 1.00147 0.0
H439 H 0.80026 0.10477 0.00975 0.0
O440 O 0.76458 0.15726 0.15755 0.0
C441 C 0.78865 0.09321 0.11086 0.0
Co442 Co 0.61928 0.00914 0.87107 0.0
Co443 Co 0.6426 0.0142 0.80786 0.0
C444 C 0.64533 0.96973 0.8435 0.0
O445 O 0.63351 0.97834 0.86462 0.0
O446 O 0.64997 0.98176 0.82062 0.0
C447 C 0.59483 0.98775 0.91931 0.0
O448 O 0.59679 0.96895 0.90274 0.0
C449 C 0.64732 0.99769 0.7473 0.0
C450 C 0.67163 0.02302 0.72713 0.0
C451 C 0.66001 0.00205 0.72136 0.0
N452 N 0.65173 0.01487 0.76694 0.0
N453 N 0.66608 0.03011 0.75464 0.0
C454 C 0.63104 0.97788 0.75419 0.0
H455 H 0.62009 0.98214 0.7737 0.0
H456 H 0.61938 0.97433 0.7351 0.0
H457 H 0.64136 0.96194 0.75947 0.0
C458 C 0.57744 0.02249 0.83765 0.0
N459 N 0.60043 0.01775 0.83889 0.0
N460 N 0.60982 0.02073 0.81255 0.0
C461 C 0.59283 0.02776 0.79373 0.0
C462 C 0.57185 0.02893 0.80908 0.0
C463 C 0.56125 0.02095 0.86356 0.0
H464 H 0.56791 0.03229 0.88161 0.0
H465 H 0.56102 0.00265 0.87185 0.0
H466 H 0.54315 0.02634 0.85776 0.0
O467 O 0.6445 0.03235 0.87625 0.0
O468 O 0.66244 0.03602 0.83272 0.0
H469 H 0.61357 0.04245 0.75886 0.0
H470 H 0.58216 0.04454 0.75322 0.0
C471 C 0.59656 0.03339 0.76184 0.0
H472 H 0.59693 0.01687 0.74896 0.0
H473 H 0.6728 0.04483 0.76538 0.0
O474 O 0.60189 0.00735 0.90925 0.0
C475 C 0.66043 0.04123 0.86009 0.0
Co476 Co 0.73203 0.86217 0.62251 0.0
Co477 Co 0.72903 0.88687 0.55992 0.0
C478 C 0.77115 0.89091 0.60035 0.0
O479 O 0.7626 0.87751 0.61994 0.0
O480 O 0.7598 0.89591 0.57703 0.0
C481 C 0.75047 0.8367 0.67175 0.0
O482 O 0.77032 0.83935 0.65749 0.0
C483 C 0.74896 0.89094 0.50062 0.0
C484 C 0.72362 0.91312 0.47677 0.0
C485 C 0.74499 0.90173 0.47336 0.0
N486 N 0.73091 0.89576 0.51883 0.0
N487 N 0.71571 0.90886 0.50432 0.0
C488 C 0.77007 0.87729 0.5102 0.0
H489 H 0.76939 0.87308 0.53398 0.0
H490 H 0.77064 0.86029 0.49842 0.0
H491 H 0.7863 0.88721 0.50514 0.0
C492 C 0.72353 0.82044 0.58655 0.0
N493 N 0.72608 0.84373 0.58914 0.0
N494 N 0.72405 0.85361 0.56296 0.0
C495 C 0.71992 0.83657 0.54283 0.0
C496 C 0.71958 0.81512 0.5572 0.0
C497 C 0.72596 0.80356 0.61166 0.0
H498 H 0.74388 0.80495 0.62097 0.0
H499 H 0.72277 0.78521 0.60463 0.0
H500 H 0.71337 0.8083 0.62934 0.0
O501 O 0.70813 0.88672 0.62603 0.0
O502 O 0.70487 0.90549 0.58304 0.0
H503 H 0.70585 0.82588 0.50081 0.0
H504 H 0.7333 0.84109 0.49921 0.0
C505 C 0.71613 0.84048 0.51055 0.0
H506 H 0.70683 0.85726 0.50681 0.0
H507 H 0.70025 0.91538 0.51343 0.0
O508 O 0.7316 0.84397 0.65995 0.0
C509 C 0.699 0.90268 0.61011 0.0
Co510 Co 0.88223 0.9664 0.37509 0.0
Co511 Co 0.86031 0.98286 0.31438 0.0
C512 C 0.86416 0.01571 0.36404 0.0
O513 O 0.87185 0.99918 0.38011 0.0
O514 O 0.85994 0.01254 0.33675 0.0
C515 C 0.91204 0.97674 0.42262 0.0
O516 O 0.91541 0.99551 0.40636 0.0
C517 C 0.84321 0.00942 0.26252 0.0
C518 C 0.84661 0.98377 0.2263 0.0
C519 C 0.84096 0.00696 0.23203 0.0
N520 N 0.85067 0.98898 0.27403 0.0
N521 N 0.85221 0.97359 0.25226 0.0
C522 C 0.83653 0.03022 0.28084 0.0
H523 H 0.82813 0.02433 0.30162 0.0
H524 H 0.85252 0.04032 0.28641 0.0
H525 H 0.82405 0.04177 0.26898 0.0
C526 C 0.9228 0.95713 0.33709 0.0
N527 N 0.90008 0.96269 0.34044 0.0
N528 N 0.89172 0.9707 0.31528 0.0
C529 C 0.90942 0.97162 0.29551 0.0
C530 C 0.92964 0.9628 0.30859 0.0
C531 C 0.93848 0.95003 0.36203 0.0
H532 H 0.9452 0.96599 0.37319 0.0
H533 H 0.95369 0.93977 0.35402 0.0
H534 H 0.92862 0.93934 0.37823 0.0
O535 O 0.8539 0.94726 0.37409 0.0
O536 O 0.83618 0.96204 0.33443 0.0
H537 H 0.9252 0.98757 0.25686 0.0
H538 H 0.89681 0.99913 0.26733 0.0
C539 C 0.90771 0.98307 0.26585 0.0
H540 H 0.89927 0.97074 0.25022 0.0
H541 H 0.85766 0.95627 0.25501 0.0
O542 O 0.89972 0.96007 0.41222 0.0
C543 C 0.83612 0.94884 0.35728 0.0
Co544 Co 0.72278 0.63454 0.62693 0.0
Co545 Co 0.73421 0.61265 0.56397 0.0
C546 C 0.77056 0.616 0.61091 0.0
O547 O 0.75565 0.6247 0.62853 0.0
O548 O 0.76502 0.61098 0.58442 0.0
C549 C 0.73512 0.66455 0.67374 0.0
O550 O 0.75299 0.66817 0.65605 0.0
C551 C 0.75871 0.60056 0.50827 0.0
C552 C 0.72979 0.59826 0.47608 0.0
C553 C 0.75397 0.59734 0.47837 0.0
N554 N 0.7384 0.60401 0.52277 0.0
N555 N 0.72116 0.60222 0.50339 0.0
C556 C 0.7819 0.59818 0.52337 0.0
H557 H 0.78772 0.61562 0.53136 0.0
H558 H 0.79544 0.59057 0.5087 0.0
H559 H 0.77994 0.58636 0.54263 0.0
C560 C 0.70818 0.67425 0.59049 0.0
N561 N 0.71642 0.65231 0.59305 0.0
N562 N 0.72186 0.64406 0.56675 0.0
C563 C 0.71801 0.66116 0.54662 0.0
C564 C 0.70885 0.68065 0.56099 0.0
C565 C 0.70206 0.68946 0.61633 0.0
H566 H 0.71845 0.6957 0.62685 0.0
H567 H 0.69162 0.70497 0.60977 0.0
H568 H 0.69209 0.67914 0.63282 0.0
O569 O 0.70382 0.60605 0.62698 0.0
O570 O 0.71335 0.58876 0.58446 0.0
H571 H 0.72413 0.67677 0.50374 0.0
H572 H 0.74114 0.65072 0.51172 0.0
C573 C 0.72387 0.65931 0.51452 0.0
H574 H 0.7104 0.64846 0.50341 0.0
H575 H 0.70348 0.60424 0.50868 0.0
O576 O 0.71824 0.65184 0.66471 0.0
C577 C 0.70244 0.58884 0.60917 0.0
Co578 Co 0.61168 0.47178 0.87211 0.0
Co579 Co 0.63475 0.48037 0.80902 0.0
C580 C 0.63116 0.51847 0.85348 0.0
O581 O 0.62226 0.50462 0.8723 0.0
O582 O 0.63628 0.51157 0.8276 0.0
C583 C 0.58337 0.48635 0.91998 0.0
O584 O 0.58027 0.50434 0.9023 0.0
C585 C 0.64831 0.50366 0.75324 0.0
C586 C 0.65045 0.47437 0.72153 0.0
C587 C 0.65182 0.49856 0.72355 0.0
N588 N 0.6442 0.48357 0.76797 0.0
N589 N 0.64591 0.46608 0.74889 0.0
C590 C 0.65061 0.5271 0.7678 0.0
H591 H 0.66195 0.52547 0.78755 0.0
H592 H 0.63303 0.53324 0.77478 0.0
H593 H 0.65868 0.54031 0.75303 0.0
C594 C 0.57091 0.46052 0.83488 0.0
N595 N 0.59386 0.46523 0.83789 0.0
N596 N 0.603 0.46946 0.81169 0.0
C597 C 0.58573 0.46844 0.79133 0.0
C598 C 0.5649 0.46252 0.8053 0.0
C599 C 0.55443 0.45789 0.86036 0.0
H600 H 0.56297 0.44785 0.87833 0.0
H601 H 0.5498 0.47553 0.86887 0.0
H602 H 0.53808 0.44885 0.85366 0.0
O603 O 0.63991 0.45227 0.87365 0.0
O604 O 0.65799 0.45997 0.83115 0.0
H605 H 0.59942 0.46244 0.74818 0.0
H606 H 0.5714 0.47674 0.74822 0.0
C607 C 0.58851 0.47561 0.75974 0.0
H608 H 0.59751 0.4928 0.75855 0.0
H609 H 0.64336 0.4485 0.75437 0.0
O610 O 0.59454 0.46858 0.91037 0.0
C611 C 0.65742 0.45004 0.85648 0.0
Co612 Co 0.77778 0.36275 0.12082 0.0
Co613 Co 0.76922 0.3872 0.05854 0.0
C614 C 0.73118 0.38246 0.10351 0.0
O615 O 0.74483 0.37285 0.12203 0.0
O616 O 0.73829 0.38838 0.07799 0.0
C617 C 0.76547 0.33419 0.16989 0.0
O618 O 0.74578 0.33236 0.15507 0.0
C619 C 0.74473 0.40154 1.00382 0.0
C620 C 0.77298 0.40242 0.97067 0.0
C621 C 0.74892 0.40438 0.97379 0.0
N622 N 0.76514 0.39715 0.0177 0.0
N623 N 0.78203 0.3982 0.99774 0.0
C624 C 0.72182 0.40455 0.01938 0.0
H625 H 0.72438 0.41532 0.03949 0.0
H626 H 0.71506 0.38706 0.0258 0.0
H627 H 0.70869 0.41355 1.00536 0.0
C628 C 0.78923 0.3229 0.08268 0.0
N629 N 0.78434 0.34577 0.0861 0.0
N630 N 0.78008 0.35527 0.06011 0.0
C631 C 0.78127 0.33824 0.0394 0.0
C632 C 0.78739 0.31726 0.05298 0.0
C633 C 0.79187 0.30618 0.10795 0.0
H634 H 0.80342 0.31397 0.12501 0.0
H635 H 0.77443 0.30304 0.11797 0.0
H636 H 0.79924 0.28913 0.10081 0.0
O637 O 0.79694 0.39105 0.12303 0.0
O638 O 0.79005 0.41012 0.08102 0.0
H639 H 0.78775 0.35189 0.99636 0.0
H640 H 0.77269 0.32428 0.9962 0.0
C641 C 0.77425 0.34132 0.00781 0.0
H642 H 0.75732 0.3508 1.00658 0.0
H643 H 0.79968 0.39522 1.00239 0.0
O644 O 0.78267 0.34487 0.1581 0.0
C645 C 0.79968 0.40887 0.10652 0.0
Co646 Co 0.88807 0.53096 0.37358 0.0
Co647 Co 0.86443 0.51897 0.31184 0.0
C648 C 0.86837 0.48331 0.35973 0.0
O649 O 0.87787 0.49821 0.37672 0.0
O650 O 0.86288 0.48862 0.33331 0.0
C651 C 0.91827 0.52005 0.42103 0.0
O652 O 0.9208 0.50073 0.40554 0.0
C653 C 0.84977 0.49339 0.25781 0.0
C654 C 0.84936 0.52116 0.22394 0.0
C655 C 0.84678 0.49719 0.22765 0.0
N656 N 0.85473 0.51395 0.27109 0.0
N657 N 0.854 0.53053 0.2507 0.0
C658 C 0.8459 0.47098 0.27425 0.0
H659 H 0.83525 0.47457 0.29422 0.0
H660 H 0.86305 0.4637 0.28121 0.0
H661 H 0.83641 0.45786 0.26074 0.0
C662 C 0.92706 0.54422 0.33543 0.0
N663 N 0.90503 0.53652 0.3389 0.0
N664 N 0.89614 0.53078 0.31303 0.0
C665 C 0.91296 0.5338 0.2923 0.0
C666 C 0.93287 0.54283 0.30583 0.0
C667 C 0.94288 0.5506 0.36057 0.0
H668 H 0.93333 0.5619 0.37644 0.0
H669 H 0.94824 0.53437 0.37221 0.0
H670 H 0.95888 0.55979 0.35301 0.0
O671 O 0.85981 0.55008 0.37444 0.0
O672 O 0.84117 0.54035 0.33297 0.0
H673 H 0.90072 0.54089 0.24875 0.0
H674 H 0.92799 0.52523 0.24983 0.0
C675 C 0.91061 0.52704 0.26054 0.0
H676 H 0.90087 0.5103 0.25861 0.0
H677 H 0.85731 0.54821 0.2549 0.0
O678 O 0.9062 0.53676 0.41031 0.0
C679 C 0.84204 0.55142 0.35758 0.0
Co680 Co 0.72941 0.36736 0.38922 0.0
Co681 Co 0.73703 0.39338 0.4506 0.0
C682 C 0.77439 0.39213 0.40484 0.0
O683 O 0.76113 0.38067 0.38757 0.0
O684 O 0.76757 0.39811 0.43053 0.0
C685 C 0.74452 0.33846 0.34171 0.0
O686 O 0.76422 0.33893 0.35669 0.0
C687 C 0.75717 0.40614 0.51003 0.0
C688 C 0.72654 0.42295 0.53081 0.0
C689 C 0.74988 0.41752 0.53579 0.0
N690 N 0.73894 0.40499 0.49098 0.0
N691 N 0.72069 0.41491 0.50384 0.0
C692 C 0.78137 0.39766 0.50311 0.0
H693 H 0.78332 0.39342 0.47948 0.0
H694 H 0.78493 0.38142 0.51578 0.0
H695 H 0.7945 0.41104 0.50959 0.0
C696 C 0.72074 0.32751 0.42843 0.0
N697 N 0.72489 0.35045 0.42436 0.0
N698 N 0.72874 0.3606 0.45005 0.0
C699 C 0.72771 0.344 0.47132 0.0
C700 C 0.72243 0.32254 0.45832 0.0
C701 C 0.71826 0.3103 0.40364 0.0
H702 H 0.73559 0.30775 0.39305 0.0
H703 H 0.71178 0.29306 0.41134 0.0
H704 H 0.70604 0.31736 0.38682 0.0
O705 O 0.70715 0.39336 0.38645 0.0
O706 O 0.71376 0.41359 0.42772 0.0
H707 H 0.72982 0.3324 0.5167 0.0
H708 H 0.75194 0.35317 0.50524 0.0
C709 C 0.73324 0.34823 0.50313 0.0
H710 H 0.72251 0.36301 0.5115 0.0
H711 H 0.70429 0.41666 0.4939 0.0
O712 O 0.72641 0.3481 0.35271 0.0
C713 C 0.70339 0.41104 0.40286 0.0
Co714 Co 0.8908 0.48121 0.63861 0.0
Co715 Co 0.86464 0.48873 0.69971 0.0
C716 C 0.86632 0.52643 0.65473 0.0
O717 O 0.87729 0.51292 0.63725 0.0
O718 O 0.86079 0.51981 0.68066 0.0
C719 C 0.91995 0.49693 0.59198 0.0
O720 O 0.9196 0.51632 0.60762 0.0
C721 C 0.84472 0.5089 0.75534 0.0
C722 C 0.84548 0.47834 0.78517 0.0
C723 C 0.83992 0.50198 0.78428 0.0
N724 N 0.85324 0.49035 0.74021 0.0
N725 N 0.85341 0.47213 0.75823 0.0
C726 C 0.83927 0.53204 0.7414 0.0
H727 H 0.83061 0.52911 0.71981 0.0
H728 H 0.85583 0.54173 0.7375 0.0
H729 H 0.82743 0.54278 0.75529 0.0
C730 C 0.93038 0.47166 0.67768 0.0
N731 N 0.90754 0.47628 0.67366 0.0
N732 N 0.89748 0.48034 0.69934 0.0
C733 C 0.91417 0.47932 0.72054 0.0
C734 C 0.93546 0.47341 0.70751 0.0
C735 C 0.94742 0.46844 0.65286 0.0
H736 H 0.93987 0.45645 0.63609 0.0
H737 H 0.95063 0.48565 0.64223 0.0
H738 H 0.9644 0.46132 0.66057 0.0
O739 O 0.86502 0.459 0.63521 0.0
O740 O 0.84418 0.46601 0.67587 0.0
H741 H 0.90139 0.47046 0.76332 0.0
H742 H 0.92698 0.48882 0.7639 0.0
C743 C 0.91022 0.48538 0.75228 0.0
H744 H 0.89869 0.50097 0.75398 0.0
H745 H 0.85914 0.45543 0.7522 0.0
O746 O 0.91018 0.47865 0.60232 0.0
C747 C 0.847 0.45556 0.65107 0.0
Co748 Co 0.75618 0.63654 0.89239 0.0
Co749 Co 0.76397 0.61008 0.95317 0.0
C750 C 0.71884 0.60728 0.91893 0.0
O751 O 0.72628 0.62068 0.89867 0.0
O752 O 0.73171 0.60183 0.94076 0.0
C753 C 0.732 0.66243 0.84788 0.0
O754 O 0.71426 0.65964 0.86601 0.0
C755 C 0.74861 0.60073 0.01378 0.0
C756 C 0.77581 0.57699 0.03085 0.0
C757 C 0.75416 0.58663 0.03822 0.0
N758 N 0.76578 0.59889 0.99344 0.0
N759 N 0.78215 0.58492 1.004 0.0
C760 C 0.72728 0.61543 0.00873 0.0
H761 H 0.72865 0.62522 0.98766 0.0
H762 H 0.72558 0.62854 0.02669 0.0
H763 H 0.71145 0.60417 0.00822 0.0
C764 C 0.76845 0.67718 0.92878 0.0
N765 N 0.76468 0.65409 0.92577 0.0
N766 N 0.76883 0.64344 0.95107 0.0
C767 C 0.77576 0.65969 0.97098 0.0
C768 C 0.77548 0.68157 0.9575 0.0
C769 C 0.76615 0.6945 0.90413 0.0
H770 H 0.77675 0.68854 0.88502 0.0
H771 H 0.74759 0.69523 0.89694 0.0
H772 H 0.77193 0.71229 0.91082 0.0
O773 O 0.78023 0.61265 0.88398 0.0
O774 O 0.7859 0.59241 0.92551 0.0
H775 H 0.7933 0.63823 1.00288 0.0
H776 H 0.7923 0.6692 0.01217 0.0
C777 C 0.78251 0.65439 1.00215 0.0
H778 H 0.76642 0.65126 0.01529 0.0
H779 H 0.79712 0.57995 0.99236 0.0
O780 O 0.75225 0.65557 0.85586 0.0
C781 C 0.79018 0.59613 0.89814 0.0
Co782 Co 0.61608 0.51014 0.14087 0.0
Co783 Co 0.63958 0.51571 0.2042 0.0
C784 C 0.64391 0.47165 0.16872 0.0
O785 O 0.63162 0.47992 0.14781 0.0
O786 O 0.64844 0.48377 0.19154 0.0
C787 C 0.59176 0.48613 0.09474 0.0
O788 O 0.59389 0.46846 0.11312 0.0
C789 C 0.64887 0.50117 0.26592 0.0
C790 C 0.66913 0.53108 0.28309 0.0
C791 C 0.66156 0.50871 0.29059 0.0
N792 N 0.64934 0.51811 0.2451 0.0
N793 N 0.66117 0.53609 0.25581 0.0
C794 C 0.6377 0.47771 0.26122 0.0
H795 H 0.65063 0.46353 0.26518 0.0
H796 H 0.63026 0.47618 0.23878 0.0
H797 H 0.62294 0.47552 0.27685 0.0
C798 C 0.57372 0.52091 0.17503 0.0
N799 N 0.59705 0.5182 0.1733 0.0
N800 N 0.60631 0.52033 0.19986 0.0
C801 C 0.58881 0.52423 0.21939 0.0
C802 C 0.56767 0.52479 0.20422 0.0
C803 C 0.55743 0.51806 0.14938 0.0
H804 H 0.56375 0.52877 0.13056 0.0
H805 H 0.55744 0.49943 0.14235 0.0
H806 H 0.53927 0.5233 0.15507 0.0
O807 O 0.64052 0.53402 0.13472 0.0
O808 O 0.65847 0.53787 0.17821 0.0
H809 H 0.5761 0.53356 0.26273 0.0
H810 H 0.59583 0.50889 0.26138 0.0
C811 C 0.59208 0.52644 0.25201 0.0
H812 H 0.6072 0.53802 0.25679 0.0
H813 H 0.66476 0.55136 0.24396 0.0
O814 O 0.59853 0.50639 0.1029 0.0
C815 C 0.6564 0.54306 0.15083 0.0
Co816 Co 0.25975 0.36338 0.39215 0.0
Co817 Co 0.26209 0.3894 0.45457 0.0
C818 C 0.2185 0.38855 0.41691 0.0
O819 O 0.22831 0.3764 0.39702 0.0
O820 O 0.22963 0.39478 0.43995 0.0
C821 C 0.23852 0.33579 0.34723 0.0
O822 O 0.22096 0.33618 0.36595 0.0
C823 C 0.2442 0.40521 0.51264 0.0
C824 C 0.27508 0.40399 0.5417 0.0
C825 C 0.25108 0.40758 0.54187 0.0
N826 N 0.26291 0.39966 0.4959 0.0
N827 N 0.28145 0.39946 0.51346 0.0
C828 C 0.22026 0.40964 0.50062 0.0
H829 H 0.21247 0.39278 0.4934 0.0
H830 H 0.20857 0.41804 0.51706 0.0
H831 H 0.22171 0.42167 0.4815 0.0
C832 C 0.27267 0.32308 0.42851 0.0
N833 N 0.26871 0.34617 0.42567 0.0
N834 N 0.2688 0.35618 0.45194 0.0
C835 C 0.27198 0.33924 0.47247 0.0
C836 C 0.2749 0.31785 0.45822 0.0
C837 C 0.27156 0.30608 0.40336 0.0
H838 H 0.28187 0.31292 0.38448 0.0
H839 H 0.25309 0.30426 0.39613 0.0
H840 H 0.27827 0.28855 0.40964 0.0
O841 O 0.28117 0.38963 0.38572 0.0
O842 O 0.28375 0.40914 0.42818 0.0
H843 H 0.28654 0.35236 0.51254 0.0
H844 H 0.26943 0.32617 0.51722 0.0
C845 C 0.27059 0.34302 0.5051 0.0
H846 H 0.25511 0.35397 0.51043 0.0
H847 H 0.29836 0.39532 0.50642 0.0
O848 O 0.25804 0.34471 0.35492 0.0
C849 C 0.28913 0.40668 0.40083 0.0
Co850 Co 0.38738 0.5206 0.13311 0.0
Co851 Co 0.36289 0.51523 0.19566 0.0
C852 C 0.36418 0.47608 0.15152 0.0
O853 O 0.37519 0.48859 0.13304 0.0
O854 O 0.35847 0.48417 0.17667 0.0
C855 C 0.41632 0.50455 0.08671 0.0
O856 O 0.41789 0.48634 0.10436 0.0
C857 C 0.35509 0.49065 0.25156 0.0
C858 C 0.33154 0.51409 0.27636 0.0
C859 C 0.34174 0.492 0.27735 0.0
N860 N 0.35244 0.5106 0.23601 0.0
N861 N 0.33856 0.52469 0.25119 0.0
C862 C 0.37067 0.47102 0.24182 0.0
H863 H 0.38505 0.47784 0.22776 0.0
H864 H 0.37809 0.46166 0.26117 0.0
H865 H 0.36043 0.45843 0.22837 0.0
C866 C 0.42752 0.53295 0.1701 0.0
N867 N 0.40498 0.5267 0.16731 0.0
N868 N 0.39542 0.52448 0.19367 0.0
C869 C 0.41206 0.529 0.2142 0.0
C870 C 0.43285 0.53462 0.19984 0.0
C871 C 0.44391 0.53592 0.14456 0.0
H872 H 0.44734 0.51852 0.13454 0.0
H873 H 0.46087 0.54369 0.15131 0.0
H874 H 0.43563 0.54719 0.12756 0.0
O875 O 0.36071 0.54219 0.13073 0.0
O876 O 0.34159 0.53803 0.17339 0.0
H877 H 0.39118 0.536 0.25251 0.0
H878 H 0.42257 0.53682 0.25892 0.0
C879 C 0.40823 0.52785 0.24682 0.0
H880 H 0.40769 0.50924 0.2538 0.0
H881 H 0.33308 0.54113 0.24384 0.0
O882 O 0.40558 0.52276 0.09572 0.0
C883 C 0.34356 0.54707 0.14759 0.0
Co884 Co 0.2284 0.63968 0.89198 0.0
Co885 Co 0.23175 0.61581 0.95544 0.0
C886 C 0.27198 0.61593 0.91345 0.0
O887 O 0.25985 0.62637 0.89407 0.0
O888 O 0.26356 0.61114 0.93873 0.0
C889 C 0.24712 0.66718 0.84575 0.0
O890 O 0.2649 0.66813 0.86413 0.0
C891 C 0.25127 0.59965 0.01306 0.0
C892 C 0.21959 0.59543 0.04039 0.0
C893 C 0.24376 0.59324 0.04119 0.0
N894 N 0.23249 0.60575 0.99663 0.0
N895 N 0.21362 0.60314 0.01323 0.0
C896 C 0.27552 0.59744 1.00083 0.0
H897 H 0.2751 0.5854 0.98162 0.0
H898 H 0.28162 0.61487 0.99317 0.0
H899 H 0.28813 0.59023 0.01702 0.0
C900 C 0.2154 0.68029 0.92749 0.0
N901 N 0.22156 0.65767 0.9255 0.0
N902 N 0.22319 0.64851 0.95216 0.0
C903 C 0.21864 0.66559 0.97211 0.0
C904 C 0.21327 0.68614 0.95701 0.0
C905 C 0.21304 0.69624 0.9014 0.0
H906 H 0.20186 0.68779 0.88441 0.0
H907 H 0.23059 0.69914 0.89161 0.0
H908 H 0.20549 0.71348 0.90745 0.0
O909 O 0.20625 0.61379 0.88878 0.0
O910 O 0.20965 0.59476 0.93162 0.0
H911 H 0.20466 0.65171 0.01208 0.0
H912 H 0.21926 0.67954 0.01649 0.0
C913 C 0.2198 0.66243 1.00483 0.0
H914 H 0.23606 0.65291 0.0108 0.0
H915 H 0.1966 0.60639 1.00592 0.0
O916 O 0.22818 0.65752 0.85421 0.0
C917 C 0.201 0.59675 0.90561 0.0
Co918 Co 0.11859 0.48003 0.64462 0.0
Co919 Co 0.13987 0.48604 0.70911 0.0
C920 C 0.13744 0.52603 0.66704 0.0
O921 O 0.12882 0.5129 0.64715 0.0
O922 O 0.14203 0.51816 0.6927 0.0
C923 C 0.09279 0.49433 0.59335 0.0
O924 O 0.09221 0.51448 0.60736 0.0
C925 C 0.15397 0.50546 0.76755 0.0
C926 C 0.15768 0.4735 0.79459 0.0
C927 C 0.15954 0.4977 0.79585 0.0
N928 N 0.14863 0.48677 0.75057 0.0
N929 N 0.15095 0.46773 0.76697 0.0
C930 C 0.15616 0.52988 0.7558 0.0
H931 H 0.16769 0.52968 0.73612 0.0
H932 H 0.13863 0.53626 0.74892 0.0
H933 H 0.1638 0.54214 0.77213 0.0
C934 C 0.0776 0.46515 0.67853 0.0
N935 N 0.10012 0.47186 0.67736 0.0
N936 N 0.10823 0.47483 0.70436 0.0
C937 C 0.09059 0.47071 0.72361 0.0
C938 C 0.07075 0.46413 0.70783 0.0
C939 C 0.06243 0.46213 0.65183 0.0
H940 H 0.07125 0.45033 0.63585 0.0
H941 H 0.06004 0.47941 0.64101 0.0
H942 H 0.04497 0.45491 0.65749 0.0
O943 O 0.14683 0.46058 0.64294 0.0
O944 O 0.16383 0.46649 0.68656 0.0
H945 H 0.10286 0.45992 0.76594 0.0
H946 H 0.07472 0.47422 0.76676 0.0
C947 C 0.09228 0.47428 0.75625 0.0
H948 H 0.10125 0.49111 0.76099 0.0
H949 H 0.14813 0.45074 0.75922 0.0
O950 O 0.10199 0.47665 0.60601 0.0
C951 C 0.16384 0.45752 0.66066 0.0
Co952 Co 0.26674 0.63689 0.62441 0.0
Co953 Co 0.2669 0.61541 0.55979 0.0
C954 C 0.22449 0.61402 0.59904 0.0
O955 O 0.23502 0.6245 0.61984 0.0
O956 O 0.23483 0.60962 0.57484 0.0
C957 C 0.24719 0.66341 0.6712 0.0
O958 O 0.22962 0.66454 0.65252 0.0
C959 C 0.24563 0.61194 0.50184 0.0
C960 C 0.26677 0.58531 0.47877 0.0
C961 C 0.24622 0.59822 0.47627 0.0
N962 N 0.26439 0.60685 0.51865 0.0
N963 N 0.27719 0.59117 0.50451 0.0
C964 C 0.22763 0.62967 0.51079 0.0
H965 H 0.21345 0.6209 0.52334 0.0
H966 H 0.23551 0.64298 0.52563 0.0
H967 H 0.22001 0.6384 0.4911 0.0
C968 C 0.28188 0.67869 0.59215 0.0
N969 N 0.27526 0.65612 0.59241 0.0
N970 N 0.2757 0.6477 0.56529 0.0
C971 C 0.2826 0.66502 0.54683 0.0
C972 C 0.28678 0.68513 0.56334 0.0
C973 C 0.28248 0.69394 0.61907 0.0
H974 H 0.2934 0.68548 0.63631 0.0
H975 H 0.26447 0.69573 0.62789 0.0
H976 H 0.28942 0.71168 0.61432 0.0
O977 O 0.28829 0.60999 0.62729 0.0
O978 O 0.28835 0.59348 0.58254 0.0
H979 H 0.2922 0.64452 0.50896 0.0
H980 H 0.29793 0.67571 0.50547 0.0
C981 C 0.28564 0.66233 0.51421 0.0
H982 H 0.26845 0.66473 0.50321 0.0
H983 H 0.29227 0.58344 0.51315 0.0
O984 O 0.26619 0.65366 0.66305 0.0
C985 C 0.29503 0.59405 0.60953 0.0
Co986 Co 0.11311 0.52291 0.36875 0.0
Co987 Co 0.13812 0.51814 0.30592 0.0
C988 C 0.13359 0.47775 0.34873 0.0
O989 O 0.12282 0.48999 0.36778 0.0
O990 O 0.14042 0.4866 0.32441 0.0
C991 C 0.08675 0.50981 0.41988 0.0
O992 O 0.0859 0.48951 0.40624 0.0
C993 C 0.15213 0.49498 0.25004 0.0
C994 C 0.15316 0.52389 0.21786 0.0
C995 C 0.15507 0.49975 0.2202 0.0
N996 N 0.14779 0.5151 0.26465 0.0
N997 N 0.14888 0.5324 0.24523 0.0
C998 C 0.15491 0.4717 0.26469 0.0
H999 H 0.16632 0.47366 0.28433 0.0
H1000 H 0.13741 0.46533 0.27166 0.0
H1001 H 0.16315 0.45856 0.24996 0.0
C1002 C 0.0733 0.53543 0.33159 0.0
N1003 N 0.0962 0.5307 0.33456 0.0
N1004 N 0.10577 0.52793 0.30828 0.0
C1005 C 0.08869 0.53001 0.28773 0.0
C1006 C 0.06771 0.53518 0.30184 0.0
C1007 C 0.05662 0.53674 0.35704 0.0
H1008 H 0.06365 0.54888 0.374 0.0
H1009 H 0.05504 0.51912 0.3672 0.0
H1010 H 0.039 0.54275 0.35008 0.0
O1011 O 0.14125 0.54203 0.37151 0.0
O1012 O 0.1603 0.5398 0.3288 0.0
H1013 H 0.1021 0.53895 0.24527 0.0
H1014 H 0.07465 0.52348 0.24407 0.0
C1015 C 0.09175 0.52472 0.25561 0.0
H1016 H 0.10145 0.50802 0.25291 0.0
H1017 H 0.14596 0.54997 0.25045 0.0
O1018 O 0.09575 0.52731 0.40664 0.0
C1019 C 0.15864 0.54741 0.35535 0.0
Co1020 Co 0.22444 0.36104 0.12609 0.0
Co1021 Co 0.23757 0.38295 0.06392 0.0
C1022 C 0.27216 0.38153 0.11205 0.0
O1023 O 0.2567 0.37304 0.12909 0.0
O1024 O 0.26776 0.38538 0.08496 0.0
C1025 C 0.23839 0.33195 0.17269 0.0
O1026 O 0.25607 0.32903 0.15448 0.0
C1027 C 0.26218 0.40066 0.01094 0.0
C1028 C 0.23653 0.39473 0.97529 0.0
C1029 C 0.25936 0.40191 0.98043 0.0
N1030 N 0.24237 0.39223 0.02309 0.0
N1031 N 0.22693 0.38922 1.00164 0.0
C1032 C 0.28263 0.4092 0.02859 0.0
H1033 H 0.27641 0.41759 0.04924 0.0
H1034 H 0.29393 0.39406 0.03436 0.0
H1035 H 0.29309 0.42223 0.0161 0.0
C1036 C 0.2153 0.31963 0.0892 0.0
N1037 N 0.22043 0.34253 0.09192 0.0
N1038 N 0.22715 0.35088 0.06615 0.0
C1039 C 0.22769 0.33298 0.04656 0.0
C1040 C 0.21985 0.3127 0.06042 0.0
C1041 C 0.20924 0.30401 0.11462 0.0
H1042 H 0.19896 0.31385 0.13128 0.0
H1043 H 0.22563 0.29762 0.12503 0.0
H1044 H 0.19901 0.28858 0.10721 0.0
O1045 O 0.20402 0.38862 0.12553 0.0
O1046 O 0.21581 0.40623 0.08422 0.0
H1047 H 0.22413 0.34169 1.001 0.0
H1048 H 0.24305 0.31722 0.00758 0.0
C1049 C 0.23769 0.33464 0.01608 0.0
H1050 H 0.25297 0.34663 0.01595 0.0
H1051 H 0.21002 0.3828 1.00487 0.0
O1052 O 0.22069 0.34364 0.16394 0.0
C1053 C 0.20369 0.40608 0.10802 0.0
Co1054 Co 0.38447 0.48712 0.86756 0.0
Co1055 Co 0.3594 0.48497 0.80502 0.0
C1056 C 0.35875 0.52811 0.84283 0.0
O1057 O 0.37086 0.51828 0.86276 0.0
O1058 O 0.35309 0.51725 0.81936 0.0
C1059 C 0.41216 0.50797 0.9127 0.0
O1060 O 0.41151 0.5259 0.89454 0.0
C1061 C 0.34943 0.50092 0.744 0.0
C1062 C 0.32741 0.47217 0.7271 0.0
C1063 C 0.33579 0.49427 0.71973 0.0
N1064 N 0.34867 0.48376 0.76451 0.0
N1065 N 0.3358 0.46646 0.75395 0.0
C1066 C 0.36191 0.5237 0.74861 0.0
H1067 H 0.36975 0.52469 0.77089 0.0
H1068 H 0.37651 0.52515 0.73259 0.0
H1069 H 0.34971 0.53859 0.7451 0.0
C1070 C 0.42466 0.47258 0.8322 0.0
N1071 N 0.40201 0.47852 0.83436 0.0
N1072 N 0.3921 0.47742 0.8081 0.0
C1073 C 0.4085 0.47078 0.78825 0.0
C1074 C 0.42957 0.4675 0.80302 0.0
C1075 C 0.4413 0.47208 0.85774 0.0
H1076 H 0.43363 0.46157 0.87593 0.0
H1077 H 0.44388 0.49021 0.86599 0.0
H1078 H 0.45855 0.46463 0.85151 0.0
O1079 O 0.35864 0.46497 0.87357 0.0
O1080 O 0.33955 0.46363 0.83068 0.0
H1081 H 0.3885 0.45652 0.75259 0.0
H1082 H 0.41947 0.45993 0.74467 0.0
C1083 C 0.4041 0.46779 0.75594 0.0
H1084 H 0.40031 0.48515 0.74603 0.0
H1085 H 0.33182 0.45123 0.76565 0.0
O1086 O 0.4031 0.48861 0.90468 0.0
C1087 C 0.34178 0.45752 0.85773 0.0
H1088 H 0.18186 0.99265 0.18016 0.0
H1089 H 0.13035 0.0389 0.21831 0.0
H1090 H 0.14037 0.06929 0.18272 0.0
H1091 H 0.16728 0.08458 0.1453 0.0
H1092 H 0.21802 0.03868 0.10518 0.0
H1093 H 0.20447 0.00617 0.13626 0.0
C1094 C 0.17261 0.00925 0.18028 0.0
C1095 C 0.15615 0.01394 0.20269 0.0
C1096 C 0.17834 0.02672 0.15939 0.0
C1097 C 0.14385 0.03527 0.20213 0.0
C1098 C 0.14943 0.05262 0.18164 0.0
C1099 C 0.17493 0.06728 0.1428 0.0
C1100 C 0.19368 0.06405 0.12314 0.0
C1101 C 0.16722 0.04885 0.16089 0.0
C1102 C 0.20341 0.04155 0.12 0.0
C1103 C 0.19584 0.02303 0.13804 0.0
H1104 H 0.20002 0.96897 0.37608 0.0
H1105 H 0.1565 0.90755 0.3817 0.0
H1106 H 0.18555 0.88831 0.41331 0.0
H1107 H 0.22127 0.8907 0.4432 0.0
H1108 H 0.26253 0.95407 0.44202 0.0
H1109 H 0.23704 0.97041 0.40416 0.0
C1110 C 0.19735 0.95109 0.38349 0.0
C1111 C 0.17647 0.93943 0.37614 0.0
C1112 C 0.21359 0.94063 0.40287 0.0
C1113 C 0.17271 0.9166 0.38665 0.0
C1114 C 0.1892 0.90574 0.40497 0.0
C1115 C 0.22454 0.90823 0.43533 0.0
C1116 C 0.24344 0.92135 0.44665 0.0
C1117 C 0.20932 0.91791 0.41408 0.0
C1118 C 0.24802 0.94353 0.43422 0.0
C1119 C 0.23337 0.953 0.41254 0.0
H1120 H 0.32653 0.90902 0.65297 0.0
H1121 H 0.28962 0.95928 0.5994 0.0
H1122 H 0.30342 0.9912 0.63135 0.0
H1123 H 0.32227 0.00398 0.67835 0.0
H1124 H 0.36083 0.95315 0.72943 0.0
H1125 H 0.35003 0.9224 0.69489 0.0
C1126 C 0.32196 0.92704 0.6479 0.0
C1127 C 0.30702 0.93179 0.62399 0.0
C1128 C 0.32978 0.94515 0.66642 0.0
C1129 C 0.30129 0.9552 0.61755 0.0
C1130 C 0.30896 0.97342 0.63604 0.0
C1131 C 0.32844 0.9862 0.68171 0.0
C1132 C 0.3412 0.98065 0.70744 0.0
C1133 C 0.3226 0.9685 0.66115 0.0
C1134 C 0.34974 0.95769 0.71092 0.0
C1135 C 0.34388 0.94009 0.69089 0.0
H1136 H 0.30147 0.03616 0.87227 0.0
H1137 H 0.34982 0.09275 0.88786 0.0
H1138 H 0.32239 0.11075 0.9226 0.0
H1139 H 0.28686 0.1078 0.95311 0.0
H1140 H 0.23962 0.04982 0.94029 0.0
H1141 H 0.26401 0.03513 0.89982 0.0
C1142 C 0.30554 0.05287 0.88248 0.0
C1143 C 0.32744 0.06335 0.87719 0.0
C1144 C 0.29009 0.06255 0.90352 0.0
C1145 C 0.33289 0.0846 0.89127 0.0
C1146 C 0.31733 0.09473 0.9114 0.0
C1147 C 0.28201 0.09188 0.94153 0.0
C1148 C 0.2619 0.07947 0.9503 0.0
C1149 C 0.2963 0.0834 0.91856 0.0
C1150 C 0.25524 0.05947 0.93425 0.0
C1151 C 0.26919 0.05106 0.91111 0.0
H1152 H 0.17619 0.90978 0.86743 0.0
H1153 H 0.21174 0.96024 0.92219 0.0
H1154 H 0.1976 0.99217 0.89051 0.0
H1155 H 0.17884 0.00503 0.84344 0.0
H1156 H 0.14179 0.95388 0.79109 0.0
H1157 H 0.15285 0.92307 0.82537 0.0
C1158 C 0.1804 0.92783 0.87282 0.0
C1159 C 0.19505 0.93264 0.897 0.0
C1160 C 0.17239 0.94596 0.85445 0.0
C1161 C 0.20029 0.9561 0.90383 0.0
C1162 C 0.19243 0.97433 0.8855 0.0
C1163 C 0.17305 0.98717 0.83976 0.0
C1164 C 0.16061 0.98158 0.81379 0.0
C1165 C 0.17907 0.96939 0.86015 0.0
C1166 C 0.15258 0.95849 0.80986 0.0
C1167 C 0.15861 0.94084 0.82972 0.0
H1168 H 0.27776 0.88841 0.07973 0.0
H1169 H 0.23933 0.95352 0.08035 0.0
H1170 H 0.26468 0.96848 0.11933 0.0
H1171 H 0.30129 0.96539 0.14801 0.0
H1172 H 0.34228 0.90218 0.14274 0.0
H1173 H 0.31269 0.88422 0.1108 0.0
C1174 C 0.27511 0.90601 0.0878 0.0
C1175 C 0.25713 0.92008 0.07597 0.0
C1176 C 0.29028 0.91485 0.10967 0.0
C1177 C 0.25318 0.94231 0.08856 0.0
C1178 C 0.26776 0.95097 0.11088 0.0
C1179 C 0.30325 0.94738 0.14071 0.0
C1180 C 0.32368 0.93493 0.14811 0.0
C1181 C 0.2868 0.93768 0.12098 0.0
C1182 C 0.32647 0.9119 0.13772 0.0
C1183 C 0.30969 0.90176 0.11917 0.0
H1184 H 0.31838 0.09713 0.36074 0.0
H1185 H 0.28702 0.04506 0.41717 0.0
H1186 H 0.3021 0.01383 0.38501 0.0
H1187 H 0.32097 0.00176 0.3378 0.0
H1188 H 0.3537 0.05459 0.28355 0.0
H1189 H 0.34102 0.085 0.31756 0.0
C1190 C 0.31518 0.07891 0.36633 0.0
C1191 C 0.3015 0.07344 0.39124 0.0
C1192 C 0.32364 0.0612 0.34763 0.0
C1193 C 0.29767 0.04976 0.39828 0.0
C1194 C 0.30607 0.03191 0.37968 0.0
C1195 C 0.32538 0.01993 0.33351 0.0
C1196 C 0.33715 0.02594 0.30716 0.0
C1197 C 0.31853 0.03747 0.35379 0.0
C1198 C 0.34338 0.0495 0.30252 0.0
C1199 C 0.33649 0.06694 0.3223 0.0
H1200 H 0.20192 0.03543 0.646 0.0
H1201 H 0.15506 0.09419 0.63766 0.0
H1202 H 0.18289 0.11399 0.60504 0.0
H1203 H 0.21811 0.11228 0.57382 0.0
H1204 H 0.26346 0.05208 0.57856 0.0
H1205 H 0.23921 0.03539 0.61794 0.0
C1206 C 0.19828 0.05293 0.63785 0.0
C1207 C 0.1767 0.06358 0.64461 0.0
C1208 C 0.21394 0.06372 0.61794 0.0
C1209 C 0.17175 0.0859 0.63314 0.0
C1210 C 0.18755 0.09709 0.61424 0.0
C1211 C 0.22264 0.0955 0.58351 0.0
C1212 C 0.2421 0.08306 0.57267 0.0
C1213 C 0.20827 0.08578 0.6056 0.0
C1214 C 0.24835 0.06182 0.58623 0.0
C1215 C 0.23444 0.05224 0.60868 0.0
H1216 H 0.82943 0.00369 0.84345 0.0
H1217 H 0.84817 0.95363 0.77589 0.0
H1218 H 0.84135 0.92173 0.80947 0.0
H1219 H 0.82646 0.90722 0.85583 0.0
H1220 H 0.80227 0.95536 0.92265 0.0
H1221 H 0.81504 0.98853 0.89199 0.0
C1222 C 0.83232 0.9858 0.83625 0.0
C1223 C 0.84046 0.98145 0.80724 0.0
C1224 C 0.82717 0.96701 0.8556 0.0
C1225 C 0.84348 0.95804 0.79825 0.0
C1226 C 0.83907 0.93951 0.81744 0.0
C1227 C 0.82417 0.92493 0.86406 0.0
C1228 C 0.81323 0.92868 0.89153 0.0
C1229 C 0.8306 0.94375 0.84592 0.0
C1230 C 0.81072 0.95185 0.9017 0.0
C1231 C 0.81781 0.97085 0.88399 0.0
H1232 H 0.785 0.1149 0.56398 0.0
H1233 H 0.73991 0.05427 0.5676 0.0
H1234 H 0.76268 0.03862 0.60856 0.0
H1235 H 0.79825 0.03962 0.63941 0.0
H1236 H 0.84549 0.09811 0.63233 0.0
H1237 H 0.81926 0.11706 0.59674 0.0
C1238 C 0.78031 0.09809 0.57318 0.0
C1239 C 0.76111 0.08549 0.56169 0.0
C1240 C 0.79387 0.08884 0.59647 0.0
C1241 C 0.7547 0.06434 0.57553 0.0
C1242 C 0.76777 0.05528 0.59903 0.0
C1243 C 0.8023 0.0569 0.63082 0.0
C1244 C 0.82341 0.06779 0.63898 0.0
C1245 C 0.78771 0.06709 0.60925 0.0
C1246 C 0.82901 0.08973 0.62688 0.0
C1247 C 0.81417 0.10039 0.60625 0.0
H1248 H 0.71393 0.05379 0.39559 0.0
H1249 H 0.66681 0.10881 0.36883 0.0
H1250 H 0.64685 0.08191 0.33518 0.0
H1251 H 0.64569 0.04416 0.30924 0.0
H1252 H 0.69469 0.98984 0.33273 0.0
H1253 H 0.71071 0.01467 0.37202 0.0
C1254 C 0.69881 0.05959 0.38307 0.0
C1255 C 0.69163 0.08315 0.38491 0.0
C1256 C 0.68807 0.04425 0.36272 0.0
C1257 C 0.67244 0.09069 0.36798 0.0
C1258 C 0.66118 0.07537 0.34854 0.0
C1259 C 0.65998 0.03782 0.32285 0.0
C1260 C 0.66953 0.01551 0.31743 0.0
C1261 C 0.66938 0.05238 0.34495 0.0
C1262 C 0.6873 0.00712 0.33614 0.0
C1263 C 0.69648 0.02133 0.35858 0.0
H1264 H 0.75527 0.93523 0.08845 0.0
H1265 H 0.70653 0.8909 0.04179 0.0
H1266 H 0.6755 0.90171 0.07595 0.0
H1267 H 0.66112 0.92653 0.116 0.0
H1268 H 0.7092 0.97003 0.1647 0.0
H1269 H 0.74167 0.95629 0.1336 0.0
C1270 C 0.7379 0.92782 0.08599 0.0
C1271 C 0.73294 0.91321 0.06165 0.0
C1272 C 0.72004 0.93385 0.10623 0.0
C1273 C 0.71053 0.90319 0.05928 0.0
C1274 C 0.6928 0.90912 0.07907 0.0
C1275 C 0.67881 0.93264 0.12022 0.0
C1276 C 0.68274 0.94936 0.14248 0.0
C1277 C 0.69718 0.92491 0.1021 0.0
C1278 C 0.70575 0.95701 0.14784 0.0
C1279 C 0.72426 0.94935 0.12982 0.0
H1280 H 0.81951 0.0968 0.15566 0.0
H1281 H 0.78478 0.0459 0.1006 0.0
H1282 H 0.79877 0.01422 0.13277 0.0
H1283 H 0.81765 0.00163 0.17967 0.0
H1284 H 0.85361 0.05316 0.23268 0.0
H1285 H 0.8421 0.08391 0.1985 0.0
C1286 C 0.81531 0.07872 0.1504 0.0
C1287 C 0.801 0.07371 0.12591 0.0
C1288 C 0.82316 0.06076 0.16909 0.0
C1289 C 0.7959 0.05021 0.11921 0.0
C1290 C 0.80369 0.03213 0.1378 0.0
C1291 C 0.82303 0.01959 0.18362 0.0
C1292 C 0.83539 0.02523 0.20964 0.0
C1293 C 0.81679 0.03728 0.16331 0.0
C1294 C 0.84287 0.04846 0.21392 0.0
C1295 C 0.83662 0.06607 0.19407 0.0
H1296 H 0.70707 0.03404 0.86724 0.0
H1297 H 0.65114 0.08193 0.88801 0.0
H1298 H 0.67655 0.10283 0.92265 0.0
H1299 H 0.71313 0.10474 0.951 0.0
H1300 H 0.76814 0.05491 0.93366 0.0
H1301 H 0.74506 0.03783 0.8934 0.0
C1302 C 0.7008 0.04951 0.8787 0.0
C1303 C 0.67746 0.05676 0.87481 0.0
C1304 C 0.71524 0.0608 0.89959 0.0
C1305 C 0.66918 0.07635 0.8904 0.0
C1306 C 0.68363 0.08814 0.91038 0.0
C1307 C 0.71999 0.09004 0.93851 0.0
C1308 C 0.74196 0.08057 0.94594 0.0
C1309 C 0.7064 0.08003 0.9159 0.0
C1310 C 0.7511 0.06226 0.92868 0.0
C1311 C 0.73788 0.05246 0.9057 0.0
H1312 H 0.64834 0.95519 0.71077 0.0
H1313 H 0.68172 0.01496 0.67011 0.0
H1314 H 0.69379 0.99037 0.62885 0.0
H1315 H 0.69912 0.9506 0.60745 0.0
H1316 H 0.66509 0.89186 0.64914 0.0
H1317 H 0.64801 0.91776 0.6861 0.0
C1318 C 0.65744 0.96347 0.69284 0.0
C1319 C 0.66396 0.98728 0.69429 0.0
C1320 C 0.66424 0.94925 0.66895 0.0
C1321 C 0.6765 0.99672 0.6702 0.0
C1322 C 0.68343 0.98264 0.64637 0.0
C1323 C 0.68722 0.94369 0.62396 0.0
C1324 C 0.68334 0.91934 0.62554 0.0
C1325 C 0.67795 0.95869 0.64587 0.0
C1326 C 0.66828 0.91054 0.64742 0.0
C1327 C 0.6587 0.92532 0.66877 0.0
H1328 H 0.74535 0.93634 0.43178 0.0
H1329 H 0.77972 0.87123 0.4536 0.0
H1330 H 0.80994 0.87911 0.41758 0.0
H1331 H 0.82942 0.90686 0.38394 0.0
H1332 H 0.79345 0.96995 0.35795 0.0
H1333 H 0.76065 0.95998 0.39038 0.0
C1334 C 0.75925 0.92366 0.42848 0.0
C1335 C 0.76101 0.90404 0.44734 0.0
C1336 C 0.77625 0.92782 0.40654 0.0
C1337 C 0.77874 0.88749 0.44165 0.0
C1338 C 0.7959 0.89171 0.42036 0.0
C1339 C 0.81404 0.91801 0.38467 0.0
C1340 C 0.81389 0.93914 0.36871 0.0
C1341 C 0.79532 0.91224 0.40345 0.0
C1342 C 0.79388 0.95346 0.36979 0.0
C1343 C 0.77525 0.94792 0.38868 0.0
H1344 H 0.68164 0.49539 0.67643 0.0
H1345 H 0.62786 0.53906 0.71437 0.0
H1346 H 0.63668 0.57003 0.67903 0.0
H1347 H 0.66318 0.58666 0.64207 0.0
H1348 H 0.71639 0.5433 0.60251 0.0
H1349 H 0.70389 0.51003 0.63294 0.0
C1350 C 0.67167 0.51156 0.67659 0.0
C1351 C 0.65493 0.51543 0.6989 0.0
C1352 C 0.6767 0.52931 0.65586 0.0
C1353 C 0.64163 0.53615 0.69835 0.0
C1354 C 0.64651 0.5538 0.67797 0.0
C1355 C 0.67159 0.56972 0.63952 0.0
C1356 C 0.69075 0.56745 0.62027 0.0
C1357 C 0.66457 0.5509 0.65737 0.0
C1358 C 0.70146 0.54542 0.61703 0.0
C1359 C 0.69451 0.52648 0.63472 0.0
H1360 H 0.65918 0.41345 0.89424 0.0
H1361 H 0.70316 0.46253 0.84787 0.0
H1362 H 0.73653 0.45142 0.87892 0.0
H1363 H 0.75152 0.43157 0.92406 0.0
H1364 H 0.70735 0.38143 0.96845 0.0
H1365 H 0.67583 0.38913 0.93355 0.0
C1366 C 0.67624 0.42127 0.89043 0.0
C1367 C 0.67866 0.43888 0.86895 0.0
C1368 C 0.69518 0.41502 0.90856 0.0
C1369 C 0.70087 0.44879 0.86412 0.0
C1370 C 0.7199 0.44264 0.88214 0.0
C1371 C 0.73508 0.42216 0.9258 0.0
C1372 C 0.73133 0.40689 0.94978 0.0
C1373 C 0.71702 0.42641 0.90519 0.0
C1374 C 0.71023 0.39425 0.95121 0.0
C1375 C 0.69226 0.39843 0.93104 0.0
H1376 H 0.82067 0.50131 0.17716 0.0
H1377 H 0.8667 0.45387 0.22333 0.0
H1378 H 0.8583 0.42315 0.18755 0.0
H1379 H 0.83491 0.40845 0.14624 0.0
H1380 H 0.78961 0.45545 0.09843 0.0
H1381 H 0.80132 0.48782 0.13091 0.0
C1382 C 0.82897 0.48429 0.1792 0.0
C1383 C 0.84331 0.47951 0.20384 0.0
C1384 C 0.82437 0.46668 0.15805 0.0
C1385 C 0.85453 0.45762 0.20563 0.0
C1386 C 0.85 0.44011 0.1849 0.0
C1387 C 0.82802 0.42592 0.14246 0.0
C1388 C 0.81132 0.4295 0.12005 0.0
C1389 C 0.83446 0.44423 0.16152 0.0
C1390 C 0.80264 0.45225 0.11534 0.0
C1391 C 0.80911 0.4707 0.13419 0.0
H1392 H 0.75012 0.56964 0.42929 0.0
H1393 H 0.7952 0.6206 0.47072 0.0
H1394 H 0.82542 0.61323 0.43389 0.0
H1395 H 0.84085 0.58898 0.39376 0.0
H1396 H 0.79614 0.53846 0.35102 0.0
H1397 H 0.76371 0.54957 0.38362 0.0
C1398 C 0.76647 0.57927 0.43 0.0
C1399 C 0.77091 0.59474 0.45364 0.0
C1400 C 0.78377 0.57516 0.40835 0.0
C1401 C 0.79186 0.60765 0.45375 0.0
C1402 C 0.80905 0.60367 0.43246 0.0
C1403 C 0.8238 0.58085 0.39104 0.0
C1404 C 0.82095 0.56283 0.37014 0.0
C1405 C 0.8055 0.58694 0.41025 0.0
C1406 C 0.79875 0.55253 0.36675 0.0
C1407 C 0.78029 0.55865 0.3857 0.0
H1408 H 0.64009 0.47181 0.32026 0.0
H1409 H 0.70176 0.51551 0.32176 0.0
H1410 H 0.71833 0.49149 0.36098 0.0
H1411 H 0.71781 0.45497 0.39022 0.0
H1412 H 0.65834 0.40887 0.38406 0.0
H1413 H 0.63855 0.4366 0.35116 0.0
C1414 C 0.65733 0.47592 0.32847 0.0
C1415 C 0.66992 0.49507 0.31684 0.0
C1416 C 0.66718 0.46152 0.3505 0.0
C1417 C 0.69165 0.50077 0.32975 0.0
C1418 C 0.70125 0.48696 0.35223 0.0
C1419 C 0.70019 0.45145 0.38242 0.0
C1420 C 0.68929 0.43019 0.38997 0.0
C1421 C 0.68948 0.46691 0.36223 0.0
C1422 C 0.66683 0.42536 0.37895 0.0
C1423 C 0.65565 0.4411 0.35988 0.0
H1424 H 0.80298 0.47029 0.63904 0.0
H1425 H 0.84937 0.41127 0.62965 0.0
H1426 H 0.82224 0.39293 0.59473 0.0
H1427 H 0.78747 0.39577 0.56296 0.0
H1428 H 0.743 0.45672 0.56884 0.0
H1429 H 0.76676 0.4719 0.6093 0.0
C1430 C 0.80667 0.45303 0.63012 0.0
C1431 C 0.82788 0.44189 0.63734 0.0
C1432 C 0.79154 0.44318 0.60886 0.0
C1433 C 0.83291 0.41992 0.62483 0.0
C1434 C 0.81754 0.40959 0.60458 0.0
C1435 C 0.78314 0.41254 0.5726 0.0
C1436 C 0.76385 0.4254 0.56191 0.0
C1437 C 0.79722 0.42146 0.59559 0.0
C1438 C 0.75788 0.4465 0.5762 0.0
C1439 C 0.77151 0.45526 0.5994 0.0
H1440 H 0.85022 0.54735 0.79937 0.0
H1441 H 0.8096 0.48761 0.82703 0.0
H1442 H 0.79307 0.51043 0.86778 0.0
H1443 H 0.78747 0.5486 0.89304 0.0
H1444 H 0.82605 0.60882 0.8627 0.0
H1445 H 0.84601 0.58478 0.82574 0.0
C1446 C 0.83746 0.53942 0.81399 0.0
C1447 C 0.83058 0.516 0.80948 0.0
C1448 C 0.82779 0.55277 0.83717 0.0
C1449 C 0.81494 0.5057 0.82967 0.0
C1450 C 0.80547 0.51876 0.85302 0.0
C1451 C 0.80074 0.55623 0.87886 0.0
C1452 C 0.80559 0.58036 0.88088 0.0
C1453 C 0.81147 0.54244 0.85675 0.0
C1454 C 0.82229 0.59022 0.86179 0.0
C1455 C 0.83355 0.57652 0.84048 0.0
H1456 H 0.70279 0.53455 0.14397 0.0
H1457 H 0.64839 0.58374 0.12179 0.0
H1458 H 0.67463 0.60348 0.08705 0.0
H1459 H 0.71118 0.60403 0.05972 0.0
H1460 H 0.76473 0.55254 0.07836 0.0
H1461 H 0.74086 0.53683 0.11805 0.0
C1462 C 0.69701 0.55005 0.13217 0.0
C1463 C 0.67387 0.55801 0.1358 0.0
C1464 C 0.71189 0.56064 0.11116 0.0
C1465 C 0.66627 0.5776 0.11969 0.0
C1466 C 0.68121 0.58872 0.09962 0.0
C1467 C 0.71794 0.58934 0.07182 0.0
C1468 C 0.73986 0.57932 0.0647 0.0
C1469 C 0.70382 0.5799 0.09444 0.0
C1470 C 0.74794 0.56069 0.08255 0.0
C1471 C 0.73424 0.55156 0.10545 0.0
H1472 H 0.33081 0.49622 0.3362 0.0
H1473 H 0.33692 0.44501 0.26641 0.0
H1474 H 0.32474 0.41429 0.29975 0.0
H1475 H 0.3092 0.40199 0.34709 0.0
H1476 H 0.29953 0.45236 0.41708 0.0
H1477 H 0.31641 0.48311 0.38561 0.0
C1478 C 0.32976 0.47827 0.32844 0.0
C1479 C 0.33571 0.47303 0.29884 0.0
C1480 C 0.3219 0.46045 0.3478 0.0
C1481 C 0.33377 0.44968 0.28915 0.0
C1482 C 0.32635 0.43199 0.30822 0.0
C1483 C 0.31096 0.41962 0.35577 0.0
C1484 C 0.3029 0.42478 0.38448 0.0
C1485 C 0.32008 0.4372 0.33739 0.0
C1486 C 0.30562 0.44777 0.39518 0.0
C1487 C 0.31511 0.46542 0.37705 0.0
H1488 H 0.29738 0.53658 0.14057 0.0
H1489 H 0.34885 0.5901 0.12374 0.0
H1490 H 0.32149 0.61058 0.09121 0.0
H1491 H 0.28466 0.61085 0.06305 0.0
H1492 H 0.23408 0.55592 0.07673 0.0
H1493 H 0.25891 0.53868 0.11517 0.0
C1494 C 0.30223 0.55314 0.13054 0.0
C1495 C 0.32495 0.56206 0.13489 0.0
C1496 C 0.28668 0.5643 0.11076 0.0
C1497 C 0.33133 0.58313 0.12104 0.0
C1498 C 0.31577 0.59471 0.10219 0.0
C1499 C 0.27915 0.59504 0.07438 0.0
C1500 C 0.25792 0.58424 0.06639 0.0
C1501 C 0.29372 0.58502 0.09606 0.0
C1502 C 0.25052 0.56436 0.08215 0.0
C1503 C 0.26475 0.55447 0.10411 0.0
H1504 H 0.21182 0.55065 0.89928 0.0
H1505 H 0.15861 0.60194 0.88007 0.0
H1506 H 0.13954 0.5747 0.84603 0.0
H1507 H 0.14081 0.53826 0.81709 0.0
H1508 H 0.19543 0.48783 0.83349 0.0
H1509 H 0.21092 0.51236 0.87338 0.0
C1510 C 0.19558 0.55545 0.88842 0.0
C1511 C 0.18638 0.5781 0.89247 0.0
C1512 C 0.18528 0.54001 0.86781 0.0
C1513 C 0.16575 0.58445 0.87759 0.0
C1514 C 0.15501 0.56898 0.85788 0.0
C1515 C 0.15615 0.53271 0.82937 0.0
C1516 C 0.16742 0.51165 0.82175 0.0
C1517 C 0.16512 0.54708 0.85196 0.0
C1518 C 0.18667 0.50417 0.83864 0.0
C1519 C 0.19554 0.51821 0.86143 0.0
H1520 H 0.16548 0.41839 0.62738 0.0
H1521 H 0.20934 0.47191 0.66524 0.0
H1522 H 0.24193 0.45968 0.63342 0.0
H1523 H 0.25572 0.43741 0.58924 0.0
H1524 H 0.21153 0.38313 0.55341 0.0
H1525 H 0.1815 0.39176 0.59004 0.0
C1526 C 0.18241 0.42689 0.62928 0.0
C1527 C 0.18501 0.44603 0.64852 0.0
C1528 C 0.20089 0.4199 0.61078 0.0
C1529 C 0.207 0.45695 0.6508 0.0
C1530 C 0.22555 0.45014 0.63232 0.0
C1531 C 0.2397 0.42722 0.58992 0.0
C1532 C 0.23541 0.41032 0.56789 0.0
C1533 C 0.2224 0.43221 0.61137 0.0
C1534 C 0.21483 0.39686 0.56941 0.0
C1535 C 0.19767 0.4017 0.59044 0.0
H1536 H 0.35784 0.53084 0.69001 0.0
H1537 H 0.29458 0.48941 0.69026 0.0
H1538 H 0.27792 0.51445 0.65218 0.0
H1539 H 0.27913 0.55104 0.62329 0.0
H1540 H 0.3405 0.59471 0.62698 0.0
H1541 H 0.35996 0.56619 0.65924 0.0
C1542 C 0.34028 0.52742 0.68238 0.0
C1543 C 0.32729 0.50859 0.69417 0.0
C1544 C 0.33043 0.54238 0.66092 0.0
C1545 C 0.30503 0.50386 0.6821 0.0
C1546 C 0.29537 0.51825 0.66029 0.0
C1547 C 0.29705 0.55385 0.63045 0.0
C1548 C 0.30864 0.57458 0.62232 0.0
C1549 C 0.30764 0.53792 0.65008 0.0
C1550 C 0.33151 0.57857 0.63249 0.0
C1551 C 0.3425 0.56239 0.65118 0.0
H1552 H 0.25079 0.58272 0.41913 0.0
H1553 H 0.19851 0.60152 0.4839 0.0
H1554 H 0.16775 0.59184 0.4498 0.0
H1555 H 0.15499 0.5741 0.40412 0.0
H1556 H 0.20559 0.55034 0.3401 0.0
H1557 H 0.23741 0.56604 0.37094 0.0
C1558 C 0.23265 0.58503 0.42558 0.0
C1559 C 0.22733 0.5939 0.454 0.0
C1560 C 0.21458 0.57825 0.40597 0.0
C1561 C 0.20363 0.59622 0.46201 0.0
C1562 C 0.18577 0.59016 0.44253 0.0
C1563 C 0.17295 0.57255 0.39656 0.0
C1564 C 0.17784 0.56084 0.36988 0.0
C1565 C 0.19101 0.58077 0.41477 0.0
C1566 C 0.20125 0.55933 0.36045 0.0
C1567 C 0.21947 0.5681 0.37827 0.0
H1568 H 0.18463 0.50147 0.1725 0.0
H1569 H 0.13039 0.45956 0.21242 0.0
H1570 H 0.13861 0.4276 0.17824 0.0
H1571 H 0.1647 0.4096 0.14172 0.0
H1572 H 0.21818 0.45131 0.09999 0.0
H1573 H 0.2064 0.4854 0.12935 0.0
C1574 C 0.17439 0.48548 0.17331 0.0
C1575 C 0.15768 0.48244 0.19585 0.0
C1576 C 0.17908 0.4671 0.15324 0.0
C1577 C 0.14409 0.46189 0.19615 0.0
C1578 C 0.14865 0.44365 0.17646 0.0
C1579 C 0.17335 0.42633 0.13847 0.0
C1580 C 0.19239 0.42785 0.11888 0.0
C1581 C 0.16667 0.44573 0.15565 0.0
C1582 C 0.20336 0.44968 0.11478 0.0
C1583 C 0.1968 0.46913 0.13186 0.0
H1584 H 0.25248 0.42347 0.92713 0.0
H1585 H 0.30619 0.39195 0.98114 0.0
H1586 H 0.33611 0.40472 0.94656 0.0
H1587 H 0.34753 0.42753 0.90318 0.0
H1588 H 0.29449 0.4576 0.84707 0.0
H1589 H 0.26382 0.44204 0.87955 0.0
C1590 C 0.27073 0.41931 0.9312 0.0
C1591 C 0.27716 0.40792 0.95763 0.0
C1592 C 0.28797 0.42623 0.91065 0.0
C1593 C 0.3008 0.40198 0.96204 0.0
C1594 C 0.31796 0.40894 0.94197 0.0
C1595 C 0.32923 0.43031 0.89774 0.0
C1596 C 0.32329 0.44382 0.87288 0.0
C1597 C 0.31182 0.42156 0.91661 0.0
C1598 C 0.29952 0.44711 0.86597 0.0
C1599 C 0.28199 0.43844 0.88474 0.0
H1600 H 0.27365 0.1694 0.30638 0.0
H1601 H 0.19872 0.16511 0.31761 0.0
H1602 H 0.19331 0.16596 0.26422 0.0
H1603 H 0.2101 0.16314 0.21429 0.0
H1604 H 0.28498 0.16832 0.20308 0.0
H1605 H 0.29006 0.1722 0.2563 0.0
C1606 C 0.25612 0.16904 0.29714 0.0
C1607 C 0.23667 0.16683 0.31596 0.0
C1608 C 0.25309 0.1695 0.26635 0.0
C1609 C 0.21405 0.16672 0.30367 0.0
C1610 C 0.21091 0.16707 0.27308 0.0
C1611 C 0.22749 0.16549 0.22348 0.0
C1612 C 0.24712 0.16508 0.20476 0.0
C1613 C 0.23034 0.16771 0.25419 0.0
C1614 C 0.26953 0.16847 0.21696 0.0
C1615 C 0.2725 0.17058 0.24746 0.0
H1616 H 0.07819 0.9658 0.46875 0.0
H1617 H 0.07776 0.03963 0.44811 0.0
H1618 H 0.07585 0.04924 0.50049 0.0
H1619 H 0.07883 0.03673 0.55241 0.0
H1620 H 0.07774 0.9629 0.57302 0.0
H1621 H 0.07539 0.95333 0.52067 0.0
C1622 C 0.07728 0.98397 0.47574 0.0
C1623 C 0.07843 0.00193 0.45457 0.0
C1624 C 0.07608 0.98943 0.50598 0.0
C1625 C 0.07694 0.02541 0.46392 0.0
C1626 C 0.07599 0.03097 0.49393 0.0
C1627 C 0.07768 0.01858 0.54543 0.0
C1628 C 0.07878 0.0006 0.56658 0.0
C1629 C 0.07624 0.01313 0.51519 0.0
C1630 C 0.07698 0.97714 0.55724 0.0
C1631 C 0.07577 0.9716 0.52724 0.0
H1632 H 0.28204 0.84043 0.71287 0.0
H1633 H 0.20668 0.83942 0.70557 0.0
H1634 H 0.20313 0.83774 0.75915 0.0
H1635 H 0.22128 0.84061 0.80832 0.0
H1636 H 0.29665 0.84105 0.81564 0.0
H1637 H 0.30023 0.83863 0.7621 0.0
C1638 C 0.26485 0.8395 0.72298 0.0
C1639 C 0.24469 0.84036 0.70513 0.0
C1640 C 0.26287 0.83861 0.75395 0.0
C1641 C 0.22254 0.8389 0.71866 0.0
C1642 C 0.22046 0.83803 0.74939 0.0
C1643 C 0.23849 0.83985 0.79824 0.0
C1644 C 0.25863 0.84133 0.81606 0.0
C1645 C 0.24048 0.83851 0.76729 0.0
C1646 C 0.2808 0.84005 0.80256 0.0
C1647 C 0.2829 0.83877 0.77185 0.0
H1648 H 0.42561 0.9698 0.95761 0.0
H1649 H 0.42715 0.04533 0.96247 0.0
H1650 H 0.43058 0.04328 0.01622 0.0
H1651 H 0.42788 0.02026 0.06175 0.0
H1652 H 0.42275 0.94488 0.05695 0.0
H1653 H 0.42632 0.94661 1.00318 0.0
C1654 C 0.42719 0.98583 0.97035 0.0
C1655 C 0.42596 0.00771 0.95607 0.0
C1656 C 0.42829 0.98451 1.00128 0.0
C1657 C 0.4279 0.02829 0.97295 0.0
C1658 C 0.4298 0.02711 1.00368 0.0
C1659 C 0.42803 0.00415 0.04903 0.0
C1660 C 0.42488 0.98246 0.06333 0.0
C1661 C 0.42921 0.00535 0.01811 0.0
C1662 C 0.425 0.96179 0.04646 0.0
C1663 C 0.42697 0.96279 0.01572 0.0
H1664 H 0.78814 0.83193 0.70792 0.0
H1665 H 0.71286 0.82509 0.70605 0.0
H1666 H 0.71233 0.81958 0.75952 0.0
H1667 H 0.7326 0.82213 0.80709 0.0
H1668 H 0.80755 0.83181 0.80921 0.0
H1669 H 0.80888 0.83037 0.75532 0.0
C1670 C 0.77164 0.82878 0.7191 0.0
C1671 C 0.75054 0.82923 0.70305 0.0
C1672 C 0.77139 0.82633 0.74996 0.0
C1673 C 0.72934 0.82508 0.71792 0.0
C1674 C 0.72901 0.82197 0.74851 0.0
C1675 C 0.74931 0.82343 0.79583 0.0
C1676 C 0.76991 0.82736 0.81216 0.0
C1677 C 0.74984 0.82338 0.76484 0.0
C1678 C 0.7914 0.82899 0.79716 0.0
C1679 C 0.79216 0.82826 0.76633 0.0
H1680 H 0.92325 0.01483 0.45542 0.0
H1681 H 0.91321 0.94001 0.46141 0.0
H1682 H 0.91573 0.94224 0.51525 0.0
H1683 H 0.91551 0.96605 0.56036 0.0
H1684 H 0.92194 0.04126 0.55412 0.0
H1685 H 0.92639 0.03825 0.50056 0.0
C1686 C 0.9221 0.99892 0.46843 0.0
C1687 C 0.91788 0.97729 0.45444 0.0
C1688 C 0.92267 0.00046 0.49935 0.0
C1689 C 0.91631 0.95688 0.47167 0.0
C1690 C 0.91768 0.95817 0.50245 0.0
C1691 C 0.91836 0.98176 0.54737 0.0
C1692 C 0.91823 0.00388 0.56116 0.0
C1693 C 0.92005 0.97996 0.51653 0.0
C1694 C 0.92181 0.02406 0.54399 0.0
C1695 C 0.9243 0.02234 0.51337 0.0
H1696 H 0.72042 0.17779 0.30072 0.0
H1697 H 0.79572 0.17607 0.30882 0.0
H1698 H 0.79968 0.17776 0.25527 0.0
H1699 H 0.78168 0.1743 0.20612 0.0
H1700 H 0.70641 0.17642 0.19799 0.0
H1701 H 0.70259 0.18032 0.25139 0.0
C1702 C 0.7377 0.17821 0.29078 0.0
C1703 C 0.75771 0.17638 0.30875 0.0
C1704 C 0.73989 0.17903 0.25989 0.0
C1705 C 0.77999 0.17731 0.29555 0.0
C1706 C 0.78229 0.17814 0.26486 0.0
C1707 C 0.76447 0.17602 0.216 0.0
C1708 C 0.74438 0.17465 0.19813 0.0
C1709 C 0.76236 0.17815 0.2468 0.0
C1710 C 0.72219 0.17728 0.21121 0.0
C1711 C 0.71996 0.17939 0.24181 0.0
H1712 H 0.58337 0.02252 0.95799 0.0
H1713 H 0.59247 0.94758 0.95177 0.0
H1714 H 0.58889 0.94406 1.00524 0.0
H1715 H 0.58788 0.96276 0.05416 0.0
H1716 H 0.57825 0.03765 0.06034 0.0
H1717 H 0.57698 0.04056 1.00667 0.0
C1718 C 0.58422 0.00539 0.9683 0.0
C1719 C 0.58856 0.98542 0.95092 0.0
C1720 C 0.58221 0.00345 0.99915 0.0
C1721 C 0.58927 0.96329 0.96459 0.0
C1722 C 0.58733 0.96124 0.99523 0.0
C1723 C 0.58512 0.97967 0.04377 0.0
C1724 C 0.58355 0.99997 0.06129 0.0
C1725 C 0.58451 0.98128 0.0128 0.0
C1726 C 0.57965 0.02171 0.04746 0.0
C1727 C 0.57904 0.02344 0.0167 0.0
H1728 H 0.70051 0.66435 0.71524 0.0
H1729 H 0.77406 0.67901 0.7033 0.0
H1730 H 0.77918 0.68235 0.75654 0.0
H1731 H 0.76388 0.67596 0.80662 0.0
H1732 H 0.69024 0.66195 0.81869 0.0
H1733 H 0.68405 0.6639 0.76547 0.0
C1734 C 0.71756 0.66868 0.72428 0.0
C1735 C 0.73692 0.67101 0.70532 0.0
C1736 C 0.72045 0.67052 0.75502 0.0
C1737 C 0.75885 0.67696 0.71735 0.0
C1738 C 0.76186 0.67877 0.74786 0.0
C1739 C 0.74641 0.67376 0.79762 0.0
C1740 C 0.72766 0.66843 0.81656 0.0
C1741 C 0.74295 0.67479 0.76693 0.0
C1742 C 0.70504 0.66597 0.80463 0.0
C1743 C 0.70148 0.66693 0.77413 0.0
H1744 H 0.58496 0.45258 0.96267 0.0
H1745 H 0.57153 0.5263 0.94947 0.0
H1746 H 0.57097 0.53254 1.00268 0.0
H1747 H 0.57876 0.51794 0.05287 0.0
H1748 H 0.59128 0.4441 0.06618 0.0
H1749 H 0.58747 0.4371 0.01329 0.0
C1750 C 0.58152 0.46993 0.97144 0.0
C1751 C 0.57865 0.48896 0.95202 0.0
C1752 C 0.58127 0.47348 1.00218 0.0
C1753 C 0.57393 0.5113 0.96381 0.0
C1754 C 0.57372 0.51496 0.99431 0.0
C1755 C 0.58032 0.50028 0.04422 0.0
C1756 C 0.58562 0.48166 0.06343 0.0
C1757 C 0.57808 0.49631 0.01369 0.0
C1758 C 0.58727 0.45881 0.05192 0.0
C1759 C 0.58521 0.45477 0.0216 0.0
H1760 H 0.78238 0.33126 0.30664 0.0
H1761 H 0.70681 0.32979 0.30615 0.0
H1762 H 0.70693 0.32461 0.25258 0.0
H1763 H 0.72828 0.32587 0.20566 0.0
H1764 H 0.80372 0.33066 0.20596 0.0
H1765 H 0.80388 0.32881 0.25989 0.0
C1766 C 0.76592 0.32933 0.29492 0.0
C1767 C 0.74459 0.33113 0.31035 0.0
C1768 C 0.76612 0.32717 0.26404 0.0
C1769 C 0.72345 0.32866 0.29478 0.0
C1770 C 0.72352 0.32575 0.26413 0.0
C1771 C 0.74481 0.32601 0.21745 0.0
C1772 C 0.76596 0.32861 0.2018 0.0
C1773 C 0.74472 0.3258 0.24846 0.0
C1774 C 0.78719 0.32884 0.21749 0.0
C1775 C 0.78729 0.32786 0.24833 0.0
H1776 H 0.92513 0.5355 0.55767 0.0
H1777 H 0.9295 0.46 0.55551 0.0
H1778 H 0.93324 0.46098 0.50175 0.0
H1779 H 0.92952 0.48283 0.45542 0.0
H1780 H 0.92151 0.55804 0.45757 0.0
H1781 H 0.92528 0.55767 0.51134 0.0
C1782 C 0.92743 0.51928 0.54553 0.0
C1783 C 0.92683 0.49769 0.56052 0.0
C1784 C 0.92865 0.51993 0.51459 0.0
C1785 C 0.92973 0.47683 0.54443 0.0
C1786 C 0.93179 0.47738 0.5137 0.0
C1787 C 0.92911 0.49921 0.46756 0.0
C1788 C 0.92501 0.52042 0.45255 0.0
C1789 C 0.9304 0.49877 0.4985 0.0
C1790 C 0.92445 0.54147 0.46865 0.0
C1791 C 0.92654 0.54126 0.49939 0.0
H1792 H 0.20476 0.33031 0.21543 0.0
H1793 H 0.27897 0.32138 0.20128 0.0
H1794 H 0.28548 0.31951 0.25438 0.0
H1795 H 0.27073 0.32524 0.30491 0.0
H1796 H 0.19643 0.33304 0.31919 0.0
H1797 H 0.18937 0.33021 0.26621 0.0
C1798 C 0.22229 0.32755 0.22398 0.0
C1799 C 0.24135 0.32636 0.2044 0.0
C1800 C 0.22597 0.32648 0.25465 0.0
C1801 C 0.26394 0.32246 0.21581 0.0
C1802 C 0.26774 0.32152 0.24624 0.0
C1803 C 0.25298 0.32592 0.29644 0.0
C1804 C 0.23421 0.32969 0.31593 0.0
C1805 C 0.24899 0.32425 0.26588 0.0
C1806 C 0.21124 0.33022 0.30468 0.0
C1807 C 0.20717 0.32873 0.27433 0.0
H1808 H 0.42243 0.47467 0.95373 0.0
H1809 H 0.4167 0.5495 0.94188 0.0
H1810 H 0.42024 0.55541 0.99502 0.0
H1811 H 0.41968 0.53897 0.04523 0.0
H1812 H 0.42601 0.46417 0.05699 0.0
H1813 H 0.4279 0.45871 1.00368 0.0
C1814 C 0.42236 0.49229 0.96275 0.0
C1815 C 0.4189 0.51156 0.94392 0.0
C1816 C 0.42432 0.49559 0.9934 0.0
C1817 C 0.41922 0.53432 0.95587 0.0
C1818 C 0.42111 0.53773 0.98632 0.0
C1819 C 0.4219 0.52153 0.03613 0.0
C1820 C 0.42228 0.50201 0.05506 0.0
C1821 C 0.42286 0.51845 1.00536 0.0
C1822 C 0.42551 0.47953 0.04295 0.0
C1823 C 0.42647 0.47634 0.01241 0.0
H1824 H 0.28024 0.67058 0.71366 0.0
H1825 H 0.20553 0.66987 0.69925 0.0
H1826 H 0.19874 0.6735 0.75219 0.0
H1827 H 0.21398 0.67218 0.80294 0.0
H1828 H 0.28868 0.67371 0.81736 0.0
H1829 H 0.29543 0.67485 0.76424 0.0
C1830 C 0.26249 0.67157 0.7221 0.0
C1831 C 0.24345 0.66959 0.70258 0.0
C1832 C 0.25866 0.67367 0.75264 0.0
C1833 C 0.22054 0.67125 0.71378 0.0
C1834 C 0.2166 0.67322 0.74411 0.0
C1835 C 0.23172 0.67317 0.79445 0.0
C1836 C 0.25077 0.67249 0.81409 0.0
C1837 C 0.23552 0.67374 0.76381 0.0
C1838 C 0.27365 0.6741 0.80277 0.0
C1839 C 0.27757 0.67461 0.77234 0.0
H1840 H 0.08121 0.47339 0.45783 0.0
H1841 H 0.08242 0.54898 0.45434 0.0
H1842 H 0.08145 0.55075 0.50826 0.0
H1843 H 0.08492 0.53082 0.5561 0.0
H1844 H 0.08656 0.45523 0.55933 0.0
H1845 H 0.08153 0.45348 0.50578 0.0
C1846 C 0.0808 0.49028 0.4688 0.0
C1847 C 0.08204 0.51104 0.45203 0.0
C1848 C 0.08101 0.49115 0.4998 0.0
C1849 C 0.0816 0.53275 0.46669 0.0
C1850 C 0.08113 0.53377 0.49754 0.0
C1851 C 0.08378 0.51394 0.54518 0.0
C1852 C 0.0863 0.49318 0.5617 0.0
C1853 C 0.08155 0.51308 0.5143 0.0
C1854 C 0.08485 0.47147 0.54714 0.0
C1855 C 0.082 0.47046 0.5165 0.0
H1856 H 0.35016 0.05676 0.17909 0.0
H1857 H 0.36347 0.02583 0.09371 0.0
H1858 H 0.33915 0.05548 0.0702 0.0
H1859 H 0.30797 0.08474 0.07534 0.0
H1860 H 0.29396 0.11493 0.16102 0.0
H1861 H 0.32503 0.09142 0.18268 0.0
C1862 C 0.34813 0.05678 0.1553 0.0
C1863 C 0.35791 0.03864 0.13838 0.0
C1864 C 0.33374 0.0736 0.14191 0.0
C1865 C 0.35575 0.03934 0.10742 0.0
C1866 C 0.34173 0.05625 0.09389 0.0
C1867 C 0.31204 0.08661 0.09858 0.0
C1868 C 0.29802 0.10089 0.11665 0.0
C1869 C 0.32963 0.07264 0.11113 0.0
C1870 C 0.30405 0.10361 0.14662 0.0
C1871 C 0.3218 0.09009 0.15914 0.0
H1872 H 0.13774 0.04129 0.41097 0.0
H1873 H 0.14771 0.05809 0.31891 0.0
H1874 H 0.17151 0.09183 0.33242 0.0
H1875 H 0.19591 0.11081 0.36958 0.0
H1876 H 0.18795 0.09248 0.46147 0.0
H1877 H 0.15641 0.06549 0.44888 0.0
C1878 C 0.14462 0.05263 0.39381 0.0
C1879 C 0.1418 0.0466 0.36389 0.0
C1880 C 0.15891 0.07156 0.40175 0.0
C1881 C 0.15039 0.0618 0.34204 0.0
C1882 C 0.16395 0.08116 0.34978 0.0
C1883 C 0.18694 0.10139 0.38703 0.0
C1884 C 0.19502 0.10282 0.41632 0.0
C1885 C 0.16942 0.08532 0.37948 0.0
C1886 C 0.18274 0.09095 0.43864 0.0
C1887 C 0.16465 0.07553 0.43143 0.0
H1888 H 0.1987 0.89169 0.64598 0.0
H1889 H 0.1974 0.91678 0.55599 0.0
H1890 H 0.16504 0.94296 0.56805 0.0
H1891 H 0.14364 0.9644 0.6062 0.0
H1892 H 0.14716 0.94131 0.69678 0.0
H1893 H 0.17193 0.90844 0.68236 0.0
C1894 C 0.19099 0.90244 0.62878 0.0
C1895 C 0.20093 0.90285 0.60038 0.0
C1896 C 0.17308 0.91813 0.63612 0.0
C1897 C 0.1904 0.91652 0.57823 0.0
C1898 C 0.17195 0.93158 0.58512 0.0
C1899 C 0.14931 0.95185 0.62272 0.0
C1900 C 0.14441 0.9558 0.65274 0.0
C1901 C 0.16413 0.93347 0.61436 0.0
C1902 C 0.15151 0.93916 0.67374 0.0
C1903 C 0.16559 0.92031 0.66546 0.0
H1904 H 0.35928 0.96567 0.9154 0.0
H1905 H 0.35722 0.94097 0.82542 0.0
H1906 H 0.33197 0.90852 0.84003 0.0
H1907 H 0.30449 0.89255 0.8761 0.0
H1908 H 0.3043 0.91923 0.96539 0.0
H1909 H 0.33698 0.94506 0.95353 0.0
C1910 C 0.35386 0.95282 0.89912 0.0
C1911 C 0.35936 0.95615 0.86916 0.0
C1912 C 0.33871 0.93471 0.90754 0.0
C1913 C 0.35248 0.93922 0.84841 0.0
C1914 C 0.3381 0.92063 0.85679 0.0
C1915 C 0.31192 0.90359 0.8932 0.0
C1916 C 0.3015 0.90451 0.92131 0.0
C1917 C 0.33006 0.91905 0.88595 0.0
C1918 C 0.31167 0.91857 0.94336 0.0
C1919 C 0.33032 0.93342 0.93658 0.0
H1920 H 0.64429 0.94244 0.89253 0.0
H1921 H 0.67258 0.94551 0.80416 0.0
H1922 H 0.69951 0.91363 0.81588 0.0
H1923 H 0.72022 0.89128 0.85397 0.0
H1924 H 0.69408 0.89098 0.9433 0.0
H1925 H 0.66086 0.91515 0.92838 0.0
C1926 C 0.65595 0.93582 0.87557 0.0
C1927 C 0.6569 0.94681 0.84778 0.0
C1928 C 0.67203 0.91821 0.88281 0.0
C1929 C 0.67182 0.93767 0.82593 0.0
C1930 C 0.68729 0.91949 0.83264 0.0
C1931 C 0.70687 0.8959 0.86999 0.0
C1932 C 0.7099 0.88997 0.89989 0.0
C1933 C 0.68838 0.91056 0.86146 0.0
C1934 C 0.69244 0.89595 0.92036 0.0
C1935 C 0.67345 0.90974 0.91181 0.0
H1936 H 0.85294 0.96308 0.60874 0.0
H1937 H 0.84079 0.95141 0.7017 0.0
H1938 H 0.8152 0.91844 0.69007 0.0
H1939 H 0.7914 0.89761 0.65369 0.0
H1940 H 0.80021 0.91236 0.56085 0.0
H1941 H 0.83225 0.93927 0.57223 0.0
C1942 C 0.84515 0.95299 0.62651 0.0
C1943 C 0.84854 0.95984 0.65604 0.0
C1944 C 0.82959 0.93481 0.61964 0.0
C1945 C 0.8383 0.9466 0.67878 0.0
C1946 C 0.82358 0.92781 0.67214 0.0
C1947 C 0.80067 0.9063 0.63588 0.0
C1948 C 0.79327 0.90329 0.60651 0.0
C1949 C 0.81833 0.92246 0.64266 0.0
C1950 C 0.80543 0.91466 0.58368 0.0
C1951 C 0.8237 0.93006 0.59017 0.0
H1952 H 0.85178 0.05673 0.33774 0.0
H1953 H 0.85856 0.0237 0.42306 0.0
H1954 H 0.8355 0.05485 0.44556 0.0
H1955 H 0.80715 0.08678 0.43903 0.0
H1956 H 0.80001 0.11935 0.35337 0.0
H1957 H 0.82971 0.09334 0.33326 0.0
C1958 C 0.84863 0.0566 0.36134 0.0
C1959 C 0.85619 0.03754 0.37845 0.0
C1960 C 0.83499 0.07433 0.37409 0.0
C1961 C 0.85258 0.03797 0.4092 0.0
C1962 C 0.83926 0.05572 0.42212 0.0
C1963 C 0.81248 0.08857 0.41614 0.0
C1964 C 0.8008 0.10445 0.39756 0.0
C1965 C 0.82936 0.07328 0.40449 0.0
C1966 C 0.80833 0.10693 0.36811 0.0
C1967 C 0.8253 0.092 0.35648 0.0
H1968 H 0.63724 0.04907 0.1103 0.0
H1969 H 0.65102 0.06486 0.20191 0.0
H1970 H 0.67493 0.09829 0.18736 0.0
H1971 H 0.69876 0.11664 0.14905 0.0
H1972 H 0.68765 0.09842 0.05759 0.0
H1973 H 0.65539 0.07277 0.07162 0.0
C1974 C 0.64493 0.06016 0.12717 0.0
C1975 C 0.64312 0.05393 0.15716 0.0
C1976 C 0.65945 0.07874 0.11861 0.0
C1977 C 0.65278 0.06881 0.17867 0.0
C1978 C 0.66647 0.08795 0.17035 0.0
C1979 C 0.68891 0.10759 0.13203 0.0
C1980 C 0.69623 0.10869 0.10239 0.0
C1981 C 0.67108 0.09211 0.14039 0.0
C1982 C 0.6829 0.09726 0.08064 0.0
C1983 C 0.66445 0.08255 0.08868 0.0
H1984 H 0.80769 0.59715 0.58126 0.0
H1985 H 0.78435 0.61645 0.66865 0.0
H1986 H 0.81551 0.59314 0.69048 0.0
H1987 H 0.84394 0.56126 0.68479 0.0
H1988 H 0.86662 0.54122 0.59738 0.0
H1989 H 0.84155 0.57111 0.57574 0.0
C1990 C 0.80967 0.59664 0.60504 0.0
C1991 C 0.79313 0.60779 0.6232 0.0
C1992 C 0.82736 0.58278 0.61757 0.0
C1993 C 0.79649 0.6076 0.65403 0.0
C1994 C 0.81428 0.59417 0.66663 0.0
C1995 C 0.84377 0.56373 0.66106 0.0
C1996 C 0.85649 0.54846 0.64277 0.0
C1997 C 0.82896 0.58067 0.64863 0.0
C1998 C 0.85663 0.5524 0.61206 0.0
C1999 C 0.8422 0.56945 0.59957 0.0
H2000 H 0.69154 0.60766 0.86999 0.0
H2001 H 0.69544 0.57954 0.95841 0.0
H2002 H 0.66376 0.55228 0.94709 0.0
H2003 H 0.64117 0.53149 0.90943 0.0
H2004 H 0.64041 0.55714 0.8198 0.0
H2005 H 0.66435 0.59063 0.83438 0.0
C2006 C 0.68513 0.59595 0.88704 0.0
C2007 C 0.69624 0.59518 0.91475 0.0
C2008 C 0.66767 0.57968 0.88001 0.0
C2009 C 0.68748 0.58015 0.93671 0.0
C2010 C 0.6694 0.56452 0.93023 0.0
C2011 C 0.64568 0.54475 0.89324 0.0
C2012 C 0.6396 0.54156 0.86342 0.0
C2013 C 0.66028 0.56333 0.90151 0.0
C2014 C 0.6454 0.55894 0.84274 0.0
C2015 C 0.6591 0.57807 0.85106 0.0
H2016 H 0.64309 0.44417 0.11985 0.0
H2017 H 0.67131 0.44788 0.20825 0.0
H2018 H 0.69801 0.41571 0.19709 0.0
H2019 H 0.71846 0.39268 0.15949 0.0
H2020 H 0.69238 0.3916 0.0701 0.0
H2021 H 0.65941 0.41627 0.08452 0.0
C2022 C 0.65471 0.43764 0.13693 0.0
C2023 C 0.6557 0.44886 0.16455 0.0
C2024 C 0.67061 0.41979 0.13004 0.0
C2025 C 0.67055 0.43987 0.18658 0.0
C2026 C 0.68587 0.4215 0.1802 0.0
C2027 C 0.70518 0.39725 0.14335 0.0
C2028 C 0.70817 0.39095 0.11358 0.0
C2029 C 0.68686 0.41222 0.15156 0.0
C2030 C 0.69077 0.39683 0.09296 0.0
C2031 C 0.67194 0.41094 0.10121 0.0
H2032 H 0.84908 0.44586 0.33127 0.0
H2033 H 0.86722 0.47132 0.4181 0.0
H2034 H 0.84196 0.442 0.44055 0.0
H2035 H 0.80886 0.41492 0.435 0.0
H2036 H 0.79017 0.39007 0.348 0.0
H2037 H 0.82157 0.41318 0.32636 0.0
C2038 C 0.84789 0.44471 0.35509 0.0
C2039 C 0.85932 0.46135 0.37283 0.0
C2040 C 0.83287 0.42816 0.36792 0.0
C2041 C 0.85824 0.45905 0.40377 0.0
C2042 C 0.84364 0.44236 0.41671 0.0
C2043 C 0.81196 0.41416 0.41138 0.0
C2044 C 0.79671 0.40138 0.39311 0.0
C2045 C 0.82989 0.42775 0.39893 0.0
C2046 C 0.80135 0.40012 0.36261 0.0
C2047 C 0.81929 0.41339 0.35013 0.0
H2048 H 0.19636 0.39035 0.36406 0.0
H2049 H 0.18795 0.40971 0.45553 0.0
H2050 H 0.15648 0.43649 0.4424 0.0
H2051 H 0.13783 0.4602 0.404 0.0
H2052 H 0.1475 0.44191 0.3124 0.0
H2053 H 0.17161 0.40856 0.32653 0.0
C2054 C 0.1873 0.39996 0.38129 0.0
C2055 C 0.19531 0.39891 0.41063 0.0
C2056 C 0.16964 0.41579 0.37343 0.0
C2057 C 0.18292 0.41102 0.43266 0.0
C2058 C 0.1648 0.42628 0.42515 0.0
C2059 C 0.14467 0.44857 0.38711 0.0
C2060 C 0.1418 0.45414 0.35709 0.0
C2061 C 0.15904 0.42982 0.39542 0.0
C2062 C 0.15035 0.43862 0.33557 0.0
C2063 C 0.16405 0.41946 0.34367 0.0
H2064 H 0.31069 0.39812 0.0835 0.0
H2065 H 0.28238 0.38642 0.17064 0.0
H2066 H 0.31185 0.41226 0.1918 0.0
H2067 H 0.33992 0.44413 0.18406 0.0
H2068 H 0.36765 0.45646 0.09668 0.0
H2069 H 0.34429 0.42429 0.07728 0.0
C2070 C 0.31124 0.40084 0.10716 0.0
C2071 C 0.29383 0.39107 0.12524 0.0
C2072 C 0.3279 0.41616 0.11915 0.0
C2073 C 0.29529 0.39411 0.15604 0.0
C2074 C 0.31207 0.40902 0.16821 0.0
C2075 C 0.34132 0.43944 0.16093 0.0
C2076 C 0.35495 0.45316 0.14175 0.0
C2077 C 0.32758 0.42113 0.14975 0.0
C2078 C 0.35692 0.44651 0.11191 0.0
C2079 C 0.34352 0.42812 0.10071 0.0
H2080 H 0.35767 0.55033 0.89563 0.0
H2081 H 0.33517 0.55711 0.80495 0.0
H2082 H 0.30925 0.58933 0.81884 0.0
H2083 H 0.28777 0.60966 0.85776 0.0
H2084 H 0.30726 0.59961 0.94901 0.0
H2085 H 0.33989 0.57473 0.9338 0.0
C2086 C 0.34752 0.55918 0.87872 0.0
C2087 C 0.34791 0.55099 0.8494 0.0
C2088 C 0.33186 0.57683 0.88708 0.0
C2089 C 0.33487 0.56284 0.82776 0.0
C2090 C 0.31999 0.58119 0.83571 0.0
C2091 C 0.29946 0.60249 0.87435 0.0
C2092 C 0.29473 0.60592 0.90455 0.0
C2093 C 0.31749 0.58744 0.86551 0.0
C2094 C 0.31018 0.59672 0.92569 0.0
C2095 C 0.32884 0.58251 0.91699 0.0
H2096 H 0.20137 0.6129 0.65136 0.0
H2097 H 0.19574 0.59095 0.56031 0.0
H2098 H 0.16347 0.56491 0.57322 0.0
H2099 H 0.14313 0.54273 0.61152 0.0
H2100 H 0.1518 0.56183 0.70314 0.0
H2101 H 0.1763 0.59495 0.68875 0.0
C2102 C 0.19276 0.60285 0.63416 0.0
C2103 C 0.20138 0.6034 0.60504 0.0
C2104 C 0.17498 0.58713 0.64195 0.0
C2105 C 0.18973 0.59056 0.58299 0.0
C2106 C 0.17133 0.57557 0.59038 0.0
C2107 C 0.14985 0.55447 0.62836 0.0
C2108 C 0.14624 0.5494 0.65844 0.0
C2109 C 0.16474 0.5728 0.62001 0.0
C2110 C 0.15482 0.56499 0.67989 0.0
C2111 C 0.16886 0.58391 0.67167 0.0
H2112 H 0.24784 0.20735 0.04664 0.0
H2113 H 0.17317 0.19923 0.05417 0.0
H2114 H 0.16786 0.24171 0.04984 0.0
H2115 H 0.18513 0.28125 0.05225 0.0
H2116 H 0.26 0.28937 0.04801 0.0
H2117 H 0.26478 0.24696 0.04219 0.0
C2118 C 0.23042 0.21494 0.0462 0.0
C2119 C 0.21087 0.20044 0.05038 0.0
C2120 C 0.22765 0.23938 0.04474 0.0
C2121 C 0.18835 0.21024 0.05052 0.0
C2122 C 0.18537 0.23448 0.04838 0.0
C2123 C 0.20239 0.27367 0.04922 0.0
C2124 C 0.22219 0.28818 0.05042 0.0
C2125 C 0.20496 0.24926 0.0467 0.0
C2126 C 0.24454 0.2784 0.04679 0.0
C2127 C 0.24726 0.25418 0.04373 0.0
H2128 H 0.96228 0.92922 0.29994 0.0
H2129 H 0.95178 0.00394 0.29803 0.0
H2130 H 0.99405 0.01022 0.29412 0.0
H2131 H 0.034 0.99452 0.29976 0.0
H2132 H 0.04451 0.91999 0.30566 0.0
H2133 H 0.0024 0.91332 0.29923 0.0
C2134 C 0.96934 0.9468 0.29781 0.0
C2135 C 0.95415 0.9661 0.29912 0.0
C2136 C 0.99367 0.95023 0.29667 0.0
C2137 C 0.96326 0.98885 0.29666 0.0
C2138 C 0.9874 0.99244 0.29475 0.0
C2139 C 0.02702 0.97686 0.29861 0.0
C2140 C 0.04203 0.95772 0.30284 0.0
C2141 C 0.00279 0.9733 0.29589 0.0
C2142 C 0.03307 0.93486 0.30203 0.0
C2143 C 0.00905 0.93111 0.29861 0.0
H2144 H 0.26002 0.71585 0.53296 0.0
H2145 H 0.3276 0.70751 0.57375 0.0
H2146 H 0.33407 0.74987 0.57174 0.0
H2147 H 0.31715 0.78936 0.56704 0.0
H2148 H 0.24893 0.79802 0.52813 0.0
H2149 H 0.246 0.75561 0.5202 0.0
C2150 C 0.27648 0.72335 0.54029 0.0
C2151 C 0.29334 0.70885 0.5535 0.0
C2152 C 0.2797 0.74779 0.53987 0.0
C2153 C 0.31452 0.71853 0.56336 0.0
C2154 C 0.31809 0.74272 0.56249 0.0
C2155 C 0.30202 0.78191 0.55599 0.0
C2156 C 0.28322 0.7965 0.5483 0.0
C2157 C 0.30033 0.75756 0.5521 0.0
C2158 C 0.26359 0.78694 0.5341 0.0
C2159 C 0.26186 0.76272 0.5298 0.0
H2160 H 0.46964 0.06584 0.80386 0.0
H2161 H 0.45651 0.99233 0.79021 0.0
H2162 H 0.49842 0.98524 0.78318 0.0
H2163 H 0.53894 0.99897 0.79006 0.0
H2164 H 0.5522 0.07201 0.80676 0.0
H2165 H 0.51023 0.08058 0.80305 0.0
C2166 C 0.47603 0.04846 0.79836 0.0
C2167 C 0.46027 0.02961 0.79744 0.0
C2168 C 0.50016 0.04448 0.79528 0.0
C2169 C 0.46847 0.00707 0.79069 0.0
C2170 C 0.4924 0.003 0.78697 0.0
C2171 C 0.53258 0.01684 0.79173 0.0
C2172 C 0.54832 0.03493 0.79836 0.0
C2173 C 0.50845 0.0214 0.79046 0.0
C2174 C 0.54019 0.05798 0.80122 0.0
C2175 C 0.51624 0.0628 0.79939 0.0
H2176 H 0.18501 0.79095 0.9596 0.0
H2177 H 0.25717 0.79799 0.98549 0.0
H2178 H 0.26017 0.75546 0.99239 0.0
H2179 H 0.24397 0.71609 0.98221 0.0
H2180 H 0.1721 0.7093 0.95489 0.0
H2181 H 0.16685 0.75179 0.95816 0.0
C2182 C 0.20109 0.78312 0.9677 0.0
C2183 C 0.22086 0.79727 0.97205 0.0
C2184 C 0.2027 0.75871 0.97115 0.0
C2185 C 0.24176 0.78722 0.98223 0.0
C2186 C 0.24349 0.76295 0.98596 0.0
C2187 C 0.22697 0.72396 0.97819 0.0
C2188 C 0.2084 0.70984 0.9684 0.0
C2189 C 0.22434 0.74845 0.97931 0.0
C2190 C 0.1865 0.72001 0.96271 0.0
C2191 C 0.1836 0.74427 0.96425 0.0
H2192 H 0.53937 0.99893 0.22259 0.0
H2193 H 0.5496 0.92446 0.21483 0.0
H2194 H 0.50744 0.91788 0.22058 0.0
H2195 H 0.46743 0.93398 0.21919 0.0
H2196 H 0.45714 0.00867 0.22293 0.0
H2197 H 0.49939 0.01471 0.22815 0.0
C2198 C 0.53232 0.98128 0.22326 0.0
C2199 C 0.54729 0.96214 0.21863 0.0
C2200 C 0.50803 0.97778 0.22553 0.0
C2201 C 0.53821 0.93933 0.21879 0.0
C2202 C 0.51415 0.93562 0.22179 0.0
C2203 C 0.47451 0.95148 0.22208 0.0
C2204 C 0.45942 0.97086 0.22078 0.0
C2205 C 0.49883 0.95478 0.22396 0.0
C2206 C 0.46855 0.99352 0.22423 0.0
C2207 C 0.49268 0.99697 0.22688 0.0
H2208 H 0.25111 0.21338 0.48385 0.0
H2209 H 0.32189 0.20513 0.4529 0.0
H2210 H 0.32797 0.24755 0.45545 0.0
H2211 H 0.31054 0.28697 0.45727 0.0
H2212 H 0.2391 0.29545 0.48554 0.0
H2213 H 0.23578 0.25312 0.49386 0.0
C2214 C 0.2681 0.22092 0.47888 0.0
C2215 C 0.28612 0.20641 0.46841 0.0
C2216 C 0.27113 0.24538 0.47946 0.0
C2217 C 0.30795 0.21615 0.46135 0.0
C2218 C 0.31131 0.24036 0.4625 0.0
C2219 C 0.29457 0.27952 0.46625 0.0
C2220 C 0.27509 0.29403 0.47085 0.0
C2221 C 0.29269 0.25519 0.47018 0.0
C2222 C 0.25432 0.28444 0.48212 0.0
C2223 C 0.25239 0.26026 0.48659 0.0
H2224 H 0.03579 0.07028 0.71127 0.0
H2225 H 0.04282 0.99641 0.7284 0.0
H2226 H 0.00037 0.99292 0.73476 0.0
H2227 H 0.96112 0.00966 0.72631 0.0
H2228 H 0.95413 0.08291 0.70552 0.0
H2229 H 0.99655 0.08821 0.71021 0.0
C2230 C 0.02796 0.05363 0.71733 0.0
C2231 C 0.04216 0.03363 0.71946 0.0
C2232 C 0.00354 0.05169 0.71997 0.0
C2233 C 0.03208 0.01203 0.72698 0.0
C2234 C 0.00784 0.01002 0.73033 0.0
C2235 C 0.96893 0.0269 0.724 0.0
C2236 C 0.9548 0.04596 0.71593 0.0
C2237 C 0.99335 0.02953 0.72565 0.0
C2238 C 0.96485 0.06817 0.7122 0.0
C2239 C 0.98907 0.0711 0.71455 0.0
H2240 H 0.8181 0.78143 0.9702 0.0
H2241 H 0.74491 0.79909 0.97551 0.0
H2242 H 0.73472 0.75759 0.97994 0.0
H2243 H 0.74632 0.71636 0.97322 0.0
H2244 H 0.81929 0.69847 0.96608 0.0
H2245 H 0.83013 0.73982 0.9719 0.0
C2246 C 0.80004 0.77611 0.9734 0.0
C2247 C 0.78224 0.79308 0.97267 0.0
C2248 C 0.79433 0.75218 0.97519 0.0
C2249 C 0.75884 0.78621 0.97637 0.0
C2250 C 0.75302 0.7625 0.97859 0.0
C2251 C 0.76459 0.72155 0.97407 0.0
C2252 C 0.78206 0.70466 0.96946 0.0
C2253 C 0.77054 0.74532 0.97677 0.0
C2254 C 0.80568 0.71132 0.97 0.0
C2255 C 0.81181 0.73494 0.97302 0.0
H2256 H 0.75337 0.21931 0.47689 0.0
H2257 H 0.68042 0.20804 0.45772 0.0
H2258 H 0.67261 0.25001 0.46316 0.0
H2259 H 0.68822 0.29022 0.4634 0.0
H2260 H 0.76158 0.30173 0.47967 0.0
H2261 H 0.76767 0.25953 0.48612 0.0
C2262 C 0.73565 0.22605 0.47518 0.0
C2263 C 0.71741 0.21085 0.46718 0.0
C2264 C 0.73152 0.25029 0.47737 0.0
C2265 C 0.69457 0.21957 0.46428 0.0
C2266 C 0.69019 0.24355 0.46707 0.0
C2267 C 0.70532 0.28344 0.46945 0.0
C2268 C 0.72446 0.2988 0.47098 0.0
C2269 C 0.70873 0.25916 0.47219 0.0
C2270 C 0.74662 0.29008 0.47857 0.0
C2271 C 0.75012 0.26596 0.48193 0.0
H2272 H 0.75553 0.21412 0.03367 0.0
H2273 H 0.82833 0.20205 0.0529 0.0
H2274 H 0.83646 0.24406 0.04844 0.0
H2275 H 0.82117 0.28442 0.04855 0.0
H2276 H 0.7478 0.29652 0.03293 0.0
H2277 H 0.74142 0.25447 0.02583 0.0
C2278 C 0.77328 0.22073 0.03564 0.0
C2279 C 0.79141 0.20531 0.0433 0.0
C2280 C 0.77755 0.24493 0.03416 0.0
C2281 C 0.81429 0.2138 0.04657 0.0
C2282 C 0.81884 0.23778 0.04436 0.0
C2283 C 0.804 0.27778 0.04263 0.0
C2284 C 0.78497 0.29328 0.04125 0.0
C2285 C 0.8004 0.25357 0.03955 0.0
C2286 C 0.76268 0.28476 0.03385 0.0
C2287 C 0.75902 0.26074 0.03007 0.0
H2288 H 0.68262 0.78599 0.55425 0.0
H2289 H 0.75608 0.79129 0.53423 0.0
H2290 H 0.75852 0.7487 0.52802 0.0
H2291 H 0.74124 0.70995 0.53823 0.0
H2292 H 0.66799 0.7047 0.55971 0.0
H2293 H 0.66363 0.74721 0.55485 0.0
C2294 C 0.69886 0.77777 0.54736 0.0
C2295 C 0.71913 0.79142 0.54454 0.0
C2296 C 0.70017 0.75331 0.54457 0.0
C2297 C 0.74028 0.78089 0.53614 0.0
C2298 C 0.74169 0.75658 0.53291 0.0
C2299 C 0.72419 0.71811 0.54067 0.0
C2300 C 0.70497 0.70451 0.54952 0.0
C2301 C 0.722 0.74256 0.53846 0.0
C2302 C 0.68296 0.71506 0.55295 0.0
C2303 C 0.68053 0.73932 0.55039 0.0
H2304 H 0.53108 0.42962 0.80015 0.0
H2305 H 0.54513 0.50298 0.78671 0.0
H2306 H 0.50345 0.51044 0.77835 0.0
H2307 H 0.46269 0.49707 0.78372 0.0
H2308 H 0.44844 0.42415 0.79983 0.0
H2309 H 0.49038 0.4152 0.7976 0.0
C2310 C 0.52495 0.44706 0.79456 0.0
C2311 C 0.54088 0.46576 0.79405 0.0
C2312 C 0.50094 0.45122 0.79039 0.0
C2313 C 0.53301 0.48836 0.787 0.0
C2314 C 0.50922 0.49263 0.78242 0.0
C2315 C 0.46884 0.47912 0.78543 0.0
C2316 C 0.45278 0.46119 0.79152 0.0
C2317 C 0.49295 0.47436 0.78519 0.0
C2318 C 0.46067 0.43805 0.79456 0.0
C2319 C 0.48461 0.43303 0.7937 0.0
H2320 H 0.03739 0.57093 0.29548 0.0
H2321 H 0.04447 0.49642 0.28382 0.0
H2322 H 0.00196 0.49254 0.27818 0.0
H2323 H 0.96277 0.50961 0.28632 0.0
H2324 H 0.95587 0.58395 0.30002 0.0
H2325 H 0.99821 0.58895 0.29446 0.0
C2326 C 0.02957 0.55404 0.29059 0.0
C2327 C 0.04373 0.53399 0.28998 0.0
C2328 C 0.00516 0.55196 0.28812 0.0
C2329 C 0.03369 0.51205 0.28407 0.0
C2330 C 0.00943 0.50984 0.28115 0.0
C2331 C 0.97055 0.52695 0.28688 0.0
C2332 C 0.9565 0.54642 0.29357 0.0
C2333 C 0.99494 0.52953 0.28448 0.0
C2334 C 0.96655 0.56882 0.29473 0.0
C2335 C 0.99072 0.57162 0.29184 0.0
H2336 H 0.04063 0.49691 0.72826 0.0
H2337 H 0.04679 0.42335 0.70861 0.0
H2338 H 0.00429 0.4187 0.71256 0.0
H2339 H 0.96534 0.43712 0.71254 0.0
H2340 H 0.95894 0.51116 0.7288 0.0
H2341 H 0.00138 0.5142 0.736 0.0
C2342 C 0.03261 0.47976 0.72595 0.0
C2343 C 0.04658 0.46044 0.71831 0.0
C2344 C 0.00811 0.47745 0.7273 0.0
C2345 C 0.03621 0.43834 0.71477 0.0
C2346 C 0.01195 0.43575 0.71677 0.0
C2347 C 0.97327 0.4537 0.71871 0.0
C2348 C 0.95927 0.47389 0.72021 0.0
C2349 C 0.99768 0.45538 0.72175 0.0
C2350 C 0.9695 0.4954 0.72783 0.0
C2351 C 0.99376 0.49715 0.7316 0.0
H2352 H 0.46211 0.50277 0.22401 0.0
H2353 H 0.45651 0.57561 0.20038 0.0
H2354 H 0.49899 0.58019 0.20464 0.0
H2355 H 0.53788 0.56141 0.20551 0.0
H2356 H 0.54368 0.48822 0.22715 0.0
H2357 H 0.50113 0.48567 0.23368 0.0
C2358 C 0.47021 0.51981 0.22105 0.0
C2359 C 0.45643 0.53887 0.21201 0.0
C2360 C 0.49472 0.52206 0.22263 0.0
C2361 C 0.46693 0.56082 0.20764 0.0
C2362 C 0.49121 0.56335 0.20973 0.0
C2363 C 0.52978 0.54519 0.21272 0.0
C2364 C 0.54362 0.52505 0.21602 0.0
C2365 C 0.50534 0.54382 0.21581 0.0
C2366 C 0.53319 0.50394 0.22484 0.0
C2367 C 0.5089 0.50246 0.22831 0.0
loop_
_geom_bond_atom_site_label_1
_geom_bond_atom_site_label_2
_geom_bond_distance
_geom_bond_site_symmetry_2
_ccdc_geom_bond_type
Co0 O3 1.970 . S
Co0 N17 1.989 . S
Co0 O25 1.967 . S
Co0 O32 1.920 . S
Co1 O4 1.966 . S
Co1 N10 2.022 . S
Co1 N18 1.993 . S
Co1 O26 1.941 . S
C2 O3 1.258 . S
C2 O4 1.263 . S
O3 Co0 1.970 . S
O3 C2 1.258 . S
O4 Co1 1.966 . S
O4 C2 1.263 . S
C5 O6 1.235 . S
C5 O32 1.289 . S
O6 C5 1.235 . S
C7 C9 1.400 . S
C7 N10 1.351 1_556 S
C7 C12 1.501 1_556 S
C8 C9 1.387 . S
C8 N11 1.341 . S
C9 C7 1.400 . S
C9 C8 1.387 . S
N10 Co1 2.022 . S
N10 C7 1.351 1_554 S
N10 N11 1.365 1_554 S
N11 C8 1.341 . S
N11 N10 1.365 1_556 S
N11 H31 0.862 1_556 S
C12 C7 1.501 1_554 S
C12 H13 0.961 . S
C12 H14 0.968 . S
C12 H15 0.960 1_554 S
H13 C12 0.961 . S
H14 C12 0.968 . S
H15 C12 0.960 1_556 S
C16 N17 1.342 . S
C16 C20 1.401 . S
C16 C21 1.499 . S
N17 Co0 1.989 . S
N17 C16 1.342 . S
N17 N18 1.388 . S
N18 Co1 1.993 . S
N18 N17 1.388 . S
N18 C19 1.346 . S
C19 N18 1.346 . S
C19 C20 1.396 . S
C19 C29 1.510 . S
C20 C16 1.401 . S
C20 C19 1.396 . S
C21 C16 1.499 . S
C21 H22 0.959 . S
C21 H23 0.960 . S
C21 H24 0.961 . S
H22 C21 0.959 . S
H23 C21 0.960 . S
H24 C21 0.961 . S
O25 Co0 1.967 . S
O25 C33 1.258 . S
O26 Co1 1.941 . S
O26 C33 1.266 . S
H27 C29 0.959 . S
H28 C29 0.961 . S
C29 C19 1.510 . S
C29 H27 0.959 . S
C29 H28 0.961 . S
C29 H30 0.960 . S
H30 C29 0.960 . S
H31 N11 0.862 1_554 S
O32 Co0 1.920 . S
O32 C5 1.289 . S
C33 O25 1.258 . S
C33 O26 1.266 . S
Co34 O37 1.970 1_565 S
Co34 N51 1.989 . S
Co34 O59 1.967 . S
Co34 O66 1.920 . S
Co35 O38 2.003 . S
Co35 N44 2.022 . S
Co35 N52 1.993 . S
Co35 O60 1.941 . S
C36 O37 1.258 . S
C36 O38 1.240 1_545 S
O37 Co34 1.970 1_545 S
O37 C36 1.258 . S
O38 Co35 2.003 . S
O38 C36 1.240 1_565 S
C39 O40 1.235 1_565 S
C39 O66 1.289 . S
O40 C39 1.235 1_545 S
C41 C43 1.400 . S
C41 N44 1.351 . S
C41 C46 1.501 1_565 S
C42 C43 1.387 . S
C42 N45 1.341 . S
C43 C41 1.400 . S
C43 C42 1.387 . S
N44 Co35 2.022 . S
N44 C41 1.351 . S
N44 N45 1.365 . S
N45 C42 1.341 . S
N45 N44 1.365 . S
N45 H65 0.862 . S
C46 C41 1.501 1_545 S
C46 H47 0.961 . S
C46 H48 0.961 . S
C46 H49 0.960 . S
H47 C46 0.961 . S
H48 C46 0.961 . S
H49 C46 0.960 . S
C50 N51 1.342 . S
C50 C54 1.401 . S
C50 C55 1.499 . S
N51 Co34 1.989 . S
N51 C50 1.342 . S
N51 N52 1.388 . S
N52 Co35 1.993 . S
N52 N51 1.388 . S
N52 C53 1.346 . S
C53 N52 1.346 . S
C53 C54 1.396 . S
C53 C63 1.510 . S
C54 C50 1.401 . S
C54 C53 1.396 . S
C55 C50 1.499 . S
C55 H56 0.959 . S
C55 H57 0.960 . S
C55 H58 0.961 . S
H56 C55 0.959 . S
H57 C55 0.960 . S
H58 C55 0.961 . S
O59 Co34 1.967 . S
O59 C67 1.258 . S
O60 Co35 1.941 . S
O60 C67 1.266 . S
H61 C63 0.959 . S
H62 C63 0.961 . S
C63 C53 1.510 . S
C63 H61 0.959 . S
C63 H62 0.961 . S
C63 H64 0.960 . S
H64 C63 0.960 . S
H65 N45 0.862 . S
O66 Co34 1.920 . S
O66 C39 1.289 . S
C67 O59 1.258 . S
C67 O60 1.266 . S
Co68 O71 1.970 . S
Co68 N85 1.989 . S
Co68 O93 1.967 . S
Co68 O100 1.920 . S
Co69 O72 1.966 . S
Co69 N78 2.022 . S
Co69 N86 1.993 . S
Co69 O94 1.941 . S
C70 O71 1.258 . S
C70 O72 1.263 . S
O71 Co68 1.970 . S
O71 C70 1.258 . S
O72 Co69 1.966 . S
O72 C70 1.263 . S
C73 O74 1.235 . S
C73 O100 1.289 . S
O74 C73 1.235 . S
C75 C77 1.400 . S
C75 N78 1.351 . S
C75 C80 1.501 . S
C76 C77 1.387 . S
C76 N79 1.341 . S
C77 C75 1.400 . S
C77 C76 1.387 . S
N78 Co69 2.022 . S
N78 C75 1.351 . S
N78 N79 1.365 . S
N79 C76 1.341 . S
N79 N78 1.365 . S
N79 H99 0.862 . S
C80 C75 1.501 . S
C80 H81 0.961 . S
C80 H82 0.961 . S
C80 H83 0.960 . S
H81 C80 0.961 . S
H82 C80 0.961 . S
H83 C80 0.960 . S
C84 N85 1.342 . S
C84 C88 1.401 . S
C84 C89 1.499 . S
N85 Co68 1.989 . S
N85 C84 1.342 . S
N85 N86 1.388 . S
N86 Co69 1.993 . S
N86 N85 1.388 . S
N86 C87 1.346 . S
C87 N86 1.346 . S
C87 C88 1.396 . S
C87 C97 1.510 . S
C88 C84 1.401 . S
C88 C87 1.396 . S
C89 C84 1.499 . S
C89 H90 0.959 . S
C89 H91 0.960 . S
C89 H92 0.961 . S
H90 C89 0.959 . S
H91 C89 0.960 . S
H92 C89 0.961 . S
O93 Co68 1.967 . S
O93 C101 1.258 . S
O94 Co69 1.941 . S
O94 C101 1.266 . S
H95 C97 0.959 . S
H96 C97 0.961 . S
C97 C87 1.510 . S
C97 H95 0.959 . S
C97 H96 0.961 . S
C97 H98 0.960 . S
H98 C97 0.960 . S
H99 N79 0.862 . S
O100 Co68 1.920 . S
O100 C73 1.289 . S
C101 O93 1.258 . S
C101 O94 1.266 . S
Co102 O105 1.970 1_545 S
Co102 N119 1.989 . S
Co102 O127 1.967 . S
Co102 O134 1.920 . S
Co103 O106 2.002 . S
Co103 N112 2.022 . S
Co103 N120 1.993 . S
Co103 O128 1.941 . S
C104 O105 1.258 . S
C104 O106 1.241 1_565 S
O105 Co102 1.970 1_565 S
O105 C104 1.258 . S
O106 Co103 2.002 . S
O106 C104 1.241 1_545 S
C107 O108 1.235 1_545 S
C107 O134 1.289 . S
O108 C107 1.235 1_565 S
C109 C111 1.400 . S
C109 N112 1.351 . S
C109 C114 1.501 1_545 S
C110 C111 1.387 . S
C110 N113 1.341 . S
C111 C109 1.400 . S
C111 C110 1.387 . S
N112 Co103 2.022 . S
N112 C109 1.351 . S
N112 N113 1.365 . S
N113 C110 1.341 . S
N113 N112 1.365 . S
N113 H133 0.862 . S
C114 C109 1.501 1_565 S
C114 H115 0.961 . S
C114 H116 0.961 . S
C114 H117 0.960 . S
H115 C114 0.961 . S
H116 C114 0.961 . S
H117 C114 0.960 . S
C118 N119 1.342 . S
C118 C122 1.401 . S
C118 C123 1.499 . S
N119 Co102 1.989 . S
N119 C118 1.342 . S
N119 N120 1.388 . S
N120 Co103 1.993 . S
N120 N119 1.388 . S
N120 C121 1.346 . S
C121 N120 1.346 . S
C121 C122 1.396 . S
C121 C131 1.510 . S
C122 C118 1.401 . S
C122 C121 1.396 . S
C123 C118 1.499 . S
C123 H124 0.959 . S
C123 H125 0.960 . S
C123 H126 0.961 . S
H124 C123 0.959 . S
H125 C123 0.960 . S
H126 C123 0.961 . S
O127 Co102 1.967 . S
O127 C135 1.258 . S
O128 Co103 1.941 . S
O128 C135 1.266 . S
H129 C131 0.959 . S
H130 C131 0.961 . S
C131 C121 1.510 . S
C131 H129 0.959 . S
C131 H130 0.961 . S
C131 H132 0.960 . S
H132 C131 0.960 . S
H133 N113 0.862 . S
O134 Co102 1.920 . S
O134 C107 1.289 . S
C135 O127 1.258 . S
C135 O128 1.266 . S
Co136 O139 1.970 . S
Co136 N153 1.989 . S
Co136 O161 1.967 . S
Co136 O168 1.920 . S
Co137 O140 1.966 . S
Co137 N146 2.022 . S
Co137 N154 1.993 . S
Co137 O162 1.941 . S
C138 O139 1.258 . S
C138 O140 1.263 . S
O139 Co136 1.970 . S
O139 C138 1.258 . S
O140 Co137 1.966 . S
O140 C138 1.263 . S
C141 O142 1.235 . S
C141 O168 1.289 . S
O142 C141 1.235 . S
C143 C145 1.400 . S
C143 N146 1.351 1_554 S
C143 C148 1.501 1_554 S
C144 C145 1.387 . S
C144 N147 1.341 . S
C145 C143 1.400 . S
C145 C144 1.387 . S
N146 Co137 2.022 . S
N146 C143 1.351 1_556 S
N146 N147 1.365 1_556 S
N147 C144 1.341 . S
N147 N146 1.365 1_554 S
N147 H167 0.862 1_554 S
C148 C143 1.501 1_556 S
C148 H149 0.961 . S
C148 H150 0.968 . S
C148 H151 0.960 1_556 S
H149 C148 0.961 . S
H150 C148 0.968 . S
H151 C148 0.960 1_554 S
C152 N153 1.342 . S
C152 C156 1.401 . S
C152 C157 1.499 . S
N153 Co136 1.989 . S
N153 C152 1.342 . S
N153 N154 1.388 . S
N154 Co137 1.993 . S
N154 N153 1.388 . S
N154 C155 1.346 . S
C155 N154 1.346 . S
C155 C156 1.396 . S
C155 C165 1.510 . S
C156 C152 1.401 . S
C156 C155 1.396 . S
C157 C152 1.499 . S
C157 H158 0.959 . S
C157 H159 0.960 . S
C157 H160 0.961 . S
H158 C157 0.959 . S
H159 C157 0.960 . S
H160 C157 0.961 . S
O161 Co136 1.967 . S
O161 C169 1.258 . S
O162 Co137 1.941 . S
O162 C169 1.266 . S
H163 C165 0.959 . S
H164 C165 0.961 . S
C165 C155 1.510 . S
C165 H163 0.959 . S
C165 H164 0.961 . S
C165 H166 0.960 . S
H166 C165 0.960 . S
H167 N147 0.862 1_556 S
O168 Co136 1.920 . S
O168 C141 1.289 . S
C169 O161 1.258 . S
C169 O162 1.266 . S
Co170 O173 1.970 1_565 S
Co170 N187 1.989 . S
Co170 O195 1.967 . S
Co170 O202 1.920 . S
Co171 O174 2.002 . S
Co171 N180 2.022 . S
Co171 N188 1.993 . S
Co171 O196 1.941 . S
C172 O173 1.258 . S
C172 O174 1.241 1_545 S
O173 Co170 1.970 1_545 S
O173 C172 1.258 . S
O174 Co171 2.002 . S
O174 C172 1.241 1_565 S
C175 O176 1.235 1_565 S
C175 O202 1.289 . S
O176 C175 1.235 1_545 S
C177 C179 1.400 . S
C177 N180 1.351 . S
C177 C182 1.501 1_565 S
C178 C179 1.387 . S
C178 N181 1.341 . S
C179 C177 1.400 . S
C179 C178 1.387 . S
N180 Co171 2.022 . S
N180 C177 1.351 . S
N180 N181 1.365 . S
N181 C178 1.341 . S
N181 N180 1.365 . S
N181 H201 0.862 . S
C182 C177 1.501 1_545 S
C182 H183 0.961 . S
C182 H184 0.961 . S
C182 H185 0.960 . S
H183 C182 0.961 . S
H184 C182 0.961 . S
H185 C182 0.960 . S
C186 N187 1.342 . S
C186 C190 1.401 . S
C186 C191 1.499 . S
N187 Co170 1.989 . S
N187 C186 1.342 . S
N187 N188 1.388 . S
N188 Co171 1.993 . S
N188 N187 1.388 . S
N188 C189 1.346 . S
C189 N188 1.346 . S
C189 C190 1.396 . S
C189 C199 1.510 . S
C190 C186 1.401 . S
C190 C189 1.396 . S
C191 C186 1.499 . S
C191 H192 0.959 . S
C191 H193 0.960 . S
C191 H194 0.961 . S
H192 C191 0.959 . S
H193 C191 0.960 . S
H194 C191 0.961 . S
O195 Co170 1.967 . S
O195 C203 1.258 . S
O196 Co171 1.941 . S
O196 C203 1.266 . S
H197 C199 0.959 . S
H198 C199 0.961 . S
C199 C189 1.510 . S
C199 H197 0.959 . S
C199 H198 0.961 . S
C199 H200 0.960 . S
H200 C199 0.960 . S
H201 N181 0.862 . S
O202 Co170 1.920 . S
O202 C175 1.289 . S
C203 O195 1.258 . S
C203 O196 1.266 . S
Co204 O207 1.970 . S
Co204 N221 1.989 . S
Co204 O229 1.967 . S
Co204 O236 1.920 . S
Co205 O208 1.966 . S
Co205 N214 2.022 . S
Co205 N222 1.993 . S
Co205 O230 1.941 . S
C206 O207 1.258 . S
C206 O208 1.263 . S
O207 Co204 1.970 . S
O207 C206 1.258 . S
O208 Co205 1.966 . S
O208 C206 1.263 . S
C209 O210 1.235 . S
C209 O236 1.289 . S
O210 C209 1.235 . S
C211 C213 1.400 . S
C211 N214 1.351 . S
C211 C216 1.501 . S
C212 C213 1.387 . S
C212 N215 1.341 . S
C213 C211 1.400 . S
C213 C212 1.387 . S
N214 Co205 2.022 . S
N214 C211 1.351 . S
N214 N215 1.365 . S
N215 C212 1.341 . S
N215 N214 1.365 . S
N215 H235 0.862 . S
C216 C211 1.501 . S
C216 H217 0.961 . S
C216 H218 0.961 . S
C216 H219 0.960 . S
H217 C216 0.961 . S
H218 C216 0.961 . S
H219 C216 0.960 . S
C220 N221 1.342 . S
C220 C224 1.401 . S
C220 C225 1.499 . S
N221 Co204 1.989 . S
N221 C220 1.342 . S
N221 N222 1.388 . S
N222 Co205 1.993 . S
N222 N221 1.388 . S
N222 C223 1.346 . S
C223 N222 1.346 . S
C223 C224 1.396 . S
C223 C233 1.510 . S
C224 C220 1.401 . S
C224 C223 1.396 . S
C225 C220 1.499 . S
C225 H226 0.959 . S
C225 H227 0.960 . S
C225 H228 0.961 . S
H226 C225 0.959 . S
H227 C225 0.960 . S
H228 C225 0.961 . S
O229 Co204 1.967 . S
O229 C237 1.258 . S
O230 Co205 1.941 . S
O230 C237 1.266 . S
H231 C233 0.959 . S
H232 C233 0.961 . S
C233 C223 1.510 . S
C233 H231 0.959 . S
C233 H232 0.961 . S
C233 H234 0.960 . S
H234 C233 0.960 . S
H235 N215 0.862 . S
O236 Co204 1.920 . S
O236 C209 1.289 . S
C237 O229 1.258 . S
C237 O230 1.266 . S
Co238 O241 1.970 1_545 S
Co238 N255 1.989 . S
Co238 O263 1.967 . S
Co238 O270 1.920 . S
Co239 O242 2.003 . S
Co239 N248 2.022 . S
Co239 N256 1.993 . S
Co239 O264 1.941 . S
C240 O241 1.258 . S
C240 O242 1.240 1_565 S
O241 Co238 1.970 1_565 S
O241 C240 1.258 . S
O242 Co239 2.003 . S
O242 C240 1.240 1_545 S
C243 O244 1.235 1_545 S
C243 O270 1.289 . S
O244 C243 1.235 1_565 S
C245 C247 1.400 . S
C245 N248 1.351 . S
C245 C250 1.501 1_545 S
C246 C247 1.387 . S
C246 N249 1.341 . S
C247 C245 1.400 . S
C247 C246 1.387 . S
N248 Co239 2.022 . S
N248 C245 1.351 . S
N248 N249 1.365 . S
N249 C246 1.341 . S
N249 N248 1.365 . S
N249 H269 0.862 . S
C250 C245 1.501 1_565 S
C250 H251 0.961 . S
C250 H252 0.961 . S
C250 H253 0.960 . S
H251 C250 0.961 . S
H252 C250 0.961 . S
H253 C250 0.960 . S
C254 N255 1.342 . S
C254 C258 1.401 . S
C254 C259 1.499 . S
N255 Co238 1.989 . S
N255 C254 1.342 . S
N255 N256 1.388 . S
N256 Co239 1.993 . S
N256 N255 1.388 . S
N256 C257 1.346 . S
C257 N256 1.346 . S
C257 C258 1.396 . S
C257 C267 1.510 . S
C258 C254 1.401 . S
C258 C257 1.396 . S
C259 C254 1.499 . S
C259 H260 0.959 . S
C259 H261 0.960 . S
C259 H262 0.961 . S
H260 C259 0.959 . S
H261 C259 0.960 . S
H262 C259 0.961 . S
O263 Co238 1.967 . S
O263 C271 1.258 . S
O264 Co239 1.941 . S
O264 C271 1.266 . S
H265 C267 0.959 . S
H266 C267 0.961 . S
C267 C257 1.510 . S
C267 H265 0.959 . S
C267 H266 0.961 . S
C267 H268 0.960 . S
H268 C267 0.960 . S
H269 N249 0.862 . S
O270 Co238 1.920 . S
O270 C243 1.289 . S
C271 O263 1.258 . S
C271 O264 1.266 . S
Co272 O275 1.970 . S
Co272 N289 1.989 . S
Co272 O297 1.967 . S
Co272 O304 1.920 . S
Co273 O276 1.966 . S
Co273 N282 2.022 . S
Co273 N290 1.993 . S
Co273 O298 1.941 . S
C274 O275 1.258 . S
C274 O276 1.263 . S
O275 Co272 1.970 . S
O275 C274 1.258 . S
O276 Co273 1.966 . S
O276 C274 1.263 . S
C277 O278 1.235 . S
C277 O304 1.289 . S
O278 C277 1.235 . S
C279 C281 1.400 . S
C279 N282 1.351 1_554 S
C279 C284 1.501 1_554 S
C280 C281 1.387 . S
C280 N283 1.341 . S
C281 C279 1.400 . S
C281 C280 1.387 . S
N282 Co273 2.022 . S
N282 C279 1.351 1_556 S
N282 N283 1.365 1_556 S
N283 C280 1.341 . S
N283 N282 1.365 1_554 S
N283 H303 0.862 1_554 S
C284 C279 1.501 1_556 S
C284 H285 0.961 . S
C284 H286 0.968 . S
C284 H287 0.960 1_556 S
H285 C284 0.961 . S
H286 C284 0.968 . S
H287 C284 0.960 1_554 S
C288 N289 1.342 . S
C288 C292 1.401 . S
C288 C293 1.499 . S
N289 Co272 1.989 . S
N289 C288 1.342 . S
N289 N290 1.388 . S
N290 Co273 1.993 . S
N290 N289 1.388 . S
N290 C291 1.346 . S
C291 N290 1.346 . S
C291 C292 1.396 . S
C291 C301 1.510 . S
C292 C288 1.401 . S
C292 C291 1.396 . S
C293 C288 1.499 . S
C293 H294 0.959 . S
C293 H295 0.960 . S
C293 H296 0.961 . S
H294 C293 0.959 . S
H295 C293 0.960 . S
H296 C293 0.961 . S
O297 Co272 1.967 . S
O297 C305 1.258 . S
O298 Co273 1.941 . S
O298 C305 1.266 . S
H299 C301 0.959 . S
H300 C301 0.961 . S
C301 C291 1.510 . S
C301 H299 0.959 . S
C301 H300 0.961 . S
C301 H302 0.960 . S
H302 C301 0.960 . S
H303 N283 0.862 1_556 S
O304 Co272 1.920 . S
O304 C277 1.289 . S
C305 O297 1.258 . S
C305 O298 1.266 . S
Co306 O309 1.970 1_545 S
Co306 N323 1.989 . S
Co306 O331 1.967 . S
Co306 O338 1.920 . S
Co307 O310 2.003 . S
Co307 N316 2.022 . S
Co307 N324 1.993 . S
Co307 O332 1.941 . S
C308 O309 1.258 . S
C308 O310 1.240 1_565 S
O309 Co306 1.970 1_565 S
O309 C308 1.258 . S
O310 Co307 2.003 . S
O310 C308 1.240 1_545 S
C311 O312 1.235 1_545 S
C311 O338 1.289 . S
O312 C311 1.235 1_565 S
C313 C315 1.400 . S
C313 N316 1.351 . S
C313 C318 1.501 1_545 S
C314 C315 1.387 . S
C314 N317 1.341 . S
C315 C313 1.400 . S
C315 C314 1.387 . S
N316 Co307 2.022 . S
N316 C313 1.351 . S
N316 N317 1.365 . S
N317 C314 1.341 . S
N317 N316 1.365 . S
N317 H337 0.862 . S
C318 C313 1.501 1_565 S
C318 H319 0.961 . S
C318 H320 0.961 . S
C318 H321 0.960 . S
H319 C318 0.961 . S
H320 C318 0.961 . S
H321 C318 0.960 . S
C322 N323 1.342 . S
C322 C326 1.401 . S
C322 C327 1.499 . S
N323 Co306 1.989 . S
N323 C322 1.342 . S
N323 N324 1.388 . S
N324 Co307 1.993 . S
N324 N323 1.388 . S
N324 C325 1.346 . S
C325 N324 1.346 . S
C325 C326 1.396 . S
C325 C335 1.510 . S
C326 C322 1.401 . S
C326 C325 1.396 . S
C327 C322 1.499 . S
C327 H328 0.959 . S
C327 H329 0.960 . S
C327 H330 0.961 . S
H328 C327 0.959 . S
H329 C327 0.960 . S
H330 C327 0.961 . S
O331 Co306 1.967 . S
O331 C339 1.258 . S
O332 Co307 1.941 . S
O332 C339 1.266 . S
H333 C335 0.959 . S
H334 C335 0.961 . S
C335 C325 1.510 . S
C335 H333 0.959 . S
C335 H334 0.961 . S
C335 H336 0.960 . S
H336 C335 0.960 . S
H337 N317 0.862 . S
O338 Co306 1.920 . S
O338 C311 1.289 . S
C339 O331 1.258 . S
C339 O332 1.266 . S
Co340 O343 1.970 . S
Co340 N357 1.989 . S
Co340 O365 1.967 . S
Co340 O372 1.920 . S
Co341 O344 1.966 . S
Co341 N350 2.022 . S
Co341 N358 1.993 . S
Co341 O366 1.941 . S
C342 O343 1.258 . S
C342 O344 1.263 . S
O343 Co340 1.970 . S
O343 C342 1.258 . S
O344 Co341 1.966 . S
O344 C342 1.263 . S
C345 O346 1.235 . S
C345 O372 1.289 . S
O346 C345 1.235 . S
C347 C349 1.400 . S
C347 N350 1.351 . S
C347 C352 1.501 . S
C348 C349 1.387 . S
C348 N351 1.341 . S
C349 C347 1.400 . S
C349 C348 1.387 . S
N350 Co341 2.022 . S
N350 C347 1.351 . S
N350 N351 1.365 . S
N351 C348 1.341 . S
N351 N350 1.365 . S
N351 H371 0.862 . S
C352 C347 1.501 . S
C352 H353 0.961 . S
C352 H354 0.961 . S
C352 H355 0.960 . S
H353 C352 0.961 . S
H354 C352 0.961 . S
H355 C352 0.960 . S
C356 N357 1.342 . S
C356 C360 1.401 . S
C356 C361 1.499 . S
N357 Co340 1.989 . S
N357 C356 1.342 . S
N357 N358 1.388 . S
N358 Co341 1.993 . S
N358 N357 1.388 . S
N358 C359 1.346 . S
C359 N358 1.346 . S
C359 C360 1.396 . S
C359 C369 1.510 . S
C360 C356 1.401 . S
C360 C359 1.396 . S
C361 C356 1.499 . S
C361 H362 0.959 . S
C361 H363 0.960 . S
C361 H364 0.961 . S
H362 C361 0.959 . S
H363 C361 0.960 . S
H364 C361 0.961 . S
O365 Co340 1.967 . S
O365 C373 1.258 . S
O366 Co341 1.941 . S
O366 C373 1.266 . S
H367 C369 0.959 . S
H368 C369 0.961 . S
C369 C359 1.510 . S
C369 H367 0.959 . S
C369 H368 0.961 . S
C369 H370 0.960 . S
H370 C369 0.960 . S
H371 N351 0.862 . S
O372 Co340 1.920 . S
O372 C345 1.289 . S
C373 O365 1.258 . S
C373 O366 1.266 . S
Co374 O377 1.970 1_565 S
Co374 N391 1.989 . S
Co374 O399 1.967 . S
Co374 O406 1.920 . S
Co375 O378 2.002 . S
Co375 N384 2.022 . S
Co375 N392 1.993 . S
Co375 O400 1.941 . S
C376 O377 1.258 . S
C376 O378 1.241 1_545 S
O377 Co374 1.970 1_545 S
O377 C376 1.258 . S
O378 Co375 2.002 . S
O378 C376 1.241 1_565 S
C379 O380 1.235 1_565 S
C379 O406 1.289 . S
O380 C379 1.235 1_545 S
C381 C383 1.400 . S
C381 N384 1.351 . S
C381 C386 1.501 1_565 S
C382 C383 1.387 . S
C382 N385 1.341 . S
C383 C381 1.400 . S
C383 C382 1.387 . S
N384 Co375 2.022 . S
N384 C381 1.351 . S
N384 N385 1.365 . S
N385 C382 1.341 . S
N385 N384 1.365 . S
N385 H405 0.862 . S
C386 C381 1.501 1_545 S
C386 H387 0.961 . S
C386 H388 0.961 . S
C386 H389 0.960 . S
H387 C386 0.961 . S
H388 C386 0.961 . S
H389 C386 0.960 . S
C390 N391 1.342 . S
C390 C394 1.401 . S
C390 C395 1.499 . S
N391 Co374 1.989 . S
N391 C390 1.342 . S
N391 N392 1.388 . S
N392 Co375 1.993 . S
N392 N391 1.388 . S
N392 C393 1.346 . S
C393 N392 1.346 . S
C393 C394 1.396 . S
C393 C403 1.510 . S
C394 C390 1.401 . S
C394 C393 1.396 . S
C395 C390 1.499 . S
C395 H396 0.959 . S
C395 H397 0.960 . S
C395 H398 0.961 . S
H396 C395 0.959 . S
H397 C395 0.960 . S
H398 C395 0.961 . S
O399 Co374 1.967 . S
O399 C407 1.258 . S
O400 Co375 1.941 . S
O400 C407 1.266 . S
H401 C403 0.959 . S
H402 C403 0.961 . S
C403 C393 1.510 . S
C403 H401 0.959 . S
C403 H402 0.961 . S
C403 H404 0.960 . S
H404 C403 0.960 . S
H405 N385 0.862 . S
O406 Co374 1.920 . S
O406 C379 1.289 . S
C407 O399 1.258 . S
C407 O400 1.266 . S
Co408 O411 1.970 . S
Co408 N425 1.989 . S
Co408 O433 1.967 . S
Co408 O440 1.920 . S
Co409 O412 1.966 . S
Co409 N418 2.022 . S
Co409 N426 1.993 . S
Co409 O434 1.941 . S
C410 O411 1.258 . S
C410 O412 1.263 . S
O411 Co408 1.970 . S
O411 C410 1.258 . S
O412 Co409 1.966 . S
O412 C410 1.263 . S
C413 O414 1.235 . S
C413 O440 1.289 . S
O414 C413 1.235 . S
C415 C417 1.400 . S
C415 N418 1.351 1_556 S
C415 C420 1.501 1_556 S
C416 C417 1.387 . S
C416 N419 1.341 . S
C417 C415 1.400 . S
C417 C416 1.387 . S
N418 Co409 2.022 . S
N418 C415 1.351 1_554 S
N418 N419 1.365 1_554 S
N419 C416 1.341 . S
N419 N418 1.365 1_556 S
N419 H439 0.862 1_556 S
C420 C415 1.501 1_554 S
C420 H421 0.961 . S
C420 H422 0.968 . S
C420 H423 0.960 1_554 S
H421 C420 0.961 . S
H422 C420 0.968 . S
H423 C420 0.960 1_556 S
C424 N425 1.342 . S
C424 C428 1.401 . S
C424 C429 1.499 . S
N425 Co408 1.989 . S
N425 C424 1.342 . S
N425 N426 1.388 . S
N426 Co409 1.993 . S
N426 N425 1.388 . S
N426 C427 1.346 . S
C427 N426 1.346 . S
C427 C428 1.396 . S
C427 C437 1.510 . S
C428 C424 1.401 . S
C428 C427 1.396 . S
C429 C424 1.499 . S
C429 H430 0.959 . S
C429 H431 0.960 . S
C429 H432 0.961 . S
H430 C429 0.959 . S
H431 C429 0.960 . S
H432 C429 0.961 . S
O433 Co408 1.967 . S
O433 C441 1.258 . S
O434 Co409 1.941 . S
O434 C441 1.266 . S
H435 C437 0.959 . S
H436 C437 0.961 . S
C437 C427 1.510 . S
C437 H435 0.959 . S
C437 H436 0.961 . S
C437 H438 0.960 . S
H438 C437 0.960 . S
H439 N419 0.862 1_554 S
O440 Co408 1.920 . S
O440 C413 1.289 . S
C441 O433 1.258 . S
C441 O434 1.266 . S
Co442 O445 1.970 1_545 S
Co442 N459 1.989 . S
Co442 O467 1.967 . S
Co442 O474 1.920 . S
Co443 O446 2.002 . S
Co443 N452 2.022 . S
Co443 N460 1.993 . S
Co443 O468 1.941 . S
C444 O445 1.258 . S
C444 O446 1.241 1_565 S
O445 Co442 1.970 1_565 S
O445 C444 1.258 . S
O446 Co443 2.002 . S
O446 C444 1.241 1_545 S
C447 O448 1.235 1_545 S
C447 O474 1.289 . S
O448 C447 1.235 1_565 S
C449 C451 1.400 . S
C449 N452 1.351 . S
C449 C454 1.501 1_545 S
C450 C451 1.387 . S
C450 N453 1.341 . S
C451 C449 1.400 . S
C451 C450 1.387 . S
N452 Co443 2.022 . S
N452 C449 1.351 . S
N452 N453 1.365 . S
N453 C450 1.341 . S
N453 N452 1.365 . S
N453 H473 0.862 . S
C454 C449 1.501 1_565 S
C454 H455 0.961 . S
C454 H456 0.961 . S
C454 H457 0.960 . S
H455 C454 0.961 . S
H456 C454 0.961 . S
H457 C454 0.960 . S
C458 N459 1.342 . S
C458 C462 1.401 . S
C458 C463 1.499 . S
N459 Co442 1.989 . S
N459 C458 1.342 . S
N459 N460 1.388 . S
N460 Co443 1.993 . S
N460 N459 1.388 . S
N460 C461 1.346 . S
C461 N460 1.346 . S
C461 C462 1.396 . S
C461 C471 1.510 . S
C462 C458 1.401 . S
C462 C461 1.396 . S
C463 C458 1.499 . S
C463 H464 0.959 . S
C463 H465 0.960 . S
C463 H466 0.961 . S
H464 C463 0.959 . S
H465 C463 0.960 . S
H466 C463 0.961 . S
O467 Co442 1.967 . S
O467 C475 1.258 . S
O468 Co443 1.941 . S
O468 C475 1.266 . S
H469 C471 0.959 . S
H470 C471 0.961 . S
C471 C461 1.510 . S
C471 H469 0.959 . S
C471 H470 0.961 . S
C471 H472 0.960 . S
H472 C471 0.960 . S
H473 N453 0.862 . S
O474 Co442 1.920 . S
O474 C447 1.289 . S
C475 O467 1.258 . S
C475 O468 1.266 . S
Co476 O479 1.970 . S
Co476 N493 1.989 . S
Co476 O501 1.967 . S
Co476 O508 1.920 . S
Co477 O480 1.966 . S
Co477 N486 2.022 . S
Co477 N494 1.993 . S
Co477 O502 1.941 . S
C478 O479 1.258 . S
C478 O480 1.263 . S
O479 Co476 1.970 . S
O479 C478 1.258 . S
O480 Co477 1.966 . S
O480 C478 1.263 . S
C481 O482 1.235 . S
C481 O508 1.289 . S
O482 C481 1.235 . S
C483 C485 1.400 . S
C483 N486 1.351 . S
C483 C488 1.501 . S
C484 C485 1.387 . S
C484 N487 1.341 . S
C485 C483 1.400 . S
C485 C484 1.387 . S
N486 Co477 2.022 . S
N486 C483 1.351 . S
N486 N487 1.365 . S
N487 C484 1.341 . S
N487 N486 1.365 . S
N487 H507 0.862 . S
C488 C483 1.501 . S
C488 H489 0.961 . S
C488 H490 0.961 . S
C488 H491 0.960 . S
H489 C488 0.961 . S
H490 C488 0.961 . S
H491 C488 0.960 . S
C492 N493 1.342 . S
C492 C496 1.401 . S
C492 C497 1.499 . S
N493 Co476 1.989 . S
N493 C492 1.342 . S
N493 N494 1.388 . S
N494 Co477 1.993 . S
N494 N493 1.388 . S
N494 C495 1.346 . S
C495 N494 1.346 . S
C495 C496 1.396 . S
C495 C505 1.510 . S
C496 C492 1.401 . S
C496 C495 1.396 . S
C497 C492 1.499 . S
C497 H498 0.959 . S
C497 H499 0.960 . S
C497 H500 0.961 . S
H498 C497 0.959 . S
H499 C497 0.960 . S
H500 C497 0.961 . S
O501 Co476 1.967 . S
O501 C509 1.258 . S
O502 Co477 1.941 . S
O502 C509 1.266 . S
H503 C505 0.959 . S
H504 C505 0.961 . S
C505 C495 1.510 . S
C505 H503 0.959 . S
C505 H504 0.961 . S
C505 H506 0.960 . S
H506 C505 0.960 . S
H507 N487 0.862 . S
O508 Co476 1.920 . S
O508 C481 1.289 . S
C509 O501 1.258 . S
C509 O502 1.266 . S
Co510 O513 1.970 1_565 S
Co510 N527 1.989 . S
Co510 O535 1.967 . S
Co510 O542 1.920 . S
Co511 O514 2.003 . S
Co511 N520 2.022 . S
Co511 N528 1.993 . S
Co511 O536 1.941 . S
C512 O513 1.258 . S
C512 O514 1.240 1_545 S
O513 Co510 1.970 1_545 S
O513 C512 1.258 . S
O514 Co511 2.003 . S
O514 C512 1.240 1_565 S
C515 O516 1.235 1_565 S
C515 O542 1.289 . S
O516 C515 1.235 1_545 S
C517 C519 1.400 . S
C517 N520 1.351 . S
C517 C522 1.501 1_565 S
C518 C519 1.387 . S
C518 N521 1.341 . S
C519 C517 1.400 . S
C519 C518 1.387 . S
N520 Co511 2.022 . S
N520 C517 1.351 . S
N520 N521 1.365 . S
N521 C518 1.341 . S
N521 N520 1.365 . S
N521 H541 0.862 . S
C522 C517 1.501 1_545 S
C522 H523 0.961 . S
C522 H524 0.961 . S
C522 H525 0.960 . S
H523 C522 0.961 . S
H524 C522 0.961 . S
H525 C522 0.960 . S
C526 N527 1.342 . S
C526 C530 1.401 . S
C526 C531 1.499 . S
N527 Co510 1.989 . S
N527 C526 1.342 . S
N527 N528 1.388 . S
N528 Co511 1.993 . S
N528 N527 1.388 . S
N528 C529 1.346 . S
C529 N528 1.346 . S
C529 C530 1.396 . S
C529 C539 1.510 . S
C530 C526 1.401 . S
C530 C529 1.396 . S
C531 C526 1.499 . S
C531 H532 0.959 . S
C531 H533 0.960 . S
C531 H534 0.961 . S
H532 C531 0.959 . S
H533 C531 0.960 . S
H534 C531 0.961 . S
O535 Co510 1.967 . S
O535 C543 1.258 . S
O536 Co511 1.941 . S
O536 C543 1.266 . S
H537 C539 0.959 . S
H538 C539 0.961 . S
C539 C529 1.510 . S
C539 H537 0.959 . S
C539 H538 0.961 . S
C539 H540 0.960 . S
H540 C539 0.960 . S
H541 N521 0.862 . S
O542 Co510 1.920 . S
O542 C515 1.289 . S
C543 O535 1.258 . S
C543 O536 1.266 . S
Co544 O547 1.970 . S
Co544 N561 1.989 . S
Co544 O569 1.967 . S
Co544 O576 1.920 . S
Co545 O548 1.966 . S
Co545 N554 2.022 . S
Co545 N562 1.993 . S
Co545 O570 1.941 . S
C546 O547 1.258 . S
C546 O548 1.263 . S
O547 Co544 1.970 . S
O547 C546 1.258 . S
O548 Co545 1.966 . S
O548 C546 1.263 . S
C549 O550 1.235 . S
C549 O576 1.289 . S
O550 C549 1.235 . S
C551 C553 1.400 . S
C551 N554 1.351 . S
C551 C556 1.501 . S
C552 C553 1.387 . S
C552 N555 1.341 . S
C553 C551 1.400 . S
C553 C552 1.387 . S
N554 Co545 2.022 . S
N554 C551 1.351 . S
N554 N555 1.365 . S
N555 C552 1.341 . S
N555 N554 1.365 . S
N555 H575 0.862 . S
C556 C551 1.501 . S
C556 H557 0.961 . S
C556 H558 0.961 . S
C556 H559 0.960 . S
H557 C556 0.961 . S
H558 C556 0.961 . S
H559 C556 0.960 . S
C560 N561 1.342 . S
C560 C564 1.401 . S
C560 C565 1.499 . S
N561 Co544 1.989 . S
N561 C560 1.342 . S
N561 N562 1.388 . S
N562 Co545 1.993 . S
N562 N561 1.388 . S
N562 C563 1.346 . S
C563 N562 1.346 . S
C563 C564 1.396 . S
C563 C573 1.510 . S
C564 C560 1.401 . S
C564 C563 1.396 . S
C565 C560 1.499 . S
C565 H566 0.959 . S
C565 H567 0.960 . S
C565 H568 0.961 . S
H566 C565 0.959 . S
H567 C565 0.960 . S
H568 C565 0.961 . S
O569 Co544 1.967 . S
O569 C577 1.258 . S
O570 Co545 1.941 . S
O570 C577 1.266 . S
H571 C573 0.959 . S
H572 C573 0.961 . S
C573 C563 1.510 . S
C573 H571 0.959 . S
C573 H572 0.961 . S
C573 H574 0.960 . S
H574 C573 0.960 . S
H575 N555 0.862 . S
O576 Co544 1.920 . S
O576 C549 1.289 . S
C577 O569 1.258 . S
C577 O570 1.266 . S
Co578 O581 1.970 . S
Co578 N595 1.989 . S
Co578 O603 1.967 . S
Co578 O610 1.920 . S
Co579 O582 1.966 . S
Co579 N588 2.022 . S
Co579 N596 1.993 . S
Co579 O604 1.941 . S
C580 O581 1.258 . S
C580 O582 1.263 . S
O581 Co578 1.970 . S
O581 C580 1.258 . S
O582 Co579 1.966 . S
O582 C580 1.263 . S
C583 O584 1.235 . S
C583 O610 1.289 . S
O584 C583 1.235 . S
C585 C587 1.400 . S
C585 N588 1.351 . S
C585 C590 1.501 . S
C586 C587 1.387 . S
C586 N589 1.341 . S
C587 C585 1.400 . S
C587 C586 1.387 . S
N588 Co579 2.022 . S
N588 C585 1.351 . S
N588 N589 1.365 . S
N589 C586 1.341 . S
N589 N588 1.365 . S
N589 H609 0.862 . S
C590 C585 1.501 . S
C590 H591 0.961 . S
C590 H592 0.961 . S
C590 H593 0.960 . S
H591 C590 0.961 . S
H592 C590 0.961 . S
H593 C590 0.960 . S
C594 N595 1.342 . S
C594 C598 1.401 . S
C594 C599 1.499 . S
N595 Co578 1.989 . S
N595 C594 1.342 . S
N595 N596 1.388 . S
N596 Co579 1.993 . S
N596 N595 1.388 . S
N596 C597 1.346 . S
C597 N596 1.346 . S
C597 C598 1.396 . S
C597 C607 1.510 . S
C598 C594 1.401 . S
C598 C597 1.396 . S
C599 C594 1.499 . S
C599 H600 0.959 . S
C599 H601 0.960 . S
C599 H602 0.961 . S
H600 C599 0.959 . S
H601 C599 0.960 . S
H602 C599 0.961 . S
O603 Co578 1.967 . S
O603 C611 1.258 . S
O604 Co579 1.941 . S
O604 C611 1.266 . S
H605 C607 0.959 . S
H606 C607 0.961 . S
C607 C597 1.510 . S
C607 H605 0.959 . S
C607 H606 0.961 . S
C607 H608 0.960 . S
H608 C607 0.960 . S
H609 N589 0.862 . S
O610 Co578 1.920 . S
O610 C583 1.289 . S
C611 O603 1.258 . S
C611 O604 1.266 . S
Co612 O615 1.970 . S
Co612 N629 1.989 . S
Co612 O637 1.967 . S
Co612 O644 1.920 . S
Co613 O616 1.966 . S
Co613 N622 2.022 . S
Co613 N630 1.993 . S
Co613 O638 1.941 . S
C614 O615 1.258 . S
C614 O616 1.263 . S
O615 Co612 1.970 . S
O615 C614 1.258 . S
O616 Co613 1.966 . S
O616 C614 1.263 . S
C617 O618 1.235 . S
C617 O644 1.289 . S
O618 C617 1.235 . S
C619 C621 1.400 . S
C619 N622 1.351 1_556 S
C619 C624 1.501 1_556 S
C620 C621 1.387 . S
C620 N623 1.341 . S
C621 C619 1.400 . S
C621 C620 1.387 . S
N622 Co613 2.022 . S
N622 C619 1.351 1_554 S
N622 N623 1.365 1_554 S
N623 C620 1.341 . S
N623 N622 1.365 1_556 S
N623 H643 0.862 1_556 S
C624 C619 1.501 1_554 S
C624 H625 0.961 . S
C624 H626 0.968 . S
C624 H627 0.960 1_554 S
H625 C624 0.961 . S
H626 C624 0.968 . S
H627 C624 0.960 1_556 S
C628 N629 1.342 . S
C628 C632 1.401 . S
C628 C633 1.499 . S
N629 Co612 1.989 . S
N629 C628 1.342 . S
N629 N630 1.388 . S
N630 Co613 1.993 . S
N630 N629 1.388 . S
N630 C631 1.346 . S
C631 N630 1.346 . S
C631 C632 1.396 . S
C631 C641 1.510 . S
C632 C628 1.401 . S
C632 C631 1.396 . S
C633 C628 1.499 . S
C633 H634 0.959 . S
C633 H635 0.960 . S
C633 H636 0.961 . S
H634 C633 0.959 . S
H635 C633 0.960 . S
H636 C633 0.961 . S
O637 Co612 1.967 . S
O637 C645 1.258 . S
O638 Co613 1.941 . S
O638 C645 1.266 . S
H639 C641 0.959 . S
H640 C641 0.961 . S
C641 C631 1.510 . S
C641 H639 0.959 . S
C641 H640 0.961 . S
C641 H642 0.960 . S
H642 C641 0.960 . S
H643 N623 0.862 1_554 S
O644 Co612 1.920 . S
O644 C617 1.289 . S
C645 O637 1.258 . S
C645 O638 1.266 . S
Co646 O649 1.970 . S
Co646 N663 1.989 . S
Co646 O671 1.967 . S
Co646 O678 1.920 . S
Co647 O650 1.966 . S
Co647 N656 2.022 . S
Co647 N664 1.993 . S
Co647 O672 1.941 . S
C648 O649 1.258 . S
C648 O650 1.263 . S
O649 Co646 1.970 . S
O649 C648 1.258 . S
O650 Co647 1.966 . S
O650 C648 1.263 . S
C651 O652 1.235 . S
C651 O678 1.289 . S
O652 C651 1.235 . S
C653 C655 1.400 . S
C653 N656 1.351 . S
C653 C658 1.501 . S
C654 C655 1.387 . S
C654 N657 1.341 . S
C655 C653 1.400 . S
C655 C654 1.387 . S
N656 Co647 2.022 . S
N656 C653 1.351 . S
N656 N657 1.365 . S
N657 C654 1.341 . S
N657 N656 1.365 . S
N657 H677 0.862 . S
C658 C653 1.501 . S
C658 H659 0.961 . S
C658 H660 0.961 . S
C658 H661 0.960 . S
H659 C658 0.961 . S
H660 C658 0.961 . S
H661 C658 0.960 . S
C662 N663 1.342 . S
C662 C666 1.401 . S
C662 C667 1.499 . S
N663 Co646 1.989 . S
N663 C662 1.342 . S
N663 N664 1.388 . S
N664 Co647 1.993 . S
N664 N663 1.388 . S
N664 C665 1.346 . S
C665 N664 1.346 . S
C665 C666 1.396 . S
C665 C675 1.510 . S
C666 C662 1.401 . S
C666 C665 1.396 . S
C667 C662 1.499 . S
C667 H668 0.959 . S
C667 H669 0.960 . S
C667 H670 0.961 . S
H668 C667 0.959 . S
H669 C667 0.960 . S
H670 C667 0.961 . S
O671 Co646 1.967 . S
O671 C679 1.258 . S
O672 Co647 1.941 . S
O672 C679 1.266 . S
H673 C675 0.959 . S
H674 C675 0.961 . S
C675 C665 1.510 . S
C675 H673 0.959 . S
C675 H674 0.961 . S
C675 H676 0.960 . S
H676 C675 0.960 . S
H677 N657 0.862 . S
O678 Co646 1.920 . S
O678 C651 1.289 . S
C679 O671 1.258 . S
C679 O672 1.266 . S
Co680 O683 1.970 . S
Co680 N697 1.989 . S
Co680 O705 1.967 . S
Co680 O712 1.920 . S
Co681 O684 1.966 . S
Co681 N690 2.022 . S
Co681 N698 1.993 . S
Co681 O706 1.941 . S
C682 O683 1.258 . S
C682 O684 1.263 . S
O683 Co680 1.970 . S
O683 C682 1.258 . S
O684 Co681 1.966 . S
O684 C682 1.263 . S
C685 O686 1.235 . S
C685 O712 1.289 . S
O686 C685 1.235 . S
C687 C689 1.400 . S
C687 N690 1.351 . S
C687 C692 1.501 . S
C688 C689 1.387 . S
C688 N691 1.341 . S
C689 C687 1.400 . S
C689 C688 1.387 . S
N690 Co681 2.022 . S
N690 C687 1.351 . S
N690 N691 1.365 . S
N691 C688 1.341 . S
N691 N690 1.365 . S
N691 H711 0.862 . S
C692 C687 1.501 . S
C692 H693 0.961 . S
C692 H694 0.961 . S
C692 H695 0.960 . S
H693 C692 0.961 . S
H694 C692 0.961 . S
H695 C692 0.960 . S
C696 N697 1.342 . S
C696 C700 1.401 . S
C696 C701 1.499 . S
N697 Co680 1.989 . S
N697 C696 1.342 . S
N697 N698 1.388 . S
N698 Co681 1.993 . S
N698 N697 1.388 . S
N698 C699 1.346 . S
C699 N698 1.346 . S
C699 C700 1.396 . S
C699 C709 1.510 . S
C700 C696 1.401 . S
C700 C699 1.396 . S
C701 C696 1.499 . S
C701 H702 0.959 . S
C701 H703 0.960 . S
C701 H704 0.961 . S
H702 C701 0.959 . S
H703 C701 0.960 . S
H704 C701 0.961 . S
O705 Co680 1.967 . S
O705 C713 1.258 . S
O706 Co681 1.941 . S
O706 C713 1.266 . S
H707 C709 0.959 . S
H708 C709 0.961 . S
C709 C699 1.510 . S
C709 H707 0.959 . S
C709 H708 0.961 . S
C709 H710 0.960 . S
H710 C709 0.960 . S
H711 N691 0.862 . S
O712 Co680 1.920 . S
O712 C685 1.289 . S
C713 O705 1.258 . S
C713 O706 1.266 . S
Co714 O717 1.970 . S
Co714 N731 1.989 . S
Co714 O739 1.967 . S
Co714 O746 1.920 . S
Co715 O718 1.966 . S
Co715 N724 2.022 . S
Co715 N732 1.993 . S
Co715 O740 1.941 . S
C716 O717 1.258 . S
C716 O718 1.263 . S
O717 Co714 1.970 . S
O717 C716 1.258 . S
O718 Co715 1.966 . S
O718 C716 1.263 . S
C719 O720 1.235 . S
C719 O746 1.289 . S
O720 C719 1.235 . S
C721 C723 1.400 . S
C721 N724 1.351 . S
C721 C726 1.501 . S
C722 C723 1.387 . S
C722 N725 1.341 . S
C723 C721 1.400 . S
C723 C722 1.387 . S
N724 Co715 2.022 . S
N724 C721 1.351 . S
N724 N725 1.365 . S
N725 C722 1.341 . S
N725 N724 1.365 . S
N725 H745 0.862 . S
C726 C721 1.501 . S
C726 H727 0.961 . S
C726 H728 0.961 . S
C726 H729 0.960 . S
H727 C726 0.961 . S
H728 C726 0.961 . S
H729 C726 0.960 . S
C730 N731 1.342 . S
C730 C734 1.401 . S
C730 C735 1.499 . S
N731 Co714 1.989 . S
N731 C730 1.342 . S
N731 N732 1.388 . S
N732 Co715 1.993 . S
N732 N731 1.388 . S
N732 C733 1.346 . S
C733 N732 1.346 . S
C733 C734 1.396 . S
C733 C743 1.510 . S
C734 C730 1.401 . S
C734 C733 1.396 . S
C735 C730 1.499 . S
C735 H736 0.959 . S
C735 H737 0.960 . S
C735 H738 0.961 . S
H736 C735 0.959 . S
H737 C735 0.960 . S
H738 C735 0.961 . S
O739 Co714 1.967 . S
O739 C747 1.258 . S
O740 Co715 1.941 . S
O740 C747 1.266 . S
H741 C743 0.959 . S
H742 C743 0.961 . S
C743 C733 1.510 . S
C743 H741 0.959 . S
C743 H742 0.961 . S
C743 H744 0.960 . S
H744 C743 0.960 . S
H745 N725 0.862 . S
O746 Co714 1.920 . S
O746 C719 1.289 . S
C747 O739 1.258 . S
C747 O740 1.266 . S
Co748 O751 1.970 . S
Co748 N765 1.989 . S
Co748 O773 1.967 . S
Co748 O780 1.920 . S
Co749 O752 1.966 . S
Co749 N758 2.022 . S
Co749 N766 1.993 . S
Co749 O774 1.941 . S
C750 O751 1.258 . S
C750 O752 1.263 . S
O751 Co748 1.970 . S
O751 C750 1.258 . S
O752 Co749 1.966 . S
O752 C750 1.263 . S
C753 O754 1.235 . S
C753 O780 1.289 . S
O754 C753 1.235 . S
C755 C757 1.400 . S
C755 N758 1.351 1_554 S
C755 C760 1.501 1_554 S
C756 C757 1.387 . S
C756 N759 1.341 . S
C757 C755 1.400 . S
C757 C756 1.387 . S
N758 Co749 2.022 . S
N758 C755 1.351 1_556 S
N758 N759 1.365 1_556 S
N759 C756 1.341 . S
N759 N758 1.365 1_554 S
N759 H779 0.862 1_554 S
C760 C755 1.501 1_556 S
C760 H761 0.961 . S
C760 H762 0.968 . S
C760 H763 0.960 1_556 S
H761 C760 0.961 . S
H762 C760 0.968 . S
H763 C760 0.960 1_554 S
C764 N765 1.342 . S
C764 C768 1.401 . S
C764 C769 1.499 . S
N765 Co748 1.989 . S
N765 C764 1.342 . S
N765 N766 1.388 . S
N766 Co749 1.993 . S
N766 N765 1.388 . S
N766 C767 1.346 . S
C767 N766 1.346 . S
C767 C768 1.396 . S
C767 C777 1.510 . S
C768 C764 1.401 . S
C768 C767 1.396 . S
C769 C764 1.499 . S
C769 H770 0.959 . S
C769 H771 0.960 . S
C769 H772 0.961 . S
H770 C769 0.959 . S
H771 C769 0.960 . S
H772 C769 0.961 . S
O773 Co748 1.967 . S
O773 C781 1.258 . S
O774 Co749 1.941 . S
O774 C781 1.266 . S
H775 C777 0.959 . S
H776 C777 0.961 . S
C777 C767 1.510 . S
C777 H775 0.959 . S
C777 H776 0.961 . S
C777 H778 0.960 . S
H778 C777 0.960 . S
H779 N759 0.862 1_556 S
O780 Co748 1.920 . S
O780 C753 1.289 . S
C781 O773 1.258 . S
C781 O774 1.266 . S
Co782 O785 1.970 . S
Co782 N799 1.989 . S
Co782 O807 1.967 . S
Co782 O814 1.920 . S
Co783 O786 1.966 . S
Co783 N792 2.022 . S
Co783 N800 1.993 . S
Co783 O808 1.941 . S
C784 O785 1.258 . S
C784 O786 1.263 . S
O785 Co782 1.970 . S
O785 C784 1.258 . S
O786 Co783 1.966 . S
O786 C784 1.263 . S
C787 O788 1.235 . S
C787 O814 1.289 . S
O788 C787 1.235 . S
C789 C791 1.400 . S
C789 N792 1.351 . S
C789 C794 1.501 . S
C790 C791 1.387 . S
C790 N793 1.341 . S
C791 C789 1.400 . S
C791 C790 1.387 . S
N792 Co783 2.022 . S
N792 C789 1.351 . S
N792 N793 1.365 . S
N793 C790 1.341 . S
N793 N792 1.365 . S
N793 H813 0.862 . S
C794 C789 1.501 . S
C794 H795 0.961 . S
C794 H796 0.961 . S
C794 H797 0.960 . S
H795 C794 0.961 . S
H796 C794 0.961 . S
H797 C794 0.960 . S
C798 N799 1.342 . S
C798 C802 1.401 . S
C798 C803 1.499 . S
N799 Co782 1.989 . S
N799 C798 1.342 . S
N799 N800 1.388 . S
N800 Co783 1.993 . S
N800 N799 1.388 . S
N800 C801 1.346 . S
C801 N800 1.346 . S
C801 C802 1.396 . S
C801 C811 1.510 . S
C802 C798 1.401 . S
C802 C801 1.396 . S
C803 C798 1.499 . S
C803 H804 0.959 . S
C803 H805 0.960 . S
C803 H806 0.961 . S
H804 C803 0.959 . S
H805 C803 0.960 . S
H806 C803 0.961 . S
O807 Co782 1.967 . S
O807 C815 1.258 . S
O808 Co783 1.941 . S
O808 C815 1.266 . S
H809 C811 0.959 . S
H810 C811 0.961 . S
C811 C801 1.510 . S
C811 H809 0.959 . S
C811 H810 0.961 . S
C811 H812 0.960 . S
H812 C811 0.960 . S
H813 N793 0.862 . S
O814 Co782 1.920 . S
O814 C787 1.289 . S
C815 O807 1.258 . S
C815 O808 1.266 . S
Co816 O819 1.970 . S
Co816 N833 1.989 . S
Co816 O841 1.967 . S
Co816 O848 1.920 . S
Co817 O820 1.966 . S
Co817 N826 2.022 . S
Co817 N834 1.993 . S
Co817 O842 1.941 . S
C818 O819 1.258 . S
C818 O820 1.263 . S
O819 Co816 1.970 . S
O819 C818 1.258 . S
O820 Co817 1.966 . S
O820 C818 1.263 . S
C821 O822 1.235 . S
C821 O848 1.289 . S
O822 C821 1.235 . S
C823 C825 1.400 . S
C823 N826 1.351 . S
C823 C828 1.501 . S
C824 C825 1.387 . S
C824 N827 1.341 . S
C825 C823 1.400 . S
C825 C824 1.387 . S
N826 Co817 2.022 . S
N826 C823 1.351 . S
N826 N827 1.365 . S
N827 C824 1.341 . S
N827 N826 1.365 . S
N827 H847 0.862 . S
C828 C823 1.501 . S
C828 H829 0.961 . S
C828 H830 0.961 . S
C828 H831 0.960 . S
H829 C828 0.961 . S
H830 C828 0.961 . S
H831 C828 0.960 . S
C832 N833 1.342 . S
C832 C836 1.401 . S
C832 C837 1.499 . S
N833 Co816 1.989 . S
N833 C832 1.342 . S
N833 N834 1.388 . S
N834 Co817 1.993 . S
N834 N833 1.388 . S
N834 C835 1.346 . S
C835 N834 1.346 . S
C835 C836 1.396 . S
C835 C845 1.510 . S
C836 C832 1.401 . S
C836 C835 1.396 . S
C837 C832 1.499 . S
C837 H838 0.959 . S
C837 H839 0.960 . S
C837 H840 0.961 . S
H838 C837 0.959 . S
H839 C837 0.960 . S
H840 C837 0.961 . S
O841 Co816 1.967 . S
O841 C849 1.258 . S
O842 Co817 1.941 . S
O842 C849 1.266 . S
H843 C845 0.959 . S
H844 C845 0.961 . S
C845 C835 1.510 . S
C845 H843 0.959 . S
C845 H844 0.961 . S
C845 H846 0.960 . S
H846 C845 0.960 . S
H847 N827 0.862 . S
O848 Co816 1.920 . S
O848 C821 1.289 . S
C849 O841 1.258 . S
C849 O842 1.266 . S
Co850 O853 1.970 . S
Co850 N867 1.989 . S
Co850 O875 1.967 . S
Co850 O882 1.920 . S
Co851 O854 1.966 . S
Co851 N860 2.022 . S
Co851 N868 1.993 . S
Co851 O876 1.941 . S
C852 O853 1.258 . S
C852 O854 1.263 . S
O853 Co850 1.970 . S
O853 C852 1.258 . S
O854 Co851 1.966 . S
O854 C852 1.263 . S
C855 O856 1.235 . S
C855 O882 1.289 . S
O856 C855 1.235 . S
C857 C859 1.400 . S
C857 N860 1.351 . S
C857 C862 1.501 . S
C858 C859 1.387 . S
C858 N861 1.341 . S
C859 C857 1.400 . S
C859 C858 1.387 . S
N860 Co851 2.022 . S
N860 C857 1.351 . S
N860 N861 1.365 . S
N861 C858 1.341 . S
N861 N860 1.365 . S
N861 H881 0.862 . S
C862 C857 1.501 . S
C862 H863 0.961 . S
C862 H864 0.961 . S
C862 H865 0.960 . S
H863 C862 0.961 . S
H864 C862 0.961 . S
H865 C862 0.960 . S
C866 N867 1.342 . S
C866 C870 1.401 . S
C866 C871 1.499 . S
N867 Co850 1.989 . S
N867 C866 1.342 . S
N867 N868 1.388 . S
N868 Co851 1.993 . S
N868 N867 1.388 . S
N868 C869 1.346 . S
C869 N868 1.346 . S
C869 C870 1.396 . S
C869 C879 1.510 . S
C870 C866 1.401 . S
C870 C869 1.396 . S
C871 C866 1.499 . S
C871 H872 0.959 . S
C871 H873 0.960 . S
C871 H874 0.961 . S
H872 C871 0.959 . S
H873 C871 0.960 . S
H874 C871 0.961 . S
O875 Co850 1.967 . S
O875 C883 1.258 . S
O876 Co851 1.941 . S
O876 C883 1.266 . S
H877 C879 0.959 . S
H878 C879 0.961 . S
C879 C869 1.510 . S
C879 H877 0.959 . S
C879 H878 0.961 . S
C879 H880 0.960 . S
H880 C879 0.960 . S
H881 N861 0.862 . S
O882 Co850 1.920 . S
O882 C855 1.289 . S
C883 O875 1.258 . S
C883 O876 1.266 . S
Co884 O887 1.970 . S
Co884 N901 1.989 . S
Co884 O909 1.967 . S
Co884 O916 1.920 . S
Co885 O888 1.966 . S
Co885 N894 2.022 . S
Co885 N902 1.993 . S
Co885 O910 1.941 . S
C886 O887 1.258 . S
C886 O888 1.263 . S
O887 Co884 1.970 . S
O887 C886 1.258 . S
O888 Co885 1.966 . S
O888 C886 1.263 . S
C889 O890 1.235 . S
C889 O916 1.289 . S
O890 C889 1.235 . S
C891 C893 1.400 . S
C891 N894 1.351 1_554 S
C891 C896 1.501 1_554 S
C892 C893 1.387 . S
C892 N895 1.341 . S
C893 C891 1.400 . S
C893 C892 1.387 . S
N894 Co885 2.022 . S
N894 C891 1.351 1_556 S
N894 N895 1.365 1_556 S
N895 C892 1.341 . S
N895 N894 1.365 1_554 S
N895 H915 0.862 1_554 S
C896 C891 1.501 1_556 S
C896 H897 0.961 . S
C896 H898 0.968 . S
C896 H899 0.960 1_556 S
H897 C896 0.961 . S
H898 C896 0.968 . S
H899 C896 0.960 1_554 S
C900 N901 1.342 . S
C900 C904 1.401 . S
C900 C905 1.499 . S
N901 Co884 1.989 . S
N901 C900 1.342 . S
N901 N902 1.388 . S
N902 Co885 1.993 . S
N902 N901 1.388 . S
N902 C903 1.346 . S
C903 N902 1.346 . S
C903 C904 1.396 . S
C903 C913 1.510 . S
C904 C900 1.401 . S
C904 C903 1.396 . S
C905 C900 1.499 . S
C905 H906 0.959 . S
C905 H907 0.960 . S
C905 H908 0.961 . S
H906 C905 0.959 . S
H907 C905 0.960 . S
H908 C905 0.961 . S
O909 Co884 1.967 . S
O909 C917 1.258 . S
O910 Co885 1.941 . S
O910 C917 1.266 . S
H911 C913 0.959 . S
H912 C913 0.961 . S
C913 C903 1.510 . S
C913 H911 0.959 . S
C913 H912 0.961 . S
C913 H914 0.960 . S
H914 C913 0.960 . S
H915 N895 0.862 1_556 S
O916 Co884 1.920 . S
O916 C889 1.289 . S
C917 O909 1.258 . S
C917 O910 1.266 . S
Co918 O921 1.970 . S
Co918 N935 1.989 . S
Co918 O943 1.967 . S
Co918 O950 1.920 . S
Co919 O922 1.966 . S
Co919 N928 2.022 . S
Co919 N936 1.993 . S
Co919 O944 1.941 . S
C920 O921 1.258 . S
C920 O922 1.263 . S
O921 Co918 1.970 . S
O921 C920 1.258 . S
O922 Co919 1.966 . S
O922 C920 1.263 . S
C923 O924 1.235 . S
C923 O950 1.289 . S
O924 C923 1.235 . S
C925 C927 1.400 . S
C925 N928 1.351 . S
C925 C930 1.501 . S
C926 C927 1.387 . S
C926 N929 1.341 . S
C927 C925 1.400 . S
C927 C926 1.387 . S
N928 Co919 2.022 . S
N928 C925 1.351 . S
N928 N929 1.365 . S
N929 C926 1.341 . S
N929 N928 1.365 . S
N929 H949 0.862 . S
C930 C925 1.501 . S
C930 H931 0.961 . S
C930 H932 0.961 . S
C930 H933 0.960 . S
H931 C930 0.961 . S
H932 C930 0.961 . S
H933 C930 0.960 . S
C934 N935 1.342 . S
C934 C938 1.401 . S
C934 C939 1.499 . S
N935 Co918 1.989 . S
N935 C934 1.342 . S
N935 N936 1.388 . S
N936 Co919 1.993 . S
N936 N935 1.388 . S
N936 C937 1.346 . S
C937 N936 1.346 . S
C937 C938 1.396 . S
C937 C947 1.510 . S
C938 C934 1.401 . S
C938 C937 1.396 . S
C939 C934 1.499 . S
C939 H940 0.959 . S
C939 H941 0.960 . S
C939 H942 0.961 . S
H940 C939 0.959 . S
H941 C939 0.960 . S
H942 C939 0.961 . S
O943 Co918 1.967 . S
O943 C951 1.258 . S
O944 Co919 1.941 . S
O944 C951 1.266 . S
H945 C947 0.959 . S
H946 C947 0.961 . S
C947 C937 1.510 . S
C947 H945 0.959 . S
C947 H946 0.961 . S
C947 H948 0.960 . S
H948 C947 0.960 . S
H949 N929 0.862 . S
O950 Co918 1.920 . S
O950 C923 1.289 . S
C951 O943 1.258 . S
C951 O944 1.266 . S
Co952 O955 1.970 . S
Co952 N969 1.989 . S
Co952 O977 1.967 . S
Co952 O984 1.920 . S
Co953 O956 1.966 . S
Co953 N962 2.022 . S
Co953 N970 1.993 . S
Co953 O978 1.941 . S
C954 O955 1.258 . S
C954 O956 1.263 . S
O955 Co952 1.970 . S
O955 C954 1.258 . S
O956 Co953 1.966 . S
O956 C954 1.263 . S
C957 O958 1.235 . S
C957 O984 1.289 . S
O958 C957 1.235 . S
C959 C961 1.400 . S
C959 N962 1.351 . S
C959 C964 1.501 . S
C960 C961 1.387 . S
C960 N963 1.341 . S
C961 C959 1.400 . S
C961 C960 1.387 . S
N962 Co953 2.022 . S
N962 C959 1.351 . S
N962 N963 1.365 . S
N963 C960 1.341 . S
N963 N962 1.365 . S
N963 H983 0.862 . S
C964 C959 1.501 . S
C964 H965 0.961 . S
C964 H966 0.961 . S
C964 H967 0.960 . S
H965 C964 0.961 . S
H966 C964 0.961 . S
H967 C964 0.960 . S
C968 N969 1.342 . S
C968 C972 1.401 . S
C968 C973 1.499 . S
N969 Co952 1.989 . S
N969 C968 1.342 . S
N969 N970 1.388 . S
N970 Co953 1.993 . S
N970 N969 1.388 . S
N970 C971 1.346 . S
C971 N970 1.346 . S
C971 C972 1.396 . S
C971 C981 1.510 . S
C972 C968 1.401 . S
C972 C971 1.396 . S
C973 C968 1.499 . S
C973 H974 0.959 . S
C973 H975 0.960 . S
C973 H976 0.961 . S
H974 C973 0.959 . S
H975 C973 0.960 . S
H976 C973 0.961 . S
O977 Co952 1.967 . S
O977 C985 1.258 . S
O978 Co953 1.941 . S
O978 C985 1.266 . S
H979 C981 0.959 . S
H980 C981 0.961 . S
C981 C971 1.510 . S
C981 H979 0.959 . S
C981 H980 0.961 . S
C981 H982 0.960 . S
H982 C981 0.960 . S
H983 N963 0.862 . S
O984 Co952 1.920 . S
O984 C957 1.289 . S
C985 O977 1.258 . S
C985 O978 1.266 . S
Co986 O989 1.970 . S
Co986 N1003 1.989 . S
Co986 O1011 1.967 . S
Co986 O1018 1.920 . S
Co987 O990 1.966 . S
Co987 N996 2.022 . S
Co987 N1004 1.993 . S
Co987 O1012 1.941 . S
C988 O989 1.258 . S
C988 O990 1.263 . S
O989 Co986 1.970 . S
O989 C988 1.258 . S
O990 Co987 1.966 . S
O990 C988 1.263 . S
C991 O992 1.235 . S
C991 O1018 1.289 . S
O992 C991 1.235 . S
C993 C995 1.400 . S
C993 N996 1.351 . S
C993 C998 1.501 . S
C994 C995 1.387 . S
C994 N997 1.341 . S
C995 C993 1.400 . S
C995 C994 1.387 . S
N996 Co987 2.022 . S
N996 C993 1.351 . S
N996 N997 1.365 . S
N997 C994 1.341 . S
N997 N996 1.365 . S
N997 H1017 0.862 . S
C998 C993 1.501 . S
C998 H999 0.961 . S
C998 H1000 0.961 . S
C998 H1001 0.960 . S
H999 C998 0.961 . S
H1000 C998 0.961 . S
H1001 C998 0.960 . S
C1002 N1003 1.342 . S
C1002 C1006 1.401 . S
C1002 C1007 1.499 . S
N1003 Co986 1.989 . S
N1003 C1002 1.342 . S
N1003 N1004 1.388 . S
N1004 Co987 1.993 . S
N1004 N1003 1.388 . S
N1004 C1005 1.346 . S
C1005 N1004 1.346 . S
C1005 C1006 1.396 . S
C1005 C1015 1.510 . S
C1006 C1002 1.401 . S
C1006 C1005 1.396 . S
C1007 C1002 1.499 . S
C1007 H1008 0.959 . S
C1007 H1009 0.960 . S
C1007 H1010 0.961 . S
H1008 C1007 0.959 . S
H1009 C1007 0.960 . S
H1010 C1007 0.961 . S
O1011 Co986 1.967 . S
O1011 C1019 1.258 . S
O1012 Co987 1.941 . S
O1012 C1019 1.266 . S
H1013 C1015 0.959 . S
H1014 C1015 0.961 . S
C1015 C1005 1.510 . S
C1015 H1013 0.959 . S
C1015 H1014 0.961 . S
C1015 H1016 0.960 . S
H1016 C1015 0.960 . S
H1017 N997 0.862 . S
O1018 Co986 1.920 . S
O1018 C991 1.289 . S
C1019 O1011 1.258 . S
C1019 O1012 1.266 . S
Co1020 O1023 1.970 . S
Co1020 N1037 1.989 . S
Co1020 O1045 1.967 . S
Co1020 O1052 1.920 . S
Co1021 O1024 1.966 . S
Co1021 N1030 2.022 . S
Co1021 N1038 1.993 . S
Co1021 O1046 1.941 . S
C1022 O1023 1.258 . S
C1022 O1024 1.263 . S
O1023 Co1020 1.970 . S
O1023 C1022 1.258 . S
O1024 Co1021 1.966 . S
O1024 C1022 1.263 . S
C1025 O1026 1.235 . S
C1025 O1052 1.289 . S
O1026 C1025 1.235 . S
C1027 C1029 1.400 . S
C1027 N1030 1.351 1_556 S
C1027 C1032 1.501 1_556 S
C1028 C1029 1.387 . S
C1028 N1031 1.341 . S
C1029 C1027 1.400 . S
C1029 C1028 1.387 . S
N1030 Co1021 2.022 . S
N1030 C1027 1.351 1_554 S
N1030 N1031 1.365 1_554 S
N1031 C1028 1.341 . S
N1031 N1030 1.365 1_556 S
N1031 H1051 0.862 1_556 S
C1032 C1027 1.501 1_554 S
C1032 H1033 0.961 . S
C1032 H1034 0.968 . S
C1032 H1035 0.960 1_554 S
H1033 C1032 0.961 . S
H1034 C1032 0.968 . S
H1035 C1032 0.960 1_556 S
C1036 N1037 1.342 . S
C1036 C1040 1.401 . S
C1036 C1041 1.499 . S
N1037 Co1020 1.989 . S
N1037 C1036 1.342 . S
N1037 N1038 1.388 . S
N1038 Co1021 1.993 . S
N1038 N1037 1.388 . S
N1038 C1039 1.346 . S
C1039 N1038 1.346 . S
C1039 C1040 1.396 . S
C1039 C1049 1.510 . S
C1040 C1036 1.401 . S
C1040 C1039 1.396 . S
C1041 C1036 1.499 . S
C1041 H1042 0.959 . S
C1041 H1043 0.960 . S
C1041 H1044 0.961 . S
H1042 C1041 0.959 . S
H1043 C1041 0.960 . S
H1044 C1041 0.961 . S
O1045 Co1020 1.967 . S
O1045 C1053 1.258 . S
O1046 Co1021 1.941 . S
O1046 C1053 1.266 . S
H1047 C1049 0.959 . S
H1048 C1049 0.961 . S
C1049 C1039 1.510 . S
C1049 H1047 0.959 . S
C1049 H1048 0.961 . S
C1049 H1050 0.960 . S
H1050 C1049 0.960 . S
H1051 N1031 0.862 1_554 S
O1052 Co1020 1.920 . S
O1052 C1025 1.289 . S
C1053 O1045 1.258 . S
C1053 O1046 1.266 . S
Co1054 O1057 1.970 . S
Co1054 N1071 1.989 . S
Co1054 O1079 1.967 . S
Co1054 O1086 1.920 . S
Co1055 O1058 1.966 . S
Co1055 N1064 2.022 . S
Co1055 N1072 1.993 . S
Co1055 O1080 1.941 . S
C1056 O1057 1.258 . S
C1056 O1058 1.263 . S
O1057 Co1054 1.970 . S
O1057 C1056 1.258 . S
O1058 Co1055 1.966 . S
O1058 C1056 1.263 . S
C1059 O1060 1.235 . S
C1059 O1086 1.289 . S
O1060 C1059 1.235 . S
C1061 C1063 1.400 . S
C1061 N1064 1.351 . S
C1061 C1066 1.501 . S
C1062 C1063 1.387 . S
C1062 N1065 1.341 . S
C1063 C1061 1.400 . S
C1063 C1062 1.387 . S
N1064 Co1055 2.022 . S
N1064 C1061 1.351 . S
N1064 N1065 1.365 . S
N1065 C1062 1.341 . S
N1065 N1064 1.365 . S
N1065 H1085 0.862 . S
C1066 C1061 1.501 . S
C1066 H1067 0.961 . S
C1066 H1068 0.961 . S
C1066 H1069 0.960 . S
H1067 C1066 0.961 . S
H1068 C1066 0.961 . S
H1069 C1066 0.960 . S
C1070 N1071 1.342 . S
C1070 C1074 1.401 . S
C1070 C1075 1.499 . S
N1071 Co1054 1.989 . S
N1071 C1070 1.342 . S
N1071 N1072 1.388 . S
N1072 Co1055 1.993 . S
N1072 N1071 1.388 . S
N1072 C1073 1.346 . S
C1073 N1072 1.346 . S
C1073 C1074 1.396 . S
C1073 C1083 1.510 . S
C1074 C1070 1.401 . S
C1074 C1073 1.396 . S
C1075 C1070 1.499 . S
C1075 H1076 0.959 . S
C1075 H1077 0.960 . S
C1075 H1078 0.961 . S
H1076 C1075 0.959 . S
H1077 C1075 0.960 . S
H1078 C1075 0.961 . S
O1079 Co1054 1.967 . S
O1079 C1087 1.258 . S
O1080 Co1055 1.941 . S
O1080 C1087 1.266 . S
H1081 C1083 0.959 . S
H1082 C1083 0.961 . S
C1083 C1073 1.510 . S
C1083 H1081 0.959 . S
C1083 H1082 0.961 . S
C1083 H1084 0.960 . S
H1084 C1083 0.960 . S
H1085 N1065 0.862 . S
O1086 Co1054 1.920 . S
O1086 C1059 1.289 . S
C1087 O1079 1.258 . S
C1087 O1080 1.266 . S
H1088 C1094 0.930 . S
H1089 C1097 0.930 . S
H1090 C1098 0.930 . S
H1091 C1099 0.930 . S
H1092 C1102 0.930 . S
H1093 C1103 0.930 . S
C1094 H1088 0.930 . S
C1094 C1095 1.355 . S
C1094 C1096 1.415 . S
C1095 C1094 1.355 . S
C1095 C1097 1.419 . S
C1096 C1094 1.415 . S
C1096 C1101 1.425 . S
C1096 C1103 1.409 . S
C1097 H1089 0.930 . S
C1097 C1095 1.419 . S
C1097 C1098 1.362 . S
C1098 H1090 0.930 . S
C1098 C1097 1.362 . S
C1098 C1101 1.409 . S
C1099 H1091 0.930 . S
C1099 C1100 1.355 . S
C1099 C1101 1.415 . S
C1100 C1099 1.355 . S
C1100 C1102 1.419 . S
C1101 C1096 1.425 . S
C1101 C1098 1.409 . S
C1101 C1099 1.415 . S
C1102 H1092 0.930 . S
C1102 C1100 1.419 . S
C1102 C1103 1.362 . S
C1103 H1093 0.930 . S
C1103 C1096 1.409 . S
C1103 C1102 1.362 . S
H1104 C1110 0.930 . S
H1105 C1113 0.930 . S
H1106 C1114 0.930 . S
H1107 C1115 0.930 . S
H1108 C1118 0.930 . S
H1109 C1119 0.930 . S
C1110 H1104 0.930 . S
C1110 C1111 1.355 . S
C1110 C1112 1.415 . S
C1111 C1110 1.355 . S
C1111 C1113 1.419 . S
C1112 C1110 1.415 . S
C1112 C1117 1.425 . S
C1112 C1119 1.409 . S
C1113 H1105 0.930 . S
C1113 C1111 1.419 . S
C1113 C1114 1.362 . S
C1114 H1106 0.930 . S
C1114 C1113 1.362 . S
C1114 C1117 1.409 . S
C1115 H1107 0.930 . S
C1115 C1116 1.355 . S
C1115 C1117 1.415 . S
C1116 C1115 1.355 . S
C1116 C1118 1.419 . S
C1117 C1112 1.425 . S
C1117 C1114 1.409 . S
C1117 C1115 1.415 . S
C1118 H1108 0.930 . S
C1118 C1116 1.419 . S
C1118 C1119 1.362 . S
C1119 H1109 0.930 . S
C1119 C1112 1.409 . S
C1119 C1118 1.362 . S
H1120 C1126 0.930 . S
H1121 C1129 0.930 . S
H1122 C1130 0.930 . S
H1123 C1131 0.930 1_545 S
H1124 C1134 0.930 . S
H1125 C1135 0.930 . S
C1126 H1120 0.930 . S
C1126 C1127 1.355 . S
C1126 C1128 1.415 . S
C1127 C1126 1.355 . S
C1127 C1129 1.419 . S
C1128 C1126 1.415 . S
C1128 C1133 1.425 . S
C1128 C1135 1.409 . S
C1129 H1121 0.930 . S
C1129 C1127 1.419 . S
C1129 C1130 1.362 . S
C1130 H1122 0.930 . S
C1130 C1129 1.362 . S
C1130 C1133 1.409 . S
C1131 H1123 0.930 1_565 S
C1131 C1132 1.355 . S
C1131 C1133 1.415 . S
C1132 C1131 1.355 . S
C1132 C1134 1.419 . S
C1133 C1128 1.425 . S
C1133 C1130 1.409 . S
C1133 C1131 1.415 . S
C1134 H1124 0.930 . S
C1134 C1132 1.419 . S
C1134 C1135 1.362 . S
C1135 H1125 0.930 . S
C1135 C1128 1.409 . S
C1135 C1134 1.362 . S
H1136 C1142 0.930 . S
H1137 C1145 0.930 . S
H1138 C1146 0.930 . S
H1139 C1147 0.930 . S
H1140 C1150 0.930 . S
H1141 C1151 0.930 . S
C1142 H1136 0.930 . S
C1142 C1143 1.355 . S
C1142 C1144 1.415 . S
C1143 C1142 1.355 . S
C1143 C1145 1.419 . S
C1144 C1142 1.415 . S
C1144 C1149 1.425 . S
C1144 C1151 1.409 . S
C1145 H1137 0.930 . S
C1145 C1143 1.419 . S
C1145 C1146 1.362 . S
C1146 H1138 0.930 . S
C1146 C1145 1.362 . S
C1146 C1149 1.409 . S
C1147 H1139 0.930 . S
C1147 C1148 1.355 . S
C1147 C1149 1.415 . S
C1148 C1147 1.355 . S
C1148 C1150 1.419 . S
C1149 C1144 1.425 . S
C1149 C1146 1.409 . S
C1149 C1147 1.415 . S
C1150 H1140 0.930 . S
C1150 C1148 1.419 . S
C1150 C1151 1.362 . S
C1151 H1141 0.930 . S
C1151 C1144 1.409 . S
C1151 C1150 1.362 . S
H1152 C1158 0.930 . S
H1153 C1161 0.930 . S
H1154 C1162 0.930 . S
H1155 C1163 0.930 . S
H1156 C1166 0.911 1_545 S
H1157 C1167 0.930 . S
C1158 H1152 0.930 . S
C1158 C1159 1.355 . S
C1158 C1160 1.415 . S
C1159 C1158 1.355 . S
C1159 C1161 1.419 . S
C1160 C1158 1.415 . S
C1160 C1165 1.425 . S
C1160 C1167 1.409 . S
C1161 H1153 0.930 . S
C1161 C1159 1.419 . S
C1161 C1162 1.362 . S
C1162 H1154 0.930 . S
C1162 C1161 1.362 . S
C1162 C1165 1.409 . S
C1163 H1155 0.930 . S
C1163 C1164 1.355 . S
C1163 C1165 1.415 . S
C1164 C1163 1.355 . S
C1164 C1166 1.419 . S
C1165 C1160 1.425 . S
C1165 C1162 1.409 . S
C1165 C1163 1.415 . S
C1166 H1156 0.911 1_565 S
C1166 C1164 1.419 . S
C1166 C1167 1.362 . S
C1167 H1157 0.930 . S
C1167 C1160 1.409 . S
C1167 C1166 1.362 . S
H1168 C1174 0.930 . S
H1169 C1177 0.930 . S
H1170 C1178 0.930 . S
H1171 C1179 0.930 . S
H1172 C1182 0.930 . S
H1173 C1183 0.930 . S
C1174 H1168 0.930 . S
C1174 C1175 1.355 . S
C1174 C1176 1.415 . S
C1175 C1174 1.355 . S
C1175 C1177 1.419 . S
C1176 C1174 1.415 . S
C1176 C1181 1.425 . S
C1176 C1183 1.409 . S
C1177 H1169 0.930 . S
C1177 C1175 1.419 . S
C1177 C1178 1.362 . S
C1178 H1170 0.930 . S
C1178 C1177 1.362 . S
C1178 C1181 1.409 . S
C1179 H1171 0.930 . S
C1179 C1180 1.355 . S
C1179 C1181 1.415 . S
C1180 C1179 1.355 . S
C1180 C1182 1.419 . S
C1181 C1176 1.425 . S
C1181 C1178 1.409 . S
C1181 C1179 1.415 . S
C1182 H1172 0.930 . S
C1182 C1180 1.419 . S
C1182 C1183 1.362 . S
C1183 H1173 0.930 . S
C1183 C1176 1.409 . S
C1183 C1182 1.362 . S
H1184 C1190 0.930 . S
H1185 C1193 0.930 . S
H1186 C1194 0.930 . S
H1187 C1195 0.930 . S
H1188 C1198 0.930 . S
H1189 C1199 0.930 . S
C1190 H1184 0.930 . S
C1190 C1191 1.355 . S
C1190 C1192 1.415 . S
C1191 C1190 1.355 . S
C1191 C1193 1.419 . S
C1192 C1190 1.415 . S
C1192 C1197 1.425 . S
C1192 C1199 1.409 . S
C1193 H1185 0.930 . S
C1193 C1191 1.419 . S
C1193 C1194 1.362 . S
C1194 H1186 0.930 . S
C1194 C1193 1.362 . S
C1194 C1197 1.409 . S
C1195 H1187 0.930 . S
C1195 C1196 1.355 . S
C1195 C1197 1.415 . S
C1196 C1195 1.355 . S
C1196 C1198 1.419 . S
C1197 C1192 1.425 . S
C1197 C1194 1.409 . S
C1197 C1195 1.415 . S
C1198 H1188 0.930 . S
C1198 C1196 1.419 . S
C1198 C1199 1.362 . S
C1199 H1189 0.930 . S
C1199 C1192 1.409 . S
C1199 C1198 1.362 . S
H1200 C1206 0.930 . S
H1201 C1209 0.930 . S
H1202 C1210 0.930 . S
H1203 C1211 0.930 . S
H1204 C1214 0.930 . S
H1205 C1215 0.930 . S
C1206 H1200 0.930 . S
C1206 C1207 1.355 . S
C1206 C1208 1.415 . S
C1207 C1206 1.355 . S
C1207 C1209 1.419 . S
C1208 C1206 1.415 . S
C1208 C1213 1.425 . S
C1208 C1215 1.409 . S
C1209 H1201 0.930 . S
C1209 C1207 1.419 . S
C1209 C1210 1.362 . S
C1210 H1202 0.930 . S
C1210 C1209 1.362 . S
C1210 C1213 1.409 . S
C1211 H1203 0.930 . S
C1211 C1212 1.355 . S
C1211 C1213 1.415 . S
C1212 C1211 1.355 . S
C1212 C1214 1.419 . S
C1213 C1208 1.425 . S
C1213 C1210 1.409 . S
C1213 C1211 1.415 . S
C1214 H1204 0.930 . S
C1214 C1212 1.419 . S
C1214 C1215 1.362 . S
C1215 H1205 0.930 . S
C1215 C1208 1.409 . S
C1215 C1214 1.362 . S
H1216 C1222 0.930 . S
H1217 C1225 0.930 . S
H1218 C1226 0.930 . S
H1219 C1227 0.930 . S
H1220 C1230 0.930 . S
H1221 C1231 0.930 . S
C1222 H1216 0.930 . S
C1222 C1223 1.355 . S
C1222 C1224 1.415 . S
C1223 C1222 1.355 . S
C1223 C1225 1.419 . S
C1224 C1222 1.415 . S
C1224 C1229 1.425 . S
C1224 C1231 1.409 . S
C1225 H1217 0.930 . S
C1225 C1223 1.419 . S
C1225 C1226 1.362 . S
C1226 H1218 0.930 . S
C1226 C1225 1.362 . S
C1226 C1229 1.409 . S
C1227 H1219 0.930 . S
C1227 C1228 1.355 . S
C1227 C1229 1.415 . S
C1228 C1227 1.355 . S
C1228 C1230 1.419 . S
C1229 C1224 1.425 . S
C1229 C1226 1.409 . S
C1229 C1227 1.415 . S
C1230 H1220 0.930 . S
C1230 C1228 1.419 . S
C1230 C1231 1.362 . S
C1231 H1221 0.930 . S
C1231 C1224 1.409 . S
C1231 C1230 1.362 . S
H1232 C1238 0.930 . S
H1233 C1241 0.930 . S
H1234 C1242 0.930 . S
H1235 C1243 0.930 . S
H1236 C1246 0.930 . S
H1237 C1247 0.930 . S
C1238 H1232 0.930 . S
C1238 C1239 1.355 . S
C1238 C1240 1.415 . S
C1239 C1238 1.355 . S
C1239 C1241 1.419 . S
C1240 C1238 1.415 . S
C1240 C1245 1.425 . S
C1240 C1247 1.409 . S
C1241 H1233 0.930 . S
C1241 C1239 1.419 . S
C1241 C1242 1.362 . S
C1242 H1234 0.930 . S
C1242 C1241 1.362 . S
C1242 C1245 1.409 . S
C1243 H1235 0.930 . S
C1243 C1244 1.355 . S
C1243 C1245 1.415 . S
C1244 C1243 1.355 . S
C1244 C1246 1.419 . S
C1245 C1240 1.425 . S
C1245 C1242 1.409 . S
C1245 C1243 1.415 . S
C1246 H1236 0.930 . S
C1246 C1244 1.419 . S
C1246 C1247 1.362 . S
C1247 H1237 0.930 . S
C1247 C1240 1.409 . S
C1247 C1246 1.362 . S
H1248 C1254 0.930 . S
H1249 C1257 0.930 . S
H1250 C1258 0.930 . S
H1251 C1259 0.930 . S
H1252 C1262 0.930 . S
H1253 C1263 0.930 . S
C1254 H1248 0.930 . S
C1254 C1255 1.355 . S
C1254 C1256 1.415 . S
C1255 C1254 1.355 . S
C1255 C1257 1.419 . S
C1256 C1254 1.415 . S
C1256 C1261 1.425 . S
C1256 C1263 1.409 . S
C1257 H1249 0.930 . S
C1257 C1255 1.419 . S
C1257 C1258 1.362 . S
C1258 H1250 0.930 . S
C1258 C1257 1.362 . S
C1258 C1261 1.409 . S
C1259 H1251 0.930 . S
C1259 C1260 1.355 . S
C1259 C1261 1.415 . S
C1260 C1259 1.355 . S
C1260 C1262 1.419 1_545 S
C1261 C1256 1.425 . S
C1261 C1258 1.409 . S
C1261 C1259 1.415 . S
C1262 H1252 0.930 . S
C1262 C1260 1.419 1_565 S
C1262 C1263 1.362 1_565 S
C1263 H1253 0.930 . S
C1263 C1256 1.409 . S
C1263 C1262 1.362 1_545 S
H1264 C1270 0.930 . S
H1265 C1273 0.930 . S
H1266 C1274 0.930 . S
H1267 C1275 0.930 . S
H1268 C1278 0.930 . S
H1269 C1279 0.930 . S
C1270 H1264 0.930 . S
C1270 C1271 1.355 . S
C1270 C1272 1.415 . S
C1271 C1270 1.355 . S
C1271 C1273 1.419 . S
C1272 C1270 1.415 . S
C1272 C1277 1.425 . S
C1272 C1279 1.409 . S
C1273 H1265 0.930 . S
C1273 C1271 1.419 . S
C1273 C1274 1.362 . S
C1274 H1266 0.930 . S
C1274 C1273 1.362 . S
C1274 C1277 1.409 . S
C1275 H1267 0.930 . S
C1275 C1276 1.355 . S
C1275 C1277 1.415 . S
C1276 C1275 1.355 . S
C1276 C1278 1.419 . S
C1277 C1272 1.425 . S
C1277 C1274 1.409 . S
C1277 C1275 1.415 . S
C1278 H1268 0.930 . S
C1278 C1276 1.419 . S
C1278 C1279 1.362 . S
C1279 H1269 0.930 . S
C1279 C1272 1.409 . S
C1279 C1278 1.362 . S
H1280 C1286 0.930 . S
H1281 C1289 0.930 . S
H1282 C1290 0.930 . S
H1283 C1291 0.930 1_565 S
H1284 C1294 0.930 . S
H1285 C1295 0.930 . S
C1286 H1280 0.930 . S
C1286 C1287 1.355 . S
C1286 C1288 1.415 . S
C1287 C1286 1.355 . S
C1287 C1289 1.419 . S
C1288 C1286 1.415 . S
C1288 C1293 1.425 . S
C1288 C1295 1.409 . S
C1289 H1281 0.930 . S
C1289 C1287 1.419 . S
C1289 C1290 1.362 . S
C1290 H1282 0.930 . S
C1290 C1289 1.362 . S
C1290 C1293 1.409 . S
C1291 H1283 0.930 1_545 S
C1291 C1292 1.355 . S
C1291 C1293 1.415 . S
C1292 C1291 1.355 . S
C1292 C1294 1.419 . S
C1293 C1288 1.425 . S
C1293 C1290 1.409 . S
C1293 C1291 1.415 . S
C1294 H1284 0.930 . S
C1294 C1292 1.419 . S
C1294 C1295 1.362 . S
C1295 H1285 0.930 . S
C1295 C1288 1.409 . S
C1295 C1294 1.362 . S
H1296 C1302 0.930 . S
H1297 C1305 0.930 . S
H1298 C1306 0.930 . S
H1299 C1307 0.930 . S
H1300 C1310 0.930 . S
H1301 C1311 0.930 . S
C1302 H1296 0.930 . S
C1302 C1303 1.355 . S
C1302 C1304 1.415 . S
C1303 C1302 1.355 . S
C1303 C1305 1.419 . S
C1304 C1302 1.415 . S
C1304 C1309 1.425 . S
C1304 C1311 1.409 . S
C1305 H1297 0.930 . S
C1305 C1303 1.419 . S
C1305 C1306 1.362 . S
C1306 H1298 0.930 . S
C1306 C1305 1.362 . S
C1306 C1309 1.409 . S
C1307 H1299 0.930 . S
C1307 C1308 1.355 . S
C1307 C1309 1.415 . S
C1308 C1307 1.355 . S
C1308 C1310 1.419 . S
C1309 C1304 1.425 . S
C1309 C1306 1.409 . S
C1309 C1307 1.415 . S
C1310 H1300 0.930 . S
C1310 C1308 1.419 . S
C1310 C1311 1.362 . S
C1311 H1301 0.930 . S
C1311 C1304 1.409 . S
C1311 C1310 1.362 . S
H1312 C1318 0.930 . S
H1313 C1321 0.930 1_545 S
H1314 C1322 0.930 . S
H1315 C1323 0.930 . S
H1316 C1326 0.930 . S
H1317 C1327 0.930 . S
C1318 H1312 0.930 . S
C1318 C1319 1.355 . S
C1318 C1320 1.415 . S
C1319 C1318 1.355 . S
C1319 C1321 1.419 . S
C1320 C1318 1.415 . S
C1320 C1325 1.425 . S
C1320 C1327 1.409 . S
C1321 H1313 0.930 1_565 S
C1321 C1319 1.419 . S
C1321 C1322 1.362 . S
C1322 H1314 0.930 . S
C1322 C1321 1.362 . S
C1322 C1325 1.409 . S
C1323 H1315 0.930 . S
C1323 C1324 1.355 . S
C1323 C1325 1.415 . S
C1324 C1323 1.355 . S
C1324 C1326 1.419 . S
C1325 C1320 1.425 . S
C1325 C1322 1.409 . S
C1325 C1323 1.415 . S
C1326 H1316 0.930 . S
C1326 C1324 1.419 . S
C1326 C1327 1.362 . S
C1327 H1317 0.930 . S
C1327 C1320 1.409 . S
C1327 C1326 1.362 . S
H1328 C1334 0.930 . S
H1329 C1337 0.930 . S
H1330 C1338 0.930 . S
H1331 C1339 0.930 . S
H1332 C1342 0.930 . S
H1333 C1343 0.930 . S
C1334 H1328 0.930 . S
C1334 C1335 1.355 . S
C1334 C1336 1.415 . S
C1335 C1334 1.355 . S
C1335 C1337 1.419 . S
C1336 C1334 1.415 . S
C1336 C1341 1.425 . S
C1336 C1343 1.409 . S
C1337 H1329 0.930 . S
C1337 C1335 1.419 . S
C1337 C1338 1.362 . S
C1338 H1330 0.930 . S
C1338 C1337 1.362 . S
C1338 C1341 1.409 . S
C1339 H1331 0.930 . S
C1339 C1340 1.355 . S
C1339 C1341 1.415 . S
C1340 C1339 1.355 . S
C1340 C1342 1.419 . S
C1341 C1336 1.425 . S
C1341 C1338 1.409 . S
C1341 C1339 1.415 . S
C1342 H1332 0.930 . S
C1342 C1340 1.419 . S
C1342 C1343 1.362 . S
C1343 H1333 0.930 . S
C1343 C1336 1.409 . S
C1343 C1342 1.362 . S
H1344 C1350 0.930 . S
H1345 C1353 0.930 . S
H1346 C1354 0.930 . S
H1347 C1355 0.930 . S
H1348 C1358 0.930 . S
H1349 C1359 0.930 . S
C1350 H1344 0.930 . S
C1350 C1351 1.355 . S
C1350 C1352 1.415 . S
C1351 C1350 1.355 . S
C1351 C1353 1.419 . S
C1352 C1350 1.415 . S
C1352 C1357 1.425 . S
C1352 C1359 1.409 . S
C1353 H1345 0.930 . S
C1353 C1351 1.419 . S
C1353 C1354 1.362 . S
C1354 H1346 0.930 . S
C1354 C1353 1.362 . S
C1354 C1357 1.409 . S
C1355 H1347 0.930 . S
C1355 C1356 1.355 . S
C1355 C1357 1.415 . S
C1356 C1355 1.355 . S
C1356 C1358 1.419 . S
C1357 C1352 1.425 . S
C1357 C1354 1.409 . S
C1357 C1355 1.415 . S
C1358 H1348 0.930 . S
C1358 C1356 1.419 . S
C1358 C1359 1.362 . S
C1359 H1349 0.930 . S
C1359 C1352 1.409 . S
C1359 C1358 1.362 . S
H1360 C1366 0.930 . S
H1361 C1369 0.930 . S
H1362 C1370 0.930 . S
H1363 C1371 0.930 . S
H1364 C1374 0.930 . S
H1365 C1375 0.930 . S
C1366 H1360 0.930 . S
C1366 C1367 1.355 . S
C1366 C1368 1.415 . S
C1367 C1366 1.355 . S
C1367 C1369 1.419 . S
C1368 C1366 1.415 . S
C1368 C1373 1.425 . S
C1368 C1375 1.409 . S
C1369 H1361 0.930 . S
C1369 C1367 1.419 . S
C1369 C1370 1.362 . S
C1370 H1362 0.930 . S
C1370 C1369 1.362 . S
C1370 C1373 1.409 . S
C1371 H1363 0.930 . S
C1371 C1372 1.355 . S
C1371 C1373 1.415 . S
C1372 C1371 1.355 . S
C1372 C1374 1.419 . S
C1373 C1368 1.425 . S
C1373 C1370 1.409 . S
C1373 C1371 1.415 . S
C1374 H1364 0.930 . S
C1374 C1372 1.419 . S
C1374 C1375 1.362 . S
C1375 H1365 0.930 . S
C1375 C1368 1.409 . S
C1375 C1374 1.362 . S
H1376 C1382 0.930 . S
H1377 C1385 0.930 . S
H1378 C1386 0.930 . S
H1379 C1387 0.930 . S
H1380 C1390 0.930 . S
H1381 C1391 0.930 . S
C1382 H1376 0.930 . S
C1382 C1383 1.355 . S
C1382 C1384 1.415 . S
C1383 C1382 1.355 . S
C1383 C1385 1.419 . S
C1384 C1382 1.415 . S
C1384 C1389 1.425 . S
C1384 C1391 1.409 . S
C1385 H1377 0.930 . S
C1385 C1383 1.419 . S
C1385 C1386 1.362 . S
C1386 H1378 0.930 . S
C1386 C1385 1.362 . S
C1386 C1389 1.409 . S
C1387 H1379 0.930 . S
C1387 C1388 1.355 . S
C1387 C1389 1.415 . S
C1388 C1387 1.355 . S
C1388 C1390 1.419 . S
C1389 C1384 1.425 . S
C1389 C1386 1.409 . S
C1389 C1387 1.415 . S
C1390 H1380 0.930 . S
C1390 C1388 1.419 . S
C1390 C1391 1.362 . S
C1391 H1381 0.930 . S
C1391 C1384 1.409 . S
C1391 C1390 1.362 . S
H1392 C1398 0.930 . S
H1393 C1401 0.930 . S
H1394 C1402 0.930 . S
H1395 C1403 0.930 . S
H1396 C1406 0.930 . S
H1397 C1407 0.930 . S
C1398 H1392 0.930 . S
C1398 C1399 1.355 . S
C1398 C1400 1.415 . S
C1399 C1398 1.355 . S
C1399 C1401 1.419 . S
C1400 C1398 1.415 . S
C1400 C1405 1.425 . S
C1400 C1407 1.409 . S
C1401 H1393 0.930 . S
C1401 C1399 1.419 . S
C1401 C1402 1.362 . S
C1402 H1394 0.930 . S
C1402 C1401 1.362 . S
C1402 C1405 1.409 . S
C1403 H1395 0.930 . S
C1403 C1404 1.355 . S
C1403 C1405 1.415 . S
C1404 C1403 1.355 . S
C1404 C1406 1.419 . S
C1405 C1400 1.425 . S
C1405 C1402 1.409 . S
C1405 C1403 1.415 . S
C1406 H1396 0.930 . S
C1406 C1404 1.419 . S
C1406 C1407 1.362 . S
C1407 H1397 0.930 . S
C1407 C1400 1.409 . S
C1407 C1406 1.362 . S
H1408 C1414 0.930 . S
H1409 C1417 0.930 . S
H1410 C1418 0.930 . S
H1411 C1419 0.930 . S
H1412 C1422 0.930 . S
H1413 C1423 0.930 . S
C1414 H1408 0.930 . S
C1414 C1415 1.355 . S
C1414 C1416 1.415 . S
C1415 C1414 1.355 . S
C1415 C1417 1.419 . S
C1416 C1414 1.415 . S
C1416 C1421 1.425 . S
C1416 C1423 1.409 . S
C1417 H1409 0.930 . S
C1417 C1415 1.419 . S
C1417 C1418 1.362 . S
C1418 H1410 0.930 . S
C1418 C1417 1.362 . S
C1418 C1421 1.409 . S
C1419 H1411 0.930 . S
C1419 C1420 1.355 . S
C1419 C1421 1.415 . S
C1420 C1419 1.355 . S
C1420 C1422 1.419 . S
C1421 C1416 1.425 . S
C1421 C1418 1.409 . S
C1421 C1419 1.415 . S
C1422 H1412 0.930 . S
C1422 C1420 1.419 . S
C1422 C1423 1.362 . S
C1423 H1413 0.930 . S
C1423 C1416 1.409 . S
C1423 C1422 1.362 . S
H1424 C1430 0.930 . S
H1425 C1433 0.930 . S
H1426 C1434 0.930 . S
H1427 C1435 0.930 . S
H1428 C1438 0.930 . S
H1429 C1439 0.930 . S
C1430 H1424 0.930 . S
C1430 C1431 1.355 . S
C1430 C1432 1.415 . S
C1431 C1430 1.355 . S
C1431 C1433 1.419 . S
C1432 C1430 1.415 . S
C1432 C1437 1.425 . S
C1432 C1439 1.409 . S
C1433 H1425 0.930 . S
C1433 C1431 1.419 . S
C1433 C1434 1.362 . S
C1434 H1426 0.930 . S
C1434 C1433 1.362 . S
C1434 C1437 1.409 . S
C1435 H1427 0.930 . S
C1435 C1436 1.355 . S
C1435 C1437 1.415 . S
C1436 C1435 1.355 . S
C1436 C1438 1.419 . S
C1437 C1432 1.425 . S
C1437 C1434 1.409 . S
C1437 C1435 1.415 . S
C1438 H1428 0.930 . S
C1438 C1436 1.419 . S
C1438 C1439 1.362 . S
C1439 H1429 0.930 . S
C1439 C1432 1.409 . S
C1439 C1438 1.362 . S
H1440 C1446 0.930 . S
H1441 C1449 0.930 . S
H1442 C1450 0.930 . S
H1443 C1451 0.930 . S
H1444 C1454 0.930 . S
H1445 C1455 0.930 . S
C1446 H1440 0.930 . S
C1446 C1447 1.355 . S
C1446 C1448 1.415 . S
C1447 C1446 1.355 . S
C1447 C1449 1.419 . S
C1448 C1446 1.415 . S
C1448 C1453 1.425 . S
C1448 C1455 1.409 . S
C1449 H1441 0.930 . S
C1449 C1447 1.419 . S
C1449 C1450 1.362 . S
C1450 H1442 0.930 . S
C1450 C1449 1.362 . S
C1450 C1453 1.409 . S
C1451 H1443 0.930 . S
C1451 C1452 1.355 . S
C1451 C1453 1.415 . S
C1452 C1451 1.355 . S
C1452 C1454 1.419 . S
C1453 C1448 1.425 . S
C1453 C1450 1.409 . S
C1453 C1451 1.415 . S
C1454 H1444 0.930 . S
C1454 C1452 1.419 . S
C1454 C1455 1.362 . S
C1455 H1445 0.930 . S
C1455 C1448 1.409 . S
C1455 C1454 1.362 . S
H1456 C1462 0.930 . S
H1457 C1465 0.930 . S
H1458 C1466 0.930 . S
H1459 C1467 0.930 . S
H1460 C1470 0.930 . S
H1461 C1471 0.930 . S
C1462 H1456 0.930 . S
C1462 C1463 1.355 . S
C1462 C1464 1.415 . S
C1463 C1462 1.355 . S
C1463 C1465 1.419 . S
C1464 C1462 1.415 . S
C1464 C1469 1.425 . S
C1464 C1471 1.409 . S
C1465 H1457 0.930 . S
C1465 C1463 1.419 . S
C1465 C1466 1.362 . S
C1466 H1458 0.930 . S
C1466 C1465 1.362 . S
C1466 C1469 1.409 . S
C1467 H1459 0.930 . S
C1467 C1468 1.355 . S
C1467 C1469 1.415 . S
C1468 C1467 1.355 . S
C1468 C1470 1.419 . S
C1469 C1464 1.425 . S
C1469 C1466 1.409 . S
C1469 C1467 1.415 . S
C1470 H1460 0.930 . S
C1470 C1468 1.419 . S
C1470 C1471 1.362 . S
C1471 H1461 0.930 . S
C1471 C1464 1.409 . S
C1471 C1470 1.362 . S
H1472 C1478 0.930 . S
H1473 C1481 0.930 . S
H1474 C1482 0.930 . S
H1475 C1483 0.930 . S
H1476 C1486 0.930 . S
H1477 C1487 0.930 . S
C1478 H1472 0.930 . S
C1478 C1479 1.355 . S
C1478 C1480 1.415 . S
C1479 C1478 1.355 . S
C1479 C1481 1.419 . S
C1480 C1478 1.415 . S
C1480 C1485 1.425 . S
C1480 C1487 1.409 . S
C1481 H1473 0.930 . S
C1481 C1479 1.419 . S
C1481 C1482 1.362 . S
C1482 H1474 0.930 . S
C1482 C1481 1.362 . S
C1482 C1485 1.409 . S
C1483 H1475 0.930 . S
C1483 C1484 1.355 . S
C1483 C1485 1.415 . S
C1484 C1483 1.355 . S
C1484 C1486 1.419 . S
C1485 C1480 1.425 . S
C1485 C1482 1.409 . S
C1485 C1483 1.415 . S
C1486 H1476 0.930 . S
C1486 C1484 1.419 . S
C1486 C1487 1.362 . S
C1487 H1477 0.930 . S
C1487 C1480 1.409 . S
C1487 C1486 1.362 . S
H1488 C1494 0.930 . S
H1489 C1497 0.930 . S
H1490 C1498 0.930 . S
H1491 C1499 0.930 . S
H1492 C1502 0.930 . S
H1493 C1503 0.930 . S
C1494 H1488 0.930 . S
C1494 C1495 1.355 . S
C1494 C1496 1.415 . S
C1495 C1494 1.355 . S
C1495 C1497 1.419 . S
C1496 C1494 1.415 . S
C1496 C1501 1.425 . S
C1496 C1503 1.409 . S
C1497 H1489 0.930 . S
C1497 C1495 1.419 . S
C1497 C1498 1.362 . S
C1498 H1490 0.930 . S
C1498 C1497 1.362 . S
C1498 C1501 1.409 . S
C1499 H1491 0.930 . S
C1499 C1500 1.355 . S
C1499 C1501 1.415 . S
C1500 C1499 1.355 . S
C1500 C1502 1.419 . S
C1501 C1496 1.425 . S
C1501 C1498 1.409 . S
C1501 C1499 1.415 . S
C1502 H1492 0.930 . S
C1502 C1500 1.419 . S
C1502 C1503 1.362 . S
C1503 H1493 0.930 . S
C1503 C1496 1.409 . S
C1503 C1502 1.362 . S
H1504 C1510 0.930 . S
H1505 C1513 0.930 . S
H1506 C1514 0.930 . S
H1507 C1515 0.930 . S
H1508 C1518 0.930 . S
H1509 C1519 0.930 . S
C1510 H1504 0.930 . S
C1510 C1511 1.355 . S
C1510 C1512 1.415 . S
C1511 C1510 1.355 . S
C1511 C1513 1.419 . S
C1512 C1510 1.415 . S
C1512 C1517 1.425 . S
C1512 C1519 1.409 . S
C1513 H1505 0.930 . S
C1513 C1511 1.419 . S
C1513 C1514 1.362 . S
C1514 H1506 0.930 . S
C1514 C1513 1.362 . S
C1514 C1517 1.409 . S
C1515 H1507 0.930 . S
C1515 C1516 1.355 . S
C1515 C1517 1.415 . S
C1516 C1515 1.355 . S
C1516 C1518 1.419 . S
C1517 C1512 1.425 . S
C1517 C1514 1.409 . S
C1517 C1515 1.415 . S
C1518 H1508 0.930 . S
C1518 C1516 1.419 . S
C1518 C1519 1.362 . S
C1519 H1509 0.930 . S
C1519 C1512 1.409 . S
C1519 C1518 1.362 . S
H1520 C1526 0.930 . S
H1521 C1529 0.930 . S
H1522 C1530 0.930 . S
H1523 C1531 0.930 . S
H1524 C1534 0.930 . S
H1525 C1535 0.930 . S
C1526 H1520 0.930 . S
C1526 C1527 1.355 . S
C1526 C1528 1.415 . S
C1527 C1526 1.355 . S
C1527 C1529 1.419 . S
C1528 C1526 1.415 . S
C1528 C1533 1.425 . S
C1528 C1535 1.409 . S
C1529 H1521 0.930 . S
C1529 C1527 1.419 . S
C1529 C1530 1.362 . S
C1530 H1522 0.930 . S
C1530 C1529 1.362 . S
C1530 C1533 1.409 . S
C1531 H1523 0.930 . S
C1531 C1532 1.355 . S
C1531 C1533 1.415 . S
C1532 C1531 1.355 . S
C1532 C1534 1.419 . S
C1533 C1528 1.425 . S
C1533 C1530 1.409 . S
C1533 C1531 1.415 . S
C1534 H1524 0.930 . S
C1534 C1532 1.419 . S
C1534 C1535 1.362 . S
C1535 H1525 0.930 . S
C1535 C1528 1.409 . S
C1535 C1534 1.362 . S
H1536 C1542 0.930 . S
H1537 C1545 0.930 . S
H1538 C1546 0.930 . S
H1539 C1547 0.930 . S
H1540 C1550 0.930 . S
H1541 C1551 0.930 . S
C1542 H1536 0.930 . S
C1542 C1543 1.355 . S
C1542 C1544 1.415 . S
C1543 C1542 1.355 . S
C1543 C1545 1.419 . S
C1544 C1542 1.415 . S
C1544 C1549 1.425 . S
C1544 C1551 1.409 . S
C1545 H1537 0.930 . S
C1545 C1543 1.419 . S
C1545 C1546 1.362 . S
C1546 H1538 0.930 . S
C1546 C1545 1.362 . S
C1546 C1549 1.409 . S
C1547 H1539 0.930 . S
C1547 C1548 1.355 . S
C1547 C1549 1.415 . S
C1548 C1547 1.355 . S
C1548 C1550 1.419 . S
C1549 C1544 1.425 . S
C1549 C1546 1.409 . S
C1549 C1547 1.415 . S
C1550 H1540 0.930 . S
C1550 C1548 1.419 . S
C1550 C1551 1.362 . S
C1551 H1541 0.930 . S
C1551 C1544 1.409 . S
C1551 C1550 1.362 . S
H1552 C1558 0.930 . S
H1553 C1561 0.930 . S
H1554 C1562 0.930 . S
H1555 C1563 0.930 . S
H1556 C1566 0.930 . S
H1557 C1567 0.930 . S
C1558 H1552 0.930 . S
C1558 C1559 1.355 . S
C1558 C1560 1.415 . S
C1559 C1558 1.355 . S
C1559 C1561 1.419 . S
C1560 C1558 1.415 . S
C1560 C1565 1.425 . S
C1560 C1567 1.409 . S
C1561 H1553 0.930 . S
C1561 C1559 1.419 . S
C1561 C1562 1.362 . S
C1562 H1554 0.930 . S
C1562 C1561 1.362 . S
C1562 C1565 1.409 . S
C1563 H1555 0.930 . S
C1563 C1564 1.355 . S
C1563 C1565 1.415 . S
C1564 C1563 1.355 . S
C1564 C1566 1.419 . S
C1565 C1560 1.425 . S
C1565 C1562 1.409 . S
C1565 C1563 1.415 . S
C1566 H1556 0.930 . S
C1566 C1564 1.419 . S
C1566 C1567 1.362 . S
C1567 H1557 0.930 . S
C1567 C1560 1.409 . S
C1567 C1566 1.362 . S
H1568 C1574 0.930 . S
H1569 C1577 0.930 . S
H1570 C1578 0.930 . S
H1571 C1579 0.930 . S
H1572 C1582 0.930 . S
H1573 C1583 0.930 . S
C1574 H1568 0.930 . S
C1574 C1575 1.355 . S
C1574 C1576 1.415 . S
C1575 C1574 1.355 . S
C1575 C1577 1.419 . S
C1576 C1574 1.415 . S
C1576 C1581 1.425 . S
C1576 C1583 1.409 . S
C1577 H1569 0.930 . S
C1577 C1575 1.419 . S
C1577 C1578 1.362 . S
C1578 H1570 0.930 . S
C1578 C1577 1.362 . S
C1578 C1581 1.409 . S
C1579 H1571 0.930 . S
C1579 C1580 1.355 . S
C1579 C1581 1.415 . S
C1580 C1579 1.355 . S
C1580 C1582 1.419 . S
C1581 C1576 1.425 . S
C1581 C1578 1.409 . S
C1581 C1579 1.415 . S
C1582 H1572 0.930 . S
C1582 C1580 1.419 . S
C1582 C1583 1.362 . S
C1583 H1573 0.930 . S
C1583 C1576 1.409 . S
C1583 C1582 1.362 . S
H1584 C1590 0.930 . S
H1585 C1593 0.930 . S
H1586 C1594 0.930 . S
H1587 C1595 0.930 . S
H1588 C1598 0.930 . S
H1589 C1599 0.930 . S
C1590 H1584 0.930 . S
C1590 C1591 1.355 . S
C1590 C1592 1.415 . S
C1591 C1590 1.355 . S
C1591 C1593 1.419 . S
C1592 C1590 1.415 . S
C1592 C1597 1.425 . S
C1592 C1599 1.409 . S
C1593 H1585 0.930 . S
C1593 C1591 1.419 . S
C1593 C1594 1.362 . S
C1594 H1586 0.930 . S
C1594 C1593 1.362 . S
C1594 C1597 1.409 . S
C1595 H1587 0.930 . S
C1595 C1596 1.355 . S
C1595 C1597 1.415 . S
C1596 C1595 1.355 . S
C1596 C1598 1.419 . S
C1597 C1592 1.425 . S
C1597 C1594 1.409 . S
C1597 C1595 1.415 . S
C1598 H1588 0.930 . S
C1598 C1596 1.419 . S
C1598 C1599 1.362 . S
C1599 H1589 0.930 . S
C1599 C1592 1.409 . S
C1599 C1598 1.362 . S
H1600 C1606 0.930 . S
H1601 C1609 0.930 . S
H1602 C1610 0.930 . S
H1603 C1611 0.930 . S
H1604 C1614 0.930 . S
H1605 C1615 0.930 . S
C1606 H1600 0.930 . S
C1606 C1607 1.355 . S
C1606 C1608 1.415 . S
C1607 C1606 1.355 . S
C1607 C1609 1.419 . S
C1608 C1606 1.415 . S
C1608 C1613 1.425 . S
C1608 C1615 1.409 . S
C1609 H1601 0.930 . S
C1609 C1607 1.419 . S
C1609 C1610 1.362 . S
C1610 H1602 0.930 . S
C1610 C1609 1.362 . S
C1610 C1613 1.409 . S
C1611 H1603 0.930 . S
C1611 C1612 1.355 . S
C1611 C1613 1.415 . S
C1612 C1611 1.355 . S
C1612 C1614 1.419 . S
C1613 C1608 1.425 . S
C1613 C1610 1.409 . S
C1613 C1611 1.415 . S
C1614 H1604 0.930 . S
C1614 C1612 1.419 . S
C1614 C1615 1.362 . S
C1615 H1605 0.930 . S
C1615 C1608 1.409 . S
C1615 C1614 1.362 . S
H1616 C1622 0.930 . S
H1617 C1625 0.930 . S
H1618 C1626 0.930 . S
H1619 C1627 0.930 . S
H1620 C1630 0.930 . S
H1621 C1631 0.930 . S
C1622 H1616 0.930 . S
C1622 C1623 1.355 . S
C1622 C1624 1.415 . S
C1623 C1622 1.355 . S
C1623 C1625 1.419 1_565 S
C1624 C1622 1.415 . S
C1624 C1629 1.425 1_565 S
C1624 C1631 1.409 . S
C1625 H1617 0.930 . S
C1625 C1623 1.419 1_545 S
C1625 C1626 1.362 . S
C1626 H1618 0.930 . S
C1626 C1625 1.362 . S
C1626 C1629 1.409 . S
C1627 H1619 0.930 . S
C1627 C1628 1.355 . S
C1627 C1629 1.415 . S
C1628 C1627 1.355 . S
C1628 C1630 1.419 1_545 S
C1629 C1624 1.425 1_545 S
C1629 C1626 1.409 . S
C1629 C1627 1.415 . S
C1630 H1620 0.930 . S
C1630 C1628 1.419 1_565 S
C1630 C1631 1.362 . S
C1631 H1621 0.930 . S
C1631 C1624 1.409 . S
C1631 C1630 1.362 . S
H1632 C1638 0.930 . S
H1633 C1641 0.930 . S
H1634 C1642 0.930 . S
H1635 C1643 0.930 . S
H1636 C1646 0.930 . S
H1637 C1647 0.930 . S
C1638 H1632 0.930 . S
C1638 C1639 1.355 . S
C1638 C1640 1.415 . S
C1639 C1638 1.355 . S
C1639 C1641 1.419 . S
C1640 C1638 1.415 . S
C1640 C1645 1.425 . S
C1640 C1647 1.409 . S
C1641 H1633 0.930 . S
C1641 C1639 1.419 . S
C1641 C1642 1.362 . S
C1642 H1634 0.930 . S
C1642 C1641 1.362 . S
C1642 C1645 1.409 . S
C1643 H1635 0.930 . S
C1643 C1644 1.355 . S
C1643 C1645 1.415 . S
C1644 C1643 1.355 . S
C1644 C1646 1.419 . S
C1645 C1640 1.425 . S
C1645 C1642 1.409 . S
C1645 C1643 1.415 . S
C1646 H1636 0.930 . S
C1646 C1644 1.419 . S
C1646 C1647 1.362 . S
C1647 H1637 0.930 . S
C1647 C1640 1.409 . S
C1647 C1646 1.362 . S
H1648 C1654 0.930 . S
H1649 C1657 0.930 . S
H1650 C1658 0.936 . S
H1651 C1659 0.930 . S
H1652 C1662 0.930 . S
H1653 C1663 0.936 . S
C1654 H1648 0.930 . S
C1654 C1655 1.355 1_565 S
C1654 C1656 1.415 . S
C1655 C1654 1.355 1_545 S
C1655 C1657 1.419 . S
C1656 C1654 1.415 . S
C1656 C1661 1.425 1_566 S
C1656 C1663 1.409 1_556 S
C1657 H1649 0.930 . S
C1657 C1655 1.419 . S
C1657 C1658 1.362 . S
C1658 H1650 0.936 . S
C1658 C1657 1.362 . S
C1658 C1661 1.409 1_556 S
C1659 H1651 0.930 . S
C1659 C1660 1.355 1_545 S
C1659 C1661 1.415 . S
C1660 C1659 1.355 1_565 S
C1660 C1662 1.419 . S
C1661 C1656 1.425 1_544 S
C1661 C1658 1.409 1_554 S
C1661 C1659 1.415 . S
C1662 H1652 0.930 . S
C1662 C1660 1.419 . S
C1662 C1663 1.362 . S
C1663 H1653 0.936 . S
C1663 C1656 1.409 1_554 S
C1663 C1662 1.362 . S
H1664 C1670 0.930 . S
H1665 C1673 0.930 . S
H1666 C1674 0.930 . S
H1667 C1675 0.930 . S
H1668 C1678 0.930 . S
H1669 C1679 0.930 . S
C1670 H1664 0.930 . S
C1670 C1671 1.355 . S
C1670 C1672 1.415 . S
C1671 C1670 1.355 . S
C1671 C1673 1.419 . S
C1672 C1670 1.415 . S
C1672 C1677 1.425 . S
C1672 C1679 1.409 . S
C1673 H1665 0.930 . S
C1673 C1671 1.419 . S
C1673 C1674 1.362 . S
C1674 H1666 0.930 . S
C1674 C1673 1.362 . S
C1674 C1677 1.409 . S
C1675 H1667 0.930 . S
C1675 C1676 1.355 . S
C1675 C1677 1.415 . S
C1676 C1675 1.355 . S
C1676 C1678 1.419 . S
C1677 C1672 1.425 . S
C1677 C1674 1.409 . S
C1677 C1675 1.415 . S
C1678 H1668 0.930 . S
C1678 C1676 1.419 . S
C1678 C1679 1.362 . S
C1679 H1669 0.930 . S
C1679 C1672 1.409 . S
C1679 C1678 1.362 . S
H1680 C1686 0.925 1_545 S
H1681 C1689 0.930 . S
H1682 C1690 0.930 . S
H1683 C1691 0.925 1_565 S
H1684 C1694 0.930 . S
H1685 C1695 0.930 . S
C1686 H1680 0.925 1_565 S
C1686 C1687 1.365 . S
C1686 C1688 1.411 1_565 S
C1687 C1686 1.365 . S
C1687 C1689 1.419 . S
C1688 C1686 1.411 1_545 S
C1688 C1693 1.425 1_545 S
C1688 C1695 1.409 . S
C1689 H1681 0.930 . S
C1689 C1687 1.419 . S
C1689 C1690 1.362 . S
C1690 H1682 0.930 . S
C1690 C1689 1.362 . S
C1690 C1693 1.409 . S
C1691 H1683 0.925 1_545 S
C1691 C1692 1.365 . S
C1691 C1693 1.411 1_545 S
C1692 C1691 1.365 . S
C1692 C1694 1.419 . S
C1693 C1688 1.425 1_565 S
C1693 C1690 1.409 . S
C1693 C1691 1.411 1_565 S
C1694 H1684 0.930 . S
C1694 C1692 1.419 . S
C1694 C1695 1.362 . S
C1695 H1685 0.930 . S
C1695 C1688 1.409 . S
C1695 C1694 1.362 . S
H1696 C1702 0.930 . S
H1697 C1705 0.930 . S
H1698 C1706 0.930 . S
H1699 C1707 0.930 . S
H1700 C1710 0.930 . S
H1701 C1711 0.930 . S
C1702 H1696 0.930 . S
C1702 C1703 1.355 . S
C1702 C1704 1.415 . S
C1703 C1702 1.355 . S
C1703 C1705 1.419 . S
C1704 C1702 1.415 . S
C1704 C1709 1.425 . S
C1704 C1711 1.409 . S
C1705 H1697 0.930 . S
C1705 C1703 1.419 . S
C1705 C1706 1.362 . S
C1706 H1698 0.930 . S
C1706 C1705 1.362 . S
C1706 C1709 1.409 . S
C1707 H1699 0.930 . S
C1707 C1708 1.355 . S
C1707 C1709 1.415 . S
C1708 C1707 1.355 . S
C1708 C1710 1.419 . S
C1709 C1704 1.425 . S
C1709 C1706 1.409 . S
C1709 C1707 1.415 . S
C1710 H1700 0.930 . S
C1710 C1708 1.419 . S
C1710 C1711 1.362 . S
C1711 H1701 0.930 . S
C1711 C1704 1.409 . S
C1711 C1710 1.362 . S
H1712 C1718 0.930 . S
H1713 C1721 0.930 . S
H1714 C1722 0.930 . S
H1715 C1723 0.930 . S
H1716 C1726 0.930 . S
H1717 C1727 0.930 . S
C1718 H1712 0.930 . S
C1718 C1719 1.355 . S
C1718 C1720 1.415 . S
C1719 C1718 1.355 . S
C1719 C1721 1.419 1_545 S
C1720 C1718 1.415 . S
C1720 C1725 1.425 1_546 S
C1720 C1727 1.409 1_556 S
C1721 H1713 0.930 . S
C1721 C1719 1.419 1_565 S
C1721 C1722 1.362 . S
C1722 H1714 0.930 . S
C1722 C1721 1.362 . S
C1722 C1725 1.409 1_556 S
C1723 H1715 0.930 . S
C1723 C1724 1.355 . S
C1723 C1725 1.415 . S
C1724 C1723 1.355 . S
C1724 C1726 1.419 1_565 S
C1725 C1720 1.425 1_564 S
C1725 C1722 1.409 1_554 S
C1725 C1723 1.415 . S
C1726 H1716 0.930 . S
C1726 C1724 1.419 1_545 S
C1726 C1727 1.362 . S
C1727 H1717 0.930 . S
C1727 C1720 1.409 1_554 S
C1727 C1726 1.362 . S
H1728 C1734 0.930 . S
H1729 C1737 0.930 . S
H1730 C1738 0.930 . S
H1731 C1739 0.930 . S
H1732 C1742 0.930 . S
H1733 C1743 0.930 . S
C1734 H1728 0.930 . S
C1734 C1735 1.355 . S
C1734 C1736 1.415 . S
C1735 C1734 1.355 . S
C1735 C1737 1.419 . S
C1736 C1734 1.415 . S
C1736 C1741 1.425 . S
C1736 C1743 1.409 . S
C1737 H1729 0.930 . S
C1737 C1735 1.419 . S
C1737 C1738 1.362 . S
C1738 H1730 0.930 . S
C1738 C1737 1.362 . S
C1738 C1741 1.409 . S
C1739 H1731 0.930 . S
C1739 C1740 1.355 . S
C1739 C1741 1.415 . S
C1740 C1739 1.355 . S
C1740 C1742 1.419 . S
C1741 C1736 1.425 . S
C1741 C1738 1.409 . S
C1741 C1739 1.415 . S
C1742 H1732 0.930 . S
C1742 C1740 1.419 . S
C1742 C1743 1.362 . S
C1743 H1733 0.930 . S
C1743 C1736 1.409 . S
C1743 C1742 1.362 . S
H1744 C1750 0.930 . S
H1745 C1753 0.930 . S
H1746 C1754 0.930 . S
H1747 C1755 0.930 . S
H1748 C1758 0.930 . S
H1749 C1759 0.930 . S
C1750 H1744 0.930 . S
C1750 C1751 1.355 . S
C1750 C1752 1.415 . S
C1751 C1750 1.355 . S
C1751 C1753 1.419 . S
C1752 C1750 1.415 . S
C1752 C1757 1.425 1_556 S
C1752 C1759 1.409 1_556 S
C1753 H1745 0.930 . S
C1753 C1751 1.419 . S
C1753 C1754 1.362 . S
C1754 H1746 0.930 . S
C1754 C1753 1.362 . S
C1754 C1757 1.409 1_556 S
C1755 H1747 0.930 . S
C1755 C1756 1.355 . S
C1755 C1757 1.415 . S
C1756 C1755 1.355 . S
C1756 C1758 1.419 . S
C1757 C1752 1.425 1_554 S
C1757 C1754 1.409 1_554 S
C1757 C1755 1.415 . S
C1758 H1748 0.930 . S
C1758 C1756 1.419 . S
C1758 C1759 1.362 . S
C1759 H1749 0.930 . S
C1759 C1752 1.409 1_554 S
C1759 C1758 1.362 . S
H1760 C1766 0.930 . S
H1761 C1769 0.930 . S
H1762 C1770 0.930 . S
H1763 C1771 0.930 . S
H1764 C1774 0.930 . S
H1765 C1775 0.930 . S
C1766 H1760 0.930 . S
C1766 C1767 1.355 . S
C1766 C1768 1.415 . S
C1767 C1766 1.355 . S
C1767 C1769 1.419 . S
C1768 C1766 1.415 . S
C1768 C1773 1.425 . S
C1768 C1775 1.409 . S
C1769 H1761 0.930 . S
C1769 C1767 1.419 . S
C1769 C1770 1.362 . S
C1770 H1762 0.930 . S
C1770 C1769 1.362 . S
C1770 C1773 1.409 . S
C1771 H1763 0.930 . S
C1771 C1772 1.355 . S
C1771 C1773 1.415 . S
C1772 C1771 1.355 . S
C1772 C1774 1.419 . S
C1773 C1768 1.425 . S
C1773 C1770 1.409 . S
C1773 C1771 1.415 . S
C1774 H1764 0.930 . S
C1774 C1772 1.419 . S
C1774 C1775 1.362 . S
C1775 H1765 0.930 . S
C1775 C1768 1.409 . S
C1775 C1774 1.362 . S
H1776 C1782 0.930 . S
H1777 C1785 0.930 . S
H1778 C1786 0.930 . S
H1779 C1787 0.930 . S
H1780 C1790 0.930 . S
H1781 C1791 0.930 . S
C1782 H1776 0.930 . S
C1782 C1783 1.355 . S
C1782 C1784 1.415 . S
C1783 C1782 1.355 . S
C1783 C1785 1.419 . S
C1784 C1782 1.415 . S
C1784 C1789 1.425 . S
C1784 C1791 1.409 . S
C1785 H1777 0.930 . S
C1785 C1783 1.419 . S
C1785 C1786 1.362 . S
C1786 H1778 0.930 . S
C1786 C1785 1.362 . S
C1786 C1789 1.409 . S
C1787 H1779 0.930 . S
C1787 C1788 1.355 . S
C1787 C1789 1.415 . S
C1788 C1787 1.355 . S
C1788 C1790 1.419 . S
C1789 C1784 1.425 . S
C1789 C1786 1.409 . S
C1789 C1787 1.415 . S
C1790 H1780 0.930 . S
C1790 C1788 1.419 . S
C1790 C1791 1.362 . S
C1791 H1781 0.930 . S
C1791 C1784 1.409 . S
C1791 C1790 1.362 . S
H1792 C1798 0.930 . S
H1793 C1801 0.930 . S
H1794 C1802 0.930 . S
H1795 C1803 0.930 . S
H1796 C1806 0.930 . S
H1797 C1807 0.930 . S
C1798 H1792 0.930 . S
C1798 C1799 1.355 . S
C1798 C1800 1.415 . S
C1799 C1798 1.355 . S
C1799 C1801 1.419 . S
C1800 C1798 1.415 . S
C1800 C1805 1.425 . S
C1800 C1807 1.409 . S
C1801 H1793 0.930 . S
C1801 C1799 1.419 . S
C1801 C1802 1.362 . S
C1802 H1794 0.930 . S
C1802 C1801 1.362 . S
C1802 C1805 1.409 . S
C1803 H1795 0.930 . S
C1803 C1804 1.355 . S
C1803 C1805 1.415 . S
C1804 C1803 1.355 . S
C1804 C1806 1.419 . S
C1805 C1800 1.425 . S
C1805 C1802 1.409 . S
C1805 C1803 1.415 . S
C1806 H1796 0.930 . S
C1806 C1804 1.419 . S
C1806 C1807 1.362 . S
C1807 H1797 0.930 . S
C1807 C1800 1.409 . S
C1807 C1806 1.362 . S
H1808 C1814 0.930 . S
H1809 C1817 0.930 . S
H1810 C1818 0.930 . S
H1811 C1819 0.930 . S
H1812 C1822 0.930 . S
H1813 C1823 0.930 . S
C1814 H1808 0.930 . S
C1814 C1815 1.355 . S
C1814 C1816 1.415 . S
C1815 C1814 1.355 . S
C1815 C1817 1.419 . S
C1816 C1814 1.415 . S
C1816 C1821 1.425 1_556 S
C1816 C1823 1.409 1_556 S
C1817 H1809 0.930 . S
C1817 C1815 1.419 . S
C1817 C1818 1.362 . S
C1818 H1810 0.930 . S
C1818 C1817 1.362 . S
C1818 C1821 1.409 1_556 S
C1819 H1811 0.930 . S
C1819 C1820 1.355 . S
C1819 C1821 1.415 . S
C1820 C1819 1.355 . S
C1820 C1822 1.419 . S
C1821 C1816 1.425 1_554 S
C1821 C1818 1.409 1_554 S
C1821 C1819 1.415 . S
C1822 H1812 0.930 . S
C1822 C1820 1.419 . S
C1822 C1823 1.362 . S
C1823 H1813 0.930 . S
C1823 C1816 1.409 1_554 S
C1823 C1822 1.362 . S
H1824 C1830 0.930 . S
H1825 C1833 0.930 . S
H1826 C1834 0.930 . S
H1827 C1835 0.930 . S
H1828 C1838 0.930 . S
H1829 C1839 0.930 . S
C1830 H1824 0.930 . S
C1830 C1831 1.355 . S
C1830 C1832 1.415 . S
C1831 C1830 1.355 . S
C1831 C1833 1.419 . S
C1832 C1830 1.415 . S
C1832 C1837 1.425 . S
C1832 C1839 1.409 . S
C1833 H1825 0.930 . S
C1833 C1831 1.419 . S
C1833 C1834 1.362 . S
C1834 H1826 0.930 . S
C1834 C1833 1.362 . S
C1834 C1837 1.409 . S
C1835 H1827 0.930 . S
C1835 C1836 1.355 . S
C1835 C1837 1.415 . S
C1836 C1835 1.355 . S
C1836 C1838 1.419 . S
C1837 C1832 1.425 . S
C1837 C1834 1.409 . S
C1837 C1835 1.415 . S
C1838 H1828 0.930 . S
C1838 C1836 1.419 . S
C1838 C1839 1.362 . S
C1839 H1829 0.930 . S
C1839 C1832 1.409 . S
C1839 C1838 1.362 . S
H1840 C1846 0.930 . S
H1841 C1849 0.930 . S
H1842 C1850 0.930 . S
H1843 C1851 0.930 . S
H1844 C1854 0.930 . S
H1845 C1855 0.930 . S
C1846 H1840 0.930 . S
C1846 C1847 1.355 . S
C1846 C1848 1.415 . S
C1847 C1846 1.355 . S
C1847 C1849 1.419 . S
C1848 C1846 1.415 . S
C1848 C1853 1.425 . S
C1848 C1855 1.409 . S
C1849 H1841 0.930 . S
C1849 C1847 1.419 . S
C1849 C1850 1.362 . S
C1850 H1842 0.930 . S
C1850 C1849 1.362 . S
C1850 C1853 1.409 . S
C1851 H1843 0.930 . S
C1851 C1852 1.355 . S
C1851 C1853 1.415 . S
C1852 C1851 1.355 . S
C1852 C1854 1.419 . S
C1853 C1848 1.425 . S
C1853 C1850 1.409 . S
C1853 C1851 1.415 . S
C1854 H1844 0.930 . S
C1854 C1852 1.419 . S
C1854 C1855 1.362 . S
C1855 H1845 0.930 . S
C1855 C1848 1.409 . S
C1855 C1854 1.362 . S
H1856 C1862 0.930 . S
H1857 C1865 0.930 1_565 S
H1858 C1866 0.930 . S
H1859 C1867 0.930 . S
H1860 C1870 0.930 . S
H1861 C1871 0.930 . S
C1862 H1856 0.930 . S
C1862 C1863 1.355 . S
C1862 C1864 1.415 . S
C1863 C1862 1.355 . S
C1863 C1865 1.419 . S
C1864 C1862 1.415 . S
C1864 C1869 1.425 . S
C1864 C1871 1.409 . S
C1865 H1857 0.930 1_545 S
C1865 C1863 1.419 . S
C1865 C1866 1.362 . S
C1866 H1858 0.930 . S
C1866 C1865 1.362 . S
C1866 C1869 1.409 . S
C1867 H1859 0.930 . S
C1867 C1868 1.355 . S
C1867 C1869 1.415 . S
C1868 C1867 1.355 . S
C1868 C1870 1.419 . S
C1869 C1864 1.425 . S
C1869 C1866 1.409 . S
C1869 C1867 1.415 . S
C1870 H1860 0.930 . S
C1870 C1868 1.419 . S
C1870 C1871 1.362 . S
C1871 H1861 0.930 . S
C1871 C1864 1.409 . S
C1871 C1870 1.362 . S
H1872 C1878 0.930 . S
H1873 C1881 0.930 . S
H1874 C1882 0.930 . S
H1875 C1883 0.930 . S
H1876 C1886 0.930 . S
H1877 C1887 0.930 . S
C1878 H1872 0.930 . S
C1878 C1879 1.355 . S
C1878 C1880 1.415 . S
C1879 C1878 1.355 . S
C1879 C1881 1.419 . S
C1880 C1878 1.415 . S
C1880 C1885 1.425 . S
C1880 C1887 1.409 . S
C1881 H1873 0.930 . S
C1881 C1879 1.419 . S
C1881 C1882 1.362 . S
C1882 H1874 0.930 . S
C1882 C1881 1.362 . S
C1882 C1885 1.409 . S
C1883 H1875 0.930 . S
C1883 C1884 1.355 . S
C1883 C1885 1.415 . S
C1884 C1883 1.355 . S
C1884 C1886 1.419 . S
C1885 C1880 1.425 . S
C1885 C1882 1.409 . S
C1885 C1883 1.415 . S
C1886 H1876 0.930 . S
C1886 C1884 1.419 . S
C1886 C1887 1.362 . S
C1887 H1877 0.930 . S
C1887 C1880 1.409 . S
C1887 C1886 1.362 . S
H1888 C1894 0.930 . S
H1889 C1897 0.930 . S
H1890 C1898 0.930 . S
H1891 C1899 0.930 . S
H1892 C1902 0.930 . S
H1893 C1903 0.930 . S
C1894 H1888 0.930 . S
C1894 C1895 1.355 . S
C1894 C1896 1.415 . S
C1895 C1894 1.355 . S
C1895 C1897 1.419 . S
C1896 C1894 1.415 . S
C1896 C1901 1.425 . S
C1896 C1903 1.409 . S
C1897 H1889 0.930 . S
C1897 C1895 1.419 . S
C1897 C1898 1.362 . S
C1898 H1890 0.930 . S
C1898 C1897 1.362 . S
C1898 C1901 1.409 . S
C1899 H1891 0.930 . S
C1899 C1900 1.355 . S
C1899 C1901 1.415 . S
C1900 C1899 1.355 . S
C1900 C1902 1.419 . S
C1901 C1896 1.425 . S
C1901 C1898 1.409 . S
C1901 C1899 1.415 . S
C1902 H1892 0.930 . S
C1902 C1900 1.419 . S
C1902 C1903 1.362 . S
C1903 H1893 0.930 . S
C1903 C1896 1.409 . S
C1903 C1902 1.362 . S
H1904 C1910 0.930 . S
H1905 C1913 0.930 . S
H1906 C1914 0.930 . S
H1907 C1915 0.930 . S
H1908 C1918 0.930 . S
H1909 C1919 0.930 . S
C1910 H1904 0.930 . S
C1910 C1911 1.355 . S
C1910 C1912 1.415 . S
C1911 C1910 1.355 . S
C1911 C1913 1.419 . S
C1912 C1910 1.415 . S
C1912 C1917 1.425 . S
C1912 C1919 1.409 . S
C1913 H1905 0.930 . S
C1913 C1911 1.419 . S
C1913 C1914 1.362 . S
C1914 H1906 0.930 . S
C1914 C1913 1.362 . S
C1914 C1917 1.409 . S
C1915 H1907 0.930 . S
C1915 C1916 1.355 . S
C1915 C1917 1.415 . S
C1916 C1915 1.355 . S
C1916 C1918 1.419 . S
C1917 C1912 1.425 . S
C1917 C1914 1.409 . S
C1917 C1915 1.415 . S
C1918 H1908 0.930 . S
C1918 C1916 1.419 . S
C1918 C1919 1.362 . S
C1919 H1909 0.930 . S
C1919 C1912 1.409 . S
C1919 C1918 1.362 . S
H1920 C1926 0.930 . S
H1921 C1929 0.930 1_545 S
H1922 C1930 0.930 . S
H1923 C1931 0.930 . S
H1924 C1934 0.930 . S
H1925 C1935 0.930 . S
C1926 H1920 0.930 . S
C1926 C1927 1.355 . S
C1926 C1928 1.415 . S
C1927 C1926 1.355 . S
C1927 C1929 1.419 . S
C1928 C1926 1.415 . S
C1928 C1933 1.425 . S
C1928 C1935 1.409 . S
C1929 H1921 0.930 1_565 S
C1929 C1927 1.419 . S
C1929 C1930 1.362 . S
C1930 H1922 0.930 . S
C1930 C1929 1.362 . S
C1930 C1933 1.409 . S
C1931 H1923 0.930 . S
C1931 C1932 1.355 . S
C1931 C1933 1.415 . S
C1932 C1931 1.355 . S
C1932 C1934 1.419 . S
C1933 C1928 1.425 . S
C1933 C1930 1.409 . S
C1933 C1931 1.415 . S
C1934 H1924 0.930 . S
C1934 C1932 1.419 . S
C1934 C1935 1.362 . S
C1935 H1925 0.930 . S
C1935 C1928 1.409 . S
C1935 C1934 1.362 . S
H1936 C1942 0.930 . S
H1937 C1945 0.930 . S
H1938 C1946 0.930 . S
H1939 C1947 0.930 . S
H1940 C1950 0.930 . S
H1941 C1951 0.930 . S
C1942 H1936 0.930 . S
C1942 C1943 1.355 . S
C1942 C1944 1.415 . S
C1943 C1942 1.355 . S
C1943 C1945 1.419 . S
C1944 C1942 1.415 . S
C1944 C1949 1.425 . S
C1944 C1951 1.409 . S
C1945 H1937 0.930 . S
C1945 C1943 1.419 . S
C1945 C1946 1.362 . S
C1946 H1938 0.930 . S
C1946 C1945 1.362 . S
C1946 C1949 1.409 . S
C1947 H1939 0.930 . S
C1947 C1948 1.355 . S
C1947 C1949 1.415 . S
C1948 C1947 1.355 . S
C1948 C1950 1.419 . S
C1949 C1944 1.425 . S
C1949 C1946 1.409 . S
C1949 C1947 1.415 . S
C1950 H1940 0.930 . S
C1950 C1948 1.419 . S
C1950 C1951 1.362 . S
C1951 H1941 0.930 . S
C1951 C1944 1.409 . S
C1951 C1950 1.362 . S
H1952 C1958 0.930 . S
H1953 C1961 0.930 . S
H1954 C1962 0.930 . S
H1955 C1963 0.930 . S
H1956 C1966 0.930 . S
H1957 C1967 0.930 . S
C1958 H1952 0.930 . S
C1958 C1959 1.355 . S
C1958 C1960 1.415 . S
C1959 C1958 1.355 . S
C1959 C1961 1.419 . S
C1960 C1958 1.415 . S
C1960 C1965 1.425 . S
C1960 C1967 1.409 . S
C1961 H1953 0.930 . S
C1961 C1959 1.419 . S
C1961 C1962 1.362 . S
C1962 H1954 0.930 . S
C1962 C1961 1.362 . S
C1962 C1965 1.409 . S
C1963 H1955 0.930 . S
C1963 C1964 1.355 . S
C1963 C1965 1.415 . S
C1964 C1963 1.355 . S
C1964 C1966 1.419 . S
C1965 C1960 1.425 . S
C1965 C1962 1.409 . S
C1965 C1963 1.415 . S
C1966 H1956 0.930 . S
C1966 C1964 1.419 . S
C1966 C1967 1.362 . S
C1967 H1957 0.930 . S
C1967 C1960 1.409 . S
C1967 C1966 1.362 . S
H1968 C1974 0.930 . S
H1969 C1977 0.930 . S
H1970 C1978 0.930 . S
H1971 C1979 0.930 . S
H1972 C1982 0.930 . S
H1973 C1983 0.930 . S
C1974 H1968 0.930 . S
C1974 C1975 1.355 . S
C1974 C1976 1.415 . S
C1975 C1974 1.355 . S
C1975 C1977 1.419 . S
C1976 C1974 1.415 . S
C1976 C1981 1.425 . S
C1976 C1983 1.409 . S
C1977 H1969 0.930 . S
C1977 C1975 1.419 . S
C1977 C1978 1.362 . S
C1978 H1970 0.930 . S
C1978 C1977 1.362 . S
C1978 C1981 1.409 . S
C1979 H1971 0.930 . S
C1979 C1980 1.355 . S
C1979 C1981 1.415 . S
C1980 C1979 1.355 . S
C1980 C1982 1.419 . S
C1981 C1976 1.425 . S
C1981 C1978 1.409 . S
C1981 C1979 1.415 . S
C1982 H1972 0.930 . S
C1982 C1980 1.419 . S
C1982 C1983 1.362 . S
C1983 H1973 0.930 . S
C1983 C1976 1.409 . S
C1983 C1982 1.362 . S
H1984 C1990 0.930 . S
H1985 C1993 0.930 . S
H1986 C1994 0.930 . S
H1987 C1995 0.930 . S
H1988 C1998 0.930 . S
H1989 C1999 0.930 . S
C1990 H1984 0.930 . S
C1990 C1991 1.355 . S
C1990 C1992 1.415 . S
C1991 C1990 1.355 . S
C1991 C1993 1.419 . S
C1992 C1990 1.415 . S
C1992 C1997 1.425 . S
C1992 C1999 1.409 . S
C1993 H1985 0.930 . S
C1993 C1991 1.419 . S
C1993 C1994 1.362 . S
C1994 H1986 0.930 . S
C1994 C1993 1.362 . S
C1994 C1997 1.409 . S
C1995 H1987 0.930 . S
C1995 C1996 1.355 . S
C1995 C1997 1.415 . S
C1996 C1995 1.355 . S
C1996 C1998 1.419 . S
C1997 C1992 1.425 . S
C1997 C1994 1.409 . S
C1997 C1995 1.415 . S
C1998 H1988 0.930 . S
C1998 C1996 1.419 . S
C1998 C1999 1.362 . S
C1999 H1989 0.930 . S
C1999 C1992 1.409 . S
C1999 C1998 1.362 . S
H2000 C2006 0.930 . S
H2001 C2009 0.930 . S
H2002 C2010 0.930 . S
H2003 C2011 0.930 . S
H2004 C2014 0.930 . S
H2005 C2015 0.930 . S
C2006 H2000 0.930 . S
C2006 C2007 1.355 . S
C2006 C2008 1.415 . S
C2007 C2006 1.355 . S
C2007 C2009 1.419 . S
C2008 C2006 1.415 . S
C2008 C2013 1.425 . S
C2008 C2015 1.409 . S
C2009 H2001 0.930 . S
C2009 C2007 1.419 . S
C2009 C2010 1.362 . S
C2010 H2002 0.930 . S
C2010 C2009 1.362 . S
C2010 C2013 1.409 . S
C2011 H2003 0.930 . S
C2011 C2012 1.355 . S
C2011 C2013 1.415 . S
C2012 C2011 1.355 . S
C2012 C2014 1.419 . S
C2013 C2008 1.425 . S
C2013 C2010 1.409 . S
C2013 C2011 1.415 . S
C2014 H2004 0.930 . S
C2014 C2012 1.419 . S
C2014 C2015 1.362 . S
C2015 H2005 0.930 . S
C2015 C2008 1.409 . S
C2015 C2014 1.362 . S
H2016 C2022 0.930 . S
H2017 C2025 0.930 . S
H2018 C2026 0.930 . S
H2019 C2027 0.930 . S
H2020 C2030 0.930 . S
H2021 C2031 0.930 . S
C2022 H2016 0.930 . S
C2022 C2023 1.355 . S
C2022 C2024 1.415 . S
C2023 C2022 1.355 . S
C2023 C2025 1.419 . S
C2024 C2022 1.415 . S
C2024 C2029 1.425 . S
C2024 C2031 1.409 . S
C2025 H2017 0.930 . S
C2025 C2023 1.419 . S
C2025 C2026 1.362 . S
C2026 H2018 0.930 . S
C2026 C2025 1.362 . S
C2026 C2029 1.409 . S
C2027 H2019 0.930 . S
C2027 C2028 1.355 . S
C2027 C2029 1.415 . S
C2028 C2027 1.355 . S
C2028 C2030 1.419 . S
C2029 C2024 1.425 . S
C2029 C2026 1.409 . S
C2029 C2027 1.415 . S
C2030 H2020 0.930 . S
C2030 C2028 1.419 . S
C2030 C2031 1.362 . S
C2031 H2021 0.930 . S
C2031 C2024 1.409 . S
C2031 C2030 1.362 . S
H2032 C2038 0.930 . S
H2033 C2041 0.930 . S
H2034 C2042 0.930 . S
H2035 C2043 0.930 . S
H2036 C2046 0.930 . S
H2037 C2047 0.930 . S
C2038 H2032 0.930 . S
C2038 C2039 1.355 . S
C2038 C2040 1.415 . S
C2039 C2038 1.355 . S
C2039 C2041 1.419 . S
C2040 C2038 1.415 . S
C2040 C2045 1.425 . S
C2040 C2047 1.409 . S
C2041 H2033 0.930 . S
C2041 C2039 1.419 . S
C2041 C2042 1.362 . S
C2042 H2034 0.930 . S
C2042 C2041 1.362 . S
C2042 C2045 1.409 . S
C2043 H2035 0.930 . S
C2043 C2044 1.355 . S
C2043 C2045 1.415 . S
C2044 C2043 1.355 . S
C2044 C2046 1.419 . S
C2045 C2040 1.425 . S
C2045 C2042 1.409 . S
C2045 C2043 1.415 . S
C2046 H2036 0.930 . S
C2046 C2044 1.419 . S
C2046 C2047 1.362 . S
C2047 H2037 0.930 . S
C2047 C2040 1.409 . S
C2047 C2046 1.362 . S
H2048 C2054 0.930 . S
H2049 C2057 0.930 . S
H2050 C2058 0.930 . S
H2051 C2059 0.930 . S
H2052 C2062 0.930 . S
H2053 C2063 0.930 . S
C2054 H2048 0.930 . S
C2054 C2055 1.355 . S
C2054 C2056 1.415 . S
C2055 C2054 1.355 . S
C2055 C2057 1.419 . S
C2056 C2054 1.415 . S
C2056 C2061 1.425 . S
C2056 C2063 1.409 . S
C2057 H2049 0.930 . S
C2057 C2055 1.419 . S
C2057 C2058 1.362 . S
C2058 H2050 0.930 . S
C2058 C2057 1.362 . S
C2058 C2061 1.409 . S
C2059 H2051 0.930 . S
C2059 C2060 1.355 . S
C2059 C2061 1.415 . S
C2060 C2059 1.355 . S
C2060 C2062 1.419 . S
C2061 C2056 1.425 . S
C2061 C2058 1.409 . S
C2061 C2059 1.415 . S
C2062 H2052 0.930 . S
C2062 C2060 1.419 . S
C2062 C2063 1.362 . S
C2063 H2053 0.930 . S
C2063 C2056 1.409 . S
C2063 C2062 1.362 . S
H2064 C2070 0.930 . S
H2065 C2073 0.930 . S
H2066 C2074 0.930 . S
H2067 C2075 0.930 . S
H2068 C2078 0.930 . S
H2069 C2079 0.930 . S
C2070 H2064 0.930 . S
C2070 C2071 1.355 . S
C2070 C2072 1.415 . S
C2071 C2070 1.355 . S
C2071 C2073 1.419 . S
C2072 C2070 1.415 . S
C2072 C2077 1.425 . S
C2072 C2079 1.409 . S
C2073 H2065 0.930 . S
C2073 C2071 1.419 . S
C2073 C2074 1.362 . S
C2074 H2066 0.930 . S
C2074 C2073 1.362 . S
C2074 C2077 1.409 . S
C2075 H2067 0.930 . S
C2075 C2076 1.355 . S
C2075 C2077 1.415 . S
C2076 C2075 1.355 . S
C2076 C2078 1.419 . S
C2077 C2072 1.425 . S
C2077 C2074 1.409 . S
C2077 C2075 1.415 . S
C2078 H2068 0.930 . S
C2078 C2076 1.419 . S
C2078 C2079 1.362 . S
C2079 H2069 0.930 . S
C2079 C2072 1.409 . S
C2079 C2078 1.362 . S
H2080 C2086 0.930 . S
H2081 C2089 0.930 . S
H2082 C2090 0.930 . S
H2083 C2091 0.930 . S
H2084 C2094 0.930 . S
H2085 C2095 0.930 . S
C2086 H2080 0.930 . S
C2086 C2087 1.355 . S
C2086 C2088 1.415 . S
C2087 C2086 1.355 . S
C2087 C2089 1.419 . S
C2088 C2086 1.415 . S
C2088 C2093 1.425 . S
C2088 C2095 1.409 . S
C2089 H2081 0.930 . S
C2089 C2087 1.419 . S
C2089 C2090 1.362 . S
C2090 H2082 0.930 . S
C2090 C2089 1.362 . S
C2090 C2093 1.409 . S
C2091 H2083 0.930 . S
C2091 C2092 1.355 . S
C2091 C2093 1.415 . S
C2092 C2091 1.355 . S
C2092 C2094 1.419 . S
C2093 C2088 1.425 . S
C2093 C2090 1.409 . S
C2093 C2091 1.415 . S
C2094 H2084 0.930 . S
C2094 C2092 1.419 . S
C2094 C2095 1.362 . S
C2095 H2085 0.930 . S
C2095 C2088 1.409 . S
C2095 C2094 1.362 . S
H2096 C2102 0.930 . S
H2097 C2105 0.930 . S
H2098 C2106 0.930 . S
H2099 C2107 0.930 . S
H2100 C2110 0.930 . S
H2101 C2111 0.930 . S
C2102 H2096 0.930 . S
C2102 C2103 1.355 . S
C2102 C2104 1.415 . S
C2103 C2102 1.355 . S
C2103 C2105 1.419 . S
C2104 C2102 1.415 . S
C2104 C2109 1.425 . S
C2104 C2111 1.409 . S
C2105 H2097 0.930 . S
C2105 C2103 1.419 . S
C2105 C2106 1.362 . S
C2106 H2098 0.930 . S
C2106 C2105 1.362 . S
C2106 C2109 1.409 . S
C2107 H2099 0.930 . S
C2107 C2108 1.355 . S
C2107 C2109 1.415 . S
C2108 C2107 1.355 . S
C2108 C2110 1.419 . S
C2109 C2104 1.425 . S
C2109 C2106 1.409 . S
C2109 C2107 1.415 . S
C2110 H2100 0.930 . S
C2110 C2108 1.419 . S
C2110 C2111 1.362 . S
C2111 H2101 0.930 . S
C2111 C2104 1.409 . S
C2111 C2110 1.362 . S
H2112 C2118 0.930 . S
H2113 C2121 0.930 . S
H2114 C2122 0.930 . S
H2115 C2123 0.930 . S
H2116 C2126 0.930 . S
H2117 C2127 0.930 . S
C2118 H2112 0.930 . S
C2118 C2119 1.355 . S
C2118 C2120 1.415 . S
C2119 C2118 1.355 . S
C2119 C2121 1.419 . S
C2120 C2118 1.415 . S
C2120 C2125 1.425 . S
C2120 C2127 1.409 . S
C2121 H2113 0.930 . S
C2121 C2119 1.419 . S
C2121 C2122 1.362 . S
C2122 H2114 0.930 . S
C2122 C2121 1.362 . S
C2122 C2125 1.409 . S
C2123 H2115 0.930 . S
C2123 C2124 1.355 . S
C2123 C2125 1.415 . S
C2124 C2123 1.355 . S
C2124 C2126 1.419 . S
C2125 C2120 1.425 . S
C2125 C2122 1.409 . S
C2125 C2123 1.415 . S
C2126 H2116 0.930 . S
C2126 C2124 1.419 . S
C2126 C2127 1.362 . S
C2127 H2117 0.930 . S
C2127 C2120 1.409 . S
C2127 C2126 1.362 . S
H2128 C2134 0.930 . S
H2129 C2137 0.930 . S
H2130 C2138 0.930 . S
H2131 C2139 0.930 . S
H2132 C2142 0.930 . S
H2133 C2143 0.930 . S
C2134 H2128 0.930 . S
C2134 C2135 1.355 . S
C2134 C2136 1.415 . S
C2135 C2134 1.355 . S
C2135 C2137 1.419 . S
C2136 C2134 1.415 . S
C2136 C2141 1.425 1_655 S
C2136 C2143 1.409 1_655 S
C2137 H2129 0.930 . S
C2137 C2135 1.419 . S
C2137 C2138 1.362 . S
C2138 H2130 0.930 . S
C2138 C2137 1.362 . S
C2138 C2141 1.409 1_655 S
C2139 H2131 0.930 . S
C2139 C2140 1.355 . S
C2139 C2141 1.415 . S
C2140 C2139 1.355 . S
C2140 C2142 1.419 . S
C2141 C2136 1.425 1_455 S
C2141 C2138 1.409 1_455 S
C2141 C2139 1.415 . S
C2142 H2132 0.930 . S
C2142 C2140 1.419 . S
C2142 C2143 1.362 . S
C2143 H2133 0.930 . S
C2143 C2136 1.409 1_455 S
C2143 C2142 1.362 . S
H2144 C2150 0.930 . S
H2145 C2153 0.930 . S
H2146 C2154 0.930 . S
H2147 C2155 0.930 . S
H2148 C2158 0.930 . S
H2149 C2159 0.930 . S
C2150 H2144 0.930 . S
C2150 C2151 1.355 . S
C2150 C2152 1.415 . S
C2151 C2150 1.355 . S
C2151 C2153 1.419 . S
C2152 C2150 1.415 . S
C2152 C2157 1.425 . S
C2152 C2159 1.409 . S
C2153 H2145 0.930 . S
C2153 C2151 1.419 . S
C2153 C2154 1.362 . S
C2154 H2146 0.930 . S
C2154 C2153 1.362 . S
C2154 C2157 1.409 . S
C2155 H2147 0.930 . S
C2155 C2156 1.355 . S
C2155 C2157 1.415 . S
C2156 C2155 1.355 . S
C2156 C2158 1.419 . S
C2157 C2152 1.425 . S
C2157 C2154 1.409 . S
C2157 C2155 1.415 . S
C2158 H2148 0.930 . S
C2158 C2156 1.419 . S
C2158 C2159 1.362 . S
C2159 H2149 0.930 . S
C2159 C2152 1.409 . S
C2159 C2158 1.362 . S
H2160 C2166 0.930 . S
H2161 C2169 0.930 1_565 S
H2162 C2170 0.930 1_565 S
H2163 C2171 0.930 . S
H2164 C2174 0.930 . S
H2165 C2175 0.930 . S
C2166 H2160 0.930 . S
C2166 C2167 1.355 . S
C2166 C2168 1.415 . S
C2167 C2166 1.355 . S
C2167 C2169 1.419 . S
C2168 C2166 1.415 . S
C2168 C2173 1.425 . S
C2168 C2175 1.409 . S
C2169 H2161 0.930 1_545 S
C2169 C2167 1.419 . S
C2169 C2170 1.362 . S
C2170 H2162 0.930 1_545 S
C2170 C2169 1.362 . S
C2170 C2173 1.409 . S
C2171 H2163 0.930 . S
C2171 C2172 1.355 . S
C2171 C2173 1.415 . S
C2172 C2171 1.355 . S
C2172 C2174 1.419 . S
C2173 C2168 1.425 . S
C2173 C2170 1.409 . S
C2173 C2171 1.415 . S
C2174 H2164 0.930 . S
C2174 C2172 1.419 . S
C2174 C2175 1.362 . S
C2175 H2165 0.930 . S
C2175 C2168 1.409 . S
C2175 C2174 1.362 . S
H2176 C2182 0.930 . S
H2177 C2185 0.930 . S
H2178 C2186 0.930 . S
H2179 C2187 0.930 . S
H2180 C2190 0.930 . S
H2181 C2191 0.930 . S
C2182 H2176 0.930 . S
C2182 C2183 1.355 . S
C2182 C2184 1.415 . S
C2183 C2182 1.355 . S
C2183 C2185 1.419 . S
C2184 C2182 1.415 . S
C2184 C2189 1.425 . S
C2184 C2191 1.409 . S
C2185 H2177 0.930 . S
C2185 C2183 1.419 . S
C2185 C2186 1.362 . S
C2186 H2178 0.930 . S
C2186 C2185 1.362 . S
C2186 C2189 1.409 . S
C2187 H2179 0.930 . S
C2187 C2188 1.355 . S
C2187 C2189 1.415 . S
C2188 C2187 1.355 . S
C2188 C2190 1.419 . S
C2189 C2184 1.425 . S
C2189 C2186 1.409 . S
C2189 C2187 1.415 . S
C2190 H2180 0.930 . S
C2190 C2188 1.419 . S
C2190 C2191 1.362 . S
C2191 H2181 0.930 . S
C2191 C2184 1.409 . S
C2191 C2190 1.362 . S
H2192 C2198 0.930 . S
H2193 C2201 0.930 . S
H2194 C2202 0.930 . S
H2195 C2203 0.930 . S
H2196 C2206 0.930 . S
H2197 C2207 0.930 . S
C2198 H2192 0.930 . S
C2198 C2199 1.355 . S
C2198 C2200 1.415 . S
C2199 C2198 1.355 . S
C2199 C2201 1.419 . S
C2200 C2198 1.415 . S
C2200 C2205 1.425 . S
C2200 C2207 1.409 . S
C2201 H2193 0.930 . S
C2201 C2199 1.419 . S
C2201 C2202 1.362 . S
C2202 H2194 0.930 . S
C2202 C2201 1.362 . S
C2202 C2205 1.409 . S
C2203 H2195 0.930 . S
C2203 C2204 1.355 . S
C2203 C2205 1.415 . S
C2204 C2203 1.355 . S
C2204 C2206 1.419 . S
C2205 C2200 1.425 . S
C2205 C2202 1.409 . S
C2205 C2203 1.415 . S
C2206 H2196 0.930 . S
C2206 C2204 1.419 . S
C2206 C2207 1.362 . S
C2207 H2197 0.930 . S
C2207 C2200 1.409 . S
C2207 C2206 1.362 . S
H2208 C2214 0.930 . S
H2209 C2217 0.930 . S
H2210 C2218 0.930 . S
H2211 C2219 0.930 . S
H2212 C2222 0.930 . S
H2213 C2223 0.930 . S
C2214 H2208 0.930 . S
C2214 C2215 1.355 . S
C2214 C2216 1.415 . S
C2215 C2214 1.355 . S
C2215 C2217 1.419 . S
C2216 C2214 1.415 . S
C2216 C2221 1.425 . S
C2216 C2223 1.409 . S
C2217 H2209 0.930 . S
C2217 C2215 1.419 . S
C2217 C2218 1.362 . S
C2218 H2210 0.930 . S
C2218 C2217 1.362 . S
C2218 C2221 1.409 . S
C2219 H2211 0.930 . S
C2219 C2220 1.355 . S
C2219 C2221 1.415 . S
C2220 C2219 1.355 . S
C2220 C2222 1.419 . S
C2221 C2216 1.425 . S
C2221 C2218 1.409 . S
C2221 C2219 1.415 . S
C2222 H2212 0.930 . S
C2222 C2220 1.419 . S
C2222 C2223 1.362 . S
C2223 H2213 0.930 . S
C2223 C2216 1.409 . S
C2223 C2222 1.362 . S
H2224 C2230 0.930 . S
H2225 C2233 0.930 . S
H2226 C2234 0.930 . S
H2227 C2235 0.930 . S
H2228 C2238 0.930 . S
H2229 C2239 0.930 . S
C2230 H2224 0.930 . S
C2230 C2231 1.355 . S
C2230 C2232 1.415 . S
C2231 C2230 1.355 . S
C2231 C2233 1.419 . S
C2232 C2230 1.415 . S
C2232 C2237 1.425 1_455 S
C2232 C2239 1.409 1_455 S
C2233 H2225 0.930 . S
C2233 C2231 1.419 . S
C2233 C2234 1.362 . S
C2234 H2226 0.930 . S
C2234 C2233 1.362 . S
C2234 C2237 1.409 1_455 S
C2235 H2227 0.930 . S
C2235 C2236 1.355 . S
C2235 C2237 1.415 . S
C2236 C2235 1.355 . S
C2236 C2238 1.419 . S
C2237 C2232 1.425 1_655 S
C2237 C2234 1.409 1_655 S
C2237 C2235 1.415 . S
C2238 H2228 0.930 . S
C2238 C2236 1.419 . S
C2238 C2239 1.362 . S
C2239 H2229 0.930 . S
C2239 C2232 1.409 1_655 S
C2239 C2238 1.362 . S
H2240 C2246 0.930 . S
H2241 C2249 0.930 . S
H2242 C2250 0.930 . S
H2243 C2251 0.930 . S
H2244 C2254 0.930 . S
H2245 C2255 0.930 . S
C2246 H2240 0.930 . S
C2246 C2247 1.355 . S
C2246 C2248 1.415 . S
C2247 C2246 1.355 . S
C2247 C2249 1.419 . S
C2248 C2246 1.415 . S
C2248 C2253 1.425 . S
C2248 C2255 1.409 . S
C2249 H2241 0.930 . S
C2249 C2247 1.419 . S
C2249 C2250 1.362 . S
C2250 H2242 0.930 . S
C2250 C2249 1.362 . S
C2250 C2253 1.409 . S
C2251 H2243 0.930 . S
C2251 C2252 1.355 . S
C2251 C2253 1.415 . S
C2252 C2251 1.355 . S
C2252 C2254 1.419 . S
C2253 C2248 1.425 . S
C2253 C2250 1.409 . S
C2253 C2251 1.415 . S
C2254 H2244 0.930 . S
C2254 C2252 1.419 . S
C2254 C2255 1.362 . S
C2255 H2245 0.930 . S
C2255 C2248 1.409 . S
C2255 C2254 1.362 . S
H2256 C2262 0.930 . S
H2257 C2265 0.930 . S
H2258 C2266 0.930 . S
H2259 C2267 0.930 . S
H2260 C2270 0.930 . S
H2261 C2271 0.930 . S
C2262 H2256 0.930 . S
C2262 C2263 1.355 . S
C2262 C2264 1.415 . S
C2263 C2262 1.355 . S
C2263 C2265 1.419 . S
C2264 C2262 1.415 . S
C2264 C2269 1.425 . S
C2264 C2271 1.409 . S
C2265 H2257 0.930 . S
C2265 C2263 1.419 . S
C2265 C2266 1.362 . S
C2266 H2258 0.930 . S
C2266 C2265 1.362 . S
C2266 C2269 1.409 . S
C2267 H2259 0.930 . S
C2267 C2268 1.355 . S
C2267 C2269 1.415 . S
C2268 C2267 1.355 . S
C2268 C2270 1.419 . S
C2269 C2264 1.425 . S
C2269 C2266 1.409 . S
C2269 C2267 1.415 . S
C2270 H2260 0.930 . S
C2270 C2268 1.419 . S
C2270 C2271 1.362 . S
C2271 H2261 0.930 . S
C2271 C2264 1.409 . S
C2271 C2270 1.362 . S
H2272 C2278 0.930 . S
H2273 C2281 0.930 . S
H2274 C2282 0.930 . S
H2275 C2283 0.930 . S
H2276 C2286 0.930 . S
H2277 C2287 0.930 . S
C2278 H2272 0.930 . S
C2278 C2279 1.355 . S
C2278 C2280 1.415 . S
C2279 C2278 1.355 . S
C2279 C2281 1.419 . S
C2280 C2278 1.415 . S
C2280 C2285 1.425 . S
C2280 C2287 1.409 . S
C2281 H2273 0.930 . S
C2281 C2279 1.419 . S
C2281 C2282 1.362 . S
C2282 H2274 0.930 . S
C2282 C2281 1.362 . S
C2282 C2285 1.409 . S
C2283 H2275 0.930 . S
C2283 C2284 1.355 . S
C2283 C2285 1.415 . S
C2284 C2283 1.355 . S
C2284 C2286 1.419 . S
C2285 C2280 1.425 . S
C2285 C2282 1.409 . S
C2285 C2283 1.415 . S
C2286 H2276 0.930 . S
C2286 C2284 1.419 . S
C2286 C2287 1.362 . S
C2287 H2277 0.930 . S
C2287 C2280 1.409 . S
C2287 C2286 1.362 . S
H2288 C2294 0.930 . S
H2289 C2297 0.930 . S
H2290 C2298 0.930 . S
H2291 C2299 0.930 . S
H2292 C2302 0.930 . S
H2293 C2303 0.930 . S
C2294 H2288 0.930 . S
C2294 C2295 1.355 . S
C2294 C2296 1.415 . S
C2295 C2294 1.355 . S
C2295 C2297 1.419 . S
C2296 C2294 1.415 . S
C2296 C2301 1.425 . S
C2296 C2303 1.409 . S
C2297 H2289 0.930 . S
C2297 C2295 1.419 . S
C2297 C2298 1.362 . S
C2298 H2290 0.930 . S
C2298 C2297 1.362 . S
C2298 C2301 1.409 . S
C2299 H2291 0.930 . S
C2299 C2300 1.355 . S
C2299 C2301 1.415 . S
C2300 C2299 1.355 . S
C2300 C2302 1.419 . S
C2301 C2296 1.425 . S
C2301 C2298 1.409 . S
C2301 C2299 1.415 . S
C2302 H2292 0.930 . S
C2302 C2300 1.419 . S
C2302 C2303 1.362 . S
C2303 H2293 0.930 . S
C2303 C2296 1.409 . S
C2303 C2302 1.362 . S
H2304 C2310 0.930 . S
H2305 C2313 0.930 . S
H2306 C2314 0.930 . S
H2307 C2315 0.930 . S
H2308 C2318 0.930 . S
H2309 C2319 0.930 . S
C2310 H2304 0.930 . S
C2310 C2311 1.355 . S
C2310 C2312 1.415 . S
C2311 C2310 1.355 . S
C2311 C2313 1.419 . S
C2312 C2310 1.415 . S
C2312 C2317 1.425 . S
C2312 C2319 1.409 . S
C2313 H2305 0.930 . S
C2313 C2311 1.419 . S
C2313 C2314 1.362 . S
C2314 H2306 0.930 . S
C2314 C2313 1.362 . S
C2314 C2317 1.409 . S
C2315 H2307 0.930 . S
C2315 C2316 1.355 . S
C2315 C2317 1.415 . S
C2316 C2315 1.355 . S
C2316 C2318 1.419 . S
C2317 C2312 1.425 . S
C2317 C2314 1.409 . S
C2317 C2315 1.415 . S
C2318 H2308 0.930 . S
C2318 C2316 1.419 . S
C2318 C2319 1.362 . S
C2319 H2309 0.930 . S
C2319 C2312 1.409 . S
C2319 C2318 1.362 . S
H2320 C2326 0.930 . S
H2321 C2329 0.930 . S
H2322 C2330 0.930 . S
H2323 C2331 0.930 . S
H2324 C2334 0.930 . S
H2325 C2335 0.930 . S
C2326 H2320 0.930 . S
C2326 C2327 1.355 . S
C2326 C2328 1.415 . S
C2327 C2326 1.355 . S
C2327 C2329 1.419 . S
C2328 C2326 1.415 . S
C2328 C2333 1.425 1_455 S
C2328 C2335 1.409 1_455 S
C2329 H2321 0.930 . S
C2329 C2327 1.419 . S
C2329 C2330 1.362 . S
C2330 H2322 0.930 . S
C2330 C2329 1.362 . S
C2330 C2333 1.409 1_455 S
C2331 H2323 0.930 . S
C2331 C2332 1.355 . S
C2331 C2333 1.415 . S
C2332 C2331 1.355 . S
C2332 C2334 1.419 . S
C2333 C2328 1.425 1_655 S
C2333 C2330 1.409 1_655 S
C2333 C2331 1.415 . S
C2334 H2324 0.930 . S
C2334 C2332 1.419 . S
C2334 C2335 1.362 . S
C2335 H2325 0.930 . S
C2335 C2328 1.409 1_655 S
C2335 C2334 1.362 . S
H2336 C2342 0.930 . S
H2337 C2345 0.930 . S
H2338 C2346 0.930 . S
H2339 C2347 0.930 . S
H2340 C2350 0.930 . S
H2341 C2351 0.930 . S
C2342 H2336 0.930 . S
C2342 C2343 1.355 . S
C2342 C2344 1.415 . S
C2343 C2342 1.355 . S
C2343 C2345 1.419 . S
C2344 C2342 1.415 . S
C2344 C2349 1.425 1_455 S
C2344 C2351 1.409 1_455 S
C2345 H2337 0.930 . S
C2345 C2343 1.419 . S
C2345 C2346 1.362 . S
C2346 H2338 0.930 . S
C2346 C2345 1.362 . S
C2346 C2349 1.409 1_455 S
C2347 H2339 0.930 . S
C2347 C2348 1.355 . S
C2347 C2349 1.415 . S
C2348 C2347 1.355 . S
C2348 C2350 1.419 . S
C2349 C2344 1.425 1_655 S
C2349 C2346 1.409 1_655 S
C2349 C2347 1.415 . S
C2350 H2340 0.930 . S
C2350 C2348 1.419 . S
C2350 C2351 1.362 . S
C2351 H2341 0.930 . S
C2351 C2344 1.409 1_655 S
C2351 C2350 1.362 . S
H2352 C2358 0.930 . S
H2353 C2361 0.930 . S
H2354 C2362 0.930 . S
H2355 C2363 0.930 . S
H2356 C2366 0.930 . S
H2357 C2367 0.930 . S
C2358 H2352 0.930 . S
C2358 C2359 1.355 . S
C2358 C2360 1.415 . S
C2359 C2358 1.355 . S
C2359 C2361 1.419 . S
C2360 C2358 1.415 . S
C2360 C2365 1.425 . S
C2360 C2367 1.409 . S
C2361 H2353 0.930 . S
C2361 C2359 1.419 . S
C2361 C2362 1.362 . S
C2362 H2354 0.930 . S
C2362 C2361 1.362 . S
C2362 C2365 1.409 . S
C2363 H2355 0.930 . S
C2363 C2364 1.355 . S
C2363 C2365 1.415 . S
C2364 C2363 1.355 . S
C2364 C2366 1.419 . S
C2365 C2360 1.425 . S
C2365 C2362 1.409 . S
C2365 C2363 1.415 . S
C2366 H2356 0.930 . S
C2366 C2364 1.419 . S
C2366 C2367 1.362 . S
C2367 H2357 0.930 . S
C2367 C2360 1.409 . S
C2367 C2366 1.362 . S
C1095 C43 1.822 1_545 S
C1100 C33 1.708 . S
C1111 C67 1.753 . S
C1116 C77 1.821 . S
C1127 C101 1.736 . S
C1132 C111 1.807 1_565 S
C1143 C135 1.749 . S
C1148 C9 1.823 . S
C1159 C169 1.709 . S
C1164 C247 1.834 1_565 S
C1175 C145 1.812 . S
C1180 C203 1.768 . S
C1191 C237 1.703 . S
C1196 C179 1.832 1_545 S
C1207 C271 1.755 . S
C1212 C213 1.820 . S
C1223 C315 1.800 1_565 S
C1228 C305 1.770 . S
C1239 C349 1.832 . S
C1244 C339 1.724 . S
C1255 C373 1.757 . S
C1260 C383 1.819 1_545 S
C1271 C281 1.828 . S
C1276 C407 1.703 . S
C1287 C441 1.740 . S
C1292 C519 1.806 1_545 S
C1303 C475 1.730 . S
C1308 C417 1.830 . S
C1319 C451 1.833 1_565 S
C1324 C509 1.715 . S
C1335 C485 1.832 . S
C1340 C543 1.722 . S
C1351 C587 1.811 . S
C1356 C577 1.729 . S
C1367 C611 1.717 . S
C1372 C621 1.817 . S
C1383 C655 1.813 . S
C1388 C645 1.724 . S
C1399 C553 1.821 . S
C1404 C679 1.709 . S
C1415 C791 1.831 . S
C1420 C713 1.726 . S
C1431 C747 1.773 . S
C1436 C689 1.807 . S
C1447 C723 1.822 . S
C1452 C781 1.750 . S
C1463 C815 1.761 . S
C1468 C757 1.817 . S
C1479 C859 1.800 . S
C1484 C849 1.770 . S
C1495 C883 1.721 . S
C1500 C893 1.833 . S
C1511 C917 1.717 . S
C1516 C927 1.833 . S
C1527 C951 1.704 . S
C1532 C825 1.833 . S
C1543 C1063 1.801 . S
C1548 C985 1.774 . S
C1559 C961 1.827 . S
C1564 C1019 1.703 . S
C1575 C995 1.821 . S
C1580 C1053 1.710 . S
C1591 C1029 1.818 . S
C1596 C1087 1.714 . S
C1607 C209 0.921 . S
C1612 C5 0.938 . S
C1623 C39 0.930 . S
C1628 C243 0.925 . S
C1639 C73 0.932 . S
C1644 C141 0.924 . S
C1655 C107 0.978 . S
C1660 C175 0.989 . S
C1671 C481 0.976 . S
C1676 C277 0.932 . S
C1687 C515 0.973 . S
C1692 C311 0.929 . S
C1703 C345 0.949 . S
C1708 C413 0.920 . S
C1719 C447 0.955 . S
C1724 C379 0.921 . S
C1735 C549 0.933 . S
C1740 C753 0.923 . S
C1751 C583 0.920 . S
C1756 C787 0.950 . S
C1767 C685 0.974 . S
C1772 C617 0.991 . S
C1783 C719 0.939 . S
C1788 C651 0.982 . S
C1799 C1025 0.923 . S
C1804 C821 0.933 . S
C1815 C1059 0.928 . S
C1820 C855 0.927 . S
C1831 C957 0.941 . S
C1836 C889 0.984 . S
C1847 C991 0.954 . S
C1852 C923 0.990 . S
C1863 C172 0.920 . S
C1868 C2 0.920 . S
C1879 C36 0.933 . S
C1884 C206 0.933 . S
C1895 C70 0.933 . S
C1900 C240 0.933 . S
C1911 C104 0.964 . S
C1916 C138 0.963 . S
C1927 C444 0.915 . S
C1932 C274 0.915 . S
C1943 C308 0.927 . S
C1948 C478 0.928 . S
C1959 C512 0.903 . S
C1964 C342 0.903 . S
C1975 C376 0.949 . S
C1980 C410 0.949 . S
C1991 C546 0.906 . S
C1996 C716 0.905 . S
C2007 C750 0.971 . S
C2012 C580 0.971 . S
C2023 C784 0.965 . S
C2028 C614 0.965 . S
C2039 C648 0.893 . S
C2044 C682 0.893 . S
C2055 C818 0.940 . S
C2060 C988 0.941 . S
C2071 C1022 0.901 . S
C2076 C852 0.902 . S
C2087 C1056 0.946 . S
C2092 C886 0.945 . S
C2103 C954 0.929 . S
C2108 C920 0.929 . S
C2119 C20 1.547 . S
C2124 C1040 1.530 . S
C2135 C530 1.547 . S
C2140 C54 1.531 . S
C2151 C972 1.557 . S
C2156 C88 1.519 . S
C2167 C122 1.529 . S
C2172 C462 1.549 . S
C2183 C156 1.522 . S
C2188 C904 1.554 . S
C2199 C394 1.536 . S
C2204 C190 1.542 . S
C2215 C224 1.558 . S
C2220 C836 1.518 . S
C2231 C258 1.515 . S
C2236 C326 1.562 . S
C2247 C292 1.517 . S
C2252 C768 1.559 . S
C2263 C360 1.539 . S
C2268 C700 1.537 . S
C2279 C428 1.561 . S
C2284 C632 1.515 . S
C2295 C496 1.547 . S
C2300 C564 1.529 . S
C2311 C598 1.545 . S
C2316 C1074 1.533 . S
C2327 C1006 1.515 . S
C2332 C666 1.562 . S
C2343 C938 1.560 . S
C2348 C734 1.518 . S
C2359 C870 1.540 . S
C2364 C802 1.538 . S
