# Generated by pormake.
# Topology lcy-e, (6)-cn, num edge types: 1
# Building blocks:
#     Node 0, Type 0, BuildingBlock: KUMJIN_clean_sbu_1, # of connection points: 6
#     Node 1, Type 0, BuildingBlock: KUMJIN_clean_sbu_1, # of connection points: 6
#     Node 2, Type 0, BuildingBlock: KUMJIN_clean_sbu_1, # of connection points: 6
#     Node 3, Type 0, BuildingBlock: KUMJIN_clean_sbu_1, # of connection points: 6
#     Node 4, Type 0, BuildingBlock: KUMJIN_clean_sbu_1, # of connection points: 6
#     Node 5, Type 0, BuildingBlock: KUMJIN_clean_sbu_1, # of connection points: 6
#     Node 6, Type 0, BuildingBlock: KUMJIN_clean_sbu_1, # of connection points: 6
#     Node 7, Type 0, BuildingBlock: KUMJIN_clean_sbu_1, # of connection points: 6
#     Node 8, Type 0, BuildingBlock: KUMJIN_clean_sbu_1, # of connection points: 6
#     Node 9, Type 0, BuildingBlock: KUMJIN_clean_sbu_1, # of connection points: 6
#     Node 10, Type 0, BuildingBlock: KUMJIN_clean_sbu_1, # of connection points: 6
#     Node 11, Type 0, BuildingBlock: KUMJIN_clean_sbu_1, # of connection points: 6
#     Edge 12, Type (0, 0), BuildingBlock: OJICUG_clean_linker_0, # of connection points: 2
#     Edge 13, Type (0, 0), BuildingBlock: OJICUG_clean_linker_0, # of connection points: 2
#     Edge 14, Type (0, 0), BuildingBlock: OJICUG_clean_linker_0, # of connection points: 2
#     Edge 15, Type (0, 0), BuildingBlock: OJICUG_clean_linker_0, # of connection points: 2
#     Edge 16, Type (0, 0), BuildingBlock: OJICUG_clean_linker_0, # of connection points: 2
#     Edge 17, Type (0, 0), BuildingBlock: OJICUG_clean_linker_0, # of connection points: 2
#     Edge 18, Type (0, 0), BuildingBlock: OJICUG_clean_linker_0, # of connection points: 2
#     Edge 19, Type (0, 0), BuildingBlock: OJICUG_clean_linker_0, # of connection points: 2
#     Edge 20, Type (0, 0), BuildingBlock: OJICUG_clean_linker_0, # of connection points: 2
#     Edge 21, Type (0, 0), BuildingBlock: OJICUG_clean_linker_0, # of connection points: 2
#     Edge 22, Type (0, 0), BuildingBlock: OJICUG_clean_linker_0, # of connection points: 2
#     Edge 23, Type (0, 0), BuildingBlock: OJICUG_clean_linker_0, # of connection points: 2
#     Edge 24, Type (0, 0), BuildingBlock: OJICUG_clean_linker_0, # of connection points: 2
#     Edge 25, Type (0, 0), BuildingBlock: OJICUG_clean_linker_0, # of connection points: 2
#     Edge 26, Type (0, 0), BuildingBlock: OJICUG_clean_linker_0, # of connection points: 2
#     Edge 27, Type (0, 0), BuildingBlock: OJICUG_clean_linker_0, # of connection points: 2
#     Edge 28, Type (0, 0), BuildingBlock: OJICUG_clean_linker_0, # of connection points: 2
#     Edge 29, Type (0, 0), BuildingBlock: OJICUG_clean_linker_0, # of connection points: 2
#     Edge 30, Type (0, 0), BuildingBlock: OJICUG_clean_linker_0, # of connection points: 2
#     Edge 31, Type (0, 0), BuildingBlock: OJICUG_clean_linker_0, # of connection points: 2
#     Edge 32, Type (0, 0), BuildingBlock: OJICUG_clean_linker_0, # of connection points: 2
#     Edge 33, Type (0, 0), BuildingBlock: OJICUG_clean_linker_0, # of connection points: 2
#     Edge 34, Type (0, 0), BuildingBlock: OJICUG_clean_linker_0, # of connection points: 2
#     Edge 35, Type (0, 0), BuildingBlock: OJICUG_clean_linker_0, # of connection points: 2
#     Edge 36, Type (0, 0), BuildingBlock: OJICUG_clean_linker_0, # of connection points: 2
#     Edge 37, Type (0, 0), BuildingBlock: OJICUG_clean_linker_0, # of connection points: 2
#     Edge 38, Type (0, 0), BuildingBlock: OJICUG_clean_linker_0, # of connection points: 2
#     Edge 39, Type (0, 0), BuildingBlock: OJICUG_clean_linker_0, # of connection points: 2
#     Edge 40, Type (0, 0), BuildingBlock: OJICUG_clean_linker_0, # of connection points: 2
#     Edge 41, Type (0, 0), BuildingBlock: OJICUG_clean_linker_0, # of connection points: 2
#     Edge 42, Type (0, 0), BuildingBlock: OJICUG_clean_linker_0, # of connection points: 2
#     Edge 43, Type (0, 0), BuildingBlock: OJICUG_clean_linker_0, # of connection points: 2
#     Edge 44, Type (0, 0), BuildingBlock: OJICUG_clean_linker_0, # of connection points: 2
#     Edge 45, Type (0, 0), BuildingBlock: OJICUG_clean_linker_0, # of connection points: 2
#     Edge 46, Type (0, 0), BuildingBlock: OJICUG_clean_linker_0, # of connection points: 2
#     Edge 47, Type (0, 0), BuildingBlock: OJICUG_clean_linker_0, # of connection points: 2
# Relax obj value: 0.092
# Max RMSD: 0.252
# Mean RMSD: 0.251
data_MOF--net-lcy-e--node1-KUMJIN_clean_sbu_1--edge1-OJICUG_clean_linker_0
_symmetry_space_group_name_H-M    P1
_symmetry_Int_Tables_number       1
_symmetry_cell_setting            triclinic
loop_
_symmetry_equiv_pos_as_xyz
'x, y, z'
_cell_length_a     34.129368
_cell_length_b     33.938711
_cell_length_c     34.173537
_cell_angle_alpha  89.784574
_cell_angle_beta   89.865499
_cell_angle_gamma 89.372472
loop_
_atom_site_label
_atom_site_type_symbol
_atom_site_fract_x
_atom_site_fract_y
_atom_site_fract_z
_atom_type_partial_charge
Eu0 Eu 0.15715 0.22079 0.54693 0.0
C1 C 0.03667 0.31884 0.45467 0.0
N2 N 0.06416 0.29361 0.43999 0.0
C3 C 0.01586 0.26492 0.39825 0.0
C4 C 0.99691 0.3158 0.44384 0.0
C5 C 0.05489 0.26962 0.40948 0.0
C6 C 0.98653 0.28722 0.41646 0.0
C7 C 0.02161 0.37954 0.48925 0.0
C8 C 0.04888 0.35063 0.47684 0.0
C9 C 0.98163 0.37481 0.48116 0.0
C10 C 0.96929 0.34296 0.45852 0.0
Eu11 Eu 0.12906 0.30287 0.46243 0.0
N12 N 0.0878 0.35485 0.48379 0.0
C13 C 0.03554 0.41319 0.50799 0.0
C14 C 0.1017 0.38848 0.5003 0.0
C15 C 0.07581 0.41781 0.51315 0.0
H16 H 0.07764 0.25391 0.39376 0.0
H17 H 0.08703 0.44392 0.52685 0.0
H18 H 0.23036 0.27257 0.59277 0.0
H19 H 0.16531 0.07753 0.47584 0.0
H20 H 0.13272 0.39211 0.50419 0.0
H21 H 0.01556 0.43628 0.51749 0.0
H22 H 0.13274 0.13777 0.50124 0.0
H23 H 1.00852 0.24465 0.3751 0.0
H24 H 0.96021 0.39644 0.49094 0.0
H25 H 0.93857 0.34069 0.45099 0.0
H26 H 0.30167 0.27004 0.59771 0.0
H27 H 0.95636 0.28396 0.40731 0.0
H28 H 0.23714 0.06927 0.48196 0.0
N29 N 0.2263 0.22174 0.55632 0.0
C30 C 0.24603 0.18929 0.54286 0.0
C31 C 0.28649 0.24758 0.58145 0.0
C32 C 0.28718 0.18596 0.54659 0.0
C33 C 0.24576 0.24944 0.57755 0.0
C34 C 0.30739 0.21611 0.56529 0.0
N35 N 0.18575 0.16312 0.52094 0.0
C36 C 0.16414 0.13433 0.50381 0.0
C37 C 0.24491 0.1251 0.51127 0.0
C38 C 0.22518 0.15893 0.52545 0.0
C39 C 0.22301 0.09562 0.49326 0.0
C40 C 0.18245 0.10023 0.4896 0.0
H41 H 0.33895 0.21469 0.56857 0.0
H42 H 0.33844 0.14969 0.53455 0.0
H43 H 0.30146 0.09647 0.50374 0.0
O44 O 0.14148 0.16751 0.57923 0.0
O45 O 0.18195 0.21466 0.48524 0.0
O46 O 0.19137 0.27818 0.46535 0.0
O47 O 0.15467 0.22021 0.61115 0.0
O48 O 0.10167 0.20892 0.51153 0.0
O49 O 0.11721 0.23724 0.45179 0.0
O50 O 0.14746 0.35679 0.43267 0.0
O51 O 0.10607 0.31323 0.52554 0.0
O52 O 0.09755 0.24964 0.54227 0.0
O53 O 0.14056 0.30359 0.3994 0.0
O54 O 0.18261 0.31434 0.49904 0.0
O55 O 0.17247 0.28611 0.55983 0.0
C56 C 0.20313 0.24127 0.46748 0.0
C57 C 0.11179 0.17331 0.64177 0.0
C58 C 0.07327 0.12205 0.67509 0.0
C59 C 0.05665 0.15166 0.69899 0.0
C60 C 0.09478 0.20184 0.66626 0.0
C61 C 0.06687 0.1911 0.6941 0.0
C62 C 0.10065 0.13356 0.64616 0.0
C63 C 0.09676 0.21232 0.47326 0.0
C64 C 0.14308 0.18377 0.61343 0.0
C65 C 0.30687 0.15247 0.53217 0.0
C66 C 0.2858 0.12208 0.51474 0.0
C67 C 0.09254 0.2868 0.55032 0.0
C68 C 0.13398 0.36381 0.36514 0.0
C69 C 0.1444 0.39323 0.30048 0.0
C70 C 0.10562 0.40792 0.30166 0.0
C71 C 0.09545 0.37842 0.36551 0.0
C72 C 0.15839 0.37125 0.33271 0.0
C73 C 0.08143 0.40048 0.33387 0.0
C74 C 0.18452 0.31577 0.5373 0.0
C75 C 0.14938 0.34075 0.39824 0.0
H76 H 0.03635 0.14452 0.72227 0.0
H77 H 0.10338 0.23238 0.66426 0.0
H78 H 0.05365 0.21341 0.7126 0.0
H79 H 0.11368 0.11169 0.62701 0.0
H80 H 0.09405 0.4257 0.27788 0.0
H81 H 0.07635 0.37289 0.39025 0.0
H82 H 0.18806 0.35952 0.33246 0.0
H83 H 0.05174 0.412 0.33434 0.0
Eu84 Eu 0.06765 0.92194 0.79583 0.0
C85 C 0.97316 0.78983 0.70725 0.0
N86 N 0.99467 0.81978 0.69191 0.0
C87 C 0.02334 0.77572 0.64486 0.0
C88 C 0.9779 0.751 0.6931 0.0
C89 C 0.01723 0.81374 0.65932 0.0
C90 C 1.00427 0.74407 0.66238 0.0
C91 C 0.92039 0.76772 0.74983 0.0
C92 C 0.94423 0.79818 0.73519 0.0
C93 C 0.92639 0.72892 0.73691 0.0
C94 C 0.95508 0.72057 0.70875 0.0
Eu95 Eu 0.98222 0.88213 0.72013 0.0
N96 N 0.93842 0.83609 0.74712 0.0
C97 C 0.8907 0.77722 0.77665 0.0
C98 C 0.90794 0.84584 0.77135 0.0
C99 C 0.88441 0.81644 0.78731 0.0
H100 H 0.03095 0.83822 0.64454 0.0
H101 H 0.86173 0.82402 0.8081 0.0
H102 H 0.02129 0.98388 0.86001 0.0
H103 H 0.19835 0.95032 0.70911 0.0
H104 H 0.9032 0.876 0.77982 0.0
H105 H 0.87219 0.75456 0.78895 0.0
H106 H 0.14691 0.90964 0.74033 0.0
H107 H 0.04243 0.77092 0.61995 0.0
H108 H 0.90829 0.70525 0.74784 0.0
H109 H 0.9586 0.69059 0.6984 0.0
H110 H 0.016 0.05506 0.87201 0.0
H111 H 1.00877 0.71467 0.65083 0.0
H112 H 0.19625 0.02289 0.71616 0.0
N113 N 0.06211 0.98964 0.81294 0.0
C114 C 0.08711 0.01435 0.7942 0.0
C115 C 0.03569 0.04408 0.84959 0.0
C116 C 0.08606 0.05531 0.80128 0.0
C117 C 0.03818 1.00367 0.84201 0.0
C118 C 0.05906 0.07014 0.82849 0.0
N119 N 0.11603 0.95897 0.7635 0.0
C120 C 0.14606 0.94135 0.74338 0.0
C121 C 0.1441 0.02277 0.75242 0.0
C122 C 0.11557 0.99844 0.7697 0.0
C123 C 0.17385 1.00519 0.72996 0.0
C124 C 0.17509 0.96424 0.72582 0.0
H125 H 0.05722 0.1014 0.83461 0.0
H126 H 0.11228 0.11143 0.78692 0.0
H127 H 0.16327 0.08294 0.74448 0.0
O128 O 0.11647 0.88335 0.81298 0.0
O129 O 0.06777 0.93938 0.73131 0.0
O130 O 1.00315 0.94586 0.71613 0.0
O131 O 0.09961 0.93142 0.85055 0.0
O132 O 0.0722 0.8616 0.76552 0.0
O133 O 0.04599 0.87302 0.70482 0.0
O134 O 0.92322 0.89557 0.69819 0.0
O135 O 0.98484 0.85226 0.78262 0.0
O136 O 0.02196 0.88778 0.82782 0.0
O137 O 0.97204 0.89292 0.65789 0.0
O138 O 0.97528 0.93854 0.75318 0.0
O139 O 1.0027 0.93652 0.81358 0.0
C140 C 0.03923 0.95899 0.71436 0.0
C141 C 0.13204 0.87617 0.87992 0.0
C142 C 0.17987 0.8374 0.91799 0.0
C143 C 0.14956 0.82744 0.94419 0.0
C144 C 0.10242 0.86535 0.9062 0.0
C145 C 0.11127 0.84125 0.93824 0.0
C146 C 0.1707 0.86218 0.8859 0.0
C147 C 0.07161 0.85526 0.7275 0.0
C148 C 0.12321 0.90139 0.8457 0.0
C149 C 0.11295 0.07992 0.78225 0.0
C150 C 0.14212 0.06367 0.75816 0.0
C151 C 0.99741 0.85957 0.81894 0.0
C152 C 0.90902 0.88412 0.63091 0.0
C153 C 0.87381 0.89522 0.56923 0.0
C154 C 0.86348 0.85515 0.56944 0.0
C155 C 0.89832 0.84442 0.63039 0.0
C156 C 0.89645 0.90954 0.6005 0.0
C157 C 0.87549 0.83012 0.59983 0.0
C158 C 0.97154 0.94165 0.79081 0.0
C159 C 0.93456 0.89937 0.66191 0.0
H160 H 0.15548 0.80925 0.96965 0.0
H161 H 0.07253 0.87555 0.90196 0.0
H162 H 0.08834 0.83324 0.95862 0.0
H163 H 0.19342 0.8701 0.86519 0.0
H164 H 0.84582 0.84315 0.54616 0.0
H165 H 0.90783 0.82451 0.65342 0.0
H166 H 0.90516 0.94016 0.60071 0.0
H167 H 0.86726 0.79941 0.59953 0.0
Eu168 Eu 0.40204 0.70875 0.96942 0.0
C169 C 0.28442 0.80968 0.07115 0.0
N170 N 0.30987 0.82285 0.04341 0.0
C171 C 0.25998 0.86587 0.01741 0.0
C172 C 0.24476 0.82215 0.07094 0.0
C173 C 0.29907 0.85328 0.0193 0.0
C174 C 0.23239 0.84917 0.0424 0.0
C175 C 0.27429 0.77922 0.13479 0.0
C176 C 0.29898 0.78811 0.10283 0.0
C177 C 0.23422 0.78874 0.13291 0.0
C178 C 0.21943 0.80992 0.10091 0.0
Eu179 Eu 0.375 0.79859 0.04904 0.0
N180 N 0.33798 0.77938 0.10431 0.0
C181 C 0.29093 0.76307 0.16869 0.0
C182 C 0.35451 0.76478 0.13783 0.0
C183 C 0.33126 0.75605 0.17032 0.0
H184 H 0.32053 0.8677 1.00106 0.0
H185 H 0.3445 0.74424 0.19668 0.0
H186 H 0.47117 0.65729 0.02353 0.0
H187 H 0.42073 0.7703 0.82284 0.0
H188 H 0.38565 0.76009 0.13944 0.0
H189 H 0.27298 0.75691 0.19413 0.0
H190 H 0.38375 0.74748 0.88103 0.0
H191 H 0.2513 0.88888 0.9971 0.0
H192 H 0.21475 0.78142 0.15689 0.0
H193 H 0.18882 0.81876 0.10082 0.0
H194 H 0.54251 0.65289 0.02834 0.0
H195 H 0.20223 0.85942 0.04126 0.0
H196 H 0.49318 0.76756 0.82288 0.0
N197 N 0.47112 0.69854 0.97602 0.0
C198 C 0.49328 0.71308 0.94611 0.0
C199 C 0.52914 0.67082 1.00565 0.0
C200 C 0.53458 0.70918 0.94648 0.0
C201 C 0.48839 0.6746 1.00353 0.0
C202 C 0.55242 0.68908 0.97757 0.0
N203 N 0.43496 0.73219 0.91321 0.0
C204 C 0.41543 0.74599 0.88095 0.0
C205 C 0.49689 0.74232 0.88109 0.0
C206 C 0.47472 0.72939 0.91352 0.0
C207 C 0.47713 0.75729 0.84828 0.0
C208 C 0.43623 0.75893 0.84814 0.0
H209 H 0.58399 0.6855 0.97889 0.0
H210 H 0.5884 0.72105 0.915 0.0
H211 H 0.55541 0.74954 0.85765 0.0
O212 O 0.38628 0.67638 0.91686 0.0
O213 O 0.41782 0.77247 0.95597 0.0
O214 O 0.43305 0.80001 0.01525 0.0
O215 O 0.39653 0.64412 0.97 0.0
O216 O 0.34475 0.74346 0.95889 0.0
O217 O 0.35423 0.80611 0.98508 0.0
O218 O 0.40181 0.82625 0.10006 0.0
O219 O 0.35276 0.7358 0.06385 0.0
O220 O 0.34471 0.71696 1.00136 0.0
O221 O 0.38324 0.86233 0.05147 0.0
O222 O 0.4304 0.76154 0.0493 0.0
O223 O 0.41812 0.69804 0.0344 0.0
C224 C 0.43921 0.79587 0.97742 0.0
C225 C 0.35597 0.61394 0.92092 0.0
C226 C 0.31644 0.5853 0.86816 0.0
C227 C 0.3034 0.5565 0.89486 0.0
C228 C 0.34336 0.58402 0.94621 0.0
C229 C 0.31624 0.55642 0.93358 0.0
C230 C 0.34222 0.61446 0.88196 0.0
C231 C 0.33503 0.78141 0.96226 0.0
C232 C 0.38658 0.64201 0.93329 0.0
C233 C 0.55672 0.72358 0.91496 0.0
C234 C 0.53792 0.73977 0.88224 0.0
C235 C 0.34043 0.70952 0.03845 0.0
C236 C 0.3825 0.89176 0.11384 0.0
C237 C 0.39199 0.95206 0.15145 0.0
C238 C 0.35259 0.9503 0.16357 0.0
C239 C 0.34341 0.89059 0.1264 0.0
C240 C 0.40685 0.92232 0.12667 0.0
C241 C 0.32862 0.91969 0.15124 0.0
C242 C 0.43113 0.72445 0.05938 0.0
C243 C 0.3979 0.86193 0.08659 0.0
H244 H 0.28423 0.53306 0.8858 0.0
H245 H 0.35487 0.5816 0.97559 0.0
H246 H 0.30576 0.53418 0.95365 0.0
H247 H 0.35229 0.63729 0.86227 0.0
H248 H 0.34035 0.97244 0.18291 0.0
H249 H 0.32431 0.86736 0.11683 0.0
H250 H 0.437 0.92339 0.11669 0.0
H251 H 0.2984 0.91863 0.16084 0.0
Eu252 Eu 0.46803 0.11279 0.3083 0.0
C253 C 0.57773 0.23006 0.21898 0.0
N254 N 0.54855 0.20804 0.2035 0.0
C255 C 0.52485 0.26443 0.16782 0.0
C256 C 0.57934 0.27104 0.21208 0.0
C257 C 0.52468 0.22389 0.17542 0.0
C258 C 0.55139 0.28836 0.18734 0.0
C259 C 0.6408 0.23253 0.25166 0.0
C260 C 0.6085 0.211 0.23805 0.0
C261 C 0.64075 0.27373 0.24778 0.0
C262 C 0.6101 0.29296 0.22798 0.0
Eu263 Eu 0.54969 0.14033 0.22096 0.0
N264 N 0.60778 0.17108 0.24152 0.0
C265 C 0.67261 0.21186 0.26786 0.0
C266 C 0.63997 0.15064 0.25416 0.0
C267 C 0.67254 0.17068 0.26834 0.0
H268 H 0.50516 0.20534 0.15904 0.0
H269 H 0.69753 0.15436 0.2795 0.0
H270 H 0.51996 0.04332 0.36065 0.0
H271 H 0.3251 0.09477 0.23929 0.0
H272 H 0.64024 0.11886 0.25351 0.0
H273 H 0.69783 0.22738 0.2788 0.0
H274 H 0.38094 0.1318 0.26644 0.0
H275 H 0.50481 0.27712 0.14664 0.0
H276 H 0.66499 0.29084 0.25869 0.0
H277 H 0.61136 0.32457 0.22363 0.0
H278 H 0.52384 0.97154 0.36609 0.0
H279 H 0.55162 0.31971 0.18121 0.0
H280 H 0.32713 0.02194 0.23866 0.0
N281 N 0.47522 0.04343 0.31687 0.0
C282 C 0.44679 0.02132 0.29993 0.0
C283 C 0.50278 0.98507 0.34643 0.0
C284 C 0.44746 0.97979 0.30314 0.0
C285 C 0.50109 0.026 0.34234 0.0
C286 C 0.47675 0.96175 0.32568 0.0
N287 N 0.41393 0.0802 0.2806 0.0
C288 C 0.3817 0.09992 0.26652 0.0
C289 C 0.38401 0.01797 0.26649 0.0
C290 C 0.41502 0.04015 0.28205 0.0
C291 C 0.35153 0.03797 0.25076 0.0
C292 C 0.35024 0.0791 0.25108 0.0
H293 H 0.47813 0.93002 0.32902 0.0
H294 H 0.4182 0.92573 0.2875 0.0
H295 H 0.36276 0.95915 0.25532 0.0
O296 O 0.41421 0.13341 0.33685 0.0
O297 O 0.45709 0.10015 0.24387 0.0
O298 O 0.51737 0.08195 0.22069 0.0
O299 O 0.4604 0.1092 0.3722 0.0
O300 O 0.46114 0.17262 0.27797 0.0
O301 O 0.48656 0.16385 0.21517 0.0
O302 O 0.59864 0.1138 0.1886 0.0
O303 O 0.56279 0.16271 0.28324 0.0
O304 O 0.50124 0.17002 0.31032 0.0
O305 O 0.54812 0.13546 0.15718 0.0
O306 O 0.5524 0.08427 0.25729 0.0
O307 O 0.53311 0.0968 0.32005 0.0
C308 C 0.47918 0.07837 0.22096 0.0
C309 C 0.41484 0.15435 0.40292 0.0
C310 C 0.36388 0.1943 0.43553 0.0
C311 C 0.39203 0.20644 0.46287 0.0
C312 C 0.44188 0.16627 0.4313 0.0
C313 C 0.43065 0.1927 0.46054 0.0
C314 C 0.37578 0.16837 0.4054 0.0
C315 C 0.46552 0.18392 0.24106 0.0
C316 C 0.42569 0.12547 0.37209 0.0
C317 C 0.41773 0.95762 0.28575 0.0
C318 C 0.38604 0.97666 0.26758 0.0
C319 C 0.53929 0.17434 0.31191 0.0
C320 C 0.60885 0.13574 0.12384 0.0
C321 C 0.64616 0.12633 0.06323 0.0
C322 C 0.65662 0.16634 0.06457 0.0
C323 C 0.61995 0.17535 0.12464 0.0
C324 C 0.62222 0.1112 0.09332 0.0
C325 C 0.64374 0.1905 0.0951 0.0
C326 C 0.5597 0.08374 0.29487 0.0
C327 C 0.58303 0.11979 0.15441 0.0
H328 H 0.38403 0.22577 0.48681 0.0
H329 H 0.47148 0.1548 0.43146 0.0
H330 H 0.45188 0.20212 0.48193 0.0
H331 H 0.35462 0.15885 0.38391 0.0
H332 H 0.67512 0.17899 0.04219 0.0
H333 H 0.61013 0.19454 0.14797 0.0
H334 H 0.6134 0.08063 0.09268 0.0
H335 H 0.65219 0.22114 0.09581 0.0
Eu336 Eu 0.65215 0.31385 0.48212 0.0
C337 C 0.53513 0.18585 0.55547 0.0
N338 N 0.55572 0.2146 0.57368 0.0
C339 C 0.49918 0.23194 0.61201 0.0
C340 C 0.49482 0.18091 0.56324 0.0
C341 C 0.53917 0.23522 0.60385 0.0
C342 C 0.47666 0.2054 0.59087 0.0
C343 C 0.53487 0.12698 0.51505 0.0
C344 C 0.55502 0.1588 0.53186 0.0
C345 C 0.49428 0.12374 0.52063 0.0
C346 C 0.47434 0.15052 0.54479 0.0
Eu347 Eu 0.62244 0.21881 0.55506 0.0
N348 N 0.59445 0.1623 0.52707 0.0
C349 C 0.55636 0.09864 0.4941 0.0
C350 C 0.61584 0.13304 0.50967 0.0
C351 C 0.59712 0.10128 0.49209 0.0
H352 H 0.55671 0.25461 0.62148 0.0
H353 H 0.61416 0.07864 0.47743 0.0
H354 H 0.73086 0.27294 0.43305 0.0
H355 H 0.6487 0.44683 0.57098 0.0
H356 H 0.64728 0.13416 0.50975 0.0
H357 H 0.54193 0.07385 0.48067 0.0
H358 H 0.62075 0.39085 0.53446 0.0
H359 H 0.48587 0.24955 0.63491 0.0
H360 H 0.47824 0.09985 0.50744 0.0
H361 H 0.44326 0.14675 0.54996 0.0
H362 H 0.80246 0.27651 0.4347 0.0
H363 H 0.44575 0.20261 0.59755 0.0
H364 H 0.72058 0.45345 0.57617 0.0
N365 N 0.72196 0.31422 0.47947 0.0
C366 C 0.7393 0.34274 0.50127 0.0
C367 C 0.78503 0.29453 0.45429 0.0
C368 C 0.78049 0.34676 0.50164 0.0
C369 C 0.74416 0.29197 0.45428 0.0
C370 C 0.80331 0.32141 0.47869 0.0
N371 N 0.67637 0.36586 0.52036 0.0
C372 C 0.6522 0.39369 0.53676 0.0
C373 C 0.73304 0.40117 0.54196 0.0
C374 C 0.71591 0.36972 0.52145 0.0
C375 C 0.70849 0.4289 0.56021 0.0
C376 C 0.66789 0.42527 0.55737 0.0
H377 H 0.83496 0.32365 0.47813 0.0
H378 H 0.82916 0.38028 0.52416 0.0
H379 H 0.78763 0.42816 0.55895 0.0
O380 O 0.61878 0.36507 0.46097 0.0
O381 O 0.65611 0.31524 0.54867 0.0
O382 O 0.67813 0.25396 0.56477 0.0
O383 O 0.66575 0.34204 0.42567 0.0
O384 O 0.58891 0.30927 0.50381 0.0
O385 O 0.5934 0.27905 0.5647 0.0
O386 O 0.65038 0.1668 0.58124 0.0
O387 O 0.60073 0.21272 0.49093 0.0
O388 O 0.61368 0.26951 0.45354 0.0
O389 O 0.62637 0.21239 0.6186 0.0
O390 O 0.67969 0.22638 0.52305 0.0
O391 O 0.67363 0.25147 0.46213 0.0
C392 C 0.67913 0.29223 0.56936 0.0
C393 C 0.61537 0.37987 0.39343 0.0
C394 C 0.58031 0.43072 0.35516 0.0
C395 C 0.57088 0.40162 0.32755 0.0
C396 C 0.60527 0.35161 0.36552 0.0
C397 C 0.58326 0.36253 0.33275 0.0
C398 C 0.60294 0.41943 0.38806 0.0
C399 C 0.57422 0.30052 0.53855 0.0
C400 C 0.6383 0.36886 0.42863 0.0
C401 C 0.79762 0.37701 0.52343 0.0
C402 C 0.77397 0.40432 0.54324 0.0
C403 C 0.59811 0.2345 0.45847 0.0
C404 C 0.63099 0.14806 0.64508 0.0
C405 C 0.64287 0.10977 0.70477 0.0
C406 C 0.60618 0.0919 0.6998 0.0
C407 C 0.5946 0.12991 0.64071 0.0
C408 C 0.6552 0.13775 0.67692 0.0
C409 C 0.58236 0.10187 0.66797 0.0
C410 C 0.68331 0.22165 0.48545 0.0
C411 C 0.64403 0.17816 0.61709 0.0
H412 H 0.55431 0.40914 0.30153 0.0
H413 H 0.61439 0.32118 0.36904 0.0
H414 H 0.57579 0.34057 0.31118 0.0
H415 H 0.61041 0.44123 0.40983 0.0
H416 H 0.59603 0.06988 0.72038 0.0
H417 H 0.57572 0.13746 0.61634 0.0
H418 H 0.68323 0.15204 0.68039 0.0
H419 H 0.55427 0.08784 0.66446 0.0
Eu420 Eu 0.05035 0.35325 0.80402 0.0
C421 C 0.94949 0.48352 0.70914 0.0
N422 N 0.93938 0.45584 0.73606 0.0
C423 C 0.89387 0.50118 0.7656 0.0
C424 C 0.93349 0.52203 0.71089 0.0
C425 C 0.91003 0.4633 0.7623 0.0
C426 C 0.90643 0.53098 0.74046 0.0
C427 C 0.9804 0.49935 0.64711 0.0
C428 C 0.97277 0.47234 0.67752 0.0
C429 C 0.96625 0.53826 0.64986 0.0
C430 C 0.94307 0.54964 0.68181 0.0
Eu431 Eu 0.96766 0.39276 0.72693 0.0
N432 N 0.98602 0.43447 0.67528 0.0
C433 C 1.00101 0.48615 0.6142 0.0
C434 C 1.00666 0.4215 0.64356 0.0
C435 C 0.01467 0.44722 0.61265 0.0
H436 H 0.89914 0.44007 0.78096 0.0
H437 H 0.03126 0.43695 0.5877 0.0
H438 H 0.10946 0.28637 0.75857 0.0
H439 H 0.96446 0.33703 0.93756 0.0
H440 H 0.01662 0.39126 0.64193 0.0
H441 H 1.0063 0.50584 0.58982 0.0
H442 H 0.99465 0.37296 0.88198 0.0
H443 H 0.87148 0.50726 0.78729 0.0
H444 H 0.97227 0.55951 0.62693 0.0
H445 H 0.93134 0.57942 0.6829 0.0
H446 H 0.12212 0.21488 0.76064 0.0
H447 H 0.89356 0.5602 0.74283 0.0
H448 H 0.97262 0.26464 0.94283 0.0
N449 N 0.06605 0.28513 0.80352 0.0
C450 C 0.04867 0.2631 0.8319 0.0
C451 C 0.10094 0.22799 0.78045 0.0
C452 C 0.05577 0.22214 0.83459 0.0
C453 C 0.09313 0.2685 0.77895 0.0
C454 C 0.08159 0.2046 0.80786 0.0
N455 N 0.01817 0.3211 0.85597 0.0
C456 C 0.99805 0.34131 0.88424 0.0
C457 C 1.0083 0.26007 0.89049 0.0
C458 C 0.02491 0.28173 0.85941 0.0
C459 C 0.98591 0.28025 0.91856 0.0
C460 C 0.98112 0.32111 0.91564 0.0
H461 H 0.08777 0.17328 0.80903 0.0
H462 H 0.04273 0.16867 0.86676 0.0
H463 H 1.00142 0.20192 0.91584 0.0
O464 O 0.07115 0.38842 0.85292 0.0
O465 O 0.98643 0.33553 0.80606 0.0
O466 O 0.97164 0.32774 0.74252 0.0
O467 O 0.10937 0.34404 0.82799 0.0
O468 O 0.02631 0.41576 0.80939 0.0
O469 O 0.9629 0.40596 0.79215 0.0
O470 O 0.9325 0.38156 0.67486 0.0
O471 O 0.0269 0.42682 0.72632 0.0
O472 O 0.07587 0.38628 0.75358 0.0
O473 O 0.90562 0.37731 0.73204 0.0
O474 O 1.00701 0.34635 0.70025 0.0
O475 O 0.06311 0.33572 0.739 0.0
C476 C 0.97166 0.31409 0.77824 0.0
C477 C 0.13884 0.39875 0.86013 0.0
C478 C 0.17763 0.43845 0.90563 0.0
C479 C 0.20105 0.45032 0.87375 0.0
C480 C 0.16242 0.4113 0.82902 0.0
C481 C 0.19302 0.43732 0.83585 0.0
C482 C 0.14617 0.41279 0.89811 0.0
C483 C 0.98943 0.42693 0.81015 0.0
C484 C 0.10569 0.37197 0.8539 0.0
C485 C 0.03789 0.20019 0.8645 0.0
C486 C 0.01445 0.21914 0.89254 0.0
C487 C 0.0642 0.41793 0.73454 0.0
C488 C 0.86367 0.39097 0.67798 0.0
C489 C 0.79908 0.38037 0.64859 0.0
C490 C 0.79416 0.42157 0.64582 0.0
C491 C 0.85806 0.43175 0.67429 0.0
C492 C 0.83421 0.36532 0.66492 0.0
C493 C 0.82341 0.4469 0.6585 0.0
C494 C 0.04256 0.332 0.70593 0.0
C495 C 0.90041 0.37463 0.6943 0.0
H496 H 0.226 0.46926 0.87787 0.0
H497 H 0.15703 0.40119 0.79952 0.0
H498 H 0.21073 0.44744 0.81165 0.0
H499 H 0.12684 0.40384 0.92163 0.0
H500 H 0.76804 0.43442 0.63291 0.0
H501 H 0.88048 0.45192 0.68323 0.0
H502 H 0.83867 0.33377 0.66763 0.0
H503 H 0.81936 0.47846 0.65567 0.0
Eu504 Eu 0.87 0.70704 0.97705 0.0
C505 C 0.9566 0.86589 0.03432 0.0
N506 N 0.95458 0.82669 0.04244 0.0
C507 C 0.02483 0.82183 0.04218 0.0
C508 C 0.99313 0.8844 0.02917 0.0
C509 C 0.98805 0.80481 0.04728 0.0
C510 C 0.02741 0.86175 0.03288 0.0
C511 C 0.92328 0.92833 0.02309 0.0
C512 C 0.922 0.88751 0.03063 0.0
C513 C 0.95954 0.94677 0.01773 0.0
C514 C 0.99436 0.92482 0.02054 0.0
Eu515 Eu 0.89061 0.80128 0.05076 0.0
N516 N 0.88717 0.86897 0.03534 0.0
C517 C 0.88811 0.9497 0.02205 0.0
C518 C 0.85274 0.8897 0.03451 0.0
C519 C 0.85267 0.93039 0.02813 0.0
H520 H 0.98681 0.7742 0.05475 0.0
H521 H 0.8253 0.94677 0.02806 0.0
H522 H 0.79951 0.75083 0.91864 0.0
H523 H 0.85591 0.57316 0.0635 0.0
H524 H 0.82544 0.87487 0.04017 0.0
H525 H 0.88838 0.98122 0.01746 0.0
H526 H 0.89081 0.62723 0.02961 0.0
H527 H 0.05119 0.80413 0.04555 0.0
H528 H 0.96097 0.97809 1.01166 0.0
H529 H 0.02212 0.93947 0.01639 0.0
H530 H 0.72796 0.75385 0.91481 0.0
H531 H 0.05597 0.87484 0.02896 0.0
H532 H 0.78348 0.57218 0.06355 0.0
N533 N 0.80082 0.71048 0.96692 0.0
C534 C 0.77935 0.68403 0.98776 0.0
C535 C 0.74197 0.73464 0.93606 0.0
C536 C 0.73808 0.68336 0.98488 0.0
C537 C 0.7828 0.73356 0.93919 0.0
C538 C 0.71943 0.71004 0.95962 0.0
N539 N 0.83844 0.65643 1.01183 0.0
C540 C 0.85913 0.62678 0.02969 0.0
C541 C 0.77766 0.62572 0.02924 0.0
C542 C 0.79876 0.65561 1.00996 0.0
C543 C 0.79858 0.59592 0.04884 0.0
C544 C 0.83951 0.59631 0.04882 0.0
H545 H 0.68782 0.71051 0.95665 0.0
H546 H 0.68512 0.65442 1.00433 0.0
H547 H 0.71982 0.60377 0.04291 0.0
O548 O 0.90808 0.65848 0.95715 0.0
O549 O 0.85847 0.70615 0.04279 0.0
O550 O 0.83328 0.76729 0.05297 0.0
O551 O 0.85804 0.67494 0.9227 0.0
O552 O 0.92821 0.70391 1.0103 0.0
O553 O 0.9218 0.744 0.06543 0.0
O554 O 0.86661 0.83996 0.09652 0.0
O555 O 0.92465 0.80411 0.99121 0.0
O556 O 0.91009 0.75147 0.94939 0.0
O557 O 0.90213 0.78969 0.11283 0.0
O558 O 0.83604 0.79584 0.01454 0.0
O559 O 0.85309 0.77023 0.95549 0.0
C560 C 0.83325 0.72937 0.06051 0.0
C561 C 0.9095 0.63894 0.8904 0.0
C562 C 0.94301 0.58744 0.85154 0.0
C563 C 0.95025 0.61605 0.82248 0.0
C564 C 0.9172 0.66645 0.86081 0.0
C565 C 0.93765 0.65506 0.82725 0.0
C566 C 0.92236 0.59937 0.88562 0.0
C567 C 0.93863 0.7149 0.04591 0.0
C568 C 0.88773 0.65077 0.92615 0.0
C569 C 0.71681 0.65504 1.0059 0.0
C570 C 0.73657 0.62612 0.02779 0.0
C571 C 0.92858 0.7844 0.95756 0.0
C572 C 0.89938 0.84387 0.1576 0.0
C573 C 0.8905 0.8846 0.21676 0.0
C574 C 0.93165 0.8855 0.2204 0.0
C575 C 0.9401 0.84643 0.16176 0.0
C576 C 0.87458 0.8631 0.18514 0.0
C577 C 0.95602 0.86691 0.19309 0.0
C578 C 0.83777 0.7993 0.97655 0.0
C579 C 0.88251 0.82052 0.12525 0.0
H580 H 0.96515 0.60823 0.79556 0.0
H581 H 0.90713 0.69666 0.86353 0.0
H582 H 0.94363 0.67656 0.80465 0.0
H583 H 0.91652 0.57809 0.90856 0.0
H584 H 0.94531 0.90046 0.24465 0.0
H585 H 0.95965 0.83225 0.14097 0.0
H586 H 0.84309 0.86167 0.18157 0.0
H587 H 0.98751 0.86827 0.19636 0.0
Eu588 Eu 0.47104 0.66563 0.31453 0.0
C589 C 0.55031 0.53985 0.19561 0.0
N590 N 0.56499 0.55975 0.22664 0.0
C591 C 0.59757 0.50101 0.24909 0.0
C592 C 0.55643 0.49887 0.19176 0.0
C593 C 0.59088 0.54169 0.25133 0.0
C594 C 0.57932 0.47928 0.21983 0.0
C595 C 0.51845 0.54172 0.13218 0.0
C596 C 0.53187 0.56104 0.16597 0.0
C597 C 0.5222 0.50056 0.12945 0.0
C598 C 0.54115 0.47918 0.15919 0.0
Eu599 Eu 0.54974 0.62778 0.22906 0.0
N600 N 0.52828 0.60077 0.1696 0.0
C601 C 0.50228 0.56449 0.1019 0.0
C602 C 0.51481 0.62329 0.13938 0.0
C603 C 0.50116 0.6055 0.10525 0.0
H604 H 0.60672 0.55872 0.27253 0.0
H605 H 0.48999 0.62339 0.0815 0.0
H606 H 0.40382 0.72317 0.26536 0.0
H607 H 0.55546 0.70551 0.44327 0.0
H608 H 0.51509 0.655 0.14156 0.0
H609 H 0.49163 0.55083 0.07543 0.0
H610 H 0.52626 0.66031 0.39477 0.0
H611 H 0.6172 0.48655 0.26956 0.0
H612 H 0.5115 0.48512 0.10399 0.0
H613 H 0.545 0.44761 0.15607 0.0
H614 H 0.39055 0.79359 0.25467 0.0
H615 H 0.58476 0.44782 0.21796 0.0
H616 H 0.54688 0.77762 0.4355 0.0
N617 N 0.45187 0.73249 0.30414 0.0
C618 C 0.47028 0.7593 0.32703 0.0
C619 C 0.41354 0.78442 0.2746 0.0
C620 C 0.46211 0.80003 0.32316 0.0
C621 C 0.42188 0.74437 0.28015 0.0
C622 C 0.43433 0.81244 0.29559 0.0
N623 N 0.5025 0.70666 0.35993 0.0
C624 C 0.52246 0.69183 0.39145 0.0
C625 C 0.51158 0.77278 0.38317 0.0
C626 C 0.49524 0.74595 0.35646 0.0
C627 C 0.53389 0.75795 0.41439 0.0
C628 C 0.53889 0.71726 0.41884 0.0
H629 H 0.42737 0.84343 0.29168 0.0
H630 H 0.47494 0.85831 0.34507 0.0
H631 H 0.51797 0.83445 0.39781 0.0
O632 O 0.4556 0.63392 0.3684 0.0
O633 O 0.53626 0.68163 0.3144 0.0
O634 O 0.54776 0.69101 0.24988 0.0
O635 O 0.41445 0.67539 0.34373 0.0
O636 O 0.4964 0.60341 0.31822 0.0
O637 O 0.55834 0.61054 0.29307 0.0
O638 O 0.58599 0.64789 0.18025 0.0
O639 O 0.48878 0.59717 0.22656 0.0
O640 O 0.44349 0.62406 0.27151 0.0
O641 O 0.61351 0.63173 0.23497 0.0
O642 O 0.51277 0.68248 0.21862 0.0
O643 O 0.45308 0.67703 0.24984 0.0
C644 C 0.55231 0.70227 0.28613 0.0
C645 C 0.38862 0.6237 0.38376 0.0
C646 C 0.35397 0.58656 0.43515 0.0
C647 C 0.32704 0.57425 0.40664 0.0
C648 C 0.36114 0.61092 0.35631 0.0
C649 C 0.33065 0.58633 0.3677 0.0
C650 C 0.38481 0.61159 0.42331 0.0
C651 C 0.5326 0.59061 0.31365 0.0
C652 C 0.42102 0.64994 0.37169 0.0
C653 C 0.48054 0.82696 0.34799 0.0
C654 C 0.50493 0.81336 0.37813 0.0
C655 C 0.45315 0.59969 0.24287 0.0
C656 C 0.6527 0.62871 0.17723 0.0
C657 C 0.71394 0.64018 0.14132 0.0
C658 C 0.71749 0.5992 0.1357 0.0
C659 C 0.65687 0.58814 0.17085 0.0
C660 C 0.68104 0.65474 0.16208 0.0
C661 C 0.68915 0.57354 0.15018 0.0
C662 C 0.47444 0.68458 0.21823 0.0
C663 C 0.61885 0.64445 0.19924 0.0
H664 H 0.30253 0.55582 0.41457 0.0
H665 H 0.36305 0.62028 0.32613 0.0
H666 H 0.30949 0.57681 0.34625 0.0
H667 H 0.40596 0.62143 0.44466 0.0
H668 H 0.74202 0.58689 0.11961 0.0
H669 H 0.6352 0.56781 0.18177 0.0
H670 H 0.67777 0.68614 0.16697 0.0
H671 H 0.69223 0.54216 0.14532 0.0
Eu672 Eu 0.30067 0.45447 0.10393 0.0
C673 C 0.2261 0.57255 0.22608 0.0
N674 N 0.21095 0.54146 0.20645 0.0
C675 C 0.18195 0.51755 0.26581 0.0
C676 C 0.22212 0.57568 0.26704 0.0
C677 C 0.18677 0.51582 0.2252 0.0
C678 C 0.20054 0.54704 0.28699 0.0
C679 C 0.25934 0.63538 0.22416 0.0
C680 C 0.24396 0.60239 0.20486 0.0
C681 C 0.25734 0.63755 0.26516 0.0
C682 C 0.23863 0.60784 0.28654 0.0
Eu683 Eu 0.22287 0.54042 0.13821 0.0
N684 N 0.24597 0.59931 0.16525 0.0
C685 C 0.27606 0.66529 0.20158 0.0
C686 C 0.25963 0.62947 0.14298 0.0
C687 C 0.27539 0.66271 0.16076 0.0
H688 H 0.17012 0.4948 0.20881 0.0
H689 H 0.28699 0.68617 0.14287 0.0
H690 H 0.36837 0.49797 0.04537 0.0
H691 H 0.21216 0.32567 0.07338 0.0
H692 H 0.25816 0.62784 0.11149 0.0
H693 H 0.28876 0.69073 0.21545 0.0
H694 H 0.24275 0.37685 0.11467 0.0
H695 H 0.16339 0.49654 0.28064 0.0
H696 H 0.26943 0.66248 0.28054 0.0
H697 H 0.23636 0.61044 0.31807 0.0
H698 H 0.38587 0.49982 0.97553 0.0
H699 H 0.19663 0.54846 0.31843 0.0
H700 H 0.22264 0.32636 1.00167 0.0
N701 N 0.32113 0.45812 0.03764 0.0
C702 C 0.30322 0.43303 0.01259 0.0
C703 C 0.36217 0.48133 0.98547 0.0
C704 C 0.31297 0.43254 0.97243 0.0
C705 C 0.35155 0.48077 0.025 0.0
C706 C 0.34227 0.45771 0.95891 0.0
N707 N 0.26879 0.40633 0.06643 0.0
C708 C 0.24724 0.37711 0.08332 0.0
C709 C 0.26019 0.37739 1.0029 0.0
C710 C 0.27697 0.40585 0.02753 0.0
C711 C 0.23611 0.34868 0.01963 0.0
C712 C 0.23005 0.34822 0.0601 0.0
H713 H 0.35065 0.45815 0.92831 0.0
H714 H 0.30113 0.40553 0.91636 0.0
H715 H 0.25497 0.35716 0.94307 0.0
O716 O 0.31699 0.40542 0.14257 0.0
O717 O 0.23703 0.4561 0.08457 0.0
O718 O 0.22501 0.52109 0.07443 0.0
O719 O 0.3561 0.42231 0.09603 0.0
O720 O 0.27014 0.45094 0.16337 0.0
O721 O 0.20924 0.47651 0.15034 0.0
O722 O 0.18545 0.59095 0.12254 0.0
O723 O 0.28219 0.53745 0.17302 0.0
O724 O 0.32973 0.50183 0.1381 0.0
O725 O 0.15932 0.53448 0.1346 0.0
O726 O 0.25948 0.55332 0.08486 0.0
O727 O 0.3185 0.51912 0.08963 0.0
C728 C 0.2227 0.48447 0.06275 0.0
C729 C 0.38404 0.38964 0.1513 0.0
C730 C 0.42158 0.34122 0.18982 0.0
C731 C 0.44783 0.37126 0.19996 0.0
C732 C 0.4105 0.41896 0.16199 0.0
C733 C 0.44222 0.40974 0.18618 0.0
C734 C 0.38965 0.35085 0.16527 0.0
C735 C 0.23207 0.45154 0.16903 0.0
C736 C 0.35047 0.39865 0.12555 0.0
C737 C 0.29443 0.40588 0.94736 0.0
C738 C 0.26824 0.37825 0.96259 0.0
C739 C 0.31918 0.52584 0.16648 0.0
C740 C 0.11895 0.59122 0.14288 0.0
C741 C 0.05779 0.6291 0.13529 0.0
C742 C 0.05272 0.62736 0.17622 0.0
C743 C 0.11352 0.59071 0.18351 0.0
C744 C 0.0911 0.61046 0.11882 0.0
C745 C 0.08043 0.60852 0.2 0.0
C746 C 0.2977 0.55152 0.08157 0.0
C747 C 0.15303 0.57125 0.12498 0.0
H748 H 0.47316 0.36492 0.21804 0.0
H749 H 0.40673 0.44883 0.15144 0.0
H750 H 0.46271 0.43248 0.19411 0.0
H751 H 0.36892 0.32832 0.15723 0.0
H752 H 0.02716 0.64047 0.19001 0.0
H753 H 0.13466 0.57638 0.20244 0.0
H754 H 0.09575 0.61139 0.08744 0.0
H755 H 0.07619 0.60768 0.23139 0.0
Eu756 Eu 0.80369 0.05089 0.89919 0.0
C757 C 0.71962 0.94056 0.78686 0.0
N758 N 0.70116 0.96506 0.81257 0.0
C759 C 0.65822 0.988 0.76163 0.0
C760 C 0.71 0.94142 0.74668 0.0
C761 C 0.66839 0.98557 0.80117 0.0
C762 C 0.67998 0.96682 0.73406 0.0
C763 C 0.76071 0.8827 0.77575 0.0
C764 C 0.74464 0.91123 0.80126 0.0
C765 C 0.75392 0.88581 0.73535 0.0
C766 C 0.72864 0.91513 0.72084 0.0
Eu767 Eu 0.72392 0.96094 0.87802 0.0
N768 N 0.75055 0.90854 0.84057 0.0
C769 C 0.78142 0.85069 0.79177 0.0
C770 C 0.76807 0.8758 0.85648 0.0
C771 C 0.78428 0.84676 0.83236 0.0
H772 H 0.65056 1.00096 0.82253 0.0
H773 H 0.79885 0.82132 0.84512 0.0
H774 H 0.8368 1.00741 0.98427 0.0
H775 H 0.72837 0.19209 0.87926 0.0
H776 H 0.77019 0.8726 0.88773 0.0
H777 H 0.79385 0.82801 0.77312 0.0
H778 H 0.75842 0.12881 0.85856 0.0
H779 H 0.63338 1.00585 0.75252 0.0
H780 H 0.76662 0.86456 0.71527 0.0
H781 H 0.72213 0.91591 0.68982 0.0
H782 H 0.83288 0.01883 0.05473 0.0
H783 H 0.67174 0.96836 0.70348 0.0
H784 H 0.72636 0.20964 0.94942 0.0
N785 N 0.80312 0.05815 0.9686 0.0
C786 C 0.78723 0.0927 0.98194 0.0
C787 C 0.81936 0.03953 0.03458 0.0
C788 C 0.78564 0.10106 0.02241 0.0
C789 C 0.82069 0.03265 0.99429 0.0
C790 C 0.80135 0.07362 0.04875 0.0
N791 N 0.77279 0.11092 0.9165 0.0
C792 C 0.75744 0.13628 0.88927 0.0
C793 C 0.75551 0.15583 0.96822 0.0
C794 C 0.77238 0.12007 0.9552 0.0
C795 C 0.73967 0.18196 0.9405 0.0
C796 C 0.7406 0.1721 0.90087 0.0
H797 H 0.80064 0.07894 0.07999 0.0
H798 H 0.76753 0.14348 0.06634 0.0
H799 H 0.74167 0.19157 0.01886 0.0
O800 O 0.8332 0.10368 0.87798 0.0
O801 O 0.73942 0.05924 0.91542 0.0
O802 O 0.7168 0.9982 0.93376 0.0
O803 O 0.86807 0.056 0.90065 0.0
O804 O 0.77 0.05288 0.84096 0.0
O805 O 0.71046 0.02313 0.85566 0.0
O806 O 0.70154 0.90663 0.9046 0.0
O807 O 0.78867 0.95156 0.85824 0.0
O808 O 0.80397 0.01503 0.84406 0.0
O809 O 0.6613 0.95281 0.88762 0.0
O810 O 0.75866 0.9692 0.93306 0.0
O811 O 0.82056 0.98791 0.92222 0.0
C812 C 0.71741 0.0369 0.93758 0.0
C813 C 0.89825 0.10052 0.85431 0.0
C814 C 0.93362 0.15101 0.81628 0.0
C815 C 0.95693 0.12061 0.80004 0.0
C816 C 0.92173 0.07119 0.83713 0.0
C817 C 0.9506 0.0812 0.80998 0.0
C818 C 0.9041 0.1403 0.84346 0.0
C819 C 0.73198 0.04776 0.83491 0.0
C820 C 0.86835 0.09087 0.88449 0.0
C821 C 0.76897 0.13671 0.0354 0.0
C822 C 0.75423 0.16411 1.00837 0.0
C823 C 0.81335 0.97776 0.84403 0.0
C824 C 0.63704 0.8884 0.88683 0.0
C825 C 0.57517 0.85319 0.8942 0.0
C826 C 0.57998 0.83865 0.85592 0.0
C827 C 0.64132 0.87326 0.84896 0.0
C828 C 0.60419 0.878 0.90955 0.0
C829 C 0.61294 0.84837 0.8337 0.0
C830 C 0.79584 0.96086 0.93492 0.0
C831 C 0.66493 0.91739 0.90183 0.0
H832 H 0.98067 0.12704 0.78004 0.0
H833 H 0.91804 0.04062 0.84488 0.0
H834 H 0.96859 0.05828 0.79692 0.0
H835 H 0.88536 0.16276 0.85627 0.0
H836 H 0.55831 0.81958 0.84314 0.0
H837 H 0.66623 0.88119 0.83102 0.0
H838 H 0.60065 0.89021 0.93863 0.0
H839 H 0.61626 0.83691 0.80435 0.0
Eu840 Eu 0.72439 0.97257 0.39906 0.0
C841 C 0.7905 0.12359 0.31321 0.0
N842 N 0.79709 0.0841 0.31676 0.0
C843 C 0.79605 0.07748 0.24686 0.0
C844 C 0.7861 0.14144 0.27608 0.0
C845 C 0.8003 0.06109 0.28421 0.0
C846 C 0.78888 0.11781 0.24274 0.0
C847 C 0.77999 0.18705 0.34425 0.0
C848 C 0.78742 0.14616 0.34689 0.0
C849 C 0.77583 0.2049 0.30736 0.0
C850 C 0.77893 0.18218 0.27337 0.0
Eu851 Eu 0.80506 0.05987 0.38161 0.0
N852 N 0.79188 0.12825 0.38223 0.0
C853 C 0.77728 0.2089 0.37881 0.0
C854 C 0.79081 0.14964 0.41587 0.0
C855 C 0.78301 0.19012 0.41478 0.0
H856 H 0.80589 0.03007 0.28659 0.0
H857 H 0.7818 0.20676 0.44168 0.0
H858 H 0.66466 0.02064 0.46548 0.0
H859 H 0.79723 0.83017 0.42055 0.0
H860 H 0.79702 0.13549 0.44351 0.0
H861 H 0.77139 0.24031 0.37792 0.0
H862 H 0.77012 0.8865 0.38269 0.0
H863 H 0.79838 0.05895 0.22123 0.0
H864 H 0.77022 0.23629 0.3048 0.0
H865 H 0.77546 0.19636 0.2451 0.0
H866 H 0.65718 0.02498 0.53656 0.0
H867 H 0.78557 0.1304 0.21373 0.0
H868 H 0.79345 0.83036 0.49282 0.0
N869 N 0.71074 0.97737 0.46761 0.0
C870 C 0.72765 0.94901 0.49053 0.0
C871 C 0.6779 1.00411 0.52414 0.0
C872 C 0.7225 0.94908 0.53158 0.0
C873 C 0.68323 1.00227 0.48362 0.0
C874 C 0.69848 0.97809 0.54835 0.0
N875 N 0.75122 0.91784 0.4332 0.0
C876 C 0.76801 0.88646 0.41428 0.0
C877 C 0.76314 0.88669 0.49551 0.0
C878 C 0.74759 0.91794 0.4728 0.0
C879 C 0.78127 0.85493 0.47639 0.0
C880 C 0.78346 0.85469 0.43558 0.0
H881 H 0.69381 0.97915 0.57971 0.0
H882 H 0.73649 0.91907 0.58598 0.0
H883 H 0.77205 0.86447 0.55439 0.0
O884 O 0.69799 0.91792 0.37762 0.0
O885 O 0.78823 0.9638 0.41684 0.0
O886 O 0.80491 0.02462 0.43877 0.0
O887 O 0.66058 0.96539 0.39588 0.0
O888 O 0.7636 0.96025 0.34556 0.0
O889 O 0.81828 1.00118 0.35128 0.0
O890 O 0.85074 0.09389 0.41044 0.0
O891 O 0.74362 0.07005 0.35447 0.0
O892 O 0.72797 1.0064 0.34197 0.0
O893 O 0.86707 0.05153 0.3664 0.0
O894 O 0.76861 0.05826 0.4369 0.0
O895 O 0.7087 0.03765 0.41641 0.0
C896 C 0.80803 0.98607 0.44076 0.0
C897 C 0.63286 0.91724 0.35258 0.0
C898 C 0.59815 0.86439 0.31768 0.0
C899 C 0.57394 0.89364 0.30058 0.0
C900 C 0.60774 0.9451 0.33523 0.0
C901 C 0.57923 0.93342 0.30875 0.0
C902 C 0.62792 0.87677 0.34371 0.0
C903 C 0.79995 0.97053 0.33612 0.0
C904 C 0.66213 0.92966 0.38216 0.0
C905 C 0.73974 0.91913 0.55443 0.0
C906 C 0.75985 0.88792 0.53643 0.0
C907 C 0.71993 0.044 0.33862 0.0
C908 C 0.90887 0.10668 0.37557 0.0
C909 C 0.96932 0.14386 0.38592 0.0
C910 C 0.96486 0.16015 0.34821 0.0
C911 C 0.90511 0.12359 0.33828 0.0
C912 C 0.94081 0.11716 0.39951 0.0
C913 C 0.93301 0.15015 0.32475 0.0
C914 C 0.73054 0.06339 0.43561 0.0
C915 C 0.87932 0.07876 0.39023 0.0
H916 H 0.55002 0.88599 0.28142 0.0
H917 H 0.60958 0.97589 0.34278 0.0
H918 H 0.56044 0.95531 0.29506 0.0
H919 H 0.6471 0.85512 0.35733 0.0
H920 H 0.98571 0.18123 0.33699 0.0
H921 H 0.8806 0.11631 0.31967 0.0
H922 H 0.94364 0.10423 0.42842 0.0
H923 H 0.92988 0.16319 0.29596 0.0
Eu924 Eu 0.30919 0.48124 0.66812 0.0
C925 C 0.18847 0.55497 0.54264 0.0
N926 N 0.22021 0.57041 0.56054 0.0
C927 C 0.24188 0.59781 0.49961 0.0
C928 C 0.18342 0.55838 0.50182 0.0
C929 C 0.2451 0.59405 0.54027 0.0
C930 C 0.21141 0.57903 0.48013 0.0
C931 C 0.1246 0.5251 0.54858 0.0
C932 C 0.15942 0.5386 0.56569 0.0
C933 C 0.12038 0.52623 0.5077 0.0
C934 C 0.14979 0.54278 0.48434 0.0
Eu935 Eu 0.22497 0.55976 0.62869 0.0
N936 N 0.1642 0.53822 0.60513 0.0
C937 C 0.09452 0.51228 0.57322 0.0
C938 C 0.13428 0.52786 0.6293 0.0
C939 C 0.09918 0.51423 0.61379 0.0
H940 H 0.26698 0.61061 0.55557 0.0
H941 H 0.07584 0.50559 0.6333 0.0
H942 H 0.26566 0.41383 0.72662 0.0
H943 H 0.4375 0.57011 0.69825 0.0
H944 H 0.13731 0.53052 0.6606 0.0
H945 H 0.06728 0.50205 0.56107 0.0
H946 H 0.386 0.53999 0.65723 0.0
H947 H 0.26244 0.61571 0.48345 0.0
H948 H 0.09397 0.51555 0.49398 0.0
H949 H 0.14558 0.54469 0.45297 0.0
H950 H 0.26438 0.3956 0.79641 0.0
H951 H 0.20866 0.58235 0.4487 0.0
H952 H 0.43782 0.55858 0.76982 0.0
N953 N 0.30586 0.46076 0.73438 0.0
C954 C 0.33111 0.47841 0.75934 0.0
C955 C 0.28274 0.41947 0.78651 0.0
C956 C 0.33179 0.4684 0.79947 0.0
C957 C 0.28309 0.43037 0.74702 0.0
C958 C 0.30643 0.43926 0.81306 0.0
N959 N 0.35715 0.51338 0.70551 0.0
C960 C 0.38606 0.53518 0.68855 0.0
C961 C 0.38688 0.52109 0.76879 0.0
C962 C 0.35812 0.50473 0.74432 0.0
C963 C 0.4153 0.5454 0.752 0.0
C964 C 0.41517 0.55206 0.71161 0.0
H965 H 0.30609 0.43069 0.84364 0.0
H966 H 0.3594 0.47953 0.85535 0.0
H967 H 0.40786 0.52545 0.82843 0.0
O968 O 0.35925 0.46451 0.63143 0.0
O969 O 0.30772 0.54645 0.6828 0.0
O970 O 0.24342 0.55856 0.69218 0.0
O971 O 0.33851 0.42369 0.67486 0.0
O972 O 0.31204 0.50501 0.60579 0.0
O973 O 0.28921 0.56823 0.61241 0.0
O974 O 0.17792 0.60022 0.64578 0.0
O975 O 0.22763 0.49881 0.5963 0.0
O976 O 0.26022 0.45279 0.63645 0.0
O977 O 0.23425 0.62377 0.62966 0.0
O978 O 0.20814 0.52465 0.68259 0.0
O979 O 0.24412 0.46585 0.68372 0.0
C980 C 0.27949 0.56101 0.70441 0.0
C981 C 0.37089 0.39707 0.61875 0.0
C982 C 0.41744 0.3561 0.58118 0.0
C983 C 0.3853 0.33711 0.56395 0.0
C984 C 0.3396 0.37788 0.60077 0.0
C985 C 0.34685 0.34802 0.57362 0.0
C986 C 0.40975 0.38611 0.60891 0.0
C987 C 0.31028 0.54173 0.59359 0.0
C988 C 0.36353 0.42958 0.64663 0.0
C989 C 0.35884 0.48646 0.82438 0.0
C990 C 0.38652 0.51252 0.80904 0.0
C991 C 0.23778 0.46202 0.60649 0.0
C992 C 0.17836 0.66689 0.62604 0.0
C993 C 0.14493 0.73038 0.63751 0.0
C994 C 0.1357 0.73183 0.59732 0.0
C995 C 0.16885 0.6693 0.58628 0.0
C996 C 0.16629 0.69737 0.65162 0.0
C997 C 0.14766 0.70167 0.57207 0.0
C998 C 0.21116 0.48664 0.68957 0.0
C999 C 0.19876 0.63183 0.64187 0.0
H1000 H 0.3898 0.31346 0.54317 0.0
H1001 H 0.30959 0.3861 0.6076 0.0
H1002 H 0.32253 0.33327 0.55991 0.0
H1003 H 0.43388 0.40154 0.62228 0.0
H1004 H 0.11854 0.75602 0.58535 0.0
H1005 H 0.17734 0.64594 0.56639 0.0
H1006 H 0.17365 0.69534 0.6824 0.0
H1007 H 0.14009 0.70323 0.54136 0.0
C1008 C 0.20634 0.38665 0.53083 0.0
C1009 C 0.19845 0.35341 0.55473 0.0
H1010 H 0.2229 0.44784 0.52814 0.0
C1011 C 0.20222 0.35739 0.59525 0.0
H1012 H 0.20421 0.38472 0.49929 0.0
C1013 C 0.21326 0.39327 0.61141 0.0
C1014 C 0.22045 0.42674 0.58776 0.0
H1015 H 0.19648 0.33283 0.61468 0.0
H1016 H 0.21646 0.39469 0.64291 0.0
C1017 C 0.21657 0.42312 0.54719 0.0
C1018 C 0.8854 0.96679 0.85802 0.0
C1019 C 0.85361 0.96648 0.83167 0.0
H1020 H 0.94734 0.95751 0.86669 0.0
C1021 C 0.86149 0.9606 0.79202 0.0
H1022 H 0.88122 0.97483 0.88818 0.0
C1023 C 0.89994 0.95427 0.77915 0.0
C1024 C 0.9316 0.95179 0.80577 0.0
H1025 H 0.83795 0.96177 0.77079 0.0
H1026 H 0.90457 0.95051 0.74808 0.0
C1027 C 0.92379 0.95812 0.8455 0.0
C1028 C 0.34178 0.65236 0.08622 0.0
C1029 C 0.33068 0.66843 0.04996 0.0
H1030 H 0.34425 0.60089 0.12302 0.0
C1031 C 0.31163 0.64396 0.02304 0.0
H1032 H 0.35395 0.67103 0.10851 0.0
C1033 C 0.30338 0.60478 0.03245 0.0
C1034 C 0.31624 0.58815 0.06783 0.0
H1035 H 0.30195 0.65544 0.99502 0.0
H1036 H 0.28598 0.5876 0.01241 0.0
C1037 C 0.33629 0.61214 0.09441 0.0
C1038 C 0.62288 0.09946 0.32913 0.0
C1039 C 0.60009 0.073 0.30759 0.0
H1040 H 0.68071 0.11455 0.3484 0.0
C1041 C 0.61821 0.03861 0.29324 0.0
H1042 H 0.6105 0.12714 0.33896 0.0
C1043 C 0.6573 0.02944 0.30271 0.0
C1044 C 0.68011 0.05584 0.32442 0.0
H1045 H 0.60179 0.01827 0.27545 0.0
H1046 H 0.66965 1.0016 0.29301 0.0
C1047 C 0.66303 0.09203 0.33513 0.0
C1048 C 0.67677 0.16291 0.43987 0.0
C1049 C 0.69591 0.18181 0.47094 0.0
H1050 H 0.66717 0.10831 0.40987 0.0
C1051 C 0.72329 0.15951 0.49278 0.0
H1052 H 0.65432 0.17822 0.42349 0.0
C1053 C 0.73266 0.12038 0.48267 0.0
C1054 C 0.71444 0.10184 0.45086 0.0
H1055 H 0.73786 0.17253 0.51763 0.0
H1056 H 0.75518 0.10494 0.49916 0.0
C1057 C 0.68461 0.12288 0.43138 0.0
C1058 C 0.12047 0.46152 0.74866 0.0
C1059 C 0.09709 0.4425 0.72074 0.0
H1060 H 0.17512 0.49013 0.76083 0.0
C1061 C 0.11228 0.43718 0.68297 0.0
H1062 H 0.1099 0.46517 0.77836 0.0
C1063 C 0.15058 0.44893 0.67384 0.0
C1064 C 0.1743 0.46724 0.70193 0.0
H1065 H 0.09499 0.42285 0.66078 0.0
H1066 H 0.16084 0.44546 0.64415 0.0
C1067 C 0.15828 0.47454 0.7391 0.0
C1068 C 0.84339 0.90195 0.93191 0.0
C1069 C 0.80747 0.91893 0.94388 0.0
H1070 H 0.88032 0.85025 0.93059 0.0
C1071 C 0.78051 0.89434 0.96325 0.0
H1072 H 0.8652 0.91941 0.91758 0.0
C1073 C 0.78937 0.8546 0.97093 0.0
C1074 C 0.82541 0.8379 0.95942 0.0
H1075 H 0.75254 0.90598 0.97314 0.0
H1076 H 0.76855 0.83722 0.98739 0.0
C1077 C 0.852 0.86184 0.93907 0.0
C1078 C 0.42422 0.55304 0.19324 0.0
C1079 C 0.41918 0.57858 0.22492 0.0
H1080 H 0.39751 0.51787 0.14967 0.0
C1081 C 0.38037 0.58604 0.23808 0.0
H1082 H 0.45314 0.54645 0.18209 0.0
C1083 C 0.34784 0.56863 0.22014 0.0
C1084 C 0.35295 0.54371 0.18792 0.0
H1085 H 0.37478 0.60609 0.26194 0.0
H1086 H 0.31884 0.57493 0.23138 0.0
C1087 C 0.39179 0.53626 0.17486 0.0
C1088 C 0.54103 0.17389 0.38499 0.0
C1089 C 0.55579 0.18823 0.34924 0.0
H1090 H 0.54231 0.1771 0.44783 0.0
C1091 C 0.58574 0.21584 0.3498 0.0
H1092 H 0.5191 0.15132 0.38501 0.0
C1093 C 0.59939 0.23017 0.38543 0.0
C1094 C 0.58357 0.21707 0.42148 0.0
H1095 H 0.59792 0.22708 0.3228 0.0
H1096 H 0.62271 0.25152 0.38462 0.0
C1097 C 0.55476 0.18809 0.42086 0.0
C1098 C 0.10109 0.32649 0.61213 0.0
C1099 C 0.08086 0.29765 0.59102 0.0
H1100 H 0.1081 0.35633 0.66706 0.0
C1101 C 0.05084 0.27705 0.61018 0.0
H1102 H 0.12399 0.34313 0.59817 0.0
C1103 C 0.04005 0.28648 0.64875 0.0
C1104 C 0.06058 0.31502 0.67004 0.0
H1105 H 0.03485 0.25444 0.59487 0.0
H1106 H 0.01508 0.27195 0.66178 0.0
C1107 C 0.09197 0.33408 0.6516 0.0
C1108 C 0.96531 0.80117 0.85251 0.0
C1109 C 0.97968 0.83961 0.85393 0.0
H1110 H 0.93964 0.7534 0.88385 0.0
C1111 C 0.97891 0.8592 0.8905 0.0
H1112 H 0.96601 0.78488 0.82534 0.0
C1113 C 0.96385 0.84119 0.92436 0.0
C1114 C 0.94909 0.80282 0.92301 0.0
H1115 H 0.98956 0.88903 0.89303 0.0
H1116 H 0.9629 0.85782 0.95126 0.0
C1117 C 0.95049 0.78304 0.8865 0.0
C1118 C 0.43686 0.67017 0.15737 0.0
C1119 C 0.45643 0.6975 0.1809 0.0
H1120 H 0.41905 0.65473 0.09927 0.0
C1121 C 0.4682 0.73324 0.16397 0.0
H1122 H 0.42933 0.64154 0.16897 0.0
C1123 C 0.46032 0.74165 0.12456 0.0
C1124 C 0.44144 0.714 0.10062 0.0
H1125 H 0.48459 0.75425 0.18103 0.0
H1126 H 0.46945 0.76974 0.11272 0.0
C1127 C 0.43102 0.6777 0.11731 0.0
C1128 C 0.20938 0.41241 0.27029 0.0
C1129 C 0.16987 0.40155 0.26584 0.0
H1130 H 0.26065 0.43631 0.24263 0.0
C1131 C 0.15389 0.40124 0.22795 0.0
H1132 H 0.22262 0.41311 0.29903 0.0
C1133 C 0.17562 0.41444 0.1959 0.0
C1134 C 0.21396 0.42815 0.2008 0.0
H1135 H 0.12399 0.39208 0.2232 0.0
H1136 H 0.16164 0.41598 0.16748 0.0
C1137 C 0.2313 0.42548 0.23798 0.0
C1138 C 0.84482 0.95902 0.5426 0.0
C1139 C 0.86121 0.92131 0.53605 0.0
H1140 H 0.81514 1.0094 0.51748 0.0
C1141 C 0.86363 0.90755 0.49734 0.0
H1142 H 0.84237 0.97047 0.57205 0.0
C1143 C 0.84821 0.92978 0.46633 0.0
C1144 C 0.82992 0.9664 0.47306 0.0
H1145 H 0.87664 0.87901 0.49106 0.0
H1146 H 0.84946 0.91765 0.43706 0.0
C1147 C 0.82934 0.98139 0.51137 0.0
C1148 C 0.32149 0.59033 0.75652 0.0
C1149 C 0.28698 0.57121 0.74577 0.0
H1150 H 0.35866 0.60861 0.80295 0.0
C1151 C 0.2602 0.56057 0.77509 0.0
H1152 H 0.34222 0.59955 0.73436 0.0
C1153 C 0.26893 0.56671 0.81458 0.0
C1154 C 0.30486 0.58338 0.82584 0.0
H1155 H 0.23301 0.54627 0.76762 0.0
H1156 H 0.24758 0.55774 0.83621 0.0
C1157 C 0.33054 0.59604 0.79604 0.0
C1158 C 0.67468 0.06245 0.03707 0.0
C1159 C 0.66036 0.10099 0.03036 0.0
H1160 H 0.7039 1.01159 0.01272 0.0
C1161 C 0.66148 0.11611 0.99201 0.0
H1162 H 0.6745 0.04997 0.06627 0.0
C1163 C 0.67823 0.09423 0.96162 0.0
C1164 C 0.69424 0.0566 0.96867 0.0
H1165 H 0.65007 0.14531 0.98553 0.0
H1166 H 0.6797 0.10728 0.93268 0.0
C1167 C 0.69141 0.0404 1.00644 0.0
C1168 C 0.65066 0.09555 0.77641 0.0
C1169 C 0.66772 0.09903 0.73911 0.0
H1170 H 0.65807 0.07769 0.83609 0.0
C1171 C 0.7079 0.09008 0.73477 0.0
H1172 H 0.62003 0.10294 0.78093 0.0
C1173 C 0.72982 0.0756 0.76658 0.0
C1174 C 0.71189 0.06987 0.80318 0.0
H1175 H 0.72188 0.09244 0.70639 0.0
H1176 H 0.76011 0.06686 0.76201 0.0
C1177 C 0.6725 0.08132 0.80805 0.0
C1178 C 0.21497 0.50003 0.9913 0.0
C1179 C 0.20767 0.47512 0.02329 0.0
H1180 H 0.21065 0.50876 0.92949 0.0
C1181 C 0.18799 0.43969 0.01691 0.0
H1182 H 0.22997 0.52767 0.99542 0.0
C1183 C 0.17788 0.4281 0.97906 0.0
C1184 C 0.18643 0.4521 0.94645 0.0
H1185 H 0.18149 0.42023 0.0412 0.0
H1186 H 0.16474 0.39948 0.97551 0.0
C1187 C 0.2044 0.48873 0.95335 0.0
C1188 C 0.8574 0.96265 0.29034 0.0
C1189 C 0.82174 0.94801 0.30494 0.0
H1190 H 0.90531 0.95581 0.25074 0.0
C1191 C 0.80775 0.91259 0.28895 0.0
H1192 H 0.86925 0.98998 0.30117 0.0
C1193 C 0.82931 0.89218 0.25985 0.0
C1194 C 0.86535 0.90676 0.24587 0.0
H1195 H 0.78042 0.90032 0.29923 0.0
H1196 H 0.81817 0.86456 0.24902 0.0
C1197 C 0.87846 0.94272 0.26124 0.0
C1198 C 0.34174 0.58964 0.54644 0.0
C1199 C 0.32718 0.5518 0.55455 0.0
H1200 H 0.36144 0.63047 0.50254 0.0
C1201 C 0.32597 0.5243 0.52396 0.0
H1202 H 0.34333 0.61137 0.56949 0.0
C1203 C 0.33634 0.53516 0.48571 0.0
C1204 C 0.34855 0.57376 0.47693 0.0
H1205 H 0.31515 0.49485 0.52918 0.0
H1206 H 0.33381 0.51346 0.46273 0.0
C1207 C 0.35228 0.60051 0.50808 0.0
C1208 C 0.25225 0.19293 0.44047 0.0
C1209 C 0.24348 0.23069 0.45494 0.0
H1210 H 0.29691 0.1516 0.4234 0.0
C1211 C 0.27411 0.25748 0.45987 0.0
H1212 H 0.22911 0.17183 0.43607 0.0
C1213 C 0.31296 0.24608 0.45241 0.0
C1214 C 0.32214 0.20764 0.4396 0.0
H1215 H 0.26824 0.28682 0.47099 0.0
H1216 H 0.33589 0.2673 0.45726 0.0
C1217 C 0.29112 0.18151 0.43288 0.0
C1218 C 0.09044 0.04904 0.67371 0.0
C1219 C 0.06304 0.07947 0.68145 0.0
H1220 H 0.10393 0.98717 0.67701 0.0
C1221 C 0.02622 0.06877 0.69688 0.0
H1222 H 0.11928 0.05549 0.66234 0.0
C1223 C 0.01803 0.02949 0.70629 0.0
C1224 C 0.04624 0.99971 0.70026 0.0
H1225 H 1.00362 0.09071 0.7022 0.0
H1226 H 0.99001 0.02267 0.7195 0.0
C1227 C 0.08195 1.0097 0.68265 0.0
C1228 C 0.22671 0.78324 0.93866 0.0
C1229 C 0.22066 0.82192 0.9247 0.0
H1230 H 0.26743 0.74025 0.96089 0.0
C1231 C 0.25368 0.84594 0.91921 0.0
H1232 H 0.20226 0.76351 0.94242 0.0
C1233 C 0.29133 0.83236 0.92967 0.0
C1234 C 0.29678 0.79445 0.94563 0.0
H1235 H 0.25025 0.87588 0.90863 0.0
H1236 H 0.31597 0.852 0.92664 0.0
C1237 C 0.26422 0.76967 0.94882 0.0
C1238 C 0.47644 1.00901 0.19588 0.0
C1239 C 0.46017 0.04714 0.198 0.0
H1240 H 0.4673 0.94864 0.17987 0.0
C1241 C 0.42324 0.05443 0.1814 0.0
H1242 H 0.50477 1.0026 0.2088 0.0
C1243 C 0.4019 0.02381 0.16493 0.0
C1244 C 0.41698 0.98511 0.16476 0.0
H1245 H 0.41026 0.08369 0.18231 0.0
H1246 H 0.37306 0.03028 0.15325 0.0
C1247 C 0.45496 0.97818 0.17944 0.0
C1248 C 0.72813 0.36448 0.63671 0.0
C1249 C 0.76798 0.35385 0.6331 0.0
H1250 H 0.66898 0.35328 0.61927 0.0
C1251 C 0.77769 0.31954 0.61188 0.0
H1252 H 0.7193 0.39009 0.65349 0.0
C1253 C 0.74848 0.29784 0.59303 0.0
C1254 C 0.70914 0.31038 0.59455 0.0
H1255 H 0.80799 0.31058 0.60809 0.0
H1256 H 0.75694 0.27275 0.57529 0.0
C1257 C 0.69917 0.34324 0.61738 0.0
C1258 C 1.00365 0.499 0.81611 0.0
C1259 C 0.97921 0.46711 0.82482 0.0
H1260 H 1.01191 0.56136 0.81807 0.0
C1261 C 0.94443 0.47451 0.84588 0.0
H1262 H 0.03081 0.49429 0.80023 0.0
C1263 C 0.93328 0.51326 0.85601 0.0
C1264 C 0.95667 0.54556 0.84526 0.0
H1265 H 0.92521 0.45044 0.85339 0.0
H1266 H 0.90548 0.51799 0.87066 0.0
C1267 C 0.99252 0.53759 0.82605 0.0
C1268 C 0.81327 0.67788 0.10856 0.0
C1269 C 0.80319 0.71125 0.08621 0.0
H1270 H 0.79338 0.62996 0.14396 0.0
C1271 C 0.76379 0.72381 0.08547 0.0
H1272 H 0.84345 0.66772 0.10997 0.0
C1273 C 0.73476 0.70178 0.10474 0.0
C1274 C 0.74468 0.66695 0.12522 0.0
H1275 H 0.75515 0.74924 0.06817 0.0
H1276 H 0.70439 0.7109 0.10192 0.0
C1277 C 0.7845 0.65612 0.12788 0.0
C1278 C 0.59187 0.50447 0.35562 0.0
C1279 C 0.56676 0.47253 0.3489 0.0
H1280 H 0.6008 0.56692 0.34981 0.0
C1281 C 0.52907 0.48069 0.33393 0.0
H1282 H 0.62112 0.49942 0.36691 0.0
C1283 C 0.51745 0.51931 0.32438 0.0
C1284 C 0.54334 0.55082 0.32904 0.0
H1285 H 0.50862 0.45706 0.32897 0.0
H1286 H 0.48875 0.52426 0.31167 0.0
C1287 C 0.58031 0.54315 0.34572 0.0
C1288 C 0.44233 0.29312 0.24246 0.0
C1289 C 0.42829 0.30002 0.2043 0.0
H1290 H 0.4646 0.251 0.28393 0.0
C1291 C 0.42272 0.26738 0.17964 0.0
H1292 H 0.44622 0.31732 0.26259 0.0
C1293 C 0.43303 0.22921 0.1921 0.0
C1294 C 0.44905 0.22286 0.22947 0.0
H1295 H 0.41216 0.27148 0.15004 0.0
H1296 H 0.42991 0.20484 0.172 0.0
C1297 C 0.45242 0.25502 0.25492 0.0
C1298 C 0.94181 0.26341 0.82264 0.0
C1299 C 0.95904 0.27308 0.78657 0.0
H1300 H 0.92184 0.21808 0.86107 0.0
C1301 C 0.96538 0.24295 0.75919 0.0
H1302 H 0.93586 0.28617 0.84403 0.0
C1303 C 0.9563 0.20375 0.76839 0.0
C1304 C 0.9408 0.19346 0.8054 0.0
H1305 H 0.9783 0.2495 0.73095 0.0
H1306 H 0.96163 0.18158 0.74629 0.0
C1307 C 0.93322 0.22419 0.83214 0.0
C1308 C 1.01213 0.68656 0.12471 0.0
C1309 C 0.02871 0.65129 0.11063 0.0
H1310 H 0.97139 0.73357 0.11606 0.0
C1311 C 0.01645 0.6375 0.07378 0.0
H1312 H 0.02137 0.69879 0.15238 0.0
C1313 C 0.98761 0.65809 0.05218 0.0
C1314 C 0.97041 0.69289 0.067 0.0
H1315 H 0.02843 0.61033 0.06205 0.0
H1316 H 0.97838 0.64642 0.02427 0.0
C1317 C 0.98339 0.70678 0.1035 0.0
C1318 C 0.5971 0.79152 0.33668 0.0
C1319 C 0.59093 0.82158 0.30865 0.0
H1320 H 0.59075 0.7301 0.35128 0.0
C1321 C 0.5754 0.81063 0.27208 0.0
H1322 H 0.609 0.79829 0.36516 0.0
C1323 C 0.56376 0.77194 0.26483 0.0
C1324 C 0.56774 0.74254 0.29361 0.0
H1325 H 0.57159 0.83209 0.24886 0.0
H1326 H 0.55061 0.76535 0.23681 0.0
C1327 C 0.58601 0.75241 0.32904 0.0
C1328 C 0.52627 0.32835 0.58788 0.0
C1329 C 0.53507 0.31726 0.54918 0.0
H1330 H 0.48257 0.3488 0.62849 0.0
C1331 C 0.50562 0.32121 0.52075 0.0
H1332 H 0.54852 0.32633 0.61036 0.0
C1333 C 0.46788 0.33438 0.53102 0.0
C1334 C 0.45853 0.3443 0.57001 0.0
H1335 H 0.51147 0.31313 0.49064 0.0
H1336 H 0.44594 0.3367 0.50827 0.0
C1337 C 0.48851 0.34165 0.59819 0.0
C1338 C 0.11641 0.75557 0.70178 0.0
C1339 C 0.13146 0.76309 0.664 0.0
H1340 H 0.08602 0.7791 0.75207 0.0
C1341 C 0.13109 0.8023 0.65037 0.0
H1342 H 0.1159 0.72579 0.71324 0.0
C1343 C 0.11385 0.8325 0.67244 0.0
C1344 C 0.09693 0.82464 0.70908 0.0
H1345 H 0.14317 0.80961 0.62197 0.0
H1346 H 0.11237 0.86194 0.66011 0.0
C1347 C 0.09941 0.7861 0.72417 0.0
C1348 C 0.50946 0.81741 0.97724 0.0
C1349 C 0.47293 0.81548 0.9585 0.0
H1350 H 0.5707 0.83036 0.97144 0.0
C1351 C 0.46966 0.82918 0.91984 0.0
H1352 H 0.51284 0.80676 1.00698 0.0
C1353 C 0.50257 0.84257 0.89953 0.0
C1354 C 0.53965 0.84265 0.91741 0.0
H1355 H 0.44173 0.82849 0.90488 0.0
H1356 H 0.4991 0.85215 0.86946 0.0
C1357 C 0.54256 0.83082 0.95686 0.0
C1358 C 0.04089 0.15942 0.39382 0.0
C1359 C 1.0034 0.15568 0.41064 0.0
H1360 H 0.09989 0.17938 0.4007 0.0
C1361 C 0.99842 0.16624 0.45018 0.0
H1362 H 0.04605 0.15091 0.36372 0.0
C1363 C 0.02952 0.18248 0.47148 0.0
C1364 C 0.06616 0.18858 0.45364 0.0
H1365 H 0.96998 0.16389 0.46405 0.0
H1366 H 0.02423 0.19234 0.50116 0.0
C1367 C 0.07185 0.17552 0.41507 0.0
loop_
_geom_bond_atom_site_label_1
_geom_bond_atom_site_label_2
_geom_bond_distance
_geom_bond_site_symmetry_2
_ccdc_geom_bond_type
Eu0 N29 2.600 . S
Eu0 N35 2.562 . S
Eu0 O44 2.462 . S
Eu0 O45 2.373 . S
Eu0 O47 2.432 . S
Eu0 O48 2.291 . S
Eu0 O52 2.335 . S
Eu0 O55 2.372 . S
Eu0 C64 2.787 . S
C1 N2 1.365 . S
C1 C4 1.405 1_455 S
C1 C8 1.448 . S
N2 C1 1.365 . S
N2 C5 1.319 . S
N2 Eu11 2.600 . S
C3 C5 1.397 1_655 S
C3 C6 1.367 . S
C3 H23 0.931 . S
C4 C1 1.405 1_655 S
C4 C6 1.403 . S
C4 C10 1.439 . S
C5 N2 1.319 . S
C5 C3 1.397 1_455 S
C5 H16 0.930 . S
C6 C3 1.367 . S
C6 C4 1.403 . S
C6 H27 0.929 . S
C7 C8 1.430 . S
C7 C9 1.387 1_455 S
C7 C13 1.404 . S
C8 C1 1.448 . S
C8 C7 1.430 . S
C8 N12 1.351 . S
C9 C7 1.387 1_655 S
C9 C10 1.374 . S
C9 H24 0.931 . S
C10 C4 1.439 . S
C10 C9 1.374 . S
C10 H25 0.931 . S
Eu11 N2 2.600 . S
Eu11 N12 2.562 . S
Eu11 O46 2.335 . S
Eu11 O49 2.372 . S
Eu11 O50 2.462 . S
Eu11 O51 2.373 . S
Eu11 O53 2.432 . S
Eu11 O54 2.291 . S
Eu11 C75 2.787 . S
N12 C8 1.351 . S
N12 Eu11 2.562 . S
N12 C14 1.325 . S
C13 C7 1.404 . S
C13 C15 1.366 . S
C13 H21 0.930 . S
C14 N12 1.325 . S
C14 C15 1.416 . S
C14 H20 0.929 . S
C15 C13 1.366 . S
C15 C14 1.416 . S
C15 H17 0.930 . S
H16 C5 0.930 . S
H17 C15 0.930 . S
H18 C33 0.930 . S
H19 C40 0.930 . S
H20 C14 0.929 . S
H21 C13 0.930 . S
H22 C36 0.929 . S
H23 C3 0.931 . S
H24 C9 0.931 . S
H25 C10 0.931 . S
H26 C31 0.931 . S
H27 C6 0.929 . S
H28 C39 0.930 . S
N29 Eu0 2.600 . S
N29 C30 1.365 . S
N29 C33 1.319 . S
C30 N29 1.365 . S
C30 C32 1.405 . S
C30 C38 1.448 . S
C31 H26 0.931 . S
C31 C33 1.397 . S
C31 C34 1.367 . S
C32 C30 1.405 . S
C32 C34 1.403 . S
C32 C65 1.439 . S
C33 H18 0.930 . S
C33 N29 1.319 . S
C33 C31 1.397 . S
C34 C31 1.367 . S
C34 C32 1.403 . S
C34 H41 0.929 . S
N35 Eu0 2.562 . S
N35 C36 1.325 . S
N35 C38 1.351 . S
C36 H22 0.929 . S
C36 N35 1.325 . S
C36 C40 1.416 . S
C37 C38 1.430 . S
C37 C39 1.404 . S
C37 C66 1.387 . S
C38 C30 1.448 . S
C38 N35 1.351 . S
C38 C37 1.430 . S
C39 H28 0.930 . S
C39 C37 1.404 . S
C39 C40 1.366 . S
C40 H19 0.930 . S
C40 C36 1.416 . S
C40 C39 1.366 . S
H41 C34 0.929 . S
H42 C65 0.931 . S
H43 C66 0.931 . S
O44 Eu0 2.462 . S
O44 C64 1.252 . S
O45 Eu0 2.373 . S
O45 C56 1.249 . S
O46 Eu11 2.335 . S
O46 C56 1.264 . S
O47 Eu0 2.432 . S
O47 C64 1.268 . S
O48 Eu0 2.291 . S
O48 C63 1.255 . S
O49 Eu11 2.372 . S
O49 C63 1.257 . S
O50 Eu11 2.462 . S
O50 C75 1.252 . S
O51 Eu11 2.373 . S
O51 C67 1.249 . S
O52 Eu0 2.335 . S
O52 C67 1.264 . S
O53 Eu11 2.432 . S
O53 C75 1.268 . S
O54 Eu11 2.291 . S
O54 C74 1.255 . S
O55 Eu0 2.372 . S
O55 C74 1.257 . S
C56 O45 1.249 . S
C56 O46 1.264 . S
C57 C60 1.382 . S
C57 C62 1.390 . S
C57 C64 1.506 . S
C58 C59 1.398 . S
C58 C62 1.392 . S
C59 C58 1.398 . S
C59 C61 1.372 . S
C59 H76 0.931 . S
C60 C57 1.382 . S
C60 C61 1.390 . S
C60 H77 0.931 . S
C61 C59 1.372 . S
C61 C60 1.390 . S
C61 H78 0.929 . S
C62 C57 1.390 . S
C62 C58 1.392 . S
C62 H79 0.930 . S
C63 O48 1.255 . S
C63 O49 1.257 . S
C64 Eu0 2.787 . S
C64 O44 1.252 . S
C64 O47 1.268 . S
C64 C57 1.506 . S
C65 C32 1.439 . S
C65 H42 0.931 . S
C65 C66 1.374 . S
C66 C37 1.387 . S
C66 H43 0.931 . S
C66 C65 1.374 . S
C67 O51 1.249 . S
C67 O52 1.264 . S
C68 C71 1.382 . S
C68 C72 1.390 . S
C68 C75 1.506 . S
C69 C70 1.398 . S
C69 C72 1.392 . S
C70 C69 1.398 . S
C70 C73 1.372 . S
C70 H80 0.931 . S
C71 C68 1.382 . S
C71 C73 1.390 . S
C71 H81 0.931 . S
C72 C68 1.390 . S
C72 C69 1.392 . S
C72 H82 0.930 . S
C73 C70 1.372 . S
C73 C71 1.390 . S
C73 H83 0.929 . S
C74 O54 1.255 . S
C74 O55 1.257 . S
C75 Eu11 2.787 . S
C75 O50 1.252 . S
C75 O53 1.268 . S
C75 C68 1.506 . S
H76 C59 0.931 . S
H77 C60 0.931 . S
H78 C61 0.929 . S
H79 C62 0.930 . S
H80 C70 0.931 . S
H81 C71 0.931 . S
H82 C72 0.930 . S
H83 C73 0.929 . S
Eu84 N113 2.600 . S
Eu84 N119 2.562 . S
Eu84 O128 2.462 . S
Eu84 O129 2.373 . S
Eu84 O131 2.432 . S
Eu84 O132 2.291 . S
Eu84 O136 2.335 . S
Eu84 O139 2.372 1_455 S
Eu84 C148 2.787 . S
C85 N86 1.365 . S
C85 C88 1.405 . S
C85 C92 1.448 . S
N86 C85 1.365 . S
N86 C89 1.319 . S
N86 Eu95 2.600 . S
C87 C89 1.397 . S
C87 C90 1.367 . S
C87 H107 0.931 . S
C88 C85 1.405 . S
C88 C90 1.403 . S
C88 C94 1.439 . S
C89 N86 1.319 . S
C89 C87 1.397 . S
C89 H100 0.930 . S
C90 C87 1.367 . S
C90 C88 1.403 . S
C90 H111 0.929 . S
C91 C92 1.430 . S
C91 C93 1.387 . S
C91 C97 1.404 . S
C92 C85 1.448 . S
C92 C91 1.430 . S
C92 N96 1.351 . S
C93 C91 1.387 . S
C93 C94 1.374 . S
C93 H108 0.931 . S
C94 C88 1.439 . S
C94 C93 1.374 . S
C94 H109 0.931 . S
Eu95 N86 2.600 . S
Eu95 N96 2.562 . S
Eu95 O130 2.335 1_655 S
Eu95 O133 2.372 1_655 S
Eu95 O134 2.462 . S
Eu95 O135 2.373 . S
Eu95 O137 2.432 . S
Eu95 O138 2.291 . S
Eu95 C159 2.787 . S
N96 C92 1.351 . S
N96 Eu95 2.562 . S
N96 C98 1.325 . S
C97 C91 1.404 . S
C97 C99 1.366 . S
C97 H105 0.930 . S
C98 N96 1.325 . S
C98 C99 1.416 . S
C98 H104 0.929 . S
C99 C97 1.366 . S
C99 C98 1.416 . S
C99 H101 0.930 . S
H100 C89 0.930 . S
H101 C99 0.930 . S
H102 C117 0.930 . S
H103 C124 0.930 . S
H104 C98 0.929 . S
H105 C97 0.930 . S
H106 C120 0.929 . S
H107 C87 0.931 . S
H108 C93 0.931 . S
H109 C94 0.931 . S
H110 C115 0.931 . S
H111 C90 0.929 . S
H112 C123 0.930 . S
N113 Eu84 2.600 . S
N113 C114 1.365 . S
N113 C117 1.319 . S
C114 N113 1.365 . S
C114 C116 1.405 1_565 S
C114 C122 1.448 . S
C115 H110 0.931 . S
C115 C117 1.397 1_545 S
C115 C118 1.367 . S
C116 C114 1.405 1_545 S
C116 C118 1.403 . S
C116 C149 1.439 . S
C117 H102 0.930 . S
C117 N113 1.319 . S
C117 C115 1.397 1_565 S
C118 C115 1.367 . S
C118 C116 1.403 . S
C118 H125 0.929 . S
N119 Eu84 2.562 . S
N119 C120 1.325 . S
N119 C122 1.351 . S
C120 H106 0.929 . S
C120 N119 1.325 . S
C120 C124 1.416 . S
C121 C122 1.430 . S
C121 C123 1.404 . S
C121 C150 1.387 1_565 S
C122 C114 1.448 . S
C122 N119 1.351 . S
C122 C121 1.430 . S
C123 H112 0.930 . S
C123 C121 1.404 . S
C123 C124 1.366 . S
C124 H103 0.930 . S
C124 C120 1.416 . S
C124 C123 1.366 . S
H125 C118 0.929 . S
H126 C149 0.931 . S
H127 C150 0.931 . S
O128 Eu84 2.462 . S
O128 C148 1.252 . S
O129 Eu84 2.373 . S
O129 C140 1.249 . S
O130 Eu95 2.335 1_455 S
O130 C140 1.264 . S
O131 Eu84 2.432 . S
O131 C148 1.268 . S
O132 Eu84 2.291 . S
O132 C147 1.255 . S
O133 Eu95 2.372 1_455 S
O133 C147 1.257 . S
O134 Eu95 2.462 . S
O134 C159 1.252 . S
O135 Eu95 2.373 . S
O135 C151 1.249 . S
O136 Eu84 2.335 . S
O136 C151 1.264 1_455 S
O137 Eu95 2.432 . S
O137 C159 1.268 . S
O138 Eu95 2.291 . S
O138 C158 1.255 . S
O139 Eu84 2.372 1_655 S
O139 C158 1.257 . S
C140 O129 1.249 . S
C140 O130 1.264 . S
C141 C144 1.382 . S
C141 C146 1.390 . S
C141 C148 1.506 . S
C142 C143 1.398 . S
C142 C146 1.392 . S
C143 C142 1.398 . S
C143 C145 1.372 . S
C143 H160 0.931 . S
C144 C141 1.382 . S
C144 C145 1.390 . S
C144 H161 0.931 . S
C145 C143 1.372 . S
C145 C144 1.390 . S
C145 H162 0.929 . S
C146 C141 1.390 . S
C146 C142 1.392 . S
C146 H163 0.930 . S
C147 O132 1.255 . S
C147 O133 1.257 . S
C148 Eu84 2.787 . S
C148 O128 1.252 . S
C148 O131 1.268 . S
C148 C141 1.506 . S
C149 C116 1.439 . S
C149 H126 0.931 . S
C149 C150 1.374 . S
C150 C121 1.387 1_545 S
C150 H127 0.931 . S
C150 C149 1.374 . S
C151 O135 1.249 . S
C151 O136 1.264 1_655 S
C152 C155 1.382 . S
C152 C156 1.390 . S
C152 C159 1.506 . S
C153 C154 1.398 . S
C153 C156 1.392 . S
C154 C153 1.398 . S
C154 C157 1.372 . S
C154 H164 0.931 . S
C155 C152 1.382 . S
C155 C157 1.390 . S
C155 H165 0.931 . S
C156 C152 1.390 . S
C156 C153 1.392 . S
C156 H166 0.930 . S
C157 C154 1.372 . S
C157 C155 1.390 . S
C157 H167 0.929 . S
C158 O138 1.255 . S
C158 O139 1.257 . S
C159 Eu95 2.787 . S
C159 O134 1.252 . S
C159 O137 1.268 . S
C159 C152 1.506 . S
H160 C143 0.931 . S
H161 C144 0.931 . S
H162 C145 0.929 . S
H163 C146 0.930 . S
H164 C154 0.931 . S
H165 C155 0.931 . S
H166 C156 0.930 . S
H167 C157 0.929 . S
Eu168 N197 2.600 . S
Eu168 N203 2.562 . S
Eu168 O212 2.462 . S
Eu168 O213 2.373 . S
Eu168 O215 2.432 . S
Eu168 O216 2.291 . S
Eu168 O220 2.335 . S
Eu168 O223 2.372 1_556 S
Eu168 C232 2.787 . S
C169 N170 1.365 . S
C169 C172 1.405 . S
C169 C176 1.448 . S
N170 C169 1.365 . S
N170 C173 1.319 . S
N170 Eu179 2.600 . S
C171 C173 1.397 . S
C171 C174 1.367 . S
C171 H191 0.931 . S
C172 C169 1.405 . S
C172 C174 1.403 . S
C172 C178 1.439 . S
C173 N170 1.319 . S
C173 C171 1.397 . S
C173 H184 0.930 . S
C174 C171 1.367 . S
C174 C172 1.403 . S
C174 H195 0.929 . S
C175 C176 1.430 . S
C175 C177 1.387 . S
C175 C181 1.404 . S
C176 C169 1.448 . S
C176 C175 1.430 . S
C176 N180 1.351 . S
C177 C175 1.387 . S
C177 C178 1.374 . S
C177 H192 0.931 . S
C178 C172 1.439 . S
C178 C177 1.374 . S
C178 H193 0.931 . S
Eu179 N170 2.600 . S
Eu179 N180 2.562 . S
Eu179 O214 2.335 1_554 S
Eu179 O217 2.372 1_554 S
Eu179 O218 2.462 . S
Eu179 O219 2.373 . S
Eu179 O221 2.432 . S
Eu179 O222 2.291 . S
Eu179 C243 2.787 . S
N180 C176 1.351 . S
N180 Eu179 2.562 . S
N180 C182 1.325 . S
C181 C175 1.404 . S
C181 C183 1.366 . S
C181 H189 0.930 . S
C182 N180 1.325 . S
C182 C183 1.416 . S
C182 H188 0.929 . S
C183 C181 1.366 . S
C183 C182 1.416 . S
C183 H185 0.930 . S
H184 C173 0.930 . S
H185 C183 0.930 . S
H186 C201 0.930 . S
H187 C208 0.930 . S
H188 C182 0.929 . S
H189 C181 0.930 . S
H190 C204 0.929 . S
H191 C171 0.931 . S
H192 C177 0.931 . S
H193 C178 0.931 . S
H194 C199 0.931 . S
H195 C174 0.929 . S
H196 C207 0.930 . S
N197 Eu168 2.600 . S
N197 C198 1.365 . S
N197 C201 1.319 . S
C198 N197 1.365 . S
C198 C200 1.405 . S
C198 C206 1.448 . S
C199 H194 0.931 . S
C199 C201 1.397 . S
C199 C202 1.367 . S
C200 C198 1.405 . S
C200 C202 1.403 . S
C200 C233 1.439 . S
C201 H186 0.930 . S
C201 N197 1.319 . S
C201 C199 1.397 . S
C202 C199 1.367 . S
C202 C200 1.403 . S
C202 H209 0.929 . S
N203 Eu168 2.562 . S
N203 C204 1.325 . S
N203 C206 1.351 . S
C204 H190 0.929 . S
C204 N203 1.325 . S
C204 C208 1.416 . S
C205 C206 1.430 . S
C205 C207 1.404 . S
C205 C234 1.387 . S
C206 C198 1.448 . S
C206 N203 1.351 . S
C206 C205 1.430 . S
C207 H196 0.930 . S
C207 C205 1.404 . S
C207 C208 1.366 . S
C208 H187 0.930 . S
C208 C204 1.416 . S
C208 C207 1.366 . S
H209 C202 0.929 . S
H210 C233 0.931 . S
H211 C234 0.931 . S
O212 Eu168 2.462 . S
O212 C232 1.252 . S
O213 Eu168 2.373 . S
O213 C224 1.249 . S
O214 Eu179 2.335 1_556 S
O214 C224 1.264 . S
O215 Eu168 2.432 . S
O215 C232 1.268 . S
O216 Eu168 2.291 . S
O216 C231 1.255 . S
O217 Eu179 2.372 1_556 S
O217 C231 1.257 . S
O218 Eu179 2.462 . S
O218 C243 1.252 . S
O219 Eu179 2.373 . S
O219 C235 1.249 . S
O220 Eu168 2.335 . S
O220 C235 1.264 1_556 S
O221 Eu179 2.432 . S
O221 C243 1.268 . S
O222 Eu179 2.291 . S
O222 C242 1.255 . S
O223 Eu168 2.372 1_554 S
O223 C242 1.257 . S
C224 O213 1.249 . S
C224 O214 1.264 . S
C225 C228 1.382 . S
C225 C230 1.390 . S
C225 C232 1.506 . S
C226 C227 1.398 . S
C226 C230 1.392 . S
C227 C226 1.398 . S
C227 C229 1.372 . S
C227 H244 0.931 . S
C228 C225 1.382 . S
C228 C229 1.390 . S
C228 H245 0.931 . S
C229 C227 1.372 . S
C229 C228 1.390 . S
C229 H246 0.929 . S
C230 C225 1.390 . S
C230 C226 1.392 . S
C230 H247 0.930 . S
C231 O216 1.255 . S
C231 O217 1.257 . S
C232 Eu168 2.787 . S
C232 O212 1.252 . S
C232 O215 1.268 . S
C232 C225 1.506 . S
C233 C200 1.439 . S
C233 H210 0.931 . S
C233 C234 1.374 . S
C234 C205 1.387 . S
C234 H211 0.931 . S
C234 C233 1.374 . S
C235 O219 1.249 . S
C235 O220 1.264 1_554 S
C236 C239 1.382 . S
C236 C240 1.390 . S
C236 C243 1.506 . S
C237 C238 1.398 . S
C237 C240 1.392 . S
C238 C237 1.398 . S
C238 C241 1.372 . S
C238 H248 0.931 . S
C239 C236 1.382 . S
C239 C241 1.390 . S
C239 H249 0.931 . S
C240 C236 1.390 . S
C240 C237 1.392 . S
C240 H250 0.930 . S
C241 C238 1.372 . S
C241 C239 1.390 . S
C241 H251 0.929 . S
C242 O222 1.255 . S
C242 O223 1.257 . S
C243 Eu179 2.787 . S
C243 O218 1.252 . S
C243 O221 1.268 . S
C243 C236 1.506 . S
H244 C227 0.931 . S
H245 C228 0.931 . S
H246 C229 0.929 . S
H247 C230 0.930 . S
H248 C238 0.931 . S
H249 C239 0.931 . S
H250 C240 0.930 . S
H251 C241 0.929 . S
Eu252 N281 2.600 . S
Eu252 N287 2.562 . S
Eu252 O296 2.462 . S
Eu252 O297 2.373 . S
Eu252 O299 2.432 . S
Eu252 O300 2.291 . S
Eu252 O304 2.335 . S
Eu252 O307 2.372 . S
Eu252 C316 2.787 . S
C253 N254 1.365 . S
C253 C256 1.405 . S
C253 C260 1.448 . S
N254 C253 1.365 . S
N254 C257 1.319 . S
N254 Eu263 2.600 . S
C255 C257 1.397 . S
C255 C258 1.367 . S
C255 H275 0.931 . S
C256 C253 1.405 . S
C256 C258 1.403 . S
C256 C262 1.439 . S
C257 N254 1.319 . S
C257 C255 1.397 . S
C257 H268 0.930 . S
C258 C255 1.367 . S
C258 C256 1.403 . S
C258 H279 0.929 . S
C259 C260 1.430 . S
C259 C261 1.387 . S
C259 C265 1.404 . S
C260 C253 1.448 . S
C260 C259 1.430 . S
C260 N264 1.351 . S
C261 C259 1.387 . S
C261 C262 1.374 . S
C261 H276 0.931 . S
C262 C256 1.439 . S
C262 C261 1.374 . S
C262 H277 0.931 . S
Eu263 N254 2.600 . S
Eu263 N264 2.562 . S
Eu263 O298 2.335 . S
Eu263 O301 2.372 . S
Eu263 O302 2.462 . S
Eu263 O303 2.373 . S
Eu263 O305 2.432 . S
Eu263 O306 2.291 . S
Eu263 C327 2.787 . S
N264 C260 1.351 . S
N264 Eu263 2.562 . S
N264 C266 1.325 . S
C265 C259 1.404 . S
C265 C267 1.366 . S
C265 H273 0.930 . S
C266 N264 1.325 . S
C266 C267 1.416 . S
C266 H272 0.929 . S
C267 C265 1.366 . S
C267 C266 1.416 . S
C267 H269 0.930 . S
H268 C257 0.930 . S
H269 C267 0.930 . S
H270 C285 0.930 . S
H271 C292 0.930 . S
H272 C266 0.929 . S
H273 C265 0.930 . S
H274 C288 0.929 . S
H275 C255 0.931 . S
H276 C261 0.931 . S
H277 C262 0.931 . S
H278 C283 0.931 . S
H279 C258 0.929 . S
H280 C291 0.930 . S
N281 Eu252 2.600 . S
N281 C282 1.365 . S
N281 C285 1.319 . S
C282 N281 1.365 . S
C282 C284 1.405 1_545 S
C282 C290 1.448 . S
C283 H278 0.931 . S
C283 C285 1.397 1_565 S
C283 C286 1.367 . S
C284 C282 1.405 1_565 S
C284 C286 1.403 . S
C284 C317 1.439 . S
C285 H270 0.930 . S
C285 N281 1.319 . S
C285 C283 1.397 1_545 S
C286 C283 1.367 . S
C286 C284 1.403 . S
C286 H293 0.929 . S
N287 Eu252 2.562 . S
N287 C288 1.325 . S
N287 C290 1.351 . S
C288 H274 0.929 . S
C288 N287 1.325 . S
C288 C292 1.416 . S
C289 C290 1.430 . S
C289 C291 1.404 . S
C289 C318 1.387 1_545 S
C290 C282 1.448 . S
C290 N287 1.351 . S
C290 C289 1.430 . S
C291 H280 0.930 . S
C291 C289 1.404 . S
C291 C292 1.366 . S
C292 H271 0.930 . S
C292 C288 1.416 . S
C292 C291 1.366 . S
H293 C286 0.929 . S
H294 C317 0.931 . S
H295 C318 0.931 . S
O296 Eu252 2.462 . S
O296 C316 1.252 . S
O297 Eu252 2.373 . S
O297 C308 1.249 . S
O298 Eu263 2.335 . S
O298 C308 1.264 . S
O299 Eu252 2.432 . S
O299 C316 1.268 . S
O300 Eu252 2.291 . S
O300 C315 1.255 . S
O301 Eu263 2.372 . S
O301 C315 1.257 . S
O302 Eu263 2.462 . S
O302 C327 1.252 . S
O303 Eu263 2.373 . S
O303 C319 1.249 . S
O304 Eu252 2.335 . S
O304 C319 1.264 . S
O305 Eu263 2.432 . S
O305 C327 1.268 . S
O306 Eu263 2.291 . S
O306 C326 1.255 . S
O307 Eu252 2.372 . S
O307 C326 1.257 . S
C308 O297 1.249 . S
C308 O298 1.264 . S
C309 C312 1.382 . S
C309 C314 1.390 . S
C309 C316 1.506 . S
C310 C311 1.398 . S
C310 C314 1.392 . S
C311 C310 1.398 . S
C311 C313 1.372 . S
C311 H328 0.931 . S
C312 C309 1.382 . S
C312 C313 1.390 . S
C312 H329 0.931 . S
C313 C311 1.372 . S
C313 C312 1.390 . S
C313 H330 0.929 . S
C314 C309 1.390 . S
C314 C310 1.392 . S
C314 H331 0.930 . S
C315 O300 1.255 . S
C315 O301 1.257 . S
C316 Eu252 2.787 . S
C316 O296 1.252 . S
C316 O299 1.268 . S
C316 C309 1.506 . S
C317 C284 1.439 . S
C317 H294 0.931 . S
C317 C318 1.374 . S
C318 C289 1.387 1_565 S
C318 H295 0.931 . S
C318 C317 1.374 . S
C319 O303 1.249 . S
C319 O304 1.264 . S
C320 C323 1.382 . S
C320 C324 1.390 . S
C320 C327 1.506 . S
C321 C322 1.398 . S
C321 C324 1.392 . S
C322 C321 1.398 . S
C322 C325 1.372 . S
C322 H332 0.931 . S
C323 C320 1.382 . S
C323 C325 1.390 . S
C323 H333 0.931 . S
C324 C320 1.390 . S
C324 C321 1.392 . S
C324 H334 0.930 . S
C325 C322 1.372 . S
C325 C323 1.390 . S
C325 H335 0.929 . S
C326 O306 1.255 . S
C326 O307 1.257 . S
C327 Eu263 2.787 . S
C327 O302 1.252 . S
C327 O305 1.268 . S
C327 C320 1.506 . S
H328 C311 0.931 . S
H329 C312 0.931 . S
H330 C313 0.929 . S
H331 C314 0.930 . S
H332 C322 0.931 . S
H333 C323 0.931 . S
H334 C324 0.930 . S
H335 C325 0.929 . S
Eu336 N365 2.600 . S
Eu336 N371 2.562 . S
Eu336 O380 2.462 . S
Eu336 O381 2.373 . S
Eu336 O383 2.432 . S
Eu336 O384 2.291 . S
Eu336 O388 2.335 . S
Eu336 O391 2.372 . S
Eu336 C400 2.787 . S
C337 N338 1.365 . S
C337 C340 1.405 . S
C337 C344 1.448 . S
N338 C337 1.365 . S
N338 C341 1.319 . S
N338 Eu347 2.600 . S
C339 C341 1.397 . S
C339 C342 1.367 . S
C339 H359 0.931 . S
C340 C337 1.405 . S
C340 C342 1.403 . S
C340 C346 1.439 . S
C341 N338 1.319 . S
C341 C339 1.397 . S
C341 H352 0.930 . S
C342 C339 1.367 . S
C342 C340 1.403 . S
C342 H363 0.929 . S
C343 C344 1.430 . S
C343 C345 1.387 . S
C343 C349 1.404 . S
C344 C337 1.448 . S
C344 C343 1.430 . S
C344 N348 1.351 . S
C345 C343 1.387 . S
C345 C346 1.374 . S
C345 H360 0.931 . S
C346 C340 1.439 . S
C346 C345 1.374 . S
C346 H361 0.931 . S
Eu347 N338 2.600 . S
Eu347 N348 2.562 . S
Eu347 O382 2.335 . S
Eu347 O385 2.372 . S
Eu347 O386 2.462 . S
Eu347 O387 2.373 . S
Eu347 O389 2.432 . S
Eu347 O390 2.291 . S
Eu347 C411 2.787 . S
N348 C344 1.351 . S
N348 Eu347 2.562 . S
N348 C350 1.325 . S
C349 C343 1.404 . S
C349 C351 1.366 . S
C349 H357 0.930 . S
C350 N348 1.325 . S
C350 C351 1.416 . S
C350 H356 0.929 . S
C351 C349 1.366 . S
C351 C350 1.416 . S
C351 H353 0.930 . S
H352 C341 0.930 . S
H353 C351 0.930 . S
H354 C369 0.930 . S
H355 C376 0.930 . S
H356 C350 0.929 . S
H357 C349 0.930 . S
H358 C372 0.929 . S
H359 C339 0.931 . S
H360 C345 0.931 . S
H361 C346 0.931 . S
H362 C367 0.931 . S
H363 C342 0.929 . S
H364 C375 0.930 . S
N365 Eu336 2.600 . S
N365 C366 1.365 . S
N365 C369 1.319 . S
C366 N365 1.365 . S
C366 C368 1.405 . S
C366 C374 1.448 . S
C367 H362 0.931 . S
C367 C369 1.397 . S
C367 C370 1.367 . S
C368 C366 1.405 . S
C368 C370 1.403 . S
C368 C401 1.439 . S
C369 H354 0.930 . S
C369 N365 1.319 . S
C369 C367 1.397 . S
C370 C367 1.367 . S
C370 C368 1.403 . S
C370 H377 0.929 . S
N371 Eu336 2.562 . S
N371 C372 1.325 . S
N371 C374 1.351 . S
C372 H358 0.929 . S
C372 N371 1.325 . S
C372 C376 1.416 . S
C373 C374 1.430 . S
C373 C375 1.404 . S
C373 C402 1.387 . S
C374 C366 1.448 . S
C374 N371 1.351 . S
C374 C373 1.430 . S
C375 H364 0.930 . S
C375 C373 1.404 . S
C375 C376 1.366 . S
C376 H355 0.930 . S
C376 C372 1.416 . S
C376 C375 1.366 . S
H377 C370 0.929 . S
H378 C401 0.931 . S
H379 C402 0.931 . S
O380 Eu336 2.462 . S
O380 C400 1.252 . S
O381 Eu336 2.373 . S
O381 C392 1.249 . S
O382 Eu347 2.335 . S
O382 C392 1.264 . S
O383 Eu336 2.432 . S
O383 C400 1.268 . S
O384 Eu336 2.291 . S
O384 C399 1.255 . S
O385 Eu347 2.372 . S
O385 C399 1.257 . S
O386 Eu347 2.462 . S
O386 C411 1.252 . S
O387 Eu347 2.373 . S
O387 C403 1.249 . S
O388 Eu336 2.335 . S
O388 C403 1.264 . S
O389 Eu347 2.432 . S
O389 C411 1.268 . S
O390 Eu347 2.291 . S
O390 C410 1.255 . S
O391 Eu336 2.372 . S
O391 C410 1.257 . S
C392 O381 1.249 . S
C392 O382 1.264 . S
C393 C396 1.382 . S
C393 C398 1.390 . S
C393 C400 1.506 . S
C394 C395 1.398 . S
C394 C398 1.392 . S
C395 C394 1.398 . S
C395 C397 1.372 . S
C395 H412 0.931 . S
C396 C393 1.382 . S
C396 C397 1.390 . S
C396 H413 0.931 . S
C397 C395 1.372 . S
C397 C396 1.390 . S
C397 H414 0.929 . S
C398 C393 1.390 . S
C398 C394 1.392 . S
C398 H415 0.930 . S
C399 O384 1.255 . S
C399 O385 1.257 . S
C400 Eu336 2.787 . S
C400 O380 1.252 . S
C400 O383 1.268 . S
C400 C393 1.506 . S
C401 C368 1.439 . S
C401 H378 0.931 . S
C401 C402 1.374 . S
C402 C373 1.387 . S
C402 H379 0.931 . S
C402 C401 1.374 . S
C403 O387 1.249 . S
C403 O388 1.264 . S
C404 C407 1.382 . S
C404 C408 1.390 . S
C404 C411 1.506 . S
C405 C406 1.398 . S
C405 C408 1.392 . S
C406 C405 1.398 . S
C406 C409 1.372 . S
C406 H416 0.931 . S
C407 C404 1.382 . S
C407 C409 1.390 . S
C407 H417 0.931 . S
C408 C404 1.390 . S
C408 C405 1.392 . S
C408 H418 0.930 . S
C409 C406 1.372 . S
C409 C407 1.390 . S
C409 H419 0.929 . S
C410 O390 1.255 . S
C410 O391 1.257 . S
C411 Eu347 2.787 . S
C411 O386 1.252 . S
C411 O389 1.268 . S
C411 C404 1.506 . S
H412 C395 0.931 . S
H413 C396 0.931 . S
H414 C397 0.929 . S
H415 C398 0.930 . S
H416 C406 0.931 . S
H417 C407 0.931 . S
H418 C408 0.930 . S
H419 C409 0.929 . S
Eu420 N449 2.600 . S
Eu420 N455 2.562 . S
Eu420 O464 2.462 . S
Eu420 O465 2.373 1_455 S
Eu420 O467 2.432 . S
Eu420 O468 2.291 1_455 S
Eu420 O472 2.335 . S
Eu420 O475 2.372 . S
Eu420 C484 2.787 . S
C421 N422 1.365 . S
C421 C424 1.405 . S
C421 C428 1.448 . S
N422 C421 1.365 . S
N422 C425 1.319 . S
N422 Eu431 2.600 . S
C423 C425 1.397 . S
C423 C426 1.367 . S
C423 H443 0.931 . S
C424 C421 1.405 . S
C424 C426 1.403 . S
C424 C430 1.439 . S
C425 N422 1.319 . S
C425 C423 1.397 . S
C425 H436 0.930 . S
C426 C423 1.367 . S
C426 C424 1.403 . S
C426 H447 0.929 . S
C427 C428 1.430 . S
C427 C429 1.387 . S
C427 C433 1.404 1_655 S
C428 C421 1.448 . S
C428 C427 1.430 . S
C428 N432 1.351 . S
C429 C427 1.387 . S
C429 C430 1.374 . S
C429 H444 0.931 . S
C430 C424 1.439 . S
C430 C429 1.374 . S
C430 H445 0.931 . S
Eu431 N422 2.600 . S
Eu431 N432 2.562 . S
Eu431 O466 2.335 . S
Eu431 O469 2.372 . S
Eu431 O470 2.462 . S
Eu431 O471 2.373 1_655 S
Eu431 O473 2.432 . S
Eu431 O474 2.307 . S
Eu431 C495 2.787 . S
N432 C428 1.351 . S
N432 Eu431 2.562 . S
N432 C434 1.325 . S
C433 C427 1.404 1_455 S
C433 C435 1.366 . S
C433 H441 0.930 . S
C434 N432 1.325 . S
C434 C435 1.416 1_655 S
C434 H440 0.929 . S
C435 C433 1.366 . S
C435 C434 1.416 1_455 S
C435 H437 0.930 . S
H436 C425 0.930 . S
H437 C435 0.930 . S
H438 C453 0.930 . S
H439 C460 0.930 . S
H440 C434 0.929 . S
H441 C433 0.930 . S
H442 C456 0.929 . S
H443 C423 0.931 . S
H444 C429 0.931 . S
H445 C430 0.931 . S
H446 C451 0.931 . S
H447 C426 0.929 . S
H448 C459 0.930 . S
N449 Eu420 2.600 . S
N449 C450 1.365 . S
N449 C453 1.319 . S
C450 N449 1.365 . S
C450 C452 1.405 . S
C450 C458 1.448 . S
C451 H446 0.931 . S
C451 C453 1.397 . S
C451 C454 1.367 . S
C452 C450 1.405 . S
C452 C454 1.403 . S
C452 C485 1.439 . S
C453 H438 0.930 . S
C453 N449 1.319 . S
C453 C451 1.397 . S
C454 C451 1.367 . S
C454 C452 1.403 . S
C454 H461 0.929 . S
N455 Eu420 2.562 . S
N455 C456 1.325 1_455 S
N455 C458 1.351 . S
C456 H442 0.929 . S
C456 N455 1.325 1_655 S
C456 C460 1.416 . S
C457 C458 1.430 . S
C457 C459 1.404 1_455 S
C457 C486 1.387 . S
C458 C450 1.448 . S
C458 N455 1.351 . S
C458 C457 1.430 . S
C459 H448 0.930 . S
C459 C457 1.404 1_655 S
C459 C460 1.366 . S
C460 H439 0.930 . S
C460 C456 1.416 . S
C460 C459 1.366 . S
H461 C454 0.929 . S
H462 C485 0.931 . S
H463 C486 0.931 1_655 S
O464 Eu420 2.462 . S
O464 C484 1.252 . S
O465 Eu420 2.373 1_655 S
O465 C476 1.249 . S
O466 Eu431 2.335 . S
O466 C476 1.264 . S
O467 Eu420 2.432 . S
O467 C484 1.268 . S
O468 Eu420 2.291 1_655 S
O468 C483 1.255 . S
O469 Eu431 2.372 . S
O469 C483 1.257 . S
O470 Eu431 2.462 . S
O470 C495 1.252 . S
O471 Eu431 2.373 1_455 S
O471 C487 1.249 . S
O472 Eu420 2.335 . S
O472 C487 1.264 . S
O473 Eu431 2.432 . S
O473 C495 1.268 . S
O474 Eu431 2.307 . S
O474 C494 1.241 1_655 S
O475 Eu420 2.372 . S
O475 C494 1.257 . S
C476 O465 1.249 . S
C476 O466 1.264 . S
C477 C480 1.382 . S
C477 C482 1.390 . S
C477 C484 1.506 . S
C478 C479 1.398 . S
C478 C482 1.392 . S
C479 C478 1.398 . S
C479 C481 1.372 . S
C479 H496 0.931 . S
C480 C477 1.382 . S
C480 C481 1.390 . S
C480 H497 0.931 . S
C481 C479 1.372 . S
C481 C480 1.390 . S
C481 H498 0.929 . S
C482 C477 1.390 . S
C482 C478 1.392 . S
C482 H499 0.930 . S
C483 O468 1.255 . S
C483 O469 1.257 . S
C484 Eu420 2.787 . S
C484 O464 1.252 . S
C484 O467 1.268 . S
C484 C477 1.506 . S
C485 C452 1.439 . S
C485 H462 0.931 . S
C485 C486 1.374 . S
C486 C457 1.387 . S
C486 H463 0.931 1_455 S
C486 C485 1.374 . S
C487 O471 1.249 . S
C487 O472 1.264 . S
C488 C491 1.382 . S
C488 C492 1.390 . S
C488 C495 1.506 . S
C489 C490 1.398 . S
C489 C492 1.392 . S
C490 C489 1.398 . S
C490 C493 1.372 . S
C490 H500 0.931 . S
C491 C488 1.382 . S
C491 C493 1.390 . S
C491 H501 0.931 . S
C492 C488 1.390 . S
C492 C489 1.392 . S
C492 H502 0.930 . S
C493 C490 1.372 . S
C493 C491 1.390 . S
C493 H503 0.929 . S
C494 O474 1.241 1_455 S
C494 O475 1.257 . S
C495 Eu431 2.787 . S
C495 O470 1.252 . S
C495 O473 1.268 . S
C495 C488 1.506 . S
H496 C479 0.931 . S
H497 C480 0.931 . S
H498 C481 0.929 . S
H499 C482 0.930 . S
H500 C490 0.931 . S
H501 C491 0.931 . S
H502 C492 0.930 . S
H503 C493 0.929 . S
Eu504 N533 2.600 . S
Eu504 N539 2.562 . S
Eu504 O548 2.462 . S
Eu504 O549 2.373 1_556 S
Eu504 O551 2.432 . S
Eu504 O552 2.291 1_556 S
Eu504 O556 2.335 . S
Eu504 O559 2.372 . S
Eu504 C568 2.787 . S
C505 N506 1.365 . S
C505 C508 1.405 1_655 S
C505 C512 1.448 . S
N506 C505 1.365 . S
N506 C509 1.319 . S
N506 Eu515 2.600 . S
C507 C509 1.397 1_455 S
C507 C510 1.367 . S
C507 H527 0.931 . S
C508 C505 1.405 1_455 S
C508 C510 1.403 . S
C508 C514 1.439 . S
C509 N506 1.319 . S
C509 C507 1.397 1_655 S
C509 H520 0.930 . S
C510 C507 1.367 . S
C510 C508 1.403 . S
C510 H531 0.929 . S
C511 C512 1.430 . S
C511 C513 1.387 1_655 S
C511 C517 1.404 1_554 S
C512 C505 1.448 . S
C512 C511 1.430 . S
C512 N516 1.351 . S
C513 C511 1.387 1_455 S
C513 C514 1.374 . S
C513 H528 0.931 . S
C514 C508 1.439 . S
C514 C513 1.374 . S
C514 H529 0.931 . S
Eu515 N506 2.600 . S
Eu515 N516 2.562 . S
Eu515 O550 2.335 . S
Eu515 O553 2.372 . S
Eu515 O554 2.462 . S
Eu515 O555 2.373 1_554 S
Eu515 O557 2.432 . S
Eu515 O558 2.291 1_554 S
Eu515 C579 2.787 . S
N516 C512 1.351 . S
N516 Eu515 2.562 . S
N516 C518 1.325 . S
C517 C511 1.404 1_556 S
C517 C519 1.366 . S
C517 H525 0.930 . S
C518 N516 1.325 . S
C518 C519 1.416 1_554 S
C518 H524 0.929 . S
C519 C517 1.366 . S
C519 C518 1.416 1_556 S
C519 H521 0.930 . S
H520 C509 0.930 . S
H521 C519 0.930 . S
H522 C537 0.930 . S
H523 C544 0.930 . S
H524 C518 0.929 . S
H525 C517 0.930 . S
H526 C540 0.929 . S
H527 C507 0.931 . S
H528 C513 0.931 . S
H529 C514 0.931 . S
H530 C535 0.931 . S
H531 C510 0.929 . S
H532 C543 0.930 . S
N533 Eu504 2.600 . S
N533 C534 1.365 . S
N533 C537 1.319 . S
C534 N533 1.365 . S
C534 C536 1.405 . S
C534 C542 1.448 . S
C535 H530 0.931 . S
C535 C537 1.397 . S
C535 C538 1.367 . S
C536 C534 1.405 . S
C536 C538 1.403 . S
C536 C569 1.439 . S
C537 H522 0.930 . S
C537 N533 1.319 . S
C537 C535 1.397 . S
C538 C535 1.367 . S
C538 C536 1.403 . S
C538 H545 0.929 . S
N539 Eu504 2.562 . S
N539 C540 1.325 1_556 S
N539 C542 1.351 . S
C540 H526 0.929 . S
C540 N539 1.325 1_554 S
C540 C544 1.416 . S
C541 C542 1.430 . S
C541 C543 1.404 1_556 S
C541 C570 1.387 . S
C542 C534 1.448 . S
C542 N539 1.351 . S
C542 C541 1.430 . S
C543 H532 0.930 . S
C543 C541 1.404 1_554 S
C543 C544 1.366 . S
C544 H523 0.930 . S
C544 C540 1.416 . S
C544 C543 1.366 . S
H545 C538 0.929 . S
H546 C569 0.931 . S
H547 C570 0.931 . S
O548 Eu504 2.462 . S
O548 C568 1.252 . S
O549 Eu504 2.373 1_554 S
O549 C560 1.249 . S
O550 Eu515 2.335 . S
O550 C560 1.264 . S
O551 Eu504 2.432 . S
O551 C568 1.268 . S
O552 Eu504 2.291 1_554 S
O552 C567 1.255 . S
O553 Eu515 2.372 . S
O553 C567 1.257 . S
O554 Eu515 2.462 . S
O554 C579 1.252 . S
O555 Eu515 2.373 1_556 S
O555 C571 1.249 . S
O556 Eu504 2.335 . S
O556 C571 1.264 . S
O557 Eu515 2.432 . S
O557 C579 1.268 . S
O558 Eu515 2.291 1_556 S
O558 C578 1.255 . S
O559 Eu504 2.372 . S
O559 C578 1.257 . S
C560 O549 1.249 . S
C560 O550 1.264 . S
C561 C564 1.382 . S
C561 C566 1.390 . S
C561 C568 1.506 . S
C562 C563 1.398 . S
C562 C566 1.392 . S
C563 C562 1.398 . S
C563 C565 1.372 . S
C563 H580 0.931 . S
C564 C561 1.382 . S
C564 C565 1.390 . S
C564 H581 0.931 . S
C565 C563 1.372 . S
C565 C564 1.390 . S
C565 H582 0.929 . S
C566 C561 1.390 . S
C566 C562 1.392 . S
C566 H583 0.930 . S
C567 O552 1.255 . S
C567 O553 1.257 . S
C568 Eu504 2.787 . S
C568 O548 1.252 . S
C568 O551 1.268 . S
C568 C561 1.506 . S
C569 C536 1.439 . S
C569 H546 0.931 . S
C569 C570 1.374 . S
C570 C541 1.387 . S
C570 H547 0.931 . S
C570 C569 1.374 . S
C571 O555 1.249 . S
C571 O556 1.264 . S
C572 C575 1.382 . S
C572 C576 1.390 . S
C572 C579 1.506 . S
C573 C574 1.398 . S
C573 C576 1.392 . S
C574 C573 1.398 . S
C574 C577 1.372 . S
C574 H584 0.931 . S
C575 C572 1.382 . S
C575 C577 1.390 . S
C575 H585 0.931 . S
C576 C572 1.390 . S
C576 C573 1.392 . S
C576 H586 0.930 . S
C577 C574 1.372 . S
C577 C575 1.390 . S
C577 H587 0.929 . S
C578 O558 1.255 . S
C578 O559 1.257 . S
C579 Eu515 2.787 . S
C579 O554 1.252 . S
C579 O557 1.268 . S
C579 C572 1.506 . S
H580 C563 0.931 . S
H581 C564 0.931 . S
H582 C565 0.929 . S
H583 C566 0.930 . S
H584 C574 0.931 . S
H585 C575 0.931 . S
H586 C576 0.930 . S
H587 C577 0.929 . S
Eu588 N617 2.600 . S
Eu588 N623 2.562 . S
Eu588 O632 2.462 . S
Eu588 O633 2.373 . S
Eu588 O635 2.432 . S
Eu588 O636 2.291 . S
Eu588 O640 2.335 . S
Eu588 O643 2.372 . S
Eu588 C652 2.787 . S
C589 N590 1.365 . S
C589 C592 1.405 . S
C589 C596 1.448 . S
N590 C589 1.365 . S
N590 C593 1.319 . S
N590 Eu599 2.600 . S
C591 C593 1.397 . S
C591 C594 1.367 . S
C591 H611 0.931 . S
C592 C589 1.405 . S
C592 C594 1.403 . S
C592 C598 1.439 . S
C593 N590 1.319 . S
C593 C591 1.397 . S
C593 H604 0.930 . S
C594 C591 1.367 . S
C594 C592 1.403 . S
C594 H615 0.929 . S
C595 C596 1.430 . S
C595 C597 1.387 . S
C595 C601 1.404 . S
C596 C589 1.448 . S
C596 C595 1.430 . S
C596 N600 1.351 . S
C597 C595 1.387 . S
C597 C598 1.374 . S
C597 H612 0.931 . S
C598 C592 1.439 . S
C598 C597 1.374 . S
C598 H613 0.931 . S
Eu599 N590 2.600 . S
Eu599 N600 2.562 . S
Eu599 O634 2.335 . S
Eu599 O637 2.372 . S
Eu599 O638 2.462 . S
Eu599 O639 2.373 . S
Eu599 O641 2.432 . S
Eu599 O642 2.291 . S
Eu599 C663 2.787 . S
N600 C596 1.351 . S
N600 Eu599 2.562 . S
N600 C602 1.325 . S
C601 C595 1.404 . S
C601 C603 1.366 . S
C601 H609 0.930 . S
C602 N600 1.325 . S
C602 C603 1.416 . S
C602 H608 0.929 . S
C603 C601 1.366 . S
C603 C602 1.416 . S
C603 H605 0.930 . S
H604 C593 0.930 . S
H605 C603 0.930 . S
H606 C621 0.930 . S
H607 C628 0.930 . S
H608 C602 0.929 . S
H609 C601 0.930 . S
H610 C624 0.929 . S
H611 C591 0.931 . S
H612 C597 0.931 . S
H613 C598 0.931 . S
H614 C619 0.931 . S
H615 C594 0.929 . S
H616 C627 0.930 . S
N617 Eu588 2.600 . S
N617 C618 1.365 . S
N617 C621 1.319 . S
C618 N617 1.365 . S
C618 C620 1.405 . S
C618 C626 1.448 . S
C619 H614 0.931 . S
C619 C621 1.397 . S
C619 C622 1.367 . S
C620 C618 1.405 . S
C620 C622 1.403 . S
C620 C653 1.439 . S
C621 H606 0.930 . S
C621 N617 1.319 . S
C621 C619 1.397 . S
C622 C619 1.367 . S
C622 C620 1.403 . S
C622 H629 0.929 . S
N623 Eu588 2.562 . S
N623 C624 1.325 . S
N623 C626 1.351 . S
C624 H610 0.929 . S
C624 N623 1.325 . S
C624 C628 1.416 . S
C625 C626 1.430 . S
C625 C627 1.404 . S
C625 C654 1.387 . S
C626 C618 1.448 . S
C626 N623 1.351 . S
C626 C625 1.430 . S
C627 H616 0.930 . S
C627 C625 1.404 . S
C627 C628 1.366 . S
C628 H607 0.930 . S
C628 C624 1.416 . S
C628 C627 1.366 . S
H629 C622 0.929 . S
H630 C653 0.931 . S
H631 C654 0.931 . S
O632 Eu588 2.462 . S
O632 C652 1.252 . S
O633 Eu588 2.373 . S
O633 C644 1.249 . S
O634 Eu599 2.335 . S
O634 C644 1.264 . S
O635 Eu588 2.432 . S
O635 C652 1.268 . S
O636 Eu588 2.291 . S
O636 C651 1.255 . S
O637 Eu599 2.372 . S
O637 C651 1.257 . S
O638 Eu599 2.462 . S
O638 C663 1.252 . S
O639 Eu599 2.373 . S
O639 C655 1.249 . S
O640 Eu588 2.335 . S
O640 C655 1.264 . S
O641 Eu599 2.432 . S
O641 C663 1.268 . S
O642 Eu599 2.291 . S
O642 C662 1.255 . S
O643 Eu588 2.372 . S
O643 C662 1.257 . S
C644 O633 1.249 . S
C644 O634 1.264 . S
C645 C648 1.382 . S
C645 C650 1.390 . S
C645 C652 1.506 . S
C646 C647 1.398 . S
C646 C650 1.392 . S
C647 C646 1.398 . S
C647 C649 1.372 . S
C647 H664 0.931 . S
C648 C645 1.382 . S
C648 C649 1.390 . S
C648 H665 0.931 . S
C649 C647 1.372 . S
C649 C648 1.390 . S
C649 H666 0.929 . S
C650 C645 1.390 . S
C650 C646 1.392 . S
C650 H667 0.930 . S
C651 O636 1.255 . S
C651 O637 1.257 . S
C652 Eu588 2.787 . S
C652 O632 1.252 . S
C652 O635 1.268 . S
C652 C645 1.506 . S
C653 C620 1.439 . S
C653 H630 0.931 . S
C653 C654 1.374 . S
C654 C625 1.387 . S
C654 H631 0.931 . S
C654 C653 1.374 . S
C655 O639 1.249 . S
C655 O640 1.264 . S
C656 C659 1.382 . S
C656 C660 1.390 . S
C656 C663 1.506 . S
C657 C658 1.398 . S
C657 C660 1.392 . S
C658 C657 1.398 . S
C658 C661 1.372 . S
C658 H668 0.931 . S
C659 C656 1.382 . S
C659 C661 1.390 . S
C659 H669 0.931 . S
C660 C656 1.390 . S
C660 C657 1.392 . S
C660 H670 0.930 . S
C661 C658 1.372 . S
C661 C659 1.390 . S
C661 H671 0.929 . S
C662 O642 1.255 . S
C662 O643 1.257 . S
C663 Eu599 2.787 . S
C663 O638 1.252 . S
C663 O641 1.268 . S
C663 C656 1.506 . S
H664 C647 0.931 . S
H665 C648 0.931 . S
H666 C649 0.929 . S
H667 C650 0.930 . S
H668 C658 0.931 . S
H669 C659 0.931 . S
H670 C660 0.930 . S
H671 C661 0.929 . S
Eu672 N701 2.600 . S
Eu672 N707 2.562 . S
Eu672 O716 2.462 . S
Eu672 O717 2.373 . S
Eu672 O719 2.432 . S
Eu672 O720 2.291 . S
Eu672 O724 2.335 . S
Eu672 O727 2.372 . S
Eu672 C736 2.787 . S
C673 N674 1.365 . S
C673 C676 1.405 . S
C673 C680 1.448 . S
N674 C673 1.365 . S
N674 C677 1.319 . S
N674 Eu683 2.600 . S
C675 C677 1.397 . S
C675 C678 1.367 . S
C675 H695 0.931 . S
C676 C673 1.405 . S
C676 C678 1.403 . S
C676 C682 1.439 . S
C677 N674 1.319 . S
C677 C675 1.397 . S
C677 H688 0.930 . S
C678 C675 1.367 . S
C678 C676 1.403 . S
C678 H699 0.929 . S
C679 C680 1.430 . S
C679 C681 1.387 . S
C679 C685 1.404 . S
C680 C673 1.448 . S
C680 C679 1.430 . S
C680 N684 1.351 . S
C681 C679 1.387 . S
C681 C682 1.374 . S
C681 H696 0.931 . S
C682 C676 1.439 . S
C682 C681 1.374 . S
C682 H697 0.931 . S
Eu683 N674 2.600 . S
Eu683 N684 2.562 . S
Eu683 O718 2.335 . S
Eu683 O721 2.372 . S
Eu683 O722 2.462 . S
Eu683 O723 2.373 . S
Eu683 O725 2.432 . S
Eu683 O726 2.291 . S
Eu683 C747 2.787 . S
N684 C680 1.351 . S
N684 Eu683 2.562 . S
N684 C686 1.325 . S
C685 C679 1.404 . S
C685 C687 1.366 . S
C685 H693 0.930 . S
C686 N684 1.325 . S
C686 C687 1.416 . S
C686 H692 0.929 . S
C687 C685 1.366 . S
C687 C686 1.416 . S
C687 H689 0.930 . S
H688 C677 0.930 . S
H689 C687 0.930 . S
H690 C705 0.930 . S
H691 C712 0.930 . S
H692 C686 0.929 . S
H693 C685 0.930 . S
H694 C708 0.929 . S
H695 C675 0.931 . S
H696 C681 0.931 . S
H697 C682 0.931 . S
H698 C703 0.931 . S
H699 C678 0.929 . S
H700 C711 0.930 . S
N701 Eu672 2.600 . S
N701 C702 1.365 . S
N701 C705 1.319 . S
C702 N701 1.365 . S
C702 C704 1.405 1_554 S
C702 C710 1.448 . S
C703 H698 0.931 . S
C703 C705 1.397 1_556 S
C703 C706 1.367 . S
C704 C702 1.405 1_556 S
C704 C706 1.403 . S
C704 C737 1.439 . S
C705 H690 0.930 . S
C705 N701 1.319 . S
C705 C703 1.397 1_554 S
C706 C703 1.367 . S
C706 C704 1.403 . S
C706 H713 0.929 . S
N707 Eu672 2.562 . S
N707 C708 1.325 . S
N707 C710 1.351 . S
C708 H694 0.929 . S
C708 N707 1.325 . S
C708 C712 1.416 . S
C709 C710 1.430 . S
C709 C711 1.404 . S
C709 C738 1.387 1_554 S
C710 C702 1.448 . S
C710 N707 1.351 . S
C710 C709 1.430 . S
C711 H700 0.930 . S
C711 C709 1.404 . S
C711 C712 1.366 . S
C712 H691 0.930 . S
C712 C708 1.416 . S
C712 C711 1.366 . S
H713 C706 0.929 . S
H714 C737 0.931 . S
H715 C738 0.931 . S
O716 Eu672 2.462 . S
O716 C736 1.252 . S
O717 Eu672 2.373 . S
O717 C728 1.249 . S
O718 Eu683 2.335 . S
O718 C728 1.264 . S
O719 Eu672 2.432 . S
O719 C736 1.268 . S
O720 Eu672 2.291 . S
O720 C735 1.255 . S
O721 Eu683 2.372 . S
O721 C735 1.257 . S
O722 Eu683 2.462 . S
O722 C747 1.252 . S
O723 Eu683 2.373 . S
O723 C739 1.249 . S
O724 Eu672 2.335 . S
O724 C739 1.264 . S
O725 Eu683 2.432 . S
O725 C747 1.268 . S
O726 Eu683 2.291 . S
O726 C746 1.255 . S
O727 Eu672 2.372 . S
O727 C746 1.257 . S
C728 O717 1.249 . S
C728 O718 1.264 . S
C729 C732 1.382 . S
C729 C734 1.390 . S
C729 C736 1.506 . S
C730 C731 1.398 . S
C730 C734 1.392 . S
C731 C730 1.398 . S
C731 C733 1.372 . S
C731 H748 0.931 . S
C732 C729 1.382 . S
C732 C733 1.390 . S
C732 H749 0.931 . S
C733 C731 1.372 . S
C733 C732 1.390 . S
C733 H750 0.929 . S
C734 C729 1.390 . S
C734 C730 1.392 . S
C734 H751 0.930 . S
C735 O720 1.255 . S
C735 O721 1.257 . S
C736 Eu672 2.787 . S
C736 O716 1.252 . S
C736 O719 1.268 . S
C736 C729 1.506 . S
C737 C704 1.439 . S
C737 H714 0.931 . S
C737 C738 1.374 . S
C738 C709 1.387 1_556 S
C738 H715 0.931 . S
C738 C737 1.374 . S
C739 O723 1.249 . S
C739 O724 1.264 . S
C740 C743 1.382 . S
C740 C744 1.390 . S
C740 C747 1.506 . S
C741 C742 1.398 . S
C741 C744 1.392 . S
C742 C741 1.398 . S
C742 C745 1.372 . S
C742 H752 0.931 . S
C743 C740 1.382 . S
C743 C745 1.390 . S
C743 H753 0.931 . S
C744 C740 1.390 . S
C744 C741 1.392 . S
C744 H754 0.930 . S
C745 C742 1.372 . S
C745 C743 1.390 . S
C745 H755 0.929 . S
C746 O726 1.255 . S
C746 O727 1.257 . S
C747 Eu683 2.787 . S
C747 O722 1.252 . S
C747 O725 1.268 . S
C747 C740 1.506 . S
H748 C731 0.931 . S
H749 C732 0.931 . S
H750 C733 0.929 . S
H751 C734 0.930 . S
H752 C742 0.931 . S
H753 C743 0.931 . S
H754 C744 0.930 . S
H755 C745 0.929 . S
Eu756 N785 2.600 . S
Eu756 N791 2.562 . S
Eu756 O800 2.462 . S
Eu756 O801 2.373 . S
Eu756 O803 2.432 . S
Eu756 O804 2.291 . S
Eu756 O808 2.335 . S
Eu756 O811 2.372 1_545 S
Eu756 C820 2.787 . S
C757 N758 1.365 . S
C757 C760 1.405 . S
C757 C764 1.448 . S
N758 C757 1.365 . S
N758 C761 1.319 . S
N758 Eu767 2.600 . S
C759 C761 1.397 . S
C759 C762 1.367 . S
C759 H779 0.931 . S
C760 C757 1.405 . S
C760 C762 1.403 . S
C760 C766 1.439 . S
C761 N758 1.319 . S
C761 C759 1.397 . S
C761 H772 0.930 . S
C762 C759 1.367 . S
C762 C760 1.403 . S
C762 H783 0.929 . S
C763 C764 1.430 . S
C763 C765 1.387 . S
C763 C769 1.404 . S
C764 C757 1.448 . S
C764 C763 1.430 . S
C764 N768 1.351 . S
C765 C763 1.387 . S
C765 C766 1.374 . S
C765 H780 0.931 . S
C766 C760 1.439 . S
C766 C765 1.374 . S
C766 H781 0.931 . S
Eu767 N758 2.600 . S
Eu767 N768 2.562 . S
Eu767 O802 2.335 . S
Eu767 O805 2.372 1_565 S
Eu767 O806 2.462 . S
Eu767 O807 2.373 . S
Eu767 O809 2.432 . S
Eu767 O810 2.291 . S
Eu767 C831 2.787 . S
N768 C764 1.351 . S
N768 Eu767 2.562 . S
N768 C770 1.325 . S
C769 C763 1.404 . S
C769 C771 1.366 . S
C769 H777 0.930 . S
C770 N768 1.325 . S
C770 C771 1.416 . S
C770 H776 0.929 . S
C771 C769 1.366 . S
C771 C770 1.416 . S
C771 H773 0.930 . S
H772 C761 0.930 . S
H773 C771 0.930 . S
H774 C789 0.930 . S
H775 C796 0.930 . S
H776 C770 0.929 . S
H777 C769 0.930 . S
H778 C792 0.929 . S
H779 C759 0.931 . S
H780 C765 0.931 . S
H781 C766 0.931 . S
H782 C787 0.931 . S
H783 C762 0.929 . S
H784 C795 0.930 . S
N785 Eu756 2.600 . S
N785 C786 1.365 . S
N785 C789 1.319 . S
C786 N785 1.365 . S
C786 C788 1.405 1_556 S
C786 C794 1.448 . S
C787 H782 0.931 . S
C787 C789 1.397 1_554 S
C787 C790 1.367 . S
C788 C786 1.405 1_554 S
C788 C790 1.403 . S
C788 C821 1.439 . S
C789 H774 0.930 . S
C789 N785 1.319 . S
C789 C787 1.397 1_556 S
C790 C787 1.367 . S
C790 C788 1.403 . S
C790 H797 0.929 . S
N791 Eu756 2.562 . S
N791 C792 1.325 . S
N791 C794 1.351 . S
C792 H778 0.929 . S
C792 N791 1.325 . S
C792 C796 1.416 . S
C793 C794 1.430 . S
C793 C795 1.404 . S
C793 C822 1.387 1_556 S
C794 C786 1.448 . S
C794 N791 1.351 . S
C794 C793 1.430 . S
C795 H784 0.930 . S
C795 C793 1.404 . S
C795 C796 1.366 . S
C796 H775 0.930 . S
C796 C792 1.416 . S
C796 C795 1.366 . S
H797 C790 0.929 . S
H798 C821 0.931 . S
H799 C822 0.931 . S
O800 Eu756 2.462 . S
O800 C820 1.252 . S
O801 Eu756 2.373 . S
O801 C812 1.249 . S
O802 Eu767 2.335 . S
O802 C812 1.264 1_565 S
O803 Eu756 2.432 . S
O803 C820 1.268 . S
O804 Eu756 2.291 . S
O804 C819 1.255 . S
O805 Eu767 2.372 1_545 S
O805 C819 1.257 . S
O806 Eu767 2.462 . S
O806 C831 1.252 . S
O807 Eu767 2.373 . S
O807 C823 1.249 . S
O808 Eu756 2.335 . S
O808 C823 1.264 1_545 S
O809 Eu767 2.432 . S
O809 C831 1.268 . S
O810 Eu767 2.291 . S
O810 C830 1.255 . S
O811 Eu756 2.372 1_565 S
O811 C830 1.257 . S
C812 O801 1.249 . S
C812 O802 1.264 1_545 S
C813 C816 1.382 . S
C813 C818 1.390 . S
C813 C820 1.506 . S
C814 C815 1.398 . S
C814 C818 1.392 . S
C815 C814 1.398 . S
C815 C817 1.372 . S
C815 H832 0.931 . S
C816 C813 1.382 . S
C816 C817 1.390 . S
C816 H833 0.931 . S
C817 C815 1.372 . S
C817 C816 1.390 . S
C817 H834 0.929 . S
C818 C813 1.390 . S
C818 C814 1.392 . S
C818 H835 0.930 . S
C819 O804 1.255 . S
C819 O805 1.257 . S
C820 Eu756 2.787 . S
C820 O800 1.252 . S
C820 O803 1.268 . S
C820 C813 1.506 . S
C821 C788 1.439 . S
C821 H798 0.931 . S
C821 C822 1.374 . S
C822 C793 1.387 1_554 S
C822 H799 0.931 . S
C822 C821 1.374 . S
C823 O807 1.249 . S
C823 O808 1.264 1_565 S
C824 C827 1.382 . S
C824 C828 1.390 . S
C824 C831 1.506 . S
C825 C826 1.398 . S
C825 C828 1.392 . S
C826 C825 1.398 . S
C826 C829 1.372 . S
C826 H836 0.931 . S
C827 C824 1.382 . S
C827 C829 1.390 . S
C827 H837 0.931 . S
C828 C824 1.390 . S
C828 C825 1.392 . S
C828 H838 0.930 . S
C829 C826 1.372 . S
C829 C827 1.390 . S
C829 H839 0.929 . S
C830 O810 1.255 . S
C830 O811 1.257 . S
C831 Eu767 2.787 . S
C831 O806 1.252 . S
C831 O809 1.268 . S
C831 C824 1.506 . S
H832 C815 0.931 . S
H833 C816 0.931 . S
H834 C817 0.929 . S
H835 C818 0.930 . S
H836 C826 0.931 . S
H837 C827 0.931 . S
H838 C828 0.930 . S
H839 C829 0.929 . S
Eu840 N869 2.600 . S
Eu840 N875 2.562 . S
Eu840 O884 2.462 . S
Eu840 O885 2.373 . S
Eu840 O887 2.432 . S
Eu840 O888 2.291 . S
Eu840 O892 2.335 . S
Eu840 O895 2.372 1_565 S
Eu840 C904 2.787 . S
C841 N842 1.365 . S
C841 C844 1.405 . S
C841 C848 1.448 . S
N842 C841 1.365 . S
N842 C845 1.319 . S
N842 Eu851 2.600 . S
C843 C845 1.397 . S
C843 C846 1.367 . S
C843 H863 0.931 . S
C844 C841 1.405 . S
C844 C846 1.403 . S
C844 C850 1.439 . S
C845 N842 1.319 . S
C845 C843 1.397 . S
C845 H856 0.930 . S
C846 C843 1.367 . S
C846 C844 1.403 . S
C846 H867 0.929 . S
C847 C848 1.430 . S
C847 C849 1.387 . S
C847 C853 1.404 . S
C848 C841 1.448 . S
C848 C847 1.430 . S
C848 N852 1.351 . S
C849 C847 1.387 . S
C849 C850 1.374 . S
C849 H864 0.931 . S
C850 C844 1.439 . S
C850 C849 1.374 . S
C850 H865 0.931 . S
Eu851 N842 2.600 . S
Eu851 N852 2.562 . S
Eu851 O886 2.335 1_545 S
Eu851 O889 2.372 1_545 S
Eu851 O890 2.462 . S
Eu851 O891 2.373 . S
Eu851 O893 2.432 . S
Eu851 O894 2.291 . S
Eu851 C915 2.787 . S
N852 C848 1.351 . S
N852 Eu851 2.562 . S
N852 C854 1.325 . S
C853 C847 1.404 . S
C853 C855 1.366 . S
C853 H861 0.930 . S
C854 N852 1.325 . S
C854 C855 1.416 . S
C854 H860 0.929 . S
C855 C853 1.366 . S
C855 C854 1.416 . S
C855 H857 0.930 . S
H856 C845 0.930 . S
H857 C855 0.930 . S
H858 C873 0.930 . S
H859 C880 0.930 . S
H860 C854 0.929 . S
H861 C853 0.930 . S
H862 C876 0.929 . S
H863 C843 0.931 . S
H864 C849 0.931 . S
H865 C850 0.931 . S
H866 C871 0.931 . S
H867 C846 0.929 . S
H868 C879 0.930 . S
N869 Eu840 2.600 . S
N869 C870 1.365 . S
N869 C873 1.319 . S
C870 N869 1.365 . S
C870 C872 1.405 . S
C870 C878 1.448 . S
C871 H866 0.931 . S
C871 C873 1.397 . S
C871 C874 1.367 . S
C872 C870 1.405 . S
C872 C874 1.403 . S
C872 C905 1.439 . S
C873 H858 0.930 . S
C873 N869 1.319 . S
C873 C871 1.397 . S
C874 C871 1.367 . S
C874 C872 1.403 . S
C874 H881 0.929 . S
N875 Eu840 2.562 . S
N875 C876 1.325 . S
N875 C878 1.351 . S
C876 H862 0.929 . S
C876 N875 1.325 . S
C876 C880 1.416 . S
C877 C878 1.430 . S
C877 C879 1.404 . S
C877 C906 1.387 . S
C878 C870 1.448 . S
C878 N875 1.351 . S
C878 C877 1.430 . S
C879 H868 0.930 . S
C879 C877 1.404 . S
C879 C880 1.366 . S
C880 H859 0.930 . S
C880 C876 1.416 . S
C880 C879 1.366 . S
H881 C874 0.929 . S
H882 C905 0.931 . S
H883 C906 0.931 . S
O884 Eu840 2.462 . S
O884 C904 1.252 . S
O885 Eu840 2.373 . S
O885 C896 1.249 . S
O886 Eu851 2.335 1_565 S
O886 C896 1.264 . S
O887 Eu840 2.432 . S
O887 C904 1.268 . S
O888 Eu840 2.291 . S
O888 C903 1.255 . S
O889 Eu851 2.372 1_565 S
O889 C903 1.257 . S
O890 Eu851 2.462 . S
O890 C915 1.252 . S
O891 Eu851 2.373 . S
O891 C907 1.249 . S
O892 Eu840 2.335 . S
O892 C907 1.264 1_565 S
O893 Eu851 2.432 . S
O893 C915 1.268 . S
O894 Eu851 2.291 . S
O894 C914 1.255 . S
O895 Eu840 2.372 1_545 S
O895 C914 1.257 . S
C896 O885 1.249 . S
C896 O886 1.264 . S
C897 C900 1.382 . S
C897 C902 1.390 . S
C897 C904 1.506 . S
C898 C899 1.398 . S
C898 C902 1.392 . S
C899 C898 1.398 . S
C899 C901 1.372 . S
C899 H916 0.931 . S
C900 C897 1.382 . S
C900 C901 1.390 . S
C900 H917 0.931 . S
C901 C899 1.372 . S
C901 C900 1.390 . S
C901 H918 0.929 . S
C902 C897 1.390 . S
C902 C898 1.392 . S
C902 H919 0.930 . S
C903 O888 1.255 . S
C903 O889 1.257 . S
C904 Eu840 2.787 . S
C904 O884 1.252 . S
C904 O887 1.268 . S
C904 C897 1.506 . S
C905 C872 1.439 . S
C905 H882 0.931 . S
C905 C906 1.374 . S
C906 C877 1.387 . S
C906 H883 0.931 . S
C906 C905 1.374 . S
C907 O891 1.249 . S
C907 O892 1.264 1_545 S
C908 C911 1.382 . S
C908 C912 1.390 . S
C908 C915 1.506 . S
C909 C910 1.398 . S
C909 C912 1.392 . S
C910 C909 1.398 . S
C910 C913 1.372 . S
C910 H920 0.931 . S
C911 C908 1.382 . S
C911 C913 1.390 . S
C911 H921 0.931 . S
C912 C908 1.390 . S
C912 C909 1.392 . S
C912 H922 0.930 . S
C913 C910 1.372 . S
C913 C911 1.390 . S
C913 H923 0.929 . S
C914 O894 1.255 . S
C914 O895 1.257 . S
C915 Eu851 2.787 . S
C915 O890 1.252 . S
C915 O893 1.268 . S
C915 C908 1.506 . S
H916 C899 0.931 . S
H917 C900 0.931 . S
H918 C901 0.929 . S
H919 C902 0.930 . S
H920 C910 0.931 . S
H921 C911 0.931 . S
H922 C912 0.930 . S
H923 C913 0.929 . S
Eu924 N953 2.600 . S
Eu924 N959 2.562 . S
Eu924 O968 2.462 . S
Eu924 O969 2.373 . S
Eu924 O971 2.432 . S
Eu924 O972 2.291 . S
Eu924 O976 2.335 . S
Eu924 O979 2.372 . S
Eu924 C988 2.787 . S
C925 N926 1.365 . S
C925 C928 1.405 . S
C925 C932 1.448 . S
N926 C925 1.365 . S
N926 C929 1.319 . S
N926 Eu935 2.600 . S
C927 C929 1.397 . S
C927 C930 1.367 . S
C927 H947 0.931 . S
C928 C925 1.405 . S
C928 C930 1.403 . S
C928 C934 1.439 . S
C929 N926 1.319 . S
C929 C927 1.397 . S
C929 H940 0.930 . S
C930 C927 1.367 . S
C930 C928 1.403 . S
C930 H951 0.929 . S
C931 C932 1.430 . S
C931 C933 1.387 . S
C931 C937 1.404 . S
C932 C925 1.448 . S
C932 C931 1.430 . S
C932 N936 1.351 . S
C933 C931 1.387 . S
C933 C934 1.374 . S
C933 H948 0.931 . S
C934 C928 1.439 . S
C934 C933 1.374 . S
C934 H949 0.931 . S
Eu935 N926 2.600 . S
Eu935 N936 2.562 . S
Eu935 O970 2.335 . S
Eu935 O973 2.372 . S
Eu935 O974 2.462 . S
Eu935 O975 2.373 . S
Eu935 O977 2.432 . S
Eu935 O978 2.291 . S
Eu935 C999 2.787 . S
N936 C932 1.351 . S
N936 Eu935 2.562 . S
N936 C938 1.325 . S
C937 C931 1.404 . S
C937 C939 1.366 . S
C937 H945 0.930 . S
C938 N936 1.325 . S
C938 C939 1.416 . S
C938 H944 0.929 . S
C939 C937 1.366 . S
C939 C938 1.416 . S
C939 H941 0.930 . S
H940 C929 0.930 . S
H941 C939 0.930 . S
H942 C957 0.930 . S
H943 C964 0.930 . S
H944 C938 0.929 . S
H945 C937 0.930 . S
H946 C960 0.929 . S
H947 C927 0.931 . S
H948 C933 0.931 . S
H949 C934 0.931 . S
H950 C955 0.931 . S
H951 C930 0.929 . S
H952 C963 0.930 . S
N953 Eu924 2.600 . S
N953 C954 1.365 . S
N953 C957 1.319 . S
C954 N953 1.365 . S
C954 C956 1.405 . S
C954 C962 1.448 . S
C955 H950 0.931 . S
C955 C957 1.397 . S
C955 C958 1.367 . S
C956 C954 1.405 . S
C956 C958 1.403 . S
C956 C989 1.439 . S
C957 H942 0.930 . S
C957 N953 1.319 . S
C957 C955 1.397 . S
C958 C955 1.367 . S
C958 C956 1.403 . S
C958 H965 0.929 . S
N959 Eu924 2.562 . S
N959 C960 1.325 . S
N959 C962 1.351 . S
C960 H946 0.929 . S
C960 N959 1.325 . S
C960 C964 1.416 . S
C961 C962 1.430 . S
C961 C963 1.404 . S
C961 C990 1.387 . S
C962 C954 1.448 . S
C962 N959 1.351 . S
C962 C961 1.430 . S
C963 H952 0.930 . S
C963 C961 1.404 . S
C963 C964 1.366 . S
C964 H943 0.930 . S
C964 C960 1.416 . S
C964 C963 1.366 . S
H965 C958 0.929 . S
H966 C989 0.931 . S
H967 C990 0.931 . S
O968 Eu924 2.462 . S
O968 C988 1.252 . S
O969 Eu924 2.373 . S
O969 C980 1.249 . S
O970 Eu935 2.335 . S
O970 C980 1.264 . S
O971 Eu924 2.432 . S
O971 C988 1.268 . S
O972 Eu924 2.291 . S
O972 C987 1.255 . S
O973 Eu935 2.372 . S
O973 C987 1.257 . S
O974 Eu935 2.462 . S
O974 C999 1.252 . S
O975 Eu935 2.373 . S
O975 C991 1.249 . S
O976 Eu924 2.335 . S
O976 C991 1.264 . S
O977 Eu935 2.432 . S
O977 C999 1.268 . S
O978 Eu935 2.291 . S
O978 C998 1.255 . S
O979 Eu924 2.372 . S
O979 C998 1.257 . S
C980 O969 1.249 . S
C980 O970 1.264 . S
C981 C984 1.382 . S
C981 C986 1.390 . S
C981 C988 1.506 . S
C982 C983 1.398 . S
C982 C986 1.392 . S
C983 C982 1.398 . S
C983 C985 1.372 . S
C983 H1000 0.931 . S
C984 C981 1.382 . S
C984 C985 1.390 . S
C984 H1001 0.931 . S
C985 C983 1.372 . S
C985 C984 1.390 . S
C985 H1002 0.929 . S
C986 C981 1.390 . S
C986 C982 1.392 . S
C986 H1003 0.930 . S
C987 O972 1.255 . S
C987 O973 1.257 . S
C988 Eu924 2.787 . S
C988 O968 1.252 . S
C988 O971 1.268 . S
C988 C981 1.506 . S
C989 C956 1.439 . S
C989 H966 0.931 . S
C989 C990 1.374 . S
C990 C961 1.387 . S
C990 H967 0.931 . S
C990 C989 1.374 . S
C991 O975 1.249 . S
C991 O976 1.264 . S
C992 C995 1.382 . S
C992 C996 1.390 . S
C992 C999 1.506 . S
C993 C994 1.398 . S
C993 C996 1.392 . S
C994 C993 1.398 . S
C994 C997 1.372 . S
C994 H1004 0.931 . S
C995 C992 1.382 . S
C995 C997 1.390 . S
C995 H1005 0.931 . S
C996 C992 1.390 . S
C996 C993 1.392 . S
C996 H1006 0.930 . S
C997 C994 1.372 . S
C997 C995 1.390 . S
C997 H1007 0.929 . S
C998 O978 1.255 . S
C998 O979 1.257 . S
C999 Eu935 2.787 . S
C999 O974 1.252 . S
C999 O977 1.268 . S
C999 C992 1.506 . S
H1000 C983 0.931 . S
H1001 C984 0.931 . S
H1002 C985 0.929 . S
H1003 C986 0.930 . S
H1004 C994 0.931 . S
H1005 C995 0.931 . S
H1006 C996 0.930 . S
H1007 C997 0.929 . S
C1008 C1009 1.387 . S
C1008 H1012 0.950 . S
C1008 C1017 1.390 . S
C1009 C1008 1.387 . S
C1009 C1011 1.387 . S
H1010 C1017 0.950 . S
C1011 C1009 1.387 . S
C1011 C1013 1.390 . S
C1011 H1015 0.950 . S
H1012 C1008 0.950 . S
C1013 C1011 1.390 . S
C1013 C1014 1.387 . S
C1013 H1016 0.950 . S
C1014 C1013 1.387 . S
C1014 C1017 1.387 . S
H1015 C1011 0.950 . S
H1016 C1013 0.950 . S
C1017 C1008 1.390 . S
C1017 H1010 0.950 . S
C1017 C1014 1.387 . S
C1018 C1019 1.387 . S
C1018 H1022 0.950 . S
C1018 C1027 1.390 . S
C1019 C1018 1.387 . S
C1019 C1021 1.387 . S
H1020 C1027 0.950 . S
C1021 C1019 1.387 . S
C1021 C1023 1.390 . S
C1021 H1025 0.950 1_565 S
H1022 C1018 0.950 . S
C1023 C1021 1.390 . S
C1023 C1024 1.387 . S
C1023 H1026 0.950 . S
C1024 C1023 1.387 . S
C1024 C1027 1.387 . S
H1025 C1021 0.950 1_545 S
H1026 C1023 0.950 . S
C1027 C1018 1.390 . S
C1027 H1020 0.950 . S
C1027 C1024 1.387 . S
C1028 C1029 1.387 . S
C1028 H1032 0.950 . S
C1028 C1037 1.390 . S
C1029 C1028 1.387 . S
C1029 C1031 1.387 . S
H1030 C1037 0.950 . S
C1031 C1029 1.387 . S
C1031 C1033 1.390 . S
C1031 H1035 0.950 1_554 S
H1032 C1028 0.950 . S
C1033 C1031 1.390 . S
C1033 C1034 1.387 . S
C1033 H1036 0.950 1_554 S
C1034 C1033 1.387 . S
C1034 C1037 1.387 . S
H1035 C1031 0.950 1_556 S
H1036 C1033 0.950 1_556 S
C1037 C1028 1.390 . S
C1037 H1030 0.950 . S
C1037 C1034 1.387 . S
C1038 C1039 1.387 . S
C1038 H1042 0.950 . S
C1038 C1047 1.390 . S
C1039 C1038 1.387 . S
C1039 C1041 1.387 . S
H1040 C1047 0.950 . S
C1041 C1039 1.387 . S
C1041 C1043 1.390 . S
C1041 H1045 0.936 1_545 S
H1042 C1038 0.950 . S
C1043 C1041 1.390 . S
C1043 C1044 1.387 . S
C1043 H1046 0.950 1_545 S
C1044 C1043 1.387 . S
C1044 C1047 1.387 . S
H1045 C1041 0.936 1_565 S
H1046 C1043 0.950 1_565 S
C1047 C1038 1.390 . S
C1047 H1040 0.950 . S
C1047 C1044 1.387 . S
C1048 C1049 1.387 . S
C1048 H1052 0.950 . S
C1048 C1057 1.390 . S
C1049 C1048 1.387 . S
C1049 C1051 1.387 . S
H1050 C1057 0.950 . S
C1051 C1049 1.387 . S
C1051 C1053 1.390 . S
C1051 H1055 0.950 . S
H1052 C1048 0.950 . S
C1053 C1051 1.390 . S
C1053 C1054 1.387 . S
C1053 H1056 0.950 . S
C1054 C1053 1.387 . S
C1054 C1057 1.387 . S
H1055 C1051 0.950 . S
H1056 C1053 0.950 . S
C1057 C1048 1.390 . S
C1057 H1050 0.950 . S
C1057 C1054 1.387 . S
C1058 C1059 1.387 . S
C1058 H1062 0.950 . S
C1058 C1067 1.390 . S
C1059 C1058 1.387 . S
C1059 C1061 1.387 . S
H1060 C1067 0.950 . S
C1061 C1059 1.387 . S
C1061 C1063 1.390 . S
C1061 H1065 0.950 . S
H1062 C1058 0.950 . S
C1063 C1061 1.390 . S
C1063 C1064 1.387 . S
C1063 H1066 0.950 . S
C1064 C1063 1.387 . S
C1064 C1067 1.387 . S
H1065 C1061 0.950 . S
H1066 C1063 0.950 . S
C1067 C1058 1.390 . S
C1067 H1060 0.950 . S
C1067 C1064 1.387 . S
C1068 C1069 1.387 . S
C1068 H1072 0.950 . S
C1068 C1077 1.390 . S
C1069 C1068 1.387 . S
C1069 C1071 1.387 . S
H1070 C1077 0.950 . S
C1071 C1069 1.387 . S
C1071 C1073 1.390 . S
C1071 H1075 0.950 . S
H1072 C1068 0.950 . S
C1073 C1071 1.390 . S
C1073 C1074 1.387 . S
C1073 H1076 0.950 1_556 S
C1074 C1073 1.387 . S
C1074 C1077 1.387 . S
H1075 C1071 0.950 . S
H1076 C1073 0.950 1_554 S
C1077 C1068 1.390 . S
C1077 H1070 0.950 . S
C1077 C1074 1.387 . S
C1078 C1079 1.387 . S
C1078 H1082 0.950 . S
C1078 C1087 1.390 . S
C1079 C1078 1.387 . S
C1079 C1081 1.387 . S
H1080 C1087 0.950 . S
C1081 C1079 1.387 . S
C1081 C1083 1.390 . S
C1081 H1085 0.950 . S
H1082 C1078 0.950 . S
C1083 C1081 1.390 . S
C1083 C1084 1.387 . S
C1083 H1086 0.950 . S
C1084 C1083 1.387 . S
C1084 C1087 1.387 . S
H1085 C1081 0.950 . S
H1086 C1083 0.950 . S
C1087 C1078 1.390 . S
C1087 H1080 0.950 . S
C1087 C1084 1.387 . S
C1088 C1089 1.387 . S
C1088 H1092 0.950 . S
C1088 C1097 1.390 . S
C1089 C1088 1.387 . S
C1089 C1091 1.387 . S
H1090 C1097 0.950 . S
C1091 C1089 1.387 . S
C1091 C1093 1.390 . S
C1091 H1095 0.950 . S
H1092 C1088 0.950 . S
C1093 C1091 1.390 . S
C1093 C1094 1.387 . S
C1093 H1096 0.950 . S
C1094 C1093 1.387 . S
C1094 C1097 1.387 . S
H1095 C1091 0.950 . S
H1096 C1093 0.950 . S
C1097 C1088 1.390 . S
C1097 H1090 0.950 . S
C1097 C1094 1.387 . S
C1098 C1099 1.387 . S
C1098 H1102 0.950 . S
C1098 C1107 1.390 . S
C1099 C1098 1.387 . S
C1099 C1101 1.387 . S
H1100 C1107 0.950 . S
C1101 C1099 1.387 . S
C1101 C1103 1.390 . S
C1101 H1105 0.950 . S
H1102 C1098 0.950 . S
C1103 C1101 1.390 . S
C1103 C1104 1.387 . S
C1103 H1106 0.950 . S
C1104 C1103 1.387 . S
C1104 C1107 1.387 . S
H1105 C1101 0.950 . S
H1106 C1103 0.950 . S
C1107 C1098 1.390 . S
C1107 H1100 0.950 . S
C1107 C1104 1.387 . S
C1108 C1109 1.387 . S
C1108 H1112 0.950 . S
C1108 C1117 1.390 . S
C1109 C1108 1.387 . S
C1109 C1111 1.387 . S
H1110 C1117 0.950 . S
C1111 C1109 1.387 . S
C1111 C1113 1.390 . S
C1111 H1115 0.950 . S
H1112 C1108 0.950 . S
C1113 C1111 1.390 . S
C1113 C1114 1.387 . S
C1113 H1116 0.950 . S
C1114 C1113 1.387 . S
C1114 C1117 1.387 . S
H1115 C1111 0.950 . S
H1116 C1113 0.950 . S
C1117 C1108 1.390 . S
C1117 H1110 0.950 . S
C1117 C1114 1.387 . S
C1118 C1119 1.387 . S
C1118 H1122 0.950 . S
C1118 C1127 1.390 . S
C1119 C1118 1.387 . S
C1119 C1121 1.387 . S
H1120 C1127 0.950 . S
C1121 C1119 1.387 . S
C1121 C1123 1.390 . S
C1121 H1125 0.950 . S
H1122 C1118 0.950 . S
C1123 C1121 1.390 . S
C1123 C1124 1.387 . S
C1123 H1126 0.950 . S
C1124 C1123 1.387 . S
C1124 C1127 1.387 . S
H1125 C1121 0.950 . S
H1126 C1123 0.950 . S
C1127 C1118 1.390 . S
C1127 H1120 0.950 . S
C1127 C1124 1.387 . S
C1128 C1129 1.387 . S
C1128 H1132 0.950 . S
C1128 C1137 1.390 . S
C1129 C1128 1.387 . S
C1129 C1131 1.387 . S
H1130 C1137 0.950 . S
C1131 C1129 1.387 . S
C1131 C1133 1.390 . S
C1131 H1135 0.950 . S
H1132 C1128 0.950 . S
C1133 C1131 1.390 . S
C1133 C1134 1.387 . S
C1133 H1136 0.950 . S
C1134 C1133 1.387 . S
C1134 C1137 1.387 . S
H1135 C1131 0.950 . S
H1136 C1133 0.950 . S
C1137 C1128 1.390 . S
C1137 H1130 0.950 . S
C1137 C1134 1.387 . S
C1138 C1139 1.387 . S
C1138 H1142 0.950 . S
C1138 C1147 1.390 . S
C1139 C1138 1.387 . S
C1139 C1141 1.387 . S
H1140 C1147 0.950 1_545 S
C1141 C1139 1.387 . S
C1141 C1143 1.390 . S
C1141 H1145 0.950 . S
H1142 C1138 0.950 . S
C1143 C1141 1.390 . S
C1143 C1144 1.387 . S
C1143 H1146 0.950 . S
C1144 C1143 1.387 . S
C1144 C1147 1.387 . S
H1145 C1141 0.950 . S
H1146 C1143 0.950 . S
C1147 C1138 1.390 . S
C1147 H1140 0.950 1_565 S
C1147 C1144 1.387 . S
C1148 C1149 1.387 . S
C1148 H1152 0.950 . S
C1148 C1157 1.390 . S
C1149 C1148 1.387 . S
C1149 C1151 1.387 . S
H1150 C1157 0.950 . S
C1151 C1149 1.387 . S
C1151 C1153 1.390 . S
C1151 H1155 0.950 . S
H1152 C1148 0.950 . S
C1153 C1151 1.390 . S
C1153 C1154 1.387 . S
C1153 H1156 0.950 . S
C1154 C1153 1.387 . S
C1154 C1157 1.387 . S
H1155 C1151 0.950 . S
H1156 C1153 0.950 . S
C1157 C1148 1.390 . S
C1157 H1150 0.950 . S
C1157 C1154 1.387 . S
C1158 C1159 1.387 . S
C1158 H1162 0.956 . S
C1158 C1167 1.390 1_554 S
C1159 C1158 1.387 . S
C1159 C1161 1.387 . S
H1160 C1167 0.950 1_565 S
C1161 C1159 1.387 . S
C1161 C1163 1.390 1_554 S
C1161 H1165 0.950 . S
H1162 C1158 0.956 . S
C1163 C1161 1.390 1_556 S
C1163 C1164 1.387 . S
C1163 H1166 0.950 . S
C1164 C1163 1.387 . S
C1164 C1167 1.387 . S
H1165 C1161 0.950 . S
H1166 C1163 0.950 . S
C1167 C1158 1.390 1_556 S
C1167 H1160 0.950 1_545 S
C1167 C1164 1.387 . S
C1168 C1169 1.387 . S
C1168 H1172 0.950 . S
C1168 C1177 1.390 . S
C1169 C1168 1.387 . S
C1169 C1171 1.387 . S
H1170 C1177 0.950 . S
C1171 C1169 1.387 . S
C1171 C1173 1.390 . S
C1171 H1175 0.950 . S
H1172 C1168 0.950 . S
C1173 C1171 1.390 . S
C1173 C1174 1.387 . S
C1173 H1176 0.950 . S
C1174 C1173 1.387 . S
C1174 C1177 1.387 . S
H1175 C1171 0.950 . S
H1176 C1173 0.950 . S
C1177 C1168 1.390 . S
C1177 H1170 0.950 . S
C1177 C1174 1.387 . S
C1178 C1179 1.387 . S
C1178 H1182 0.950 . S
C1178 C1187 1.390 1_554 S
C1179 C1178 1.387 . S
C1179 C1181 1.387 . S
H1180 C1187 0.950 . S
C1181 C1179 1.387 . S
C1181 C1183 1.390 1_554 S
C1181 H1185 0.950 . S
H1182 C1178 0.950 . S
C1183 C1181 1.390 1_556 S
C1183 C1184 1.387 . S
C1183 H1186 0.950 . S
C1184 C1183 1.387 . S
C1184 C1187 1.387 . S
H1185 C1181 0.950 . S
H1186 C1183 0.950 . S
C1187 C1178 1.390 1_556 S
C1187 H1180 0.950 . S
C1187 C1184 1.387 . S
C1188 C1189 1.387 . S
C1188 H1192 0.950 . S
C1188 C1197 1.390 . S
C1189 C1188 1.387 . S
C1189 C1191 1.387 . S
H1190 C1197 0.950 . S
C1191 C1189 1.387 . S
C1191 C1193 1.390 . S
C1191 H1195 0.950 . S
H1192 C1188 0.950 . S
C1193 C1191 1.390 . S
C1193 C1194 1.387 . S
C1193 H1196 0.950 . S
C1194 C1193 1.387 . S
C1194 C1197 1.387 . S
H1195 C1191 0.950 . S
H1196 C1193 0.950 . S
C1197 C1188 1.390 . S
C1197 H1190 0.950 . S
C1197 C1194 1.387 . S
C1198 C1199 1.387 . S
C1198 H1202 0.950 . S
C1198 C1207 1.390 . S
C1199 C1198 1.387 . S
C1199 C1201 1.387 . S
H1200 C1207 0.950 . S
C1201 C1199 1.387 . S
C1201 C1203 1.390 . S
C1201 H1205 0.950 . S
H1202 C1198 0.950 . S
C1203 C1201 1.390 . S
C1203 C1204 1.387 . S
C1203 H1206 0.950 . S
C1204 C1203 1.387 . S
C1204 C1207 1.387 . S
H1205 C1201 0.950 . S
H1206 C1203 0.950 . S
C1207 C1198 1.390 . S
C1207 H1200 0.950 . S
C1207 C1204 1.387 . S
C1208 C1209 1.387 . S
C1208 H1212 0.950 . S
C1208 C1217 1.390 . S
C1209 C1208 1.387 . S
C1209 C1211 1.387 . S
H1210 C1217 0.950 . S
C1211 C1209 1.387 . S
C1211 C1213 1.390 . S
C1211 H1215 0.950 . S
H1212 C1208 0.950 . S
C1213 C1211 1.390 . S
C1213 C1214 1.387 . S
C1213 H1216 0.950 . S
C1214 C1213 1.387 . S
C1214 C1217 1.387 . S
H1215 C1211 0.950 . S
H1216 C1213 0.950 . S
C1217 C1208 1.390 . S
C1217 H1210 0.950 . S
C1217 C1214 1.387 . S
C1218 C1219 1.387 . S
C1218 H1222 0.950 . S
C1218 C1227 1.390 1_545 S
C1219 C1218 1.387 . S
C1219 C1221 1.387 . S
H1220 C1227 0.950 . S
C1221 C1219 1.387 . S
C1221 C1223 1.390 1_545 S
C1221 H1225 0.950 . S
H1222 C1218 0.950 . S
C1223 C1221 1.390 1_565 S
C1223 C1224 1.387 . S
C1223 H1226 0.950 . S
C1224 C1223 1.387 . S
C1224 C1227 1.387 . S
H1225 C1221 0.950 . S
H1226 C1223 0.950 . S
C1227 C1218 1.390 1_565 S
C1227 H1220 0.950 . S
C1227 C1224 1.387 . S
C1228 C1229 1.387 . S
C1228 H1232 0.950 . S
C1228 C1237 1.390 . S
C1229 C1228 1.387 . S
C1229 C1231 1.387 . S
H1230 C1237 0.950 . S
C1231 C1229 1.387 . S
C1231 C1233 1.390 . S
C1231 H1235 0.950 . S
H1232 C1228 0.950 . S
C1233 C1231 1.390 . S
C1233 C1234 1.387 . S
C1233 H1236 0.950 . S
C1234 C1233 1.387 . S
C1234 C1237 1.387 . S
H1235 C1231 0.950 . S
H1236 C1233 0.950 . S
C1237 C1228 1.390 . S
C1237 H1230 0.950 . S
C1237 C1234 1.387 . S
C1238 C1239 1.387 . S
C1238 H1242 0.950 . S
C1238 C1247 1.390 1_545 S
C1239 C1238 1.387 . S
C1239 C1241 1.387 . S
H1240 C1247 0.950 . S
C1241 C1239 1.387 . S
C1241 C1243 1.390 1_545 S
C1241 H1245 0.950 . S
H1242 C1238 0.950 . S
C1243 C1241 1.390 1_565 S
C1243 C1244 1.387 . S
C1243 H1246 0.950 . S
C1244 C1243 1.387 . S
C1244 C1247 1.387 . S
H1245 C1241 0.950 . S
H1246 C1243 0.950 . S
C1247 C1238 1.390 1_565 S
C1247 H1240 0.950 . S
C1247 C1244 1.387 . S
C1248 C1249 1.387 . S
C1248 H1252 0.950 . S
C1248 C1257 1.390 . S
C1249 C1248 1.387 . S
C1249 C1251 1.387 . S
H1250 C1257 0.950 . S
C1251 C1249 1.387 . S
C1251 C1253 1.390 . S
C1251 H1255 0.950 . S
H1252 C1248 0.950 . S
C1253 C1251 1.390 . S
C1253 C1254 1.387 . S
C1253 H1256 0.950 . S
C1254 C1253 1.387 . S
C1254 C1257 1.387 . S
H1255 C1251 0.950 . S
H1256 C1253 0.950 . S
C1257 C1248 1.390 . S
C1257 H1250 0.950 . S
C1257 C1254 1.387 . S
C1258 C1259 1.387 . S
C1258 H1262 0.950 . S
C1258 C1267 1.390 . S
C1259 C1258 1.387 . S
C1259 C1261 1.387 . S
H1260 C1267 0.950 . S
C1261 C1259 1.387 . S
C1261 C1263 1.390 . S
C1261 H1265 0.950 . S
H1262 C1258 0.950 . S
C1263 C1261 1.390 . S
C1263 C1264 1.387 . S
C1263 H1266 0.950 . S
C1264 C1263 1.387 . S
C1264 C1267 1.387 . S
H1265 C1261 0.950 . S
H1266 C1263 0.950 . S
C1267 C1258 1.390 . S
C1267 H1260 0.950 . S
C1267 C1264 1.387 . S
C1268 C1269 1.387 . S
C1268 H1272 0.950 . S
C1268 C1277 1.390 . S
C1269 C1268 1.387 . S
C1269 C1271 1.387 . S
H1270 C1277 0.950 . S
C1271 C1269 1.387 . S
C1271 C1273 1.390 . S
C1271 H1275 0.950 . S
H1272 C1268 0.950 . S
C1273 C1271 1.390 . S
C1273 C1274 1.387 . S
C1273 H1276 0.950 . S
C1274 C1273 1.387 . S
C1274 C1277 1.387 . S
H1275 C1271 0.950 . S
H1276 C1273 0.950 . S
C1277 C1268 1.390 . S
C1277 H1270 0.950 . S
C1277 C1274 1.387 . S
C1278 C1279 1.387 . S
C1278 H1282 0.950 . S
C1278 C1287 1.390 . S
C1279 C1278 1.387 . S
C1279 C1281 1.387 . S
H1280 C1287 0.950 . S
C1281 C1279 1.387 . S
C1281 C1283 1.390 . S
C1281 H1285 0.950 . S
H1282 C1278 0.950 . S
C1283 C1281 1.390 . S
C1283 C1284 1.387 . S
C1283 H1286 0.950 . S
C1284 C1283 1.387 . S
C1284 C1287 1.387 . S
H1285 C1281 0.950 . S
H1286 C1283 0.950 . S
C1287 C1278 1.390 . S
C1287 H1280 0.950 . S
C1287 C1284 1.387 . S
C1288 C1289 1.387 . S
C1288 H1292 0.950 . S
C1288 C1297 1.390 . S
C1289 C1288 1.387 . S
C1289 C1291 1.387 . S
H1290 C1297 0.950 . S
C1291 C1289 1.387 . S
C1291 C1293 1.390 . S
C1291 H1295 0.950 . S
H1292 C1288 0.950 . S
C1293 C1291 1.390 . S
C1293 C1294 1.387 . S
C1293 H1296 0.950 . S
C1294 C1293 1.387 . S
C1294 C1297 1.387 . S
H1295 C1291 0.950 . S
H1296 C1293 0.950 . S
C1297 C1288 1.390 . S
C1297 H1290 0.950 . S
C1297 C1294 1.387 . S
C1298 C1299 1.387 . S
C1298 H1302 0.950 . S
C1298 C1307 1.390 . S
C1299 C1298 1.387 . S
C1299 C1301 1.387 . S
H1300 C1307 0.950 . S
C1301 C1299 1.387 . S
C1301 C1303 1.390 . S
C1301 H1305 0.950 . S
H1302 C1298 0.950 . S
C1303 C1301 1.390 . S
C1303 C1304 1.387 . S
C1303 H1306 0.950 . S
C1304 C1303 1.387 . S
C1304 C1307 1.387 . S
H1305 C1301 0.950 . S
H1306 C1303 0.950 . S
C1307 C1298 1.390 . S
C1307 H1300 0.950 . S
C1307 C1304 1.387 . S
C1308 C1309 1.387 . S
C1308 H1312 0.950 . S
C1308 C1317 1.390 1_455 S
C1309 C1308 1.387 . S
C1309 C1311 1.387 . S
H1310 C1317 0.950 . S
C1311 C1309 1.387 . S
C1311 C1313 1.390 1_455 S
C1311 H1315 0.950 . S
H1312 C1308 0.950 . S
C1313 C1311 1.390 1_655 S
C1313 C1314 1.387 . S
C1313 H1316 0.950 . S
C1314 C1313 1.387 . S
C1314 C1317 1.387 . S
H1315 C1311 0.950 . S
H1316 C1313 0.950 . S
C1317 C1308 1.390 1_655 S
C1317 H1310 0.950 . S
C1317 C1314 1.387 . S
C1318 C1319 1.387 . S
C1318 H1322 0.950 . S
C1318 C1327 1.390 . S
C1319 C1318 1.387 . S
C1319 C1321 1.387 . S
H1320 C1327 0.950 . S
C1321 C1319 1.387 . S
C1321 C1323 1.390 . S
C1321 H1325 0.950 . S
H1322 C1318 0.950 . S
C1323 C1321 1.390 . S
C1323 C1324 1.387 . S
C1323 H1326 0.950 . S
C1324 C1323 1.387 . S
C1324 C1327 1.387 . S
H1325 C1321 0.950 . S
H1326 C1323 0.950 . S
C1327 C1318 1.390 . S
C1327 H1320 0.950 . S
C1327 C1324 1.387 . S
C1328 C1329 1.387 . S
C1328 H1332 0.950 . S
C1328 C1337 1.390 . S
C1329 C1328 1.387 . S
C1329 C1331 1.387 . S
H1330 C1337 0.950 . S
C1331 C1329 1.387 . S
C1331 C1333 1.390 . S
C1331 H1335 0.950 . S
H1332 C1328 0.950 . S
C1333 C1331 1.390 . S
C1333 C1334 1.387 . S
C1333 H1336 0.950 . S
C1334 C1333 1.387 . S
C1334 C1337 1.387 . S
H1335 C1331 0.950 . S
H1336 C1333 0.950 . S
C1337 C1328 1.390 . S
C1337 H1330 0.950 . S
C1337 C1334 1.387 . S
C1338 C1339 1.387 . S
C1338 H1342 0.950 . S
C1338 C1347 1.390 . S
C1339 C1338 1.387 . S
C1339 C1341 1.387 . S
H1340 C1347 0.950 . S
C1341 C1339 1.387 . S
C1341 C1343 1.390 . S
C1341 H1345 0.950 . S
H1342 C1338 0.950 . S
C1343 C1341 1.390 . S
C1343 C1344 1.387 . S
C1343 H1346 0.950 . S
C1344 C1343 1.387 . S
C1344 C1347 1.387 . S
H1345 C1341 0.950 . S
H1346 C1343 0.950 . S
C1347 C1338 1.390 . S
C1347 H1340 0.950 . S
C1347 C1344 1.387 . S
C1348 C1349 1.387 . S
C1348 H1352 0.950 . S
C1348 C1357 1.390 . S
C1349 C1348 1.387 . S
C1349 C1351 1.387 . S
H1350 C1357 0.950 . S
C1351 C1349 1.387 . S
C1351 C1353 1.390 . S
C1351 H1355 0.950 . S
H1352 C1348 0.950 . S
C1353 C1351 1.390 . S
C1353 C1354 1.387 . S
C1353 H1356 0.950 . S
C1354 C1353 1.387 . S
C1354 C1357 1.387 . S
H1355 C1351 0.950 . S
H1356 C1353 0.950 . S
C1357 C1348 1.390 . S
C1357 H1350 0.950 . S
C1357 C1354 1.387 . S
C1358 C1359 1.387 . S
C1358 H1362 0.950 . S
C1358 C1367 1.390 1_655 S
C1359 C1358 1.387 . S
C1359 C1361 1.387 . S
H1360 C1367 0.950 . S
C1361 C1359 1.387 . S
C1361 C1363 1.390 1_655 S
C1361 H1365 0.950 . S
H1362 C1358 0.950 . S
C1363 C1361 1.390 1_455 S
C1363 C1364 1.387 . S
C1363 H1366 0.950 . S
C1364 C1363 1.387 . S
C1364 C1367 1.387 . S
H1365 C1361 0.950 . S
H1366 C1363 0.950 . S
C1367 C1358 1.390 1_455 S
C1367 H1360 0.950 . S
C1367 C1364 1.387 . S
C1009 C74 1.701 . S
C1014 C991 1.736 . S
C1019 C823 1.761 . S
C1024 C158 1.725 . S
C1029 C235 1.739 . S
C1034 C746 1.703 . S
C1039 C326 1.725 . S
C1044 C907 1.761 . S
C1049 C410 1.731 . S
C1054 C914 1.732 . S
C1059 C487 1.755 . S
C1064 C998 1.720 . S
C1069 C830 1.739 . S
C1074 C578 1.734 . S
C1079 C655 1.722 . S
C1084 C739 1.722 . S
C1089 C319 1.725 . S
C1094 C403 1.725 . S
C1099 C67 1.758 . S
C1104 C494 1.724 . S
C1109 C151 1.724 . S
C1114 C571 1.725 . S
C1119 C662 1.753 . S
C1124 C242 1.754 . S
C1129 C69 1.434 . S
C1134 C735 1.739 . S
C1139 C153 1.443 . S
C1144 C896 1.709 . S
C1149 C980 1.727 . S
C1154 C226 1.785 . S
C1159 C321 1.425 . S
C1164 C812 1.683 . S
C1169 C405 1.439 . S
C1174 C819 1.740 . S
C1179 C728 1.718 . S
C1184 C478 1.773 . S
C1189 C903 1.735 . S
C1194 C573 1.428 . S
C1199 C987 1.782 . S
C1204 C646 1.801 . S
C1209 C56 1.708 . S
C1214 C310 1.766 . S
C1219 C58 1.729 . S
C1224 C140 1.680 . S
C1229 C142 1.767 . S
C1234 C231 1.753 . S
C1239 C308 1.678 . S
C1244 C237 1.416 . S
C1249 C489 1.453 . S
C1254 C392 1.713 . S
C1259 C483 1.760 . S
C1264 C562 1.765 . S
C1269 C560 1.715 . S
C1274 C657 1.450 . S
C1279 C394 1.768 . S
C1284 C651 1.760 . S
C1289 C730 1.733 . S
C1294 C315 1.725 . S
C1299 C476 1.699 . S
C1304 C814 1.752 . S
C1309 C741 1.416 . S
C1314 C567 1.724 . S
C1319 C898 1.760 . S
C1324 C644 1.714 . S
C1329 C399 1.761 . S
C1334 C982 1.773 . S
C1339 C993 1.435 . S
C1344 C147 1.736 . S
C1349 C224 1.707 . S
C1354 C825 1.441 . S
C1359 C909 1.451 . S
C1364 C63 1.750 . S
