# Generated by pormake.
# Topology rho, (4)-cn, num edge types: 1
# Building blocks:
#     Node 0, Type 0, BuildingBlock: QUQFOY_clean_sbu_1, # of connection points: 4
#     Node 1, Type 0, BuildingBlock: QUQFOY_clean_sbu_1, # of connection points: 4
#     Node 2, Type 0, BuildingBlock: QUQFOY_clean_sbu_1, # of connection points: 4
#     Node 3, Type 0, BuildingBlock: QUQFOY_clean_sbu_1, # of connection points: 4
#     Node 4, Type 0, BuildingBlock: QUQFOY_clean_sbu_1, # of connection points: 4
#     Node 5, Type 0, BuildingBlock: QUQFOY_clean_sbu_1, # of connection points: 4
#     Node 6, Type 0, BuildingBlock: QUQFOY_clean_sbu_1, # of connection points: 4
#     Node 7, Type 0, BuildingBlock: QUQFOY_clean_sbu_1, # of connection points: 4
#     Node 8, Type 0, BuildingBlock: QUQFOY_clean_sbu_1, # of connection points: 4
#     Node 9, Type 0, BuildingBlock: QUQFOY_clean_sbu_1, # of connection points: 4
#     Node 10, Type 0, BuildingBlock: QUQFOY_clean_sbu_1, # of connection points: 4
#     Node 11, Type 0, BuildingBlock: QUQFOY_clean_sbu_1, # of connection points: 4
#     Node 12, Type 0, BuildingBlock: QUQFOY_clean_sbu_1, # of connection points: 4
#     Node 13, Type 0, BuildingBlock: QUQFOY_clean_sbu_1, # of connection points: 4
#     Node 14, Type 0, BuildingBlock: QUQFOY_clean_sbu_1, # of connection points: 4
#     Node 15, Type 0, BuildingBlock: QUQFOY_clean_sbu_1, # of connection points: 4
#     Node 16, Type 0, BuildingBlock: QUQFOY_clean_sbu_1, # of connection points: 4
#     Node 17, Type 0, BuildingBlock: QUQFOY_clean_sbu_1, # of connection points: 4
#     Node 18, Type 0, BuildingBlock: QUQFOY_clean_sbu_1, # of connection points: 4
#     Node 19, Type 0, BuildingBlock: QUQFOY_clean_sbu_1, # of connection points: 4
#     Node 20, Type 0, BuildingBlock: QUQFOY_clean_sbu_1, # of connection points: 4
#     Node 21, Type 0, BuildingBlock: QUQFOY_clean_sbu_1, # of connection points: 4
#     Node 22, Type 0, BuildingBlock: QUQFOY_clean_sbu_1, # of connection points: 4
#     Node 23, Type 0, BuildingBlock: QUQFOY_clean_sbu_1, # of connection points: 4
#     Node 24, Type 0, BuildingBlock: QUQFOY_clean_sbu_1, # of connection points: 4
#     Node 25, Type 0, BuildingBlock: QUQFOY_clean_sbu_1, # of connection points: 4
#     Node 26, Type 0, BuildingBlock: QUQFOY_clean_sbu_1, # of connection points: 4
#     Node 27, Type 0, BuildingBlock: QUQFOY_clean_sbu_1, # of connection points: 4
#     Node 28, Type 0, BuildingBlock: QUQFOY_clean_sbu_1, # of connection points: 4
#     Node 29, Type 0, BuildingBlock: QUQFOY_clean_sbu_1, # of connection points: 4
#     Node 30, Type 0, BuildingBlock: QUQFOY_clean_sbu_1, # of connection points: 4
#     Node 31, Type 0, BuildingBlock: QUQFOY_clean_sbu_1, # of connection points: 4
#     Node 32, Type 0, BuildingBlock: QUQFOY_clean_sbu_1, # of connection points: 4
#     Node 33, Type 0, BuildingBlock: QUQFOY_clean_sbu_1, # of connection points: 4
#     Node 34, Type 0, BuildingBlock: QUQFOY_clean_sbu_1, # of connection points: 4
#     Node 35, Type 0, BuildingBlock: QUQFOY_clean_sbu_1, # of connection points: 4
#     Node 36, Type 0, BuildingBlock: QUQFOY_clean_sbu_1, # of connection points: 4
#     Node 37, Type 0, BuildingBlock: QUQFOY_clean_sbu_1, # of connection points: 4
#     Node 38, Type 0, BuildingBlock: QUQFOY_clean_sbu_1, # of connection points: 4
#     Node 39, Type 0, BuildingBlock: QUQFOY_clean_sbu_1, # of connection points: 4
#     Node 40, Type 0, BuildingBlock: QUQFOY_clean_sbu_1, # of connection points: 4
#     Node 41, Type 0, BuildingBlock: QUQFOY_clean_sbu_1, # of connection points: 4
#     Node 42, Type 0, BuildingBlock: QUQFOY_clean_sbu_1, # of connection points: 4
#     Node 43, Type 0, BuildingBlock: QUQFOY_clean_sbu_1, # of connection points: 4
#     Node 44, Type 0, BuildingBlock: QUQFOY_clean_sbu_1, # of connection points: 4
#     Node 45, Type 0, BuildingBlock: QUQFOY_clean_sbu_1, # of connection points: 4
#     Node 46, Type 0, BuildingBlock: QUQFOY_clean_sbu_1, # of connection points: 4
#     Node 47, Type 0, BuildingBlock: QUQFOY_clean_sbu_1, # of connection points: 4
#     Edge 48, Type (0, 0), BuildingBlock: EZIPEK_clean_linker_0, # of connection points: 2
#     Edge 49, Type (0, 0), BuildingBlock: EZIPEK_clean_linker_0, # of connection points: 2
#     Edge 50, Type (0, 0), BuildingBlock: EZIPEK_clean_linker_0, # of connection points: 2
#     Edge 51, Type (0, 0), BuildingBlock: EZIPEK_clean_linker_0, # of connection points: 2
#     Edge 52, Type (0, 0), BuildingBlock: EZIPEK_clean_linker_0, # of connection points: 2
#     Edge 53, Type (0, 0), BuildingBlock: EZIPEK_clean_linker_0, # of connection points: 2
#     Edge 54, Type (0, 0), BuildingBlock: EZIPEK_clean_linker_0, # of connection points: 2
#     Edge 55, Type (0, 0), BuildingBlock: EZIPEK_clean_linker_0, # of connection points: 2
#     Edge 56, Type (0, 0), BuildingBlock: EZIPEK_clean_linker_0, # of connection points: 2
#     Edge 57, Type (0, 0), BuildingBlock: EZIPEK_clean_linker_0, # of connection points: 2
#     Edge 58, Type (0, 0), BuildingBlock: EZIPEK_clean_linker_0, # of connection points: 2
#     Edge 59, Type (0, 0), BuildingBlock: EZIPEK_clean_linker_0, # of connection points: 2
#     Edge 60, Type (0, 0), BuildingBlock: EZIPEK_clean_linker_0, # of connection points: 2
#     Edge 61, Type (0, 0), BuildingBlock: EZIPEK_clean_linker_0, # of connection points: 2
#     Edge 62, Type (0, 0), BuildingBlock: EZIPEK_clean_linker_0, # of connection points: 2
#     Edge 63, Type (0, 0), BuildingBlock: EZIPEK_clean_linker_0, # of connection points: 2
#     Edge 64, Type (0, 0), BuildingBlock: EZIPEK_clean_linker_0, # of connection points: 2
#     Edge 65, Type (0, 0), BuildingBlock: EZIPEK_clean_linker_0, # of connection points: 2
#     Edge 66, Type (0, 0), BuildingBlock: EZIPEK_clean_linker_0, # of connection points: 2
#     Edge 67, Type (0, 0), BuildingBlock: EZIPEK_clean_linker_0, # of connection points: 2
#     Edge 68, Type (0, 0), BuildingBlock: EZIPEK_clean_linker_0, # of connection points: 2
#     Edge 69, Type (0, 0), BuildingBlock: EZIPEK_clean_linker_0, # of connection points: 2
#     Edge 70, Type (0, 0), BuildingBlock: EZIPEK_clean_linker_0, # of connection points: 2
#     Edge 71, Type (0, 0), BuildingBlock: EZIPEK_clean_linker_0, # of connection points: 2
#     Edge 72, Type (0, 0), BuildingBlock: EZIPEK_clean_linker_0, # of connection points: 2
#     Edge 73, Type (0, 0), BuildingBlock: EZIPEK_clean_linker_0, # of connection points: 2
#     Edge 74, Type (0, 0), BuildingBlock: EZIPEK_clean_linker_0, # of connection points: 2
#     Edge 75, Type (0, 0), BuildingBlock: EZIPEK_clean_linker_0, # of connection points: 2
#     Edge 76, Type (0, 0), BuildingBlock: EZIPEK_clean_linker_0, # of connection points: 2
#     Edge 77, Type (0, 0), BuildingBlock: EZIPEK_clean_linker_0, # of connection points: 2
#     Edge 78, Type (0, 0), BuildingBlock: EZIPEK_clean_linker_0, # of connection points: 2
#     Edge 79, Type (0, 0), BuildingBlock: EZIPEK_clean_linker_0, # of connection points: 2
#     Edge 80, Type (0, 0), BuildingBlock: EZIPEK_clean_linker_0, # of connection points: 2
#     Edge 81, Type (0, 0), BuildingBlock: EZIPEK_clean_linker_0, # of connection points: 2
#     Edge 82, Type (0, 0), BuildingBlock: EZIPEK_clean_linker_0, # of connection points: 2
#     Edge 83, Type (0, 0), BuildingBlock: EZIPEK_clean_linker_0, # of connection points: 2
#     Edge 84, Type (0, 0), BuildingBlock: EZIPEK_clean_linker_0, # of connection points: 2
#     Edge 85, Type (0, 0), BuildingBlock: EZIPEK_clean_linker_0, # of connection points: 2
#     Edge 86, Type (0, 0), BuildingBlock: EZIPEK_clean_linker_0, # of connection points: 2
#     Edge 87, Type (0, 0), BuildingBlock: EZIPEK_clean_linker_0, # of connection points: 2
#     Edge 88, Type (0, 0), BuildingBlock: EZIPEK_clean_linker_0, # of connection points: 2
#     Edge 89, Type (0, 0), BuildingBlock: EZIPEK_clean_linker_0, # of connection points: 2
#     Edge 90, Type (0, 0), BuildingBlock: EZIPEK_clean_linker_0, # of connection points: 2
#     Edge 91, Type (0, 0), BuildingBlock: EZIPEK_clean_linker_0, # of connection points: 2
#     Edge 92, Type (0, 0), BuildingBlock: EZIPEK_clean_linker_0, # of connection points: 2
#     Edge 93, Type (0, 0), BuildingBlock: EZIPEK_clean_linker_0, # of connection points: 2
#     Edge 94, Type (0, 0), BuildingBlock: EZIPEK_clean_linker_0, # of connection points: 2
#     Edge 95, Type (0, 0), BuildingBlock: EZIPEK_clean_linker_0, # of connection points: 2
#     Edge 96, Type (0, 0), BuildingBlock: EZIPEK_clean_linker_0, # of connection points: 2
#     Edge 97, Type (0, 0), BuildingBlock: EZIPEK_clean_linker_0, # of connection points: 2
#     Edge 98, Type (0, 0), BuildingBlock: EZIPEK_clean_linker_0, # of connection points: 2
#     Edge 99, Type (0, 0), BuildingBlock: EZIPEK_clean_linker_0, # of connection points: 2
#     Edge 100, Type (0, 0), BuildingBlock: EZIPEK_clean_linker_0, # of connection points: 2
#     Edge 101, Type (0, 0), BuildingBlock: EZIPEK_clean_linker_0, # of connection points: 2
#     Edge 102, Type (0, 0), BuildingBlock: EZIPEK_clean_linker_0, # of connection points: 2
#     Edge 103, Type (0, 0), BuildingBlock: EZIPEK_clean_linker_0, # of connection points: 2
#     Edge 104, Type (0, 0), BuildingBlock: EZIPEK_clean_linker_0, # of connection points: 2
#     Edge 105, Type (0, 0), BuildingBlock: EZIPEK_clean_linker_0, # of connection points: 2
#     Edge 106, Type (0, 0), BuildingBlock: EZIPEK_clean_linker_0, # of connection points: 2
#     Edge 107, Type (0, 0), BuildingBlock: EZIPEK_clean_linker_0, # of connection points: 2
#     Edge 108, Type (0, 0), BuildingBlock: EZIPEK_clean_linker_0, # of connection points: 2
#     Edge 109, Type (0, 0), BuildingBlock: EZIPEK_clean_linker_0, # of connection points: 2
#     Edge 110, Type (0, 0), BuildingBlock: EZIPEK_clean_linker_0, # of connection points: 2
#     Edge 111, Type (0, 0), BuildingBlock: EZIPEK_clean_linker_0, # of connection points: 2
#     Edge 112, Type (0, 0), BuildingBlock: EZIPEK_clean_linker_0, # of connection points: 2
#     Edge 113, Type (0, 0), BuildingBlock: EZIPEK_clean_linker_0, # of connection points: 2
#     Edge 114, Type (0, 0), BuildingBlock: EZIPEK_clean_linker_0, # of connection points: 2
#     Edge 115, Type (0, 0), BuildingBlock: EZIPEK_clean_linker_0, # of connection points: 2
#     Edge 116, Type (0, 0), BuildingBlock: EZIPEK_clean_linker_0, # of connection points: 2
#     Edge 117, Type (0, 0), BuildingBlock: EZIPEK_clean_linker_0, # of connection points: 2
#     Edge 118, Type (0, 0), BuildingBlock: EZIPEK_clean_linker_0, # of connection points: 2
#     Edge 119, Type (0, 0), BuildingBlock: EZIPEK_clean_linker_0, # of connection points: 2
#     Edge 120, Type (0, 0), BuildingBlock: EZIPEK_clean_linker_0, # of connection points: 2
#     Edge 121, Type (0, 0), BuildingBlock: EZIPEK_clean_linker_0, # of connection points: 2
#     Edge 122, Type (0, 0), BuildingBlock: EZIPEK_clean_linker_0, # of connection points: 2
#     Edge 123, Type (0, 0), BuildingBlock: EZIPEK_clean_linker_0, # of connection points: 2
#     Edge 124, Type (0, 0), BuildingBlock: EZIPEK_clean_linker_0, # of connection points: 2
#     Edge 125, Type (0, 0), BuildingBlock: EZIPEK_clean_linker_0, # of connection points: 2
#     Edge 126, Type (0, 0), BuildingBlock: EZIPEK_clean_linker_0, # of connection points: 2
#     Edge 127, Type (0, 0), BuildingBlock: EZIPEK_clean_linker_0, # of connection points: 2
#     Edge 128, Type (0, 0), BuildingBlock: EZIPEK_clean_linker_0, # of connection points: 2
#     Edge 129, Type (0, 0), BuildingBlock: EZIPEK_clean_linker_0, # of connection points: 2
#     Edge 130, Type (0, 0), BuildingBlock: EZIPEK_clean_linker_0, # of connection points: 2
#     Edge 131, Type (0, 0), BuildingBlock: EZIPEK_clean_linker_0, # of connection points: 2
#     Edge 132, Type (0, 0), BuildingBlock: EZIPEK_clean_linker_0, # of connection points: 2
#     Edge 133, Type (0, 0), BuildingBlock: EZIPEK_clean_linker_0, # of connection points: 2
#     Edge 134, Type (0, 0), BuildingBlock: EZIPEK_clean_linker_0, # of connection points: 2
#     Edge 135, Type (0, 0), BuildingBlock: EZIPEK_clean_linker_0, # of connection points: 2
#     Edge 136, Type (0, 0), BuildingBlock: EZIPEK_clean_linker_0, # of connection points: 2
#     Edge 137, Type (0, 0), BuildingBlock: EZIPEK_clean_linker_0, # of connection points: 2
#     Edge 138, Type (0, 0), BuildingBlock: EZIPEK_clean_linker_0, # of connection points: 2
#     Edge 139, Type (0, 0), BuildingBlock: EZIPEK_clean_linker_0, # of connection points: 2
#     Edge 140, Type (0, 0), BuildingBlock: EZIPEK_clean_linker_0, # of connection points: 2
#     Edge 141, Type (0, 0), BuildingBlock: EZIPEK_clean_linker_0, # of connection points: 2
#     Edge 142, Type (0, 0), BuildingBlock: EZIPEK_clean_linker_0, # of connection points: 2
#     Edge 143, Type (0, 0), BuildingBlock: EZIPEK_clean_linker_0, # of connection points: 2
# Relax obj value: 0.016
# Max RMSD: 0.056
# Mean RMSD: 0.056
data_MOF--net-rho--node1-QUQFOY_clean_sbu_1--edge1-EZIPEK_clean_linker_0
_symmetry_space_group_name_H-M    P1
_symmetry_Int_Tables_number       1
_symmetry_cell_setting            triclinic
loop_
_symmetry_equiv_pos_as_xyz
'x, y, z'
_cell_length_a     56.5675
_cell_length_b     56.56597
_cell_length_c     56.536799
_cell_angle_alpha  90.004354
_cell_angle_beta   89.922538
_cell_angle_gamma 89.973979
loop_
_atom_site_label
_atom_site_type_symbol
_atom_site_fract_x
_atom_site_fract_y
_atom_site_fract_z
_atom_type_partial_charge
O0 O 0.11022 0.23976 0.44389 0.0
Cd1 Cd 0.10416 0.22982 0.40932 0.0
Cd2 Cd 0.09957 0.27766 0.40511 0.0
O3 O 0.10968 0.27866 0.44046 0.0
O4 O 0.11626 0.19669 0.40864 0.0
O5 O 0.13236 0.22568 0.38779 0.0
C6 C 0.13295 0.20398 0.39494 0.0
C7 C 0.11343 0.30349 0.37606 0.0
C8 C 0.11187 0.26018 0.45313 0.0
C9 C 0.05591 0.24727 0.39774 0.0
O10 O 0.06503 0.2677 0.39957 0.0
O11 O 0.06869 0.22883 0.39954 0.0
O12 O 0.09961 0.31065 0.39272 0.0
O13 O 0.1211 0.28198 0.37692 0.0
O14 O 0.74567 0.06152 0.4018 0.0
Cd15 Cd 0.73325 0.09564 0.40558 0.0
Cd16 Cd 0.78049 0.10364 0.40887 0.0
O17 O 0.78353 0.06936 0.39632 0.0
O18 O 0.7005 0.0941 0.39269 0.0
O19 O 0.72877 0.11598 0.37663 0.0
C20 C 0.70742 0.10787 0.37589 0.0
C21 C 0.80557 0.13388 0.3961 0.0
C22 C 0.76656 0.05465 0.39723 0.0
C23 C 0.74981 0.10926 0.45286 0.0
O24 O 0.77027 0.10675 0.44386 0.0
O25 O 0.73142 0.10776 0.44006 0.0
O26 O 0.81322 0.1168 0.40905 0.0
O27 O 0.78384 0.13324 0.38911 0.0
O28 O 0.89984 0.76533 0.44605 0.0
Cd29 Cd 0.90359 0.77667 0.41161 0.0
Cd30 Cd 0.91159 0.72947 0.40635 0.0
O31 O 0.89965 0.72664 0.44091 0.0
O32 O 0.88986 0.80912 0.41291 0.0
O33 O 0.87479 0.78058 0.39083 0.0
C34 C 0.87343 0.8019 0.39893 0.0
C35 C 0.89947 0.70415 0.37621 0.0
C36 C 0.89762 0.74457 0.45431 0.0
C37 C 0.9527 0.76309 0.39944 0.0
O38 O 0.94569 0.74196 0.40244 0.0
O39 O 0.9382 0.78027 0.4002 0.0
O40 O 0.91297 0.69686 0.39304 0.0
O41 O 0.89159 0.72558 0.3771 0.0
O42 O 0.26291 0.94478 0.40152 0.0
Cd43 Cd 0.27438 0.91024 0.40445 0.0
Cd44 Cd 0.22753 0.90497 0.41237 0.0
O45 O 0.22433 0.93912 0.39981 0.0
O46 O 0.30717 0.91172 0.3915 0.0
O47 O 0.27868 0.89076 0.37477 0.0
C48 C 0.30016 0.89851 0.37434 0.0
C49 C 0.20302 0.8743 0.40003 0.0
C50 C 0.24211 0.95278 0.39863 0.0
C51 C 0.26084 0.89841 0.45352 0.0
O52 O 0.23979 0.9022 0.44668 0.0
O53 O 0.2778 0.89788 0.43874 0.0
O54 O 0.19519 0.89105 0.41335 0.0
O55 O 0.22462 0.87545 0.3926 0.0
O56 O 0.06676 0.74336 0.61319 0.0
Cd57 Cd 0.10098 0.73279 0.60656 0.0
Cd58 Cd 0.10522 0.78002 0.59758 0.0
O59 O 0.06979 0.78178 0.60688 0.0
O60 O 0.10085 0.70001 0.61952 0.0
O61 O 0.12296 0.72862 0.63444 0.0
C62 C 0.11516 0.70719 0.63567 0.0
C63 C 0.13399 0.80616 0.61119 0.0
C64 C 0.05737 0.76372 0.61193 0.0
C65 C 0.11203 0.74656 0.55656 0.0
O66 O 0.11107 0.76776 0.56386 0.0
O67 O 0.10954 0.72936 0.57087 0.0
O68 O 0.118 0.81281 0.59641 0.0
O69 O 0.13275 0.78497 0.61968 0.0
O70 O 0.24439 0.11087 0.56621 0.0
Cd71 Cd 0.23421 0.10775 0.60126 0.0
Cd72 Cd 0.28111 0.09845 0.60453 0.0
O73 O 0.28326 0.10994 0.56988 0.0
O74 O 0.20167 0.12139 0.60144 0.0
O75 O 0.23128 0.13695 0.62171 0.0
C76 C 0.20949 0.13794 0.61496 0.0
C77 C 0.3069 0.11098 0.63413 0.0
C78 C 0.26492 0.11231 0.55713 0.0
C79 C 0.24682 0.05832 0.61285 0.0
O80 O 0.26798 0.06462 0.60868 0.0
O81 O 0.23023 0.07347 0.61338 0.0
O82 O 0.31372 0.09666 0.61774 0.0
O83 O 0.28568 0.1194 0.63303 0.0
O84 O 0.94757 0.26534 0.61193 0.0
Cd85 Cd 0.91381 0.27755 0.6059 0.0
Cd86 Cd 0.90604 0.23039 0.59964 0.0
O87 O 0.94172 0.22695 0.60781 0.0
O88 O 0.915 0.31012 0.61933 0.0
O89 O 0.89152 0.28217 0.63347 0.0
C90 C 0.90008 0.30328 0.63515 0.0
C91 C 0.87719 0.20492 0.61461 0.0
C92 C 0.95547 0.24431 0.61168 0.0
C93 C 0.89983 0.26278 0.55723 0.0
O94 O 0.89905 0.24202 0.56577 0.0
O95 O 0.90466 0.28039 0.57038 0.0
O96 O 0.89246 0.1979 0.59922 0.0
O97 O 0.87919 0.22612 0.62288 0.0
O98 O 0.76871 0.8984 0.56559 0.0
Cd99 Cd 0.78039 0.90426 0.59955 0.0
Cd100 Cd 0.73298 0.91047 0.60723 0.0
O101 O 0.73023 0.9018 0.57152 0.0
O102 O 0.81291 0.89073 0.59903 0.0
O103 O 0.78448 0.87694 0.62216 0.0
C104 C 0.80576 0.87514 0.61402 0.0
C105 C 0.70629 0.89722 0.63587 0.0
C106 C 0.7477 0.89839 0.55771 0.0
C107 C 0.76542 0.95285 0.61304 0.0
O108 O 0.74466 0.94432 0.61378 0.0
O109 O 0.7831 0.93969 0.60854 0.0
O110 O 0.69991 0.9117 0.61952 0.0
O111 O 0.72752 0.88881 0.63517 0.0
O112 O 0.4025 0.06272 0.26704 0.0
Cd113 Cd 0.40599 0.09655 0.28044 0.0
Cd114 Cd 0.41321 0.10558 0.2331 0.0
O115 O 0.40143 0.07116 0.22887 0.0
O116 O 0.3925 0.09447 0.31303 0.0
O117 O 0.3768 0.11667 0.28484 0.0
C118 C 0.3759 0.10845 0.30615 0.0
C119 C 0.40117 0.1357 0.20753 0.0
C120 C 0.40018 0.05623 0.24565 0.0
C121 C 0.4545 0.11106 0.2669 0.0
O122 O 0.44728 0.1095 0.24569 0.0
O123 O 0.44027 0.10862 0.28415 0.0
O124 O 0.41542 0.11931 0.20068 0.0
O125 O 0.3926 0.13445 0.22869 0.0
O126 O 0.94642 0.40021 0.26871 0.0
Cd127 Cd 0.91187 0.40466 0.28004 0.0
Cd128 Cd 0.9063 0.41262 0.23286 0.0
O129 O 0.94053 0.40017 0.23008 0.0
O130 O 0.91214 0.39066 0.31241 0.0
O131 O 0.89032 0.37638 0.28325 0.0
C132 C 0.89781 0.3747 0.30477 0.0
C133 C 0.87634 0.40068 0.20724 0.0
C134 C 0.95426 0.39808 0.24774 0.0
C135 C 0.89985 0.45381 0.26628 0.0
O136 O 0.90294 0.4468 0.24515 0.0
O137 O 0.90029 0.43926 0.28342 0.0
O138 O 0.89334 0.41405 0.20011 0.0
O139 O 0.87685 0.39293 0.22874 0.0
O140 O 0.56014 0.90231 0.2483 0.0
Cd141 Cd 0.59377 0.90559 0.23442 0.0
Cd142 Cd 0.60317 0.91258 0.28176 0.0
O143 O 0.56887 0.90062 0.28635 0.0
O144 O 0.59014 0.8927 0.20179 0.0
O145 O 0.61337 0.87623 0.22866 0.0
C146 C 0.60428 0.87588 0.20772 0.0
C147 C 0.63353 0.90026 0.3068 0.0
C148 C 0.5538 0.89971 0.26971 0.0
C149 C 0.60855 0.95398 0.24803 0.0
O150 O 0.60694 0.94674 0.26925 0.0
O151 O 0.60607 0.93979 0.23076 0.0
O152 O 0.61704 0.91414 0.31413 0.0
O153 O 0.63236 0.89232 0.28541 0.0
O154 O 0.10689 0.56273 0.24309 0.0
Cd155 Cd 0.1029 0.59664 0.23023 0.0
Cd156 Cd 0.09396 0.60494 0.27724 0.0
O157 O 0.10511 0.57034 0.28141 0.0
O158 O 0.11722 0.59505 0.19805 0.0
O159 O 0.13192 0.61713 0.22686 0.0
C160 C 0.13351 0.60906 0.20554 0.0
C161 C 0.10622 0.63463 0.30313 0.0
C162 C 0.10796 0.55585 0.26445 0.0
C163 C 0.05375 0.6108 0.24237 0.0
O164 O 0.06033 0.60945 0.2638 0.0
O165 O 0.06848 0.60812 0.22557 0.0
O166 O 0.09146 0.61857 0.30966 0.0
O167 O 0.11507 0.63332 0.28209 0.0
O168 O 0.44637 0.89967 0.76329 0.0
Cd169 Cd 0.41298 0.90405 0.77737 0.0
Cd170 Cd 0.40256 0.90959 0.73035 0.0
O171 O 0.43714 0.89838 0.72533 0.0
O172 O 0.4157 0.89046 0.80977 0.0
O173 O 0.3919 0.87571 0.78239 0.0
C174 C 0.40094 0.87437 0.80333 0.0
C175 C 0.37225 0.8976 0.70498 0.0
C176 C 0.45243 0.89728 0.74178 0.0
C177 C 0.39862 0.95218 0.76327 0.0
O178 O 0.39884 0.94387 0.74237 0.0
O179 O 0.40231 0.93883 0.78096 0.0
O180 O 0.38886 0.91145 0.6979 0.0
O181 O 0.37334 0.88939 0.72627 0.0
O182 O 0.10925 0.44773 0.76386 0.0
Cd183 Cd 0.10543 0.41366 0.77657 0.0
Cd184 Cd 0.09634 0.4064 0.72933 0.0
O185 O 0.10798 0.44075 0.72541 0.0
O186 O 0.11916 0.41598 0.80898 0.0
O187 O 0.13431 0.39307 0.78108 0.0
C188 C 0.13555 0.4017 0.8022 0.0
C189 C 0.10882 0.37655 0.7037 0.0
C190 C 0.11054 0.45497 0.74263 0.0
C191 C 0.05608 0.40041 0.76416 0.0
O192 O 0.06255 0.40264 0.74273 0.0
O193 O 0.07103 0.4018 0.78089 0.0
O194 O 0.09454 0.39287 0.69679 0.0
O195 O 0.11692 0.37755 0.72504 0.0
O196 O 0.60925 0.06505 0.74024 0.0
Cd197 Cd 0.60575 0.09901 0.72738 0.0
Cd198 Cd 0.60231 0.10837 0.77467 0.0
O199 O 0.61385 0.07364 0.7781 0.0
O200 O 0.61913 0.09793 0.69475 0.0
O201 O 0.63475 0.11935 0.72363 0.0
C202 C 0.63573 0.11168 0.7021 0.0
C203 C 0.61425 0.13804 0.8009 0.0
C204 C 0.61311 0.05856 0.7614 0.0
C205 C 0.55857 0.11348 0.74344 0.0
O206 O 0.56763 0.11228 0.76397 0.0
O207 O 0.57127 0.11068 0.7251 0.0
O208 O 0.60101 0.12085 0.80769 0.0
O209 O 0.62208 0.13782 0.77943 0.0
O210 O 0.90268 0.56246 0.76456 0.0
Cd211 Cd 0.90538 0.59696 0.77644 0.0
Cd212 Cd 0.91265 0.60376 0.72966 0.0
O213 O 0.90042 0.5695 0.72619 0.0
O214 O 0.89148 0.59601 0.80887 0.0
O215 O 0.87567 0.61652 0.77948 0.0
C216 C 0.87463 0.6092 0.80111 0.0
C217 C 0.89967 0.63417 0.70499 0.0
C218 C 0.89981 0.55516 0.74349 0.0
C219 C 0.95393 0.61065 0.76292 0.0
O220 O 0.94696 0.60731 0.74182 0.0
O221 O 0.93933 0.61009 0.78003 0.0
O222 O 0.91378 0.61795 0.69741 0.0
O223 O 0.89181 0.63254 0.7264 0.0
O224 O 0.26347 0.40155 0.06213 0.0
Cd225 Cd 0.27687 0.40455 0.09603 0.0
Cd226 Cd 0.23005 0.41303 0.10446 0.0
O227 O 0.22532 0.40045 0.07043 0.0
O228 O 0.30908 0.39048 0.09313 0.0
O229 O 0.28123 0.37534 0.11613 0.0
C230 C 0.30228 0.37402 0.10733 0.0
C231 C 0.2051 0.40171 0.13538 0.0
C232 C 0.24213 0.39921 0.05554 0.0
C233 C 0.26477 0.45351 0.10962 0.0
O234 O 0.24342 0.44695 0.10726 0.0
O235 O 0.28155 0.4386 0.10847 0.0
O236 O 0.19798 0.41574 0.11892 0.0
O237 O 0.22618 0.39304 0.13382 0.0
O238 O 0.24441 0.56116 0.90225 0.0
Cd239 Cd 0.23039 0.59467 0.90573 0.0
Cd240 Cd 0.27727 0.60452 0.91362 0.0
O241 O 0.28242 0.57014 0.902 0.0
O242 O 0.19833 0.59177 0.89143 0.0
O243 O 0.22603 0.61538 0.87696 0.0
C244 C 0.20509 0.6064 0.87533 0.0
C245 C 0.30247 0.63501 0.90171 0.0
C246 C 0.26592 0.55496 0.9004 0.0
C247 C 0.24257 0.60925 0.95446 0.0
O248 O 0.26391 0.60836 0.94749 0.0
O249 O 0.22562 0.60625 0.94004 0.0
O250 O 0.30935 0.61888 0.91622 0.0
O251 O 0.28148 0.63333 0.89288 0.0
O252 O 0.40065 0.26422 0.94685 0.0
Cd253 Cd 0.40461 0.27658 0.91274 0.0
Cd254 Cd 0.41253 0.22903 0.90514 0.0
O255 O 0.40113 0.22575 0.93981 0.0
O256 O 0.39157 0.30931 0.91445 0.0
O257 O 0.37542 0.28107 0.89267 0.0
C258 C 0.37477 0.30244 0.90074 0.0
C259 C 0.39972 0.20337 0.87546 0.0
C260 C 0.39896 0.24302 0.95407 0.0
C261 C 0.45351 0.26289 0.89874 0.0
O262 O 0.44654 0.24162 0.90066 0.0
O263 O 0.4391 0.28002 0.90094 0.0
O264 O 0.41379 0.19634 0.89191 0.0
O265 O 0.39184 0.2248 0.87637 0.0
O266 O 0.76677 0.4466 0.9009 0.0
Cd267 Cd 0.77885 0.41269 0.90653 0.0
Cd268 Cd 0.7311 0.40541 0.91364 0.0
O269 O 0.72822 0.44077 0.90396 0.0
O270 O 0.8117 0.41371 0.89362 0.0
O271 O 0.78352 0.39135 0.87824 0.0
C272 C 0.80486 0.39944 0.87726 0.0
C273 C 0.70509 0.37612 0.90051 0.0
C274 C 0.74573 0.45448 0.90049 0.0
C275 C 0.76409 0.39938 0.95551 0.0
O276 O 0.74311 0.39972 0.94754 0.0
O277 O 0.78165 0.40292 0.94186 0.0
O278 O 0.6984 0.39224 0.91516 0.0
O279 O 0.72621 0.37747 0.89188 0.0
O280 O 0.60785 0.74653 0.94671 0.0
Cd281 Cd 0.60371 0.73337 0.9129 0.0
Cd282 Cd 0.59468 0.78103 0.90463 0.0
O283 O 0.60645 0.78487 0.9391 0.0
O284 O 0.61691 0.70071 0.91515 0.0
O285 O 0.63273 0.72852 0.89256 0.0
C286 C 0.63347 0.7073 0.90098 0.0
C287 C 0.60585 0.80728 0.87474 0.0
C288 C 0.60916 0.76787 0.95358 0.0
C289 C 0.55444 0.74609 0.89929 0.0
O290 O 0.56101 0.7675 0.90082 0.0
O291 O 0.56918 0.72926 0.90155 0.0
O292 O 0.59193 0.81372 0.89159 0.0
O293 O 0.61452 0.78616 0.87533 0.0
O294 O 0.74371 0.60612 0.05933 0.0
Cd295 Cd 0.72991 0.60206 0.09291 0.0
Cd296 Cd 0.77723 0.59358 0.10211 0.0
O297 O 0.78192 0.6046 0.06744 0.0
O298 O 0.69768 0.61607 0.08999 0.0
O299 O 0.72544 0.63121 0.11309 0.0
C300 C 0.70444 0.6325 0.10422 0.0
C301 C 0.80233 0.60605 0.1324 0.0
C302 C 0.76515 0.60736 0.05274 0.0
C303 C 0.74243 0.55315 0.10788 0.0
O304 O 0.7638 0.55997 0.10678 0.0
O305 O 0.72551 0.56761 0.10466 0.0
O306 O 0.80933 0.59132 0.11649 0.0
O307 O 0.78133 0.61485 0.13053 0.0
O308 O 0.44668 0.7657 0.10841 0.0
Cd309 Cd 0.41241 0.77817 0.10523 0.0
Cd310 Cd 0.40541 0.7309 0.09651 0.0
O311 O 0.43967 0.72725 0.10849 0.0
O312 O 0.41436 0.81085 0.11841 0.0
O313 O 0.39287 0.78255 0.13487 0.0
C314 C 0.40088 0.80393 0.13543 0.0
C315 C 0.37529 0.70525 0.10812 0.0
C316 C 0.45392 0.74452 0.11033 0.0
C317 C 0.39896 0.76519 0.05614 0.0
O318 O 0.40205 0.74392 0.06262 0.0
O319 O 0.39962 0.78198 0.07109 0.0
O320 O 0.3921 0.69834 0.09439 0.0
O321 O 0.37604 0.72655 0.11636 0.0
O322 O 0.56167 0.24307 0.10854 0.0
Cd323 Cd 0.59546 0.23003 0.10411 0.0
Cd324 Cd 0.60401 0.27714 0.09679 0.0
O325 O 0.56951 0.28135 0.10834 0.0
O326 O 0.5934 0.19768 0.118 0.0
O327 O 0.6164 0.22573 0.1327 0.0
C328 C 0.60776 0.20463 0.13424 0.0
C329 C 0.63441 0.30176 0.10981 0.0
C330 C 0.5549 0.26439 0.11044 0.0
C331 C 0.6093 0.24375 0.05524 0.0
O332 O 0.60802 0.26493 0.0626 0.0
O333 O 0.60673 0.22645 0.0694 0.0
O334 O 0.61813 0.30943 0.09589 0.0
O335 O 0.63295 0.28027 0.11743 0.0
O336 O 0.90086 0.76875 0.56472 0.0
Cd337 Cd 0.90665 0.7793 0.59919 0.0
Cd338 Cd 0.91179 0.73179 0.60496 0.0
O339 O 0.90171 0.73 0.56969 0.0
O340 O 0.89387 0.81213 0.59995 0.0
O341 O 0.87855 0.78278 0.62092 0.0
C342 C 0.87754 0.80451 0.6139 0.0
C343 C 0.89806 0.70596 0.63403 0.0
C344 C 0.8994 0.74796 0.55632 0.0
C345 C 0.95495 0.7628 0.61178 0.0
O346 O 0.94622 0.74217 0.61036 0.0
O347 O 0.94192 0.78097 0.60931 0.0
O348 O 0.91169 0.69875 0.61726 0.0
O349 O 0.89072 0.72759 0.63351 0.0
O350 O 0.26486 0.94929 0.60883 0.0
Cd351 Cd 0.27637 0.91501 0.60385 0.0
Cd352 Cd 0.2291 0.90851 0.59674 0.0
O353 O 0.22628 0.94314 0.6083 0.0
O354 O 0.3087 0.91526 0.61781 0.0
O355 O 0.27956 0.89329 0.63201 0.0
C356 C 0.30103 0.90088 0.63374 0.0
C357 C 0.20408 0.8787 0.61028 0.0
C358 C 0.24384 0.95696 0.61072 0.0
C359 C 0.26203 0.9017 0.55504 0.0
O360 O 0.24092 0.90376 0.56248 0.0
O361 O 0.27945 0.90387 0.56907 0.0
O362 O 0.19651 0.89512 0.59643 0.0
O363 O 0.22567 0.87983 0.61765 0.0
O364 O 0.11428 0.24169 0.56616 0.0
Cd365 Cd 0.10758 0.232 0.60077 0.0
Cd366 Cd 0.09786 0.27892 0.60317 0.0
O367 O 0.10723 0.28005 0.56772 0.0
O368 O 0.12187 0.1998 0.60153 0.0
O369 O 0.13498 0.22931 0.62356 0.0
C370 C 0.13738 0.20786 0.61609 0.0
C371 C 0.11088 0.30515 0.6321 0.0
C372 C 0.11259 0.26164 0.55595 0.0
C373 C 0.05739 0.24506 0.61129 0.0
O374 O 0.06439 0.26625 0.60901 0.0
O375 O 0.07194 0.22795 0.6097 0.0
O376 O 0.09628 0.31173 0.61589 0.0
O377 O 0.11965 0.28408 0.63087 0.0
O378 O 0.7459 0.06358 0.61027 0.0
Cd379 Cd 0.73513 0.09764 0.60369 0.0
Cd380 Cd 0.78266 0.10335 0.59908 0.0
O381 O 0.78465 0.06819 0.60959 0.0
O382 O 0.70204 0.09729 0.61588 0.0
O383 O 0.73002 0.12 0.63108 0.0
C384 C 0.70868 0.1119 0.63203 0.0
C385 C 0.80722 0.13281 0.61409 0.0
C386 C 0.76658 0.05506 0.61214 0.0
C387 C 0.75231 0.10916 0.5552 0.0
O388 O 0.77284 0.1087 0.56429 0.0
O389 O 0.73401 0.10647 0.56806 0.0
O390 O 0.8153 0.11651 0.60036 0.0
O391 O 0.78537 0.1316 0.62069 0.0
O392 O 0.94387 0.26819 0.39887 0.0
Cd393 Cd 0.90946 0.27841 0.40553 0.0
Cd394 Cd 0.90539 0.23105 0.4125 0.0
O395 O 0.94082 0.2295 0.4031 0.0
O396 O 0.90908 0.31132 0.39289 0.0
O397 O 0.88769 0.28239 0.37751 0.0
C398 C 0.89512 0.30396 0.37651 0.0
C399 C 0.87636 0.20573 0.39784 0.0
C400 C 0.95329 0.24778 0.39909 0.0
C401 C 0.89807 0.26294 0.45485 0.0
O402 O 0.89964 0.24209 0.44667 0.0
O403 O 0.90021 0.28075 0.44123 0.0
O404 O 0.89229 0.19835 0.41236 0.0
O405 O 0.87784 0.22722 0.39021 0.0
O406 O 0.76662 0.90124 0.44761 0.0
Cd407 Cd 0.7781 0.9044 0.41304 0.0
Cd408 Cd 0.731 0.91298 0.40729 0.0
O409 O 0.72794 0.902 0.44214 0.0
O410 O 0.81047 0.89042 0.41366 0.0
O411 O 0.78109 0.87506 0.39286 0.0
C412 C 0.80271 0.87385 0.40013 0.0
C413 C 0.70541 0.90025 0.37763 0.0
C414 C 0.74571 0.89963 0.4557 0.0
C415 C 0.76523 0.95335 0.39927 0.0
O416 O 0.74397 0.94675 0.40222 0.0
O417 O 0.78217 0.93864 0.40079 0.0
O418 O 0.69853 0.91476 0.3938 0.0
O419 O 0.72655 0.89168 0.37901 0.0
O420 O 0.0609 0.74131 0.40409 0.0
Cd421 Cd 0.09511 0.7288 0.40712 0.0
Cd422 Cd 0.10329 0.77579 0.41237 0.0
O423 O 0.06889 0.77937 0.40038 0.0
O424 O 0.09388 0.69646 0.39325 0.0
O425 O 0.11479 0.72567 0.37753 0.0
C426 C 0.10717 0.70416 0.3764 0.0
C427 C 0.13324 0.80137 0.39991 0.0
C428 C 0.05412 0.76242 0.40047 0.0
C429 C 0.10976 0.74339 0.4548 0.0
O430 O 0.10702 0.76421 0.44683 0.0
O431 O 0.10788 0.72559 0.44123 0.0
O432 O 0.11666 0.80836 0.41388 0.0
O433 O 0.13223 0.78005 0.39179 0.0
O434 O 0.24121 0.11033 0.44638 0.0
Cd435 Cd 0.22985 0.10394 0.41227 0.0
Cd436 Cd 0.27743 0.09591 0.40637 0.0
O437 O 0.27974 0.10558 0.44175 0.0
O438 O 0.19734 0.11767 0.41242 0.0
O439 O 0.22594 0.13106 0.3893 0.0
C440 C 0.2046 0.13303 0.39724 0.0
C441 C 0.30376 0.10892 0.37728 0.0
C442 C 0.26198 0.10994 0.45491 0.0
C443 C 0.244 0.05453 0.4001 0.0
O444 O 0.2651 0.06216 0.40066 0.0
O445 O 0.22661 0.06844 0.40334 0.0
O446 O 0.31023 0.09423 0.39344 0.0
O447 O 0.28268 0.11765 0.3785 0.0
O448 O 0.60741 0.94917 0.74191 0.0
Cd449 Cd 0.60304 0.91473 0.73004 0.0
Cd450 Cd 0.59283 0.90896 0.77723 0.0
O451 O 0.60481 0.94337 0.7805 0.0
O452 O 0.61798 0.91538 0.69806 0.0
O453 O 0.63143 0.89317 0.72733 0.0
C454 C 0.63367 0.90088 0.70593 0.0
C455 C 0.60456 0.87901 0.80311 0.0
C456 C 0.60829 0.95702 0.76296 0.0
C457 C 0.55338 0.90173 0.74184 0.0
O458 O 0.55937 0.90474 0.76328 0.0
O459 O 0.56868 0.90277 0.72537 0.0
O460 O 0.59012 0.89537 0.80969 0.0
O461 O 0.61348 0.88024 0.78208 0.0
O462 O 0.06337 0.61 0.74266 0.0
Cd463 Cd 0.09787 0.60578 0.73107 0.0
Cd464 Cd 0.10365 0.59649 0.77798 0.0
O465 O 0.06939 0.60877 0.78125 0.0
O466 O 0.09748 0.62043 0.699 0.0
O467 O 0.11956 0.63402 0.72828 0.0
C468 C 0.112 0.6361 0.70683 0.0
C469 C 0.13367 0.60786 0.80379 0.0
C470 C 0.0556 0.61142 0.76371 0.0
C471 C 0.10996 0.55626 0.74342 0.0
O472 O 0.10703 0.56267 0.76475 0.0
O473 O 0.10936 0.57129 0.7267 0.0
O474 O 0.11674 0.59424 0.81062 0.0
O475 O 0.13306 0.61615 0.7825 0.0
O476 O 0.44786 0.10868 0.76784 0.0
Cd477 Cd 0.41342 0.10279 0.7783 0.0
Cd478 Cd 0.40826 0.09748 0.73052 0.0
O479 O 0.44332 0.10841 0.72903 0.0
O480 O 0.4134 0.11557 0.81118 0.0
O481 O 0.39161 0.13077 0.78246 0.0
C482 C 0.39932 0.13194 0.80394 0.0
C483 C 0.37898 0.11123 0.70498 0.0
C484 C 0.45644 0.11066 0.74716 0.0
C485 C 0.40126 0.05428 0.76155 0.0
O486 O 0.40316 0.06288 0.74087 0.0
O487 O 0.40323 0.06745 0.77971 0.0
O488 O 0.39584 0.09785 0.69752 0.0
O489 O 0.37952 0.11828 0.72673 0.0
O490 O 0.90077 0.44682 0.76628 0.0
Cd491 Cd 0.90559 0.41309 0.77939 0.0
Cd492 Cd 0.91334 0.4046 0.73195 0.0
O493 O 0.9021 0.43918 0.72794 0.0
O494 O 0.89186 0.41513 0.81187 0.0
O495 O 0.87748 0.39155 0.78416 0.0
C496 C 0.87593 0.40029 0.80523 0.0
C497 C 0.90057 0.37474 0.70647 0.0
C498 C 0.89942 0.45368 0.74493 0.0
C499 C 0.95464 0.39954 0.76575 0.0
O500 O 0.94736 0.40039 0.74452 0.0
O501 O 0.94044 0.40241 0.783 0.0
O502 O 0.91478 0.39105 0.69939 0.0
O503 O 0.89257 0.37584 0.72787 0.0
O504 O 0.56276 0.10713 0.2454 0.0
Cd505 Cd 0.59698 0.10401 0.2328 0.0
Cd506 Cd 0.60441 0.09739 0.28 0.0
O507 O 0.57067 0.11103 0.28345 0.0
O508 O 0.59508 0.11673 0.19993 0.0
O509 O 0.61637 0.13363 0.22811 0.0
C510 C 0.60844 0.13387 0.20668 0.0
C511 C 0.63508 0.10874 0.30514 0.0
C512 C 0.55595 0.111 0.26648 0.0
C513 C 0.60988 0.05554 0.24715 0.0
O514 O 0.60655 0.06286 0.26814 0.0
O515 O 0.60986 0.0699 0.22985 0.0
O516 O 0.61781 0.09591 0.3126 0.0
O517 O 0.63452 0.11623 0.28355 0.0
O518 O 0.90028 0.56223 0.24334 0.0
Cd519 Cd 0.90341 0.59628 0.23025 0.0
Cd520 Cd 0.91271 0.60409 0.27748 0.0
O521 O 0.90143 0.56966 0.28173 0.0
O522 O 0.89002 0.59374 0.19771 0.0
O523 O 0.87381 0.6158 0.22574 0.0
C524 C 0.87314 0.60744 0.20448 0.0
C525 C 0.90076 0.63397 0.30338 0.0
C526 C 0.89907 0.55522 0.26467 0.0
C527 C 0.95257 0.61035 0.24229 0.0
O528 O 0.94629 0.60799 0.26374 0.0
O529 O 0.9375 0.60892 0.22569 0.0
O530 O 0.91545 0.61783 0.30984 0.0
O531 O 0.89183 0.63267 0.28239 0.0
O532 O 0.39925 0.94783 0.26628 0.0
Cd533 Cd 0.40326 0.91403 0.2795 0.0
Cd534 Cd 0.41334 0.90562 0.23264 0.0
O535 O 0.40278 0.9404 0.22803 0.0
O536 O 0.38811 0.91594 0.31131 0.0
O537 O 0.37489 0.89257 0.28283 0.0
C538 C 0.37253 0.90109 0.30391 0.0
C539 C 0.40142 0.8756 0.20692 0.0
C540 C 0.39922 0.95483 0.24493 0.0
C541 C 0.45276 0.90006 0.26851 0.0
O542 O 0.44658 0.90095 0.24694 0.0
O543 O 0.43775 0.90313 0.285 0.0
O544 O 0.41642 0.89147 0.20046 0.0
O545 O 0.39209 0.87735 0.22773 0.0
O546 O 0.10634 0.44703 0.24541 0.0
Cd547 Cd 0.10413 0.41245 0.23371 0.0
Cd548 Cd 0.09779 0.40587 0.28078 0.0
O549 O 0.11018 0.44012 0.28366 0.0
O550 O 0.11686 0.4139 0.20081 0.0
O551 O 0.13425 0.39372 0.22952 0.0
C552 C 0.13434 0.40116 0.20791 0.0
C553 C 0.11114 0.37569 0.3055 0.0
C554 C 0.10988 0.45443 0.26633 0.0
C555 C 0.05599 0.39856 0.24838 0.0
O556 O 0.06323 0.40241 0.26931 0.0
O557 O 0.07035 0.3987 0.23106 0.0
O558 O 0.09764 0.39229 0.31334 0.0
O559 O 0.1181 0.37669 0.28374 0.0
O560 O 0.74342 0.60758 0.94536 0.0
Cd561 Cd 0.72952 0.60436 0.91175 0.0
Cd562 Cd 0.7765 0.59853 0.90194 0.0
O563 O 0.78135 0.61021 0.93632 0.0
O564 O 0.69734 0.61847 0.91469 0.0
O565 O 0.72514 0.63336 0.89141 0.0
C566 C 0.70417 0.63486 0.90041 0.0
C567 C 0.80204 0.61018 0.87152 0.0
C568 C 0.7648 0.61049 0.95156 0.0
C569 C 0.74325 0.55631 0.89751 0.0
O570 O 0.7642 0.56428 0.89889 0.0
O571 O 0.72558 0.56995 0.90005 0.0
O572 O 0.80883 0.59604 0.88801 0.0
O573 O 0.78094 0.61883 0.87279 0.0
O574 O 0.76528 0.44581 0.10863 0.0
Cd575 Cd 0.77932 0.41222 0.10542 0.0
Cd576 Cd 0.7324 0.40226 0.09952 0.0
O577 O 0.72736 0.43669 0.11091 0.0
O578 O 0.81152 0.4152 0.11939 0.0
O579 O 0.78386 0.39182 0.13435 0.0
C580 C 0.80482 0.4008 0.13574 0.0
C581 C 0.70688 0.37193 0.11135 0.0
C582 C 0.74385 0.45197 0.11133 0.0
C583 C 0.76584 0.39758 0.0574 0.0
O584 O 0.74484 0.39888 0.06531 0.0
O585 O 0.78342 0.40042 0.07106 0.0
O586 O 0.70013 0.38827 0.09704 0.0
O587 O 0.72792 0.37331 0.12009 0.0
O588 O 0.60669 0.7461 0.06126 0.0
Cd589 Cd 0.60406 0.73207 0.09498 0.0
Cd590 Cd 0.59565 0.77954 0.10391 0.0
O591 O 0.60867 0.78414 0.07 0.0
O592 O 0.61711 0.69948 0.09113 0.0
O593 O 0.63393 0.72656 0.11384 0.0
C594 C 0.63418 0.70556 0.10487 0.0
C595 C 0.60539 0.8055 0.13456 0.0
C596 C 0.60946 0.76748 0.05492 0.0
C597 C 0.55527 0.74458 0.10907 0.0
O598 O 0.56182 0.7659 0.10643 0.0
O599 O 0.57015 0.72776 0.10805 0.0
O600 O 0.5919 0.81194 0.1174 0.0
O601 O 0.61434 0.7845 0.13399 0.0
O602 O 0.2444 0.56215 0.10913 0.0
Cd603 Cd 0.23155 0.59619 0.10527 0.0
Cd604 Cd 0.27845 0.60346 0.09548 0.0
O605 O 0.2828 0.56911 0.10705 0.0
O606 O 0.19933 0.59393 0.11942 0.0
O607 O 0.22731 0.61705 0.13401 0.0
C608 C 0.2062 0.60845 0.13554 0.0
C609 C 0.30381 0.63377 0.10725 0.0
C610 C 0.26565 0.5549 0.11002 0.0
C611 C 0.24317 0.60921 0.05572 0.0
O612 O 0.26464 0.60706 0.06192 0.0
O613 O 0.22662 0.60785 0.0709 0.0
O614 O 0.3106 0.61761 0.0927 0.0
O615 O 0.28282 0.63221 0.11618 0.0
O616 O 0.40249 0.26517 0.06225 0.0
Cd617 Cd 0.40499 0.27783 0.09648 0.0
Cd618 Cd 0.41247 0.23108 0.1043 0.0
O619 O 0.39942 0.22711 0.07038 0.0
O620 O 0.39137 0.3103 0.09457 0.0
O621 O 0.37511 0.28158 0.1157 0.0
C622 C 0.37433 0.30301 0.10782 0.0
C623 C 0.4008 0.20621 0.13508 0.0
C624 C 0.39917 0.24399 0.05554 0.0
C625 C 0.45357 0.2647 0.11015 0.0
O626 O 0.44675 0.24354 0.10692 0.0
O627 O 0.43884 0.28167 0.10973 0.0
O628 O 0.41411 0.19871 0.11817 0.0
O629 O 0.39306 0.22768 0.1341 0.0
O630 O 0.26454 0.40002 0.94769 0.0
Cd631 Cd 0.27824 0.40444 0.91412 0.0
Cd632 Cd 0.23122 0.41339 0.90499 0.0
O633 O 0.22638 0.40196 0.93946 0.0
O634 O 0.31036 0.39011 0.91661 0.0
O635 O 0.28264 0.37606 0.89285 0.0
C636 C 0.30357 0.37423 0.90178 0.0
C637 C 0.20605 0.40148 0.87456 0.0
C638 C 0.24307 0.39901 0.95422 0.0
C639 C 0.26614 0.45376 0.90033 0.0
O640 O 0.24471 0.44709 0.90112 0.0
O641 O 0.28294 0.43909 0.90328 0.0
O642 O 0.19898 0.41565 0.89092 0.0
O643 O 0.22723 0.39303 0.87591 0.0
O644 O 0.56253 0.24366 0.90146 0.0
Cd645 Cd 0.59705 0.232 0.90465 0.0
Cd646 Cd 0.60336 0.27892 0.91263 0.0
O647 O 0.5693 0.28206 0.89966 0.0
O648 O 0.5964 0.19996 0.88992 0.0
O649 O 0.61788 0.22945 0.87571 0.0
C650 C 0.61037 0.20796 0.87378 0.0
C651 C 0.63344 0.30465 0.90084 0.0
C652 C 0.55509 0.26467 0.89873 0.0
C653 C 0.60954 0.24497 0.95365 0.0
O654 O 0.60635 0.26616 0.94684 0.0
O655 O 0.60926 0.22802 0.93888 0.0
O656 O 0.61648 0.31164 0.91435 0.0
O657 O 0.63291 0.28319 0.893 0.0
O658 O 0.4465 0.76614 0.90304 0.0
Cd659 Cd 0.41244 0.77881 0.90625 0.0
Cd660 Cd 0.40415 0.73179 0.91333 0.0
O661 O 0.43839 0.72801 0.90075 0.0
O662 O 0.41408 0.81124 0.89256 0.0
O663 O 0.39266 0.78249 0.8768 0.0
C664 C 0.40054 0.80391 0.8758 0.0
C665 C 0.37391 0.70643 0.90138 0.0
C666 C 0.45319 0.74491 0.90005 0.0
C667 C 0.39838 0.76532 0.95476 0.0
O668 O 0.40064 0.74413 0.94762 0.0
O669 O 0.4001 0.78254 0.94043 0.0
O670 O 0.39074 0.69923 0.9149 0.0
O671 O 0.37471 0.72787 0.89354 0.0
C672 C 0.13005 0.359 0.34188 0.0
C673 C 0.11681 0.35524 0.32094 0.0
C674 C 0.1087 0.31439 0.33326 0.0
C675 C 0.11859 0.31945 0.3558 0.0
N676 N 0.13959 0.34589 0.38168 0.0
N677 N 0.09237 0.32998 0.29681 0.0
C678 C 0.12976 0.34152 0.36004 0.0
C679 C 0.10627 0.33293 0.31639 0.0
N680 N 0.14312 0.37919 0.34413 0.0
N681 N 0.10109 0.29204 0.32809 0.0
H682 H 0.09025 0.34292 0.28387 0.0
H683 H 0.08156 0.31535 0.29408 0.0
H684 H 0.10126 0.27819 0.34021 0.0
H685 H 0.09633 0.28662 0.31116 0.0
H686 H 0.15481 0.38235 0.35796 0.0
H687 H 0.14377 0.39209 0.33094 0.0
H688 H 0.14543 0.36246 0.38712 0.0
H689 H 0.1412 0.33288 0.39466 0.0
C690 C 0.66976 0.12518 0.36003 0.0
C691 C 0.69128 0.11294 0.35581 0.0
C692 C 0.67738 0.1013 0.31634 0.0
C693 C 0.65566 0.11311 0.32079 0.0
N694 N 0.63292 0.14052 0.34402 0.0
N695 N 0.71777 0.09355 0.32845 0.0
C696 C 0.65244 0.12642 0.3418 0.0
C697 C 0.69589 0.1026 0.33335 0.0
N698 N 0.66575 0.13515 0.3817 0.0
N699 N 0.6797 0.08741 0.29666 0.0
H700 H 0.73142 0.09287 0.34077 0.0
H701 H 0.72308 0.08828 0.31162 0.0
H702 H 0.66679 0.08619 0.28359 0.0
H703 H 0.69373 0.07582 0.29388 0.0
H704 H 0.64946 0.14179 0.38709 0.0
H705 H 0.6787 0.136 0.3948 0.0
H706 H 0.6303 0.15233 0.35789 0.0
H707 H 0.62014 0.14188 0.3308 0.0
C708 C 0.90598 0.69352 0.33357 0.0
C709 C 0.89495 0.68856 0.35561 0.0
C710 C 0.88381 0.64906 0.34153 0.0
C711 C 0.8953 0.65381 0.3197 0.0
N712 N 0.91275 0.68197 0.29278 0.0
N713 N 0.86892 0.66435 0.37892 0.0
C714 C 0.90465 0.67662 0.31495 0.0
C715 C 0.88242 0.66714 0.35903 0.0
N716 N 0.91922 0.7136 0.33101 0.0
N717 N 0.87472 0.62705 0.34567 0.0
H718 H 0.86747 0.67746 0.39183 0.0
H719 H 0.85765 0.65009 0.38176 0.0
H720 H 0.87399 0.61399 0.33265 0.0
H721 H 0.86873 0.62136 0.36212 0.0
H722 H 0.93025 0.71681 0.31661 0.0
H723 H 0.92054 0.72657 0.34404 0.0
H724 H 0.9173 0.69899 0.28747 0.0
H725 H 0.91325 0.66978 0.27898 0.0
C726 C 0.32935 0.90382 0.31383 0.0
C727 C 0.35218 0.89495 0.31935 0.0
C728 C 0.33772 0.88169 0.35813 0.0
C729 C 0.31625 0.89396 0.35409 0.0
N730 N 0.29156 0.91769 0.32867 0.0
N731 N 0.37836 0.87465 0.34607 0.0
C732 C 0.3118 0.90484 0.33189 0.0
C733 C 0.35636 0.88342 0.34125 0.0
N734 N 0.3246 0.91177 0.2915 0.0
N735 N 0.34004 0.86814 0.37802 0.0
H736 H 0.39185 0.87415 0.33347 0.0
H737 H 0.38358 0.86868 0.36266 0.0
H738 H 0.32649 0.86641 0.39046 0.0
H739 H 0.35436 0.85707 0.38127 0.0
H740 H 0.30768 0.91598 0.28563 0.0
H741 H 0.33723 0.91243 0.27809 0.0
H742 H 0.28862 0.92863 0.31416 0.0
H743 H 0.27814 0.91877 0.34127 0.0
C744 C 0.13031 0.65161 0.66949 0.0
C745 C 0.11884 0.65623 0.69137 0.0
C746 C 0.10973 0.69665 0.67845 0.0
C747 C 0.12025 0.69164 0.65617 0.0
N748 N 0.14536 0.66711 0.63224 0.0
N749 N 0.10282 0.68456 0.71904 0.0
C750 C 0.13215 0.66994 0.65231 0.0
C751 C 0.11053 0.67932 0.69671 0.0
N752 N 0.13891 0.62946 0.66501 0.0
N753 N 0.09734 0.7172 0.68157 0.0
H754 H 0.1019 0.67216 0.73261 0.0
H755 H 0.0991 0.70166 0.72475 0.0
H756 H 0.09653 0.73054 0.6689 0.0
H757 H 0.08654 0.72053 0.69612 0.0
H758 H 0.14488 0.62388 0.64852 0.0
H759 H 0.13939 0.61622 0.67787 0.0
H760 H 0.1561 0.65254 0.62895 0.0
H761 H 0.14711 0.68046 0.61961 0.0
C762 C 0.34493 0.1277 0.64973 0.0
C763 C 0.323 0.11632 0.65418 0.0
C764 C 0.33638 0.10532 0.694 0.0
C765 C 0.35853 0.1162 0.68931 0.0
N766 N 0.38221 0.14222 0.66547 0.0
N767 N 0.2957 0.09897 0.6821 0.0
C768 C 0.36224 0.12885 0.66799 0.0
C769 C 0.31794 0.10692 0.67693 0.0
N770 N 0.34933 0.13694 0.62781 0.0
N771 N 0.33352 0.09185 0.71391 0.0
H772 H 0.28202 0.09847 0.6698 0.0
H773 H 0.29019 0.09453 0.6991 0.0
H774 H 0.34638 0.09023 0.72698 0.0
H775 H 0.31905 0.08087 0.71684 0.0
H776 H 0.36585 0.14288 0.62231 0.0
H777 H 0.33645 0.1379 0.61465 0.0
H778 H 0.38529 0.15354 0.6513 0.0
H779 H 0.39497 0.1435 0.67874 0.0
C780 C 0.90289 0.31364 0.67826 0.0
C781 C 0.89436 0.3192 0.65528 0.0
C782 C 0.88311 0.35886 0.66906 0.0
C783 C 0.89513 0.35455 0.69061 0.0
N784 N 0.91758 0.3284 0.71574 0.0
N785 N 0.87542 0.34645 0.62864 0.0
C786 C 0.90486 0.33192 0.69547 0.0
C787 C 0.88397 0.34159 0.65073 0.0
N788 N 0.90964 0.29103 0.68352 0.0
N789 N 0.87064 0.37939 0.66637 0.0
H790 H 0.87421 0.33364 0.61542 0.0
H791 H 0.87029 0.36323 0.6231 0.0
H792 H 0.86957 0.39214 0.67968 0.0
H793 H 0.85978 0.38298 0.65198 0.0
H794 H 0.9134 0.28529 0.7006 0.0
H795 H 0.9097 0.27734 0.67121 0.0
H796 H 0.92781 0.31344 0.7189 0.0
H797 H 0.91932 0.34116 0.72892 0.0
C798 C 0.69471 0.90319 0.67833 0.0
C799 C 0.6901 0.89258 0.65603 0.0
C800 C 0.64975 0.88281 0.66868 0.0
C801 C 0.65403 0.89426 0.69063 0.0
N802 N 0.68186 0.91047 0.71863 0.0
N803 N 0.66585 0.86765 0.63171 0.0
C804 C 0.67703 0.90259 0.69629 0.0
C805 C 0.66839 0.88085 0.6518 0.0
N806 N 0.71528 0.91545 0.68174 0.0
N807 N 0.62765 0.87432 0.66384 0.0
H808 H 0.67941 0.86581 0.61929 0.0
H809 H 0.65129 0.85699 0.6282 0.0
H810 H 0.61418 0.87389 0.67646 0.0
H811 H 0.62235 0.86838 0.64726 0.0
H812 H 0.71842 0.92629 0.69627 0.0
H813 H 0.72887 0.91609 0.6693 0.0
H814 H 0.69885 0.91416 0.72462 0.0
H815 H 0.66918 0.91163 0.73195 0.0
C816 C 0.33319 0.10336 0.31726 0.0
C817 C 0.35565 0.11344 0.32213 0.0
C818 C 0.34231 0.12473 0.36191 0.0
C819 C 0.32002 0.11417 0.35727 0.0
N820 N 0.29229 0.09812 0.32905 0.0
N821 N 0.38009 0.13828 0.34641 0.0
C822 C 0.31476 0.10527 0.33436 0.0
C823 C 0.3597 0.1256 0.34367 0.0
N824 N 0.32998 0.09041 0.29707 0.0
N825 N 0.34694 0.13347 0.38397 0.0
H826 H 0.39295 0.13936 0.3332 0.0
H827 H 0.38345 0.14929 0.36076 0.0
H828 H 0.33405 0.13468 0.39713 0.0
H829 H 0.36365 0.13873 0.38958 0.0
H830 H 0.31518 0.07995 0.29391 0.0
H831 H 0.34285 0.08869 0.28398 0.0
H832 H 0.28672 0.0941 0.31198 0.0
H833 H 0.27855 0.09791 0.34131 0.0
C834 C 0.87797 0.34105 0.35957 0.0
C835 C 0.89014 0.31946 0.35592 0.0
C836 C 0.89993 0.33162 0.31533 0.0
C837 C 0.89125 0.35464 0.32044 0.0
N838 N 0.87083 0.38138 0.34656 0.0
N839 N 0.91371 0.29413 0.33086 0.0
C840 C 0.87968 0.35929 0.34226 0.0
C841 C 0.9009 0.31447 0.33374 0.0
N842 N 0.86461 0.34386 0.37954 0.0
N843 N 0.9078 0.32629 0.29309 0.0
H844 H 0.91475 0.28093 0.34367 0.0
H845 H 0.92466 0.29089 0.31641 0.0
H846 H 0.90867 0.33857 0.27941 0.0
H847 H 0.91174 0.30918 0.28755 0.0
H848 H 0.85366 0.35832 0.38264 0.0
H849 H 0.86295 0.33059 0.39226 0.0
H850 H 0.86477 0.38699 0.36301 0.0
H851 H 0.87025 0.39452 0.33362 0.0
C852 C 0.69453 0.90443 0.33482 0.0
C853 C 0.68946 0.89486 0.35749 0.0
C854 C 0.65026 0.88238 0.34361 0.0
C855 C 0.65399 0.89518 0.32238 0.0
N856 N 0.67902 0.91934 0.2977 0.0
N857 N 0.66318 0.87399 0.38371 0.0
C858 C 0.67614 0.90603 0.31771 0.0
C859 C 0.66757 0.88339 0.36186 0.0
N860 N 0.71676 0.91251 0.32979 0.0
N861 N 0.63026 0.86903 0.34604 0.0
H862 H 0.67607 0.87298 0.39687 0.0
H863 H 0.64668 0.86795 0.38917 0.0
H864 H 0.61749 0.86787 0.33278 0.0
H865 H 0.62717 0.85762 0.36014 0.0
H866 H 0.7223 0.91722 0.31288 0.0
H867 H 0.73041 0.91286 0.34213 0.0
H868 H 0.6935 0.93029 0.29468 0.0
H869 H 0.66619 0.92072 0.28456 0.0
C870 C 0.10233 0.67721 0.31487 0.0
C871 C 0.11178 0.65441 0.31945 0.0
C872 C 0.12463 0.66752 0.35881 0.0
C873 C 0.11191 0.68887 0.35561 0.0
N874 N 0.08759 0.71403 0.33122 0.0
N875 N 0.13258 0.62758 0.34512 0.0
C876 C 0.1009 0.69397 0.33362 0.0
C877 C 0.12335 0.64957 0.34119 0.0
N878 N 0.09424 0.68269 0.29276 0.0
N879 N 0.13819 0.66467 0.37861 0.0
H880 H 0.13337 0.61462 0.332 0.0
H881 H 0.13866 0.6218 0.3615 0.0
H882 H 0.13958 0.67771 0.39161 0.0
H883 H 0.14957 0.65048 0.38129 0.0
H884 H 0.08958 0.69972 0.28758 0.0
H885 H 0.0939 0.67061 0.27886 0.0
H886 H 0.07654 0.7173 0.31688 0.0
H887 H 0.08627 0.72692 0.34433 0.0
C888 C 0.32969 0.90399 0.69417 0.0
C889 C 0.35175 0.89301 0.6893 0.0
C890 C 0.33829 0.88262 0.64938 0.0
C891 C 0.31658 0.89442 0.6539 0.0
N892 N 0.28929 0.91157 0.68196 0.0
N893 N 0.37525 0.8672 0.66506 0.0
C894 C 0.31143 0.90329 0.67685 0.0
C895 C 0.35543 0.88078 0.66773 0.0
N896 N 0.32681 0.91665 0.7146 0.0
N897 N 0.34265 0.8737 0.62733 0.0
H898 H 0.38787 0.86542 0.6784 0.0
H899 H 0.37832 0.85618 0.65064 0.0
H900 H 0.32982 0.87324 0.61409 0.0
H901 H 0.35907 0.86748 0.62181 0.0
H902 H 0.31247 0.92772 0.71787 0.0
H903 H 0.33951 0.91734 0.72792 0.0
H904 H 0.28366 0.91574 0.69899 0.0
H905 H 0.27577 0.91263 0.66953 0.0
C906 C 0.10449 0.33387 0.69232 0.0
C907 C 0.11433 0.35649 0.68769 0.0
C908 C 0.12624 0.34365 0.64794 0.0
C909 C 0.11584 0.32123 0.6523 0.0
N910 N 0.0998 0.29305 0.68015 0.0
N911 N 0.13914 0.38146 0.66386 0.0
C912 C 0.10677 0.31563 0.67509 0.0
C913 C 0.12669 0.36089 0.66632 0.0
N914 N 0.09143 0.33032 0.71239 0.0
N915 N 0.13519 0.34857 0.62601 0.0
H916 H 0.13991 0.39421 0.67719 0.0
H917 H 0.15025 0.3851 0.64965 0.0
H918 H 0.13669 0.3358 0.61278 0.0
H919 H 0.14036 0.36537 0.62058 0.0
H920 H 0.08111 0.31538 0.71537 0.0
H921 H 0.08949 0.34304 0.7256 0.0
H922 H 0.09569 0.28726 0.69714 0.0
H923 H 0.0998 0.27941 0.66779 0.0
C924 C 0.69727 0.10852 0.67484 0.0
C925 C 0.69235 0.11752 0.65189 0.0
C926 C 0.65255 0.12913 0.66501 0.0
C927 C 0.65623 0.11676 0.6865 0.0
N928 N 0.68142 0.09329 0.71168 0.0
N929 N 0.66593 0.13717 0.62494 0.0
C930 C 0.67857 0.10652 0.69162 0.0
C931 C 0.6702 0.12827 0.64701 0.0
N932 N 0.71964 0.10133 0.6805 0.0
N933 N 0.63228 0.14195 0.66207 0.0
H934 H 0.67904 0.13837 0.61199 0.0
H935 H 0.64935 0.14259 0.61913 0.0
H936 H 0.61925 0.14302 0.67512 0.0
H937 H 0.62918 0.15308 0.64775 0.0
H938 H 0.72491 0.09726 0.69765 0.0
H939 H 0.73361 0.10119 0.6685 0.0
H940 H 0.69613 0.08271 0.71491 0.0
H941 H 0.66834 0.09141 0.72454 0.0
C942 C 0.88057 0.66885 0.65058 0.0
C943 C 0.89318 0.69014 0.6544 0.0
C944 C 0.90311 0.67721 0.69468 0.0
C945 C 0.89379 0.6545 0.68942 0.0
N946 N 0.87273 0.62851 0.66312 0.0
N947 N 0.91753 0.7146 0.67947 0.0
C948 C 0.88202 0.65035 0.66763 0.0
C949 C 0.90428 0.69458 0.67649 0.0
N950 N 0.86699 0.66657 0.63073 0.0
N951 N 0.91138 0.68203 0.71688 0.0
H952 H 0.91873 0.72793 0.6668 0.0
H953 H 0.92867 0.71743 0.69382 0.0
H954 H 0.91215 0.66952 0.73036 0.0
H955 H 0.91581 0.69895 0.7226 0.0
H956 H 0.85571 0.6524 0.62757 0.0
H957 H 0.8655 0.68002 0.61817 0.0
H958 H 0.86648 0.62323 0.64664 0.0
H959 H 0.87199 0.61518 0.67587 0.0
C960 C 0.34006 0.35816 0.12425 0.0
C961 C 0.31834 0.35389 0.11243 0.0
C962 C 0.33189 0.31422 0.10111 0.0
C963 C 0.35384 0.31874 0.11242 0.0
N964 N 0.37708 0.34217 0.13916 0.0
N965 N 0.29139 0.32646 0.094 0.0
C966 C 0.35734 0.33987 0.12542 0.0
C967 C 0.31347 0.33134 0.10252 0.0
N968 N 0.3443 0.37992 0.13387 0.0
N969 N 0.32925 0.29432 0.08759 0.0
H970 H 0.27777 0.33885 0.09356 0.0
H971 H 0.28593 0.30962 0.08897 0.0
H972 H 0.34211 0.28118 0.08635 0.0
H973 H 0.31498 0.29141 0.07637 0.0
H974 H 0.36072 0.38531 0.14014 0.0
H975 H 0.33142 0.39311 0.13478 0.0
H976 H 0.37993 0.35616 0.15075 0.0
H977 H 0.38984 0.3289 0.14046 0.0
C978 C 0.35737 0.66945 0.88368 0.0
C979 C 0.35356 0.69062 0.89654 0.0
C980 C 0.31314 0.67785 0.90604 0.0
C981 C 0.31832 0.65525 0.89638 0.0
N982 N 0.34473 0.62926 0.87537 0.0
N983 N 0.32848 0.71501 0.921 0.0
C984 C 0.34021 0.65106 0.8848 0.0
C985 C 0.33143 0.69508 0.90758 0.0
N986 N 0.3773 0.6672 0.87016 0.0
N987 N 0.29089 0.68269 0.91422 0.0
H988 H 0.34125 0.7282 0.9224 0.0
H989 H 0.31402 0.71788 0.93204 0.0
H990 H 0.27733 0.67024 0.91451 0.0
H991 H 0.28526 0.69953 0.91904 0.0
H992 H 0.3804 0.65315 0.85868 0.0
H993 H 0.38997 0.68055 0.86891 0.0
H994 H 0.36126 0.62394 0.86928 0.0
H995 H 0.33195 0.61599 0.87444 0.0
C996 C 0.31408 0.33127 0.90542 0.0
C997 C 0.31944 0.35403 0.89626 0.0
C998 C 0.35855 0.33987 0.88365 0.0
C999 C 0.35454 0.31846 0.89604 0.0
N1000 N 0.32915 0.2938 0.91988 0.0
N1001 N 0.34617 0.38029 0.87604 0.0
C1002 C 0.3323 0.31392 0.90681 0.0
C1003 C 0.34146 0.35833 0.88498 0.0
N1004 N 0.29174 0.32637 0.91329 0.0
N1005 N 0.37861 0.34228 0.87034 0.0
H1006 H 0.33346 0.39365 0.87525 0.0
H1007 H 0.36278 0.38564 0.87021 0.0
H1008 H 0.39123 0.32888 0.86893 0.0
H1009 H 0.38187 0.35653 0.85918 0.0
H1010 H 0.28601 0.30945 0.91768 0.0
H1011 H 0.27822 0.33887 0.91374 0.0
H1012 H 0.31459 0.29084 0.93075 0.0
H1013 H 0.34186 0.28053 0.9212 0.0
C1014 C 0.64958 0.34208 0.88353 0.0
C1015 C 0.65364 0.32069 0.89595 0.0
C1016 C 0.69436 0.3332 0.90439 0.0
C1017 C 0.68903 0.35599 0.89524 0.0
N1018 N 0.6621 0.38238 0.8755 0.0
N1019 N 0.67922 0.29605 0.91954 0.0
C1020 C 0.66682 0.36042 0.88443 0.0
C1021 C 0.67602 0.31605 0.90631 0.0
N1022 N 0.62934 0.34459 0.87058 0.0
N1023 N 0.71679 0.32807 0.91177 0.0
H1024 H 0.66641 0.28293 0.92131 0.0
H1025 H 0.69394 0.29308 0.93018 0.0
H1026 H 0.73046 0.34038 0.91193 0.0
H1027 H 0.72243 0.31107 0.91601 0.0
H1028 H 0.62602 0.35881 0.85939 0.0
H1029 H 0.61659 0.3313 0.86945 0.0
H1030 H 0.64541 0.38785 0.87004 0.0
H1031 H 0.67491 0.39561 0.87433 0.0
C1032 C 0.69379 0.67773 0.90546 0.0
C1033 C 0.68835 0.65527 0.89561 0.0
C1034 C 0.64941 0.67003 0.88322 0.0
C1035 C 0.65354 0.69112 0.89609 0.0
N1036 N 0.67896 0.71513 0.92045 0.0
N1037 N 0.66159 0.62974 0.87456 0.0
C1038 C 0.67573 0.69523 0.90707 0.0
C1039 C 0.66638 0.65142 0.88412 0.0
N1040 N 0.71605 0.68218 0.91374 0.0
N1041 N 0.62937 0.66807 0.86987 0.0
H1042 H 0.67421 0.61632 0.87346 0.0
H1043 H 0.64499 0.62466 0.8685 0.0
H1044 H 0.61682 0.68156 0.86881 0.0
H1045 H 0.62602 0.65411 0.85838 0.0
H1046 H 0.72192 0.69891 0.91865 0.0
H1047 H 0.72942 0.66951 0.91411 0.0
H1048 H 0.69344 0.71781 0.93146 0.0
H1049 H 0.66639 0.72855 0.92179 0.0
C1050 C 0.65497 0.67269 0.12629 0.0
C1051 C 0.65475 0.68958 0.10776 0.0
C1052 C 0.69099 0.67237 0.09116 0.0
C1053 C 0.68931 0.6536 0.10771 0.0
N1054 N 0.67026 0.63527 0.14105 0.0
N1055 N 0.67179 0.70571 0.07216 0.0
C1056 C 0.6716 0.65372 0.1255 0.0
C1057 C 0.67275 0.68966 0.09024 0.0
N1058 N 0.6393 0.67492 0.14458 0.0
N1059 N 0.71011 0.67361 0.07637 0.0
H1060 H 0.65934 0.71929 0.0715 0.0
H1061 H 0.68248 0.70496 0.05719 0.0
H1062 H 0.72362 0.66105 0.07639 0.0
H1063 H 0.71368 0.68796 0.06541 0.0
H1064 H 0.63966 0.66449 0.15973 0.0
H1065 H 0.62689 0.68855 0.14539 0.0
H1066 H 0.65637 0.63277 0.15286 0.0
H1067 H 0.68277 0.62171 0.14144 0.0
C1068 C 0.33286 0.69389 0.1018 0.0
C1069 C 0.35498 0.68932 0.11275 0.0
C1070 C 0.34166 0.64961 0.12404 0.0
C1071 C 0.31977 0.65392 0.11256 0.0
N1072 N 0.29237 0.6815 0.09496 0.0
N1073 N 0.37875 0.66558 0.13875 0.0
C1074 C 0.31459 0.67661 0.10313 0.0
C1075 C 0.35881 0.66799 0.12532 0.0
N1076 N 0.3299 0.714 0.08867 0.0
N1077 N 0.34618 0.62771 0.13322 0.0
H1078 H 0.39142 0.67892 0.14013 0.0
H1079 H 0.38188 0.65141 0.15004 0.0
H1080 H 0.33341 0.61442 0.13405 0.0
H1081 H 0.36272 0.62232 0.13921 0.0
H1082 H 0.31547 0.71699 0.07766 0.0
H1083 H 0.34263 0.72726 0.0875 0.0
H1084 H 0.28672 0.69839 0.09035 0.0
H1085 H 0.27884 0.66903 0.09444 0.0
C1086 C 0.69584 0.32914 0.10712 0.0
C1087 C 0.69077 0.35185 0.11658 0.0
C1088 C 0.65116 0.33829 0.12822 0.0
C1089 C 0.65493 0.3171 0.11538 0.0
N1090 N 0.68029 0.29229 0.09165 0.0
N1091 N 0.66431 0.37821 0.13706 0.0
C1092 C 0.6773 0.31224 0.10501 0.0
C1093 C 0.66867 0.35637 0.12764 0.0
N1094 N 0.71823 0.32388 0.09965 0.0
N1095 N 0.63091 0.34085 0.14121 0.0
H1096 H 0.67732 0.39121 0.13844 0.0
H1097 H 0.64773 0.38381 0.14276 0.0
H1098 H 0.61799 0.32771 0.14207 0.0
H1099 H 0.62774 0.35491 0.15264 0.0
H1100 H 0.72369 0.30691 0.09504 0.0
H1101 H 0.73204 0.33604 0.0998 0.0
H1102 H 0.69501 0.28918 0.08103 0.0
H1103 H 0.66733 0.27932 0.08985 0.0
C1104 C 0.62108 0.8633 0.8412 0.0
C1105 C 0.60966 0.85893 0.81928 0.0
C1106 C 0.59908 0.8189 0.83242 0.0
C1107 C 0.61011 0.82346 0.85451 0.0
N1108 N 0.63587 0.84738 0.87833 0.0
N1109 N 0.59199 0.83131 0.79196 0.0
C1110 C 0.62248 0.8449 0.85837 0.0
C1111 C 0.60026 0.83621 0.81415 0.0
N1112 N 0.63014 0.88524 0.84574 0.0
N1113 N 0.58604 0.79875 0.82949 0.0
H1114 H 0.59124 0.84381 0.77845 0.0
H1115 H 0.58745 0.81441 0.78631 0.0
H1116 H 0.58494 0.78548 0.84223 0.0
H1117 H 0.57499 0.79572 0.81509 0.0
H1118 H 0.63608 0.89065 0.86229 0.0
H1119 H 0.63091 0.89854 0.83298 0.0
H1120 H 0.64706 0.86163 0.88147 0.0
H1121 H 0.63732 0.83406 0.89103 0.0
C1122 C 0.16724 0.62331 0.8596 0.0
C1123 C 0.18913 0.61181 0.85521 0.0
C1124 C 0.17605 0.60128 0.81518 0.0
C1125 C 0.15395 0.61228 0.8198 0.0
N1126 N 0.13019 0.63822 0.84369 0.0
N1127 N 0.21654 0.59431 0.82752 0.0
C1128 C 0.15011 0.62474 0.84121 0.0
C1129 C 0.19432 0.60248 0.83246 0.0
N1130 N 0.1627 0.63236 0.88156 0.0
N1131 N 0.17902 0.58821 0.79502 0.0
H1132 H 0.23006 0.59372 0.83999 0.0
H1133 H 0.22219 0.58977 0.81059 0.0
H1134 H 0.16628 0.58709 0.78176 0.0
H1135 H 0.19344 0.57718 0.79197 0.0
H1136 H 0.14616 0.63836 0.88698 0.0
H1137 H 0.17545 0.63309 0.89486 0.0
H1138 H 0.12708 0.64945 0.85793 0.0
H1139 H 0.11753 0.63971 0.83035 0.0
C1140 C 0.38271 0.14791 0.84194 0.0
C1141 C 0.39379 0.1522 0.8198 0.0
C1142 C 0.40496 0.19211 0.83283 0.0
C1143 C 0.39451 0.18751 0.85521 0.0
N1144 N 0.36894 0.16382 0.87952 0.0
N1145 N 0.41069 0.18003 0.79208 0.0
C1146 C 0.38191 0.16623 0.85923 0.0
C1147 C 0.4031 0.17494 0.81449 0.0
N1148 N 0.37343 0.12607 0.84655 0.0
N1149 N 0.41824 0.21208 0.82965 0.0
H1150 H 0.411 0.16772 0.77841 0.0
H1151 H 0.415 0.19701 0.78645 0.0
H1152 H 0.4199 0.22525 0.84243 0.0
H1153 H 0.42899 0.215 0.81498 0.0
H1154 H 0.36771 0.12064 0.86318 0.0
H1155 H 0.37215 0.11291 0.83367 0.0
H1156 H 0.35768 0.14968 0.88288 0.0
H1157 H 0.36795 0.17711 0.89229 0.0
C1158 C 0.83292 0.40301 0.81607 0.0
C1159 C 0.85598 0.39459 0.8214 0.0
C1160 C 0.84249 0.38266 0.861 0.0
C1161 C 0.82075 0.39443 0.85694 0.0
N1162 N 0.79529 0.41698 0.83119 0.0
N1163 N 0.88292 0.37555 0.84828 0.0
C1164 C 0.81573 0.40446 0.83445 0.0
C1165 C 0.86074 0.38395 0.84364 0.0
N1166 N 0.82757 0.41016 0.7936 0.0
N1167 N 0.84541 0.36998 0.88138 0.0
H1168 H 0.89612 0.37464 0.8354 0.0
H1169 H 0.88858 0.37025 0.86497 0.0
H1170 H 0.83217 0.36861 0.89418 0.0
H1171 H 0.85996 0.35927 0.88479 0.0
H1172 H 0.81046 0.41383 0.78794 0.0
H1173 H 0.83989 0.41071 0.77991 0.0
H1174 H 0.79195 0.42741 0.8164 0.0
H1175 H 0.78209 0.41836 0.84399 0.0
C1176 C 0.60335 0.19423 0.17719 0.0
C1177 C 0.61295 0.18884 0.15459 0.0
C1178 C 0.62565 0.14992 0.16916 0.0
C1179 C 0.61296 0.15397 0.19042 0.0
N1180 N 0.58855 0.17928 0.21461 0.0
N1181 N 0.63373 0.1621 0.12874 0.0
C1182 C 0.60191 0.17613 0.19466 0.0
C1183 C 0.62444 0.16688 0.15056 0.0
N1184 N 0.59511 0.21649 0.18183 0.0
N1185 N 0.63915 0.12997 0.16704 0.0
H1186 H 0.63463 0.17472 0.11531 0.0
H1187 H 0.63974 0.14549 0.12356 0.0
H1188 H 0.64049 0.11745 0.18053 0.0
H1189 H 0.65053 0.12672 0.15294 0.0
H1190 H 0.59044 0.2223 0.19867 0.0
H1191 H 0.59457 0.2299 0.16923 0.0
H1192 H 0.57746 0.19371 0.21734 0.0
H1193 H 0.58722 0.16667 0.22798 0.0
C1194 C 0.83079 0.60105 0.19284 0.0
C1195 C 0.85294 0.61199 0.1884 0.0
C1196 C 0.83996 0.62309 0.1485 0.0
C1197 C 0.81804 0.6116 0.15269 0.0
N1198 N 0.7904 0.59415 0.18016 0.0
N1199 N 0.87689 0.63794 0.16473 0.0
C1200 C 0.81266 0.60229 0.17541 0.0
C1201 C 0.85694 0.62448 0.16703 0.0
N1202 N 0.82765 0.58801 0.21299 0.0
N1203 N 0.84469 0.63215 0.12658 0.0
H1204 H 0.88943 0.6394 0.17817 0.0
H1205 H 0.88012 0.64918 0.15053 0.0
H1206 H 0.83204 0.63288 0.11318 0.0
H1207 H 0.86126 0.63814 0.12131 0.0
H1208 H 0.81319 0.57703 0.21594 0.0
H1209 H 0.84029 0.58688 0.22634 0.0
H1210 H 0.78461 0.5896 0.19704 0.0
H1211 H 0.77697 0.5936 0.16759 0.0
C1212 C 0.38392 0.84147 0.15162 0.0
C1213 C 0.39622 0.82001 0.15566 0.0
C1214 C 0.40525 0.8327 0.19622 0.0
C1215 C 0.39616 0.85549 0.19087 0.0
N1216 N 0.37637 0.88191 0.164 0.0
N1217 N 0.41985 0.79528 0.18113 0.0
C1218 C 0.38515 0.85989 0.16875 0.0
C1219 C 0.4068 0.81541 0.17796 0.0
N1220 N 0.37076 0.84396 0.1315 0.0
N1221 N 0.41288 0.82771 0.21862 0.0
H1222 H 0.42133 0.78207 0.16836 0.0
H1223 H 0.43058 0.79226 0.19577 0.0
H1224 H 0.4132 0.84017 0.23218 0.0
H1225 H 0.4172 0.81077 0.22433 0.0
H1226 H 0.35964 0.85825 0.12824 0.0
H1227 H 0.36939 0.8306 0.11884 0.0
H1228 H 0.37078 0.88731 0.14732 0.0
H1229 H 0.37552 0.89526 0.17671 0.0
C1230 C 0.16771 0.38465 0.15215 0.0
C1231 C 0.1894 0.39672 0.15586 0.0
C1232 C 0.17644 0.40837 0.19568 0.0
C1233 C 0.15456 0.39672 0.19174 0.0
N1234 N 0.1312 0.36945 0.16905 0.0
N1235 N 0.21665 0.41575 0.18259 0.0
C1236 C 0.15081 0.38346 0.17081 0.0
C1237 C 0.19457 0.40695 0.17821 0.0
N1238 N 0.16314 0.37481 0.13055 0.0
N1239 N 0.17929 0.42223 0.21531 0.0
H1240 H 0.23005 0.41619 0.16993 0.0
H1241 H 0.22235 0.421 0.19927 0.0
H1242 H 0.16664 0.42357 0.22867 0.0
H1243 H 0.19348 0.43366 0.21776 0.0
H1244 H 0.14667 0.36832 0.12555 0.0
H1245 H 0.17576 0.37393 0.11709 0.0
H1246 H 0.12823 0.35767 0.15524 0.0
H1247 H 0.11871 0.36812 0.1826 0.0
C1248 C 0.84008 0.62672 0.85579 0.0
C1249 C 0.81817 0.61529 0.8514 0.0
C1250 C 0.8319 0.60351 0.81189 0.0
C1251 C 0.85404 0.61436 0.81657 0.0
N1252 N 0.87752 0.64087 0.84003 0.0
N1253 N 0.79106 0.59757 0.82365 0.0
C1254 C 0.85756 0.62746 0.83764 0.0
C1255 C 0.8133 0.60548 0.8288 0.0
N1256 N 0.84429 0.63637 0.87755 0.0
N1257 N 0.82918 0.58983 0.79212 0.0
H1258 H 0.77725 0.59762 0.83585 0.0
H1259 H 0.7857 0.59268 0.80674 0.0
H1260 H 0.84218 0.58808 0.77916 0.0
H1261 H 0.81468 0.5789 0.78918 0.0
H1262 H 0.86078 0.64236 0.88306 0.0
H1263 H 0.83128 0.63763 0.89059 0.0
H1264 H 0.88044 0.6525 0.85398 0.0
H1265 H 0.89042 0.64187 0.82685 0.0
C1266 C 0.40544 0.83175 0.81469 0.0
C1267 C 0.39571 0.85439 0.81953 0.0
C1268 C 0.38291 0.8407 0.85874 0.0
C1269 C 0.39579 0.81949 0.85525 0.0
N1270 N 0.42038 0.79482 0.83057 0.0
N1271 N 0.37464 0.88073 0.84555 0.0
C1272 C 0.40693 0.81476 0.83322 0.0
C1273 C 0.38407 0.85887 0.84134 0.0
N1274 N 0.41373 0.82666 0.79254 0.0
N1275 N 0.36933 0.8432 0.87861 0.0
H1276 H 0.37379 0.89386 0.8326 0.0
H1277 H 0.36846 0.88625 0.86199 0.0
H1278 H 0.36805 0.83001 0.89146 0.0
H1279 H 0.35783 0.85727 0.88149 0.0
H1280 H 0.41862 0.80975 0.78714 0.0
H1281 H 0.41407 0.83893 0.7788 0.0
H1282 H 0.4315 0.79179 0.81621 0.0
H1283 H 0.42169 0.78176 0.84351 0.0
C1284 C 0.19532 0.40739 0.8319 0.0
C1285 C 0.19047 0.39658 0.85405 0.0
C1286 C 0.15103 0.38497 0.84025 0.0
C1287 C 0.15557 0.3964 0.81834 0.0
N1288 N 0.18345 0.41399 0.79119 0.0
N1289 N 0.16654 0.37064 0.87773 0.0
C1290 C 0.17829 0.4059 0.8134 0.0
C1291 C 0.16917 0.38392 0.85768 0.0
N1292 N 0.21544 0.42052 0.8291 0.0
N1293 N 0.12915 0.37562 0.8445 0.0
H1294 H 0.17969 0.36946 0.89061 0.0
H1295 H 0.15239 0.3593 0.88077 0.0
H1296 H 0.11609 0.37459 0.83152 0.0
H1297 H 0.12356 0.36963 0.86099 0.0
H1298 H 0.21864 0.43142 0.81462 0.0
H1299 H 0.22852 0.42177 0.84201 0.0
H1300 H 0.20039 0.41865 0.78573 0.0
H1301 H 0.17117 0.4144 0.77749 0.0
C1302 C 0.6067 0.18012 0.81289 0.0
C1303 C 0.61839 0.15829 0.81707 0.0
C1304 C 0.62893 0.17122 0.85714 0.0
C1305 C 0.61659 0.19274 0.85326 0.0
N1306 N 0.59825 0.22007 0.82608 0.0
N1307 N 0.64508 0.13498 0.84046 0.0
C1308 C 0.6072 0.19806 0.83058 0.0
C1309 C 0.63097 0.15449 0.8384 0.0
N1310 N 0.5936 0.18306 0.79277 0.0
N1311 N 0.63822 0.16662 0.87898 0.0
H1312 H 0.64701 0.12267 0.82683 0.0
H1313 H 0.65637 0.13192 0.85465 0.0
H1314 H 0.63854 0.17917 0.89251 0.0
H1315 H 0.64488 0.15024 0.88405 0.0
H1316 H 0.58209 0.19714 0.79003 0.0
H1317 H 0.59297 0.17059 0.77922 0.0
H1318 H 0.59367 0.22592 0.80924 0.0
H1319 H 0.59699 0.23329 0.83883 0.0
C1320 C 0.83394 0.40703 0.19575 0.0
C1321 C 0.85605 0.39597 0.19131 0.0
C1322 C 0.84274 0.38426 0.1517 0.0
C1323 C 0.82083 0.39577 0.15592 0.0
N1324 N 0.79342 0.41366 0.18336 0.0
N1325 N 0.87983 0.36966 0.16783 0.0
C1326 C 0.81565 0.40547 0.17852 0.0
C1327 C 0.85989 0.38316 0.1701 0.0
N1328 N 0.83098 0.42049 0.21565 0.0
N1329 N 0.8473 0.37486 0.12988 0.0
H1330 H 0.89249 0.36841 0.18119 0.0
H1331 H 0.88294 0.3582 0.15378 0.0
H1332 H 0.83454 0.3739 0.1166 0.0
H1333 H 0.86385 0.36883 0.12455 0.0
H1334 H 0.81655 0.43156 0.21847 0.0
H1335 H 0.84373 0.42192 0.22885 0.0
H1336 H 0.78778 0.41845 0.20022 0.0
H1337 H 0.77987 0.41403 0.17091 0.0
C1338 C 0.62661 0.85427 0.17575 0.0
C1339 C 0.6073 0.85532 0.19176 0.0
C1340 C 0.58844 0.82169 0.17201 0.0
C1341 C 0.60755 0.8208 0.15573 0.0
N1342 N 0.64675 0.83272 0.14433 0.0
N1343 N 0.57273 0.83726 0.20884 0.0
C1344 C 0.62735 0.83593 0.15841 0.0
C1345 C 0.58914 0.83808 0.19106 0.0
N1346 N 0.64367 0.87135 0.17661 0.0
N1347 N 0.56923 0.80737 0.16876 0.0
H1348 H 0.57275 0.84909 0.223 0.0
H1349 H 0.56035 0.8238 0.21076 0.0
H1350 H 0.56856 0.79432 0.15575 0.0
H1351 H 0.55344 0.80913 0.17807 0.0
H1352 H 0.6569 0.87329 0.16396 0.0
H1353 H 0.64394 0.88445 0.18961 0.0
H1354 H 0.66263 0.8417 0.14657 0.0
H1355 H 0.64752 0.81966 0.13131 0.0
C1356 C 0.17631 0.60335 0.19526 0.0
C1357 C 0.1542 0.61413 0.19024 0.0
C1358 C 0.16831 0.62565 0.15084 0.0
C1359 C 0.19012 0.61415 0.15552 0.0
N1360 N 0.21711 0.59682 0.18364 0.0
N1361 N 0.13079 0.64014 0.16616 0.0
C1362 C 0.19492 0.6048 0.17833 0.0
C1363 C 0.15076 0.6268 0.1689 0.0
N1364 N 0.17895 0.59025 0.21543 0.0
N1365 N 0.16423 0.63493 0.12889 0.0
H1366 H 0.11785 0.6414 0.17928 0.0
H1367 H 0.12788 0.65146 0.15196 0.0
H1368 H 0.1773 0.63585 0.11588 0.0
H1369 H 0.14781 0.64097 0.12322 0.0
H1370 H 0.19342 0.57936 0.21872 0.0
H1371 H 0.16595 0.589 0.22844 0.0
H1372 H 0.22244 0.59221 0.20063 0.0
H1373 H 0.23092 0.5965 0.17144 0.0
C1374 C 0.38304 0.16953 0.15228 0.0
C1375 C 0.39604 0.19067 0.15569 0.0
C1376 C 0.40571 0.17837 0.19622 0.0
C1377 C 0.39588 0.15577 0.19144 0.0
N1378 N 0.37455 0.12957 0.16556 0.0
N1379 N 0.42073 0.21525 0.18026 0.0
C1380 C 0.38414 0.15137 0.1697 0.0
C1381 C 0.40722 0.19536 0.17768 0.0
N1382 N 0.36939 0.16711 0.13249 0.0
N1383 N 0.41409 0.18343 0.21833 0.0
H1384 H 0.42205 0.2283 0.16731 0.0
H1385 H 0.43188 0.21825 0.19457 0.0
H1386 H 0.41445 0.17116 0.23205 0.0
H1387 H 0.41904 0.20032 0.22369 0.0
H1388 H 0.35782 0.1531 0.12968 0.0
H1389 H 0.36814 0.18029 0.11964 0.0
H1390 H 0.36832 0.12407 0.14914 0.0
H1391 H 0.37359 0.11649 0.17854 0.0
C1392 C 0.83454 0.81496 0.61009 0.0
C1393 C 0.85718 0.82005 0.61968 0.0
C1394 C 0.84394 0.85989 0.63066 0.0
C1395 C 0.82159 0.85512 0.6203 0.0
N1396 N 0.7935 0.82646 0.60573 0.0
N1397 N 0.88182 0.84457 0.64406 0.0
C1398 C 0.81612 0.83201 0.61213 0.0
C1399 C 0.86132 0.84168 0.63162 0.0
N1400 N 0.83112 0.7947 0.59733 0.0
N1401 N 0.84864 0.88206 0.63904 0.0
H1402 H 0.89462 0.83132 0.64521 0.0
H1403 H 0.88532 0.85906 0.65483 0.0
H1404 H 0.83573 0.8952 0.64018 0.0
H1405 H 0.86537 0.88774 0.64414 0.0
H1406 H 0.81612 0.79147 0.58718 0.0
H1407 H 0.84395 0.78163 0.59537 0.0
H1408 H 0.7879 0.80928 0.60226 0.0
H1409 H 0.77967 0.8386 0.60579 0.0
C1410 C 0.8609 0.16805 0.38024 0.0
C1411 C 0.85629 0.18997 0.39159 0.0
C1412 C 0.81629 0.17661 0.40194 0.0
C1413 C 0.82117 0.15442 0.39121 0.0
N1414 N 0.84534 0.13083 0.36537 0.0
N1415 N 0.82796 0.21737 0.40813 0.0
C1416 C 0.84265 0.15076 0.37879 0.0
C1417 C 0.83334 0.19507 0.40049 0.0
N1418 N 0.88295 0.16364 0.37134 0.0
N1419 N 0.7962 0.17948 0.41515 0.0
H1420 H 0.84016 0.23113 0.40862 0.0
H1421 H 0.81086 0.22284 0.41219 0.0
H1422 H 0.78315 0.16658 0.41668 0.0
H1423 H 0.79312 0.194 0.42604 0.0
H1424 H 0.88853 0.14711 0.36548 0.0
H1425 H 0.89611 0.17655 0.37058 0.0
H1426 H 0.85966 0.1278 0.35422 0.0
H1427 H 0.83207 0.1181 0.36383 0.0
C1428 C 0.83926 0.85715 0.38162 0.0
C1429 C 0.81814 0.85336 0.39457 0.0
C1430 C 0.83051 0.81259 0.40306 0.0
C1431 C 0.85318 0.81776 0.39353 0.0
N1432 N 0.87925 0.8442 0.3727 0.0
N1433 N 0.79356 0.82801 0.41852 0.0
C1434 C 0.85749 0.83978 0.38227 0.0
C1435 C 0.81346 0.83104 0.40508 0.0
N1436 N 0.84163 0.8773 0.36846 0.0
N1437 N 0.82541 0.79024 0.41071 0.0
H1438 H 0.78049 0.84088 0.42028 0.0
H1439 H 0.79059 0.81335 0.42925 0.0
H1440 H 0.83767 0.77651 0.41073 0.0
H1441 H 0.80847 0.7847 0.41531 0.0
H1442 H 0.85564 0.88048 0.35696 0.0
H1443 H 0.82837 0.89011 0.36753 0.0
H1444 H 0.88471 0.86077 0.36684 0.0
H1445 H 0.89233 0.83125 0.37133 0.0
C1446 C 0.17587 0.81287 0.40434 0.0
C1447 C 0.15324 0.81751 0.3945 0.0
C1448 C 0.16669 0.85685 0.38189 0.0
C1449 C 0.18777 0.85358 0.39501 0.0
N1450 N 0.21241 0.82911 0.41976 0.0
N1451 N 0.12694 0.84322 0.37308 0.0
C1452 C 0.19262 0.83157 0.40608 0.0
C1453 C 0.1487 0.83926 0.38281 0.0
N1454 N 0.18119 0.79074 0.41251 0.0
N1455 N 0.16414 0.87669 0.36832 0.0
H1456 H 0.11403 0.83009 0.37195 0.0
H1457 H 0.1213 0.8596 0.36688 0.0
H1458 H 0.17721 0.88967 0.36721 0.0
H1459 H 0.15019 0.87945 0.35668 0.0
H1460 H 0.19814 0.78554 0.4174 0.0
H1461 H 0.16911 0.77686 0.4127 0.0
H1462 H 0.21545 0.81475 0.43086 0.0
H1463 H 0.22528 0.84219 0.42134 0.0
C1464 C 0.19424 0.1762 0.3983 0.0
C1465 C 0.18883 0.15296 0.39049 0.0
C1466 C 0.14931 0.16633 0.37831 0.0
C1467 C 0.15334 0.1882 0.38985 0.0
N1468 N 0.17913 0.21377 0.4123 0.0
N1469 N 0.16191 0.12574 0.37195 0.0
C1470 C 0.17584 0.19334 0.39975 0.0
C1471 C 0.1666 0.14806 0.37992 0.0
N1472 N 0.21678 0.18181 0.40494 0.0
N1473 N 0.12901 0.16326 0.36558 0.0
H1474 H 0.17477 0.11252 0.37129 0.0
H1475 H 0.14522 0.12003 0.36675 0.0
H1476 H 0.11629 0.17653 0.36394 0.0
H1477 H 0.12564 0.14857 0.35505 0.0
H1478 H 0.22237 0.19905 0.40813 0.0
H1479 H 0.23056 0.16962 0.40534 0.0
H1480 H 0.19397 0.21707 0.42265 0.0
H1481 H 0.16631 0.22689 0.41392 0.0
C1482 C 0.19821 0.18078 0.61135 0.0
C1483 C 0.19383 0.15808 0.62114 0.0
C1484 C 0.15405 0.17055 0.63322 0.0
C1485 C 0.158 0.19287 0.62246 0.0
N1486 N 0.18564 0.22152 0.60695 0.0
N1487 N 0.17058 0.13314 0.64652 0.0
C1488 C 0.18078 0.19882 0.61366 0.0
C1489 C 0.17266 0.15358 0.63379 0.0
N1490 N 0.21818 0.18458 0.59821 0.0
N1491 N 0.13223 0.16544 0.6423 0.0
H1492 H 0.18414 0.12065 0.6474 0.0
H1493 H 0.15649 0.12942 0.65776 0.0
H1494 H 0.11886 0.17809 0.64369 0.0
H1495 H 0.12708 0.14864 0.64776 0.0
H1496 H 0.22093 0.1996 0.58792 0.0
H1497 H 0.23152 0.17204 0.5962 0.0
H1498 H 0.20257 0.22749 0.6029 0.0
H1499 H 0.1732 0.23508 0.60738 0.0
C1500 C 0.81721 0.17601 0.61093 0.0
C1501 C 0.82249 0.15326 0.62019 0.0
C1502 C 0.86224 0.16663 0.63123 0.0
C1503 C 0.85728 0.18907 0.62114 0.0
N1504 N 0.82835 0.21723 0.60726 0.0
N1505 N 0.84717 0.12856 0.64437 0.0
C1506 C 0.8341 0.19452 0.61321 0.0
C1507 C 0.84414 0.14914 0.63209 0.0
N1508 N 0.79694 0.17949 0.5982 0.0
N1509 N 0.88447 0.16194 0.63942 0.0
H1510 H 0.834 0.11568 0.64547 0.0
H1511 H 0.86169 0.12506 0.6551 0.0
H1512 H 0.89753 0.17492 0.64059 0.0
H1513 H 0.89026 0.14517 0.64431 0.0
H1514 H 0.79362 0.19463 0.58829 0.0
H1515 H 0.784 0.16659 0.59602 0.0
H1516 H 0.81111 0.22274 0.60392 0.0
H1517 H 0.84036 0.23115 0.60765 0.0
C1518 C 0.19368 0.8358 0.60572 0.0
C1519 C 0.18861 0.85825 0.61578 0.0
C1520 C 0.1491 0.84457 0.62742 0.0
C1521 C 0.1539 0.82234 0.61677 0.0
N1522 N 0.18239 0.79475 0.60085 0.0
N1523 N 0.16431 0.88246 0.6409 0.0
C1524 C 0.17683 0.81722 0.60785 0.0
C1525 C 0.16716 0.8621 0.62818 0.0
N1526 N 0.21374 0.83273 0.59252 0.0
N1527 N 0.12705 0.84901 0.63631 0.0
H1528 H 0.17742 0.8954 0.6419 0.0
H1529 H 0.15001 0.88571 0.65203 0.0
H1530 H 0.11404 0.83599 0.63756 0.0
H1531 H 0.12132 0.86565 0.64167 0.0
H1532 H 0.21694 0.81792 0.58206 0.0
H1533 H 0.22666 0.84572 0.59055 0.0
H1534 H 0.19952 0.78934 0.5968 0.0
H1535 H 0.17033 0.78086 0.60089 0.0
C1536 C 0.13028 0.2742 0.49159 0.0
C1537 C 0.11207 0.26193 0.47941 0.0
C1538 C 0.09514 0.24898 0.51725 0.0
C1539 C 0.11256 0.26226 0.52961 0.0
N1540 N 0.14505 0.28981 0.52887 0.0
N1541 N 0.07413 0.2423 0.4808 0.0
C1542 C 0.12953 0.27574 0.51685 0.0
C1543 C 0.09373 0.25059 0.4923 0.0
N1544 N 0.14885 0.28334 0.4791 0.0
N1545 N 0.07987 0.23449 0.52921 0.0
H1546 H 0.07221 0.24261 0.46253 0.0
H1547 H 0.05872 0.23707 0.48943 0.0
H1548 H 0.07836 0.23392 0.54751 0.0
H1549 H 0.06954 0.22171 0.52092 0.0
H1550 H 0.16396 0.29033 0.48692 0.0
H1551 H 0.14999 0.28236 0.46071 0.0
H1552 H 0.15609 0.30206 0.5207 0.0
H1553 H 0.14595 0.29024 0.54728 0.0
C1554 C 0.7589 0.08953 0.51596 0.0
C1555 C 0.75013 0.10922 0.52898 0.0
C1556 C 0.73983 0.12919 0.49169 0.0
C1557 C 0.7477 0.10903 0.47899 0.0
N1558 N 0.75863 0.06784 0.47906 0.0
N1559 N 0.72935 0.14645 0.52971 0.0
C1560 C 0.75542 0.08857 0.49117 0.0
C1561 C 0.7395 0.12859 0.51697 0.0
N1562 N 0.77102 0.07184 0.52711 0.0
N1563 N 0.73364 0.14917 0.4796 0.0
H1564 H 0.72992 0.14718 0.54813 0.0
H1565 H 0.71917 0.1598 0.52219 0.0
H1566 H 0.73336 0.14994 0.46116 0.0
H1567 H 0.73018 0.16534 0.48767 0.0
H1568 H 0.78037 0.05876 0.51811 0.0
H1569 H 0.77348 0.07107 0.54531 0.0
H1570 H 0.76164 0.05165 0.4873 0.0
H1571 H 0.75584 0.06623 0.46089 0.0
C1572 C 0.91947 0.74788 0.49208 0.0
C1573 C 0.89829 0.74171 0.48033 0.0
C1574 C 0.87871 0.73555 0.51866 0.0
C1575 C 0.89895 0.74493 0.53021 0.0
N1576 N 0.9378 0.76277 0.52755 0.0
N1577 N 0.85732 0.73048 0.48163 0.0
C1578 C 0.91912 0.75182 0.51682 0.0
C1579 C 0.8778 0.7355 0.49339 0.0
N1580 N 0.94016 0.74943 0.47958 0.0
N1581 N 0.86035 0.72697 0.53183 0.0
H1582 H 0.85642 0.72974 0.46321 0.0
H1583 H 0.84104 0.7283 0.48993 0.0
H1584 H 0.86004 0.72776 0.55026 0.0
H1585 H 0.8461 0.71781 0.52467 0.0
H1586 H 0.95667 0.75135 0.48748 0.0
H1587 H 0.94118 0.74635 0.46141 0.0
H1588 H 0.95154 0.77078 0.51826 0.0
H1589 H 0.9388 0.76568 0.54567 0.0
C1590 C 0.25664 0.87766 0.49258 0.0
C1591 C 0.26553 0.89702 0.4793 0.0
C1592 C 0.27487 0.91833 0.51596 0.0
C1593 C 0.26601 0.89895 0.52925 0.0
N1594 N 0.25286 0.85855 0.53095 0.0
N1595 N 0.28704 0.93388 0.47789 0.0
C1596 C 0.25827 0.87807 0.51773 0.0
C1597 C 0.27615 0.91661 0.49088 0.0
N1598 N 0.24617 0.85915 0.48109 0.0
N1599 N 0.28043 0.93905 0.52716 0.0
H1600 H 0.28711 0.93424 0.45947 0.0
H1601 H 0.29753 0.94705 0.4853 0.0
H1602 H 0.27987 0.94113 0.54547 0.0
H1603 H 0.28397 0.9548 0.51834 0.0
H1604 H 0.23677 0.84582 0.48961 0.0
H1605 H 0.24602 0.85764 0.4627 0.0
H1606 H 0.24909 0.84204 0.52377 0.0
H1607 H 0.25405 0.85837 0.54937 0.0
C1608 C 0.09008 0.74834 0.51827 0.0
C1609 C 0.11115 0.74243 0.53066 0.0
C1610 C 0.13127 0.73445 0.49292 0.0
C1611 C 0.11008 0.74012 0.48078 0.0
N1612 N 0.06793 0.74625 0.48169 0.0
N1613 N 0.15046 0.72613 0.53055 0.0
C1614 C 0.08905 0.74509 0.49344 0.0
C1615 C 0.13131 0.73412 0.5182 0.0
N1616 N 0.07123 0.75785 0.53012 0.0
N1617 N 0.15146 0.73038 0.48028 0.0
H1618 H 0.15118 0.72636 0.54899 0.0
H1619 H 0.16492 0.71784 0.52272 0.0
H1620 H 0.15172 0.72996 0.46182 0.0
H1621 H 0.16811 0.72864 0.48788 0.0
H1622 H 0.05665 0.76528 0.52172 0.0
H1623 H 0.07078 0.75997 0.5484 0.0
H1624 H 0.05162 0.74726 0.49018 0.0
H1625 H 0.06646 0.74386 0.46345 0.0
C1626 C 0.27558 0.12987 0.49257 0.0
C1627 C 0.26472 0.11037 0.48105 0.0
C1628 C 0.25904 0.09074 0.51934 0.0
C1629 C 0.26698 0.11142 0.53101 0.0
N1630 N 0.28183 0.15123 0.52945 0.0
N1631 N 0.24373 0.07315 0.48363 0.0
C1632 C 0.27524 0.1311 0.51783 0.0
C1633 C 0.2558 0.09107 0.49449 0.0
N1634 N 0.28602 0.14721 0.47937 0.0
N1635 N 0.25536 0.07042 0.53199 0.0
H1636 H 0.24161 0.07193 0.4654 0.0
H1637 H 0.23421 0.06033 0.49281 0.0
H1638 H 0.2579 0.0693 0.55024 0.0
H1639 H 0.25214 0.05405 0.52421 0.0
H1640 H 0.29627 0.1607 0.48655 0.0
H1641 H 0.28568 0.14728 0.46092 0.0
H1642 H 0.28565 0.16712 0.52101 0.0
H1643 H 0.28214 0.15241 0.54787 0.0
C1644 C 0.88117 0.27709 0.51909 0.0
C1645 C 0.8999 0.26538 0.53105 0.0
C1646 C 0.91913 0.25696 0.49303 0.0
C1647 C 0.89905 0.26591 0.48096 0.0
N1648 N 0.86039 0.28363 0.48192 0.0
N1649 N 0.93613 0.24261 0.52942 0.0
C1650 C 0.87999 0.27605 0.49382 0.0
C1651 C 0.91873 0.25496 0.51801 0.0
N1652 N 0.86447 0.28898 0.5319 0.0
N1653 N 0.93904 0.25104 0.48059 0.0
H1654 H 0.93774 0.24185 0.54773 0.0
H1655 H 0.94824 0.23176 0.52077 0.0
H1656 H 0.94004 0.25178 0.46222 0.0
H1657 H 0.95528 0.24742 0.48844 0.0
H1658 H 0.85164 0.2998 0.52439 0.0
H1659 H 0.86436 0.28922 0.55035 0.0
H1660 H 0.84481 0.28893 0.49017 0.0
H1661 H 0.85922 0.28333 0.46351 0.0
C1662 C 0.74881 0.92051 0.49418 0.0
C1663 C 0.74249 0.89975 0.48171 0.0
C1664 C 0.73477 0.87939 0.51936 0.0
C1665 C 0.74431 0.89909 0.53166 0.0
N1666 N 0.76248 0.93782 0.53072 0.0
N1667 N 0.7301 0.85908 0.48167 0.0
C1668 C 0.75181 0.91952 0.51905 0.0
C1669 C 0.73535 0.87912 0.49408 0.0
N1670 N 0.7514 0.94139 0.48221 0.0
N1671 N 0.72539 0.86096 0.53186 0.0
H1672 H 0.72987 0.85861 0.46322 0.0
H1673 H 0.72723 0.84267 0.48948 0.0
H1674 H 0.72547 0.86037 0.5503 0.0
H1675 H 0.71616 0.84706 0.52412 0.0
H1676 H 0.75347 0.95768 0.49053 0.0
H1677 H 0.74912 0.94285 0.46395 0.0
H1678 H 0.77101 0.95171 0.52217 0.0
H1679 H 0.76443 0.9384 0.54901 0.0
C1680 C 0.49286 0.09357 0.28063 0.0
C1681 C 0.48028 0.11314 0.27117 0.0
C1682 C 0.51768 0.133 0.26163 0.0
C1683 C 0.53024 0.11345 0.27112 0.0
N1684 N 0.53016 0.07736 0.294 0.0
N1685 N 0.48003 0.1533 0.25718 0.0
C1686 C 0.51793 0.09461 0.28227 0.0
C1687 C 0.49253 0.13346 0.26307 0.0
N1688 N 0.48106 0.07322 0.28633 0.0
N1689 N 0.52985 0.15087 0.2508 0.0
H1690 H 0.46162 0.15412 0.25827 0.0
H1691 H 0.48779 0.16947 0.25312 0.0
H1692 H 0.54827 0.15184 0.25084 0.0
H1693 H 0.52186 0.1642 0.24095 0.0
H1694 H 0.48946 0.05734 0.29029 0.0
H1695 H 0.46275 0.07147 0.28534 0.0
H1696 H 0.52212 0.06488 0.3049 0.0
H1697 H 0.54854 0.07643 0.2944 0.0
C1698 C 0.91722 0.51724 0.27862 0.0
C1699 C 0.89735 0.52949 0.26935 0.0
C1700 C 0.87743 0.49179 0.26136 0.0
C1701 C 0.89731 0.47956 0.2706 0.0
N1702 N 0.934 0.48032 0.29242 0.0
N1703 N 0.85686 0.52923 0.25641 0.0
C1704 C 0.91638 0.49221 0.2809 0.0
C1705 C 0.87689 0.51696 0.26213 0.0
N1706 N 0.93759 0.52932 0.28356 0.0
N1707 N 0.85931 0.47927 0.25142 0.0
H1708 H 0.85598 0.54765 0.25698 0.0
H1709 H 0.84062 0.52131 0.253 0.0
H1710 H 0.8584 0.46085 0.25206 0.0
H1711 H 0.84568 0.48693 0.24175 0.0
H1712 H 0.95362 0.52113 0.28738 0.0
H1713 H 0.93916 0.54762 0.28211 0.0
H1714 H 0.94677 0.48864 0.3027 0.0
H1715 H 0.93495 0.46195 0.29331 0.0
C1716 C 0.51582 0.91684 0.2848 0.0
C1717 C 0.5282 0.89734 0.27493 0.0
C1718 C 0.49054 0.87701 0.26756 0.0
C1719 C 0.47828 0.89791 0.27402 0.0
N1720 N 0.47894 0.93853 0.28717 0.0
N1721 N 0.52802 0.85852 0.25749 0.0
C1722 C 0.49078 0.91789 0.28269 0.0
C1723 C 0.51571 0.8772 0.26667 0.0
N1724 N 0.52799 0.93464 0.29571 0.0
N1725 N 0.47799 0.85697 0.2626 0.0
H1726 H 0.54642 0.85742 0.25823 0.0
H1727 H 0.52021 0.84453 0.24846 0.0
H1728 H 0.45956 0.85639 0.26332 0.0
H1729 H 0.48568 0.84051 0.25966 0.0
H1730 H 0.51987 0.94787 0.30563 0.0
H1731 H 0.54636 0.9353 0.29655 0.0
H1732 H 0.48731 0.95458 0.29044 0.0
H1733 H 0.46064 0.9402 0.28595 0.0
C1734 C 0.13109 0.51816 0.26175 0.0
C1735 C 0.11038 0.53019 0.26921 0.0
C1736 C 0.09238 0.49245 0.28085 0.0
C1737 C 0.11168 0.48027 0.27034 0.0
N1738 N 0.14943 0.48094 0.25058 0.0
N1739 N 0.07022 0.529 0.28373 0.0
C1740 C 0.13115 0.49299 0.26086 0.0
C1741 C 0.09088 0.51745 0.27862 0.0
N1742 N 0.1508 0.53091 0.25593 0.0
N1743 N 0.07516 0.48012 0.29255 0.0
H1744 H 0.06816 0.54725 0.28228 0.0
H1745 H 0.05443 0.5204 0.28764 0.0
H1746 H 0.07465 0.46173 0.2934 0.0
H1747 H 0.06228 0.48813 0.303 0.0
H1748 H 0.16719 0.52336 0.25234 0.0
H1749 H 0.15126 0.54934 0.25663 0.0
H1750 H 0.16276 0.48898 0.24076 0.0
H1751 H 0.15075 0.46255 0.25103 0.0
C1752 C 0.49118 0.87614 0.74476 0.0
C1753 C 0.47803 0.89567 0.73619 0.0
C1754 C 0.51487 0.91558 0.72451 0.0
C1755 C 0.52797 0.89777 0.73644 0.0
N1756 N 0.52926 0.86049 0.75702 0.0
N1757 N 0.47691 0.93457 0.71863 0.0
C1758 C 0.51629 0.87773 0.74611 0.0
C1759 C 0.48973 0.91532 0.72574 0.0
N1760 N 0.4795 0.856 0.75129 0.0
N1761 N 0.52642 0.93307 0.71245 0.0
H1762 H 0.45851 0.93504 0.71859 0.0
H1763 H 0.48441 0.95074 0.71409 0.0
H1764 H 0.54472 0.93494 0.7123 0.0
H1765 H 0.51799 0.94481 0.70106 0.0
H1766 H 0.48788 0.84029 0.75591 0.0
H1767 H 0.46115 0.85441 0.75018 0.0
H1768 H 0.52194 0.84688 0.767 0.0
H1769 H 0.54771 0.86024 0.75674 0.0
C1770 C 0.09247 0.49323 0.72946 0.0
C1771 C 0.11238 0.48073 0.73828 0.0
C1772 C 0.13244 0.51818 0.74704 0.0
C1773 C 0.11247 0.53066 0.73833 0.0
N1774 N 0.07564 0.53052 0.71674 0.0
N1775 N 0.15298 0.48059 0.75084 0.0
C1776 C 0.09332 0.51831 0.72782 0.0
C1777 C 0.13293 0.49304 0.74562 0.0
N1778 N 0.07204 0.48132 0.72436 0.0
N1779 N 0.15066 0.53043 0.75713 0.0
H1780 H 0.15381 0.46219 0.74978 0.0
H1781 H 0.16927 0.48839 0.75432 0.0
H1782 H 0.15157 0.54885 0.75698 0.0
H1783 H 0.16439 0.5225 0.76645 0.0
H1784 H 0.05599 0.48963 0.7209 0.0
H1785 H 0.07046 0.46299 0.72531 0.0
H1786 H 0.06279 0.52247 0.70633 0.0
H1787 H 0.0747 0.5489 0.71633 0.0
C1788 C 0.49403 0.13153 0.73489 0.0
C1789 C 0.48259 0.11132 0.74448 0.0
C1790 C 0.52098 0.09189 0.7506 0.0
C1791 C 0.53246 0.11231 0.74156 0.0
N1792 N 0.53082 0.15008 0.72213 0.0
N1793 N 0.4845 0.07127 0.75918 0.0
C1794 C 0.51922 0.13166 0.73264 0.0
C1795 C 0.49592 0.09126 0.75176 0.0
N1796 N 0.48083 0.15092 0.72902 0.0
N1797 N 0.53423 0.07314 0.75836 0.0
H1798 H 0.46638 0.07054 0.762 0.0
H1799 H 0.49258 0.05495 0.76169 0.0
H1800 H 0.55234 0.07159 0.75523 0.0
H1801 H 0.52766 0.05922 0.76842 0.0
H1802 H 0.4879 0.16709 0.72389 0.0
H1803 H 0.46245 0.15128 0.73048 0.0
H1804 H 0.52245 0.16393 0.71342 0.0
H1805 H 0.5492 0.15088 0.72094 0.0
C1806 C 0.91681 0.51678 0.72926 0.0
C1807 C 0.89754 0.52935 0.73936 0.0
C1808 C 0.87704 0.49186 0.74725 0.0
C1809 C 0.89762 0.47939 0.74018 0.0
N1810 N 0.93814 0.47972 0.72665 0.0
N1811 N 0.85925 0.52946 0.75807 0.0
C1812 C 0.91765 0.49173 0.73135 0.0
C1813 C 0.87754 0.51703 0.74825 0.0
N1814 N 0.93463 0.52876 0.71812 0.0
N1815 N 0.85695 0.47953 0.75261 0.0
H1816 H 0.85836 0.54789 0.75765 0.0
H1817 H 0.84546 0.5217 0.76747 0.0
H1818 H 0.85613 0.46111 0.75187 0.0
H1819 H 0.84065 0.4874 0.75589 0.0
H1820 H 0.94757 0.5205 0.70792 0.0
H1821 H 0.93566 0.54713 0.71747 0.0
H1822 H 0.95423 0.48795 0.72322 0.0
H1823 H 0.9397 0.4614 0.72794 0.0
C1824 C 0.26294 0.51683 0.13252 0.0
C1825 C 0.27 0.52911 0.11182 0.0
C1826 C 0.27999 0.49148 0.09257 0.0
C1827 C 0.26978 0.47915 0.11195 0.0
N1828 N 0.25157 0.47949 0.15049 0.0
N1829 N 0.28322 0.52846 0.07119 0.0
C1830 C 0.26142 0.49168 0.13206 0.0
C1831 C 0.27843 0.51657 0.09174 0.0
N1832 N 0.25809 0.5293 0.15267 0.0
N1833 N 0.29071 0.47925 0.07465 0.0
H1834 H 0.28232 0.54679 0.06962 0.0
H1835 H 0.28635 0.52013 0.05506 0.0
H1836 H 0.29096 0.46087 0.07361 0.0
H1837 H 0.30098 0.48727 0.06163 0.0
H1838 H 0.25484 0.52152 0.16903 0.0
H1839 H 0.25923 0.5477 0.15346 0.0
H1840 H 0.24251 0.48747 0.16439 0.0
H1841 H 0.25165 0.46106 0.15142 0.0
C1842 C 0.26333 0.51684 0.87782 0.0
C1843 C 0.27134 0.52938 0.89804 0.0
C1844 C 0.27946 0.49196 0.91848 0.0
C1845 C 0.27113 0.47942 0.89838 0.0
N1846 N 0.25994 0.47915 0.85737 0.0
N1847 N 0.29175 0.52927 0.93556 0.0
C1848 C 0.2646 0.49168 0.87751 0.0
C1849 C 0.2812 0.51704 0.91757 0.0
N1850 N 0.254 0.52906 0.85916 0.0
N1851 N 0.28396 0.48009 0.93909 0.0
H1852 H 0.2922 0.54765 0.93646 0.0
H1853 H 0.30172 0.52123 0.94878 0.0
H1854 H 0.283 0.46176 0.94065 0.0
H1855 H 0.28697 0.48842 0.95522 0.0
H1856 H 0.24517 0.52113 0.84511 0.0
H1857 H 0.25432 0.54748 0.85815 0.0
H1858 H 0.25702 0.48686 0.84092 0.0
H1859 H 0.26091 0.46073 0.8567 0.0
C1860 C 0.4916 0.27662 0.9167 0.0
C1861 C 0.47926 0.26749 0.89683 0.0
C1862 C 0.5169 0.25945 0.87667 0.0
C1863 C 0.52923 0.26864 0.89651 0.0
N1864 N 0.52858 0.29013 0.93348 0.0
N1865 N 0.47933 0.25445 0.85634 0.0
C1866 C 0.51663 0.27881 0.91576 0.0
C1867 C 0.4917 0.26021 0.87629 0.0
N1868 N 0.47959 0.28152 0.93716 0.0
N1869 N 0.52934 0.24957 0.85841 0.0
H1870 H 0.4609 0.25498 0.85562 0.0
H1871 H 0.48715 0.25099 0.84004 0.0
H1872 H 0.54775 0.25017 0.85739 0.0
H1873 H 0.52162 0.23997 0.84476 0.0
H1874 H 0.48782 0.28517 0.95321 0.0
H1875 H 0.46128 0.28019 0.93878 0.0
H1876 H 0.5203 0.30044 0.9463 0.0
H1877 H 0.54694 0.29077 0.93457 0.0
C1878 C 0.73291 0.51714 0.87861 0.0
C1879 C 0.74002 0.53037 0.89869 0.0
C1880 C 0.74974 0.49399 0.91995 0.0
C1881 C 0.74224 0.4805 0.9001 0.0
N1882 N 0.72326 0.47862 0.86202 0.0
N1883 N 0.74902 0.53164 0.94032 0.0
C1884 C 0.73255 0.49191 0.87992 0.0
C1885 C 0.74648 0.51882 0.91994 0.0
N1886 N 0.72748 0.52871 0.85811 0.0
N1887 N 0.76068 0.4832 0.93862 0.0
H1888 H 0.74663 0.54992 0.94107 0.0
H1889 H 0.75118 0.524 0.95694 0.0
H1890 H 0.76291 0.465 0.93988 0.0
H1891 H 0.7692 0.4924 0.95209 0.0
H1892 H 0.7246 0.52024 0.84203 0.0
H1893 H 0.72705 0.54712 0.85694 0.0
H1894 H 0.71395 0.48572 0.84784 0.0
H1895 H 0.72356 0.46018 0.86212 0.0
C1896 C 0.49144 0.72974 0.91645 0.0
C1897 C 0.47886 0.74018 0.89739 0.0
C1898 C 0.51633 0.74828 0.87689 0.0
C1899 C 0.5288 0.74104 0.89739 0.0
N1900 N 0.52854 0.7267 0.93762 0.0
N1901 N 0.4787 0.75914 0.85925 0.0
C1902 C 0.51649 0.7318 0.91726 0.0
C1903 C 0.49116 0.74921 0.87743 0.0
N1904 N 0.47946 0.71832 0.9341 0.0
N1905 N 0.52867 0.75391 0.85685 0.0
H1906 H 0.46028 0.75862 0.85837 0.0
H1907 H 0.48642 0.76866 0.84552 0.0
H1908 H 0.54709 0.7532 0.856 0.0
H1909 H 0.52081 0.75739 0.84059 0.0
H1910 H 0.48771 0.70795 0.94688 0.0
H1911 H 0.4611 0.71757 0.93508 0.0
H1912 H 0.52034 0.72296 0.95367 0.0
H1913 H 0.54686 0.7279 0.93912 0.0
C1914 C 0.72963 0.51417 0.09104 0.0
C1915 C 0.73772 0.52751 0.11072 0.0
C1916 C 0.74619 0.49092 0.13251 0.0
C1917 C 0.73833 0.47759 0.11275 0.0
N1918 N 0.7182 0.47605 0.07512 0.0
N1919 N 0.74892 0.52932 0.15169 0.0
C1920 C 0.72837 0.48909 0.09276 0.0
C1921 C 0.74447 0.51605 0.13198 0.0
N1922 N 0.72486 0.5253 0.07008 0.0
N1923 N 0.75583 0.4795 0.1515 0.0
H1924 H 0.74762 0.54773 0.15175 0.0
H1925 H 0.75196 0.5222 0.16838 0.0
H1926 H 0.75597 0.46111 0.15305 0.0
H1927 H 0.76453 0.48805 0.16526 0.0
H1928 H 0.722 0.51643 0.05422 0.0
H1929 H 0.72538 0.5436 0.06798 0.0
H1930 H 0.70822 0.48342 0.06153 0.0
H1931 H 0.71814 0.45764 0.07485 0.0
C1932 C 0.51706 0.72976 0.09229 0.0
C1933 C 0.52963 0.73964 0.11164 0.0
C1934 C 0.49218 0.747 0.13251 0.0
C1935 C 0.4797 0.74015 0.11189 0.0
N1936 N 0.47982 0.72671 0.07135 0.0
N1937 N 0.52988 0.75698 0.15052 0.0
C1938 C 0.49198 0.73154 0.09171 0.0
C1939 C 0.51735 0.74791 0.13196 0.0
N1940 N 0.5291 0.71906 0.07422 0.0
N1941 N 0.47984 0.75226 0.15266 0.0
H1942 H 0.54828 0.75604 0.15142 0.0
H1943 H 0.52229 0.766 0.16465 0.0
H1944 H 0.46142 0.75161 0.15349 0.0
H1945 H 0.48767 0.75552 0.16897 0.0
H1946 H 0.52093 0.70906 0.06111 0.0
H1947 H 0.54747 0.71853 0.07316 0.0
H1948 H 0.48791 0.72342 0.05514 0.0
H1949 H 0.46147 0.72764 0.07007 0.0
C1950 C 0.51679 0.27848 0.09278 0.0
C1951 C 0.52922 0.26917 0.11251 0.0
C1952 C 0.49169 0.26019 0.13243 0.0
C1953 C 0.47926 0.26935 0.11263 0.0
N1954 N 0.47958 0.29163 0.07615 0.0
N1955 N 0.52925 0.25574 0.15286 0.0
C1956 C 0.49171 0.28018 0.09366 0.0
C1957 C 0.51684 0.26147 0.13293 0.0
N1958 N 0.52877 0.28401 0.07247 0.0
N1959 N 0.47938 0.24983 0.15049 0.0
H1960 H 0.54766 0.2567 0.15368 0.0
H1961 H 0.52144 0.25193 0.16909 0.0
H1962 H 0.46095 0.25005 0.15142 0.0
H1963 H 0.48724 0.24023 0.16407 0.0
H1964 H 0.52052 0.28781 0.05647 0.0
H1965 H 0.54711 0.28312 0.07092 0.0
H1966 H 0.48769 0.3023 0.06352 0.0
H1967 H 0.46121 0.29203 0.07512 0.0
C1968 C 0.59237 0.78292 0.01705 0.0
C1969 C 0.61176 0.77269 0.02928 0.0
C1970 C 0.63201 0.76554 0.99144 0.0
C1971 C 0.61125 0.77257 0.9793 0.0
N1972 N 0.57078 0.78616 0.9802 0.0
N1973 N 0.65036 0.75476 0.02878 0.0
C1974 C 0.59134 0.78124 0.99196 0.0
C1975 C 0.63179 0.76431 0.01663 0.0
N1976 N 0.57463 0.7938 0.02941 0.0
N1977 N 0.65198 0.7604 0.97879 0.0
H1978 H 0.65148 0.75531 0.04719 0.0
H1979 H 0.66423 0.74564 0.02083 0.0
H1980 H 0.65259 0.76134 0.96036 0.0
H1981 H 0.66838 0.75704 0.98641 0.0
H1982 H 0.56155 0.80402 0.02146 0.0
H1983 H 0.57385 0.79426 0.04781 0.0
H1984 H 0.55475 0.78947 0.98862 0.0
H1985 H 0.56912 0.78525 0.96187 0.0
C1986 C 0.22941 0.59119 0.99278 0.0
C1987 C 0.23786 0.61122 0.98018 0.0
C1988 C 0.24601 0.6317 0.01756 0.0
C1989 C 0.23781 0.61158 0.03015 0.0
N1990 N 0.21703 0.57426 0.03015 0.0
N1991 N 0.24942 0.65212 0.97984 0.0
C1992 C 0.22773 0.59213 0.01787 0.0
C1993 C 0.24464 0.63202 0.9924 0.0
N1994 N 0.22475 0.5706 0.98095 0.0
N1995 N 0.2556 0.65026 0.02973 0.0
H1996 H 0.24838 0.65279 0.96142 0.0
H1997 H 0.2525 0.66853 0.98755 0.0
H1998 H 0.25537 0.65126 0.04816 0.0
H1999 H 0.26455 0.6642 0.02174 0.0
H2000 H 0.22164 0.55451 0.98933 0.0
H2001 H 0.22571 0.56897 0.96261 0.0
H2002 H 0.20689 0.56115 0.02216 0.0
H2003 H 0.21663 0.57336 0.04854 0.0
C2004 C 0.37704 0.24827 0.01729 0.0
C2005 C 0.39678 0.23918 0.02985 0.0
C2006 C 0.41668 0.22964 0.99243 0.0
C2007 C 0.39696 0.23877 0.97987 0.0
N2008 N 0.35665 0.25229 0.97965 0.0
N2009 N 0.43325 0.21691 0.02982 0.0
C2010 C 0.37656 0.24668 0.99214 0.0
C2011 C 0.41577 0.22822 0.01754 0.0
N2012 N 0.35901 0.25885 0.02947 0.0
N2013 N 0.43701 0.224 0.98054 0.0
H2014 H 0.43425 0.21671 0.04821 0.0
H2015 H 0.44589 0.20615 0.02184 0.0
H2016 H 0.4386 0.22473 0.96219 0.0
H2017 H 0.45299 0.22029 0.98886 0.0
H2018 H 0.34548 0.26841 0.02147 0.0
H2019 H 0.35806 0.25886 0.0479 0.0
H2020 H 0.34043 0.25622 0.98742 0.0
H2021 H 0.35582 0.2511 0.96124 0.0
C2022 C 0.77646 0.37823 0.01851 0.0
C2023 C 0.7692 0.39845 0.03146 0.0
C2024 C 0.75977 0.41929 0.99477 0.0
C2025 C 0.76741 0.39928 0.98155 0.0
N2026 N 0.78647 0.36122 0.98021 0.0
N2027 N 0.76009 0.44007 0.03221 0.0
C2028 C 0.77703 0.37925 0.99325 0.0
C2029 C 0.7628 0.41956 0.01963 0.0
N2030 N 0.78185 0.35788 0.03035 0.0
N2031 N 0.74892 0.43783 0.98368 0.0
H2032 H 0.76229 0.44102 0.05051 0.0
H2033 H 0.75797 0.45659 0.02437 0.0
H2034 H 0.74686 0.4389 0.96544 0.0
H2035 H 0.74029 0.45141 0.99266 0.0
H2036 H 0.78485 0.34172 0.02208 0.0
H2037 H 0.78213 0.35692 0.04878 0.0
H2038 H 0.79573 0.34711 0.98753 0.0
H2039 H 0.78634 0.36114 0.96176 0.0
C2040 C 0.63146 0.24905 0.99206 0.0
C2041 C 0.61169 0.24022 0.97939 0.0
C2042 C 0.59152 0.23082 0.01671 0.0
C2043 C 0.61132 0.23962 0.0294 0.0
N2044 N 0.65179 0.2526 0.02979 0.0
N2045 N 0.57494 0.21845 0.97921 0.0
C2046 C 0.63185 0.24733 0.01722 0.0
C2047 C 0.59252 0.22949 0.99159 0.0
N2048 N 0.64964 0.25951 0.98001 0.0
N2049 N 0.57107 0.22545 0.0285 0.0
H2050 H 0.57399 0.21836 0.96081 0.0
H2051 H 0.56214 0.20783 0.9871 0.0
H2052 H 0.56941 0.22615 0.04685 0.0
H2053 H 0.55507 0.222 0.0201 0.0
H2054 H 0.66322 0.26889 0.98812 0.0
H2055 H 0.65064 0.25965 0.96158 0.0
H2056 H 0.66808 0.25634 0.02208 0.0
H2057 H 0.65255 0.2513 0.04819 0.0
C2058 C 0.77875 0.59059 0.01394 0.0
C2059 C 0.77018 0.61017 0.02714 0.0
C2060 C 0.76189 0.63178 0.99041 0.0
C2061 C 0.77015 0.61208 0.9772 0.0
N2062 N 0.79084 0.57473 0.97595 0.0
N2063 N 0.75848 0.65102 0.02874 0.0
C2064 C 0.78027 0.59226 0.98886 0.0
C2065 C 0.76331 0.63133 0.01556 0.0
N2066 N 0.78375 0.56977 0.0252 0.0
N2067 N 0.75215 0.65063 0.97883 0.0
H2068 H 0.75964 0.65115 0.04717 0.0
H2069 H 0.75527 0.66764 0.02155 0.0
H2070 H 0.75223 0.65214 0.96043 0.0
H2071 H 0.74317 0.6643 0.98727 0.0
H2072 H 0.78701 0.55392 0.01642 0.0
H2073 H 0.78309 0.56775 0.04351 0.0
H2074 H 0.8009 0.56127 0.98344 0.0
H2075 H 0.79114 0.57446 0.95753 0.0
C2076 C 0.41605 0.77926 0.99292 0.0
C2077 C 0.39641 0.76974 0.98053 0.0
C2078 C 0.37655 0.76078 0.0181 0.0
C2079 C 0.39628 0.77012 0.0305 0.0
N2080 N 0.43258 0.79264 0.0301 0.0
N2081 N 0.35621 0.75593 0.98052 0.0
C2082 C 0.41516 0.78103 0.01801 0.0
C2083 C 0.37606 0.76191 0.99292 0.0
N2084 N 0.43629 0.78493 0.9809 0.0
N2085 N 0.35855 0.7504 0.03047 0.0
H2086 H 0.3554 0.75674 0.9621 0.0
H2087 H 0.34002 0.75201 0.98834 0.0
H2088 H 0.35758 0.75079 0.0489 0.0
H2089 H 0.34505 0.74066 0.02267 0.0
H2090 H 0.45225 0.78892 0.98912 0.0
H2091 H 0.43784 0.78396 0.96255 0.0
H2092 H 0.44513 0.80336 0.02195 0.0
H2093 H 0.4336 0.79315 0.04847 0.0
C2094 C 0.24577 0.37671 0.01742 0.0
C2095 C 0.23723 0.39679 0.02986 0.0
C2096 C 0.22915 0.41702 0.99232 0.0
C2097 C 0.2379 0.39703 0.97987 0.0
N2098 N 0.24981 0.35622 0.97979 0.0
N2099 N 0.21612 0.43395 0.02949 0.0
C2100 C 0.24471 0.37631 0.99224 0.0
C2101 C 0.22714 0.41612 0.01739 0.0
N2102 N 0.25539 0.35827 0.02975 0.0
N2103 N 0.22451 0.43757 0.9804 0.0
H2104 H 0.21547 0.43489 0.04787 0.0
H2105 H 0.20597 0.44695 0.02132 0.0
H2106 H 0.22569 0.43917 0.96207 0.0
H2107 H 0.22118 0.45365 0.98871 0.0
H2108 H 0.26457 0.34438 0.02189 0.0
H2109 H 0.25496 0.35731 0.04818 0.0
H2110 H 0.25293 0.33985 0.98758 0.0
H2111 H 0.24899 0.35548 0.96136 0.0
C2112 C 0.01729 0.63348 0.75977 0.0
C2113 C 0.02968 0.6131 0.76749 0.0
C2114 C 0.99212 0.59399 0.778 0.0
C2115 C 0.97968 0.61305 0.76737 0.0
N2116 N 0.97987 0.65089 0.74783 0.0
N2117 N 0.02914 0.57277 0.78152 0.0
C2118 C 0.99213 0.63288 0.75828 0.0
C2119 C 0.0172 0.59318 0.77636 0.0
N2120 N 0.02965 0.65352 0.75429 0.0
N2121 N 0.97999 0.57633 0.78923 0.0
H2122 H 0.04746 0.57115 0.78047 0.0
H2123 H 0.02085 0.55672 0.78503 0.0
H2124 H 0.96162 0.57518 0.78953 0.0
H2125 H 0.9881 0.56365 0.79984 0.0
H2126 H 0.02178 0.66972 0.75058 0.0
H2127 H 0.04805 0.65444 0.75537 0.0
H2128 H 0.9878 0.66448 0.73829 0.0
H2129 H 0.96144 0.65174 0.74785 0.0
C2130 C 0.38054 0.99123 0.77526 0.0
C2131 C 0.39992 0.9782 0.76606 0.0
C2132 C 0.42098 0.01496 0.7568 0.0
C2133 C 0.40082 0.02812 0.76416 0.0
N2134 N 0.36113 0.02948 0.77951 0.0
N2135 N 0.43911 0.9768 0.74932 0.0
C2136 C 0.3806 0.01645 0.77348 0.0
C2137 C 0.42036 0.98988 0.75739 0.0
N2138 N 0.36218 0.97939 0.78561 0.0
N2139 N 0.441 0.02655 0.74976 0.0
H2140 H 0.44052 0.95859 0.75191 0.0
H2141 H 0.45312 0.9836 0.73954 0.0
H2142 H 0.44172 0.04474 0.74741 0.0
H2143 H 0.45735 0.01854 0.74717 0.0
H2144 H 0.34829 0.98757 0.79448 0.0
H2145 H 0.36154 0.96098 0.78658 0.0
H2146 H 0.34496 0.02224 0.7844 0.0
H2147 H 0.36072 0.04788 0.77843 0.0
C2148 C 0.01797 0.37778 0.76133 0.0
C2149 C 0.03044 0.39804 0.76933 0.0
C2150 C 0.99294 0.41815 0.77802 0.0
C2151 C 0.98046 0.3979 0.76998 0.0
N2152 N 0.98044 0.35696 0.75853 0.0
N2153 N 0.03025 0.43563 0.78966 0.0
C2154 C 0.99283 0.37721 0.76306 0.0
C2155 C 0.01805 0.41749 0.77934 0.0
N2156 N 0.03021 0.3593 0.75164 0.0
N2157 N 0.98095 0.43867 0.78266 0.0
H2158 H 0.04862 0.43679 0.78969 0.0
H2159 H 0.02223 0.44875 0.7998 0.0
H2160 H 0.9626 0.44009 0.78196 0.0
H2161 H 0.98918 0.45488 0.78547 0.0
H2162 H 0.02226 0.34525 0.74283 0.0
H2163 H 0.04864 0.35848 0.75157 0.0
H2164 H 0.98829 0.34062 0.7554 0.0
H2165 H 0.96205 0.3561 0.75981 0.0
C2166 C 0.59244 0.99652 0.77587 0.0
C2167 C 0.61143 0.98285 0.76668 0.0
C2168 C 0.63328 0.01917 0.75713 0.0
C2169 C 0.61437 0.03281 0.76648 0.0
N2170 N 0.57818 0.0347 0.78915 0.0
N2171 N 0.65173 0.98053 0.75321 0.0
C2172 C 0.59481 0.02152 0.77751 0.0
C2173 C 0.63245 0.99403 0.75874 0.0
N2174 N 0.57142 0.98585 0.78135 0.0
N2175 N 0.65178 0.03031 0.74626 0.0
H2176 H 0.65167 0.96212 0.75443 0.0
H2177 H 0.66833 0.98748 0.74936 0.0
H2178 H 0.65367 0.04867 0.74615 0.0
H2179 H 0.6647 0.02154 0.7365 0.0
H2180 H 0.55597 0.99512 0.78516 0.0
H2181 H 0.56869 0.96767 0.78027 0.0
H2182 H 0.5651 0.02736 0.79984 0.0
H2183 H 0.57843 0.05309 0.78977 0.0
C2184 C 0.99269 0.416 0.23483 0.0
C2185 C 0.98018 0.39629 0.24411 0.0
C2186 C 0.01768 0.37666 0.2538 0.0
C2187 C 0.03017 0.39625 0.24425 0.0
N2188 N 0.02994 0.43257 0.22172 0.0
N2189 N 0.98011 0.35621 0.2583 0.0
C2190 C 0.01777 0.41513 0.23326 0.0
C2191 C 0.99252 0.37608 0.25234 0.0
N2192 N 0.98077 0.4363 0.22919 0.0
N2193 N 0.02991 0.35885 0.26465 0.0
H2194 H 0.96171 0.35532 0.25726 0.0
H2195 H 0.98794 0.34008 0.26242 0.0
H2196 H 0.04834 0.35798 0.26465 0.0
H2197 H 0.02196 0.34549 0.27449 0.0
H2198 H 0.98908 0.45227 0.22536 0.0
H2199 H 0.96245 0.43793 0.23014 0.0
H2200 H 0.02187 0.44503 0.21084 0.0
H2201 H 0.04831 0.43376 0.22151 0.0
C2202 C 0.63129 0.01699 0.25246 0.0
C2203 C 0.61181 0.02969 0.24303 0.0
C2204 C 0.59128 0.99246 0.23437 0.0
C2205 C 0.61081 0.97974 0.24371 0.0
N2206 N 0.65109 0.97911 0.25727 0.0
N2207 N 0.57532 0.02983 0.22082 0.0
C2208 C 0.63138 0.99181 0.2514 0.0
C2209 C 0.59261 0.0175 0.23239 0.0
N2210 N 0.64948 0.02905 0.26283 0.0
N2211 N 0.57073 0.98084 0.22908 0.0
H2212 H 0.57459 0.04821 0.22024 0.0
H2213 H 0.56257 0.02184 0.21024 0.0
H2214 H 0.5688 0.96256 0.23031 0.0
H2215 H 0.5549 0.98937 0.22522 0.0
H2216 H 0.66282 0.02101 0.27262 0.0
H2217 H 0.65073 0.04745 0.26246 0.0
H2218 H 0.66742 0.98669 0.26102 0.0
H2219 H 0.65165 0.96068 0.25649 0.0
C2220 C 0.01569 0.59286 0.22849 0.0
C2221 C 0.02811 0.61281 0.23734 0.0
C2222 C 0.99058 0.63302 0.24557 0.0
C2223 C 0.97816 0.61296 0.23701 0.0
N2224 N 0.97853 0.57595 0.21562 0.0
N2225 N 0.02817 0.65352 0.24955 0.0
C2226 C 0.99062 0.59373 0.22668 0.0
C2227 C 0.01574 0.63345 0.24436 0.0
N2228 N 0.02764 0.57239 0.22358 0.0
N2229 N 0.97825 0.65139 0.25535 0.0
H2230 H 0.04659 0.65427 0.24863 0.0
H2231 H 0.02038 0.66985 0.25285 0.0
H2232 H 0.95982 0.65233 0.25501 0.0
H2233 H 0.98609 0.66525 0.26455 0.0
H2234 H 0.01937 0.55632 0.22018 0.0
H2235 H 0.04597 0.57084 0.22458 0.0
H2236 H 0.98668 0.56306 0.2053 0.0
H2237 H 0.96016 0.57494 0.21512 0.0
C2238 C 0.41732 0.01813 0.23079 0.0
C2239 C 0.3978 0.03059 0.24057 0.0
C2240 C 0.37686 0.99304 0.24683 0.0
C2241 C 0.39764 0.9806 0.24029 0.0
N2242 N 0.43858 0.98104 0.22813 0.0
N2243 N 0.3589 0.03048 0.25793 0.0
C2244 C 0.41799 0.99303 0.23237 0.0
C2245 C 0.37744 0.01818 0.24844 0.0
N2246 N 0.43552 0.03026 0.22045 0.0
N2247 N 0.35651 0.98072 0.25112 0.0
H2248 H 0.35812 0.04891 0.25794 0.0
H2249 H 0.34475 0.02257 0.26666 0.0
H2250 H 0.35562 0.96233 0.24986 0.0
H2251 H 0.34014 0.98862 0.25395 0.0
H2252 H 0.44874 0.02216 0.21052 0.0
H2253 H 0.43658 0.04864 0.22016 0.0
H2254 H 0.45481 0.98929 0.22541 0.0
H2255 H 0.44005 0.9627 0.22909 0.0
C2256 C 0.75977 0.01644 0.59228 0.0
C2257 C 0.76904 0.02894 0.61195 0.0
C2258 C 0.77991 0.99128 0.63079 0.0
C2259 C 0.76798 0.97896 0.61244 0.0
N2260 N 0.7449 0.97982 0.57638 0.0
N2261 N 0.78693 0.02891 0.65053 0.0
C2262 C 0.75751 0.99155 0.59337 0.0
C2263 C 0.77913 0.01655 0.63129 0.0
N2264 N 0.75384 0.02836 0.57208 0.0
N2265 N 0.79175 0.97882 0.64776 0.0
H2266 H 0.78679 0.04734 0.65123 0.0
H2267 H 0.79222 0.02105 0.6663 0.0
H2268 H 0.79174 0.96039 0.64842 0.0
H2269 H 0.80274 0.98656 0.6603 0.0
H2270 H 0.75007 0.02009 0.55607 0.0
H2271 H 0.75471 0.04667 0.57058 0.0
H2272 H 0.73398 0.98826 0.5642 0.0
H2273 H 0.74397 0.96149 0.57515 0.0
C2274 C 0.76111 0.0161 0.37592 0.0
C2275 C 0.77101 0.02889 0.39512 0.0
C2276 C 0.78012 0.99175 0.41566 0.0
C2277 C 0.77011 0.97896 0.39651 0.0
N2278 N 0.75553 0.97809 0.35658 0.0
N2279 N 0.79408 0.02924 0.43104 0.0
C2280 C 0.76201 0.99092 0.37602 0.0
C2281 C 0.7821 0.01679 0.41413 0.0
N2282 N 0.75034 0.02811 0.35792 0.0
N2283 N 0.78613 0.98018 0.43605 0.0
H2284 H 0.79484 0.04763 0.43145 0.0
H2285 H 0.80482 0.02135 0.44373 0.0
H2286 H 0.78516 0.96188 0.43798 0.0
H2287 H 0.79048 0.98873 0.45175 0.0
H2288 H 0.74026 0.02004 0.34483 0.0
H2289 H 0.7507 0.04651 0.35659 0.0
H2290 H 0.75139 0.98555 0.34028 0.0
H2291 H 0.75615 0.95965 0.35621 0.0
C2292 C 0.99093 0.75946 0.37735 0.0
C2293 C 0.97847 0.76752 0.39758 0.0
C2294 C 0.01594 0.77802 0.41682 0.0
C2295 C 0.02842 0.76708 0.39793 0.0
N2296 N 0.02845 0.74745 0.36012 0.0
N2297 N 0.97859 0.78301 0.43735 0.0
C2298 C 0.01607 0.75797 0.37805 0.0
C2299 C 0.9908 0.77684 0.41736 0.0
N2300 N 0.97861 0.75361 0.3574 0.0
N2301 N 0.0281 0.78913 0.43451 0.0
H2302 H 0.96019 0.78283 0.43844 0.0
H2303 H 0.98659 0.78683 0.45347 0.0
H2304 H 0.04647 0.78914 0.43571 0.0
H2305 H 0.0201 0.79982 0.4472 0.0
H2306 H 0.98648 0.74951 0.34127 0.0
H2307 H 0.96021 0.75469 0.35645 0.0
H2308 H 0.02064 0.73791 0.34647 0.0
H2309 H 0.04688 0.74747 0.35935 0.0
C2310 C 0.23181 0.01681 0.3796 0.0
C2311 C 0.24031 0.02857 0.40008 0.0
C2312 C 0.24391 0.99061 0.42069 0.0
C2313 C 0.23873 0.97871 0.39928 0.0
N2314 N 0.22834 0.97969 0.35805 0.0
N2315 N 0.25655 0.02671 0.4396 0.0
C2316 C 0.23253 0.99157 0.37866 0.0
C2317 C 0.24683 0.01548 0.42052 0.0
N2318 N 0.22329 0.02977 0.36108 0.0
N2319 N 0.24552 0.97809 0.44135 0.0
H2320 H 0.25844 0.04497 0.44067 0.0
H2321 H 0.2644 0.01785 0.4537 0.0
H2322 H 0.2433 0.9598 0.44222 0.0
H2323 H 0.24674 0.98597 0.45795 0.0
H2324 H 0.21485 0.0224 0.3465 0.0
H2325 H 0.22325 0.04822 0.36105 0.0
H2326 H 0.2262 0.98792 0.34174 0.0
H2327 H 0.22824 0.96126 0.35707 0.0
C2328 C 0.01693 0.23458 0.37957 0.0
C2329 C 0.02967 0.24545 0.39826 0.0
C2330 C 0.99249 0.2577 0.41704 0.0
C2331 C 0.97955 0.24612 0.39885 0.0
N2332 N 0.97903 0.22104 0.36438 0.0
N2333 N 0.02962 0.26263 0.43738 0.0
C2334 C 0.99167 0.23361 0.38068 0.0
C2335 C 0.01744 0.25569 0.41768 0.0
N2336 N 0.02892 0.22625 0.36029 0.0
N2337 N 0.98106 0.27099 0.43375 0.0
H2338 H 0.04795 0.26214 0.43861 0.0
H2339 H 0.02157 0.26696 0.45338 0.0
H2340 H 0.9628 0.27157 0.43571 0.0
H2341 H 0.98968 0.28277 0.44496 0.0
H2342 H 0.02075 0.22037 0.3449 0.0
H2343 H 0.04731 0.22668 0.35902 0.0
H2344 H 0.98666 0.20948 0.35225 0.0
H2345 H 0.96061 0.22111 0.36381 0.0
C2346 C 0.23049 0.02111 0.59533 0.0
C2347 C 0.24154 0.03271 0.61468 0.0
C2348 C 0.2482 0.99439 0.63401 0.0
C2349 C 0.24015 0.98279 0.6133 0.0
N2350 N 0.22561 0.98475 0.57321 0.0
N2351 N 0.26119 0.03099 0.65239 0.0
C2352 C 0.23139 0.99602 0.59383 0.0
C2353 C 0.25033 0.01949 0.63412 0.0
N2354 N 0.21956 0.03407 0.57808 0.0
N2355 N 0.25345 0.98131 0.65366 0.0
H2356 H 0.26174 0.04939 0.65368 0.0
H2357 H 0.27053 0.02244 0.66574 0.0
H2358 H 0.25188 0.96293 0.65405 0.0
H2359 H 0.25743 0.98861 0.67007 0.0
H2360 H 0.20881 0.02666 0.56512 0.0
H2361 H 0.21969 0.05248 0.57758 0.0
H2362 H 0.22216 0.99352 0.5574 0.0
H2363 H 0.22595 0.96643 0.57122 0.0
C2364 C 0.99403 0.2498 0.59089 0.0
C2365 C 0.98151 0.241 0.61084 0.0
C2366 C 0.01915 0.23191 0.63066 0.0
C2367 C 0.0315 0.24077 0.61067 0.0
N2368 N 0.03106 0.25255 0.56968 0.0
N2369 N 0.98147 0.22003 0.64789 0.0
C2370 C 0.01899 0.24795 0.59015 0.0
C2371 C 0.99389 0.2307 0.63011 0.0
N2372 N 0.98213 0.26067 0.57285 0.0
N2373 N 0.03151 0.22577 0.65047 0.0
H2374 H 0.96304 0.2196 0.64827 0.0
H2375 H 0.98929 0.21029 0.66139 0.0
H2376 H 0.04994 0.2261 0.65115 0.0
H2377 H 0.02365 0.22156 0.66658 0.0
H2378 H 0.9904 0.27038 0.55956 0.0
H2379 H 0.96378 0.26138 0.5718 0.0
H2380 H 0.02295 0.25493 0.55333 0.0
H2381 H 0.04942 0.25194 0.56853 0.0
C2382 C 0.01868 0.75331 0.59337 0.0
C2383 C 0.03115 0.76525 0.61164 0.0
C2384 C 0.9934 0.77644 0.63027 0.0
C2385 C 0.98111 0.76512 0.61155 0.0
N2386 N 0.9819 0.74768 0.57256 0.0
N2387 N 0.03088 0.79088 0.64568 0.0
C2388 C 0.99373 0.75495 0.59236 0.0
C2389 C 0.01864 0.77783 0.62947 0.0
N2390 N 0.03058 0.73999 0.57701 0.0
N2391 N 0.98103 0.78482 0.64928 0.0
H2392 H 0.0493 0.79129 0.64628 0.0
H2393 H 0.02291 0.80242 0.65762 0.0
H2394 H 0.96263 0.78411 0.6503 0.0
H2395 H 0.9889 0.79106 0.66469 0.0
H2396 H 0.02229 0.72807 0.56569 0.0
H2397 H 0.04889 0.73952 0.5755 0.0
H2398 H 0.99022 0.74325 0.55672 0.0
H2399 H 0.96358 0.74806 0.57106 0.0
loop_
_geom_bond_atom_site_label_1
_geom_bond_atom_site_label_2
_geom_bond_distance
_geom_bond_site_symmetry_2
_ccdc_geom_bond_type
O0 Cd1 2.223 . S
O0 C8 1.315 . S
Cd1 O0 2.223 . S
Cd1 O4 2.297 . S
Cd1 O5 2.439 . S
Cd1 O11 2.240 . S
Cd2 O3 2.240 . S
Cd2 O10 2.223 . S
Cd2 O12 2.297 . S
Cd2 O13 2.439 . S
O3 Cd2 2.240 . S
O3 C8 1.279 . S
O4 Cd1 2.297 . S
O4 C6 1.247 . S
O5 Cd1 2.439 . S
O5 C6 1.208 . S
C6 O4 1.247 . S
C6 O5 1.208 . S
C7 O12 1.247 . S
C7 O13 1.208 . S
C8 O0 1.315 . S
C8 O3 1.279 . S
C9 O10 1.315 . S
C9 O11 1.279 . S
O10 Cd2 2.223 . S
O10 C9 1.315 . S
O11 Cd1 2.240 . S
O11 C9 1.279 . S
O12 Cd2 2.297 . S
O12 C7 1.247 . S
O13 Cd2 2.439 . S
O13 C7 1.208 . S
O14 Cd15 2.223 . S
O14 C22 1.315 . S
Cd15 O14 2.223 . S
Cd15 O18 2.297 . S
Cd15 O19 2.439 . S
Cd15 O25 2.240 . S
Cd16 O17 2.240 . S
Cd16 O24 2.223 . S
Cd16 O26 2.297 . S
Cd16 O27 2.439 . S
O17 Cd16 2.240 . S
O17 C22 1.279 . S
O18 Cd15 2.297 . S
O18 C20 1.247 . S
O19 Cd15 2.439 . S
O19 C20 1.208 . S
C20 O18 1.247 . S
C20 O19 1.208 . S
C21 O26 1.247 . S
C21 O27 1.208 . S
C22 O14 1.315 . S
C22 O17 1.279 . S
C23 O24 1.315 . S
C23 O25 1.279 . S
O24 Cd16 2.223 . S
O24 C23 1.315 . S
O25 Cd15 2.240 . S
O25 C23 1.279 . S
O26 Cd16 2.297 . S
O26 C21 1.247 . S
O27 Cd16 2.439 . S
O27 C21 1.208 . S
O28 Cd29 2.223 . S
O28 C36 1.315 . S
Cd29 O28 2.223 . S
Cd29 O32 2.297 . S
Cd29 O33 2.439 . S
Cd29 O39 2.240 . S
Cd30 O31 2.240 . S
Cd30 O38 2.223 . S
Cd30 O40 2.297 . S
Cd30 O41 2.439 . S
O31 Cd30 2.240 . S
O31 C36 1.279 . S
O32 Cd29 2.297 . S
O32 C34 1.247 . S
O33 Cd29 2.439 . S
O33 C34 1.208 . S
C34 O32 1.247 . S
C34 O33 1.208 . S
C35 O40 1.247 . S
C35 O41 1.208 . S
C36 O28 1.315 . S
C36 O31 1.279 . S
C37 O38 1.315 . S
C37 O39 1.279 . S
O38 Cd30 2.223 . S
O38 C37 1.315 . S
O39 Cd29 2.240 . S
O39 C37 1.279 . S
O40 Cd30 2.297 . S
O40 C35 1.247 . S
O41 Cd30 2.439 . S
O41 C35 1.208 . S
O42 Cd43 2.223 . S
O42 C50 1.315 . S
Cd43 O42 2.223 . S
Cd43 O46 2.297 . S
Cd43 O47 2.439 . S
Cd43 O53 2.240 . S
Cd44 O45 2.240 . S
Cd44 O52 2.223 . S
Cd44 O54 2.297 . S
Cd44 O55 2.439 . S
O45 Cd44 2.240 . S
O45 C50 1.279 . S
O46 Cd43 2.297 . S
O46 C48 1.247 . S
O47 Cd43 2.439 . S
O47 C48 1.208 . S
C48 O46 1.247 . S
C48 O47 1.208 . S
C49 O54 1.247 . S
C49 O55 1.208 . S
C50 O42 1.315 . S
C50 O45 1.279 . S
C51 O52 1.315 . S
C51 O53 1.279 . S
O52 Cd44 2.223 . S
O52 C51 1.315 . S
O53 Cd43 2.240 . S
O53 C51 1.279 . S
O54 Cd44 2.297 . S
O54 C49 1.247 . S
O55 Cd44 2.439 . S
O55 C49 1.208 . S
O56 Cd57 2.223 . S
O56 C64 1.315 . S
Cd57 O56 2.223 . S
Cd57 O60 2.297 . S
Cd57 O61 2.439 . S
Cd57 O67 2.240 . S
Cd58 O59 2.240 . S
Cd58 O66 2.223 . S
Cd58 O68 2.297 . S
Cd58 O69 2.439 . S
O59 Cd58 2.240 . S
O59 C64 1.279 . S
O60 Cd57 2.297 . S
O60 C62 1.247 . S
O61 Cd57 2.439 . S
O61 C62 1.208 . S
C62 O60 1.247 . S
C62 O61 1.208 . S
C63 O68 1.247 . S
C63 O69 1.208 . S
C64 O56 1.315 . S
C64 O59 1.279 . S
C65 O66 1.315 . S
C65 O67 1.279 . S
O66 Cd58 2.223 . S
O66 C65 1.315 . S
O67 Cd57 2.240 . S
O67 C65 1.279 . S
O68 Cd58 2.297 . S
O68 C63 1.247 . S
O69 Cd58 2.439 . S
O69 C63 1.208 . S
O70 Cd71 2.223 . S
O70 C78 1.315 . S
Cd71 O70 2.223 . S
Cd71 O74 2.297 . S
Cd71 O75 2.439 . S
Cd71 O81 2.240 . S
Cd72 O73 2.240 . S
Cd72 O80 2.223 . S
Cd72 O82 2.297 . S
Cd72 O83 2.439 . S
O73 Cd72 2.240 . S
O73 C78 1.279 . S
O74 Cd71 2.297 . S
O74 C76 1.247 . S
O75 Cd71 2.439 . S
O75 C76 1.208 . S
C76 O74 1.247 . S
C76 O75 1.208 . S
C77 O82 1.247 . S
C77 O83 1.208 . S
C78 O70 1.315 . S
C78 O73 1.279 . S
C79 O80 1.315 . S
C79 O81 1.279 . S
O80 Cd72 2.223 . S
O80 C79 1.315 . S
O81 Cd71 2.240 . S
O81 C79 1.279 . S
O82 Cd72 2.297 . S
O82 C77 1.247 . S
O83 Cd72 2.439 . S
O83 C77 1.208 . S
O84 Cd85 2.223 . S
O84 C92 1.315 . S
Cd85 O84 2.223 . S
Cd85 O88 2.297 . S
Cd85 O89 2.439 . S
Cd85 O95 2.240 . S
Cd86 O87 2.240 . S
Cd86 O94 2.223 . S
Cd86 O96 2.297 . S
Cd86 O97 2.439 . S
O87 Cd86 2.240 . S
O87 C92 1.279 . S
O88 Cd85 2.297 . S
O88 C90 1.247 . S
O89 Cd85 2.439 . S
O89 C90 1.208 . S
C90 O88 1.247 . S
C90 O89 1.208 . S
C91 O96 1.247 . S
C91 O97 1.208 . S
C92 O84 1.315 . S
C92 O87 1.279 . S
C93 O94 1.315 . S
C93 O95 1.279 . S
O94 Cd86 2.223 . S
O94 C93 1.315 . S
O95 Cd85 2.240 . S
O95 C93 1.279 . S
O96 Cd86 2.297 . S
O96 C91 1.247 . S
O97 Cd86 2.439 . S
O97 C91 1.208 . S
O98 Cd99 2.223 . S
O98 C106 1.315 . S
Cd99 O98 2.223 . S
Cd99 O102 2.297 . S
Cd99 O103 2.439 . S
Cd99 O109 2.240 . S
Cd100 O101 2.240 . S
Cd100 O108 2.223 . S
Cd100 O110 2.297 . S
Cd100 O111 2.439 . S
O101 Cd100 2.240 . S
O101 C106 1.279 . S
O102 Cd99 2.297 . S
O102 C104 1.247 . S
O103 Cd99 2.439 . S
O103 C104 1.208 . S
C104 O102 1.247 . S
C104 O103 1.208 . S
C105 O110 1.247 . S
C105 O111 1.208 . S
C106 O98 1.315 . S
C106 O101 1.279 . S
C107 O108 1.315 . S
C107 O109 1.279 . S
O108 Cd100 2.223 . S
O108 C107 1.315 . S
O109 Cd99 2.240 . S
O109 C107 1.279 . S
O110 Cd100 2.297 . S
O110 C105 1.247 . S
O111 Cd100 2.439 . S
O111 C105 1.208 . S
O112 Cd113 2.223 . S
O112 C120 1.315 . S
Cd113 O112 2.223 . S
Cd113 O116 2.297 . S
Cd113 O117 2.439 . S
Cd113 O123 2.240 . S
Cd114 O115 2.240 . S
Cd114 O122 2.223 . S
Cd114 O124 2.297 . S
Cd114 O125 2.439 . S
O115 Cd114 2.240 . S
O115 C120 1.279 . S
O116 Cd113 2.297 . S
O116 C118 1.247 . S
O117 Cd113 2.439 . S
O117 C118 1.208 . S
C118 O116 1.247 . S
C118 O117 1.208 . S
C119 O124 1.247 . S
C119 O125 1.208 . S
C120 O112 1.315 . S
C120 O115 1.279 . S
C121 O122 1.315 . S
C121 O123 1.279 . S
O122 Cd114 2.223 . S
O122 C121 1.315 . S
O123 Cd113 2.240 . S
O123 C121 1.279 . S
O124 Cd114 2.297 . S
O124 C119 1.247 . S
O125 Cd114 2.439 . S
O125 C119 1.208 . S
O126 Cd127 2.223 . S
O126 C134 1.315 . S
Cd127 O126 2.223 . S
Cd127 O130 2.297 . S
Cd127 O131 2.439 . S
Cd127 O137 2.240 . S
Cd128 O129 2.240 . S
Cd128 O136 2.223 . S
Cd128 O138 2.297 . S
Cd128 O139 2.439 . S
O129 Cd128 2.240 . S
O129 C134 1.279 . S
O130 Cd127 2.297 . S
O130 C132 1.247 . S
O131 Cd127 2.439 . S
O131 C132 1.208 . S
C132 O130 1.247 . S
C132 O131 1.208 . S
C133 O138 1.247 . S
C133 O139 1.208 . S
C134 O126 1.315 . S
C134 O129 1.279 . S
C135 O136 1.315 . S
C135 O137 1.279 . S
O136 Cd128 2.223 . S
O136 C135 1.315 . S
O137 Cd127 2.240 . S
O137 C135 1.279 . S
O138 Cd128 2.297 . S
O138 C133 1.247 . S
O139 Cd128 2.439 . S
O139 C133 1.208 . S
O140 Cd141 2.223 . S
O140 C148 1.315 . S
Cd141 O140 2.223 . S
Cd141 O144 2.297 . S
Cd141 O145 2.439 . S
Cd141 O151 2.240 . S
Cd142 O143 2.240 . S
Cd142 O150 2.223 . S
Cd142 O152 2.297 . S
Cd142 O153 2.439 . S
O143 Cd142 2.240 . S
O143 C148 1.279 . S
O144 Cd141 2.297 . S
O144 C146 1.247 . S
O145 Cd141 2.439 . S
O145 C146 1.208 . S
C146 O144 1.247 . S
C146 O145 1.208 . S
C147 O152 1.247 . S
C147 O153 1.208 . S
C148 O140 1.315 . S
C148 O143 1.279 . S
C149 O150 1.315 . S
C149 O151 1.279 . S
O150 Cd142 2.223 . S
O150 C149 1.315 . S
O151 Cd141 2.240 . S
O151 C149 1.279 . S
O152 Cd142 2.297 . S
O152 C147 1.247 . S
O153 Cd142 2.439 . S
O153 C147 1.208 . S
O154 Cd155 2.223 . S
O154 C162 1.315 . S
Cd155 O154 2.223 . S
Cd155 O158 2.297 . S
Cd155 O159 2.439 . S
Cd155 O165 2.240 . S
Cd156 O157 2.240 . S
Cd156 O164 2.223 . S
Cd156 O166 2.297 . S
Cd156 O167 2.439 . S
O157 Cd156 2.240 . S
O157 C162 1.279 . S
O158 Cd155 2.297 . S
O158 C160 1.247 . S
O159 Cd155 2.439 . S
O159 C160 1.208 . S
C160 O158 1.247 . S
C160 O159 1.208 . S
C161 O166 1.247 . S
C161 O167 1.208 . S
C162 O154 1.315 . S
C162 O157 1.279 . S
C163 O164 1.315 . S
C163 O165 1.279 . S
O164 Cd156 2.223 . S
O164 C163 1.315 . S
O165 Cd155 2.240 . S
O165 C163 1.279 . S
O166 Cd156 2.297 . S
O166 C161 1.247 . S
O167 Cd156 2.439 . S
O167 C161 1.208 . S
O168 Cd169 2.223 . S
O168 C176 1.315 . S
Cd169 O168 2.223 . S
Cd169 O172 2.297 . S
Cd169 O173 2.439 . S
Cd169 O179 2.240 . S
Cd170 O171 2.240 . S
Cd170 O178 2.223 . S
Cd170 O180 2.297 . S
Cd170 O181 2.439 . S
O171 Cd170 2.240 . S
O171 C176 1.279 . S
O172 Cd169 2.297 . S
O172 C174 1.247 . S
O173 Cd169 2.439 . S
O173 C174 1.208 . S
C174 O172 1.247 . S
C174 O173 1.208 . S
C175 O180 1.247 . S
C175 O181 1.208 . S
C176 O168 1.315 . S
C176 O171 1.279 . S
C177 O178 1.315 . S
C177 O179 1.279 . S
O178 Cd170 2.223 . S
O178 C177 1.315 . S
O179 Cd169 2.240 . S
O179 C177 1.279 . S
O180 Cd170 2.297 . S
O180 C175 1.247 . S
O181 Cd170 2.439 . S
O181 C175 1.208 . S
O182 Cd183 2.223 . S
O182 C190 1.315 . S
Cd183 O182 2.223 . S
Cd183 O186 2.297 . S
Cd183 O187 2.439 . S
Cd183 O193 2.240 . S
Cd184 O185 2.240 . S
Cd184 O192 2.223 . S
Cd184 O194 2.297 . S
Cd184 O195 2.439 . S
O185 Cd184 2.240 . S
O185 C190 1.279 . S
O186 Cd183 2.297 . S
O186 C188 1.247 . S
O187 Cd183 2.439 . S
O187 C188 1.208 . S
C188 O186 1.247 . S
C188 O187 1.208 . S
C189 O194 1.247 . S
C189 O195 1.208 . S
C190 O182 1.315 . S
C190 O185 1.279 . S
C191 O192 1.315 . S
C191 O193 1.279 . S
O192 Cd184 2.223 . S
O192 C191 1.315 . S
O193 Cd183 2.240 . S
O193 C191 1.279 . S
O194 Cd184 2.297 . S
O194 C189 1.247 . S
O195 Cd184 2.439 . S
O195 C189 1.208 . S
O196 Cd197 2.223 . S
O196 C204 1.315 . S
Cd197 O196 2.223 . S
Cd197 O200 2.297 . S
Cd197 O201 2.439 . S
Cd197 O207 2.240 . S
Cd198 O199 2.240 . S
Cd198 O206 2.223 . S
Cd198 O208 2.297 . S
Cd198 O209 2.439 . S
O199 Cd198 2.240 . S
O199 C204 1.279 . S
O200 Cd197 2.297 . S
O200 C202 1.247 . S
O201 Cd197 2.439 . S
O201 C202 1.208 . S
C202 O200 1.247 . S
C202 O201 1.208 . S
C203 O208 1.247 . S
C203 O209 1.208 . S
C204 O196 1.315 . S
C204 O199 1.279 . S
C205 O206 1.315 . S
C205 O207 1.279 . S
O206 Cd198 2.223 . S
O206 C205 1.315 . S
O207 Cd197 2.240 . S
O207 C205 1.279 . S
O208 Cd198 2.297 . S
O208 C203 1.247 . S
O209 Cd198 2.439 . S
O209 C203 1.208 . S
O210 Cd211 2.223 . S
O210 C218 1.315 . S
Cd211 O210 2.223 . S
Cd211 O214 2.297 . S
Cd211 O215 2.439 . S
Cd211 O221 2.240 . S
Cd212 O213 2.240 . S
Cd212 O220 2.223 . S
Cd212 O222 2.297 . S
Cd212 O223 2.439 . S
O213 Cd212 2.240 . S
O213 C218 1.279 . S
O214 Cd211 2.297 . S
O214 C216 1.247 . S
O215 Cd211 2.439 . S
O215 C216 1.208 . S
C216 O214 1.247 . S
C216 O215 1.208 . S
C217 O222 1.247 . S
C217 O223 1.208 . S
C218 O210 1.315 . S
C218 O213 1.279 . S
C219 O220 1.315 . S
C219 O221 1.279 . S
O220 Cd212 2.223 . S
O220 C219 1.315 . S
O221 Cd211 2.240 . S
O221 C219 1.279 . S
O222 Cd212 2.297 . S
O222 C217 1.247 . S
O223 Cd212 2.439 . S
O223 C217 1.208 . S
O224 Cd225 2.223 . S
O224 C232 1.315 . S
Cd225 O224 2.223 . S
Cd225 O228 2.297 . S
Cd225 O229 2.439 . S
Cd225 O235 2.240 . S
Cd226 O227 2.240 . S
Cd226 O234 2.223 . S
Cd226 O236 2.297 . S
Cd226 O237 2.439 . S
O227 Cd226 2.240 . S
O227 C232 1.279 . S
O228 Cd225 2.297 . S
O228 C230 1.247 . S
O229 Cd225 2.439 . S
O229 C230 1.208 . S
C230 O228 1.247 . S
C230 O229 1.208 . S
C231 O236 1.247 . S
C231 O237 1.208 . S
C232 O224 1.315 . S
C232 O227 1.279 . S
C233 O234 1.315 . S
C233 O235 1.279 . S
O234 Cd226 2.223 . S
O234 C233 1.315 . S
O235 Cd225 2.240 . S
O235 C233 1.279 . S
O236 Cd226 2.297 . S
O236 C231 1.247 . S
O237 Cd226 2.439 . S
O237 C231 1.208 . S
O238 Cd239 2.223 . S
O238 C246 1.315 . S
Cd239 O238 2.223 . S
Cd239 O242 2.297 . S
Cd239 O243 2.439 . S
Cd239 O249 2.240 . S
Cd240 O241 2.240 . S
Cd240 O248 2.223 . S
Cd240 O250 2.297 . S
Cd240 O251 2.439 . S
O241 Cd240 2.240 . S
O241 C246 1.279 . S
O242 Cd239 2.297 . S
O242 C244 1.247 . S
O243 Cd239 2.439 . S
O243 C244 1.208 . S
C244 O242 1.247 . S
C244 O243 1.208 . S
C245 O250 1.247 . S
C245 O251 1.208 . S
C246 O238 1.315 . S
C246 O241 1.279 . S
C247 O248 1.315 . S
C247 O249 1.279 . S
O248 Cd240 2.223 . S
O248 C247 1.315 . S
O249 Cd239 2.240 . S
O249 C247 1.279 . S
O250 Cd240 2.297 . S
O250 C245 1.247 . S
O251 Cd240 2.439 . S
O251 C245 1.208 . S
O252 Cd253 2.223 . S
O252 C260 1.315 . S
Cd253 O252 2.223 . S
Cd253 O256 2.297 . S
Cd253 O257 2.439 . S
Cd253 O263 2.240 . S
Cd254 O255 2.240 . S
Cd254 O262 2.223 . S
Cd254 O264 2.297 . S
Cd254 O265 2.439 . S
O255 Cd254 2.240 . S
O255 C260 1.279 . S
O256 Cd253 2.297 . S
O256 C258 1.247 . S
O257 Cd253 2.439 . S
O257 C258 1.208 . S
C258 O256 1.247 . S
C258 O257 1.208 . S
C259 O264 1.247 . S
C259 O265 1.208 . S
C260 O252 1.315 . S
C260 O255 1.279 . S
C261 O262 1.315 . S
C261 O263 1.279 . S
O262 Cd254 2.223 . S
O262 C261 1.315 . S
O263 Cd253 2.240 . S
O263 C261 1.279 . S
O264 Cd254 2.297 . S
O264 C259 1.247 . S
O265 Cd254 2.439 . S
O265 C259 1.208 . S
O266 Cd267 2.223 . S
O266 C274 1.315 . S
Cd267 O266 2.223 . S
Cd267 O270 2.297 . S
Cd267 O271 2.439 . S
Cd267 O277 2.240 . S
Cd268 O269 2.240 . S
Cd268 O276 2.223 . S
Cd268 O278 2.297 . S
Cd268 O279 2.439 . S
O269 Cd268 2.240 . S
O269 C274 1.279 . S
O270 Cd267 2.297 . S
O270 C272 1.247 . S
O271 Cd267 2.439 . S
O271 C272 1.208 . S
C272 O270 1.247 . S
C272 O271 1.208 . S
C273 O278 1.247 . S
C273 O279 1.208 . S
C274 O266 1.315 . S
C274 O269 1.279 . S
C275 O276 1.315 . S
C275 O277 1.279 . S
O276 Cd268 2.223 . S
O276 C275 1.315 . S
O277 Cd267 2.240 . S
O277 C275 1.279 . S
O278 Cd268 2.297 . S
O278 C273 1.247 . S
O279 Cd268 2.439 . S
O279 C273 1.208 . S
O280 Cd281 2.223 . S
O280 C288 1.315 . S
Cd281 O280 2.223 . S
Cd281 O284 2.297 . S
Cd281 O285 2.439 . S
Cd281 O291 2.240 . S
Cd282 O283 2.240 . S
Cd282 O290 2.223 . S
Cd282 O292 2.297 . S
Cd282 O293 2.439 . S
O283 Cd282 2.240 . S
O283 C288 1.279 . S
O284 Cd281 2.297 . S
O284 C286 1.247 . S
O285 Cd281 2.439 . S
O285 C286 1.208 . S
C286 O284 1.247 . S
C286 O285 1.208 . S
C287 O292 1.247 . S
C287 O293 1.208 . S
C288 O280 1.315 . S
C288 O283 1.279 . S
C289 O290 1.315 . S
C289 O291 1.279 . S
O290 Cd282 2.223 . S
O290 C289 1.315 . S
O291 Cd281 2.240 . S
O291 C289 1.279 . S
O292 Cd282 2.297 . S
O292 C287 1.247 . S
O293 Cd282 2.439 . S
O293 C287 1.208 . S
O294 Cd295 2.223 . S
O294 C302 1.315 . S
Cd295 O294 2.223 . S
Cd295 O298 2.297 . S
Cd295 O299 2.439 . S
Cd295 O305 2.240 . S
Cd296 O297 2.240 . S
Cd296 O304 2.223 . S
Cd296 O306 2.297 . S
Cd296 O307 2.439 . S
O297 Cd296 2.240 . S
O297 C302 1.279 . S
O298 Cd295 2.297 . S
O298 C300 1.247 . S
O299 Cd295 2.439 . S
O299 C300 1.208 . S
C300 O298 1.247 . S
C300 O299 1.208 . S
C301 O306 1.247 . S
C301 O307 1.208 . S
C302 O294 1.315 . S
C302 O297 1.279 . S
C303 O304 1.315 . S
C303 O305 1.279 . S
O304 Cd296 2.223 . S
O304 C303 1.315 . S
O305 Cd295 2.240 . S
O305 C303 1.279 . S
O306 Cd296 2.297 . S
O306 C301 1.247 . S
O307 Cd296 2.439 . S
O307 C301 1.208 . S
O308 Cd309 2.223 . S
O308 C316 1.315 . S
Cd309 O308 2.223 . S
Cd309 O312 2.297 . S
Cd309 O313 2.439 . S
Cd309 O319 2.240 . S
Cd310 O311 2.240 . S
Cd310 O318 2.223 . S
Cd310 O320 2.297 . S
Cd310 O321 2.439 . S
O311 Cd310 2.240 . S
O311 C316 1.279 . S
O312 Cd309 2.297 . S
O312 C314 1.247 . S
O313 Cd309 2.439 . S
O313 C314 1.208 . S
C314 O312 1.247 . S
C314 O313 1.208 . S
C315 O320 1.247 . S
C315 O321 1.208 . S
C316 O308 1.315 . S
C316 O311 1.279 . S
C317 O318 1.315 . S
C317 O319 1.279 . S
O318 Cd310 2.223 . S
O318 C317 1.315 . S
O319 Cd309 2.240 . S
O319 C317 1.279 . S
O320 Cd310 2.297 . S
O320 C315 1.247 . S
O321 Cd310 2.439 . S
O321 C315 1.208 . S
O322 Cd323 2.223 . S
O322 C330 1.315 . S
Cd323 O322 2.223 . S
Cd323 O326 2.297 . S
Cd323 O327 2.439 . S
Cd323 O333 2.240 . S
Cd324 O325 2.240 . S
Cd324 O332 2.223 . S
Cd324 O334 2.297 . S
Cd324 O335 2.439 . S
O325 Cd324 2.240 . S
O325 C330 1.279 . S
O326 Cd323 2.297 . S
O326 C328 1.247 . S
O327 Cd323 2.439 . S
O327 C328 1.208 . S
C328 O326 1.247 . S
C328 O327 1.208 . S
C329 O334 1.247 . S
C329 O335 1.208 . S
C330 O322 1.315 . S
C330 O325 1.279 . S
C331 O332 1.315 . S
C331 O333 1.279 . S
O332 Cd324 2.223 . S
O332 C331 1.315 . S
O333 Cd323 2.240 . S
O333 C331 1.279 . S
O334 Cd324 2.297 . S
O334 C329 1.247 . S
O335 Cd324 2.439 . S
O335 C329 1.208 . S
O336 Cd337 2.223 . S
O336 C344 1.315 . S
Cd337 O336 2.223 . S
Cd337 O340 2.297 . S
Cd337 O341 2.439 . S
Cd337 O347 2.240 . S
Cd338 O339 2.240 . S
Cd338 O346 2.223 . S
Cd338 O348 2.297 . S
Cd338 O349 2.439 . S
O339 Cd338 2.240 . S
O339 C344 1.279 . S
O340 Cd337 2.297 . S
O340 C342 1.247 . S
O341 Cd337 2.439 . S
O341 C342 1.208 . S
C342 O340 1.247 . S
C342 O341 1.208 . S
C343 O348 1.247 . S
C343 O349 1.208 . S
C344 O336 1.315 . S
C344 O339 1.279 . S
C345 O346 1.315 . S
C345 O347 1.279 . S
O346 Cd338 2.223 . S
O346 C345 1.315 . S
O347 Cd337 2.240 . S
O347 C345 1.279 . S
O348 Cd338 2.297 . S
O348 C343 1.247 . S
O349 Cd338 2.439 . S
O349 C343 1.208 . S
O350 Cd351 2.223 . S
O350 C358 1.315 . S
Cd351 O350 2.223 . S
Cd351 O354 2.297 . S
Cd351 O355 2.439 . S
Cd351 O361 2.240 . S
Cd352 O353 2.240 . S
Cd352 O360 2.223 . S
Cd352 O362 2.297 . S
Cd352 O363 2.439 . S
O353 Cd352 2.240 . S
O353 C358 1.279 . S
O354 Cd351 2.297 . S
O354 C356 1.247 . S
O355 Cd351 2.439 . S
O355 C356 1.208 . S
C356 O354 1.247 . S
C356 O355 1.208 . S
C357 O362 1.247 . S
C357 O363 1.208 . S
C358 O350 1.315 . S
C358 O353 1.279 . S
C359 O360 1.315 . S
C359 O361 1.279 . S
O360 Cd352 2.223 . S
O360 C359 1.315 . S
O361 Cd351 2.240 . S
O361 C359 1.279 . S
O362 Cd352 2.297 . S
O362 C357 1.247 . S
O363 Cd352 2.439 . S
O363 C357 1.208 . S
O364 Cd365 2.223 . S
O364 C372 1.315 . S
Cd365 O364 2.223 . S
Cd365 O368 2.297 . S
Cd365 O369 2.439 . S
Cd365 O375 2.240 . S
Cd366 O367 2.240 . S
Cd366 O374 2.223 . S
Cd366 O376 2.297 . S
Cd366 O377 2.439 . S
O367 Cd366 2.240 . S
O367 C372 1.279 . S
O368 Cd365 2.297 . S
O368 C370 1.247 . S
O369 Cd365 2.439 . S
O369 C370 1.208 . S
C370 O368 1.247 . S
C370 O369 1.208 . S
C371 O376 1.247 . S
C371 O377 1.208 . S
C372 O364 1.315 . S
C372 O367 1.279 . S
C373 O374 1.315 . S
C373 O375 1.279 . S
O374 Cd366 2.223 . S
O374 C373 1.315 . S
O375 Cd365 2.240 . S
O375 C373 1.279 . S
O376 Cd366 2.297 . S
O376 C371 1.247 . S
O377 Cd366 2.439 . S
O377 C371 1.208 . S
O378 Cd379 2.223 . S
O378 C386 1.315 . S
Cd379 O378 2.223 . S
Cd379 O382 2.297 . S
Cd379 O383 2.439 . S
Cd379 O389 2.240 . S
Cd380 O381 2.240 . S
Cd380 O388 2.223 . S
Cd380 O390 2.297 . S
Cd380 O391 2.439 . S
O381 Cd380 2.240 . S
O381 C386 1.279 . S
O382 Cd379 2.297 . S
O382 C384 1.247 . S
O383 Cd379 2.439 . S
O383 C384 1.208 . S
C384 O382 1.247 . S
C384 O383 1.208 . S
C385 O390 1.247 . S
C385 O391 1.208 . S
C386 O378 1.315 . S
C386 O381 1.279 . S
C387 O388 1.315 . S
C387 O389 1.279 . S
O388 Cd380 2.223 . S
O388 C387 1.315 . S
O389 Cd379 2.240 . S
O389 C387 1.279 . S
O390 Cd380 2.297 . S
O390 C385 1.247 . S
O391 Cd380 2.439 . S
O391 C385 1.208 . S
O392 Cd393 2.223 . S
O392 C400 1.315 . S
Cd393 O392 2.223 . S
Cd393 O396 2.297 . S
Cd393 O397 2.439 . S
Cd393 O403 2.240 . S
Cd394 O395 2.240 . S
Cd394 O402 2.223 . S
Cd394 O404 2.297 . S
Cd394 O405 2.439 . S
O395 Cd394 2.240 . S
O395 C400 1.279 . S
O396 Cd393 2.297 . S
O396 C398 1.247 . S
O397 Cd393 2.439 . S
O397 C398 1.208 . S
C398 O396 1.247 . S
C398 O397 1.208 . S
C399 O404 1.247 . S
C399 O405 1.208 . S
C400 O392 1.315 . S
C400 O395 1.279 . S
C401 O402 1.315 . S
C401 O403 1.279 . S
O402 Cd394 2.223 . S
O402 C401 1.315 . S
O403 Cd393 2.240 . S
O403 C401 1.279 . S
O404 Cd394 2.297 . S
O404 C399 1.247 . S
O405 Cd394 2.439 . S
O405 C399 1.208 . S
O406 Cd407 2.223 . S
O406 C414 1.315 . S
Cd407 O406 2.223 . S
Cd407 O410 2.297 . S
Cd407 O411 2.439 . S
Cd407 O417 2.240 . S
Cd408 O409 2.240 . S
Cd408 O416 2.223 . S
Cd408 O418 2.297 . S
Cd408 O419 2.439 . S
O409 Cd408 2.240 . S
O409 C414 1.279 . S
O410 Cd407 2.297 . S
O410 C412 1.247 . S
O411 Cd407 2.439 . S
O411 C412 1.208 . S
C412 O410 1.247 . S
C412 O411 1.208 . S
C413 O418 1.247 . S
C413 O419 1.208 . S
C414 O406 1.315 . S
C414 O409 1.279 . S
C415 O416 1.315 . S
C415 O417 1.279 . S
O416 Cd408 2.223 . S
O416 C415 1.315 . S
O417 Cd407 2.240 . S
O417 C415 1.279 . S
O418 Cd408 2.297 . S
O418 C413 1.247 . S
O419 Cd408 2.439 . S
O419 C413 1.208 . S
O420 Cd421 2.223 . S
O420 C428 1.315 . S
Cd421 O420 2.223 . S
Cd421 O424 2.297 . S
Cd421 O425 2.439 . S
Cd421 O431 2.240 . S
Cd422 O423 2.240 . S
Cd422 O430 2.223 . S
Cd422 O432 2.297 . S
Cd422 O433 2.439 . S
O423 Cd422 2.240 . S
O423 C428 1.279 . S
O424 Cd421 2.297 . S
O424 C426 1.247 . S
O425 Cd421 2.439 . S
O425 C426 1.208 . S
C426 O424 1.247 . S
C426 O425 1.208 . S
C427 O432 1.247 . S
C427 O433 1.208 . S
C428 O420 1.315 . S
C428 O423 1.279 . S
C429 O430 1.315 . S
C429 O431 1.279 . S
O430 Cd422 2.223 . S
O430 C429 1.315 . S
O431 Cd421 2.240 . S
O431 C429 1.279 . S
O432 Cd422 2.297 . S
O432 C427 1.247 . S
O433 Cd422 2.439 . S
O433 C427 1.208 . S
O434 Cd435 2.223 . S
O434 C442 1.315 . S
Cd435 O434 2.223 . S
Cd435 O438 2.297 . S
Cd435 O439 2.439 . S
Cd435 O445 2.240 . S
Cd436 O437 2.240 . S
Cd436 O444 2.223 . S
Cd436 O446 2.297 . S
Cd436 O447 2.439 . S
O437 Cd436 2.240 . S
O437 C442 1.279 . S
O438 Cd435 2.297 . S
O438 C440 1.247 . S
O439 Cd435 2.439 . S
O439 C440 1.208 . S
C440 O438 1.247 . S
C440 O439 1.208 . S
C441 O446 1.247 . S
C441 O447 1.208 . S
C442 O434 1.315 . S
C442 O437 1.279 . S
C443 O444 1.315 . S
C443 O445 1.279 . S
O444 Cd436 2.223 . S
O444 C443 1.315 . S
O445 Cd435 2.240 . S
O445 C443 1.279 . S
O446 Cd436 2.297 . S
O446 C441 1.247 . S
O447 Cd436 2.439 . S
O447 C441 1.208 . S
O448 Cd449 2.223 . S
O448 C456 1.315 . S
Cd449 O448 2.223 . S
Cd449 O452 2.297 . S
Cd449 O453 2.439 . S
Cd449 O459 2.240 . S
Cd450 O451 2.240 . S
Cd450 O458 2.223 . S
Cd450 O460 2.297 . S
Cd450 O461 2.439 . S
O451 Cd450 2.240 . S
O451 C456 1.279 . S
O452 Cd449 2.297 . S
O452 C454 1.247 . S
O453 Cd449 2.439 . S
O453 C454 1.208 . S
C454 O452 1.247 . S
C454 O453 1.208 . S
C455 O460 1.247 . S
C455 O461 1.208 . S
C456 O448 1.315 . S
C456 O451 1.279 . S
C457 O458 1.315 . S
C457 O459 1.279 . S
O458 Cd450 2.223 . S
O458 C457 1.315 . S
O459 Cd449 2.240 . S
O459 C457 1.279 . S
O460 Cd450 2.297 . S
O460 C455 1.247 . S
O461 Cd450 2.439 . S
O461 C455 1.208 . S
O462 Cd463 2.223 . S
O462 C470 1.315 . S
Cd463 O462 2.223 . S
Cd463 O466 2.297 . S
Cd463 O467 2.439 . S
Cd463 O473 2.240 . S
Cd464 O465 2.240 . S
Cd464 O472 2.223 . S
Cd464 O474 2.297 . S
Cd464 O475 2.439 . S
O465 Cd464 2.240 . S
O465 C470 1.279 . S
O466 Cd463 2.297 . S
O466 C468 1.247 . S
O467 Cd463 2.439 . S
O467 C468 1.208 . S
C468 O466 1.247 . S
C468 O467 1.208 . S
C469 O474 1.247 . S
C469 O475 1.208 . S
C470 O462 1.315 . S
C470 O465 1.279 . S
C471 O472 1.315 . S
C471 O473 1.279 . S
O472 Cd464 2.223 . S
O472 C471 1.315 . S
O473 Cd463 2.240 . S
O473 C471 1.279 . S
O474 Cd464 2.297 . S
O474 C469 1.247 . S
O475 Cd464 2.439 . S
O475 C469 1.208 . S
O476 Cd477 2.223 . S
O476 C484 1.315 . S
Cd477 O476 2.223 . S
Cd477 O480 2.297 . S
Cd477 O481 2.439 . S
Cd477 O487 2.240 . S
Cd478 O479 2.240 . S
Cd478 O486 2.223 . S
Cd478 O488 2.297 . S
Cd478 O489 2.439 . S
O479 Cd478 2.240 . S
O479 C484 1.279 . S
O480 Cd477 2.297 . S
O480 C482 1.247 . S
O481 Cd477 2.439 . S
O481 C482 1.208 . S
C482 O480 1.247 . S
C482 O481 1.208 . S
C483 O488 1.247 . S
C483 O489 1.208 . S
C484 O476 1.315 . S
C484 O479 1.279 . S
C485 O486 1.315 . S
C485 O487 1.279 . S
O486 Cd478 2.223 . S
O486 C485 1.315 . S
O487 Cd477 2.240 . S
O487 C485 1.279 . S
O488 Cd478 2.297 . S
O488 C483 1.247 . S
O489 Cd478 2.439 . S
O489 C483 1.208 . S
O490 Cd491 2.223 . S
O490 C498 1.315 . S
Cd491 O490 2.223 . S
Cd491 O494 2.297 . S
Cd491 O495 2.439 . S
Cd491 O501 2.240 . S
Cd492 O493 2.240 . S
Cd492 O500 2.223 . S
Cd492 O502 2.297 . S
Cd492 O503 2.439 . S
O493 Cd492 2.240 . S
O493 C498 1.279 . S
O494 Cd491 2.297 . S
O494 C496 1.247 . S
O495 Cd491 2.439 . S
O495 C496 1.208 . S
C496 O494 1.247 . S
C496 O495 1.208 . S
C497 O502 1.247 . S
C497 O503 1.208 . S
C498 O490 1.315 . S
C498 O493 1.279 . S
C499 O500 1.315 . S
C499 O501 1.279 . S
O500 Cd492 2.223 . S
O500 C499 1.315 . S
O501 Cd491 2.240 . S
O501 C499 1.279 . S
O502 Cd492 2.297 . S
O502 C497 1.247 . S
O503 Cd492 2.439 . S
O503 C497 1.208 . S
O504 Cd505 2.223 . S
O504 C512 1.315 . S
Cd505 O504 2.223 . S
Cd505 O508 2.297 . S
Cd505 O509 2.439 . S
Cd505 O515 2.240 . S
Cd506 O507 2.240 . S
Cd506 O514 2.223 . S
Cd506 O516 2.297 . S
Cd506 O517 2.439 . S
O507 Cd506 2.240 . S
O507 C512 1.279 . S
O508 Cd505 2.297 . S
O508 C510 1.247 . S
O509 Cd505 2.439 . S
O509 C510 1.208 . S
C510 O508 1.247 . S
C510 O509 1.208 . S
C511 O516 1.247 . S
C511 O517 1.208 . S
C512 O504 1.315 . S
C512 O507 1.279 . S
C513 O514 1.315 . S
C513 O515 1.279 . S
O514 Cd506 2.223 . S
O514 C513 1.315 . S
O515 Cd505 2.240 . S
O515 C513 1.279 . S
O516 Cd506 2.297 . S
O516 C511 1.247 . S
O517 Cd506 2.439 . S
O517 C511 1.208 . S
O518 Cd519 2.223 . S
O518 C526 1.315 . S
Cd519 O518 2.223 . S
Cd519 O522 2.297 . S
Cd519 O523 2.439 . S
Cd519 O529 2.240 . S
Cd520 O521 2.240 . S
Cd520 O528 2.223 . S
Cd520 O530 2.297 . S
Cd520 O531 2.439 . S
O521 Cd520 2.240 . S
O521 C526 1.279 . S
O522 Cd519 2.297 . S
O522 C524 1.247 . S
O523 Cd519 2.439 . S
O523 C524 1.208 . S
C524 O522 1.247 . S
C524 O523 1.208 . S
C525 O530 1.247 . S
C525 O531 1.208 . S
C526 O518 1.315 . S
C526 O521 1.279 . S
C527 O528 1.315 . S
C527 O529 1.279 . S
O528 Cd520 2.223 . S
O528 C527 1.315 . S
O529 Cd519 2.240 . S
O529 C527 1.279 . S
O530 Cd520 2.297 . S
O530 C525 1.247 . S
O531 Cd520 2.439 . S
O531 C525 1.208 . S
O532 Cd533 2.223 . S
O532 C540 1.315 . S
Cd533 O532 2.223 . S
Cd533 O536 2.297 . S
Cd533 O537 2.439 . S
Cd533 O543 2.240 . S
Cd534 O535 2.240 . S
Cd534 O542 2.223 . S
Cd534 O544 2.297 . S
Cd534 O545 2.439 . S
O535 Cd534 2.240 . S
O535 C540 1.279 . S
O536 Cd533 2.297 . S
O536 C538 1.247 . S
O537 Cd533 2.439 . S
O537 C538 1.208 . S
C538 O536 1.247 . S
C538 O537 1.208 . S
C539 O544 1.247 . S
C539 O545 1.208 . S
C540 O532 1.315 . S
C540 O535 1.279 . S
C541 O542 1.315 . S
C541 O543 1.279 . S
O542 Cd534 2.223 . S
O542 C541 1.315 . S
O543 Cd533 2.240 . S
O543 C541 1.279 . S
O544 Cd534 2.297 . S
O544 C539 1.247 . S
O545 Cd534 2.439 . S
O545 C539 1.208 . S
O546 Cd547 2.223 . S
O546 C554 1.315 . S
Cd547 O546 2.223 . S
Cd547 O550 2.297 . S
Cd547 O551 2.439 . S
Cd547 O557 2.240 . S
Cd548 O549 2.240 . S
Cd548 O556 2.223 . S
Cd548 O558 2.297 . S
Cd548 O559 2.439 . S
O549 Cd548 2.240 . S
O549 C554 1.279 . S
O550 Cd547 2.297 . S
O550 C552 1.247 . S
O551 Cd547 2.439 . S
O551 C552 1.208 . S
C552 O550 1.247 . S
C552 O551 1.208 . S
C553 O558 1.247 . S
C553 O559 1.208 . S
C554 O546 1.315 . S
C554 O549 1.279 . S
C555 O556 1.315 . S
C555 O557 1.279 . S
O556 Cd548 2.223 . S
O556 C555 1.315 . S
O557 Cd547 2.240 . S
O557 C555 1.279 . S
O558 Cd548 2.297 . S
O558 C553 1.247 . S
O559 Cd548 2.439 . S
O559 C553 1.208 . S
O560 Cd561 2.223 . S
O560 C568 1.315 . S
Cd561 O560 2.223 . S
Cd561 O564 2.297 . S
Cd561 O565 2.439 . S
Cd561 O571 2.240 . S
Cd562 O563 2.240 . S
Cd562 O570 2.223 . S
Cd562 O572 2.297 . S
Cd562 O573 2.439 . S
O563 Cd562 2.240 . S
O563 C568 1.279 . S
O564 Cd561 2.297 . S
O564 C566 1.247 . S
O565 Cd561 2.439 . S
O565 C566 1.208 . S
C566 O564 1.247 . S
C566 O565 1.208 . S
C567 O572 1.247 . S
C567 O573 1.208 . S
C568 O560 1.315 . S
C568 O563 1.279 . S
C569 O570 1.315 . S
C569 O571 1.279 . S
O570 Cd562 2.223 . S
O570 C569 1.315 . S
O571 Cd561 2.240 . S
O571 C569 1.279 . S
O572 Cd562 2.297 . S
O572 C567 1.247 . S
O573 Cd562 2.439 . S
O573 C567 1.208 . S
O574 Cd575 2.223 . S
O574 C582 1.315 . S
Cd575 O574 2.223 . S
Cd575 O578 2.297 . S
Cd575 O579 2.439 . S
Cd575 O585 2.240 . S
Cd576 O577 2.240 . S
Cd576 O584 2.223 . S
Cd576 O586 2.297 . S
Cd576 O587 2.439 . S
O577 Cd576 2.240 . S
O577 C582 1.279 . S
O578 Cd575 2.297 . S
O578 C580 1.247 . S
O579 Cd575 2.439 . S
O579 C580 1.208 . S
C580 O578 1.247 . S
C580 O579 1.208 . S
C581 O586 1.247 . S
C581 O587 1.208 . S
C582 O574 1.315 . S
C582 O577 1.279 . S
C583 O584 1.315 . S
C583 O585 1.279 . S
O584 Cd576 2.223 . S
O584 C583 1.315 . S
O585 Cd575 2.240 . S
O585 C583 1.279 . S
O586 Cd576 2.297 . S
O586 C581 1.247 . S
O587 Cd576 2.439 . S
O587 C581 1.208 . S
O588 Cd589 2.223 . S
O588 C596 1.315 . S
Cd589 O588 2.223 . S
Cd589 O592 2.297 . S
Cd589 O593 2.439 . S
Cd589 O599 2.240 . S
Cd590 O591 2.240 . S
Cd590 O598 2.223 . S
Cd590 O600 2.297 . S
Cd590 O601 2.439 . S
O591 Cd590 2.240 . S
O591 C596 1.279 . S
O592 Cd589 2.297 . S
O592 C594 1.247 . S
O593 Cd589 2.439 . S
O593 C594 1.208 . S
C594 O592 1.247 . S
C594 O593 1.208 . S
C595 O600 1.247 . S
C595 O601 1.208 . S
C596 O588 1.315 . S
C596 O591 1.279 . S
C597 O598 1.315 . S
C597 O599 1.279 . S
O598 Cd590 2.223 . S
O598 C597 1.315 . S
O599 Cd589 2.240 . S
O599 C597 1.279 . S
O600 Cd590 2.297 . S
O600 C595 1.247 . S
O601 Cd590 2.439 . S
O601 C595 1.208 . S
O602 Cd603 2.223 . S
O602 C610 1.315 . S
Cd603 O602 2.223 . S
Cd603 O606 2.297 . S
Cd603 O607 2.439 . S
Cd603 O613 2.240 . S
Cd604 O605 2.240 . S
Cd604 O612 2.223 . S
Cd604 O614 2.297 . S
Cd604 O615 2.439 . S
O605 Cd604 2.240 . S
O605 C610 1.279 . S
O606 Cd603 2.297 . S
O606 C608 1.247 . S
O607 Cd603 2.439 . S
O607 C608 1.208 . S
C608 O606 1.247 . S
C608 O607 1.208 . S
C609 O614 1.247 . S
C609 O615 1.208 . S
C610 O602 1.315 . S
C610 O605 1.279 . S
C611 O612 1.315 . S
C611 O613 1.279 . S
O612 Cd604 2.223 . S
O612 C611 1.315 . S
O613 Cd603 2.240 . S
O613 C611 1.279 . S
O614 Cd604 2.297 . S
O614 C609 1.247 . S
O615 Cd604 2.439 . S
O615 C609 1.208 . S
O616 Cd617 2.223 . S
O616 C624 1.315 . S
Cd617 O616 2.223 . S
Cd617 O620 2.297 . S
Cd617 O621 2.439 . S
Cd617 O627 2.240 . S
Cd618 O619 2.240 . S
Cd618 O626 2.223 . S
Cd618 O628 2.297 . S
Cd618 O629 2.439 . S
O619 Cd618 2.240 . S
O619 C624 1.279 . S
O620 Cd617 2.297 . S
O620 C622 1.247 . S
O621 Cd617 2.439 . S
O621 C622 1.208 . S
C622 O620 1.247 . S
C622 O621 1.208 . S
C623 O628 1.247 . S
C623 O629 1.208 . S
C624 O616 1.315 . S
C624 O619 1.279 . S
C625 O626 1.315 . S
C625 O627 1.279 . S
O626 Cd618 2.223 . S
O626 C625 1.315 . S
O627 Cd617 2.240 . S
O627 C625 1.279 . S
O628 Cd618 2.297 . S
O628 C623 1.247 . S
O629 Cd618 2.439 . S
O629 C623 1.208 . S
O630 Cd631 2.223 . S
O630 C638 1.315 . S
Cd631 O630 2.223 . S
Cd631 O634 2.297 . S
Cd631 O635 2.439 . S
Cd631 O641 2.240 . S
Cd632 O633 2.240 . S
Cd632 O640 2.223 . S
Cd632 O642 2.297 . S
Cd632 O643 2.439 . S
O633 Cd632 2.240 . S
O633 C638 1.279 . S
O634 Cd631 2.297 . S
O634 C636 1.247 . S
O635 Cd631 2.439 . S
O635 C636 1.208 . S
C636 O634 1.247 . S
C636 O635 1.208 . S
C637 O642 1.247 . S
C637 O643 1.208 . S
C638 O630 1.315 . S
C638 O633 1.279 . S
C639 O640 1.315 . S
C639 O641 1.279 . S
O640 Cd632 2.223 . S
O640 C639 1.315 . S
O641 Cd631 2.240 . S
O641 C639 1.279 . S
O642 Cd632 2.297 . S
O642 C637 1.247 . S
O643 Cd632 2.439 . S
O643 C637 1.208 . S
O644 Cd645 2.223 . S
O644 C652 1.315 . S
Cd645 O644 2.223 . S
Cd645 O648 2.297 . S
Cd645 O649 2.439 . S
Cd645 O655 2.240 . S
Cd646 O647 2.240 . S
Cd646 O654 2.223 . S
Cd646 O656 2.297 . S
Cd646 O657 2.439 . S
O647 Cd646 2.240 . S
O647 C652 1.279 . S
O648 Cd645 2.297 . S
O648 C650 1.247 . S
O649 Cd645 2.439 . S
O649 C650 1.208 . S
C650 O648 1.247 . S
C650 O649 1.208 . S
C651 O656 1.247 . S
C651 O657 1.208 . S
C652 O644 1.315 . S
C652 O647 1.279 . S
C653 O654 1.315 . S
C653 O655 1.279 . S
O654 Cd646 2.223 . S
O654 C653 1.315 . S
O655 Cd645 2.240 . S
O655 C653 1.279 . S
O656 Cd646 2.297 . S
O656 C651 1.247 . S
O657 Cd646 2.439 . S
O657 C651 1.208 . S
O658 Cd659 2.223 . S
O658 C666 1.315 . S
Cd659 O658 2.223 . S
Cd659 O662 2.297 . S
Cd659 O663 2.439 . S
Cd659 O669 2.240 . S
Cd660 O661 2.240 . S
Cd660 O668 2.223 . S
Cd660 O670 2.297 . S
Cd660 O671 2.439 . S
O661 Cd660 2.240 . S
O661 C666 1.279 . S
O662 Cd659 2.297 . S
O662 C664 1.247 . S
O663 Cd659 2.439 . S
O663 C664 1.208 . S
C664 O662 1.247 . S
C664 O663 1.208 . S
C665 O670 1.247 . S
C665 O671 1.208 . S
C666 O658 1.315 . S
C666 O661 1.279 . S
C667 O668 1.315 . S
C667 O669 1.279 . S
O668 Cd660 2.223 . S
O668 C667 1.315 . S
O669 Cd659 2.240 . S
O669 C667 1.279 . S
O670 Cd660 2.297 . S
O670 C665 1.247 . S
O671 Cd660 2.439 . S
O671 C665 1.208 . S
C672 C673 1.363 . S
C672 C678 1.379 . S
C672 N680 1.356 . S
C673 C672 1.363 . S
C673 C679 1.363 . S
C674 C675 1.363 . S
C674 C679 1.379 . S
C674 N681 1.356 . S
C675 C674 1.363 . S
C675 C678 1.363 . S
N676 C678 1.356 . S
N676 H688 0.984 . S
N676 H689 0.985 . S
N677 C679 1.356 . S
N677 H682 0.984 . S
N677 H683 0.985 . S
C678 C672 1.379 . S
C678 C675 1.363 . S
C678 N676 1.356 . S
C679 C673 1.363 . S
C679 C674 1.379 . S
C679 N677 1.356 . S
N680 C672 1.356 . S
N680 H686 0.984 . S
N680 H687 0.984 . S
N681 C674 1.356 . S
N681 H684 0.984 . S
N681 H685 0.985 . S
H682 N677 0.984 . S
H683 N677 0.985 . S
H684 N681 0.984 . S
H685 N681 0.985 . S
H686 N680 0.984 . S
H687 N680 0.984 . S
H688 N676 0.984 . S
H689 N676 0.985 . S
C690 C691 1.363 . S
C690 C696 1.379 . S
C690 N698 1.356 . S
C691 C690 1.363 . S
C691 C697 1.363 . S
C692 C693 1.363 . S
C692 C697 1.379 . S
C692 N699 1.356 . S
C693 C692 1.363 . S
C693 C696 1.363 . S
N694 C696 1.356 . S
N694 H706 0.984 . S
N694 H707 0.985 . S
N695 C697 1.356 . S
N695 H700 0.984 . S
N695 H701 0.985 . S
C696 C690 1.379 . S
C696 C693 1.363 . S
C696 N694 1.356 . S
C697 C691 1.363 . S
C697 C692 1.379 . S
C697 N695 1.356 . S
N698 C690 1.356 . S
N698 H704 0.984 . S
N698 H705 0.984 . S
N699 C692 1.356 . S
N699 H702 0.984 . S
N699 H703 0.985 . S
H700 N695 0.984 . S
H701 N695 0.985 . S
H702 N699 0.984 . S
H703 N699 0.985 . S
H704 N698 0.984 . S
H705 N698 0.984 . S
H706 N694 0.984 . S
H707 N694 0.985 . S
C708 C709 1.363 . S
C708 C714 1.379 . S
C708 N716 1.356 . S
C709 C708 1.363 . S
C709 C715 1.363 . S
C710 C711 1.363 . S
C710 C715 1.379 . S
C710 N717 1.356 . S
C711 C710 1.363 . S
C711 C714 1.363 . S
N712 C714 1.356 . S
N712 H724 0.984 . S
N712 H725 0.985 . S
N713 C715 1.356 . S
N713 H718 0.984 . S
N713 H719 0.985 . S
C714 C708 1.379 . S
C714 C711 1.363 . S
C714 N712 1.356 . S
C715 C709 1.363 . S
C715 C710 1.379 . S
C715 N713 1.356 . S
N716 C708 1.356 . S
N716 H722 0.984 . S
N716 H723 0.984 . S
N717 C710 1.356 . S
N717 H720 0.984 . S
N717 H721 0.985 . S
H718 N713 0.984 . S
H719 N713 0.985 . S
H720 N717 0.984 . S
H721 N717 0.985 . S
H722 N716 0.984 . S
H723 N716 0.984 . S
H724 N712 0.984 . S
H725 N712 0.985 . S
C726 C727 1.363 . S
C726 C732 1.379 . S
C726 N734 1.356 . S
C727 C726 1.363 . S
C727 C733 1.363 . S
C728 C729 1.363 . S
C728 C733 1.379 . S
C728 N735 1.356 . S
C729 C728 1.363 . S
C729 C732 1.363 . S
N730 C732 1.356 . S
N730 H742 0.984 . S
N730 H743 0.985 . S
N731 C733 1.356 . S
N731 H736 0.984 . S
N731 H737 0.985 . S
C732 C726 1.379 . S
C732 C729 1.363 . S
C732 N730 1.356 . S
C733 C727 1.363 . S
C733 C728 1.379 . S
C733 N731 1.356 . S
N734 C726 1.356 . S
N734 H740 0.984 . S
N734 H741 0.984 . S
N735 C728 1.356 . S
N735 H738 0.984 . S
N735 H739 0.985 . S
H736 N731 0.984 . S
H737 N731 0.985 . S
H738 N735 0.984 . S
H739 N735 0.985 . S
H740 N734 0.984 . S
H741 N734 0.984 . S
H742 N730 0.984 . S
H743 N730 0.985 . S
C744 C745 1.363 . S
C744 C750 1.379 . S
C744 N752 1.356 . S
C745 C744 1.363 . S
C745 C751 1.363 . S
C746 C747 1.363 . S
C746 C751 1.379 . S
C746 N753 1.356 . S
C747 C746 1.363 . S
C747 C750 1.363 . S
N748 C750 1.356 . S
N748 H760 0.984 . S
N748 H761 0.985 . S
N749 C751 1.356 . S
N749 H754 0.984 . S
N749 H755 0.985 . S
C750 C744 1.379 . S
C750 C747 1.363 . S
C750 N748 1.356 . S
C751 C745 1.363 . S
C751 C746 1.379 . S
C751 N749 1.356 . S
N752 C744 1.356 . S
N752 H758 0.984 . S
N752 H759 0.984 . S
N753 C746 1.356 . S
N753 H756 0.984 . S
N753 H757 0.985 . S
H754 N749 0.984 . S
H755 N749 0.985 . S
H756 N753 0.984 . S
H757 N753 0.985 . S
H758 N752 0.984 . S
H759 N752 0.984 . S
H760 N748 0.984 . S
H761 N748 0.985 . S
C762 C763 1.363 . S
C762 C768 1.379 . S
C762 N770 1.356 . S
C763 C762 1.363 . S
C763 C769 1.363 . S
C764 C765 1.363 . S
C764 C769 1.379 . S
C764 N771 1.356 . S
C765 C764 1.363 . S
C765 C768 1.363 . S
N766 C768 1.356 . S
N766 H778 0.984 . S
N766 H779 0.985 . S
N767 C769 1.356 . S
N767 H772 0.984 . S
N767 H773 0.985 . S
C768 C762 1.379 . S
C768 C765 1.363 . S
C768 N766 1.356 . S
C769 C763 1.363 . S
C769 C764 1.379 . S
C769 N767 1.356 . S
N770 C762 1.356 . S
N770 H776 0.984 . S
N770 H777 0.984 . S
N771 C764 1.356 . S
N771 H774 0.984 . S
N771 H775 0.985 . S
H772 N767 0.984 . S
H773 N767 0.985 . S
H774 N771 0.984 . S
H775 N771 0.985 . S
H776 N770 0.984 . S
H777 N770 0.984 . S
H778 N766 0.984 . S
H779 N766 0.985 . S
C780 C781 1.363 . S
C780 C786 1.379 . S
C780 N788 1.356 . S
C781 C780 1.363 . S
C781 C787 1.363 . S
C782 C783 1.363 . S
C782 C787 1.379 . S
C782 N789 1.356 . S
C783 C782 1.363 . S
C783 C786 1.363 . S
N784 C786 1.356 . S
N784 H796 0.984 . S
N784 H797 0.985 . S
N785 C787 1.356 . S
N785 H790 0.984 . S
N785 H791 0.985 . S
C786 C780 1.379 . S
C786 C783 1.363 . S
C786 N784 1.356 . S
C787 C781 1.363 . S
C787 C782 1.379 . S
C787 N785 1.356 . S
N788 C780 1.356 . S
N788 H794 0.984 . S
N788 H795 0.984 . S
N789 C782 1.356 . S
N789 H792 0.984 . S
N789 H793 0.985 . S
H790 N785 0.984 . S
H791 N785 0.985 . S
H792 N789 0.984 . S
H793 N789 0.985 . S
H794 N788 0.984 . S
H795 N788 0.984 . S
H796 N784 0.984 . S
H797 N784 0.985 . S
C798 C799 1.363 . S
C798 C804 1.379 . S
C798 N806 1.356 . S
C799 C798 1.363 . S
C799 C805 1.363 . S
C800 C801 1.363 . S
C800 C805 1.379 . S
C800 N807 1.356 . S
C801 C800 1.363 . S
C801 C804 1.363 . S
N802 C804 1.356 . S
N802 H814 0.984 . S
N802 H815 0.985 . S
N803 C805 1.356 . S
N803 H808 0.984 . S
N803 H809 0.985 . S
C804 C798 1.379 . S
C804 C801 1.363 . S
C804 N802 1.356 . S
C805 C799 1.363 . S
C805 C800 1.379 . S
C805 N803 1.356 . S
N806 C798 1.356 . S
N806 H812 0.984 . S
N806 H813 0.984 . S
N807 C800 1.356 . S
N807 H810 0.984 . S
N807 H811 0.985 . S
H808 N803 0.984 . S
H809 N803 0.985 . S
H810 N807 0.984 . S
H811 N807 0.985 . S
H812 N806 0.984 . S
H813 N806 0.984 . S
H814 N802 0.984 . S
H815 N802 0.985 . S
C816 C817 1.363 . S
C816 C822 1.379 . S
C816 N824 1.356 . S
C817 C816 1.363 . S
C817 C823 1.363 . S
C818 C819 1.363 . S
C818 C823 1.379 . S
C818 N825 1.356 . S
C819 C818 1.363 . S
C819 C822 1.363 . S
N820 C822 1.356 . S
N820 H832 0.984 . S
N820 H833 0.985 . S
N821 C823 1.356 . S
N821 H826 0.984 . S
N821 H827 0.985 . S
C822 C816 1.379 . S
C822 C819 1.363 . S
C822 N820 1.356 . S
C823 C817 1.363 . S
C823 C818 1.379 . S
C823 N821 1.356 . S
N824 C816 1.356 . S
N824 H830 0.984 . S
N824 H831 0.984 . S
N825 C818 1.356 . S
N825 H828 0.984 . S
N825 H829 0.985 . S
H826 N821 0.984 . S
H827 N821 0.985 . S
H828 N825 0.984 . S
H829 N825 0.985 . S
H830 N824 0.984 . S
H831 N824 0.984 . S
H832 N820 0.984 . S
H833 N820 0.985 . S
C834 C835 1.363 . S
C834 C840 1.379 . S
C834 N842 1.356 . S
C835 C834 1.363 . S
C835 C841 1.363 . S
C836 C837 1.363 . S
C836 C841 1.379 . S
C836 N843 1.356 . S
C837 C836 1.363 . S
C837 C840 1.363 . S
N838 C840 1.356 . S
N838 H850 0.984 . S
N838 H851 0.985 . S
N839 C841 1.356 . S
N839 H844 0.984 . S
N839 H845 0.985 . S
C840 C834 1.379 . S
C840 C837 1.363 . S
C840 N838 1.356 . S
C841 C835 1.363 . S
C841 C836 1.379 . S
C841 N839 1.356 . S
N842 C834 1.356 . S
N842 H848 0.984 . S
N842 H849 0.984 . S
N843 C836 1.356 . S
N843 H846 0.984 . S
N843 H847 0.985 . S
H844 N839 0.984 . S
H845 N839 0.985 . S
H846 N843 0.984 . S
H847 N843 0.985 . S
H848 N842 0.984 . S
H849 N842 0.984 . S
H850 N838 0.984 . S
H851 N838 0.985 . S
C852 C853 1.363 . S
C852 C858 1.379 . S
C852 N860 1.356 . S
C853 C852 1.363 . S
C853 C859 1.363 . S
C854 C855 1.363 . S
C854 C859 1.379 . S
C854 N861 1.356 . S
C855 C854 1.363 . S
C855 C858 1.363 . S
N856 C858 1.356 . S
N856 H868 0.984 . S
N856 H869 0.985 . S
N857 C859 1.356 . S
N857 H862 0.984 . S
N857 H863 0.985 . S
C858 C852 1.379 . S
C858 C855 1.363 . S
C858 N856 1.356 . S
C859 C853 1.363 . S
C859 C854 1.379 . S
C859 N857 1.356 . S
N860 C852 1.356 . S
N860 H866 0.984 . S
N860 H867 0.984 . S
N861 C854 1.356 . S
N861 H864 0.984 . S
N861 H865 0.985 . S
H862 N857 0.984 . S
H863 N857 0.985 . S
H864 N861 0.984 . S
H865 N861 0.985 . S
H866 N860 0.984 . S
H867 N860 0.984 . S
H868 N856 0.984 . S
H869 N856 0.985 . S
C870 C871 1.363 . S
C870 C876 1.379 . S
C870 N878 1.356 . S
C871 C870 1.363 . S
C871 C877 1.363 . S
C872 C873 1.363 . S
C872 C877 1.379 . S
C872 N879 1.356 . S
C873 C872 1.363 . S
C873 C876 1.363 . S
N874 C876 1.356 . S
N874 H886 0.984 . S
N874 H887 0.985 . S
N875 C877 1.356 . S
N875 H880 0.984 . S
N875 H881 0.985 . S
C876 C870 1.379 . S
C876 C873 1.363 . S
C876 N874 1.356 . S
C877 C871 1.363 . S
C877 C872 1.379 . S
C877 N875 1.356 . S
N878 C870 1.356 . S
N878 H884 0.984 . S
N878 H885 0.984 . S
N879 C872 1.356 . S
N879 H882 0.984 . S
N879 H883 0.985 . S
H880 N875 0.984 . S
H881 N875 0.985 . S
H882 N879 0.984 . S
H883 N879 0.985 . S
H884 N878 0.984 . S
H885 N878 0.984 . S
H886 N874 0.984 . S
H887 N874 0.985 . S
C888 C889 1.363 . S
C888 C894 1.379 . S
C888 N896 1.356 . S
C889 C888 1.363 . S
C889 C895 1.363 . S
C890 C891 1.363 . S
C890 C895 1.379 . S
C890 N897 1.356 . S
C891 C890 1.363 . S
C891 C894 1.363 . S
N892 C894 1.356 . S
N892 H904 0.984 . S
N892 H905 0.985 . S
N893 C895 1.356 . S
N893 H898 0.984 . S
N893 H899 0.985 . S
C894 C888 1.379 . S
C894 C891 1.363 . S
C894 N892 1.356 . S
C895 C889 1.363 . S
C895 C890 1.379 . S
C895 N893 1.356 . S
N896 C888 1.356 . S
N896 H902 0.984 . S
N896 H903 0.984 . S
N897 C890 1.356 . S
N897 H900 0.984 . S
N897 H901 0.985 . S
H898 N893 0.984 . S
H899 N893 0.985 . S
H900 N897 0.984 . S
H901 N897 0.985 . S
H902 N896 0.984 . S
H903 N896 0.984 . S
H904 N892 0.984 . S
H905 N892 0.985 . S
C906 C907 1.363 . S
C906 C912 1.379 . S
C906 N914 1.356 . S
C907 C906 1.363 . S
C907 C913 1.363 . S
C908 C909 1.363 . S
C908 C913 1.379 . S
C908 N915 1.356 . S
C909 C908 1.363 . S
C909 C912 1.363 . S
N910 C912 1.356 . S
N910 H922 0.984 . S
N910 H923 0.985 . S
N911 C913 1.356 . S
N911 H916 0.984 . S
N911 H917 0.985 . S
C912 C906 1.379 . S
C912 C909 1.363 . S
C912 N910 1.356 . S
C913 C907 1.363 . S
C913 C908 1.379 . S
C913 N911 1.356 . S
N914 C906 1.356 . S
N914 H920 0.984 . S
N914 H921 0.984 . S
N915 C908 1.356 . S
N915 H918 0.984 . S
N915 H919 0.985 . S
H916 N911 0.984 . S
H917 N911 0.985 . S
H918 N915 0.984 . S
H919 N915 0.985 . S
H920 N914 0.984 . S
H921 N914 0.984 . S
H922 N910 0.984 . S
H923 N910 0.985 . S
C924 C925 1.363 . S
C924 C930 1.379 . S
C924 N932 1.356 . S
C925 C924 1.363 . S
C925 C931 1.363 . S
C926 C927 1.363 . S
C926 C931 1.379 . S
C926 N933 1.356 . S
C927 C926 1.363 . S
C927 C930 1.363 . S
N928 C930 1.356 . S
N928 H940 0.984 . S
N928 H941 0.985 . S
N929 C931 1.356 . S
N929 H934 0.984 . S
N929 H935 0.985 . S
C930 C924 1.379 . S
C930 C927 1.363 . S
C930 N928 1.356 . S
C931 C925 1.363 . S
C931 C926 1.379 . S
C931 N929 1.356 . S
N932 C924 1.356 . S
N932 H938 0.984 . S
N932 H939 0.984 . S
N933 C926 1.356 . S
N933 H936 0.984 . S
N933 H937 0.985 . S
H934 N929 0.984 . S
H935 N929 0.985 . S
H936 N933 0.984 . S
H937 N933 0.985 . S
H938 N932 0.984 . S
H939 N932 0.984 . S
H940 N928 0.984 . S
H941 N928 0.985 . S
C942 C943 1.363 . S
C942 C948 1.379 . S
C942 N950 1.356 . S
C943 C942 1.363 . S
C943 C949 1.363 . S
C944 C945 1.363 . S
C944 C949 1.379 . S
C944 N951 1.356 . S
C945 C944 1.363 . S
C945 C948 1.363 . S
N946 C948 1.356 . S
N946 H958 0.984 . S
N946 H959 0.985 . S
N947 C949 1.356 . S
N947 H952 0.984 . S
N947 H953 0.985 . S
C948 C942 1.379 . S
C948 C945 1.363 . S
C948 N946 1.356 . S
C949 C943 1.363 . S
C949 C944 1.379 . S
C949 N947 1.356 . S
N950 C942 1.356 . S
N950 H956 0.984 . S
N950 H957 0.984 . S
N951 C944 1.356 . S
N951 H954 0.984 . S
N951 H955 0.985 . S
H952 N947 0.984 . S
H953 N947 0.985 . S
H954 N951 0.984 . S
H955 N951 0.985 . S
H956 N950 0.984 . S
H957 N950 0.984 . S
H958 N946 0.984 . S
H959 N946 0.985 . S
C960 C961 1.363 . S
C960 C966 1.379 . S
C960 N968 1.356 . S
C961 C960 1.363 . S
C961 C967 1.363 . S
C962 C963 1.363 . S
C962 C967 1.379 . S
C962 N969 1.356 . S
C963 C962 1.363 . S
C963 C966 1.363 . S
N964 C966 1.356 . S
N964 H976 0.984 . S
N964 H977 0.985 . S
N965 C967 1.356 . S
N965 H970 0.984 . S
N965 H971 0.985 . S
C966 C960 1.379 . S
C966 C963 1.363 . S
C966 N964 1.356 . S
C967 C961 1.363 . S
C967 C962 1.379 . S
C967 N965 1.356 . S
N968 C960 1.356 . S
N968 H974 0.984 . S
N968 H975 0.984 . S
N969 C962 1.356 . S
N969 H972 0.984 . S
N969 H973 0.985 . S
H970 N965 0.984 . S
H971 N965 0.985 . S
H972 N969 0.984 . S
H973 N969 0.985 . S
H974 N968 0.984 . S
H975 N968 0.984 . S
H976 N964 0.984 . S
H977 N964 0.985 . S
C978 C979 1.363 . S
C978 C984 1.379 . S
C978 N986 1.356 . S
C979 C978 1.363 . S
C979 C985 1.363 . S
C980 C981 1.363 . S
C980 C985 1.379 . S
C980 N987 1.356 . S
C981 C980 1.363 . S
C981 C984 1.363 . S
N982 C984 1.356 . S
N982 H994 0.984 . S
N982 H995 0.985 . S
N983 C985 1.356 . S
N983 H988 0.984 . S
N983 H989 0.985 . S
C984 C978 1.379 . S
C984 C981 1.363 . S
C984 N982 1.356 . S
C985 C979 1.363 . S
C985 C980 1.379 . S
C985 N983 1.356 . S
N986 C978 1.356 . S
N986 H992 0.984 . S
N986 H993 0.984 . S
N987 C980 1.356 . S
N987 H990 0.984 . S
N987 H991 0.985 . S
H988 N983 0.984 . S
H989 N983 0.985 . S
H990 N987 0.984 . S
H991 N987 0.985 . S
H992 N986 0.984 . S
H993 N986 0.984 . S
H994 N982 0.984 . S
H995 N982 0.985 . S
C996 C997 1.363 . S
C996 C1002 1.379 . S
C996 N1004 1.356 . S
C997 C996 1.363 . S
C997 C1003 1.363 . S
C998 C999 1.363 . S
C998 C1003 1.379 . S
C998 N1005 1.356 . S
C999 C998 1.363 . S
C999 C1002 1.363 . S
N1000 C1002 1.356 . S
N1000 H1012 0.984 . S
N1000 H1013 0.985 . S
N1001 C1003 1.356 . S
N1001 H1006 0.984 . S
N1001 H1007 0.985 . S
C1002 C996 1.379 . S
C1002 C999 1.363 . S
C1002 N1000 1.356 . S
C1003 C997 1.363 . S
C1003 C998 1.379 . S
C1003 N1001 1.356 . S
N1004 C996 1.356 . S
N1004 H1010 0.984 . S
N1004 H1011 0.984 . S
N1005 C998 1.356 . S
N1005 H1008 0.984 . S
N1005 H1009 0.985 . S
H1006 N1001 0.984 . S
H1007 N1001 0.985 . S
H1008 N1005 0.984 . S
H1009 N1005 0.985 . S
H1010 N1004 0.984 . S
H1011 N1004 0.984 . S
H1012 N1000 0.984 . S
H1013 N1000 0.985 . S
C1014 C1015 1.363 . S
C1014 C1020 1.379 . S
C1014 N1022 1.356 . S
C1015 C1014 1.363 . S
C1015 C1021 1.363 . S
C1016 C1017 1.363 . S
C1016 C1021 1.379 . S
C1016 N1023 1.356 . S
C1017 C1016 1.363 . S
C1017 C1020 1.363 . S
N1018 C1020 1.356 . S
N1018 H1030 0.984 . S
N1018 H1031 0.985 . S
N1019 C1021 1.356 . S
N1019 H1024 0.984 . S
N1019 H1025 0.985 . S
C1020 C1014 1.379 . S
C1020 C1017 1.363 . S
C1020 N1018 1.356 . S
C1021 C1015 1.363 . S
C1021 C1016 1.379 . S
C1021 N1019 1.356 . S
N1022 C1014 1.356 . S
N1022 H1028 0.984 . S
N1022 H1029 0.984 . S
N1023 C1016 1.356 . S
N1023 H1026 0.984 . S
N1023 H1027 0.985 . S
H1024 N1019 0.984 . S
H1025 N1019 0.985 . S
H1026 N1023 0.984 . S
H1027 N1023 0.985 . S
H1028 N1022 0.984 . S
H1029 N1022 0.984 . S
H1030 N1018 0.984 . S
H1031 N1018 0.985 . S
C1032 C1033 1.363 . S
C1032 C1038 1.379 . S
C1032 N1040 1.356 . S
C1033 C1032 1.363 . S
C1033 C1039 1.363 . S
C1034 C1035 1.363 . S
C1034 C1039 1.379 . S
C1034 N1041 1.356 . S
C1035 C1034 1.363 . S
C1035 C1038 1.363 . S
N1036 C1038 1.356 . S
N1036 H1048 0.984 . S
N1036 H1049 0.985 . S
N1037 C1039 1.356 . S
N1037 H1042 0.984 . S
N1037 H1043 0.985 . S
C1038 C1032 1.379 . S
C1038 C1035 1.363 . S
C1038 N1036 1.356 . S
C1039 C1033 1.363 . S
C1039 C1034 1.379 . S
C1039 N1037 1.356 . S
N1040 C1032 1.356 . S
N1040 H1046 0.984 . S
N1040 H1047 0.984 . S
N1041 C1034 1.356 . S
N1041 H1044 0.984 . S
N1041 H1045 0.985 . S
H1042 N1037 0.984 . S
H1043 N1037 0.985 . S
H1044 N1041 0.984 . S
H1045 N1041 0.985 . S
H1046 N1040 0.984 . S
H1047 N1040 0.984 . S
H1048 N1036 0.984 . S
H1049 N1036 0.985 . S
C1050 C1051 1.363 . S
C1050 C1056 1.379 . S
C1050 N1058 1.356 . S
C1051 C1050 1.363 . S
C1051 C1057 1.363 . S
C1052 C1053 1.363 . S
C1052 C1057 1.379 . S
C1052 N1059 1.356 . S
C1053 C1052 1.363 . S
C1053 C1056 1.363 . S
N1054 C1056 1.356 . S
N1054 H1066 0.984 . S
N1054 H1067 0.985 . S
N1055 C1057 1.356 . S
N1055 H1060 0.984 . S
N1055 H1061 0.985 . S
C1056 C1050 1.379 . S
C1056 C1053 1.363 . S
C1056 N1054 1.356 . S
C1057 C1051 1.363 . S
C1057 C1052 1.379 . S
C1057 N1055 1.356 . S
N1058 C1050 1.356 . S
N1058 H1064 0.984 . S
N1058 H1065 0.984 . S
N1059 C1052 1.356 . S
N1059 H1062 0.984 . S
N1059 H1063 0.985 . S
H1060 N1055 0.984 . S
H1061 N1055 0.985 . S
H1062 N1059 0.984 . S
H1063 N1059 0.985 . S
H1064 N1058 0.984 . S
H1065 N1058 0.984 . S
H1066 N1054 0.984 . S
H1067 N1054 0.985 . S
C1068 C1069 1.363 . S
C1068 C1074 1.379 . S
C1068 N1076 1.356 . S
C1069 C1068 1.363 . S
C1069 C1075 1.363 . S
C1070 C1071 1.363 . S
C1070 C1075 1.379 . S
C1070 N1077 1.356 . S
C1071 C1070 1.363 . S
C1071 C1074 1.363 . S
N1072 C1074 1.356 . S
N1072 H1084 0.984 . S
N1072 H1085 0.985 . S
N1073 C1075 1.356 . S
N1073 H1078 0.984 . S
N1073 H1079 0.985 . S
C1074 C1068 1.379 . S
C1074 C1071 1.363 . S
C1074 N1072 1.356 . S
C1075 C1069 1.363 . S
C1075 C1070 1.379 . S
C1075 N1073 1.356 . S
N1076 C1068 1.356 . S
N1076 H1082 0.984 . S
N1076 H1083 0.984 . S
N1077 C1070 1.356 . S
N1077 H1080 0.984 . S
N1077 H1081 0.985 . S
H1078 N1073 0.984 . S
H1079 N1073 0.985 . S
H1080 N1077 0.984 . S
H1081 N1077 0.985 . S
H1082 N1076 0.984 . S
H1083 N1076 0.984 . S
H1084 N1072 0.984 . S
H1085 N1072 0.985 . S
C1086 C1087 1.363 . S
C1086 C1092 1.379 . S
C1086 N1094 1.356 . S
C1087 C1086 1.363 . S
C1087 C1093 1.363 . S
C1088 C1089 1.363 . S
C1088 C1093 1.379 . S
C1088 N1095 1.356 . S
C1089 C1088 1.363 . S
C1089 C1092 1.363 . S
N1090 C1092 1.356 . S
N1090 H1102 0.984 . S
N1090 H1103 0.985 . S
N1091 C1093 1.356 . S
N1091 H1096 0.984 . S
N1091 H1097 0.985 . S
C1092 C1086 1.379 . S
C1092 C1089 1.363 . S
C1092 N1090 1.356 . S
C1093 C1087 1.363 . S
C1093 C1088 1.379 . S
C1093 N1091 1.356 . S
N1094 C1086 1.356 . S
N1094 H1100 0.984 . S
N1094 H1101 0.984 . S
N1095 C1088 1.356 . S
N1095 H1098 0.984 . S
N1095 H1099 0.985 . S
H1096 N1091 0.984 . S
H1097 N1091 0.985 . S
H1098 N1095 0.984 . S
H1099 N1095 0.985 . S
H1100 N1094 0.984 . S
H1101 N1094 0.984 . S
H1102 N1090 0.984 . S
H1103 N1090 0.985 . S
C1104 C1105 1.363 . S
C1104 C1110 1.379 . S
C1104 N1112 1.356 . S
C1105 C1104 1.363 . S
C1105 C1111 1.363 . S
C1106 C1107 1.363 . S
C1106 C1111 1.379 . S
C1106 N1113 1.356 . S
C1107 C1106 1.363 . S
C1107 C1110 1.363 . S
N1108 C1110 1.356 . S
N1108 H1120 0.984 . S
N1108 H1121 0.985 . S
N1109 C1111 1.356 . S
N1109 H1114 0.984 . S
N1109 H1115 0.985 . S
C1110 C1104 1.379 . S
C1110 C1107 1.363 . S
C1110 N1108 1.356 . S
C1111 C1105 1.363 . S
C1111 C1106 1.379 . S
C1111 N1109 1.356 . S
N1112 C1104 1.356 . S
N1112 H1118 0.984 . S
N1112 H1119 0.984 . S
N1113 C1106 1.356 . S
N1113 H1116 0.984 . S
N1113 H1117 0.985 . S
H1114 N1109 0.984 . S
H1115 N1109 0.985 . S
H1116 N1113 0.984 . S
H1117 N1113 0.985 . S
H1118 N1112 0.984 . S
H1119 N1112 0.984 . S
H1120 N1108 0.984 . S
H1121 N1108 0.985 . S
C1122 C1123 1.363 . S
C1122 C1128 1.379 . S
C1122 N1130 1.356 . S
C1123 C1122 1.363 . S
C1123 C1129 1.363 . S
C1124 C1125 1.363 . S
C1124 C1129 1.379 . S
C1124 N1131 1.356 . S
C1125 C1124 1.363 . S
C1125 C1128 1.363 . S
N1126 C1128 1.356 . S
N1126 H1138 0.984 . S
N1126 H1139 0.985 . S
N1127 C1129 1.356 . S
N1127 H1132 0.984 . S
N1127 H1133 0.985 . S
C1128 C1122 1.379 . S
C1128 C1125 1.363 . S
C1128 N1126 1.356 . S
C1129 C1123 1.363 . S
C1129 C1124 1.379 . S
C1129 N1127 1.356 . S
N1130 C1122 1.356 . S
N1130 H1136 0.984 . S
N1130 H1137 0.984 . S
N1131 C1124 1.356 . S
N1131 H1134 0.984 . S
N1131 H1135 0.985 . S
H1132 N1127 0.984 . S
H1133 N1127 0.985 . S
H1134 N1131 0.984 . S
H1135 N1131 0.985 . S
H1136 N1130 0.984 . S
H1137 N1130 0.984 . S
H1138 N1126 0.984 . S
H1139 N1126 0.985 . S
C1140 C1141 1.363 . S
C1140 C1146 1.379 . S
C1140 N1148 1.356 . S
C1141 C1140 1.363 . S
C1141 C1147 1.363 . S
C1142 C1143 1.363 . S
C1142 C1147 1.379 . S
C1142 N1149 1.356 . S
C1143 C1142 1.363 . S
C1143 C1146 1.363 . S
N1144 C1146 1.356 . S
N1144 H1156 0.984 . S
N1144 H1157 0.985 . S
N1145 C1147 1.356 . S
N1145 H1150 0.984 . S
N1145 H1151 0.985 . S
C1146 C1140 1.379 . S
C1146 C1143 1.363 . S
C1146 N1144 1.356 . S
C1147 C1141 1.363 . S
C1147 C1142 1.379 . S
C1147 N1145 1.356 . S
N1148 C1140 1.356 . S
N1148 H1154 0.984 . S
N1148 H1155 0.984 . S
N1149 C1142 1.356 . S
N1149 H1152 0.984 . S
N1149 H1153 0.985 . S
H1150 N1145 0.984 . S
H1151 N1145 0.985 . S
H1152 N1149 0.984 . S
H1153 N1149 0.985 . S
H1154 N1148 0.984 . S
H1155 N1148 0.984 . S
H1156 N1144 0.984 . S
H1157 N1144 0.985 . S
C1158 C1159 1.363 . S
C1158 C1164 1.379 . S
C1158 N1166 1.356 . S
C1159 C1158 1.363 . S
C1159 C1165 1.363 . S
C1160 C1161 1.363 . S
C1160 C1165 1.379 . S
C1160 N1167 1.356 . S
C1161 C1160 1.363 . S
C1161 C1164 1.363 . S
N1162 C1164 1.356 . S
N1162 H1174 0.984 . S
N1162 H1175 0.985 . S
N1163 C1165 1.356 . S
N1163 H1168 0.984 . S
N1163 H1169 0.985 . S
C1164 C1158 1.379 . S
C1164 C1161 1.363 . S
C1164 N1162 1.356 . S
C1165 C1159 1.363 . S
C1165 C1160 1.379 . S
C1165 N1163 1.356 . S
N1166 C1158 1.356 . S
N1166 H1172 0.984 . S
N1166 H1173 0.984 . S
N1167 C1160 1.356 . S
N1167 H1170 0.984 . S
N1167 H1171 0.985 . S
H1168 N1163 0.984 . S
H1169 N1163 0.985 . S
H1170 N1167 0.984 . S
H1171 N1167 0.985 . S
H1172 N1166 0.984 . S
H1173 N1166 0.984 . S
H1174 N1162 0.984 . S
H1175 N1162 0.985 . S
C1176 C1177 1.363 . S
C1176 C1182 1.379 . S
C1176 N1184 1.356 . S
C1177 C1176 1.363 . S
C1177 C1183 1.363 . S
C1178 C1179 1.363 . S
C1178 C1183 1.379 . S
C1178 N1185 1.356 . S
C1179 C1178 1.363 . S
C1179 C1182 1.363 . S
N1180 C1182 1.356 . S
N1180 H1192 0.984 . S
N1180 H1193 0.985 . S
N1181 C1183 1.356 . S
N1181 H1186 0.984 . S
N1181 H1187 0.985 . S
C1182 C1176 1.379 . S
C1182 C1179 1.363 . S
C1182 N1180 1.356 . S
C1183 C1177 1.363 . S
C1183 C1178 1.379 . S
C1183 N1181 1.356 . S
N1184 C1176 1.356 . S
N1184 H1190 0.984 . S
N1184 H1191 0.984 . S
N1185 C1178 1.356 . S
N1185 H1188 0.984 . S
N1185 H1189 0.985 . S
H1186 N1181 0.984 . S
H1187 N1181 0.985 . S
H1188 N1185 0.984 . S
H1189 N1185 0.985 . S
H1190 N1184 0.984 . S
H1191 N1184 0.984 . S
H1192 N1180 0.984 . S
H1193 N1180 0.985 . S
C1194 C1195 1.363 . S
C1194 C1200 1.379 . S
C1194 N1202 1.356 . S
C1195 C1194 1.363 . S
C1195 C1201 1.363 . S
C1196 C1197 1.363 . S
C1196 C1201 1.379 . S
C1196 N1203 1.356 . S
C1197 C1196 1.363 . S
C1197 C1200 1.363 . S
N1198 C1200 1.356 . S
N1198 H1210 0.984 . S
N1198 H1211 0.985 . S
N1199 C1201 1.356 . S
N1199 H1204 0.984 . S
N1199 H1205 0.985 . S
C1200 C1194 1.379 . S
C1200 C1197 1.363 . S
C1200 N1198 1.356 . S
C1201 C1195 1.363 . S
C1201 C1196 1.379 . S
C1201 N1199 1.356 . S
N1202 C1194 1.356 . S
N1202 H1208 0.984 . S
N1202 H1209 0.984 . S
N1203 C1196 1.356 . S
N1203 H1206 0.984 . S
N1203 H1207 0.985 . S
H1204 N1199 0.984 . S
H1205 N1199 0.985 . S
H1206 N1203 0.984 . S
H1207 N1203 0.985 . S
H1208 N1202 0.984 . S
H1209 N1202 0.984 . S
H1210 N1198 0.984 . S
H1211 N1198 0.985 . S
C1212 C1213 1.363 . S
C1212 C1218 1.379 . S
C1212 N1220 1.356 . S
C1213 C1212 1.363 . S
C1213 C1219 1.363 . S
C1214 C1215 1.363 . S
C1214 C1219 1.379 . S
C1214 N1221 1.356 . S
C1215 C1214 1.363 . S
C1215 C1218 1.363 . S
N1216 C1218 1.356 . S
N1216 H1228 0.984 . S
N1216 H1229 0.985 . S
N1217 C1219 1.356 . S
N1217 H1222 0.984 . S
N1217 H1223 0.985 . S
C1218 C1212 1.379 . S
C1218 C1215 1.363 . S
C1218 N1216 1.356 . S
C1219 C1213 1.363 . S
C1219 C1214 1.379 . S
C1219 N1217 1.356 . S
N1220 C1212 1.356 . S
N1220 H1226 0.984 . S
N1220 H1227 0.984 . S
N1221 C1214 1.356 . S
N1221 H1224 0.984 . S
N1221 H1225 0.985 . S
H1222 N1217 0.984 . S
H1223 N1217 0.985 . S
H1224 N1221 0.984 . S
H1225 N1221 0.985 . S
H1226 N1220 0.984 . S
H1227 N1220 0.984 . S
H1228 N1216 0.984 . S
H1229 N1216 0.985 . S
C1230 C1231 1.363 . S
C1230 C1236 1.379 . S
C1230 N1238 1.356 . S
C1231 C1230 1.363 . S
C1231 C1237 1.363 . S
C1232 C1233 1.363 . S
C1232 C1237 1.379 . S
C1232 N1239 1.356 . S
C1233 C1232 1.363 . S
C1233 C1236 1.363 . S
N1234 C1236 1.356 . S
N1234 H1246 0.984 . S
N1234 H1247 0.985 . S
N1235 C1237 1.356 . S
N1235 H1240 0.984 . S
N1235 H1241 0.985 . S
C1236 C1230 1.379 . S
C1236 C1233 1.363 . S
C1236 N1234 1.356 . S
C1237 C1231 1.363 . S
C1237 C1232 1.379 . S
C1237 N1235 1.356 . S
N1238 C1230 1.356 . S
N1238 H1244 0.984 . S
N1238 H1245 0.984 . S
N1239 C1232 1.356 . S
N1239 H1242 0.984 . S
N1239 H1243 0.985 . S
H1240 N1235 0.984 . S
H1241 N1235 0.985 . S
H1242 N1239 0.984 . S
H1243 N1239 0.985 . S
H1244 N1238 0.984 . S
H1245 N1238 0.984 . S
H1246 N1234 0.984 . S
H1247 N1234 0.985 . S
C1248 C1249 1.363 . S
C1248 C1254 1.379 . S
C1248 N1256 1.356 . S
C1249 C1248 1.363 . S
C1249 C1255 1.363 . S
C1250 C1251 1.363 . S
C1250 C1255 1.379 . S
C1250 N1257 1.356 . S
C1251 C1250 1.363 . S
C1251 C1254 1.363 . S
N1252 C1254 1.356 . S
N1252 H1264 0.984 . S
N1252 H1265 0.985 . S
N1253 C1255 1.356 . S
N1253 H1258 0.984 . S
N1253 H1259 0.985 . S
C1254 C1248 1.379 . S
C1254 C1251 1.363 . S
C1254 N1252 1.356 . S
C1255 C1249 1.363 . S
C1255 C1250 1.379 . S
C1255 N1253 1.356 . S
N1256 C1248 1.356 . S
N1256 H1262 0.984 . S
N1256 H1263 0.984 . S
N1257 C1250 1.356 . S
N1257 H1260 0.984 . S
N1257 H1261 0.985 . S
H1258 N1253 0.984 . S
H1259 N1253 0.985 . S
H1260 N1257 0.984 . S
H1261 N1257 0.985 . S
H1262 N1256 0.984 . S
H1263 N1256 0.984 . S
H1264 N1252 0.984 . S
H1265 N1252 0.985 . S
C1266 C1267 1.363 . S
C1266 C1272 1.379 . S
C1266 N1274 1.356 . S
C1267 C1266 1.363 . S
C1267 C1273 1.363 . S
C1268 C1269 1.363 . S
C1268 C1273 1.379 . S
C1268 N1275 1.356 . S
C1269 C1268 1.363 . S
C1269 C1272 1.363 . S
N1270 C1272 1.356 . S
N1270 H1282 0.984 . S
N1270 H1283 0.985 . S
N1271 C1273 1.356 . S
N1271 H1276 0.984 . S
N1271 H1277 0.985 . S
C1272 C1266 1.379 . S
C1272 C1269 1.363 . S
C1272 N1270 1.356 . S
C1273 C1267 1.363 . S
C1273 C1268 1.379 . S
C1273 N1271 1.356 . S
N1274 C1266 1.356 . S
N1274 H1280 0.984 . S
N1274 H1281 0.984 . S
N1275 C1268 1.356 . S
N1275 H1278 0.984 . S
N1275 H1279 0.985 . S
H1276 N1271 0.984 . S
H1277 N1271 0.985 . S
H1278 N1275 0.984 . S
H1279 N1275 0.985 . S
H1280 N1274 0.984 . S
H1281 N1274 0.984 . S
H1282 N1270 0.984 . S
H1283 N1270 0.985 . S
C1284 C1285 1.363 . S
C1284 C1290 1.379 . S
C1284 N1292 1.356 . S
C1285 C1284 1.363 . S
C1285 C1291 1.363 . S
C1286 C1287 1.363 . S
C1286 C1291 1.379 . S
C1286 N1293 1.356 . S
C1287 C1286 1.363 . S
C1287 C1290 1.363 . S
N1288 C1290 1.356 . S
N1288 H1300 0.984 . S
N1288 H1301 0.985 . S
N1289 C1291 1.356 . S
N1289 H1294 0.984 . S
N1289 H1295 0.985 . S
C1290 C1284 1.379 . S
C1290 C1287 1.363 . S
C1290 N1288 1.356 . S
C1291 C1285 1.363 . S
C1291 C1286 1.379 . S
C1291 N1289 1.356 . S
N1292 C1284 1.356 . S
N1292 H1298 0.984 . S
N1292 H1299 0.984 . S
N1293 C1286 1.356 . S
N1293 H1296 0.984 . S
N1293 H1297 0.985 . S
H1294 N1289 0.984 . S
H1295 N1289 0.985 . S
H1296 N1293 0.984 . S
H1297 N1293 0.985 . S
H1298 N1292 0.984 . S
H1299 N1292 0.984 . S
H1300 N1288 0.984 . S
H1301 N1288 0.985 . S
C1302 C1303 1.363 . S
C1302 C1308 1.379 . S
C1302 N1310 1.356 . S
C1303 C1302 1.363 . S
C1303 C1309 1.363 . S
C1304 C1305 1.363 . S
C1304 C1309 1.379 . S
C1304 N1311 1.356 . S
C1305 C1304 1.363 . S
C1305 C1308 1.363 . S
N1306 C1308 1.356 . S
N1306 H1318 0.984 . S
N1306 H1319 0.985 . S
N1307 C1309 1.356 . S
N1307 H1312 0.984 . S
N1307 H1313 0.985 . S
C1308 C1302 1.379 . S
C1308 C1305 1.363 . S
C1308 N1306 1.356 . S
C1309 C1303 1.363 . S
C1309 C1304 1.379 . S
C1309 N1307 1.356 . S
N1310 C1302 1.356 . S
N1310 H1316 0.984 . S
N1310 H1317 0.984 . S
N1311 C1304 1.356 . S
N1311 H1314 0.984 . S
N1311 H1315 0.985 . S
H1312 N1307 0.984 . S
H1313 N1307 0.985 . S
H1314 N1311 0.984 . S
H1315 N1311 0.985 . S
H1316 N1310 0.984 . S
H1317 N1310 0.984 . S
H1318 N1306 0.984 . S
H1319 N1306 0.985 . S
C1320 C1321 1.363 . S
C1320 C1326 1.379 . S
C1320 N1328 1.356 . S
C1321 C1320 1.363 . S
C1321 C1327 1.363 . S
C1322 C1323 1.363 . S
C1322 C1327 1.379 . S
C1322 N1329 1.356 . S
C1323 C1322 1.363 . S
C1323 C1326 1.363 . S
N1324 C1326 1.356 . S
N1324 H1336 0.984 . S
N1324 H1337 0.985 . S
N1325 C1327 1.356 . S
N1325 H1330 0.984 . S
N1325 H1331 0.985 . S
C1326 C1320 1.379 . S
C1326 C1323 1.363 . S
C1326 N1324 1.356 . S
C1327 C1321 1.363 . S
C1327 C1322 1.379 . S
C1327 N1325 1.356 . S
N1328 C1320 1.356 . S
N1328 H1334 0.984 . S
N1328 H1335 0.984 . S
N1329 C1322 1.356 . S
N1329 H1332 0.984 . S
N1329 H1333 0.985 . S
H1330 N1325 0.984 . S
H1331 N1325 0.985 . S
H1332 N1329 0.984 . S
H1333 N1329 0.985 . S
H1334 N1328 0.984 . S
H1335 N1328 0.984 . S
H1336 N1324 0.984 . S
H1337 N1324 0.985 . S
C1338 C1339 1.363 . S
C1338 C1344 1.379 . S
C1338 N1346 1.356 . S
C1339 C1338 1.363 . S
C1339 C1345 1.363 . S
C1340 C1341 1.363 . S
C1340 C1345 1.379 . S
C1340 N1347 1.356 . S
C1341 C1340 1.363 . S
C1341 C1344 1.363 . S
N1342 C1344 1.356 . S
N1342 H1354 0.984 . S
N1342 H1355 0.985 . S
N1343 C1345 1.356 . S
N1343 H1348 0.984 . S
N1343 H1349 0.985 . S
C1344 C1338 1.379 . S
C1344 C1341 1.363 . S
C1344 N1342 1.356 . S
C1345 C1339 1.363 . S
C1345 C1340 1.379 . S
C1345 N1343 1.356 . S
N1346 C1338 1.356 . S
N1346 H1352 0.984 . S
N1346 H1353 0.984 . S
N1347 C1340 1.356 . S
N1347 H1350 0.984 . S
N1347 H1351 0.985 . S
H1348 N1343 0.984 . S
H1349 N1343 0.985 . S
H1350 N1347 0.984 . S
H1351 N1347 0.985 . S
H1352 N1346 0.984 . S
H1353 N1346 0.984 . S
H1354 N1342 0.984 . S
H1355 N1342 0.985 . S
C1356 C1357 1.363 . S
C1356 C1362 1.379 . S
C1356 N1364 1.356 . S
C1357 C1356 1.363 . S
C1357 C1363 1.363 . S
C1358 C1359 1.363 . S
C1358 C1363 1.379 . S
C1358 N1365 1.356 . S
C1359 C1358 1.363 . S
C1359 C1362 1.363 . S
N1360 C1362 1.356 . S
N1360 H1372 0.984 . S
N1360 H1373 0.985 . S
N1361 C1363 1.356 . S
N1361 H1366 0.984 . S
N1361 H1367 0.985 . S
C1362 C1356 1.379 . S
C1362 C1359 1.363 . S
C1362 N1360 1.356 . S
C1363 C1357 1.363 . S
C1363 C1358 1.379 . S
C1363 N1361 1.356 . S
N1364 C1356 1.356 . S
N1364 H1370 0.984 . S
N1364 H1371 0.984 . S
N1365 C1358 1.356 . S
N1365 H1368 0.984 . S
N1365 H1369 0.985 . S
H1366 N1361 0.984 . S
H1367 N1361 0.985 . S
H1368 N1365 0.984 . S
H1369 N1365 0.985 . S
H1370 N1364 0.984 . S
H1371 N1364 0.984 . S
H1372 N1360 0.984 . S
H1373 N1360 0.985 . S
C1374 C1375 1.363 . S
C1374 C1380 1.379 . S
C1374 N1382 1.356 . S
C1375 C1374 1.363 . S
C1375 C1381 1.363 . S
C1376 C1377 1.363 . S
C1376 C1381 1.379 . S
C1376 N1383 1.356 . S
C1377 C1376 1.363 . S
C1377 C1380 1.363 . S
N1378 C1380 1.356 . S
N1378 H1390 0.984 . S
N1378 H1391 0.985 . S
N1379 C1381 1.356 . S
N1379 H1384 0.984 . S
N1379 H1385 0.985 . S
C1380 C1374 1.379 . S
C1380 C1377 1.363 . S
C1380 N1378 1.356 . S
C1381 C1375 1.363 . S
C1381 C1376 1.379 . S
C1381 N1379 1.356 . S
N1382 C1374 1.356 . S
N1382 H1388 0.984 . S
N1382 H1389 0.984 . S
N1383 C1376 1.356 . S
N1383 H1386 0.984 . S
N1383 H1387 0.985 . S
H1384 N1379 0.984 . S
H1385 N1379 0.985 . S
H1386 N1383 0.984 . S
H1387 N1383 0.985 . S
H1388 N1382 0.984 . S
H1389 N1382 0.984 . S
H1390 N1378 0.984 . S
H1391 N1378 0.985 . S
C1392 C1393 1.363 . S
C1392 C1398 1.379 . S
C1392 N1400 1.356 . S
C1393 C1392 1.363 . S
C1393 C1399 1.363 . S
C1394 C1395 1.363 . S
C1394 C1399 1.379 . S
C1394 N1401 1.356 . S
C1395 C1394 1.363 . S
C1395 C1398 1.363 . S
N1396 C1398 1.356 . S
N1396 H1408 0.984 . S
N1396 H1409 0.985 . S
N1397 C1399 1.356 . S
N1397 H1402 0.984 . S
N1397 H1403 0.985 . S
C1398 C1392 1.379 . S
C1398 C1395 1.363 . S
C1398 N1396 1.356 . S
C1399 C1393 1.363 . S
C1399 C1394 1.379 . S
C1399 N1397 1.356 . S
N1400 C1392 1.356 . S
N1400 H1406 0.984 . S
N1400 H1407 0.984 . S
N1401 C1394 1.356 . S
N1401 H1404 0.984 . S
N1401 H1405 0.985 . S
H1402 N1397 0.984 . S
H1403 N1397 0.985 . S
H1404 N1401 0.984 . S
H1405 N1401 0.985 . S
H1406 N1400 0.984 . S
H1407 N1400 0.984 . S
H1408 N1396 0.984 . S
H1409 N1396 0.985 . S
C1410 C1411 1.363 . S
C1410 C1416 1.379 . S
C1410 N1418 1.356 . S
C1411 C1410 1.363 . S
C1411 C1417 1.363 . S
C1412 C1413 1.363 . S
C1412 C1417 1.379 . S
C1412 N1419 1.356 . S
C1413 C1412 1.363 . S
C1413 C1416 1.363 . S
N1414 C1416 1.356 . S
N1414 H1426 0.984 . S
N1414 H1427 0.985 . S
N1415 C1417 1.356 . S
N1415 H1420 0.984 . S
N1415 H1421 0.985 . S
C1416 C1410 1.379 . S
C1416 C1413 1.363 . S
C1416 N1414 1.356 . S
C1417 C1411 1.363 . S
C1417 C1412 1.379 . S
C1417 N1415 1.356 . S
N1418 C1410 1.356 . S
N1418 H1424 0.984 . S
N1418 H1425 0.984 . S
N1419 C1412 1.356 . S
N1419 H1422 0.984 . S
N1419 H1423 0.985 . S
H1420 N1415 0.984 . S
H1421 N1415 0.985 . S
H1422 N1419 0.984 . S
H1423 N1419 0.985 . S
H1424 N1418 0.984 . S
H1425 N1418 0.984 . S
H1426 N1414 0.984 . S
H1427 N1414 0.985 . S
C1428 C1429 1.363 . S
C1428 C1434 1.379 . S
C1428 N1436 1.356 . S
C1429 C1428 1.363 . S
C1429 C1435 1.363 . S
C1430 C1431 1.363 . S
C1430 C1435 1.379 . S
C1430 N1437 1.356 . S
C1431 C1430 1.363 . S
C1431 C1434 1.363 . S
N1432 C1434 1.356 . S
N1432 H1444 0.984 . S
N1432 H1445 0.985 . S
N1433 C1435 1.356 . S
N1433 H1438 0.984 . S
N1433 H1439 0.985 . S
C1434 C1428 1.379 . S
C1434 C1431 1.363 . S
C1434 N1432 1.356 . S
C1435 C1429 1.363 . S
C1435 C1430 1.379 . S
C1435 N1433 1.356 . S
N1436 C1428 1.356 . S
N1436 H1442 0.984 . S
N1436 H1443 0.984 . S
N1437 C1430 1.356 . S
N1437 H1440 0.984 . S
N1437 H1441 0.985 . S
H1438 N1433 0.984 . S
H1439 N1433 0.985 . S
H1440 N1437 0.984 . S
H1441 N1437 0.985 . S
H1442 N1436 0.984 . S
H1443 N1436 0.984 . S
H1444 N1432 0.984 . S
H1445 N1432 0.985 . S
C1446 C1447 1.363 . S
C1446 C1452 1.379 . S
C1446 N1454 1.356 . S
C1447 C1446 1.363 . S
C1447 C1453 1.363 . S
C1448 C1449 1.363 . S
C1448 C1453 1.379 . S
C1448 N1455 1.356 . S
C1449 C1448 1.363 . S
C1449 C1452 1.363 . S
N1450 C1452 1.356 . S
N1450 H1462 0.984 . S
N1450 H1463 0.985 . S
N1451 C1453 1.356 . S
N1451 H1456 0.984 . S
N1451 H1457 0.985 . S
C1452 C1446 1.379 . S
C1452 C1449 1.363 . S
C1452 N1450 1.356 . S
C1453 C1447 1.363 . S
C1453 C1448 1.379 . S
C1453 N1451 1.356 . S
N1454 C1446 1.356 . S
N1454 H1460 0.984 . S
N1454 H1461 0.984 . S
N1455 C1448 1.356 . S
N1455 H1458 0.984 . S
N1455 H1459 0.985 . S
H1456 N1451 0.984 . S
H1457 N1451 0.985 . S
H1458 N1455 0.984 . S
H1459 N1455 0.985 . S
H1460 N1454 0.984 . S
H1461 N1454 0.984 . S
H1462 N1450 0.984 . S
H1463 N1450 0.985 . S
C1464 C1465 1.363 . S
C1464 C1470 1.379 . S
C1464 N1472 1.356 . S
C1465 C1464 1.363 . S
C1465 C1471 1.363 . S
C1466 C1467 1.363 . S
C1466 C1471 1.379 . S
C1466 N1473 1.356 . S
C1467 C1466 1.363 . S
C1467 C1470 1.363 . S
N1468 C1470 1.356 . S
N1468 H1480 0.984 . S
N1468 H1481 0.985 . S
N1469 C1471 1.356 . S
N1469 H1474 0.984 . S
N1469 H1475 0.985 . S
C1470 C1464 1.379 . S
C1470 C1467 1.363 . S
C1470 N1468 1.356 . S
C1471 C1465 1.363 . S
C1471 C1466 1.379 . S
C1471 N1469 1.356 . S
N1472 C1464 1.356 . S
N1472 H1478 0.984 . S
N1472 H1479 0.984 . S
N1473 C1466 1.356 . S
N1473 H1476 0.984 . S
N1473 H1477 0.985 . S
H1474 N1469 0.984 . S
H1475 N1469 0.985 . S
H1476 N1473 0.984 . S
H1477 N1473 0.985 . S
H1478 N1472 0.984 . S
H1479 N1472 0.984 . S
H1480 N1468 0.984 . S
H1481 N1468 0.985 . S
C1482 C1483 1.363 . S
C1482 C1488 1.379 . S
C1482 N1490 1.356 . S
C1483 C1482 1.363 . S
C1483 C1489 1.363 . S
C1484 C1485 1.363 . S
C1484 C1489 1.379 . S
C1484 N1491 1.356 . S
C1485 C1484 1.363 . S
C1485 C1488 1.363 . S
N1486 C1488 1.356 . S
N1486 H1498 0.984 . S
N1486 H1499 0.985 . S
N1487 C1489 1.356 . S
N1487 H1492 0.984 . S
N1487 H1493 0.985 . S
C1488 C1482 1.379 . S
C1488 C1485 1.363 . S
C1488 N1486 1.356 . S
C1489 C1483 1.363 . S
C1489 C1484 1.379 . S
C1489 N1487 1.356 . S
N1490 C1482 1.356 . S
N1490 H1496 0.984 . S
N1490 H1497 0.984 . S
N1491 C1484 1.356 . S
N1491 H1494 0.984 . S
N1491 H1495 0.985 . S
H1492 N1487 0.984 . S
H1493 N1487 0.985 . S
H1494 N1491 0.984 . S
H1495 N1491 0.985 . S
H1496 N1490 0.984 . S
H1497 N1490 0.984 . S
H1498 N1486 0.984 . S
H1499 N1486 0.985 . S
C1500 C1501 1.363 . S
C1500 C1506 1.379 . S
C1500 N1508 1.356 . S
C1501 C1500 1.363 . S
C1501 C1507 1.363 . S
C1502 C1503 1.363 . S
C1502 C1507 1.379 . S
C1502 N1509 1.356 . S
C1503 C1502 1.363 . S
C1503 C1506 1.363 . S
N1504 C1506 1.356 . S
N1504 H1516 0.984 . S
N1504 H1517 0.985 . S
N1505 C1507 1.356 . S
N1505 H1510 0.984 . S
N1505 H1511 0.985 . S
C1506 C1500 1.379 . S
C1506 C1503 1.363 . S
C1506 N1504 1.356 . S
C1507 C1501 1.363 . S
C1507 C1502 1.379 . S
C1507 N1505 1.356 . S
N1508 C1500 1.356 . S
N1508 H1514 0.984 . S
N1508 H1515 0.984 . S
N1509 C1502 1.356 . S
N1509 H1512 0.984 . S
N1509 H1513 0.985 . S
H1510 N1505 0.984 . S
H1511 N1505 0.985 . S
H1512 N1509 0.984 . S
H1513 N1509 0.985 . S
H1514 N1508 0.984 . S
H1515 N1508 0.984 . S
H1516 N1504 0.984 . S
H1517 N1504 0.985 . S
C1518 C1519 1.363 . S
C1518 C1524 1.379 . S
C1518 N1526 1.356 . S
C1519 C1518 1.363 . S
C1519 C1525 1.363 . S
C1520 C1521 1.363 . S
C1520 C1525 1.379 . S
C1520 N1527 1.356 . S
C1521 C1520 1.363 . S
C1521 C1524 1.363 . S
N1522 C1524 1.356 . S
N1522 H1534 0.984 . S
N1522 H1535 0.985 . S
N1523 C1525 1.356 . S
N1523 H1528 0.984 . S
N1523 H1529 0.985 . S
C1524 C1518 1.379 . S
C1524 C1521 1.363 . S
C1524 N1522 1.356 . S
C1525 C1519 1.363 . S
C1525 C1520 1.379 . S
C1525 N1523 1.356 . S
N1526 C1518 1.356 . S
N1526 H1532 0.984 . S
N1526 H1533 0.984 . S
N1527 C1520 1.356 . S
N1527 H1530 0.984 . S
N1527 H1531 0.985 . S
H1528 N1523 0.984 . S
H1529 N1523 0.985 . S
H1530 N1527 0.984 . S
H1531 N1527 0.985 . S
H1532 N1526 0.984 . S
H1533 N1526 0.984 . S
H1534 N1522 0.984 . S
H1535 N1522 0.985 . S
C1536 C1537 1.363 . S
C1536 C1542 1.379 . S
C1536 N1544 1.356 . S
C1537 C1536 1.363 . S
C1537 C1543 1.363 . S
C1538 C1539 1.363 . S
C1538 C1543 1.379 . S
C1538 N1545 1.356 . S
C1539 C1538 1.363 . S
C1539 C1542 1.363 . S
N1540 C1542 1.356 . S
N1540 H1552 0.984 . S
N1540 H1553 0.985 . S
N1541 C1543 1.356 . S
N1541 H1546 0.984 . S
N1541 H1547 0.985 . S
C1542 C1536 1.379 . S
C1542 C1539 1.363 . S
C1542 N1540 1.356 . S
C1543 C1537 1.363 . S
C1543 C1538 1.379 . S
C1543 N1541 1.356 . S
N1544 C1536 1.356 . S
N1544 H1550 0.984 . S
N1544 H1551 0.984 . S
N1545 C1538 1.356 . S
N1545 H1548 0.984 . S
N1545 H1549 0.985 . S
H1546 N1541 0.984 . S
H1547 N1541 0.985 . S
H1548 N1545 0.984 . S
H1549 N1545 0.985 . S
H1550 N1544 0.984 . S
H1551 N1544 0.984 . S
H1552 N1540 0.984 . S
H1553 N1540 0.985 . S
C1554 C1555 1.363 . S
C1554 C1560 1.379 . S
C1554 N1562 1.356 . S
C1555 C1554 1.363 . S
C1555 C1561 1.363 . S
C1556 C1557 1.363 . S
C1556 C1561 1.379 . S
C1556 N1563 1.356 . S
C1557 C1556 1.363 . S
C1557 C1560 1.363 . S
N1558 C1560 1.356 . S
N1558 H1570 0.984 . S
N1558 H1571 0.985 . S
N1559 C1561 1.356 . S
N1559 H1564 0.984 . S
N1559 H1565 0.985 . S
C1560 C1554 1.379 . S
C1560 C1557 1.363 . S
C1560 N1558 1.356 . S
C1561 C1555 1.363 . S
C1561 C1556 1.379 . S
C1561 N1559 1.356 . S
N1562 C1554 1.356 . S
N1562 H1568 0.984 . S
N1562 H1569 0.984 . S
N1563 C1556 1.356 . S
N1563 H1566 0.984 . S
N1563 H1567 0.985 . S
H1564 N1559 0.984 . S
H1565 N1559 0.985 . S
H1566 N1563 0.984 . S
H1567 N1563 0.985 . S
H1568 N1562 0.984 . S
H1569 N1562 0.984 . S
H1570 N1558 0.984 . S
H1571 N1558 0.985 . S
C1572 C1573 1.363 . S
C1572 C1578 1.379 . S
C1572 N1580 1.356 . S
C1573 C1572 1.363 . S
C1573 C1579 1.363 . S
C1574 C1575 1.363 . S
C1574 C1579 1.379 . S
C1574 N1581 1.356 . S
C1575 C1574 1.363 . S
C1575 C1578 1.363 . S
N1576 C1578 1.356 . S
N1576 H1588 0.984 . S
N1576 H1589 0.985 . S
N1577 C1579 1.356 . S
N1577 H1582 0.984 . S
N1577 H1583 0.985 . S
C1578 C1572 1.379 . S
C1578 C1575 1.363 . S
C1578 N1576 1.356 . S
C1579 C1573 1.363 . S
C1579 C1574 1.379 . S
C1579 N1577 1.356 . S
N1580 C1572 1.356 . S
N1580 H1586 0.984 . S
N1580 H1587 0.984 . S
N1581 C1574 1.356 . S
N1581 H1584 0.984 . S
N1581 H1585 0.985 . S
H1582 N1577 0.984 . S
H1583 N1577 0.985 . S
H1584 N1581 0.984 . S
H1585 N1581 0.985 . S
H1586 N1580 0.984 . S
H1587 N1580 0.984 . S
H1588 N1576 0.984 . S
H1589 N1576 0.985 . S
C1590 C1591 1.363 . S
C1590 C1596 1.379 . S
C1590 N1598 1.356 . S
C1591 C1590 1.363 . S
C1591 C1597 1.363 . S
C1592 C1593 1.363 . S
C1592 C1597 1.379 . S
C1592 N1599 1.356 . S
C1593 C1592 1.363 . S
C1593 C1596 1.363 . S
N1594 C1596 1.356 . S
N1594 H1606 0.984 . S
N1594 H1607 0.985 . S
N1595 C1597 1.356 . S
N1595 H1600 0.984 . S
N1595 H1601 0.985 . S
C1596 C1590 1.379 . S
C1596 C1593 1.363 . S
C1596 N1594 1.356 . S
C1597 C1591 1.363 . S
C1597 C1592 1.379 . S
C1597 N1595 1.356 . S
N1598 C1590 1.356 . S
N1598 H1604 0.984 . S
N1598 H1605 0.984 . S
N1599 C1592 1.356 . S
N1599 H1602 0.984 . S
N1599 H1603 0.985 . S
H1600 N1595 0.984 . S
H1601 N1595 0.985 . S
H1602 N1599 0.984 . S
H1603 N1599 0.985 . S
H1604 N1598 0.984 . S
H1605 N1598 0.984 . S
H1606 N1594 0.984 . S
H1607 N1594 0.985 . S
C1608 C1609 1.363 . S
C1608 C1614 1.379 . S
C1608 N1616 1.356 . S
C1609 C1608 1.363 . S
C1609 C1615 1.363 . S
C1610 C1611 1.363 . S
C1610 C1615 1.379 . S
C1610 N1617 1.356 . S
C1611 C1610 1.363 . S
C1611 C1614 1.363 . S
N1612 C1614 1.356 . S
N1612 H1624 0.984 . S
N1612 H1625 0.985 . S
N1613 C1615 1.356 . S
N1613 H1618 0.984 . S
N1613 H1619 0.985 . S
C1614 C1608 1.379 . S
C1614 C1611 1.363 . S
C1614 N1612 1.356 . S
C1615 C1609 1.363 . S
C1615 C1610 1.379 . S
C1615 N1613 1.356 . S
N1616 C1608 1.356 . S
N1616 H1622 0.984 . S
N1616 H1623 0.984 . S
N1617 C1610 1.356 . S
N1617 H1620 0.984 . S
N1617 H1621 0.985 . S
H1618 N1613 0.984 . S
H1619 N1613 0.985 . S
H1620 N1617 0.984 . S
H1621 N1617 0.985 . S
H1622 N1616 0.984 . S
H1623 N1616 0.984 . S
H1624 N1612 0.984 . S
H1625 N1612 0.985 . S
C1626 C1627 1.363 . S
C1626 C1632 1.379 . S
C1626 N1634 1.356 . S
C1627 C1626 1.363 . S
C1627 C1633 1.363 . S
C1628 C1629 1.363 . S
C1628 C1633 1.379 . S
C1628 N1635 1.356 . S
C1629 C1628 1.363 . S
C1629 C1632 1.363 . S
N1630 C1632 1.356 . S
N1630 H1642 0.984 . S
N1630 H1643 0.985 . S
N1631 C1633 1.356 . S
N1631 H1636 0.984 . S
N1631 H1637 0.985 . S
C1632 C1626 1.379 . S
C1632 C1629 1.363 . S
C1632 N1630 1.356 . S
C1633 C1627 1.363 . S
C1633 C1628 1.379 . S
C1633 N1631 1.356 . S
N1634 C1626 1.356 . S
N1634 H1640 0.984 . S
N1634 H1641 0.984 . S
N1635 C1628 1.356 . S
N1635 H1638 0.984 . S
N1635 H1639 0.985 . S
H1636 N1631 0.984 . S
H1637 N1631 0.985 . S
H1638 N1635 0.984 . S
H1639 N1635 0.985 . S
H1640 N1634 0.984 . S
H1641 N1634 0.984 . S
H1642 N1630 0.984 . S
H1643 N1630 0.985 . S
C1644 C1645 1.363 . S
C1644 C1650 1.379 . S
C1644 N1652 1.356 . S
C1645 C1644 1.363 . S
C1645 C1651 1.363 . S
C1646 C1647 1.363 . S
C1646 C1651 1.379 . S
C1646 N1653 1.356 . S
C1647 C1646 1.363 . S
C1647 C1650 1.363 . S
N1648 C1650 1.356 . S
N1648 H1660 0.984 . S
N1648 H1661 0.985 . S
N1649 C1651 1.356 . S
N1649 H1654 0.984 . S
N1649 H1655 0.985 . S
C1650 C1644 1.379 . S
C1650 C1647 1.363 . S
C1650 N1648 1.356 . S
C1651 C1645 1.363 . S
C1651 C1646 1.379 . S
C1651 N1649 1.356 . S
N1652 C1644 1.356 . S
N1652 H1658 0.984 . S
N1652 H1659 0.984 . S
N1653 C1646 1.356 . S
N1653 H1656 0.984 . S
N1653 H1657 0.985 . S
H1654 N1649 0.984 . S
H1655 N1649 0.985 . S
H1656 N1653 0.984 . S
H1657 N1653 0.985 . S
H1658 N1652 0.984 . S
H1659 N1652 0.984 . S
H1660 N1648 0.984 . S
H1661 N1648 0.985 . S
C1662 C1663 1.363 . S
C1662 C1668 1.379 . S
C1662 N1670 1.356 . S
C1663 C1662 1.363 . S
C1663 C1669 1.363 . S
C1664 C1665 1.363 . S
C1664 C1669 1.379 . S
C1664 N1671 1.356 . S
C1665 C1664 1.363 . S
C1665 C1668 1.363 . S
N1666 C1668 1.356 . S
N1666 H1678 0.984 . S
N1666 H1679 0.985 . S
N1667 C1669 1.356 . S
N1667 H1672 0.984 . S
N1667 H1673 0.985 . S
C1668 C1662 1.379 . S
C1668 C1665 1.363 . S
C1668 N1666 1.356 . S
C1669 C1663 1.363 . S
C1669 C1664 1.379 . S
C1669 N1667 1.356 . S
N1670 C1662 1.356 . S
N1670 H1676 0.984 . S
N1670 H1677 0.984 . S
N1671 C1664 1.356 . S
N1671 H1674 0.984 . S
N1671 H1675 0.985 . S
H1672 N1667 0.984 . S
H1673 N1667 0.985 . S
H1674 N1671 0.984 . S
H1675 N1671 0.985 . S
H1676 N1670 0.984 . S
H1677 N1670 0.984 . S
H1678 N1666 0.984 . S
H1679 N1666 0.985 . S
C1680 C1681 1.363 . S
C1680 C1686 1.379 . S
C1680 N1688 1.356 . S
C1681 C1680 1.363 . S
C1681 C1687 1.363 . S
C1682 C1683 1.363 . S
C1682 C1687 1.379 . S
C1682 N1689 1.356 . S
C1683 C1682 1.363 . S
C1683 C1686 1.363 . S
N1684 C1686 1.356 . S
N1684 H1696 0.984 . S
N1684 H1697 0.985 . S
N1685 C1687 1.356 . S
N1685 H1690 0.984 . S
N1685 H1691 0.985 . S
C1686 C1680 1.379 . S
C1686 C1683 1.363 . S
C1686 N1684 1.356 . S
C1687 C1681 1.363 . S
C1687 C1682 1.379 . S
C1687 N1685 1.356 . S
N1688 C1680 1.356 . S
N1688 H1694 0.984 . S
N1688 H1695 0.984 . S
N1689 C1682 1.356 . S
N1689 H1692 0.984 . S
N1689 H1693 0.985 . S
H1690 N1685 0.984 . S
H1691 N1685 0.985 . S
H1692 N1689 0.984 . S
H1693 N1689 0.985 . S
H1694 N1688 0.984 . S
H1695 N1688 0.984 . S
H1696 N1684 0.984 . S
H1697 N1684 0.985 . S
C1698 C1699 1.363 . S
C1698 C1704 1.379 . S
C1698 N1706 1.356 . S
C1699 C1698 1.363 . S
C1699 C1705 1.363 . S
C1700 C1701 1.363 . S
C1700 C1705 1.379 . S
C1700 N1707 1.356 . S
C1701 C1700 1.363 . S
C1701 C1704 1.363 . S
N1702 C1704 1.356 . S
N1702 H1714 0.984 . S
N1702 H1715 0.985 . S
N1703 C1705 1.356 . S
N1703 H1708 0.984 . S
N1703 H1709 0.985 . S
C1704 C1698 1.379 . S
C1704 C1701 1.363 . S
C1704 N1702 1.356 . S
C1705 C1699 1.363 . S
C1705 C1700 1.379 . S
C1705 N1703 1.356 . S
N1706 C1698 1.356 . S
N1706 H1712 0.984 . S
N1706 H1713 0.984 . S
N1707 C1700 1.356 . S
N1707 H1710 0.984 . S
N1707 H1711 0.985 . S
H1708 N1703 0.984 . S
H1709 N1703 0.985 . S
H1710 N1707 0.984 . S
H1711 N1707 0.985 . S
H1712 N1706 0.984 . S
H1713 N1706 0.984 . S
H1714 N1702 0.984 . S
H1715 N1702 0.985 . S
C1716 C1717 1.363 . S
C1716 C1722 1.379 . S
C1716 N1724 1.356 . S
C1717 C1716 1.363 . S
C1717 C1723 1.363 . S
C1718 C1719 1.363 . S
C1718 C1723 1.379 . S
C1718 N1725 1.356 . S
C1719 C1718 1.363 . S
C1719 C1722 1.363 . S
N1720 C1722 1.356 . S
N1720 H1732 0.984 . S
N1720 H1733 0.985 . S
N1721 C1723 1.356 . S
N1721 H1726 0.984 . S
N1721 H1727 0.985 . S
C1722 C1716 1.379 . S
C1722 C1719 1.363 . S
C1722 N1720 1.356 . S
C1723 C1717 1.363 . S
C1723 C1718 1.379 . S
C1723 N1721 1.356 . S
N1724 C1716 1.356 . S
N1724 H1730 0.984 . S
N1724 H1731 0.984 . S
N1725 C1718 1.356 . S
N1725 H1728 0.984 . S
N1725 H1729 0.985 . S
H1726 N1721 0.984 . S
H1727 N1721 0.985 . S
H1728 N1725 0.984 . S
H1729 N1725 0.985 . S
H1730 N1724 0.984 . S
H1731 N1724 0.984 . S
H1732 N1720 0.984 . S
H1733 N1720 0.985 . S
C1734 C1735 1.363 . S
C1734 C1740 1.379 . S
C1734 N1742 1.356 . S
C1735 C1734 1.363 . S
C1735 C1741 1.363 . S
C1736 C1737 1.363 . S
C1736 C1741 1.379 . S
C1736 N1743 1.356 . S
C1737 C1736 1.363 . S
C1737 C1740 1.363 . S
N1738 C1740 1.356 . S
N1738 H1750 0.984 . S
N1738 H1751 0.985 . S
N1739 C1741 1.356 . S
N1739 H1744 0.984 . S
N1739 H1745 0.985 . S
C1740 C1734 1.379 . S
C1740 C1737 1.363 . S
C1740 N1738 1.356 . S
C1741 C1735 1.363 . S
C1741 C1736 1.379 . S
C1741 N1739 1.356 . S
N1742 C1734 1.356 . S
N1742 H1748 0.984 . S
N1742 H1749 0.984 . S
N1743 C1736 1.356 . S
N1743 H1746 0.984 . S
N1743 H1747 0.985 . S
H1744 N1739 0.984 . S
H1745 N1739 0.985 . S
H1746 N1743 0.984 . S
H1747 N1743 0.985 . S
H1748 N1742 0.984 . S
H1749 N1742 0.984 . S
H1750 N1738 0.984 . S
H1751 N1738 0.985 . S
C1752 C1753 1.363 . S
C1752 C1758 1.379 . S
C1752 N1760 1.356 . S
C1753 C1752 1.363 . S
C1753 C1759 1.363 . S
C1754 C1755 1.363 . S
C1754 C1759 1.379 . S
C1754 N1761 1.356 . S
C1755 C1754 1.363 . S
C1755 C1758 1.363 . S
N1756 C1758 1.356 . S
N1756 H1768 0.984 . S
N1756 H1769 0.985 . S
N1757 C1759 1.356 . S
N1757 H1762 0.984 . S
N1757 H1763 0.985 . S
C1758 C1752 1.379 . S
C1758 C1755 1.363 . S
C1758 N1756 1.356 . S
C1759 C1753 1.363 . S
C1759 C1754 1.379 . S
C1759 N1757 1.356 . S
N1760 C1752 1.356 . S
N1760 H1766 0.984 . S
N1760 H1767 0.984 . S
N1761 C1754 1.356 . S
N1761 H1764 0.984 . S
N1761 H1765 0.985 . S
H1762 N1757 0.984 . S
H1763 N1757 0.985 . S
H1764 N1761 0.984 . S
H1765 N1761 0.985 . S
H1766 N1760 0.984 . S
H1767 N1760 0.984 . S
H1768 N1756 0.984 . S
H1769 N1756 0.985 . S
C1770 C1771 1.363 . S
C1770 C1776 1.379 . S
C1770 N1778 1.356 . S
C1771 C1770 1.363 . S
C1771 C1777 1.363 . S
C1772 C1773 1.363 . S
C1772 C1777 1.379 . S
C1772 N1779 1.356 . S
C1773 C1772 1.363 . S
C1773 C1776 1.363 . S
N1774 C1776 1.356 . S
N1774 H1786 0.984 . S
N1774 H1787 0.985 . S
N1775 C1777 1.356 . S
N1775 H1780 0.984 . S
N1775 H1781 0.985 . S
C1776 C1770 1.379 . S
C1776 C1773 1.363 . S
C1776 N1774 1.356 . S
C1777 C1771 1.363 . S
C1777 C1772 1.379 . S
C1777 N1775 1.356 . S
N1778 C1770 1.356 . S
N1778 H1784 0.984 . S
N1778 H1785 0.984 . S
N1779 C1772 1.356 . S
N1779 H1782 0.984 . S
N1779 H1783 0.985 . S
H1780 N1775 0.984 . S
H1781 N1775 0.985 . S
H1782 N1779 0.984 . S
H1783 N1779 0.985 . S
H1784 N1778 0.984 . S
H1785 N1778 0.984 . S
H1786 N1774 0.984 . S
H1787 N1774 0.985 . S
C1788 C1789 1.363 . S
C1788 C1794 1.379 . S
C1788 N1796 1.356 . S
C1789 C1788 1.363 . S
C1789 C1795 1.363 . S
C1790 C1791 1.363 . S
C1790 C1795 1.379 . S
C1790 N1797 1.356 . S
C1791 C1790 1.363 . S
C1791 C1794 1.363 . S
N1792 C1794 1.356 . S
N1792 H1804 0.984 . S
N1792 H1805 0.985 . S
N1793 C1795 1.356 . S
N1793 H1798 0.984 . S
N1793 H1799 0.985 . S
C1794 C1788 1.379 . S
C1794 C1791 1.363 . S
C1794 N1792 1.356 . S
C1795 C1789 1.363 . S
C1795 C1790 1.379 . S
C1795 N1793 1.356 . S
N1796 C1788 1.356 . S
N1796 H1802 0.984 . S
N1796 H1803 0.984 . S
N1797 C1790 1.356 . S
N1797 H1800 0.984 . S
N1797 H1801 0.985 . S
H1798 N1793 0.984 . S
H1799 N1793 0.985 . S
H1800 N1797 0.984 . S
H1801 N1797 0.985 . S
H1802 N1796 0.984 . S
H1803 N1796 0.984 . S
H1804 N1792 0.984 . S
H1805 N1792 0.985 . S
C1806 C1807 1.363 . S
C1806 C1812 1.379 . S
C1806 N1814 1.356 . S
C1807 C1806 1.363 . S
C1807 C1813 1.363 . S
C1808 C1809 1.363 . S
C1808 C1813 1.379 . S
C1808 N1815 1.356 . S
C1809 C1808 1.363 . S
C1809 C1812 1.363 . S
N1810 C1812 1.356 . S
N1810 H1822 0.984 . S
N1810 H1823 0.985 . S
N1811 C1813 1.356 . S
N1811 H1816 0.984 . S
N1811 H1817 0.985 . S
C1812 C1806 1.379 . S
C1812 C1809 1.363 . S
C1812 N1810 1.356 . S
C1813 C1807 1.363 . S
C1813 C1808 1.379 . S
C1813 N1811 1.356 . S
N1814 C1806 1.356 . S
N1814 H1820 0.984 . S
N1814 H1821 0.984 . S
N1815 C1808 1.356 . S
N1815 H1818 0.984 . S
N1815 H1819 0.985 . S
H1816 N1811 0.984 . S
H1817 N1811 0.985 . S
H1818 N1815 0.984 . S
H1819 N1815 0.985 . S
H1820 N1814 0.984 . S
H1821 N1814 0.984 . S
H1822 N1810 0.984 . S
H1823 N1810 0.985 . S
C1824 C1825 1.363 . S
C1824 C1830 1.379 . S
C1824 N1832 1.356 . S
C1825 C1824 1.363 . S
C1825 C1831 1.363 . S
C1826 C1827 1.363 . S
C1826 C1831 1.379 . S
C1826 N1833 1.356 . S
C1827 C1826 1.363 . S
C1827 C1830 1.363 . S
N1828 C1830 1.356 . S
N1828 H1840 0.984 . S
N1828 H1841 0.985 . S
N1829 C1831 1.356 . S
N1829 H1834 0.984 . S
N1829 H1835 0.985 . S
C1830 C1824 1.379 . S
C1830 C1827 1.363 . S
C1830 N1828 1.356 . S
C1831 C1825 1.363 . S
C1831 C1826 1.379 . S
C1831 N1829 1.356 . S
N1832 C1824 1.356 . S
N1832 H1838 0.984 . S
N1832 H1839 0.984 . S
N1833 C1826 1.356 . S
N1833 H1836 0.984 . S
N1833 H1837 0.985 . S
H1834 N1829 0.984 . S
H1835 N1829 0.985 . S
H1836 N1833 0.984 . S
H1837 N1833 0.985 . S
H1838 N1832 0.984 . S
H1839 N1832 0.984 . S
H1840 N1828 0.984 . S
H1841 N1828 0.985 . S
C1842 C1843 1.363 . S
C1842 C1848 1.379 . S
C1842 N1850 1.356 . S
C1843 C1842 1.363 . S
C1843 C1849 1.363 . S
C1844 C1845 1.363 . S
C1844 C1849 1.379 . S
C1844 N1851 1.356 . S
C1845 C1844 1.363 . S
C1845 C1848 1.363 . S
N1846 C1848 1.356 . S
N1846 H1858 0.984 . S
N1846 H1859 0.985 . S
N1847 C1849 1.356 . S
N1847 H1852 0.984 . S
N1847 H1853 0.985 . S
C1848 C1842 1.379 . S
C1848 C1845 1.363 . S
C1848 N1846 1.356 . S
C1849 C1843 1.363 . S
C1849 C1844 1.379 . S
C1849 N1847 1.356 . S
N1850 C1842 1.356 . S
N1850 H1856 0.984 . S
N1850 H1857 0.984 . S
N1851 C1844 1.356 . S
N1851 H1854 0.984 . S
N1851 H1855 0.985 . S
H1852 N1847 0.984 . S
H1853 N1847 0.985 . S
H1854 N1851 0.984 . S
H1855 N1851 0.985 . S
H1856 N1850 0.984 . S
H1857 N1850 0.984 . S
H1858 N1846 0.984 . S
H1859 N1846 0.985 . S
C1860 C1861 1.363 . S
C1860 C1866 1.379 . S
C1860 N1868 1.356 . S
C1861 C1860 1.363 . S
C1861 C1867 1.363 . S
C1862 C1863 1.363 . S
C1862 C1867 1.379 . S
C1862 N1869 1.356 . S
C1863 C1862 1.363 . S
C1863 C1866 1.363 . S
N1864 C1866 1.356 . S
N1864 H1876 0.984 . S
N1864 H1877 0.985 . S
N1865 C1867 1.356 . S
N1865 H1870 0.984 . S
N1865 H1871 0.985 . S
C1866 C1860 1.379 . S
C1866 C1863 1.363 . S
C1866 N1864 1.356 . S
C1867 C1861 1.363 . S
C1867 C1862 1.379 . S
C1867 N1865 1.356 . S
N1868 C1860 1.356 . S
N1868 H1874 0.984 . S
N1868 H1875 0.984 . S
N1869 C1862 1.356 . S
N1869 H1872 0.984 . S
N1869 H1873 0.985 . S
H1870 N1865 0.984 . S
H1871 N1865 0.985 . S
H1872 N1869 0.984 . S
H1873 N1869 0.985 . S
H1874 N1868 0.984 . S
H1875 N1868 0.984 . S
H1876 N1864 0.984 . S
H1877 N1864 0.985 . S
C1878 C1879 1.363 . S
C1878 C1884 1.379 . S
C1878 N1886 1.356 . S
C1879 C1878 1.363 . S
C1879 C1885 1.363 . S
C1880 C1881 1.363 . S
C1880 C1885 1.379 . S
C1880 N1887 1.356 . S
C1881 C1880 1.363 . S
C1881 C1884 1.363 . S
N1882 C1884 1.356 . S
N1882 H1894 0.984 . S
N1882 H1895 0.985 . S
N1883 C1885 1.356 . S
N1883 H1888 0.984 . S
N1883 H1889 0.985 . S
C1884 C1878 1.379 . S
C1884 C1881 1.363 . S
C1884 N1882 1.356 . S
C1885 C1879 1.363 . S
C1885 C1880 1.379 . S
C1885 N1883 1.356 . S
N1886 C1878 1.356 . S
N1886 H1892 0.984 . S
N1886 H1893 0.984 . S
N1887 C1880 1.356 . S
N1887 H1890 0.984 . S
N1887 H1891 0.985 . S
H1888 N1883 0.984 . S
H1889 N1883 0.985 . S
H1890 N1887 0.984 . S
H1891 N1887 0.985 . S
H1892 N1886 0.984 . S
H1893 N1886 0.984 . S
H1894 N1882 0.984 . S
H1895 N1882 0.985 . S
C1896 C1897 1.363 . S
C1896 C1902 1.379 . S
C1896 N1904 1.356 . S
C1897 C1896 1.363 . S
C1897 C1903 1.363 . S
C1898 C1899 1.363 . S
C1898 C1903 1.379 . S
C1898 N1905 1.356 . S
C1899 C1898 1.363 . S
C1899 C1902 1.363 . S
N1900 C1902 1.356 . S
N1900 H1912 0.984 . S
N1900 H1913 0.985 . S
N1901 C1903 1.356 . S
N1901 H1906 0.984 . S
N1901 H1907 0.985 . S
C1902 C1896 1.379 . S
C1902 C1899 1.363 . S
C1902 N1900 1.356 . S
C1903 C1897 1.363 . S
C1903 C1898 1.379 . S
C1903 N1901 1.356 . S
N1904 C1896 1.356 . S
N1904 H1910 0.984 . S
N1904 H1911 0.984 . S
N1905 C1898 1.356 . S
N1905 H1908 0.984 . S
N1905 H1909 0.985 . S
H1906 N1901 0.984 . S
H1907 N1901 0.985 . S
H1908 N1905 0.984 . S
H1909 N1905 0.985 . S
H1910 N1904 0.984 . S
H1911 N1904 0.984 . S
H1912 N1900 0.984 . S
H1913 N1900 0.985 . S
C1914 C1915 1.363 . S
C1914 C1920 1.379 . S
C1914 N1922 1.356 . S
C1915 C1914 1.363 . S
C1915 C1921 1.363 . S
C1916 C1917 1.363 . S
C1916 C1921 1.379 . S
C1916 N1923 1.356 . S
C1917 C1916 1.363 . S
C1917 C1920 1.363 . S
N1918 C1920 1.356 . S
N1918 H1930 0.984 . S
N1918 H1931 0.985 . S
N1919 C1921 1.356 . S
N1919 H1924 0.984 . S
N1919 H1925 0.985 . S
C1920 C1914 1.379 . S
C1920 C1917 1.363 . S
C1920 N1918 1.356 . S
C1921 C1915 1.363 . S
C1921 C1916 1.379 . S
C1921 N1919 1.356 . S
N1922 C1914 1.356 . S
N1922 H1928 0.984 . S
N1922 H1929 0.984 . S
N1923 C1916 1.356 . S
N1923 H1926 0.984 . S
N1923 H1927 0.985 . S
H1924 N1919 0.984 . S
H1925 N1919 0.985 . S
H1926 N1923 0.984 . S
H1927 N1923 0.985 . S
H1928 N1922 0.984 . S
H1929 N1922 0.984 . S
H1930 N1918 0.984 . S
H1931 N1918 0.985 . S
C1932 C1933 1.363 . S
C1932 C1938 1.379 . S
C1932 N1940 1.356 . S
C1933 C1932 1.363 . S
C1933 C1939 1.363 . S
C1934 C1935 1.363 . S
C1934 C1939 1.379 . S
C1934 N1941 1.356 . S
C1935 C1934 1.363 . S
C1935 C1938 1.363 . S
N1936 C1938 1.356 . S
N1936 H1948 0.984 . S
N1936 H1949 0.985 . S
N1937 C1939 1.356 . S
N1937 H1942 0.984 . S
N1937 H1943 0.985 . S
C1938 C1932 1.379 . S
C1938 C1935 1.363 . S
C1938 N1936 1.356 . S
C1939 C1933 1.363 . S
C1939 C1934 1.379 . S
C1939 N1937 1.356 . S
N1940 C1932 1.356 . S
N1940 H1946 0.984 . S
N1940 H1947 0.984 . S
N1941 C1934 1.356 . S
N1941 H1944 0.984 . S
N1941 H1945 0.985 . S
H1942 N1937 0.984 . S
H1943 N1937 0.985 . S
H1944 N1941 0.984 . S
H1945 N1941 0.985 . S
H1946 N1940 0.984 . S
H1947 N1940 0.984 . S
H1948 N1936 0.984 . S
H1949 N1936 0.985 . S
C1950 C1951 1.363 . S
C1950 C1956 1.379 . S
C1950 N1958 1.356 . S
C1951 C1950 1.363 . S
C1951 C1957 1.363 . S
C1952 C1953 1.363 . S
C1952 C1957 1.379 . S
C1952 N1959 1.356 . S
C1953 C1952 1.363 . S
C1953 C1956 1.363 . S
N1954 C1956 1.356 . S
N1954 H1966 0.984 . S
N1954 H1967 0.985 . S
N1955 C1957 1.356 . S
N1955 H1960 0.984 . S
N1955 H1961 0.985 . S
C1956 C1950 1.379 . S
C1956 C1953 1.363 . S
C1956 N1954 1.356 . S
C1957 C1951 1.363 . S
C1957 C1952 1.379 . S
C1957 N1955 1.356 . S
N1958 C1950 1.356 . S
N1958 H1964 0.984 . S
N1958 H1965 0.984 . S
N1959 C1952 1.356 . S
N1959 H1962 0.984 . S
N1959 H1963 0.985 . S
H1960 N1955 0.984 . S
H1961 N1955 0.985 . S
H1962 N1959 0.984 . S
H1963 N1959 0.985 . S
H1964 N1958 0.984 . S
H1965 N1958 0.984 . S
H1966 N1954 0.984 . S
H1967 N1954 0.985 . S
C1968 C1969 1.363 . S
C1968 C1974 1.379 1_554 S
C1968 N1976 1.356 . S
C1969 C1968 1.363 . S
C1969 C1975 1.363 . S
C1970 C1971 1.363 . S
C1970 C1975 1.379 1_556 S
C1970 N1977 1.356 . S
C1971 C1970 1.363 . S
C1971 C1974 1.363 . S
N1972 C1974 1.356 . S
N1972 H1984 0.984 . S
N1972 H1985 0.985 . S
N1973 C1975 1.356 . S
N1973 H1978 0.984 . S
N1973 H1979 0.985 . S
C1974 C1968 1.379 1_556 S
C1974 C1971 1.363 . S
C1974 N1972 1.356 . S
C1975 C1969 1.363 . S
C1975 C1970 1.379 1_554 S
C1975 N1973 1.356 . S
N1976 C1968 1.356 . S
N1976 H1982 0.984 . S
N1976 H1983 0.984 . S
N1977 C1970 1.356 . S
N1977 H1980 0.984 . S
N1977 H1981 0.985 . S
H1978 N1973 0.984 . S
H1979 N1973 0.985 . S
H1980 N1977 0.984 . S
H1981 N1977 0.985 . S
H1982 N1976 0.984 . S
H1983 N1976 0.984 . S
H1984 N1972 0.984 . S
H1985 N1972 0.985 . S
C1986 C1987 1.363 . S
C1986 C1992 1.379 1_556 S
C1986 N1994 1.356 . S
C1987 C1986 1.363 . S
C1987 C1993 1.363 . S
C1988 C1989 1.363 . S
C1988 C1993 1.379 1_554 S
C1988 N1995 1.356 . S
C1989 C1988 1.363 . S
C1989 C1992 1.363 . S
N1990 C1992 1.356 . S
N1990 H2002 0.984 . S
N1990 H2003 0.985 . S
N1991 C1993 1.356 . S
N1991 H1996 0.984 . S
N1991 H1997 0.985 . S
C1992 C1986 1.379 1_554 S
C1992 C1989 1.363 . S
C1992 N1990 1.356 . S
C1993 C1987 1.363 . S
C1993 C1988 1.379 1_556 S
C1993 N1991 1.356 . S
N1994 C1986 1.356 . S
N1994 H2000 0.984 . S
N1994 H2001 0.984 . S
N1995 C1988 1.356 . S
N1995 H1998 0.984 . S
N1995 H1999 0.985 . S
H1996 N1991 0.984 . S
H1997 N1991 0.985 . S
H1998 N1995 0.984 . S
H1999 N1995 0.985 . S
H2000 N1994 0.984 . S
H2001 N1994 0.984 . S
H2002 N1990 0.984 . S
H2003 N1990 0.985 . S
C2004 C2005 1.363 . S
C2004 C2010 1.379 1_554 S
C2004 N2012 1.356 . S
C2005 C2004 1.363 . S
C2005 C2011 1.363 . S
C2006 C2007 1.363 . S
C2006 C2011 1.379 1_556 S
C2006 N2013 1.356 . S
C2007 C2006 1.363 . S
C2007 C2010 1.363 . S
N2008 C2010 1.356 . S
N2008 H2020 0.984 . S
N2008 H2021 0.985 . S
N2009 C2011 1.356 . S
N2009 H2014 0.984 . S
N2009 H2015 0.985 . S
C2010 C2004 1.379 1_556 S
C2010 C2007 1.363 . S
C2010 N2008 1.356 . S
C2011 C2005 1.363 . S
C2011 C2006 1.379 1_554 S
C2011 N2009 1.356 . S
N2012 C2004 1.356 . S
N2012 H2018 0.984 . S
N2012 H2019 0.984 . S
N2013 C2006 1.356 . S
N2013 H2016 0.984 . S
N2013 H2017 0.985 . S
H2014 N2009 0.984 . S
H2015 N2009 0.985 . S
H2016 N2013 0.984 . S
H2017 N2013 0.985 . S
H2018 N2012 0.984 . S
H2019 N2012 0.984 . S
H2020 N2008 0.984 . S
H2021 N2008 0.985 . S
C2022 C2023 1.363 . S
C2022 C2028 1.379 1_554 S
C2022 N2030 1.356 . S
C2023 C2022 1.363 . S
C2023 C2029 1.363 . S
C2024 C2025 1.363 . S
C2024 C2029 1.379 1_556 S
C2024 N2031 1.356 . S
C2025 C2024 1.363 . S
C2025 C2028 1.363 . S
N2026 C2028 1.356 . S
N2026 H2038 0.984 . S
N2026 H2039 0.985 . S
N2027 C2029 1.356 . S
N2027 H2032 0.984 . S
N2027 H2033 0.985 . S
C2028 C2022 1.379 1_556 S
C2028 C2025 1.363 . S
C2028 N2026 1.356 . S
C2029 C2023 1.363 . S
C2029 C2024 1.379 1_554 S
C2029 N2027 1.356 . S
N2030 C2022 1.356 . S
N2030 H2036 0.984 . S
N2030 H2037 0.984 . S
N2031 C2024 1.356 . S
N2031 H2034 0.984 . S
N2031 H2035 0.985 . S
H2032 N2027 0.984 . S
H2033 N2027 0.985 . S
H2034 N2031 0.984 . S
H2035 N2031 0.985 . S
H2036 N2030 0.984 . S
H2037 N2030 0.984 . S
H2038 N2026 0.984 . S
H2039 N2026 0.985 . S
C2040 C2041 1.363 . S
C2040 C2046 1.379 1_556 S
C2040 N2048 1.356 . S
C2041 C2040 1.363 . S
C2041 C2047 1.363 . S
C2042 C2043 1.363 . S
C2042 C2047 1.379 1_554 S
C2042 N2049 1.356 . S
C2043 C2042 1.363 . S
C2043 C2046 1.363 . S
N2044 C2046 1.356 . S
N2044 H2056 0.984 . S
N2044 H2057 0.985 . S
N2045 C2047 1.356 . S
N2045 H2050 0.984 . S
N2045 H2051 0.985 . S
C2046 C2040 1.379 1_554 S
C2046 C2043 1.363 . S
C2046 N2044 1.356 . S
C2047 C2041 1.363 . S
C2047 C2042 1.379 1_556 S
C2047 N2045 1.356 . S
N2048 C2040 1.356 . S
N2048 H2054 0.984 . S
N2048 H2055 0.984 . S
N2049 C2042 1.356 . S
N2049 H2052 0.984 . S
N2049 H2053 0.985 . S
H2050 N2045 0.984 . S
H2051 N2045 0.985 . S
H2052 N2049 0.984 . S
H2053 N2049 0.985 . S
H2054 N2048 0.984 . S
H2055 N2048 0.984 . S
H2056 N2044 0.984 . S
H2057 N2044 0.985 . S
C2058 C2059 1.363 . S
C2058 C2064 1.379 1_554 S
C2058 N2066 1.356 . S
C2059 C2058 1.363 . S
C2059 C2065 1.363 . S
C2060 C2061 1.363 . S
C2060 C2065 1.379 1_556 S
C2060 N2067 1.356 . S
C2061 C2060 1.363 . S
C2061 C2064 1.363 . S
N2062 C2064 1.356 . S
N2062 H2074 0.984 . S
N2062 H2075 0.985 . S
N2063 C2065 1.356 . S
N2063 H2068 0.984 . S
N2063 H2069 0.985 . S
C2064 C2058 1.379 1_556 S
C2064 C2061 1.363 . S
C2064 N2062 1.356 . S
C2065 C2059 1.363 . S
C2065 C2060 1.379 1_554 S
C2065 N2063 1.356 . S
N2066 C2058 1.356 . S
N2066 H2072 0.984 . S
N2066 H2073 0.984 . S
N2067 C2060 1.356 . S
N2067 H2070 0.984 . S
N2067 H2071 0.985 . S
H2068 N2063 0.984 . S
H2069 N2063 0.985 . S
H2070 N2067 0.984 . S
H2071 N2067 0.985 . S
H2072 N2066 0.984 . S
H2073 N2066 0.984 . S
H2074 N2062 0.984 . S
H2075 N2062 0.985 . S
C2076 C2077 1.363 . S
C2076 C2082 1.379 1_556 S
C2076 N2084 1.356 . S
C2077 C2076 1.363 . S
C2077 C2083 1.363 . S
C2078 C2079 1.363 . S
C2078 C2083 1.379 1_554 S
C2078 N2085 1.356 . S
C2079 C2078 1.363 . S
C2079 C2082 1.363 . S
N2080 C2082 1.356 . S
N2080 H2092 0.984 . S
N2080 H2093 0.985 . S
N2081 C2083 1.356 . S
N2081 H2086 0.984 . S
N2081 H2087 0.985 . S
C2082 C2076 1.379 1_554 S
C2082 C2079 1.363 . S
C2082 N2080 1.356 . S
C2083 C2077 1.363 . S
C2083 C2078 1.379 1_556 S
C2083 N2081 1.356 . S
N2084 C2076 1.356 . S
N2084 H2090 0.984 . S
N2084 H2091 0.984 . S
N2085 C2078 1.356 . S
N2085 H2088 0.984 . S
N2085 H2089 0.985 . S
H2086 N2081 0.984 . S
H2087 N2081 0.985 . S
H2088 N2085 0.984 . S
H2089 N2085 0.985 . S
H2090 N2084 0.984 . S
H2091 N2084 0.984 . S
H2092 N2080 0.984 . S
H2093 N2080 0.985 . S
C2094 C2095 1.363 . S
C2094 C2100 1.379 1_554 S
C2094 N2102 1.356 . S
C2095 C2094 1.363 . S
C2095 C2101 1.363 . S
C2096 C2097 1.363 . S
C2096 C2101 1.379 1_556 S
C2096 N2103 1.356 . S
C2097 C2096 1.363 . S
C2097 C2100 1.363 . S
N2098 C2100 1.356 . S
N2098 H2110 0.984 . S
N2098 H2111 0.985 . S
N2099 C2101 1.356 . S
N2099 H2104 0.984 . S
N2099 H2105 0.985 . S
C2100 C2094 1.379 1_556 S
C2100 C2097 1.363 . S
C2100 N2098 1.356 . S
C2101 C2095 1.363 . S
C2101 C2096 1.379 1_554 S
C2101 N2099 1.356 . S
N2102 C2094 1.356 . S
N2102 H2108 0.984 . S
N2102 H2109 0.984 . S
N2103 C2096 1.356 . S
N2103 H2106 0.984 . S
N2103 H2107 0.985 . S
H2104 N2099 0.984 . S
H2105 N2099 0.985 . S
H2106 N2103 0.984 . S
H2107 N2103 0.985 . S
H2108 N2102 0.984 . S
H2109 N2102 0.984 . S
H2110 N2098 0.984 . S
H2111 N2098 0.985 . S
C2112 C2113 1.363 . S
C2112 C2118 1.379 1_455 S
C2112 N2120 1.356 . S
C2113 C2112 1.363 . S
C2113 C2119 1.363 . S
C2114 C2115 1.363 . S
C2114 C2119 1.379 1_655 S
C2114 N2121 1.356 . S
C2115 C2114 1.363 . S
C2115 C2118 1.363 . S
N2116 C2118 1.356 . S
N2116 H2128 0.984 . S
N2116 H2129 0.985 . S
N2117 C2119 1.356 . S
N2117 H2122 0.984 . S
N2117 H2123 0.985 . S
C2118 C2112 1.379 1_655 S
C2118 C2115 1.363 . S
C2118 N2116 1.356 . S
C2119 C2113 1.363 . S
C2119 C2114 1.379 1_455 S
C2119 N2117 1.356 . S
N2120 C2112 1.356 . S
N2120 H2126 0.984 . S
N2120 H2127 0.984 . S
N2121 C2114 1.356 . S
N2121 H2124 0.984 . S
N2121 H2125 0.985 . S
H2122 N2117 0.984 . S
H2123 N2117 0.985 . S
H2124 N2121 0.984 . S
H2125 N2121 0.985 . S
H2126 N2120 0.984 . S
H2127 N2120 0.984 . S
H2128 N2116 0.984 . S
H2129 N2116 0.985 . S
C2130 C2131 1.363 . S
C2130 C2136 1.379 1_565 S
C2130 N2138 1.356 . S
C2131 C2130 1.363 . S
C2131 C2137 1.363 . S
C2132 C2133 1.363 . S
C2132 C2137 1.379 1_545 S
C2132 N2139 1.356 . S
C2133 C2132 1.363 . S
C2133 C2136 1.363 . S
N2134 C2136 1.356 . S
N2134 H2146 0.984 . S
N2134 H2147 0.985 . S
N2135 C2137 1.356 . S
N2135 H2140 0.984 . S
N2135 H2141 0.985 . S
C2136 C2130 1.379 1_545 S
C2136 C2133 1.363 . S
C2136 N2134 1.356 . S
C2137 C2131 1.363 . S
C2137 C2132 1.379 1_565 S
C2137 N2135 1.356 . S
N2138 C2130 1.356 . S
N2138 H2144 0.984 . S
N2138 H2145 0.984 . S
N2139 C2132 1.356 . S
N2139 H2142 0.984 . S
N2139 H2143 0.985 . S
H2140 N2135 0.984 . S
H2141 N2135 0.985 . S
H2142 N2139 0.984 . S
H2143 N2139 0.985 . S
H2144 N2138 0.984 . S
H2145 N2138 0.984 . S
H2146 N2134 0.984 . S
H2147 N2134 0.985 . S
C2148 C2149 1.363 . S
C2148 C2154 1.379 1_455 S
C2148 N2156 1.356 . S
C2149 C2148 1.363 . S
C2149 C2155 1.363 . S
C2150 C2151 1.363 . S
C2150 C2155 1.379 1_655 S
C2150 N2157 1.356 . S
C2151 C2150 1.363 . S
C2151 C2154 1.363 . S
N2152 C2154 1.356 . S
N2152 H2164 0.984 . S
N2152 H2165 0.985 . S
N2153 C2155 1.356 . S
N2153 H2158 0.984 . S
N2153 H2159 0.985 . S
C2154 C2148 1.379 1_655 S
C2154 C2151 1.363 . S
C2154 N2152 1.356 . S
C2155 C2149 1.363 . S
C2155 C2150 1.379 1_455 S
C2155 N2153 1.356 . S
N2156 C2148 1.356 . S
N2156 H2162 0.984 . S
N2156 H2163 0.984 . S
N2157 C2150 1.356 . S
N2157 H2160 0.984 . S
N2157 H2161 0.985 . S
H2158 N2153 0.984 . S
H2159 N2153 0.985 . S
H2160 N2157 0.984 . S
H2161 N2157 0.985 . S
H2162 N2156 0.984 . S
H2163 N2156 0.984 . S
H2164 N2152 0.984 . S
H2165 N2152 0.985 . S
C2166 C2167 1.363 . S
C2166 C2172 1.379 1_565 S
C2166 N2174 1.356 . S
C2167 C2166 1.363 . S
C2167 C2173 1.363 . S
C2168 C2169 1.363 . S
C2168 C2173 1.379 1_545 S
C2168 N2175 1.356 . S
C2169 C2168 1.363 . S
C2169 C2172 1.363 . S
N2170 C2172 1.356 . S
N2170 H2182 0.984 . S
N2170 H2183 0.985 . S
N2171 C2173 1.356 . S
N2171 H2176 0.984 . S
N2171 H2177 0.985 . S
C2172 C2166 1.379 1_545 S
C2172 C2169 1.363 . S
C2172 N2170 1.356 . S
C2173 C2167 1.363 . S
C2173 C2168 1.379 1_565 S
C2173 N2171 1.356 . S
N2174 C2166 1.356 . S
N2174 H2180 0.984 . S
N2174 H2181 0.984 . S
N2175 C2168 1.356 . S
N2175 H2178 0.984 . S
N2175 H2179 0.985 . S
H2176 N2171 0.984 . S
H2177 N2171 0.985 . S
H2178 N2175 0.984 . S
H2179 N2175 0.985 . S
H2180 N2174 0.984 . S
H2181 N2174 0.984 . S
H2182 N2170 0.984 . S
H2183 N2170 0.985 . S
C2184 C2185 1.363 . S
C2184 C2190 1.379 1_655 S
C2184 N2192 1.356 . S
C2185 C2184 1.363 . S
C2185 C2191 1.363 . S
C2186 C2187 1.363 . S
C2186 C2191 1.379 1_455 S
C2186 N2193 1.356 . S
C2187 C2186 1.363 . S
C2187 C2190 1.363 . S
N2188 C2190 1.356 . S
N2188 H2200 0.984 . S
N2188 H2201 0.985 . S
N2189 C2191 1.356 . S
N2189 H2194 0.984 . S
N2189 H2195 0.985 . S
C2190 C2184 1.379 1_455 S
C2190 C2187 1.363 . S
C2190 N2188 1.356 . S
C2191 C2185 1.363 . S
C2191 C2186 1.379 1_655 S
C2191 N2189 1.356 . S
N2192 C2184 1.356 . S
N2192 H2198 0.984 . S
N2192 H2199 0.984 . S
N2193 C2186 1.356 . S
N2193 H2196 0.984 . S
N2193 H2197 0.985 . S
H2194 N2189 0.984 . S
H2195 N2189 0.985 . S
H2196 N2193 0.984 . S
H2197 N2193 0.985 . S
H2198 N2192 0.984 . S
H2199 N2192 0.984 . S
H2200 N2188 0.984 . S
H2201 N2188 0.985 . S
C2202 C2203 1.363 . S
C2202 C2208 1.379 1_545 S
C2202 N2210 1.356 . S
C2203 C2202 1.363 . S
C2203 C2209 1.363 . S
C2204 C2205 1.363 . S
C2204 C2209 1.379 1_565 S
C2204 N2211 1.356 . S
C2205 C2204 1.363 . S
C2205 C2208 1.363 . S
N2206 C2208 1.356 . S
N2206 H2218 0.984 . S
N2206 H2219 0.985 . S
N2207 C2209 1.356 . S
N2207 H2212 0.984 . S
N2207 H2213 0.985 . S
C2208 C2202 1.379 1_565 S
C2208 C2205 1.363 . S
C2208 N2206 1.356 . S
C2209 C2203 1.363 . S
C2209 C2204 1.379 1_545 S
C2209 N2207 1.356 . S
N2210 C2202 1.356 . S
N2210 H2216 0.984 . S
N2210 H2217 0.984 . S
N2211 C2204 1.356 . S
N2211 H2214 0.984 . S
N2211 H2215 0.985 . S
H2212 N2207 0.984 . S
H2213 N2207 0.985 . S
H2214 N2211 0.984 . S
H2215 N2211 0.985 . S
H2216 N2210 0.984 . S
H2217 N2210 0.984 . S
H2218 N2206 0.984 . S
H2219 N2206 0.985 . S
C2220 C2221 1.363 . S
C2220 C2226 1.379 1_455 S
C2220 N2228 1.356 . S
C2221 C2220 1.363 . S
C2221 C2227 1.363 . S
C2222 C2223 1.363 . S
C2222 C2227 1.379 1_655 S
C2222 N2229 1.356 . S
C2223 C2222 1.363 . S
C2223 C2226 1.363 . S
N2224 C2226 1.356 . S
N2224 H2236 0.984 . S
N2224 H2237 0.985 . S
N2225 C2227 1.356 . S
N2225 H2230 0.984 . S
N2225 H2231 0.985 . S
C2226 C2220 1.379 1_655 S
C2226 C2223 1.363 . S
C2226 N2224 1.356 . S
C2227 C2221 1.363 . S
C2227 C2222 1.379 1_455 S
C2227 N2225 1.356 . S
N2228 C2220 1.356 . S
N2228 H2234 0.984 . S
N2228 H2235 0.984 . S
N2229 C2222 1.356 . S
N2229 H2232 0.984 . S
N2229 H2233 0.985 . S
H2230 N2225 0.984 . S
H2231 N2225 0.985 . S
H2232 N2229 0.984 . S
H2233 N2229 0.985 . S
H2234 N2228 0.984 . S
H2235 N2228 0.984 . S
H2236 N2224 0.984 . S
H2237 N2224 0.985 . S
C2238 C2239 1.363 . S
C2238 C2244 1.379 1_545 S
C2238 N2246 1.356 . S
C2239 C2238 1.363 . S
C2239 C2245 1.363 . S
C2240 C2241 1.363 . S
C2240 C2245 1.379 1_565 S
C2240 N2247 1.356 . S
C2241 C2240 1.363 . S
C2241 C2244 1.363 . S
N2242 C2244 1.356 . S
N2242 H2254 0.984 . S
N2242 H2255 0.985 . S
N2243 C2245 1.356 . S
N2243 H2248 0.984 . S
N2243 H2249 0.985 . S
C2244 C2238 1.379 1_565 S
C2244 C2241 1.363 . S
C2244 N2242 1.356 . S
C2245 C2239 1.363 . S
C2245 C2240 1.379 1_545 S
C2245 N2243 1.356 . S
N2246 C2238 1.356 . S
N2246 H2252 0.984 . S
N2246 H2253 0.984 . S
N2247 C2240 1.356 . S
N2247 H2250 0.984 . S
N2247 H2251 0.985 . S
H2248 N2243 0.984 . S
H2249 N2243 0.985 . S
H2250 N2247 0.984 . S
H2251 N2247 0.985 . S
H2252 N2246 0.984 . S
H2253 N2246 0.984 . S
H2254 N2242 0.984 . S
H2255 N2242 0.985 . S
C2256 C2257 1.363 . S
C2256 C2262 1.379 1_545 S
C2256 N2264 1.356 . S
C2257 C2256 1.363 . S
C2257 C2263 1.363 . S
C2258 C2259 1.363 . S
C2258 C2263 1.379 1_565 S
C2258 N2265 1.356 . S
C2259 C2258 1.363 . S
C2259 C2262 1.363 . S
N2260 C2262 1.356 . S
N2260 H2272 0.984 . S
N2260 H2273 0.985 . S
N2261 C2263 1.356 . S
N2261 H2266 0.984 . S
N2261 H2267 0.985 . S
C2262 C2256 1.379 1_565 S
C2262 C2259 1.363 . S
C2262 N2260 1.356 . S
C2263 C2257 1.363 . S
C2263 C2258 1.379 1_545 S
C2263 N2261 1.356 . S
N2264 C2256 1.356 . S
N2264 H2270 0.984 . S
N2264 H2271 0.984 . S
N2265 C2258 1.356 . S
N2265 H2268 0.984 . S
N2265 H2269 0.985 . S
H2266 N2261 0.984 . S
H2267 N2261 0.985 . S
H2268 N2265 0.984 . S
H2269 N2265 0.985 . S
H2270 N2264 0.984 . S
H2271 N2264 0.984 . S
H2272 N2260 0.984 . S
H2273 N2260 0.985 . S
C2274 C2275 1.363 . S
C2274 C2280 1.379 1_545 S
C2274 N2282 1.356 . S
C2275 C2274 1.363 . S
C2275 C2281 1.363 . S
C2276 C2277 1.363 . S
C2276 C2281 1.379 1_565 S
C2276 N2283 1.356 . S
C2277 C2276 1.363 . S
C2277 C2280 1.363 . S
N2278 C2280 1.356 . S
N2278 H2290 0.984 . S
N2278 H2291 0.985 . S
N2279 C2281 1.356 . S
N2279 H2284 0.984 . S
N2279 H2285 0.985 . S
C2280 C2274 1.379 1_565 S
C2280 C2277 1.363 . S
C2280 N2278 1.356 . S
C2281 C2275 1.363 . S
C2281 C2276 1.379 1_545 S
C2281 N2279 1.356 . S
N2282 C2274 1.356 . S
N2282 H2288 0.984 . S
N2282 H2289 0.984 . S
N2283 C2276 1.356 . S
N2283 H2286 0.984 . S
N2283 H2287 0.985 . S
H2284 N2279 0.984 . S
H2285 N2279 0.985 . S
H2286 N2283 0.984 . S
H2287 N2283 0.985 . S
H2288 N2282 0.984 . S
H2289 N2282 0.984 . S
H2290 N2278 0.984 . S
H2291 N2278 0.985 . S
C2292 C2293 1.363 . S
C2292 C2298 1.379 1_655 S
C2292 N2300 1.356 . S
C2293 C2292 1.363 . S
C2293 C2299 1.363 . S
C2294 C2295 1.363 . S
C2294 C2299 1.379 1_455 S
C2294 N2301 1.356 . S
C2295 C2294 1.363 . S
C2295 C2298 1.363 . S
N2296 C2298 1.356 . S
N2296 H2308 0.984 . S
N2296 H2309 0.985 . S
N2297 C2299 1.356 . S
N2297 H2302 0.984 . S
N2297 H2303 0.985 . S
C2298 C2292 1.379 1_455 S
C2298 C2295 1.363 . S
C2298 N2296 1.356 . S
C2299 C2293 1.363 . S
C2299 C2294 1.379 1_655 S
C2299 N2297 1.356 . S
N2300 C2292 1.356 . S
N2300 H2306 0.984 . S
N2300 H2307 0.984 . S
N2301 C2294 1.356 . S
N2301 H2304 0.984 . S
N2301 H2305 0.985 . S
H2302 N2297 0.984 . S
H2303 N2297 0.985 . S
H2304 N2301 0.984 . S
H2305 N2301 0.985 . S
H2306 N2300 0.984 . S
H2307 N2300 0.984 . S
H2308 N2296 0.984 . S
H2309 N2296 0.985 . S
C2310 C2311 1.363 . S
C2310 C2316 1.379 1_545 S
C2310 N2318 1.356 . S
C2311 C2310 1.363 . S
C2311 C2317 1.363 . S
C2312 C2313 1.363 . S
C2312 C2317 1.379 1_565 S
C2312 N2319 1.356 . S
C2313 C2312 1.363 . S
C2313 C2316 1.363 . S
N2314 C2316 1.356 . S
N2314 H2326 0.984 . S
N2314 H2327 0.985 . S
N2315 C2317 1.356 . S
N2315 H2320 0.984 . S
N2315 H2321 0.985 . S
C2316 C2310 1.379 1_565 S
C2316 C2313 1.363 . S
C2316 N2314 1.356 . S
C2317 C2311 1.363 . S
C2317 C2312 1.379 1_545 S
C2317 N2315 1.356 . S
N2318 C2310 1.356 . S
N2318 H2324 0.984 . S
N2318 H2325 0.984 . S
N2319 C2312 1.356 . S
N2319 H2322 0.984 . S
N2319 H2323 0.985 . S
H2320 N2315 0.984 . S
H2321 N2315 0.985 . S
H2322 N2319 0.984 . S
H2323 N2319 0.985 . S
H2324 N2318 0.984 . S
H2325 N2318 0.984 . S
H2326 N2314 0.984 . S
H2327 N2314 0.985 . S
C2328 C2329 1.363 . S
C2328 C2334 1.379 1_455 S
C2328 N2336 1.356 . S
C2329 C2328 1.363 . S
C2329 C2335 1.363 . S
C2330 C2331 1.363 . S
C2330 C2335 1.379 1_655 S
C2330 N2337 1.356 . S
C2331 C2330 1.363 . S
C2331 C2334 1.363 . S
N2332 C2334 1.356 . S
N2332 H2344 0.984 . S
N2332 H2345 0.985 . S
N2333 C2335 1.356 . S
N2333 H2338 0.984 . S
N2333 H2339 0.985 . S
C2334 C2328 1.379 1_655 S
C2334 C2331 1.363 . S
C2334 N2332 1.356 . S
C2335 C2329 1.363 . S
C2335 C2330 1.379 1_455 S
C2335 N2333 1.356 . S
N2336 C2328 1.356 . S
N2336 H2342 0.984 . S
N2336 H2343 0.984 . S
N2337 C2330 1.356 . S
N2337 H2340 0.984 . S
N2337 H2341 0.985 . S
H2338 N2333 0.984 . S
H2339 N2333 0.985 . S
H2340 N2337 0.984 . S
H2341 N2337 0.985 . S
H2342 N2336 0.984 . S
H2343 N2336 0.984 . S
H2344 N2332 0.984 . S
H2345 N2332 0.985 . S
C2346 C2347 1.363 . S
C2346 C2352 1.379 1_545 S
C2346 N2354 1.356 . S
C2347 C2346 1.363 . S
C2347 C2353 1.363 . S
C2348 C2349 1.363 . S
C2348 C2353 1.379 1_565 S
C2348 N2355 1.356 . S
C2349 C2348 1.363 . S
C2349 C2352 1.363 . S
N2350 C2352 1.356 . S
N2350 H2362 0.984 . S
N2350 H2363 0.985 . S
N2351 C2353 1.356 . S
N2351 H2356 0.984 . S
N2351 H2357 0.985 . S
C2352 C2346 1.379 1_565 S
C2352 C2349 1.363 . S
C2352 N2350 1.356 . S
C2353 C2347 1.363 . S
C2353 C2348 1.379 1_545 S
C2353 N2351 1.356 . S
N2354 C2346 1.356 . S
N2354 H2360 0.984 . S
N2354 H2361 0.984 . S
N2355 C2348 1.356 . S
N2355 H2358 0.984 . S
N2355 H2359 0.985 . S
H2356 N2351 0.984 . S
H2357 N2351 0.985 . S
H2358 N2355 0.984 . S
H2359 N2355 0.985 . S
H2360 N2354 0.984 . S
H2361 N2354 0.984 . S
H2362 N2350 0.984 . S
H2363 N2350 0.985 . S
C2364 C2365 1.363 . S
C2364 C2370 1.379 1_655 S
C2364 N2372 1.356 . S
C2365 C2364 1.363 . S
C2365 C2371 1.363 . S
C2366 C2367 1.363 . S
C2366 C2371 1.379 1_455 S
C2366 N2373 1.356 . S
C2367 C2366 1.363 . S
C2367 C2370 1.363 . S
N2368 C2370 1.356 . S
N2368 H2380 0.984 . S
N2368 H2381 0.985 . S
N2369 C2371 1.356 . S
N2369 H2374 0.984 . S
N2369 H2375 0.985 . S
C2370 C2364 1.379 1_455 S
C2370 C2367 1.363 . S
C2370 N2368 1.356 . S
C2371 C2365 1.363 . S
C2371 C2366 1.379 1_655 S
C2371 N2369 1.356 . S
N2372 C2364 1.356 . S
N2372 H2378 0.984 . S
N2372 H2379 0.984 . S
N2373 C2366 1.356 . S
N2373 H2376 0.984 . S
N2373 H2377 0.985 . S
H2374 N2369 0.984 . S
H2375 N2369 0.985 . S
H2376 N2373 0.984 . S
H2377 N2373 0.985 . S
H2378 N2372 0.984 . S
H2379 N2372 0.984 . S
H2380 N2368 0.984 . S
H2381 N2368 0.985 . S
C2382 C2383 1.363 . S
C2382 C2388 1.379 1_455 S
C2382 N2390 1.356 . S
C2383 C2382 1.363 . S
C2383 C2389 1.363 . S
C2384 C2385 1.363 . S
C2384 C2389 1.379 1_655 S
C2384 N2391 1.356 . S
C2385 C2384 1.363 . S
C2385 C2388 1.363 . S
N2386 C2388 1.356 . S
N2386 H2398 0.984 . S
N2386 H2399 0.985 . S
N2387 C2389 1.356 . S
N2387 H2392 0.984 . S
N2387 H2393 0.985 . S
C2388 C2382 1.379 1_655 S
C2388 C2385 1.363 . S
C2388 N2386 1.356 . S
C2389 C2383 1.363 . S
C2389 C2384 1.379 1_455 S
C2389 N2387 1.356 . S
N2390 C2382 1.356 . S
N2390 H2396 0.984 . S
N2390 H2397 0.984 . S
N2391 C2384 1.356 . S
N2391 H2394 0.984 . S
N2391 H2395 0.985 . S
H2392 N2387 0.984 . S
H2393 N2387 0.985 . S
H2394 N2391 0.984 . S
H2395 N2391 0.985 . S
H2396 N2390 0.984 . S
H2397 N2390 0.984 . S
H2398 N2386 0.984 . S
H2399 N2386 0.985 . S
C673 C553 1.410 . S
C675 C7 1.410 . S
C691 C20 1.410 . S
C693 C511 1.410 . S
C709 C35 1.410 . S
C711 C525 1.410 . S
C727 C538 1.410 . S
C729 C48 1.410 . S
C745 C468 1.410 . S
C747 C62 1.410 . S
C763 C77 1.410 . S
C765 C483 1.410 . S
C781 C90 1.410 . S
C783 C497 1.410 . S
C799 C105 1.410 . S
C801 C454 1.410 . S
C817 C118 1.410 . S
C819 C441 1.410 . S
C835 C398 1.410 . S
C837 C132 1.410 . S
C853 C413 1.410 . S
C855 C147 1.410 . S
C871 C161 1.410 . S
C873 C426 1.410 . S
C889 C175 1.410 . S
C891 C356 1.410 . S
C907 C189 1.410 . S
C909 C371 1.410 . S
C925 C384 1.410 . S
C927 C202 1.410 . S
C943 C343 1.410 . S
C945 C217 1.410 . S
C961 C230 1.410 . S
C963 C622 1.410 . S
C979 C665 1.410 . S
C981 C245 1.410 . S
C997 C636 1.410 . S
C999 C258 1.410 . S
C1015 C651 1.410 . S
C1017 C273 1.410 . S
C1033 C566 1.410 . S
C1035 C286 1.410 . S
C1051 C594 1.410 . S
C1053 C300 1.410 . S
C1069 C315 1.410 . S
C1071 C609 1.410 . S
C1087 C581 1.410 . S
C1089 C329 1.410 . S
C1105 C455 1.410 . S
C1107 C287 1.410 . S
C1123 C244 1.410 . S
C1125 C469 1.410 . S
C1141 C482 1.410 . S
C1143 C259 1.410 . S
C1159 C496 1.410 . S
C1161 C272 1.410 . S
C1177 C328 1.410 . S
C1179 C510 1.410 . S
C1195 C524 1.410 . S
C1197 C301 1.410 . S
C1213 C314 1.410 . S
C1215 C539 1.410 . S
C1231 C231 1.410 . S
C1233 C552 1.410 . S
C1249 C567 1.410 . S
C1251 C216 1.410 . S
C1267 C174 1.410 . S
C1269 C664 1.410 . S
C1285 C637 1.410 . S
C1287 C188 1.410 . S
C1303 C203 1.410 . S
C1305 C650 1.410 . S
C1321 C133 1.410 . S
C1323 C580 1.410 . S
C1339 C146 1.410 . S
C1341 C595 1.410 . S
C1357 C160 1.410 . S
C1359 C608 1.410 . S
C1375 C623 1.410 . S
C1377 C119 1.410 . S
C1393 C342 1.410 . S
C1395 C104 1.410 . S
C1411 C399 1.410 . S
C1413 C21 1.410 . S
C1429 C412 1.410 . S
C1431 C34 1.410 . S
C1447 C427 1.410 . S
C1449 C49 1.410 . S
C1465 C440 1.410 . S
C1467 C6 1.410 . S
C1483 C76 1.410 . S
C1485 C370 1.410 . S
C1501 C385 1.410 . S
C1503 C91 1.410 . S
C1519 C357 1.410 . S
C1521 C63 1.410 . S
C1537 C8 1.510 . S
C1539 C372 1.510 . S
C1555 C387 1.510 . S
C1557 C23 1.510 . S
C1573 C36 1.510 . S
C1575 C344 1.510 . S
C1591 C51 1.510 . S
C1593 C359 1.510 . S
C1609 C65 1.510 . S
C1611 C429 1.510 . S
C1627 C442 1.510 . S
C1629 C78 1.510 . S
C1645 C93 1.510 . S
C1647 C401 1.510 . S
C1663 C414 1.510 . S
C1665 C106 1.510 . S
C1681 C121 1.510 . S
C1683 C512 1.510 . S
C1699 C526 1.510 . S
C1701 C135 1.510 . S
C1717 C148 1.510 . S
C1719 C541 1.510 . S
C1735 C162 1.510 . S
C1737 C554 1.510 . S
C1753 C176 1.510 . S
C1755 C457 1.510 . S
C1771 C190 1.510 . S
C1773 C471 1.510 . S
C1789 C484 1.510 . S
C1791 C205 1.510 . S
C1807 C218 1.510 . S
C1809 C498 1.510 . S
C1825 C610 1.510 . S
C1827 C233 1.510 . S
C1843 C246 1.510 . S
C1845 C639 1.510 . S
C1861 C261 1.510 . S
C1863 C652 1.510 . S
C1879 C569 1.510 . S
C1881 C274 1.510 . S
C1897 C666 1.510 . S
C1899 C289 1.510 . S
C1915 C303 1.510 . S
C1917 C582 1.510 . S
C1933 C597 1.510 . S
C1935 C316 1.510 . S
C1951 C330 1.510 . S
C1953 C625 1.510 . S
C1969 C596 1.510 . S
C1971 C288 1.510 . S
C1987 C247 1.510 . S
C1989 C611 1.510 . S
C2005 C624 1.510 . S
C2007 C260 1.510 . S
C2023 C583 1.510 . S
C2025 C275 1.510 . S
C2041 C653 1.510 . S
C2043 C331 1.510 . S
C2059 C302 1.510 . S
C2061 C568 1.510 . S
C2077 C667 1.510 . S
C2079 C317 1.510 . S
C2095 C232 1.510 . S
C2097 C638 1.510 . S
C2113 C470 1.510 . S
C2115 C219 1.510 . S
C2131 C177 1.510 . S
C2133 C485 1.510 . S
C2149 C191 1.510 . S
C2151 C499 1.510 . S
C2167 C456 1.510 . S
C2169 C204 1.510 . S
C2185 C134 1.510 . S
C2187 C555 1.510 . S
C2203 C513 1.510 . S
C2205 C149 1.510 . S
C2221 C163 1.510 . S
C2223 C527 1.510 . S
C2239 C120 1.510 . S
C2241 C540 1.510 . S
C2257 C386 1.510 . S
C2259 C107 1.510 . S
C2275 C22 1.510 . S
C2277 C415 1.510 . S
C2293 C37 1.510 . S
C2295 C428 1.510 . S
C2311 C443 1.510 . S
C2313 C50 1.510 . S
C2329 C9 1.510 . S
C2331 C400 1.510 . S
C2347 C79 1.510 . S
C2349 C358 1.510 . S
C2365 C92 1.510 . S
C2367 C373 1.510 . S
C2383 C64 1.510 . S
C2385 C345 1.510 . S
