# Generated by pormake.
# Topology whm, (6)-cn, num edge types: 1
# Building blocks:
#     Node 0, Type 0, BuildingBlock: IZENUY_clean_sbu_0, # of connection points: 6
#     Node 1, Type 0, BuildingBlock: IZENUY_clean_sbu_0, # of connection points: 6
#     Node 2, Type 0, BuildingBlock: IZENUY_clean_sbu_0, # of connection points: 6
#     Node 3, Type 0, BuildingBlock: IZENUY_clean_sbu_0, # of connection points: 6
#     Node 4, Type 0, BuildingBlock: IZENUY_clean_sbu_0, # of connection points: 6
#     Node 5, Type 0, BuildingBlock: IZENUY_clean_sbu_0, # of connection points: 6
#     Node 6, Type 0, BuildingBlock: IZENUY_clean_sbu_0, # of connection points: 6
#     Node 7, Type 0, BuildingBlock: IZENUY_clean_sbu_0, # of connection points: 6
#     Node 8, Type 0, BuildingBlock: IZENUY_clean_sbu_0, # of connection points: 6
#     Node 9, Type 0, BuildingBlock: IZENUY_clean_sbu_0, # of connection points: 6
#     Node 10, Type 0, BuildingBlock: IZENUY_clean_sbu_0, # of connection points: 6
#     Node 11, Type 0, BuildingBlock: IZENUY_clean_sbu_0, # of connection points: 6
#     Node 12, Type 0, BuildingBlock: IZENUY_clean_sbu_0, # of connection points: 6
#     Node 13, Type 0, BuildingBlock: IZENUY_clean_sbu_0, # of connection points: 6
#     Node 14, Type 0, BuildingBlock: IZENUY_clean_sbu_0, # of connection points: 6
#     Node 15, Type 0, BuildingBlock: IZENUY_clean_sbu_0, # of connection points: 6
#     Edge 16, Type (0, 0), BuildingBlock: KIFKEQ_clean_linker_1, # of connection points: 2
#     Edge 17, Type (0, 0), BuildingBlock: KIFKEQ_clean_linker_1, # of connection points: 2
#     Edge 18, Type (0, 0), BuildingBlock: KIFKEQ_clean_linker_1, # of connection points: 2
#     Edge 19, Type (0, 0), BuildingBlock: KIFKEQ_clean_linker_1, # of connection points: 2
#     Edge 20, Type (0, 0), BuildingBlock: KIFKEQ_clean_linker_1, # of connection points: 2
#     Edge 21, Type (0, 0), BuildingBlock: KIFKEQ_clean_linker_1, # of connection points: 2
#     Edge 22, Type (0, 0), BuildingBlock: KIFKEQ_clean_linker_1, # of connection points: 2
#     Edge 23, Type (0, 0), BuildingBlock: KIFKEQ_clean_linker_1, # of connection points: 2
#     Edge 24, Type (0, 0), BuildingBlock: KIFKEQ_clean_linker_1, # of connection points: 2
#     Edge 25, Type (0, 0), BuildingBlock: KIFKEQ_clean_linker_1, # of connection points: 2
#     Edge 26, Type (0, 0), BuildingBlock: KIFKEQ_clean_linker_1, # of connection points: 2
#     Edge 27, Type (0, 0), BuildingBlock: KIFKEQ_clean_linker_1, # of connection points: 2
#     Edge 28, Type (0, 0), BuildingBlock: KIFKEQ_clean_linker_1, # of connection points: 2
#     Edge 29, Type (0, 0), BuildingBlock: KIFKEQ_clean_linker_1, # of connection points: 2
#     Edge 30, Type (0, 0), BuildingBlock: KIFKEQ_clean_linker_1, # of connection points: 2
#     Edge 31, Type (0, 0), BuildingBlock: KIFKEQ_clean_linker_1, # of connection points: 2
#     Edge 32, Type (0, 0), BuildingBlock: KIFKEQ_clean_linker_1, # of connection points: 2
#     Edge 33, Type (0, 0), BuildingBlock: KIFKEQ_clean_linker_1, # of connection points: 2
#     Edge 34, Type (0, 0), BuildingBlock: KIFKEQ_clean_linker_1, # of connection points: 2
#     Edge 35, Type (0, 0), BuildingBlock: KIFKEQ_clean_linker_1, # of connection points: 2
#     Edge 36, Type (0, 0), BuildingBlock: KIFKEQ_clean_linker_1, # of connection points: 2
#     Edge 37, Type (0, 0), BuildingBlock: KIFKEQ_clean_linker_1, # of connection points: 2
#     Edge 38, Type (0, 0), BuildingBlock: KIFKEQ_clean_linker_1, # of connection points: 2
#     Edge 39, Type (0, 0), BuildingBlock: KIFKEQ_clean_linker_1, # of connection points: 2
#     Edge 40, Type (0, 0), BuildingBlock: KIFKEQ_clean_linker_1, # of connection points: 2
#     Edge 41, Type (0, 0), BuildingBlock: KIFKEQ_clean_linker_1, # of connection points: 2
#     Edge 42, Type (0, 0), BuildingBlock: KIFKEQ_clean_linker_1, # of connection points: 2
#     Edge 43, Type (0, 0), BuildingBlock: KIFKEQ_clean_linker_1, # of connection points: 2
#     Edge 44, Type (0, 0), BuildingBlock: KIFKEQ_clean_linker_1, # of connection points: 2
#     Edge 45, Type (0, 0), BuildingBlock: KIFKEQ_clean_linker_1, # of connection points: 2
#     Edge 46, Type (0, 0), BuildingBlock: KIFKEQ_clean_linker_1, # of connection points: 2
#     Edge 47, Type (0, 0), BuildingBlock: KIFKEQ_clean_linker_1, # of connection points: 2
#     Edge 48, Type (0, 0), BuildingBlock: KIFKEQ_clean_linker_1, # of connection points: 2
#     Edge 49, Type (0, 0), BuildingBlock: KIFKEQ_clean_linker_1, # of connection points: 2
#     Edge 50, Type (0, 0), BuildingBlock: KIFKEQ_clean_linker_1, # of connection points: 2
#     Edge 51, Type (0, 0), BuildingBlock: KIFKEQ_clean_linker_1, # of connection points: 2
#     Edge 52, Type (0, 0), BuildingBlock: KIFKEQ_clean_linker_1, # of connection points: 2
#     Edge 53, Type (0, 0), BuildingBlock: KIFKEQ_clean_linker_1, # of connection points: 2
#     Edge 54, Type (0, 0), BuildingBlock: KIFKEQ_clean_linker_1, # of connection points: 2
#     Edge 55, Type (0, 0), BuildingBlock: KIFKEQ_clean_linker_1, # of connection points: 2
#     Edge 56, Type (0, 0), BuildingBlock: KIFKEQ_clean_linker_1, # of connection points: 2
#     Edge 57, Type (0, 0), BuildingBlock: KIFKEQ_clean_linker_1, # of connection points: 2
#     Edge 58, Type (0, 0), BuildingBlock: KIFKEQ_clean_linker_1, # of connection points: 2
#     Edge 59, Type (0, 0), BuildingBlock: KIFKEQ_clean_linker_1, # of connection points: 2
#     Edge 60, Type (0, 0), BuildingBlock: KIFKEQ_clean_linker_1, # of connection points: 2
#     Edge 61, Type (0, 0), BuildingBlock: KIFKEQ_clean_linker_1, # of connection points: 2
#     Edge 62, Type (0, 0), BuildingBlock: KIFKEQ_clean_linker_1, # of connection points: 2
#     Edge 63, Type (0, 0), BuildingBlock: KIFKEQ_clean_linker_1, # of connection points: 2
# Relax obj value: 0.316
# Max RMSD: 0.231
# Mean RMSD: 0.231
data_MOF--net-whm--node1-IZENUY_clean_sbu_0--edge1-KIFKEQ_clean_linker_1
_symmetry_space_group_name_H-M    P1
_symmetry_Int_Tables_number       1
_symmetry_cell_setting            triclinic
loop_
_symmetry_equiv_pos_as_xyz
'x, y, z'
_cell_length_a     51.389463
_cell_length_b     51.459531
_cell_length_c     28.679399
_cell_angle_alpha  90.042825
_cell_angle_beta   90.065035
_cell_angle_gamma 89.991731
loop_
_atom_site_label
_atom_site_type_symbol
_atom_site_fract_x
_atom_site_fract_y
_atom_site_fract_z
_atom_type_partial_charge
Fe0 Fe 0.54137 0.1722 0.21386 0.0
Fe1 Fe 0.56938 0.12082 0.19161 0.0
O2 O 0.56644 0.15494 0.18483 0.0
Fe3 Fe 0.58869 0.17196 0.14903 0.0
O4 O 0.59973 0.19169 0.1974 0.0
O5 O 0.56056 0.20221 0.22146 0.0
O6 O 0.55351 0.16192 0.27055 0.0
C7 C 0.55672 0.13846 0.28241 0.0
C8 C 0.54068 0.19625 0.12893 0.0
O9 O 0.5581 0.12059 0.25217 0.0
C10 C 0.58048 0.12891 0.0957 0.0
O11 O 0.51786 0.14521 0.21269 0.0
O12 O 0.53665 0.11526 0.16991 0.0
O13 O 0.56525 0.19673 0.13053 0.0
O14 O 0.52767 0.18355 0.15857 0.0
C15 C 0.62073 0.13499 0.19414 0.0
O16 O 0.58145 0.115 0.1321 0.0
O17 O 0.57905 0.15332 0.09843 0.0
C18 C 0.51667 0.12407 0.19007 0.0
O19 O 0.60215 0.12379 0.21456 0.0
O20 O 0.61644 0.15049 0.1608 0.0
C21 C 0.58497 0.206 0.22129 0.0
Fe22 Fe 0.34015 0.54482 0.71151 0.0
Fe23 Fe 0.39181 0.57049 0.68381 0.0
O24 O 0.35744 0.56839 0.67854 0.0
Fe25 Fe 0.34018 0.58988 0.64126 0.0
O26 O 0.32006 0.60187 0.68848 0.0
O27 O 0.31002 0.56365 0.7166 0.0
O28 O 0.35093 0.55968 0.76618 0.0
C29 C 0.37463 0.56346 0.77645 0.0
C30 C 0.31604 0.54092 0.62661 0.0
O31 O 0.39214 0.5618 0.74559 0.0
C32 C 0.38312 0.58087 0.58723 0.0
O33 O 0.36686 0.52131 0.71377 0.0
O34 O 0.39637 0.5367 0.66629 0.0
O35 O 0.31593 0.56551 0.62442 0.0
O36 O 0.32841 0.52897 0.65831 0.0
C37 C 0.37835 0.62239 0.68266 0.0
O38 O 0.39748 0.58021 0.62309 0.0
O39 O 0.3587 0.58003 0.59068 0.0
C40 C 0.3875 0.51818 0.69045 0.0
O41 O 0.39017 0.60406 0.7027 0.0
O42 O 0.36141 0.61793 0.65163 0.0
C43 C 0.30562 0.58771 0.71308 0.0
Fe44 Fe 0.94378 0.39066 0.19211 0.0
Fe45 Fe 0.92389 0.33908 0.15014 0.0
O46 O 0.94632 0.35644 0.18548 0.0
Fe47 Fe 0.97139 0.33919 0.21487 0.0
O48 O 0.95837 0.34889 0.27137 0.0
O49 O 0.95394 0.3904 0.25346 0.0
O50 O 0.91062 0.38847 0.21331 0.0
C51 C 0.8919 0.37714 0.19347 0.0
C52 C 0.99636 0.38743 0.19433 0.0
O53 O 0.89585 0.35999 0.16271 0.0
C54 C 0.97268 0.31603 0.12926 0.0
O55 O 0.93273 0.39662 0.13204 0.0
O56 O 0.93204 0.3579 0.09914 0.0
O57 O 0.99452 0.36627 0.21636 0.0
O58 O 0.977 0.39608 0.17216 0.0
C59 C 0.92911 0.30385 0.22011 0.0
O60 O 0.94805 0.31518 0.13054 0.0
O61 O 0.98555 0.32862 0.15949 0.0
C62 C 0.93134 0.38232 0.09612 0.0
O63 O 0.91371 0.31869 0.19861 0.0
O64 O 0.95324 0.30863 0.22035 0.0
C65 C 0.95476 0.37233 0.28347 0.0
Fe66 Fe 0.11905 0.9376 0.68745 0.0
Fe67 Fe 0.17017 0.924 0.63936 0.0
O68 O 0.15273 0.94371 0.67927 0.0
Fe69 Fe 0.16885 0.96895 0.71076 0.0
O70 O 0.14989 0.96387 0.76469 0.0
O71 O 0.12405 0.93075 0.7483 0.0
O72 O 0.12124 0.90259 0.67691 0.0
C73 C 0.1402 0.88713 0.68134 0.0
C74 C 0.12174 0.99273 0.69569 0.0
O75 O 0.16304 0.89462 0.67239 0.0
C76 C 0.1898 0.97204 0.61848 0.0
O77 O 0.1116 0.94413 0.62667 0.0
O78 O 0.14263 0.91882 0.60009 0.0
O79 O 0.14615 0.99396 0.69077 0.0
O80 O 0.11048 0.97111 0.70043 0.0
C81 C 0.20711 0.93152 0.7115 0.0
O82 O 0.17819 0.95195 0.60428 0.0
O83 O 0.19061 0.97783 0.66162 0.0
C84 C 0.1222 0.93199 0.59361 0.0
O85 O 0.20125 0.9255 0.67017 0.0
O86 O 0.19294 0.94672 0.7348 0.0
C87 C 0.13458 0.94581 0.77744 0.0
Fe88 Fe 0.59169 0.34082 0.84925 0.0
Fe89 Fe 0.54526 0.33898 0.78267 0.0
O90 O 0.569 0.35726 0.81331 0.0
Fe91 Fe 0.57002 0.39162 0.80797 0.0
O92 O 0.60348 0.39114 0.78756 0.0
O93 O 0.61848 0.36365 0.83956 0.0
O94 O 0.60422 0.3222 0.80057 0.0
C95 C 0.59031 0.3074 0.77602 0.0
C96 C 0.58045 0.3827 0.90404 0.0
O97 O 0.56577 0.30993 0.77579 0.0
C98 C 0.51766 0.38574 0.80438 0.0
O99 O 0.56913 0.3148 0.86587 0.0
O100 O 0.53127 0.32681 0.83712 0.0
O101 O 0.58035 0.3973 0.86848 0.0
O102 O 0.58074 0.3583 0.90007 0.0
C103 C 0.56007 0.37382 0.71603 0.0
O104 O 0.52056 0.36471 0.78213 0.0
O105 O 0.53644 0.39516 0.82721 0.0
C106 C 0.54452 0.31424 0.86671 0.0
O107 O 0.5579 0.35014 0.72712 0.0
O108 O 0.5602 0.39163 0.74656 0.0
C109 C 0.62232 0.38039 0.8081 0.0
Fe110 Fe 0.17514 0.54685 0.28052 0.0
Fe111 Fe 0.12331 0.57293 0.30594 0.0
O112 O 0.15766 0.571 0.31179 0.0
Fe113 Fe 0.17467 0.59306 0.34828 0.0
O114 O 0.195 0.60439 0.30082 0.0
O115 O 0.20528 0.56568 0.27492 0.0
O116 O 0.16466 0.56075 0.22503 0.0
C117 C 0.14099 0.5642 0.21423 0.0
C118 C 0.19893 0.54441 0.36577 0.0
O119 O 0.12332 0.56301 0.24483 0.0
C120 C 0.13146 0.58471 0.40178 0.0
O121 O 0.1484 0.52326 0.27902 0.0
O122 O 0.11886 0.53951 0.32551 0.0
O123 O 0.19899 0.56904 0.3666 0.0
O124 O 0.18655 0.53194 0.33473 0.0
C125 C 0.13612 0.6248 0.30524 0.0
O126 O 0.11733 0.58388 0.36572 0.0
O127 O 0.1559 0.5837 0.39892 0.0
C128 C 0.12768 0.52059 0.30228 0.0
O129 O 0.12478 0.60613 0.28531 0.0
O130 O 0.15328 0.62091 0.3362 0.0
C131 C 0.20963 0.58982 0.27724 0.0
Fe132 Fe 0.94127 0.11857 0.81272 0.0
Fe133 Fe 0.92041 0.16951 0.85445 0.0
O134 O 0.94286 0.15284 0.81842 0.0
Fe135 Fe 0.96685 0.17058 0.78737 0.0
O136 O 0.95341 0.15959 0.73183 0.0
O137 O 0.95174 0.1184 0.75186 0.0
O138 O 0.90812 0.11975 0.79114 0.0
C139 C 0.88932 0.1308 0.81121 0.0
C140 C 0.99383 0.12405 0.8119 0.0
O141 O 0.89312 0.14741 0.84306 0.0
C142 C 0.96834 0.19523 0.87178 0.0
O143 O 0.92998 0.11275 0.87235 0.0
O144 O 0.93042 0.1513 0.90541 0.0
O145 O 0.99115 0.14436 0.78743 0.0
O146 O 0.97453 0.11469 0.83337 0.0
C147 C 0.92272 0.20347 0.78182 0.0
O148 O 0.94369 0.19468 0.8721 0.0
O149 O 0.98125 0.18274 0.84156 0.0
C150 C 0.92947 0.12688 0.90843 0.0
O151 O 0.90853 0.18892 0.80623 0.0
O152 O 0.9471 0.20007 0.78066 0.0
C153 C 0.94981 0.13598 0.72127 0.0
Fe154 Fe 0.3933 0.93922 0.30816 0.0
Fe155 Fe 0.343 0.91888 0.35277 0.0
O156 O 0.35918 0.9413 0.31608 0.0
Fe157 Fe 0.34098 0.96544 0.28648 0.0
O158 O 0.35078 0.95228 0.23031 0.0
O159 O 0.39252 0.94965 0.24697 0.0
O160 O 0.39087 0.90622 0.28635 0.0
C161 C 0.38032 0.8876 0.3076 0.0
C162 C 0.3887 0.99168 0.30754 0.0
O163 O 0.36512 0.89165 0.3414 0.0
C164 C 0.31734 0.96658 0.37147 0.0
O165 O 0.40002 0.9281 0.36813 0.0
O166 O 0.36179 0.9291 0.40266 0.0
O167 O 0.36746 0.98953 0.28533 0.0
O168 O 0.39823 0.97228 0.32838 0.0
C169 C 0.30816 0.92128 0.28146 0.0
O170 O 0.31791 0.94199 0.37103 0.0
O171 O 0.32978 0.97966 0.34147 0.0
C172 C 0.38627 0.92806 0.40488 0.0
O173 O 0.32306 0.90698 0.30511 0.0
O174 O 0.31134 0.9457 0.28101 0.0
C175 C 0.37408 0.94892 0.21768 0.0
Fe176 Fe 0.44028 0.89126 0.808 0.0
Fe177 Fe 0.4697 0.84062 0.78626 0.0
O178 O 0.44347 0.85706 0.81386 0.0
Fe179 Fe 0.42058 0.83886 0.84652 0.0
O180 O 0.39241 0.85922 0.83212 0.0
O181 O 0.40763 0.88885 0.78424 0.0
O182 O 0.45193 0.8917 0.74744 0.0
C183 C 0.45328 0.87364 0.7174 0.0
C184 C 0.42606 0.88172 0.90268 0.0
O185 O 0.45764 0.85036 0.72927 0.0
C186 C 0.46936 0.81628 0.87054 0.0
O187 O 0.47272 0.89704 0.83097 0.0
O188 O 0.4924 0.86821 0.78758 0.0
O189 O 0.42703 0.85732 0.89888 0.0
O190 O 0.42779 0.89637 0.86731 0.0
C191 C 0.42835 0.8047 0.77563 0.0
O192 O 0.4827 0.82983 0.84245 0.0
O193 O 0.44476 0.81523 0.86722 0.0
C194 C 0.49304 0.889 0.81103 0.0
O195 O 0.45239 0.80975 0.77822 0.0
O196 O 0.41213 0.81892 0.79644 0.0
C197 C 0.38877 0.87673 0.80191 0.0
Fe198 Fe 0.62108 0.43477 0.31623 0.0
Fe199 Fe 0.67056 0.46408 0.2842 0.0
O200 O 0.65497 0.44049 0.31999 0.0
Fe201 Fe 0.6733 0.42187 0.36017 0.0
O202 O 0.66536 0.39173 0.32959 0.0
O203 O 0.62345 0.40001 0.32923 0.0
O204 O 0.6237 0.42605 0.25591 0.0
C205 C 0.63378 0.43941 0.2239 0.0
C206 C 0.62686 0.43074 0.40959 0.0
O207 O 0.65012 0.45733 0.23254 0.0
C208 C 0.69349 0.4702 0.37475 0.0
O209 O 0.61247 0.46797 0.30117 0.0
O210 O 0.64887 0.49032 0.30274 0.0
O211 O 0.64682 0.41725 0.40135 0.0
O212 O 0.61596 0.44315 0.37715 0.0
C213 C 0.70895 0.42707 0.28576 0.0
O214 O 0.69354 0.47424 0.33087 0.0
O215 O 0.68189 0.45088 0.39217 0.0
C216 C 0.6243 0.48944 0.30123 0.0
O217 O 0.69373 0.44043 0.26097 0.0
O218 O 0.70375 0.42293 0.32797 0.0
C219 C 0.64214 0.38435 0.32303 0.0
Fe220 Fe 0.09061 0.67189 0.85037 0.0
Fe221 Fe 0.07217 0.62128 0.80489 0.0
O222 O 0.06899 0.65527 0.8127 0.0
Fe223 Fe 0.04449 0.67257 0.78198 0.0
O224 O 0.06333 0.70274 0.77673 0.0
O225 O 0.10203 0.69278 0.80385 0.0
O226 O 0.11872 0.65093 0.83818 0.0
C227 C 0.12332 0.63602 0.80407 0.0
C228 C 0.04181 0.69527 0.86854 0.0
O229 O 0.10504 0.62487 0.7826 0.0
C230 C 0.01949 0.62446 0.80479 0.0
O231 O 0.08082 0.65231 0.89963 0.0
O232 O 0.0842 0.61474 0.864 0.0
O233 O 0.02946 0.68377 0.83628 0.0
O234 O 0.06642 0.69563 0.86938 0.0
C235 C 0.06257 0.63934 0.71455 0.0
O236 O 0.03928 0.61559 0.82574 0.0
O237 O 0.02116 0.6453 0.78126 0.0
C238 C 0.08318 0.62798 0.90109 0.0
O239 O 0.06112 0.6215 0.74457 0.0
O240 O 0.05841 0.66272 0.72596 0.0
C241 C 0.08757 0.70703 0.77926 0.0
Fe242 Fe 0.83835 0.08906 0.35165 0.0
Fe243 Fe 0.89044 0.06989 0.31177 0.0
O244 O 0.85623 0.06676 0.31728 0.0
Fe245 Fe 0.83973 0.04141 0.28737 0.0
O246 O 0.80908 0.0592 0.27991 0.0
O247 O 0.81821 0.09878 0.30254 0.0
O248 O 0.85901 0.11723 0.3387 0.0
C249 C 0.87559 0.12121 0.3069 0.0
C250 C 0.81501 0.04021 0.37156 0.0
O251 O 0.88766 0.10254 0.28835 0.0
C252 C 0.8877 0.01721 0.31301 0.0
O253 O 0.85695 0.08115 0.40341 0.0
O254 O 0.89566 0.0824 0.37089 0.0
O255 O 0.82821 0.02732 0.34223 0.0
O256 O 0.81456 0.06482 0.37063 0.0
C257 C 0.87365 0.05901 0.22075 0.0
O258 O 0.89601 0.03719 0.33399 0.0
O259 O 0.86721 0.01858 0.28856 0.0
C260 C 0.88135 0.08288 0.40673 0.0
O261 O 0.89118 0.0584 0.25166 0.0
O262 O 0.85012 0.05457 0.23118 0.0
C263 C 0.80391 0.08322 0.28028 0.0
Fe264 Fe 0.44368 0.62038 0.18804 0.0
Fe265 Fe 0.47226 0.67132 0.21013 0.0
O266 O 0.44759 0.65428 0.17954 0.0
Fe267 Fe 0.42652 0.67114 0.14117 0.0
O268 O 0.39792 0.65071 0.153 0.0
O269 O 0.41074 0.62484 0.20947 0.0
O270 O 0.45428 0.62072 0.24902 0.0
C271 C 0.45385 0.639 0.27842 0.0
C272 C 0.43343 0.62682 0.09115 0.0
O273 O 0.45796 0.66219 0.266 0.0
C274 C 0.47578 0.69406 0.12413 0.0
O275 O 0.47662 0.61376 0.16811 0.0
O276 O 0.49507 0.64372 0.21167 0.0
O277 O 0.43632 0.65111 0.09245 0.0
O278 O 0.43197 0.61374 0.12846 0.0
C279 C 0.42995 0.70674 0.21125 0.0
O280 O 0.48774 0.68182 0.15588 0.0
O281 O 0.45119 0.69456 0.12254 0.0
C282 C 0.49652 0.62271 0.1886 0.0
O283 O 0.45402 0.70187 0.21465 0.0
O284 O 0.41524 0.69251 0.18706 0.0
C285 C 0.3928 0.63616 0.18736 0.0
Fe286 Fe 0.89316 0.43414 0.69011 0.0
Fe287 Fe 0.84398 0.46649 0.71353 0.0
O288 O 0.85943 0.44057 0.68305 0.0
Fe289 Fe 0.84121 0.42051 0.64482 0.0
O290 O 0.84785 0.39184 0.68004 0.0
O291 O 0.88998 0.39892 0.68226 0.0
O292 O 0.88916 0.42856 0.75162 0.0
C293 C 0.87825 0.44354 0.7804 0.0
C294 C 0.88926 0.42507 0.59727 0.0
O295 O 0.86297 0.4616 0.76756 0.0
C296 C 0.8228 0.46857 0.62123 0.0
O297 O 0.9025 0.46776 0.70152 0.0
O298 O 0.86694 0.49072 0.69188 0.0
O299 O 0.86829 0.41328 0.60598 0.0
O300 O 0.89973 0.43919 0.62811 0.0
C301 C 0.8048 0.43027 0.71655 0.0
O302 O 0.82228 0.47497 0.66412 0.0
O303 O 0.83381 0.44796 0.6078 0.0
C304 C 0.89127 0.48943 0.69733 0.0
O305 O 0.81959 0.44521 0.73905 0.0
O306 O 0.81026 0.42361 0.67544 0.0
C307 C 0.87067 0.38403 0.68862 0.0
Fe308 Fe 0.04395 0.84388 0.20736 0.0
Fe309 Fe 0.09066 0.8419 0.13952 0.0
O310 O 0.0705 0.85935 0.17863 0.0
Fe311 Fe 0.07766 0.89244 0.18922 0.0
O312 O 0.08367 0.88565 0.24976 0.0
O313 O 0.04865 0.86177 0.26285 0.0
O314 O 0.06478 0.81873 0.23171 0.0
C315 C 0.08027 0.80451 0.20918 0.0
C316 C 0.02227 0.89193 0.19443 0.0
O317 O 0.08727 0.8105 0.16845 0.0
C318 C 0.086 0.89122 0.09637 0.0
O319 O 0.03546 0.8233 0.15623 0.0
O320 O 0.06332 0.83536 0.10169 0.0
O321 O 0.04427 0.90209 0.20148 0.0
O322 O 0.02027 0.86781 0.18688 0.0
C323 C 0.12751 0.86984 0.18568 0.0
O324 O 0.09795 0.87 0.10263 0.0
O325 O 0.07227 0.90096 0.12839 0.0
C326 C 0.04259 0.82403 0.11366 0.0
O327 O 0.11946 0.84739 0.1754 0.0
O328 O 0.11278 0.88929 0.18043 0.0
C329 C 0.06812 0.87469 0.27741 0.0
Fe330 Fe 0.62065 0.07907 0.68599 0.0
Fe331 Fe 0.66812 0.04516 0.7115 0.0
O332 O 0.65392 0.07103 0.67903 0.0
Fe333 Fe 0.67274 0.0896 0.63969 0.0
O334 O 0.66681 0.11954 0.67234 0.0
O335 O 0.62466 0.11363 0.67347 0.0
O336 O 0.6262 0.08706 0.74622 0.0
C337 C 0.63636 0.07241 0.77639 0.0
C338 C 0.62438 0.08451 0.59253 0.0
O339 O 0.64905 0.05215 0.76494 0.0
C340 C 0.68981 0.04035 0.62001 0.0
O341 O 0.61011 0.04638 0.70189 0.0
O342 O 0.64414 0.02156 0.69094 0.0
O343 O 0.64577 0.09601 0.5999 0.0
O344 O 0.61341 0.07193 0.62496 0.0
C345 C 0.70837 0.08037 0.71301 0.0
O346 O 0.68971 0.03464 0.6632 0.0
O347 O 0.67967 0.06108 0.60514 0.0
C348 C 0.62007 0.02407 0.69814 0.0
O349 O 0.69325 0.06597 0.73588 0.0
O350 O 0.70335 0.08656 0.67146 0.0
C351 C 0.64417 0.12814 0.6798 0.0
H352 H 0.56106 0.23842 0.28323 0.0
H353 H 0.63332 0.22749 0.20886 0.0
H354 H 0.57687 0.27983 0.3129 0.0
H355 H 0.64882 0.26941 0.23731 0.0
H356 H 0.67462 0.34145 0.32152 0.0
H357 H 0.6625 0.29649 0.30275 0.0
H358 H 0.58334 0.32126 0.27791 0.0
H359 H 0.59509 0.36535 0.29745 0.0
C360 C 0.58036 0.24481 0.27332 0.0
C361 C 0.59574 0.22981 0.24313 0.0
C362 C 0.58941 0.26863 0.29015 0.0
C363 C 0.61395 0.27821 0.27681 0.0
C364 C 0.62988 0.2626 0.24847 0.0
C365 C 0.62091 0.23862 0.23194 0.0
C366 C 0.65464 0.33715 0.31225 0.0
C367 C 0.63581 0.35697 0.31149 0.0
C368 C 0.6477 0.31145 0.30138 0.0
C369 C 0.62183 0.30516 0.28947 0.0
C370 C 0.60325 0.32515 0.28821 0.0
C371 C 0.61009 0.35059 0.29915 0.0
H372 H 0.27792 0.57061 0.78778 0.0
H373 H 0.27663 0.62734 0.67684 0.0
H374 H 0.23407 0.5839 0.81111 0.0
H375 H 0.23249 0.64011 0.69958 0.0
H376 H 0.14237 0.62063 0.71963 0.0
H377 H 0.1878 0.61142 0.69947 0.0
H378 H 0.21099 0.62832 0.84091 0.0
H379 H 0.16577 0.63814 0.86097 0.0
C380 C 0.26836 0.5861 0.76877 0.0
C381 C 0.28066 0.59798 0.7306 0.0
C382 C 0.24335 0.59368 0.78211 0.0
C383 C 0.22998 0.61286 0.75686 0.0
C384 C 0.24244 0.62516 0.71935 0.0
C385 C 0.26771 0.618 0.70665 0.0
C386 C 0.15719 0.6224 0.74635 0.0
C387 C 0.15058 0.63008 0.79184 0.0
C388 C 0.18312 0.61731 0.73475 0.0
C389 C 0.20275 0.61928 0.76869 0.0
C390 C 0.19614 0.6267 0.81423 0.0
C391 C 0.17032 0.63235 0.82558 0.0
H392 H 0.91551 0.13786 0.25117 0.0
H393 H 0.85077 0.16603 0.333 0.0
H394 H 0.9273 0.18249 0.23205 0.0
H395 H 0.86271 0.21071 0.31382 0.0
H396 H 0.87898 0.285 0.22358 0.0
H397 H 0.86516 0.24101 0.24467 0.0
H398 H 0.94481 0.22066 0.27569 0.0
H399 H 0.95865 0.26428 0.25478 0.0
C400 C 0.90376 0.15353 0.26505 0.0
C401 C 0.88229 0.14832 0.29392 0.0
C402 C 0.9106 0.17913 0.25426 0.0
C403 C 0.89603 0.20013 0.27171 0.0
C404 C 0.87423 0.19494 0.2997 0.0
C405 C 0.86751 0.16933 0.31087 0.0
C406 C 0.8935 0.27121 0.23534 0.0
C407 C 0.91995 0.2782 0.23722 0.0
C408 C 0.88557 0.24604 0.24747 0.0
C409 C 0.90396 0.2273 0.26129 0.0
C410 C 0.93025 0.23452 0.26438 0.0
C411 C 0.93813 0.25964 0.25271 0.0
H412 H 0.34448 0.84783 0.81106 0.0
H413 H 0.37189 0.92312 0.76621 0.0
H414 H 0.29978 0.86075 0.79287 0.0
H415 H 0.32708 0.93612 0.74891 0.0
H416 H 0.23934 0.9563 0.77357 0.0
H417 H 0.28332 0.94297 0.79717 0.0
H418 H 0.2758 0.87312 0.71493 0.0
H419 H 0.23226 0.8866 0.6906 0.0
C420 C 0.34097 0.86715 0.79746 0.0
C421 C 0.36175 0.88442 0.78993 0.0
C422 C 0.3154 0.87451 0.78704 0.0
C423 C 0.31 0.89948 0.76978 0.0
C424 C 0.3307 0.91685 0.76263 0.0
C425 C 0.35634 0.90931 0.77215 0.0
C426 C 0.247 0.93797 0.76104 0.0
C427 C 0.23241 0.9225 0.73021 0.0
C428 C 0.27219 0.93046 0.77423 0.0
C429 C 0.28294 0.90707 0.75771 0.0
C430 C 0.26795 0.89119 0.72831 0.0
C431 C 0.24308 0.89895 0.71433 0.0
H432 H 0.63845 0.28596 0.79243 0.0
H433 H 0.56863 0.27614 0.71016 0.0
H434 H 0.65429 0.24373 0.76526 0.0
H435 H 0.58471 0.2345 0.68227 0.0
H436 H 0.59849 0.14911 0.70733 0.0
H437 H 0.58863 0.19385 0.72505 0.0
H438 H 0.66849 0.21522 0.69813 0.0
H439 H 0.67872 0.16952 0.68056 0.0
C440 C 0.62675 0.27506 0.76781 0.0
C441 C 0.60202 0.28411 0.75419 0.0
C442 C 0.63589 0.25094 0.75211 0.0
C443 C 0.62052 0.23558 0.72238 0.0
C444 C 0.59672 0.24561 0.70612 0.0
C445 C 0.58752 0.2695 0.72201 0.0
C446 C 0.61407 0.16322 0.7048 0.0
C447 C 0.63936 0.15572 0.69183 0.0
C448 C 0.60832 0.189 0.71475 0.0
C449 C 0.62761 0.2082 0.71199 0.0
C450 C 0.65318 0.20081 0.70028 0.0
C451 C 0.65902 0.17472 0.69019 0.0
H452 H 0.37298 0.62237 0.27205 0.0
H453 H 0.35066 0.6379 0.12949 0.0
H454 H 0.32737 0.61374 0.29166 0.0
H455 H 0.30521 0.62861 0.14901 0.0
H456 H 0.23778 0.57161 0.20379 0.0
H457 H 0.28173 0.58462 0.18047 0.0
H458 H 0.28271 0.64248 0.28938 0.0
H459 H 0.23847 0.63001 0.31204 0.0
C460 C 0.35835 0.62384 0.24494 0.0
C461 C 0.36534 0.63077 0.19925 0.0
C462 C 0.33231 0.61909 0.25622 0.0
C463 C 0.3129 0.62061 0.2218 0.0
C464 C 0.31987 0.62733 0.17608 0.0
C465 C 0.34582 0.63268 0.16502 0.0
C466 C 0.24722 0.58741 0.22221 0.0
C467 C 0.23471 0.59985 0.25962 0.0
C468 C 0.2723 0.59483 0.20886 0.0
C469 C 0.28554 0.6144 0.23338 0.0
C470 C 0.27288 0.62724 0.27015 0.0
C471 C 0.24754 0.62024 0.28281 0.0
H472 H 0.91675 0.36317 0.71539 0.0
H473 H 0.83632 0.34277 0.69024 0.0
H474 H 0.92663 0.31832 0.73316 0.0
H475 H 0.84652 0.29719 0.70757 0.0
H476 H 0.87513 0.22585 0.79886 0.0
H477 H 0.86031 0.26869 0.77336 0.0
H478 H 0.93028 0.27747 0.69153 0.0
H479 H 0.94536 0.23515 0.71778 0.0
C480 C 0.90114 0.34906 0.71333 0.0
C481 C 0.87577 0.35656 0.7009 0.0
C482 C 0.90689 0.32324 0.72325 0.0
C483 C 0.88748 0.30409 0.72091 0.0
C484 C 0.86189 0.31154 0.70956 0.0
C485 C 0.85608 0.33759 0.69958 0.0
C486 C 0.88716 0.23679 0.77488 0.0
C487 C 0.91166 0.22733 0.76102 0.0
C488 C 0.87861 0.26128 0.76016 0.0
C489 C 0.89436 0.27666 0.73117 0.0
C490 C 0.918 0.26637 0.71486 0.0
C491 C 0.9266 0.24206 0.72975 0.0
H492 H 0.16897 0.83556 0.18472 0.0
H493 H 0.14811 0.91491 0.21745 0.0
H494 H 0.21462 0.8455 0.20327 0.0
H495 H 0.19295 0.92451 0.23618 0.0
H496 H 0.27581 0.9444 0.219 0.0
H497 H 0.23348 0.92927 0.19261 0.0
H498 H 0.2434 0.85833 0.27101 0.0
H499 H 0.28628 0.87327 0.29685 0.0
C500 C 0.17406 0.85501 0.19598 0.0
C501 C 0.15496 0.87453 0.19894 0.0
C502 C 0.20013 0.86067 0.20664 0.0
C503 C 0.20743 0.88592 0.22026 0.0
C504 C 0.18813 0.90507 0.22449 0.0
C505 C 0.16232 0.89947 0.21396 0.0
C506 C 0.26915 0.92543 0.23023 0.0
C507 C 0.28421 0.91025 0.26068 0.0
C508 C 0.24485 0.9168 0.21522 0.0
C509 C 0.23489 0.89284 0.23053 0.0
C510 C 0.25057 0.87687 0.25864 0.0
C511 C 0.27508 0.88549 0.27355 0.0
H512 H 0.41818 0.63962 0.73798 0.0
H513 H 0.35391 0.66689 0.65375 0.0
H514 H 0.42942 0.68438 0.757 0.0
H515 H 0.36534 0.71175 0.67281 0.0
H516 H 0.37874 0.78516 0.76757 0.0
H517 H 0.36618 0.74137 0.74301 0.0
H518 H 0.44669 0.72316 0.71519 0.0
H519 H 0.45931 0.7666 0.73969 0.0
C520 C 0.40648 0.65513 0.7234 0.0
C521 C 0.38522 0.64963 0.69413 0.0
C522 C 0.41301 0.68079 0.73413 0.0
C523 C 0.39834 0.70157 0.71617 0.0
C524 C 0.37691 0.69612 0.68733 0.0
C525 C 0.37049 0.67043 0.67624 0.0
C526 C 0.39372 0.7719 0.75574 0.0
C527 C 0.42005 0.77936 0.75599 0.0
C528 C 0.38651 0.74686 0.74158 0.0
C529 C 0.40551 0.72876 0.72772 0.0
C530 C 0.43168 0.73653 0.72646 0.0
C531 C 0.43886 0.76153 0.74023 0.0
H532 H 0.74818 0.40585 0.33657 0.0
H533 H 0.72903 0.43026 0.19639 0.0
H534 H 0.79173 0.39465 0.31169 0.0
H535 H 0.77333 0.41874 0.17136 0.0
H536 H 0.84728 0.36519 0.14545 0.0
H537 H 0.80264 0.37789 0.16443 0.0
H538 H 0.83069 0.41994 0.28467 0.0
H539 H 0.87521 0.40734 0.26597 0.0
C540 C 0.75316 0.40875 0.30025 0.0
C541 C 0.73499 0.41908 0.26848 0.0
C542 C 0.7783 0.40246 0.28614 0.0
C543 C 0.78604 0.40608 0.23976 0.0
C544 C 0.76783 0.41575 0.20741 0.0
C545 C 0.74253 0.42238 0.22172 0.0
C546 C 0.84393 0.37718 0.17593 0.0
C547 C 0.86483 0.38509 0.20442 0.0
C548 C 0.81839 0.38461 0.18649 0.0
C549 C 0.81319 0.39982 0.22606 0.0
C550 C 0.83409 0.408 0.25415 0.0
C551 C 0.85961 0.40082 0.24337 0.0
H552 H 0.09352 0.86658 0.70558 0.0
H553 H 0.17412 0.84549 0.68464 0.0
H554 H 0.08321 0.82206 0.72485 0.0
H555 H 0.16348 0.8002 0.70334 0.0
H556 H 0.13475 0.73024 0.79648 0.0
H557 H 0.14941 0.77281 0.76948 0.0
H558 H 0.07938 0.78044 0.68715 0.0
H559 H 0.06444 0.7384 0.71499 0.0
C560 C 0.10908 0.85238 0.70465 0.0
C561 C 0.13465 0.85964 0.69315 0.0
C562 C 0.10307 0.82672 0.71544 0.0
C563 C 0.12241 0.80744 0.71492 0.0
C564 C 0.14814 0.81462 0.70405 0.0
C565 C 0.15421 0.84052 0.69321 0.0
C566 C 0.12264 0.74089 0.7722 0.0
C567 C 0.0982 0.73114 0.75853 0.0
C568 C 0.13111 0.76524 0.75656 0.0
C569 C 0.11537 0.78021 0.72679 0.0
C570 C 0.09168 0.7697 0.71101 0.0
C571 C 0.08315 0.74553 0.72683 0.0
H572 H 0.63788 0.09566 0.25063 0.0
H573 H 0.66523 0.1594 0.16569 0.0
H574 H 0.68279 0.08415 0.26898 0.0
H575 H 0.71015 0.14777 0.18413 0.0
H576 H 0.78475 0.13306 0.27529 0.0
H577 H 0.74059 0.14634 0.25381 0.0
H578 H 0.7209 0.06644 0.22438 0.0
H579 H 0.76471 0.05312 0.24564 0.0
C580 C 0.65344 0.10724 0.23592 0.0
C581 C 0.64794 0.12835 0.20644 0.0
C582 C 0.67916 0.10056 0.24624 0.0
C583 C 0.69997 0.11497 0.22773 0.0
C584 C 0.69451 0.13639 0.19904 0.0
C585 C 0.66877 0.14293 0.18831 0.0
C586 C 0.77108 0.11838 0.26375 0.0
C587 C 0.77828 0.09201 0.26245 0.0
C588 C 0.74582 0.12599 0.25141 0.0
C589 C 0.72724 0.10737 0.23799 0.0
C590 C 0.73468 0.08117 0.23535 0.0
C591 C 0.7599 0.07359 0.24721 0.0
H592 H 0.39586 0.86956 0.22269 0.0
H593 H 0.37949 0.84485 0.36361 0.0
H594 H 0.40586 0.82455 0.20119 0.0
H595 H 0.3901 0.80001 0.3422 0.0
H596 H 0.44819 0.73422 0.2855 0.0
H597 H 0.43491 0.7778 0.31037 0.0
H598 H 0.37726 0.77973 0.20093 0.0
H599 H 0.39002 0.73591 0.17664 0.0
C600 C 0.39457 0.85454 0.24906 0.0
C601 C 0.38695 0.86064 0.2948 0.0
C602 C 0.40009 0.82886 0.23669 0.0
C603 C 0.39864 0.80898 0.27011 0.0
C604 C 0.39135 0.81509 0.31594 0.0
C605 C 0.38525 0.84066 0.32807 0.0
C606 C 0.43244 0.74383 0.26721 0.0
C607 C 0.42011 0.73173 0.22921 0.0
C608 C 0.42486 0.76866 0.28145 0.0
C609 C 0.40523 0.782 0.25728 0.0
C610 C 0.39255 0.76978 0.21986 0.0
C611 C 0.39973 0.7447 0.20626 0.0
H612 H 0.66652 0.35244 0.823 0.0
H613 H 0.63937 0.42593 0.76878 0.0
H614 H 0.71129 0.36468 0.80469 0.0
H615 H 0.68443 0.43832 0.75132 0.0
H616 H 0.77327 0.45755 0.77621 0.0
H617 H 0.72888 0.44606 0.80047 0.0
H618 H 0.73454 0.37407 0.72393 0.0
H619 H 0.77843 0.38571 0.69886 0.0
C620 C 0.67012 0.37129 0.8075 0.0
C621 C 0.6494 0.38821 0.79726 0.0
C622 C 0.69573 0.37824 0.79697 0.0
C623 C 0.70126 0.40246 0.77683 0.0
C624 C 0.68065 0.41962 0.76725 0.0
C625 C 0.65491 0.41245 0.77692 0.0
C626 C 0.76509 0.43915 0.7651 0.0
C627 C 0.77926 0.42249 0.73571 0.0
C628 C 0.73969 0.43271 0.77862 0.0
C629 C 0.72834 0.40923 0.76392 0.0
C630 C 0.74287 0.39223 0.73586 0.0
C631 C 0.76795 0.39892 0.72151 0.0
H632 H 0.12552 0.77936 0.19072 0.0
H633 H 0.05473 0.77284 0.27086 0.0
H634 H 0.13919 0.73647 0.2179 0.0
H635 H 0.06825 0.7295 0.29728 0.0
H636 H 0.08986 0.6409 0.26812 0.0
H637 H 0.07643 0.68535 0.2499 0.0
H638 H 0.15049 0.71399 0.29881 0.0
H639 H 0.16385 0.66957 0.31802 0.0
C640 C 0.11294 0.76878 0.21432 0.0
C641 C 0.08903 0.77938 0.2286 0.0
C642 C 0.12083 0.74432 0.23 0.0
C643 C 0.10474 0.72973 0.25954 0.0
C644 C 0.08095 0.74039 0.27435 0.0
C645 C 0.07329 0.76517 0.25947 0.0
C646 C 0.10326 0.65667 0.27515 0.0
C647 C 0.12795 0.65173 0.29441 0.0
C648 C 0.09547 0.68209 0.26505 0.0
C649 C 0.11241 0.70303 0.27312 0.0
C650 C 0.1371 0.69814 0.29227 0.0
C651 C 0.1447 0.67277 0.30329 0.0
H652 H 0.84515 0.1591 0.8244 0.0
H653 H 0.87256 0.08529 0.77188 0.0
H654 H 0.80049 0.14691 0.80447 0.0
H655 H 0.82771 0.07297 0.75292 0.0
H656 H 0.73888 0.05399 0.77544 0.0
H657 H 0.7828 0.0659 0.80178 0.0
H658 H 0.77846 0.13671 0.72163 0.0
H659 H 0.73502 0.12461 0.69445 0.0
C660 C 0.84161 0.14021 0.80895 0.0
C661 C 0.86234 0.12316 0.79961 0.0
C662 C 0.8161 0.13329 0.79753 0.0
C663 C 0.81076 0.10899 0.77746 0.0
C664 C 0.83137 0.09173 0.7688 0.0
C665 C 0.85699 0.09886 0.77932 0.0
C666 C 0.74724 0.0722 0.76393 0.0
C667 C 0.73363 0.08838 0.7329 0.0
C668 C 0.77235 0.0789 0.7787 0.0
C669 C 0.78389 0.10217 0.76358 0.0
C670 C 0.7699 0.11872 0.73388 0.0
C671 C 0.74513 0.11177 0.71829 0.0
H672 H 0.5662 0.14741 0.01078 0.0
H673 H 0.6072 0.08415 0.0771 0.0
H674 H 0.57966 0.1314 0.93475 0.0
H675 H 0.62179 0.0687 0.00096 0.0
H676 H 0.62691 0.03851 0.84836 0.0
H677 H 0.61135 0.04988 0.92662 0.0
H678 H 0.61888 0.13142 0.89264 0.0
H679 H 0.63307 0.12001 0.81466 0.0
C680 C 0.57803 0.13 0.009 0.0
C681 C 0.58583 0.11716 0.04978 0.0
C682 C 0.58598 0.12093 0.96548 0.0
C683 C 0.60238 0.09911 0.96173 0.0
C684 C 0.60915 0.08551 0.0025 0.0
C685 C 0.60081 0.09438 0.04613 0.0
C686 C 0.62546 0.0588 0.85812 0.0
C687 C 0.6309 0.07841 0.82557 0.0
C688 C 0.61653 0.06535 0.9028 0.0
C689 C 0.61326 0.0916 0.91561 0.0
C690 C 0.62022 0.11104 0.88356 0.0
C691 C 0.62866 0.10452 0.83901 0.0
H692 H 0.35867 0.60091 0.51071 0.0
H693 H 0.43421 0.57672 0.56104 0.0
H694 H 0.37861 0.61674 0.43904 0.0
H695 H 0.45404 0.59231 0.48864 0.0
H696 H 0.46611 0.59441 0.32394 0.0
H697 H 0.45051 0.58023 0.40023 0.0
H698 H 0.41173 0.65392 0.41883 0.0
H699 H 0.42775 0.66835 0.34253 0.0
C700 C 0.37948 0.59863 0.50627 0.0
C701 C 0.39485 0.58748 0.5416 0.0
C702 C 0.3909 0.60801 0.46545 0.0
C703 C 0.41788 0.60606 0.45868 0.0
C704 C 0.4332 0.59413 0.49317 0.0
C705 C 0.42183 0.58515 0.53445 0.0
C706 C 0.45469 0.60778 0.34475 0.0
C707 C 0.44811 0.63248 0.32742 0.0
C708 C 0.44581 0.59966 0.38837 0.0
C709 C 0.42975 0.61589 0.4151 0.0
C710 C 0.42394 0.64098 0.3986 0.0
C711 C 0.43328 0.64932 0.35527 0.0
H712 H 0.90435 0.35977 0.0254 0.0
H713 H 0.94212 0.43154 0.06493 0.0
H714 H 0.89025 0.37957 0.95233 0.0
H715 H 0.92853 0.45107 0.99044 0.0
H716 H 0.92695 0.44168 0.81555 0.0
H717 H 0.93981 0.43067 0.89546 0.0
H718 H 0.85897 0.42662 0.93517 0.0
H719 H 0.84606 0.43861 0.85532 0.0
C720 C 0.90989 0.37968 0.01827 0.0
C721 C 0.92451 0.39408 0.05074 0.0
C722 C 0.90156 0.39104 0.97673 0.0
C723 C 0.90811 0.41682 0.96637 0.0
C724 C 0.92312 0.43119 0.99816 0.0
C725 C 0.93095 0.42001 0.04045 0.0
C726 C 0.91199 0.43906 0.84174 0.0
C727 C 0.88556 0.44092 0.82968 0.0
C728 C 0.91934 0.43289 0.88726 0.0
C729 C 0.90034 0.42787 0.92105 0.0
C730 C 0.87389 0.4306 0.90949 0.0
C731 C 0.86653 0.43747 0.86412 0.0
H732 H 0.03237 0.89086 0.34209 0.0
H733 H 0.11316 0.87053 0.32394 0.0
H734 H 0.04224 0.90789 0.4203 0.0
H735 H 0.1229 0.88623 0.40189 0.0
H736 H 0.1428 0.94256 0.50995 0.0
H737 H 0.12636 0.92866 0.43435 0.0
H738 H 0.057 0.8986 0.50035 0.0
H739 H 0.07322 0.91388 0.57616 0.0
C740 C 0.05203 0.88934 0.35552 0.0
C741 C 0.07209 0.87957 0.32732 0.0
C742 C 0.05772 0.89917 0.40003 0.0
C743 C 0.0835 0.89912 0.41676 0.0
C744 C 0.10302 0.88749 0.38947 0.0
C745 C 0.09744 0.87814 0.3451 0.0
C746 C 0.12369 0.9337 0.50794 0.0
C747 C 0.10918 0.9293 0.54841 0.0
C748 C 0.1144 0.92537 0.46486 0.0
C749 C 0.09073 0.91175 0.46154 0.0
C750 C 0.07533 0.90895 0.50177 0.0
C751 C 0.0845 0.91777 0.54504 0.0
H752 H 0.59448 0.43265 0.92598 0.0
H753 H 0.57633 0.35814 0.98759 0.0
H754 H 0.60599 0.44956 0.00305 0.0
H755 H 0.58824 0.37481 0.06376 0.0
H756 H 0.58868 0.41601 0.19908 0.0
H757 H 0.57322 0.40582 0.12148 0.0
H758 H 0.64131 0.44223 0.06218 0.0
H759 H 0.65673 0.45318 0.14082 0.0
C760 C 0.59264 0.42 0.95596 0.0
C761 C 0.58453 0.39404 0.95073 0.0
C762 C 0.59948 0.42961 -9e-05 0.0
C763 C 0.59807 0.4135 0.03931 0.0
C764 C 0.58924 0.38781 0.03413 0.0
C765 C 0.58252 0.37821 0.9904 0.0
C766 C 0.60043 0.42197 0.16961 0.0
C767 C 0.62421 0.43499 0.17605 0.0
C768 C 0.59151 0.4161 0.12511 0.0
C769 C 0.60624 0.42286 0.08586 0.0
C770 C 0.62952 0.43688 0.09193 0.0
C771 C 0.63842 0.443 0.13681 0.0
H772 H 0.08458 0.60817 0.41667 0.0
H773 H 0.15171 0.57725 0.48872 0.0
H774 H 0.06644 0.62271 0.49109 0.0
H775 H 0.13332 0.59154 0.563 0.0
H776 H 0.07602 0.59122 0.68458 0.0
H777 H 0.09142 0.57831 0.60835 0.0
H778 H 0.08085 0.6566 0.55804 0.0
H779 H 0.06547 0.67007 0.63563 0.0
C780 C 0.09529 0.60419 0.44842 0.0
C781 C 0.11949 0.59138 0.44698 0.0
C782 C 0.08504 0.6128 0.49081 0.0
C783 C 0.09857 0.60831 0.53249 0.0
C784 C 0.12252 0.59515 0.53119 0.0
C785 C 0.13299 0.58694 0.48879 0.0
C786 C 0.07669 0.60584 0.65744 0.0
C787 C 0.06953 0.6318 0.66635 0.0
C788 C 0.08568 0.59835 0.6138 0.0
C789 C 0.08751 0.61649 0.57767 0.0
C790 C 0.07954 0.64227 0.5856 0.0
C791 C 0.07078 0.64995 0.62983 0.0
H792 H 0.90622 0.07999 0.92327 0.0
H793 H 0.9369 0.14715 0.9954 0.0
H794 H 0.89173 0.06181 0.99757 0.0
H795 H 0.92266 0.12869 0.06964 0.0
H796 H 0.92219 0.07188 0.19178 0.0
H797 H 0.93566 0.08692 0.11562 0.0
H798 H 0.8576 0.07622 0.06352 0.0
H799 H 0.84358 0.06122 0.14091 0.0
C800 C 0.91017 0.09071 0.95502 0.0
C801 C 0.92286 0.11494 0.95363 0.0
C802 C 0.9016 0.08041 0.99734 0.0
C803 C 0.90602 0.09393 0.03903 0.0
C804 C 0.91911 0.1179 0.03781 0.0
C805 C 0.92728 0.12842 0.99545 0.0
C806 C 0.90775 0.07243 0.16424 0.0
C807 C 0.88168 0.06541 0.17259 0.0
C808 C 0.91556 0.08121 0.12065 0.0
C809 C 0.89762 0.08294 0.08408 0.0
C810 C 0.87176 0.07499 0.09143 0.0
C811 C 0.86377 0.06644 0.13557 0.0
H812 H 0.46288 0.91996 0.67475 0.0
H813 H 0.43353 0.84259 0.64896 0.0
H814 H 0.4495 0.93312 0.5963 0.0
H815 H 0.41968 0.85603 0.57085 0.0
H816 H 0.36263 0.90726 0.48102 0.0
H817 H 0.38285 0.89269 0.55319 0.0
H818 H 0.45757 0.91932 0.50427 0.0
H819 H 0.43744 0.93352 0.43077 0.0
C820 C 0.45396 0.90568 0.65202 0.0
C821 C 0.4491 0.88029 0.66793 0.0
C822 C 0.44643 0.9132 0.60719 0.0
C823 C 0.43347 0.8956 0.57795 0.0
C824 C 0.4296 0.86992 0.59302 0.0
C825 C 0.43762 0.86223 0.6375 0.0
C826 C 0.38335 0.91024 0.48556 0.0
C827 C 0.39845 0.92162 0.45017 0.0
C828 C 0.39492 0.90163 0.52671 0.0
C829 C 0.42174 0.90463 0.53381 0.0
C830 C 0.43684 0.9167 0.49927 0.0
C831 C 0.42533 0.92485 0.45745 0.0
H832 H 0.43243 0.93211 0.93149 0.0
H833 H 0.40406 0.85725 0.97712 0.0
H834 H 0.41875 0.95122 0.00589 0.0
H835 H 0.39012 0.87648 0.05068 0.0
H836 H 0.34274 0.92654 0.15218 0.0
H837 H 0.35533 0.9118 0.07419 0.0
H838 H 0.43208 0.94397 0.09429 0.0
H839 H 0.41973 0.95836 0.17247 0.0
C840 C 0.42336 0.91975 0.95736 0.0
C841 C 0.4194 0.89316 0.94848 0.0
C842 C 0.41554 0.93069 -0.00021 0.0
C843 C 0.40315 0.91534 0.03361 0.0
C844 C 0.39932 0.88878 0.02485 0.0
C845 C 0.40755 0.87776 0.98292 0.0
C846 C 0.36213 0.93087 0.1396 0.0
C847 C 0.38029 0.9435 0.16839 0.0
C848 C 0.36937 0.92229 0.0952 0.0
C849 C 0.3947 0.92664 0.07854 0.0
C850 C 0.41242 0.94046 0.10634 0.0
C851 C 0.40536 0.9486 0.15105 0.0
H852 H 0.64849 0.41069 0.48731 0.0
H853 H 0.57582 0.44093 0.43365 0.0
H854 H 0.62648 0.39595 0.55709 0.0
H855 H 0.55377 0.42642 0.50526 0.0
H856 H 0.57714 0.34413 0.64353 0.0
H857 H 0.589 0.35956 0.5658 0.0
H858 H 0.56034 0.43606 0.59991 0.0
H859 H 0.54852 0.42082 0.67774 0.0
C860 C 0.62782 0.41444 0.4906 0.0
C861 C 0.61378 0.42661 0.45465 0.0
C862 C 0.61525 0.4058 0.53042 0.0
C863 C 0.58842 0.40944 0.53559 0.0
C864 C 0.57447 0.42313 0.50136 0.0
C865 C 0.58709 0.43157 0.4608 0.0
C866 C 0.57276 0.36403 0.63404 0.0
C867 C 0.56245 0.38142 0.66682 0.0
C868 C 0.57953 0.37283 0.58972 0.0
C869 C 0.57574 0.399 0.57748 0.0
C870 C 0.56334 0.41581 0.60873 0.0
C871 C 0.55685 0.40711 0.65326 0.0
H872 H 0.07173 0.64541 0.98829 0.0
H873 H 0.11076 0.58331 0.91469 0.0
H874 H 0.08641 0.62718 0.06239 0.0
H875 H 0.1257 0.56531 0.98907 0.0
H876 H 0.17168 0.56994 0.13595 0.0
H877 H 0.15703 0.58299 0.05777 0.0
H878 H 0.07745 0.58336 0.10558 0.0
H879 H 0.09159 0.57022 0.18255 0.0
C880 C 0.08326 0.62778 0.98801 0.0
C881 C 0.08995 0.61568 0.94584 0.0
C882 C 0.09166 0.61738 0.03029 0.0
C883 C 0.10723 0.59495 0.03113 0.0
C884 C 0.11385 0.58273 0.9891 0.0
C885 C 0.10506 0.59287 0.94675 0.0
C886 C 0.15107 0.57244 0.12948 0.0
C887 C 0.13289 0.56928 0.16562 0.0
C888 C 0.14272 0.57985 0.08488 0.0
C889 C 0.11617 0.58441 0.07617 0.0
C890 C 0.09803 0.58028 0.11171 0.0
C891 C 0.10625 0.57268 0.1558 0.0
H892 H 0.86044 0.07542 0.49317 0.0
H893 H 0.92847 0.10563 0.42317 0.0
H894 H 0.87879 0.08866 0.56816 0.0
H895 H 0.94659 0.11908 0.49827 0.0
H896 H 0.94864 0.16595 0.6416 0.0
H897 H 0.93335 0.15255 0.56407 0.0
H898 H 0.91924 0.07512 0.61587 0.0
H899 H 0.93455 0.08808 0.69245 0.0
C900 C 0.87933 0.08477 0.49382 0.0
C901 C 0.89306 0.08935 0.45234 0.0
C902 C 0.88982 0.09231 0.53667 0.0
C903 C 0.91404 0.10494 0.53879 0.0
C904 C 0.9278 0.10955 0.49742 0.0
C905 C 0.91751 0.10162 0.4546 0.0
C906 C 0.94256 0.14602 0.63621 0.0
C907 C 0.94284 0.12813 0.67322 0.0
C908 C 0.93386 0.13837 0.59194 0.0
C909 C 0.92495 0.11287 0.58433 0.0
C910 C 0.92574 0.09495 0.62101 0.0
C911 C 0.93469 0.10242 0.66482 0.0
H912 H 0.42394 0.57248 0.80645 0.0
H913 H 0.34461 0.5678 0.85609 0.0
H914 H 0.43842 0.58542 0.88335 0.0
H915 H 0.35955 0.58085 0.93414 0.0
H916 H 0.40563 0.58219 0.07641 0.0
H917 H 0.39059 0.56474 0.00156 0.0
H918 H 0.43028 0.62683 0.92973 0.0
H919 H 0.44513 0.64438 0.00417 0.0
C920 C 0.40952 0.57399 0.83383 0.0
C921 C 0.38299 0.56924 0.82486 0.0
C922 C 0.41792 0.58151 0.87793 0.0
C923 C 0.40011 0.58435 0.91449 0.0
C924 C 0.37368 0.5787 0.90642 0.0
C925 C 0.36514 0.57133 0.86181 0.0
C926 C 0.41142 0.59189 0.04457 0.0
C927 C 0.42669 0.61459 0.04609 0.0
C928 C 0.40256 0.58206 0.00188 0.0
C929 C 0.40922 0.59449 0.96001 0.0
C930 C 0.42498 0.61679 0.96153 0.0
C931 C 0.43349 0.62683 0.0041 0.0
H932 H 0.95525 0.42101 0.3213 0.0
H933 H 0.94797 0.33993 0.35845 0.0
H934 H 0.94441 0.43348 0.40075 0.0
H935 H 0.93754 0.35255 0.43844 0.0
H936 H 0.87594 0.38669 0.53718 0.0
H937 H 0.8973 0.37342 0.4664 0.0
H938 H 0.95571 0.43272 0.48646 0.0
H939 H 0.93397 0.4464 0.55891 0.0
C940 C 0.95177 0.40579 0.3466 0.0
C941 C 0.95197 0.37943 0.33328 0.0
C942 C 0.94583 0.41301 0.39231 0.0
C943 C 0.93986 0.39404 0.42569 0.0
C944 C 0.94172 0.36762 0.41319 0.0
C945 C 0.94775 0.36038 0.36744 0.0
C946 C 0.89339 0.39704 0.527 0.0
C947 C 0.90315 0.41779 0.55386 0.0
C948 C 0.90584 0.38911 0.48647 0.0
C949 C 0.92839 0.40173 0.47113 0.0
C950 C 0.93835 0.42257 0.49765 0.0
C951 C 0.92593 0.43042 0.53897 0.0
H952 H 0.09055 0.92339 0.81088 0.0
H953 H 0.16011 0.96373 0.85516 0.0
H954 H 0.07786 0.91743 0.89176 0.0
H955 H 0.14731 0.95748 0.93679 0.0
H956 H 0.13333 0.89506 0.05673 0.0
H957 H 0.14437 0.91489 0.9824 0.0
H958 H 0.06507 0.94141 0.96711 0.0
H959 H 0.05401 0.9216 0.04262 0.0
C960 C 0.10308 0.93114 0.83793 0.0
C961 C 0.12657 0.94369 0.82671 0.0
C962 C 0.09558 0.92803 0.88424 0.0
C963 C 0.11154 0.93709 0.92044 0.0
C964 C 0.13466 0.95035 0.90938 0.0
C965 C 0.142 0.95385 0.86282 0.0
C966 C 0.11834 0.90551 0.03787 0.0
C967 C 0.09273 0.90655 0.05486 0.0
C968 C 0.12474 0.91709 0.99559 0.0
C969 C 0.10557 0.92961 0.96904 0.0
C970 C 0.08017 0.93178 0.98703 0.0
C971 C 0.07385 0.92055 0.03004 0.0
H972 H 0.6403 0.11826 0.52604 0.0
H973 H 0.57688 0.0663 0.56002 0.0
H974 H 0.61775 0.13204 0.45672 0.0
H975 H 0.55415 0.08026 0.48857 0.0
H976 H 0.55296 0.08994 0.32013 0.0
H977 H 0.56416 0.07683 0.39929 0.0
H978 H 0.57667 0.15716 0.4365 0.0
H979 H 0.56568 0.17043 0.35708 0.0
C980 C 0.62147 0.10967 0.51883 0.0
C981 C 0.61039 0.09111 0.54891 0.0
C982 C 0.60842 0.11789 0.47913 0.0
C983 C 0.58399 0.10764 0.4678 0.0
C984 C 0.57291 0.08863 0.49696 0.0
C985 C 0.58593 0.08059 0.53758 0.0
C986 C 0.55765 0.1049 0.34538 0.0
C987 C 0.55899 0.13122 0.33212 0.0
C988 C 0.56378 0.09734 0.39083 0.0
C989 C 0.57152 0.11594 0.42374 0.0
C990 C 0.57098 0.14242 0.41149 0.0
C991 C 0.56468 0.15001 0.3661 0.0
H992 H 0.37491 0.03812 0.26775 0.0
H993 H 0.44126 0.99615 0.32175 0.0
H994 H 0.40406 0.0712 0.23595 0.0
H995 H 0.47021 0.02913 0.28978 0.0
H996 H 0.51422 0.0715 0.17535 0.0
H997 H 0.48216 0.04133 0.20672 0.0
H998 H 0.43716 0.10571 0.25955 0.0
H999 H 0.4693 0.13608 0.22834 0.0
C1000 C 0.39564 0.03619 0.27367 0.0
C1001 C 0.40569 0.01435 0.29719 0.0
C1002 C 0.41233 0.05512 0.25529 0.0
C1003 C 0.43944 0.05248 0.25954 0.0
C1004 C 0.44942 0.03141 0.28511 0.0
C1005 C 0.43276 0.01266 0.30398 0.0
C1006 C 0.49724 0.07934 0.19271 0.0
C1007 C 0.49447 0.10629 0.19946 0.0
C1008 C 0.47903 0.062 0.21125 0.0
C1009 C 0.45742 0.07113 0.23644 0.0
C1010 C 0.45367 0.09809 0.2405 0.0
C1011 C 0.47207 0.11547 0.22245 0.0
H1012 H 0.48839 0.38258 0.7254 0.0
H1013 H 0.49811 0.42855 0.85043 0.0
H1014 H 0.45682 0.41385 0.69591 0.0
H1015 H 0.46556 0.45953 0.82102 0.0
H1016 H 0.38291 0.48682 0.76643 0.0
H1017 H 0.41354 0.45454 0.79511 0.0
H1018 H 0.46194 0.46663 0.67439 0.0
H1019 H 0.43154 0.49997 0.64578 0.0
C1020 C 0.4834 0.39905 0.74718 0.0
C1021 C 0.49568 0.40291 0.79066 0.0
C1022 C 0.46552 0.41709 0.72986 0.0
C1023 C 0.45896 0.43912 0.75599 0.0
C1024 C 0.47038 0.44264 0.80019 0.0
C1025 C 0.48886 0.42488 0.81711 0.0
C1026 C 0.39988 0.48253 0.74542 0.0
C1027 C 0.40467 0.49604 0.7035 0.0
C1028 C 0.41753 0.46416 0.76228 0.0
C1029 C 0.44013 0.45831 0.73721 0.0
C1030 C 0.44459 0.47091 0.6944 0.0
C1031 C 0.42718 0.48987 0.67795 0.0
H1032 H 0.01375 0.43111 0.14805 0.0
H1033 H 0.02717 0.38478 0.27143 0.0
H1034 H 0.04643 0.46254 0.17561 0.0
H1035 H 0.05882 0.41645 0.29912 0.0
H1036 H 0.08452 0.50224 0.34919 0.0
H1037 H 0.05351 0.46911 0.32183 0.0
H1038 H 0.09929 0.45787 0.19758 0.0
H1039 H 0.13056 0.48995 0.22502 0.0
C1040 C 0.02378 0.4275 0.18065 0.0
C1041 C 0.01799 0.40527 0.20715 0.0
C1042 C 0.04234 0.44549 0.1965 0.0
C1043 C 0.05487 0.44195 0.23971 0.0
C1044 C 0.04927 0.41971 0.26593 0.0
C1045 C 0.03131 0.40146 0.24965 0.0
C1046 C 0.08817 0.49237 0.31647 0.0
C1047 C 0.11017 0.49865 0.28965 0.0
C1048 C 0.07041 0.47355 0.30074 0.0
C1049 C 0.07396 0.46123 0.25737 0.0
C1050 C 0.09601 0.46727 0.23089 0.0
C1051 C 0.11404 0.48549 0.24703 0.0
H1052 H 0.13784 0.04051 0.72937 0.0
H1053 H 0.06955 0.99767 0.68665 0.0
H1054 H 0.10967 0.0745 0.76252 0.0
H1055 H 0.04186 0.03107 0.71995 0.0
H1056 H 1.00086 0.07284 0.83501 0.0
H1057 H 0.03437 0.04367 0.80542 0.0
H1058 H 0.07311 0.10823 0.7394 0.0
H1059 H 0.03952 0.13764 0.76891 0.0
C1060 C 0.11693 0.03865 0.72597 0.0
C1061 C 0.10596 0.01626 0.7057 0.0
C1062 C 0.10083 0.05796 0.74532 0.0
C1063 C 0.07359 0.05502 0.74499 0.0
C1064 C 0.06277 0.03352 0.72193 0.0
C1065 C 0.0787 0.01449 0.70242 0.0
C1066 C 0.0168 0.08102 0.8152 0.0
C1067 C 0.01722 0.10759 0.80388 0.0
C1068 C 0.0359 0.06424 0.79788 0.0
C1069 C 0.05604 0.07362 0.76927 0.0
C1070 C 0.05776 0.10045 0.76115 0.0
C1071 C 0.03848 0.11726 0.77811 0.0
H1072 H 0.61217 0.97487 0.66178 0.0
H1073 H 0.59424 0.02397 0.77931 0.0
H1074 H 0.5836 0.94098 0.69371 0.0
H1075 H 0.56738 0.9901 0.81268 0.0
H1076 H 0.49457 0.94123 0.82849 0.0
H1077 H 0.52693 0.97213 0.80248 0.0
H1078 H 0.57457 0.90916 0.75068 0.0
H1079 H 0.54128 0.87818 0.77492 0.0
C1080 C 0.60243 0.97819 0.69472 0.0
C1081 C 0.60497 1.00215 0.71762 0.0
C1082 C 0.58618 0.95877 0.71332 0.0
C1083 C 0.57266 0.96281 0.75565 0.0
C1084 C 0.57657 0.98641 0.77938 0.0
C1085 C 0.59218 1.00584 0.76038 0.0
C1086 C 0.51215 0.93385 0.81241 0.0
C1087 C 0.51522 0.90714 0.80387 0.0
C1088 C 0.53089 0.95167 0.7974 0.0
C1089 C 0.55357 0.94334 0.77409 0.0
C1090 C 0.55722 0.91647 0.76757 0.0
C1091 C 0.53825 0.89863 0.78208 0.0
H1092 H 0.57228 0.49522 0.31299 0.0
H1093 H 0.64018 0.53649 0.26407 0.0
H1094 H 0.54437 0.52877 0.28079 0.0
H1095 H 0.61179 0.57063 0.23205 0.0
H1096 H 0.50127 0.57088 0.16806 0.0
H1097 H 0.53459 0.54107 0.19632 0.0
H1098 H 0.57678 0.60524 0.25692 0.0
H1099 H 0.54338 0.63528 0.22874 0.0
C1100 C 0.58134 0.5117 0.29598 0.0
C1101 C 0.60853 0.51297 0.29075 0.0
C1102 C 0.56526 0.53082 0.27714 0.0
C1103 C 0.57584 0.55196 0.25281 0.0
C1104 C 0.6031 0.55438 0.25029 0.0
C1105 C 0.61935 0.53496 0.26895 0.0
C1106 C 0.51788 0.57881 0.18646 0.0
C1107 C 0.5194 0.60551 0.19653 0.0
C1108 C 0.53689 0.56167 0.20301 0.0
C1109 C 0.55804 0.57078 0.22962 0.0
C1110 C 0.56068 0.59765 0.23667 0.0
C1111 C 0.54149 0.61482 0.2205 0.0
H1112 H 0.90532 0.53444 0.6513 0.0
H1113 H 0.90961 0.49541 0.784 0.0
H1114 H 0.93386 0.56896 0.68145 0.0
H1115 H 0.93683 0.52998 0.81489 0.0
H1116 H 0.01332 0.57388 0.83256 0.0
H1117 H 0.98008 0.54342 0.80766 0.0
H1118 H 0.94037 0.60491 0.73368 0.0
H1119 H 0.97428 0.63536 0.7575 0.0
C1120 C 0.91195 0.53359 0.68713 0.0
C1121 C 0.90551 0.51228 0.71527 0.0
C1122 C 0.92821 0.55335 0.70459 0.0
C1123 C 0.93805 0.55217 0.7506 0.0
C1124 C 0.93033 0.53133 0.77905 0.0
C1125 C 0.91451 0.51158 0.76148 0.0
C1126 C 0.9973 0.5811 0.81169 0.0
C1127 C 0.99665 0.60715 0.79702 0.0
C1128 C 0.97808 0.56356 0.79736 0.0
C1129 C 0.95744 0.57156 0.76827 0.0
C1130 C 0.95615 0.59788 0.7553 0.0
C1131 C 0.97549 0.61544 0.76948 0.0
H1132 H 0.9396 0.01299 0.33492 0.0
H1133 H 0.87624 0.97081 0.27088 0.0
H1134 H 0.97021 0.98074 0.30541 0.0
H1135 H 0.90698 0.93876 0.2409 0.0
H1136 H 0.97362 0.87628 0.22432 0.0
H1137 H 0.9398 0.90411 0.25849 0.0
H1138 H 0.9856 0.97198 0.22558 0.0
H1139 H 0.01905 0.94448 0.19185 0.0
C1140 C 0.93208 0.99658 0.31548 0.0
C1141 C 0.90542 0.99474 0.30493 0.0
C1142 C 0.94969 0.97821 0.29803 0.0
C1143 C 0.94112 0.95748 0.26982 0.0
C1144 C 0.91427 0.95451 0.26231 0.0
C1145 C 0.89665 0.97294 0.27956 0.0
C1146 C 0.97611 0.89717 0.22339 0.0
C1147 C 0.99912 0.90812 0.20552 0.0
C1148 C 0.95685 0.91311 0.24333 0.0
C1149 C 0.96033 0.94024 0.24594 0.0
C1150 C 0.98263 0.95114 0.22553 0.0
C1151 C 1.00169 0.93534 0.20561 0.0
H1152 H 0.51659 0.18188 0.04857 0.0
H1153 H 0.53883 0.24867 0.13002 0.0
H1154 H 0.50807 0.21013 0.98135 0.0
H1155 H 0.53032 0.27697 0.06338 0.0
H1156 H 0.51086 0.3248 0.938 0.0
H1157 H 0.50013 0.29559 0.00305 0.0
H1158 H 0.54147 0.23335 0.93431 0.0
H1159 H 0.55225 0.26251 0.87025 0.0
C1160 C 0.5185 0.20274 0.05261 0.0
C1161 C 0.52794 0.21323 0.09449 0.0
C1162 C 0.51391 0.21889 0.01409 0.0
C1163 C 0.51863 0.24582 0.01689 0.0
C1164 C 0.52613 0.25642 0.06009 0.0
C1165 C 0.53099 0.24025 0.09833 0.0
C1166 C 0.51674 0.30461 0.93624 0.0
C1167 C 0.53215 0.29575 0.89911 0.0
C1168 C 0.51083 0.28796 0.97356 0.0
C1169 C 0.51996 0.26212 0.97394 0.0
C1170 C 0.53379 0.25295 0.93496 0.0
C1171 C 0.54003 0.26965 0.89825 0.0
H1172 H 0.18634 0.51269 0.43862 0.0
H1173 H 0.25114 0.54823 0.368 0.0
H1174 H 0.21499 0.50116 0.50411 0.0
H1175 H 0.27975 0.53682 0.43263 0.0
H1176 H 0.32981 0.51379 0.54913 0.0
H1177 H 0.30129 0.50437 0.48259 0.0
H1178 H 0.23505 0.53055 0.56247 0.0
H1179 H 0.2636 0.53978 0.62845 0.0
C1180 C 0.20692 0.51705 0.43636 0.0
C1181 C 0.21669 0.53105 0.39825 0.0
C1182 C 0.22328 0.51071 0.47394 0.0
C1183 C 0.24969 0.51812 0.47376 0.0
C1184 C 0.25968 0.53043 0.43381 0.0
C1185 C 0.2433 0.53703 0.39673 0.0
C1186 C 0.30899 0.5163 0.55298 0.0
C1187 C 0.29877 0.52709 0.59397 0.0
C1188 C 0.29268 0.51123 0.51478 0.0
C1189 C 0.26587 0.5169 0.51699 0.0
C1190 C 0.25547 0.52562 0.55959 0.0
C1191 C 0.2718 0.53088 0.59751 0.0
H1192 H 0.97497 0.26372 0.13244 0.0
H1193 H 0.99691 0.32956 0.04857 0.0
H1194 H 0.98353 0.23464 0.06696 0.0
H1195 H 1.00561 0.3005 0.98251 0.0
H1196 H 0.96174 0.24711 0.87279 0.0
H1197 H 0.97284 0.27696 0.93572 0.0
H1198 H 0.01288 0.21497 0.00766 0.0
H1199 H 1.0017 0.18504 0.94382 0.0
C1200 C 0.98278 0.27178 0.10048 0.0
C1201 C 0.98568 0.29876 0.0956 0.0
C1202 C 0.98768 0.25515 0.06288 0.0
C1203 C 0.99511 0.26522 0.01928 0.0
C1204 C 0.99977 0.29213 0.01552 0.0
C1205 C 0.99509 0.30876 0.05339 0.0
C1206 C 0.97376 0.24015 0.90125 0.0
C1207 C 0.9811 0.21392 0.90339 0.0
C1208 C 0.98019 0.25725 0.93733 0.0
C1209 C 0.99371 0.24839 0.97692 0.0
C1210 C 1.00238 0.22239 0.97773 0.0
C1211 C 0.99623 0.20531 0.94109 0.0
H1212 H 0.32362 1.00382 0.43952 0.0
H1213 H 0.26651 0.95532 0.37202 0.0
H1214 H 0.29145 0.01548 0.49962 0.0
H1215 H 0.23483 0.96628 0.43123 0.0
H1216 H 0.17711 0.9874 0.53114 0.0
H1217 H 0.20726 0.99661 0.46772 0.0
H1218 H 0.27167 0.99231 0.56445 0.0
H1219 H 0.24113 0.98452 0.62826 0.0
C1220 C 0.30396 0.99638 0.43678 0.0
C1221 C 0.29739 0.97883 0.40117 0.0
C1222 C 0.28563 1.00277 0.47137 0.0
C1223 C 0.26045 0.99185 0.47051 0.0
C1224 C 0.25372 0.97555 0.43293 0.0
C1225 C 0.27195 0.9691 0.39893 0.0
C1226 C 0.19763 0.98953 0.53905 0.0
C1227 C 0.20683 0.9852 0.58446 0.0
C1228 C 0.21498 0.99451 0.50266 0.0
C1229 C 0.24203 0.99447 0.51058 0.0
C1230 C 0.25102 0.99258 0.55692 0.0
C1231 C 0.23353 0.98812 0.5936 0.0
H1232 H 0.4816 0.74603 0.13068 0.0
H1233 H 0.49801 0.68055 0.04186 0.0
H1234 H 0.48965 0.77565 0.06582 0.0
H1235 H 0.50647 0.71009 0.97665 0.0
H1236 H 0.4612 0.76472 0.87304 0.0
H1237 H 0.47327 0.73457 0.93456 0.0
H1238 H 0.51669 0.79542 0.00347 0.0
H1239 H 0.50443 0.8258 0.94087 0.0
C1240 C 0.48828 0.73811 0.09777 0.0
C1241 C 0.48962 0.71111 0.09131 0.0
C1242 C 0.49284 0.75506 0.06049 0.0
C1243 C 0.49845 0.74528 0.01579 0.0
C1244 C 0.50195 0.71826 0.0105 0.0
C1245 C 0.49745 0.70133 0.0479 0.0
C1246 C 0.47399 0.77143 0.90062 0.0
C1247 C 0.48194 0.79751 0.90228 0.0
C1248 C 0.48106 0.75411 0.93584 0.0
C1249 C 0.49596 0.76252 0.97415 0.0
C1250 C 0.50513 0.78836 0.97452 0.0
C1251 C 0.49832 0.80569 0.93862 0.0
H1252 H 0.83472 0.48711 0.53508 0.0
H1253 H 0.77111 0.47675 0.63093 0.0
H1254 H 0.80416 0.49851 0.47335 0.0
H1255 H 0.74025 0.48555 0.569 0.0
H1256 H 0.74554 0.47009 0.3634 0.0
H1257 H 0.77777 0.47784 0.42346 0.0
H1258 H 0.71734 0.50706 0.51483 0.0
H1259 H 0.68498 0.49671 0.45542 0.0
C1260 C 0.81411 0.48776 0.54297 0.0
C1261 C 0.8052 0.48125 0.58764 0.0
C1262 C 0.79645 0.49384 0.5074 0.0
C1263 C 0.76937 0.49237 0.51514 0.0
C1264 C 0.76073 0.48736 0.56101 0.0
C1265 C 0.77846 0.48219 0.59689 0.0
C1266 C 0.73938 0.47896 0.39586 0.0
C1267 C 0.71289 0.48294 0.40483 0.0
C1268 C 0.75791 0.48349 0.43069 0.0
C1269 C 0.75044 0.49271 0.47512 0.0
C1270 C 0.72401 0.49908 0.48205 0.0
C1271 C 0.70539 0.49368 0.44768 0.0
H1272 H 0.04478 0.68817 0.96117 0.0
H1273 H 0.01104 0.73824 0.85703 0.0
H1274 H 0.03496 0.72 0.02146 0.0
H1275 H 1.00107 0.77054 0.91761 0.0
H1276 H 0.0424 0.83068 0.01953 0.0
H1277 H 0.03197 0.79835 0.96052 0.0
H1278 H 1.00446 0.74633 0.06777 0.0
H1279 H 0.01516 0.77884 0.12718 0.0
C1280 C 0.03422 0.70562 0.9516 0.0
C1281 C 0.02841 0.71069 0.90465 0.0
C1282 C 0.02856 0.7239 0.98616 0.0
C1283 C 0.01737 0.74798 0.97446 0.0
C1284 C 0.00984 0.75226 0.92777 0.0
C1285 C 0.01524 0.7337 0.89314 0.0
C1286 C 0.03342 0.81264 0.03047 0.0
C1287 C 0.02989 0.80724 0.07813 0.0
C1288 C 0.02726 0.79411 0.99652 0.0
C1289 C 0.01762 0.76957 0.00933 0.0
C1290 C 0.01213 0.76494 0.05675 0.0
C1291 C 0.01806 0.78365 0.09079 0.0
H1292 H 0.7636 0.04816 0.36919 0.0
H1293 H 0.82283 1.00551 0.44308 0.0
H1294 H 0.73236 0.03822 0.42956 0.0
H1295 H 0.7911 0.99461 0.50419 0.0
H1296 H 0.74111 0.0284 0.62945 0.0
H1297 H 0.77107 0.01861 0.5658 0.0
H1298 H 0.70574 0.01039 0.47175 0.0
H1299 H 0.6762 0.0219 0.53494 0.0
C1300 C 0.76959 0.03571 0.39775 0.0
C1301 C 0.79551 0.02748 0.40147 0.0
C1302 C 0.75161 0.02984 0.4325 0.0
C1303 C 0.75905 0.01561 0.47225 0.0
C1304 C 0.7847 1.00584 0.4744 0.0
C1305 C 0.80281 0.01173 0.4392 0.0
C1306 C 0.7332 0.02354 0.5955 0.0
C1307 C 0.70642 0.02601 0.58691 0.0
C1308 C 0.75037 0.01791 0.55885 0.0
C1309 C 0.74097 0.01431 0.51309 0.0
C1310 C 0.71382 0.01384 0.50608 0.0
C1311 C 0.6968 0.0201 0.54238 0.0
loop_
_geom_bond_atom_site_label_1
_geom_bond_atom_site_label_2
_geom_bond_distance
_geom_bond_site_symmetry_2
_ccdc_geom_bond_type
Fe0 O2 1.918 . S
Fe0 O5 1.997 . S
Fe0 O6 2.002 . S
Fe0 O11 1.976 . S
Fe0 O14 1.996 . S
Fe1 O2 1.918 . S
Fe1 O9 1.997 . S
Fe1 O12 1.996 . S
Fe1 O16 1.976 . S
Fe1 O19 2.002 . S
O2 Fe0 1.918 . S
O2 Fe1 1.918 . S
O2 Fe3 1.918 . S
Fe3 O2 1.918 . S
Fe3 O4 2.002 . S
Fe3 O13 1.976 . S
Fe3 O17 1.996 . S
Fe3 O20 1.997 . S
O4 Fe3 2.002 . S
O4 C21 1.295 . S
O5 Fe0 1.997 . S
O5 C21 1.235 . S
O6 Fe0 2.002 . S
O6 C7 1.295 . S
C7 O6 1.295 . S
C7 O9 1.235 . S
C8 O13 1.287 . S
C8 O14 1.255 . S
O9 Fe1 1.997 . S
O9 C7 1.235 . S
C10 O16 1.287 . S
C10 O17 1.255 . S
O11 Fe0 1.976 . S
O11 C18 1.287 . S
O12 Fe1 1.996 . S
O12 C18 1.255 . S
O13 Fe3 1.976 . S
O13 C8 1.287 . S
O14 Fe0 1.996 . S
O14 C8 1.255 . S
C15 O19 1.295 . S
C15 O20 1.235 . S
O16 Fe1 1.976 . S
O16 C10 1.287 . S
O17 Fe3 1.996 . S
O17 C10 1.255 . S
C18 O11 1.287 . S
C18 O12 1.255 . S
O19 Fe1 2.002 . S
O19 C15 1.295 . S
O20 Fe3 1.997 . S
O20 C15 1.235 . S
C21 O4 1.295 . S
C21 O5 1.235 . S
Fe22 O24 1.918 . S
Fe22 O27 1.997 . S
Fe22 O28 2.002 . S
Fe22 O33 1.976 . S
Fe22 O36 1.996 . S
Fe23 O24 1.918 . S
Fe23 O31 1.997 . S
Fe23 O34 1.996 . S
Fe23 O38 1.976 . S
Fe23 O41 2.002 . S
O24 Fe22 1.918 . S
O24 Fe23 1.918 . S
O24 Fe25 1.918 . S
Fe25 O24 1.918 . S
Fe25 O26 2.002 . S
Fe25 O35 1.976 . S
Fe25 O39 1.996 . S
Fe25 O42 1.997 . S
O26 Fe25 2.002 . S
O26 C43 1.295 . S
O27 Fe22 1.997 . S
O27 C43 1.235 . S
O28 Fe22 2.002 . S
O28 C29 1.295 . S
C29 O28 1.295 . S
C29 O31 1.235 . S
C30 O35 1.287 . S
C30 O36 1.255 . S
O31 Fe23 1.997 . S
O31 C29 1.235 . S
C32 O38 1.287 . S
C32 O39 1.255 . S
O33 Fe22 1.976 . S
O33 C40 1.287 . S
O34 Fe23 1.996 . S
O34 C40 1.255 . S
O35 Fe25 1.976 . S
O35 C30 1.287 . S
O36 Fe22 1.996 . S
O36 C30 1.255 . S
C37 O41 1.295 . S
C37 O42 1.235 . S
O38 Fe23 1.976 . S
O38 C32 1.287 . S
O39 Fe25 1.996 . S
O39 C32 1.255 . S
C40 O33 1.287 . S
C40 O34 1.255 . S
O41 Fe23 2.002 . S
O41 C37 1.295 . S
O42 Fe25 1.997 . S
O42 C37 1.235 . S
C43 O26 1.295 . S
C43 O27 1.235 . S
Fe44 O46 1.918 . S
Fe44 O49 1.997 . S
Fe44 O50 2.002 . S
Fe44 O55 1.976 . S
Fe44 O58 1.996 . S
Fe45 O46 1.918 . S
Fe45 O53 1.997 . S
Fe45 O56 1.996 . S
Fe45 O60 1.976 . S
Fe45 O63 2.002 . S
O46 Fe44 1.918 . S
O46 Fe45 1.918 . S
O46 Fe47 1.918 . S
Fe47 O46 1.918 . S
Fe47 O48 2.002 . S
Fe47 O57 1.976 . S
Fe47 O61 1.996 . S
Fe47 O64 1.997 . S
O48 Fe47 2.002 . S
O48 C65 1.295 . S
O49 Fe44 1.997 . S
O49 C65 1.235 . S
O50 Fe44 2.002 . S
O50 C51 1.295 . S
C51 O50 1.295 . S
C51 O53 1.235 . S
C52 O57 1.287 . S
C52 O58 1.255 . S
O53 Fe45 1.997 . S
O53 C51 1.235 . S
C54 O60 1.287 . S
C54 O61 1.255 . S
O55 Fe44 1.976 . S
O55 C62 1.287 . S
O56 Fe45 1.996 . S
O56 C62 1.255 . S
O57 Fe47 1.976 . S
O57 C52 1.287 . S
O58 Fe44 1.996 . S
O58 C52 1.255 . S
C59 O63 1.295 . S
C59 O64 1.235 . S
O60 Fe45 1.976 . S
O60 C54 1.287 . S
O61 Fe47 1.996 . S
O61 C54 1.255 . S
C62 O55 1.287 . S
C62 O56 1.255 . S
O63 Fe45 2.002 . S
O63 C59 1.295 . S
O64 Fe47 1.997 . S
O64 C59 1.235 . S
C65 O48 1.295 . S
C65 O49 1.235 . S
Fe66 O68 1.918 . S
Fe66 O71 1.997 . S
Fe66 O72 2.002 . S
Fe66 O77 1.976 . S
Fe66 O80 1.996 . S
Fe67 O68 1.918 . S
Fe67 O75 1.997 . S
Fe67 O78 1.996 . S
Fe67 O82 1.976 . S
Fe67 O85 2.002 . S
O68 Fe66 1.918 . S
O68 Fe67 1.918 . S
O68 Fe69 1.918 . S
Fe69 O68 1.918 . S
Fe69 O70 2.002 . S
Fe69 O79 1.976 . S
Fe69 O83 1.996 . S
Fe69 O86 1.997 . S
O70 Fe69 2.002 . S
O70 C87 1.295 . S
O71 Fe66 1.997 . S
O71 C87 1.235 . S
O72 Fe66 2.002 . S
O72 C73 1.295 . S
C73 O72 1.295 . S
C73 O75 1.235 . S
C74 O79 1.287 . S
C74 O80 1.255 . S
O75 Fe67 1.997 . S
O75 C73 1.235 . S
C76 O82 1.287 . S
C76 O83 1.255 . S
O77 Fe66 1.976 . S
O77 C84 1.287 . S
O78 Fe67 1.996 . S
O78 C84 1.255 . S
O79 Fe69 1.976 . S
O79 C74 1.287 . S
O80 Fe66 1.996 . S
O80 C74 1.255 . S
C81 O85 1.295 . S
C81 O86 1.235 . S
O82 Fe67 1.976 . S
O82 C76 1.287 . S
O83 Fe69 1.996 . S
O83 C76 1.255 . S
C84 O77 1.287 . S
C84 O78 1.255 . S
O85 Fe67 2.002 . S
O85 C81 1.295 . S
O86 Fe69 1.997 . S
O86 C81 1.235 . S
C87 O70 1.295 . S
C87 O71 1.235 . S
Fe88 O90 1.918 . S
Fe88 O93 1.997 . S
Fe88 O94 2.002 . S
Fe88 O99 1.976 . S
Fe88 O102 1.996 . S
Fe89 O90 1.918 . S
Fe89 O97 1.997 . S
Fe89 O100 1.996 . S
Fe89 O104 1.976 . S
Fe89 O107 2.002 . S
O90 Fe88 1.918 . S
O90 Fe89 1.918 . S
O90 Fe91 1.918 . S
Fe91 O90 1.918 . S
Fe91 O92 2.002 . S
Fe91 O101 1.976 . S
Fe91 O105 1.996 . S
Fe91 O108 1.997 . S
O92 Fe91 2.002 . S
O92 C109 1.295 . S
O93 Fe88 1.997 . S
O93 C109 1.235 . S
O94 Fe88 2.002 . S
O94 C95 1.295 . S
C95 O94 1.295 . S
C95 O97 1.235 . S
C96 O101 1.287 . S
C96 O102 1.255 . S
O97 Fe89 1.997 . S
O97 C95 1.235 . S
C98 O104 1.287 . S
C98 O105 1.255 . S
O99 Fe88 1.976 . S
O99 C106 1.287 . S
O100 Fe89 1.996 . S
O100 C106 1.255 . S
O101 Fe91 1.976 . S
O101 C96 1.287 . S
O102 Fe88 1.996 . S
O102 C96 1.255 . S
C103 O107 1.295 . S
C103 O108 1.235 . S
O104 Fe89 1.976 . S
O104 C98 1.287 . S
O105 Fe91 1.996 . S
O105 C98 1.255 . S
C106 O99 1.287 . S
C106 O100 1.255 . S
O107 Fe89 2.002 . S
O107 C103 1.295 . S
O108 Fe91 1.997 . S
O108 C103 1.235 . S
C109 O92 1.295 . S
C109 O93 1.235 . S
Fe110 O112 1.918 . S
Fe110 O115 1.997 . S
Fe110 O116 2.002 . S
Fe110 O121 1.976 . S
Fe110 O124 1.996 . S
Fe111 O112 1.918 . S
Fe111 O119 1.997 . S
Fe111 O122 1.996 . S
Fe111 O126 1.976 . S
Fe111 O129 2.002 . S
O112 Fe110 1.918 . S
O112 Fe111 1.918 . S
O112 Fe113 1.918 . S
Fe113 O112 1.918 . S
Fe113 O114 2.002 . S
Fe113 O123 1.976 . S
Fe113 O127 1.996 . S
Fe113 O130 1.997 . S
O114 Fe113 2.002 . S
O114 C131 1.295 . S
O115 Fe110 1.997 . S
O115 C131 1.235 . S
O116 Fe110 2.002 . S
O116 C117 1.295 . S
C117 O116 1.295 . S
C117 O119 1.235 . S
C118 O123 1.287 . S
C118 O124 1.255 . S
O119 Fe111 1.997 . S
O119 C117 1.235 . S
C120 O126 1.287 . S
C120 O127 1.255 . S
O121 Fe110 1.976 . S
O121 C128 1.287 . S
O122 Fe111 1.996 . S
O122 C128 1.255 . S
O123 Fe113 1.976 . S
O123 C118 1.287 . S
O124 Fe110 1.996 . S
O124 C118 1.255 . S
C125 O129 1.295 . S
C125 O130 1.235 . S
O126 Fe111 1.976 . S
O126 C120 1.287 . S
O127 Fe113 1.996 . S
O127 C120 1.255 . S
C128 O121 1.287 . S
C128 O122 1.255 . S
O129 Fe111 2.002 . S
O129 C125 1.295 . S
O130 Fe113 1.997 . S
O130 C125 1.235 . S
C131 O114 1.295 . S
C131 O115 1.235 . S
Fe132 O134 1.918 . S
Fe132 O137 1.997 . S
Fe132 O138 2.002 . S
Fe132 O143 1.976 . S
Fe132 O146 1.996 . S
Fe133 O134 1.918 . S
Fe133 O141 1.997 . S
Fe133 O144 1.996 . S
Fe133 O148 1.976 . S
Fe133 O151 2.002 . S
O134 Fe132 1.918 . S
O134 Fe133 1.918 . S
O134 Fe135 1.918 . S
Fe135 O134 1.918 . S
Fe135 O136 2.002 . S
Fe135 O145 1.976 . S
Fe135 O149 1.996 . S
Fe135 O152 1.997 . S
O136 Fe135 2.002 . S
O136 C153 1.295 . S
O137 Fe132 1.997 . S
O137 C153 1.235 . S
O138 Fe132 2.002 . S
O138 C139 1.295 . S
C139 O138 1.295 . S
C139 O141 1.235 . S
C140 O145 1.287 . S
C140 O146 1.255 . S
O141 Fe133 1.997 . S
O141 C139 1.235 . S
C142 O148 1.287 . S
C142 O149 1.255 . S
O143 Fe132 1.976 . S
O143 C150 1.287 . S
O144 Fe133 1.996 . S
O144 C150 1.255 . S
O145 Fe135 1.976 . S
O145 C140 1.287 . S
O146 Fe132 1.996 . S
O146 C140 1.255 . S
C147 O151 1.295 . S
C147 O152 1.235 . S
O148 Fe133 1.976 . S
O148 C142 1.287 . S
O149 Fe135 1.996 . S
O149 C142 1.255 . S
C150 O143 1.287 . S
C150 O144 1.255 . S
O151 Fe133 2.002 . S
O151 C147 1.295 . S
O152 Fe135 1.997 . S
O152 C147 1.235 . S
C153 O136 1.295 . S
C153 O137 1.235 . S
Fe154 O156 1.918 . S
Fe154 O159 1.997 . S
Fe154 O160 2.002 . S
Fe154 O165 1.976 . S
Fe154 O168 1.996 . S
Fe155 O156 1.918 . S
Fe155 O163 1.997 . S
Fe155 O166 1.996 . S
Fe155 O170 1.976 . S
Fe155 O173 2.002 . S
O156 Fe154 1.918 . S
O156 Fe155 1.918 . S
O156 Fe157 1.918 . S
Fe157 O156 1.918 . S
Fe157 O158 2.002 . S
Fe157 O167 1.976 . S
Fe157 O171 1.996 . S
Fe157 O174 1.997 . S
O158 Fe157 2.002 . S
O158 C175 1.295 . S
O159 Fe154 1.997 . S
O159 C175 1.235 . S
O160 Fe154 2.002 . S
O160 C161 1.295 . S
C161 O160 1.295 . S
C161 O163 1.235 . S
C162 O167 1.287 . S
C162 O168 1.255 . S
O163 Fe155 1.997 . S
O163 C161 1.235 . S
C164 O170 1.287 . S
C164 O171 1.255 . S
O165 Fe154 1.976 . S
O165 C172 1.287 . S
O166 Fe155 1.996 . S
O166 C172 1.255 . S
O167 Fe157 1.976 . S
O167 C162 1.287 . S
O168 Fe154 1.996 . S
O168 C162 1.255 . S
C169 O173 1.295 . S
C169 O174 1.235 . S
O170 Fe155 1.976 . S
O170 C164 1.287 . S
O171 Fe157 1.996 . S
O171 C164 1.255 . S
C172 O165 1.287 . S
C172 O166 1.255 . S
O173 Fe155 2.002 . S
O173 C169 1.295 . S
O174 Fe157 1.997 . S
O174 C169 1.235 . S
C175 O158 1.295 . S
C175 O159 1.235 . S
Fe176 O178 1.918 . S
Fe176 O181 1.997 . S
Fe176 O182 2.002 . S
Fe176 O187 1.976 . S
Fe176 O190 1.996 . S
Fe177 O178 1.918 . S
Fe177 O185 1.997 . S
Fe177 O188 1.996 . S
Fe177 O192 1.976 . S
Fe177 O195 2.002 . S
O178 Fe176 1.918 . S
O178 Fe177 1.918 . S
O178 Fe179 1.918 . S
Fe179 O178 1.918 . S
Fe179 O180 2.002 . S
Fe179 O189 1.976 . S
Fe179 O193 1.996 . S
Fe179 O196 1.997 . S
O180 Fe179 2.002 . S
O180 C197 1.295 . S
O181 Fe176 1.997 . S
O181 C197 1.235 . S
O182 Fe176 2.002 . S
O182 C183 1.295 . S
C183 O182 1.295 . S
C183 O185 1.235 . S
C184 O189 1.287 . S
C184 O190 1.255 . S
O185 Fe177 1.997 . S
O185 C183 1.235 . S
C186 O192 1.287 . S
C186 O193 1.255 . S
O187 Fe176 1.976 . S
O187 C194 1.287 . S
O188 Fe177 1.996 . S
O188 C194 1.255 . S
O189 Fe179 1.976 . S
O189 C184 1.287 . S
O190 Fe176 1.996 . S
O190 C184 1.255 . S
C191 O195 1.295 . S
C191 O196 1.235 . S
O192 Fe177 1.976 . S
O192 C186 1.287 . S
O193 Fe179 1.996 . S
O193 C186 1.255 . S
C194 O187 1.287 . S
C194 O188 1.255 . S
O195 Fe177 2.002 . S
O195 C191 1.295 . S
O196 Fe179 1.997 . S
O196 C191 1.235 . S
C197 O180 1.295 . S
C197 O181 1.235 . S
Fe198 O200 1.918 . S
Fe198 O203 1.997 . S
Fe198 O204 2.002 . S
Fe198 O209 1.976 . S
Fe198 O212 1.996 . S
Fe199 O200 1.918 . S
Fe199 O207 1.997 . S
Fe199 O210 1.996 . S
Fe199 O214 1.976 . S
Fe199 O217 2.002 . S
O200 Fe198 1.918 . S
O200 Fe199 1.918 . S
O200 Fe201 1.918 . S
Fe201 O200 1.918 . S
Fe201 O202 2.002 . S
Fe201 O211 1.976 . S
Fe201 O215 1.996 . S
Fe201 O218 1.997 . S
O202 Fe201 2.002 . S
O202 C219 1.295 . S
O203 Fe198 1.997 . S
O203 C219 1.235 . S
O204 Fe198 2.002 . S
O204 C205 1.295 . S
C205 O204 1.295 . S
C205 O207 1.235 . S
C206 O211 1.287 . S
C206 O212 1.255 . S
O207 Fe199 1.997 . S
O207 C205 1.235 . S
C208 O214 1.287 . S
C208 O215 1.255 . S
O209 Fe198 1.976 . S
O209 C216 1.287 . S
O210 Fe199 1.996 . S
O210 C216 1.255 . S
O211 Fe201 1.976 . S
O211 C206 1.287 . S
O212 Fe198 1.996 . S
O212 C206 1.255 . S
C213 O217 1.295 . S
C213 O218 1.235 . S
O214 Fe199 1.976 . S
O214 C208 1.287 . S
O215 Fe201 1.996 . S
O215 C208 1.255 . S
C216 O209 1.287 . S
C216 O210 1.255 . S
O217 Fe199 2.002 . S
O217 C213 1.295 . S
O218 Fe201 1.997 . S
O218 C213 1.235 . S
C219 O202 1.295 . S
C219 O203 1.235 . S
Fe220 O222 1.918 . S
Fe220 O225 1.997 . S
Fe220 O226 2.002 . S
Fe220 O231 1.976 . S
Fe220 O234 1.996 . S
Fe221 O222 1.918 . S
Fe221 O229 1.997 . S
Fe221 O232 1.996 . S
Fe221 O236 1.976 . S
Fe221 O239 2.002 . S
O222 Fe220 1.918 . S
O222 Fe221 1.918 . S
O222 Fe223 1.918 . S
Fe223 O222 1.918 . S
Fe223 O224 2.002 . S
Fe223 O233 1.976 . S
Fe223 O237 1.996 . S
Fe223 O240 1.997 . S
O224 Fe223 2.002 . S
O224 C241 1.295 . S
O225 Fe220 1.997 . S
O225 C241 1.235 . S
O226 Fe220 2.002 . S
O226 C227 1.295 . S
C227 O226 1.295 . S
C227 O229 1.235 . S
C228 O233 1.287 . S
C228 O234 1.255 . S
O229 Fe221 1.997 . S
O229 C227 1.235 . S
C230 O236 1.287 . S
C230 O237 1.255 . S
O231 Fe220 1.976 . S
O231 C238 1.287 . S
O232 Fe221 1.996 . S
O232 C238 1.255 . S
O233 Fe223 1.976 . S
O233 C228 1.287 . S
O234 Fe220 1.996 . S
O234 C228 1.255 . S
C235 O239 1.295 . S
C235 O240 1.235 . S
O236 Fe221 1.976 . S
O236 C230 1.287 . S
O237 Fe223 1.996 . S
O237 C230 1.255 . S
C238 O231 1.287 . S
C238 O232 1.255 . S
O239 Fe221 2.002 . S
O239 C235 1.295 . S
O240 Fe223 1.997 . S
O240 C235 1.235 . S
C241 O224 1.295 . S
C241 O225 1.235 . S
Fe242 O244 1.918 . S
Fe242 O247 1.997 . S
Fe242 O248 2.002 . S
Fe242 O253 1.976 . S
Fe242 O256 1.996 . S
Fe243 O244 1.918 . S
Fe243 O251 1.997 . S
Fe243 O254 1.996 . S
Fe243 O258 1.976 . S
Fe243 O261 2.002 . S
O244 Fe242 1.918 . S
O244 Fe243 1.918 . S
O244 Fe245 1.918 . S
Fe245 O244 1.918 . S
Fe245 O246 2.002 . S
Fe245 O255 1.976 . S
Fe245 O259 1.996 . S
Fe245 O262 1.997 . S
O246 Fe245 2.002 . S
O246 C263 1.295 . S
O247 Fe242 1.997 . S
O247 C263 1.235 . S
O248 Fe242 2.002 . S
O248 C249 1.295 . S
C249 O248 1.295 . S
C249 O251 1.235 . S
C250 O255 1.287 . S
C250 O256 1.255 . S
O251 Fe243 1.997 . S
O251 C249 1.235 . S
C252 O258 1.287 . S
C252 O259 1.255 . S
O253 Fe242 1.976 . S
O253 C260 1.287 . S
O254 Fe243 1.996 . S
O254 C260 1.255 . S
O255 Fe245 1.976 . S
O255 C250 1.287 . S
O256 Fe242 1.996 . S
O256 C250 1.255 . S
C257 O261 1.295 . S
C257 O262 1.235 . S
O258 Fe243 1.976 . S
O258 C252 1.287 . S
O259 Fe245 1.996 . S
O259 C252 1.255 . S
C260 O253 1.287 . S
C260 O254 1.255 . S
O261 Fe243 2.002 . S
O261 C257 1.295 . S
O262 Fe245 1.997 . S
O262 C257 1.235 . S
C263 O246 1.295 . S
C263 O247 1.235 . S
Fe264 O266 1.918 . S
Fe264 O269 1.997 . S
Fe264 O270 2.002 . S
Fe264 O275 1.976 . S
Fe264 O278 1.996 . S
Fe265 O266 1.918 . S
Fe265 O273 1.997 . S
Fe265 O276 1.996 . S
Fe265 O280 1.976 . S
Fe265 O283 2.002 . S
O266 Fe264 1.918 . S
O266 Fe265 1.918 . S
O266 Fe267 1.918 . S
Fe267 O266 1.918 . S
Fe267 O268 2.002 . S
Fe267 O277 1.976 . S
Fe267 O281 1.996 . S
Fe267 O284 1.997 . S
O268 Fe267 2.002 . S
O268 C285 1.295 . S
O269 Fe264 1.997 . S
O269 C285 1.235 . S
O270 Fe264 2.002 . S
O270 C271 1.295 . S
C271 O270 1.295 . S
C271 O273 1.235 . S
C272 O277 1.287 . S
C272 O278 1.255 . S
O273 Fe265 1.997 . S
O273 C271 1.235 . S
C274 O280 1.287 . S
C274 O281 1.255 . S
O275 Fe264 1.976 . S
O275 C282 1.287 . S
O276 Fe265 1.996 . S
O276 C282 1.255 . S
O277 Fe267 1.976 . S
O277 C272 1.287 . S
O278 Fe264 1.996 . S
O278 C272 1.255 . S
C279 O283 1.295 . S
C279 O284 1.235 . S
O280 Fe265 1.976 . S
O280 C274 1.287 . S
O281 Fe267 1.996 . S
O281 C274 1.255 . S
C282 O275 1.287 . S
C282 O276 1.255 . S
O283 Fe265 2.002 . S
O283 C279 1.295 . S
O284 Fe267 1.997 . S
O284 C279 1.235 . S
C285 O268 1.295 . S
C285 O269 1.235 . S
Fe286 O288 1.918 . S
Fe286 O291 1.997 . S
Fe286 O292 2.002 . S
Fe286 O297 1.976 . S
Fe286 O300 1.996 . S
Fe287 O288 1.918 . S
Fe287 O295 1.997 . S
Fe287 O298 1.996 . S
Fe287 O302 1.976 . S
Fe287 O305 2.002 . S
O288 Fe286 1.918 . S
O288 Fe287 1.918 . S
O288 Fe289 1.918 . S
Fe289 O288 1.918 . S
Fe289 O290 2.002 . S
Fe289 O299 1.976 . S
Fe289 O303 1.996 . S
Fe289 O306 1.997 . S
O290 Fe289 2.002 . S
O290 C307 1.295 . S
O291 Fe286 1.997 . S
O291 C307 1.235 . S
O292 Fe286 2.002 . S
O292 C293 1.295 . S
C293 O292 1.295 . S
C293 O295 1.235 . S
C294 O299 1.287 . S
C294 O300 1.255 . S
O295 Fe287 1.997 . S
O295 C293 1.235 . S
C296 O302 1.287 . S
C296 O303 1.255 . S
O297 Fe286 1.976 . S
O297 C304 1.287 . S
O298 Fe287 1.996 . S
O298 C304 1.255 . S
O299 Fe289 1.976 . S
O299 C294 1.287 . S
O300 Fe286 1.996 . S
O300 C294 1.255 . S
C301 O305 1.295 . S
C301 O306 1.235 . S
O302 Fe287 1.976 . S
O302 C296 1.287 . S
O303 Fe289 1.996 . S
O303 C296 1.255 . S
C304 O297 1.287 . S
C304 O298 1.255 . S
O305 Fe287 2.002 . S
O305 C301 1.295 . S
O306 Fe289 1.997 . S
O306 C301 1.235 . S
C307 O290 1.295 . S
C307 O291 1.235 . S
Fe308 O310 1.918 . S
Fe308 O313 1.997 . S
Fe308 O314 2.002 . S
Fe308 O319 1.976 . S
Fe308 O322 1.996 . S
Fe309 O310 1.918 . S
Fe309 O317 1.997 . S
Fe309 O320 1.996 . S
Fe309 O324 1.976 . S
Fe309 O327 2.002 . S
O310 Fe308 1.918 . S
O310 Fe309 1.918 . S
O310 Fe311 1.918 . S
Fe311 O310 1.918 . S
Fe311 O312 2.002 . S
Fe311 O321 1.976 . S
Fe311 O325 1.996 . S
Fe311 O328 1.997 . S
O312 Fe311 2.002 . S
O312 C329 1.295 . S
O313 Fe308 1.997 . S
O313 C329 1.235 . S
O314 Fe308 2.002 . S
O314 C315 1.295 . S
C315 O314 1.295 . S
C315 O317 1.235 . S
C316 O321 1.287 . S
C316 O322 1.255 . S
O317 Fe309 1.997 . S
O317 C315 1.235 . S
C318 O324 1.287 . S
C318 O325 1.255 . S
O319 Fe308 1.976 . S
O319 C326 1.287 . S
O320 Fe309 1.996 . S
O320 C326 1.255 . S
O321 Fe311 1.976 . S
O321 C316 1.287 . S
O322 Fe308 1.996 . S
O322 C316 1.255 . S
C323 O327 1.295 . S
C323 O328 1.235 . S
O324 Fe309 1.976 . S
O324 C318 1.287 . S
O325 Fe311 1.996 . S
O325 C318 1.255 . S
C326 O319 1.287 . S
C326 O320 1.255 . S
O327 Fe309 2.002 . S
O327 C323 1.295 . S
O328 Fe311 1.997 . S
O328 C323 1.235 . S
C329 O312 1.295 . S
C329 O313 1.235 . S
Fe330 O332 1.918 . S
Fe330 O335 1.997 . S
Fe330 O336 2.002 . S
Fe330 O341 1.976 . S
Fe330 O344 1.996 . S
Fe331 O332 1.918 . S
Fe331 O339 1.997 . S
Fe331 O342 1.996 . S
Fe331 O346 1.976 . S
Fe331 O349 2.002 . S
O332 Fe330 1.918 . S
O332 Fe331 1.918 . S
O332 Fe333 1.918 . S
Fe333 O332 1.918 . S
Fe333 O334 2.002 . S
Fe333 O343 1.976 . S
Fe333 O347 1.996 . S
Fe333 O350 1.997 . S
O334 Fe333 2.002 . S
O334 C351 1.295 . S
O335 Fe330 1.997 . S
O335 C351 1.235 . S
O336 Fe330 2.002 . S
O336 C337 1.295 . S
C337 O336 1.295 . S
C337 O339 1.235 . S
C338 O343 1.287 . S
C338 O344 1.255 . S
O339 Fe331 1.997 . S
O339 C337 1.235 . S
C340 O346 1.287 . S
C340 O347 1.255 . S
O341 Fe330 1.976 . S
O341 C348 1.287 . S
O342 Fe331 1.996 . S
O342 C348 1.255 . S
O343 Fe333 1.976 . S
O343 C338 1.287 . S
O344 Fe330 1.996 . S
O344 C338 1.255 . S
C345 O349 1.295 . S
C345 O350 1.235 . S
O346 Fe331 1.976 . S
O346 C340 1.287 . S
O347 Fe333 1.996 . S
O347 C340 1.255 . S
C348 O341 1.287 . S
C348 O342 1.255 . S
O349 Fe331 2.002 . S
O349 C345 1.295 . S
O350 Fe333 1.997 . S
O350 C345 1.235 . S
C351 O334 1.295 . S
C351 O335 1.235 . S
H352 C360 0.950 . S
H353 C365 0.950 . S
H354 C362 0.950 . S
H355 C364 0.950 . S
H356 C366 0.950 . S
H357 C368 0.950 . S
H358 C370 0.950 . S
H359 C371 0.950 . S
C360 H352 0.950 . S
C360 C361 1.386 . S
C360 C362 1.391 . S
C361 C360 1.386 . S
C361 C365 1.393 . S
C362 H354 0.950 . S
C362 C360 1.391 . S
C362 C363 1.400 . S
C363 C362 1.400 . S
C363 C364 1.398 . S
C363 C369 1.491 . S
C364 H355 0.950 . S
C364 C363 1.398 . S
C364 C365 1.391 . S
C365 H353 0.950 . S
C365 C361 1.393 . S
C365 C364 1.391 . S
C366 H356 0.950 . S
C366 C367 1.386 . S
C366 C368 1.391 . S
C367 C366 1.386 . S
C367 C371 1.393 . S
C368 H357 0.950 . S
C368 C366 1.391 . S
C368 C369 1.400 . S
C369 C363 1.491 . S
C369 C368 1.400 . S
C369 C370 1.398 . S
C370 H358 0.950 . S
C370 C369 1.398 . S
C370 C371 1.391 . S
C371 H359 0.950 . S
C371 C367 1.393 . S
C371 C370 1.391 . S
H372 C380 0.950 . S
H373 C385 0.950 . S
H374 C382 0.950 . S
H375 C384 0.950 . S
H376 C386 0.950 . S
H377 C388 0.950 . S
H378 C390 0.950 . S
H379 C391 0.950 . S
C380 H372 0.950 . S
C380 C381 1.386 . S
C380 C382 1.391 . S
C381 C380 1.386 . S
C381 C385 1.393 . S
C382 H374 0.950 . S
C382 C380 1.391 . S
C382 C383 1.400 . S
C383 C382 1.400 . S
C383 C384 1.398 . S
C383 C389 1.491 . S
C384 H375 0.950 . S
C384 C383 1.398 . S
C384 C385 1.391 . S
C385 H373 0.950 . S
C385 C381 1.393 . S
C385 C384 1.391 . S
C386 H376 0.950 . S
C386 C387 1.386 . S
C386 C388 1.391 . S
C387 C386 1.386 . S
C387 C391 1.393 . S
C388 H377 0.950 . S
C388 C386 1.391 . S
C388 C389 1.400 . S
C389 C383 1.491 . S
C389 C388 1.400 . S
C389 C390 1.398 . S
C390 H378 0.950 . S
C390 C389 1.398 . S
C390 C391 1.391 . S
C391 H379 0.950 . S
C391 C387 1.393 . S
C391 C390 1.391 . S
H392 C400 0.950 . S
H393 C405 0.950 . S
H394 C402 0.950 . S
H395 C404 0.950 . S
H396 C406 0.950 . S
H397 C408 0.950 . S
H398 C410 0.950 . S
H399 C411 0.950 . S
C400 H392 0.950 . S
C400 C401 1.386 . S
C400 C402 1.391 . S
C401 C400 1.386 . S
C401 C405 1.393 . S
C402 H394 0.950 . S
C402 C400 1.391 . S
C402 C403 1.400 . S
C403 C402 1.400 . S
C403 C404 1.398 . S
C403 C409 1.491 . S
C404 H395 0.950 . S
C404 C403 1.398 . S
C404 C405 1.391 . S
C405 H393 0.950 . S
C405 C401 1.393 . S
C405 C404 1.391 . S
C406 H396 0.950 . S
C406 C407 1.386 . S
C406 C408 1.391 . S
C407 C406 1.386 . S
C407 C411 1.393 . S
C408 H397 0.950 . S
C408 C406 1.391 . S
C408 C409 1.400 . S
C409 C403 1.491 . S
C409 C408 1.400 . S
C409 C410 1.398 . S
C410 H398 0.950 . S
C410 C409 1.398 . S
C410 C411 1.391 . S
C411 H399 0.950 . S
C411 C407 1.393 . S
C411 C410 1.391 . S
H412 C420 0.950 . S
H413 C425 0.950 . S
H414 C422 0.950 . S
H415 C424 0.950 . S
H416 C426 0.950 . S
H417 C428 0.950 . S
H418 C430 0.950 . S
H419 C431 0.950 . S
C420 H412 0.950 . S
C420 C421 1.386 . S
C420 C422 1.391 . S
C421 C420 1.386 . S
C421 C425 1.393 . S
C422 H414 0.950 . S
C422 C420 1.391 . S
C422 C423 1.400 . S
C423 C422 1.400 . S
C423 C424 1.398 . S
C423 C429 1.491 . S
C424 H415 0.950 . S
C424 C423 1.398 . S
C424 C425 1.391 . S
C425 H413 0.950 . S
C425 C421 1.393 . S
C425 C424 1.391 . S
C426 H416 0.950 . S
C426 C427 1.386 . S
C426 C428 1.391 . S
C427 C426 1.386 . S
C427 C431 1.393 . S
C428 H417 0.950 . S
C428 C426 1.391 . S
C428 C429 1.400 . S
C429 C423 1.491 . S
C429 C428 1.400 . S
C429 C430 1.398 . S
C430 H418 0.950 . S
C430 C429 1.398 . S
C430 C431 1.391 . S
C431 H419 0.950 . S
C431 C427 1.393 . S
C431 C430 1.391 . S
H432 C440 0.950 . S
H433 C445 0.950 . S
H434 C442 0.950 . S
H435 C444 0.950 . S
H436 C446 0.950 . S
H437 C448 0.950 . S
H438 C450 0.950 . S
H439 C451 0.950 . S
C440 H432 0.950 . S
C440 C441 1.386 . S
C440 C442 1.391 . S
C441 C440 1.386 . S
C441 C445 1.393 . S
C442 H434 0.950 . S
C442 C440 1.391 . S
C442 C443 1.400 . S
C443 C442 1.400 . S
C443 C444 1.398 . S
C443 C449 1.491 . S
C444 H435 0.950 . S
C444 C443 1.398 . S
C444 C445 1.391 . S
C445 H433 0.950 . S
C445 C441 1.393 . S
C445 C444 1.391 . S
C446 H436 0.950 . S
C446 C447 1.386 . S
C446 C448 1.391 . S
C447 C446 1.386 . S
C447 C451 1.393 . S
C448 H437 0.950 . S
C448 C446 1.391 . S
C448 C449 1.400 . S
C449 C443 1.491 . S
C449 C448 1.400 . S
C449 C450 1.398 . S
C450 H438 0.950 . S
C450 C449 1.398 . S
C450 C451 1.391 . S
C451 H439 0.950 . S
C451 C447 1.393 . S
C451 C450 1.391 . S
H452 C460 0.950 . S
H453 C465 0.950 . S
H454 C462 0.950 . S
H455 C464 0.950 . S
H456 C466 0.950 . S
H457 C468 0.950 . S
H458 C470 0.950 . S
H459 C471 0.950 . S
C460 H452 0.950 . S
C460 C461 1.386 . S
C460 C462 1.391 . S
C461 C460 1.386 . S
C461 C465 1.393 . S
C462 H454 0.950 . S
C462 C460 1.391 . S
C462 C463 1.400 . S
C463 C462 1.400 . S
C463 C464 1.398 . S
C463 C469 1.491 . S
C464 H455 0.950 . S
C464 C463 1.398 . S
C464 C465 1.391 . S
C465 H453 0.950 . S
C465 C461 1.393 . S
C465 C464 1.391 . S
C466 H456 0.950 . S
C466 C467 1.386 . S
C466 C468 1.391 . S
C467 C466 1.386 . S
C467 C471 1.393 . S
C468 H457 0.950 . S
C468 C466 1.391 . S
C468 C469 1.400 . S
C469 C463 1.491 . S
C469 C468 1.400 . S
C469 C470 1.398 . S
C470 H458 0.950 . S
C470 C469 1.398 . S
C470 C471 1.391 . S
C471 H459 0.950 . S
C471 C467 1.393 . S
C471 C470 1.391 . S
H472 C480 0.950 . S
H473 C485 0.950 . S
H474 C482 0.950 . S
H475 C484 0.950 . S
H476 C486 0.950 . S
H477 C488 0.950 . S
H478 C490 0.950 . S
H479 C491 0.950 . S
C480 H472 0.950 . S
C480 C481 1.386 . S
C480 C482 1.391 . S
C481 C480 1.386 . S
C481 C485 1.393 . S
C482 H474 0.950 . S
C482 C480 1.391 . S
C482 C483 1.400 . S
C483 C482 1.400 . S
C483 C484 1.398 . S
C483 C489 1.491 . S
C484 H475 0.950 . S
C484 C483 1.398 . S
C484 C485 1.391 . S
C485 H473 0.950 . S
C485 C481 1.393 . S
C485 C484 1.391 . S
C486 H476 0.950 . S
C486 C487 1.386 . S
C486 C488 1.391 . S
C487 C486 1.386 . S
C487 C491 1.393 . S
C488 H477 0.950 . S
C488 C486 1.391 . S
C488 C489 1.400 . S
C489 C483 1.491 . S
C489 C488 1.400 . S
C489 C490 1.398 . S
C490 H478 0.950 . S
C490 C489 1.398 . S
C490 C491 1.391 . S
C491 H479 0.950 . S
C491 C487 1.393 . S
C491 C490 1.391 . S
H492 C500 0.950 . S
H493 C505 0.950 . S
H494 C502 0.950 . S
H495 C504 0.950 . S
H496 C506 0.950 . S
H497 C508 0.950 . S
H498 C510 0.950 . S
H499 C511 0.950 . S
C500 H492 0.950 . S
C500 C501 1.386 . S
C500 C502 1.391 . S
C501 C500 1.386 . S
C501 C505 1.393 . S
C502 H494 0.950 . S
C502 C500 1.391 . S
C502 C503 1.400 . S
C503 C502 1.400 . S
C503 C504 1.398 . S
C503 C509 1.491 . S
C504 H495 0.950 . S
C504 C503 1.398 . S
C504 C505 1.391 . S
C505 H493 0.950 . S
C505 C501 1.393 . S
C505 C504 1.391 . S
C506 H496 0.950 . S
C506 C507 1.386 . S
C506 C508 1.391 . S
C507 C506 1.386 . S
C507 C511 1.393 . S
C508 H497 0.950 . S
C508 C506 1.391 . S
C508 C509 1.400 . S
C509 C503 1.491 . S
C509 C508 1.400 . S
C509 C510 1.398 . S
C510 H498 0.950 . S
C510 C509 1.398 . S
C510 C511 1.391 . S
C511 H499 0.950 . S
C511 C507 1.393 . S
C511 C510 1.391 . S
H512 C520 0.950 . S
H513 C525 0.950 . S
H514 C522 0.950 . S
H515 C524 0.950 . S
H516 C526 0.950 . S
H517 C528 0.950 . S
H518 C530 0.950 . S
H519 C531 0.950 . S
C520 H512 0.950 . S
C520 C521 1.386 . S
C520 C522 1.391 . S
C521 C520 1.386 . S
C521 C525 1.393 . S
C522 H514 0.950 . S
C522 C520 1.391 . S
C522 C523 1.400 . S
C523 C522 1.400 . S
C523 C524 1.398 . S
C523 C529 1.491 . S
C524 H515 0.950 . S
C524 C523 1.398 . S
C524 C525 1.391 . S
C525 H513 0.950 . S
C525 C521 1.393 . S
C525 C524 1.391 . S
C526 H516 0.950 . S
C526 C527 1.386 . S
C526 C528 1.391 . S
C527 C526 1.386 . S
C527 C531 1.393 . S
C528 H517 0.950 . S
C528 C526 1.391 . S
C528 C529 1.400 . S
C529 C523 1.491 . S
C529 C528 1.400 . S
C529 C530 1.398 . S
C530 H518 0.950 . S
C530 C529 1.398 . S
C530 C531 1.391 . S
C531 H519 0.950 . S
C531 C527 1.393 . S
C531 C530 1.391 . S
H532 C540 0.950 . S
H533 C545 0.950 . S
H534 C542 0.950 . S
H535 C544 0.950 . S
H536 C546 0.950 . S
H537 C548 0.950 . S
H538 C550 0.950 . S
H539 C551 0.950 . S
C540 H532 0.950 . S
C540 C541 1.386 . S
C540 C542 1.391 . S
C541 C540 1.386 . S
C541 C545 1.393 . S
C542 H534 0.950 . S
C542 C540 1.391 . S
C542 C543 1.400 . S
C543 C542 1.400 . S
C543 C544 1.398 . S
C543 C549 1.491 . S
C544 H535 0.950 . S
C544 C543 1.398 . S
C544 C545 1.391 . S
C545 H533 0.950 . S
C545 C541 1.393 . S
C545 C544 1.391 . S
C546 H536 0.950 . S
C546 C547 1.386 . S
C546 C548 1.391 . S
C547 C546 1.386 . S
C547 C551 1.393 . S
C548 H537 0.950 . S
C548 C546 1.391 . S
C548 C549 1.400 . S
C549 C543 1.491 . S
C549 C548 1.400 . S
C549 C550 1.398 . S
C550 H538 0.950 . S
C550 C549 1.398 . S
C550 C551 1.391 . S
C551 H539 0.950 . S
C551 C547 1.393 . S
C551 C550 1.391 . S
H552 C560 0.950 . S
H553 C565 0.950 . S
H554 C562 0.950 . S
H555 C564 0.950 . S
H556 C566 0.950 . S
H557 C568 0.950 . S
H558 C570 0.950 . S
H559 C571 0.950 . S
C560 H552 0.950 . S
C560 C561 1.386 . S
C560 C562 1.391 . S
C561 C560 1.386 . S
C561 C565 1.393 . S
C562 H554 0.950 . S
C562 C560 1.391 . S
C562 C563 1.400 . S
C563 C562 1.400 . S
C563 C564 1.398 . S
C563 C569 1.491 . S
C564 H555 0.950 . S
C564 C563 1.398 . S
C564 C565 1.391 . S
C565 H553 0.950 . S
C565 C561 1.393 . S
C565 C564 1.391 . S
C566 H556 0.950 . S
C566 C567 1.386 . S
C566 C568 1.391 . S
C567 C566 1.386 . S
C567 C571 1.393 . S
C568 H557 0.950 . S
C568 C566 1.391 . S
C568 C569 1.400 . S
C569 C563 1.491 . S
C569 C568 1.400 . S
C569 C570 1.398 . S
C570 H558 0.950 . S
C570 C569 1.398 . S
C570 C571 1.391 . S
C571 H559 0.950 . S
C571 C567 1.393 . S
C571 C570 1.391 . S
H572 C580 0.950 . S
H573 C585 0.950 . S
H574 C582 0.950 . S
H575 C584 0.950 . S
H576 C586 0.950 . S
H577 C588 0.950 . S
H578 C590 0.950 . S
H579 C591 0.950 . S
C580 H572 0.950 . S
C580 C581 1.386 . S
C580 C582 1.391 . S
C581 C580 1.386 . S
C581 C585 1.393 . S
C582 H574 0.950 . S
C582 C580 1.391 . S
C582 C583 1.400 . S
C583 C582 1.400 . S
C583 C584 1.398 . S
C583 C589 1.491 . S
C584 H575 0.950 . S
C584 C583 1.398 . S
C584 C585 1.391 . S
C585 H573 0.950 . S
C585 C581 1.393 . S
C585 C584 1.391 . S
C586 H576 0.950 . S
C586 C587 1.386 . S
C586 C588 1.391 . S
C587 C586 1.386 . S
C587 C591 1.393 . S
C588 H577 0.950 . S
C588 C586 1.391 . S
C588 C589 1.400 . S
C589 C583 1.491 . S
C589 C588 1.400 . S
C589 C590 1.398 . S
C590 H578 0.950 . S
C590 C589 1.398 . S
C590 C591 1.391 . S
C591 H579 0.950 . S
C591 C587 1.393 . S
C591 C590 1.391 . S
H592 C600 0.950 . S
H593 C605 0.950 . S
H594 C602 0.950 . S
H595 C604 0.950 . S
H596 C606 0.950 . S
H597 C608 0.950 . S
H598 C610 0.950 . S
H599 C611 0.950 . S
C600 H592 0.950 . S
C600 C601 1.386 . S
C600 C602 1.391 . S
C601 C600 1.386 . S
C601 C605 1.393 . S
C602 H594 0.950 . S
C602 C600 1.391 . S
C602 C603 1.400 . S
C603 C602 1.400 . S
C603 C604 1.398 . S
C603 C609 1.491 . S
C604 H595 0.950 . S
C604 C603 1.398 . S
C604 C605 1.391 . S
C605 H593 0.950 . S
C605 C601 1.393 . S
C605 C604 1.391 . S
C606 H596 0.950 . S
C606 C607 1.386 . S
C606 C608 1.391 . S
C607 C606 1.386 . S
C607 C611 1.393 . S
C608 H597 0.950 . S
C608 C606 1.391 . S
C608 C609 1.400 . S
C609 C603 1.491 . S
C609 C608 1.400 . S
C609 C610 1.398 . S
C610 H598 0.950 . S
C610 C609 1.398 . S
C610 C611 1.391 . S
C611 H599 0.950 . S
C611 C607 1.393 . S
C611 C610 1.391 . S
H612 C620 0.950 . S
H613 C625 0.950 . S
H614 C622 0.950 . S
H615 C624 0.950 . S
H616 C626 0.950 . S
H617 C628 0.950 . S
H618 C630 0.950 . S
H619 C631 0.950 . S
C620 H612 0.950 . S
C620 C621 1.386 . S
C620 C622 1.391 . S
C621 C620 1.386 . S
C621 C625 1.393 . S
C622 H614 0.950 . S
C622 C620 1.391 . S
C622 C623 1.400 . S
C623 C622 1.400 . S
C623 C624 1.398 . S
C623 C629 1.491 . S
C624 H615 0.950 . S
C624 C623 1.398 . S
C624 C625 1.391 . S
C625 H613 0.950 . S
C625 C621 1.393 . S
C625 C624 1.391 . S
C626 H616 0.950 . S
C626 C627 1.386 . S
C626 C628 1.391 . S
C627 C626 1.386 . S
C627 C631 1.393 . S
C628 H617 0.950 . S
C628 C626 1.391 . S
C628 C629 1.400 . S
C629 C623 1.491 . S
C629 C628 1.400 . S
C629 C630 1.398 . S
C630 H618 0.950 . S
C630 C629 1.398 . S
C630 C631 1.391 . S
C631 H619 0.950 . S
C631 C627 1.393 . S
C631 C630 1.391 . S
H632 C640 0.950 . S
H633 C645 0.950 . S
H634 C642 0.950 . S
H635 C644 0.950 . S
H636 C646 0.950 . S
H637 C648 0.950 . S
H638 C650 0.950 . S
H639 C651 0.950 . S
C640 H632 0.950 . S
C640 C641 1.386 . S
C640 C642 1.391 . S
C641 C640 1.386 . S
C641 C645 1.393 . S
C642 H634 0.950 . S
C642 C640 1.391 . S
C642 C643 1.400 . S
C643 C642 1.400 . S
C643 C644 1.398 . S
C643 C649 1.491 . S
C644 H635 0.950 . S
C644 C643 1.398 . S
C644 C645 1.391 . S
C645 H633 0.950 . S
C645 C641 1.393 . S
C645 C644 1.391 . S
C646 H636 0.950 . S
C646 C647 1.386 . S
C646 C648 1.391 . S
C647 C646 1.386 . S
C647 C651 1.393 . S
C648 H637 0.950 . S
C648 C646 1.391 . S
C648 C649 1.400 . S
C649 C643 1.491 . S
C649 C648 1.400 . S
C649 C650 1.398 . S
C650 H638 0.950 . S
C650 C649 1.398 . S
C650 C651 1.391 . S
C651 H639 0.950 . S
C651 C647 1.393 . S
C651 C650 1.391 . S
H652 C660 0.950 . S
H653 C665 0.950 . S
H654 C662 0.950 . S
H655 C664 0.950 . S
H656 C666 0.950 . S
H657 C668 0.950 . S
H658 C670 0.950 . S
H659 C671 0.950 . S
C660 H652 0.950 . S
C660 C661 1.386 . S
C660 C662 1.391 . S
C661 C660 1.386 . S
C661 C665 1.393 . S
C662 H654 0.950 . S
C662 C660 1.391 . S
C662 C663 1.400 . S
C663 C662 1.400 . S
C663 C664 1.398 . S
C663 C669 1.491 . S
C664 H655 0.950 . S
C664 C663 1.398 . S
C664 C665 1.391 . S
C665 H653 0.950 . S
C665 C661 1.393 . S
C665 C664 1.391 . S
C666 H656 0.950 . S
C666 C667 1.386 . S
C666 C668 1.391 . S
C667 C666 1.386 . S
C667 C671 1.393 . S
C668 H657 0.950 . S
C668 C666 1.391 . S
C668 C669 1.400 . S
C669 C663 1.491 . S
C669 C668 1.400 . S
C669 C670 1.398 . S
C670 H658 0.950 . S
C670 C669 1.398 . S
C670 C671 1.391 . S
C671 H659 0.950 . S
C671 C667 1.393 . S
C671 C670 1.391 . S
H672 C680 0.950 . S
H673 C685 0.950 . S
H674 C682 0.950 . S
H675 C684 0.950 . S
H676 C686 0.950 . S
H677 C688 0.950 . S
H678 C690 0.950 . S
H679 C691 0.950 . S
C680 H672 0.950 . S
C680 C681 1.386 . S
C680 C682 1.391 1_554 S
C681 C680 1.386 . S
C681 C685 1.393 . S
C682 H674 0.950 . S
C682 C680 1.391 1_556 S
C682 C683 1.400 . S
C683 C682 1.400 . S
C683 C684 1.398 1_556 S
C683 C689 1.491 . S
C684 H675 0.950 . S
C684 C683 1.398 1_554 S
C684 C685 1.391 . S
C685 H673 0.950 . S
C685 C681 1.393 . S
C685 C684 1.391 . S
C686 H676 0.950 . S
C686 C687 1.386 . S
C686 C688 1.391 . S
C687 C686 1.386 . S
C687 C691 1.393 . S
C688 H677 0.950 . S
C688 C686 1.391 . S
C688 C689 1.400 . S
C689 C683 1.491 . S
C689 C688 1.400 . S
C689 C690 1.398 . S
C690 H678 0.950 . S
C690 C689 1.398 . S
C690 C691 1.391 . S
C691 H679 0.950 . S
C691 C687 1.393 . S
C691 C690 1.391 . S
H692 C700 0.950 . S
H693 C705 0.950 . S
H694 C702 0.950 . S
H695 C704 0.950 . S
H696 C706 0.950 . S
H697 C708 0.950 . S
H698 C710 0.950 . S
H699 C711 0.950 . S
C700 H692 0.950 . S
C700 C701 1.386 . S
C700 C702 1.391 . S
C701 C700 1.386 . S
C701 C705 1.393 . S
C702 H694 0.950 . S
C702 C700 1.391 . S
C702 C703 1.400 . S
C703 C702 1.400 . S
C703 C704 1.398 . S
C703 C709 1.491 . S
C704 H695 0.950 . S
C704 C703 1.398 . S
C704 C705 1.391 . S
C705 H693 0.950 . S
C705 C701 1.393 . S
C705 C704 1.391 . S
C706 H696 0.950 . S
C706 C707 1.386 . S
C706 C708 1.391 . S
C707 C706 1.386 . S
C707 C711 1.393 . S
C708 H697 0.950 . S
C708 C706 1.391 . S
C708 C709 1.400 . S
C709 C703 1.491 . S
C709 C708 1.400 . S
C709 C710 1.398 . S
C710 H698 0.950 . S
C710 C709 1.398 . S
C710 C711 1.391 . S
C711 H699 0.950 . S
C711 C707 1.393 . S
C711 C710 1.391 . S
H712 C720 0.950 . S
H713 C725 0.950 . S
H714 C722 0.949 . S
H715 C724 0.957 . S
H716 C726 0.950 . S
H717 C728 0.950 . S
H718 C730 0.950 . S
H719 C731 0.950 . S
C720 H712 0.950 . S
C720 C721 1.386 . S
C720 C722 1.393 1_554 S
C721 C720 1.386 . S
C721 C725 1.393 . S
C722 H714 0.949 . S
C722 C720 1.393 1_556 S
C722 C723 1.399 . S
C723 C722 1.399 . S
C723 C724 1.406 . S
C723 C729 1.491 . S
C724 H715 0.957 . S
C724 C723 1.406 . S
C724 C725 1.377 1_556 S
C725 H713 0.950 . S
C725 C721 1.393 . S
C725 C724 1.377 1_554 S
C726 H716 0.950 . S
C726 C727 1.386 . S
C726 C728 1.391 . S
C727 C726 1.386 . S
C727 C731 1.393 . S
C728 H717 0.950 . S
C728 C726 1.391 . S
C728 C729 1.400 . S
C729 C723 1.491 . S
C729 C728 1.400 . S
C729 C730 1.398 . S
C730 H718 0.950 . S
C730 C729 1.398 . S
C730 C731 1.391 . S
C731 H719 0.950 . S
C731 C727 1.393 . S
C731 C730 1.391 . S
H732 C740 0.950 . S
H733 C745 0.950 . S
H734 C742 0.950 . S
H735 C744 0.950 . S
H736 C746 0.950 . S
H737 C748 0.950 . S
H738 C750 0.950 . S
H739 C751 0.950 . S
C740 H732 0.950 . S
C740 C741 1.386 . S
C740 C742 1.391 . S
C741 C740 1.386 . S
C741 C745 1.393 . S
C742 H734 0.950 . S
C742 C740 1.391 . S
C742 C743 1.400 . S
C743 C742 1.400 . S
C743 C744 1.398 . S
C743 C749 1.491 . S
C744 H735 0.950 . S
C744 C743 1.398 . S
C744 C745 1.391 . S
C745 H733 0.950 . S
C745 C741 1.393 . S
C745 C744 1.391 . S
C746 H736 0.950 . S
C746 C747 1.386 . S
C746 C748 1.391 . S
C747 C746 1.386 . S
C747 C751 1.393 . S
C748 H737 0.950 . S
C748 C746 1.391 . S
C748 C749 1.400 . S
C749 C743 1.491 . S
C749 C748 1.400 . S
C749 C750 1.398 . S
C750 H738 0.950 . S
C750 C749 1.398 . S
C750 C751 1.391 . S
C751 H739 0.950 . S
C751 C747 1.393 . S
C751 C750 1.391 . S
H752 C760 0.950 . S
H753 C765 0.950 . S
H754 C762 0.950 . S
H755 C764 0.950 . S
H756 C766 0.950 . S
H757 C768 0.950 . S
H758 C770 0.950 . S
H759 C771 0.950 . S
C760 H752 0.950 . S
C760 C761 1.386 . S
C760 C762 1.391 . S
C761 C760 1.386 . S
C761 C765 1.393 . S
C762 H754 0.950 . S
C762 C760 1.391 . S
C762 C763 1.400 1_556 S
C763 C762 1.400 1_554 S
C763 C764 1.398 . S
C763 C769 1.491 . S
C764 H755 0.950 . S
C764 C763 1.398 . S
C764 C765 1.391 1_554 S
C765 H753 0.950 . S
C765 C761 1.393 . S
C765 C764 1.391 1_556 S
C766 H756 0.950 . S
C766 C767 1.386 . S
C766 C768 1.391 . S
C767 C766 1.386 . S
C767 C771 1.393 . S
C768 H757 0.950 . S
C768 C766 1.391 . S
C768 C769 1.400 . S
C769 C763 1.491 . S
C769 C768 1.400 . S
C769 C770 1.398 . S
C770 H758 0.950 . S
C770 C769 1.398 . S
C770 C771 1.391 . S
C771 H759 0.950 . S
C771 C767 1.393 . S
C771 C770 1.391 . S
H772 C780 0.950 . S
H773 C785 0.950 . S
H774 C782 0.950 . S
H775 C784 0.950 . S
H776 C786 0.950 . S
H777 C788 0.950 . S
H778 C790 0.950 . S
H779 C791 0.950 . S
C780 H772 0.950 . S
C780 C781 1.386 . S
C780 C782 1.391 . S
C781 C780 1.386 . S
C781 C785 1.393 . S
C782 H774 0.950 . S
C782 C780 1.391 . S
C782 C783 1.400 . S
C783 C782 1.400 . S
C783 C784 1.398 . S
C783 C789 1.491 . S
C784 H775 0.950 . S
C784 C783 1.398 . S
C784 C785 1.391 . S
C785 H773 0.950 . S
C785 C781 1.393 . S
C785 C784 1.391 . S
C786 H776 0.950 . S
C786 C787 1.386 . S
C786 C788 1.391 . S
C787 C786 1.386 . S
C787 C791 1.393 . S
C788 H777 0.950 . S
C788 C786 1.391 . S
C788 C789 1.400 . S
C789 C783 1.491 . S
C789 C788 1.400 . S
C789 C790 1.398 . S
C790 H778 0.950 . S
C790 C789 1.398 . S
C790 C791 1.391 . S
C791 H779 0.950 . S
C791 C787 1.393 . S
C791 C790 1.391 . S
H792 C800 0.950 . S
H793 C805 0.950 . S
H794 C802 0.950 . S
H795 C804 0.950 . S
H796 C806 0.950 . S
H797 C808 0.950 . S
H798 C810 0.950 . S
H799 C811 0.950 . S
C800 H792 0.950 . S
C800 C801 1.386 . S
C800 C802 1.391 . S
C801 C800 1.386 . S
C801 C805 1.393 . S
C802 H794 0.950 . S
C802 C800 1.391 . S
C802 C803 1.400 1_556 S
C803 C802 1.400 1_554 S
C803 C804 1.398 . S
C803 C809 1.491 . S
C804 H795 0.950 . S
C804 C803 1.398 . S
C804 C805 1.391 1_554 S
C805 H793 0.950 . S
C805 C801 1.393 . S
C805 C804 1.391 1_556 S
C806 H796 0.950 . S
C806 C807 1.386 . S
C806 C808 1.391 . S
C807 C806 1.386 . S
C807 C811 1.393 . S
C808 H797 0.950 . S
C808 C806 1.391 . S
C808 C809 1.400 . S
C809 C803 1.491 . S
C809 C808 1.400 . S
C809 C810 1.398 . S
C810 H798 0.950 . S
C810 C809 1.398 . S
C810 C811 1.391 . S
C811 H799 0.950 . S
C811 C807 1.393 . S
C811 C810 1.391 . S
H812 C820 0.950 . S
H813 C825 0.950 . S
H814 C822 0.950 . S
H815 C824 0.950 . S
H816 C826 0.950 . S
H817 C828 0.950 . S
H818 C830 0.950 . S
H819 C831 0.950 . S
C820 H812 0.950 . S
C820 C821 1.386 . S
C820 C822 1.391 . S
C821 C820 1.386 . S
C821 C825 1.393 . S
C822 H814 0.950 . S
C822 C820 1.391 . S
C822 C823 1.400 . S
C823 C822 1.400 . S
C823 C824 1.398 . S
C823 C829 1.491 . S
C824 H815 0.950 . S
C824 C823 1.398 . S
C824 C825 1.391 . S
C825 H813 0.950 . S
C825 C821 1.393 . S
C825 C824 1.391 . S
C826 H816 0.950 . S
C826 C827 1.386 . S
C826 C828 1.391 . S
C827 C826 1.386 . S
C827 C831 1.393 . S
C828 H817 0.950 . S
C828 C826 1.391 . S
C828 C829 1.400 . S
C829 C823 1.491 . S
C829 C828 1.400 . S
C829 C830 1.398 . S
C830 H818 0.950 . S
C830 C829 1.398 . S
C830 C831 1.391 . S
C831 H819 0.950 . S
C831 C827 1.393 . S
C831 C830 1.391 . S
H832 C840 0.950 . S
H833 C845 0.950 . S
H834 C842 0.950 . S
H835 C844 0.950 1_554 S
H836 C846 0.950 . S
H837 C848 0.950 . S
H838 C850 0.950 . S
H839 C851 0.950 . S
C840 H832 0.950 . S
C840 C841 1.386 . S
C840 C842 1.391 1_556 S
C841 C840 1.386 . S
C841 C845 1.393 . S
C842 H834 0.950 . S
C842 C840 1.391 1_554 S
C842 C843 1.400 . S
C843 C842 1.400 . S
C843 C844 1.398 1_554 S
C843 C849 1.491 . S
C844 H835 0.950 1_556 S
C844 C843 1.398 1_556 S
C844 C845 1.391 . S
C845 H833 0.950 . S
C845 C841 1.393 . S
C845 C844 1.391 . S
C846 H836 0.950 . S
C846 C847 1.386 . S
C846 C848 1.391 . S
C847 C846 1.386 . S
C847 C851 1.393 . S
C848 H837 0.950 . S
C848 C846 1.391 . S
C848 C849 1.400 . S
C849 C843 1.491 . S
C849 C848 1.400 . S
C849 C850 1.398 . S
C850 H838 0.950 . S
C850 C849 1.398 . S
C850 C851 1.391 . S
C851 H839 0.950 . S
C851 C847 1.393 . S
C851 C850 1.391 . S
H852 C860 0.950 . S
H853 C865 0.950 . S
H854 C862 0.950 . S
H855 C864 0.950 . S
H856 C866 0.950 . S
H857 C868 0.950 . S
H858 C870 0.950 . S
H859 C871 0.950 . S
C860 H852 0.950 . S
C860 C861 1.386 . S
C860 C862 1.391 . S
C861 C860 1.386 . S
C861 C865 1.393 . S
C862 H854 0.950 . S
C862 C860 1.391 . S
C862 C863 1.400 . S
C863 C862 1.400 . S
C863 C864 1.398 . S
C863 C869 1.491 . S
C864 H855 0.950 . S
C864 C863 1.398 . S
C864 C865 1.391 . S
C865 H853 0.950 . S
C865 C861 1.393 . S
C865 C864 1.391 . S
C866 H856 0.950 . S
C866 C867 1.386 . S
C866 C868 1.391 . S
C867 C866 1.386 . S
C867 C871 1.393 . S
C868 H857 0.950 . S
C868 C866 1.391 . S
C868 C869 1.400 . S
C869 C863 1.491 . S
C869 C868 1.400 . S
C869 C870 1.398 . S
C870 H858 0.950 . S
C870 C869 1.398 . S
C870 C871 1.391 . S
C871 H859 0.950 . S
C871 C867 1.393 . S
C871 C870 1.391 . S
H872 C880 0.950 . S
H873 C885 0.950 . S
H874 C882 0.950 . S
H875 C884 0.950 . S
H876 C886 0.950 . S
H877 C888 0.950 . S
H878 C890 0.950 . S
H879 C891 0.950 . S
C880 H872 0.950 . S
C880 C881 1.386 . S
C880 C882 1.391 1_556 S
C881 C880 1.386 . S
C881 C885 1.393 . S
C882 H874 0.950 . S
C882 C880 1.391 1_554 S
C882 C883 1.400 . S
C883 C882 1.400 . S
C883 C884 1.398 1_554 S
C883 C889 1.491 . S
C884 H875 0.950 . S
C884 C883 1.398 1_556 S
C884 C885 1.391 . S
C885 H873 0.950 . S
C885 C881 1.393 . S
C885 C884 1.391 . S
C886 H876 0.950 . S
C886 C887 1.386 . S
C886 C888 1.391 . S
C887 C886 1.386 . S
C887 C891 1.393 . S
C888 H877 0.950 . S
C888 C886 1.391 . S
C888 C889 1.400 . S
C889 C883 1.491 . S
C889 C888 1.400 . S
C889 C890 1.398 . S
C890 H878 0.950 . S
C890 C889 1.398 . S
C890 C891 1.391 . S
C891 H879 0.950 . S
C891 C887 1.393 . S
C891 C890 1.391 . S
H892 C900 0.950 . S
H893 C905 0.950 . S
H894 C902 0.950 . S
H895 C904 0.950 . S
H896 C906 0.950 . S
H897 C908 0.950 . S
H898 C910 0.950 . S
H899 C911 0.950 . S
C900 H892 0.950 . S
C900 C901 1.386 . S
C900 C902 1.391 . S
C901 C900 1.386 . S
C901 C905 1.393 . S
C902 H894 0.950 . S
C902 C900 1.391 . S
C902 C903 1.400 . S
C903 C902 1.400 . S
C903 C904 1.398 . S
C903 C909 1.491 . S
C904 H895 0.950 . S
C904 C903 1.398 . S
C904 C905 1.391 . S
C905 H893 0.950 . S
C905 C901 1.393 . S
C905 C904 1.391 . S
C906 H896 0.950 . S
C906 C907 1.386 . S
C906 C908 1.391 . S
C907 C906 1.386 . S
C907 C911 1.393 . S
C908 H897 0.950 . S
C908 C906 1.391 . S
C908 C909 1.400 . S
C909 C903 1.491 . S
C909 C908 1.400 . S
C909 C910 1.398 . S
C910 H898 0.950 . S
C910 C909 1.398 . S
C910 C911 1.391 . S
C911 H899 0.950 . S
C911 C907 1.393 . S
C911 C910 1.391 . S
H912 C920 0.950 . S
H913 C925 0.950 . S
H914 C922 0.950 . S
H915 C924 0.950 . S
H916 C926 0.950 . S
H917 C928 0.950 . S
H918 C930 0.950 . S
H919 C931 0.950 . S
C920 H912 0.950 . S
C920 C921 1.386 . S
C920 C922 1.391 . S
C921 C920 1.386 . S
C921 C925 1.393 . S
C922 H914 0.950 . S
C922 C920 1.391 . S
C922 C923 1.400 . S
C923 C922 1.400 . S
C923 C924 1.398 . S
C923 C929 1.491 . S
C924 H915 0.950 . S
C924 C923 1.398 . S
C924 C925 1.391 . S
C925 H913 0.950 . S
C925 C921 1.393 . S
C925 C924 1.391 . S
C926 H916 0.950 . S
C926 C927 1.386 . S
C926 C928 1.391 . S
C927 C926 1.386 . S
C927 C931 1.393 . S
C928 H917 0.950 . S
C928 C926 1.391 . S
C928 C929 1.400 1_554 S
C929 C923 1.491 . S
C929 C928 1.400 1_556 S
C929 C930 1.398 . S
C930 H918 0.950 . S
C930 C929 1.398 . S
C930 C931 1.391 1_556 S
C931 H919 0.950 . S
C931 C927 1.393 . S
C931 C930 1.391 1_554 S
H932 C940 0.950 . S
H933 C945 0.950 . S
H934 C942 0.950 . S
H935 C944 0.950 . S
H936 C946 0.950 . S
H937 C948 0.950 . S
H938 C950 0.950 . S
H939 C951 0.950 . S
C940 H932 0.950 . S
C940 C941 1.386 . S
C940 C942 1.391 . S
C941 C940 1.386 . S
C941 C945 1.393 . S
C942 H934 0.950 . S
C942 C940 1.391 . S
C942 C943 1.400 . S
C943 C942 1.400 . S
C943 C944 1.398 . S
C943 C949 1.491 . S
C944 H935 0.950 . S
C944 C943 1.398 . S
C944 C945 1.391 . S
C945 H933 0.950 . S
C945 C941 1.393 . S
C945 C944 1.391 . S
C946 H936 0.950 . S
C946 C947 1.386 . S
C946 C948 1.391 . S
C947 C946 1.386 . S
C947 C951 1.393 . S
C948 H937 0.950 . S
C948 C946 1.391 . S
C948 C949 1.400 . S
C949 C943 1.491 . S
C949 C948 1.400 . S
C949 C950 1.398 . S
C950 H938 0.950 . S
C950 C949 1.398 . S
C950 C951 1.391 . S
C951 H939 0.950 . S
C951 C947 1.393 . S
C951 C950 1.391 . S
H952 C960 0.950 . S
H953 C965 0.950 . S
H954 C962 0.950 . S
H955 C964 0.950 . S
H956 C966 0.950 . S
H957 C968 0.950 1_556 S
H958 C970 0.950 . S
H959 C971 0.950 . S
C960 H952 0.950 . S
C960 C961 1.386 . S
C960 C962 1.391 . S
C961 C960 1.386 . S
C961 C965 1.393 . S
C962 H954 0.950 . S
C962 C960 1.391 . S
C962 C963 1.400 . S
C963 C962 1.400 . S
C963 C964 1.398 . S
C963 C969 1.491 . S
C964 H955 0.950 . S
C964 C963 1.398 . S
C964 C965 1.391 . S
C965 H953 0.950 . S
C965 C961 1.393 . S
C965 C964 1.391 . S
C966 H956 0.950 . S
C966 C967 1.386 . S
C966 C968 1.391 . S
C967 C966 1.386 . S
C967 C971 1.393 . S
C968 H957 0.950 1_554 S
C968 C966 1.391 . S
C968 C969 1.400 1_554 S
C969 C963 1.491 . S
C969 C968 1.400 1_556 S
C969 C970 1.398 . S
C970 H958 0.950 . S
C970 C969 1.398 . S
C970 C971 1.391 1_556 S
C971 H959 0.950 . S
C971 C967 1.393 . S
C971 C970 1.391 1_554 S
H972 C980 0.950 . S
H973 C985 0.950 . S
H974 C982 0.950 . S
H975 C984 0.950 . S
H976 C986 0.950 . S
H977 C988 0.950 . S
H978 C990 0.950 . S
H979 C991 0.950 . S
C980 H972 0.950 . S
C980 C981 1.386 . S
C980 C982 1.391 . S
C981 C980 1.386 . S
C981 C985 1.393 . S
C982 H974 0.950 . S
C982 C980 1.391 . S
C982 C983 1.400 . S
C983 C982 1.400 . S
C983 C984 1.398 . S
C983 C989 1.491 . S
C984 H975 0.950 . S
C984 C983 1.398 . S
C984 C985 1.391 . S
C985 H973 0.950 . S
C985 C981 1.393 . S
C985 C984 1.391 . S
C986 H976 0.950 . S
C986 C987 1.386 . S
C986 C988 1.391 . S
C987 C986 1.386 . S
C987 C991 1.393 . S
C988 H977 0.950 . S
C988 C986 1.391 . S
C988 C989 1.400 . S
C989 C983 1.491 . S
C989 C988 1.400 . S
C989 C990 1.398 . S
C990 H978 0.950 . S
C990 C989 1.398 . S
C990 C991 1.391 . S
C991 H979 0.950 . S
C991 C987 1.393 . S
C991 C990 1.391 . S
H992 C1000 0.950 . S
H993 C1005 0.950 1_565 S
H994 C1002 0.950 . S
H995 C1004 0.950 . S
H996 C1006 0.950 . S
H997 C1008 0.950 . S
H998 C1010 0.950 . S
H999 C1011 0.950 . S
C1000 H992 0.950 . S
C1000 C1001 1.386 . S
C1000 C1002 1.391 . S
C1001 C1000 1.386 . S
C1001 C1005 1.393 . S
C1002 H994 0.950 . S
C1002 C1000 1.391 . S
C1002 C1003 1.400 . S
C1003 C1002 1.400 . S
C1003 C1004 1.398 . S
C1003 C1009 1.491 . S
C1004 H995 0.950 . S
C1004 C1003 1.398 . S
C1004 C1005 1.391 . S
C1005 H993 0.950 1_545 S
C1005 C1001 1.393 . S
C1005 C1004 1.391 . S
C1006 H996 0.950 . S
C1006 C1007 1.386 . S
C1006 C1008 1.391 . S
C1007 C1006 1.386 . S
C1007 C1011 1.393 . S
C1008 H997 0.950 . S
C1008 C1006 1.391 . S
C1008 C1009 1.400 . S
C1009 C1003 1.491 . S
C1009 C1008 1.400 . S
C1009 C1010 1.398 . S
C1010 H998 0.950 . S
C1010 C1009 1.398 . S
C1010 C1011 1.391 . S
C1011 H999 0.950 . S
C1011 C1007 1.393 . S
C1011 C1010 1.391 . S
H1012 C1020 0.950 . S
H1013 C1025 0.950 . S
H1014 C1022 0.950 . S
H1015 C1024 0.950 . S
H1016 C1026 0.950 . S
H1017 C1028 0.950 . S
H1018 C1030 0.950 . S
H1019 C1031 0.950 . S
C1020 H1012 0.950 . S
C1020 C1021 1.386 . S
C1020 C1022 1.391 . S
C1021 C1020 1.386 . S
C1021 C1025 1.393 . S
C1022 H1014 0.950 . S
C1022 C1020 1.391 . S
C1022 C1023 1.400 . S
C1023 C1022 1.400 . S
C1023 C1024 1.398 . S
C1023 C1029 1.491 . S
C1024 H1015 0.950 . S
C1024 C1023 1.398 . S
C1024 C1025 1.391 . S
C1025 H1013 0.950 . S
C1025 C1021 1.393 . S
C1025 C1024 1.391 . S
C1026 H1016 0.950 . S
C1026 C1027 1.386 . S
C1026 C1028 1.391 . S
C1027 C1026 1.386 . S
C1027 C1031 1.393 . S
C1028 H1017 0.950 . S
C1028 C1026 1.391 . S
C1028 C1029 1.400 . S
C1029 C1023 1.491 . S
C1029 C1028 1.400 . S
C1029 C1030 1.398 . S
C1030 H1018 0.950 . S
C1030 C1029 1.398 . S
C1030 C1031 1.391 . S
C1031 H1019 0.950 . S
C1031 C1027 1.393 . S
C1031 C1030 1.391 . S
H1032 C1040 0.950 . S
H1033 C1045 0.950 . S
H1034 C1042 0.950 . S
H1035 C1044 0.950 . S
H1036 C1046 0.950 . S
H1037 C1048 0.950 . S
H1038 C1050 0.950 . S
H1039 C1051 0.950 . S
C1040 H1032 0.950 . S
C1040 C1041 1.386 . S
C1040 C1042 1.391 . S
C1041 C1040 1.386 . S
C1041 C1045 1.393 . S
C1042 H1034 0.950 . S
C1042 C1040 1.391 . S
C1042 C1043 1.400 . S
C1043 C1042 1.400 . S
C1043 C1044 1.398 . S
C1043 C1049 1.491 . S
C1044 H1035 0.950 . S
C1044 C1043 1.398 . S
C1044 C1045 1.391 . S
C1045 H1033 0.950 . S
C1045 C1041 1.393 . S
C1045 C1044 1.391 . S
C1046 H1036 0.950 . S
C1046 C1047 1.386 . S
C1046 C1048 1.391 . S
C1047 C1046 1.386 . S
C1047 C1051 1.393 . S
C1048 H1037 0.950 . S
C1048 C1046 1.391 . S
C1048 C1049 1.400 . S
C1049 C1043 1.491 . S
C1049 C1048 1.400 . S
C1049 C1050 1.398 . S
C1050 H1038 0.950 . S
C1050 C1049 1.398 . S
C1050 C1051 1.391 . S
C1051 H1039 0.950 . S
C1051 C1047 1.393 . S
C1051 C1050 1.391 . S
H1052 C1060 0.950 . S
H1053 C1065 0.950 1_565 S
H1054 C1062 0.950 . S
H1055 C1064 0.950 . S
H1056 C1066 0.950 1_655 S
H1057 C1068 0.950 . S
H1058 C1070 0.950 . S
H1059 C1071 0.950 . S
C1060 H1052 0.950 . S
C1060 C1061 1.386 . S
C1060 C1062 1.391 . S
C1061 C1060 1.386 . S
C1061 C1065 1.393 . S
C1062 H1054 0.950 . S
C1062 C1060 1.391 . S
C1062 C1063 1.400 . S
C1063 C1062 1.400 . S
C1063 C1064 1.398 . S
C1063 C1069 1.491 . S
C1064 H1055 0.950 . S
C1064 C1063 1.398 . S
C1064 C1065 1.391 . S
C1065 H1053 0.950 1_545 S
C1065 C1061 1.393 . S
C1065 C1064 1.391 . S
C1066 H1056 0.950 1_455 S
C1066 C1067 1.386 . S
C1066 C1068 1.391 . S
C1067 C1066 1.386 . S
C1067 C1071 1.393 . S
C1068 H1057 0.950 . S
C1068 C1066 1.391 . S
C1068 C1069 1.400 . S
C1069 C1063 1.491 . S
C1069 C1068 1.400 . S
C1069 C1070 1.398 . S
C1070 H1058 0.950 . S
C1070 C1069 1.398 . S
C1070 C1071 1.391 . S
C1071 H1059 0.950 . S
C1071 C1067 1.393 . S
C1071 C1070 1.391 . S
H1072 C1080 0.950 . S
H1073 C1085 0.950 1_545 S
H1074 C1082 0.950 . S
H1075 C1084 0.950 . S
H1076 C1086 0.950 . S
H1077 C1088 0.950 . S
H1078 C1090 0.950 . S
H1079 C1091 0.950 . S
C1080 H1072 0.950 . S
C1080 C1081 1.386 . S
C1080 C1082 1.391 . S
C1081 C1080 1.386 . S
C1081 C1085 1.393 . S
C1082 H1074 0.950 . S
C1082 C1080 1.391 . S
C1082 C1083 1.400 . S
C1083 C1082 1.400 . S
C1083 C1084 1.398 . S
C1083 C1089 1.491 . S
C1084 H1075 0.950 . S
C1084 C1083 1.398 . S
C1084 C1085 1.391 . S
C1085 H1073 0.950 1_565 S
C1085 C1081 1.393 . S
C1085 C1084 1.391 . S
C1086 H1076 0.950 . S
C1086 C1087 1.386 . S
C1086 C1088 1.391 . S
C1087 C1086 1.386 . S
C1087 C1091 1.393 . S
C1088 H1077 0.950 . S
C1088 C1086 1.391 . S
C1088 C1089 1.400 . S
C1089 C1083 1.491 . S
C1089 C1088 1.400 . S
C1089 C1090 1.398 . S
C1090 H1078 0.950 . S
C1090 C1089 1.398 . S
C1090 C1091 1.391 . S
C1091 H1079 0.950 . S
C1091 C1087 1.393 . S
C1091 C1090 1.391 . S
H1092 C1100 0.950 . S
H1093 C1105 0.950 . S
H1094 C1102 0.950 . S
H1095 C1104 0.950 . S
H1096 C1106 0.950 . S
H1097 C1108 0.950 . S
H1098 C1110 0.950 . S
H1099 C1111 0.950 . S
C1100 H1092 0.950 . S
C1100 C1101 1.386 . S
C1100 C1102 1.391 . S
C1101 C1100 1.386 . S
C1101 C1105 1.393 . S
C1102 H1094 0.950 . S
C1102 C1100 1.391 . S
C1102 C1103 1.400 . S
C1103 C1102 1.400 . S
C1103 C1104 1.398 . S
C1103 C1109 1.491 . S
C1104 H1095 0.950 . S
C1104 C1103 1.398 . S
C1104 C1105 1.391 . S
C1105 H1093 0.950 . S
C1105 C1101 1.393 . S
C1105 C1104 1.391 . S
C1106 H1096 0.950 . S
C1106 C1107 1.386 . S
C1106 C1108 1.391 . S
C1107 C1106 1.386 . S
C1107 C1111 1.393 . S
C1108 H1097 0.950 . S
C1108 C1106 1.391 . S
C1108 C1109 1.400 . S
C1109 C1103 1.491 . S
C1109 C1108 1.400 . S
C1109 C1110 1.398 . S
C1110 H1098 0.950 . S
C1110 C1109 1.398 . S
C1110 C1111 1.391 . S
C1111 H1099 0.950 . S
C1111 C1107 1.393 . S
C1111 C1110 1.391 . S
H1112 C1120 0.950 . S
H1113 C1125 0.950 . S
H1114 C1122 0.950 . S
H1115 C1124 0.950 . S
H1116 C1126 0.941 1_455 S
H1117 C1128 0.950 . S
H1118 C1130 0.950 . S
H1119 C1131 0.950 . S
C1120 H1112 0.950 . S
C1120 C1121 1.386 . S
C1120 C1122 1.391 . S
C1121 C1120 1.386 . S
C1121 C1125 1.393 . S
C1122 H1114 0.950 . S
C1122 C1120 1.391 . S
C1122 C1123 1.400 . S
C1123 C1122 1.400 . S
C1123 C1124 1.398 . S
C1123 C1129 1.491 . S
C1124 H1115 0.950 . S
C1124 C1123 1.398 . S
C1124 C1125 1.391 . S
C1125 H1113 0.950 . S
C1125 C1121 1.393 . S
C1125 C1124 1.391 . S
C1126 H1116 0.941 1_655 S
C1126 C1127 1.386 . S
C1126 C1128 1.391 . S
C1127 C1126 1.386 . S
C1127 C1131 1.393 . S
C1128 H1117 0.950 . S
C1128 C1126 1.391 . S
C1128 C1129 1.400 . S
C1129 C1123 1.491 . S
C1129 C1128 1.400 . S
C1129 C1130 1.398 . S
C1130 H1118 0.950 . S
C1130 C1129 1.398 . S
C1130 C1131 1.391 . S
C1131 H1119 0.950 . S
C1131 C1127 1.393 . S
C1131 C1130 1.391 . S
H1132 C1140 0.950 1_545 S
H1133 C1145 0.950 . S
H1134 C1142 0.950 . S
H1135 C1144 0.950 . S
H1136 C1146 0.950 . S
H1137 C1148 0.950 . S
H1138 C1150 0.950 . S
H1139 C1151 0.950 1_455 S
C1140 H1132 0.950 1_565 S
C1140 C1141 1.386 . S
C1140 C1142 1.391 . S
C1141 C1140 1.386 . S
C1141 C1145 1.393 . S
C1142 H1134 0.950 . S
C1142 C1140 1.391 . S
C1142 C1143 1.400 . S
C1143 C1142 1.400 . S
C1143 C1144 1.398 . S
C1143 C1149 1.491 . S
C1144 H1135 0.950 . S
C1144 C1143 1.398 . S
C1144 C1145 1.391 . S
C1145 H1133 0.950 . S
C1145 C1141 1.393 . S
C1145 C1144 1.391 . S
C1146 H1136 0.950 . S
C1146 C1147 1.386 . S
C1146 C1148 1.391 . S
C1147 C1146 1.386 . S
C1147 C1151 1.393 . S
C1148 H1137 0.950 . S
C1148 C1146 1.391 . S
C1148 C1149 1.400 . S
C1149 C1143 1.491 . S
C1149 C1148 1.400 . S
C1149 C1150 1.398 . S
C1150 H1138 0.950 . S
C1150 C1149 1.398 . S
C1150 C1151 1.391 . S
C1151 H1139 0.950 1_655 S
C1151 C1147 1.393 . S
C1151 C1150 1.391 . S
H1152 C1160 0.950 . S
H1153 C1165 0.950 . S
H1154 C1162 0.950 1_556 S
H1155 C1164 0.950 . S
H1156 C1166 0.950 . S
H1157 C1168 0.950 1_554 S
H1158 C1170 0.950 . S
H1159 C1171 0.950 . S
C1160 H1152 0.950 . S
C1160 C1161 1.386 . S
C1160 C1162 1.391 . S
C1161 C1160 1.386 . S
C1161 C1165 1.393 . S
C1162 H1154 0.950 1_554 S
C1162 C1160 1.391 . S
C1162 C1163 1.400 . S
C1163 C1162 1.400 . S
C1163 C1164 1.398 . S
C1163 C1169 1.491 1_554 S
C1164 H1155 0.950 . S
C1164 C1163 1.398 . S
C1164 C1165 1.391 . S
C1165 H1153 0.950 . S
C1165 C1161 1.393 . S
C1165 C1164 1.391 . S
C1166 H1156 0.950 . S
C1166 C1167 1.386 . S
C1166 C1168 1.391 . S
C1167 C1166 1.386 . S
C1167 C1171 1.393 . S
C1168 H1157 0.950 1_556 S
C1168 C1166 1.391 . S
C1168 C1169 1.400 . S
C1169 C1163 1.491 1_556 S
C1169 C1168 1.400 . S
C1169 C1170 1.398 . S
C1170 H1158 0.950 . S
C1170 C1169 1.398 . S
C1170 C1171 1.391 . S
C1171 H1159 0.950 . S
C1171 C1167 1.393 . S
C1171 C1170 1.391 . S
H1172 C1180 0.950 . S
H1173 C1185 0.950 . S
H1174 C1182 0.950 . S
H1175 C1184 0.950 . S
H1176 C1186 0.950 . S
H1177 C1188 0.950 . S
H1178 C1190 0.950 . S
H1179 C1191 0.950 . S
C1180 H1172 0.950 . S
C1180 C1181 1.386 . S
C1180 C1182 1.391 . S
C1181 C1180 1.386 . S
C1181 C1185 1.393 . S
C1182 H1174 0.950 . S
C1182 C1180 1.391 . S
C1182 C1183 1.400 . S
C1183 C1182 1.400 . S
C1183 C1184 1.398 . S
C1183 C1189 1.491 . S
C1184 H1175 0.950 . S
C1184 C1183 1.398 . S
C1184 C1185 1.391 . S
C1185 H1173 0.950 . S
C1185 C1181 1.393 . S
C1185 C1184 1.391 . S
C1186 H1176 0.950 . S
C1186 C1187 1.386 . S
C1186 C1188 1.391 . S
C1187 C1186 1.386 . S
C1187 C1191 1.393 . S
C1188 H1177 0.950 . S
C1188 C1186 1.391 . S
C1188 C1189 1.400 . S
C1189 C1183 1.491 . S
C1189 C1188 1.400 . S
C1189 C1190 1.398 . S
C1190 H1178 0.950 . S
C1190 C1189 1.398 . S
C1190 C1191 1.391 . S
C1191 H1179 0.950 . S
C1191 C1187 1.393 . S
C1191 C1190 1.391 . S
H1192 C1200 0.950 . S
H1193 C1205 0.950 1_455 S
H1194 C1202 0.950 . S
H1195 C1204 0.950 1_455 S
H1196 C1206 0.950 1_455 S
H1197 C1208 0.950 1_455 S
H1198 C1210 0.950 . S
H1199 C1211 0.950 . S
C1200 H1192 0.950 . S
C1200 C1201 1.386 . S
C1200 C1202 1.391 . S
C1201 C1200 1.386 . S
C1201 C1205 1.393 . S
C1202 H1194 0.950 . S
C1202 C1200 1.391 . S
C1202 C1203 1.400 . S
C1203 C1202 1.400 . S
C1203 C1204 1.398 . S
C1203 C1209 1.491 1_554 S
C1204 H1195 0.950 1_655 S
C1204 C1203 1.398 . S
C1204 C1205 1.391 . S
C1205 H1193 0.950 1_655 S
C1205 C1201 1.393 . S
C1205 C1204 1.391 . S
C1206 H1196 0.950 1_655 S
C1206 C1207 1.386 . S
C1206 C1208 1.391 . S
C1207 C1206 1.386 . S
C1207 C1211 1.393 . S
C1208 H1197 0.950 1_655 S
C1208 C1206 1.391 . S
C1208 C1209 1.400 . S
C1209 C1203 1.491 1_556 S
C1209 C1208 1.400 . S
C1209 C1210 1.398 . S
C1210 H1198 0.950 . S
C1210 C1209 1.398 . S
C1210 C1211 1.391 . S
C1211 H1199 0.950 . S
C1211 C1207 1.393 . S
C1211 C1210 1.391 . S
H1212 C1220 0.950 . S
H1213 C1225 0.950 1_545 S
H1214 C1222 0.950 . S
H1215 C1224 0.950 1_545 S
H1216 C1226 0.950 1_545 S
H1217 C1228 0.950 1_545 S
H1218 C1230 0.950 . S
H1219 C1231 0.950 . S
C1220 H1212 0.950 . S
C1220 C1221 1.386 . S
C1220 C1222 1.391 . S
C1221 C1220 1.386 . S
C1221 C1225 1.393 . S
C1222 H1214 0.950 . S
C1222 C1220 1.391 . S
C1222 C1223 1.400 . S
C1223 C1222 1.400 . S
C1223 C1224 1.398 . S
C1223 C1229 1.491 . S
C1224 H1215 0.950 1_565 S
C1224 C1223 1.398 . S
C1224 C1225 1.391 . S
C1225 H1213 0.950 1_565 S
C1225 C1221 1.393 . S
C1225 C1224 1.391 . S
C1226 H1216 0.950 1_565 S
C1226 C1227 1.386 . S
C1226 C1228 1.391 . S
C1227 C1226 1.386 . S
C1227 C1231 1.393 . S
C1228 H1217 0.950 1_565 S
C1228 C1226 1.391 . S
C1228 C1229 1.400 . S
C1229 C1223 1.491 . S
C1229 C1228 1.400 . S
C1229 C1230 1.398 . S
C1230 H1218 0.950 . S
C1230 C1229 1.398 . S
C1230 C1231 1.391 . S
C1231 H1219 0.950 . S
C1231 C1227 1.393 . S
C1231 C1230 1.391 . S
H1232 C1240 0.950 . S
H1233 C1245 0.950 . S
H1234 C1242 0.950 . S
H1235 C1244 0.950 1_556 S
H1236 C1246 0.950 . S
H1237 C1248 0.950 . S
H1238 C1250 0.950 1_554 S
H1239 C1251 0.950 . S
C1240 H1232 0.950 . S
C1240 C1241 1.386 . S
C1240 C1242 1.391 . S
C1241 C1240 1.386 . S
C1241 C1245 1.393 . S
C1242 H1234 0.950 . S
C1242 C1240 1.391 . S
C1242 C1243 1.400 . S
C1243 C1242 1.400 . S
C1243 C1244 1.398 . S
C1243 C1249 1.491 1_554 S
C1244 H1235 0.950 1_554 S
C1244 C1243 1.398 . S
C1244 C1245 1.391 . S
C1245 H1233 0.950 . S
C1245 C1241 1.393 . S
C1245 C1244 1.391 . S
C1246 H1236 0.950 . S
C1246 C1247 1.386 . S
C1246 C1248 1.391 . S
C1247 C1246 1.386 . S
C1247 C1251 1.393 . S
C1248 H1237 0.950 . S
C1248 C1246 1.391 . S
C1248 C1249 1.400 . S
C1249 C1243 1.491 1_556 S
C1249 C1248 1.400 . S
C1249 C1250 1.398 . S
C1250 H1238 0.950 1_556 S
C1250 C1249 1.398 . S
C1250 C1251 1.391 . S
C1251 H1239 0.950 . S
C1251 C1247 1.393 . S
C1251 C1250 1.391 . S
H1252 C1260 0.950 . S
H1253 C1265 0.950 . S
H1254 C1262 0.950 . S
H1255 C1264 0.950 . S
H1256 C1266 0.950 . S
H1257 C1268 0.950 . S
H1258 C1270 0.950 . S
H1259 C1271 0.950 . S
C1260 H1252 0.950 . S
C1260 C1261 1.386 . S
C1260 C1262 1.391 . S
C1261 C1260 1.386 . S
C1261 C1265 1.393 . S
C1262 H1254 0.950 . S
C1262 C1260 1.391 . S
C1262 C1263 1.400 . S
C1263 C1262 1.400 . S
C1263 C1264 1.398 . S
C1263 C1269 1.491 . S
C1264 H1255 0.950 . S
C1264 C1263 1.398 . S
C1264 C1265 1.391 . S
C1265 H1253 0.950 . S
C1265 C1261 1.393 . S
C1265 C1264 1.391 . S
C1266 H1256 0.950 . S
C1266 C1267 1.386 . S
C1266 C1268 1.391 . S
C1267 C1266 1.386 . S
C1267 C1271 1.393 . S
C1268 H1257 0.950 . S
C1268 C1266 1.391 . S
C1268 C1269 1.400 . S
C1269 C1263 1.491 . S
C1269 C1268 1.400 . S
C1269 C1270 1.398 . S
C1270 H1258 0.950 . S
C1270 C1269 1.398 . S
C1270 C1271 1.391 . S
C1271 H1259 0.950 . S
C1271 C1267 1.393 . S
C1271 C1270 1.391 . S
H1272 C1280 0.950 . S
H1273 C1285 0.950 1_655 S
H1274 C1282 0.950 . S
H1275 C1284 0.950 1_655 S
H1276 C1286 0.950 1_655 S
H1277 C1288 0.950 1_655 S
H1278 C1290 0.950 . S
H1279 C1291 0.950 . S
C1280 H1272 0.950 . S
C1280 C1281 1.386 . S
C1280 C1282 1.391 . S
C1281 C1280 1.386 . S
C1281 C1285 1.393 . S
C1282 H1274 0.950 . S
C1282 C1280 1.391 . S
C1282 C1283 1.400 . S
C1283 C1282 1.400 . S
C1283 C1284 1.398 . S
C1283 C1289 1.491 1_556 S
C1284 H1275 0.950 1_455 S
C1284 C1283 1.398 . S
C1284 C1285 1.391 . S
C1285 H1273 0.950 1_455 S
C1285 C1281 1.393 . S
C1285 C1284 1.391 . S
C1286 H1276 0.950 1_455 S
C1286 C1287 1.386 . S
C1286 C1288 1.391 . S
C1287 C1286 1.386 . S
C1287 C1291 1.393 . S
C1288 H1277 0.950 1_455 S
C1288 C1286 1.391 . S
C1288 C1289 1.400 . S
C1289 C1283 1.491 1_554 S
C1289 C1288 1.400 . S
C1289 C1290 1.398 . S
C1290 H1278 0.950 . S
C1290 C1289 1.398 . S
C1290 C1291 1.391 . S
C1291 H1279 0.950 . S
C1291 C1287 1.393 . S
C1291 C1290 1.391 . S
H1292 C1300 0.950 . S
H1293 C1305 0.950 . S
H1294 C1302 0.950 . S
H1295 C1304 0.950 . S
H1296 C1306 0.950 . S
H1297 C1308 0.950 . S
H1298 C1310 0.950 . S
H1299 C1311 0.950 . S
C1300 H1292 0.950 . S
C1300 C1301 1.386 . S
C1300 C1302 1.391 . S
C1301 C1300 1.386 . S
C1301 C1305 1.393 . S
C1302 H1294 0.950 . S
C1302 C1300 1.391 . S
C1302 C1303 1.400 . S
C1303 C1302 1.400 . S
C1303 C1304 1.398 . S
C1303 C1309 1.491 . S
C1304 H1295 0.950 . S
C1304 C1303 1.398 . S
C1304 C1305 1.391 . S
C1305 H1293 0.950 . S
C1305 C1301 1.393 . S
C1305 C1304 1.391 . S
C1306 H1296 0.950 . S
C1306 C1307 1.386 . S
C1306 C1308 1.391 . S
C1307 C1306 1.386 . S
C1307 C1311 1.393 . S
C1308 H1297 0.950 . S
C1308 C1306 1.391 . S
C1308 C1309 1.400 . S
C1309 C1303 1.491 . S
C1309 C1308 1.400 . S
C1309 C1310 1.398 . S
C1310 H1298 0.950 . S
C1310 C1309 1.398 . S
C1310 C1311 1.391 . S
C1311 H1299 0.950 . S
C1311 C1307 1.393 . S
C1311 C1310 1.391 . S
C361 C21 1.348 . S
C367 C219 1.354 . S
C381 C43 1.346 . S
C387 C227 1.352 . S
C401 C249 1.360 . S
C407 C59 1.347 . S
C421 C197 1.348 . S
C427 C81 1.338 . S
C441 C95 1.329 . S
C447 C351 1.352 . S
C461 C285 1.355 . S
C467 C131 1.330 . S
C481 C307 1.360 . S
C487 C147 1.345 . S
C501 C323 1.348 . S
C507 C169 1.333 . S
C521 C37 1.344 . S
C527 C191 1.326 . S
C541 C213 1.336 . S
C547 C51 1.339 . S
C561 C73 1.348 . S
C567 C241 1.326 . S
C581 C15 1.347 . S
C587 C263 1.326 . S
C601 C161 1.342 . S
C607 C279 1.343 . S
C621 C109 1.352 . S
C627 C301 1.342 . S
C641 C315 1.345 . S
C647 C125 1.350 . S
C661 C139 1.348 . S
C667 C345 1.345 . S
C681 C10 1.330 . S
C687 C337 1.317 . S
C701 C32 1.334 . S
C707 C271 1.316 . S
C721 C62 1.335 . S
C727 C293 1.316 . S
C741 C329 1.335 . S
C747 C84 1.339 . S
C761 C96 1.342 . S
C767 C205 1.325 . S
C781 C120 1.341 . S
C787 C235 1.322 . S
C801 C150 1.342 . S
C807 C257 1.324 . S
C821 C183 1.335 . S
C827 C172 1.339 . S
C841 C184 1.346 . S
C847 C175 1.333 . S
C861 C206 1.354 . S
C867 C103 1.341 . S
C881 C238 1.353 . S
C887 C117 1.338 . S
C901 C260 1.353 . S
C907 C153 1.339 . S
C921 C29 1.341 . S
C927 C272 1.354 . S
C941 C65 1.334 . S
C947 C294 1.349 . S
C961 C87 1.333 . S
C967 C318 1.347 . S
C981 C338 1.346 . S
C987 C7 1.349 . S
C1001 C162 1.244 1_545 S
C1007 C18 1.238 . S
C1021 C98 1.242 . S
C1027 C40 1.225 . S
C1041 C52 1.220 1_455 S
C1047 C128 1.237 . S
C1061 C74 1.243 1_545 S
C1067 C140 1.240 1_455 S
C1081 C348 1.240 1_565 S
C1087 C194 1.231 . S
C1101 C216 1.250 . S
C1107 C282 1.237 . S
C1121 C304 1.238 . S
C1127 C230 1.231 1_655 S
C1141 C252 1.253 1_565 S
C1147 C316 1.255 1_655 S
C1161 C8 1.302 . S
C1167 C106 1.277 . S
C1181 C118 1.302 . S
C1187 C30 1.275 . S
C1201 C54 1.282 . S
C1207 C142 1.294 . S
C1221 C164 1.299 . S
C1227 C76 1.277 . S
C1241 C274 1.271 . S
C1247 C186 1.248 . S
C1261 C296 1.255 . S
C1267 C208 1.263 . S
C1281 C228 1.256 . S
C1287 C326 1.268 . S
C1301 C250 1.272 . S
C1307 C340 1.247 . S
