# Generated by pormake.
# Topology wip, (6)-cn, num edge types: 1
# Building blocks:
#     Node 0, Type 0, BuildingBlock: BETFEN_clean_sbu_0, # of connection points: 6
#     Node 1, Type 0, BuildingBlock: BETFEN_clean_sbu_0, # of connection points: 6
#     Node 2, Type 0, BuildingBlock: BETFEN_clean_sbu_0, # of connection points: 6
#     Node 3, Type 0, BuildingBlock: BETFEN_clean_sbu_0, # of connection points: 6
#     Node 4, Type 0, BuildingBlock: BETFEN_clean_sbu_0, # of connection points: 6
#     Node 5, Type 0, BuildingBlock: BETFEN_clean_sbu_0, # of connection points: 6
#     Node 6, Type 0, BuildingBlock: BETFEN_clean_sbu_0, # of connection points: 6
#     Node 7, Type 0, BuildingBlock: BETFEN_clean_sbu_0, # of connection points: 6
#     Node 8, Type 0, BuildingBlock: BETFEN_clean_sbu_0, # of connection points: 6
#     Node 9, Type 0, BuildingBlock: BETFEN_clean_sbu_0, # of connection points: 6
#     Node 10, Type 0, BuildingBlock: BETFEN_clean_sbu_0, # of connection points: 6
#     Node 11, Type 0, BuildingBlock: BETFEN_clean_sbu_0, # of connection points: 6
#     Node 12, Type 0, BuildingBlock: BETFEN_clean_sbu_0, # of connection points: 6
#     Node 13, Type 0, BuildingBlock: BETFEN_clean_sbu_0, # of connection points: 6
#     Node 14, Type 0, BuildingBlock: BETFEN_clean_sbu_0, # of connection points: 6
#     Node 15, Type 0, BuildingBlock: BETFEN_clean_sbu_0, # of connection points: 6
#     Node 16, Type 0, BuildingBlock: BETFEN_clean_sbu_0, # of connection points: 6
#     Node 17, Type 0, BuildingBlock: BETFEN_clean_sbu_0, # of connection points: 6
#     Node 18, Type 0, BuildingBlock: BETFEN_clean_sbu_0, # of connection points: 6
#     Node 19, Type 0, BuildingBlock: BETFEN_clean_sbu_0, # of connection points: 6
#     Node 20, Type 0, BuildingBlock: BETFEN_clean_sbu_0, # of connection points: 6
#     Node 21, Type 0, BuildingBlock: BETFEN_clean_sbu_0, # of connection points: 6
#     Node 22, Type 0, BuildingBlock: BETFEN_clean_sbu_0, # of connection points: 6
#     Node 23, Type 0, BuildingBlock: BETFEN_clean_sbu_0, # of connection points: 6
#     Node 24, Type 0, BuildingBlock: BETFEN_clean_sbu_0, # of connection points: 6
#     Node 25, Type 0, BuildingBlock: BETFEN_clean_sbu_0, # of connection points: 6
#     Node 26, Type 0, BuildingBlock: BETFEN_clean_sbu_0, # of connection points: 6
#     Node 27, Type 0, BuildingBlock: BETFEN_clean_sbu_0, # of connection points: 6
#     Node 28, Type 0, BuildingBlock: BETFEN_clean_sbu_0, # of connection points: 6
#     Node 29, Type 0, BuildingBlock: BETFEN_clean_sbu_0, # of connection points: 6
#     Node 30, Type 0, BuildingBlock: BETFEN_clean_sbu_0, # of connection points: 6
#     Node 31, Type 0, BuildingBlock: BETFEN_clean_sbu_0, # of connection points: 6
#     Edge 32, Type (0, 0), BuildingBlock: AJUNOK_clean_linker_0, # of connection points: 2
#     Edge 33, Type (0, 0), BuildingBlock: AJUNOK_clean_linker_0, # of connection points: 2
#     Edge 34, Type (0, 0), BuildingBlock: AJUNOK_clean_linker_0, # of connection points: 2
#     Edge 35, Type (0, 0), BuildingBlock: AJUNOK_clean_linker_0, # of connection points: 2
#     Edge 36, Type (0, 0), BuildingBlock: AJUNOK_clean_linker_0, # of connection points: 2
#     Edge 37, Type (0, 0), BuildingBlock: AJUNOK_clean_linker_0, # of connection points: 2
#     Edge 38, Type (0, 0), BuildingBlock: AJUNOK_clean_linker_0, # of connection points: 2
#     Edge 39, Type (0, 0), BuildingBlock: AJUNOK_clean_linker_0, # of connection points: 2
#     Edge 40, Type (0, 0), BuildingBlock: AJUNOK_clean_linker_0, # of connection points: 2
#     Edge 41, Type (0, 0), BuildingBlock: AJUNOK_clean_linker_0, # of connection points: 2
#     Edge 42, Type (0, 0), BuildingBlock: AJUNOK_clean_linker_0, # of connection points: 2
#     Edge 43, Type (0, 0), BuildingBlock: AJUNOK_clean_linker_0, # of connection points: 2
#     Edge 44, Type (0, 0), BuildingBlock: AJUNOK_clean_linker_0, # of connection points: 2
#     Edge 45, Type (0, 0), BuildingBlock: AJUNOK_clean_linker_0, # of connection points: 2
#     Edge 46, Type (0, 0), BuildingBlock: AJUNOK_clean_linker_0, # of connection points: 2
#     Edge 47, Type (0, 0), BuildingBlock: AJUNOK_clean_linker_0, # of connection points: 2
#     Edge 48, Type (0, 0), BuildingBlock: AJUNOK_clean_linker_0, # of connection points: 2
#     Edge 49, Type (0, 0), BuildingBlock: AJUNOK_clean_linker_0, # of connection points: 2
#     Edge 50, Type (0, 0), BuildingBlock: AJUNOK_clean_linker_0, # of connection points: 2
#     Edge 51, Type (0, 0), BuildingBlock: AJUNOK_clean_linker_0, # of connection points: 2
#     Edge 52, Type (0, 0), BuildingBlock: AJUNOK_clean_linker_0, # of connection points: 2
#     Edge 53, Type (0, 0), BuildingBlock: AJUNOK_clean_linker_0, # of connection points: 2
#     Edge 54, Type (0, 0), BuildingBlock: AJUNOK_clean_linker_0, # of connection points: 2
#     Edge 55, Type (0, 0), BuildingBlock: AJUNOK_clean_linker_0, # of connection points: 2
#     Edge 56, Type (0, 0), BuildingBlock: AJUNOK_clean_linker_0, # of connection points: 2
#     Edge 57, Type (0, 0), BuildingBlock: AJUNOK_clean_linker_0, # of connection points: 2
#     Edge 58, Type (0, 0), BuildingBlock: AJUNOK_clean_linker_0, # of connection points: 2
#     Edge 59, Type (0, 0), BuildingBlock: AJUNOK_clean_linker_0, # of connection points: 2
#     Edge 60, Type (0, 0), BuildingBlock: AJUNOK_clean_linker_0, # of connection points: 2
#     Edge 61, Type (0, 0), BuildingBlock: AJUNOK_clean_linker_0, # of connection points: 2
#     Edge 62, Type (0, 0), BuildingBlock: AJUNOK_clean_linker_0, # of connection points: 2
#     Edge 63, Type (0, 0), BuildingBlock: AJUNOK_clean_linker_0, # of connection points: 2
#     Edge 64, Type (0, 0), BuildingBlock: AJUNOK_clean_linker_0, # of connection points: 2
#     Edge 65, Type (0, 0), BuildingBlock: AJUNOK_clean_linker_0, # of connection points: 2
#     Edge 66, Type (0, 0), BuildingBlock: AJUNOK_clean_linker_0, # of connection points: 2
#     Edge 67, Type (0, 0), BuildingBlock: AJUNOK_clean_linker_0, # of connection points: 2
#     Edge 68, Type (0, 0), BuildingBlock: AJUNOK_clean_linker_0, # of connection points: 2
#     Edge 69, Type (0, 0), BuildingBlock: AJUNOK_clean_linker_0, # of connection points: 2
#     Edge 70, Type (0, 0), BuildingBlock: AJUNOK_clean_linker_0, # of connection points: 2
#     Edge 71, Type (0, 0), BuildingBlock: AJUNOK_clean_linker_0, # of connection points: 2
#     Edge 72, Type (0, 0), BuildingBlock: AJUNOK_clean_linker_0, # of connection points: 2
#     Edge 73, Type (0, 0), BuildingBlock: AJUNOK_clean_linker_0, # of connection points: 2
#     Edge 74, Type (0, 0), BuildingBlock: AJUNOK_clean_linker_0, # of connection points: 2
#     Edge 75, Type (0, 0), BuildingBlock: AJUNOK_clean_linker_0, # of connection points: 2
#     Edge 76, Type (0, 0), BuildingBlock: AJUNOK_clean_linker_0, # of connection points: 2
#     Edge 77, Type (0, 0), BuildingBlock: AJUNOK_clean_linker_0, # of connection points: 2
#     Edge 78, Type (0, 0), BuildingBlock: AJUNOK_clean_linker_0, # of connection points: 2
#     Edge 79, Type (0, 0), BuildingBlock: AJUNOK_clean_linker_0, # of connection points: 2
#     Edge 80, Type (0, 0), BuildingBlock: AJUNOK_clean_linker_0, # of connection points: 2
#     Edge 81, Type (0, 0), BuildingBlock: AJUNOK_clean_linker_0, # of connection points: 2
#     Edge 82, Type (0, 0), BuildingBlock: AJUNOK_clean_linker_0, # of connection points: 2
#     Edge 83, Type (0, 0), BuildingBlock: AJUNOK_clean_linker_0, # of connection points: 2
#     Edge 84, Type (0, 0), BuildingBlock: AJUNOK_clean_linker_0, # of connection points: 2
#     Edge 85, Type (0, 0), BuildingBlock: AJUNOK_clean_linker_0, # of connection points: 2
#     Edge 86, Type (0, 0), BuildingBlock: AJUNOK_clean_linker_0, # of connection points: 2
#     Edge 87, Type (0, 0), BuildingBlock: AJUNOK_clean_linker_0, # of connection points: 2
#     Edge 88, Type (0, 0), BuildingBlock: AJUNOK_clean_linker_0, # of connection points: 2
#     Edge 89, Type (0, 0), BuildingBlock: AJUNOK_clean_linker_0, # of connection points: 2
#     Edge 90, Type (0, 0), BuildingBlock: AJUNOK_clean_linker_0, # of connection points: 2
#     Edge 91, Type (0, 0), BuildingBlock: AJUNOK_clean_linker_0, # of connection points: 2
#     Edge 92, Type (0, 0), BuildingBlock: AJUNOK_clean_linker_0, # of connection points: 2
#     Edge 93, Type (0, 0), BuildingBlock: AJUNOK_clean_linker_0, # of connection points: 2
#     Edge 94, Type (0, 0), BuildingBlock: AJUNOK_clean_linker_0, # of connection points: 2
#     Edge 95, Type (0, 0), BuildingBlock: AJUNOK_clean_linker_0, # of connection points: 2
#     Edge 96, Type (0, 0), BuildingBlock: AJUNOK_clean_linker_0, # of connection points: 2
#     Edge 97, Type (0, 0), BuildingBlock: AJUNOK_clean_linker_0, # of connection points: 2
#     Edge 98, Type (0, 0), BuildingBlock: AJUNOK_clean_linker_0, # of connection points: 2
#     Edge 99, Type (0, 0), BuildingBlock: AJUNOK_clean_linker_0, # of connection points: 2
#     Edge 100, Type (0, 0), BuildingBlock: AJUNOK_clean_linker_0, # of connection points: 2
#     Edge 101, Type (0, 0), BuildingBlock: AJUNOK_clean_linker_0, # of connection points: 2
#     Edge 102, Type (0, 0), BuildingBlock: AJUNOK_clean_linker_0, # of connection points: 2
#     Edge 103, Type (0, 0), BuildingBlock: AJUNOK_clean_linker_0, # of connection points: 2
#     Edge 104, Type (0, 0), BuildingBlock: AJUNOK_clean_linker_0, # of connection points: 2
#     Edge 105, Type (0, 0), BuildingBlock: AJUNOK_clean_linker_0, # of connection points: 2
#     Edge 106, Type (0, 0), BuildingBlock: AJUNOK_clean_linker_0, # of connection points: 2
#     Edge 107, Type (0, 0), BuildingBlock: AJUNOK_clean_linker_0, # of connection points: 2
#     Edge 108, Type (0, 0), BuildingBlock: AJUNOK_clean_linker_0, # of connection points: 2
#     Edge 109, Type (0, 0), BuildingBlock: AJUNOK_clean_linker_0, # of connection points: 2
#     Edge 110, Type (0, 0), BuildingBlock: AJUNOK_clean_linker_0, # of connection points: 2
#     Edge 111, Type (0, 0), BuildingBlock: AJUNOK_clean_linker_0, # of connection points: 2
#     Edge 112, Type (0, 0), BuildingBlock: AJUNOK_clean_linker_0, # of connection points: 2
#     Edge 113, Type (0, 0), BuildingBlock: AJUNOK_clean_linker_0, # of connection points: 2
#     Edge 114, Type (0, 0), BuildingBlock: AJUNOK_clean_linker_0, # of connection points: 2
#     Edge 115, Type (0, 0), BuildingBlock: AJUNOK_clean_linker_0, # of connection points: 2
#     Edge 116, Type (0, 0), BuildingBlock: AJUNOK_clean_linker_0, # of connection points: 2
#     Edge 117, Type (0, 0), BuildingBlock: AJUNOK_clean_linker_0, # of connection points: 2
#     Edge 118, Type (0, 0), BuildingBlock: AJUNOK_clean_linker_0, # of connection points: 2
#     Edge 119, Type (0, 0), BuildingBlock: AJUNOK_clean_linker_0, # of connection points: 2
#     Edge 120, Type (0, 0), BuildingBlock: AJUNOK_clean_linker_0, # of connection points: 2
#     Edge 121, Type (0, 0), BuildingBlock: AJUNOK_clean_linker_0, # of connection points: 2
#     Edge 122, Type (0, 0), BuildingBlock: AJUNOK_clean_linker_0, # of connection points: 2
#     Edge 123, Type (0, 0), BuildingBlock: AJUNOK_clean_linker_0, # of connection points: 2
#     Edge 124, Type (0, 0), BuildingBlock: AJUNOK_clean_linker_0, # of connection points: 2
#     Edge 125, Type (0, 0), BuildingBlock: AJUNOK_clean_linker_0, # of connection points: 2
#     Edge 126, Type (0, 0), BuildingBlock: AJUNOK_clean_linker_0, # of connection points: 2
#     Edge 127, Type (0, 0), BuildingBlock: AJUNOK_clean_linker_0, # of connection points: 2
# Relax obj value: 0.411
# Max RMSD: 0.348
# Mean RMSD: 0.263
data_MOF--net-wip--node1-BETFEN_clean_sbu_0--edge1-AJUNOK_clean_linker_0
_symmetry_space_group_name_H-M    P1
_symmetry_Int_Tables_number       1
_symmetry_cell_setting            triclinic
loop_
_symmetry_equiv_pos_as_xyz
'x, y, z'
_cell_length_a     48.267377
_cell_length_b     45.496867
_cell_length_c     28.357939
_cell_angle_alpha  84.055056
_cell_angle_beta   95.518808
_cell_angle_gamma 88.473104
loop_
_atom_site_label
_atom_site_type_symbol
_atom_site_fract_x
_atom_site_fract_y
_atom_site_fract_z
_atom_type_partial_charge
Pr0 Pr 0.04763 0.3878 0.16947 0.0
Pr1 Pr 0.09024 0.42613 0.12041 0.0
C2 C 0.02587 0.34968 0.23372 0.0
C3 C 0.01877 0.35169 0.28279 0.0
C4 C 0.99356 0.3654 0.29132 0.0
C5 C 0.98779 0.36869 0.33777 0.0
C6 C 0.00685 0.35779 0.37656 0.0
C7 C 0.03192 0.34391 0.36809 0.0
C8 C 0.03781 0.34094 0.32168 0.0
C9 C 0.02131 0.44284 0.14864 0.0
C10 C 0.07765 0.44617 0.21845 0.0
C11 C 0.11742 0.45083 0.04714 0.0
C12 C 0.11236 0.46189 0.99459 0.0
C13 C 0.13127 0.4539 0.96278 0.0
C14 C 0.12808 0.46512 0.91408 0.0
C15 C 0.10577 0.48487 0.89491 0.0
C16 C 0.08621 0.49194 0.9266 0.0
C17 C 0.08953 0.48088 0.97548 0.0
C18 C 0.11464 0.38844 0.20287 0.0
C19 C 0.03815 0.3951 0.05582 0.0
O20 O 0.05227 0.34955 0.22742 0.0
O21 O 0.01066 0.36584 0.19968 0.0
O22 O 0.04577 0.43675 0.13854 0.0
O23 O 0.0084 0.41883 0.15883 0.0
O24 O 0.08538 0.45755 0.17718 0.0
O25 O 0.06591 0.42003 0.22381 0.0
O26 O 0.10674 0.46625 0.07825 0.0
O27 O 0.11724 0.42216 0.0593 0.0
O28 O 0.09559 0.38101 0.17114 0.0
O29 O 0.12408 0.4136 0.18635 0.0
O30 O 0.03514 0.37534 0.09218 0.0
O31 O 0.05548 0.41658 0.06058 0.0
H32 H 0.97846 0.37412 0.26216 0.0
H33 H 0.96862 0.3802 0.34323 0.0
H34 H 0.04696 0.3352 0.39737 0.0
H35 H 0.05736 0.33039 0.31632 0.0
H36 H 0.14899 0.4392 0.97586 0.0
H37 H 0.14367 0.45881 0.89165 0.0
H38 H 0.06804 0.50594 0.91374 0.0
H39 H 0.07421 0.48732 0.99833 0.0
Pr40 Pr 0.82705 0.80382 0.34067 0.0
Pr41 Pr 0.78258 0.84263 0.36714 0.0
C42 C 0.8589 0.76916 0.29615 0.0
C43 C 0.85441 0.75788 0.24956 0.0
C44 C 0.87294 0.76524 0.21538 0.0
C45 C 0.8679 0.75683 0.16959 0.0
C46 C 0.84429 0.74088 0.15755 0.0
C47 C 0.82561 0.73365 0.19156 0.0
C48 C 0.83051 0.74225 0.2372 0.0
C49 C 0.8495 0.84996 0.38558 0.0
C50 C 0.77881 0.83538 0.25485 0.0
C51 C 0.75064 0.88224 0.40257 0.0
C52 C 0.74571 0.88544 0.45148 0.0
C53 C 0.74513 0.86012 0.48412 0.0
C54 C 0.74342 0.86301 0.53187 0.0
C55 C 0.74298 0.89118 0.54761 0.0
C56 C 0.74295 0.91651 0.51493 0.0
C57 C 0.74434 0.91362 0.46685 0.0
C58 C 0.76525 0.78479 0.35864 0.0
C59 C 0.81849 0.79568 0.45503 0.0
O60 O 0.84347 0.75852 0.3291 0.0
O61 O 0.86162 0.7978 0.29432 0.0
O62 O 0.82804 0.85361 0.35489 0.0
O63 O 0.86087 0.82376 0.38813 0.0
O64 O 0.77424 0.85519 0.28409 0.0
O65 O 0.79557 0.8123 0.27032 0.0
O66 O 0.77585 0.8877 0.39201 0.0
O67 O 0.7409 0.85853 0.38588 0.0
O68 O 0.78838 0.79271 0.37493 0.0
O69 O 0.74967 0.80815 0.34295 0.0
O70 O 0.8285 0.78248 0.42028 0.0
O71 O 0.80214 0.82008 0.44446 0.0
H72 H 0.89119 0.77773 0.22406 0.0
H73 H 0.88272 0.76223 0.14393 0.0
H74 H 0.80725 0.72133 0.18274 0.0
H75 H 0.81549 0.73687 0.2625 0.0
H76 H 0.74664 0.8381 0.47298 0.0
H77 H 0.74293 0.84324 0.5566 0.0
H78 H 0.74267 0.93838 0.52681 0.0
H79 H 0.74522 0.93324 0.44198 0.0
Pr80 Pr 0.45723 0.58826 0.61656 0.0
Pr81 Pr 0.41364 0.5588 0.56069 0.0
C82 C 0.48717 0.61684 0.68132 0.0
C83 C 0.48872 0.61774 0.73287 0.0
C84 C 0.51493 0.61477 0.75898 0.0
C85 C 0.51714 0.61296 0.80842 0.0
C86 C 0.49313 0.61449 0.83251 0.0
C87 C 0.46682 0.61764 0.80629 0.0
C88 C 0.46462 0.6188 0.75673 0.0
C89 C 0.47723 0.53198 0.60524 0.0
C90 C 0.41504 0.53941 0.67004 0.0
C91 C 0.38565 0.53586 0.48638 0.0
C92 C 0.39111 0.52247 0.44169 0.0
C93 C 0.38217 0.4939 0.43499 0.0
C94 C 0.38539 0.48149 0.39233 0.0
C95 C 0.39792 0.49712 0.35486 0.0
C96 C 0.4071 0.5257 0.36168 0.0
C97 C 0.40382 0.53816 0.40446 0.0
C98 C 0.39101 0.60158 0.61507 0.0
C99 C 0.4682 0.58495 0.50902 0.0
O100 O 0.46508 0.6288 0.65543 0.0
O101 O 0.49516 0.59166 0.66825 0.0
O102 O 0.45214 0.5387 0.60983 0.0
O103 O 0.49099 0.5557 0.59637 0.0
O104 O 0.40754 0.52919 0.6291 0.0
O105 O 0.4318 0.562 0.67297 0.0
O106 O 0.39318 0.52025 0.52742 0.0
O107 O 0.3893 0.56429 0.48763 0.0
O108 O 0.41248 0.60511 0.59159 0.0
O109 O 0.37856 0.57825 0.60249 0.0
O110 O 0.47024 0.6043 0.54052 0.0
O111 O 0.45132 0.56311 0.51458 0.0
H112 H 0.53371 0.61327 0.74111 0.0
H113 H 0.53764 0.61016 0.82788 0.0
H114 H 0.448 0.61941 0.82393 0.0
H115 H 0.44418 0.62021 0.73724 0.0
H116 H 0.37215 0.48123 0.4626 0.0
H117 H 0.37741 0.45978 0.38838 0.0
H118 H 0.41699 0.53843 0.33397 0.0
H119 H 0.41109 0.56021 0.40815 0.0
Pr120 Pr 0.66432 0.19109 0.87965 0.0
Pr121 Pr 0.69977 0.15099 0.82606 0.0
C122 C 0.63559 0.21582 0.94386 0.0
C123 C 0.63779 0.21952 0.9955 0.0
C124 C 0.64909 0.24519 1.01205 0.0
C125 C 0.64931 0.24995 0.06 0.0
C126 C 0.63814 0.22926 0.09259 0.0
C127 C 0.62719 0.20337 0.07626 0.0
C128 C 0.62708 0.19852 1.02828 0.0
C129 C 0.7143 0.21657 0.86047 0.0
C130 C 0.71384 0.14355 0.93747 0.0
C131 C 0.73018 0.12615 0.76408 0.0
C132 C 0.73884 0.12911 0.71485 0.0
C133 C 0.73501 0.10546 0.68702 0.0
C134 C 0.7452 0.1062 0.64225 0.0
C135 C 0.75932 0.13082 0.62371 0.0
C136 C 0.7626 0.15484 0.65129 0.0
C137 C 0.75257 0.15398 0.69631 0.0
C138 C 0.65637 0.12273 0.87049 0.0
C139 C 0.65779 0.20418 0.76695 0.0
O140 O 0.63083 0.18957 0.93086 0.0
O141 O 0.65292 0.23014 0.91821 0.0
O142 O 0.71137 0.18932 0.87177 0.0
O143 O 0.69014 0.23008 0.85049 0.0
O144 O 0.72568 0.14071 0.89834 0.0
O145 O 0.69009 0.15864 0.93794 0.0
O146 O 0.74042 0.14406 0.79408 0.0
O147 O 0.70433 0.11969 0.76952 0.0
O148 O 0.65448 0.14827 0.84719 0.0
O149 O 0.68025 0.11006 0.86598 0.0
O150 O 0.64329 0.20595 0.80361 0.0
O151 O 0.68117 0.18842 0.76987 0.0
H152 H 0.65737 0.26193 0.98779 0.0
H153 H 0.658 0.27004 0.07154 0.0
H154 H 0.61786 0.18728 0.1002 0.0
H155 H 0.618 0.17863 1.01671 0.0
H156 H 0.72477 0.08589 0.70057 0.0
H157 H 0.74285 0.08694 0.62301 0.0
H158 H 0.77319 0.17428 0.63823 0.0
H159 H 0.75595 0.17259 0.71683 0.0
Pr160 Pr 0.05841 0.58005 0.60265 0.0
Pr161 Pr 0.08959 0.5293 0.57382 0.0
C162 C 0.03199 0.61975 0.64674 0.0
C163 C 0.02385 0.6197 0.69517 0.0
C164 C 0.03622 0.63942 0.72489 0.0
C165 C 0.03037 0.63851 0.77201 0.0
C166 C 0.01194 0.61787 0.79008 0.0
C167 C 0.99938 0.5982 0.76034 0.0
C168 C 0.00545 0.59892 0.71326 0.0
C169 C 0.0982 0.59764 0.54066 0.0
C170 C 0.09418 0.53479 0.69025 0.0
C171 C 0.12215 0.49298 0.53336 0.0
C172 C 0.12997 0.4946 0.48527 0.0
C173 C 0.11844 0.5178 0.45215 0.0
C174 C 0.11665 0.51464 0.40387 0.0
C175 C 0.12618 0.48816 0.38906 0.0
C176 C 0.14129 0.46689 0.42165 0.0
C177 C 0.14295 0.47001 0.47005 0.0
C178 C 0.0465 0.51014 0.62337 0.0
C179 C 0.03916 0.56653 0.49557 0.0
O180 O 0.01873 0.60213 0.61929 0.0
O181 O 0.05888 0.61991 0.64343 0.0
O182 O 0.10249 0.57721 0.57511 0.0
O183 O 0.07432 0.61096 0.54149 0.0
O184 O 0.10654 0.5229 0.65656 0.0
O185 O 0.07462 0.55564 0.67808 0.0
O186 O 0.13217 0.51316 0.55913 0.0
O187 O 0.09556 0.48906 0.53588 0.0
O188 O 0.04447 0.53284 0.5931 0.0
O189 O 0.07011 0.4958 0.62526 0.0
O190 O 0.0306 0.57915 0.53156 0.0
O191 O 0.06144 0.5481 0.50171 0.0
H192 H 0.0509 0.65509 0.71188 0.0
H193 H 0.04059 0.65363 0.79457 0.0
H194 H 0.98477 0.58239 0.77338 0.0
H195 H 0.99592 0.58309 0.69132 0.0
H196 H 0.10809 0.53678 0.46376 0.0
H197 H 0.10468 0.53103 0.37904 0.0
H198 H 0.14854 0.44626 0.41027 0.0
H199 H 0.15165 0.45192 0.49549 0.0
Pr200 Pr 0.66755 0.8062 0.99178 0.0
Pr201 Pr 0.70995 0.84428 0.9511 0.0
C202 C 0.6427 0.77478 0.06079 0.0
C203 C 0.65139 0.76324 0.1121 0.0
C204 C 0.64743 0.78071 0.14934 0.0
C205 C 0.65455 0.76969 0.19735 0.0
C206 C 0.66542 0.74054 0.21016 0.0
C207 C 0.6703 0.72342 0.17283 0.0
C208 C 0.66341 0.73455 0.1247 0.0
C209 C 0.64266 0.84461 0.91143 0.0
C210 C 0.71462 0.83903 0.06446 0.0
C211 C 0.73712 0.88267 0.89621 0.0
C212 C 0.73599 0.88733 0.84475 0.0
C213 C 0.74118 0.91502 0.82163 0.0
C214 C 0.74096 0.91855 0.7722 0.0
C215 C 0.73566 0.8943 0.74646 0.0
C216 C 0.72914 0.8671 0.76942 0.0
C217 C 0.72941 0.8636 0.81836 0.0
C218 C 0.73378 0.78827 0.98711 0.0
C219 C 0.68045 0.79143 0.88869 0.0
O220 O 0.65444 0.76235 1.02752 0.0
O221 O 0.6387 0.80356 0.05063 0.0
O222 O 0.66163 0.85219 0.94325 0.0
O223 O 0.63295 0.81956 0.92788 0.0
O224 O 0.71734 0.85908 1.02858 0.0
O225 O 0.69948 0.81617 0.05656 0.0
O226 O 0.71439 0.89019 0.91418 0.0
O227 O 0.74791 0.857 0.91483 0.0
O228 O 0.70956 0.79431 0.96833 0.0
O229 O 0.74664 0.8128 0.99063 0.0
O230 O 0.67202 0.77839 0.92852 0.0
O231 O 0.69293 0.81719 0.88786 0.0
H232 H 0.63864 0.80302 0.14149 0.0
H233 H 0.65152 0.78422 0.22446 0.0
H234 H 0.6788 0.70099 0.18076 0.0
H235 H 0.66717 0.72042 0.09733 0.0
H236 H 0.74585 0.93356 0.84176 0.0
H237 H 0.74593 0.93967 0.75429 0.0
H238 H 0.72488 0.84829 0.7496 0.0
H239 H 0.72542 0.84205 0.8356 0.0
Pr240 Pr 0.45277 0.40425 0.11639 0.0
Pr241 Pr 0.41498 0.45029 0.06016 0.0
C242 C 0.48542 0.36824 0.17981 0.0
C243 C 0.49443 0.37004 0.2296 0.0
C244 C 0.50377 0.34441 0.25866 0.0
C245 C 0.50978 0.34547 0.30733 0.0
C246 C 0.50605 0.37212 0.32735 0.0
C247 C 0.49703 0.39793 0.29784 0.0
C248 C 0.49142 0.39692 0.24907 0.0
C249 C 0.41066 0.38224 0.05572 0.0
C250 C 0.4128 0.44616 0.17538 0.0
C251 C 0.37738 0.47883 0.99578 0.0
C252 C 0.37861 0.48227 0.94497 0.0
C253 C 0.4048 0.48053 0.92777 0.0
C254 C 0.40692 0.48467 0.87956 0.0
C255 C 0.38292 0.49117 0.84828 0.0
C256 C 0.35653 0.49143 0.86482 0.0
C257 C 0.35435 0.48671 0.9136 0.0
C258 C 0.45874 0.47503 0.10953 0.0
C259 C 0.46856 0.4191 1.00949 0.0
O260 O 0.49532 0.38819 0.14996 0.0
O261 O 0.45875 0.36436 0.17076 0.0
O262 O 0.40719 0.40224 0.08273 0.0
O263 O 0.43616 0.37199 0.06228 0.0
O264 O 0.39775 0.45432 0.13446 0.0
O265 O 0.4355 0.42924 0.17672 0.0
O266 O 0.37421 0.45166 1.01378 0.0
O267 O 0.39684 0.49243 1.01939 0.0
O268 O 0.46102 0.45201 0.08845 0.0
O269 O 0.43392 0.48721 0.10186 0.0
O270 O 0.47919 0.40913 0.05273 0.0
O271 O 0.44377 0.4333 1.00248 0.0
H272 H 0.50581 0.32352 0.24388 0.0
H273 H 0.51676 0.32531 0.3295 0.0
H274 H 0.49321 0.41855 0.31253 0.0
H275 H 0.48397 0.41689 0.22683 0.0
H276 H 0.42376 0.47744 0.95159 0.0
H277 H 0.42742 0.485 0.86686 0.0
H278 H 0.33801 0.49695 0.84045 0.0
H279 H 0.33408 0.48763 0.92686 0.0
Pr280 Pr 0.84593 0.18145 0.37123 0.0
Pr281 Pr 0.80082 0.15573 0.33038 0.0
C282 C 0.88257 0.20342 0.43453 0.0
C283 C 0.87963 0.21158 0.48274 0.0
C284 C 0.90327 0.21562 0.51369 0.0
C285 C 0.90048 0.22244 0.56001 0.0
C286 C 0.87396 0.22517 0.5763 0.0
C287 C 0.85029 0.22072 0.54522 0.0
C288 C 0.8531 0.21426 0.49874 0.0
C289 C 0.8637 0.14702 0.29959 0.0
C290 C 0.81013 0.13788 0.44296 0.0
C291 C 0.76226 0.13001 0.27684 0.0
C292 C 0.75779 0.12443 0.22759 0.0
C293 C 0.73276 0.13474 0.20194 0.0
C294 C 0.72907 0.13306 0.15351 0.0
C295 C 0.75002 0.11992 0.13055 0.0
C296 C 0.77507 0.10938 0.1563 0.0
C297 C 0.77909 0.11217 0.20467 0.0
C298 C 0.78078 0.19712 0.38617 0.0
C299 C 0.82915 0.21106 0.26793 0.0
O300 O 0.86826 0.22 0.39966 0.0
O301 O 0.88138 0.17515 0.42987 0.0
O302 O 0.84644 0.13846 0.32957 0.0
O303 O 0.87375 0.17187 0.31015 0.0
O304 O 0.8002 0.12694 0.40404 0.0
O305 O 0.82668 0.16008 0.43892 0.0
O306 O 0.78269 0.11496 0.3031 0.0
O307 O 0.76073 0.15798 0.28329 0.0
O308 O 0.80066 0.20196 0.36021 0.0
O309 O 0.77121 0.17121 0.38272 0.0
O310 O 0.83936 0.21848 0.30931 0.0
O311 O 0.81532 0.1865 0.26577 0.0
H312 H 0.92389 0.21346 0.50208 0.0
H313 H 0.9191 0.22576 0.58306 0.0
H314 H 0.82963 0.22178 0.55696 0.0
H315 H 0.83453 0.2111 0.47543 0.0
H316 H 0.71649 0.14502 0.21913 0.0
H317 H 0.70987 0.14231 0.13395 0.0
H318 H 0.79143 0.09922 0.13919 0.0
H319 H 0.79887 0.1053 0.22392 0.0
Pr320 Pr 0.9184 0.55957 0.25065 0.0
Pr321 Pr 0.95979 0.59234 0.20046 0.0
C322 C 0.89026 0.53777 0.32447 0.0
C323 C 0.89505 0.52661 0.37673 0.0
C324 C 0.87394 0.53081 0.4065 0.0
C325 C 0.87705 0.51976 0.45513 0.0
C326 C 0.9017 0.50443 0.4764 0.0
C327 C 0.92302 0.50036 0.44639 0.0
C328 C 0.91976 0.51123 0.39742 0.0
C329 C 0.89348 0.59494 0.16569 0.0
C330 C 0.96973 0.58942 0.31365 0.0
C331 C 0.98625 0.62478 0.13513 0.0
C332 C 0.98894 0.62423 0.08408 0.0
C333 C 0.01188 0.60899 0.06974 0.0
C334 C 0.01405 0.60674 1.02178 0.0
C335 C 0.99334 0.61966 0.98735 0.0
C336 C 0.97067 0.6354 1.00136 0.0
C337 C 0.96851 0.63774 0.04947 0.0
C338 C 0.98672 0.54078 0.24394 0.0
C339 C 0.9287 0.53286 0.15686 0.0
O340 O 0.89964 0.52136 0.29356 0.0
O341 O 0.89252 0.56621 0.31226 0.0
O342 O 0.91263 0.60347 0.196 0.0
O343 O 0.88431 0.57028 0.18463 0.0
O344 O 0.97088 0.60914 0.27636 0.0
O345 O 0.95395 0.56684 0.30926 0.0
O346 O 0.96221 0.63322 0.14789 0.0
O347 O 0.99766 0.60208 0.16241 0.0
O348 O 0.96109 0.54323 0.22897 0.0
O349 O 0.99806 0.56633 0.24181 0.0
O350 O 0.91989 0.5247 0.1986 0.0
O351 O 0.94199 0.55791 0.14842 0.0
H352 H 0.85459 0.54233 0.39186 0.0
H353 H 0.85961 0.52266 0.47565 0.0
H354 H 0.94241 0.48885 0.46076 0.0
H355 H 0.93656 0.5075 0.37576 0.0
H356 H 0.02814 0.59864 0.09563 0.0
H357 H 0.03213 0.59523 1.01158 0.0
H358 H 0.9546 0.64576 0.97512 0.0
H359 H 0.95083 0.64994 0.05947 0.0
Pr360 Pr 0.2209 0.13766 0.99877 0.0
Pr361 Pr 0.17748 0.17862 1.02788 0.0
C362 C 0.24914 0.09535 0.96234 0.0
C363 C 0.25244 0.08734 0.91457 0.0
C364 C 0.27707 0.09439 0.89408 0.0
C365 C 0.27925 0.09077 0.84661 0.0
C366 C 0.2569 0.07986 0.81926 0.0
C367 C 0.2327 0.07162 0.84006 0.0
C368 C 0.23056 0.07511 0.88765 0.0
C369 C 0.23973 0.19489 1.006 0.0
C370 C 0.18458 0.18465 0.91222 0.0
C371 C 0.14742 0.21491 0.07266 0.0
C372 C 0.15243 0.22437 0.12038 0.0
C373 C 0.13069 0.22432 0.14981 0.0
C374 C 0.1356 0.23211 0.19611 0.0
C375 C 0.16228 0.24003 0.2131 0.0
C376 C 0.18426 0.23893 0.18437 0.0
C377 C 0.17942 0.23102 0.13834 0.0
C378 C 0.15394 0.13248 0.98514 0.0
C379 C 0.22645 0.14475 0.11224 0.0
O380 O 0.2249 0.09115 0.97851 0.0
O381 O 0.25975 0.12041 0.97186 0.0
O382 O 0.21596 0.1876 0.99161 0.0
O383 O 0.25509 0.17118 1.02071 0.0
O384 O 0.17535 0.19879 0.94681 0.0
O385 O 0.20028 0.15988 0.92297 0.0
O386 O 0.16442 0.22466 0.04163 0.0
O387 O 0.14223 0.18686 0.07204 0.0
O388 O 0.1758 0.12897 1.0148 0.0
O389 O 0.14258 0.1587 0.98285 0.0
O390 O 0.23324 0.12713 0.08091 0.0
O391 O 0.20751 0.16639 0.09964 0.0
H392 H 0.29424 0.10376 0.91427 0.0
H393 H 0.29803 0.0973 0.83084 0.0
H394 H 0.21504 0.06373 0.81904 0.0
H395 H 0.21145 0.06917 0.9027 0.0
H396 H 0.10994 0.21844 0.13683 0.0
H397 H 0.11845 0.233 0.21798 0.0
H398 H 0.20503 0.24487 0.19727 0.0
H399 H 0.19674 0.23027 0.1168 0.0
Pr400 Pr 0.58989 0.42587 0.80287 0.0
Pr401 Pr 0.5465 0.3968 0.74629 0.0
C402 C 0.61911 0.45014 0.87454 0.0
C403 C 0.6144 0.46083 0.92131 0.0
C404 C 0.63699 0.46158 0.95619 0.0
C405 C 0.63347 0.47215 1.00015 0.0
C406 C 0.60711 0.48204 1.01094 0.0
C407 C 0.58437 0.48118 0.97583 0.0
C408 C 0.58796 0.47068 0.93164 0.0
C409 C 0.61266 0.38602 0.74371 0.0
C410 C 0.53654 0.39546 0.85658 0.0
C411 C 0.51695 0.36821 0.68155 0.0
C412 C 0.51742 0.36592 0.631 0.0
C413 C 0.49247 0.36134 0.60402 0.0
C414 C 0.4915 0.36319 0.55471 0.0
C415 C 0.51561 0.36933 0.53193 0.0
C416 C 0.54077 0.37344 0.55924 0.0
C417 C 0.54154 0.37224 0.60857 0.0
C418 C 0.52492 0.45092 0.76425 0.0
C419 C 0.58431 0.44976 0.6934 0.0
O420 O 0.60731 0.46565 0.83595 0.0
O421 O 0.61862 0.42153 0.87193 0.0
O422 O 0.59185 0.38083 0.76814 0.0
O423 O 0.62442 0.40952 0.75712 0.0
O424 O 0.53113 0.38012 0.82012 0.0
O425 O 0.55617 0.41483 0.85588 0.0
O426 O 0.53772 0.35547 0.71011 0.0
O427 O 0.51012 0.3946 0.69137 0.0
O428 O 0.55005 0.4458 0.7579 0.0
O429 O 0.51263 0.42629 0.77287 0.0
O430 O 0.59269 0.45816 0.73538 0.0
O431 O 0.56899 0.4262 0.68911 0.0
H432 H 0.6576 0.45428 0.94917 0.0
H433 H 0.65167 0.47316 1.0253 0.0
H434 H 0.56373 0.48849 0.9826 0.0
H435 H 0.57007 0.47035 0.90552 0.0
H436 H 0.47355 0.35725 0.62098 0.0
H437 H 0.47178 0.36031 0.53433 0.0
H438 H 0.55976 0.37762 0.54258 0.0
H439 H 0.56072 0.37687 0.62906 0.0
Pr440 Pr 0.30781 0.83205 0.54195 0.0
Pr441 Pr 0.34137 0.79225 0.48572 0.0
C442 C 0.2788 0.85647 0.60615 0.0
C443 C 0.27071 0.85309 0.65573 0.0
C444 C 0.27658 0.87563 0.68514 0.0
C445 C 0.26687 0.8747 0.7303 0.0
C446 C 0.25116 0.85102 0.74754 0.0
C447 C 0.24589 0.82803 0.71844 0.0
C448 C 0.25548 0.82907 0.67309 0.0
C449 C 0.35117 0.86045 0.49833 0.0
C450 C 0.34927 0.77729 0.59765 0.0
C451 C 0.36824 0.76664 0.42027 0.0
C452 C 0.36742 0.76462 0.36845 0.0
C453 C 0.34294 0.75787 0.34114 0.0
C454 C 0.34356 0.7532 0.29316 0.0
C455 C 0.3686 0.75525 0.2716 0.0
C456 C 0.39289 0.76238 0.29898 0.0
C457 C 0.39223 0.76719 0.34672 0.0
C458 C 0.29113 0.76782 0.506 0.0
C459 C 0.2937 0.84254 0.43063 0.0
O460 O 0.26776 0.83929 0.57564 0.0
O461 O 0.30469 0.8624 0.60016 0.0
O462 O 0.35292 0.83429 0.51956 0.0
O463 O 0.3277 0.87332 0.50461 0.0
O464 O 0.36315 0.77561 0.56031 0.0
O465 O 0.32629 0.79355 0.59621 0.0
O466 O 0.37594 0.79134 0.4364 0.0
O467 O 0.34832 0.75437 0.44231 0.0
O468 O 0.29449 0.795 0.49462 0.0
O469 O 0.31514 0.75404 0.51662 0.0
O470 O 0.28201 0.84478 0.47011 0.0
O471 O 0.3168 0.82653 0.42936 0.0
H472 H 0.28804 0.89455 0.67254 0.0
H473 H 0.27082 0.89317 0.75086 0.0
H474 H 0.23404 0.80931 0.73052 0.0
H475 H 0.25052 0.81132 0.65138 0.0
H476 H 0.32345 0.75567 0.35699 0.0
H477 H 0.32449 0.74781 0.27299 0.0
H478 H 0.41267 0.76339 0.28394 0.0
H479 H 0.41138 0.77209 0.36715 0.0
Pr480 Pr 0.91957 0.45694 0.79594 0.0
Pr481 Pr 0.95062 0.40666 0.76568 0.0
C482 C 0.88839 0.49352 0.83832 0.0
C483 C 0.88203 0.49121 0.8872 0.0
C484 C 0.87441 0.51672 0.90688 0.0
C485 C 0.87775 0.51692 0.95602 0.0
C486 C 0.88839 0.49153 0.98505 0.0
C487 C 0.89338 0.46525 0.96562 0.0
C488 C 0.89057 0.4652 0.9166 0.0
C489 C 0.96366 0.47618 0.74854 0.0
C490 C 0.97089 0.42024 0.87195 0.0
C491 C 0.97531 0.36646 0.71973 0.0
C492 C 0.98125 0.36595 0.6702 0.0
C493 C 0.97473 0.34091 0.64713 0.0
C494 C 0.97788 0.3408 0.59888 0.0
C495 C 0.98741 0.36586 0.57298 0.0
C496 C 0.99411 0.39093 0.59613 0.0
C497 C 0.99086 0.39107 0.64443 0.0
C498 C 0.91107 0.38861 0.82807 0.0
C499 C 0.91484 0.45293 0.67977 0.0
O500 O 0.8776 0.47358 0.81275 0.0
O501 O 0.91482 0.49729 0.83412 0.0
O502 O 0.96475 0.4533 0.7781 0.0
O503 O 0.94 0.49064 0.74497 0.0
O504 O 0.98021 0.40997 0.83442 0.0
O505 O 0.94693 0.43598 0.86773 0.0
O506 O 0.98944 0.3847 0.7448 0.0
O507 O 0.94883 0.36623 0.7261 0.0
O508 O 0.90652 0.40905 0.7936 0.0
O509 O 0.93535 0.37598 0.82781 0.0
O510 O 0.90187 0.46334 0.71403 0.0
O511 O 0.93494 0.43257 0.69099 0.0
H512 H 0.86867 0.53713 0.88439 0.0
H513 H 0.87488 0.53761 0.97092 0.0
H514 H 0.90219 0.44586 0.98791 0.0
H515 H 0.8978 0.44583 0.90167 0.0
H516 H 0.96685 0.32157 0.66635 0.0
H517 H 0.97305 0.32105 0.58188 0.0
H518 H 1.00143 0.4105 0.57668 0.0
H519 H 0.99543 0.41092 0.66134 0.0
Pr520 Pr 0.29145 0.14442 0.41788 0.0
Pr521 Pr 0.33827 0.17119 0.37438 0.0
C522 C 0.25727 0.11213 0.46974 0.0
C523 C 0.25376 0.10119 0.51888 0.0
C524 C 0.23543 0.11682 0.54355 0.0
C525 C 0.23484 0.10991 0.59208 0.0
C526 C 0.25223 0.08701 0.61627 0.0
C527 C 0.2689 0.0697 0.59128 0.0
C528 C 0.26965 0.07674 0.54251 0.0
C529 C 0.27381 0.19985 0.37331 0.0
C530 C 0.32662 0.19568 0.47352 0.0
C531 C 0.36543 0.20068 0.30615 0.0
C532 C 0.35758 0.2125 0.25464 0.0
C533 C 0.36549 0.197 0.21729 0.0
C534 C 0.35888 0.20832 0.16921 0.0
C535 C 0.34453 0.2359 0.15653 0.0
C536 C 0.33596 0.25105 0.19393 0.0
C537 C 0.34234 0.23958 0.24202 0.0
C538 C 0.35799 0.13331 0.45954 0.0
C539 C 0.28791 0.13996 0.30426 0.0
O540 O 0.27752 0.10026 0.44962 0.0
O541 O 0.25449 0.14077 0.45961 0.0
O542 O 0.29794 0.19281 0.39238 0.0
O543 O 0.26016 0.17613 0.3673 0.0
O544 O 0.34029 0.2015 0.43568 0.0
O545 O 0.30732 0.17558 0.47527 0.0
O546 O 0.35359 0.21374 0.33853 0.0
O547 O 0.36839 0.17186 0.31693 0.0
O548 O 0.33781 0.12756 0.42861 0.0
O549 O 0.37154 0.15508 0.44027 0.0
O550 O 0.27777 0.129 0.34323 0.0
O551 O 0.31026 0.15586 0.30753 0.0
H552 H 0.22258 0.13538 0.52581 0.0
H553 H 0.22171 0.12325 0.61114 0.0
H554 H 0.28255 0.05205 0.60988 0.0
H555 H 0.28371 0.06413 0.52405 0.0
H556 H 0.37693 0.17599 0.22521 0.0
H557 H 0.36495 0.19517 0.14197 0.0
H558 H 0.3248 0.27223 0.18618 0.0
H559 H 0.33554 0.25225 0.26936 0.0
Pr560 Pr 0.5873 0.52683 0.30666 0.0
Pr561 Pr 0.55531 0.57749 0.25095 0.0
C562 C 0.62194 0.49244 0.36915 0.0
C563 C 0.62777 0.49256 0.42003 0.0
C564 C 0.63305 0.46561 0.4482 0.0
C565 C 0.63012 0.46405 0.49656 0.0
C566 C 0.6219 0.48945 0.51648 0.0
C567 C 0.61875 0.51684 0.48913 0.0
C568 C 0.62164 0.51839 0.44076 0.0
C569 C 0.54252 0.50797 0.25153 0.0
C570 C 0.53718 0.56363 0.35702 0.0
C571 C 0.52812 0.61714 0.18569 0.0
C572 C 0.51968 0.61607 0.13529 0.0
C573 C 0.51654 0.64234 0.10486 0.0
C574 C 0.51067 0.64138 0.05606 0.0
C575 C 0.50817 0.61409 0.03722 0.0
C576 C 0.51146 0.58772 0.06792 0.0
C577 C 0.51706 0.58871 0.11678 0.0
C578 C 0.59773 0.59403 0.31635 0.0
C579 C 0.59165 0.53196 0.1916 0.0
O580 O 0.6303 0.51536 0.34319 0.0
O581 O 0.59648 0.48526 0.35626 0.0
O582 O 0.54174 0.53061 0.27388 0.0
O583 O 0.56615 0.49327 0.26022 0.0
O584 O 0.52829 0.57616 0.31414 0.0
O585 O 0.55976 0.5456 0.36408 0.0
O586 O 0.55507 0.61736 0.19673 0.0
O587 O 0.5153 0.59932 0.21492 0.0
O588 O 0.6003 0.5741 0.28883 0.0
O589 O 0.57333 0.60699 0.3082 0.0
O590 O 0.60497 0.5216 0.2331 0.0
O591 O 0.57098 0.5517 0.18985 0.0
H592 H 0.63701 0.44547 0.43222 0.0
H593 H 0.63191 0.44266 0.51758 0.0
H594 H 0.61173 0.53634 0.50422 0.0
H595 H 0.61672 0.53912 0.41892 0.0
H596 H 0.51905 0.66352 0.11875 0.0
H597 H 0.50834 0.66199 1.03296 0.0
H598 H 0.51046 0.5664 0.05411 0.0
H599 H 0.51997 0.56815 0.13995 0.0
Pr600 Pr 0.20834 0.82413 0.04126 0.0
Pr601 Pr 0.16139 0.80117 0.99659 0.0
C602 C 0.24517 0.84815 0.10004 0.0
C603 C 0.24458 0.85453 0.14879 0.0
C604 C 0.23413 0.83405 0.18256 0.0
C605 C 0.2344 0.84023 0.22943 0.0
C606 C 0.24465 0.86708 0.24235 0.0
C607 C 0.25216 0.88872 0.20749 0.0
C608 C 0.25286 0.88213 0.16099 0.0
C609 C 0.22677 0.78273 0.98435 0.0
C610 C 0.17696 0.76916 0.09867 0.0
C611 C 0.12391 0.78202 0.9316 0.0
C612 C 0.12532 0.77492 0.88197 0.0
C613 C 0.12974 0.79705 0.84523 0.0
C614 C 0.13242 0.78989 0.79905 0.0
C615 C 0.13019 0.76055 0.78845 0.0
C616 C 0.12575 0.7384 0.82502 0.0
C617 C 0.12339 0.74551 0.87134 0.0
C618 C 0.14521 0.83439 0.07081 0.0
C619 C 0.20083 0.84322 0.92862 0.0
O620 O 0.22742 0.86412 0.06943 0.0
O621 O 0.24652 0.8201 0.09359 0.0
O622 O 0.20595 0.77895 1.00848 0.0
O623 O 0.23867 0.8072 0.99106 0.0
O624 O 0.16653 0.76291 0.05668 0.0
O625 O 0.19174 0.79288 0.10274 0.0
O626 O 0.13801 0.7641 0.96502 0.0
O627 O 0.12561 0.80989 0.93912 0.0
O628 O 0.16308 0.84262 0.04166 0.0
O629 O 0.13354 0.81089 0.05759 0.0
O630 O 0.21132 0.85291 0.96832 0.0
O631 O 0.1826 0.82245 0.93086 0.0
H632 H 0.22689 0.81286 0.1733 0.0
H633 H 0.22889 0.8231 0.25607 0.0
H634 H 0.25992 0.90963 0.21721 0.0
H635 H 0.26009 0.89841 0.13474 0.0
H636 H 0.13122 0.81995 0.85209 0.0
H637 H 0.13577 0.80736 0.77142 0.0
H638 H 0.12429 0.71554 0.8178 0.0
H639 H 0.12021 0.72797 0.89894 0.0
Pr640 Pr 0.54726 0.89535 0.67097 0.0
Pr641 Pr 0.58978 0.9261 0.61814 0.0
C642 C 0.52079 0.86237 0.7358 0.0
C643 C 0.51697 0.86352 0.78616 0.0
C644 C 0.48987 0.86492 0.79998 0.0
C645 C 0.48573 0.86728 0.84739 0.0
C646 C 0.50868 0.86788 0.88149 0.0
C647 C 0.53576 0.86703 0.8676 0.0
C648 C 0.53987 0.86508 0.82014 0.0
C649 C 0.52472 0.95085 0.63346 0.0
C650 C 0.58504 0.94977 0.71755 0.0
C651 C 0.6172 0.94867 0.54391 0.0
C652 C 0.61197 0.95976 0.49165 0.0
C653 C 0.63111 0.95215 0.46013 0.0
C654 C 0.62777 0.96318 0.4115 0.0
C655 C 0.60482 0.98195 0.39202 0.0
C656 C 0.58543 0.98937 0.42372 0.0
C657 C 0.58894 0.97851 0.47265 0.0
C658 C 0.61401 0.88728 0.69921 0.0
C659 C 0.53521 0.89886 0.55757 0.0
O660 O 0.54565 0.85535 0.72509 0.0
O661 O 0.50858 0.88387 0.70691 0.0
O662 O 0.55015 0.94494 0.64648 0.0
O663 O 0.51118 0.92665 0.63293 0.0
O664 O 0.59285 0.95839 0.67513 0.0
O665 O 0.56932 0.92634 0.72489 0.0
O666 O 0.60775 0.96481 0.57512 0.0
O667 O 0.61557 0.92016 0.55616 0.0
O668 O 0.59328 0.88117 0.66969 0.0
O669 O 0.62509 0.91086 0.6803 0.0
O670 O 0.53234 0.88037 0.5956 0.0
O671 O 0.55336 0.91956 0.56013 0.0
H672 H 0.47194 0.86439 0.77402 0.0
H673 H 0.46469 0.86811 0.85761 0.0
H674 H 0.55369 0.868 0.89344 0.0
H675 H 0.56089 0.86502 0.81009 0.0
H676 H 0.64916 0.93797 0.4734 0.0
H677 H 0.64382 0.9575 0.38955 0.0
H678 H 0.56737 0.00358 0.41074 0.0
H679 H 0.57367 0.98492 0.49562 0.0
Pr680 Pr 0.32943 0.29948 0.84144 0.0
Pr681 Pr 0.28418 0.33568 0.87047 0.0
C682 C 0.36116 0.26468 0.79666 0.0
C683 C 0.35752 0.25448 0.74898 0.0
C684 C 0.3748 0.26514 0.71448 0.0
C685 C 0.37021 0.25783 0.66795 0.0
C686 C 0.34857 0.23929 0.65539 0.0
C687 C 0.33129 0.22854 0.68988 0.0
C688 C 0.33562 0.23617 0.73625 0.0
C689 C 0.35105 0.34499 0.88904 0.0
C690 C 0.28093 0.33304 0.75659 0.0
C691 C 0.25054 0.37399 0.90566 0.0
C692 C 0.24322 0.37894 0.95305 0.0
C693 C 0.22754 0.35835 0.97848 0.0
C694 C 0.22381 0.36109 1.02568 0.0
C695 C 0.23605 0.38417 0.04813 0.0
C696 C 0.25021 0.40581 1.02207 0.0
C697 C 0.25361 0.40331 0.97455 0.0
C698 C 0.26819 0.27804 0.85733 0.0
C699 C 0.32079 0.28929 0.95657 0.0
O700 O 0.34447 0.2541 0.8276 0.0
O701 O 0.36502 0.29304 0.79723 0.0
O702 O 0.32929 0.34867 0.85896 0.0
O703 O 0.36332 0.31941 0.889 0.0
O704 O 0.27381 0.34971 0.78884 0.0
O705 O 0.30002 0.31152 0.76874 0.0
O706 O 0.27591 0.38011 0.89652 0.0
O707 O 0.24213 0.34955 0.88967 0.0
O708 O 0.29108 0.28579 0.8752 0.0
O709 O 0.2531 0.30148 0.84021 0.0
O710 O 0.33242 0.27792 0.92156 0.0
O711 O 0.30241 0.31195 0.94686 0.0
H712 H 0.39151 0.27966 0.72329 0.0
H713 H 0.38336 0.267 0.64167 0.0
H714 H 0.3145 0.2141 0.68104 0.0
H715 H 0.32163 0.22796 0.76182 0.0
H716 H 0.21887 0.3396 0.96256 0.0
H717 H 0.21212 0.34467 0.04503 0.0
H718 H 0.25978 0.42381 0.03901 0.0
H719 H 0.26556 0.41955 0.95538 0.0
Pr720 Pr 0.95397 0.09147 0.11599 0.0
Pr721 Pr 0.91218 0.0587 0.06024 0.0
C722 C 0.98088 0.12312 0.17994 0.0
C723 C 0.98293 0.123 0.23165 0.0
C724 C 0.00903 0.1266 0.25611 0.0
C725 C 0.01211 0.12422 0.30566 0.0
C726 C 0.98906 0.1184 0.3312 0.0
C727 C 0.96294 0.11452 0.3068 0.0
C728 C 0.95993 0.11654 0.25718 0.0
C729 C 0.97748 0.03694 0.10462 0.0
C730 C 0.91653 0.03718 0.16998 0.0
C731 C 0.88476 0.03552 0.98558 0.0
C732 C 0.89024 0.02422 0.93935 0.0
C733 C 0.87084 0.03081 0.89913 0.0
C734 C 0.87466 0.01965 0.85564 0.0
C735 C 0.89809 0.00144 0.85077 0.0
C736 C 0.91806 -0.00435 0.89081 0.0
C737 C 0.91415 0.00675 0.93448 0.0
C738 C 0.88776 0.09953 0.11582 0.0
C739 C 0.96556 0.08719 1.0076 0.0
O740 O 0.95721 0.13216 0.15581 0.0
O741 O 0.99174 0.09965 0.16535 0.0
O742 O 0.95204 0.04186 0.10867 0.0
O743 O 0.9902 0.06155 0.09827 0.0
O744 O 0.90912 0.02745 0.12851 0.0
O745 O 0.93122 0.06143 0.1731 0.0
O746 O 0.89427 0.01962 1.02546 0.0
O747 O 0.88647 0.06408 0.98809 0.0
O748 O 0.90854 0.10474 0.09128 0.0
O749 O 0.87672 0.07535 0.10371 0.0
O750 O 0.96708 0.10673 0.03905 0.0
O751 O 0.94925 0.06488 1.0133 0.0
H752 H 0.02709 0.13086 0.23686 0.0
H753 H 0.03241 0.12724 0.32406 0.0
H754 H 0.94502 0.10961 0.32613 0.0
H755 H 0.93985 0.11264 0.23891 0.0
H756 H 0.85235 0.04439 0.90153 0.0
H757 H 0.85881 0.02479 0.82602 0.0
H758 H 0.93689 0.98264 0.88846 0.0
H759 H 0.9298 0.00159 0.96444 0.0
Pr760 Pr 0.16554 0.69052 0.38341 0.0
Pr761 Pr 0.20109 0.65279 0.32854 0.0
C762 C 0.13573 0.71379 0.44768 0.0
C763 C 0.1382 0.71922 0.49864 0.0
C764 C 0.14539 0.74718 0.51201 0.0
C765 C 0.14531 0.75324 0.55939 0.0
C766 C 0.13784 0.73155 0.59442 0.0
C767 C 0.13168 0.70327 0.5814 0.0
C768 C 0.13168 0.69722 0.53404 0.0
C769 C 0.2148 0.7181 0.36723 0.0
C770 C 0.21604 0.64312 0.43905 0.0
C771 C 0.22942 0.62835 0.26342 0.0
C772 C 0.24081 0.63216 0.21639 0.0
C773 C 0.26635 0.61794 0.2115 0.0
C774 C 0.27673 0.61855 0.16699 0.0
C775 C 0.26189 0.63347 0.12586 0.0
C776 C 0.23654 0.64846 0.13099 0.0
C777 C 0.22606 0.64771 0.17577 0.0
C778 C 0.1576 0.62307 0.37096 0.0
C779 C 0.15956 0.70527 0.27216 0.0
O780 O 0.13396 0.68651 0.4377 0.0
O781 O 0.15064 0.72955 0.41927 0.0
O782 O 0.2128 0.69046 0.3764 0.0
O783 O 0.19033 0.73062 0.35574 0.0
O784 O 0.22767 0.6412 0.39951 0.0
O785 O 0.19214 0.6578 0.44051 0.0
O786 O 0.24173 0.64107 0.29875 0.0
O787 O 0.20238 0.62753 0.26407 0.0
O788 O 0.15562 0.64877 0.34848 0.0
O789 O 0.18184 0.61109 0.36707 0.0
O790 O 0.14369 0.70371 0.30741 0.0
O791 O 0.18471 0.69313 0.27687 0.0
H792 H 0.15043 0.76466 0.48564 0.0
H793 H 0.15018 0.77523 0.5683 0.0
H794 H 0.12656 0.68584 0.60779 0.0
H795 H 0.12608 0.67542 0.5251 0.0
H796 H 0.27809 0.60571 0.24214 0.0
H797 H 0.29623 0.60671 0.16465 0.0
H798 H 0.22486 0.66093 0.10057 0.0
H799 H 0.20636 0.65905 0.17855 0.0
Pr800 Pr 0.55695 0.08078 0.10267 0.0
Pr801 Pr 0.58727 0.02935 0.07289 0.0
C802 C 0.53189 0.12134 0.14729 0.0
C803 C 0.5266 0.12341 0.19708 0.0
C804 C 0.54733 0.13336 0.22933 0.0
C805 C 0.54265 0.13467 0.27667 0.0
C806 C 0.51697 0.12669 0.29243 0.0
C807 C 0.49638 0.11631 0.26054 0.0
C808 C 0.50115 0.11468 0.21319 0.0
C809 C 0.59685 0.0976 0.04047 0.0
C810 C 0.59197 0.03369 0.18895 0.0
C811 C 0.61947 -0.00718 1.03253 0.0
C812 C 0.6278 -0.0043 0.98492 0.0
C813 C 0.64118 0.97191 0.9682 0.0
C814 C 0.64133 0.9712 0.91942 0.0
C815 C 0.62796 -0.00578 0.888 0.0
C816 C 0.61753 0.01954 0.90496 0.0
C817 C 0.61722 0.02015 0.95355 0.0
C818 C 0.54247 0.01174 0.11935 0.0
C819 C 0.53732 0.06756 0.9954 0.0
O820 O 0.51797 0.10173 0.12483 0.0
O821 O 0.55798 0.12256 0.13834 0.0
O822 O 0.60091 0.07704 0.07484 0.0
O823 O 0.5731 0.11123 0.0413 0.0
O824 O 0.60409 0.0222 0.15482 0.0
O825 O 0.57302 0.05532 0.17784 0.0
O826 O 0.62971 0.01217 0.05978 0.0
O827 O 0.5927 0.9895 1.03378 0.0
O828 O 0.54211 0.03453 0.08972 0.0
O829 O 0.56563 -0.00366 0.12298 0.0
O830 O 0.5287 0.07984 1.03175 0.0
O831 O 0.55994 0.04962 1.00119 0.0
H832 H 0.5673 0.13999 0.2182 0.0
H833 H 0.5592 0.14183 0.30098 0.0
H834 H 0.47645 0.10984 0.27207 0.0
H835 H 0.4849 0.10665 0.18924 0.0
H836 H 0.64895 0.95279 0.99229 0.0
H837 H 0.64873 0.95121 0.90629 0.0
H838 H 0.60651 0.037 0.88085 0.0
H839 H 0.60632 0.03834 0.9663 0.0
Pr840 Pr 0.16853 0.30668 0.49547 0.0
Pr841 Pr 0.21176 0.3428 0.45216 0.0
C842 C 0.14311 0.27363 0.56238 0.0
C843 C 0.15056 0.26181 0.61376 0.0
C844 C 0.13105 0.26384 0.6472 0.0
C845 C 0.13728 0.2521 0.69518 0.0
C846 C 0.16327 0.23784 0.71146 0.0
C847 C 0.18316 0.2367 0.67817 0.0
C848 C 0.17688 0.24838 0.63014 0.0
C849 C 0.14378 0.34496 0.41479 0.0
C850 C 0.21711 0.33991 0.56646 0.0
C851 C 0.24092 0.38004 0.39858 0.0
C852 C 0.24131 0.38833 0.34772 0.0
C853 C 0.2654 0.38137 0.32665 0.0
C854 C 0.26454 0.38237 0.27752 0.0
C855 C 0.2396 0.39045 0.24919 0.0
C856 C 0.21608 0.3996 0.26988 0.0
C857 C 0.2169 0.39847 0.31912 0.0
C858 C 0.23385 0.28611 0.48835 0.0
C859 C 0.18068 0.29217 0.38976 0.0
O860 O 0.1567 0.2622 0.53027 0.0
O861 O 0.13838 0.30232 0.55281 0.0
O862 O 0.1635 0.35233 0.44553 0.0
O863 O 0.13344 0.32065 0.43286 0.0
O864 O 0.22302 0.35674 0.52866 0.0
O865 O 0.19866 0.31935 0.5618 0.0
O866 O 0.21925 0.38883 0.41862 0.0
O867 O 0.24885 0.35259 0.41223 0.0
O868 O 0.20957 0.29299 0.47059 0.0
O869 O 0.24719 0.31025 0.49265 0.0
O870 O 0.17149 0.27982 0.42961 0.0
O871 O 0.19453 0.31695 0.38909 0.0
H872 H 0.11072 0.27427 0.63606 0.0
H873 H 0.12138 0.25363 0.71936 0.0
H874 H 0.20375 0.22693 0.68922 0.0
H875 H 0.1927 0.24682 0.60579 0.0
H876 H 0.28439 0.37346 0.34832 0.0
H877 H 0.28302 0.37582 0.26172 0.0
H878 H 0.19672 0.40606 0.24819 0.0
H879 H 0.19815 0.40408 0.33469 0.0
Pr880 Pr 0.95229 0.91017 0.60982 0.0
Pr881 Pr 0.9147 0.95702 0.55264 0.0
C882 C 0.98375 0.87391 0.67444 0.0
C883 C 0.99148 0.87492 0.72504 0.0
C884 C 0.9922 0.84872 0.75553 0.0
C885 C 0.99729 0.8495 0.8044 0.0
C886 C 1.00231 0.87646 0.8232 0.0
C887 C 1.00104 0.90283 0.79259 0.0
C888 C 0.99542 0.9021 0.74369 0.0
C889 C 0.91022 0.88882 0.54878 0.0
C890 C 0.91324 0.95285 0.66907 0.0
C891 C 0.87567 0.98614 0.49117 0.0
C892 C 0.86911 0.98587 0.44048 0.0
C893 C 0.85983 0.01233 0.4136 0.0
C894 C 0.86289 0.01597 0.36528 0.0
C895 C 0.87516 -0.00691 0.34399 0.0
C896 C 0.88165 0.96551 0.36977 0.0
C897 C 0.8788 0.96195 0.41826 0.0
C898 C 0.95823 0.98112 0.60301 0.0
C899 C 0.96709 0.9237 0.50191 0.0
O900 O 0.99436 0.89403 0.64565 0.0
O901 O 0.95731 0.8698 0.66323 0.0
O902 O 0.9069 0.90904 0.57539 0.0
O903 O 0.93542 0.87775 0.55625 0.0
O904 O 0.89888 0.96239 0.62798 0.0
O905 O 0.93512 0.93475 0.67045 0.0
O906 O 0.87067 0.96193 0.51764 0.0
O907 O 0.9 -0.00311 0.50248 0.0
O908 O 0.96052 0.95801 0.58214 0.0
O909 O 0.93362 -0.00626 0.59444 0.0
O910 O 0.9779 0.91367 0.5451 0.0
O911 O 0.9427 0.93885 0.49504 0.0
H912 H 0.98827 0.82777 0.74158 0.0
H913 H 0.997 0.82903 0.82752 0.0
H914 H 0.00443 0.9239 0.80645 0.0
H915 H 0.99393 0.92271 0.7206 0.0
H916 H 0.85295 0.03108 0.43072 0.0
H917 H 0.85826 0.03752 0.34562 0.0
H918 H 0.89154 0.94792 0.35365 0.0
H919 H 0.88671 0.94166 0.43905 0.0
Pr920 Pr 0.34864 0.6801 0.87348 0.0
Pr921 Pr 0.30353 0.65418 0.83043 0.0
C922 C 0.38507 0.7025 0.93678 0.0
C923 C 0.38229 0.71048 0.98517 0.0
C924 C 0.40587 0.71703 1.01439 0.0
C925 C 0.40327 0.72451 0.06044 0.0
C926 C 0.377 0.72558 0.078 0.0
C927 C 0.35341 0.71861 0.04881 0.0
C928 C 0.35601 0.71134 1.00266 0.0
C929 C 0.36681 0.64704 0.8006 0.0
C930 C 0.31086 0.63779 0.9438 0.0
C931 C 0.26674 0.62665 0.77632 0.0
C932 C 0.26245 0.62119 0.72693 0.0
C933 C 0.23847 0.63384 0.70037 0.0
C934 C 0.23491 0.63224 0.65202 0.0
C935 C 0.2548 0.61695 0.62986 0.0
C936 C 0.27882 0.60409 0.65622 0.0
C937 C 0.28274 0.60634 0.70489 0.0
C938 C 0.28266 0.69612 0.88423 0.0
C939 C 0.3316 0.71025 0.76996 0.0
O940 O 0.3702 0.71891 0.90237 0.0
O941 O 0.38447 0.67422 0.93179 0.0
O942 O 0.34945 0.63785 0.83007 0.0
O943 O 0.37691 0.67147 0.813 0.0
O944 O 0.30073 0.62703 0.90486 0.0
O945 O 0.32861 0.65891 0.94042 0.0
O946 O 0.28776 0.61254 0.8025 0.0
O947 O 0.2638 0.65448 0.78318 0.0
O948 O 0.30339 0.70047 0.86007 0.0
O949 O 0.27251 0.67055 0.87983 0.0
O950 O 0.34172 0.71724 0.81171 0.0
O951 O 0.31775 0.68579 0.76674 0.0
H952 H 0.42629 0.71636 1.0016 0.0
H953 H 0.42186 0.72922 0.08249 0.0
H954 H 0.33292 0.71929 0.06136 0.0
H955 H 0.33745 0.70663 0.98056 0.0
H956 H 0.22288 0.64574 0.71685 0.0
H957 H 0.21653 0.64303 0.63185 0.0
H958 H 0.29429 0.59233 0.63935 0.0
H959 H 0.30158 0.59676 0.72498 0.0
Pr960 Pr 0.41645 0.06485 0.74817 0.0
Pr961 Pr 0.45936 0.09947 0.6992 0.0
C962 C 0.39042 0.04092 0.8233 0.0
C963 C 0.39608 0.02978 0.87589 0.0
C964 C 0.39527 0.0492 0.91156 0.0
C965 C 0.39822 0.03867 0.96057 0.0
C966 C 0.40165 0.00815 0.97621 0.0
C967 C 0.40318 0.98882 0.94044 0.0
C968 C 0.40043 -0.00062 0.89142 0.0
C969 C 0.39101 0.1055 0.67094 0.0
C970 C 0.4696 0.0924 0.81195 0.0
C971 C 0.48626 0.13368 0.63671 0.0
C972 C 0.49045 0.1333 0.58614 0.0
C973 C 0.50369 0.10881 0.57013 0.0
C974 C 0.50741 0.10857 0.52219 0.0
C975 C 0.49798 0.13275 0.48937 0.0
C976 C 0.48446 0.15709 0.50517 0.0
C977 C 0.48086 0.15741 0.55331 0.0
C978 C 0.4818 0.04349 0.73323 0.0
C979 C 0.42277 0.04788 0.64363 0.0
O980 O 0.39957 0.02508 0.79127 0.0
O981 O 0.39133 0.06953 0.81096 0.0
O982 O 0.41247 0.11081 0.69975 0.0
O983 O 0.37984 0.08183 0.68937 0.0
O984 O 0.47056 0.11339 0.77651 0.0
O985 O 0.45394 0.06984 0.80559 0.0
O986 O 0.46118 0.14054 0.64668 0.0
O987 O 0.49832 0.11203 0.66574 0.0
O988 O 0.45663 0.04939 0.71841 0.0
O989 O 0.49534 0.06764 0.7353 0.0
O990 O 0.41317 0.03702 0.68395 0.0
O991 O 0.43996 0.07013 0.642 0.0
H992 H 0.39204 0.07276 0.90167 0.0
H993 H 0.39801 0.05472 0.98615 0.0
H994 H 0.40585 0.9652 0.95018 0.0
H995 H 0.40118 0.98353 0.86556 0.0
H996 H 0.51132 0.08983 0.59449 0.0
H997 H 0.51794 0.08957 0.51084 0.0
H998 H 0.47638 0.17569 0.48026 0.0
H999 H 0.47049 0.17641 0.56489 0.0
Pr1000 Pr 0.72499 0.64207 0.4975 0.0
Pr1001 Pr 0.67935 0.67902 0.52611 0.0
C1002 C 0.75757 0.60185 0.46431 0.0
C1003 C 0.76463 0.59518 0.41755 0.0
C1004 C 0.78367 0.61245 0.39359 0.0
C1005 C 0.78687 0.60939 0.34633 0.0
C1006 C 0.77092 0.58921 0.3225 0.0
C1007 C 0.75375 0.57015 0.34738 0.0
C1008 C 0.75077 0.57298 0.39493 0.0
C1009 C 0.74094 0.70001 0.5079 0.0
C1010 C 0.68847 0.6882 0.41075 0.0
C1011 C 0.64803 0.71484 0.5696 0.0
C1012 C 0.65256 0.72593 0.61646 0.0
C1013 C 0.63489 0.71742 0.65154 0.0
C1014 C 0.63993 0.72614 0.69716 0.0
C1015 C 0.66276 0.74346 0.70827 0.0
C1016 C 0.68062 0.75175 0.6734 0.0
C1017 C 0.67563 0.74301 0.62787 0.0
C1018 C 0.65815 0.63265 0.48029 0.0
C1019 C 0.72828 0.64654 0.6114 0.0
O1020 O 0.73211 0.5967 0.47419 0.0
O1021 O 0.76651 0.6267 0.47807 0.0
O1022 O 0.71777 0.69191 0.49187 0.0
O1023 O 0.75661 0.67682 0.52422 0.0
O1024 O 0.67673 0.69975 0.44553 0.0
O1025 O 0.7069 0.66559 0.42087 0.0
O1026 O 0.66425 0.7248 0.53745 0.0
O1027 O 0.64408 0.68642 0.57067 0.0
O1028 O 0.67992 0.62966 0.51038 0.0
O1029 O 0.64549 0.6581 0.4796 0.0
O1030 O 0.73629 0.63017 0.57941 0.0
O1031 O 0.70841 0.66724 0.59926 0.0
H1032 H 0.79531 0.62913 0.41064 0.0
H1033 H 0.80102 0.62352 0.32792 0.0
H1034 H 0.74147 0.55426 0.32943 0.0
H1035 H 0.73638 0.55903 0.41306 0.0
H1036 H 0.61724 0.70389 0.64367 0.0
H1037 H 0.62568 0.71985 0.7234 0.0
H1038 H 0.69846 0.76499 0.68143 0.0
H1039 H 0.68998 0.74947 0.60189 0.0
Pr1040 Pr 0.0913 0.92495 0.30422 0.0
Pr1041 Pr 0.05094 0.89581 0.24389 0.0
C1042 C 0.11884 0.94648 0.38033 0.0
C1043 C 0.11359 0.95911 0.42533 0.0
C1044 C 0.13388 0.95467 0.4645 0.0
C1045 C 0.1301 0.96658 0.50726 0.0
C1046 C 0.10562 0.98299 0.51258 0.0
C1047 C 0.08518 0.98745 0.4731 0.0
C1048 C 0.0891 0.97564 0.43003 0.0
C1049 C 0.11692 0.88192 0.25256 0.0
C1050 C 0.03521 0.8994 0.35021 0.0
C1051 C 0.02383 0.86534 0.17832 0.0
C1052 C 0.02253 0.86656 0.12659 0.0
C1053 C 0.99659 0.86491 0.10048 0.0
C1054 C 0.99451 0.8682 0.05095 0.0
C1055 C 0.01841 0.87295 1.02721 0.0
C1056 C 0.04435 0.87498 0.05327 0.0
C1057 C 0.04636 0.87207 0.10281 0.0
C1058 C 0.02821 0.95128 0.25365 0.0
C1059 C 0.09216 0.94882 0.1976 0.0
O1060 O 0.11142 0.96261 0.33982 0.0
O1061 O 0.11447 0.91828 0.37842 0.0
O1062 O 0.09465 0.87828 0.27378 0.0
O1063 O 0.12773 0.90628 0.26428 0.0
O1064 O 0.03442 0.88044 0.318 0.0
O1065 O 0.05259 0.92089 0.34778 0.0
O1066 O 0.0472 0.8559 0.20266 0.0
O1067 O 0.01293 0.88834 0.19402 0.0
O1068 O 0.0538 0.94542 0.25238 0.0
O1069 O 0.01483 0.92707 0.25828 0.0
O1070 O 0.09695 0.95813 0.2398 0.0
O1071 O 0.07839 0.92431 0.1911 0.0
H1072 H 0.15299 0.94217 0.46186 0.0
H1073 H 0.14677 0.96334 0.53588 0.0
H1074 H 0.06603 -0.00012 0.47559 0.0
H1075 H 0.073 0.97943 0.40047 0.0
H1076 H 0.97793 0.86144 0.11843 0.0
H1077 H 0.97433 0.86668 1.03115 0.0
H1078 H 0.0629 0.87915 0.03528 0.0
H1079 H 0.06636 0.87463 0.1224 0.0
Pr1080 Pr 0.80595 0.32991 0.0368 0.0
Pr1081 Pr 0.84232 0.29245 0.9825 0.0
C1082 C 0.77672 0.35399 0.10129 0.0
C1083 C 0.76688 0.35027 0.1498 0.0
C1084 C 0.77414 0.37101 0.18194 0.0
C1085 C 0.76284 0.37018 0.22586 0.0
C1086 C 0.74387 0.34855 0.239 0.0
C1087 C 0.73767 0.3269 0.20766 0.0
C1088 C 0.74878 0.32792 0.16348 0.0
C1089 C 0.84948 0.35995 0.99493 0.0
C1090 C 0.8467 0.27625 0.09369 0.0
C1091 C 0.87301 0.27012 0.91863 0.0
C1092 C 0.86998 0.26423 0.868 0.0
C1093 C 0.86976 0.23492 0.85659 0.0
C1094 C 0.86844 0.22883 0.80914 0.0
C1095 C 0.86747 0.25192 0.77197 0.0
C1096 C 0.86738 0.2813 0.78332 0.0
C1097 C 0.86849 0.28741 0.8308 0.0
C1098 C 0.7928 0.26482 0.9971 0.0
C1099 C 0.79168 0.33938 0.92585 0.0
O1100 O 0.76536 0.33871 0.06826 0.0
O1101 O 0.80324 0.35805 0.09806 0.0
O1102 O 0.85163 0.33423 1.01753 0.0
O1103 O 0.82506 0.37168 0.99833 0.0
O1104 O 0.86299 0.27795 0.05901 0.0
O1105 O 0.8221 0.28965 0.08915 0.0
O1106 O 0.87351 0.2976 0.92778 0.0
O1107 O 0.85918 0.25373 0.94797 0.0
O1108 O 0.79491 0.29245 0.98816 0.0
O1109 O 0.8172 0.25209 1.00813 0.0
O1110 O 0.77982 0.34118 0.96524 0.0
O1111 O 0.8157 0.32488 0.92465 0.0
H1112 H 0.78801 0.38851 0.17246 0.0
H1113 H 0.76828 0.38716 0.24882 0.0
H1114 H 0.72406 0.30916 0.21704 0.0
H1115 H 0.74285 0.31144 0.13982 0.0
H1116 H 0.87097 0.21662 0.88448 0.0
H1117 H 0.8684 0.20599 0.8015 0.0
H1118 H 0.86726 0.29958 0.75561 0.0
H1119 H 0.86871 0.31028 0.83831 0.0
Pr1120 Pr 0.41724 0.96407 0.29795 0.0
Pr1121 Pr 0.44934 0.91389 0.2681 0.0
C1122 C 0.38462 0.00306 0.33358 0.0
C1123 C 0.37279 0.00681 0.37764 0.0
C1124 C 0.38181 0.98783 0.41845 0.0
C1125 C 0.37619 -0.00461 0.46272 0.0
C1126 C 0.36221 0.02247 0.46659 0.0
C1127 C 0.35064 0.03981 0.42528 0.0
C1128 C 0.35603 0.03199 0.38072 0.0
C1129 C 0.46076 0.98366 0.24906 0.0
C1130 C 0.46839 0.92812 0.37462 0.0
C1131 C 0.47512 0.87368 0.22384 0.0
C1132 C 0.48169 0.87284 0.17482 0.0
C1133 C 0.47813 0.84663 0.15356 0.0
C1134 C 0.48214 0.84594 0.10575 0.0
C1135 C 0.49022 0.87139 0.07885 0.0
C1136 C 0.4933 0.89782 0.1 0.0
C1137 C 0.48891 0.8986 0.14771 0.0
C1138 C 0.41111 0.89516 0.33202 0.0
C1139 C 0.41343 0.95889 0.1812 0.0
O1140 O 0.37461 0.98211 0.30935 0.0
O1141 O 0.41179 0.00416 0.33631 0.0
O1142 O 0.46242 0.96099 0.27906 0.0
O1143 O 0.4371 -0.00216 0.24664 0.0
O1144 O 0.47817 0.9184 0.33702 0.0
O1145 O 0.44426 0.94361 0.37029 0.0
O1146 O 0.48872 0.8924 0.24872 0.0
O1147 O 0.4485 0.87322 0.22918 0.0
O1148 O 0.40555 0.91554 0.29761 0.0
O1149 O 0.43529 0.88272 0.33026 0.0
O1150 O 0.40011 0.96929 0.21516 0.0
O1151 O 0.43368 0.93882 0.19306 0.0
H1152 H 0.39502 0.96845 0.41635 0.0
H1153 H 0.38587 0.98182 0.49393 0.0
H1154 H 0.34002 0.06081 0.42765 0.0
H1155 H 0.34914 0.04682 0.34913 0.0
H1156 H 0.47178 0.82685 0.17375 0.0
H1157 H 0.47867 0.82559 0.08972 0.0
H1158 H 0.49927 0.91778 0.07977 0.0
H1159 H 0.49092 0.91933 0.16321 0.0
Pr1160 Pr 0.79467 0.64065 0.91785 0.0
Pr1161 Pr 0.83781 0.67641 0.87327 0.0
C1162 C 0.76695 0.60267 0.97256 0.0
C1163 C 0.77059 0.59439 1.02327 0.0
C1164 C 0.75192 0.57593 0.0454 0.0
C1165 C 0.75308 0.57254 0.09491 0.0
C1166 C 0.77274 0.58786 0.12162 0.0
C1167 C 0.79235 0.60489 0.09935 0.0
C1168 C 0.79109 0.60829 0.0503 0.0
C1169 C 0.77222 0.6968 0.88103 0.0
C1170 C 0.82645 0.69203 0.97824 0.0
C1171 C 0.86217 0.71052 0.80627 0.0
C1172 C 0.85457 0.72173 0.75468 0.0
C1173 C 0.87396 0.71903 0.72131 0.0
C1174 C 0.86768 0.73006 0.67309 0.0
C1175 C 0.84155 0.7439 0.65622 0.0
C1176 C 0.82203 0.74649 0.68972 0.0
C1177 C 0.8284 0.73555 0.73811 0.0
C1178 C 0.86246 0.6379 0.95393 0.0
C1179 C 0.78965 0.64199 0.80311 0.0
O1180 O 0.78727 0.59415 0.94913 0.0
O1181 O 0.75898 0.63034 0.96121 0.0
O1182 O 0.7967 0.6904 0.89826 0.0
O1183 O 0.75909 0.67252 0.87679 0.0
O1184 O 0.83505 0.70408 0.93786 0.0
O1185 O 0.81273 0.66714 0.98015 0.0
O1186 O 0.84776 0.72136 0.83782 0.0
O1187 O 0.86834 0.68212 0.8166 0.0
O1188 O 0.84271 0.63084 0.92307 0.0
O1189 O 0.87294 0.66227 0.93628 0.0
O1190 O 0.7822 0.62698 0.84154 0.0
O1191 O 0.80943 0.66124 0.80696 0.0
H1192 H 0.73584 0.56537 1.02454 0.0
H1193 H 0.73783 0.55934 0.11218 0.0
H1194 H 0.80786 0.61649 0.1198 0.0
H1195 H 0.80557 0.6225 1.03338 0.0
H1196 H 0.89429 0.70864 0.7327 0.0
H1197 H 0.8837 0.72827 0.64925 0.0
H1198 H 0.80167 0.75684 0.67851 0.0
H1199 H 0.81277 0.73799 0.76254 0.0
Pr1200 Pr 0.08465 0.0312 0.80414 0.0
Pr1201 Pr 0.05405 0.08215 0.74866 0.0
C1202 C 0.11731 -0.00403 0.86773 0.0
C1203 C 0.12119 -0.00572 0.91901 0.0
C1204 C 0.11804 0.96692 0.94439 0.0
C1205 C 0.11637 0.9652 0.99281 0.0
C1206 C 0.11882 0.99072 1.01676 0.0
C1207 C 0.12214 0.01823 0.99145 0.0
C1208 C 0.12302 0.02006 0.9424 0.0
C1209 C 0.04052 0.01286 0.74758 0.0
C1210 C 0.03291 0.06654 0.8523 0.0
C1211 C 0.02807 0.12226 0.68294 0.0
C1212 C 0.01992 0.12096 0.63257 0.0
C1213 C 0.01808 0.14699 0.60159 0.0
C1214 C 0.01244 0.14572 0.55286 0.0
C1215 C 0.00824 0.11839 0.5348 0.0
C1216 C 0.01048 0.09223 0.56597 0.0
C1217 C 0.01637 0.0935 0.6147 0.0
C1218 C 0.09575 0.09804 0.81647 0.0
C1219 C 0.09047 0.03625 0.69013 0.0
O1220 O 0.12658 0.01944 0.84441 0.0
O1221 O 0.0925 0.9887 0.85126 0.0
O1222 O 0.03951 0.03543 0.77001 0.0
O1223 O 0.06407 -0.00195 0.75662 0.0
O1224 O 0.02506 0.08008 0.80965 0.0
O1225 O 0.05584 0.04908 0.85988 0.0
O1226 O 0.055 0.12181 0.69445 0.0
O1227 O 0.01466 0.10504 0.71212 0.0
O1228 O 0.09863 0.0782 0.78887 0.0
O1229 O 0.07169 0.11155 0.80621 0.0
O1230 O 0.10338 0.02589 0.73188 0.0
O1231 O 0.06999 0.05628 0.68766 0.0
H1232 H 0.11558 0.9471 0.9264 0.0
H1233 H 0.11279 0.94383 1.01151 0.0
H1234 H 0.1239 0.03809 1.00937 0.0
H1235 H 0.12445 0.04157 0.92278 0.0
H1236 H 0.02148 0.16818 0.61501 0.0
H1237 H 0.01172 0.16608 0.52925 0.0
H1238 H 0.00755 0.07092 0.55269 0.0
H1239 H 0.01835 0.07308 0.63832 0.0
Pr1240 Pr 0.70186 0.32831 0.53228 0.0
Pr1241 Pr 0.65607 0.30184 0.49146 0.0
C1242 C 0.73989 0.35463 0.58619 0.0
C1243 C 0.7442 0.36009 0.63548 0.0
C1244 C 0.77089 0.35509 0.65871 0.0
C1245 C 0.77506 0.35596 0.70736 0.0
C1246 C 0.75278 0.36345 0.733 0.0
C1247 C 0.72607 0.36915 0.7093 0.0
C1248 C 0.72169 0.36652 0.66087 0.0
C1249 C 0.72146 0.28544 0.47864 0.0
C1250 C 0.67393 0.27294 0.59467 0.0
C1251 C 0.61957 0.27952 0.42842 0.0
C1252 C 0.62273 0.27084 0.38039 0.0
C1253 C 0.60087 0.27661 0.34409 0.0
C1254 C 0.60401 0.26949 0.29802 0.0
C1255 C 0.62907 0.25635 0.28742 0.0
C1256 C 0.65115 0.25101 0.32369 0.0
C1257 C 0.64805 0.25826 0.36971 0.0
C1258 C 0.63858 0.33686 0.56232 0.0
C1259 C 0.69279 0.34401 0.41916 0.0
O1260 O 0.71916 0.36933 0.56016 0.0
O1261 O 0.7419 0.32672 0.57959 0.0
O1262 O 0.70136 0.28162 0.50435 0.0
O1263 O 0.73176 0.31115 0.48124 0.0
O1264 O 0.66377 0.26508 0.55352 0.0
O1265 O 0.68738 0.2977 0.5967 0.0
O1266 O 0.63348 0.26319 0.46409 0.0
O1267 O 0.6205 0.30788 0.43256 0.0
O1268 O 0.65589 0.34513 0.53215 0.0
O1269 O 0.6284 0.31197 0.55226 0.0
O1270 O 0.70314 0.35541 0.45743 0.0
O1271 O 0.67606 0.32199 0.42393 0.0
H1272 H 0.78826 0.34937 0.63949 0.0
H1273 H 0.79573 0.35026 0.72491 0.0
H1274 H 0.7086 0.37518 0.728 0.0
H1275 H 0.70078 0.3688 0.64354 0.0
H1276 H 0.5814 0.28679 0.35133 0.0
H1277 H 0.58672 0.27405 0.27068 0.0
H1278 H 0.67096 0.24168 0.31627 0.0
H1279 H 0.66555 0.25428 0.3968 0.0
C1280 C 0.10495 0.48339 0.25918 0.0
C1281 C 0.08621 0.46017 0.26133 0.0
C1282 C 0.11796 0.49278 0.30084 0.0
C1283 C 0.11273 0.47888 0.34526 0.0
H1284 H 0.11054 0.49354 0.22532 0.0
H1285 H 0.13267 0.51031 0.29841 0.0
S1286 S 0.06267 0.4203 0.37052 0.0
N1287 N 0.06082 0.42601 0.31196 0.0
N1288 N 0.08571 0.44349 0.38999 0.0
C1289 C 0.09291 0.45698 0.34804 0.0
C1290 C 0.07944 0.44769 0.306 0.0
C1291 C 0.72086 0.91314 0.66286 0.0
C1292 C 0.73951 0.89603 0.69622 0.0
C1293 C 0.72257 0.9121 0.61426 0.0
C1294 C 0.74299 0.89396 0.59838 0.0
H1295 H 0.70435 0.92644 0.67444 0.0
H1296 H 0.70731 0.92469 0.58904 0.0
S1297 S 0.79809 0.84721 0.67286 0.0
N1298 N 0.77976 0.86195 0.71128 0.0
N1299 N 0.78345 0.86036 0.61956 0.0
C1300 C 0.76243 0.87769 0.6317 0.0
C1301 C 0.76056 0.87864 0.68092 0.0
C1302 C 0.40863 0.54224 0.75393 0.0
C1303 C 0.40426 0.52684 0.71357 0.0
C1304 C 0.39979 0.53115 0.79682 0.0
C1305 C 0.38671 0.5041 0.80091 0.0
H1306 H 0.41921 0.56298 0.75287 0.0
H1307 H 0.40421 0.5432 0.82759 0.0
S1308 S 0.3683 0.45604 0.70643 0.0
N1309 N 0.38377 0.4842 0.67963 0.0
N1310 N 0.36833 0.46255 0.76267 0.0
C1311 C 0.38114 0.48881 0.76115 0.0
C1312 C 0.38971 0.50039 0.71671 0.0
C1313 C 0.7184 0.11036 0.06208 0.0
C1314 C 0.74504 0.11796 0.07958 0.0
C1315 C 0.70905 0.11783 1.01489 0.0
C1316 C 0.72674 0.13021 0.98278 0.0
H1317 H 0.70362 0.10163 0.08592 0.0
H1318 H 0.68716 0.11616 1.00445 0.0
S1319 S 0.79996 0.14988 1.00919 0.0
N1320 N 0.79001 0.13688 0.06121 0.0
N1321 N 0.77298 0.14704 0.96958 0.0
C1322 C 0.75456 0.13462 0.9983 0.0
C1323 C 0.76373 0.12899 0.04757 0.0
C1324 C 0.89602 0.50188 0.11415 0.0
C1325 C 0.92196 0.51525 0.118 0.0
C1326 C 0.88564 0.49203 0.07124 0.0
C1327 C 0.90128 0.49502 1.03219 0.0
H1328 H 0.88269 0.5014 0.14284 0.0
H1329 H 0.86471 0.48394 0.06759 0.0
S1330 S 0.97246 0.52289 1.02781 0.0
N1331 N 0.96464 0.52686 0.08224 0.0
N1332 N 0.94509 0.50811 1.00116 0.0
C1333 C 0.92831 0.50554 0.03713 0.0
C1334 C 0.93875 0.51571 0.08048 0.0
C1335 C 0.26379 0.10644 0.74136 0.0
C1336 C 0.25773 0.08006 0.76796 0.0
C1337 C 0.26244 0.10823 0.69202 0.0
C1338 C 0.25507 0.08367 0.66807 0.0
H1339 H 0.26875 0.12606 0.75868 0.0
H1340 H 0.26679 0.12905 0.67239 0.0
S1341 S 0.23873 0.00936 0.72164 0.0
N1342 N 0.24529 0.02864 0.76747 0.0
N1343 N 0.24263 0.03217 0.67369 0.0
C1344 C 0.24977 0.05697 0.69414 0.0
C1345 C 0.25102 0.05515 0.74449 0.0
C1346 C 0.58475 0.47256 0.5638 0.0
C1347 C 0.61055 0.4857 0.562 0.0
C1348 C 0.57538 0.46307 0.60729 0.0
C1349 C 0.59172 0.46631 0.64999 0.0
H1350 H 0.57248 0.46816 0.53135 0.0
H1351 H 0.55592 0.45172 0.60728 0.0
S1352 S 0.65923 0.50326 0.66281 0.0
N1353 N 0.65094 0.50469 0.6047 0.0
N1354 N 0.63346 0.48663 0.68788 0.0
C1355 C 0.6165 0.48183 0.64856 0.0
C1356 C 0.62599 0.49154 0.60391 0.0
C1357 C 0.25128 0.85572 0.37576 0.0
C1358 C 0.28033 0.856 0.38544 0.0
C1359 C 0.23901 0.86151 0.32895 0.0
C1360 C 0.25563 0.86839 0.2916 0.0
H1361 H 0.23831 0.84877 0.40368 0.0
H1362 H 0.21681 0.85893 0.32154 0.0
S1363 S 0.33257 0.87207 0.29962 0.0
N1364 N 0.32512 0.8642 0.35488 0.0
N1365 N 0.30224 0.87534 0.2673 0.0
C1366 C 0.2845 0.87032 0.30158 0.0
C1367 C 0.29684 0.86414 0.34864 0.0
C1368 C 0.59177 0.97071 0.84134 0.0
C1369 C 0.61594 0.98707 0.84223 0.0
C1370 C 0.58087 0.96029 0.79958 0.0
C1371 C 0.59398 0.96585 0.75772 0.0
H1372 H 0.58183 0.96508 0.87362 0.0
H1373 H 0.56273 0.94681 0.80076 0.0
S1374 S 0.65657 0.01034 0.74216 0.0
N1375 N 0.65155 0.01067 0.7989 0.0
N1376 N 0.63131 0.99084 0.7189 0.0
C1377 C 0.6173 0.98389 0.75764 0.0
C1378 C 0.62833 -0.00547 0.80055 0.0
C1379 C 0.22784 0.41108 0.11721 0.0
C1380 C 0.23563 0.38475 0.09942 0.0
C1381 C 0.22881 0.41265 0.16608 0.0
C1382 C 0.23778 0.38799 0.19821 0.0
H1383 H 0.22112 0.43059 0.09318 0.0
H1384 H 0.22305 0.43338 0.17886 0.0
S1385 S 0.25942 0.31363 0.16949 0.0
N1386 N 0.25226 0.33337 0.11731 0.0
N1387 N 0.25339 0.33619 0.20967 0.0
C1388 C 0.24512 0.36134 0.18097 0.0
C1389 C 0.24417 0.35973 0.13128 0.0
C1390 C 0.91927 0.03088 0.25743 0.0
C1391 C 0.90835 0.02161 0.21391 0.0
C1392 C 0.90879 0.0206 0.29961 0.0
C1393 C 0.88732 0.00052 0.29967 0.0
H1394 H 0.93529 0.04708 0.25897 0.0
H1395 H 0.91701 0.02901 0.33233 0.0
S1396 S 0.85366 0.9666 0.19722 0.0
N1397 N 0.87631 0.98915 0.17417 0.0
N1398 N 0.85701 0.96947 0.25506 0.0
C1399 C 0.87745 0.98936 0.2575 0.0
C1400 C 0.88794 0.0 0.21405 0.0
C1401 C 0.2122 0.61632 0.51604 0.0
C1402 C 0.22944 0.62919 0.48357 0.0
C1403 C 0.22233 0.60779 0.5626 0.0
C1404 C 0.24936 0.61474 0.57915 0.0
H1405 H 0.19014 0.61504 0.50649 0.0
H1406 H 0.20788 0.59907 0.58707 0.0
S1407 S 0.30326 0.6475 0.50743 0.0
N1408 N 0.27559 0.64577 0.46882 0.0
N1409 N 0.29414 0.63343 0.55955 0.0
C1410 C 0.26757 0.62612 0.54666 0.0
C1411 C 0.25757 0.63292 0.49794 0.0
C1412 C 0.38725 0.02117 0.59623 0.0
C1413 C 0.40947 0.0408 0.59812 0.0
C1414 C 0.36893 0.01806 0.55492 0.0
C1415 C 0.36853 0.03593 0.51087 0.0
H1416 H 0.38408 0.0068 0.62803 0.0
H1417 H 0.3552 -0.0004 0.55688 0.0
S1418 S 0.42728 0.11116 0.47714 0.0
N1419 N 0.43697 0.0852 0.54656 0.0
N1420 N 0.39012 0.08544 0.4631 0.0
C1421 C 0.38574 0.05966 0.50903 0.0
C1422 C 0.4128 0.05936 0.55737 0.0
C1423 C 0.77469 0.56199 0.20267 0.0
C1424 C 0.77143 0.5884 0.17237 0.0
C1425 C 0.77455 0.56241 0.25164 0.0
C1426 C 0.77096 0.58924 0.2711 0.0
H1427 H 0.77786 0.54108 0.18847 0.0
H1428 H 0.77761 0.54174 0.27447 0.0
S1429 S 0.7589 0.66404 0.2052 0.0
N1430 N 0.76304 0.64176 0.16379 0.0
N1431 N 0.76198 0.64257 0.25622 0.0
C1432 C 0.76685 0.61575 0.24076 0.0
C1433 C 0.76728 0.61532 0.1911 0.0
C1434 C 0.12406 0.95142 0.13706 0.0
C1435 C 0.10285 0.96506 0.15745 0.0
C1436 C 0.13227 0.96295 0.09396 0.0
C1437 C 0.11768 0.98741 0.06817 0.0
H1438 H 0.13297 0.93069 0.15305 0.0
H1439 H 0.14795 0.95065 0.07829 0.0
S1440 S 0.06339 0.03435 0.11097 0.0
N1441 N 0.07062 0.00727 0.15435 0.0
N1442 N 0.08373 0.02801 0.06913 0.0
C1443 C 0.09792 0.00313 0.09009 0.0
C1444 C 0.0907 0.99192 0.13575 0.0
C1445 C 0.78367 0.37457 0.80213 0.0
C1446 C 0.75806 0.36408 0.78455 0.0
C1447 C 0.79386 0.36725 0.84909 0.0
C1448 C 0.77773 0.35205 0.88102 0.0
H1449 H 0.7972 0.38601 0.77853 0.0
H1450 H 0.81528 0.37155 0.85955 0.0
S1451 S 0.70745 0.32378 0.85551 0.0
N1452 N 0.71577 0.339 0.80357 0.0
N1453 N 0.73392 0.32923 0.89464 0.0
C1454 C 0.75073 0.34445 0.86579 0.0
C1455 C 0.74093 0.34991 0.81677 0.0
C1456 C 0.14208 0.38487 0.3397 0.0
C1457 C 0.13639 0.35633 0.36065 0.0
C1458 C 0.13492 0.39445 0.28987 0.0
C1459 C 0.12163 0.37633 0.25668 0.0
H1460 H 0.15189 0.40026 0.36211 0.0
H1461 H 0.13991 0.41677 0.27724 0.0
S1462 S 0.10441 0.29831 0.29044 0.0
N1463 N 0.11677 0.30963 0.34159 0.0
N1464 N 0.10579 0.32683 0.24981 0.0
C1465 C 0.11646 0.34754 0.27689 0.0
C1466 C 0.12308 0.33795 0.32778 0.0
C1467 C 0.90612 0.87931 0.46349 0.0
C1468 C 0.89287 0.88565 0.50353 0.0
C1469 C 0.89089 0.87233 0.42181 0.0
C1470 C 0.8617 0.87072 0.41834 0.0
H1471 H 0.92864 0.87849 0.46489 0.0
H1472 H 0.90235 0.86547 0.39351 0.0
S1473 S 0.81699 0.88689 0.51274 0.0
N1474 N 0.84887 0.89216 0.53626 0.0
N1475 N 0.82019 0.87744 0.45876 0.0
C1476 C 0.84808 0.87868 0.45727 0.0
C1477 C 0.86368 0.88648 0.49965 0.0
C1478 C 0.36272 0.60857 0.73863 0.0
C1479 C 0.37335 0.63501 0.75377 0.0
C1480 C 0.36826 0.59861 0.69412 0.0
C1481 C 0.38514 0.61411 0.66192 0.0
H1482 H 0.34998 0.59533 0.76135 0.0
H1483 H 0.35935 0.57807 0.6852 0.0
S1484 S 0.41701 0.6856 0.6824 0.0
N1485 N 0.40109 0.67712 0.7307 0.0
N1486 N 0.41113 0.65844 0.64878 0.0
C1487 C 0.39558 0.64072 0.6764 0.0
C1488 C 0.38987 0.65099 0.72153 0.0
C1489 C 0.61543 0.12899 0.91782 0.0
C1490 C 0.64012 0.11349 0.91171 0.0
C1491 C 0.60212 0.12369 0.95973 0.0
C1492 C 0.61281 0.1026 0.99772 0.0
H1493 H 0.60654 0.14582 0.89033 0.0
H1494 H 0.58323 0.13657 0.9623 0.0
S1495 S 0.67567 0.05389 0.99812 0.0
N1496 N 0.67325 0.0737 0.94556 0.0
N1497 N 0.64941 0.06559 1.02546 0.0
C1498 C 0.63708 0.08635 0.99159 0.0
C1499 C 0.65021 0.09108 0.94815 0.0
C1500 C 0.10309 0.62343 0.45962 0.0
C1501 C 0.11403 0.60262 0.49781 0.0
C1502 C 0.11636 0.6287 0.41768 0.0
C1503 C 0.14126 0.6135 0.41183 0.0
H1504 H 0.08408 0.63613 0.4621 0.0
H1505 H 0.10739 0.64548 0.39015 0.0
S1506 S 0.17704 0.55412 0.49827 0.0
N1507 N 0.15083 0.56588 0.52567 0.0
N1508 N 0.17457 0.57391 0.44571 0.0
C1509 C 0.15151 0.59125 0.44835 0.0
C1510 C 0.13841 0.58652 0.49177 0.0
C1511 C 0.61129 0.84994 0.77641 0.0
C1512 C 0.62135 0.87607 0.75336 0.0
C1513 C 0.6181 0.84074 0.82643 0.0
C1514 C 0.63554 0.85677 0.85768 0.0
H1515 H 0.59806 0.8362 0.75568 0.0
H1516 H 0.60954 0.82033 0.84074 0.0
S1517 S 0.6681 0.92669 0.81679 0.0
N1518 N 0.65069 0.91759 0.76777 0.0
N1519 N 0.6625 0.90068 0.85951 0.0
C1520 C 0.6458 0.8828 0.83506 0.0
C1521 C 0.63906 0.89216 0.78413 0.0
C1522 C 0.40653 0.37459 0.96957 0.0
C1523 C 0.39322 0.37912 1.01036 0.0
C1524 C 0.39155 0.36801 0.92736 0.0
C1525 C 0.36251 0.3649 0.92399 0.0
H1526 H 0.42901 0.37475 0.97083 0.0
H1527 H 0.40321 0.36269 0.89835 0.0
S1528 S 0.31781 0.37376 1.02147 0.0
N1529 N 0.34931 0.38072 0.04481 0.0
N1530 N 0.32109 0.36708 0.96606 0.0
C1531 C 0.34875 0.37053 0.96404 0.0
C1532 C 0.36411 0.37785 1.00707 0.0
C1533 C 0.88573 0.14952 0.22028 0.0
C1534 C 0.87024 0.13356 0.25409 0.0
C1535 C 0.89144 0.13886 0.1764 0.0
C1536 C 0.88181 0.11157 0.16305 0.0
H1537 H 0.89347 0.17088 0.22754 0.0
H1538 H 0.90326 0.15241 0.15249 0.0
S1539 S 0.84145 0.05993 0.23911 0.0
N1540 N 0.84679 0.08791 0.2712 0.0
N1541 N 0.85598 0.06855 0.18938 0.0
C1542 C 0.86634 0.09534 0.19677 0.0
C1543 C 0.86101 0.10601 0.24177 0.0
C1544 C 0.89492 0.63261 0.08849 0.0
C1545 C 0.88545 0.6062 0.11168 0.0
C1546 C 0.88759 0.6419 0.03861 0.0
C1547 C 0.87016 0.6257 1.0076 0.0
H1548 H 0.90808 0.64651 0.10907 0.0
H1549 H 0.89566 0.66256 1.02423 0.0
S1550 S 0.83997 0.55433 0.04842 0.0
N1551 N 0.85738 0.56372 0.09729 0.0
N1552 N 0.84442 0.5809 1.00582 0.0
C1553 C 0.86077 0.59918 1.03019 0.0
C1554 C 0.86809 0.5897 0.08099 0.0
C1555 C 0.14137 0.09828 0.86972 0.0
C1556 C 0.112 0.09964 0.86369 0.0
C1557 C 0.1561 0.10502 0.91279 0.0
C1558 C 0.14194 0.1121 0.95169 0.0
H1559 H 0.15294 0.09432 0.83996 0.0
H1560 H 0.17836 0.10733 0.91399 0.0
S1561 S 0.06554 0.11597 0.95573 0.0
N1562 N 0.06976 0.10777 0.90155 0.0
N1563 N 0.09726 0.11742 0.98243 0.0
C1564 C 0.11285 0.11076 0.94718 0.0
C1565 C 0.09794 0.10546 0.90321 0.0
C1566 C 0.61402 0.33633 0.63891 0.0
C1567 C 0.63134 0.35107 0.60678 0.0
C1568 C 0.6079 0.34733 0.68231 0.0
C1569 C 0.61891 0.37377 0.69684 0.0
H1570 H 0.6052 0.31559 0.6308 0.0
H1571 H 0.59462 0.33474 0.70488 0.0
S1572 S 0.66388 0.4225 0.6248 0.0
N1573 N 0.65771 0.39497 0.59208 0.0
N1574 N 0.64764 0.41499 0.67305 0.0
C1575 C 0.63597 0.38897 0.66457 0.0
C1576 C 0.64175 0.37795 0.62002 0.0
C1577 C 0.3911 0.85529 0.44829 0.0
C1578 C 0.36766 0.87149 0.45842 0.0
C1579 C 0.4045 0.86317 0.40716 0.0
C1580 C 0.39527 0.8878 0.37427 0.0
H1581 H 0.39896 0.83607 0.47197 0.0
H1582 H 0.42225 0.84952 0.40099 0.0
S1583 S 0.33537 0.93844 0.38504 0.0
N1584 N 0.33649 0.91442 0.43301 0.0
N1585 N 0.36158 0.92875 0.35585 0.0
C1586 C 0.37253 0.90488 0.38489 0.0
C1587 C 0.35887 0.89694 0.42696 0.0
C1588 C 0.90484 0.36086 0.90727 0.0
C1589 C 0.89437 0.38232 0.86968 0.0
C1590 C 0.89111 0.35488 0.94861 0.0
C1591 C 0.86607 0.36987 0.95441 0.0
H1592 H 0.924 0.34838 0.90494 0.0
H1593 H 0.89992 0.33785 0.97585 0.0
S1594 S 0.83121 0.43058 0.86933 0.0
N1595 N 0.85773 0.41933 0.84219 0.0
N1596 N 0.83303 0.40984 0.92102 0.0
C1597 C 0.85609 0.39252 0.91828 0.0
C1598 C 0.8697 0.398 0.87546 0.0
C1599 C 0.39363 0.10598 0.53252 0.0
C1600 C 0.36571 0.11955 0.51293 0.0
C1601 C 0.40154 0.11485 0.58181 0.0
C1602 C 0.38295 0.11618 0.61702 0.0
H1603 H 0.42246 0.06867 0.49412 0.0
H1604 H 0.42285 0.11607 0.59644 0.0
S1605 S 0.30761 0.13209 0.58727 0.0
N1606 N 0.31932 0.12994 0.53491 0.0
N1607 N 0.33468 0.12465 0.62712 0.0
C1608 C 0.35507 0.12055 0.59838 0.0
C1609 C 0.34676 0.12368 0.54745 0.0
C1610 C 0.60282 0.60022 0.40304 0.0
C1611 C 0.61559 0.59671 0.3613 0.0
C1612 C 0.61819 0.60738 0.44459 0.0
C1613 C 0.64698 0.61199 0.44629 0.0
H1614 H 0.58048 0.59871 0.40308 0.0
H1615 H 0.6069 0.61196 0.47442 0.0
S1616 S 0.68993 0.60663 0.34546 0.0
N1617 N 0.65854 0.59809 0.3239 0.0
N1618 N 0.68747 0.61226 0.40156 0.0
C1619 C 0.66019 0.60725 0.40526 0.0
C1620 C 0.64448 0.59953 0.36288 0.0
C1621 C 0.11705 0.83536 0.14332 0.0
C1622 C 0.13885 0.84692 0.1173 0.0
C1623 C 0.11077 0.84522 0.18752 0.0
C1624 C 0.12585 0.86737 0.20897 0.0
H1625 H 0.1044 0.81835 0.12927 0.0
H1626 H 0.09404 0.83511 0.20508 0.0
S1627 S 0.18741 0.9024 0.16 0.0
N1628 N 0.17659 0.88078 0.11923 0.0
N1629 N 0.16684 0.89701 0.20308 0.0
C1630 C 0.14913 0.87728 0.18521 0.0
C1631 C 0.15488 0.86803 0.13935 0.0
C1632 C 0.0141 0.52103 0.1834 0.0
C1633 C 1.00206 0.51634 0.22696 0.0
C1634 C 0.02095 0.49726 0.15817 0.0
C1635 C 0.01548 0.46822 0.17544 0.0
H1636 H 0.01656 0.5433 0.16714 0.0
H1637 H 0.02937 0.5017 0.12419 0.0
S1638 S 0.9885 0.44453 0.29176 0.0
N1639 N 0.98787 0.48093 0.28848 0.0
N1640 N 1.00103 0.43601 0.24255 0.0
C1641 C 0.00528 0.46333 0.22073 0.0
C1642 C 0.99845 0.48748 0.24608 0.0
C1643 C 0.73579 0.76738 0.42125 0.0
C1644 C 0.75493 0.76056 0.38931 0.0
C1645 C 0.73406 0.74924 0.46375 0.0
C1646 C 0.75135 0.72363 0.4759 0.0
H1647 H 0.72307 0.78765 0.41466 0.0
H1648 H 0.71819 0.75455 0.48643 0.0
S1649 S 0.805 0.69639 0.40391 0.0
N1650 N 0.79144 0.72675 0.37229 0.0
N1651 N 0.78832 0.69253 0.45222 0.0
C1652 C 0.77068 0.71671 0.44428 0.0
C1653 C 0.7721 0.73493 0.40073 0.0
C1654 C 0.52539 0.49729 0.71004 0.0
C1655 C 0.51022 0.47345 0.72832 0.0
C1656 C 0.51592 0.51449 0.6675 0.0
C1657 C 0.49054 0.50893 0.64161 0.0
H1658 H 0.54536 0.50208 0.72796 0.0
H1659 H 0.52828 0.53288 0.65581 0.0
S1660 S 0.44304 0.44879 0.67263 0.0
N1661 N 0.46831 0.44515 0.71652 0.0
N1662 N 0.45086 0.47737 0.63624 0.0
C1663 C 0.4752 0.4851 0.65915 0.0
C1664 C 0.4847 0.46768 0.70276 0.0
C1665 C 0.7269 0.25229 0.9196 0.0
C1666 C 0.73537 0.23087 0.8908 0.0
C1667 C 0.74528 0.262 0.95558 0.0
C1668 C 0.77274 0.25046 0.96466 0.0
H1669 H 0.70564 0.2611 0.91538 0.0
H1670 H 0.73801 0.27888 0.97624 0.0
S1671 S 0.80566 0.19554 0.89642 0.0
N1672 N 0.77313 0.19941 0.87214 0.0
N1673 N 0.80797 0.21745 0.93945 0.0
C1674 C 0.78156 0.22919 0.93563 0.0
C1675 C 0.76281 0.21951 0.89882 0.0
C1676 C 0.98041 0.5091 0.6834 0.0
C1677 C 0.9856 0.48496 0.71871 0.0
C1678 C 1.00016 0.51712 0.65215 0.0
C1679 C 0.02556 0.50112 0.65529 0.0
H1680 H 0.96083 0.52175 0.67943 0.0
H1681 H 0.99547 0.53585 0.62544 0.0
S1682 S 0.04953 0.43684 0.74298 0.0
N1683 N 0.01812 0.44587 0.75634 0.0
N1684 N 0.05528 0.46044 0.69708 0.0
C1685 C 0.03112 0.47708 0.69081 0.0
C1686 C 0.01109 0.46912 0.7228 0.0
C1687 C 0.77313 0.74791 0.90383 0.0
C1688 C 0.7594 0.72098 0.90365 0.0
C1689 C 0.76705 0.7687 0.93503 0.0
C1690 C 0.74716 0.76322 0.96777 0.0
H1691 H 0.78925 0.75263 0.88033 0.0
H1692 H 0.77716 0.78969 0.93201 0.0
S1693 S 0.70682 0.69548 0.98492 0.0
N1694 N 0.72604 0.68944 0.94151 0.0
N1695 N 0.7145 0.72872 0.99944 0.0
C1696 C 0.7338 0.73618 0.96882 0.0
C1697 C 0.73978 0.71511 0.93687 0.0
C1698 C 0.50587 0.46913 0.15369 0.0
C1699 C 0.48015 0.48472 0.14433 0.0
C1700 C 0.52574 0.47668 0.18905 0.0
C1701 C 0.52053 0.50005 0.21622 0.0
H1702 H 0.51063 0.45081 0.1339 0.0
H1703 H 0.54539 0.46413 0.19492 0.0
S1704 S 0.45631 0.54767 0.20581 0.0
N1705 N 0.45047 0.52475 0.16479 0.0
N1706 N 0.48784 0.53854 0.23191 0.0
C1707 C 0.49493 0.51584 0.20728 0.0
C1708 C 0.47472 0.5083 0.17105 0.0
C1709 C 0.77373 0.24886 0.40834 0.0
C1710 C 0.76561 0.21942 0.41006 0.0
C1711 C 0.75915 0.26986 0.43054 0.0
C1712 C 0.73592 0.26231 0.45552 0.0
H1713 H 0.79139 0.25578 0.38963 0.0
H1714 H 0.76624 0.29231 0.428 0.0
S1715 S 0.70625 0.18809 0.471 0.0
N1716 N 0.73266 0.18373 0.43916 0.0
N1717 N 0.70566 0.22324 0.48069 0.0
C1718 C 0.72762 0.23298 0.4576 0.0
C1719 C 0.74238 0.21156 0.43498 0.0
C1720 C 0.27444 0.22945 0.90347 0.0
C1721 C 0.25669 0.25432 0.88763 0.0
C1722 C 0.27125 0.212 0.94603 0.0
C1723 C 0.25001 0.21867 0.9742 0.0
H1724 H 0.29191 0.22442 0.88396 0.0
H1725 H 0.28474 0.19246 0.95571 0.0
S1726 S 0.19696 0.2801 0.94766 0.0
N1727 N 0.2163 0.28384 0.90262 0.0
N1728 N 0.21063 0.25125 0.98311 0.0
C1729 C 0.23211 0.2434 0.95875 0.0
C1730 C 0.235 0.2608 0.915 0.0
C1731 C 0.26027 0.71825 0.4168 0.0
C1732 C 0.23464 0.73278 0.39982 0.0
C1733 C 0.27755 0.72833 0.45388 0.0
C1734 C 0.26997 0.75351 0.47557 0.0
H1735 H 0.26689 0.69865 0.4016 0.0
H1736 H 0.29744 0.71678 0.46437 0.0
S1737 S 0.20434 0.79857 0.44721 0.0
N1738 N 0.20203 0.77323 0.40951 0.0
N1739 N 0.2347 0.7919 0.4791 0.0
C1740 C 0.24424 0.76795 0.4597 0.0
C1741 C 0.22663 0.75782 0.42175 0.0
C1742 C 0.27626 0.24851 0.4055 0.0
C1743 C 0.2606 0.22358 0.39667 0.0
C1744 C 0.26938 0.26729 0.43922 0.0
C1745 C 0.24661 0.26181 0.46597 0.0
H1746 H 0.29464 0.25298 0.38716 0.0
H1747 H 0.28146 0.28678 0.44307 0.0
S1748 S 0.19911 0.19936 0.45819 0.0
N1749 N 0.22102 0.19463 0.41814 0.0
N1750 N 0.20884 0.22936 0.48242 0.0
C1751 C 0.23107 0.23674 0.45819 0.0
C1752 C 0.23763 0.218 0.4231 0.0
C1753 C 0.28146 0.74337 0.92272 0.0
C1754 C 0.26769 0.71875 0.90755 0.0
C1755 C 0.268 0.76367 0.94784 0.0
C1756 C 0.24026 0.76013 0.95893 0.0
H1757 H 0.30292 0.7467 0.91593 0.0
H1758 H 0.27962 0.78222 0.95899 0.0
S1759 S 0.19405 0.70094 0.92331 0.0
N1760 N 0.22393 0.69304 0.90273 0.0
N1761 N 0.19906 0.73111 0.95024 0.0
C1762 C 0.22609 0.73596 0.94321 0.0
C1763 C 0.23969 0.71533 0.91743 0.0
C1764 C 0.5022 0.02623 0.66377 0.0
C1765 C 0.49494 0.01999 0.7107 0.0
C1766 C 0.51107 0.00371 0.63788 0.0
C1767 C 0.51241 0.97424 0.65797 0.0
H1768 H 0.50037 0.04868 0.64666 0.0
H1769 H 0.51687 0.00935 0.60218 0.0
S1770 S 0.49691 0.94687 0.78065 0.0
N1771 N 0.49013 0.98285 0.77643 0.0
N1772 N 0.50738 0.94033 0.72885 0.0
C1773 C 0.50557 0.96792 0.70528 0.0
C1774 C 0.49654 0.99085 0.73137 0.0
C1775 C 0.00422 0.00017 0.22638 0.0
C1776 C 0.01572 0.97343 0.21579 0.0
C1777 C 0.99232 0.02089 0.18955 0.0
C1778 C 0.99138 0.01521 0.14137 0.0
H1779 H 0.00438 0.00504 0.26301 0.0
H1780 H 0.98357 0.04142 0.19885 0.0
S1781 S 0.01907 0.94879 0.09522 0.0
N1782 N 0.02603 0.94273 0.1536 0.0
N1783 N 0.00274 0.98147 0.08519 0.0
C1784 C 1.00272 0.98872 0.13044 0.0
C1785 C 0.01514 0.96782 0.16759 0.0
C1786 C 0.50691 0.97561 0.22075 0.0
C1787 C 0.48131 0.99134 0.21586 0.0
C1788 C 0.52637 0.98209 0.1884 0.0
C1789 C 0.52072 0.00445 0.15028 0.0
H1790 H 0.51199 0.95826 0.24972 0.0
H1791 H 0.54612 0.96973 0.19379 0.0
S1792 S 0.45589 0.0507 0.12023 0.0
N1793 N 0.4507 0.02949 0.16916 0.0
N1794 N 0.48746 0.04134 0.10791 0.0
C1795 C 0.49501 0.01998 0.14441 0.0
C1796 C 0.47522 0.01351 0.17746 0.0
C1797 C 0.00493 0.97482 0.64821 0.0
C1798 C 0.97927 0.99047 0.63854 0.0
C1799 C 0.02444 0.98205 0.68428 0.0
C1800 C 0.01888 0.00515 0.71175 0.0
H1801 H 0.00991 0.95671 0.62813 0.0
H1802 H 0.04408 0.96949 0.69041 0.0
S1803 S 0.95469 0.05281 0.70064 0.0
N1804 N 0.94927 0.03027 0.65897 0.0
N1805 N 0.98601 0.04346 0.72745 0.0
C1806 C 0.99334 0.02099 0.70253 0.0
C1807 C 0.97351 0.01378 0.66558 0.0
C1808 C 0.03267 0.40371 0.96678 0.0
C1809 C 0.02032 0.39658 1.00937 0.0
C1810 C 0.01656 0.41095 0.92279 0.0
C1811 C 0.98724 0.41257 0.91948 0.0
H1812 H 0.05514 0.40428 0.96761 0.0
H1813 H 0.02724 0.41618 0.89125 0.0
S1814 S 0.94425 0.3959 1.01995 0.0
N1815 N 0.97665 0.39116 0.04502 0.0
N1816 N 0.94643 0.40559 0.96268 0.0
C1817 C 0.9745 0.40535 0.96165 0.0
C1818 C 0.99097 0.39717 1.00641 0.0
C1819 C 0.83234 0.68761 0.06585 0.0
C1820 C 0.83186 0.70575 1.02253 0.0
C1821 C 0.83644 0.69931 0.10919 0.0
C1822 C 0.84015 0.72963 0.11085 0.0
H1823 H 0.82975 0.66401 0.0665 0.0
H1824 H 0.83688 0.68445 0.14172 0.0
S1825 S 0.84013 0.78688 1.00787 0.0
N1826 N 0.83534 0.75564 0.98371 0.0
N1827 N 0.84284 0.77788 0.06614 0.0
C1828 C 0.83995 0.74817 0.06799 0.0
C1829 C 0.83587 0.73616 1.02351 0.0
C1830 C 0.52014 0.54964 0.43726 0.0
C1831 C 0.5217 0.57079 0.39791 0.0
C1832 C 0.50374 0.55513 0.47409 0.0
C1833 C 0.48891 0.58233 0.47396 0.0
H1834 H 0.53072 0.52821 0.43868 0.0
H1835 H 0.50213 0.53758 0.50249 0.0
S1836 S 0.4878 0.64612 0.38174 0.0
N1837 N 0.50787 0.62083 0.36251 0.0
N1838 N 0.47804 0.6311 0.4328 0.0
C1839 C 0.49136 0.60419 0.43628 0.0
C1840 C 0.50746 0.59842 0.39801 0.0
C1841 C 0.65142 0.21102 0.68011 0.0
C1842 C 0.652 0.22388 0.72308 0.0
C1843 C 0.65806 0.22722 0.63841 0.0
C1844 C 0.66605 0.25668 0.63866 0.0
H1845 H 0.64789 0.18761 0.67962 0.0
H1846 H 0.65826 0.21614 0.60642 0.0
S1847 S 0.66786 0.30133 0.74125 0.0
N1848 N 0.6588 0.26825 0.7629 0.0
N1849 N 0.67138 0.29901 0.68443 0.0
C1850 C 0.66502 0.27035 0.68082 0.0
C1851 C 0.65785 0.25388 0.72311 0.0
C1852 C 0.99459 0.64436 0.90561 0.0
C1853 C 0.99631 0.61814 0.93665 0.0
C1854 C 0.9993 0.64393 0.85798 0.0
C1855 C 0.00584 0.61726 0.83992 0.0
H1856 H 0.99027 0.66545 0.91851 0.0
H1857 H 0.99798 0.66466 0.83517 0.0
S1858 S 0.01197 0.54245 0.90664 0.0
N1859 N 0.00403 0.56472 0.94614 0.0
N1860 N 0.01349 0.56392 0.85639 0.0
C1861 C 0.00717 0.59078 0.8704 0.0
C1862 C 1.00232 0.59123 0.91893 0.0
C1863 C 0.70032 0.69659 0.32528 0.0
C1864 C 0.68239 0.70207 0.36013 0.0
C1865 C 0.69492 0.70924 0.27749 0.0
C1866 C 0.67119 0.72786 0.26192 0.0
H1867 H 0.71889 0.68254 0.33497 0.0
H1868 H 0.70969 0.70449 0.25262 0.0
S1869 S 0.6167 0.74801 0.33849 0.0
N1870 N 0.63956 0.72714 0.37522 0.0
N1871 N 0.62892 0.74986 0.28592 0.0
C1872 C 0.65299 0.7333 0.29651 0.0
C1873 C 0.65868 0.72071 0.34526 0.0
C1874 C 0.50009 0.34877 0.45684 0.0
C1875 C 0.51424 0.3707 0.47977 0.0
C1876 C 0.49749 0.34965 0.4075 0.0
C1877 C 0.50943 0.37217 0.37933 0.0
H1878 H 0.49089 0.33073 0.47719 0.0
H1879 H 0.4858 0.33266 0.3913 0.0
S1880 S 0.54867 0.43492 0.42196 0.0
N1881 N 0.53975 0.41612 0.47085 0.0
N1882 N 0.53621 0.41681 0.37747 0.0
C1883 C 0.52384 0.39421 0.40164 0.0
C1884 C 0.52608 0.3936 0.45209 0.0
C1885 C 0.88731 0.22375 0.7109 0.0
C1886 C 0.86804 0.24517 0.72183 0.0
C1887 C 0.88888 0.21734 0.66394 0.0
C1888 C 0.87128 0.2321 0.62589 0.0
H1889 H 0.90163 0.2121 0.73881 0.0
H1890 H 0.90399 0.20056 0.65745 0.0
S1891 S 0.81669 0.28963 0.63553 0.0
N1892 N 0.83032 0.28049 0.69094 0.0
N1893 N 0.83387 0.26918 0.6024 0.0
C1894 C 0.85175 0.25345 0.63633 0.0
C1895 C 0.85006 0.25988 0.68427 0.0
C1896 C 0.0196 0.55216 0.41603 0.0
C1897 C 0.02375 0.57402 0.44718 0.0
C1898 C 0.00321 0.55813 0.3721 0.0
C1899 C 0.99075 0.58644 0.35648 0.0
H1900 H 0.02812 0.52991 0.42649 0.0
H1901 H 0.9997 0.54001 0.35053 0.0
S1902 S 0.99789 0.65239 0.42225 0.0
N1903 N 0.01562 0.62588 0.45785 0.0
N1904 N 0.98562 0.63705 0.37453 0.0
C1905 C 0.99604 0.60894 0.386 0.0
C1906 C 0.01224 0.60272 0.43148 0.0
C1907 C 0.16694 0.24949 0.34454 0.0
C1908 C 0.176 0.27863 0.34493 0.0
C1909 C 0.16235 0.23681 0.3016 0.0
C1910 C 0.16666 0.25302 0.25821 0.0
H1911 H 0.16342 0.23644 0.3774 0.0
H1912 H 0.15563 0.21425 0.30228 0.0
S1913 S 0.18649 0.33103 0.23904 0.0
N1914 N 0.18683 0.32393 0.29726 0.0
N1915 N 0.17784 0.29998 0.2172 0.0
C1916 C 0.17487 0.28227 0.25796 0.0
C1917 C 0.17967 0.29512 0.30124 0.0
C1918 C 0.51333 0.40425 0.97832 0.0
C1919 C 0.48475 0.41245 0.969 0.0
C1920 C 0.52937 0.39697 0.94209 0.0
C1921 C 0.51756 0.39654 0.89494 0.0
H1922 H 0.52375 0.40406 1.01393 0.0
H1923 H 0.55151 0.39229 0.95091 0.0
S1924 S 0.44364 0.41612 0.8508 0.0
N1925 N 0.44539 0.42 0.90827 0.0
N1926 N 0.47524 0.40518 0.8406 0.0
C1927 C 0.48885 0.40406 0.88499 0.0
C1928 C 0.47259 0.41231 0.92182 0.0
C1929 C 0.34519 0.7287 0.64116 0.0
C1930 C 0.35537 0.75728 0.6409 0.0
C1931 C 0.33772 0.71358 0.68329 0.0
C1932 C 0.3402 0.72663 0.72639 0.0
H1933 H 0.3406 0.71907 0.608 0.0
H1934 H 0.32917 0.69189 0.68164 0.0
S1935 S 0.36834 0.80037 0.7438 0.0
N1936 N 0.36942 0.79737 0.68651 0.0
N1937 N 0.35594 0.76904 0.76636 0.0
C1938 C 0.35225 0.75446 0.72687 0.0
C1939 C 0.35978 0.76972 0.68391 0.0
C1940 C 0.02164 0.37057 0.45843 0.0
C1941 C 1.00083 0.36093 0.42592 0.0
C1942 C 0.01686 0.37283 0.50573 0.0
C1943 C 0.99116 0.36542 0.52215 0.0
H1944 H 0.04185 0.37624 0.44735 0.0
H1945 H 0.03362 0.37972 0.5299 0.0
S1946 S 0.92962 0.33974 0.45136 0.0
N1947 N 0.95353 0.34398 0.41354 0.0
N1948 N 0.94427 0.34925 0.50233 0.0
C1949 C 0.96998 0.35632 0.48995 0.0
C1950 C 0.97487 0.35387 0.44182 0.0
C1951 C 0.3077 0.27751 0.04075 0.0
C1952 C 0.3271 0.2753 1.00701 0.0
C1953 C 0.31329 0.26456 0.08835 0.0
C1954 C 0.33873 0.24901 0.10491 0.0
H1955 H 0.2878 0.28907 1.0302 0.0
H1956 H 0.29733 0.2666 0.11227 0.0
S1957 S 0.3975 0.23886 1.0315 0.0
N1958 N 0.37315 0.25705 0.99397 0.0
N1959 N 0.38416 0.23396 0.08308 0.0
C1960 C 0.35844 0.24707 0.07143 0.0
C1961 C 0.35253 0.25985 1.02281 0.0
C1962 C 0.51996 0.6309 0.95589 0.0
C1963 C 0.50365 0.61342 0.9853 0.0
C1964 C 0.51611 0.63125 0.90657 0.0
C1965 C 0.49603 0.61383 0.88482 0.0
H1966 H 0.53598 0.64435 0.97114 0.0
H1967 H 0.52891 0.6454 0.88527 0.0
S1968 S 0.44828 0.56369 0.94618 0.0
N1969 N 0.46648 0.57841 0.98957 0.0
N1970 N 0.46003 0.57802 0.89632 0.0
C1971 C 0.47967 0.59599 0.91378 0.0
C1972 C 0.4834 0.59591 0.9642 0.0
C1973 C 0.1548 0.7614 0.71428 0.0
C1974 C 0.13185 0.75312 0.73904 0.0
C1975 C 0.1567 0.75425 0.66765 0.0
C1976 C 0.13562 0.73874 0.64402 0.0
H1977 H 0.17155 0.77315 0.73129 0.0
H1978 H 0.17493 0.76066 0.65014 0.0
S1979 S 0.06962 0.7156 0.6915 0.0
N1980 N 0.08675 0.73069 0.73555 0.0
N1981 N 0.08996 0.71772 0.64778 0.0
C1982 C 0.11222 0.73111 0.66811 0.0
C1983 C 0.11042 0.7382 0.71561 0.0
C1984 C 0.51311 0.91274 0.42517 0.0
C1985 C 0.48425 0.91932 0.42233 0.0
C1986 C 0.52883 0.90396 0.46895 0.0
C1987 C 0.5165 0.9004 0.5121 0.0
H1988 H 0.52392 0.9152 0.39332 0.0
H1989 H 0.55119 0.90083 0.46923 0.0
S1990 S 0.44132 0.91354 0.52447 0.0
N1991 N 0.4437 0.92072 0.46671 0.0
N1992 N 0.47321 0.90399 0.54899 0.0
C1993 C 0.48746 0.90605 0.50982 0.0
C1994 C 0.47142 0.91554 0.46505 0.0
C1995 C 0.31134 0.22167 0.53902 0.0
C1996 C 0.33313 0.21092 0.51558 0.0
C1997 C 0.31667 0.23196 0.58354 0.0
C1998 C 0.3439 0.23098 0.60646 0.0
H1999 H 0.28998 0.2214 0.52336 0.0
H2000 H 0.29928 0.24005 0.60063 0.0
S2001 S 0.40777 0.20258 0.56058 0.0
N2002 N 0.38264 0.19929 0.51785 0.0
N2003 N 0.39273 0.21729 0.60296 0.0
C2004 C 0.36591 0.22038 0.58302 0.0
C2005 C 0.36049 0.2106 0.53715 0.0
C2006 C 0.98416 0.10433 0.9294 0.0
C2007 C 0.98603 0.08499 0.97168 0.0
C2008 C 0.99912 0.09818 0.89078 0.0
C2009 C 0.01672 0.07256 0.89307 0.0
H2010 H 0.97017 0.12363 0.92536 0.0
H2011 H 0.99679 0.11364 0.85883 0.0
S2012 S 0.02859 0.01469 0.99541 0.0
N2013 N 0.00675 0.03892 1.01291 0.0
N2014 N 0.03494 0.02798 0.94143 0.0
C2015 C 0.01906 0.05346 0.93547 0.0
C2016 C 0.00372 0.0595 0.97436 0.0
C2017 C 0.16768 0.76786 0.18347 0.0
C2018 C 0.16751 0.7534 0.14183 0.0
C2019 C 0.16016 0.75323 0.22585 0.0
C2020 C 0.15225 0.72376 0.22779 0.0
H2021 H 0.17461 0.7903 0.18391 0.0
H2022 H 0.1632 0.76404 0.25819 0.0
S2023 S 0.14572 0.6769 0.12858 0.0
N2024 N 0.15625 0.70879 0.10449 0.0
N2025 N 0.1427 0.68122 0.18497 0.0
C2026 C 0.14995 0.70983 0.18591 0.0
C2027 C 0.15752 0.72465 0.14264 0.0
C2028 C 0.50031 0.10534 0.36855 0.0
C2029 C 0.51166 0.12912 0.34218 0.0
C2030 C 0.4956 0.10688 0.41603 0.0
C2031 C 0.50219 0.13221 0.43872 0.0
H2032 H 0.49541 0.08523 0.35259 0.0
H2033 H 0.48676 0.08809 0.43515 0.0
S2034 S 0.53208 0.20056 0.38499 0.0
N2035 N 0.52857 0.17907 0.34147 0.0
N2036 N 0.52087 0.18143 0.43165 0.0
C2037 C 0.51344 0.15619 0.41272 0.0
C2038 C 0.51798 0.15474 0.36422 0.0
C2039 C 0.16077 0.23855 0.80084 0.0
C2040 C 0.16929 0.22403 0.76262 0.0
C2041 C 0.16566 0.22581 0.8487 0.0
C2042 C 0.17926 0.19781 0.86093 0.0
H2043 H 0.15041 0.26018 0.79382 0.0
H2044 H 0.15876 0.23818 0.87633 0.0
S2045 S 0.20491 0.1497 0.77481 0.0
N2046 N 0.19134 0.1793 0.74104 0.0
N2047 N 0.20081 0.1558 0.83008 0.0
C2048 C 0.18785 0.18302 0.82313 0.0
C2049 C 0.18286 0.19597 0.77445 0.0
C2050 C 0.99757 0.89603 0.94828 0.0
C2051 C 0.0162 0.8751 0.97515 0.0
C2052 C 0.99385 0.89708 0.89872 0.0
C2053 C 0.00839 0.87693 0.87486 0.0
H2054 H 0.98562 0.91143 0.96576 0.0
H2055 H 0.97901 0.91321 0.87919 0.0
S2056 S 0.06009 0.81865 0.9295 0.0
N2057 N 0.04968 0.83433 0.97501 0.0
N2058 N 0.04314 0.83664 0.88139 0.0
C2059 C 0.02767 0.85651 0.90139 0.0
C2060 C 0.03147 0.8555 0.95175 0.0
C2061 C 0.35698 0.72389 0.20488 0.0
C2062 C 0.36976 0.74893 0.22129 0.0
C2063 C 0.35911 0.71666 0.15837 0.0
C2064 C 0.37421 0.7341 0.12661 0.0
H2065 H 0.34581 0.70936 0.22849 0.0
H2066 H 0.34938 0.6969 0.14755 0.0
S2067 S 0.40903 0.80356 0.15019 0.0
N2068 N 0.39618 0.79238 0.20062 0.0
N2069 N 0.40043 0.77858 0.11363 0.0
C2070 C 0.38646 0.75955 0.14212 0.0
C2071 C 0.38417 0.76701 0.1893 0.0
C2072 C 0.48859 0.10759 0.89182 0.0
C2073 C 0.4902 0.08918 0.85525 0.0
C2074 C 0.504 0.1006 0.93681 0.0
C2075 C 0.52186 0.07505 0.94693 0.0
H2076 H 0.4744 0.12676 0.8864 0.0
H2077 H 0.50159 0.11521 0.96407 0.0
S2078 S 0.5341 0.02004 0.86264 0.0
N2079 N 0.51149 0.04446 0.83227 0.0
N2080 N 0.54064 0.03193 0.91545 0.0
C2081 C 0.52427 0.05707 0.91004 0.0
C2082 C 0.50837 0.06394 0.86471 0.0
C2083 C 0.67104 0.78487 0.75731 0.0
C2084 C 0.66715 0.75457 0.75518 0.0
C2085 C 0.67539 0.79634 0.80088 0.0
C2086 C 0.6758 0.77798 0.84396 0.0
H2087 H 0.67046 0.79992 0.72498 0.0
H2088 H 0.67806 0.81993 0.80061 0.0
S2089 S 0.66715 0.69686 0.8575 0.0
N2090 N 0.66451 0.70617 0.79936 0.0
N2091 N 0.67207 0.72794 0.88202 0.0
C2092 C 0.67172 0.74761 0.84249 0.0
C2093 C 0.66752 0.73585 0.79785 0.0
C2094 C 0.02062 0.88774 0.43201 0.0
C2095 C 0.01415 0.90081 0.3851 0.0
C2096 C 0.00503 0.89495 0.46902 0.0
C2097 C 0.98237 0.91589 0.46095 0.0
H2098 H 0.03866 0.87278 0.44062 0.0
H2099 H 0.01132 0.88438 0.50456 0.0
S2100 S 0.95717 0.95698 0.34425 0.0
N2101 N 0.98357 0.93598 0.3326 0.0
N2102 N 0.95432 0.94932 0.40172 0.0
C2103 C 0.97536 0.92868 0.41391 0.0
C2104 C 0.99127 0.92131 0.37623 0.0
C2105 C 0.84002 0.22856 0.13772 0.0
C2106 C 0.85264 0.256 0.13672 0.0
C2107 C 0.83273 0.21415 0.18047 0.0
C2108 C 0.83769 0.2268 0.22366 0.0
H2109 H 0.83353 0.21944 0.10474 0.0
H2110 H 0.82228 0.19342 0.17922 0.0
S2111 S 0.8725 0.29755 0.23923 0.0
N2112 N 0.87137 0.29458 0.18157 0.0
N2113 N 0.85828 0.26753 0.26271 0.0
C2114 C 0.85199 0.25344 0.22328 0.0
C2115 C 0.85937 0.26799 0.17958 0.0
C2116 C 0.48767 0.89131 0.94569 0.0
C2117 C 0.50438 0.86863 0.93183 0.0
C2118 C 0.48331 0.89221 0.99354 0.0
C2119 C 0.49541 0.87033 1.02873 0.0
H2120 H 0.47806 0.90849 0.91941 0.0
H2121 H 0.47013 0.90991 1.00299 0.0
S2122 S 0.54077 0.80632 1.00997 0.0
N2123 N 0.53272 0.82372 0.95617 0.0
N2124 N 0.52512 0.8257 0.04649 0.0
C2125 C 0.51222 0.8476 1.01512 0.0
C2126 C 0.5166 0.8467 0.96651 0.0
C2127 C 0.81538 0.79627 0.54388 0.0
C2128 C 0.82408 0.78178 0.50589 0.0
C2129 C 0.82073 0.78381 0.5918 0.0
C2130 C 0.83501 0.75617 0.60438 0.0
H2131 H 0.80451 0.81764 0.53672 0.0
H2132 H 0.81402 0.7963 0.61934 0.0
S2133 S 0.85982 0.70746 0.51838 0.0
N2134 N 0.84646 0.7371 0.48453 0.0
N2135 N 0.85571 0.71366 0.57364 0.0
C2136 C 0.84308 0.74103 0.56657 0.0
C2137 C 0.83782 0.75378 0.51781 0.0
C2138 C 0.01725 0.09788 0.45943 0.0
C2139 C 1.00185 0.11727 0.48332 0.0
C2140 C 0.01263 0.09792 0.41002 0.0
C2141 C 0.99235 0.11717 0.38332 0.0
H2142 H 0.03347 0.08321 0.47885 0.0
H2143 H 0.02515 0.08308 0.3925 0.0
S2144 S 0.94667 0.17189 0.42911 0.0
N2145 N 0.96519 0.15555 0.47703 0.0
N2146 N 0.95701 0.15607 0.38372 0.0
C2147 C 0.97655 0.13624 0.40683 0.0
C2148 C 0.98121 0.1362 0.45701 0.0
C2149 C 0.62686 0.26358 0.15234 0.0
C2150 C 0.63665 0.23558 0.14281 0.0
C2151 C 0.6246 0.27009 0.1991 0.0
C2152 C 0.63218 0.24891 0.2383 0.0
H2153 H 0.62044 0.28053 0.12335 0.0
H2154 H 0.61693 0.29194 0.20461 0.0
S2155 S 0.65917 0.17233 0.23291 0.0
N2156 N 0.65443 0.18664 0.17667 0.0
N2157 N 0.64966 0.19869 0.26455 0.0
C2158 C 0.64215 0.22087 0.22939 0.0
C2159 C 0.64443 0.21422 0.1817 0.0
C2160 C 0.109 0.49343 0.75736 0.0
C2161 C 0.09931 0.52282 0.74255 0.0
C2162 C 0.11089 0.48142 0.80597 0.0
C2163 C 0.10335 0.49813 0.84265 0.0
H2164 H 0.11442 0.47922 0.73103 0.0
H2165 H 0.11786 0.45851 0.81464 0.0
S2166 S 0.07899 0.5772 0.82347 0.0
N2167 N 0.08319 0.56867 0.76943 0.0
N2168 N 0.08756 0.54683 0.85954 0.0
C2169 C 0.09423 0.52779 0.82816 0.0
C2170 C 0.09206 0.53986 0.77877 0.0
C2171 C 0.73919 0.86484 0.1327 0.0
C2172 C 0.73152 0.83876 0.11246 0.0
C2173 C 0.75412 0.86387 0.17871 0.0
C2174 C 0.76287 0.83679 0.20591 0.0
H2175 H 0.73316 0.88617 0.11331 0.0
H2176 H 0.75911 0.88452 0.19284 0.0
S2177 S 0.74877 0.76206 0.16911 0.0
N2178 N 0.73443 0.78496 0.12392 0.0
N2179 N 0.76233 0.78327 0.20848 0.0
C2180 C 0.75562 0.81067 0.18563 0.0
C2181 C 0.74011 0.81163 0.13958 0.0
C2182 C 0.39453 0.50032 0.26408 0.0
C2183 C 0.40113 0.48368 0.30894 0.0
C2184 C 0.39698 0.48784 0.22086 0.0
C2185 C 0.4065 0.45827 0.22057 0.0
H2186 H 0.38726 0.52317 0.26229 0.0
H2187 H 0.39222 0.50175 0.18752 0.0
S2188 S 0.42709 0.40524 0.32739 0.0
N2189 N 0.41812 0.43593 0.34938 0.0
N2190 N 0.42246 0.41282 0.26895 0.0
C2191 C 0.41315 0.44151 0.26496 0.0
C2192 C 0.41052 0.45405 0.30878 0.0
C2193 C 0.81135 0.142 0.53045 0.0
C2194 C 0.79779 0.13169 0.48935 0.0
C2195 C 0.79882 0.14154 0.57319 0.0
C2196 C 0.77195 0.13085 0.57721 0.0
H2197 H 0.83178 0.15118 0.52944 0.0
H2198 H 0.81045 0.14968 0.60345 0.0
S2199 S 0.72645 0.10261 0.47982 0.0
N2200 N 0.75533 0.11101 0.45535 0.0
N2201 N 0.73168 0.11047 0.53546 0.0
C2202 C 0.75804 0.12032 0.53651 0.0
C2203 C 0.77093 0.12065 0.49279 0.0
C2204 C 0.92087 0.45182 0.59197 0.0
C2205 C 0.90969 0.46618 0.62821 0.0
C2206 C 0.91835 0.46424 0.54384 0.0
C2207 C 0.90471 0.49199 0.52888 0.0
H2208 H 0.93182 0.43057 0.60077 0.0
H2209 H 0.92699 0.45163 0.51801 0.0
S2210 S 0.87436 0.54063 0.61012 0.0
N2211 N 0.8858 0.51085 0.64565 0.0
N2212 N 0.88174 0.53447 0.55626 0.0
C2213 C 0.894 0.50697 0.56504 0.0
C2214 C 0.89633 0.49411 0.61412 0.0
C2215 C 0.27007 0.13314 0.17021 0.0
C2216 C 0.24143 0.14151 0.16193 0.0
C2217 C 0.28492 0.13231 0.21607 0.0
C2218 C 0.27164 0.13863 0.25626 0.0
H2219 H 0.28139 0.12816 0.14065 0.0
H2220 H 0.30704 0.12673 0.22006 0.0
S2221 S 0.19702 0.162 0.25414 0.0
N2222 N 0.20071 0.15698 0.19821 0.0
N2223 N 0.22787 0.1539 0.28393 0.0
C2224 C 0.24289 0.14648 0.24852 0.0
C2225 C 0.22805 0.1483 0.20167 0.0
C2226 C 0.58699 0.51989 0.0592 0.0
C2227 C 0.60357 0.49406 0.05784 0.0
C2228 C 0.5839 0.53207 0.1022 0.0
C2229 C 0.59724 0.51917 0.14631 0.0
H2230 H 0.5765 0.53114 1.02657 0.0
H2231 H 0.57077 0.55189 0.10065 0.0
S2232 S 0.64125 0.44983 0.16342 0.0
N2233 N 0.63221 0.45492 0.10543 0.0
N2234 N 0.62676 0.47791 0.18576 0.0
C2235 C 0.61364 0.49308 0.14566 0.0
C2236 C 0.61671 0.48058 0.10174 0.0
C2237 C 0.19885 0.84197 0.84039 0.0
C2238 C 0.21342 0.84972 0.88253 0.0
C2239 C 0.21113 0.84264 0.79744 0.0
C2240 C 0.23879 0.85104 0.79421 0.0
H2241 H 0.17776 0.83463 0.84066 0.0
H2242 H 0.1987 0.83641 0.76641 0.0
S2243 S 0.28691 0.87257 0.89412 0.0
N2244 N 0.2576 0.86579 0.91822 0.0
N2245 N 0.28078 0.86689 0.83755 0.0
C2246 C 0.25371 0.85923 0.83587 0.0
C2247 C 0.24107 0.85861 0.87988 0.0
C2248 C 0.59158 0.02384 0.32557 0.0
C2249 C 0.60169 -0.00553 0.3396 0.0
C2250 C 0.58909 0.03627 0.27742 0.0
C2251 C 0.5969 0.02027 0.24037 0.0
H2252 H 0.58575 0.03768 0.35212 0.0
H2253 H 0.58094 0.05883 0.26923 0.0
S2254 S 0.62168 0.94148 0.25592 0.0
N2255 N 0.61724 0.94892 0.31051 0.0
N2256 N 0.61346 0.97248 0.22113 0.0
C2257 C 0.60665 0.99075 0.25355 0.0
C2258 C 0.60883 0.9779 0.30259 0.0
C2259 C 0.22187 0.34813 0.65421 0.0
C2260 C 0.23419 0.34065 0.61375 0.0
C2261 C 0.2373 0.34671 0.69962 0.0
C2262 C 0.26557 0.33673 0.70714 0.0
H2263 H 0.20005 0.35499 0.6508 0.0
H2264 H 0.22666 0.35256 0.72945 0.0
S2265 S 0.30737 0.31301 0.6136 0.0
N2266 N 0.27655 0.32261 0.58473 0.0
N2267 N 0.30484 0.31862 0.66966 0.0
C2268 C 0.27796 0.32882 0.66703 0.0
C2269 C 0.26251 0.3311 0.62062 0.0
C2270 C 0.89418 0.00537 0.75982 0.0
C2271 C 0.90128 0.98844 0.80435 0.0
C2272 C 0.89688 -0.00641 0.71611 0.0
C2273 C 0.907 0.96435 0.71484 0.0
H2274 H 0.88696 0.0282 0.75862 0.0
H2275 H 0.89186 0.00782 0.68317 0.0
S2276 S 0.92575 0.9095 0.82003 0.0
N2277 N 0.91676 0.93977 0.84316 0.0
N2278 N 0.9225 0.91827 0.76182 0.0
C2279 C 0.91362 0.94706 0.75881 0.0
C2280 C 0.91065 0.95888 0.80318 0.0
C2281 C 0.30216 0.63755 0.07553 0.0
C2282 C 0.27352 0.63344 0.07852 0.0
C2283 C 0.31406 0.63719 1.03232 0.0
C2284 C 0.29808 0.63241 0.98978 0.0
H2285 H 0.31555 0.64179 0.1068 0.0
H2286 H 0.33604 0.64141 1.03205 0.0
S2287 S 0.22178 0.62129 0.97728 0.0
N2288 N 0.22927 0.62457 1.03451 0.0
N2289 N 0.25154 0.62441 0.95313 0.0
C2290 C 0.26933 0.62821 0.99198 0.0
C2291 C 0.25711 0.6287 0.03623 0.0
C2292 C 0.42432 0.96008 0.09515 0.0
C2293 C 0.40864 0.97166 0.12918 0.0
C2294 C 0.42201 0.97199 0.04681 0.0
C2295 C 0.40386 -0.00367 1.02905 0.0
H2296 H 0.43893 0.94159 0.10588 0.0
H2297 H 0.43505 0.96209 1.02327 0.0
S2298 S 0.35807 0.0356 0.10272 0.0
N2299 N 0.37458 0.00971 0.14114 0.0
N2300 N 0.36952 0.03147 0.05069 0.0
C2301 C 0.38806 0.00831 0.06272 0.0
C2302 C 0.39056 -0.00382 0.11229 0.0
C2303 C 0.78749 0.63926 0.71373 0.0
C2304 C 0.77358 0.64023 0.75512 0.0
C2305 C 0.77273 0.64013 0.66786 0.0
C2306 C 0.74336 0.64327 0.6609 0.0
H2307 H 0.81004 0.63794 0.71679 0.0
H2308 H 0.78453 0.6394 0.63736 0.0
S2309 S 0.69679 0.64812 0.75661 0.0
N2310 N 0.72834 0.64454 0.78542 0.0
N2311 N 0.70107 0.64779 0.69958 0.0
C2312 C 0.72924 0.64463 0.70181 0.0
C2313 C 0.74416 0.6427 0.74865 0.0
C2314 C 0.0905 0.02491 0.55811 0.0
C2315 C 0.10187 -0.00404 0.55862 0.0
C2316 C 0.08748 0.03779 0.60056 0.0
C2317 C 0.09598 0.02258 0.64576 0.0
H2318 H 0.08409 0.03797 0.52452 0.0
H2319 H 0.07838 0.06 0.59783 0.0
S2320 S 0.12407 0.94497 0.66765 0.0
N2321 N 0.11938 0.95154 0.60904 0.0
N2322 N 0.11451 0.97593 0.68826 0.0
C2323 C 0.10698 -0.00657 0.64696 0.0
C2324 C 0.10973 0.98015 0.6037 0.0
C2325 C 0.73299 0.35593 0.37011 0.0
C2326 C 0.70465 0.34976 0.37246 0.0
C2327 C 0.74546 0.35565 0.32705 0.0
C2328 C 0.73016 0.34918 0.28451 0.0
H2329 H 0.74596 0.35965 0.40213 0.0
H2330 H 0.7675 0.35968 0.3275 0.0
S2331 S 0.65476 0.33351 0.27145 0.0
N2332 N 0.66155 0.33803 0.3283 0.0
N2333 N 0.68442 0.33841 0.24772 0.0
C2334 C 0.70162 0.34384 0.28643 0.0
C2335 C 0.68907 0.34392 0.33016 0.0
loop_
_geom_bond_atom_site_label_1
_geom_bond_atom_site_label_2
_geom_bond_distance
_geom_bond_site_symmetry_2
_ccdc_geom_bond_type
Pr0 C2 2.880 . S
Pr0 O20 2.562 . S
Pr0 O21 2.490 1_455 S
Pr0 O22 2.695 . S
Pr0 O23 2.512 1_455 S
Pr0 O25 2.437 . S
Pr0 O28 2.436 . S
Pr0 O30 2.438 . S
Pr1 C11 2.880 . S
Pr1 O22 2.436 . S
Pr1 O24 2.438 . S
Pr1 O26 2.562 . S
Pr1 O27 2.490 . S
Pr1 O28 2.695 . S
Pr1 O29 2.512 . S
Pr1 O31 2.437 . S
C2 Pr0 2.880 . S
C2 C3 1.483 1_455 S
C2 O20 1.254 . S
C2 O21 1.225 1_455 S
C3 C2 1.483 1_655 S
C3 C4 1.416 . S
C3 C8 1.341 1_655 S
C4 C3 1.416 . S
C4 C5 1.368 . S
C4 H32 0.929 . S
C5 C4 1.368 . S
C5 C6 1.386 . S
C5 H33 0.929 . S
C6 C5 1.386 . S
C6 C7 1.373 1_655 S
C7 C6 1.373 1_455 S
C7 C8 1.409 . S
C7 H34 0.931 . S
C8 C3 1.341 1_455 S
C8 C7 1.409 . S
C8 H35 0.930 . S
C9 O22 1.270 . S
C9 O23 1.248 1_455 S
C10 O24 1.267 . S
C10 O25 1.278 . S
C11 Pr1 2.880 . S
C11 C12 1.491 1_554 S
C11 O26 1.254 . S
C11 O27 1.225 . S
C12 C11 1.491 1_556 S
C12 C13 1.392 . S
C12 C17 1.356 . S
C13 C12 1.392 . S
C13 C14 1.368 . S
C13 H36 0.929 . S
C14 C13 1.368 . S
C14 C15 1.386 . S
C14 H37 0.929 . S
C15 C14 1.386 . S
C15 C16 1.373 . S
C16 C15 1.373 . S
C16 C17 1.409 . S
C16 H38 0.931 . S
C17 C12 1.356 . S
C17 C16 1.409 . S
C17 H39 0.930 . S
C18 O28 1.270 . S
C18 O29 1.248 . S
C19 O30 1.267 . S
C19 O31 1.278 . S
O20 Pr0 2.562 . S
O20 C2 1.254 . S
O21 Pr0 2.490 1_655 S
O21 C2 1.225 1_655 S
O22 Pr0 2.695 . S
O22 Pr1 2.436 . S
O22 C9 1.270 . S
O23 Pr0 2.512 1_655 S
O23 C9 1.248 1_655 S
O24 Pr1 2.438 . S
O24 C10 1.267 . S
O25 Pr0 2.437 . S
O25 C10 1.278 . S
O26 Pr1 2.562 . S
O26 C11 1.254 . S
O27 Pr1 2.490 . S
O27 C11 1.225 . S
O28 Pr0 2.436 . S
O28 Pr1 2.695 . S
O28 C18 1.270 . S
O29 Pr1 2.512 . S
O29 C18 1.248 . S
O30 Pr0 2.438 . S
O30 C19 1.267 . S
O31 Pr1 2.437 . S
O31 C19 1.278 . S
H32 C4 0.929 . S
H33 C5 0.929 . S
H34 C7 0.931 . S
H35 C8 0.930 . S
H36 C13 0.929 . S
H37 C14 0.929 . S
H38 C16 0.931 . S
H39 C17 0.930 . S
Pr40 C42 2.880 . S
Pr40 O60 2.562 . S
Pr40 O61 2.490 . S
Pr40 O62 2.695 . S
Pr40 O63 2.512 . S
Pr40 O65 2.437 . S
Pr40 O68 2.436 . S
Pr40 O70 2.438 . S
Pr41 C51 2.880 . S
Pr41 O62 2.436 . S
Pr41 O64 2.438 . S
Pr41 O66 2.562 . S
Pr41 O67 2.490 . S
Pr41 O68 2.695 . S
Pr41 O69 2.512 . S
Pr41 O71 2.437 . S
C42 Pr40 2.880 . S
C42 C43 1.491 . S
C42 O60 1.254 . S
C42 O61 1.225 . S
C43 C42 1.491 . S
C43 C44 1.392 . S
C43 C48 1.356 . S
C44 C43 1.392 . S
C44 C45 1.368 . S
C44 H72 0.929 . S
C45 C44 1.368 . S
C45 C46 1.386 . S
C45 H73 0.929 . S
C46 C45 1.386 . S
C46 C47 1.373 . S
C47 C46 1.373 . S
C47 C48 1.409 . S
C47 H74 0.931 . S
C48 C43 1.356 . S
C48 C47 1.409 . S
C48 H75 0.930 . S
C49 O62 1.270 . S
C49 O63 1.248 . S
C50 O64 1.267 . S
C50 O65 1.278 . S
C51 Pr41 2.880 . S
C51 C52 1.491 . S
C51 O66 1.254 . S
C51 O67 1.225 . S
C52 C51 1.491 . S
C52 C53 1.392 . S
C52 C57 1.356 . S
C53 C52 1.392 . S
C53 C54 1.368 . S
C53 H76 0.929 . S
C54 C53 1.368 . S
C54 C55 1.386 . S
C54 H77 0.929 . S
C55 C54 1.386 . S
C55 C56 1.373 . S
C56 C55 1.373 . S
C56 C57 1.409 . S
C56 H78 0.931 . S
C57 C52 1.356 . S
C57 C56 1.409 . S
C57 H79 0.930 . S
C58 O68 1.270 . S
C58 O69 1.248 . S
C59 O70 1.267 . S
C59 O71 1.278 . S
O60 Pr40 2.562 . S
O60 C42 1.254 . S
O61 Pr40 2.490 . S
O61 C42 1.225 . S
O62 Pr40 2.695 . S
O62 Pr41 2.436 . S
O62 C49 1.270 . S
O63 Pr40 2.512 . S
O63 C49 1.248 . S
O64 Pr41 2.438 . S
O64 C50 1.267 . S
O65 Pr40 2.437 . S
O65 C50 1.278 . S
O66 Pr41 2.562 . S
O66 C51 1.254 . S
O67 Pr41 2.490 . S
O67 C51 1.225 . S
O68 Pr40 2.436 . S
O68 Pr41 2.695 . S
O68 C58 1.270 . S
O69 Pr41 2.512 . S
O69 C58 1.248 . S
O70 Pr40 2.438 . S
O70 C59 1.267 . S
O71 Pr41 2.437 . S
O71 C59 1.278 . S
H72 C44 0.929 . S
H73 C45 0.929 . S
H74 C47 0.931 . S
H75 C48 0.930 . S
H76 C53 0.929 . S
H77 C54 0.929 . S
H78 C56 0.931 . S
H79 C57 0.930 . S
Pr80 C82 2.880 . S
Pr80 O100 2.562 . S
Pr80 O101 2.490 . S
Pr80 O102 2.695 . S
Pr80 O103 2.512 . S
Pr80 O105 2.437 . S
Pr80 O108 2.436 . S
Pr80 O110 2.438 . S
Pr81 C91 2.880 . S
Pr81 O102 2.436 . S
Pr81 O104 2.438 . S
Pr81 O106 2.562 . S
Pr81 O107 2.490 . S
Pr81 O108 2.695 . S
Pr81 O109 2.512 . S
Pr81 O111 2.437 . S
C82 Pr80 2.880 . S
C82 C83 1.491 . S
C82 O100 1.254 . S
C82 O101 1.225 . S
C83 C82 1.491 . S
C83 C84 1.392 . S
C83 C88 1.356 . S
C84 C83 1.392 . S
C84 C85 1.368 . S
C84 H112 0.929 . S
C85 C84 1.368 . S
C85 C86 1.386 . S
C85 H113 0.929 . S
C86 C85 1.386 . S
C86 C87 1.373 . S
C87 C86 1.373 . S
C87 C88 1.409 . S
C87 H114 0.931 . S
C88 C83 1.356 . S
C88 C87 1.409 . S
C88 H115 0.930 . S
C89 O102 1.270 . S
C89 O103 1.248 . S
C90 O104 1.267 . S
C90 O105 1.278 . S
C91 Pr81 2.880 . S
C91 C92 1.491 . S
C91 O106 1.254 . S
C91 O107 1.225 . S
C92 C91 1.491 . S
C92 C93 1.392 . S
C92 C97 1.356 . S
C93 C92 1.392 . S
C93 C94 1.368 . S
C93 H116 0.929 . S
C94 C93 1.368 . S
C94 C95 1.386 . S
C94 H117 0.929 . S
C95 C94 1.386 . S
C95 C96 1.373 . S
C96 C95 1.373 . S
C96 C97 1.409 . S
C96 H118 0.931 . S
C97 C92 1.356 . S
C97 C96 1.409 . S
C97 H119 0.930 . S
C98 O108 1.270 . S
C98 O109 1.248 . S
C99 O110 1.267 . S
C99 O111 1.278 . S
O100 Pr80 2.562 . S
O100 C82 1.254 . S
O101 Pr80 2.490 . S
O101 C82 1.225 . S
O102 Pr80 2.695 . S
O102 Pr81 2.436 . S
O102 C89 1.270 . S
O103 Pr80 2.512 . S
O103 C89 1.248 . S
O104 Pr81 2.438 . S
O104 C90 1.267 . S
O105 Pr80 2.437 . S
O105 C90 1.278 . S
O106 Pr81 2.562 . S
O106 C91 1.254 . S
O107 Pr81 2.490 . S
O107 C91 1.225 . S
O108 Pr80 2.436 . S
O108 Pr81 2.695 . S
O108 C98 1.270 . S
O109 Pr81 2.512 . S
O109 C98 1.248 . S
O110 Pr80 2.438 . S
O110 C99 1.267 . S
O111 Pr81 2.437 . S
O111 C99 1.278 . S
H112 C84 0.929 . S
H113 C85 0.929 . S
H114 C87 0.931 . S
H115 C88 0.930 . S
H116 C93 0.929 . S
H117 C94 0.929 . S
H118 C96 0.931 . S
H119 C97 0.930 . S
Pr120 C122 2.880 . S
Pr120 O140 2.562 . S
Pr120 O141 2.490 . S
Pr120 O142 2.695 . S
Pr120 O143 2.512 . S
Pr120 O145 2.437 . S
Pr120 O148 2.436 . S
Pr120 O150 2.438 . S
Pr121 C131 2.880 . S
Pr121 O142 2.436 . S
Pr121 O144 2.438 . S
Pr121 O146 2.562 . S
Pr121 O147 2.490 . S
Pr121 O148 2.695 . S
Pr121 O149 2.512 . S
Pr121 O151 2.437 . S
C122 Pr120 2.880 . S
C122 C123 1.491 1_556 S
C122 O140 1.254 . S
C122 O141 1.225 . S
C123 C122 1.491 1_554 S
C123 C124 1.392 . S
C123 C128 1.356 . S
C124 C123 1.392 . S
C124 C125 1.368 . S
C124 H152 0.929 . S
C125 C124 1.368 . S
C125 C126 1.386 . S
C125 H153 0.929 . S
C126 C125 1.386 . S
C126 C127 1.373 . S
C127 C126 1.373 . S
C127 C128 1.409 . S
C127 H154 0.931 . S
C128 C123 1.356 . S
C128 C127 1.409 . S
C128 H155 0.930 . S
C129 O142 1.270 . S
C129 O143 1.248 . S
C130 O144 1.267 . S
C130 O145 1.278 . S
C131 Pr121 2.880 . S
C131 C132 1.491 . S
C131 O146 1.254 . S
C131 O147 1.225 . S
C132 C131 1.491 . S
C132 C133 1.392 . S
C132 C137 1.356 . S
C133 C132 1.392 . S
C133 C134 1.368 . S
C133 H156 0.929 . S
C134 C133 1.368 . S
C134 C135 1.386 . S
C134 H157 0.929 . S
C135 C134 1.386 . S
C135 C136 1.373 . S
C136 C135 1.373 . S
C136 C137 1.409 . S
C136 H158 0.931 . S
C137 C132 1.356 . S
C137 C136 1.409 . S
C137 H159 0.930 . S
C138 O148 1.270 . S
C138 O149 1.248 . S
C139 O150 1.267 . S
C139 O151 1.278 . S
O140 Pr120 2.562 . S
O140 C122 1.254 . S
O141 Pr120 2.490 . S
O141 C122 1.225 . S
O142 Pr120 2.695 . S
O142 Pr121 2.436 . S
O142 C129 1.270 . S
O143 Pr120 2.512 . S
O143 C129 1.248 . S
O144 Pr121 2.438 . S
O144 C130 1.267 . S
O145 Pr120 2.437 . S
O145 C130 1.278 . S
O146 Pr121 2.562 . S
O146 C131 1.254 . S
O147 Pr121 2.490 . S
O147 C131 1.225 . S
O148 Pr120 2.436 . S
O148 Pr121 2.695 . S
O148 C138 1.270 . S
O149 Pr121 2.512 . S
O149 C138 1.248 . S
O150 Pr120 2.438 . S
O150 C139 1.267 . S
O151 Pr121 2.437 . S
O151 C139 1.278 . S
H152 C124 0.929 . S
H153 C125 0.929 . S
H154 C127 0.931 . S
H155 C128 0.930 . S
H156 C133 0.929 . S
H157 C134 0.929 . S
H158 C136 0.931 . S
H159 C137 0.930 . S
Pr160 C162 2.880 . S
Pr160 O180 2.562 . S
Pr160 O181 2.490 . S
Pr160 O182 2.695 . S
Pr160 O183 2.512 . S
Pr160 O185 2.437 . S
Pr160 O188 2.436 . S
Pr160 O190 2.438 . S
Pr161 C171 2.880 . S
Pr161 O182 2.436 . S
Pr161 O184 2.438 . S
Pr161 O186 2.562 . S
Pr161 O187 2.490 . S
Pr161 O188 2.695 . S
Pr161 O189 2.512 . S
Pr161 O191 2.437 . S
C162 Pr160 2.880 . S
C162 C163 1.491 . S
C162 O180 1.254 . S
C162 O181 1.225 . S
C163 C162 1.491 . S
C163 C164 1.392 . S
C163 C168 1.356 . S
C164 C163 1.392 . S
C164 C165 1.368 . S
C164 H192 0.929 . S
C165 C164 1.368 . S
C165 C166 1.386 . S
C165 H193 0.929 . S
C166 C165 1.386 . S
C166 C167 1.373 . S
C167 C166 1.373 . S
C167 C168 1.409 . S
C167 H194 0.931 . S
C168 C163 1.356 . S
C168 C167 1.409 . S
C168 H195 0.930 . S
C169 O182 1.270 . S
C169 O183 1.248 . S
C170 O184 1.267 . S
C170 O185 1.278 . S
C171 Pr161 2.880 . S
C171 C172 1.491 . S
C171 O186 1.254 . S
C171 O187 1.225 . S
C172 C171 1.491 . S
C172 C173 1.392 . S
C172 C177 1.356 . S
C173 C172 1.392 . S
C173 C174 1.368 . S
C173 H196 0.929 . S
C174 C173 1.368 . S
C174 C175 1.386 . S
C174 H197 0.929 . S
C175 C174 1.386 . S
C175 C176 1.373 . S
C176 C175 1.373 . S
C176 C177 1.409 . S
C176 H198 0.931 . S
C177 C172 1.356 . S
C177 C176 1.409 . S
C177 H199 0.930 . S
C178 O188 1.270 . S
C178 O189 1.248 . S
C179 O190 1.267 . S
C179 O191 1.278 . S
O180 Pr160 2.562 . S
O180 C162 1.254 . S
O181 Pr160 2.490 . S
O181 C162 1.225 . S
O182 Pr160 2.695 . S
O182 Pr161 2.436 . S
O182 C169 1.270 . S
O183 Pr160 2.512 . S
O183 C169 1.248 . S
O184 Pr161 2.438 . S
O184 C170 1.267 . S
O185 Pr160 2.437 . S
O185 C170 1.278 . S
O186 Pr161 2.562 . S
O186 C171 1.254 . S
O187 Pr161 2.490 . S
O187 C171 1.225 . S
O188 Pr160 2.436 . S
O188 Pr161 2.695 . S
O188 C178 1.270 . S
O189 Pr161 2.512 . S
O189 C178 1.248 . S
O190 Pr160 2.438 . S
O190 C179 1.267 . S
O191 Pr161 2.437 . S
O191 C179 1.278 . S
H192 C164 0.929 . S
H193 C165 0.929 . S
H194 C167 0.931 . S
H195 C168 0.930 . S
H196 C173 0.929 . S
H197 C174 0.929 . S
H198 C176 0.931 . S
H199 C177 0.930 . S
Pr200 C202 2.880 1_556 S
Pr200 O220 2.562 1_556 S
Pr200 O221 2.490 1_556 S
Pr200 O222 2.695 . S
Pr200 O223 2.512 . S
Pr200 O225 2.437 . S
Pr200 O228 2.436 . S
Pr200 O230 2.438 . S
Pr201 C211 2.880 . S
Pr201 O222 2.436 . S
Pr201 O224 2.438 . S
Pr201 O226 2.562 . S
Pr201 O227 2.490 . S
Pr201 O228 2.695 . S
Pr201 O229 2.512 . S
Pr201 O231 2.437 . S
C202 Pr200 2.880 1_554 S
C202 C203 1.491 . S
C202 O220 1.254 . S
C202 O221 1.225 . S
C203 C202 1.491 . S
C203 C204 1.392 . S
C203 C208 1.356 . S
C204 C203 1.392 . S
C204 C205 1.368 . S
C204 H232 0.929 . S
C205 C204 1.368 . S
C205 C206 1.386 . S
C205 H233 0.929 . S
C206 C205 1.386 . S
C206 C207 1.373 . S
C207 C206 1.373 . S
C207 C208 1.409 . S
C207 H234 0.931 . S
C208 C203 1.356 . S
C208 C207 1.409 . S
C208 H235 0.930 . S
C209 O222 1.270 . S
C209 O223 1.248 . S
C210 O224 1.267 . S
C210 O225 1.278 . S
C211 Pr201 2.880 . S
C211 C212 1.491 . S
C211 O226 1.254 . S
C211 O227 1.225 . S
C212 C211 1.491 . S
C212 C213 1.392 . S
C212 C217 1.356 . S
C213 C212 1.392 . S
C213 C214 1.368 . S
C213 H236 0.929 . S
C214 C213 1.368 . S
C214 C215 1.386 . S
C214 H237 0.929 . S
C215 C214 1.386 . S
C215 C216 1.373 . S
C216 C215 1.373 . S
C216 C217 1.409 . S
C216 H238 0.931 . S
C217 C212 1.356 . S
C217 C216 1.409 . S
C217 H239 0.930 . S
C218 O228 1.270 . S
C218 O229 1.248 . S
C219 O230 1.267 . S
C219 O231 1.278 . S
O220 Pr200 2.562 1_554 S
O220 C202 1.254 . S
O221 Pr200 2.490 1_554 S
O221 C202 1.225 . S
O222 Pr200 2.695 . S
O222 Pr201 2.436 . S
O222 C209 1.270 . S
O223 Pr200 2.512 . S
O223 C209 1.248 . S
O224 Pr201 2.438 . S
O224 C210 1.267 . S
O225 Pr200 2.437 . S
O225 C210 1.278 . S
O226 Pr201 2.562 . S
O226 C211 1.254 . S
O227 Pr201 2.490 . S
O227 C211 1.225 . S
O228 Pr200 2.436 . S
O228 Pr201 2.695 . S
O228 C218 1.270 . S
O229 Pr201 2.512 . S
O229 C218 1.248 . S
O230 Pr200 2.438 . S
O230 C219 1.267 . S
O231 Pr201 2.437 . S
O231 C219 1.278 . S
H232 C204 0.929 . S
H233 C205 0.929 . S
H234 C207 0.931 . S
H235 C208 0.930 . S
H236 C213 0.929 . S
H237 C214 0.929 . S
H238 C216 0.931 . S
H239 C217 0.930 . S
Pr240 C242 2.880 . S
Pr240 O260 2.562 . S
Pr240 O261 2.490 . S
Pr240 O262 2.695 . S
Pr240 O263 2.512 . S
Pr240 O265 2.437 . S
Pr240 O268 2.436 . S
Pr240 O270 2.438 . S
Pr241 C251 2.880 1_554 S
Pr241 O262 2.436 . S
Pr241 O264 2.438 . S
Pr241 O266 2.562 1_554 S
Pr241 O267 2.490 1_554 S
Pr241 O268 2.695 . S
Pr241 O269 2.512 . S
Pr241 O271 2.437 1_554 S
C242 Pr240 2.880 . S
C242 C243 1.491 . S
C242 O260 1.254 . S
C242 O261 1.225 . S
C243 C242 1.491 . S
C243 C244 1.392 . S
C243 C248 1.356 . S
C244 C243 1.392 . S
C244 C245 1.368 . S
C244 H272 0.929 . S
C245 C244 1.368 . S
C245 C246 1.386 . S
C245 H273 0.929 . S
C246 C245 1.386 . S
C246 C247 1.373 . S
C247 C246 1.373 . S
C247 C248 1.409 . S
C247 H274 0.931 . S
C248 C243 1.356 . S
C248 C247 1.409 . S
C248 H275 0.930 . S
C249 O262 1.270 . S
C249 O263 1.248 . S
C250 O264 1.267 . S
C250 O265 1.278 . S
C251 Pr241 2.880 1_556 S
C251 C252 1.491 . S
C251 O266 1.254 . S
C251 O267 1.225 . S
C252 C251 1.491 . S
C252 C253 1.392 . S
C252 C257 1.356 . S
C253 C252 1.392 . S
C253 C254 1.368 . S
C253 H276 0.929 . S
C254 C253 1.368 . S
C254 C255 1.386 . S
C254 H277 0.929 . S
C255 C254 1.386 . S
C255 C256 1.373 . S
C256 C255 1.373 . S
C256 C257 1.409 . S
C256 H278 0.931 . S
C257 C252 1.356 . S
C257 C256 1.409 . S
C257 H279 0.930 . S
C258 O268 1.270 . S
C258 O269 1.248 . S
C259 O270 1.267 1_556 S
C259 O271 1.278 . S
O260 Pr240 2.562 . S
O260 C242 1.254 . S
O261 Pr240 2.490 . S
O261 C242 1.225 . S
O262 Pr240 2.695 . S
O262 Pr241 2.436 . S
O262 C249 1.270 . S
O263 Pr240 2.512 . S
O263 C249 1.248 . S
O264 Pr241 2.438 . S
O264 C250 1.267 . S
O265 Pr240 2.437 . S
O265 C250 1.278 . S
O266 Pr241 2.562 1_556 S
O266 C251 1.254 . S
O267 Pr241 2.490 1_556 S
O267 C251 1.225 . S
O268 Pr240 2.436 . S
O268 Pr241 2.695 . S
O268 C258 1.270 . S
O269 Pr241 2.512 . S
O269 C258 1.248 . S
O270 Pr240 2.438 . S
O270 C259 1.267 1_554 S
O271 Pr241 2.437 1_556 S
O271 C259 1.278 . S
H272 C244 0.929 . S
H273 C245 0.929 . S
H274 C247 0.931 . S
H275 C248 0.930 . S
H276 C253 0.929 . S
H277 C254 0.929 . S
H278 C256 0.931 . S
H279 C257 0.930 . S
Pr280 C282 2.880 . S
Pr280 O300 2.562 . S
Pr280 O301 2.490 . S
Pr280 O302 2.695 . S
Pr280 O303 2.512 . S
Pr280 O305 2.437 . S
Pr280 O308 2.436 . S
Pr280 O310 2.438 . S
Pr281 C291 2.880 . S
Pr281 O302 2.436 . S
Pr281 O304 2.438 . S
Pr281 O306 2.562 . S
Pr281 O307 2.490 . S
Pr281 O308 2.695 . S
Pr281 O309 2.512 . S
Pr281 O311 2.437 . S
C282 Pr280 2.880 . S
C282 C283 1.491 . S
C282 O300 1.254 . S
C282 O301 1.225 . S
C283 C282 1.491 . S
C283 C284 1.392 . S
C283 C288 1.356 . S
C284 C283 1.392 . S
C284 C285 1.368 . S
C284 H312 0.929 . S
C285 C284 1.368 . S
C285 C286 1.386 . S
C285 H313 0.929 . S
C286 C285 1.386 . S
C286 C287 1.373 . S
C287 C286 1.373 . S
C287 C288 1.409 . S
C287 H314 0.931 . S
C288 C283 1.356 . S
C288 C287 1.409 . S
C288 H315 0.930 . S
C289 O302 1.270 . S
C289 O303 1.248 . S
C290 O304 1.267 . S
C290 O305 1.278 . S
C291 Pr281 2.880 . S
C291 C292 1.491 . S
C291 O306 1.254 . S
C291 O307 1.225 . S
C292 C291 1.491 . S
C292 C293 1.392 . S
C292 C297 1.356 . S
C293 C292 1.392 . S
C293 C294 1.368 . S
C293 H316 0.929 . S
C294 C293 1.368 . S
C294 C295 1.386 . S
C294 H317 0.929 . S
C295 C294 1.386 . S
C295 C296 1.373 . S
C296 C295 1.373 . S
C296 C297 1.409 . S
C296 H318 0.931 . S
C297 C292 1.356 . S
C297 C296 1.409 . S
C297 H319 0.930 . S
C298 O308 1.270 . S
C298 O309 1.248 . S
C299 O310 1.267 . S
C299 O311 1.278 . S
O300 Pr280 2.562 . S
O300 C282 1.254 . S
O301 Pr280 2.490 . S
O301 C282 1.225 . S
O302 Pr280 2.695 . S
O302 Pr281 2.436 . S
O302 C289 1.270 . S
O303 Pr280 2.512 . S
O303 C289 1.248 . S
O304 Pr281 2.438 . S
O304 C290 1.267 . S
O305 Pr280 2.437 . S
O305 C290 1.278 . S
O306 Pr281 2.562 . S
O306 C291 1.254 . S
O307 Pr281 2.490 . S
O307 C291 1.225 . S
O308 Pr280 2.436 . S
O308 Pr281 2.695 . S
O308 C298 1.270 . S
O309 Pr281 2.512 . S
O309 C298 1.248 . S
O310 Pr280 2.438 . S
O310 C299 1.267 . S
O311 Pr281 2.437 . S
O311 C299 1.278 . S
H312 C284 0.929 . S
H313 C285 0.929 . S
H314 C287 0.931 . S
H315 C288 0.930 . S
H316 C293 0.929 . S
H317 C294 0.929 . S
H318 C296 0.931 . S
H319 C297 0.930 . S
Pr320 C322 2.880 . S
Pr320 O340 2.562 . S
Pr320 O341 2.490 . S
Pr320 O342 2.695 . S
Pr320 O343 2.512 . S
Pr320 O345 2.437 . S
Pr320 O348 2.436 . S
Pr320 O350 2.438 . S
Pr321 C331 2.880 . S
Pr321 O342 2.436 . S
Pr321 O344 2.438 . S
Pr321 O346 2.562 . S
Pr321 O347 2.490 1_655 S
Pr321 O348 2.695 . S
Pr321 O349 2.512 1_655 S
Pr321 O351 2.437 . S
C322 Pr320 2.880 . S
C322 C323 1.491 . S
C322 O340 1.254 . S
C322 O341 1.225 . S
C323 C322 1.491 . S
C323 C324 1.392 . S
C323 C328 1.356 . S
C324 C323 1.392 . S
C324 C325 1.368 . S
C324 H352 0.929 . S
C325 C324 1.368 . S
C325 C326 1.386 . S
C325 H353 0.929 . S
C326 C325 1.386 . S
C326 C327 1.373 . S
C327 C326 1.373 . S
C327 C328 1.409 . S
C327 H354 0.931 . S
C328 C323 1.356 . S
C328 C327 1.409 . S
C328 H355 0.930 . S
C329 O342 1.270 . S
C329 O343 1.248 . S
C330 O344 1.267 . S
C330 O345 1.278 . S
C331 Pr321 2.880 . S
C331 C332 1.508 1_655 S
C331 O346 1.254 . S
C331 O347 1.225 1_655 S
C332 C331 1.508 1_455 S
C332 C333 1.405 1_554 S
C332 C337 1.327 1_454 S
C333 C332 1.405 1_556 S
C333 C334 1.368 . S
C333 H356 0.929 1_556 S
C334 C333 1.368 . S
C334 C335 1.386 . S
C334 H357 0.929 . S
C335 C334 1.386 . S
C335 C336 1.373 1_455 S
C336 C335 1.373 1_655 S
C336 C337 1.409 . S
C336 H358 0.931 . S
C337 C332 1.327 1_656 S
C337 C336 1.409 . S
C337 H359 0.930 . S
C338 O348 1.270 . S
C338 O349 1.248 1_655 S
C339 O350 1.267 . S
C339 O351 1.278 . S
O340 Pr320 2.562 . S
O340 C322 1.254 . S
O341 Pr320 2.490 . S
O341 C322 1.225 . S
O342 Pr320 2.695 . S
O342 Pr321 2.436 . S
O342 C329 1.270 . S
O343 Pr320 2.512 . S
O343 C329 1.248 . S
O344 Pr321 2.438 . S
O344 C330 1.267 . S
O345 Pr320 2.437 . S
O345 C330 1.278 . S
O346 Pr321 2.562 . S
O346 C331 1.254 . S
O347 Pr321 2.490 1_455 S
O347 C331 1.225 1_455 S
O348 Pr320 2.436 . S
O348 Pr321 2.695 . S
O348 C338 1.270 . S
O349 Pr321 2.512 1_455 S
O349 C338 1.248 1_455 S
O350 Pr320 2.438 . S
O350 C339 1.267 . S
O351 Pr321 2.437 . S
O351 C339 1.278 . S
H352 C324 0.929 . S
H353 C325 0.929 . S
H354 C327 0.931 . S
H355 C328 0.930 . S
H356 C333 0.929 1_554 S
H357 C334 0.929 . S
H358 C336 0.931 . S
H359 C337 0.930 . S
Pr360 C362 2.880 . S
Pr360 O380 2.562 . S
Pr360 O381 2.490 . S
Pr360 O382 2.695 . S
Pr360 O383 2.512 . S
Pr360 O385 2.437 . S
Pr360 O388 2.436 . S
Pr360 O390 2.438 1_556 S
Pr361 C371 2.880 1_556 S
Pr361 O382 2.436 . S
Pr361 O384 2.438 . S
Pr361 O386 2.562 1_556 S
Pr361 O387 2.490 1_556 S
Pr361 O388 2.695 . S
Pr361 O389 2.512 . S
Pr361 O391 2.437 1_556 S
C362 Pr360 2.880 . S
C362 C363 1.491 . S
C362 O380 1.254 . S
C362 O381 1.225 . S
C363 C362 1.491 . S
C363 C364 1.392 . S
C363 C368 1.356 . S
C364 C363 1.392 . S
C364 C365 1.368 . S
C364 H392 0.929 . S
C365 C364 1.368 . S
C365 C366 1.386 . S
C365 H393 0.929 . S
C366 C365 1.386 . S
C366 C367 1.373 . S
C367 C366 1.373 . S
C367 C368 1.409 . S
C367 H394 0.931 . S
C368 C363 1.356 . S
C368 C367 1.409 . S
C368 H395 0.930 . S
C369 O382 1.270 . S
C369 O383 1.248 . S
C370 O384 1.267 . S
C370 O385 1.278 . S
C371 Pr361 2.880 1_554 S
C371 C372 1.491 . S
C371 O386 1.254 . S
C371 O387 1.225 . S
C372 C371 1.491 . S
C372 C373 1.392 . S
C372 C377 1.356 . S
C373 C372 1.392 . S
C373 C374 1.368 . S
C373 H396 0.929 . S
C374 C373 1.368 . S
C374 C375 1.386 . S
C374 H397 0.929 . S
C375 C374 1.386 . S
C375 C376 1.373 . S
C376 C375 1.373 . S
C376 C377 1.409 . S
C376 H398 0.931 . S
C377 C372 1.356 . S
C377 C376 1.409 . S
C377 H399 0.930 . S
C378 O388 1.270 . S
C378 O389 1.248 . S
C379 O390 1.267 . S
C379 O391 1.278 . S
O380 Pr360 2.562 . S
O380 C362 1.254 . S
O381 Pr360 2.490 . S
O381 C362 1.225 . S
O382 Pr360 2.695 . S
O382 Pr361 2.436 . S
O382 C369 1.270 . S
O383 Pr360 2.512 . S
O383 C369 1.248 . S
O384 Pr361 2.438 . S
O384 C370 1.267 . S
O385 Pr360 2.437 . S
O385 C370 1.278 . S
O386 Pr361 2.562 1_554 S
O386 C371 1.254 . S
O387 Pr361 2.490 1_554 S
O387 C371 1.225 . S
O388 Pr360 2.436 . S
O388 Pr361 2.695 . S
O388 C378 1.270 . S
O389 Pr361 2.512 . S
O389 C378 1.248 . S
O390 Pr360 2.438 1_554 S
O390 C379 1.267 . S
O391 Pr361 2.437 1_554 S
O391 C379 1.278 . S
H392 C364 0.929 . S
H393 C365 0.929 . S
H394 C367 0.931 . S
H395 C368 0.930 . S
H396 C373 0.929 . S
H397 C374 0.929 . S
H398 C376 0.931 . S
H399 C377 0.930 . S
Pr400 C402 2.880 . S
Pr400 O420 2.562 . S
Pr400 O421 2.490 . S
Pr400 O422 2.695 . S
Pr400 O423 2.512 . S
Pr400 O425 2.437 . S
Pr400 O428 2.436 . S
Pr400 O430 2.438 . S
Pr401 C411 2.880 . S
Pr401 O422 2.436 . S
Pr401 O424 2.438 . S
Pr401 O426 2.562 . S
Pr401 O427 2.490 . S
Pr401 O428 2.695 . S
Pr401 O429 2.512 . S
Pr401 O431 2.437 . S
C402 Pr400 2.880 . S
C402 C403 1.491 . S
C402 O420 1.254 . S
C402 O421 1.225 . S
C403 C402 1.491 . S
C403 C404 1.392 . S
C403 C408 1.356 . S
C404 C403 1.392 . S
C404 C405 1.368 . S
C404 H432 0.929 . S
C405 C404 1.368 . S
C405 C406 1.386 . S
C405 H433 0.929 . S
C406 C405 1.386 . S
C406 C407 1.373 . S
C407 C406 1.373 . S
C407 C408 1.409 . S
C407 H434 0.931 . S
C408 C403 1.356 . S
C408 C407 1.409 . S
C408 H435 0.930 . S
C409 O422 1.270 . S
C409 O423 1.248 . S
C410 O424 1.267 . S
C410 O425 1.278 . S
C411 Pr401 2.880 . S
C411 C412 1.491 . S
C411 O426 1.254 . S
C411 O427 1.225 . S
C412 C411 1.491 . S
C412 C413 1.392 . S
C412 C417 1.356 . S
C413 C412 1.392 . S
C413 C414 1.368 . S
C413 H436 0.929 . S
C414 C413 1.368 . S
C414 C415 1.386 . S
C414 H437 0.929 . S
C415 C414 1.386 . S
C415 C416 1.373 . S
C416 C415 1.373 . S
C416 C417 1.409 . S
C416 H438 0.931 . S
C417 C412 1.356 . S
C417 C416 1.409 . S
C417 H439 0.930 . S
C418 O428 1.270 . S
C418 O429 1.248 . S
C419 O430 1.267 . S
C419 O431 1.278 . S
O420 Pr400 2.562 . S
O420 C402 1.254 . S
O421 Pr400 2.490 . S
O421 C402 1.225 . S
O422 Pr400 2.695 . S
O422 Pr401 2.436 . S
O422 C409 1.270 . S
O423 Pr400 2.512 . S
O423 C409 1.248 . S
O424 Pr401 2.438 . S
O424 C410 1.267 . S
O425 Pr400 2.437 . S
O425 C410 1.278 . S
O426 Pr401 2.562 . S
O426 C411 1.254 . S
O427 Pr401 2.490 . S
O427 C411 1.225 . S
O428 Pr400 2.436 . S
O428 Pr401 2.695 . S
O428 C418 1.270 . S
O429 Pr401 2.512 . S
O429 C418 1.248 . S
O430 Pr400 2.438 . S
O430 C419 1.267 . S
O431 Pr401 2.437 . S
O431 C419 1.278 . S
H432 C404 0.929 . S
H433 C405 0.929 . S
H434 C407 0.931 . S
H435 C408 0.930 . S
H436 C413 0.929 . S
H437 C414 0.929 . S
H438 C416 0.931 . S
H439 C417 0.930 . S
Pr440 C442 2.880 . S
Pr440 O460 2.562 . S
Pr440 O461 2.490 . S
Pr440 O462 2.695 . S
Pr440 O463 2.512 . S
Pr440 O465 2.437 . S
Pr440 O468 2.436 . S
Pr440 O470 2.438 . S
Pr441 C451 2.880 . S
Pr441 O462 2.436 . S
Pr441 O464 2.438 . S
Pr441 O466 2.562 . S
Pr441 O467 2.490 . S
Pr441 O468 2.695 . S
Pr441 O469 2.512 . S
Pr441 O471 2.437 . S
C442 Pr440 2.880 . S
C442 C443 1.491 . S
C442 O460 1.254 . S
C442 O461 1.225 . S
C443 C442 1.491 . S
C443 C444 1.392 . S
C443 C448 1.356 . S
C444 C443 1.392 . S
C444 C445 1.368 . S
C444 H472 0.929 . S
C445 C444 1.368 . S
C445 C446 1.386 . S
C445 H473 0.929 . S
C446 C445 1.386 . S
C446 C447 1.373 . S
C447 C446 1.373 . S
C447 C448 1.409 . S
C447 H474 0.931 . S
C448 C443 1.356 . S
C448 C447 1.409 . S
C448 H475 0.930 . S
C449 O462 1.270 . S
C449 O463 1.248 . S
C450 O464 1.267 . S
C450 O465 1.278 . S
C451 Pr441 2.880 . S
C451 C452 1.491 . S
C451 O466 1.254 . S
C451 O467 1.225 . S
C452 C451 1.491 . S
C452 C453 1.392 . S
C452 C457 1.356 . S
C453 C452 1.392 . S
C453 C454 1.368 . S
C453 H476 0.929 . S
C454 C453 1.368 . S
C454 C455 1.386 . S
C454 H477 0.929 . S
C455 C454 1.386 . S
C455 C456 1.373 . S
C456 C455 1.373 . S
C456 C457 1.409 . S
C456 H478 0.931 . S
C457 C452 1.356 . S
C457 C456 1.409 . S
C457 H479 0.930 . S
C458 O468 1.270 . S
C458 O469 1.248 . S
C459 O470 1.267 . S
C459 O471 1.278 . S
O460 Pr440 2.562 . S
O460 C442 1.254 . S
O461 Pr440 2.490 . S
O461 C442 1.225 . S
O462 Pr440 2.695 . S
O462 Pr441 2.436 . S
O462 C449 1.270 . S
O463 Pr440 2.512 . S
O463 C449 1.248 . S
O464 Pr441 2.438 . S
O464 C450 1.267 . S
O465 Pr440 2.437 . S
O465 C450 1.278 . S
O466 Pr441 2.562 . S
O466 C451 1.254 . S
O467 Pr441 2.490 . S
O467 C451 1.225 . S
O468 Pr440 2.436 . S
O468 Pr441 2.695 . S
O468 C458 1.270 . S
O469 Pr441 2.512 . S
O469 C458 1.248 . S
O470 Pr440 2.438 . S
O470 C459 1.267 . S
O471 Pr441 2.437 . S
O471 C459 1.278 . S
H472 C444 0.929 . S
H473 C445 0.929 . S
H474 C447 0.931 . S
H475 C448 0.930 . S
H476 C453 0.929 . S
H477 C454 0.929 . S
H478 C456 0.931 . S
H479 C457 0.930 . S
Pr480 C482 2.880 . S
Pr480 O500 2.562 . S
Pr480 O501 2.490 . S
Pr480 O502 2.695 . S
Pr480 O503 2.512 . S
Pr480 O505 2.437 . S
Pr480 O508 2.436 . S
Pr480 O510 2.438 . S
Pr481 C491 2.880 . S
Pr481 O502 2.436 . S
Pr481 O504 2.438 . S
Pr481 O506 2.562 . S
Pr481 O507 2.490 . S
Pr481 O508 2.695 . S
Pr481 O509 2.512 . S
Pr481 O511 2.437 . S
C482 Pr480 2.880 . S
C482 C483 1.491 . S
C482 O500 1.254 . S
C482 O501 1.225 . S
C483 C482 1.491 . S
C483 C484 1.392 . S
C483 C488 1.356 . S
C484 C483 1.392 . S
C484 C485 1.368 . S
C484 H512 0.929 . S
C485 C484 1.368 . S
C485 C486 1.386 . S
C485 H513 0.929 . S
C486 C485 1.386 . S
C486 C487 1.373 . S
C487 C486 1.373 . S
C487 C488 1.409 . S
C487 H514 0.931 . S
C488 C483 1.356 . S
C488 C487 1.409 . S
C488 H515 0.930 . S
C489 O502 1.270 . S
C489 O503 1.248 . S
C490 O504 1.267 . S
C490 O505 1.278 . S
C491 Pr481 2.880 . S
C491 C492 1.491 . S
C491 O506 1.254 . S
C491 O507 1.225 . S
C492 C491 1.491 . S
C492 C493 1.392 . S
C492 C497 1.356 . S
C493 C492 1.392 . S
C493 C494 1.368 . S
C493 H516 0.929 . S
C494 C493 1.368 . S
C494 C495 1.386 . S
C494 H517 0.929 . S
C495 C494 1.386 . S
C495 C496 1.373 . S
C496 C495 1.373 . S
C496 C497 1.409 . S
C496 H518 0.931 . S
C497 C492 1.356 . S
C497 C496 1.409 . S
C497 H519 0.930 . S
C498 O508 1.270 . S
C498 O509 1.248 . S
C499 O510 1.267 . S
C499 O511 1.278 . S
O500 Pr480 2.562 . S
O500 C482 1.254 . S
O501 Pr480 2.490 . S
O501 C482 1.225 . S
O502 Pr480 2.695 . S
O502 Pr481 2.436 . S
O502 C489 1.270 . S
O503 Pr480 2.512 . S
O503 C489 1.248 . S
O504 Pr481 2.438 . S
O504 C490 1.267 . S
O505 Pr480 2.437 . S
O505 C490 1.278 . S
O506 Pr481 2.562 . S
O506 C491 1.254 . S
O507 Pr481 2.490 . S
O507 C491 1.225 . S
O508 Pr480 2.436 . S
O508 Pr481 2.695 . S
O508 C498 1.270 . S
O509 Pr481 2.512 . S
O509 C498 1.248 . S
O510 Pr480 2.438 . S
O510 C499 1.267 . S
O511 Pr481 2.437 . S
O511 C499 1.278 . S
H512 C484 0.929 . S
H513 C485 0.929 . S
H514 C487 0.931 . S
H515 C488 0.930 . S
H516 C493 0.929 . S
H517 C494 0.929 . S
H518 C496 0.931 . S
H519 C497 0.930 . S
Pr520 C522 2.880 . S
Pr520 O540 2.562 . S
Pr520 O541 2.490 . S
Pr520 O542 2.695 . S
Pr520 O543 2.512 . S
Pr520 O545 2.437 . S
Pr520 O548 2.436 . S
Pr520 O550 2.438 . S
Pr521 C531 2.880 . S
Pr521 O542 2.436 . S
Pr521 O544 2.438 . S
Pr521 O546 2.562 . S
Pr521 O547 2.490 . S
Pr521 O548 2.695 . S
Pr521 O549 2.512 . S
Pr521 O551 2.437 . S
C522 Pr520 2.880 . S
C522 C523 1.491 . S
C522 O540 1.254 . S
C522 O541 1.225 . S
C523 C522 1.491 . S
C523 C524 1.392 . S
C523 C528 1.356 . S
C524 C523 1.392 . S
C524 C525 1.368 . S
C524 H552 0.929 . S
C525 C524 1.368 . S
C525 C526 1.386 . S
C525 H553 0.929 . S
C526 C525 1.386 . S
C526 C527 1.373 . S
C527 C526 1.373 . S
C527 C528 1.409 . S
C527 H554 0.931 . S
C528 C523 1.356 . S
C528 C527 1.409 . S
C528 H555 0.930 . S
C529 O542 1.270 . S
C529 O543 1.248 . S
C530 O544 1.267 . S
C530 O545 1.278 . S
C531 Pr521 2.880 . S
C531 C532 1.491 . S
C531 O546 1.254 . S
C531 O547 1.225 . S
C532 C531 1.491 . S
C532 C533 1.392 . S
C532 C537 1.356 . S
C533 C532 1.392 . S
C533 C534 1.368 . S
C533 H556 0.929 . S
C534 C533 1.368 . S
C534 C535 1.386 . S
C534 H557 0.929 . S
C535 C534 1.386 . S
C535 C536 1.373 . S
C536 C535 1.373 . S
C536 C537 1.409 . S
C536 H558 0.931 . S
C537 C532 1.356 . S
C537 C536 1.409 . S
C537 H559 0.930 . S
C538 O548 1.270 . S
C538 O549 1.248 . S
C539 O550 1.267 . S
C539 O551 1.278 . S
O540 Pr520 2.562 . S
O540 C522 1.254 . S
O541 Pr520 2.490 . S
O541 C522 1.225 . S
O542 Pr520 2.695 . S
O542 Pr521 2.436 . S
O542 C529 1.270 . S
O543 Pr520 2.512 . S
O543 C529 1.248 . S
O544 Pr521 2.438 . S
O544 C530 1.267 . S
O545 Pr520 2.437 . S
O545 C530 1.278 . S
O546 Pr521 2.562 . S
O546 C531 1.254 . S
O547 Pr521 2.490 . S
O547 C531 1.225 . S
O548 Pr520 2.436 . S
O548 Pr521 2.695 . S
O548 C538 1.270 . S
O549 Pr521 2.512 . S
O549 C538 1.248 . S
O550 Pr520 2.438 . S
O550 C539 1.267 . S
O551 Pr521 2.437 . S
O551 C539 1.278 . S
H552 C524 0.929 . S
H553 C525 0.929 . S
H554 C527 0.931 . S
H555 C528 0.930 . S
H556 C533 0.929 . S
H557 C534 0.929 . S
H558 C536 0.931 . S
H559 C537 0.930 . S
Pr560 C562 2.880 . S
Pr560 O580 2.562 . S
Pr560 O581 2.490 . S
Pr560 O582 2.695 . S
Pr560 O583 2.512 . S
Pr560 O585 2.437 . S
Pr560 O588 2.436 . S
Pr560 O590 2.438 . S
Pr561 C571 2.880 . S
Pr561 O582 2.436 . S
Pr561 O584 2.438 . S
Pr561 O586 2.562 . S
Pr561 O587 2.490 . S
Pr561 O588 2.695 . S
Pr561 O589 2.512 . S
Pr561 O591 2.437 . S
C562 Pr560 2.880 . S
C562 C563 1.491 . S
C562 O580 1.254 . S
C562 O581 1.225 . S
C563 C562 1.491 . S
C563 C564 1.392 . S
C563 C568 1.356 . S
C564 C563 1.392 . S
C564 C565 1.368 . S
C564 H592 0.929 . S
C565 C564 1.368 . S
C565 C566 1.386 . S
C565 H593 0.929 . S
C566 C565 1.386 . S
C566 C567 1.373 . S
C567 C566 1.373 . S
C567 C568 1.409 . S
C567 H594 0.931 . S
C568 C563 1.356 . S
C568 C567 1.409 . S
C568 H595 0.930 . S
C569 O582 1.270 . S
C569 O583 1.248 . S
C570 O584 1.267 . S
C570 O585 1.278 . S
C571 Pr561 2.880 . S
C571 C572 1.491 . S
C571 O586 1.254 . S
C571 O587 1.225 . S
C572 C571 1.491 . S
C572 C573 1.392 . S
C572 C577 1.356 . S
C573 C572 1.392 . S
C573 C574 1.368 . S
C573 H596 0.929 . S
C574 C573 1.368 . S
C574 C575 1.386 1_554 S
C574 H597 0.929 . S
C575 C574 1.386 1_556 S
C575 C576 1.373 . S
C576 C575 1.373 . S
C576 C577 1.409 1_556 S
C576 H598 0.931 . S
C577 C572 1.356 . S
C577 C576 1.409 1_554 S
C577 H599 0.930 . S
C578 O588 1.270 . S
C578 O589 1.248 . S
C579 O590 1.267 . S
C579 O591 1.278 . S
O580 Pr560 2.562 . S
O580 C562 1.254 . S
O581 Pr560 2.490 . S
O581 C562 1.225 . S
O582 Pr560 2.695 . S
O582 Pr561 2.436 . S
O582 C569 1.270 . S
O583 Pr560 2.512 . S
O583 C569 1.248 . S
O584 Pr561 2.438 . S
O584 C570 1.267 . S
O585 Pr560 2.437 . S
O585 C570 1.278 . S
O586 Pr561 2.562 . S
O586 C571 1.254 . S
O587 Pr561 2.490 . S
O587 C571 1.225 . S
O588 Pr560 2.436 . S
O588 Pr561 2.695 . S
O588 C578 1.270 . S
O589 Pr561 2.512 . S
O589 C578 1.248 . S
O590 Pr560 2.438 . S
O590 C579 1.267 . S
O591 Pr561 2.437 . S
O591 C579 1.278 . S
H592 C564 0.929 . S
H593 C565 0.929 . S
H594 C567 0.931 . S
H595 C568 0.930 . S
H596 C573 0.929 . S
H597 C574 0.929 . S
H598 C576 0.931 . S
H599 C577 0.930 . S
Pr600 C602 2.880 . S
Pr600 O620 2.562 . S
Pr600 O621 2.490 . S
Pr600 O622 2.695 1_554 S
Pr600 O623 2.512 . S
Pr600 O625 2.437 . S
Pr600 O628 2.436 . S
Pr600 O630 2.438 1_554 S
Pr601 C611 2.880 . S
Pr601 O622 2.436 . S
Pr601 O624 2.438 1_556 S
Pr601 O626 2.562 . S
Pr601 O627 2.490 . S
Pr601 O628 2.695 1_556 S
Pr601 O629 2.512 . S
Pr601 O631 2.437 . S
C602 Pr600 2.880 . S
C602 C603 1.491 . S
C602 O620 1.254 . S
C602 O621 1.225 . S
C603 C602 1.491 . S
C603 C604 1.392 . S
C603 C608 1.356 . S
C604 C603 1.392 . S
C604 C605 1.368 . S
C604 H632 0.929 . S
C605 C604 1.368 . S
C605 C606 1.386 . S
C605 H633 0.929 . S
C606 C605 1.386 . S
C606 C607 1.373 . S
C607 C606 1.373 . S
C607 C608 1.409 . S
C607 H634 0.931 . S
C608 C603 1.356 . S
C608 C607 1.409 . S
C608 H635 0.930 . S
C609 O622 1.270 . S
C609 O623 1.248 1_556 S
C610 O624 1.267 . S
C610 O625 1.278 . S
C611 Pr601 2.880 . S
C611 C612 1.491 . S
C611 O626 1.254 . S
C611 O627 1.225 . S
C612 C611 1.491 . S
C612 C613 1.392 . S
C612 C617 1.356 . S
C613 C612 1.392 . S
C613 C614 1.368 . S
C613 H636 0.929 . S
C614 C613 1.368 . S
C614 C615 1.386 . S
C614 H637 0.929 . S
C615 C614 1.386 . S
C615 C616 1.373 . S
C616 C615 1.373 . S
C616 C617 1.409 . S
C616 H638 0.931 . S
C617 C612 1.356 . S
C617 C616 1.409 . S
C617 H639 0.930 . S
C618 O628 1.270 . S
C618 O629 1.248 1_554 S
C619 O630 1.267 . S
C619 O631 1.278 . S
O620 Pr600 2.562 . S
O620 C602 1.254 . S
O621 Pr600 2.490 . S
O621 C602 1.225 . S
O622 Pr600 2.695 1_556 S
O622 Pr601 2.436 . S
O622 C609 1.270 . S
O623 Pr600 2.512 . S
O623 C609 1.248 1_554 S
O624 Pr601 2.438 1_554 S
O624 C610 1.267 . S
O625 Pr600 2.437 . S
O625 C610 1.278 . S
O626 Pr601 2.562 . S
O626 C611 1.254 . S
O627 Pr601 2.490 . S
O627 C611 1.225 . S
O628 Pr600 2.436 . S
O628 Pr601 2.695 1_554 S
O628 C618 1.270 . S
O629 Pr601 2.512 . S
O629 C618 1.248 1_556 S
O630 Pr600 2.438 1_556 S
O630 C619 1.267 . S
O631 Pr601 2.437 . S
O631 C619 1.278 . S
H632 C604 0.929 . S
H633 C605 0.929 . S
H634 C607 0.931 . S
H635 C608 0.930 . S
H636 C613 0.929 . S
H637 C614 0.929 . S
H638 C616 0.931 . S
H639 C617 0.930 . S
Pr640 C642 2.880 . S
Pr640 O660 2.562 . S
Pr640 O661 2.490 . S
Pr640 O662 2.695 . S
Pr640 O663 2.512 . S
Pr640 O665 2.437 . S
Pr640 O668 2.436 . S
Pr640 O670 2.438 . S
Pr641 C651 2.880 . S
Pr641 O662 2.436 . S
Pr641 O664 2.438 . S
Pr641 O666 2.562 . S
Pr641 O667 2.490 . S
Pr641 O668 2.695 . S
Pr641 O669 2.512 . S
Pr641 O671 2.437 . S
C642 Pr640 2.880 . S
C642 C643 1.491 . S
C642 O660 1.254 . S
C642 O661 1.225 . S
C643 C642 1.491 . S
C643 C644 1.392 . S
C643 C648 1.356 . S
C644 C643 1.392 . S
C644 C645 1.368 . S
C644 H672 0.929 . S
C645 C644 1.368 . S
C645 C646 1.386 . S
C645 H673 0.929 . S
C646 C645 1.386 . S
C646 C647 1.373 . S
C647 C646 1.373 . S
C647 C648 1.409 . S
C647 H674 0.931 . S
C648 C643 1.356 . S
C648 C647 1.409 . S
C648 H675 0.930 . S
C649 O662 1.270 . S
C649 O663 1.248 . S
C650 O664 1.267 . S
C650 O665 1.278 . S
C651 Pr641 2.880 . S
C651 C652 1.491 . S
C651 O666 1.254 . S
C651 O667 1.225 . S
C652 C651 1.491 . S
C652 C653 1.392 . S
C652 C657 1.356 . S
C653 C652 1.392 . S
C653 C654 1.368 . S
C653 H676 0.929 . S
C654 C653 1.368 . S
C654 C655 1.386 . S
C654 H677 0.929 . S
C655 C654 1.386 . S
C655 C656 1.373 . S
C656 C655 1.373 . S
C656 C657 1.409 . S
C656 H678 0.931 . S
C657 C652 1.356 . S
C657 C656 1.409 . S
C657 H679 0.930 . S
C658 O668 1.270 . S
C658 O669 1.248 . S
C659 O670 1.267 . S
C659 O671 1.278 . S
O660 Pr640 2.562 . S
O660 C642 1.254 . S
O661 Pr640 2.490 . S
O661 C642 1.225 . S
O662 Pr640 2.695 . S
O662 Pr641 2.436 . S
O662 C649 1.270 . S
O663 Pr640 2.512 . S
O663 C649 1.248 . S
O664 Pr641 2.438 . S
O664 C650 1.267 . S
O665 Pr640 2.437 . S
O665 C650 1.278 . S
O666 Pr641 2.562 . S
O666 C651 1.254 . S
O667 Pr641 2.490 . S
O667 C651 1.225 . S
O668 Pr640 2.436 . S
O668 Pr641 2.695 . S
O668 C658 1.270 . S
O669 Pr641 2.512 . S
O669 C658 1.248 . S
O670 Pr640 2.438 . S
O670 C659 1.267 . S
O671 Pr641 2.437 . S
O671 C659 1.278 . S
H672 C644 0.929 . S
H673 C645 0.929 . S
H674 C647 0.931 . S
H675 C648 0.930 . S
H676 C653 0.929 . S
H677 C654 0.929 . S
H678 C656 0.931 . S
H679 C657 0.930 . S
Pr680 C682 2.880 . S
Pr680 O700 2.562 . S
Pr680 O701 2.490 . S
Pr680 O702 2.695 . S
Pr680 O703 2.512 . S
Pr680 O705 2.437 . S
Pr680 O708 2.436 . S
Pr680 O710 2.438 . S
Pr681 C691 2.880 . S
Pr681 O702 2.436 . S
Pr681 O704 2.438 . S
Pr681 O706 2.562 . S
Pr681 O707 2.490 . S
Pr681 O708 2.695 . S
Pr681 O709 2.512 . S
Pr681 O711 2.437 . S
C682 Pr680 2.880 . S
C682 C683 1.491 . S
C682 O700 1.254 . S
C682 O701 1.225 . S
C683 C682 1.491 . S
C683 C684 1.392 . S
C683 C688 1.356 . S
C684 C683 1.392 . S
C684 C685 1.368 . S
C684 H712 0.929 . S
C685 C684 1.368 . S
C685 C686 1.386 . S
C685 H713 0.929 . S
C686 C685 1.386 . S
C686 C687 1.373 . S
C687 C686 1.373 . S
C687 C688 1.409 . S
C687 H714 0.931 . S
C688 C683 1.356 . S
C688 C687 1.409 . S
C688 H715 0.930 . S
C689 O702 1.270 . S
C689 O703 1.248 . S
C690 O704 1.267 . S
C690 O705 1.278 . S
C691 Pr681 2.880 . S
C691 C692 1.491 1_556 S
C691 O706 1.254 . S
C691 O707 1.225 . S
C692 C691 1.491 1_554 S
C692 C693 1.392 . S
C692 C697 1.356 . S
C693 C692 1.392 . S
C693 C694 1.368 . S
C693 H716 0.929 . S
C694 C693 1.368 . S
C694 C695 1.386 . S
C694 H717 0.929 . S
C695 C694 1.386 . S
C695 C696 1.373 . S
C696 C695 1.373 . S
C696 C697 1.409 . S
C696 H718 0.931 . S
C697 C692 1.356 . S
C697 C696 1.409 . S
C697 H719 0.930 . S
C698 O708 1.270 . S
C698 O709 1.248 . S
C699 O710 1.267 . S
C699 O711 1.278 . S
O700 Pr680 2.562 . S
O700 C682 1.254 . S
O701 Pr680 2.490 . S
O701 C682 1.225 . S
O702 Pr680 2.695 . S
O702 Pr681 2.436 . S
O702 C689 1.270 . S
O703 Pr680 2.512 . S
O703 C689 1.248 . S
O704 Pr681 2.438 . S
O704 C690 1.267 . S
O705 Pr680 2.437 . S
O705 C690 1.278 . S
O706 Pr681 2.562 . S
O706 C691 1.254 . S
O707 Pr681 2.490 . S
O707 C691 1.225 . S
O708 Pr680 2.436 . S
O708 Pr681 2.695 . S
O708 C698 1.270 . S
O709 Pr681 2.512 . S
O709 C698 1.248 . S
O710 Pr680 2.438 . S
O710 C699 1.267 . S
O711 Pr681 2.437 . S
O711 C699 1.278 . S
H712 C684 0.929 . S
H713 C685 0.929 . S
H714 C687 0.931 . S
H715 C688 0.930 . S
H716 C693 0.929 . S
H717 C694 0.929 . S
H718 C696 0.931 . S
H719 C697 0.930 . S
Pr720 C722 2.880 . S
Pr720 O740 2.562 . S
Pr720 O741 2.490 . S
Pr720 O742 2.695 . S
Pr720 O743 2.512 . S
Pr720 O745 2.437 . S
Pr720 O748 2.436 . S
Pr720 O750 2.438 . S
Pr721 C731 2.880 1_554 S
Pr721 O742 2.436 . S
Pr721 O744 2.438 . S
Pr721 O746 2.562 1_554 S
Pr721 O747 2.490 1_554 S
Pr721 O748 2.695 . S
Pr721 O749 2.512 . S
Pr721 O751 2.437 . S
C722 Pr720 2.880 . S
C722 C723 1.491 . S
C722 O740 1.254 . S
C722 O741 1.225 . S
C723 C722 1.491 . S
C723 C724 1.392 1_655 S
C723 C728 1.356 . S
C724 C723 1.392 1_455 S
C724 C725 1.368 . S
C724 H752 0.929 . S
C725 C724 1.368 . S
C725 C726 1.386 1_455 S
C725 H753 0.929 . S
C726 C725 1.386 1_655 S
C726 C727 1.373 . S
C727 C726 1.373 . S
C727 C728 1.409 . S
C727 H754 0.931 . S
C728 C723 1.356 . S
C728 C727 1.409 . S
C728 H755 0.930 . S
C729 O742 1.270 . S
C729 O743 1.248 . S
C730 O744 1.267 . S
C730 O745 1.278 . S
C731 Pr721 2.880 1_556 S
C731 C732 1.491 . S
C731 O746 1.254 . S
C731 O747 1.225 . S
C732 C731 1.491 . S
C732 C733 1.392 . S
C732 C737 1.356 . S
C733 C732 1.392 . S
C733 C734 1.368 . S
C733 H756 0.929 . S
C734 C733 1.368 . S
C734 C735 1.386 . S
C734 H757 0.929 . S
C735 C734 1.386 . S
C735 C736 1.373 . S
C736 C735 1.373 . S
C736 C737 1.409 . S
C736 H758 0.931 . S
C737 C732 1.356 . S
C737 C736 1.409 . S
C737 H759 0.930 . S
C738 O748 1.270 . S
C738 O749 1.248 . S
C739 O750 1.267 . S
C739 O751 1.278 . S
O740 Pr720 2.562 . S
O740 C722 1.254 . S
O741 Pr720 2.490 . S
O741 C722 1.225 . S
O742 Pr720 2.695 . S
O742 Pr721 2.436 . S
O742 C729 1.270 . S
O743 Pr720 2.512 . S
O743 C729 1.248 . S
O744 Pr721 2.438 . S
O744 C730 1.267 . S
O745 Pr720 2.437 . S
O745 C730 1.278 . S
O746 Pr721 2.562 1_556 S
O746 C731 1.254 . S
O747 Pr721 2.490 1_556 S
O747 C731 1.225 . S
O748 Pr720 2.436 . S
O748 Pr721 2.695 . S
O748 C738 1.270 . S
O749 Pr721 2.512 . S
O749 C738 1.248 . S
O750 Pr720 2.438 . S
O750 C739 1.267 . S
O751 Pr721 2.437 . S
O751 C739 1.278 . S
H752 C724 0.929 . S
H753 C725 0.929 . S
H754 C727 0.931 . S
H755 C728 0.930 . S
H756 C733 0.929 . S
H757 C734 0.929 . S
H758 C736 0.931 . S
H759 C737 0.930 . S
Pr760 C762 2.880 . S
Pr760 O780 2.562 . S
Pr760 O781 2.490 . S
Pr760 O782 2.695 . S
Pr760 O783 2.512 . S
Pr760 O785 2.437 . S
Pr760 O788 2.436 . S
Pr760 O790 2.438 . S
Pr761 C771 2.880 . S
Pr761 O782 2.436 . S
Pr761 O784 2.438 . S
Pr761 O786 2.562 . S
Pr761 O787 2.490 . S
Pr761 O788 2.695 . S
Pr761 O789 2.512 . S
Pr761 O791 2.437 . S
C762 Pr760 2.880 . S
C762 C763 1.491 . S
C762 O780 1.254 . S
C762 O781 1.225 . S
C763 C762 1.491 . S
C763 C764 1.392 . S
C763 C768 1.356 . S
C764 C763 1.392 . S
C764 C765 1.368 . S
C764 H792 0.929 . S
C765 C764 1.368 . S
C765 C766 1.386 . S
C765 H793 0.929 . S
C766 C765 1.386 . S
C766 C767 1.373 . S
C767 C766 1.373 . S
C767 C768 1.409 . S
C767 H794 0.931 . S
C768 C763 1.356 . S
C768 C767 1.409 . S
C768 H795 0.930 . S
C769 O782 1.270 . S
C769 O783 1.248 . S
C770 O784 1.267 . S
C770 O785 1.278 . S
C771 Pr761 2.880 . S
C771 C772 1.491 . S
C771 O786 1.254 . S
C771 O787 1.225 . S
C772 C771 1.491 . S
C772 C773 1.392 . S
C772 C777 1.356 . S
C773 C772 1.392 . S
C773 C774 1.368 . S
C773 H796 0.929 . S
C774 C773 1.368 . S
C774 C775 1.386 . S
C774 H797 0.929 . S
C775 C774 1.386 . S
C775 C776 1.373 . S
C776 C775 1.373 . S
C776 C777 1.409 . S
C776 H798 0.931 . S
C777 C772 1.356 . S
C777 C776 1.409 . S
C777 H799 0.930 . S
C778 O788 1.270 . S
C778 O789 1.248 . S
C779 O790 1.267 . S
C779 O791 1.278 . S
O780 Pr760 2.562 . S
O780 C762 1.254 . S
O781 Pr760 2.490 . S
O781 C762 1.225 . S
O782 Pr760 2.695 . S
O782 Pr761 2.436 . S
O782 C769 1.270 . S
O783 Pr760 2.512 . S
O783 C769 1.248 . S
O784 Pr761 2.438 . S
O784 C770 1.267 . S
O785 Pr760 2.437 . S
O785 C770 1.278 . S
O786 Pr761 2.562 . S
O786 C771 1.254 . S
O787 Pr761 2.490 . S
O787 C771 1.225 . S
O788 Pr760 2.436 . S
O788 Pr761 2.695 . S
O788 C778 1.270 . S
O789 Pr761 2.512 . S
O789 C778 1.248 . S
O790 Pr760 2.438 . S
O790 C779 1.267 . S
O791 Pr761 2.437 . S
O791 C779 1.278 . S
H792 C764 0.929 . S
H793 C765 0.929 . S
H794 C767 0.931 . S
H795 C768 0.930 . S
H796 C773 0.929 . S
H797 C774 0.929 . S
H798 C776 0.931 . S
H799 C777 0.930 . S
Pr800 C802 2.880 . S
Pr800 O820 2.562 . S
Pr800 O821 2.490 . S
Pr800 O822 2.695 . S
Pr800 O823 2.512 . S
Pr800 O825 2.437 . S
Pr800 O828 2.436 . S
Pr800 O830 2.438 1_554 S
Pr801 C811 2.880 1_554 S
Pr801 O822 2.436 1_565 S
Pr801 O824 2.438 . S
Pr801 O826 2.563 1_564 S
Pr801 O827 2.490 1_554 S
Pr801 O828 2.695 1_565 S
Pr801 O829 2.512 . S
Pr801 O831 2.437 1_564 S
C802 Pr800 2.880 . S
C802 C803 1.491 . S
C802 O820 1.254 . S
C802 O821 1.225 . S
C803 C802 1.491 . S
C803 C804 1.392 . S
C803 C808 1.356 . S
C804 C803 1.392 . S
C804 C805 1.368 . S
C804 H832 0.929 . S
C805 C804 1.368 . S
C805 C806 1.386 . S
C805 H833 0.929 . S
C806 C805 1.386 . S
C806 C807 1.373 . S
C807 C806 1.373 . S
C807 C808 1.409 . S
C807 H834 0.931 . S
C808 C803 1.356 . S
C808 C807 1.409 . S
C808 H835 0.930 . S
C809 O822 1.270 . S
C809 O823 1.248 . S
C810 O824 1.267 1_545 S
C810 O825 1.278 . S
C811 Pr801 2.880 1_556 S
C811 C812 1.491 . S
C811 O826 1.218 1_565 S
C811 O827 1.225 . S
C812 C811 1.491 . S
C812 C813 1.392 . S
C812 C817 1.356 . S
C813 C812 1.392 . S
C813 C814 1.368 . S
C813 H836 0.929 . S
C814 C813 1.368 . S
C814 C815 1.386 . S
C814 H837 0.929 . S
C815 C814 1.386 . S
C815 C816 1.373 . S
C816 C815 1.373 . S
C816 C817 1.409 . S
C816 H838 0.931 . S
C817 C812 1.356 . S
C817 C816 1.409 . S
C817 H839 0.930 1_565 S
C818 O828 1.270 1_565 S
C818 O829 1.248 . S
C819 O830 1.267 . S
C819 O831 1.278 . S
O820 Pr800 2.562 . S
O820 C802 1.254 . S
O821 Pr800 2.490 . S
O821 C802 1.225 . S
O822 Pr800 2.695 . S
O822 Pr801 2.436 1_545 S
O822 C809 1.270 . S
O823 Pr800 2.512 . S
O823 C809 1.248 . S
O824 Pr801 2.438 . S
O824 C810 1.267 1_565 S
O825 Pr800 2.437 . S
O825 C810 1.278 . S
O826 Pr801 2.563 1_546 S
O826 C811 1.218 1_545 S
O827 Pr801 2.490 1_556 S
O827 C811 1.225 . S
O828 Pr800 2.436 . S
O828 Pr801 2.695 1_545 S
O828 C818 1.270 1_545 S
O829 Pr801 2.512 . S
O829 C818 1.248 . S
O830 Pr800 2.438 1_556 S
O830 C819 1.267 . S
O831 Pr801 2.437 1_546 S
O831 C819 1.278 . S
H832 C804 0.929 . S
H833 C805 0.929 . S
H834 C807 0.931 . S
H835 C808 0.930 . S
H836 C813 0.929 . S
H837 C814 0.929 . S
H838 C816 0.931 . S
H839 C817 0.930 1_545 S
Pr840 C842 2.880 . S
Pr840 O860 2.562 . S
Pr840 O861 2.490 . S
Pr840 O862 2.695 . S
Pr840 O863 2.512 . S
Pr840 O865 2.437 . S
Pr840 O868 2.436 . S
Pr840 O870 2.438 . S
Pr841 C851 2.880 . S
Pr841 O862 2.436 . S
Pr841 O864 2.438 . S
Pr841 O866 2.562 . S
Pr841 O867 2.490 . S
Pr841 O868 2.695 . S
Pr841 O869 2.512 . S
Pr841 O871 2.437 . S
C842 Pr840 2.880 . S
C842 C843 1.491 . S
C842 O860 1.254 . S
C842 O861 1.225 . S
C843 C842 1.491 . S
C843 C844 1.392 . S
C843 C848 1.356 . S
C844 C843 1.392 . S
C844 C845 1.368 . S
C844 H872 0.929 . S
C845 C844 1.368 . S
C845 C846 1.386 . S
C845 H873 0.929 . S
C846 C845 1.386 . S
C846 C847 1.373 . S
C847 C846 1.373 . S
C847 C848 1.409 . S
C847 H874 0.931 . S
C848 C843 1.356 . S
C848 C847 1.409 . S
C848 H875 0.930 . S
C849 O862 1.270 . S
C849 O863 1.248 . S
C850 O864 1.267 . S
C850 O865 1.278 . S
C851 Pr841 2.880 . S
C851 C852 1.491 . S
C851 O866 1.254 . S
C851 O867 1.225 . S
C852 C851 1.491 . S
C852 C853 1.392 . S
C852 C857 1.356 . S
C853 C852 1.392 . S
C853 C854 1.368 . S
C853 H876 0.929 . S
C854 C853 1.368 . S
C854 C855 1.386 . S
C854 H877 0.929 . S
C855 C854 1.386 . S
C855 C856 1.373 . S
C856 C855 1.373 . S
C856 C857 1.409 . S
C856 H878 0.931 . S
C857 C852 1.356 . S
C857 C856 1.409 . S
C857 H879 0.930 . S
C858 O868 1.270 . S
C858 O869 1.248 . S
C859 O870 1.267 . S
C859 O871 1.278 . S
O860 Pr840 2.562 . S
O860 C842 1.254 . S
O861 Pr840 2.490 . S
O861 C842 1.225 . S
O862 Pr840 2.695 . S
O862 Pr841 2.436 . S
O862 C849 1.270 . S
O863 Pr840 2.512 . S
O863 C849 1.248 . S
O864 Pr841 2.438 . S
O864 C850 1.267 . S
O865 Pr840 2.437 . S
O865 C850 1.278 . S
O866 Pr841 2.562 . S
O866 C851 1.254 . S
O867 Pr841 2.490 . S
O867 C851 1.225 . S
O868 Pr840 2.436 . S
O868 Pr841 2.695 . S
O868 C858 1.270 . S
O869 Pr841 2.512 . S
O869 C858 1.248 . S
O870 Pr840 2.438 . S
O870 C859 1.267 . S
O871 Pr841 2.437 . S
O871 C859 1.278 . S
H872 C844 0.929 . S
H873 C845 0.929 . S
H874 C847 0.931 . S
H875 C848 0.930 . S
H876 C853 0.929 . S
H877 C854 0.929 . S
H878 C856 0.931 . S
H879 C857 0.930 . S
Pr880 C882 2.880 . S
Pr880 O900 2.562 . S
Pr880 O901 2.490 . S
Pr880 O902 2.695 . S
Pr880 O903 2.512 . S
Pr880 O905 2.437 . S
Pr880 O908 2.436 . S
Pr880 O910 2.438 . S
Pr881 C891 2.880 1_565 S
Pr881 O902 2.436 . S
Pr881 O904 2.438 . S
Pr881 O906 2.562 . S
Pr881 O907 2.490 1_565 S
Pr881 O908 2.695 . S
Pr881 O909 2.512 1_565 S
Pr881 O911 2.437 . S
C882 Pr880 2.880 . S
C882 C883 1.491 . S
C882 O900 1.254 . S
C882 O901 1.225 . S
C883 C882 1.491 . S
C883 C884 1.392 . S
C883 C888 1.356 . S
C884 C883 1.392 . S
C884 C885 1.368 . S
C884 H912 0.929 . S
C885 C884 1.368 . S
C885 C886 1.386 . S
C885 H913 0.929 . S
C886 C885 1.386 . S
C886 C887 1.373 . S
C887 C886 1.373 . S
C887 C888 1.409 . S
C887 H914 0.931 . S
C888 C883 1.356 . S
C888 C887 1.409 . S
C888 H915 0.930 . S
C889 O902 1.270 . S
C889 O903 1.248 . S
C890 O904 1.267 . S
C890 O905 1.278 . S
C891 Pr881 2.880 1_545 S
C891 C892 1.491 . S
C891 O906 1.254 1_545 S
C891 O907 1.225 . S
C892 C891 1.491 . S
C892 C893 1.392 . S
C892 C897 1.356 . S
C893 C892 1.392 . S
C893 C894 1.368 . S
C893 H916 0.929 . S
C894 C893 1.368 . S
C894 C895 1.386 . S
C894 H917 0.929 . S
C895 C894 1.386 . S
C895 C896 1.373 . S
C896 C895 1.373 . S
C896 C897 1.409 . S
C896 H918 0.931 . S
C897 C892 1.356 . S
C897 C896 1.409 . S
C897 H919 0.930 1_545 S
C898 O908 1.270 . S
C898 O909 1.248 1_565 S
C899 O910 1.267 . S
C899 O911 1.278 . S
O900 Pr880 2.562 . S
O900 C882 1.254 . S
O901 Pr880 2.490 . S
O901 C882 1.225 . S
O902 Pr880 2.695 . S
O902 Pr881 2.436 . S
O902 C889 1.270 . S
O903 Pr880 2.512 . S
O903 C889 1.248 . S
O904 Pr881 2.438 . S
O904 C890 1.267 . S
O905 Pr880 2.437 . S
O905 C890 1.278 . S
O906 Pr881 2.562 . S
O906 C891 1.254 1_565 S
O907 Pr881 2.490 1_545 S
O907 C891 1.225 . S
O908 Pr880 2.436 . S
O908 Pr881 2.695 . S
O908 C898 1.270 . S
O909 Pr881 2.512 1_545 S
O909 C898 1.248 1_545 S
O910 Pr880 2.438 . S
O910 C899 1.267 . S
O911 Pr881 2.437 . S
O911 C899 1.278 . S
H912 C884 0.929 . S
H913 C885 0.929 . S
H914 C887 0.931 . S
H915 C888 0.930 . S
H916 C893 0.929 . S
H917 C894 0.929 . S
H918 C896 0.931 . S
H919 C897 0.930 1_565 S
Pr920 C922 2.880 . S
Pr920 O940 2.562 . S
Pr920 O941 2.490 . S
Pr920 O942 2.695 . S
Pr920 O943 2.512 . S
Pr920 O945 2.437 . S
Pr920 O948 2.436 . S
Pr920 O950 2.438 . S
Pr921 C931 2.880 . S
Pr921 O942 2.436 . S
Pr921 O944 2.438 . S
Pr921 O946 2.562 . S
Pr921 O947 2.490 . S
Pr921 O948 2.695 . S
Pr921 O949 2.512 . S
Pr921 O951 2.437 . S
C922 Pr920 2.880 . S
C922 C923 1.491 . S
C922 O940 1.254 . S
C922 O941 1.225 . S
C923 C922 1.491 . S
C923 C924 1.392 . S
C923 C928 1.356 1_556 S
C924 C923 1.392 . S
C924 C925 1.368 1_556 S
C924 H952 0.929 . S
C925 C924 1.368 1_554 S
C925 C926 1.386 . S
C925 H953 0.929 . S
C926 C925 1.386 . S
C926 C927 1.373 . S
C927 C926 1.373 . S
C927 C928 1.409 . S
C927 H954 0.931 . S
C928 C923 1.356 1_554 S
C928 C927 1.409 . S
C928 H955 0.930 1_554 S
C929 O942 1.270 . S
C929 O943 1.248 . S
C930 O944 1.267 . S
C930 O945 1.278 . S
C931 Pr921 2.880 . S
C931 C932 1.491 . S
C931 O946 1.254 . S
C931 O947 1.225 . S
C932 C931 1.491 . S
C932 C933 1.392 . S
C932 C937 1.356 . S
C933 C932 1.392 . S
C933 C934 1.368 . S
C933 H956 0.929 . S
C934 C933 1.368 . S
C934 C935 1.386 . S
C934 H957 0.929 . S
C935 C934 1.386 . S
C935 C936 1.373 . S
C936 C935 1.373 . S
C936 C937 1.409 . S
C936 H958 0.931 . S
C937 C932 1.356 . S
C937 C936 1.409 . S
C937 H959 0.930 . S
C938 O948 1.270 . S
C938 O949 1.248 . S
C939 O950 1.267 . S
C939 O951 1.278 . S
O940 Pr920 2.562 . S
O940 C922 1.254 . S
O941 Pr920 2.490 . S
O941 C922 1.225 . S
O942 Pr920 2.695 . S
O942 Pr921 2.436 . S
O942 C929 1.270 . S
O943 Pr920 2.512 . S
O943 C929 1.248 . S
O944 Pr921 2.438 . S
O944 C930 1.267 . S
O945 Pr920 2.437 . S
O945 C930 1.278 . S
O946 Pr921 2.562 . S
O946 C931 1.254 . S
O947 Pr921 2.490 . S
O947 C931 1.225 . S
O948 Pr920 2.436 . S
O948 Pr921 2.695 . S
O948 C938 1.270 . S
O949 Pr921 2.512 . S
O949 C938 1.248 . S
O950 Pr920 2.438 . S
O950 C939 1.267 . S
O951 Pr921 2.437 . S
O951 C939 1.278 . S
H952 C924 0.929 . S
H953 C925 0.929 . S
H954 C927 0.931 . S
H955 C928 0.930 1_556 S
H956 C933 0.929 . S
H957 C934 0.929 . S
H958 C936 0.931 . S
H959 C937 0.930 . S
Pr960 C962 2.880 . S
Pr960 O980 2.562 . S
Pr960 O981 2.490 . S
Pr960 O982 2.695 . S
Pr960 O983 2.512 . S
Pr960 O985 2.437 . S
Pr960 O988 2.436 . S
Pr960 O990 2.438 . S
Pr961 C971 2.880 . S
Pr961 O982 2.436 . S
Pr961 O984 2.438 . S
Pr961 O986 2.562 . S
Pr961 O987 2.490 . S
Pr961 O988 2.695 . S
Pr961 O989 2.512 . S
Pr961 O991 2.437 . S
C962 Pr960 2.880 . S
C962 C963 1.491 . S
C962 O980 1.254 . S
C962 O981 1.225 . S
C963 C962 1.491 . S
C963 C964 1.392 . S
C963 C968 1.356 . S
C964 C963 1.392 . S
C964 C965 1.368 . S
C964 H992 0.929 . S
C965 C964 1.368 . S
C965 C966 1.386 . S
C965 H993 0.929 . S
C966 C965 1.386 . S
C966 C967 1.373 . S
C967 C966 1.373 . S
C967 C968 1.409 . S
C967 H994 0.931 . S
C968 C963 1.356 . S
C968 C967 1.409 . S
C968 H995 0.930 . S
C969 O982 1.270 . S
C969 O983 1.248 . S
C970 O984 1.267 . S
C970 O985 1.278 . S
C971 Pr961 2.880 . S
C971 C972 1.491 . S
C971 O986 1.254 . S
C971 O987 1.225 . S
C972 C971 1.491 . S
C972 C973 1.392 . S
C972 C977 1.356 . S
C973 C972 1.392 . S
C973 C974 1.368 . S
C973 H996 0.929 . S
C974 C973 1.368 . S
C974 C975 1.386 . S
C974 H997 0.929 . S
C975 C974 1.386 . S
C975 C976 1.373 . S
C976 C975 1.373 . S
C976 C977 1.409 . S
C976 H998 0.931 . S
C977 C972 1.356 . S
C977 C976 1.409 . S
C977 H999 0.930 . S
C978 O988 1.270 . S
C978 O989 1.248 . S
C979 O990 1.267 . S
C979 O991 1.278 . S
O980 Pr960 2.562 . S
O980 C962 1.254 . S
O981 Pr960 2.490 . S
O981 C962 1.225 . S
O982 Pr960 2.695 . S
O982 Pr961 2.436 . S
O982 C969 1.270 . S
O983 Pr960 2.512 . S
O983 C969 1.248 . S
O984 Pr961 2.438 . S
O984 C970 1.267 . S
O985 Pr960 2.437 . S
O985 C970 1.278 . S
O986 Pr961 2.562 . S
O986 C971 1.254 . S
O987 Pr961 2.490 . S
O987 C971 1.225 . S
O988 Pr960 2.436 . S
O988 Pr961 2.695 . S
O988 C978 1.270 . S
O989 Pr961 2.512 . S
O989 C978 1.248 . S
O990 Pr960 2.438 . S
O990 C979 1.267 . S
O991 Pr961 2.437 . S
O991 C979 1.278 . S
H992 C964 0.929 . S
H993 C965 0.929 . S
H994 C967 0.931 . S
H995 C968 0.930 . S
H996 C973 0.929 . S
H997 C974 0.929 . S
H998 C976 0.931 . S
H999 C977 0.930 . S
Pr1000 C1002 2.880 . S
Pr1000 O1020 2.562 . S
Pr1000 O1021 2.490 . S
Pr1000 O1022 2.695 . S
Pr1000 O1023 2.512 . S
Pr1000 O1025 2.437 . S
Pr1000 O1028 2.436 . S
Pr1000 O1030 2.438 . S
Pr1001 C1011 2.880 . S
Pr1001 O1022 2.436 . S
Pr1001 O1024 2.438 . S
Pr1001 O1026 2.562 . S
Pr1001 O1027 2.490 . S
Pr1001 O1028 2.695 . S
Pr1001 O1029 2.512 . S
Pr1001 O1031 2.437 . S
C1002 Pr1000 2.880 . S
C1002 C1003 1.491 . S
C1002 O1020 1.254 . S
C1002 O1021 1.225 . S
C1003 C1002 1.491 . S
C1003 C1004 1.392 . S
C1003 C1008 1.356 . S
C1004 C1003 1.392 . S
C1004 C1005 1.368 . S
C1004 H1032 0.929 . S
C1005 C1004 1.368 . S
C1005 C1006 1.386 . S
C1005 H1033 0.929 . S
C1006 C1005 1.386 . S
C1006 C1007 1.373 . S
C1007 C1006 1.373 . S
C1007 C1008 1.409 . S
C1007 H1034 0.931 . S
C1008 C1003 1.356 . S
C1008 C1007 1.409 . S
C1008 H1035 0.930 . S
C1009 O1022 1.270 . S
C1009 O1023 1.248 . S
C1010 O1024 1.267 . S
C1010 O1025 1.278 . S
C1011 Pr1001 2.880 . S
C1011 C1012 1.491 . S
C1011 O1026 1.254 . S
C1011 O1027 1.225 . S
C1012 C1011 1.491 . S
C1012 C1013 1.392 . S
C1012 C1017 1.356 . S
C1013 C1012 1.392 . S
C1013 C1014 1.368 . S
C1013 H1036 0.929 . S
C1014 C1013 1.368 . S
C1014 C1015 1.386 . S
C1014 H1037 0.929 . S
C1015 C1014 1.386 . S
C1015 C1016 1.373 . S
C1016 C1015 1.373 . S
C1016 C1017 1.409 . S
C1016 H1038 0.931 . S
C1017 C1012 1.356 . S
C1017 C1016 1.409 . S
C1017 H1039 0.930 . S
C1018 O1028 1.270 . S
C1018 O1029 1.248 . S
C1019 O1030 1.267 . S
C1019 O1031 1.278 . S
O1020 Pr1000 2.562 . S
O1020 C1002 1.254 . S
O1021 Pr1000 2.490 . S
O1021 C1002 1.225 . S
O1022 Pr1000 2.695 . S
O1022 Pr1001 2.436 . S
O1022 C1009 1.270 . S
O1023 Pr1000 2.512 . S
O1023 C1009 1.248 . S
O1024 Pr1001 2.438 . S
O1024 C1010 1.267 . S
O1025 Pr1000 2.437 . S
O1025 C1010 1.278 . S
O1026 Pr1001 2.562 . S
O1026 C1011 1.254 . S
O1027 Pr1001 2.490 . S
O1027 C1011 1.225 . S
O1028 Pr1000 2.436 . S
O1028 Pr1001 2.695 . S
O1028 C1018 1.270 . S
O1029 Pr1001 2.512 . S
O1029 C1018 1.248 . S
O1030 Pr1000 2.438 . S
O1030 C1019 1.267 . S
O1031 Pr1001 2.437 . S
O1031 C1019 1.278 . S
H1032 C1004 0.929 . S
H1033 C1005 0.929 . S
H1034 C1007 0.931 . S
H1035 C1008 0.930 . S
H1036 C1013 0.929 . S
H1037 C1014 0.929 . S
H1038 C1016 0.931 . S
H1039 C1017 0.930 . S
Pr1040 C1042 2.880 . S
Pr1040 O1060 2.562 . S
Pr1040 O1061 2.490 . S
Pr1040 O1062 2.695 . S
Pr1040 O1063 2.512 . S
Pr1040 O1065 2.437 . S
Pr1040 O1068 2.436 . S
Pr1040 O1070 2.438 . S
Pr1041 C1051 2.880 . S
Pr1041 O1062 2.436 . S
Pr1041 O1064 2.438 . S
Pr1041 O1066 2.562 . S
Pr1041 O1067 2.490 . S
Pr1041 O1068 2.695 . S
Pr1041 O1069 2.512 . S
Pr1041 O1071 2.437 . S
C1042 Pr1040 2.880 . S
C1042 C1043 1.491 . S
C1042 O1060 1.254 . S
C1042 O1061 1.225 . S
C1043 C1042 1.491 . S
C1043 C1044 1.392 . S
C1043 C1048 1.356 . S
C1044 C1043 1.392 . S
C1044 C1045 1.368 . S
C1044 H1072 0.929 . S
C1045 C1044 1.368 . S
C1045 C1046 1.386 . S
C1045 H1073 0.929 . S
C1046 C1045 1.386 . S
C1046 C1047 1.373 . S
C1047 C1046 1.373 . S
C1047 C1048 1.409 . S
C1047 H1074 0.931 . S
C1048 C1043 1.356 . S
C1048 C1047 1.409 . S
C1048 H1075 0.930 . S
C1049 O1062 1.270 . S
C1049 O1063 1.248 . S
C1050 O1064 1.267 . S
C1050 O1065 1.278 . S
C1051 Pr1041 2.880 . S
C1051 C1052 1.491 . S
C1051 O1066 1.254 . S
C1051 O1067 1.225 . S
C1052 C1051 1.491 . S
C1052 C1053 1.392 1_455 S
C1052 C1057 1.356 . S
C1053 C1052 1.392 1_655 S
C1053 C1054 1.368 1_554 S
C1053 H1076 0.929 . S
C1054 C1053 1.368 1_556 S
C1054 C1055 1.386 1_655 S
C1054 H1077 0.929 . S
C1055 C1054 1.386 1_455 S
C1055 C1056 1.373 . S
C1056 C1055 1.373 . S
C1056 C1057 1.409 1_556 S
C1056 H1078 0.931 . S
C1057 C1052 1.356 . S
C1057 C1056 1.409 1_554 S
C1057 H1079 0.930 . S
C1058 O1068 1.270 . S
C1058 O1069 1.248 . S
C1059 O1070 1.267 . S
C1059 O1071 1.278 . S
O1060 Pr1040 2.562 . S
O1060 C1042 1.254 . S
O1061 Pr1040 2.490 . S
O1061 C1042 1.225 . S
O1062 Pr1040 2.695 . S
O1062 Pr1041 2.436 . S
O1062 C1049 1.270 . S
O1063 Pr1040 2.512 . S
O1063 C1049 1.248 . S
O1064 Pr1041 2.438 . S
O1064 C1050 1.267 . S
O1065 Pr1040 2.437 . S
O1065 C1050 1.278 . S
O1066 Pr1041 2.562 . S
O1066 C1051 1.254 . S
O1067 Pr1041 2.490 . S
O1067 C1051 1.225 . S
O1068 Pr1040 2.436 . S
O1068 Pr1041 2.695 . S
O1068 C1058 1.270 . S
O1069 Pr1041 2.512 . S
O1069 C1058 1.248 . S
O1070 Pr1040 2.438 . S
O1070 C1059 1.267 . S
O1071 Pr1041 2.437 . S
O1071 C1059 1.278 . S
H1072 C1044 0.929 . S
H1073 C1045 0.929 . S
H1074 C1047 0.931 . S
H1075 C1048 0.930 . S
H1076 C1053 0.929 . S
H1077 C1054 0.929 . S
H1078 C1056 0.931 . S
H1079 C1057 0.930 . S
Pr1080 C1082 2.880 1_556 S
Pr1080 O1100 2.562 1_556 S
Pr1080 O1101 2.490 1_556 S
Pr1080 O1102 2.695 . S
Pr1080 O1103 2.512 . S
Pr1080 O1105 2.437 1_556 S
Pr1080 O1108 2.436 . S
Pr1080 O1110 2.438 . S
Pr1081 C1091 2.880 . S
Pr1081 O1102 2.436 . S
Pr1081 O1104 2.438 1_556 S
Pr1081 O1106 2.562 . S
Pr1081 O1107 2.490 . S
Pr1081 O1108 2.695 . S
Pr1081 O1109 2.512 . S
Pr1081 O1111 2.437 . S
C1082 Pr1080 2.880 1_554 S
C1082 C1083 1.491 . S
C1082 O1100 1.254 . S
C1082 O1101 1.225 . S
C1083 C1082 1.491 . S
C1083 C1084 1.392 . S
C1083 C1088 1.356 . S
C1084 C1083 1.392 . S
C1084 C1085 1.368 . S
C1084 H1112 0.929 . S
C1085 C1084 1.368 . S
C1085 C1086 1.386 . S
C1085 H1113 0.929 . S
C1086 C1085 1.386 . S
C1086 C1087 1.373 . S
C1087 C1086 1.373 . S
C1087 C1088 1.409 . S
C1087 H1114 0.931 . S
C1088 C1083 1.356 . S
C1088 C1087 1.409 . S
C1088 H1115 0.930 . S
C1089 O1102 1.270 . S
C1089 O1103 1.248 . S
C1090 O1104 1.267 . S
C1090 O1105 1.278 . S
C1091 Pr1081 2.880 . S
C1091 C1092 1.491 . S
C1091 O1106 1.254 . S
C1091 O1107 1.225 . S
C1092 C1091 1.491 . S
C1092 C1093 1.392 . S
C1092 C1097 1.356 . S
C1093 C1092 1.392 . S
C1093 C1094 1.368 . S
C1093 H1116 0.929 . S
C1094 C1093 1.368 . S
C1094 C1095 1.386 . S
C1094 H1117 0.929 . S
C1095 C1094 1.386 . S
C1095 C1096 1.373 . S
C1096 C1095 1.373 . S
C1096 C1097 1.409 . S
C1096 H1118 0.931 . S
C1097 C1092 1.356 . S
C1097 C1096 1.409 . S
C1097 H1119 0.930 . S
C1098 O1108 1.270 . S
C1098 O1109 1.248 . S
C1099 O1110 1.267 . S
C1099 O1111 1.278 . S
O1100 Pr1080 2.562 1_554 S
O1100 C1082 1.254 . S
O1101 Pr1080 2.490 1_554 S
O1101 C1082 1.225 . S
O1102 Pr1080 2.695 . S
O1102 Pr1081 2.436 . S
O1102 C1089 1.270 . S
O1103 Pr1080 2.512 . S
O1103 C1089 1.248 . S
O1104 Pr1081 2.438 1_554 S
O1104 C1090 1.267 . S
O1105 Pr1080 2.437 1_554 S
O1105 C1090 1.278 . S
O1106 Pr1081 2.562 . S
O1106 C1091 1.254 . S
O1107 Pr1081 2.490 . S
O1107 C1091 1.225 . S
O1108 Pr1080 2.436 . S
O1108 Pr1081 2.695 . S
O1108 C1098 1.270 . S
O1109 Pr1081 2.512 . S
O1109 C1098 1.248 . S
O1110 Pr1080 2.438 . S
O1110 C1099 1.267 . S
O1111 Pr1081 2.437 . S
O1111 C1099 1.278 . S
H1112 C1084 0.929 . S
H1113 C1085 0.929 . S
H1114 C1087 0.931 . S
H1115 C1088 0.930 . S
H1116 C1093 0.929 . S
H1117 C1094 0.929 . S
H1118 C1096 0.931 . S
H1119 C1097 0.930 . S
Pr1120 C1122 2.880 . S
Pr1120 O1140 2.563 1_545 S
Pr1120 O1141 2.490 . S
Pr1120 O1142 2.695 1_545 S
Pr1120 O1143 2.512 . S
Pr1120 O1145 2.437 1_545 S
Pr1120 O1148 2.436 1_545 S
Pr1120 O1150 2.438 . S
Pr1121 C1131 2.880 . S
Pr1121 O1142 2.436 . S
Pr1121 O1144 2.438 . S
Pr1121 O1146 2.562 . S
Pr1121 O1147 2.490 . S
Pr1121 O1148 2.695 . S
Pr1121 O1149 2.512 . S
Pr1121 O1151 2.437 . S
C1122 Pr1120 2.880 . S
C1122 C1123 1.491 . S
C1122 O1140 1.220 1_545 S
C1122 O1141 1.225 . S
C1123 C1122 1.491 . S
C1123 C1124 1.392 . S
C1123 C1128 1.356 . S
C1124 C1123 1.392 . S
C1124 C1125 1.368 . S
C1124 H1152 0.929 . S
C1125 C1124 1.368 . S
C1125 C1126 1.386 . S
C1125 H1153 0.929 . S
C1126 C1125 1.386 . S
C1126 C1127 1.373 . S
C1127 C1126 1.373 . S
C1127 C1128 1.409 . S
C1127 H1154 0.931 . S
C1128 C1123 1.356 . S
C1128 C1127 1.409 . S
C1128 H1155 0.930 1_545 S
C1129 O1142 1.270 1_545 S
C1129 O1143 1.248 . S
C1130 O1144 1.267 . S
C1130 O1145 1.278 . S
C1131 Pr1121 2.880 . S
C1131 C1132 1.491 . S
C1131 O1146 1.254 . S
C1131 O1147 1.225 . S
C1132 C1131 1.491 . S
C1132 C1133 1.392 . S
C1132 C1137 1.356 . S
C1133 C1132 1.392 . S
C1133 C1134 1.368 . S
C1133 H1156 0.929 . S
C1134 C1133 1.368 . S
C1134 C1135 1.386 . S
C1134 H1157 0.929 . S
C1135 C1134 1.386 . S
C1135 C1136 1.373 . S
C1136 C1135 1.373 . S
C1136 C1137 1.409 . S
C1136 H1158 0.931 1_554 S
C1137 C1132 1.356 . S
C1137 C1136 1.409 . S
C1137 H1159 0.930 . S
C1138 O1148 1.270 . S
C1138 O1149 1.248 . S
C1139 O1150 1.267 1_565 S
C1139 O1151 1.278 . S
O1140 Pr1120 2.563 1_565 S
O1140 C1122 1.220 1_565 S
O1141 Pr1120 2.490 . S
O1141 C1122 1.225 . S
O1142 Pr1120 2.695 1_565 S
O1142 Pr1121 2.436 . S
O1142 C1129 1.270 1_565 S
O1143 Pr1120 2.512 . S
O1143 C1129 1.248 . S
O1144 Pr1121 2.438 . S
O1144 C1130 1.267 . S
O1145 Pr1120 2.437 1_565 S
O1145 C1130 1.278 . S
O1146 Pr1121 2.562 . S
O1146 C1131 1.254 . S
O1147 Pr1121 2.490 . S
O1147 C1131 1.225 . S
O1148 Pr1120 2.436 1_565 S
O1148 Pr1121 2.695 . S
O1148 C1138 1.270 . S
O1149 Pr1121 2.512 . S
O1149 C1138 1.248 . S
O1150 Pr1120 2.438 . S
O1150 C1139 1.267 1_545 S
O1151 Pr1121 2.437 . S
O1151 C1139 1.278 . S
H1152 C1124 0.929 . S
H1153 C1125 0.929 . S
H1154 C1127 0.931 . S
H1155 C1128 0.930 1_565 S
H1156 C1133 0.929 . S
H1157 C1134 0.929 . S
H1158 C1136 0.931 1_556 S
H1159 C1137 0.930 . S
Pr1160 C1162 2.882 . S
Pr1160 O1180 2.562 . S
Pr1160 O1181 2.490 . S
Pr1160 O1182 2.695 . S
Pr1160 O1183 2.512 . S
Pr1160 O1185 2.437 . S
Pr1160 O1188 2.436 . S
Pr1160 O1190 2.438 . S
Pr1161 C1171 2.880 . S
Pr1161 O1182 2.436 . S
Pr1161 O1184 2.438 . S
Pr1161 O1186 2.562 . S
Pr1161 O1187 2.490 . S
Pr1161 O1188 2.695 . S
Pr1161 O1189 2.512 . S
Pr1161 O1191 2.437 . S
C1162 Pr1160 2.882 . S
C1162 C1163 1.489 1_556 S
C1162 O1180 1.255 . S
C1162 O1181 1.226 . S
C1163 C1162 1.489 1_554 S
C1163 C1164 1.392 . S
C1163 C1168 1.356 . S
C1164 C1163 1.392 . S
C1164 C1165 1.368 . S
C1164 H1192 0.929 . S
C1165 C1164 1.368 . S
C1165 C1166 1.386 . S
C1165 H1193 0.929 . S
C1166 C1165 1.386 . S
C1166 C1167 1.373 . S
C1167 C1166 1.373 . S
C1167 C1168 1.409 . S
C1167 H1194 0.931 . S
C1168 C1163 1.356 . S
C1168 C1167 1.409 . S
C1168 H1195 0.930 . S
C1169 O1182 1.270 . S
C1169 O1183 1.248 . S
C1170 O1184 1.267 . S
C1170 O1185 1.278 . S
C1171 Pr1161 2.880 . S
C1171 C1172 1.491 . S
C1171 O1186 1.254 . S
C1171 O1187 1.225 . S
C1172 C1171 1.491 . S
C1172 C1173 1.392 . S
C1172 C1177 1.356 . S
C1173 C1172 1.392 . S
C1173 C1174 1.368 . S
C1173 H1196 0.929 . S
C1174 C1173 1.368 . S
C1174 C1175 1.386 . S
C1174 H1197 0.929 . S
C1175 C1174 1.386 . S
C1175 C1176 1.373 . S
C1176 C1175 1.373 . S
C1176 C1177 1.409 . S
C1176 H1198 0.931 . S
C1177 C1172 1.356 . S
C1177 C1176 1.409 . S
C1177 H1199 0.930 . S
C1178 O1188 1.270 . S
C1178 O1189 1.248 . S
C1179 O1190 1.267 . S
C1179 O1191 1.278 . S
O1180 Pr1160 2.562 . S
O1180 C1162 1.255 . S
O1181 Pr1160 2.490 . S
O1181 C1162 1.226 . S
O1182 Pr1160 2.695 . S
O1182 Pr1161 2.436 . S
O1182 C1169 1.270 . S
O1183 Pr1160 2.512 . S
O1183 C1169 1.248 . S
O1184 Pr1161 2.438 . S
O1184 C1170 1.267 . S
O1185 Pr1160 2.437 . S
O1185 C1170 1.278 . S
O1186 Pr1161 2.562 . S
O1186 C1171 1.254 . S
O1187 Pr1161 2.490 . S
O1187 C1171 1.225 . S
O1188 Pr1160 2.436 . S
O1188 Pr1161 2.695 . S
O1188 C1178 1.270 . S
O1189 Pr1161 2.512 . S
O1189 C1178 1.248 . S
O1190 Pr1160 2.438 . S
O1190 C1179 1.267 . S
O1191 Pr1161 2.437 . S
O1191 C1179 1.278 . S
H1192 C1164 0.929 . S
H1193 C1165 0.929 . S
H1194 C1167 0.931 . S
H1195 C1168 0.930 . S
H1196 C1173 0.929 . S
H1197 C1174 0.929 . S
H1198 C1176 0.931 . S
H1199 C1177 0.930 . S
Pr1200 C1202 2.880 1_545 S
Pr1200 O1220 2.562 . S
Pr1200 O1221 2.490 1_545 S
Pr1200 O1222 2.695 . S
Pr1200 O1223 2.512 1_545 S
Pr1200 O1225 2.437 . S
Pr1200 O1228 2.436 . S
Pr1200 O1230 2.438 . S
Pr1201 C1211 2.880 . S
Pr1201 O1222 2.436 . S
Pr1201 O1224 2.438 . S
Pr1201 O1226 2.562 . S
Pr1201 O1227 2.490 . S
Pr1201 O1228 2.695 . S
Pr1201 O1229 2.512 . S
Pr1201 O1231 2.437 . S
C1202 Pr1200 2.880 1_565 S
C1202 C1203 1.491 . S
C1202 O1220 1.254 1_565 S
C1202 O1221 1.225 . S
C1203 C1202 1.491 . S
C1203 C1204 1.392 . S
C1203 C1208 1.356 . S
C1204 C1203 1.392 . S
C1204 C1205 1.368 . S
C1204 H1232 0.929 . S
C1205 C1204 1.368 . S
C1205 C1206 1.386 1_556 S
C1205 H1233 0.931 . S
C1206 C1205 1.386 1_554 S
C1206 C1207 1.373 . S
C1207 C1206 1.373 . S
C1207 C1208 1.409 1_554 S
C1207 H1234 0.931 . S
C1208 C1203 1.356 . S
C1208 C1207 1.409 1_556 S
C1208 H1235 0.930 1_565 S
C1209 O1222 1.270 . S
C1209 O1223 1.248 1_545 S
C1210 O1224 1.267 . S
C1210 O1225 1.278 . S
C1211 Pr1201 2.880 . S
C1211 C1212 1.491 . S
C1211 O1226 1.254 . S
C1211 O1227 1.225 . S
C1212 C1211 1.491 . S
C1212 C1213 1.392 . S
C1212 C1217 1.356 . S
C1213 C1212 1.392 . S
C1213 C1214 1.368 . S
C1213 H1236 0.929 . S
C1214 C1213 1.368 . S
C1214 C1215 1.386 . S
C1214 H1237 0.929 . S
C1215 C1214 1.386 . S
C1215 C1216 1.373 . S
C1216 C1215 1.373 . S
C1216 C1217 1.409 . S
C1216 H1238 0.931 . S
C1217 C1212 1.356 . S
C1217 C1216 1.409 . S
C1217 H1239 0.930 . S
C1218 O1228 1.270 . S
C1218 O1229 1.248 . S
C1219 O1230 1.267 . S
C1219 O1231 1.278 . S
O1220 Pr1200 2.562 . S
O1220 C1202 1.254 1_545 S
O1221 Pr1200 2.490 1_565 S
O1221 C1202 1.225 . S
O1222 Pr1200 2.695 . S
O1222 Pr1201 2.436 . S
O1222 C1209 1.270 . S
O1223 Pr1200 2.512 1_565 S
O1223 C1209 1.248 1_565 S
O1224 Pr1201 2.438 . S
O1224 C1210 1.267 . S
O1225 Pr1200 2.437 . S
O1225 C1210 1.278 . S
O1226 Pr1201 2.562 . S
O1226 C1211 1.254 . S
O1227 Pr1201 2.490 . S
O1227 C1211 1.225 . S
O1228 Pr1200 2.436 . S
O1228 Pr1201 2.695 . S
O1228 C1218 1.270 . S
O1229 Pr1201 2.512 . S
O1229 C1218 1.248 . S
O1230 Pr1200 2.438 . S
O1230 C1219 1.267 . S
O1231 Pr1201 2.437 . S
O1231 C1219 1.278 . S
H1232 C1204 0.929 . S
H1233 C1205 0.931 . S
H1234 C1207 0.931 . S
H1235 C1208 0.930 1_545 S
H1236 C1213 0.929 . S
H1237 C1214 0.929 . S
H1238 C1216 0.931 . S
H1239 C1217 0.930 . S
Pr1240 C1242 2.880 . S
Pr1240 O1260 2.562 . S
Pr1240 O1261 2.490 . S
Pr1240 O1262 2.695 . S
Pr1240 O1263 2.512 . S
Pr1240 O1265 2.437 . S
Pr1240 O1268 2.436 . S
Pr1240 O1270 2.438 . S
Pr1241 C1251 2.880 . S
Pr1241 O1262 2.436 . S
Pr1241 O1264 2.438 . S
Pr1241 O1266 2.562 . S
Pr1241 O1267 2.490 . S
Pr1241 O1268 2.695 . S
Pr1241 O1269 2.512 . S
Pr1241 O1271 2.437 . S
C1242 Pr1240 2.880 . S
C1242 C1243 1.491 . S
C1242 O1260 1.254 . S
C1242 O1261 1.225 . S
C1243 C1242 1.491 . S
C1243 C1244 1.392 . S
C1243 C1248 1.356 . S
C1244 C1243 1.392 . S
C1244 C1245 1.368 . S
C1244 H1272 0.929 . S
C1245 C1244 1.368 . S
C1245 C1246 1.386 . S
C1245 H1273 0.929 . S
C1246 C1245 1.386 . S
C1246 C1247 1.373 . S
C1247 C1246 1.373 . S
C1247 C1248 1.409 . S
C1247 H1274 0.931 . S
C1248 C1243 1.356 . S
C1248 C1247 1.409 . S
C1248 H1275 0.930 . S
C1249 O1262 1.270 . S
C1249 O1263 1.248 . S
C1250 O1264 1.267 . S
C1250 O1265 1.278 . S
C1251 Pr1241 2.880 . S
C1251 C1252 1.491 . S
C1251 O1266 1.254 . S
C1251 O1267 1.225 . S
C1252 C1251 1.491 . S
C1252 C1253 1.392 . S
C1252 C1257 1.356 . S
C1253 C1252 1.392 . S
C1253 C1254 1.368 . S
C1253 H1276 0.929 . S
C1254 C1253 1.368 . S
C1254 C1255 1.386 . S
C1254 H1277 0.929 . S
C1255 C1254 1.386 . S
C1255 C1256 1.373 . S
C1256 C1255 1.373 . S
C1256 C1257 1.409 . S
C1256 H1278 0.931 . S
C1257 C1252 1.356 . S
C1257 C1256 1.409 . S
C1257 H1279 0.930 . S
C1258 O1268 1.270 . S
C1258 O1269 1.248 . S
C1259 O1270 1.267 . S
C1259 O1271 1.278 . S
O1260 Pr1240 2.562 . S
O1260 C1242 1.254 . S
O1261 Pr1240 2.490 . S
O1261 C1242 1.225 . S
O1262 Pr1240 2.695 . S
O1262 Pr1241 2.436 . S
O1262 C1249 1.270 . S
O1263 Pr1240 2.512 . S
O1263 C1249 1.248 . S
O1264 Pr1241 2.438 . S
O1264 C1250 1.267 . S
O1265 Pr1240 2.437 . S
O1265 C1250 1.278 . S
O1266 Pr1241 2.562 . S
O1266 C1251 1.254 . S
O1267 Pr1241 2.490 . S
O1267 C1251 1.225 . S
O1268 Pr1240 2.436 . S
O1268 Pr1241 2.695 . S
O1268 C1258 1.270 . S
O1269 Pr1241 2.512 . S
O1269 C1258 1.248 . S
O1270 Pr1240 2.438 . S
O1270 C1259 1.267 . S
O1271 Pr1241 2.437 . S
O1271 C1259 1.278 . S
H1272 C1244 0.929 . S
H1273 C1245 0.929 . S
H1274 C1247 0.931 . S
H1275 C1248 0.930 . S
H1276 C1253 0.929 . S
H1277 C1254 0.929 . S
H1278 C1256 0.931 . S
H1279 C1257 0.930 . S
C1280 C1281 1.369 . S
C1280 C1282 1.419 . S
C1280 H1284 0.930 . S
C1281 C1280 1.369 . S
C1281 C1290 1.429 . S
C1282 C1280 1.419 . S
C1282 C1283 1.363 . S
C1282 H1285 0.929 . S
C1283 C1282 1.363 . S
C1283 C1289 1.428 . S
H1284 C1280 0.930 . S
H1285 C1282 0.929 . S
S1286 N1287 1.613 . S
S1286 N1288 1.610 . S
N1287 S1286 1.613 . S
N1287 C1290 1.350 . S
N1288 S1286 1.610 . S
N1288 C1289 1.351 . S
C1289 C1283 1.428 . S
C1289 N1288 1.351 . S
C1289 C1290 1.434 . S
C1290 C1281 1.429 . S
C1290 N1287 1.350 . S
C1290 C1289 1.434 . S
C1291 C1292 1.369 . S
C1291 C1293 1.419 . S
C1291 H1295 0.930 . S
C1292 C1291 1.369 . S
C1292 C1301 1.429 . S
C1293 C1291 1.419 . S
C1293 C1294 1.363 . S
C1293 H1296 0.929 . S
C1294 C1293 1.363 . S
C1294 C1300 1.428 . S
H1295 C1291 0.930 . S
H1296 C1293 0.929 . S
S1297 N1298 1.613 . S
S1297 N1299 1.610 . S
N1298 S1297 1.613 . S
N1298 C1301 1.350 . S
N1299 S1297 1.610 . S
N1299 C1300 1.351 . S
C1300 C1294 1.428 . S
C1300 N1299 1.351 . S
C1300 C1301 1.434 . S
C1301 C1292 1.429 . S
C1301 N1298 1.350 . S
C1301 C1300 1.434 . S
C1302 C1303 1.369 . S
C1302 C1304 1.419 . S
C1302 H1306 0.930 . S
C1303 C1302 1.369 . S
C1303 C1312 1.429 . S
C1304 C1302 1.419 . S
C1304 C1305 1.363 . S
C1304 H1307 0.929 . S
C1305 C1304 1.363 . S
C1305 C1311 1.428 . S
H1306 C1302 0.930 . S
H1307 C1304 0.929 . S
S1308 N1309 1.613 . S
S1308 N1310 1.610 . S
N1309 S1308 1.613 . S
N1309 C1312 1.350 . S
N1310 S1308 1.610 . S
N1310 C1311 1.351 . S
C1311 C1305 1.428 . S
C1311 N1310 1.351 . S
C1311 C1312 1.434 . S
C1312 C1303 1.429 . S
C1312 N1309 1.350 . S
C1312 C1311 1.434 . S
C1313 C1314 1.369 . S
C1313 C1315 1.419 1_554 S
C1313 H1317 0.930 . S
C1314 C1313 1.369 . S
C1314 C1323 1.429 . S
C1315 C1313 1.419 1_556 S
C1315 C1316 1.363 . S
C1315 H1318 0.929 . S
C1316 C1315 1.363 . S
C1316 C1322 1.428 . S
H1317 C1313 0.930 . S
H1318 C1315 0.929 . S
S1319 N1320 1.613 1_556 S
S1319 N1321 1.610 . S
N1320 S1319 1.613 1_554 S
N1320 C1323 1.350 . S
N1321 S1319 1.610 . S
N1321 C1322 1.351 . S
C1322 C1316 1.428 . S
C1322 N1321 1.351 . S
C1322 C1323 1.434 1_556 S
C1323 C1314 1.429 . S
C1323 N1320 1.350 . S
C1323 C1322 1.434 1_554 S
C1324 C1325 1.369 . S
C1324 C1326 1.419 . S
C1324 H1328 0.930 . S
C1325 C1324 1.369 . S
C1325 C1334 1.429 . S
C1326 C1324 1.419 . S
C1326 C1327 1.363 1_554 S
C1326 H1329 0.929 . S
C1327 C1326 1.363 1_556 S
C1327 C1333 1.428 1_556 S
H1328 C1324 0.930 . S
H1329 C1326 0.929 . S
S1330 N1331 1.613 . S
S1330 N1332 1.610 1_554 S
N1331 S1330 1.613 . S
N1331 C1334 1.350 . S
N1332 S1330 1.610 1_556 S
N1332 C1333 1.351 1_556 S
C1333 C1327 1.428 1_554 S
C1333 N1332 1.351 1_554 S
C1333 C1334 1.434 . S
C1334 C1325 1.429 . S
C1334 N1331 1.350 . S
C1334 C1333 1.434 . S
C1335 C1336 1.369 . S
C1335 C1337 1.419 . S
C1335 H1339 0.930 . S
C1336 C1335 1.369 . S
C1336 C1345 1.429 . S
C1337 C1335 1.419 . S
C1337 C1338 1.363 . S
C1337 H1340 0.929 . S
C1338 C1337 1.363 . S
C1338 C1344 1.428 . S
H1339 C1335 0.930 . S
H1340 C1337 0.929 . S
S1341 N1342 1.613 . S
S1341 N1343 1.610 . S
N1342 S1341 1.613 . S
N1342 C1345 1.350 . S
N1343 S1341 1.610 . S
N1343 C1344 1.351 . S
C1344 C1338 1.428 . S
C1344 N1343 1.351 . S
C1344 C1345 1.434 . S
C1345 C1336 1.429 . S
C1345 N1342 1.350 . S
C1345 C1344 1.434 . S
C1346 C1347 1.369 . S
C1346 C1348 1.419 . S
C1346 H1350 0.930 . S
C1347 C1346 1.369 . S
C1347 C1356 1.429 . S
C1348 C1346 1.419 . S
C1348 C1349 1.363 . S
C1348 H1351 0.929 . S
C1349 C1348 1.363 . S
C1349 C1355 1.428 . S
H1350 C1346 0.930 . S
H1351 C1348 0.929 . S
S1352 N1353 1.613 . S
S1352 N1354 1.610 . S
N1353 S1352 1.613 . S
N1353 C1356 1.350 . S
N1354 S1352 1.610 . S
N1354 C1355 1.351 . S
C1355 C1349 1.428 . S
C1355 N1354 1.351 . S
C1355 C1356 1.434 . S
C1356 C1347 1.429 . S
C1356 N1353 1.350 . S
C1356 C1355 1.434 . S
C1357 C1358 1.369 . S
C1357 C1359 1.419 . S
C1357 H1361 0.930 . S
C1358 C1357 1.369 . S
C1358 C1367 1.429 . S
C1359 C1357 1.419 . S
C1359 C1360 1.363 . S
C1359 H1362 0.929 . S
C1360 C1359 1.363 . S
C1360 C1366 1.428 . S
H1361 C1357 0.930 . S
H1362 C1359 0.929 . S
S1363 N1364 1.613 . S
S1363 N1365 1.610 . S
N1364 S1363 1.613 . S
N1364 C1367 1.350 . S
N1365 S1363 1.610 . S
N1365 C1366 1.351 . S
C1366 C1360 1.428 . S
C1366 N1365 1.351 . S
C1366 C1367 1.434 . S
C1367 C1358 1.429 . S
C1367 N1364 1.350 . S
C1367 C1366 1.434 . S
C1368 C1369 1.369 . S
C1368 C1370 1.419 . S
C1368 H1372 0.930 . S
C1369 C1368 1.369 . S
C1369 C1378 1.429 . S
C1370 C1368 1.419 . S
C1370 C1371 1.363 . S
C1370 H1373 0.929 . S
C1371 C1370 1.363 . S
C1371 C1377 1.428 . S
H1372 C1368 0.930 . S
H1373 C1370 0.929 . S
S1374 N1375 1.613 . S
S1374 N1376 1.610 . S
N1375 S1374 1.613 . S
N1375 C1378 1.350 . S
N1376 S1374 1.610 . S
N1376 C1377 1.351 . S
C1377 C1371 1.428 . S
C1377 N1376 1.351 . S
C1377 C1378 1.434 . S
C1378 C1369 1.429 . S
C1378 N1375 1.350 . S
C1378 C1377 1.434 . S
C1379 C1380 1.369 . S
C1379 C1381 1.419 . S
C1379 H1383 0.930 . S
C1380 C1379 1.369 . S
C1380 C1389 1.429 . S
C1381 C1379 1.419 . S
C1381 C1382 1.363 . S
C1381 H1384 0.929 . S
C1382 C1381 1.363 . S
C1382 C1388 1.428 . S
H1383 C1379 0.930 . S
H1384 C1381 0.929 . S
S1385 N1386 1.613 . S
S1385 N1387 1.610 . S
N1386 S1385 1.613 . S
N1386 C1389 1.350 . S
N1387 S1385 1.610 . S
N1387 C1388 1.351 . S
C1388 C1382 1.428 . S
C1388 N1387 1.351 . S
C1388 C1389 1.434 . S
C1389 C1380 1.429 . S
C1389 N1386 1.350 . S
C1389 C1388 1.434 . S
C1390 C1391 1.369 . S
C1390 C1392 1.419 . S
C1390 H1394 0.930 . S
C1391 C1390 1.369 . S
C1391 C1400 1.429 . S
C1392 C1390 1.419 . S
C1392 C1393 1.363 . S
C1392 H1395 0.929 . S
C1393 C1392 1.363 . S
C1393 C1399 1.428 . S
H1394 C1390 0.930 . S
H1395 C1392 0.929 . S
S1396 N1397 1.613 . S
S1396 N1398 1.610 . S
N1397 S1396 1.613 . S
N1397 C1400 1.350 . S
N1398 S1396 1.610 . S
N1398 C1399 1.351 . S
C1399 C1393 1.428 . S
C1399 N1398 1.351 . S
C1399 C1400 1.434 . S
C1400 C1391 1.429 . S
C1400 N1397 1.350 . S
C1400 C1399 1.434 . S
C1401 C1402 1.369 . S
C1401 C1403 1.419 . S
C1401 H1405 0.930 . S
C1402 C1401 1.369 . S
C1402 C1411 1.429 . S
C1403 C1401 1.419 . S
C1403 C1404 1.363 . S
C1403 H1406 0.929 . S
C1404 C1403 1.363 . S
C1404 C1410 1.428 . S
H1405 C1401 0.930 . S
H1406 C1403 0.929 . S
S1407 N1408 1.613 . S
S1407 N1409 1.610 . S
N1408 S1407 1.613 . S
N1408 C1411 1.350 . S
N1409 S1407 1.610 . S
N1409 C1410 1.351 . S
C1410 C1404 1.428 . S
C1410 N1409 1.351 . S
C1410 C1411 1.434 . S
C1411 C1402 1.429 . S
C1411 N1408 1.350 . S
C1411 C1410 1.434 . S
C1412 C1413 1.369 . S
C1412 C1414 1.419 . S
C1412 H1416 0.930 . S
C1413 C1412 1.369 . S
C1413 C1422 1.429 . S
C1414 C1412 1.419 . S
C1414 C1415 1.363 . S
C1414 H1417 0.929 . S
C1415 C1414 1.363 . S
C1415 C1421 1.428 . S
H1416 C1412 0.930 . S
H1417 C1414 0.929 . S
S1418 N1419 1.613 . S
S1418 N1420 1.610 . S
N1419 S1418 1.613 . S
N1419 C1422 1.350 . S
N1420 S1418 1.610 . S
N1420 C1421 1.351 . S
C1421 C1415 1.428 . S
C1421 N1420 1.351 . S
C1421 C1422 1.434 . S
C1422 C1413 1.429 . S
C1422 N1419 1.350 . S
C1422 C1421 1.434 . S
C1423 C1424 1.369 . S
C1423 C1425 1.419 . S
C1423 H1427 0.930 . S
C1424 C1423 1.369 . S
C1424 C1433 1.429 . S
C1425 C1423 1.419 . S
C1425 C1426 1.363 . S
C1425 H1428 0.929 . S
C1426 C1425 1.363 . S
C1426 C1432 1.428 . S
H1427 C1423 0.930 . S
H1428 C1425 0.929 . S
S1429 N1430 1.613 . S
S1429 N1431 1.610 . S
N1430 S1429 1.613 . S
N1430 C1433 1.350 . S
N1431 S1429 1.610 . S
N1431 C1432 1.351 . S
C1432 C1426 1.428 . S
C1432 N1431 1.351 . S
C1432 C1433 1.434 . S
C1433 C1424 1.429 . S
C1433 N1430 1.350 . S
C1433 C1432 1.434 . S
C1434 C1435 1.369 . S
C1434 C1436 1.419 . S
C1434 H1438 0.930 . S
C1435 C1434 1.369 . S
C1435 C1444 1.429 . S
C1436 C1434 1.419 . S
C1436 C1437 1.363 . S
C1436 H1439 0.929 . S
C1437 C1436 1.363 . S
C1437 C1443 1.428 . S
H1438 C1434 0.930 . S
H1439 C1436 0.929 . S
S1440 N1441 1.613 1_545 S
S1440 N1442 1.624 . S
N1441 S1440 1.613 1_565 S
N1441 C1444 1.350 . S
N1442 S1440 1.624 . S
N1442 C1443 1.327 1_545 S
C1443 C1437 1.428 . S
C1443 N1442 1.327 1_565 S
C1443 C1444 1.434 . S
C1444 C1435 1.429 . S
C1444 N1441 1.350 . S
C1444 C1443 1.434 . S
C1445 C1446 1.369 . S
C1445 C1447 1.419 . S
C1445 H1449 0.930 . S
C1446 C1445 1.369 . S
C1446 C1455 1.429 . S
C1447 C1445 1.419 . S
C1447 C1448 1.363 . S
C1447 H1450 0.929 . S
C1448 C1447 1.363 . S
C1448 C1454 1.428 . S
H1449 C1445 0.930 . S
H1450 C1447 0.929 . S
S1451 N1452 1.613 . S
S1451 N1453 1.610 . S
N1452 S1451 1.613 . S
N1452 C1455 1.350 . S
N1453 S1451 1.610 . S
N1453 C1454 1.351 . S
C1454 C1448 1.428 . S
C1454 N1453 1.351 . S
C1454 C1455 1.434 . S
C1455 C1446 1.429 . S
C1455 N1452 1.350 . S
C1455 C1454 1.434 . S
C1456 C1457 1.369 . S
C1456 C1458 1.419 . S
C1456 H1460 0.930 . S
C1457 C1456 1.369 . S
C1457 C1466 1.429 . S
C1458 C1456 1.419 . S
C1458 C1459 1.363 . S
C1458 H1461 0.929 . S
C1459 C1458 1.363 . S
C1459 C1465 1.428 . S
H1460 C1456 0.930 . S
H1461 C1458 0.929 . S
S1462 N1463 1.613 . S
S1462 N1464 1.610 . S
N1463 S1462 1.613 . S
N1463 C1466 1.350 . S
N1464 S1462 1.610 . S
N1464 C1465 1.351 . S
C1465 C1459 1.428 . S
C1465 N1464 1.351 . S
C1465 C1466 1.434 . S
C1466 C1457 1.429 . S
C1466 N1463 1.350 . S
C1466 C1465 1.434 . S
C1467 C1468 1.369 . S
C1467 C1469 1.419 . S
C1467 H1471 0.930 . S
C1468 C1467 1.369 . S
C1468 C1477 1.429 . S
C1469 C1467 1.419 . S
C1469 C1470 1.363 . S
C1469 H1472 0.929 . S
C1470 C1469 1.363 . S
C1470 C1476 1.428 . S
H1471 C1467 0.930 . S
H1472 C1469 0.929 . S
S1473 N1474 1.613 . S
S1473 N1475 1.610 . S
N1474 S1473 1.613 . S
N1474 C1477 1.350 . S
N1475 S1473 1.610 . S
N1475 C1476 1.351 . S
C1476 C1470 1.428 . S
C1476 N1475 1.351 . S
C1476 C1477 1.434 . S
C1477 C1468 1.429 . S
C1477 N1474 1.350 . S
C1477 C1476 1.434 . S
C1478 C1479 1.369 . S
C1478 C1480 1.419 . S
C1478 H1482 0.930 . S
C1479 C1478 1.369 . S
C1479 C1488 1.429 . S
C1480 C1478 1.419 . S
C1480 C1481 1.363 . S
C1480 H1483 0.929 . S
C1481 C1480 1.363 . S
C1481 C1487 1.428 . S
H1482 C1478 0.930 . S
H1483 C1480 0.929 . S
S1484 N1485 1.613 . S
S1484 N1486 1.610 . S
N1485 S1484 1.613 . S
N1485 C1488 1.350 . S
N1486 S1484 1.610 . S
N1486 C1487 1.351 . S
C1487 C1481 1.428 . S
C1487 N1486 1.351 . S
C1487 C1488 1.434 . S
C1488 C1479 1.429 . S
C1488 N1485 1.350 . S
C1488 C1487 1.434 . S
C1489 C1490 1.369 . S
C1489 C1491 1.419 . S
C1489 H1493 0.930 . S
C1490 C1489 1.369 . S
C1490 C1499 1.429 . S
C1491 C1489 1.419 . S
C1491 C1492 1.363 . S
C1491 H1494 0.929 . S
C1492 C1491 1.363 . S
C1492 C1498 1.428 . S
H1493 C1489 0.930 . S
H1494 C1491 0.929 . S
S1495 N1496 1.613 . S
S1495 N1497 1.610 . S
N1496 S1495 1.613 . S
N1496 C1499 1.350 . S
N1497 S1495 1.610 . S
N1497 C1498 1.351 . S
C1498 C1492 1.428 . S
C1498 N1497 1.351 . S
C1498 C1499 1.434 . S
C1499 C1490 1.429 . S
C1499 N1496 1.350 . S
C1499 C1498 1.434 . S
C1500 C1501 1.369 . S
C1500 C1502 1.419 . S
C1500 H1504 0.930 . S
C1501 C1500 1.369 . S
C1501 C1510 1.429 . S
C1502 C1500 1.419 . S
C1502 C1503 1.363 . S
C1502 H1505 0.929 . S
C1503 C1502 1.363 . S
C1503 C1509 1.428 . S
H1504 C1500 0.930 . S
H1505 C1502 0.929 . S
S1506 N1507 1.613 . S
S1506 N1508 1.610 . S
N1507 S1506 1.613 . S
N1507 C1510 1.350 . S
N1508 S1506 1.610 . S
N1508 C1509 1.351 . S
C1509 C1503 1.428 . S
C1509 N1508 1.351 . S
C1509 C1510 1.434 . S
C1510 C1501 1.429 . S
C1510 N1507 1.350 . S
C1510 C1509 1.434 . S
C1511 C1512 1.369 . S
C1511 C1513 1.419 . S
C1511 H1515 0.930 . S
C1512 C1511 1.369 . S
C1512 C1521 1.429 . S
C1513 C1511 1.419 . S
C1513 C1514 1.363 . S
C1513 H1516 0.929 . S
C1514 C1513 1.363 . S
C1514 C1520 1.428 . S
H1515 C1511 0.930 . S
H1516 C1513 0.929 . S
S1517 N1518 1.613 . S
S1517 N1519 1.610 . S
N1518 S1517 1.613 . S
N1518 C1521 1.350 . S
N1519 S1517 1.610 . S
N1519 C1520 1.351 . S
C1520 C1514 1.428 . S
C1520 N1519 1.351 . S
C1520 C1521 1.434 . S
C1521 C1512 1.429 . S
C1521 N1518 1.350 . S
C1521 C1520 1.434 . S
C1522 C1523 1.369 . S
C1522 C1524 1.419 . S
C1522 H1526 0.930 . S
C1523 C1522 1.369 . S
C1523 C1532 1.429 . S
C1524 C1522 1.419 . S
C1524 C1525 1.363 . S
C1524 H1527 0.929 . S
C1525 C1524 1.363 . S
C1525 C1531 1.428 . S
H1526 C1522 0.930 . S
H1527 C1524 0.929 . S
S1528 N1529 1.613 1_556 S
S1528 N1530 1.610 . S
N1529 S1528 1.613 1_554 S
N1529 C1532 1.350 1_554 S
N1530 S1528 1.610 . S
N1530 C1531 1.351 . S
C1531 C1525 1.428 . S
C1531 N1530 1.351 . S
C1531 C1532 1.434 . S
C1532 C1523 1.429 . S
C1532 N1529 1.350 1_556 S
C1532 C1531 1.434 . S
C1533 C1534 1.369 . S
C1533 C1535 1.419 . S
C1533 H1537 0.930 . S
C1534 C1533 1.369 . S
C1534 C1543 1.429 . S
C1535 C1533 1.419 . S
C1535 C1536 1.363 . S
C1535 H1538 0.929 . S
C1536 C1535 1.363 . S
C1536 C1542 1.428 . S
H1537 C1533 0.930 . S
H1538 C1535 0.929 . S
S1539 N1540 1.613 . S
S1539 N1541 1.610 . S
N1540 S1539 1.613 . S
N1540 C1543 1.350 . S
N1541 S1539 1.610 . S
N1541 C1542 1.351 . S
C1542 C1536 1.428 . S
C1542 N1541 1.351 . S
C1542 C1543 1.434 . S
C1543 C1534 1.429 . S
C1543 N1540 1.350 . S
C1543 C1542 1.434 . S
C1544 C1545 1.369 . S
C1544 C1546 1.419 1_554 S
C1544 H1548 0.930 . S
C1545 C1544 1.369 . S
C1545 C1554 1.429 . S
C1546 C1544 1.419 1_556 S
C1546 C1547 1.363 . S
C1546 H1549 0.929 . S
C1547 C1546 1.363 . S
C1547 C1553 1.428 1_556 S
H1548 C1544 0.930 . S
H1549 C1546 0.929 . S
S1550 N1551 1.613 . S
S1550 N1552 1.610 . S
N1551 S1550 1.613 . S
N1551 C1554 1.350 . S
N1552 S1550 1.610 . S
N1552 C1553 1.351 . S
C1553 C1547 1.428 1_554 S
C1553 N1552 1.351 . S
C1553 C1554 1.434 . S
C1554 C1545 1.429 . S
C1554 N1551 1.350 . S
C1554 C1553 1.434 . S
C1555 C1556 1.369 . S
C1555 C1557 1.419 . S
C1555 H1559 0.930 . S
C1556 C1555 1.369 . S
C1556 C1565 1.429 . S
C1557 C1555 1.419 . S
C1557 C1558 1.363 . S
C1557 H1560 0.929 . S
C1558 C1557 1.363 . S
C1558 C1564 1.428 . S
H1559 C1555 0.930 . S
H1560 C1557 0.929 . S
S1561 N1562 1.613 . S
S1561 N1563 1.610 . S
N1562 S1561 1.613 . S
N1562 C1565 1.350 . S
N1563 S1561 1.610 . S
N1563 C1564 1.351 . S
C1564 C1558 1.428 . S
C1564 N1563 1.351 . S
C1564 C1565 1.434 . S
C1565 C1556 1.429 . S
C1565 N1562 1.350 . S
C1565 C1564 1.434 . S
C1566 C1567 1.369 . S
C1566 C1568 1.419 . S
C1566 H1570 0.930 . S
C1567 C1566 1.369 . S
C1567 C1576 1.429 . S
C1568 C1566 1.419 . S
C1568 C1569 1.363 . S
C1568 H1571 0.929 . S
C1569 C1568 1.363 . S
C1569 C1575 1.428 . S
H1570 C1566 0.930 . S
H1571 C1568 0.929 . S
S1572 N1573 1.613 . S
S1572 N1574 1.610 . S
N1573 S1572 1.613 . S
N1573 C1576 1.350 . S
N1574 S1572 1.610 . S
N1574 C1575 1.351 . S
C1575 C1569 1.428 . S
C1575 N1574 1.351 . S
C1575 C1576 1.434 . S
C1576 C1567 1.429 . S
C1576 N1573 1.350 . S
C1576 C1575 1.434 . S
C1577 C1578 1.369 . S
C1577 C1579 1.419 . S
C1577 H1581 0.930 . S
C1578 C1577 1.369 . S
C1578 C1587 1.429 . S
C1579 C1577 1.419 . S
C1579 C1580 1.363 . S
C1579 H1582 0.929 . S
C1580 C1579 1.363 . S
C1580 C1586 1.428 . S
H1581 C1577 0.930 . S
H1582 C1579 0.929 . S
S1583 N1584 1.613 . S
S1583 N1585 1.610 . S
N1584 S1583 1.613 . S
N1584 C1587 1.350 . S
N1585 S1583 1.610 . S
N1585 C1586 1.351 . S
C1586 C1580 1.428 . S
C1586 N1585 1.351 . S
C1586 C1587 1.434 . S
C1587 C1578 1.429 . S
C1587 N1584 1.350 . S
C1587 C1586 1.434 . S
C1588 C1589 1.369 . S
C1588 C1590 1.419 . S
C1588 H1592 0.930 . S
C1589 C1588 1.369 . S
C1589 C1598 1.429 . S
C1590 C1588 1.419 . S
C1590 C1591 1.363 . S
C1590 H1593 0.929 . S
C1591 C1590 1.363 . S
C1591 C1597 1.428 . S
H1592 C1588 0.930 . S
H1593 C1590 0.929 . S
S1594 N1595 1.613 . S
S1594 N1596 1.610 . S
N1595 S1594 1.613 . S
N1595 C1598 1.350 . S
N1596 S1594 1.610 . S
N1596 C1597 1.351 . S
C1597 C1591 1.428 . S
C1597 N1596 1.351 . S
C1597 C1598 1.434 . S
C1598 C1589 1.429 . S
C1598 N1595 1.350 . S
C1598 C1597 1.434 . S
C1599 C1600 1.369 . S
C1599 C1601 1.419 . S
C1599 H1603 0.930 . S
C1600 C1599 1.369 . S
C1600 C1609 1.429 . S
C1601 C1599 1.419 . S
C1601 C1602 1.363 . S
C1601 H1604 0.929 . S
C1602 C1601 1.363 . S
C1602 C1608 1.428 . S
H1603 C1599 0.930 . S
H1604 C1601 0.929 . S
S1605 N1606 1.613 . S
S1605 N1607 1.610 . S
N1606 S1605 1.613 . S
N1606 C1609 1.350 . S
N1607 S1605 1.610 . S
N1607 C1608 1.351 . S
C1608 C1602 1.428 . S
C1608 N1607 1.351 . S
C1608 C1609 1.434 . S
C1609 C1600 1.429 . S
C1609 N1606 1.350 . S
C1609 C1608 1.434 . S
C1610 C1611 1.369 . S
C1610 C1612 1.419 . S
C1610 H1614 0.930 . S
C1611 C1610 1.369 . S
C1611 C1620 1.429 . S
C1612 C1610 1.419 . S
C1612 C1613 1.363 . S
C1612 H1615 0.929 . S
C1613 C1612 1.363 . S
C1613 C1619 1.428 . S
H1614 C1610 0.930 . S
H1615 C1612 0.929 . S
S1616 N1617 1.613 . S
S1616 N1618 1.610 . S
N1617 S1616 1.613 . S
N1617 C1620 1.350 . S
N1618 S1616 1.610 . S
N1618 C1619 1.351 . S
C1619 C1613 1.428 . S
C1619 N1618 1.351 . S
C1619 C1620 1.434 . S
C1620 C1611 1.429 . S
C1620 N1617 1.350 . S
C1620 C1619 1.434 . S
C1621 C1622 1.369 . S
C1621 C1623 1.419 . S
C1621 H1625 0.930 . S
C1622 C1621 1.369 . S
C1622 C1631 1.429 . S
C1623 C1621 1.419 . S
C1623 C1624 1.363 . S
C1623 H1626 0.929 . S
C1624 C1623 1.363 . S
C1624 C1630 1.428 . S
H1625 C1621 0.930 . S
H1626 C1623 0.929 . S
S1627 N1628 1.613 . S
S1627 N1629 1.610 . S
N1628 S1627 1.613 . S
N1628 C1631 1.350 . S
N1629 S1627 1.610 . S
N1629 C1630 1.351 . S
C1630 C1624 1.428 . S
C1630 N1629 1.351 . S
C1630 C1631 1.434 . S
C1631 C1622 1.429 . S
C1631 N1628 1.350 . S
C1631 C1630 1.434 . S
C1632 C1633 1.378 . S
C1632 C1634 1.410 1_655 S
C1632 H1636 0.931 . S
C1633 C1632 1.378 . S
C1633 C1642 1.429 . S
C1634 C1632 1.410 1_455 S
C1634 C1635 1.363 . S
C1634 H1637 0.929 . S
C1635 C1634 1.363 . S
C1635 C1641 1.428 . S
H1636 C1632 0.931 . S
H1637 C1634 0.929 . S
S1638 N1639 1.613 . S
S1638 N1640 1.610 1_655 S
N1639 S1638 1.613 . S
N1639 C1642 1.350 . S
N1640 S1638 1.610 1_455 S
N1640 C1641 1.351 . S
C1641 C1635 1.428 . S
C1641 N1640 1.351 . S
C1641 C1642 1.434 1_455 S
C1642 C1633 1.429 . S
C1642 N1639 1.350 . S
C1642 C1641 1.434 1_655 S
C1643 C1644 1.369 . S
C1643 C1645 1.419 . S
C1643 H1647 0.930 . S
C1644 C1643 1.369 . S
C1644 C1653 1.429 . S
C1645 C1643 1.419 . S
C1645 C1646 1.363 . S
C1645 H1648 0.929 . S
C1646 C1645 1.363 . S
C1646 C1652 1.428 . S
H1647 C1643 0.930 . S
H1648 C1645 0.929 . S
S1649 N1650 1.613 . S
S1649 N1651 1.610 . S
N1650 S1649 1.613 . S
N1650 C1653 1.350 . S
N1651 S1649 1.610 . S
N1651 C1652 1.351 . S
C1652 C1646 1.428 . S
C1652 N1651 1.351 . S
C1652 C1653 1.434 . S
C1653 C1644 1.429 . S
C1653 N1650 1.350 . S
C1653 C1652 1.434 . S
C1654 C1655 1.369 . S
C1654 C1656 1.419 . S
C1654 H1658 0.930 . S
C1655 C1654 1.369 . S
C1655 C1664 1.429 . S
C1656 C1654 1.419 . S
C1656 C1657 1.363 . S
C1656 H1659 0.929 . S
C1657 C1656 1.363 . S
C1657 C1663 1.428 . S
H1658 C1654 0.930 . S
H1659 C1656 0.929 . S
S1660 N1661 1.613 . S
S1660 N1662 1.610 . S
N1661 S1660 1.613 . S
N1661 C1664 1.350 . S
N1662 S1660 1.610 . S
N1662 C1663 1.351 . S
C1663 C1657 1.428 . S
C1663 N1662 1.351 . S
C1663 C1664 1.434 . S
C1664 C1655 1.429 . S
C1664 N1661 1.350 . S
C1664 C1663 1.434 . S
C1665 C1666 1.369 . S
C1665 C1667 1.419 . S
C1665 H1669 0.930 . S
C1666 C1665 1.369 . S
C1666 C1675 1.429 . S
C1667 C1665 1.419 . S
C1667 C1668 1.363 . S
C1667 H1670 0.929 . S
C1668 C1667 1.363 . S
C1668 C1674 1.428 . S
H1669 C1665 0.930 . S
H1670 C1667 0.929 . S
S1671 N1672 1.613 . S
S1671 N1673 1.610 . S
N1672 S1671 1.613 . S
N1672 C1675 1.350 . S
N1673 S1671 1.610 . S
N1673 C1674 1.351 . S
C1674 C1668 1.428 . S
C1674 N1673 1.351 . S
C1674 C1675 1.434 . S
C1675 C1666 1.429 . S
C1675 N1672 1.350 . S
C1675 C1674 1.434 . S
C1676 C1677 1.369 . S
C1676 C1678 1.419 . S
C1676 H1680 0.930 . S
C1677 C1676 1.369 . S
C1677 C1686 1.429 1_655 S
C1678 C1676 1.419 . S
C1678 C1679 1.363 1_655 S
C1678 H1681 0.929 . S
C1679 C1678 1.363 1_455 S
C1679 C1685 1.428 . S
H1680 C1676 0.930 . S
H1681 C1678 0.929 . S
S1682 N1683 1.613 . S
S1682 N1684 1.610 . S
N1683 S1682 1.613 . S
N1683 C1686 1.350 . S
N1684 S1682 1.610 . S
N1684 C1685 1.351 . S
C1685 C1679 1.428 . S
C1685 N1684 1.351 . S
C1685 C1686 1.434 . S
C1686 C1677 1.429 1_455 S
C1686 N1683 1.350 . S
C1686 C1685 1.434 . S
C1687 C1688 1.369 . S
C1687 C1689 1.419 . S
C1687 H1691 0.930 . S
C1688 C1687 1.369 . S
C1688 C1697 1.429 . S
C1689 C1687 1.419 . S
C1689 C1690 1.363 . S
C1689 H1692 0.929 . S
C1690 C1689 1.363 . S
C1690 C1696 1.428 . S
H1691 C1687 0.930 . S
H1692 C1689 0.929 . S
S1693 N1694 1.613 . S
S1693 N1695 1.610 . S
N1694 S1693 1.613 . S
N1694 C1697 1.350 . S
N1695 S1693 1.610 . S
N1695 C1696 1.351 . S
C1696 C1690 1.428 . S
C1696 N1695 1.351 . S
C1696 C1697 1.434 . S
C1697 C1688 1.429 . S
C1697 N1694 1.350 . S
C1697 C1696 1.434 . S
C1698 C1699 1.369 . S
C1698 C1700 1.419 . S
C1698 H1702 0.930 . S
C1699 C1698 1.369 . S
C1699 C1708 1.429 . S
C1700 C1698 1.419 . S
C1700 C1701 1.363 . S
C1700 H1703 0.929 . S
C1701 C1700 1.363 . S
C1701 C1707 1.428 . S
H1702 C1698 0.930 . S
H1703 C1700 0.929 . S
S1704 N1705 1.613 . S
S1704 N1706 1.610 . S
N1705 S1704 1.613 . S
N1705 C1708 1.350 . S
N1706 S1704 1.610 . S
N1706 C1707 1.351 . S
C1707 C1701 1.428 . S
C1707 N1706 1.351 . S
C1707 C1708 1.434 . S
C1708 C1699 1.429 . S
C1708 N1705 1.350 . S
C1708 C1707 1.434 . S
C1709 C1710 1.369 . S
C1709 C1711 1.419 . S
C1709 H1713 0.930 . S
C1710 C1709 1.369 . S
C1710 C1719 1.429 . S
C1711 C1709 1.419 . S
C1711 C1712 1.363 . S
C1711 H1714 0.929 . S
C1712 C1711 1.363 . S
C1712 C1718 1.428 . S
H1713 C1709 0.930 . S
H1714 C1711 0.929 . S
S1715 N1716 1.613 . S
S1715 N1717 1.610 . S
N1716 S1715 1.613 . S
N1716 C1719 1.350 . S
N1717 S1715 1.610 . S
N1717 C1718 1.351 . S
C1718 C1712 1.428 . S
C1718 N1717 1.351 . S
C1718 C1719 1.434 . S
C1719 C1710 1.429 . S
C1719 N1716 1.350 . S
C1719 C1718 1.434 . S
C1720 C1721 1.369 . S
C1720 C1722 1.419 . S
C1720 H1724 0.930 . S
C1721 C1720 1.369 . S
C1721 C1730 1.429 . S
C1722 C1720 1.419 . S
C1722 C1723 1.363 . S
C1722 H1725 0.929 . S
C1723 C1722 1.363 . S
C1723 C1729 1.428 . S
H1724 C1720 0.930 . S
H1725 C1722 0.929 . S
S1726 N1727 1.613 . S
S1726 N1728 1.610 . S
N1727 S1726 1.613 . S
N1727 C1730 1.350 . S
N1728 S1726 1.610 . S
N1728 C1729 1.351 . S
C1729 C1723 1.428 . S
C1729 N1728 1.351 . S
C1729 C1730 1.434 . S
C1730 C1721 1.429 . S
C1730 N1727 1.350 . S
C1730 C1729 1.434 . S
C1731 C1732 1.369 . S
C1731 C1733 1.419 . S
C1731 H1735 0.930 . S
C1732 C1731 1.369 . S
C1732 C1741 1.429 . S
C1733 C1731 1.419 . S
C1733 C1734 1.363 . S
C1733 H1736 0.929 . S
C1734 C1733 1.363 . S
C1734 C1740 1.428 . S
H1735 C1731 0.930 . S
H1736 C1733 0.929 . S
S1737 N1738 1.613 . S
S1737 N1739 1.610 . S
N1738 S1737 1.613 . S
N1738 C1741 1.350 . S
N1739 S1737 1.610 . S
N1739 C1740 1.351 . S
C1740 C1734 1.428 . S
C1740 N1739 1.351 . S
C1740 C1741 1.434 . S
C1741 C1732 1.429 . S
C1741 N1738 1.350 . S
C1741 C1740 1.434 . S
C1742 C1743 1.369 . S
C1742 C1744 1.419 . S
C1742 H1746 0.930 . S
C1743 C1742 1.369 . S
C1743 C1752 1.429 . S
C1744 C1742 1.419 . S
C1744 C1745 1.363 . S
C1744 H1747 0.929 . S
C1745 C1744 1.363 . S
C1745 C1751 1.428 . S
H1746 C1742 0.930 . S
H1747 C1744 0.929 . S
S1748 N1749 1.613 . S
S1748 N1750 1.610 . S
N1749 S1748 1.613 . S
N1749 C1752 1.350 . S
N1750 S1748 1.610 . S
N1750 C1751 1.351 . S
C1751 C1745 1.428 . S
C1751 N1750 1.351 . S
C1751 C1752 1.434 . S
C1752 C1743 1.429 . S
C1752 N1749 1.350 . S
C1752 C1751 1.434 . S
C1753 C1754 1.369 . S
C1753 C1755 1.419 . S
C1753 H1757 0.930 . S
C1754 C1753 1.369 . S
C1754 C1763 1.429 . S
C1755 C1753 1.419 . S
C1755 C1756 1.363 . S
C1755 H1758 0.929 . S
C1756 C1755 1.363 . S
C1756 C1762 1.428 . S
H1757 C1753 0.930 . S
H1758 C1755 0.929 . S
S1759 N1760 1.613 . S
S1759 N1761 1.610 . S
N1760 S1759 1.613 . S
N1760 C1763 1.350 . S
N1761 S1759 1.610 . S
N1761 C1762 1.351 . S
C1762 C1756 1.428 . S
C1762 N1761 1.351 . S
C1762 C1763 1.434 . S
C1763 C1754 1.429 . S
C1763 N1760 1.350 . S
C1763 C1762 1.434 . S
C1764 C1765 1.369 . S
C1764 C1766 1.419 . S
C1764 H1768 0.930 . S
C1765 C1764 1.369 . S
C1765 C1774 1.429 1_545 S
C1766 C1764 1.419 . S
C1766 C1767 1.363 1_545 S
C1766 H1769 0.929 . S
C1767 C1766 1.363 1_565 S
C1767 C1773 1.428 . S
H1768 C1764 0.930 . S
H1769 C1766 0.929 . S
S1770 N1771 1.613 . S
S1770 N1772 1.610 . S
N1771 S1770 1.613 . S
N1771 C1774 1.350 . S
N1772 S1770 1.610 . S
N1772 C1773 1.351 . S
C1773 C1767 1.428 . S
C1773 N1772 1.351 . S
C1773 C1774 1.434 . S
C1774 C1765 1.429 1_565 S
C1774 N1771 1.350 . S
C1774 C1773 1.434 . S
C1775 C1776 1.369 1_655 S
C1775 C1777 1.419 1_565 S
C1775 H1779 0.930 . S
C1776 C1775 1.369 1_455 S
C1776 C1785 1.429 . S
C1777 C1775 1.419 1_545 S
C1777 C1778 1.363 . S
C1777 H1780 0.929 . S
C1778 C1777 1.363 . S
C1778 C1784 1.428 1_655 S
H1779 C1775 0.930 . S
H1780 C1777 0.929 . S
S1781 N1782 1.613 . S
S1781 N1783 1.610 1_565 S
N1782 S1781 1.613 . S
N1782 C1785 1.350 . S
N1783 S1781 1.610 1_545 S
N1783 C1784 1.351 . S
C1784 C1778 1.428 1_455 S
C1784 N1783 1.351 . S
C1784 C1785 1.434 1_545 S
C1785 C1776 1.429 . S
C1785 N1782 1.350 . S
C1785 C1784 1.434 1_565 S
C1786 C1787 1.369 1_565 S
C1786 C1788 1.419 . S
C1786 H1790 0.930 . S
C1787 C1786 1.369 1_545 S
C1787 C1796 1.429 . S
C1788 C1786 1.419 . S
C1788 C1789 1.363 . S
C1788 H1791 0.929 . S
C1789 C1788 1.363 . S
C1789 C1795 1.428 1_565 S
H1790 C1786 0.930 . S
H1791 C1788 0.929 . S
S1792 N1793 1.613 . S
S1792 N1794 1.610 . S
N1793 S1792 1.613 . S
N1793 C1796 1.350 . S
N1794 S1792 1.610 . S
N1794 C1795 1.351 . S
C1795 C1789 1.428 1_545 S
C1795 N1794 1.351 . S
C1795 C1796 1.434 . S
C1796 C1787 1.429 . S
C1796 N1793 1.350 . S
C1796 C1795 1.434 . S
C1797 C1798 1.369 . S
C1797 C1799 1.419 1_655 S
C1797 H1801 0.930 . S
C1798 C1797 1.369 . S
C1798 C1807 1.429 1_565 S
C1799 C1797 1.419 1_455 S
C1799 C1800 1.363 1_565 S
C1799 H1802 0.929 . S
C1800 C1799 1.363 1_545 S
C1800 C1806 1.428 . S
H1801 C1797 0.930 . S
H1802 C1799 0.929 . S
S1803 N1804 1.612 . S
S1803 N1805 1.610 . S
N1804 S1803 1.612 . S
N1804 C1807 1.350 1_455 S
N1805 S1803 1.610 . S
N1805 C1806 1.351 . S
C1806 C1800 1.428 . S
C1806 N1805 1.351 . S
C1806 C1807 1.434 1_455 S
C1807 C1798 1.429 1_545 S
C1807 N1804 1.350 1_655 S
C1807 C1806 1.434 1_655 S
C1808 C1809 1.369 . S
C1808 C1810 1.419 1_455 S
C1808 H1812 0.930 . S
C1809 C1808 1.369 . S
C1809 C1818 1.429 1_455 S
C1810 C1808 1.419 1_655 S
C1810 C1811 1.363 . S
C1810 H1813 0.929 . S
C1811 C1810 1.363 . S
C1811 C1817 1.428 . S
H1812 C1808 0.930 . S
H1813 C1810 0.929 . S
S1814 N1815 1.613 . S
S1814 N1816 1.610 1_554 S
N1815 S1814 1.613 . S
N1815 C1818 1.350 1_554 S
N1816 S1814 1.610 1_556 S
N1816 C1817 1.351 . S
C1817 C1811 1.428 . S
C1817 N1816 1.351 . S
C1817 C1818 1.434 . S
C1818 C1809 1.429 1_655 S
C1818 N1815 1.350 1_556 S
C1818 C1817 1.434 . S
C1819 C1820 1.369 1_554 S
C1819 C1821 1.419 . S
C1819 H1823 0.930 . S
C1820 C1819 1.369 1_556 S
C1820 C1829 1.429 . S
C1821 C1819 1.419 . S
C1821 C1822 1.363 . S
C1821 H1824 0.929 . S
C1822 C1821 1.363 . S
C1822 C1828 1.428 . S
H1823 C1819 0.930 . S
H1824 C1821 0.929 . S
S1825 N1826 1.613 . S
S1825 N1827 1.610 1_556 S
N1826 S1825 1.613 . S
N1826 C1829 1.350 . S
N1827 S1825 1.610 1_554 S
N1827 C1828 1.351 . S
C1828 C1822 1.428 . S
C1828 N1827 1.351 . S
C1828 C1829 1.434 1_554 S
C1829 C1820 1.429 . S
C1829 N1826 1.350 . S
C1829 C1828 1.434 1_556 S
C1830 C1831 1.369 . S
C1830 C1832 1.419 . S
C1830 H1834 0.930 . S
C1831 C1830 1.369 . S
C1831 C1840 1.429 . S
C1832 C1830 1.419 . S
C1832 C1833 1.363 . S
C1832 H1835 0.929 . S
C1833 C1832 1.363 . S
C1833 C1839 1.428 . S
H1834 C1830 0.930 . S
H1835 C1832 0.929 . S
S1836 N1837 1.613 . S
S1836 N1838 1.610 . S
N1837 S1836 1.613 . S
N1837 C1840 1.350 . S
N1838 S1836 1.610 . S
N1838 C1839 1.351 . S
C1839 C1833 1.428 . S
C1839 N1838 1.351 . S
C1839 C1840 1.434 . S
C1840 C1831 1.429 . S
C1840 N1837 1.350 . S
C1840 C1839 1.434 . S
C1841 C1842 1.369 . S
C1841 C1843 1.419 . S
C1841 H1845 0.930 . S
C1842 C1841 1.369 . S
C1842 C1851 1.429 . S
C1843 C1841 1.419 . S
C1843 C1844 1.363 . S
C1843 H1846 0.929 . S
C1844 C1843 1.363 . S
C1844 C1850 1.428 . S
H1845 C1841 0.930 . S
H1846 C1843 0.929 . S
S1847 N1848 1.613 . S
S1847 N1849 1.610 . S
N1848 S1847 1.613 . S
N1848 C1851 1.350 . S
N1849 S1847 1.610 . S
N1849 C1850 1.351 . S
C1850 C1844 1.428 . S
C1850 N1849 1.351 . S
C1850 C1851 1.434 . S
C1851 C1842 1.429 . S
C1851 N1848 1.350 . S
C1851 C1850 1.434 . S
C1852 C1853 1.369 . S
C1852 C1854 1.419 . S
C1852 H1856 0.930 . S
C1853 C1852 1.369 . S
C1853 C1862 1.429 . S
C1854 C1852 1.419 . S
C1854 C1855 1.363 . S
C1854 H1857 0.929 . S
C1855 C1854 1.363 . S
C1855 C1861 1.428 . S
H1856 C1852 0.930 . S
H1857 C1854 0.929 . S
S1858 N1859 1.613 . S
S1858 N1860 1.610 . S
N1859 S1858 1.613 . S
N1859 C1862 1.350 . S
N1860 S1858 1.610 . S
N1860 C1861 1.351 . S
C1861 C1855 1.428 . S
C1861 N1860 1.351 . S
C1861 C1862 1.434 . S
C1862 C1853 1.429 . S
C1862 N1859 1.350 . S
C1862 C1861 1.434 . S
C1863 C1864 1.369 . S
C1863 C1865 1.419 . S
C1863 H1867 0.930 . S
C1864 C1863 1.369 . S
C1864 C1873 1.429 . S
C1865 C1863 1.419 . S
C1865 C1866 1.363 . S
C1865 H1868 0.929 . S
C1866 C1865 1.363 . S
C1866 C1872 1.428 . S
H1867 C1863 0.930 . S
H1868 C1865 0.929 . S
S1869 N1870 1.613 . S
S1869 N1871 1.610 . S
N1870 S1869 1.613 . S
N1870 C1873 1.350 . S
N1871 S1869 1.610 . S
N1871 C1872 1.351 . S
C1872 C1866 1.428 . S
C1872 N1871 1.351 . S
C1872 C1873 1.434 . S
C1873 C1864 1.429 . S
C1873 N1870 1.350 . S
C1873 C1872 1.434 . S
C1874 C1875 1.369 . S
C1874 C1876 1.419 . S
C1874 H1878 0.930 . S
C1875 C1874 1.369 . S
C1875 C1884 1.429 . S
C1876 C1874 1.419 . S
C1876 C1877 1.363 . S
C1876 H1879 0.929 . S
C1877 C1876 1.363 . S
C1877 C1883 1.428 . S
H1878 C1874 0.930 . S
H1879 C1876 0.929 . S
S1880 N1881 1.613 . S
S1880 N1882 1.610 . S
N1881 S1880 1.613 . S
N1881 C1884 1.350 . S
N1882 S1880 1.610 . S
N1882 C1883 1.351 . S
C1883 C1877 1.428 . S
C1883 N1882 1.351 . S
C1883 C1884 1.434 . S
C1884 C1875 1.429 . S
C1884 N1881 1.350 . S
C1884 C1883 1.434 . S
C1885 C1886 1.369 . S
C1885 C1887 1.419 . S
C1885 H1889 0.930 . S
C1886 C1885 1.369 . S
C1886 C1895 1.429 . S
C1887 C1885 1.419 . S
C1887 C1888 1.363 . S
C1887 H1890 0.929 . S
C1888 C1887 1.363 . S
C1888 C1894 1.428 . S
H1889 C1885 0.930 . S
H1890 C1887 0.929 . S
S1891 N1892 1.613 . S
S1891 N1893 1.610 . S
N1892 S1891 1.613 . S
N1892 C1895 1.350 . S
N1893 S1891 1.610 . S
N1893 C1894 1.351 . S
C1894 C1888 1.428 . S
C1894 N1893 1.351 . S
C1894 C1895 1.434 . S
C1895 C1886 1.429 . S
C1895 N1892 1.350 . S
C1895 C1894 1.434 . S
C1896 C1897 1.369 . S
C1896 C1898 1.403 1_455 S
C1896 H1900 0.930 . S
C1897 C1896 1.369 . S
C1897 C1906 1.429 . S
C1898 C1896 1.403 1_655 S
C1898 C1899 1.370 . S
C1898 H1901 0.940 . S
C1899 C1898 1.370 . S
C1899 C1905 1.428 1_655 S
H1900 C1896 0.930 . S
H1901 C1898 0.940 . S
S1902 N1903 1.613 . S
S1902 N1904 1.597 1_455 S
N1903 S1902 1.613 . S
N1903 C1906 1.350 . S
N1904 S1902 1.597 1_655 S
N1904 C1905 1.345 1_655 S
C1905 C1899 1.428 1_455 S
C1905 N1904 1.345 1_455 S
C1905 C1906 1.434 . S
C1906 C1897 1.429 . S
C1906 N1903 1.350 . S
C1906 C1905 1.434 . S
C1907 C1908 1.369 . S
C1907 C1909 1.419 . S
C1907 H1911 0.930 . S
C1908 C1907 1.369 . S
C1908 C1917 1.429 . S
C1909 C1907 1.419 . S
C1909 C1910 1.363 . S
C1909 H1912 0.929 . S
C1910 C1909 1.363 . S
C1910 C1916 1.428 . S
H1911 C1907 0.930 . S
H1912 C1909 0.929 . S
S1913 N1914 1.613 . S
S1913 N1915 1.610 . S
N1914 S1913 1.613 . S
N1914 C1917 1.350 . S
N1915 S1913 1.610 . S
N1915 C1916 1.351 . S
C1916 C1910 1.428 . S
C1916 N1915 1.351 . S
C1916 C1917 1.434 . S
C1917 C1908 1.429 . S
C1917 N1914 1.350 . S
C1917 C1916 1.434 . S
C1918 C1919 1.369 . S
C1918 C1920 1.419 . S
C1918 H1922 0.930 . S
C1919 C1918 1.369 . S
C1919 C1928 1.429 . S
C1920 C1918 1.419 . S
C1920 C1921 1.363 . S
C1920 H1923 0.929 . S
C1921 C1920 1.363 . S
C1921 C1927 1.428 . S
H1922 C1918 0.930 . S
H1923 C1920 0.929 . S
S1924 N1925 1.613 . S
S1924 N1926 1.610 . S
N1925 S1924 1.613 . S
N1925 C1928 1.350 . S
N1926 S1924 1.610 . S
N1926 C1927 1.351 . S
C1927 C1921 1.428 . S
C1927 N1926 1.351 . S
C1927 C1928 1.434 . S
C1928 C1919 1.429 . S
C1928 N1925 1.350 . S
C1928 C1927 1.434 . S
C1929 C1930 1.369 . S
C1929 C1931 1.419 . S
C1929 H1933 0.930 . S
C1930 C1929 1.369 . S
C1930 C1939 1.429 . S
C1931 C1929 1.419 . S
C1931 C1932 1.363 . S
C1931 H1934 0.929 . S
C1932 C1931 1.363 . S
C1932 C1938 1.428 . S
H1933 C1929 0.930 . S
H1934 C1931 0.929 . S
S1935 N1936 1.613 . S
S1935 N1937 1.610 . S
N1936 S1935 1.613 . S
N1936 C1939 1.350 . S
N1937 S1935 1.610 . S
N1937 C1938 1.351 . S
C1938 C1932 1.428 . S
C1938 N1937 1.351 . S
C1938 C1939 1.434 . S
C1939 C1930 1.429 . S
C1939 N1936 1.350 . S
C1939 C1938 1.434 . S
C1940 C1941 1.369 . S
C1940 C1942 1.419 . S
C1940 H1944 0.930 1_655 S
C1941 C1940 1.369 . S
C1941 C1950 1.429 . S
C1942 C1940 1.419 . S
C1942 C1943 1.363 . S
C1942 H1945 0.929 . S
C1943 C1942 1.363 . S
C1943 C1949 1.428 . S
H1944 C1940 0.930 1_455 S
H1945 C1942 0.929 . S
S1946 N1947 1.613 . S
S1946 N1948 1.610 . S
N1947 S1946 1.613 . S
N1947 C1950 1.350 . S
N1948 S1946 1.610 . S
N1948 C1949 1.351 . S
C1949 C1943 1.428 . S
C1949 N1948 1.351 . S
C1949 C1950 1.434 . S
C1950 C1941 1.429 . S
C1950 N1947 1.350 . S
C1950 C1949 1.434 . S
C1951 C1952 1.369 . S
C1951 C1953 1.419 1_556 S
C1951 H1955 0.930 . S
C1952 C1951 1.369 . S
C1952 C1961 1.429 1_556 S
C1953 C1951 1.419 1_554 S
C1953 C1954 1.363 . S
C1953 H1956 0.929 . S
C1954 C1953 1.363 . S
C1954 C1960 1.428 . S
H1955 C1951 0.930 . S
H1956 C1953 0.929 . S
S1957 N1958 1.613 . S
S1957 N1959 1.610 . S
N1958 S1957 1.613 . S
N1958 C1961 1.350 . S
N1959 S1957 1.610 . S
N1959 C1960 1.351 . S
C1960 C1954 1.428 . S
C1960 N1959 1.351 . S
C1960 C1961 1.434 . S
C1961 C1952 1.429 1_554 S
C1961 N1958 1.350 . S
C1961 C1960 1.434 . S
C1962 C1963 1.369 . S
C1962 C1964 1.419 . S
C1962 H1966 0.930 . S
C1963 C1962 1.369 . S
C1963 C1972 1.429 . S
C1964 C1962 1.419 . S
C1964 C1965 1.363 . S
C1964 H1967 0.929 . S
C1965 C1964 1.363 . S
C1965 C1971 1.428 . S
H1966 C1962 0.930 . S
H1967 C1964 0.929 . S
S1968 N1969 1.613 . S
S1968 N1970 1.610 . S
N1969 S1968 1.613 . S
N1969 C1972 1.350 . S
N1970 S1968 1.610 . S
N1970 C1971 1.351 . S
C1971 C1965 1.428 . S
C1971 N1970 1.351 . S
C1971 C1972 1.434 . S
C1972 C1963 1.429 . S
C1972 N1969 1.350 . S
C1972 C1971 1.434 . S
C1973 C1974 1.369 . S
C1973 C1975 1.419 . S
C1973 H1977 0.930 . S
C1974 C1973 1.369 . S
C1974 C1983 1.429 . S
C1975 C1973 1.419 . S
C1975 C1976 1.363 . S
C1975 H1978 0.929 . S
C1976 C1975 1.363 . S
C1976 C1982 1.428 . S
H1977 C1973 0.930 . S
H1978 C1975 0.929 . S
S1979 N1980 1.613 . S
S1979 N1981 1.610 . S
N1980 S1979 1.613 . S
N1980 C1983 1.350 . S
N1981 S1979 1.610 . S
N1981 C1982 1.351 . S
C1982 C1976 1.428 . S
C1982 N1981 1.351 . S
C1982 C1983 1.434 . S
C1983 C1974 1.429 . S
C1983 N1980 1.350 . S
C1983 C1982 1.434 . S
C1984 C1985 1.369 . S
C1984 C1986 1.419 . S
C1984 H1988 0.930 . S
C1985 C1984 1.369 . S
C1985 C1994 1.429 . S
C1986 C1984 1.419 . S
C1986 C1987 1.363 . S
C1986 H1989 0.929 . S
C1987 C1986 1.363 . S
C1987 C1993 1.428 . S
H1988 C1984 0.930 . S
H1989 C1986 0.929 . S
S1990 N1991 1.613 . S
S1990 N1992 1.610 . S
N1991 S1990 1.613 . S
N1991 C1994 1.350 . S
N1992 S1990 1.610 . S
N1992 C1993 1.351 . S
C1993 C1987 1.428 . S
C1993 N1992 1.351 . S
C1993 C1994 1.434 . S
C1994 C1985 1.429 . S
C1994 N1991 1.350 . S
C1994 C1993 1.434 . S
C1995 C1996 1.369 . S
C1995 C1997 1.419 . S
C1995 H1999 0.930 . S
C1996 C1995 1.369 . S
C1996 C2005 1.429 . S
C1997 C1995 1.419 . S
C1997 C1998 1.363 . S
C1997 H2000 0.929 . S
C1998 C1997 1.363 . S
C1998 C2004 1.428 . S
H1999 C1995 0.930 . S
H2000 C1997 0.929 . S
S2001 N2002 1.613 . S
S2001 N2003 1.610 . S
N2002 S2001 1.613 . S
N2002 C2005 1.350 . S
N2003 S2001 1.610 . S
N2003 C2004 1.351 . S
C2004 C1998 1.428 . S
C2004 N2003 1.351 . S
C2004 C2005 1.434 . S
C2005 C1996 1.429 . S
C2005 N2002 1.350 . S
C2005 C2004 1.434 . S
C2006 C2007 1.369 1_455 S
C2006 C2008 1.419 . S
C2006 H2010 0.930 . S
C2007 C2006 1.369 1_655 S
C2007 C2016 1.429 . S
C2008 C2006 1.419 . S
C2008 C2009 1.363 . S
C2008 H2011 0.929 . S
C2009 C2008 1.363 . S
C2009 C2015 1.428 1_455 S
H2010 C2006 0.930 . S
H2011 C2008 0.929 . S
S2012 N2013 1.613 . S
S2012 N2014 1.610 . S
N2013 S2012 1.613 . S
N2013 C2016 1.350 . S
N2014 S2012 1.610 . S
N2014 C2015 1.351 . S
C2015 C2009 1.428 1_655 S
C2015 N2014 1.351 . S
C2015 C2016 1.434 . S
C2016 C2007 1.429 . S
C2016 N2013 1.350 . S
C2016 C2015 1.434 . S
C2017 C2018 1.369 . S
C2017 C2019 1.419 . S
C2017 H2021 0.930 . S
C2018 C2017 1.369 . S
C2018 C2027 1.429 . S
C2019 C2017 1.419 . S
C2019 C2020 1.363 . S
C2019 H2022 0.929 . S
C2020 C2019 1.363 . S
C2020 C2026 1.428 . S
H2021 C2017 0.930 . S
H2022 C2019 0.929 . S
S2023 N2024 1.613 . S
S2023 N2025 1.610 . S
N2024 S2023 1.613 . S
N2024 C2027 1.350 . S
N2025 S2023 1.610 . S
N2025 C2026 1.351 . S
C2026 C2020 1.428 . S
C2026 N2025 1.351 . S
C2026 C2027 1.434 . S
C2027 C2018 1.429 . S
C2027 N2024 1.350 . S
C2027 C2026 1.434 . S
C2028 C2029 1.369 . S
C2028 C2030 1.419 . S
C2028 H2032 0.930 . S
C2029 C2028 1.369 . S
C2029 C2038 1.429 . S
C2030 C2028 1.419 . S
C2030 C2031 1.363 . S
C2030 H2033 0.929 . S
C2031 C2030 1.363 . S
C2031 C2037 1.428 . S
H2032 C2028 0.930 . S
H2033 C2030 0.929 . S
S2034 N2035 1.613 . S
S2034 N2036 1.610 . S
N2035 S2034 1.613 . S
N2035 C2038 1.350 . S
N2036 S2034 1.610 . S
N2036 C2037 1.351 . S
C2037 C2031 1.428 . S
C2037 N2036 1.351 . S
C2037 C2038 1.434 . S
C2038 C2029 1.429 . S
C2038 N2035 1.350 . S
C2038 C2037 1.434 . S
C2039 C2040 1.369 . S
C2039 C2041 1.419 . S
C2039 H2043 0.930 . S
C2040 C2039 1.369 . S
C2040 C2049 1.429 . S
C2041 C2039 1.419 . S
C2041 C2042 1.363 . S
C2041 H2044 0.929 . S
C2042 C2041 1.363 . S
C2042 C2048 1.428 . S
H2043 C2039 0.930 . S
H2044 C2041 0.929 . S
S2045 N2046 1.613 . S
S2045 N2047 1.610 . S
N2046 S2045 1.613 . S
N2046 C2049 1.350 . S
N2047 S2045 1.610 . S
N2047 C2048 1.351 . S
C2048 C2042 1.428 . S
C2048 N2047 1.351 . S
C2048 C2049 1.434 . S
C2049 C2040 1.429 . S
C2049 N2046 1.350 . S
C2049 C2048 1.434 . S
C2050 C2051 1.369 . S
C2050 C2052 1.419 . S
C2050 H2054 0.930 . S
C2051 C2050 1.369 . S
C2051 C2060 1.429 1_655 S
C2052 C2050 1.419 . S
C2052 C2053 1.363 . S
C2052 H2055 0.929 . S
C2053 C2052 1.363 . S
C2053 C2059 1.428 . S
H2054 C2050 0.930 . S
H2055 C2052 0.929 . S
S2056 N2057 1.613 . S
S2056 N2058 1.610 1_455 S
N2057 S2056 1.613 . S
N2057 C2060 1.350 . S
N2058 S2056 1.610 1_655 S
N2058 C2059 1.351 . S
C2059 C2053 1.428 . S
C2059 N2058 1.351 . S
C2059 C2060 1.434 1_655 S
C2060 C2051 1.429 1_455 S
C2060 N2057 1.350 . S
C2060 C2059 1.434 1_455 S
C2061 C2062 1.369 . S
C2061 C2063 1.419 . S
C2061 H2065 0.930 . S
C2062 C2061 1.369 . S
C2062 C2071 1.429 . S
C2063 C2061 1.419 . S
C2063 C2064 1.363 . S
C2063 H2066 0.929 . S
C2064 C2063 1.363 . S
C2064 C2070 1.428 . S
H2065 C2061 0.930 . S
H2066 C2063 0.929 . S
S2067 N2068 1.613 . S
S2067 N2069 1.610 . S
N2068 S2067 1.613 . S
N2068 C2071 1.350 . S
N2069 S2067 1.610 . S
N2069 C2070 1.351 . S
C2070 C2064 1.428 . S
C2070 N2069 1.351 . S
C2070 C2071 1.434 . S
C2071 C2062 1.429 . S
C2071 N2068 1.350 . S
C2071 C2070 1.434 . S
C2072 C2073 1.369 . S
C2072 C2074 1.419 . S
C2072 H2076 0.930 . S
C2073 C2072 1.369 . S
C2073 C2082 1.429 . S
C2074 C2072 1.419 . S
C2074 C2075 1.363 . S
C2074 H2077 0.929 . S
C2075 C2074 1.363 . S
C2075 C2081 1.428 . S
H2076 C2072 0.930 . S
H2077 C2074 0.929 . S
S2078 N2079 1.613 . S
S2078 N2080 1.610 . S
N2079 S2078 1.613 . S
N2079 C2082 1.350 . S
N2080 S2078 1.610 . S
N2080 C2081 1.351 . S
C2081 C2075 1.428 . S
C2081 N2080 1.351 . S
C2081 C2082 1.434 . S
C2082 C2073 1.429 . S
C2082 N2079 1.350 . S
C2082 C2081 1.434 . S
C2083 C2084 1.369 . S
C2083 C2085 1.419 . S
C2083 H2087 0.930 . S
C2084 C2083 1.369 . S
C2084 C2093 1.429 . S
C2085 C2083 1.419 . S
C2085 C2086 1.363 . S
C2085 H2088 0.929 . S
C2086 C2085 1.363 . S
C2086 C2092 1.428 . S
H2087 C2083 0.930 . S
H2088 C2085 0.929 . S
S2089 N2090 1.613 . S
S2089 N2091 1.610 . S
N2090 S2089 1.613 . S
N2090 C2093 1.350 . S
N2091 S2089 1.610 . S
N2091 C2092 1.351 . S
C2092 C2086 1.428 . S
C2092 N2091 1.351 . S
C2092 C2093 1.434 . S
C2093 C2084 1.429 . S
C2093 N2090 1.350 . S
C2093 C2092 1.434 . S
C2094 C2095 1.369 . S
C2094 C2096 1.419 . S
C2094 H2098 0.930 . S
C2095 C2094 1.369 . S
C2095 C2104 1.421 1_455 S
C2096 C2094 1.419 . S
C2096 C2097 1.363 1_455 S
C2096 H2099 0.929 . S
C2097 C2096 1.363 1_655 S
C2097 C2103 1.428 . S
H2098 C2094 0.930 . S
H2099 C2096 0.929 . S
S2100 N2101 1.613 . S
S2100 N2102 1.610 . S
N2101 S2100 1.613 . S
N2101 C2104 1.351 . S
N2102 S2100 1.610 . S
N2102 C2103 1.351 . S
C2103 C2097 1.428 . S
C2103 N2102 1.351 . S
C2103 C2104 1.441 . S
C2104 C2095 1.421 1_655 S
C2104 N2101 1.351 . S
C2104 C2103 1.441 . S
C2105 C2106 1.369 . S
C2105 C2107 1.419 . S
C2105 H2109 0.930 . S
C2106 C2105 1.369 . S
C2106 C2115 1.429 . S
C2107 C2105 1.419 . S
C2107 C2108 1.363 . S
C2107 H2110 0.929 . S
C2108 C2107 1.363 . S
C2108 C2114 1.428 . S
H2109 C2105 0.930 . S
H2110 C2107 0.929 . S
S2111 N2112 1.613 . S
S2111 N2113 1.610 . S
N2112 S2111 1.613 . S
N2112 C2115 1.350 . S
N2113 S2111 1.610 . S
N2113 C2114 1.351 . S
C2114 C2108 1.428 . S
C2114 N2113 1.351 . S
C2114 C2115 1.434 . S
C2115 C2106 1.429 . S
C2115 N2112 1.350 . S
C2115 C2114 1.434 . S
C2116 C2117 1.369 . S
C2116 C2118 1.419 . S
C2116 H2120 0.930 . S
C2117 C2116 1.369 . S
C2117 C2126 1.429 . S
C2118 C2116 1.419 . S
C2118 C2119 1.363 . S
C2118 H2121 0.929 . S
C2119 C2118 1.363 . S
C2119 C2125 1.428 . S
H2120 C2116 0.930 . S
H2121 C2118 0.929 . S
S2122 N2123 1.613 . S
S2122 N2124 1.610 . S
N2123 S2122 1.613 . S
N2123 C2126 1.350 . S
N2124 S2122 1.610 . S
N2124 C2125 1.351 . S
C2125 C2119 1.428 . S
C2125 N2124 1.351 . S
C2125 C2126 1.434 . S
C2126 C2117 1.429 . S
C2126 N2123 1.350 . S
C2126 C2125 1.434 . S
C2127 C2128 1.369 . S
C2127 C2129 1.419 . S
C2127 H2131 0.930 . S
C2128 C2127 1.369 . S
C2128 C2137 1.429 . S
C2129 C2127 1.419 . S
C2129 C2130 1.363 . S
C2129 H2132 0.929 . S
C2130 C2129 1.363 . S
C2130 C2136 1.428 . S
H2131 C2127 0.930 . S
H2132 C2129 0.929 . S
S2133 N2134 1.613 . S
S2133 N2135 1.610 . S
N2134 S2133 1.613 . S
N2134 C2137 1.350 . S
N2135 S2133 1.610 . S
N2135 C2136 1.351 . S
C2136 C2130 1.428 . S
C2136 N2135 1.351 . S
C2136 C2137 1.434 . S
C2137 C2128 1.429 . S
C2137 N2134 1.350 . S
C2137 C2136 1.434 . S
C2138 C2139 1.369 . S
C2138 C2140 1.419 . S
C2138 H2142 0.930 . S
C2139 C2138 1.369 . S
C2139 C2148 1.429 . S
C2140 C2138 1.419 . S
C2140 C2141 1.363 . S
C2140 H2143 0.929 . S
C2141 C2140 1.363 . S
C2141 C2147 1.428 1_455 S
H2142 C2138 0.930 . S
H2143 C2140 0.929 . S
S2144 N2145 1.614 . S
S2144 N2146 1.610 . S
N2145 S2144 1.614 . S
N2145 C2148 1.350 1_655 S
N2146 S2144 1.610 . S
N2146 C2147 1.351 . S
C2147 C2141 1.428 1_655 S
C2147 N2146 1.351 . S
C2147 C2148 1.434 1_655 S
C2148 C2139 1.429 . S
C2148 N2145 1.350 1_455 S
C2148 C2147 1.434 1_455 S
C2149 C2150 1.369 . S
C2149 C2151 1.419 . S
C2149 H2153 0.930 . S
C2150 C2149 1.369 . S
C2150 C2159 1.429 . S
C2151 C2149 1.419 . S
C2151 C2152 1.363 . S
C2151 H2154 0.929 . S
C2152 C2151 1.363 . S
C2152 C2158 1.428 . S
H2153 C2149 0.930 . S
H2154 C2151 0.929 . S
S2155 N2156 1.613 . S
S2155 N2157 1.610 . S
N2156 S2155 1.613 . S
N2156 C2159 1.350 . S
N2157 S2155 1.610 . S
N2157 C2158 1.351 . S
C2158 C2152 1.428 . S
C2158 N2157 1.351 . S
C2158 C2159 1.434 . S
C2159 C2150 1.429 . S
C2159 N2156 1.350 . S
C2159 C2158 1.434 . S
C2160 C2161 1.369 . S
C2160 C2162 1.419 . S
C2160 H2164 0.930 . S
C2161 C2160 1.369 . S
C2161 C2170 1.429 . S
C2162 C2160 1.419 . S
C2162 C2163 1.363 . S
C2162 H2165 0.929 . S
C2163 C2162 1.363 . S
C2163 C2169 1.428 . S
H2164 C2160 0.930 . S
H2165 C2162 0.929 . S
S2166 N2167 1.613 . S
S2166 N2168 1.610 . S
N2167 S2166 1.613 . S
N2167 C2170 1.350 . S
N2168 S2166 1.610 . S
N2168 C2169 1.351 . S
C2169 C2163 1.428 . S
C2169 N2168 1.351 . S
C2169 C2170 1.434 . S
C2170 C2161 1.429 . S
C2170 N2167 1.350 . S
C2170 C2169 1.434 . S
C2171 C2172 1.369 . S
C2171 C2173 1.419 . S
C2171 H2175 0.930 . S
C2172 C2171 1.369 . S
C2172 C2181 1.429 . S
C2173 C2171 1.419 . S
C2173 C2174 1.363 . S
C2173 H2176 0.929 . S
C2174 C2173 1.363 . S
C2174 C2180 1.428 . S
H2175 C2171 0.930 . S
H2176 C2173 0.929 . S
S2177 N2178 1.613 . S
S2177 N2179 1.610 . S
N2178 S2177 1.613 . S
N2178 C2181 1.350 . S
N2179 S2177 1.610 . S
N2179 C2180 1.351 . S
C2180 C2174 1.428 . S
C2180 N2179 1.351 . S
C2180 C2181 1.434 . S
C2181 C2172 1.429 . S
C2181 N2178 1.350 . S
C2181 C2180 1.434 . S
C2182 C2183 1.369 . S
C2182 C2184 1.419 . S
C2182 H2186 0.930 . S
C2183 C2182 1.369 . S
C2183 C2192 1.429 . S
C2184 C2182 1.419 . S
C2184 C2185 1.363 . S
C2184 H2187 0.929 . S
C2185 C2184 1.363 . S
C2185 C2191 1.428 . S
H2186 C2182 0.930 . S
H2187 C2184 0.929 . S
S2188 N2189 1.613 . S
S2188 N2190 1.610 . S
N2189 S2188 1.613 . S
N2189 C2192 1.350 . S
N2190 S2188 1.610 . S
N2190 C2191 1.351 . S
C2191 C2185 1.428 . S
C2191 N2190 1.351 . S
C2191 C2192 1.434 . S
C2192 C2183 1.429 . S
C2192 N2189 1.350 . S
C2192 C2191 1.434 . S
C2193 C2194 1.369 . S
C2193 C2195 1.419 . S
C2193 H2197 0.930 . S
C2194 C2193 1.369 . S
C2194 C2203 1.429 . S
C2195 C2193 1.419 . S
C2195 C2196 1.363 . S
C2195 H2198 0.929 . S
C2196 C2195 1.363 . S
C2196 C2202 1.428 . S
H2197 C2193 0.930 . S
H2198 C2195 0.929 . S
S2199 N2200 1.613 . S
S2199 N2201 1.610 . S
N2200 S2199 1.613 . S
N2200 C2203 1.350 . S
N2201 S2199 1.610 . S
N2201 C2202 1.351 . S
C2202 C2196 1.428 . S
C2202 N2201 1.351 . S
C2202 C2203 1.434 . S
C2203 C2194 1.429 . S
C2203 N2200 1.350 . S
C2203 C2202 1.434 . S
C2204 C2205 1.369 . S
C2204 C2206 1.419 . S
C2204 H2208 0.930 . S
C2205 C2204 1.369 . S
C2205 C2214 1.429 . S
C2206 C2204 1.419 . S
C2206 C2207 1.363 . S
C2206 H2209 0.929 . S
C2207 C2206 1.363 . S
C2207 C2213 1.428 . S
H2208 C2204 0.930 . S
H2209 C2206 0.929 . S
S2210 N2211 1.613 . S
S2210 N2212 1.610 . S
N2211 S2210 1.613 . S
N2211 C2214 1.350 . S
N2212 S2210 1.610 . S
N2212 C2213 1.351 . S
C2213 C2207 1.428 . S
C2213 N2212 1.351 . S
C2213 C2214 1.434 . S
C2214 C2205 1.429 . S
C2214 N2211 1.350 . S
C2214 C2213 1.434 . S
C2215 C2216 1.369 . S
C2215 C2217 1.419 . S
C2215 H2219 0.930 . S
C2216 C2215 1.369 . S
C2216 C2225 1.429 . S
C2217 C2215 1.419 . S
C2217 C2218 1.363 . S
C2217 H2220 0.929 . S
C2218 C2217 1.363 . S
C2218 C2224 1.428 . S
H2219 C2215 0.930 . S
H2220 C2217 0.929 . S
S2221 N2222 1.613 . S
S2221 N2223 1.610 . S
N2222 S2221 1.613 . S
N2222 C2225 1.350 . S
N2223 S2221 1.610 . S
N2223 C2224 1.351 . S
C2224 C2218 1.428 . S
C2224 N2223 1.351 . S
C2224 C2225 1.434 . S
C2225 C2216 1.429 . S
C2225 N2222 1.350 . S
C2225 C2224 1.434 . S
C2226 C2227 1.369 . S
C2226 C2228 1.419 . S
C2226 H2230 0.930 . S
C2227 C2226 1.369 . S
C2227 C2236 1.429 . S
C2228 C2226 1.419 . S
C2228 C2229 1.363 . S
C2228 H2231 0.929 . S
C2229 C2228 1.363 . S
C2229 C2235 1.428 . S
H2230 C2226 0.930 . S
H2231 C2228 0.929 . S
S2232 N2233 1.613 . S
S2232 N2234 1.610 . S
N2233 S2232 1.613 . S
N2233 C2236 1.350 . S
N2234 S2232 1.610 . S
N2234 C2235 1.351 . S
C2235 C2229 1.428 . S
C2235 N2234 1.351 . S
C2235 C2236 1.434 . S
C2236 C2227 1.429 . S
C2236 N2233 1.350 . S
C2236 C2235 1.434 . S
C2237 C2238 1.369 . S
C2237 C2239 1.419 . S
C2237 H2241 0.930 . S
C2238 C2237 1.369 . S
C2238 C2247 1.429 . S
C2239 C2237 1.419 . S
C2239 C2240 1.363 . S
C2239 H2242 0.929 . S
C2240 C2239 1.363 . S
C2240 C2246 1.428 . S
H2241 C2237 0.930 . S
H2242 C2239 0.929 . S
S2243 N2244 1.613 . S
S2243 N2245 1.610 . S
N2244 S2243 1.613 . S
N2244 C2247 1.350 . S
N2245 S2243 1.610 . S
N2245 C2246 1.351 . S
C2246 C2240 1.428 . S
C2246 N2245 1.351 . S
C2246 C2247 1.434 . S
C2247 C2238 1.429 . S
C2247 N2244 1.350 . S
C2247 C2246 1.434 . S
C2248 C2249 1.369 . S
C2248 C2250 1.419 1_565 S
C2248 H2252 0.930 . S
C2249 C2248 1.369 . S
C2249 C2258 1.429 . S
C2250 C2248 1.419 1_545 S
C2250 C2251 1.363 1_545 S
C2250 H2253 0.929 . S
C2251 C2250 1.363 1_565 S
C2251 C2257 1.428 . S
H2252 C2248 0.930 . S
H2253 C2250 0.929 . S
S2254 N2255 1.613 . S
S2254 N2256 1.610 . S
N2255 S2254 1.613 . S
N2255 C2258 1.350 . S
N2256 S2254 1.610 . S
N2256 C2257 1.351 . S
C2257 C2251 1.428 . S
C2257 N2256 1.351 . S
C2257 C2258 1.434 . S
C2258 C2249 1.429 . S
C2258 N2255 1.350 . S
C2258 C2257 1.434 . S
C2259 C2260 1.369 . S
C2259 C2261 1.419 . S
C2259 H2263 0.930 . S
C2260 C2259 1.369 . S
C2260 C2269 1.429 . S
C2261 C2259 1.419 . S
C2261 C2262 1.363 . S
C2261 H2264 0.929 . S
C2262 C2261 1.363 . S
C2262 C2268 1.428 . S
H2263 C2259 0.930 . S
H2264 C2261 0.929 . S
S2265 N2266 1.613 . S
S2265 N2267 1.610 . S
N2266 S2265 1.613 . S
N2266 C2269 1.350 . S
N2267 S2265 1.610 . S
N2267 C2268 1.351 . S
C2268 C2262 1.428 . S
C2268 N2267 1.351 . S
C2268 C2269 1.434 . S
C2269 C2260 1.429 . S
C2269 N2266 1.350 . S
C2269 C2268 1.434 . S
C2270 C2271 1.369 . S
C2270 C2272 1.419 . S
C2270 H2274 0.930 . S
C2271 C2270 1.369 . S
C2271 C2280 1.429 1_545 S
C2272 C2270 1.419 . S
C2272 C2273 1.363 1_545 S
C2272 H2275 0.929 . S
C2273 C2272 1.363 1_565 S
C2273 C2279 1.428 . S
H2274 C2270 0.930 . S
H2275 C2272 0.929 . S
S2276 N2277 1.613 . S
S2276 N2278 1.610 . S
N2277 S2276 1.613 . S
N2277 C2280 1.350 . S
N2278 S2276 1.610 . S
N2278 C2279 1.351 . S
C2279 C2273 1.428 . S
C2279 N2278 1.351 . S
C2279 C2280 1.434 . S
C2280 C2271 1.429 1_565 S
C2280 N2277 1.350 . S
C2280 C2279 1.434 . S
C2281 C2282 1.369 . S
C2281 C2283 1.419 1_554 S
C2281 H2285 0.930 . S
C2282 C2281 1.369 . S
C2282 C2291 1.429 . S
C2283 C2281 1.419 1_556 S
C2283 C2284 1.363 . S
C2283 H2286 0.929 . S
C2284 C2283 1.363 . S
C2284 C2290 1.428 . S
H2285 C2281 0.930 . S
H2286 C2283 0.929 . S
S2287 N2288 1.613 1_556 S
S2287 N2289 1.610 . S
N2288 S2287 1.613 1_554 S
N2288 C2291 1.350 . S
N2289 S2287 1.610 . S
N2289 C2290 1.351 . S
C2290 C2284 1.428 . S
C2290 N2289 1.351 . S
C2290 C2291 1.434 1_556 S
C2291 C2282 1.429 . S
C2291 N2288 1.350 . S
C2291 C2290 1.434 1_554 S
C2292 C2293 1.369 . S
C2292 C2294 1.419 . S
C2292 H2296 0.930 . S
C2293 C2292 1.369 . S
C2293 C2302 1.429 . S
C2294 C2292 1.419 . S
C2294 C2295 1.363 . S
C2294 H2297 0.929 . S
C2295 C2294 1.363 . S
C2295 C2301 1.428 . S
H2296 C2292 0.930 . S
H2297 C2294 0.929 . S
S2298 N2299 1.613 . S
S2298 N2300 1.610 . S
N2299 S2298 1.613 . S
N2299 C2302 1.350 . S
N2300 S2298 1.610 . S
N2300 C2301 1.351 . S
C2301 C2295 1.428 . S
C2301 N2300 1.351 . S
C2301 C2302 1.434 . S
C2302 C2293 1.429 . S
C2302 N2299 1.350 . S
C2302 C2301 1.434 . S
C2303 C2304 1.369 . S
C2303 C2305 1.419 . S
C2303 H2307 0.930 . S
C2304 C2303 1.369 . S
C2304 C2313 1.429 . S
C2305 C2303 1.419 . S
C2305 C2306 1.363 . S
C2305 H2308 0.929 . S
C2306 C2305 1.363 . S
C2306 C2312 1.428 . S
H2307 C2303 0.930 . S
H2308 C2305 0.929 . S
S2309 N2310 1.613 . S
S2309 N2311 1.610 . S
N2310 S2309 1.613 . S
N2310 C2313 1.350 . S
N2311 S2309 1.610 . S
N2311 C2312 1.351 . S
C2312 C2306 1.428 . S
C2312 N2311 1.351 . S
C2312 C2313 1.434 . S
C2313 C2304 1.429 . S
C2313 N2310 1.350 . S
C2313 C2312 1.434 . S
C2314 C2315 1.369 1_545 S
C2314 C2316 1.419 . S
C2314 H2318 0.930 . S
C2315 C2314 1.369 1_565 S
C2315 C2324 1.429 . S
C2316 C2314 1.419 . S
C2316 C2317 1.363 . S
C2316 H2319 0.929 . S
C2317 C2316 1.363 . S
C2317 C2323 1.428 1_545 S
H2318 C2314 0.930 . S
H2319 C2316 0.929 . S
S2320 N2321 1.613 . S
S2320 N2322 1.610 . S
N2321 S2320 1.613 . S
N2321 C2324 1.350 . S
N2322 S2320 1.610 . S
N2322 C2323 1.351 . S
C2323 C2317 1.428 1_565 S
C2323 N2322 1.351 . S
C2323 C2324 1.434 . S
C2324 C2315 1.429 . S
C2324 N2321 1.350 . S
C2324 C2323 1.434 . S
C2325 C2326 1.369 . S
C2325 C2327 1.419 . S
C2325 H2329 0.930 . S
C2326 C2325 1.369 . S
C2326 C2335 1.429 . S
C2327 C2325 1.419 . S
C2327 C2328 1.363 . S
C2327 H2330 0.929 . S
C2328 C2327 1.363 . S
C2328 C2334 1.428 . S
H2329 C2325 0.930 . S
H2330 C2327 0.929 . S
S2331 N2332 1.613 . S
S2331 N2333 1.610 . S
N2332 S2331 1.613 . S
N2332 C2335 1.350 . S
N2333 S2331 1.610 . S
N2333 C2334 1.351 . S
C2334 C2328 1.428 . S
C2334 N2333 1.351 . S
C2334 C2335 1.434 . S
C2335 C2326 1.429 . S
C2335 N2332 1.350 . S
C2335 C2334 1.434 . S
C1281 C10 0.351 . S
C1283 C175 0.471 . S
C1292 C215 0.411 . S
C1294 C55 0.531 . S
C1303 C90 0.363 . S
C1305 C255 0.310 . S
C1314 C295 0.382 . S
C1316 C130 0.380 . S
C1325 C339 0.353 . S
C1327 C486 0.457 . S
C1336 C366 0.533 . S
C1338 C526 0.433 . S
C1347 C566 0.327 . S
C1349 C419 0.371 . S
C1358 C459 0.397 . S
C1360 C606 0.400 . S
C1369 C815 0.468 . S
C1371 C650 0.354 . S
C1380 C695 0.510 . S
C1382 C855 0.438 . S
C1391 C730 0.376 . S
C1393 C895 0.317 . S
C1402 C770 0.392 . S
C1404 C935 0.391 . S
C1413 C979 0.352 . S
C1415 C1126 0.478 . S
C1424 C1166 0.440 . S
C1426 C1006 0.513 . S
C1435 C1059 0.355 . S
C1437 C1206 0.309 . S
C1446 C1246 0.385 . S
C1448 C1099 0.384 . S
C1457 C849 2.578 . S
C1459 C18 2.556 . S
C1468 C889 1.699 . S
C1470 C49 1.679 . S
C1479 C929 2.408 . S
C1481 C98 2.345 . S
C1490 C138 1.804 . S
C1492 C809 1.851 1_556 S
C1501 C169 1.848 . S
C1503 C778 1.809 . S
C1512 C658 2.550 . S
C1514 C209 2.583 . S
C1523 C249 1.694 1_556 S
C1525 C689 1.678 . S
C1534 C289 2.416 . S
C1536 C738 2.338 . S
C1545 C329 2.547 . S
C1547 C1178 2.585 . S
C1556 C1218 1.694 . S
C1558 C378 1.679 . S
C1567 C1258 2.413 . S
C1569 C409 2.342 . S
C1578 C449 1.811 . S
C1580 C1138 1.846 . S
C1589 C498 1.849 . S
C1591 C1089 1.807 . S
C1600 C538 2.578 . S
C1602 C969 2.556 . S
C1611 C578 1.700 . S
C1613 C1018 1.679 . S
C1622 C618 2.409 . S
C1624 C1049 2.344 . S
C1633 C338 1.414 . S
C1635 C9 1.398 . S
C1644 C58 1.417 . S
C1646 C1009 1.404 . S
C1655 C418 1.571 . S
C1657 C89 1.579 . S
C1666 C129 1.501 . S
C1668 C1098 1.494 . S
C1677 C489 1.588 . S
C1679 C178 1.579 . S
C1688 C1169 1.354 . S
C1690 C218 1.367 . S
C1699 C258 1.434 . S
C1701 C569 1.426 . S
C1710 C298 1.600 . S
C1712 C1249 1.607 . S
C1721 C698 1.413 . S
C1723 C369 1.406 . S
C1732 C769 1.495 . S
C1734 C458 1.499 . S
C1743 C529 1.365 . S
C1745 C858 1.359 . S
C1754 C938 1.609 . S
C1756 C609 1.600 . S
C1765 C978 1.413 . S
C1767 C649 1.399 . S
C1776 C1058 1.575 . S
C1778 C729 1.577 . S
C1787 C1129 1.581 . S
C1789 C818 1.584 . S
C1798 C898 1.433 . S
C1800 C1209 1.427 . S
C1809 C19 2.318 1_556 S
C1811 C490 2.389 . S
C1820 C1170 1.424 . S
C1822 C46 1.356 . S
C1831 C570 2.388 . S
C1833 C99 2.327 . S
C1842 C139 2.003 . S
C1844 C1250 2.062 . S
C1853 C335 0.817 . S
C1855 C166 0.820 . S
C1864 C1010 1.724 . S
C1866 C206 1.648 . S
C1875 C415 0.944 . S
C1877 C246 0.929 . S
C1886 C1095 1.087 . S
C1888 C286 1.073 . S
C1897 C179 2.386 . S
C1899 C330 2.322 . S
C1908 C859 1.430 . S
C1910 C375 1.351 . S
C1919 C259 2.389 . S
C1921 C410 2.326 . S
C1930 C450 2.005 . S
C1932 C939 2.060 . S
C1941 C6 0.817 . S
C1943 C495 0.818 . S
C1952 C699 1.724 . S
C1954 C535 1.649 . S
C1963 C575 0.925 . S
C1965 C86 0.947 . S
C1974 C615 1.075 . S
C1976 C766 1.094 . S
C1985 C1130 2.390 . S
C1987 C659 2.318 . S
C1996 C530 1.430 . S
C1998 C686 1.355 . S
C2007 C739 2.322 1_556 S
C2009 C1210 2.388 . S
C2018 C610 2.060 . S
C2020 C779 2.003 . S
C2029 C806 0.826 . S
C2031 C975 0.824 . S
C2040 C846 1.642 . S
C2042 C370 1.724 . S
C2051 C1055 0.953 1_655 S
C2053 C886 0.929 . S
C2062 C455 1.093 . S
C2064 C926 1.073 . S
C2073 C970 2.319 . S
C2075 C819 2.387 . S
C2084 C1015 1.358 . S
C2086 C219 1.425 . S
C2095 C1050 2.322 . S
C2097 C899 2.389 . S
C2106 C1090 2.004 . S
C2108 C299 2.062 . S
C2117 C646 0.826 . S
C2119 C1135 0.823 1_556 S
C2128 C59 1.720 . S
C2130 C1175 1.644 . S
C2139 C1215 0.926 . S
C2141 C726 0.952 1_455 S
C2150 C126 1.094 . S
C2152 C1255 1.073 . S
C2161 C170 2.277 . S
C2163 C15 2.231 . S
C2172 C210 3.126 1_554 S
C2174 C50 3.140 . S
C2183 C95 2.260 . S
C2185 C250 2.324 . S
C2194 C290 2.221 . S
C2196 C135 2.200 . S
C2205 C499 2.276 . S
C2207 C326 2.231 . S
C2216 C379 3.141 . S
C2218 C539 3.125 . S
C2227 C406 2.264 1_554 S
C2229 C579 2.323 . S
C2238 C619 2.221 . S
C2240 C446 2.200 . S
C2249 C655 2.230 . S
C2251 C810 2.275 1_565 S
C2260 C850 3.124 . S
C2262 C690 3.141 . S
C2271 C735 2.260 . S
C2273 C890 2.325 . S
C2282 C775 2.197 . S
C2284 C930 2.219 . S
C2293 C1139 2.277 1_545 S
C2295 C966 2.231 1_554 S
C2304 C1179 3.126 . S
C2306 C1019 3.141 . S
C2315 C1046 2.260 . S
C2317 C1219 2.323 . S
C2326 C1259 2.222 . S
C2328 C1086 2.198 . S
