# Generated by pormake.
# Topology zfo, (5)-cn, num edge types: 1
# Building blocks:
#     Node 0, Type 0, BuildingBlock: BEQFEK_clean_sbu_0, # of connection points: 5
#     Node 1, Type 0, BuildingBlock: BEQFEK_clean_sbu_0, # of connection points: 5
#     Node 2, Type 0, BuildingBlock: BEQFEK_clean_sbu_0, # of connection points: 5
#     Node 3, Type 0, BuildingBlock: BEQFEK_clean_sbu_0, # of connection points: 5
#     Node 4, Type 0, BuildingBlock: BEQFEK_clean_sbu_0, # of connection points: 5
#     Node 5, Type 0, BuildingBlock: BEQFEK_clean_sbu_0, # of connection points: 5
#     Node 6, Type 0, BuildingBlock: BEQFEK_clean_sbu_0, # of connection points: 5
#     Node 7, Type 0, BuildingBlock: BEQFEK_clean_sbu_0, # of connection points: 5
#     Node 8, Type 0, BuildingBlock: BEQFEK_clean_sbu_0, # of connection points: 5
#     Node 9, Type 0, BuildingBlock: BEQFEK_clean_sbu_0, # of connection points: 5
#     Node 10, Type 0, BuildingBlock: BEQFEK_clean_sbu_0, # of connection points: 5
#     Node 11, Type 0, BuildingBlock: BEQFEK_clean_sbu_0, # of connection points: 5
#     Node 12, Type 0, BuildingBlock: BEQFEK_clean_sbu_0, # of connection points: 5
#     Node 13, Type 0, BuildingBlock: BEQFEK_clean_sbu_0, # of connection points: 5
#     Node 14, Type 0, BuildingBlock: BEQFEK_clean_sbu_0, # of connection points: 5
#     Node 15, Type 0, BuildingBlock: BEQFEK_clean_sbu_0, # of connection points: 5
#     Edge 16, Type (0, 0), BuildingBlock: ZUJKAS_clean_linker_0, # of connection points: 2
#     Edge 17, Type (0, 0), BuildingBlock: ZUJKAS_clean_linker_0, # of connection points: 2
#     Edge 18, Type (0, 0), BuildingBlock: ZUJKAS_clean_linker_0, # of connection points: 2
#     Edge 19, Type (0, 0), BuildingBlock: ZUJKAS_clean_linker_0, # of connection points: 2
#     Edge 20, Type (0, 0), BuildingBlock: ZUJKAS_clean_linker_0, # of connection points: 2
#     Edge 21, Type (0, 0), BuildingBlock: ZUJKAS_clean_linker_0, # of connection points: 2
#     Edge 22, Type (0, 0), BuildingBlock: ZUJKAS_clean_linker_0, # of connection points: 2
#     Edge 23, Type (0, 0), BuildingBlock: ZUJKAS_clean_linker_0, # of connection points: 2
#     Edge 24, Type (0, 0), BuildingBlock: ZUJKAS_clean_linker_0, # of connection points: 2
#     Edge 25, Type (0, 0), BuildingBlock: ZUJKAS_clean_linker_0, # of connection points: 2
#     Edge 26, Type (0, 0), BuildingBlock: ZUJKAS_clean_linker_0, # of connection points: 2
#     Edge 27, Type (0, 0), BuildingBlock: ZUJKAS_clean_linker_0, # of connection points: 2
#     Edge 28, Type (0, 0), BuildingBlock: ZUJKAS_clean_linker_0, # of connection points: 2
#     Edge 29, Type (0, 0), BuildingBlock: ZUJKAS_clean_linker_0, # of connection points: 2
#     Edge 30, Type (0, 0), BuildingBlock: ZUJKAS_clean_linker_0, # of connection points: 2
#     Edge 31, Type (0, 0), BuildingBlock: ZUJKAS_clean_linker_0, # of connection points: 2
#     Edge 32, Type (0, 0), BuildingBlock: ZUJKAS_clean_linker_0, # of connection points: 2
#     Edge 33, Type (0, 0), BuildingBlock: ZUJKAS_clean_linker_0, # of connection points: 2
#     Edge 34, Type (0, 0), BuildingBlock: ZUJKAS_clean_linker_0, # of connection points: 2
#     Edge 35, Type (0, 0), BuildingBlock: ZUJKAS_clean_linker_0, # of connection points: 2
#     Edge 36, Type (0, 0), BuildingBlock: ZUJKAS_clean_linker_0, # of connection points: 2
#     Edge 37, Type (0, 0), BuildingBlock: ZUJKAS_clean_linker_0, # of connection points: 2
#     Edge 38, Type (0, 0), BuildingBlock: ZUJKAS_clean_linker_0, # of connection points: 2
#     Edge 39, Type (0, 0), BuildingBlock: ZUJKAS_clean_linker_0, # of connection points: 2
#     Edge 40, Type (0, 0), BuildingBlock: ZUJKAS_clean_linker_0, # of connection points: 2
#     Edge 41, Type (0, 0), BuildingBlock: ZUJKAS_clean_linker_0, # of connection points: 2
#     Edge 42, Type (0, 0), BuildingBlock: ZUJKAS_clean_linker_0, # of connection points: 2
#     Edge 43, Type (0, 0), BuildingBlock: ZUJKAS_clean_linker_0, # of connection points: 2
#     Edge 44, Type (0, 0), BuildingBlock: ZUJKAS_clean_linker_0, # of connection points: 2
#     Edge 45, Type (0, 0), BuildingBlock: ZUJKAS_clean_linker_0, # of connection points: 2
#     Edge 46, Type (0, 0), BuildingBlock: ZUJKAS_clean_linker_0, # of connection points: 2
#     Edge 47, Type (0, 0), BuildingBlock: ZUJKAS_clean_linker_0, # of connection points: 2
#     Edge 48, Type (0, 0), BuildingBlock: ZUJKAS_clean_linker_0, # of connection points: 2
#     Edge 49, Type (0, 0), BuildingBlock: ZUJKAS_clean_linker_0, # of connection points: 2
#     Edge 50, Type (0, 0), BuildingBlock: ZUJKAS_clean_linker_0, # of connection points: 2
#     Edge 51, Type (0, 0), BuildingBlock: ZUJKAS_clean_linker_0, # of connection points: 2
#     Edge 52, Type (0, 0), BuildingBlock: ZUJKAS_clean_linker_0, # of connection points: 2
#     Edge 53, Type (0, 0), BuildingBlock: ZUJKAS_clean_linker_0, # of connection points: 2
#     Edge 54, Type (0, 0), BuildingBlock: ZUJKAS_clean_linker_0, # of connection points: 2
#     Edge 55, Type (0, 0), BuildingBlock: ZUJKAS_clean_linker_0, # of connection points: 2
# Relax obj value: 0.164
# Max RMSD: 0.174
# Mean RMSD: 0.165
data_MOF--net-zfo--node1-BEQFEK_clean_sbu_0--edge1-ZUJKAS_clean_linker_0
_symmetry_space_group_name_H-M    P1
_symmetry_Int_Tables_number       1
_symmetry_cell_setting            triclinic
loop_
_symmetry_equiv_pos_as_xyz
'x, y, z'
_cell_length_a     41.240196
_cell_length_b     41.233548
_cell_length_c     83.923713
_cell_angle_alpha  89.989714
_cell_angle_beta   89.998835
_cell_angle_gamma 89.974772
loop_
_atom_site_label
_atom_site_type_symbol
_atom_site_fract_x
_atom_site_fract_y
_atom_site_fract_z
_atom_type_partial_charge
Co0 Co 0.10693 0.20788 0.10002 0.0
Co1 Co 0.10874 0.20646 0.13759 0.0
C2 C 0.0669 0.25338 0.11941 0.0
O3 O 0.07591 0.24261 0.1059 0.0
O4 O 0.07803 0.24169 0.13233 0.0
C5 C 0.0918 0.21803 0.06696 0.0
O6 O 0.06346 0.22682 0.07267 0.0
C7 C 0.12625 0.23287 0.16899 0.0
C8 C 0.11999 0.1902 0.18459 0.0
C9 C 0.12927 0.22252 0.1847 0.0
N10 N 0.11617 0.2077 0.16007 0.0
N11 N 0.11231 0.18232 0.16949 0.0
C12 C 0.13131 0.26637 0.16255 0.0
H13 H 0.11758 0.26984 0.15134 0.0
H14 H 0.15737 0.27002 0.15986 0.0
H15 H 0.12373 0.28481 0.17144 0.0
C16 C 0.17777 0.21352 0.10494 0.0
N17 N 0.14724 0.2127 0.11063 0.0
N18 N 0.1482 0.21062 0.12628 0.0
C19 C 0.17937 0.20912 0.13101 0.0
C20 C 0.19914 0.21128 0.11767 0.0
C21 C 0.18605 0.2156 0.08761 0.0
H22 H 0.17068 0.23426 0.08181 0.0
H23 H 0.21195 0.22186 0.08578 0.0
H24 H 0.18087 0.19193 0.08186 0.0
O25 O 0.08756 0.16518 0.10562 0.0
O26 O 0.08851 0.16447 0.13212 0.0
H27 H 0.17252 0.18347 0.15304 0.0
H28 H 0.21432 0.18924 0.14764 0.0
C29 C 0.18994 0.20062 0.14758 0.0
H30 H 0.19093 0.22293 0.15491 0.0
H31 H 0.10465 0.15955 0.1656 0.0
O32 O 0.11384 0.20889 0.07656 0.0
C33 C 0.08159 0.15114 0.11885 0.0
Co34 Co 0.78656 0.10508 0.59973 0.0
Co35 Co 0.78697 0.10526 0.63736 0.0
C36 C 0.73921 0.06581 0.6186 0.0
O37 O 0.75005 0.07594 0.6053 0.0
O38 O 0.75151 0.07524 0.6317 0.0
C39 C 0.77609 0.09001 0.56696 0.0
O40 O 0.76749 0.06187 0.57297 0.0
C41 C 0.76111 0.11763 0.66969 0.0
C42 C 0.80624 0.12124 0.68375 0.0
C43 C 0.77284 0.12401 0.68491 0.0
N44 N 0.7865 0.1122 0.65996 0.0
N45 N 0.81335 0.11398 0.66851 0.0
C46 C 0.72637 0.11613 0.66452 0.0
H47 H 0.72305 0.09727 0.6553 0.0
H48 H 0.7192 0.13975 0.65927 0.0
H49 H 0.71019 0.11068 0.67474 0.0
C50 C 0.78535 0.17579 0.60519 0.0
N51 N 0.78382 0.1451 0.61062 0.0
N52 N 0.78375 0.14537 0.62631 0.0
C53 C 0.78519 0.17635 0.63137 0.0
C54 C 0.78642 0.19662 0.61816 0.0
C55 C 0.78936 0.18441 0.58798 0.0
H56 H 0.80989 0.17042 0.5829 0.0
H57 H 0.76712 0.1774 0.58138 0.0
H58 H 0.794 0.21067 0.58626 0.0
O59 O 0.82814 0.08356 0.60519 0.0
O60 O 0.82868 0.08421 0.63169 0.0
H61 H 0.808 0.17656 0.65427 0.0
H62 H 0.78504 0.21297 0.65002 0.0
C63 C 0.78582 0.18629 0.64853 0.0
H64 H 0.76447 0.176 0.65468 0.0
H65 H 0.83662 0.11093 0.66386 0.0
O66 O 0.78541 0.11239 0.57631 0.0
C67 C 0.84187 0.07698 0.61842 0.0
Co68 Co 0.89153 0.78778 0.10016 0.0
Co69 Co 0.88752 0.78893 0.13769 0.0
C70 C 0.92817 0.74027 0.1205 0.0
O71 O 0.9205 0.75176 0.10692 0.0
O72 O 0.91671 0.75211 0.13331 0.0
C73 C 0.90845 0.77547 0.0675 0.0
O74 O 0.93616 0.76619 0.07374 0.0
C75 C 0.87313 0.76447 0.1698 0.0
C76 C 0.86867 0.8098 0.18364 0.0
C77 C 0.86643 0.77633 0.18499 0.0
N78 N 0.87884 0.78976 0.16007 0.0
N79 N 0.87649 0.81676 0.16845 0.0
C80 C 0.87113 0.73015 0.16408 0.0
H81 H 0.86717 0.72946 0.151 0.0
H82 H 0.85114 0.71707 0.17017 0.0
H83 H 0.89431 0.7176 0.16675 0.0
C84 C 0.82032 0.78755 0.10398 0.0
N85 N 0.85042 0.78579 0.11015 0.0
N86 N 0.84855 0.78589 0.1258 0.0
C87 C 0.81712 0.7874 0.13012 0.0
C88 C 0.79819 0.78874 0.11643 0.0
C89 C 0.81348 0.79168 0.08658 0.0
H90 H 0.82878 0.81152 0.08176 0.0
H91 H 0.82009 0.76904 0.08021 0.0
H92 H 0.78765 0.79747 0.08427 0.0
O93 O 0.91254 0.82942 0.10559 0.0
O94 O 0.91014 0.82997 0.13207 0.0
H95 H 0.81418 0.80982 0.15306 0.0
H96 H 0.77879 0.78605 0.14791 0.0
C97 C 0.80555 0.78751 0.14703 0.0
H98 H 0.81579 0.76631 0.15334 0.0
H99 H 0.87956 0.83995 0.16373 0.0
O100 O 0.88607 0.78563 0.07664 0.0
C101 C 0.91842 0.84306 0.11891 0.0
Co102 Co 0.20869 0.89052 0.60142 0.0
Co103 Co 0.20633 0.88988 0.63897 0.0
C104 C 0.25346 0.93147 0.62061 0.0
O105 O 0.24374 0.92109 0.60715 0.0
O106 O 0.24089 0.92134 0.63353 0.0
C107 C 0.21931 0.90573 0.5686 0.0
O108 O 0.22844 0.93369 0.57462 0.0
C109 C 0.23363 0.87262 0.67013 0.0
C110 C 0.19165 0.879 0.68617 0.0
C111 C 0.22393 0.86953 0.68594 0.0
N112 N 0.20814 0.88286 0.66148 0.0
N113 N 0.18318 0.88683 0.67116 0.0
C114 C 0.2668 0.8674 0.66334 0.0
H115 H 0.26996 0.8815 0.65221 0.0
H116 H 0.27004 0.8414 0.66037 0.0
H117 H 0.28569 0.87443 0.6721 0.0
C118 C 0.21464 0.81989 0.60678 0.0
N119 N 0.21342 0.85056 0.61226 0.0
N120 N 0.21099 0.85005 0.6279 0.0
C121 C 0.20957 0.81898 0.63283 0.0
C122 C 0.21223 0.79884 0.61963 0.0
C123 C 0.21739 0.8112 0.58952 0.0
H124 H 0.23567 0.82698 0.5837 0.0
H125 H 0.22451 0.78545 0.58792 0.0
H126 H 0.1937 0.81546 0.58361 0.0
O127 O 0.16597 0.91026 0.60692 0.0
O128 O 0.1641 0.90934 0.63341 0.0
H129 H 0.1889 0.78457 0.64947 0.0
H130 H 0.22274 0.80755 0.65684 0.0
C131 C 0.20059 0.8088 0.64939 0.0
H132 H 0.18357 0.82652 0.65472 0.0
H133 H 0.16028 0.89458 0.66749 0.0
O134 O 0.20969 0.88347 0.57796 0.0
C135 C 0.15132 0.91619 0.62 0.0
Co136 Co 0.60665 0.28836 0.90698 0.0
Co137 Co 0.60735 0.2902 0.86946 0.0
C138 C 0.56601 0.2431 0.88802 0.0
O139 O 0.57635 0.25293 0.90146 0.0
O140 O 0.57609 0.25565 0.87509 0.0
C141 C 0.59064 0.27965 0.93973 0.0
O142 O 0.56236 0.27187 0.93363 0.0
C143 C 0.6254 0.26184 0.83873 0.0
C144 C 0.6185 0.30283 0.82213 0.0
C145 C 0.62862 0.27077 0.82283 0.0
N146 N 0.6145 0.28757 0.847 0.0
N147 N 0.61019 0.31193 0.83699 0.0
C148 C 0.63121 0.22916 0.84599 0.0
H149 H 0.61681 0.22623 0.85703 0.0
H150 H 0.65717 0.22675 0.84922 0.0
H151 H 0.62495 0.20965 0.83742 0.0
C152 C 0.67738 0.28304 0.90168 0.0
N153 N 0.6467 0.28383 0.8962 0.0
N154 N 0.64716 0.28615 0.88056 0.0
C155 C 0.67818 0.28798 0.87562 0.0
C156 C 0.69837 0.28564 0.88881 0.0
C157 C 0.68613 0.28058 0.91894 0.0
H158 H 0.68185 0.30436 0.92476 0.0
H159 H 0.67041 0.26235 0.92484 0.0
H160 H 0.7119 0.27355 0.92054 0.0
O161 O 0.58644 0.33076 0.90124 0.0
O162 O 0.5875 0.33237 0.87473 0.0
H163 H 0.67008 0.3137 0.85369 0.0
H164 H 0.71212 0.30949 0.85901 0.0
C165 C 0.68821 0.29717 0.85905 0.0
H166 H 0.69011 0.27503 0.85163 0.0
H167 H 0.60194 0.33486 0.84033 0.0
O168 O 0.61356 0.28782 0.93043 0.0
C169 C 0.58041 0.34519 0.88811 0.0
Co170 Co 0.70976 0.60673 0.407 0.0
Co171 Co 0.70827 0.60672 0.36948 0.0
C172 C 0.75663 0.56729 0.38805 0.0
O173 O 0.74591 0.57716 0.40142 0.0
O174 O 0.7443 0.57715 0.37501 0.0
C175 C 0.7364 0.61736 0.43825 0.0
O176 O 0.76402 0.61892 0.43049 0.0
C177 C 0.73509 0.62295 0.33818 0.0
C178 C 0.69281 0.61664 0.32233 0.0
C179 C 0.72521 0.62577 0.32236 0.0
N180 N 0.70971 0.61286 0.34693 0.0
N181 N 0.6846 0.60879 0.33737 0.0
C182 C 0.76708 0.63204 0.3453 0.0
H183 H 0.76464 0.63594 0.35834 0.0
H184 H 0.77673 0.65433 0.3396 0.0
H185 H 0.78458 0.61198 0.34338 0.0
C186 C 0.71185 0.67793 0.40131 0.0
N187 N 0.71253 0.64703 0.39606 0.0
N188 N 0.71098 0.647 0.38038 0.0
C189 C 0.70873 0.67785 0.37518 0.0
C190 C 0.70953 0.69846 0.38824 0.0
C191 C 0.71312 0.68737 0.41851 0.0
H192 H 0.73599 0.67822 0.42378 0.0
H193 H 0.7123 0.71402 0.42017 0.0
H194 H 0.69261 0.67594 0.42496 0.0
O195 O 0.66802 0.58522 0.40151 0.0
O196 O 0.66692 0.58536 0.37502 0.0
H197 H 0.69041 0.71174 0.35761 0.0
H198 H 0.72436 0.68747 0.35136 0.0
C199 C 0.7015 0.68727 0.35831 0.0
H200 H 0.68459 0.66959 0.35288 0.0
H201 H 0.66171 0.60132 0.34116 0.0
O202 O 0.71026 0.61291 0.43051 0.0
C203 C 0.65404 0.57831 0.38838 0.0
Co204 Co 0.3905 0.70867 0.90952 0.0
Co205 Co 0.38762 0.70817 0.87197 0.0
C206 C 0.4296 0.75495 0.89003 0.0
O207 O 0.421 0.7438 0.90353 0.0
O208 O 0.41821 0.74348 0.87713 0.0
C209 C 0.38135 0.73546 0.94078 0.0
O210 O 0.37912 0.76294 0.93293 0.0
C211 C 0.36998 0.73492 0.84055 0.0
C212 C 0.37493 0.69191 0.82505 0.0
C213 C 0.36642 0.72445 0.82488 0.0
N214 N 0.37961 0.70959 0.84951 0.0
N215 N 0.38269 0.68403 0.84014 0.0
C216 C 0.36582 0.76862 0.84688 0.0
H217 H 0.37973 0.77192 0.85805 0.0
H218 H 0.33989 0.77299 0.84961 0.0
H219 H 0.37376 0.78673 0.8379 0.0
C220 C 0.31897 0.71228 0.90505 0.0
N221 N 0.3495 0.71276 0.89927 0.0
N222 N 0.34835 0.71177 0.88359 0.0
C223 C 0.31714 0.71021 0.87892 0.0
C224 C 0.29752 0.71085 0.89232 0.0
C225 C 0.31069 0.71234 0.92241 0.0
H226 H 0.32347 0.6921 0.92845 0.0
H227 H 0.3191 0.7354 0.92778 0.0
H228 H 0.28424 0.71023 0.92448 0.0
O229 O 0.41025 0.66644 0.90359 0.0
O230 O 0.40848 0.66617 0.8771 0.0
H231 H 0.32298 0.68552 0.85658 0.0
H232 H 0.28143 0.69334 0.86185 0.0
C233 C 0.3064 0.7033 0.8622 0.0
H234 H 0.30686 0.72604 0.85518 0.0
H235 H 0.38989 0.66112 0.84407 0.0
O236 O 0.3858 0.70926 0.93309 0.0
C237 C 0.41598 0.65269 0.89027 0.0
Co238 Co 0.28856 0.39118 0.40792 0.0
Co239 Co 0.29001 0.38892 0.37035 0.0
C240 C 0.24261 0.43042 0.38847 0.0
O241 O 0.25338 0.42161 0.402 0.0
O242 O 0.25453 0.41938 0.37558 0.0
C243 C 0.27763 0.4065 0.44084 0.0
O244 O 0.26717 0.43407 0.4349 0.0
C245 C 0.2629 0.37034 0.3393 0.0
C246 C 0.30478 0.37698 0.32323 0.0
C247 C 0.27263 0.36713 0.32351 0.0
N248 N 0.28826 0.38105 0.3479 0.0
N249 N 0.31316 0.38514 0.3382 0.0
C250 C 0.22979 0.36483 0.34612 0.0
H251 H 0.22654 0.37876 0.35728 0.0
H252 H 0.22677 0.33877 0.34902 0.0
H253 H 0.21082 0.37183 0.33739 0.0
C254 C 0.28356 0.32023 0.40324 0.0
N255 N 0.28417 0.3507 0.39745 0.0
N256 N 0.28639 0.34958 0.38182 0.0
C257 C 0.28827 0.31837 0.37718 0.0
C258 C 0.28614 0.29872 0.39057 0.0
C259 C 0.28123 0.31215 0.42058 0.0
H260 H 0.26269 0.32777 0.42631 0.0
H261 H 0.27469 0.28633 0.42245 0.0
H262 H 0.30491 0.31712 0.42636 0.0
O263 O 0.33092 0.41106 0.40212 0.0
O264 O 0.33185 0.40969 0.37562 0.0
H265 H 0.30909 0.28362 0.36074 0.0
H266 H 0.27486 0.306 0.35331 0.0
C267 C 0.29711 0.30772 0.36066 0.0
H268 H 0.31384 0.32544 0.35513 0.0
H269 H 0.33594 0.39329 0.34183 0.0
O270 O 0.28803 0.3847 0.43142 0.0
C271 C 0.34498 0.417 0.3889 0.0
Co272 Co 0.91414 0.77361 0.8666 0.0
Co273 Co 0.84766 0.81048 0.86788 0.0
C274 C 0.87639 0.77993 0.89704 0.0
O275 O 0.90058 0.76968 0.88911 0.0
O276 O 0.85386 0.79602 0.89033 0.0
C277 C 0.95923 0.72248 0.87281 0.0
O278 O 0.93661 0.71237 0.88265 0.0
C279 C 0.77708 0.82013 0.87176 0.0
C280 C 0.76921 0.86445 0.85745 0.0
C281 C 0.75319 0.84143 0.86653 0.0
N282 N 0.80574 0.82982 0.86576 0.0
N283 N 0.80086 0.85646 0.85733 0.0
C284 C 0.77297 0.79151 0.88257 0.0
H285 H 0.79515 0.78726 0.88965 0.0
H286 H 0.76844 0.7695 0.87531 0.0
H287 H 0.7522 0.79518 0.89079 0.0
C288 C 0.88221 0.74172 0.83931 0.0
N289 N 0.88122 0.76104 0.85224 0.0
N290 N 0.8531 0.7761 0.85278 0.0
C291 C 0.83509 0.76651 0.84021 0.0
C292 C 0.85297 0.74453 0.83118 0.0
C293 C 0.9123 0.72476 0.83381 0.0
H294 H 0.93319 0.74164 0.83452 0.0
H295 H 0.91736 0.70406 0.8419 0.0
H296 H 0.91008 0.71571 0.82142 0.0
O297 O 0.92665 0.81899 0.86241 0.0
O298 O 0.87971 0.84528 0.86342 0.0
H299 H 0.8035 0.80529 0.83346 0.0
H300 H 0.79027 0.76575 0.82666 0.0
C301 C 0.80189 0.7792 0.83657 0.0
H302 H 0.78639 0.77677 0.84726 0.0
H303 H 0.81913 0.86905 0.85135 0.0
O304 O 0.95381 0.74721 0.86416 0.0
C305 C 0.91037 0.84517 0.86154 0.0
Co306 Co 0.21886 0.91516 0.36791 0.0
Co307 Co 0.18165 0.84899 0.36862 0.0
C308 C 0.21195 0.87686 0.39808 0.0
O309 O 0.22262 0.90114 0.39036 0.0
O310 O 0.19569 0.85475 0.39116 0.0
C311 C 0.27052 0.95982 0.37401 0.0
O312 O 0.28115 0.93696 0.38359 0.0
C313 C 0.17142 0.77859 0.37245 0.0
C314 C 0.1292 0.77037 0.35673 0.0
C315 C 0.15115 0.75453 0.36651 0.0
N316 N 0.16229 0.80717 0.36616 0.0
N317 N 0.13683 0.80211 0.35692 0.0
C318 C 0.19859 0.77472 0.38415 0.0
H319 H 0.19971 0.7958 0.39225 0.0
H320 H 0.22194 0.77336 0.37762 0.0
H321 H 0.19552 0.75248 0.39143 0.0
C322 C 0.25146 0.8835 0.3407 0.0
N323 N 0.23162 0.8825 0.35344 0.0
N324 N 0.21649 0.85442 0.35379 0.0
C325 C 0.22658 0.83643 0.3413 0.0
C326 C 0.24894 0.85431 0.33251 0.0
C327 C 0.2688 0.91354 0.33543 0.0
H328 H 0.25209 0.93458 0.33611 0.0
H329 H 0.28935 0.91825 0.34364 0.0
H330 H 0.27813 0.91143 0.32308 0.0
O331 O 0.17362 0.92808 0.36362 0.0
O332 O 0.14714 0.88124 0.36401 0.0
H333 H 0.18837 0.80476 0.33395 0.0
H334 H 0.22839 0.79145 0.32793 0.0
C335 C 0.2142 0.80318 0.33756 0.0
H336 H 0.21581 0.78781 0.34835 0.0
H337 H 0.12497 0.82029 0.35053 0.0
O338 O 0.24533 0.95468 0.36566 0.0
C339 C 0.14743 0.91196 0.3624 0.0
Co340 Co 0.08364 0.2174 0.86669 0.0
Co341 Co 0.14823 0.17785 0.86741 0.0
C342 C 0.12158 0.21026 0.89678 0.0
O343 O 0.09747 0.22148 0.88912 0.0
O344 O 0.14307 0.19318 0.88983 0.0
C345 C 0.0382 0.26854 0.8728 0.0
O346 O 0.06014 0.27846 0.88305 0.0
C347 C 0.21849 0.17115 0.86982 0.0
C348 C 0.22631 0.12009 0.86276 0.0
C349 C 0.24234 0.14776 0.86781 0.0
N350 N 0.18977 0.158 0.86598 0.0
N351 N 0.19457 0.1275 0.86174 0.0
C352 C 0.22237 0.20468 0.87641 0.0
H353 H 0.19872 0.21454 0.8804 0.0
H354 H 0.23199 0.22096 0.86703 0.0
H355 H 0.23984 0.20455 0.88648 0.0
C356 C 0.11712 0.2498 0.83983 0.0
N357 N 0.11693 0.22914 0.85225 0.0
N358 N 0.1438 0.2119 0.85213 0.0
C359 C 0.16165 0.22059 0.83934 0.0
C360 C 0.14546 0.2451 0.83117 0.0
C361 C 0.08999 0.27267 0.83609 0.0
H362 H 0.06894 0.25867 0.83157 0.0
H363 H 0.08234 0.28532 0.84713 0.0
H364 H 0.09728 0.29096 0.82708 0.0
O365 O 0.06971 0.17205 0.86267 0.0
O366 O 0.11562 0.14398 0.86312 0.0
H367 H 0.18822 0.1762 0.83622 0.0
H368 H 0.19472 0.20562 0.82067 0.0
C369 C 0.19093 0.20242 0.83366 0.0
H370 H 0.21267 0.21156 0.83999 0.0
H371 H 0.17613 0.11161 0.85838 0.0
O372 O 0.04433 0.2442 0.86401 0.0
C373 C 0.08494 0.14527 0.86155 0.0
Co374 Co 0.77576 0.08433 0.36633 0.0
Co375 Co 0.81349 0.15014 0.36774 0.0
C376 C 0.78134 0.12244 0.39669 0.0
O377 O 0.77109 0.09819 0.38879 0.0
O378 O 0.79793 0.14465 0.39002 0.0
C379 C 0.72469 0.03833 0.37196 0.0
O380 O 0.71415 0.06003 0.38219 0.0
C381 C 0.82303 0.2196 0.37276 0.0
C382 C 0.86777 0.22942 0.35906 0.0
C383 C 0.84446 0.24407 0.36852 0.0
N384 N 0.83302 0.19187 0.36597 0.0
N385 N 0.85982 0.19783 0.35784 0.0
C386 C 0.7948 0.22149 0.38396 0.0
H387 H 0.77375 0.20846 0.37878 0.0
H388 H 0.788 0.24676 0.3869 0.0
H389 H 0.80136 0.20901 0.39521 0.0
C390 C 0.74449 0.11696 0.33897 0.0
N391 N 0.76403 0.11734 0.35183 0.0
N392 N 0.7794 0.14527 0.35249 0.0
C393 C 0.76973 0.16382 0.34014 0.0
C394 C 0.74743 0.14645 0.33106 0.0
C395 C 0.72687 0.08732 0.3334 0.0
H396 H 0.74316 0.06596 0.33421 0.0
H397 H 0.70585 0.08288 0.34136 0.0
H398 H 0.71821 0.08976 0.32096 0.0
O399 O 0.8211 0.07129 0.36256 0.0
O400 O 0.84817 0.11774 0.36357 0.0
H401 H 0.80823 0.19597 0.33369 0.0
H402 H 0.76851 0.20946 0.32726 0.0
C403 C 0.78219 0.19728 0.33693 0.0
H404 H 0.77991 0.21212 0.34787 0.0
H405 H 0.87271 0.18032 0.35147 0.0
O406 O 0.74945 0.04472 0.36351 0.0
C407 C 0.84757 0.08706 0.3618 0.0
Co408 Co 0.4109 0.72178 0.14135 0.0
Co409 Co 0.34486 0.68415 0.14116 0.0
C410 C 0.37039 0.71519 0.1116 0.0
O411 O 0.39546 0.72474 0.11906 0.0
O412 O 0.34802 0.69955 0.11869 0.0
C413 C 0.45645 0.77133 0.13305 0.0
O414 O 0.43482 0.77879 0.12216 0.0
C415 C 0.27531 0.67077 0.13743 0.0
C416 C 0.26722 0.6326 0.15549 0.0
C417 C 0.25142 0.65157 0.1443 0.0
N418 N 0.30374 0.66392 0.14448 0.0
N419 N 0.29882 0.6408 0.15512 0.0
C420 C 0.27198 0.69395 0.12379 0.0
H421 H 0.28857 0.68629 0.11413 0.0
H422 H 0.27936 0.71858 0.12769 0.0
H423 H 0.2471 0.6945 0.11884 0.0
C424 C 0.38003 0.75386 0.16895 0.0
N425 N 0.3788 0.73399 0.15623 0.0
N426 N 0.35072 0.71885 0.15601 0.0
C427 C 0.33285 0.7292 0.16847 0.0
C428 C 0.3509 0.75149 0.17722 0.0
C429 C 0.41014 0.77128 0.17405 0.0
H430 H 0.43138 0.75497 0.17277 0.0
H431 H 0.41401 0.79246 0.16613 0.0
H432 H 0.40864 0.7797 0.18658 0.0
O433 O 0.42465 0.67692 0.14553 0.0
O434 O 0.37813 0.64992 0.1449 0.0
H435 H 0.30038 0.69258 0.17682 0.0
H436 H 0.28703 0.73351 0.18091 0.0
C437 C 0.29924 0.71765 0.17207 0.0
H438 H 0.28466 0.71746 0.16099 0.0
H439 H 0.31695 0.63108 0.16237 0.0
O440 O 0.45021 0.74899 0.14302 0.0
C441 C 0.40886 0.65049 0.14649 0.0
Co442 Co 0.27978 0.41318 0.64144 0.0
Co443 Co 0.31909 0.34835 0.64065 0.0
C444 C 0.28729 0.37558 0.61125 0.0
O445 O 0.276 0.39955 0.61899 0.0
O446 O 0.30425 0.35392 0.61815 0.0
C447 C 0.22912 0.45892 0.63507 0.0
O448 O 0.21985 0.43734 0.6245 0.0
C449 C 0.32561 0.27804 0.63794 0.0
C450 C 0.37604 0.26979 0.6459 0.0
C451 C 0.34868 0.25397 0.64029 0.0
N452 N 0.33864 0.30663 0.64212 0.0
N453 N 0.36877 0.30157 0.64689 0.0
C454 C 0.29251 0.27449 0.6308 0.0
H455 H 0.28327 0.29817 0.62653 0.0
H456 H 0.27545 0.26538 0.63996 0.0
H457 H 0.29304 0.25681 0.62083 0.0
C458 C 0.24683 0.37948 0.66804 0.0
N459 N 0.26775 0.37977 0.65572 0.0
N460 N 0.28481 0.35279 0.65581 0.0
C461 C 0.27571 0.33472 0.66845 0.0
C462 C 0.25115 0.35092 0.67657 0.0
C463 C 0.22399 0.40664 0.67176 0.0
H464 H 0.23797 0.42757 0.67643 0.0
H465 H 0.21161 0.41452 0.66069 0.0
H466 H 0.20548 0.39929 0.68065 0.0
O467 O 0.32514 0.42684 0.64557 0.0
O468 O 0.35308 0.38083 0.64509 0.0
H469 H 0.3198 0.30785 0.67185 0.0
H470 H 0.28954 0.30067 0.68692 0.0
C471 C 0.29345 0.3051 0.67402 0.0
H472 H 0.28462 0.28371 0.66731 0.0
H473 H 0.38449 0.31984 0.65064 0.0
O474 O 0.25298 0.45253 0.64413 0.0
C475 C 0.35187 0.41151 0.64669 0.0
Co476 Co 0.58173 0.27958 0.14063 0.0
Co477 Co 0.64794 0.31678 0.13944 0.0
C478 C 0.61951 0.28611 0.11024 0.0
O479 O 0.59533 0.27561 0.1181 0.0
O480 O 0.64181 0.30237 0.11702 0.0
C481 C 0.53732 0.22763 0.13484 0.0
O482 O 0.56004 0.21729 0.12511 0.0
C483 C 0.71816 0.32699 0.13508 0.0
C484 C 0.72715 0.36862 0.15107 0.0
C485 C 0.74254 0.34686 0.14103 0.0
N486 N 0.68983 0.33612 0.14164 0.0
N487 N 0.69534 0.36127 0.15102 0.0
C488 C 0.72144 0.30018 0.12314 0.0
H489 H 0.7009 0.30067 0.1147 0.0
H490 H 0.72104 0.27649 0.1294 0.0
H491 H 0.74424 0.30237 0.11621 0.0
C492 C 0.61404 0.24745 0.16781 0.0
N493 N 0.6147 0.26711 0.155 0.0
N494 N 0.64283 0.28211 0.15437 0.0
C495 C 0.66122 0.27202 0.16671 0.0
C496 C 0.64354 0.24991 0.17574 0.0
C497 C 0.58412 0.2303 0.17339 0.0
H498 H 0.56301 0.24689 0.17255 0.0
H499 H 0.5794 0.20929 0.16546 0.0
H500 H 0.58642 0.22164 0.18584 0.0
O501 O 0.56885 0.32488 0.14478 0.0
O502 O 0.6157 0.35134 0.14404 0.0
H503 H 0.69367 0.3098 0.17379 0.0
H504 H 0.70693 0.26956 0.17945 0.0
C505 C 0.69479 0.28403 0.17004 0.0
H506 H 0.70953 0.28245 0.15905 0.0
H507 H 0.67744 0.37303 0.15765 0.0
O508 O 0.54239 0.2529 0.14314 0.0
C509 C 0.58501 0.3511 0.1458 0.0
Co510 Co 0.72216 0.58638 0.63896 0.0
Co511 Co 0.68441 0.65221 0.6385 0.0
C512 C 0.71619 0.62665 0.60912 0.0
O513 O 0.72574 0.6016 0.61662 0.0
O514 O 0.7003 0.64893 0.61615 0.0
C515 C 0.77064 0.53914 0.63094 0.0
O516 O 0.77688 0.5588 0.61901 0.0
C517 C 0.6737 0.72167 0.63475 0.0
C518 C 0.62826 0.72964 0.6482 0.0
C519 C 0.65148 0.74532 0.63911 0.0
N520 N 0.6642 0.69336 0.64109 0.0
N521 N 0.63703 0.69822 0.64912 0.0
C522 C 0.70194 0.72478 0.62363 0.0
H523 H 0.72172 0.70821 0.6274 0.0
H524 H 0.71114 0.74993 0.62289 0.0
H525 H 0.69402 0.7174 0.61154 0.0
C526 C 0.75351 0.61753 0.66671 0.0
N527 N 0.73395 0.61866 0.65387 0.0
N528 N 0.7185 0.64659 0.65364 0.0
C529 C 0.72814 0.66438 0.66626 0.0
C530 C 0.75051 0.64651 0.67506 0.0
C531 C 0.77116 0.58754 0.67183 0.0
H532 H 0.75467 0.56636 0.671 0.0
H533 H 0.79178 0.58322 0.66361 0.0
H534 H 0.78037 0.58943 0.6842 0.0
O535 O 0.67711 0.57263 0.64291 0.0
O536 O 0.6501 0.61915 0.64211 0.0
H537 H 0.68954 0.69601 0.67321 0.0
H538 H 0.72924 0.70919 0.67981 0.0
C539 C 0.71557 0.69759 0.66996 0.0
H540 H 0.71774 0.7131 0.65924 0.0
H541 H 0.62434 0.68003 0.6551 0.0
O542 O 0.74936 0.54708 0.64118 0.0
C543 C 0.65066 0.58844 0.64373 0.0
H544 H 0.064 0.11449 0.14463 0.0
H545 H 0.03738 0.06157 0.1446 0.0
H546 H 0.03648 0.0618 0.09323 0.0
H547 H 0.06337 0.11463 0.09307 0.0
H548 H 0.97673 0.04586 0.13087 0.0
H549 H 0.07689 0.97333 0.10459 0.0
H550 H 0.08307 0.01328 0.11287 0.0
H551 H 0.06569 0.00872 0.09337 0.0
C552 C 0.05834 0.10326 0.1333 0.0
C553 C 0.06594 0.1188 0.11884 0.0
C554 C 0.04309 0.07303 0.13333 0.0
C555 C 0.03536 0.05765 0.11892 0.0
C556 C 0.0428 0.07304 0.10447 0.0
H557 H 0.93887 0.87885 0.09333 0.0
H558 H 0.96664 0.93116 0.09367 0.0
C559 C 0.05802 0.10331 0.10442 0.0
C560 C 0.01856 0.02597 0.11904 0.0
H561 H 0.02619 0.94691 0.10761 0.0
C562 C 0.98756 0.02416 0.12586 0.0
C563 C 0.03281 0.9978 0.11246 0.0
C564 C 0.06656 0.99815 0.10552 0.0
C565 C 0.97008 0.99497 0.12601 0.0
C566 C 0.98432 0.96679 0.11942 0.0
C567 C 0.01537 0.96859 0.11263 0.0
C568 C 0.96731 0.93519 0.11936 0.0
C569 C 0.93626 0.99474 0.13287 0.0
C570 C 0.95881 0.91999 0.13372 0.0
C571 C 0.94284 0.89011 0.1336 0.0
C572 C 0.9353 0.87477 0.11909 0.0
C573 C 0.9442 0.88998 0.10472 0.0
C574 C 0.96012 0.91986 0.10488 0.0
H575 H 0.92592 0.01957 0.13366 0.0
H576 H 0.91979 0.97948 0.12557 0.0
H577 H 0.93703 0.98446 0.14509 0.0
H578 H 0.96474 0.93113 0.14504 0.0
H579 H 0.93654 0.87902 0.14488 0.0
H580 H 0.11337 0.93349 0.64537 0.0
H581 H 0.06046 0.96003 0.64477 0.0
H582 H 0.06273 0.9606 0.5934 0.0
H583 H 0.11594 0.9344 0.59383 0.0
H584 H 0.04525 0.02021 0.60686 0.0
H585 H 0.97323 0.91948 0.63279 0.0
H586 H 0.00771 0.93114 0.64453 0.0
H587 H 0.01372 0.91379 0.6251 0.0
C588 C 0.10261 0.93907 0.63392 0.0
C589 C 0.11891 0.93169 0.61963 0.0
C590 C 0.07226 0.95409 0.63361 0.0
C591 C 0.05749 0.96179 0.61904 0.0
C592 C 0.07368 0.95465 0.60477 0.0
H593 H 0.87766 0.05782 0.59258 0.0
H594 H 0.93009 0.03019 0.59259 0.0
C595 C 0.10407 0.93964 0.60505 0.0
C596 C 0.02561 0.97828 0.61871 0.0
H597 H 0.94656 0.97029 0.63013 0.0
C598 C 0.02361 0.00925 0.61185 0.0
C599 C 0.99749 0.96389 0.62528 0.0
C600 C 0.99795 0.93012 0.63222 0.0
C601 C 0.9943 0.02654 0.61166 0.0
C602 C 0.96623 0.01221 0.61828 0.0
C603 C 0.9682 0.9812 0.6251 0.0
C604 C 0.93452 0.02902 0.61827 0.0
C605 C 0.99378 0.0603 0.6047 0.0
C606 C 0.91937 0.03688 0.63272 0.0
C607 C 0.88933 0.05256 0.63278 0.0
C608 C 0.87379 0.06047 0.61836 0.0
C609 C 0.88899 0.05226 0.6039 0.0
C610 C 0.91904 0.03661 0.60387 0.0
H611 H 0.01855 0.07068 0.6037 0.0
H612 H 0.98308 0.05939 0.59258 0.0
H613 H 0.9787 0.07679 0.61209 0.0
H614 H 0.93091 0.03105 0.64396 0.0
H615 H 0.87832 0.05842 0.64414 0.0
H616 H 0.43351 0.61651 0.86428 0.0
H617 H 0.46088 0.5639 0.86408 0.0
H618 H 0.46286 0.56376 0.91545 0.0
H619 H 0.43526 0.61618 0.91584 0.0
H620 H 0.52205 0.54873 0.87752 0.0
H621 H 0.42327 0.47498 0.90418 0.0
H622 H 0.41646 0.5149 0.89598 0.0
H623 H 0.43422 0.51041 0.91541 0.0
C624 C 0.43957 0.60525 0.87556 0.0
C625 C 0.43207 0.62056 0.89009 0.0
C626 C 0.45524 0.57521 0.8754 0.0
C627 C 0.46348 0.55982 0.88974 0.0
C628 C 0.45615 0.57499 0.90425 0.0
H629 H 0.56172 0.38064 0.91416 0.0
H630 H 0.53434 0.43326 0.91441 0.0
C631 C 0.44051 0.60505 0.90444 0.0
C632 C 0.48067 0.52832 0.88952 0.0
H633 H 0.47425 0.44917 0.90098 0.0
C634 C 0.51159 0.5269 0.88257 0.0
C635 C 0.46692 0.49999 0.89617 0.0
C636 C 0.43328 0.49992 0.90324 0.0
C637 C 0.52943 0.49792 0.88235 0.0
C638 C 0.51567 0.46957 0.889 0.0
C639 C 0.48474 0.471 0.89593 0.0
C640 C 0.53284 0.43805 0.88876 0.0
C641 C 0.5631 0.49807 0.87531 0.0
C642 C 0.5408 0.42324 0.87423 0.0
C643 C 0.55651 0.39323 0.87402 0.0
C644 C 0.56434 0.37733 0.88836 0.0
C645 C 0.55615 0.39222 0.9029 0.0
C646 C 0.54046 0.42227 0.90308 0.0
H647 H 0.57322 0.523 0.87461 0.0
H648 H 0.57984 0.48275 0.88244 0.0
H649 H 0.56213 0.4881 0.86304 0.0
H650 H 0.53452 0.43472 0.86304 0.0
H651 H 0.56225 0.38241 0.86261 0.0
H652 H 0.6186 0.5596 0.41443 0.0
H653 H 0.56628 0.53178 0.41469 0.0
H654 H 0.56529 0.53096 0.36332 0.0
H655 H 0.61738 0.55913 0.36288 0.0
H656 H 0.50688 0.5515 0.37701 0.0
H657 H 0.54962 0.43617 0.40402 0.0
H658 H 0.55992 0.47191 0.41515 0.0
H659 H 0.57704 0.46578 0.39569 0.0
C660 C 0.60734 0.55346 0.40317 0.0
C661 C 0.62229 0.56151 0.38863 0.0
C662 C 0.57752 0.53738 0.40336 0.0
C663 C 0.56222 0.52888 0.38903 0.0
C664 C 0.57684 0.53716 0.37451 0.0
H665 H 0.38199 0.43413 0.36315 0.0
H666 H 0.43454 0.46144 0.36325 0.0
C667 C 0.60664 0.55325 0.37429 0.0
C668 C 0.53053 0.51205 0.38915 0.0
H669 H 0.49275 0.44253 0.40112 0.0
C670 C 0.50377 0.52762 0.38221 0.0
C671 C 0.52664 0.48093 0.39598 0.0
C672 C 0.55486 0.46252 0.40301 0.0
C673 C 0.47302 0.51309 0.38213 0.0
C674 C 0.46914 0.48198 0.38896 0.0
C675 C 0.49587 0.46642 0.39592 0.0
C676 C 0.4375 0.46509 0.38892 0.0
C677 C 0.44483 0.53141 0.37502 0.0
C678 C 0.42218 0.45739 0.40335 0.0
C679 C 0.39219 0.44164 0.40337 0.0
C680 C 0.37707 0.43313 0.38893 0.0
C681 C 0.39281 0.44048 0.37449 0.0
C682 C 0.42278 0.45624 0.3745 0.0
H683 H 0.45008 0.55774 0.3739 0.0
H684 H 0.43974 0.5218 0.36293 0.0
H685 H 0.42264 0.52828 0.38236 0.0
H686 H 0.4333 0.46388 0.4146 0.0
H687 H 0.38083 0.43628 0.4147 0.0
H688 H 0.10921 0.08397 0.85787 0.0
H689 H 0.07877 0.03348 0.8552 0.0
H690 H 0.98892 0.08687 0.85705 0.0
H691 H 0.01907 0.13762 0.85951 0.0
H692 H 0.03507 0.01001 0.87756 0.0
H693 H 0.97536 0.02663 0.81882 0.0
H694 H 0.0094 0.05095 0.82517 0.0
H695 H 0.96938 0.05954 0.83253 0.0
C696 C 0.08297 0.08509 0.85753 0.0
C697 C 0.06658 0.11488 0.85894 0.0
C698 C 0.06564 0.05619 0.85599 0.0
C699 C 0.03164 0.0565 0.85574 0.0
C700 C 0.01517 0.08618 0.85689 0.0
H701 H 0.88473 0.90651 0.86069 0.0
H702 H 0.91426 0.95781 0.85857 0.0
C703 C 0.03247 0.11514 0.8584 0.0
C704 C 0.0135 0.02557 0.85548 0.0
H705 H 0.95763 0.98191 0.83447 0.0
C706 C 0.01831 0.00375 0.86809 0.0
C707 C 0.99149 0.01766 0.84316 0.0
C708 C 0.98623 0.03977 0.82907 0.0
C709 C 0.00137 0.97434 0.86883 0.0
C710 C 0.97946 0.96634 0.85649 0.0
C711 C 0.97451 0.98817 0.84389 0.0
C712 C 0.96148 0.93534 0.85655 0.0
C713 C 0.00655 0.95239 0.883 0.0
C714 C 0.97825 0.90582 0.8557 0.0
C715 C 0.96154 0.87651 0.85695 0.0
C716 C 0.92768 0.87619 0.85899 0.0
C717 C 0.91081 0.90587 0.85921 0.0
C718 C 0.9276 0.9352 0.85798 0.0
H719 H 0.01786 0.96547 0.89316 0.0
H720 H 0.98326 0.94171 0.88707 0.0
H721 H 0.02295 0.93224 0.87955 0.0
H722 H 0.00437 0.90547 0.85431 0.0
H723 H 0.97529 0.85413 0.85658 0.0
H724 H 0.0866 0.88619 0.359 0.0
H725 H 0.03542 0.91557 0.35608 0.0
H726 H 0.08702 0.00648 0.35702 0.0
H727 H 0.1383 0.97747 0.35972 0.0
H728 H 0.01084 0.95958 0.37787 0.0
H729 H 0.02685 0.01784 0.3188 0.0
H730 H 0.05185 0.98453 0.32548 0.0
H731 H 0.05971 0.02506 0.33237 0.0
C732 C 0.08714 0.91243 0.3584 0.0
C733 C 0.11658 0.92946 0.35962 0.0
C734 C 0.05787 0.92915 0.35672 0.0
C735 C 0.0575 0.96315 0.35612 0.0
C736 C 0.08684 0.98022 0.3571 0.0
H737 H 0.90943 0.11143 0.36103 0.0
H738 H 0.96013 0.08081 0.35894 0.0
C739 C 0.11612 0.96355 0.35876 0.0
C740 C 0.0263 0.98085 0.35571 0.0
H741 H 0.9828 0.03688 0.33469 0.0
C742 C 0.00455 0.97625 0.36836 0.0
C743 C 0.01834 0.00273 0.34332 0.0
C744 C 0.04026 0.00768 0.32914 0.0
C745 C 0.97529 0.99346 0.36915 0.0
C746 C 0.96738 0.01545 0.35681 0.0
C747 C 0.98903 0.01999 0.34412 0.0
C748 C 0.93673 0.03404 0.35701 0.0
C749 C 0.95346 0.9886 0.38339 0.0
C750 C 0.90689 0.01786 0.35624 0.0
C751 C 0.87793 0.03519 0.35747 0.0
C752 C 0.87828 0.06909 0.35942 0.0
C753 C 0.90828 0.08534 0.35962 0.0
C754 C 0.93727 0.06793 0.3584 0.0
H755 H 0.96646 0.97696 0.39348 0.0
H756 H 0.94329 0.01208 0.38753 0.0
H757 H 0.93294 0.97265 0.37998 0.0
H758 H 0.90603 0.99175 0.35488 0.0
H759 H 0.8553 0.0219 0.35712 0.0
H760 H 0.51949 0.36044 0.14819 0.0
H761 H 0.49056 0.41192 0.15049 0.0
H762 H 0.58161 0.46319 0.15188 0.0
H763 H 0.6109 0.41187 0.14935 0.0
H764 H 0.49295 0.46132 0.17368 0.0
H765 H 0.53354 0.50492 0.11428 0.0
H766 H 0.53785 0.46324 0.12049 0.0
H767 H 0.56576 0.49348 0.12753 0.0
C768 C 0.53345 0.38261 0.14906 0.0
C769 C 0.56755 0.38204 0.1484 0.0
C770 C 0.51683 0.412 0.1504 0.0
C771 C 0.53395 0.44132 0.15108 0.0
C772 C 0.56797 0.44081 0.15105 0.0
H773 H 0.47429 0.64261 0.14998 0.0
H774 H 0.50431 0.59186 0.15253 0.0
C775 C 0.58464 0.41144 0.14966 0.0
C776 C 0.51613 0.47245 0.15135 0.0
H777 H 0.50345 0.54171 0.12999 0.0
C778 C 0.49519 0.47894 0.16415 0.0
C779 C 0.51906 0.49524 0.13884 0.0
C780 C 0.54002 0.48886 0.12442 0.0
C781 C 0.4774 0.50795 0.16487 0.0
C782 C 0.48037 0.53069 0.15235 0.0
C783 C 0.50137 0.52422 0.13959 0.0
C784 C 0.46171 0.56132 0.15207 0.0
C785 C 0.45597 0.51424 0.17911 0.0
C786 C 0.42776 0.56091 0.15099 0.0
C787 C 0.41043 0.5899 0.14951 0.0
C788 C 0.42683 0.6198 0.14899 0.0
C789 C 0.46085 0.62006 0.15033 0.0
C790 C 0.47809 0.59109 0.1518 0.0
H791 H 0.46248 0.49847 0.18935 0.0
H792 H 0.45759 0.53999 0.18291 0.0
H793 H 0.4304 0.50914 0.17584 0.0
H794 H 0.41472 0.53811 0.15088 0.0
H795 H 0.38428 0.58881 0.14847 0.0
H796 H 0.41326 0.38723 0.65004 0.0
H797 H 0.46385 0.4177 0.65218 0.0
H798 H 0.41038 0.50754 0.65064 0.0
H799 H 0.35957 0.47737 0.64871 0.0
H800 H 0.48629 0.46108 0.62943 0.0
H801 H 0.47235 0.52178 0.68807 0.0
H802 H 0.44775 0.48764 0.68212 0.0
H803 H 0.43877 0.52758 0.67475 0.0
C804 C 0.41216 0.41347 0.65036 0.0
C805 C 0.38232 0.42985 0.64918 0.0
C806 C 0.44111 0.43082 0.65159 0.0
C807 C 0.44081 0.46483 0.65175 0.0
C808 C 0.41109 0.48128 0.65087 0.0
H809 H 0.58895 0.61313 0.64481 0.0
H810 H 0.53815 0.58288 0.64731 0.0
C811 C 0.38208 0.46396 0.64966 0.0
C812 C 0.47172 0.48303 0.65158 0.0
H813 H 0.51597 0.53975 0.67171 0.0
C814 C 0.49291 0.4781 0.63873 0.0
C815 C 0.4801 0.50537 0.66368 0.0
C816 C 0.45871 0.51078 0.67802 0.0
C817 C 0.52211 0.49529 0.63751 0.0
C818 C 0.53055 0.51758 0.64961 0.0
C819 C 0.50937 0.52259 0.66247 0.0
C820 C 0.56131 0.53594 0.64905 0.0
C821 C 0.54333 0.48998 0.62308 0.0
C822 C 0.59109 0.51955 0.64956 0.0
C823 C 0.62012 0.53668 0.64808 0.0
C824 C 0.61991 0.57058 0.64617 0.0
C825 C 0.59 0.58703 0.64619 0.0
C826 C 0.56095 0.56983 0.64764 0.0
H827 H 0.52979 0.47837 0.61316 0.0
H828 H 0.5536 0.51327 0.61877 0.0
H829 H 0.56377 0.4738 0.62635 0.0
H830 H 0.59184 0.49344 0.65093 0.0
H831 H 0.64269 0.52324 0.64827 0.0
H832 H 0.05095 0.23888 0.04343 0.0
H833 H 0.06091 0.23952 0.0147 0.0
H834 H 0.15642 0.19991 0.02232 0.0
H835 H 0.14671 0.19905 0.0511 0.0
H836 H 0.11299 0.27152 0.99758 0.0
H837 H 0.11318 0.13754 0.98964 0.0
H838 H 0.09643 0.15689 0.0071 0.0
H839 H 0.13956 0.15321 0.00486 0.0
C840 C 0.07408 0.23025 0.03902 0.0
C841 C 0.09797 0.21873 0.04957 0.0
C842 C 0.07974 0.23071 0.0226 0.0
C843 C 0.10924 0.21945 0.01639 0.0
C844 C 0.1333 0.20828 0.02687 0.0
H845 H 0.16895 0.18992 0.91749 0.0
H846 H 0.16906 0.19465 0.94657 0.0
C847 C 0.12773 0.20791 0.04331 0.0
C848 C 0.1147 0.21942 0.99894 0.0
H849 H 0.12411 0.16926 0.96692 0.0
C850 C 0.11552 0.2492 0.99086 0.0
C851 C 0.11816 0.19025 0.99025 0.0
C852 C 0.11658 0.15758 0.99832 0.0
C853 C 0.11967 0.25059 0.97426 0.0
C854 C 0.12234 0.22138 0.9655 0.0
C855 C 0.12212 0.19163 0.97365 0.0
C856 C 0.1237 0.22093 0.94782 0.0
C857 C 0.12143 0.28336 0.9663 0.0
C858 C 0.09824 0.23423 0.93885 0.0
C859 C 0.09815 0.2317 0.92226 0.0
C860 C 0.12338 0.21546 0.91425 0.0
C861 C 0.14916 0.20261 0.92325 0.0
C862 C 0.14925 0.20525 0.93988 0.0
H863 H 0.12936 0.30246 0.97478 0.0
H864 H 0.13838 0.28303 0.95602 0.0
H865 H 0.09699 0.2901 0.96187 0.0
H866 H 0.07788 0.24575 0.94472 0.0
H867 H 0.0778 0.24173 0.91575 0.0
H868 H 0.74922 0.07799 0.41502 0.0
H869 H 0.74579 0.07609 0.44405 0.0
H870 H 0.79855 0.16609 0.44716 0.0
H871 H 0.80216 0.16832 0.41808 0.0
H872 H 0.80223 0.07509 0.4641 0.0
H873 H 0.72037 0.17854 0.47797 0.0
H874 H 0.72196 0.15989 0.4585 0.0
H875 H 0.75352 0.18707 0.46469 0.0
C876 C 0.7597 0.09769 0.42182 0.0
C877 C 0.77605 0.1233 0.41417 0.0
C878 C 0.75772 0.09651 0.43843 0.0
C879 C 0.77172 0.12104 0.44772 0.0
C880 C 0.78716 0.14717 0.44018 0.0
H881 H 0.79655 0.14342 0.5503 0.0
H882 H 0.79597 0.1513 0.52137 0.0
C883 C 0.78928 0.14834 0.42354 0.0
C884 C 0.77234 0.11782 0.4653 0.0
H885 H 0.74505 0.15199 0.49985 0.0
C886 C 0.78965 0.09183 0.47193 0.0
C887 C 0.75618 0.13991 0.47544 0.0
C888 C 0.73672 0.16784 0.46886 0.0
C889 C 0.79144 0.08738 0.48848 0.0
C890 C 0.77477 0.10909 0.49865 0.0
C891 C 0.75772 0.13533 0.49202 0.0
C892 C 0.77443 0.10463 0.51619 0.0
C893 C 0.8117 0.05982 0.49489 0.0
C894 C 0.76199 0.07604 0.52289 0.0
C895 C 0.76249 0.07136 0.53937 0.0
C896 C 0.7751 0.09537 0.54952 0.0
C897 C 0.78682 0.12437 0.54281 0.0
C898 C 0.78645 0.12895 0.52629 0.0
H899 H 0.83006 0.05162 0.48608 0.0
H900 H 0.82439 0.06694 0.50602 0.0
H901 H 0.7957 0.03891 0.4976 0.0
H902 H 0.75188 0.05728 0.51535 0.0
H903 H 0.75296 0.04889 0.54414 0.0
H904 H 0.92191 0.7494 0.9154 0.0
H905 H 0.92409 0.74626 0.94441 0.0
H906 H 0.83279 0.7968 0.94758 0.0
H907 H 0.8302 0.80001 0.91847 0.0
H908 H 0.92424 0.80185 0.96457 0.0
H909 H 0.82186 0.71872 0.9783 0.0
H910 H 0.84014 0.72107 0.95877 0.0
H911 H 0.81257 0.75207 0.96526 0.0
C912 C 0.902 0.75948 0.92221 0.0
C913 C 0.8759 0.77507 0.91456 0.0
C914 C 0.90335 0.75768 0.93881 0.0
C915 C 0.87853 0.77111 0.94813 0.0
C916 C 0.85197 0.78586 0.94059 0.0
H917 H 0.8554 0.79585 0.05056 0.0
H918 H 0.84801 0.79514 0.02162 0.0
C919 C 0.85061 0.78778 0.92395 0.0
C920 C 0.88175 0.77165 0.96572 0.0
H921 H 0.84786 0.7438 1.00023 0.0
C922 C 0.90762 0.78908 0.97238 0.0
C923 C 0.85985 0.75518 0.97584 0.0
C924 C 0.83214 0.73546 0.96924 0.0
C925 C 0.91208 0.79072 0.98894 0.0
C926 C 0.8905 0.77385 0.99909 0.0
C927 C 0.86442 0.75664 0.99242 0.0
C928 C 0.89478 0.77362 0.01664 0.0
C929 C 0.93951 0.81108 0.9954 0.0
C930 C 0.92331 0.76127 0.02346 0.0
C931 C 0.9277 0.7618 0.03997 0.0
C932 C 0.90349 0.77441 0.05001 0.0
C933 C 0.87461 0.78611 0.04317 0.0
C934 C 0.8703 0.78566 0.02664 0.0
H935 H 0.9478 0.82939 0.98658 0.0
H936 H 0.9322 0.82384 0.00648 0.0
H937 H 0.96041 0.79511 0.99821 0.0
H938 H 0.94221 0.75117 0.016 0.0
H939 H 0.9501 0.75233 0.04484 0.0
H940 H 0.24342 0.92101 0.41683 0.0
H941 H 0.24659 0.92205 0.44587 0.0
H942 H 0.19389 0.83192 0.44824 0.0
H943 H 0.19062 0.83049 0.41912 0.0
H944 H 0.19075 0.92265 0.46601 0.0
H945 H 0.27183 0.81804 0.47886 0.0
H946 H 0.27 0.83716 0.45951 0.0
H947 H 0.23832 0.81012 0.46571 0.0
C948 C 0.23285 0.90112 0.42347 0.0
C949 C 0.21667 0.87569 0.4156 0.0
C950 C 0.23468 0.9018 0.44008 0.0
C951 C 0.22067 0.87698 0.44919 0.0
C952 C 0.20528 0.85107 0.44142 0.0
H953 H 0.19784 0.85273 0.55192 0.0
H954 H 0.19755 0.84523 0.52295 0.0
C955 C 0.20334 0.85038 0.42477 0.0
C956 C 0.2202 0.87957 0.46679 0.0
H957 H 0.24785 0.84426 0.50101 0.0
C958 C 0.20329 0.90556 0.47367 0.0
C959 C 0.23631 0.85705 0.47673 0.0
C960 C 0.25538 0.82911 0.46989 0.0
C961 C 0.20194 0.90964 0.49025 0.0
C962 C 0.21862 0.88752 0.50022 0.0
C963 C 0.23518 0.86124 0.49335 0.0
C964 C 0.21955 0.89168 0.51778 0.0
C965 C 0.18218 0.9373 0.49693 0.0
C966 C 0.23258 0.92 0.52448 0.0
C967 C 0.23258 0.92446 0.54098 0.0
C968 C 0.21989 0.9005 0.55114 0.0
C969 C 0.20763 0.87174 0.54442 0.0
C970 C 0.2075 0.86738 0.52788 0.0
H971 H 0.16366 0.94587 0.48829 0.0
H972 H 0.16972 0.9301 0.50812 0.0
H973 H 0.19849 0.95798 0.49962 0.0
H974 H 0.24273 0.93873 0.51693 0.0
H975 H 0.24253 0.94674 0.54575 0.0
H976 H 0.57426 0.25583 0.09163 0.0
H977 H 0.57283 0.25262 0.06259 0.0
H978 H 0.66446 0.30261 0.05997 0.0
H979 H 0.66622 0.30601 0.08907 0.0
H980 H 0.57442 0.30929 0.04236 0.0
H981 H 0.67503 0.22326 0.02951 0.0
H982 H 0.65567 0.22562 0.04879 0.0
H983 H 0.68421 0.25615 0.04285 0.0
C984 C 0.59438 0.26579 0.08494 0.0
C985 C 0.62035 0.28126 0.09273 0.0
C986 C 0.59348 0.26394 0.06832 0.0
C987 C 0.61862 0.27718 0.05916 0.0
C988 C 0.64503 0.29183 0.06685 0.0
H989 H 0.64447 0.29845 0.95653 0.0
H990 H 0.65167 0.2985 0.98551 0.0
C991 C 0.64592 0.29384 0.08349 0.0
C992 C 0.61594 0.27769 0.04157 0.0
H993 H 0.64982 0.2483 0.00737 0.0
C994 C 0.59084 0.29591 0.03469 0.0
C995 C 0.63761 0.26046 0.03164 0.0
C996 C 0.66456 0.24004 0.0385 0.0
C997 C 0.58688 0.29751 0.01811 0.0
C998 C 0.60814 0.27975 0.00815 0.0
C999 C 0.63351 0.26181 0.01503 0.0
C1000 C 0.60403 0.27911 0.99059 0.0
C1001 C 0.56032 0.31873 0.01143 0.0
C1002 C 0.5751 0.26766 0.98383 0.0
C1003 C 0.57082 0.26781 0.96732 0.0
C1004 C 0.59557 0.27906 0.95721 0.0
C1005 C 0.62487 0.28978 0.96399 0.0
C1006 C 0.62906 0.28977 0.98054 0.0
H1007 H 0.55272 0.33766 0.02008 0.0
H1008 H 0.56818 0.33081 1.00025 0.0
H1009 H 0.53881 0.30353 0.00872 0.0
H1010 H 0.55577 0.25857 0.99134 0.0
H1011 H 0.54809 0.25906 0.9625 0.0
H1012 H 0.732 0.57744 0.58885 0.0
H1013 H 0.73816 0.57989 0.56001 0.0
H1014 H 0.7208 0.68307 0.56107 0.0
H1015 H 0.71317 0.68052 0.58998 0.0
H1016 H 0.68726 0.65712 0.53822 0.0
H1017 H 0.81187 0.60922 0.53332 0.0
H1018 H 0.78635 0.58119 0.54374 0.0
H1019 H 0.79434 0.62058 0.5522 0.0
C1020 C 0.72985 0.60076 0.583 0.0
C1021 C 0.72219 0.62884 0.59174 0.0
C1022 C 0.73363 0.60215 0.56647 0.0
C1023 C 0.73069 0.63178 0.55834 0.0
C1024 C 0.72337 0.65994 0.56707 0.0
H1025 H 0.78318 0.64345 0.45742 0.0
H1026 H 0.7817 0.65001 0.48639 0.0
C1027 C 0.71904 0.65847 0.5836 0.0
C1028 C 0.73333 0.63293 0.54066 0.0
H1029 H 0.77992 0.60787 0.50935 0.0
C1030 C 0.70774 0.6467 0.53192 0.0
C1031 C 0.76027 0.6199 0.53237 0.0
C1032 C 0.78989 0.60724 0.54092 0.0
C1033 C 0.70784 0.64687 0.51519 0.0
C1034 C 0.7337 0.63178 0.50691 0.0
C1035 C 0.75981 0.61898 0.51565 0.0
C1036 C 0.73408 0.62867 0.48925 0.0
C1037 C 0.68038 0.66365 0.50661 0.0
C1038 C 0.70798 0.61422 0.48117 0.0
C1039 C 0.70854 0.61097 0.46459 0.0
C1040 C 0.7356 0.62133 0.45577 0.0
C1041 C 0.76199 0.63521 0.46388 0.0
C1042 C 0.76117 0.63896 0.48044 0.0
H1043 H 0.66938 0.68292 0.51413 0.0
H1044 H 0.68867 0.67476 0.49527 0.0
H1045 H 0.66113 0.6457 0.5039 0.0
H1046 H 0.68727 0.60506 0.48769 0.0
H1047 H 0.688 0.5998 0.45871 0.0
H1048 H 0.41985 0.73031 0.09139 0.0
H1049 H 0.41767 0.73653 0.06255 0.0
H1050 H 0.31436 0.72014 0.06343 0.0
H1051 H 0.31659 0.71263 0.09234 0.0
H1052 H 0.34069 0.6862 0.04056 0.0
H1053 H 0.38863 0.81085 0.03598 0.0
H1054 H 0.41641 0.78521 0.0465 0.0
H1055 H 0.37687 0.79323 0.05478 0.0
C1056 C 0.39656 0.72836 0.08549 0.0
C1057 C 0.36835 0.72101 0.0942 0.0
C1058 C 0.39533 0.73217 0.06897 0.0
C1059 C 0.36575 0.72953 0.06079 0.0
C1060 C 0.33746 0.72247 0.06947 0.0
H1061 H 0.35503 0.78222 0.95989 0.0
H1062 H 0.34825 0.78073 0.98885 0.0
C1063 C 0.33875 0.71816 0.086 0.0
C1064 C 0.36478 0.73227 0.04313 0.0
H1065 H 0.39027 0.77904 0.01197 0.0
C1066 C 0.35118 0.70671 0.03432 0.0
C1067 C 0.37791 0.75926 0.03493 0.0
C1068 C 0.39043 0.78882 0.04356 0.0
C1069 C 0.35132 0.70688 0.01759 0.0
C1070 C 0.36651 0.7328 0.0094 0.0
C1071 C 0.3791 0.75888 0.0182 0.0
C1072 C 0.36992 0.73325 0.99176 0.0
C1073 C 0.33479 0.67941 0.00891 0.0
C1074 C 0.38467 0.70725 0.98372 0.0
C1075 C 0.38808 0.70782 0.96715 0.0
C1076 C 0.37756 0.73479 0.95831 0.0
C1077 C 0.36342 0.76111 0.96638 0.0
C1078 C 0.35953 0.76028 0.98293 0.0
H1079 H 0.31548 0.66827 0.01635 0.0
H1080 H 0.32381 0.68775 0.99755 0.0
H1081 H 0.35287 0.66025 0.00621 0.0
H1082 H 0.39389 0.68659 0.99027 0.0
H1083 H 0.39943 0.68734 0.9613 0.0
H1084 H 0.25474 0.4191 0.59258 0.0
H1085 H 0.25153 0.42031 0.56356 0.0
H1086 H 0.30623 0.33135 0.561 0.0
H1087 H 0.30951 0.32972 0.59014 0.0
H1088 H 0.30739 0.42233 0.54345 0.0
H1089 H 0.22857 0.31621 0.53033 0.0
H1090 H 0.22994 0.33516 0.54973 0.0
H1091 H 0.26225 0.30891 0.54346 0.0
C1092 C 0.26574 0.39948 0.58591 0.0
C1093 C 0.2825 0.37434 0.59373 0.0
C1094 C 0.26389 0.40027 0.5693 0.0
C1095 C 0.27846 0.37585 0.56015 0.0
C1096 C 0.29442 0.3502 0.56787 0.0
H1097 H 0.30077 0.35386 0.45726 0.0
H1098 H 0.30172 0.34592 0.48619 0.0
C1099 C 0.29637 0.3494 0.58452 0.0
C1100 C 0.27887 0.37866 0.54255 0.0
H1101 H 0.25162 0.34342 0.50825 0.0
C1102 C 0.29516 0.40511 0.53574 0.0
C1103 C 0.26315 0.35599 0.53256 0.0
C1104 C 0.24475 0.32754 0.53932 0.0
C1105 C 0.29624 0.40953 0.51917 0.0
C1106 C 0.27992 0.38727 0.50916 0.0
C1107 C 0.26401 0.36051 0.51596 0.0
C1108 C 0.27867 0.39175 0.49162 0.0
C1109 C 0.31532 0.43772 0.51256 0.0
C1110 C 0.26488 0.41988 0.48508 0.0
C1111 C 0.26448 0.42459 0.46859 0.0
C1112 C 0.27756 0.40108 0.45829 0.0
C1113 C 0.29065 0.37253 0.46486 0.0
C1114 C 0.29116 0.36791 0.48138 0.0
H1115 H 0.33372 0.44654 0.5212 0.0
H1116 H 0.32781 0.43098 0.50132 0.0
H1117 H 0.29851 0.45808 0.50999 0.0
H1118 H 0.2544 0.43824 0.49274 0.0
H1119 H 0.25391 0.4467 0.46394 0.0
H1120 H 0.17649 0.26967 0.18642 0.0
H1121 H 0.19691 0.29667 0.21028 0.0
H1122 H 0.13064 0.24136 0.23924 0.0
H1123 H 0.10945 0.21472 0.21534 0.0
H1124 H 0.16155 0.33312 0.23514 0.0
H1125 H 0.22305 0.22184 0.25734 0.0
H1126 H 0.21 0.22628 0.23692 0.0
H1127 H 0.18093 0.21751 0.25225 0.0
C1128 C 0.16549 0.26391 0.19775 0.0
C1129 C 0.14079 0.24051 0.19891 0.0
C1130 C 0.17749 0.27913 0.21142 0.0
C1131 C 0.16539 0.27087 0.2265 0.0
C1132 C 0.14049 0.24785 0.22771 0.0
H1133 H 0.22619 0.31916 0.3226 0.0
H1134 H 0.19771 0.29835 0.2993 0.0
C1135 C 0.12841 0.2327 0.21404 0.0
C1136 C 0.17952 0.2856 0.24101 0.0
H1137 H 0.22442 0.26781 0.27403 0.0
C1138 C 0.17532 0.31892 0.24366 0.0
C1139 C 0.19738 0.26692 0.25208 0.0
C1140 C 0.20342 0.23119 0.24952 0.0
C1141 C 0.1882 0.33405 0.25727 0.0
C1142 C 0.20637 0.31542 0.26828 0.0
C1143 C 0.21043 0.28205 0.26561 0.0
C1144 C 0.22192 0.33 0.28253 0.0
C1145 C 0.18167 0.36966 0.25987 0.0
C1146 C 0.24514 0.35466 0.28087 0.0
C1147 C 0.26105 0.36706 0.29426 0.0
C1148 C 0.25414 0.35501 0.30956 0.0
C1149 C 0.23113 0.33008 0.31115 0.0
C1150 C 0.21512 0.31778 0.29777 0.0
H1151 H 0.15997 0.37792 0.25314 0.0
H1152 H 0.17798 0.37511 0.2727 0.0
H1153 H 0.20278 0.38389 0.2556 0.0
H1154 H 0.2515 0.36384 0.2692 0.0
H1155 H 0.27899 0.38595 0.29261 0.0
H1156 H 0.78631 0.10901 0.71576 0.0
H1157 H 0.75956 0.12971 0.73979 0.0
H1158 H 0.69376 0.18523 0.71062 0.0
H1159 H 0.72065 0.16518 0.68666 0.0
H1160 H 0.75437 0.19561 0.74823 0.0
H1161 H 0.63284 0.13905 0.74229 0.0
H1162 H 0.66787 0.12466 0.73147 0.0
H1163 H 0.6466 0.16024 0.72485 0.0
C1164 C 0.76584 0.12529 0.71449 0.0
C1165 C 0.75498 0.13468 0.6993 0.0
C1166 C 0.75059 0.13705 0.7282 0.0
C1167 C 0.72424 0.15844 0.72697 0.0
C1168 C 0.71341 0.16795 0.71183 0.0
H1169 H 0.60998 0.27466 0.79181 0.0
H1170 H 0.63323 0.24626 0.76886 0.0
C1171 C 0.72869 0.15626 0.69812 0.0
C1172 C 0.70956 0.17266 0.7415 0.0
H1173 H 0.63836 0.18027 0.76194 0.0
C1174 C 0.72908 0.19204 0.75133 0.0
C1175 C 0.67653 0.1681 0.74541 0.0
C1176 C 0.65474 0.14666 0.73554 0.0
C1177 C 0.71627 0.20769 0.76477 0.0
C1178 C 0.68319 0.20322 0.76869 0.0
C1179 C 0.66371 0.18362 0.75892 0.0
C1180 C 0.66826 0.21922 0.78271 0.0
C1181 C 0.73806 0.2297 0.77436 0.0
C1182 C 0.67992 0.21308 0.79813 0.0
C1183 C 0.66685 0.22943 0.81123 0.0
C1184 C 0.64142 0.25179 0.8092 0.0
C1185 C 0.62945 0.25747 0.79376 0.0
C1186 C 0.64262 0.24119 0.78066 0.0
H1187 H 0.75985 0.23715 0.76749 0.0
H1188 H 0.72491 0.25184 0.77823 0.0
H1189 H 0.74644 0.21662 0.78516 0.0
H1190 H 0.69946 0.19596 0.80001 0.0
H1191 H 0.6775 0.22525 0.82281 0.0
H1192 H 0.70019 0.65795 0.29694 0.0
H1193 H 0.72883 0.67935 0.27374 0.0
H1194 H 0.81928 0.64348 0.29249 0.0
H1195 H 0.79073 0.62098 0.3155 0.0
H1196 H 0.81847 0.71182 0.28189 0.0
H1197 H 0.77111 0.6255 0.23674 0.0
H1198 H 0.74085 0.64354 0.24938 0.0
H1199 H 0.77071 0.61692 0.25786 0.0
C1200 C 0.72616 0.65439 0.29612 0.0
C1201 C 0.74321 0.63834 0.30832 0.0
C1202 C 0.74246 0.66662 0.28283 0.0
C1203 C 0.77612 0.66291 0.2814 0.0
C1204 C 0.79328 0.64673 0.29344 0.0
H1205 H 0.88444 0.71517 0.19521 0.0
H1206 H 0.86499 0.68631 0.21883 0.0
C1207 C 0.77693 0.63425 0.30672 0.0
C1208 C 0.7933 0.67674 0.26748 0.0
H1209 H 0.79781 0.67266 0.2269 0.0
C1210 C 0.81426 0.70308 0.26987 0.0
C1211 C 0.78797 0.66505 0.25186 0.0
C1212 C 0.76666 0.63601 0.24874 0.0
C1213 C 0.82903 0.7189 0.25695 0.0
C1214 C 0.82248 0.70816 0.24128 0.0
C1215 C 0.80258 0.68098 0.23893 0.0
C1216 C 0.8348 0.72573 0.22712 0.0
C1217 C 0.85132 0.74716 0.26014 0.0
C1218 C 0.82407 0.75734 0.22392 0.0
C1219 C 0.83465 0.77365 0.21029 0.0
C1220 C 0.85598 0.7586 0.19951 0.0
C1221 C 0.86711 0.72708 0.20289 0.0
C1222 C 0.85634 0.71067 0.21651 0.0
H1223 H 0.86024 0.74717 0.27264 0.0
H1224 H 0.87249 0.74672 0.25196 0.0
H1225 H 0.83792 0.77013 0.2581 0.0
H1226 H 0.8071 0.76923 0.23186 0.0
H1227 H 0.82563 0.79791 0.20807 0.0
H1228 H 0.32023 0.77267 0.82318 0.0
H1229 H 0.29998 0.79976 0.7993 0.0
H1230 H 0.36465 0.74266 0.77029 0.0
H1231 H 0.38564 0.71586 0.79421 0.0
H1232 H 0.33506 0.83524 0.77432 0.0
H1233 H 0.27213 0.72464 0.75242 0.0
H1234 H 0.28572 0.7289 0.77276 0.0
H1235 H 0.3143 0.7197 0.75726 0.0
C1236 C 0.33092 0.76651 0.81183 0.0
C1237 C 0.3551 0.74255 0.81066 0.0
C1238 C 0.31902 0.78179 0.79814 0.0
C1239 C 0.33069 0.77306 0.78305 0.0
C1240 C 0.35511 0.7495 0.78184 0.0
H1241 H 0.27041 0.82163 0.68689 0.0
H1242 H 0.29878 0.80077 0.71023 0.0
C1243 C 0.36708 0.73428 0.79551 0.0
C1244 C 0.31662 0.78788 0.76853 0.0
H1245 H 0.27147 0.77041 0.73556 0.0
C1246 C 0.32113 0.82115 0.76583 0.0
C1247 C 0.29852 0.76934 0.7575 0.0
C1248 C 0.29207 0.73371 0.76012 0.0
C1249 C 0.30835 0.83634 0.75221 0.0
C1250 C 0.28999 0.81785 0.74123 0.0
C1251 C 0.28562 0.78454 0.74395 0.0
C1252 C 0.27458 0.83252 0.72696 0.0
C1253 C 0.31516 0.87189 0.74956 0.0
C1254 C 0.25143 0.85726 0.72858 0.0
C1255 C 0.23555 0.86967 0.71518 0.0
C1256 C 0.24247 0.85755 0.69989 0.0
C1257 C 0.26547 0.83258 0.69833 0.0
C1258 C 0.28142 0.82026 0.71173 0.0
H1259 H 0.33685 0.88002 0.75632 0.0
H1260 H 0.31901 0.8772 0.73673 0.0
H1261 H 0.2941 0.88632 0.75375 0.0
H1262 H 0.24507 0.86648 0.74025 0.0
H1263 H 0.21762 0.88859 0.7168 0.0
H1264 H 0.85629 0.68193 0.82072 0.0
H1265 H 0.8442 0.66149 0.79386 0.0
H1266 H 0.81902 0.75841 0.77889 0.0
H1267 H 0.83256 0.77895 0.80538 0.0
H1268 H 0.78881 0.66146 0.7775 0.0
H1269 H 0.87947 0.73222 0.74376 0.0
H1270 H 0.8802 0.72935 0.76521 0.0
H1271 H 0.854 0.75817 0.75546 0.0
C1272 C 0.84847 0.6988 0.8116 0.0
C1273 C 0.84519 0.73193 0.81509 0.0
C1274 C 0.8415 0.68715 0.79631 0.0
C1275 C 0.83123 0.70849 0.78425 0.0
C1276 C 0.82767 0.74157 0.78784 0.0
H1277 H 0.71706 0.66684 0.70117 0.0
H1278 H 0.73851 0.67989 0.72755 0.0
C1279 C 0.8349 0.75322 0.80305 0.0
C1280 C 0.82288 0.69616 0.76813 0.0
H1281 H 0.83562 0.70962 0.72846 0.0
C1282 C 0.79934 0.67172 0.76678 0.0
C1283 C 0.83707 0.70901 0.75412 0.0
C1284 C 0.86434 0.73337 0.7547 0.0
C1285 C 0.78859 0.66083 0.75183 0.0
C1286 C 0.80105 0.67542 0.73784 0.0
C1287 C 0.82564 0.6988 0.73917 0.0
C1288 C 0.78819 0.66758 0.72175 0.0
C1289 C 0.76409 0.63369 0.75123 0.0
C1290 C 0.80911 0.6575 0.70949 0.0
C1291 C 0.79694 0.65081 0.69426 0.0
C1292 C 0.76369 0.65418 0.69105 0.0
C1293 C 0.74285 0.66439 0.70329 0.0
C1294 C 0.75502 0.67135 0.71844 0.0
H1295 H 0.76547 0.61824 0.76206 0.0
H1296 H 0.73932 0.64417 0.75071 0.0
H1297 H 0.76773 0.61812 0.74059 0.0
H1298 H 0.83482 0.65467 0.71172 0.0
H1299 H 0.81348 0.64309 0.68498 0.0
H1300 H 0.31197 0.85757 0.32269 0.0
H1301 H 0.33349 0.84561 0.29601 0.0
H1302 H 0.23721 0.8207 0.28006 0.0
H1303 H 0.21561 0.83399 0.30638 0.0
H1304 H 0.3338 0.79 0.27952 0.0
H1305 H 0.2652 0.8818 0.24538 0.0
H1306 H 0.26737 0.88232 0.26685 0.0
H1307 H 0.23865 0.85648 0.25683 0.0
C1308 C 0.29548 0.84982 0.31339 0.0
C1309 C 0.26221 0.84655 0.31656 0.0
C1310 C 0.30774 0.84293 0.29821 0.0
C1311 C 0.28688 0.8328 0.28593 0.0
C1312 C 0.25368 0.82924 0.28918 0.0
H1313 H 0.32889 0.71867 0.20317 0.0
H1314 H 0.31568 0.74046 0.22945 0.0
C1315 C 0.24142 0.83634 0.3043 0.0
C1316 C 0.29984 0.82458 0.26992 0.0
H1317 H 0.28802 0.83791 0.23017 0.0
C1318 C 0.32407 0.80077 0.26873 0.0
C1319 C 0.28769 0.83909 0.25583 0.0
C1320 C 0.26356 0.86659 0.25628 0.0
C1321 C 0.33536 0.79002 0.25386 0.0
C1322 C 0.32143 0.8028 0.23977 0.0
C1323 C 0.29833 0.8277 0.24095 0.0
C1324 C 0.32949 0.78978 0.22374 0.0
C1325 C 0.36214 0.76509 0.25342 0.0
C1326 C 0.34053 0.81043 0.21157 0.0
C1327 C 0.34738 0.79807 0.19639 0.0
C1328 C 0.34319 0.76493 0.19315 0.0
C1329 C 0.332 0.74439 0.2053 0.0
C1330 C 0.32493 0.75674 0.2204 0.0
H1331 H 0.37723 0.76612 0.26438 0.0
H1332 H 0.35131 0.7405 0.25275 0.0
H1333 H 0.37813 0.76859 0.24291 0.0
H1334 H 0.34396 0.83606 0.21383 0.0
H1335 H 0.35583 0.81441 0.18717 0.0
H1336 H 0.10791 0.24897 0.80446 0.0
H1337 H 0.12388 0.26881 0.77806 0.0
H1338 H 0.21907 0.29175 0.79611 0.0
H1339 H 0.20311 0.27195 0.82256 0.0
H1340 H 0.14723 0.32956 0.76786 0.0
H1341 H 0.23764 0.23175 0.75813 0.0
H1342 H 0.20776 0.23008 0.77382 0.0
H1343 H 0.24357 0.25446 0.77615 0.0
C1344 C 0.13207 0.25872 0.80283 0.0
C1345 C 0.1543 0.25906 0.81551 0.0
C1346 C 0.14121 0.26988 0.78775 0.0
C1347 C 0.17279 0.28132 0.78508 0.0
C1348 C 0.19477 0.28247 0.79785 0.0
H1349 H 0.24699 0.3877 0.70351 0.0
H1350 H 0.22587 0.37136 0.7296 0.0
C1351 C 0.18563 0.2713 0.81293 0.0
C1352 C 0.1829 0.29147 0.76886 0.0
H1353 H 0.23644 0.2741 0.73902 0.0
C1354 C 0.16669 0.31743 0.76153 0.0
C1355 C 0.20794 0.27525 0.76053 0.0
C1356 C 0.22508 0.24614 0.76747 0.0
C1357 C 0.17529 0.32802 0.74618 0.0
C1358 C 0.20105 0.31246 0.73806 0.0
C1359 C 0.21685 0.28614 0.7453 0.0
C1360 C 0.21215 0.32306 0.72207 0.0
C1361 C 0.15641 0.35541 0.73869 0.0
C1362 C 0.21188 0.30122 0.70923 0.0
C1363 C 0.22395 0.31053 0.69434 0.0
C1364 C 0.23659 0.34179 0.69206 0.0
C1365 C 0.23672 0.36368 0.70488 0.0
C1366 C 0.22467 0.35437 0.71977 0.0
H1367 H 0.13239 0.35869 0.74446 0.0
H1368 H 0.17022 0.37833 0.7401 0.0
H1369 H 0.15267 0.35112 0.72576 0.0
H1370 H 0.2025 0.27687 0.71076 0.0
H1371 H 0.22366 0.29323 0.68463 0.0
H1372 H 0.78084 0.16849 0.3053 0.0
H1373 H 0.75932 0.18358 0.27918 0.0
H1374 H 0.66318 0.1565 0.2945 0.0
H1375 H 0.68454 0.14296 0.32099 0.0
H1376 H 0.72937 0.14803 0.257 0.0
H1377 H 0.64696 0.24621 0.27727 0.0
H1378 H 0.67692 0.22817 0.29017 0.0
H1379 H 0.63923 0.20762 0.28639 0.0
C1380 C 0.75502 0.16634 0.30317 0.0
C1381 C 0.73421 0.15516 0.31521 0.0
C1382 C 0.74279 0.17465 0.2882 0.0
C1383 C 0.70954 0.1717 0.28493 0.0
C1384 C 0.68878 0.15975 0.29685 0.0
H1385 H 0.6393 0.18715 0.18602 0.0
H1386 H 0.65274 0.16598 0.21258 0.0
C1387 C 0.70101 0.15175 0.31191 0.0
C1388 C 0.69698 0.18096 0.26897 0.0
H1389 H 0.64503 0.23256 0.24994 0.0
C1390 C 0.71086 0.16646 0.25544 0.0
C1391 C 0.67303 0.20522 0.26696 0.0
C1392 C 0.65835 0.22296 0.28094 0.0
C1393 C 0.70188 0.17589 0.23998 0.0
C1394 C 0.67768 0.19989 0.23797 0.0
C1395 C 0.66341 0.214 0.25149 0.0
C1396 C 0.66832 0.21233 0.222 0.0
C1397 C 0.71938 0.16097 0.22598 0.0
C1398 C 0.67149 0.24553 0.21863 0.0
C1399 C 0.66325 0.25765 0.20364 0.0
C1400 C 0.65193 0.23679 0.19165 0.0
C1401 C 0.64821 0.20366 0.19506 0.0
C1402 C 0.65615 0.19154 0.21015 0.0
H1403 H 0.7426 0.14947 0.22962 0.0
H1404 H 0.70387 0.1419 0.22062 0.0
H1405 H 0.72461 0.17943 0.2167 0.0
H1406 H 0.68058 0.2621 0.2276 0.0
H1407 H 0.66563 0.28343 0.20144 0.0
H1408 H 0.48622 0.24161 0.15424 0.0
H1409 H 0.42978 0.22624 0.15036 0.0
H1410 H 0.45689 0.16709 0.11011 0.0
H1411 H 0.51367 0.18276 0.11378 0.0
H1412 H 0.4096 0.21137 0.10298 0.0
H1413 H 0.37616 0.14542 0.15785 0.0
H1414 H 0.39605 0.18297 0.16237 0.0
H1415 H 0.41784 0.15158 0.15195 0.0
C1416 C 0.48035 0.22477 0.14477 0.0
C1417 C 0.50439 0.21361 0.13424 0.0
C1418 C 0.44806 0.21578 0.14264 0.0
C1419 C 0.43919 0.19526 0.13005 0.0
C1420 C 0.46331 0.1828 0.11997 0.0
H1421 H 0.23569 0.17011 0.09953 0.0
H1422 H 0.29471 0.16218 0.10087 0.0
C1423 C 0.49572 0.19174 0.1221 0.0
C1424 C 0.40445 0.19041 0.12637 0.0
H1425 H 0.33207 0.17192 0.14379 0.0
C1426 C 0.39267 0.20199 0.11173 0.0
C1427 C 0.38248 0.17812 0.13779 0.0
C1428 C 0.39384 0.16351 0.1533 0.0
C1429 C 0.35927 0.20369 0.10867 0.0
C1430 C 0.33732 0.19337 0.12054 0.0
C1431 C 0.3491 0.1801 0.13479 0.0
C1432 C 0.30211 0.19876 0.11898 0.0
C1433 C 0.34755 0.21823 0.09321 0.0
C1434 C 0.28706 0.22206 0.12864 0.0
C1435 C 0.25364 0.22681 0.12778 0.0
C1436 C 0.23477 0.20817 0.11732 0.0
C1437 C 0.24989 0.18515 0.10748 0.0
C1438 C 0.28344 0.18047 0.1083 0.0
H1439 H 0.36776 0.22798 0.08589 0.0
H1440 H 0.33472 0.1994 0.08617 0.0
H1441 H 0.33002 0.23808 0.09563 0.0
H1442 H 0.30119 0.23642 0.13693 0.0
H1443 H 0.24243 0.24472 0.13546 0.0
H1444 H 0.83326 0.23137 0.63322 0.0
H1445 H 0.83696 0.29051 0.63554 0.0
H1446 H 0.7542 0.30068 0.60447 0.0
H1447 H 0.74961 0.24145 0.60274 0.0
H1448 H 0.84484 0.34009 0.61438 0.0
H1449 H 0.72509 0.34855 0.64414 0.0
H1450 H 0.74533 0.31037 0.64082 0.0
H1451 H 0.72311 0.32955 0.62494 0.0
C1452 C 0.81586 0.24635 0.62694 0.0
C1453 C 0.79074 0.23212 0.61808 0.0
C1454 C 0.81812 0.28002 0.62817 0.0
C1455 C 0.79541 0.29991 0.62047 0.0
C1456 C 0.77146 0.2857 0.61083 0.0
H1457 H 0.79778 0.50652 0.606 0.0
H1458 H 0.80867 0.44846 0.60446 0.0
C1459 C 0.76901 0.25199 0.60973 0.0
C1460 C 0.79595 0.33538 0.62311 0.0
H1461 H 0.74954 0.39818 0.63641 0.0
C1462 C 0.8241 0.35285 0.61927 0.0
C1463 C 0.76914 0.35179 0.62985 0.0
C1464 C 0.73909 0.33408 0.63534 0.0
C1465 C 0.82583 0.38654 0.62161 0.0
C1466 C 0.79839 0.40314 0.6276 0.0
C1467 C 0.77055 0.38548 0.63176 0.0
C1468 C 0.79717 0.43891 0.6292 0.0
C1469 C 0.85712 0.40384 0.61783 0.0
C1470 C 0.7873 0.45298 0.64365 0.0
C1471 C 0.78042 0.48608 0.64448 0.0
C1472 C 0.7835 0.50573 0.63089 0.0
C1473 C 0.79539 0.49203 0.61671 0.0
C1474 C 0.80182 0.45882 0.61583 0.0
H1475 H 0.87821 0.38715 0.61864 0.0
H1476 H 0.85607 0.4132 0.60544 0.0
H1477 H 0.8612 0.42461 0.626 0.0
H1478 H 0.78356 0.43806 0.65412 0.0
H1479 H 0.77147 0.49602 0.65559 0.0
H1480 H 0.4847 0.80058 0.10737 0.0
H1481 H 0.54264 0.80996 0.10329 0.0
H1482 H 0.5618 0.77969 0.15158 0.0
H1483 H 0.50401 0.76924 0.15561 0.0
H1484 H 0.59136 0.84553 0.11698 0.0
H1485 H 0.61222 0.71386 0.12554 0.0
H1486 H 0.57217 0.73101 0.12372 0.0
H1487 H 0.59337 0.73263 0.14245 0.0
C1488 C 0.50116 0.79651 0.11723 0.0
C1489 C 0.48994 0.7836 0.13172 0.0
C1490 C 0.53427 0.80185 0.11486 0.0
C1491 C 0.55653 0.7946 0.12698 0.0
C1492 C 0.54505 0.78452 0.14192 0.0
H1493 H 0.7615 0.83419 0.13147 0.0
H1494 H 0.70233 0.83743 0.13234 0.0
C1495 C 0.51204 0.77875 0.14424 0.0
C1496 C 0.59174 0.79509 0.12363 0.0
H1497 H 0.65905 0.74708 0.12401 0.0
C1498 C 0.60621 0.82402 0.11844 0.0
C1499 C 0.61085 0.76672 0.12509 0.0
C1500 C 0.59633 0.73422 0.12934 0.0
C1501 C 0.63957 0.82558 0.11516 0.0
C1502 C 0.65896 0.79765 0.11753 0.0
C1503 C 0.64425 0.76856 0.1223 0.0
C1504 C 0.6947 0.79796 0.11572 0.0
C1505 C 0.65353 0.85697 0.10898 0.0
C1506 C 0.71016 0.77441 0.10628 0.0
C1507 C 0.74393 0.77193 0.10618 0.0
C1508 C 0.76273 0.79302 0.11546 0.0
C1509 C 0.74738 0.81739 0.12437 0.0
C1510 C 0.71363 0.81959 0.12467 0.0
H1511 H 0.63482 0.87158 0.1027 0.0
H1512 H 0.6625 0.87158 0.11916 0.0
H1513 H 0.67404 0.85257 0.10068 0.0
H1514 H 0.69602 0.75737 0.09933 0.0
H1515 H 0.75531 0.75291 0.09924 0.0
H1516 H 0.24295 0.50885 0.65527 0.0
H1517 H 0.22864 0.56574 0.6519 0.0
H1518 H 0.17115 0.54165 0.61063 0.0
H1519 H 0.1858 0.48447 0.61376 0.0
H1520 H 0.21612 0.58865 0.60459 0.0
H1521 H 0.14818 0.61999 0.65921 0.0
H1522 H 0.1855 0.59968 0.66378 0.0
H1523 H 0.15435 0.57857 0.65289 0.0
C1524 C 0.22669 0.51547 0.64567 0.0
C1525 C 0.21571 0.49216 0.63471 0.0
C1526 C 0.21831 0.54803 0.64383 0.0
C1527 C 0.19856 0.55788 0.63111 0.0
C1528 C 0.18628 0.53448 0.62058 0.0
H1529 H 0.17258 0.76135 0.60116 0.0
H1530 H 0.16579 0.70221 0.6025 0.0
C1531 C 0.19464 0.50183 0.62241 0.0
C1532 C 0.19423 0.59287 0.62781 0.0
H1533 H 0.1746 0.66458 0.64564 0.0
C1534 C 0.20636 0.60523 0.6134 0.0
C1535 C 0.18148 0.6144 0.63933 0.0
C1536 C 0.16634 0.60243 0.65459 0.0
C1537 C 0.20792 0.63874 0.61062 0.0
C1538 C 0.19688 0.66024 0.62253 0.0
C1539 C 0.1833 0.6479 0.6366 0.0
C1540 C 0.20143 0.69562 0.62114 0.0
C1541 C 0.22293 0.65104 0.59538 0.0
C1542 C 0.22375 0.71121 0.63114 0.0
C1543 C 0.22786 0.74472 0.63028 0.0
C1544 C 0.20954 0.76316 0.61949 0.0
C1545 C 0.18739 0.74751 0.60937 0.0
C1546 C 0.18337 0.71388 0.61018 0.0
H1547 H 0.23381 0.6312 0.58819 0.0
H1548 H 0.20405 0.66318 0.58808 0.0
H1549 H 0.242 0.66925 0.59806 0.0
H1550 H 0.23791 0.69741 0.63964 0.0
H1551 H 0.24511 0.75632 0.63817 0.0
H1552 H 0.01391 0.31513 0.89282 0.0
H1553 H 0.95683 0.32979 0.89647 0.0
H1554 H 0.93014 0.26568 0.85805 0.0
H1555 H 0.98692 0.25142 0.85409 0.0
H1556 H 0.89498 0.32356 0.85824 0.0
H1557 H 0.89609 0.26451 0.91798 0.0
H1558 H 0.92455 0.29694 0.91501 0.0
H1559 H 0.92896 0.25986 0.90399 0.0
C1560 C 0.99595 0.30461 0.88496 0.0
C1561 C 0.00488 0.28171 0.87333 0.0
C1562 C 0.96335 0.31286 0.88714 0.0
C1563 C 0.93928 0.29821 0.87777 0.0
C1564 C 0.94836 0.27707 0.86548 0.0
H1565 H 0.74092 0.25318 0.87014 0.0
H1566 H 0.79962 0.26118 0.86833 0.0
C1567 C 0.98086 0.2689 0.86325 0.0
C1568 C 0.90444 0.30277 0.88132 0.0
H1569 H 0.84589 0.28271 0.90837 0.0
C1570 C 0.88428 0.31507 0.86929 0.0
C1571 C 0.89059 0.29165 0.89577 0.0
C1572 C 0.91102 0.27727 0.90892 0.0
C1573 C 0.85049 0.31545 0.87108 0.0
C1574 C 0.83664 0.30293 0.8852 0.0
C1575 C 0.85677 0.29222 0.89757 0.0
C1576 C 0.80134 0.29798 0.88669 0.0
C1577 C 0.82977 0.3285 0.85772 0.0
C1578 C 0.7832 0.31535 0.89796 0.0
C1579 C 0.74964 0.31084 0.89898 0.0
C1580 C 0.73403 0.28864 0.88887 0.0
C1581 C 0.75245 0.27061 0.87796 0.0
C1582 C 0.78585 0.27524 0.87688 0.0
H1583 H 0.84381 0.34475 0.84973 0.0
H1584 H 0.82054 0.30794 0.8505 0.0
H1585 H 0.80858 0.34202 0.86248 0.0
H1586 H 0.79488 0.33283 0.90569 0.0
H1587 H 0.73584 0.32533 0.90734 0.0
H1588 H 0.74473 0.74125 0.37096 0.0
H1589 H 0.73679 0.80004 0.36893 0.0
H1590 H 0.6579 0.79443 0.40255 0.0
H1591 H 0.66545 0.73539 0.40441 0.0
H1592 H 0.67342 0.83215 0.36022 0.0
H1593 H 0.72323 0.86623 0.41969 0.0
H1594 H 0.73389 0.82851 0.41008 0.0
H1595 H 0.69432 0.83357 0.41855 0.0
C1596 C 0.72584 0.75267 0.37797 0.0
C1597 C 0.70594 0.73406 0.38798 0.0
C1598 C 0.72128 0.7861 0.37678 0.0
C1599 C 0.69689 0.80143 0.38565 0.0
C1600 C 0.67707 0.78296 0.39575 0.0
H1601 H 0.67919 0.01268 0.39214 0.0
H1602 H 0.66456 0.95543 0.39499 0.0
C1603 C 0.68152 0.74941 0.39688 0.0
C1604 C 0.6922 0.83676 0.38405 0.0
H1605 H 0.70826 0.90857 0.40252 0.0
C1606 C 0.68064 0.84894 0.36952 0.0
C1607 C 0.70128 0.8584 0.39629 0.0
C1608 C 0.71403 0.84625 0.41205 0.0
C1609 C 0.67895 0.88242 0.36669 0.0
C1610 C 0.68987 0.90412 0.37859 0.0
C1611 C 0.69992 0.89189 0.39341 0.0
C1612 C 0.69447 0.93913 0.37538 0.0
C1613 C 0.66591 0.89419 0.35092 0.0
C1614 C 0.71567 0.94898 0.36324 0.0
C1615 C 0.72401 0.98158 0.36155 0.0
C1616 C 0.71158 0.00496 0.3721 0.0
C1617 C 0.68917 0.99528 0.38381 0.0
C1618 C 0.68082 0.96258 0.38549 0.0
H1619 H 0.64841 0.87656 0.3458 0.0
H1620 H 0.65372 0.91808 0.35214 0.0
H1621 H 0.68626 0.89675 0.34237 0.0
H1622 H 0.72708 0.93126 0.35553 0.0
H1623 H 0.74133 0.98819 0.35241 0.0
H1624 H 0.01031 0.73554 0.85319 0.0
H1625 H 0.06707 0.72165 0.85761 0.0
H1626 H 0.04055 0.66616 0.89919 0.0
H1627 H 0.98352 0.68021 0.89494 0.0
H1628 H 0.08691 0.71311 0.90516 0.0
H1629 H 0.12213 0.64019 0.85261 0.0
H1630 H 0.10128 0.67671 0.8471 0.0
H1631 H 0.08033 0.64607 0.8584 0.0
C1632 C 0.01641 0.71977 0.86308 0.0
C1633 C 0.99245 0.70917 0.87379 0.0
C1634 C 0.04887 0.71166 0.86552 0.0
C1635 C 0.05796 0.69265 0.87865 0.0
C1636 C 0.03396 0.68071 0.88893 0.0
H1637 H 0.26179 0.66481 0.90777 0.0
H1638 H 0.20273 0.65678 0.90618 0.0
C1639 C 0.00139 0.68872 0.88646 0.0
C1640 C 0.09271 0.68883 0.88259 0.0
H1641 H 0.16564 0.66781 0.86639 0.0
C1642 C 0.10408 0.7025 0.89687 0.0
C1643 C 0.11501 0.67498 0.87175 0.0
C1644 C 0.10403 0.65836 0.85669 0.0
C1645 C 0.13738 0.70443 0.90012 0.0
C1646 C 0.15963 0.69236 0.88883 0.0
C1647 C 0.14832 0.67722 0.87495 0.0
C1648 C 0.19474 0.69775 0.89058 0.0
C1649 C 0.14882 0.72083 0.91516 0.0
C1650 C 0.20935 0.72359 0.88246 0.0
C1651 C 0.24275 0.72839 0.88348 0.0
C1652 C 0.26196 0.70736 0.89262 0.0
C1653 C 0.24726 0.68168 0.90091 0.0
C1654 C 0.21375 0.67693 0.89992 0.0
H1655 H 0.12834 0.7286 0.92288 0.0
H1656 H 0.16459 0.70405 0.92202 0.0
H1657 H 0.16359 0.74244 0.91205 0.0
H1658 H 0.1949 0.73983 0.8752 0.0
H1659 H 0.2537 0.7482 0.87693 0.0
H1660 H 0.32646 0.26231 0.40929 0.0
H1661 H 0.33464 0.20328 0.40807 0.0
H1662 H 0.26233 0.19656 0.37109 0.0
H1663 H 0.2536 0.25523 0.37251 0.0
H1664 H 0.28351 0.15105 0.41075 0.0
H1665 H 0.34852 0.15422 0.35286 0.0
H1666 H 0.34551 0.18907 0.36584 0.0
H1667 H 0.31178 0.17768 0.35352 0.0
C1668 C 0.31194 0.24806 0.40113 0.0
C1669 C 0.28937 0.2631 0.39099 0.0
C1670 C 0.31682 0.21453 0.40036 0.0
C1671 C 0.29945 0.19586 0.38931 0.0
C1672 C 0.27631 0.21076 0.3795 0.0
H1673 H 0.25433 0.01181 0.35561 0.0
H1674 H 0.2689 0.06834 0.3601 0.0
C1675 C 0.27129 0.24413 0.38035 0.0
C1676 C 0.30504 0.16066 0.3879 0.0
H1677 H 0.32755 0.10281 0.36106 0.0
C1678 C 0.29375 0.14033 0.40007 0.0
C1679 C 0.31851 0.14708 0.37395 0.0
C1680 C 0.33206 0.16809 0.36083 0.0
C1681 C 0.29347 0.10653 0.39814 0.0
C1682 C 0.30545 0.09295 0.3838 0.0
C1683 C 0.31843 0.11332 0.37203 0.0
C1684 C 0.3008 0.05827 0.37997 0.0
C1685 C 0.27842 0.08582 0.41101 0.0
C1686 C 0.31498 0.03379 0.38926 0.0
C1687 C 0.30658 0.00132 0.38676 0.0
C1688 C 0.28395 0.99298 0.37491 0.0
C1689 C 0.27158 0.01744 0.36494 0.0
C1690 C 0.27994 0.04977 0.36746 0.0
H1691 H 0.2655 0.10059 0.42008 0.0
H1692 H 0.26102 0.06827 0.40577 0.0
H1693 H 0.29772 0.07182 0.41714 0.0
H1694 H 0.33164 0.03988 0.39877 0.0
H1695 H 0.31671 0.98301 0.39456 0.0
H1696 H 0.47728 0.76534 0.9119 0.0
H1697 H 0.52802 0.79417 0.90759 0.0
H1698 H 0.49358 0.827 0.86177 0.0
H1699 H 0.44327 0.79673 0.86571 0.0
H1700 H 0.54784 0.79869 0.8581 0.0
H1701 H 0.56422 0.88287 0.90833 0.0
H1702 H 0.55552 0.84325 0.91593 0.0
H1703 H 0.52557 0.86423 0.9041 0.0
C1704 C 0.48009 0.77951 0.90112 0.0
C1705 C 0.45645 0.77854 0.88908 0.0
C1706 C 0.50911 0.79626 0.89871 0.0
C1707 C 0.51465 0.81309 0.8844 0.0
C1708 C 0.48992 0.8142 0.8729 0.0
H1709 H 0.71138 0.89206 0.87011 0.0
H1710 H 0.65222 0.88975 0.87318 0.0
C1711 C 0.46117 0.79691 0.87517 0.0
C1712 C 0.54778 0.82466 0.88043 0.0
H1713 H 0.61418 0.86232 0.89618 0.0
C1714 C 0.56203 0.81326 0.8663 0.0
C1715 C 0.56638 0.84408 0.89092 0.0
C1716 C 0.55192 0.85958 0.90556 0.0
C1717 C 0.59475 0.81896 0.86286 0.0
C1718 C 0.6141 0.83557 0.87412 0.0
C1719 C 0.59947 0.84891 0.88773 0.0
C1720 C 0.64979 0.83736 0.87242 0.0
C1721 C 0.60834 0.80661 0.8473 0.0
C1722 C 0.66798 0.80871 0.87117 0.0
C1723 C 0.70153 0.80997 0.86927 0.0
C1724 C 0.71772 0.83991 0.86901 0.0
C1725 C 0.69953 0.86863 0.87039 0.0
C1726 C 0.66582 0.86736 0.87218 0.0
H1727 H 0.58919 0.80511 0.83802 0.0
H1728 H 0.62815 0.82243 0.84284 0.0
H1729 H 0.61816 0.78182 0.84908 0.0
H1730 H 0.65617 0.78526 0.87157 0.0
H1731 H 0.71454 0.78745 0.86762 0.0
H1732 H 0.20021 0.44361 0.36432 0.0
H1733 H 0.17025 0.49421 0.36023 0.0
H1734 H 0.20393 0.52932 0.40575 0.0
H1735 H 0.23241 0.47826 0.41026 0.0
H1736 H 0.14469 0.55243 0.39938 0.0
H1737 H 0.22474 0.56963 0.3467 0.0
H1738 H 0.19849 0.53507 0.34545 0.0
H1739 H 0.22987 0.53634 0.36035 0.0
C1740 C 0.20048 0.46183 0.37362 0.0
C1741 C 0.21906 0.45729 0.38748 0.0
C1742 C 0.18355 0.49078 0.37123 0.0
C1743 C 0.18583 0.51596 0.38243 0.0
C1744 C 0.20206 0.51032 0.39687 0.0
H1745 H 0.20581 0.71723 0.36853 0.0
H1746 H 0.2092 0.65894 0.3725 0.0
C1747 C 0.21836 0.48111 0.39944 0.0
C1748 C 0.17485 0.54926 0.3785 0.0
H1749 H 0.1897 0.61219 0.35311 0.0
C1750 C 0.15424 0.56547 0.38918 0.0
C1751 C 0.18771 0.56632 0.36527 0.0
C1752 C 0.21164 0.55112 0.35386 0.0
C1753 C 0.14711 0.59859 0.38735 0.0
C1754 C 0.16027 0.61561 0.37421 0.0
C1755 C 0.17963 0.59902 0.36315 0.0
C1756 C 0.15725 0.65124 0.37247 0.0
C1757 C 0.12708 0.61539 0.39993 0.0
C1758 C 0.1269 0.66639 0.37105 0.0
C1759 C 0.12491 0.70008 0.36925 0.0
C1760 C 0.15322 0.71904 0.36878 0.0
C1761 C 0.18351 0.70363 0.36968 0.0
C1762 C 0.18549 0.67015 0.37168 0.0
H1763 H 0.12492 0.60059 0.41094 0.0
H1764 H 0.1378 0.63923 0.4031 0.0
H1765 H 0.10229 0.61969 0.39524 0.0
H1766 H 0.10482 0.65219 0.37116 0.0
H1767 H 0.10124 0.71131 0.36824 0.0
H1768 H 0.53358 0.22167 0.86168 0.0
H1769 H 0.4816 0.1937 0.86112 0.0
H1770 H 0.48442 0.18327 0.91223 0.0
H1771 H 0.53621 0.21216 0.91301 0.0
H1772 H 0.45506 0.13544 0.8714 0.0
H1773 H 0.4054 0.24087 0.90497 0.0
H1774 H 0.4458 0.2408 0.89679 0.0
H1775 H 0.43715 0.21868 0.91475 0.0
C1776 C 0.52354 0.21294 0.87281 0.0
C1777 C 0.53868 0.21988 0.88743 0.0
C1778 C 0.49383 0.19681 0.87245 0.0
C1779 C 0.47882 0.18717 0.88667 0.0
C1780 C 0.4953 0.19123 0.90116 0.0
H1781 H 0.28191 0.10326 0.88183 0.0
H1782 H 0.33999 0.10881 0.88769 0.0
C1783 C 0.52496 0.20764 0.90156 0.0
C1784 C 0.44454 0.17663 0.88628 0.0
H1785 H 0.36833 0.20198 0.8961 0.0
C1786 C 0.43605 0.14965 0.87697 0.0
C1787 C 0.41985 0.19557 0.89342 0.0
C1788 C 0.42732 0.22575 0.90294 0.0
C1789 C 0.40342 0.1417 0.87418 0.0
C1790 C 0.37883 0.16104 0.88108 0.0
C1791 C 0.38735 0.18722 0.89087 0.0
C1792 C 0.34415 0.15659 0.87721 0.0
C1793 C 0.39549 0.11378 0.86324 0.0
C1794 C 0.32733 0.18166 0.86949 0.0
C1795 C 0.29432 0.17866 0.86628 0.0
C1796 C 0.27745 0.15062 0.87084 0.0
C1797 C 0.29441 0.12518 0.87825 0.0
C1798 C 0.32752 0.12825 0.88154 0.0
H1799 H 0.41715 0.10513 0.85661 0.0
H1800 H 0.38596 0.09326 0.8704 0.0
H1801 H 0.37651 0.12089 0.85453 0.0
H1802 H 0.33983 0.20361 0.86593 0.0
H1803 H 0.28217 0.19814 0.86004 0.0
H1804 H 0.89324 0.28261 0.3794 0.0
H1805 H 0.89025 0.34068 0.38598 0.0
H1806 H 0.78964 0.3419 0.37191 0.0
H1807 H 0.79262 0.28422 0.36532 0.0
H1808 H 0.87413 0.39368 0.367 0.0
H1809 H 0.78711 0.38076 0.4167 0.0
H1810 H 0.8092 0.34674 0.40858 0.0
H1811 H 0.77292 0.36113 0.39895 0.0
C1812 C 0.8705 0.29538 0.37784 0.0
C1813 C 0.84283 0.27888 0.37241 0.0
C1814 C 0.86882 0.32841 0.38158 0.0
C1815 C 0.83949 0.34531 0.37985 0.0
C1816 C 0.81221 0.32904 0.37384 0.0
H1817 H 0.77847 0.53431 0.36194 0.0
H1818 H 0.80742 0.48299 0.36175 0.0
C1819 C 0.81388 0.29612 0.37015 0.0
C1820 C 0.83715 0.38017 0.38388 0.0
H1821 H 0.79027 0.43359 0.40456 0.0
C1822 C 0.85624 0.40249 0.37543 0.0
C1823 C 0.81444 0.39159 0.39518 0.0
C1824 C 0.79501 0.36876 0.4055 0.0
C1825 C 0.85147 0.43605 0.37715 0.0
C1826 C 0.82655 0.44738 0.38733 0.0
C1827 C 0.80917 0.42501 0.39662 0.0
C1828 C 0.81531 0.48157 0.38725 0.0
C1829 C 0.87276 0.45891 0.36781 0.0
C1830 C 0.81035 0.49825 0.40164 0.0
C1831 C 0.79317 0.52749 0.40183 0.0
C1832 C 0.7806 0.54053 0.38762 0.0
C1833 C 0.78774 0.52499 0.37312 0.0
C1834 C 0.80464 0.49567 0.37296 0.0
H1835 H 0.89727 0.44834 0.36597 0.0
H1836 H 0.86191 0.463 0.35588 0.0
H1837 H 0.87536 0.48267 0.3739 0.0
H1838 H 0.8183 0.48779 0.41282 0.0
H1839 H 0.78827 0.53891 0.4132 0.0
H1840 H 0.94034 0.69805 0.14489 0.0
H1841 H 0.99068 0.66795 0.14943 0.0
H1842 H 0.02684 0.70006 0.10384 0.0
H1843 H 0.97611 0.72873 0.0989 0.0
H1844 H 0.0499 0.64085 0.11097 0.0
H1845 H 0.06563 0.72354 0.16279 0.0
H1846 H 0.0311 0.69726 0.16407 0.0
H1847 H 0.03273 0.728 0.14886 0.0
C1848 C 0.9587 0.69791 0.13566 0.0
C1849 C 0.95458 0.71621 0.12167 0.0
C1850 C 0.98751 0.68089 0.13831 0.0
C1851 C 0.01294 0.68275 0.12723 0.0
C1852 C 0.00766 0.69852 0.11263 0.0
H1853 H 0.21373 0.70538 0.14106 0.0
H1854 H 0.1553 0.70781 0.13697 0.0
C1855 C 0.97861 0.71494 0.10982 0.0
C1856 C 0.04618 0.67205 0.13145 0.0
H1857 H 0.10864 0.68879 0.15683 0.0
C1858 C 0.06271 0.65101 0.12109 0.0
C1859 C 0.06294 0.68572 0.14458 0.0
C1860 C 0.04737 0.71009 0.15564 0.0
C1861 C 0.09585 0.64424 0.12314 0.0
C1862 C 0.11258 0.65827 0.13614 0.0
C1863 C 0.09568 0.67805 0.1469 0.0
C1864 C 0.14823 0.6558 0.13797 0.0
C1865 C 0.11301 0.62365 0.1109 0.0
C1866 C 0.16373 0.62575 0.13998 0.0
C1867 C 0.19743 0.6243 0.1419 0.0
C1868 C 0.216 0.65287 0.14184 0.0
C1869 C 0.20027 0.68289 0.14034 0.0
C1870 C 0.16679 0.68431 0.13826 0.0
H1871 H 0.09828 0.62046 0.09992 0.0
H1872 H 0.13666 0.63458 0.10756 0.0
H1873 H 0.11776 0.59928 0.116 0.0
H1874 H 0.14979 0.60351 0.14026 0.0
H1875 H 0.20898 0.6009 0.1434 0.0
H1876 H 0.39506 0.21401 0.62811 0.0
H1877 H 0.39004 0.15599 0.62193 0.0
H1878 H 0.29188 0.15683 0.63964 0.0
H1879 H 0.29689 0.21429 0.64603 0.0
H1880 H 0.3742 0.10283 0.6421 0.0
H1881 H 0.28346 0.11957 0.59418 0.0
H1882 H 0.308 0.15246 0.60169 0.0
H1883 H 0.27231 0.13973 0.61232 0.0
C1884 C 0.37243 0.20174 0.63066 0.0
C1885 C 0.34596 0.21888 0.63704 0.0
C1886 C 0.36961 0.16871 0.62712 0.0
C1887 C 0.34032 0.15244 0.62996 0.0
C1888 C 0.31435 0.16925 0.6369 0.0
H1889 H 0.27492 0.96401 0.64693 0.0
H1890 H 0.30436 0.01509 0.64747 0.0
C1891 C 0.31714 0.20216 0.64043 0.0
C1892 C 0.33658 0.11779 0.62588 0.0
H1893 H 0.28699 0.06631 0.60557 0.0
C1894 C 0.35554 0.09473 0.63391 0.0
C1895 C 0.31278 0.10737 0.61491 0.0
C1896 C 0.2932 0.13109 0.60515 0.0
C1897 C 0.34972 0.06139 0.63206 0.0
C1898 C 0.32397 0.05108 0.62214 0.0
C1899 C 0.30657 0.07416 0.61329 0.0
C1900 C 0.31213 0.01716 0.62197 0.0
C1901 C 0.37081 0.03763 0.64097 0.0
C1902 C 0.3069 0.00104 0.60746 0.0
C1903 C 0.28954 0.97195 0.60707 0.0
C1904 C 0.27699 0.95855 0.6212 0.0
C1905 C 0.28417 0.97364 0.63581 0.0
C1906 C 0.30133 0.00279 0.63617 0.0
H1907 H 0.39552 0.04763 0.64287 0.0
H1908 H 0.36005 0.03298 0.65288 0.0
H1909 H 0.37287 0.01421 0.63453 0.0
H1910 H 0.31492 0.01177 0.59635 0.0
H1911 H 0.28462 0.96088 0.59562 0.0
H1912 H 0.78645 0.39614 0.13918 0.0
H1913 H 0.84549 0.39168 0.13617 0.0
H1914 H 0.8372 0.2874 0.1349 0.0
H1915 H 0.77896 0.29167 0.13895 0.0
H1916 H 0.8843 0.3062 0.15423 0.0
H1917 H 0.89668 0.37074 0.09638 0.0
H1918 H 0.87793 0.39372 0.11205 0.0
H1919 H 0.85789 0.35843 0.10426 0.0
C1920 C 0.79733 0.37232 0.13817 0.0
C1921 C 0.77796 0.34428 0.13868 0.0
C1922 C 0.83097 0.36982 0.13631 0.0
C1923 C 0.84566 0.33923 0.13489 0.0
C1924 C 0.82634 0.31128 0.13573 0.0
H1925 H 0.01919 0.26316 0.09748 0.0
H1926 H 0.96792 0.29138 0.1018 0.0
C1927 C 0.79292 0.31376 0.13776 0.0
C1928 C 0.88124 0.3357 0.13314 0.0
H1929 H 0.94468 0.35073 0.10805 0.0
C1930 C 0.8976 0.31615 0.1442 0.0
C1931 C 0.89843 0.34867 0.12001 0.0
C1932 C 0.88187 0.36885 0.1074 0.0
C1933 C 0.93025 0.30782 0.14213 0.0
C1934 C 0.9475 0.32058 0.12895 0.0
C1935 C 0.9315 0.34127 0.11822 0.0
C1936 C 0.98085 0.30958 0.12516 0.0
C1937 C 0.9452 0.28378 0.15358 0.0
C1938 C 0.00585 0.31198 0.13645 0.0
C1939 C 0.03493 0.29522 0.13416 0.0
C1940 C 0.03979 0.27667 0.12032 0.0
C1941 C 0.01611 0.27719 0.10829 0.0
C1942 C 0.98677 0.29334 0.11074 0.0
H1943 H 0.92654 0.2707 0.16064 0.0
H1944 H 0.96004 0.26555 0.14713 0.0
H1945 H 0.96114 0.29686 0.16207 0.0
H1946 H 0.0022 0.32529 0.14743 0.0
H1947 H 0.05302 0.29563 0.14352 0.0
H1948 H 0.70775 0.03824 0.59319 0.0
H1949 H 0.6763 0.98801 0.59334 0.0
H1950 H 0.68546 0.98289 0.64449 0.0
H1951 H 0.71587 0.03331 0.64452 0.0
H1952 H 0.70311 0.93334 0.60185 0.0
H1953 H 0.59511 0.9499 0.63954 0.0
H1954 H 0.61772 0.98387 0.63171 0.0
H1955 H 0.63021 0.96426 0.64992 0.0
C1956 C 0.7022 0.02695 0.60452 0.0
C1957 C 0.71472 0.03958 0.61883 0.0
C1958 C 0.68417 0.99825 0.60458 0.0
C1959 C 0.6783 0.98173 0.61893 0.0
C1960 C 0.68892 0.9955 0.6333 0.0
H1961 H 0.70122 0.78743 0.64349 0.0
H1962 H 0.70292 0.84489 0.63633 0.0
C1963 C 0.70669 0.02427 0.63327 0.0
C1964 C 0.66646 0.94779 0.61877 0.0
H1965 H 0.61821 0.89494 0.63922 0.0
C1966 C 0.68392 0.9251 0.60971 0.0
C1967 C 0.64118 0.93691 0.62885 0.0
C1968 C 0.6198 0.96016 0.6379 0.0
C1969 C 0.67857 0.89177 0.61142 0.0
C1970 C 0.65564 0.88083 0.62271 0.0
C1971 C 0.63628 0.90344 0.63081 0.0
C1972 C 0.65379 0.84628 0.62726 0.0
C1973 C 0.69837 0.86848 0.60152 0.0
C1974 C 0.6252 0.8284 0.62506 0.0
C1975 C 0.62429 0.79547 0.62908 0.0
C1976 C 0.65199 0.78014 0.63526 0.0
C1977 C 0.68005 0.79843 0.63808 0.0
C1978 C 0.68097 0.83121 0.63408 0.0
H1979 H 0.70684 0.88002 0.5903 0.0
H1980 H 0.72011 0.86096 0.60839 0.0
H1981 H 0.68422 0.84642 0.5985 0.0
H1982 H 0.60385 0.83978 0.62002 0.0
H1983 H 0.60222 0.78183 0.62707 0.0
loop_
_geom_bond_atom_site_label_1
_geom_bond_atom_site_label_2
_geom_bond_distance
_geom_bond_site_symmetry_2
_ccdc_geom_bond_type
Co0 O3 1.970 . S
Co0 N17 1.989 . S
Co0 O25 1.967 . S
Co0 O32 1.920 . S
Co1 O4 1.966 . S
Co1 N10 2.022 . S
Co1 N18 1.993 . S
Co1 O26 1.941 . S
C2 O3 1.258 . S
C2 O4 1.263 . S
O3 Co0 1.970 . S
O3 C2 1.258 . S
O4 Co1 1.966 . S
O4 C2 1.263 . S
C5 O6 1.235 . S
C5 O32 1.289 . S
O6 C5 1.235 . S
C7 C9 1.400 . S
C7 N10 1.351 . S
C7 C12 1.501 . S
C8 C9 1.387 . S
C8 N11 1.341 . S
C9 C7 1.400 . S
C9 C8 1.387 . S
N10 Co1 2.022 . S
N10 C7 1.351 . S
N10 N11 1.365 . S
N11 C8 1.341 . S
N11 N10 1.365 . S
N11 H31 0.862 . S
C12 C7 1.501 . S
C12 H13 0.961 . S
C12 H14 0.961 . S
C12 H15 0.960 . S
H13 C12 0.961 . S
H14 C12 0.961 . S
H15 C12 0.960 . S
C16 N17 1.342 . S
C16 C20 1.401 . S
C16 C21 1.499 . S
N17 Co0 1.989 . S
N17 C16 1.342 . S
N17 N18 1.388 . S
N18 Co1 1.993 . S
N18 N17 1.388 . S
N18 C19 1.346 . S
C19 N18 1.346 . S
C19 C20 1.396 . S
C19 C29 1.510 . S
C20 C16 1.401 . S
C20 C19 1.396 . S
C21 C16 1.499 . S
C21 H22 0.959 . S
C21 H23 0.960 . S
C21 H24 0.961 . S
H22 C21 0.959 . S
H23 C21 0.960 . S
H24 C21 0.961 . S
O25 Co0 1.967 . S
O25 C33 1.258 . S
O26 Co1 1.941 . S
O26 C33 1.266 . S
H27 C29 0.959 . S
H28 C29 0.961 . S
C29 C19 1.510 . S
C29 H27 0.959 . S
C29 H28 0.961 . S
C29 H30 0.960 . S
H30 C29 0.960 . S
H31 N11 0.862 . S
O32 Co0 1.920 . S
O32 C5 1.289 . S
C33 O25 1.258 . S
C33 O26 1.266 . S
Co34 O37 1.970 . S
Co34 N51 1.989 . S
Co34 O59 1.967 . S
Co34 O66 1.920 . S
Co35 O38 1.966 . S
Co35 N44 2.022 . S
Co35 N52 1.993 . S
Co35 O60 1.941 . S
C36 O37 1.258 . S
C36 O38 1.263 . S
O37 Co34 1.970 . S
O37 C36 1.258 . S
O38 Co35 1.966 . S
O38 C36 1.263 . S
C39 O40 1.235 . S
C39 O66 1.289 . S
O40 C39 1.235 . S
C41 C43 1.400 . S
C41 N44 1.351 . S
C41 C46 1.501 . S
C42 C43 1.387 . S
C42 N45 1.341 . S
C43 C41 1.400 . S
C43 C42 1.387 . S
N44 Co35 2.022 . S
N44 C41 1.351 . S
N44 N45 1.365 . S
N45 C42 1.341 . S
N45 N44 1.365 . S
N45 H65 0.862 . S
C46 C41 1.501 . S
C46 H47 0.961 . S
C46 H48 0.961 . S
C46 H49 0.960 . S
H47 C46 0.961 . S
H48 C46 0.961 . S
H49 C46 0.960 . S
C50 N51 1.342 . S
C50 C54 1.401 . S
C50 C55 1.499 . S
N51 Co34 1.989 . S
N51 C50 1.342 . S
N51 N52 1.388 . S
N52 Co35 1.993 . S
N52 N51 1.388 . S
N52 C53 1.346 . S
C53 N52 1.346 . S
C53 C54 1.396 . S
C53 C63 1.510 . S
C54 C50 1.401 . S
C54 C53 1.396 . S
C55 C50 1.499 . S
C55 H56 0.959 . S
C55 H57 0.960 . S
C55 H58 0.961 . S
H56 C55 0.959 . S
H57 C55 0.960 . S
H58 C55 0.961 . S
O59 Co34 1.967 . S
O59 C67 1.258 . S
O60 Co35 1.941 . S
O60 C67 1.266 . S
H61 C63 0.959 . S
H62 C63 0.961 . S
C63 C53 1.510 . S
C63 H61 0.959 . S
C63 H62 0.961 . S
C63 H64 0.960 . S
H64 C63 0.960 . S
H65 N45 0.862 . S
O66 Co34 1.920 . S
O66 C39 1.289 . S
C67 O59 1.258 . S
C67 O60 1.266 . S
Co68 O71 1.970 . S
Co68 N85 1.989 . S
Co68 O93 1.967 . S
Co68 O100 1.920 . S
Co69 O72 1.966 . S
Co69 N78 2.022 . S
Co69 N86 1.993 . S
Co69 O94 1.941 . S
C70 O71 1.258 . S
C70 O72 1.263 . S
O71 Co68 1.970 . S
O71 C70 1.258 . S
O72 Co69 1.966 . S
O72 C70 1.263 . S
C73 O74 1.235 . S
C73 O100 1.289 . S
O74 C73 1.235 . S
C75 C77 1.400 . S
C75 N78 1.351 . S
C75 C80 1.501 . S
C76 C77 1.387 . S
C76 N79 1.341 . S
C77 C75 1.400 . S
C77 C76 1.387 . S
N78 Co69 2.022 . S
N78 C75 1.351 . S
N78 N79 1.365 . S
N79 C76 1.341 . S
N79 N78 1.365 . S
N79 H99 0.862 . S
C80 C75 1.501 . S
C80 H81 0.961 . S
C80 H82 0.961 . S
C80 H83 0.960 . S
H81 C80 0.961 . S
H82 C80 0.961 . S
H83 C80 0.960 . S
C84 N85 1.342 . S
C84 C88 1.401 . S
C84 C89 1.499 . S
N85 Co68 1.989 . S
N85 C84 1.342 . S
N85 N86 1.388 . S
N86 Co69 1.993 . S
N86 N85 1.388 . S
N86 C87 1.346 . S
C87 N86 1.346 . S
C87 C88 1.396 . S
C87 C97 1.510 . S
C88 C84 1.401 . S
C88 C87 1.396 . S
C89 C84 1.499 . S
C89 H90 0.959 . S
C89 H91 0.960 . S
C89 H92 0.961 . S
H90 C89 0.959 . S
H91 C89 0.960 . S
H92 C89 0.961 . S
O93 Co68 1.967 . S
O93 C101 1.258 . S
O94 Co69 1.941 . S
O94 C101 1.266 . S
H95 C97 0.959 . S
H96 C97 0.961 . S
C97 C87 1.510 . S
C97 H95 0.959 . S
C97 H96 0.961 . S
C97 H98 0.960 . S
H98 C97 0.960 . S
H99 N79 0.862 . S
O100 Co68 1.920 . S
O100 C73 1.289 . S
C101 O93 1.258 . S
C101 O94 1.266 . S
Co102 O105 1.970 . S
Co102 N119 1.989 . S
Co102 O127 1.967 . S
Co102 O134 1.920 . S
Co103 O106 1.966 . S
Co103 N112 2.022 . S
Co103 N120 1.993 . S
Co103 O128 1.941 . S
C104 O105 1.258 . S
C104 O106 1.263 . S
O105 Co102 1.970 . S
O105 C104 1.258 . S
O106 Co103 1.966 . S
O106 C104 1.263 . S
C107 O108 1.235 . S
C107 O134 1.289 . S
O108 C107 1.235 . S
C109 C111 1.400 . S
C109 N112 1.351 . S
C109 C114 1.501 . S
C110 C111 1.387 . S
C110 N113 1.341 . S
C111 C109 1.400 . S
C111 C110 1.387 . S
N112 Co103 2.022 . S
N112 C109 1.351 . S
N112 N113 1.365 . S
N113 C110 1.341 . S
N113 N112 1.365 . S
N113 H133 0.862 . S
C114 C109 1.501 . S
C114 H115 0.961 . S
C114 H116 0.961 . S
C114 H117 0.960 . S
H115 C114 0.961 . S
H116 C114 0.961 . S
H117 C114 0.960 . S
C118 N119 1.342 . S
C118 C122 1.401 . S
C118 C123 1.499 . S
N119 Co102 1.989 . S
N119 C118 1.342 . S
N119 N120 1.388 . S
N120 Co103 1.993 . S
N120 N119 1.388 . S
N120 C121 1.346 . S
C121 N120 1.346 . S
C121 C122 1.396 . S
C121 C131 1.510 . S
C122 C118 1.401 . S
C122 C121 1.396 . S
C123 C118 1.499 . S
C123 H124 0.959 . S
C123 H125 0.960 . S
C123 H126 0.961 . S
H124 C123 0.959 . S
H125 C123 0.960 . S
H126 C123 0.961 . S
O127 Co102 1.967 . S
O127 C135 1.258 . S
O128 Co103 1.941 . S
O128 C135 1.266 . S
H129 C131 0.959 . S
H130 C131 0.961 . S
C131 C121 1.510 . S
C131 H129 0.959 . S
C131 H130 0.961 . S
C131 H132 0.960 . S
H132 C131 0.960 . S
H133 N113 0.862 . S
O134 Co102 1.920 . S
O134 C107 1.289 . S
C135 O127 1.258 . S
C135 O128 1.266 . S
Co136 O139 1.970 . S
Co136 N153 1.989 . S
Co136 O161 1.967 . S
Co136 O168 1.920 . S
Co137 O140 1.966 . S
Co137 N146 2.022 . S
Co137 N154 1.993 . S
Co137 O162 1.941 . S
C138 O139 1.258 . S
C138 O140 1.263 . S
O139 Co136 1.970 . S
O139 C138 1.258 . S
O140 Co137 1.966 . S
O140 C138 1.263 . S
C141 O142 1.235 . S
C141 O168 1.289 . S
O142 C141 1.235 . S
C143 C145 1.400 . S
C143 N146 1.351 . S
C143 C148 1.501 . S
C144 C145 1.387 . S
C144 N147 1.341 . S
C145 C143 1.400 . S
C145 C144 1.387 . S
N146 Co137 2.022 . S
N146 C143 1.351 . S
N146 N147 1.365 . S
N147 C144 1.341 . S
N147 N146 1.365 . S
N147 H167 0.862 . S
C148 C143 1.501 . S
C148 H149 0.961 . S
C148 H150 0.961 . S
C148 H151 0.960 . S
H149 C148 0.961 . S
H150 C148 0.961 . S
H151 C148 0.960 . S
C152 N153 1.342 . S
C152 C156 1.401 . S
C152 C157 1.499 . S
N153 Co136 1.989 . S
N153 C152 1.342 . S
N153 N154 1.388 . S
N154 Co137 1.993 . S
N154 N153 1.388 . S
N154 C155 1.346 . S
C155 N154 1.346 . S
C155 C156 1.396 . S
C155 C165 1.510 . S
C156 C152 1.401 . S
C156 C155 1.396 . S
C157 C152 1.499 . S
C157 H158 0.959 . S
C157 H159 0.960 . S
C157 H160 0.961 . S
H158 C157 0.959 . S
H159 C157 0.960 . S
H160 C157 0.961 . S
O161 Co136 1.967 . S
O161 C169 1.258 . S
O162 Co137 1.941 . S
O162 C169 1.266 . S
H163 C165 0.959 . S
H164 C165 0.961 . S
C165 C155 1.510 . S
C165 H163 0.959 . S
C165 H164 0.961 . S
C165 H166 0.960 . S
H166 C165 0.960 . S
H167 N147 0.862 . S
O168 Co136 1.920 . S
O168 C141 1.289 . S
C169 O161 1.258 . S
C169 O162 1.266 . S
Co170 O173 1.970 . S
Co170 N187 1.989 . S
Co170 O195 1.967 . S
Co170 O202 1.920 . S
Co171 O174 1.966 . S
Co171 N180 2.022 . S
Co171 N188 1.993 . S
Co171 O196 1.941 . S
C172 O173 1.258 . S
C172 O174 1.263 . S
O173 Co170 1.970 . S
O173 C172 1.258 . S
O174 Co171 1.966 . S
O174 C172 1.263 . S
C175 O176 1.235 . S
C175 O202 1.289 . S
O176 C175 1.235 . S
C177 C179 1.400 . S
C177 N180 1.351 . S
C177 C182 1.501 . S
C178 C179 1.387 . S
C178 N181 1.341 . S
C179 C177 1.400 . S
C179 C178 1.387 . S
N180 Co171 2.022 . S
N180 C177 1.351 . S
N180 N181 1.365 . S
N181 C178 1.341 . S
N181 N180 1.365 . S
N181 H201 0.862 . S
C182 C177 1.501 . S
C182 H183 0.961 . S
C182 H184 0.961 . S
C182 H185 0.960 . S
H183 C182 0.961 . S
H184 C182 0.961 . S
H185 C182 0.960 . S
C186 N187 1.342 . S
C186 C190 1.401 . S
C186 C191 1.499 . S
N187 Co170 1.989 . S
N187 C186 1.342 . S
N187 N188 1.388 . S
N188 Co171 1.993 . S
N188 N187 1.388 . S
N188 C189 1.346 . S
C189 N188 1.346 . S
C189 C190 1.396 . S
C189 C199 1.510 . S
C190 C186 1.401 . S
C190 C189 1.396 . S
C191 C186 1.499 . S
C191 H192 0.959 . S
C191 H193 0.960 . S
C191 H194 0.961 . S
H192 C191 0.959 . S
H193 C191 0.960 . S
H194 C191 0.961 . S
O195 Co170 1.967 . S
O195 C203 1.258 . S
O196 Co171 1.941 . S
O196 C203 1.266 . S
H197 C199 0.959 . S
H198 C199 0.961 . S
C199 C189 1.510 . S
C199 H197 0.959 . S
C199 H198 0.961 . S
C199 H200 0.960 . S
H200 C199 0.960 . S
H201 N181 0.862 . S
O202 Co170 1.920 . S
O202 C175 1.289 . S
C203 O195 1.258 . S
C203 O196 1.266 . S
Co204 O207 1.970 . S
Co204 N221 1.989 . S
Co204 O229 1.967 . S
Co204 O236 1.920 . S
Co205 O208 1.966 . S
Co205 N214 2.022 . S
Co205 N222 1.993 . S
Co205 O230 1.941 . S
C206 O207 1.258 . S
C206 O208 1.263 . S
O207 Co204 1.970 . S
O207 C206 1.258 . S
O208 Co205 1.966 . S
O208 C206 1.263 . S
C209 O210 1.235 . S
C209 O236 1.289 . S
O210 C209 1.235 . S
C211 C213 1.400 . S
C211 N214 1.351 . S
C211 C216 1.501 . S
C212 C213 1.387 . S
C212 N215 1.341 . S
C213 C211 1.400 . S
C213 C212 1.387 . S
N214 Co205 2.022 . S
N214 C211 1.351 . S
N214 N215 1.365 . S
N215 C212 1.341 . S
N215 N214 1.365 . S
N215 H235 0.862 . S
C216 C211 1.501 . S
C216 H217 0.961 . S
C216 H218 0.961 . S
C216 H219 0.960 . S
H217 C216 0.961 . S
H218 C216 0.961 . S
H219 C216 0.960 . S
C220 N221 1.342 . S
C220 C224 1.401 . S
C220 C225 1.499 . S
N221 Co204 1.989 . S
N221 C220 1.342 . S
N221 N222 1.388 . S
N222 Co205 1.993 . S
N222 N221 1.388 . S
N222 C223 1.346 . S
C223 N222 1.346 . S
C223 C224 1.396 . S
C223 C233 1.510 . S
C224 C220 1.401 . S
C224 C223 1.396 . S
C225 C220 1.499 . S
C225 H226 0.959 . S
C225 H227 0.960 . S
C225 H228 0.961 . S
H226 C225 0.959 . S
H227 C225 0.960 . S
H228 C225 0.961 . S
O229 Co204 1.967 . S
O229 C237 1.258 . S
O230 Co205 1.941 . S
O230 C237 1.266 . S
H231 C233 0.959 . S
H232 C233 0.961 . S
C233 C223 1.510 . S
C233 H231 0.959 . S
C233 H232 0.961 . S
C233 H234 0.960 . S
H234 C233 0.960 . S
H235 N215 0.862 . S
O236 Co204 1.920 . S
O236 C209 1.289 . S
C237 O229 1.258 . S
C237 O230 1.266 . S
Co238 O241 1.970 . S
Co238 N255 1.989 . S
Co238 O263 1.967 . S
Co238 O270 1.920 . S
Co239 O242 1.966 . S
Co239 N248 2.022 . S
Co239 N256 1.993 . S
Co239 O264 1.941 . S
C240 O241 1.258 . S
C240 O242 1.263 . S
O241 Co238 1.970 . S
O241 C240 1.258 . S
O242 Co239 1.966 . S
O242 C240 1.263 . S
C243 O244 1.235 . S
C243 O270 1.289 . S
O244 C243 1.235 . S
C245 C247 1.400 . S
C245 N248 1.351 . S
C245 C250 1.501 . S
C246 C247 1.387 . S
C246 N249 1.341 . S
C247 C245 1.400 . S
C247 C246 1.387 . S
N248 Co239 2.022 . S
N248 C245 1.351 . S
N248 N249 1.365 . S
N249 C246 1.341 . S
N249 N248 1.365 . S
N249 H269 0.862 . S
C250 C245 1.501 . S
C250 H251 0.961 . S
C250 H252 0.961 . S
C250 H253 0.960 . S
H251 C250 0.961 . S
H252 C250 0.961 . S
H253 C250 0.960 . S
C254 N255 1.342 . S
C254 C258 1.401 . S
C254 C259 1.499 . S
N255 Co238 1.989 . S
N255 C254 1.342 . S
N255 N256 1.388 . S
N256 Co239 1.993 . S
N256 N255 1.388 . S
N256 C257 1.346 . S
C257 N256 1.346 . S
C257 C258 1.396 . S
C257 C267 1.510 . S
C258 C254 1.401 . S
C258 C257 1.396 . S
C259 C254 1.499 . S
C259 H260 0.959 . S
C259 H261 0.960 . S
C259 H262 0.961 . S
H260 C259 0.959 . S
H261 C259 0.960 . S
H262 C259 0.961 . S
O263 Co238 1.967 . S
O263 C271 1.258 . S
O264 Co239 1.941 . S
O264 C271 1.266 . S
H265 C267 0.959 . S
H266 C267 0.961 . S
C267 C257 1.510 . S
C267 H265 0.959 . S
C267 H266 0.961 . S
C267 H268 0.960 . S
H268 C267 0.960 . S
H269 N249 0.862 . S
O270 Co238 1.920 . S
O270 C243 1.289 . S
C271 O263 1.258 . S
C271 O264 1.266 . S
Co272 O275 1.970 . S
Co272 N289 1.989 . S
Co272 O297 1.967 . S
Co272 O304 1.920 1_655 S
Co273 O276 1.966 . S
Co273 N282 2.022 . S
Co273 N290 1.993 . S
Co273 O298 1.941 . S
C274 O275 1.258 . S
C274 O276 1.263 . S
O275 Co272 1.970 . S
O275 C274 1.258 . S
O276 Co273 1.966 . S
O276 C274 1.263 . S
C277 O278 1.235 . S
C277 O304 1.289 . S
O278 C277 1.235 . S
C279 C281 1.400 . S
C279 N282 1.351 . S
C279 C284 1.501 . S
C280 C281 1.387 . S
C280 N283 1.341 . S
C281 C279 1.400 . S
C281 C280 1.387 . S
N282 Co273 2.022 . S
N282 C279 1.351 . S
N282 N283 1.365 . S
N283 C280 1.341 . S
N283 N282 1.365 . S
N283 H303 0.862 . S
C284 C279 1.501 . S
C284 H285 0.961 . S
C284 H286 0.961 . S
C284 H287 0.960 . S
H285 C284 0.961 . S
H286 C284 0.961 . S
H287 C284 0.960 . S
C288 N289 1.342 . S
C288 C292 1.401 . S
C288 C293 1.499 . S
N289 Co272 1.989 . S
N289 C288 1.342 . S
N289 N290 1.388 . S
N290 Co273 1.993 . S
N290 N289 1.388 . S
N290 C291 1.346 . S
C291 N290 1.346 . S
C291 C292 1.396 . S
C291 C301 1.510 . S
C292 C288 1.401 . S
C292 C291 1.396 . S
C293 C288 1.499 . S
C293 H294 0.959 . S
C293 H295 0.960 . S
C293 H296 0.961 . S
H294 C293 0.959 . S
H295 C293 0.960 . S
H296 C293 0.961 . S
O297 Co272 1.967 . S
O297 C305 1.258 . S
O298 Co273 1.941 . S
O298 C305 1.266 . S
H299 C301 0.959 . S
H300 C301 0.961 . S
C301 C291 1.510 . S
C301 H299 0.959 . S
C301 H300 0.961 . S
C301 H302 0.960 . S
H302 C301 0.960 . S
H303 N283 0.862 . S
O304 Co272 1.920 1_455 S
O304 C277 1.289 . S
C305 O297 1.258 . S
C305 O298 1.266 . S
Co306 O309 1.970 . S
Co306 N323 1.989 . S
Co306 O331 1.967 . S
Co306 O338 1.920 1_565 S
Co307 O310 1.966 . S
Co307 N316 2.022 . S
Co307 N324 1.993 . S
Co307 O332 1.941 . S
C308 O309 1.258 . S
C308 O310 1.263 . S
O309 Co306 1.970 . S
O309 C308 1.258 . S
O310 Co307 1.966 . S
O310 C308 1.263 . S
C311 O312 1.235 . S
C311 O338 1.289 . S
O312 C311 1.235 . S
C313 C315 1.400 . S
C313 N316 1.351 . S
C313 C318 1.501 . S
C314 C315 1.387 . S
C314 N317 1.341 . S
C315 C313 1.400 . S
C315 C314 1.387 . S
N316 Co307 2.022 . S
N316 C313 1.351 . S
N316 N317 1.365 . S
N317 C314 1.341 . S
N317 N316 1.365 . S
N317 H337 0.862 . S
C318 C313 1.501 . S
C318 H319 0.961 . S
C318 H320 0.961 . S
C318 H321 0.960 . S
H319 C318 0.961 . S
H320 C318 0.961 . S
H321 C318 0.960 . S
C322 N323 1.342 . S
C322 C326 1.401 . S
C322 C327 1.499 . S
N323 Co306 1.989 . S
N323 C322 1.342 . S
N323 N324 1.388 . S
N324 Co307 1.993 . S
N324 N323 1.388 . S
N324 C325 1.346 . S
C325 N324 1.346 . S
C325 C326 1.396 . S
C325 C335 1.510 . S
C326 C322 1.401 . S
C326 C325 1.396 . S
C327 C322 1.499 . S
C327 H328 0.959 . S
C327 H329 0.960 . S
C327 H330 0.961 . S
H328 C327 0.959 . S
H329 C327 0.960 . S
H330 C327 0.961 . S
O331 Co306 1.967 . S
O331 C339 1.258 . S
O332 Co307 1.941 . S
O332 C339 1.266 . S
H333 C335 0.959 . S
H334 C335 0.961 . S
C335 C325 1.510 . S
C335 H333 0.959 . S
C335 H334 0.961 . S
C335 H336 0.960 . S
H336 C335 0.960 . S
H337 N317 0.862 . S
O338 Co306 1.920 1_545 S
O338 C311 1.289 . S
C339 O331 1.258 . S
C339 O332 1.266 . S
Co340 O343 1.970 . S
Co340 N357 1.989 . S
Co340 O365 1.967 . S
Co340 O372 1.920 1_455 S
Co341 O344 1.966 . S
Co341 N350 2.022 . S
Co341 N358 1.993 . S
Co341 O366 1.941 . S
C342 O343 1.258 . S
C342 O344 1.263 . S
O343 Co340 1.970 . S
O343 C342 1.258 . S
O344 Co341 1.966 . S
O344 C342 1.263 . S
C345 O346 1.235 . S
C345 O372 1.289 . S
O346 C345 1.235 . S
C347 C349 1.400 . S
C347 N350 1.351 . S
C347 C352 1.501 . S
C348 C349 1.387 . S
C348 N351 1.341 . S
C349 C347 1.400 . S
C349 C348 1.387 . S
N350 Co341 2.022 . S
N350 C347 1.351 . S
N350 N351 1.365 . S
N351 C348 1.341 . S
N351 N350 1.365 . S
N351 H371 0.862 . S
C352 C347 1.501 . S
C352 H353 0.961 . S
C352 H354 0.961 . S
C352 H355 0.960 . S
H353 C352 0.961 . S
H354 C352 0.961 . S
H355 C352 0.960 . S
C356 N357 1.342 . S
C356 C360 1.401 . S
C356 C361 1.499 . S
N357 Co340 1.989 . S
N357 C356 1.342 . S
N357 N358 1.388 . S
N358 Co341 1.993 . S
N358 N357 1.388 . S
N358 C359 1.346 . S
C359 N358 1.346 . S
C359 C360 1.396 . S
C359 C369 1.510 . S
C360 C356 1.401 . S
C360 C359 1.396 . S
C361 C356 1.499 . S
C361 H362 0.959 . S
C361 H363 0.960 . S
C361 H364 0.961 . S
H362 C361 0.959 . S
H363 C361 0.960 . S
H364 C361 0.961 . S
O365 Co340 1.967 . S
O365 C373 1.258 . S
O366 Co341 1.941 . S
O366 C373 1.266 . S
H367 C369 0.959 . S
H368 C369 0.961 . S
C369 C359 1.510 . S
C369 H367 0.959 . S
C369 H368 0.961 . S
C369 H370 0.960 . S
H370 C369 0.960 . S
H371 N351 0.862 . S
O372 Co340 1.920 1_655 S
O372 C345 1.289 . S
C373 O365 1.258 . S
C373 O366 1.266 . S
Co374 O377 1.970 . S
Co374 N391 1.989 . S
Co374 O399 1.967 . S
Co374 O406 1.920 1_545 S
Co375 O378 1.966 . S
Co375 N384 2.022 . S
Co375 N392 1.993 . S
Co375 O400 1.941 . S
C376 O377 1.258 . S
C376 O378 1.263 . S
O377 Co374 1.970 . S
O377 C376 1.258 . S
O378 Co375 1.966 . S
O378 C376 1.263 . S
C379 O380 1.235 . S
C379 O406 1.289 . S
O380 C379 1.235 . S
C381 C383 1.400 . S
C381 N384 1.351 . S
C381 C386 1.501 . S
C382 C383 1.387 . S
C382 N385 1.341 . S
C383 C381 1.400 . S
C383 C382 1.387 . S
N384 Co375 2.022 . S
N384 C381 1.351 . S
N384 N385 1.365 . S
N385 C382 1.341 . S
N385 N384 1.365 . S
N385 H405 0.862 . S
C386 C381 1.501 . S
C386 H387 0.961 . S
C386 H388 0.961 . S
C386 H389 0.960 . S
H387 C386 0.961 . S
H388 C386 0.961 . S
H389 C386 0.960 . S
C390 N391 1.342 . S
C390 C394 1.401 . S
C390 C395 1.499 . S
N391 Co374 1.989 . S
N391 C390 1.342 . S
N391 N392 1.388 . S
N392 Co375 1.993 . S
N392 N391 1.388 . S
N392 C393 1.346 . S
C393 N392 1.346 . S
C393 C394 1.396 . S
C393 C403 1.510 . S
C394 C390 1.401 . S
C394 C393 1.396 . S
C395 C390 1.499 . S
C395 H396 0.959 . S
C395 H397 0.960 . S
C395 H398 0.961 . S
H396 C395 0.959 . S
H397 C395 0.960 . S
H398 C395 0.961 . S
O399 Co374 1.967 . S
O399 C407 1.258 . S
O400 Co375 1.941 . S
O400 C407 1.266 . S
H401 C403 0.959 . S
H402 C403 0.961 . S
C403 C393 1.510 . S
C403 H401 0.959 . S
C403 H402 0.961 . S
C403 H404 0.960 . S
H404 C403 0.960 . S
H405 N385 0.862 . S
O406 Co374 1.920 1_565 S
O406 C379 1.289 . S
C407 O399 1.258 . S
C407 O400 1.266 . S
Co408 O411 1.970 . S
Co408 N425 1.989 . S
Co408 O433 1.967 . S
Co408 O440 1.920 . S
Co409 O412 1.966 . S
Co409 N418 2.022 . S
Co409 N426 1.993 . S
Co409 O434 1.941 . S
C410 O411 1.258 . S
C410 O412 1.263 . S
O411 Co408 1.970 . S
O411 C410 1.258 . S
O412 Co409 1.966 . S
O412 C410 1.263 . S
C413 O414 1.235 . S
C413 O440 1.289 . S
O414 C413 1.235 . S
C415 C417 1.400 . S
C415 N418 1.351 . S
C415 C420 1.501 . S
C416 C417 1.387 . S
C416 N419 1.341 . S
C417 C415 1.400 . S
C417 C416 1.387 . S
N418 Co409 2.022 . S
N418 C415 1.351 . S
N418 N419 1.365 . S
N419 C416 1.341 . S
N419 N418 1.365 . S
N419 H439 0.862 . S
C420 C415 1.501 . S
C420 H421 0.961 . S
C420 H422 0.961 . S
C420 H423 0.960 . S
H421 C420 0.961 . S
H422 C420 0.961 . S
H423 C420 0.960 . S
C424 N425 1.342 . S
C424 C428 1.401 . S
C424 C429 1.499 . S
N425 Co408 1.989 . S
N425 C424 1.342 . S
N425 N426 1.388 . S
N426 Co409 1.993 . S
N426 N425 1.388 . S
N426 C427 1.346 . S
C427 N426 1.346 . S
C427 C428 1.396 . S
C427 C437 1.510 . S
C428 C424 1.401 . S
C428 C427 1.396 . S
C429 C424 1.499 . S
C429 H430 0.959 . S
C429 H431 0.960 . S
C429 H432 0.961 . S
H430 C429 0.959 . S
H431 C429 0.960 . S
H432 C429 0.961 . S
O433 Co408 1.967 . S
O433 C441 1.258 . S
O434 Co409 1.941 . S
O434 C441 1.266 . S
H435 C437 0.959 . S
H436 C437 0.961 . S
C437 C427 1.510 . S
C437 H435 0.959 . S
C437 H436 0.961 . S
C437 H438 0.960 . S
H438 C437 0.960 . S
H439 N419 0.862 . S
O440 Co408 1.920 . S
O440 C413 1.289 . S
C441 O433 1.258 . S
C441 O434 1.266 . S
Co442 O445 1.970 . S
Co442 N459 1.989 . S
Co442 O467 1.967 . S
Co442 O474 1.920 . S
Co443 O446 1.966 . S
Co443 N452 2.022 . S
Co443 N460 1.993 . S
Co443 O468 1.941 . S
C444 O445 1.258 . S
C444 O446 1.263 . S
O445 Co442 1.970 . S
O445 C444 1.258 . S
O446 Co443 1.966 . S
O446 C444 1.263 . S
C447 O448 1.235 . S
C447 O474 1.289 . S
O448 C447 1.235 . S
C449 C451 1.400 . S
C449 N452 1.351 . S
C449 C454 1.501 . S
C450 C451 1.387 . S
C450 N453 1.341 . S
C451 C449 1.400 . S
C451 C450 1.387 . S
N452 Co443 2.022 . S
N452 C449 1.351 . S
N452 N453 1.365 . S
N453 C450 1.341 . S
N453 N452 1.365 . S
N453 H473 0.862 . S
C454 C449 1.501 . S
C454 H455 0.961 . S
C454 H456 0.961 . S
C454 H457 0.960 . S
H455 C454 0.961 . S
H456 C454 0.961 . S
H457 C454 0.960 . S
C458 N459 1.342 . S
C458 C462 1.401 . S
C458 C463 1.499 . S
N459 Co442 1.989 . S
N459 C458 1.342 . S
N459 N460 1.388 . S
N460 Co443 1.993 . S
N460 N459 1.388 . S
N460 C461 1.346 . S
C461 N460 1.346 . S
C461 C462 1.396 . S
C461 C471 1.510 . S
C462 C458 1.401 . S
C462 C461 1.396 . S
C463 C458 1.499 . S
C463 H464 0.959 . S
C463 H465 0.960 . S
C463 H466 0.961 . S
H464 C463 0.959 . S
H465 C463 0.960 . S
H466 C463 0.961 . S
O467 Co442 1.967 . S
O467 C475 1.258 . S
O468 Co443 1.941 . S
O468 C475 1.266 . S
H469 C471 0.959 . S
H470 C471 0.961 . S
C471 C461 1.510 . S
C471 H469 0.959 . S
C471 H470 0.961 . S
C471 H472 0.960 . S
H472 C471 0.960 . S
H473 N453 0.862 . S
O474 Co442 1.920 . S
O474 C447 1.289 . S
C475 O467 1.258 . S
C475 O468 1.266 . S
Co476 O479 1.970 . S
Co476 N493 1.989 . S
Co476 O501 1.967 . S
Co476 O508 1.920 . S
Co477 O480 1.966 . S
Co477 N486 2.022 . S
Co477 N494 1.993 . S
Co477 O502 1.941 . S
C478 O479 1.258 . S
C478 O480 1.263 . S
O479 Co476 1.970 . S
O479 C478 1.258 . S
O480 Co477 1.966 . S
O480 C478 1.263 . S
C481 O482 1.235 . S
C481 O508 1.289 . S
O482 C481 1.235 . S
C483 C485 1.400 . S
C483 N486 1.351 . S
C483 C488 1.501 . S
C484 C485 1.387 . S
C484 N487 1.341 . S
C485 C483 1.400 . S
C485 C484 1.387 . S
N486 Co477 2.022 . S
N486 C483 1.351 . S
N486 N487 1.365 . S
N487 C484 1.341 . S
N487 N486 1.365 . S
N487 H507 0.862 . S
C488 C483 1.501 . S
C488 H489 0.961 . S
C488 H490 0.961 . S
C488 H491 0.960 . S
H489 C488 0.961 . S
H490 C488 0.961 . S
H491 C488 0.960 . S
C492 N493 1.342 . S
C492 C496 1.401 . S
C492 C497 1.499 . S
N493 Co476 1.989 . S
N493 C492 1.342 . S
N493 N494 1.388 . S
N494 Co477 1.993 . S
N494 N493 1.388 . S
N494 C495 1.346 . S
C495 N494 1.346 . S
C495 C496 1.396 . S
C495 C505 1.510 . S
C496 C492 1.401 . S
C496 C495 1.396 . S
C497 C492 1.499 . S
C497 H498 0.959 . S
C497 H499 0.960 . S
C497 H500 0.961 . S
H498 C497 0.959 . S
H499 C497 0.960 . S
H500 C497 0.961 . S
O501 Co476 1.967 . S
O501 C509 1.258 . S
O502 Co477 1.941 . S
O502 C509 1.266 . S
H503 C505 0.959 . S
H504 C505 0.961 . S
C505 C495 1.510 . S
C505 H503 0.959 . S
C505 H504 0.961 . S
C505 H506 0.960 . S
H506 C505 0.960 . S
H507 N487 0.862 . S
O508 Co476 1.920 . S
O508 C481 1.289 . S
C509 O501 1.258 . S
C509 O502 1.266 . S
Co510 O513 1.970 . S
Co510 N527 1.989 . S
Co510 O535 1.967 . S
Co510 O542 1.920 . S
Co511 O514 1.966 . S
Co511 N520 2.022 . S
Co511 N528 1.993 . S
Co511 O536 1.941 . S
C512 O513 1.258 . S
C512 O514 1.263 . S
O513 Co510 1.970 . S
O513 C512 1.258 . S
O514 Co511 1.966 . S
O514 C512 1.263 . S
C515 O516 1.235 . S
C515 O542 1.289 . S
O516 C515 1.235 . S
C517 C519 1.400 . S
C517 N520 1.351 . S
C517 C522 1.501 . S
C518 C519 1.387 . S
C518 N521 1.341 . S
C519 C517 1.400 . S
C519 C518 1.387 . S
N520 Co511 2.022 . S
N520 C517 1.351 . S
N520 N521 1.365 . S
N521 C518 1.341 . S
N521 N520 1.365 . S
N521 H541 0.862 . S
C522 C517 1.501 . S
C522 H523 0.961 . S
C522 H524 0.961 . S
C522 H525 0.960 . S
H523 C522 0.961 . S
H524 C522 0.961 . S
H525 C522 0.960 . S
C526 N527 1.342 . S
C526 C530 1.401 . S
C526 C531 1.499 . S
N527 Co510 1.989 . S
N527 C526 1.342 . S
N527 N528 1.388 . S
N528 Co511 1.993 . S
N528 N527 1.388 . S
N528 C529 1.346 . S
C529 N528 1.346 . S
C529 C530 1.396 . S
C529 C539 1.510 . S
C530 C526 1.401 . S
C530 C529 1.396 . S
C531 C526 1.499 . S
C531 H532 0.959 . S
C531 H533 0.960 . S
C531 H534 0.961 . S
H532 C531 0.959 . S
H533 C531 0.960 . S
H534 C531 0.961 . S
O535 Co510 1.967 . S
O535 C543 1.258 . S
O536 Co511 1.941 . S
O536 C543 1.266 . S
H537 C539 0.959 . S
H538 C539 0.961 . S
C539 C529 1.510 . S
C539 H537 0.959 . S
C539 H538 0.961 . S
C539 H540 0.960 . S
H540 C539 0.960 . S
H541 N521 0.862 . S
O542 Co510 1.920 . S
O542 C515 1.289 . S
C543 O535 1.258 . S
C543 O536 1.266 . S
H544 C552 0.929 . S
H545 C554 0.930 . S
H546 C556 0.930 . S
H547 C559 0.929 . S
H548 C562 0.930 . S
H549 C564 0.960 1_565 S
H550 C564 0.960 . S
H551 C564 0.960 . S
C552 H544 0.929 . S
C552 C553 1.377 . S
C552 C554 1.384 . S
C553 C552 1.377 . S
C553 C559 1.390 . S
C554 H545 0.930 . S
C554 C552 1.384 . S
C554 C555 1.372 . S
C555 C554 1.372 . S
C555 C556 1.400 . S
C555 C560 1.490 . S
C556 H546 0.930 . S
C556 C555 1.400 . S
C556 C559 1.386 . S
H557 C573 0.930 . S
H558 C574 0.931 . S
C559 H547 0.929 . S
C559 C553 1.390 . S
C559 C556 1.386 . S
C560 C555 1.490 . S
C560 C562 1.395 1_455 S
C560 C563 1.403 . S
H561 C567 0.930 . S
C562 H548 0.930 . S
C562 C560 1.395 1_655 S
C562 C565 1.403 1_545 S
C563 C560 1.403 . S
C563 C564 1.524 . S
C563 C567 1.400 1_545 S
C564 H549 0.960 1_545 S
C564 H550 0.960 . S
C564 H551 0.960 . S
C564 C563 1.524 . S
C565 C562 1.403 1_565 S
C565 C566 1.392 . S
C565 C569 1.495 . S
C566 C565 1.392 . S
C566 C567 1.385 1_655 S
C566 C568 1.478 . S
C567 H561 0.930 . S
C567 C563 1.400 1_565 S
C567 C566 1.385 1_455 S
C568 C566 1.478 . S
C568 C570 1.381 . S
C568 C574 1.383 . S
C569 C565 1.495 . S
C569 H575 0.959 1_565 S
C569 H576 0.961 . S
C569 H577 0.960 . S
C570 C568 1.381 . S
C570 C571 1.394 . S
C570 H578 0.930 . S
C571 C570 1.394 . S
C571 C572 1.383 . S
C571 H579 0.929 . S
C572 C571 1.383 . S
C572 C573 1.377 . S
C573 H557 0.930 . S
C573 C572 1.377 . S
C573 C574 1.379 . S
C574 H558 0.931 . S
C574 C568 1.383 . S
C574 C573 1.379 . S
H575 C569 0.959 1_545 S
H576 C569 0.961 . S
H577 C569 0.960 . S
H578 C570 0.930 . S
H579 C571 0.929 . S
H580 C588 0.929 . S
H581 C590 0.930 1_545 S
H582 C592 0.930 . S
H583 C595 0.929 . S
H584 C598 0.930 . S
H585 C600 0.960 1_655 S
H586 C600 0.960 . S
H587 C600 0.960 . S
C588 H580 0.929 . S
C588 C589 1.377 . S
C588 C590 1.384 . S
C589 C588 1.377 . S
C589 C595 1.390 . S
C590 H581 0.930 1_565 S
C590 C588 1.384 . S
C590 C591 1.372 . S
C591 C590 1.372 . S
C591 C592 1.400 . S
C591 C596 1.490 . S
C592 H582 0.930 . S
C592 C591 1.400 . S
C592 C595 1.386 . S
H593 C609 0.930 . S
H594 C610 0.931 . S
C595 H583 0.929 . S
C595 C589 1.390 . S
C595 C592 1.386 . S
C596 C591 1.490 . S
C596 C598 1.395 1_565 S
C596 C599 1.403 . S
H597 C603 0.930 . S
C598 H584 0.930 . S
C598 C596 1.395 1_545 S
C598 C601 1.403 1_455 S
C599 C596 1.403 . S
C599 C600 1.524 . S
C599 C603 1.400 1_455 S
C600 H585 0.960 1_455 S
C600 H586 0.960 . S
C600 H587 0.960 . S
C600 C599 1.524 . S
C601 C598 1.403 1_655 S
C601 C602 1.392 . S
C601 C605 1.495 . S
C602 C601 1.392 . S
C602 C603 1.385 1_545 S
C602 C604 1.478 . S
C603 H597 0.930 . S
C603 C599 1.400 1_655 S
C603 C602 1.385 1_565 S
C604 C602 1.478 . S
C604 C606 1.381 . S
C604 C610 1.383 . S
C605 C601 1.495 . S
C605 H611 0.959 1_655 S
C605 H612 0.961 . S
C605 H613 0.960 . S
C606 C604 1.381 . S
C606 C607 1.394 . S
C606 H614 0.930 . S
C607 C606 1.394 . S
C607 C608 1.383 . S
C607 H615 0.929 . S
C608 C607 1.383 . S
C608 C609 1.377 . S
C609 H593 0.930 . S
C609 C608 1.377 . S
C609 C610 1.379 . S
C610 H594 0.931 . S
C610 C604 1.383 . S
C610 C609 1.379 . S
H611 C605 0.959 1_455 S
H612 C605 0.961 . S
H613 C605 0.960 . S
H614 C606 0.930 . S
H615 C607 0.929 . S
H616 C624 0.929 . S
H617 C626 0.930 . S
H618 C628 0.930 . S
H619 C631 0.929 . S
H620 C634 0.930 . S
H621 C636 0.960 . S
H622 C636 0.960 . S
H623 C636 0.960 . S
C624 H616 0.929 . S
C624 C625 1.377 . S
C624 C626 1.384 . S
C625 C624 1.377 . S
C625 C631 1.390 . S
C626 H617 0.930 . S
C626 C624 1.384 . S
C626 C627 1.372 . S
C627 C626 1.372 . S
C627 C628 1.400 . S
C627 C632 1.490 . S
C628 H618 0.930 . S
C628 C627 1.400 . S
C628 C631 1.386 . S
H629 C645 0.930 . S
H630 C646 0.931 . S
C631 H619 0.929 . S
C631 C625 1.390 . S
C631 C628 1.386 . S
C632 C627 1.490 . S
C632 C634 1.395 . S
C632 C635 1.403 . S
H633 C639 0.930 . S
C634 H620 0.930 . S
C634 C632 1.395 . S
C634 C637 1.403 . S
C635 C632 1.403 . S
C635 C636 1.524 . S
C635 C639 1.400 . S
C636 H621 0.960 . S
C636 H622 0.960 . S
C636 H623 0.960 . S
C636 C635 1.524 . S
C637 C634 1.403 . S
C637 C638 1.392 . S
C637 C641 1.495 . S
C638 C637 1.392 . S
C638 C639 1.385 . S
C638 C640 1.478 . S
C639 H633 0.930 . S
C639 C635 1.400 . S
C639 C638 1.385 . S
C640 C638 1.478 . S
C640 C642 1.381 . S
C640 C646 1.383 . S
C641 C637 1.495 . S
C641 H647 0.959 . S
C641 H648 0.961 . S
C641 H649 0.960 . S
C642 C640 1.381 . S
C642 C643 1.394 . S
C642 H650 0.930 . S
C643 C642 1.394 . S
C643 C644 1.383 . S
C643 H651 0.929 . S
C644 C643 1.383 . S
C644 C645 1.377 . S
C645 H629 0.930 . S
C645 C644 1.377 . S
C645 C646 1.379 . S
C646 H630 0.931 . S
C646 C640 1.383 . S
C646 C645 1.379 . S
H647 C641 0.959 . S
H648 C641 0.961 . S
H649 C641 0.960 . S
H650 C642 0.930 . S
H651 C643 0.929 . S
H652 C660 0.929 . S
H653 C662 0.930 . S
H654 C664 0.930 . S
H655 C667 0.929 . S
H656 C670 0.930 . S
H657 C672 0.960 . S
H658 C672 0.960 . S
H659 C672 0.960 . S
C660 H652 0.929 . S
C660 C661 1.377 . S
C660 C662 1.384 . S
C661 C660 1.377 . S
C661 C667 1.390 . S
C662 H653 0.930 . S
C662 C660 1.384 . S
C662 C663 1.372 . S
C663 C662 1.372 . S
C663 C664 1.400 . S
C663 C668 1.490 . S
C664 H654 0.930 . S
C664 C663 1.400 . S
C664 C667 1.386 . S
H665 C681 0.930 . S
H666 C682 0.931 . S
C667 H655 0.929 . S
C667 C661 1.390 . S
C667 C664 1.386 . S
C668 C663 1.490 . S
C668 C670 1.395 . S
C668 C671 1.403 . S
H669 C675 0.930 . S
C670 H656 0.930 . S
C670 C668 1.395 . S
C670 C673 1.403 . S
C671 C668 1.403 . S
C671 C672 1.524 . S
C671 C675 1.400 . S
C672 H657 0.960 . S
C672 H658 0.960 . S
C672 H659 0.960 . S
C672 C671 1.524 . S
C673 C670 1.403 . S
C673 C674 1.392 . S
C673 C677 1.495 . S
C674 C673 1.392 . S
C674 C675 1.385 . S
C674 C676 1.478 . S
C675 H669 0.930 . S
C675 C671 1.400 . S
C675 C674 1.385 . S
C676 C674 1.478 . S
C676 C678 1.381 . S
C676 C682 1.383 . S
C677 C673 1.495 . S
C677 H683 0.959 . S
C677 H684 0.961 . S
C677 H685 0.960 . S
C678 C676 1.381 . S
C678 C679 1.394 . S
C678 H686 0.930 . S
C679 C678 1.394 . S
C679 C680 1.383 . S
C679 H687 0.929 . S
C680 C679 1.383 . S
C680 C681 1.377 . S
C681 H665 0.930 . S
C681 C680 1.377 . S
C681 C682 1.379 . S
C682 H666 0.931 . S
C682 C676 1.383 . S
C682 C681 1.379 . S
H683 C677 0.959 . S
H684 C677 0.961 . S
H685 C677 0.960 . S
H686 C678 0.930 . S
H687 C679 0.929 . S
H688 C696 0.929 . S
H689 C698 0.930 . S
H690 C700 0.930 1_655 S
H691 C703 0.929 . S
H692 C706 0.930 . S
H693 C708 0.960 . S
H694 C708 0.960 . S
H695 C708 0.960 . S
C696 H688 0.929 . S
C696 C697 1.377 . S
C696 C698 1.384 . S
C697 C696 1.377 . S
C697 C703 1.390 . S
C698 H689 0.930 . S
C698 C696 1.384 . S
C698 C699 1.372 . S
C699 C698 1.372 . S
C699 C700 1.400 . S
C699 C704 1.490 . S
C700 H690 0.930 1_455 S
C700 C699 1.400 . S
C700 C703 1.386 . S
H701 C717 0.930 . S
H702 C718 0.931 . S
C703 H691 0.929 . S
C703 C697 1.390 . S
C703 C700 1.386 . S
C704 C699 1.490 . S
C704 C706 1.395 . S
C704 C707 1.403 1_455 S
H705 C711 0.930 . S
C706 H692 0.930 . S
C706 C704 1.395 . S
C706 C709 1.403 1_545 S
C707 C704 1.403 1_655 S
C707 C708 1.524 . S
C707 C711 1.400 1_545 S
C708 H693 0.960 . S
C708 H694 0.960 . S
C708 H695 0.960 . S
C708 C707 1.524 . S
C709 C706 1.403 1_565 S
C709 C710 1.392 1_455 S
C709 C713 1.495 . S
C710 C709 1.392 1_655 S
C710 C711 1.385 . S
C710 C712 1.478 . S
C711 H705 0.930 . S
C711 C707 1.400 1_565 S
C711 C710 1.385 . S
C712 C710 1.478 . S
C712 C714 1.381 . S
C712 C718 1.383 . S
C713 C709 1.495 . S
C713 H719 0.959 . S
C713 H720 0.961 . S
C713 H721 0.960 . S
C714 C712 1.381 . S
C714 C715 1.394 . S
C714 H722 0.930 1_655 S
C715 C714 1.394 . S
C715 C716 1.383 . S
C715 H723 0.929 . S
C716 C715 1.383 . S
C716 C717 1.377 . S
C717 H701 0.930 . S
C717 C716 1.377 . S
C717 C718 1.379 . S
C718 H702 0.931 . S
C718 C712 1.383 . S
C718 C717 1.379 . S
H719 C713 0.959 . S
H720 C713 0.961 . S
H721 C713 0.960 . S
H722 C714 0.930 1_455 S
H723 C715 0.929 . S
H724 C732 0.929 . S
H725 C734 0.930 . S
H726 C736 0.930 1_545 S
H727 C739 0.929 . S
H728 C742 0.930 . S
H729 C744 0.960 . S
H730 C744 0.960 . S
H731 C744 0.960 . S
C732 H724 0.929 . S
C732 C733 1.377 . S
C732 C734 1.384 . S
C733 C732 1.377 . S
C733 C739 1.390 . S
C734 H725 0.930 . S
C734 C732 1.384 . S
C734 C735 1.372 . S
C735 C734 1.372 . S
C735 C736 1.400 . S
C735 C740 1.490 . S
C736 H726 0.930 1_565 S
C736 C735 1.400 . S
C736 C739 1.386 . S
H737 C753 0.930 . S
H738 C754 0.931 . S
C739 H727 0.929 . S
C739 C733 1.390 . S
C739 C736 1.386 . S
C740 C735 1.490 . S
C740 C742 1.395 . S
C740 C743 1.403 1_565 S
H741 C747 0.930 . S
C742 H728 0.930 . S
C742 C740 1.395 . S
C742 C745 1.403 1_455 S
C743 C740 1.403 1_545 S
C743 C744 1.524 . S
C743 C747 1.400 1_455 S
C744 H729 0.960 . S
C744 H730 0.960 . S
C744 H731 0.960 . S
C744 C743 1.524 . S
C745 C742 1.403 1_655 S
C745 C746 1.392 1_565 S
C745 C749 1.495 . S
C746 C745 1.392 1_545 S
C746 C747 1.385 . S
C746 C748 1.478 . S
C747 H741 0.930 . S
C747 C743 1.400 1_655 S
C747 C746 1.385 . S
C748 C746 1.478 . S
C748 C750 1.381 . S
C748 C754 1.383 . S
C749 C745 1.495 . S
C749 H755 0.959 . S
C749 H756 0.961 . S
C749 H757 0.960 . S
C750 C748 1.381 . S
C750 C751 1.394 . S
C750 H758 0.930 1_545 S
C751 C750 1.394 . S
C751 C752 1.383 . S
C751 H759 0.929 . S
C752 C751 1.383 . S
C752 C753 1.377 . S
C753 H737 0.930 . S
C753 C752 1.377 . S
C753 C754 1.379 . S
C754 H738 0.931 . S
C754 C748 1.383 . S
C754 C753 1.379 . S
H755 C749 0.959 . S
H756 C749 0.961 . S
H757 C749 0.960 . S
H758 C750 0.930 1_565 S
H759 C751 0.929 . S
H760 C768 0.929 . S
H761 C770 0.930 . S
H762 C772 0.930 . S
H763 C775 0.929 . S
H764 C778 0.930 . S
H765 C780 0.960 . S
H766 C780 0.960 . S
H767 C780 0.960 . S
C768 H760 0.929 . S
C768 C769 1.377 . S
C768 C770 1.384 . S
C769 C768 1.377 . S
C769 C775 1.390 . S
C770 H761 0.930 . S
C770 C768 1.384 . S
C770 C771 1.372 . S
C771 C770 1.372 . S
C771 C772 1.400 . S
C771 C776 1.490 . S
C772 H762 0.930 . S
C772 C771 1.400 . S
C772 C775 1.386 . S
H773 C789 0.930 . S
H774 C790 0.931 . S
C775 H763 0.929 . S
C775 C769 1.390 . S
C775 C772 1.386 . S
C776 C771 1.490 . S
C776 C778 1.395 . S
C776 C779 1.403 . S
H777 C783 0.930 . S
C778 H764 0.930 . S
C778 C776 1.395 . S
C778 C781 1.403 . S
C779 C776 1.403 . S
C779 C780 1.524 . S
C779 C783 1.400 . S
C780 H765 0.960 . S
C780 H766 0.960 . S
C780 H767 0.960 . S
C780 C779 1.524 . S
C781 C778 1.403 . S
C781 C782 1.392 . S
C781 C785 1.495 . S
C782 C781 1.392 . S
C782 C783 1.385 . S
C782 C784 1.478 . S
C783 H777 0.930 . S
C783 C779 1.400 . S
C783 C782 1.385 . S
C784 C782 1.478 . S
C784 C786 1.381 . S
C784 C790 1.383 . S
C785 C781 1.495 . S
C785 H791 0.959 . S
C785 H792 0.961 . S
C785 H793 0.960 . S
C786 C784 1.381 . S
C786 C787 1.394 . S
C786 H794 0.930 . S
C787 C786 1.394 . S
C787 C788 1.383 . S
C787 H795 0.929 . S
C788 C787 1.383 . S
C788 C789 1.377 . S
C789 H773 0.930 . S
C789 C788 1.377 . S
C789 C790 1.379 . S
C790 H774 0.931 . S
C790 C784 1.383 . S
C790 C789 1.379 . S
H791 C785 0.959 . S
H792 C785 0.961 . S
H793 C785 0.960 . S
H794 C786 0.930 . S
H795 C787 0.929 . S
H796 C804 0.929 . S
H797 C806 0.930 . S
H798 C808 0.930 . S
H799 C811 0.929 . S
H800 C814 0.930 . S
H801 C816 0.960 . S
H802 C816 0.960 . S
H803 C816 0.960 . S
C804 H796 0.929 . S
C804 C805 1.377 . S
C804 C806 1.384 . S
C805 C804 1.377 . S
C805 C811 1.390 . S
C806 H797 0.930 . S
C806 C804 1.384 . S
C806 C807 1.372 . S
C807 C806 1.372 . S
C807 C808 1.400 . S
C807 C812 1.490 . S
C808 H798 0.930 . S
C808 C807 1.400 . S
C808 C811 1.386 . S
H809 C825 0.930 . S
H810 C826 0.931 . S
C811 H799 0.929 . S
C811 C805 1.390 . S
C811 C808 1.386 . S
C812 C807 1.490 . S
C812 C814 1.395 . S
C812 C815 1.403 . S
H813 C819 0.930 . S
C814 H800 0.930 . S
C814 C812 1.395 . S
C814 C817 1.403 . S
C815 C812 1.403 . S
C815 C816 1.524 . S
C815 C819 1.400 . S
C816 H801 0.960 . S
C816 H802 0.960 . S
C816 H803 0.960 . S
C816 C815 1.524 . S
C817 C814 1.403 . S
C817 C818 1.392 . S
C817 C821 1.495 . S
C818 C817 1.392 . S
C818 C819 1.385 . S
C818 C820 1.478 . S
C819 H813 0.930 . S
C819 C815 1.400 . S
C819 C818 1.385 . S
C820 C818 1.478 . S
C820 C822 1.381 . S
C820 C826 1.383 . S
C821 C817 1.495 . S
C821 H827 0.959 . S
C821 H828 0.961 . S
C821 H829 0.960 . S
C822 C820 1.381 . S
C822 C823 1.394 . S
C822 H830 0.930 . S
C823 C822 1.394 . S
C823 C824 1.383 . S
C823 H831 0.929 . S
C824 C823 1.383 . S
C824 C825 1.377 . S
C825 H809 0.930 . S
C825 C824 1.377 . S
C825 C826 1.379 . S
C826 H810 0.931 . S
C826 C820 1.383 . S
C826 C825 1.379 . S
H827 C821 0.959 . S
H828 C821 0.961 . S
H829 C821 0.960 . S
H830 C822 0.930 . S
H831 C823 0.929 . S
H832 C840 0.929 . S
H833 C842 0.930 . S
H834 C844 0.930 . S
H835 C847 0.929 . S
H836 C850 0.930 . S
H837 C852 0.960 . S
H838 C852 0.960 1_554 S
H839 C852 0.960 1_554 S
C840 H832 0.929 . S
C840 C841 1.377 . S
C840 C842 1.384 . S
C841 C840 1.377 . S
C841 C847 1.390 . S
C842 H833 0.930 . S
C842 C840 1.384 . S
C842 C843 1.372 . S
C843 C842 1.372 . S
C843 C844 1.400 . S
C843 C848 1.490 1_554 S
C844 H834 0.930 . S
C844 C843 1.400 . S
C844 C847 1.386 . S
H845 C861 0.930 . S
H846 C862 0.931 . S
C847 H835 0.929 . S
C847 C841 1.390 . S
C847 C844 1.386 . S
C848 C843 1.490 1_556 S
C848 C850 1.395 . S
C848 C851 1.403 . S
H849 C855 0.930 . S
C850 H836 0.930 . S
C850 C848 1.395 . S
C850 C853 1.403 . S
C851 C848 1.403 . S
C851 C852 1.524 . S
C851 C855 1.400 . S
C852 H837 0.960 . S
C852 H838 0.960 1_556 S
C852 H839 0.960 1_556 S
C852 C851 1.524 . S
C853 C850 1.403 . S
C853 C854 1.392 . S
C853 C857 1.495 . S
C854 C853 1.392 . S
C854 C855 1.385 . S
C854 C856 1.478 . S
C855 H849 0.930 . S
C855 C851 1.400 . S
C855 C854 1.385 . S
C856 C854 1.478 . S
C856 C858 1.381 . S
C856 C862 1.383 . S
C857 C853 1.495 . S
C857 H863 0.959 . S
C857 H864 0.961 . S
C857 H865 0.960 . S
C858 C856 1.381 . S
C858 C859 1.394 . S
C858 H866 0.930 . S
C859 C858 1.394 . S
C859 C860 1.383 . S
C859 H867 0.929 . S
C860 C859 1.383 . S
C860 C861 1.377 . S
C861 H845 0.930 . S
C861 C860 1.377 . S
C861 C862 1.379 . S
C862 H846 0.931 . S
C862 C856 1.383 . S
C862 C861 1.379 . S
H863 C857 0.959 . S
H864 C857 0.961 . S
H865 C857 0.960 . S
H866 C858 0.930 . S
H867 C859 0.929 . S
H868 C876 0.929 . S
H869 C878 0.930 . S
H870 C880 0.930 . S
H871 C883 0.929 . S
H872 C886 0.930 . S
H873 C888 0.960 . S
H874 C888 0.960 . S
H875 C888 0.960 . S
C876 H868 0.929 . S
C876 C877 1.377 . S
C876 C878 1.384 . S
C877 C876 1.377 . S
C877 C883 1.390 . S
C878 H869 0.930 . S
C878 C876 1.384 . S
C878 C879 1.372 . S
C879 C878 1.372 . S
C879 C880 1.400 . S
C879 C884 1.490 . S
C880 H870 0.930 . S
C880 C879 1.400 . S
C880 C883 1.386 . S
H881 C897 0.930 . S
H882 C898 0.931 . S
C883 H871 0.929 . S
C883 C877 1.390 . S
C883 C880 1.386 . S
C884 C879 1.490 . S
C884 C886 1.395 . S
C884 C887 1.403 . S
H885 C891 0.930 . S
C886 H872 0.930 . S
C886 C884 1.395 . S
C886 C889 1.403 . S
C887 C884 1.403 . S
C887 C888 1.524 . S
C887 C891 1.400 . S
C888 H873 0.960 . S
C888 H874 0.960 . S
C888 H875 0.960 . S
C888 C887 1.524 . S
C889 C886 1.403 . S
C889 C890 1.392 . S
C889 C893 1.495 . S
C890 C889 1.392 . S
C890 C891 1.385 . S
C890 C892 1.478 . S
C891 H885 0.930 . S
C891 C887 1.400 . S
C891 C890 1.385 . S
C892 C890 1.478 . S
C892 C894 1.381 . S
C892 C898 1.383 . S
C893 C889 1.495 . S
C893 H899 0.959 1_545 S
C893 H900 0.961 . S
C893 H901 0.960 . S
C894 C892 1.381 . S
C894 C895 1.394 . S
C894 H902 0.930 . S
C895 C894 1.394 . S
C895 C896 1.383 . S
C895 H903 0.929 . S
C896 C895 1.383 . S
C896 C897 1.377 . S
C897 H881 0.930 . S
C897 C896 1.377 . S
C897 C898 1.379 . S
C898 H882 0.931 . S
C898 C892 1.383 . S
C898 C897 1.379 . S
H899 C893 0.959 1_565 S
H900 C893 0.961 . S
H901 C893 0.960 . S
H902 C894 0.930 . S
H903 C895 0.929 . S
H904 C912 0.929 . S
H905 C914 0.930 . S
H906 C916 0.930 . S
H907 C919 0.929 . S
H908 C922 0.930 . S
H909 C924 0.960 . S
H910 C924 0.960 . S
H911 C924 0.960 . S
C912 H904 0.929 . S
C912 C913 1.377 . S
C912 C914 1.384 . S
C913 C912 1.377 . S
C913 C919 1.390 . S
C914 H905 0.930 . S
C914 C912 1.384 . S
C914 C915 1.372 . S
C915 C914 1.372 . S
C915 C916 1.400 . S
C915 C920 1.490 . S
C916 H906 0.930 . S
C916 C915 1.400 . S
C916 C919 1.386 . S
H917 C933 0.930 . S
H918 C934 0.931 . S
C919 H907 0.929 . S
C919 C913 1.390 . S
C919 C916 1.386 . S
C920 C915 1.490 . S
C920 C922 1.395 . S
C920 C923 1.403 . S
H921 C927 0.930 . S
C922 H908 0.930 . S
C922 C920 1.395 . S
C922 C925 1.403 . S
C923 C920 1.403 . S
C923 C924 1.524 . S
C923 C927 1.400 . S
C924 H909 0.960 . S
C924 H910 0.960 . S
C924 H911 0.960 . S
C924 C923 1.524 . S
C925 C922 1.403 . S
C925 C926 1.392 . S
C925 C929 1.495 . S
C926 C925 1.392 . S
C926 C927 1.385 . S
C926 C928 1.478 1_556 S
C927 H921 0.930 . S
C927 C923 1.400 . S
C927 C926 1.385 . S
C928 C926 1.478 1_554 S
C928 C930 1.381 . S
C928 C934 1.383 . S
C929 C925 1.495 . S
C929 H935 0.959 . S
C929 H936 0.961 1_556 S
C929 H937 0.960 1_556 S
C930 C928 1.381 . S
C930 C931 1.394 . S
C930 H938 0.930 . S
C931 C930 1.394 . S
C931 C932 1.383 . S
C931 H939 0.929 . S
C932 C931 1.383 . S
C932 C933 1.377 . S
C933 H917 0.930 . S
C933 C932 1.377 . S
C933 C934 1.379 . S
C934 H918 0.931 . S
C934 C928 1.383 . S
C934 C933 1.379 . S
H935 C929 0.959 . S
H936 C929 0.961 1_554 S
H937 C929 0.960 1_554 S
H938 C930 0.930 . S
H939 C931 0.929 . S
H940 C948 0.929 . S
H941 C950 0.930 . S
H942 C952 0.930 . S
H943 C955 0.929 . S
H944 C958 0.930 . S
H945 C960 0.960 . S
H946 C960 0.960 . S
H947 C960 0.960 . S
C948 H940 0.929 . S
C948 C949 1.377 . S
C948 C950 1.384 . S
C949 C948 1.377 . S
C949 C955 1.390 . S
C950 H941 0.930 . S
C950 C948 1.384 . S
C950 C951 1.372 . S
C951 C950 1.372 . S
C951 C952 1.400 . S
C951 C956 1.490 . S
C952 H942 0.930 . S
C952 C951 1.400 . S
C952 C955 1.386 . S
H953 C969 0.930 . S
H954 C970 0.931 . S
C955 H943 0.929 . S
C955 C949 1.390 . S
C955 C952 1.386 . S
C956 C951 1.490 . S
C956 C958 1.395 . S
C956 C959 1.403 . S
H957 C963 0.930 . S
C958 H944 0.930 . S
C958 C956 1.395 . S
C958 C961 1.403 . S
C959 C956 1.403 . S
C959 C960 1.524 . S
C959 C963 1.400 . S
C960 H945 0.960 . S
C960 H946 0.960 . S
C960 H947 0.960 . S
C960 C959 1.524 . S
C961 C958 1.403 . S
C961 C962 1.392 . S
C961 C965 1.495 . S
C962 C961 1.392 . S
C962 C963 1.385 . S
C962 C964 1.478 . S
C963 H957 0.930 . S
C963 C959 1.400 . S
C963 C962 1.385 . S
C964 C962 1.478 . S
C964 C966 1.381 . S
C964 C970 1.383 . S
C965 C961 1.495 . S
C965 H971 0.959 . S
C965 H972 0.961 . S
C965 H973 0.960 . S
C966 C964 1.381 . S
C966 C967 1.394 . S
C966 H974 0.930 . S
C967 C966 1.394 . S
C967 C968 1.383 . S
C967 H975 0.929 . S
C968 C967 1.383 . S
C968 C969 1.377 . S
C969 H953 0.930 . S
C969 C968 1.377 . S
C969 C970 1.379 . S
C970 H954 0.931 . S
C970 C964 1.383 . S
C970 C969 1.379 . S
H971 C965 0.959 . S
H972 C965 0.961 . S
H973 C965 0.960 . S
H974 C966 0.930 . S
H975 C967 0.929 . S
H976 C984 0.929 . S
H977 C986 0.930 . S
H978 C988 0.930 . S
H979 C991 0.929 . S
H980 C994 0.930 . S
H981 C996 0.960 . S
H982 C996 0.960 . S
H983 C996 0.960 . S
C984 H976 0.929 . S
C984 C985 1.377 . S
C984 C986 1.384 . S
C985 C984 1.377 . S
C985 C991 1.390 . S
C986 H977 0.930 . S
C986 C984 1.384 . S
C986 C987 1.372 . S
C987 C986 1.372 . S
C987 C988 1.400 . S
C987 C992 1.490 . S
C988 H978 0.930 . S
C988 C987 1.400 . S
C988 C991 1.386 . S
H989 C1005 0.930 . S
H990 C1006 0.931 . S
C991 H979 0.929 . S
C991 C985 1.390 . S
C991 C988 1.386 . S
C992 C987 1.490 . S
C992 C994 1.395 . S
C992 C995 1.403 . S
H993 C999 0.930 . S
C994 H980 0.930 . S
C994 C992 1.395 . S
C994 C997 1.403 . S
C995 C992 1.403 . S
C995 C996 1.524 . S
C995 C999 1.400 . S
C996 H981 0.960 . S
C996 H982 0.960 . S
C996 H983 0.960 . S
C996 C995 1.524 . S
C997 C994 1.403 . S
C997 C998 1.392 . S
C997 C1001 1.495 . S
C998 C997 1.392 . S
C998 C999 1.385 . S
C998 C1000 1.478 1_554 S
C999 H993 0.930 . S
C999 C995 1.400 . S
C999 C998 1.385 . S
C1000 C998 1.478 1_556 S
C1000 C1002 1.381 . S
C1000 C1006 1.383 . S
C1001 C997 1.495 . S
C1001 H1007 0.959 . S
C1001 H1008 0.961 1_554 S
C1001 H1009 0.960 1_554 S
C1002 C1000 1.381 . S
C1002 C1003 1.394 . S
C1002 H1010 0.930 . S
C1003 C1002 1.394 . S
C1003 C1004 1.383 . S
C1003 H1011 0.929 . S
C1004 C1003 1.383 . S
C1004 C1005 1.377 . S
C1005 H989 0.930 . S
C1005 C1004 1.377 . S
C1005 C1006 1.379 . S
C1006 H990 0.931 . S
C1006 C1000 1.383 . S
C1006 C1005 1.379 . S
H1007 C1001 0.959 . S
H1008 C1001 0.961 1_556 S
H1009 C1001 0.960 1_556 S
H1010 C1002 0.930 . S
H1011 C1003 0.929 . S
H1012 C1020 0.929 . S
H1013 C1022 0.930 . S
H1014 C1024 0.930 . S
H1015 C1027 0.929 . S
H1016 C1030 0.930 . S
H1017 C1032 0.960 . S
H1018 C1032 0.960 . S
H1019 C1032 0.960 . S
C1020 H1012 0.929 . S
C1020 C1021 1.377 . S
C1020 C1022 1.384 . S
C1021 C1020 1.377 . S
C1021 C1027 1.390 . S
C1022 H1013 0.930 . S
C1022 C1020 1.384 . S
C1022 C1023 1.372 . S
C1023 C1022 1.372 . S
C1023 C1024 1.400 . S
C1023 C1028 1.490 . S
C1024 H1014 0.930 . S
C1024 C1023 1.400 . S
C1024 C1027 1.386 . S
H1025 C1041 0.930 . S
H1026 C1042 0.931 . S
C1027 H1015 0.929 . S
C1027 C1021 1.390 . S
C1027 C1024 1.386 . S
C1028 C1023 1.490 . S
C1028 C1030 1.395 . S
C1028 C1031 1.403 . S
H1029 C1035 0.930 . S
C1030 H1016 0.930 . S
C1030 C1028 1.395 . S
C1030 C1033 1.403 . S
C1031 C1028 1.403 . S
C1031 C1032 1.524 . S
C1031 C1035 1.400 . S
C1032 H1017 0.960 . S
C1032 H1018 0.960 . S
C1032 H1019 0.960 . S
C1032 C1031 1.524 . S
C1033 C1030 1.403 . S
C1033 C1034 1.392 . S
C1033 C1037 1.495 . S
C1034 C1033 1.392 . S
C1034 C1035 1.385 . S
C1034 C1036 1.478 . S
C1035 H1029 0.930 . S
C1035 C1031 1.400 . S
C1035 C1034 1.385 . S
C1036 C1034 1.478 . S
C1036 C1038 1.381 . S
C1036 C1042 1.383 . S
C1037 C1033 1.495 . S
C1037 H1043 0.959 . S
C1037 H1044 0.961 . S
C1037 H1045 0.960 . S
C1038 C1036 1.381 . S
C1038 C1039 1.394 . S
C1038 H1046 0.930 . S
C1039 C1038 1.394 . S
C1039 C1040 1.383 . S
C1039 H1047 0.929 . S
C1040 C1039 1.383 . S
C1040 C1041 1.377 . S
C1041 H1025 0.930 . S
C1041 C1040 1.377 . S
C1041 C1042 1.379 . S
C1042 H1026 0.931 . S
C1042 C1036 1.383 . S
C1042 C1041 1.379 . S
H1043 C1037 0.959 . S
H1044 C1037 0.961 . S
H1045 C1037 0.960 . S
H1046 C1038 0.930 . S
H1047 C1039 0.929 . S
H1048 C1056 0.929 . S
H1049 C1058 0.930 . S
H1050 C1060 0.930 . S
H1051 C1063 0.929 . S
H1052 C1066 0.930 . S
H1053 C1068 0.960 . S
H1054 C1068 0.960 . S
H1055 C1068 0.960 . S
C1056 H1048 0.929 . S
C1056 C1057 1.377 . S
C1056 C1058 1.384 . S
C1057 C1056 1.377 . S
C1057 C1063 1.390 . S
C1058 H1049 0.930 . S
C1058 C1056 1.384 . S
C1058 C1059 1.372 . S
C1059 C1058 1.372 . S
C1059 C1060 1.400 . S
C1059 C1064 1.490 . S
C1060 H1050 0.930 . S
C1060 C1059 1.400 . S
C1060 C1063 1.386 . S
H1061 C1077 0.930 . S
H1062 C1078 0.931 . S
C1063 H1051 0.929 . S
C1063 C1057 1.390 . S
C1063 C1060 1.386 . S
C1064 C1059 1.490 . S
C1064 C1066 1.395 . S
C1064 C1067 1.403 . S
H1065 C1071 0.930 . S
C1066 H1052 0.930 . S
C1066 C1064 1.395 . S
C1066 C1069 1.403 . S
C1067 C1064 1.403 . S
C1067 C1068 1.524 . S
C1067 C1071 1.400 . S
C1068 H1053 0.960 . S
C1068 H1054 0.960 . S
C1068 H1055 0.960 . S
C1068 C1067 1.524 . S
C1069 C1066 1.403 . S
C1069 C1070 1.392 . S
C1069 C1073 1.495 . S
C1070 C1069 1.392 . S
C1070 C1071 1.385 . S
C1070 C1072 1.478 1_554 S
C1071 H1065 0.930 . S
C1071 C1067 1.400 . S
C1071 C1070 1.385 . S
C1072 C1070 1.478 1_556 S
C1072 C1074 1.381 . S
C1072 C1078 1.383 . S
C1073 C1069 1.495 . S
C1073 H1079 0.959 . S
C1073 H1080 0.961 1_554 S
C1073 H1081 0.960 1_554 S
C1074 C1072 1.381 . S
C1074 C1075 1.394 . S
C1074 H1082 0.930 . S
C1075 C1074 1.394 . S
C1075 C1076 1.383 . S
C1075 H1083 0.929 . S
C1076 C1075 1.383 . S
C1076 C1077 1.377 . S
C1077 H1061 0.930 . S
C1077 C1076 1.377 . S
C1077 C1078 1.379 . S
C1078 H1062 0.931 . S
C1078 C1072 1.383 . S
C1078 C1077 1.379 . S
H1079 C1073 0.959 . S
H1080 C1073 0.961 1_556 S
H1081 C1073 0.960 1_556 S
H1082 C1074 0.930 . S
H1083 C1075 0.929 . S
H1084 C1092 0.929 . S
H1085 C1094 0.930 . S
H1086 C1096 0.930 . S
H1087 C1099 0.929 . S
H1088 C1102 0.930 . S
H1089 C1104 0.960 . S
H1090 C1104 0.960 . S
H1091 C1104 0.960 . S
C1092 H1084 0.929 . S
C1092 C1093 1.377 . S
C1092 C1094 1.384 . S
C1093 C1092 1.377 . S
C1093 C1099 1.390 . S
C1094 H1085 0.930 . S
C1094 C1092 1.384 . S
C1094 C1095 1.372 . S
C1095 C1094 1.372 . S
C1095 C1096 1.400 . S
C1095 C1100 1.490 . S
C1096 H1086 0.930 . S
C1096 C1095 1.400 . S
C1096 C1099 1.386 . S
H1097 C1113 0.930 . S
H1098 C1114 0.931 . S
C1099 H1087 0.929 . S
C1099 C1093 1.390 . S
C1099 C1096 1.386 . S
C1100 C1095 1.490 . S
C1100 C1102 1.395 . S
C1100 C1103 1.403 . S
H1101 C1107 0.930 . S
C1102 H1088 0.930 . S
C1102 C1100 1.395 . S
C1102 C1105 1.403 . S
C1103 C1100 1.403 . S
C1103 C1104 1.524 . S
C1103 C1107 1.400 . S
C1104 H1089 0.960 . S
C1104 H1090 0.960 . S
C1104 H1091 0.960 . S
C1104 C1103 1.524 . S
C1105 C1102 1.403 . S
C1105 C1106 1.392 . S
C1105 C1109 1.495 . S
C1106 C1105 1.392 . S
C1106 C1107 1.385 . S
C1106 C1108 1.478 . S
C1107 H1101 0.930 . S
C1107 C1103 1.400 . S
C1107 C1106 1.385 . S
C1108 C1106 1.478 . S
C1108 C1110 1.381 . S
C1108 C1114 1.383 . S
C1109 C1105 1.495 . S
C1109 H1115 0.959 . S
C1109 H1116 0.961 . S
C1109 H1117 0.960 . S
C1110 C1108 1.381 . S
C1110 C1111 1.394 . S
C1110 H1118 0.930 . S
C1111 C1110 1.394 . S
C1111 C1112 1.383 . S
C1111 H1119 0.929 . S
C1112 C1111 1.383 . S
C1112 C1113 1.377 . S
C1113 H1097 0.930 . S
C1113 C1112 1.377 . S
C1113 C1114 1.379 . S
C1114 H1098 0.931 . S
C1114 C1108 1.383 . S
C1114 C1113 1.379 . S
H1115 C1109 0.959 . S
H1116 C1109 0.961 . S
H1117 C1109 0.960 . S
H1118 C1110 0.930 . S
H1119 C1111 0.929 . S
H1120 C1128 0.929 . S
H1121 C1130 0.930 . S
H1122 C1132 0.930 . S
H1123 C1135 0.929 . S
H1124 C1138 0.930 . S
H1125 C1140 0.960 . S
H1126 C1140 0.960 . S
H1127 C1140 0.960 . S
C1128 H1120 0.929 . S
C1128 C1129 1.377 . S
C1128 C1130 1.384 . S
C1129 C1128 1.377 . S
C1129 C1135 1.390 . S
C1130 H1121 0.930 . S
C1130 C1128 1.384 . S
C1130 C1131 1.372 . S
C1131 C1130 1.372 . S
C1131 C1132 1.400 . S
C1131 C1136 1.490 . S
C1132 H1122 0.930 . S
C1132 C1131 1.400 . S
C1132 C1135 1.386 . S
H1133 C1149 0.930 . S
H1134 C1150 0.931 . S
C1135 H1123 0.929 . S
C1135 C1129 1.390 . S
C1135 C1132 1.386 . S
C1136 C1131 1.490 . S
C1136 C1138 1.395 . S
C1136 C1139 1.403 . S
H1137 C1143 0.930 . S
C1138 H1124 0.930 . S
C1138 C1136 1.395 . S
C1138 C1141 1.403 . S
C1139 C1136 1.403 . S
C1139 C1140 1.524 . S
C1139 C1143 1.400 . S
C1140 H1125 0.960 . S
C1140 H1126 0.960 . S
C1140 H1127 0.960 . S
C1140 C1139 1.524 . S
C1141 C1138 1.403 . S
C1141 C1142 1.392 . S
C1141 C1145 1.495 . S
C1142 C1141 1.392 . S
C1142 C1143 1.385 . S
C1142 C1144 1.478 . S
C1143 H1137 0.930 . S
C1143 C1139 1.400 . S
C1143 C1142 1.385 . S
C1144 C1142 1.478 . S
C1144 C1146 1.381 . S
C1144 C1150 1.383 . S
C1145 C1141 1.495 . S
C1145 H1151 0.959 . S
C1145 H1152 0.961 . S
C1145 H1153 0.960 . S
C1146 C1144 1.381 . S
C1146 C1147 1.394 . S
C1146 H1154 0.930 . S
C1147 C1146 1.394 . S
C1147 C1148 1.383 . S
C1147 H1155 0.929 . S
C1148 C1147 1.383 . S
C1148 C1149 1.377 . S
C1149 H1133 0.930 . S
C1149 C1148 1.377 . S
C1149 C1150 1.379 . S
C1150 H1134 0.931 . S
C1150 C1144 1.383 . S
C1150 C1149 1.379 . S
H1151 C1145 0.959 . S
H1152 C1145 0.961 . S
H1153 C1145 0.960 . S
H1154 C1146 0.930 . S
H1155 C1147 0.929 . S
H1156 C1164 0.929 . S
H1157 C1166 0.930 . S
H1158 C1168 0.930 . S
H1159 C1171 0.929 . S
H1160 C1174 0.930 . S
H1161 C1176 0.960 . S
H1162 C1176 0.960 . S
H1163 C1176 0.960 . S
C1164 H1156 0.929 . S
C1164 C1165 1.377 . S
C1164 C1166 1.384 . S
C1165 C1164 1.377 . S
C1165 C1171 1.390 . S
C1166 H1157 0.930 . S
C1166 C1164 1.384 . S
C1166 C1167 1.372 . S
C1167 C1166 1.372 . S
C1167 C1168 1.400 . S
C1167 C1172 1.490 . S
C1168 H1158 0.930 . S
C1168 C1167 1.400 . S
C1168 C1171 1.386 . S
H1169 C1185 0.930 . S
H1170 C1186 0.931 . S
C1171 H1159 0.929 . S
C1171 C1165 1.390 . S
C1171 C1168 1.386 . S
C1172 C1167 1.490 . S
C1172 C1174 1.395 . S
C1172 C1175 1.403 . S
H1173 C1179 0.930 . S
C1174 H1160 0.930 . S
C1174 C1172 1.395 . S
C1174 C1177 1.403 . S
C1175 C1172 1.403 . S
C1175 C1176 1.524 . S
C1175 C1179 1.400 . S
C1176 H1161 0.960 . S
C1176 H1162 0.960 . S
C1176 H1163 0.960 . S
C1176 C1175 1.524 . S
C1177 C1174 1.403 . S
C1177 C1178 1.392 . S
C1177 C1181 1.495 . S
C1178 C1177 1.392 . S
C1178 C1179 1.385 . S
C1178 C1180 1.478 . S
C1179 H1173 0.930 . S
C1179 C1175 1.400 . S
C1179 C1178 1.385 . S
C1180 C1178 1.478 . S
C1180 C1182 1.381 . S
C1180 C1186 1.383 . S
C1181 C1177 1.495 . S
C1181 H1187 0.959 . S
C1181 H1188 0.961 . S
C1181 H1189 0.960 . S
C1182 C1180 1.381 . S
C1182 C1183 1.394 . S
C1182 H1190 0.930 . S
C1183 C1182 1.394 . S
C1183 C1184 1.383 . S
C1183 H1191 0.929 . S
C1184 C1183 1.383 . S
C1184 C1185 1.377 . S
C1185 H1169 0.930 . S
C1185 C1184 1.377 . S
C1185 C1186 1.379 . S
C1186 H1170 0.931 . S
C1186 C1180 1.383 . S
C1186 C1185 1.379 . S
H1187 C1181 0.959 . S
H1188 C1181 0.961 . S
H1189 C1181 0.960 . S
H1190 C1182 0.930 . S
H1191 C1183 0.929 . S
H1192 C1200 0.929 . S
H1193 C1202 0.930 . S
H1194 C1204 0.930 . S
H1195 C1207 0.929 . S
H1196 C1210 0.930 . S
H1197 C1212 0.960 . S
H1198 C1212 0.960 . S
H1199 C1212 0.960 . S
C1200 H1192 0.929 . S
C1200 C1201 1.377 . S
C1200 C1202 1.384 . S
C1201 C1200 1.377 . S
C1201 C1207 1.390 . S
C1202 H1193 0.930 . S
C1202 C1200 1.384 . S
C1202 C1203 1.372 . S
C1203 C1202 1.372 . S
C1203 C1204 1.400 . S
C1203 C1208 1.490 . S
C1204 H1194 0.930 . S
C1204 C1203 1.400 . S
C1204 C1207 1.386 . S
H1205 C1221 0.930 . S
H1206 C1222 0.931 . S
C1207 H1195 0.929 . S
C1207 C1201 1.390 . S
C1207 C1204 1.386 . S
C1208 C1203 1.490 . S
C1208 C1210 1.395 . S
C1208 C1211 1.403 . S
H1209 C1215 0.930 . S
C1210 H1196 0.930 . S
C1210 C1208 1.395 . S
C1210 C1213 1.403 . S
C1211 C1208 1.403 . S
C1211 C1212 1.524 . S
C1211 C1215 1.400 . S
C1212 H1197 0.960 . S
C1212 H1198 0.960 . S
C1212 H1199 0.960 . S
C1212 C1211 1.524 . S
C1213 C1210 1.403 . S
C1213 C1214 1.392 . S
C1213 C1217 1.495 . S
C1214 C1213 1.392 . S
C1214 C1215 1.385 . S
C1214 C1216 1.478 . S
C1215 H1209 0.930 . S
C1215 C1211 1.400 . S
C1215 C1214 1.385 . S
C1216 C1214 1.478 . S
C1216 C1218 1.381 . S
C1216 C1222 1.383 . S
C1217 C1213 1.495 . S
C1217 H1223 0.959 . S
C1217 H1224 0.961 . S
C1217 H1225 0.960 . S
C1218 C1216 1.381 . S
C1218 C1219 1.394 . S
C1218 H1226 0.930 . S
C1219 C1218 1.394 . S
C1219 C1220 1.383 . S
C1219 H1227 0.929 . S
C1220 C1219 1.383 . S
C1220 C1221 1.377 . S
C1221 H1205 0.930 . S
C1221 C1220 1.377 . S
C1221 C1222 1.379 . S
C1222 H1206 0.931 . S
C1222 C1216 1.383 . S
C1222 C1221 1.379 . S
H1223 C1217 0.959 . S
H1224 C1217 0.961 . S
H1225 C1217 0.960 . S
H1226 C1218 0.930 . S
H1227 C1219 0.929 . S
H1228 C1236 0.929 . S
H1229 C1238 0.930 . S
H1230 C1240 0.930 . S
H1231 C1243 0.929 . S
H1232 C1246 0.930 . S
H1233 C1248 0.960 . S
H1234 C1248 0.960 . S
H1235 C1248 0.960 . S
C1236 H1228 0.929 . S
C1236 C1237 1.377 . S
C1236 C1238 1.384 . S
C1237 C1236 1.377 . S
C1237 C1243 1.390 . S
C1238 H1229 0.930 . S
C1238 C1236 1.384 . S
C1238 C1239 1.372 . S
C1239 C1238 1.372 . S
C1239 C1240 1.400 . S
C1239 C1244 1.490 . S
C1240 H1230 0.930 . S
C1240 C1239 1.400 . S
C1240 C1243 1.386 . S
H1241 C1257 0.930 . S
H1242 C1258 0.931 . S
C1243 H1231 0.929 . S
C1243 C1237 1.390 . S
C1243 C1240 1.386 . S
C1244 C1239 1.490 . S
C1244 C1246 1.395 . S
C1244 C1247 1.403 . S
H1245 C1251 0.930 . S
C1246 H1232 0.930 . S
C1246 C1244 1.395 . S
C1246 C1249 1.403 . S
C1247 C1244 1.403 . S
C1247 C1248 1.524 . S
C1247 C1251 1.400 . S
C1248 H1233 0.960 . S
C1248 H1234 0.960 . S
C1248 H1235 0.960 . S
C1248 C1247 1.524 . S
C1249 C1246 1.403 . S
C1249 C1250 1.392 . S
C1249 C1253 1.495 . S
C1250 C1249 1.392 . S
C1250 C1251 1.385 . S
C1250 C1252 1.478 . S
C1251 H1245 0.930 . S
C1251 C1247 1.400 . S
C1251 C1250 1.385 . S
C1252 C1250 1.478 . S
C1252 C1254 1.381 . S
C1252 C1258 1.383 . S
C1253 C1249 1.495 . S
C1253 H1259 0.959 . S
C1253 H1260 0.961 . S
C1253 H1261 0.960 . S
C1254 C1252 1.381 . S
C1254 C1255 1.394 . S
C1254 H1262 0.930 . S
C1255 C1254 1.394 . S
C1255 C1256 1.383 . S
C1255 H1263 0.929 . S
C1256 C1255 1.383 . S
C1256 C1257 1.377 . S
C1257 H1241 0.930 . S
C1257 C1256 1.377 . S
C1257 C1258 1.379 . S
C1258 H1242 0.931 . S
C1258 C1252 1.383 . S
C1258 C1257 1.379 . S
H1259 C1253 0.959 . S
H1260 C1253 0.961 . S
H1261 C1253 0.960 . S
H1262 C1254 0.930 . S
H1263 C1255 0.929 . S
H1264 C1272 0.929 . S
H1265 C1274 0.930 . S
H1266 C1276 0.930 . S
H1267 C1279 0.929 . S
H1268 C1282 0.930 . S
H1269 C1284 0.960 . S
H1270 C1284 0.960 . S
H1271 C1284 0.960 . S
C1272 H1264 0.929 . S
C1272 C1273 1.377 . S
C1272 C1274 1.384 . S
C1273 C1272 1.377 . S
C1273 C1279 1.390 . S
C1274 H1265 0.930 . S
C1274 C1272 1.384 . S
C1274 C1275 1.372 . S
C1275 C1274 1.372 . S
C1275 C1276 1.400 . S
C1275 C1280 1.490 . S
C1276 H1266 0.930 . S
C1276 C1275 1.400 . S
C1276 C1279 1.386 . S
H1277 C1293 0.930 . S
H1278 C1294 0.931 . S
C1279 H1267 0.929 . S
C1279 C1273 1.390 . S
C1279 C1276 1.386 . S
C1280 C1275 1.490 . S
C1280 C1282 1.395 . S
C1280 C1283 1.403 . S
H1281 C1287 0.930 . S
C1282 H1268 0.930 . S
C1282 C1280 1.395 . S
C1282 C1285 1.403 . S
C1283 C1280 1.403 . S
C1283 C1284 1.524 . S
C1283 C1287 1.400 . S
C1284 H1269 0.960 . S
C1284 H1270 0.960 . S
C1284 H1271 0.960 . S
C1284 C1283 1.524 . S
C1285 C1282 1.403 . S
C1285 C1286 1.392 . S
C1285 C1289 1.495 . S
C1286 C1285 1.392 . S
C1286 C1287 1.385 . S
C1286 C1288 1.478 . S
C1287 H1281 0.930 . S
C1287 C1283 1.400 . S
C1287 C1286 1.385 . S
C1288 C1286 1.478 . S
C1288 C1290 1.381 . S
C1288 C1294 1.383 . S
C1289 C1285 1.495 . S
C1289 H1295 0.959 . S
C1289 H1296 0.961 . S
C1289 H1297 0.960 . S
C1290 C1288 1.381 . S
C1290 C1291 1.394 . S
C1290 H1298 0.930 . S
C1291 C1290 1.394 . S
C1291 C1292 1.383 . S
C1291 H1299 0.929 . S
C1292 C1291 1.383 . S
C1292 C1293 1.377 . S
C1293 H1277 0.930 . S
C1293 C1292 1.377 . S
C1293 C1294 1.379 . S
C1294 H1278 0.931 . S
C1294 C1288 1.383 . S
C1294 C1293 1.379 . S
H1295 C1289 0.959 . S
H1296 C1289 0.961 . S
H1297 C1289 0.960 . S
H1298 C1290 0.930 . S
H1299 C1291 0.929 . S
H1300 C1308 0.929 . S
H1301 C1310 0.930 . S
H1302 C1312 0.930 . S
H1303 C1315 0.929 . S
H1304 C1318 0.930 . S
H1305 C1320 0.960 . S
H1306 C1320 0.960 . S
H1307 C1320 0.960 . S
C1308 H1300 0.929 . S
C1308 C1309 1.377 . S
C1308 C1310 1.384 . S
C1309 C1308 1.377 . S
C1309 C1315 1.390 . S
C1310 H1301 0.930 . S
C1310 C1308 1.384 . S
C1310 C1311 1.372 . S
C1311 C1310 1.372 . S
C1311 C1312 1.400 . S
C1311 C1316 1.490 . S
C1312 H1302 0.930 . S
C1312 C1311 1.400 . S
C1312 C1315 1.386 . S
H1313 C1329 0.930 . S
H1314 C1330 0.931 . S
C1315 H1303 0.929 . S
C1315 C1309 1.390 . S
C1315 C1312 1.386 . S
C1316 C1311 1.490 . S
C1316 C1318 1.395 . S
C1316 C1319 1.403 . S
H1317 C1323 0.930 . S
C1318 H1304 0.930 . S
C1318 C1316 1.395 . S
C1318 C1321 1.403 . S
C1319 C1316 1.403 . S
C1319 C1320 1.524 . S
C1319 C1323 1.400 . S
C1320 H1305 0.960 . S
C1320 H1306 0.960 . S
C1320 H1307 0.960 . S
C1320 C1319 1.524 . S
C1321 C1318 1.403 . S
C1321 C1322 1.392 . S
C1321 C1325 1.495 . S
C1322 C1321 1.392 . S
C1322 C1323 1.385 . S
C1322 C1324 1.478 . S
C1323 H1317 0.930 . S
C1323 C1319 1.400 . S
C1323 C1322 1.385 . S
C1324 C1322 1.478 . S
C1324 C1326 1.381 . S
C1324 C1330 1.383 . S
C1325 C1321 1.495 . S
C1325 H1331 0.959 . S
C1325 H1332 0.961 . S
C1325 H1333 0.960 . S
C1326 C1324 1.381 . S
C1326 C1327 1.394 . S
C1326 H1334 0.930 . S
C1327 C1326 1.394 . S
C1327 C1328 1.383 . S
C1327 H1335 0.929 . S
C1328 C1327 1.383 . S
C1328 C1329 1.377 . S
C1329 H1313 0.930 . S
C1329 C1328 1.377 . S
C1329 C1330 1.379 . S
C1330 H1314 0.931 . S
C1330 C1324 1.383 . S
C1330 C1329 1.379 . S
H1331 C1325 0.959 . S
H1332 C1325 0.961 . S
H1333 C1325 0.960 . S
H1334 C1326 0.930 . S
H1335 C1327 0.929 . S
H1336 C1344 0.929 . S
H1337 C1346 0.930 . S
H1338 C1348 0.930 . S
H1339 C1351 0.929 . S
H1340 C1354 0.930 . S
H1341 C1356 0.960 . S
H1342 C1356 0.960 . S
H1343 C1356 0.960 . S
C1344 H1336 0.929 . S
C1344 C1345 1.377 . S
C1344 C1346 1.384 . S
C1345 C1344 1.377 . S
C1345 C1351 1.390 . S
C1346 H1337 0.930 . S
C1346 C1344 1.384 . S
C1346 C1347 1.372 . S
C1347 C1346 1.372 . S
C1347 C1348 1.400 . S
C1347 C1352 1.490 . S
C1348 H1338 0.930 . S
C1348 C1347 1.400 . S
C1348 C1351 1.386 . S
H1349 C1365 0.930 . S
H1350 C1366 0.931 . S
C1351 H1339 0.929 . S
C1351 C1345 1.390 . S
C1351 C1348 1.386 . S
C1352 C1347 1.490 . S
C1352 C1354 1.395 . S
C1352 C1355 1.403 . S
H1353 C1359 0.930 . S
C1354 H1340 0.930 . S
C1354 C1352 1.395 . S
C1354 C1357 1.403 . S
C1355 C1352 1.403 . S
C1355 C1356 1.524 . S
C1355 C1359 1.400 . S
C1356 H1341 0.960 . S
C1356 H1342 0.960 . S
C1356 H1343 0.960 . S
C1356 C1355 1.524 . S
C1357 C1354 1.403 . S
C1357 C1358 1.392 . S
C1357 C1361 1.495 . S
C1358 C1357 1.392 . S
C1358 C1359 1.385 . S
C1358 C1360 1.478 . S
C1359 H1353 0.930 . S
C1359 C1355 1.400 . S
C1359 C1358 1.385 . S
C1360 C1358 1.478 . S
C1360 C1362 1.381 . S
C1360 C1366 1.383 . S
C1361 C1357 1.495 . S
C1361 H1367 0.959 . S
C1361 H1368 0.961 . S
C1361 H1369 0.960 . S
C1362 C1360 1.381 . S
C1362 C1363 1.394 . S
C1362 H1370 0.930 . S
C1363 C1362 1.394 . S
C1363 C1364 1.383 . S
C1363 H1371 0.929 . S
C1364 C1363 1.383 . S
C1364 C1365 1.377 . S
C1365 H1349 0.930 . S
C1365 C1364 1.377 . S
C1365 C1366 1.379 . S
C1366 H1350 0.931 . S
C1366 C1360 1.383 . S
C1366 C1365 1.379 . S
H1367 C1361 0.959 . S
H1368 C1361 0.961 . S
H1369 C1361 0.960 . S
H1370 C1362 0.930 . S
H1371 C1363 0.929 . S
H1372 C1380 0.929 . S
H1373 C1382 0.930 . S
H1374 C1384 0.930 . S
H1375 C1387 0.929 . S
H1376 C1390 0.930 . S
H1377 C1392 0.960 . S
H1378 C1392 0.960 . S
H1379 C1392 0.960 . S
C1380 H1372 0.929 . S
C1380 C1381 1.377 . S
C1380 C1382 1.384 . S
C1381 C1380 1.377 . S
C1381 C1387 1.390 . S
C1382 H1373 0.930 . S
C1382 C1380 1.384 . S
C1382 C1383 1.372 . S
C1383 C1382 1.372 . S
C1383 C1384 1.400 . S
C1383 C1388 1.490 . S
C1384 H1374 0.930 . S
C1384 C1383 1.400 . S
C1384 C1387 1.386 . S
H1385 C1401 0.930 . S
H1386 C1402 0.931 . S
C1387 H1375 0.929 . S
C1387 C1381 1.390 . S
C1387 C1384 1.386 . S
C1388 C1383 1.490 . S
C1388 C1390 1.395 . S
C1388 C1391 1.403 . S
H1389 C1395 0.930 . S
C1390 H1376 0.930 . S
C1390 C1388 1.395 . S
C1390 C1393 1.403 . S
C1391 C1388 1.403 . S
C1391 C1392 1.524 . S
C1391 C1395 1.400 . S
C1392 H1377 0.960 . S
C1392 H1378 0.960 . S
C1392 H1379 0.960 . S
C1392 C1391 1.524 . S
C1393 C1390 1.403 . S
C1393 C1394 1.392 . S
C1393 C1397 1.495 . S
C1394 C1393 1.392 . S
C1394 C1395 1.385 . S
C1394 C1396 1.478 . S
C1395 H1389 0.930 . S
C1395 C1391 1.400 . S
C1395 C1394 1.385 . S
C1396 C1394 1.478 . S
C1396 C1398 1.381 . S
C1396 C1402 1.383 . S
C1397 C1393 1.495 . S
C1397 H1403 0.959 . S
C1397 H1404 0.961 . S
C1397 H1405 0.960 . S
C1398 C1396 1.381 . S
C1398 C1399 1.394 . S
C1398 H1406 0.930 . S
C1399 C1398 1.394 . S
C1399 C1400 1.383 . S
C1399 H1407 0.929 . S
C1400 C1399 1.383 . S
C1400 C1401 1.377 . S
C1401 H1385 0.930 . S
C1401 C1400 1.377 . S
C1401 C1402 1.379 . S
C1402 H1386 0.931 . S
C1402 C1396 1.383 . S
C1402 C1401 1.379 . S
H1403 C1397 0.959 . S
H1404 C1397 0.961 . S
H1405 C1397 0.960 . S
H1406 C1398 0.930 . S
H1407 C1399 0.929 . S
H1408 C1416 0.929 . S
H1409 C1418 0.930 . S
H1410 C1420 0.930 . S
H1411 C1423 0.929 . S
H1412 C1426 0.930 . S
H1413 C1428 0.960 . S
H1414 C1428 0.960 . S
H1415 C1428 0.960 . S
C1416 H1408 0.929 . S
C1416 C1417 1.377 . S
C1416 C1418 1.384 . S
C1417 C1416 1.377 . S
C1417 C1423 1.390 . S
C1418 H1409 0.930 . S
C1418 C1416 1.384 . S
C1418 C1419 1.372 . S
C1419 C1418 1.372 . S
C1419 C1420 1.400 . S
C1419 C1424 1.490 . S
C1420 H1410 0.930 . S
C1420 C1419 1.400 . S
C1420 C1423 1.386 . S
H1421 C1437 0.930 . S
H1422 C1438 0.931 . S
C1423 H1411 0.929 . S
C1423 C1417 1.390 . S
C1423 C1420 1.386 . S
C1424 C1419 1.490 . S
C1424 C1426 1.395 . S
C1424 C1427 1.403 . S
H1425 C1431 0.930 . S
C1426 H1412 0.930 . S
C1426 C1424 1.395 . S
C1426 C1429 1.403 . S
C1427 C1424 1.403 . S
C1427 C1428 1.524 . S
C1427 C1431 1.400 . S
C1428 H1413 0.960 . S
C1428 H1414 0.960 . S
C1428 H1415 0.960 . S
C1428 C1427 1.524 . S
C1429 C1426 1.403 . S
C1429 C1430 1.392 . S
C1429 C1433 1.495 . S
C1430 C1429 1.392 . S
C1430 C1431 1.385 . S
C1430 C1432 1.478 . S
C1431 H1425 0.930 . S
C1431 C1427 1.400 . S
C1431 C1430 1.385 . S
C1432 C1430 1.478 . S
C1432 C1434 1.381 . S
C1432 C1438 1.383 . S
C1433 C1429 1.495 . S
C1433 H1439 0.959 . S
C1433 H1440 0.961 . S
C1433 H1441 0.960 . S
C1434 C1432 1.381 . S
C1434 C1435 1.394 . S
C1434 H1442 0.930 . S
C1435 C1434 1.394 . S
C1435 C1436 1.383 . S
C1435 H1443 0.929 . S
C1436 C1435 1.383 . S
C1436 C1437 1.377 . S
C1437 H1421 0.930 . S
C1437 C1436 1.377 . S
C1437 C1438 1.379 . S
C1438 H1422 0.931 . S
C1438 C1432 1.383 . S
C1438 C1437 1.379 . S
H1439 C1433 0.959 . S
H1440 C1433 0.961 . S
H1441 C1433 0.960 . S
H1442 C1434 0.930 . S
H1443 C1435 0.929 . S
H1444 C1452 0.929 . S
H1445 C1454 0.930 . S
H1446 C1456 0.930 . S
H1447 C1459 0.929 . S
H1448 C1462 0.930 . S
H1449 C1464 0.960 . S
H1450 C1464 0.960 . S
H1451 C1464 0.960 . S
C1452 H1444 0.929 . S
C1452 C1453 1.377 . S
C1452 C1454 1.384 . S
C1453 C1452 1.377 . S
C1453 C1459 1.390 . S
C1454 H1445 0.930 . S
C1454 C1452 1.384 . S
C1454 C1455 1.372 . S
C1455 C1454 1.372 . S
C1455 C1456 1.400 . S
C1455 C1460 1.490 . S
C1456 H1446 0.930 . S
C1456 C1455 1.400 . S
C1456 C1459 1.386 . S
H1457 C1473 0.930 . S
H1458 C1474 0.931 . S
C1459 H1447 0.929 . S
C1459 C1453 1.390 . S
C1459 C1456 1.386 . S
C1460 C1455 1.490 . S
C1460 C1462 1.395 . S
C1460 C1463 1.403 . S
H1461 C1467 0.930 . S
C1462 H1448 0.930 . S
C1462 C1460 1.395 . S
C1462 C1465 1.403 . S
C1463 C1460 1.403 . S
C1463 C1464 1.524 . S
C1463 C1467 1.400 . S
C1464 H1449 0.960 . S
C1464 H1450 0.960 . S
C1464 H1451 0.960 . S
C1464 C1463 1.524 . S
C1465 C1462 1.403 . S
C1465 C1466 1.392 . S
C1465 C1469 1.495 . S
C1466 C1465 1.392 . S
C1466 C1467 1.385 . S
C1466 C1468 1.478 . S
C1467 H1461 0.930 . S
C1467 C1463 1.400 . S
C1467 C1466 1.385 . S
C1468 C1466 1.478 . S
C1468 C1470 1.381 . S
C1468 C1474 1.383 . S
C1469 C1465 1.495 . S
C1469 H1475 0.959 . S
C1469 H1476 0.961 . S
C1469 H1477 0.960 . S
C1470 C1468 1.381 . S
C1470 C1471 1.394 . S
C1470 H1478 0.930 . S
C1471 C1470 1.394 . S
C1471 C1472 1.383 . S
C1471 H1479 0.929 . S
C1472 C1471 1.383 . S
C1472 C1473 1.377 . S
C1473 H1457 0.930 . S
C1473 C1472 1.377 . S
C1473 C1474 1.379 . S
C1474 H1458 0.931 . S
C1474 C1468 1.383 . S
C1474 C1473 1.379 . S
H1475 C1469 0.959 . S
H1476 C1469 0.961 . S
H1477 C1469 0.960 . S
H1478 C1470 0.930 . S
H1479 C1471 0.929 . S
H1480 C1488 0.929 . S
H1481 C1490 0.930 . S
H1482 C1492 0.930 . S
H1483 C1495 0.929 . S
H1484 C1498 0.930 . S
H1485 C1500 0.960 . S
H1486 C1500 0.960 . S
H1487 C1500 0.960 . S
C1488 H1480 0.929 . S
C1488 C1489 1.377 . S
C1488 C1490 1.384 . S
C1489 C1488 1.377 . S
C1489 C1495 1.390 . S
C1490 H1481 0.930 . S
C1490 C1488 1.384 . S
C1490 C1491 1.372 . S
C1491 C1490 1.372 . S
C1491 C1492 1.400 . S
C1491 C1496 1.490 . S
C1492 H1482 0.930 . S
C1492 C1491 1.400 . S
C1492 C1495 1.386 . S
H1493 C1509 0.930 . S
H1494 C1510 0.931 . S
C1495 H1483 0.929 . S
C1495 C1489 1.390 . S
C1495 C1492 1.386 . S
C1496 C1491 1.490 . S
C1496 C1498 1.395 . S
C1496 C1499 1.403 . S
H1497 C1503 0.930 . S
C1498 H1484 0.930 . S
C1498 C1496 1.395 . S
C1498 C1501 1.403 . S
C1499 C1496 1.403 . S
C1499 C1500 1.524 . S
C1499 C1503 1.400 . S
C1500 H1485 0.960 . S
C1500 H1486 0.960 . S
C1500 H1487 0.960 . S
C1500 C1499 1.524 . S
C1501 C1498 1.403 . S
C1501 C1502 1.392 . S
C1501 C1505 1.495 . S
C1502 C1501 1.392 . S
C1502 C1503 1.385 . S
C1502 C1504 1.478 . S
C1503 H1497 0.930 . S
C1503 C1499 1.400 . S
C1503 C1502 1.385 . S
C1504 C1502 1.478 . S
C1504 C1506 1.381 . S
C1504 C1510 1.383 . S
C1505 C1501 1.495 . S
C1505 H1511 0.959 . S
C1505 H1512 0.961 . S
C1505 H1513 0.960 . S
C1506 C1504 1.381 . S
C1506 C1507 1.394 . S
C1506 H1514 0.930 . S
C1507 C1506 1.394 . S
C1507 C1508 1.383 . S
C1507 H1515 0.929 . S
C1508 C1507 1.383 . S
C1508 C1509 1.377 . S
C1509 H1493 0.930 . S
C1509 C1508 1.377 . S
C1509 C1510 1.379 . S
C1510 H1494 0.931 . S
C1510 C1504 1.383 . S
C1510 C1509 1.379 . S
H1511 C1505 0.959 . S
H1512 C1505 0.961 . S
H1513 C1505 0.960 . S
H1514 C1506 0.930 . S
H1515 C1507 0.929 . S
H1516 C1524 0.929 . S
H1517 C1526 0.930 . S
H1518 C1528 0.930 . S
H1519 C1531 0.929 . S
H1520 C1534 0.930 . S
H1521 C1536 0.960 . S
H1522 C1536 0.960 . S
H1523 C1536 0.960 . S
C1524 H1516 0.929 . S
C1524 C1525 1.377 . S
C1524 C1526 1.384 . S
C1525 C1524 1.377 . S
C1525 C1531 1.390 . S
C1526 H1517 0.930 . S
C1526 C1524 1.384 . S
C1526 C1527 1.372 . S
C1527 C1526 1.372 . S
C1527 C1528 1.400 . S
C1527 C1532 1.490 . S
C1528 H1518 0.930 . S
C1528 C1527 1.400 . S
C1528 C1531 1.386 . S
H1529 C1545 0.930 . S
H1530 C1546 0.931 . S
C1531 H1519 0.929 . S
C1531 C1525 1.390 . S
C1531 C1528 1.386 . S
C1532 C1527 1.490 . S
C1532 C1534 1.395 . S
C1532 C1535 1.403 . S
H1533 C1539 0.930 . S
C1534 H1520 0.930 . S
C1534 C1532 1.395 . S
C1534 C1537 1.403 . S
C1535 C1532 1.403 . S
C1535 C1536 1.524 . S
C1535 C1539 1.400 . S
C1536 H1521 0.960 . S
C1536 H1522 0.960 . S
C1536 H1523 0.960 . S
C1536 C1535 1.524 . S
C1537 C1534 1.403 . S
C1537 C1538 1.392 . S
C1537 C1541 1.495 . S
C1538 C1537 1.392 . S
C1538 C1539 1.385 . S
C1538 C1540 1.478 . S
C1539 H1533 0.930 . S
C1539 C1535 1.400 . S
C1539 C1538 1.385 . S
C1540 C1538 1.478 . S
C1540 C1542 1.381 . S
C1540 C1546 1.383 . S
C1541 C1537 1.495 . S
C1541 H1547 0.959 . S
C1541 H1548 0.961 . S
C1541 H1549 0.960 . S
C1542 C1540 1.381 . S
C1542 C1543 1.394 . S
C1542 H1550 0.930 . S
C1543 C1542 1.394 . S
C1543 C1544 1.383 . S
C1543 H1551 0.929 . S
C1544 C1543 1.383 . S
C1544 C1545 1.377 . S
C1545 H1529 0.930 . S
C1545 C1544 1.377 . S
C1545 C1546 1.379 . S
C1546 H1530 0.931 . S
C1546 C1540 1.383 . S
C1546 C1545 1.379 . S
H1547 C1541 0.959 . S
H1548 C1541 0.961 . S
H1549 C1541 0.960 . S
H1550 C1542 0.930 . S
H1551 C1543 0.929 . S
H1552 C1560 0.929 . S
H1553 C1562 0.930 . S
H1554 C1564 0.930 . S
H1555 C1567 0.929 . S
H1556 C1570 0.930 . S
H1557 C1572 0.960 . S
H1558 C1572 0.960 . S
H1559 C1572 0.960 . S
C1560 H1552 0.929 . S
C1560 C1561 1.377 . S
C1560 C1562 1.384 . S
C1561 C1560 1.377 . S
C1561 C1567 1.390 . S
C1562 H1553 0.930 . S
C1562 C1560 1.384 . S
C1562 C1563 1.372 . S
C1563 C1562 1.372 . S
C1563 C1564 1.400 . S
C1563 C1568 1.490 . S
C1564 H1554 0.930 . S
C1564 C1563 1.400 . S
C1564 C1567 1.386 . S
H1565 C1581 0.930 . S
H1566 C1582 0.931 . S
C1567 H1555 0.929 . S
C1567 C1561 1.390 . S
C1567 C1564 1.386 . S
C1568 C1563 1.490 . S
C1568 C1570 1.395 . S
C1568 C1571 1.403 . S
H1569 C1575 0.930 . S
C1570 H1556 0.930 . S
C1570 C1568 1.395 . S
C1570 C1573 1.403 . S
C1571 C1568 1.403 . S
C1571 C1572 1.524 . S
C1571 C1575 1.400 . S
C1572 H1557 0.960 . S
C1572 H1558 0.960 . S
C1572 H1559 0.960 . S
C1572 C1571 1.524 . S
C1573 C1570 1.403 . S
C1573 C1574 1.392 . S
C1573 C1577 1.495 . S
C1574 C1573 1.392 . S
C1574 C1575 1.385 . S
C1574 C1576 1.478 . S
C1575 H1569 0.930 . S
C1575 C1571 1.400 . S
C1575 C1574 1.385 . S
C1576 C1574 1.478 . S
C1576 C1578 1.381 . S
C1576 C1582 1.383 . S
C1577 C1573 1.495 . S
C1577 H1583 0.959 . S
C1577 H1584 0.961 . S
C1577 H1585 0.960 . S
C1578 C1576 1.381 . S
C1578 C1579 1.394 . S
C1578 H1586 0.930 . S
C1579 C1578 1.394 . S
C1579 C1580 1.383 . S
C1579 H1587 0.929 . S
C1580 C1579 1.383 . S
C1580 C1581 1.377 . S
C1581 H1565 0.930 . S
C1581 C1580 1.377 . S
C1581 C1582 1.379 . S
C1582 H1566 0.931 . S
C1582 C1576 1.383 . S
C1582 C1581 1.379 . S
H1583 C1577 0.959 . S
H1584 C1577 0.961 . S
H1585 C1577 0.960 . S
H1586 C1578 0.930 . S
H1587 C1579 0.929 . S
H1588 C1596 0.929 . S
H1589 C1598 0.930 . S
H1590 C1600 0.930 . S
H1591 C1603 0.929 . S
H1592 C1606 0.930 . S
H1593 C1608 0.960 . S
H1594 C1608 0.960 . S
H1595 C1608 0.960 . S
C1596 H1588 0.929 . S
C1596 C1597 1.377 . S
C1596 C1598 1.384 . S
C1597 C1596 1.377 . S
C1597 C1603 1.390 . S
C1598 H1589 0.930 . S
C1598 C1596 1.384 . S
C1598 C1599 1.372 . S
C1599 C1598 1.372 . S
C1599 C1600 1.400 . S
C1599 C1604 1.490 . S
C1600 H1590 0.930 . S
C1600 C1599 1.400 . S
C1600 C1603 1.386 . S
H1601 C1617 0.930 . S
H1602 C1618 0.931 . S
C1603 H1591 0.929 . S
C1603 C1597 1.390 . S
C1603 C1600 1.386 . S
C1604 C1599 1.490 . S
C1604 C1606 1.395 . S
C1604 C1607 1.403 . S
H1605 C1611 0.930 . S
C1606 H1592 0.930 . S
C1606 C1604 1.395 . S
C1606 C1609 1.403 . S
C1607 C1604 1.403 . S
C1607 C1608 1.524 . S
C1607 C1611 1.400 . S
C1608 H1593 0.960 . S
C1608 H1594 0.960 . S
C1608 H1595 0.960 . S
C1608 C1607 1.524 . S
C1609 C1606 1.403 . S
C1609 C1610 1.392 . S
C1609 C1613 1.495 . S
C1610 C1609 1.392 . S
C1610 C1611 1.385 . S
C1610 C1612 1.478 . S
C1611 H1605 0.930 . S
C1611 C1607 1.400 . S
C1611 C1610 1.385 . S
C1612 C1610 1.478 . S
C1612 C1614 1.381 . S
C1612 C1618 1.383 . S
C1613 C1609 1.495 . S
C1613 H1619 0.959 . S
C1613 H1620 0.961 . S
C1613 H1621 0.960 . S
C1614 C1612 1.381 . S
C1614 C1615 1.394 . S
C1614 H1622 0.930 . S
C1615 C1614 1.394 . S
C1615 C1616 1.383 . S
C1615 H1623 0.929 . S
C1616 C1615 1.383 . S
C1616 C1617 1.377 . S
C1617 H1601 0.930 . S
C1617 C1616 1.377 . S
C1617 C1618 1.379 . S
C1618 H1602 0.931 . S
C1618 C1612 1.383 . S
C1618 C1617 1.379 . S
H1619 C1613 0.959 . S
H1620 C1613 0.961 . S
H1621 C1613 0.960 . S
H1622 C1614 0.930 . S
H1623 C1615 0.929 . S
H1624 C1632 0.929 . S
H1625 C1634 0.930 . S
H1626 C1636 0.930 . S
H1627 C1639 0.929 . S
H1628 C1642 0.930 . S
H1629 C1644 0.960 . S
H1630 C1644 0.960 . S
H1631 C1644 0.960 . S
C1632 H1624 0.929 . S
C1632 C1633 1.377 . S
C1632 C1634 1.384 . S
C1633 C1632 1.377 . S
C1633 C1639 1.390 . S
C1634 H1625 0.930 . S
C1634 C1632 1.384 . S
C1634 C1635 1.372 . S
C1635 C1634 1.372 . S
C1635 C1636 1.400 . S
C1635 C1640 1.490 . S
C1636 H1626 0.930 . S
C1636 C1635 1.400 . S
C1636 C1639 1.386 . S
H1637 C1653 0.930 . S
H1638 C1654 0.931 . S
C1639 H1627 0.929 . S
C1639 C1633 1.390 . S
C1639 C1636 1.386 . S
C1640 C1635 1.490 . S
C1640 C1642 1.395 . S
C1640 C1643 1.403 . S
H1641 C1647 0.930 . S
C1642 H1628 0.930 . S
C1642 C1640 1.395 . S
C1642 C1645 1.403 . S
C1643 C1640 1.403 . S
C1643 C1644 1.524 . S
C1643 C1647 1.400 . S
C1644 H1629 0.960 . S
C1644 H1630 0.960 . S
C1644 H1631 0.960 . S
C1644 C1643 1.524 . S
C1645 C1642 1.403 . S
C1645 C1646 1.392 . S
C1645 C1649 1.495 . S
C1646 C1645 1.392 . S
C1646 C1647 1.385 . S
C1646 C1648 1.478 . S
C1647 H1641 0.930 . S
C1647 C1643 1.400 . S
C1647 C1646 1.385 . S
C1648 C1646 1.478 . S
C1648 C1650 1.381 . S
C1648 C1654 1.383 . S
C1649 C1645 1.495 . S
C1649 H1655 0.959 . S
C1649 H1656 0.961 . S
C1649 H1657 0.960 . S
C1650 C1648 1.381 . S
C1650 C1651 1.394 . S
C1650 H1658 0.930 . S
C1651 C1650 1.394 . S
C1651 C1652 1.383 . S
C1651 H1659 0.929 . S
C1652 C1651 1.383 . S
C1652 C1653 1.377 . S
C1653 H1637 0.930 . S
C1653 C1652 1.377 . S
C1653 C1654 1.379 . S
C1654 H1638 0.931 . S
C1654 C1648 1.383 . S
C1654 C1653 1.379 . S
H1655 C1649 0.959 . S
H1656 C1649 0.961 . S
H1657 C1649 0.960 . S
H1658 C1650 0.930 . S
H1659 C1651 0.929 . S
H1660 C1668 0.929 . S
H1661 C1670 0.930 . S
H1662 C1672 0.930 . S
H1663 C1675 0.929 . S
H1664 C1678 0.930 . S
H1665 C1680 0.960 . S
H1666 C1680 0.960 . S
H1667 C1680 0.960 . S
C1668 H1660 0.929 . S
C1668 C1669 1.377 . S
C1668 C1670 1.384 . S
C1669 C1668 1.377 . S
C1669 C1675 1.390 . S
C1670 H1661 0.930 . S
C1670 C1668 1.384 . S
C1670 C1671 1.372 . S
C1671 C1670 1.372 . S
C1671 C1672 1.400 . S
C1671 C1676 1.490 . S
C1672 H1662 0.930 . S
C1672 C1671 1.400 . S
C1672 C1675 1.386 . S
H1673 C1689 0.930 . S
H1674 C1690 0.931 . S
C1675 H1663 0.929 . S
C1675 C1669 1.390 . S
C1675 C1672 1.386 . S
C1676 C1671 1.490 . S
C1676 C1678 1.395 . S
C1676 C1679 1.403 . S
H1677 C1683 0.930 . S
C1678 H1664 0.930 . S
C1678 C1676 1.395 . S
C1678 C1681 1.403 . S
C1679 C1676 1.403 . S
C1679 C1680 1.524 . S
C1679 C1683 1.400 . S
C1680 H1665 0.960 . S
C1680 H1666 0.960 . S
C1680 H1667 0.960 . S
C1680 C1679 1.524 . S
C1681 C1678 1.403 . S
C1681 C1682 1.392 . S
C1681 C1685 1.495 . S
C1682 C1681 1.392 . S
C1682 C1683 1.385 . S
C1682 C1684 1.478 . S
C1683 H1677 0.930 . S
C1683 C1679 1.400 . S
C1683 C1682 1.385 . S
C1684 C1682 1.478 . S
C1684 C1686 1.381 . S
C1684 C1690 1.383 . S
C1685 C1681 1.495 . S
C1685 H1691 0.959 . S
C1685 H1692 0.961 . S
C1685 H1693 0.960 . S
C1686 C1684 1.381 . S
C1686 C1687 1.394 . S
C1686 H1694 0.930 . S
C1687 C1686 1.394 . S
C1687 C1688 1.383 . S
C1687 H1695 0.929 . S
C1688 C1687 1.383 . S
C1688 C1689 1.377 . S
C1689 H1673 0.930 . S
C1689 C1688 1.377 . S
C1689 C1690 1.379 . S
C1690 H1674 0.931 . S
C1690 C1684 1.383 . S
C1690 C1689 1.379 . S
H1691 C1685 0.959 . S
H1692 C1685 0.961 . S
H1693 C1685 0.960 . S
H1694 C1686 0.930 . S
H1695 C1687 0.929 . S
H1696 C1704 0.929 . S
H1697 C1706 0.930 . S
H1698 C1708 0.930 . S
H1699 C1711 0.929 . S
H1700 C1714 0.930 . S
H1701 C1716 0.960 . S
H1702 C1716 0.960 . S
H1703 C1716 0.960 . S
C1704 H1696 0.929 . S
C1704 C1705 1.377 . S
C1704 C1706 1.384 . S
C1705 C1704 1.377 . S
C1705 C1711 1.390 . S
C1706 H1697 0.930 . S
C1706 C1704 1.384 . S
C1706 C1707 1.372 . S
C1707 C1706 1.372 . S
C1707 C1708 1.400 . S
C1707 C1712 1.490 . S
C1708 H1698 0.930 . S
C1708 C1707 1.400 . S
C1708 C1711 1.386 . S
H1709 C1725 0.930 . S
H1710 C1726 0.931 . S
C1711 H1699 0.929 . S
C1711 C1705 1.390 . S
C1711 C1708 1.386 . S
C1712 C1707 1.490 . S
C1712 C1714 1.395 . S
C1712 C1715 1.403 . S
H1713 C1719 0.930 . S
C1714 H1700 0.930 . S
C1714 C1712 1.395 . S
C1714 C1717 1.403 . S
C1715 C1712 1.403 . S
C1715 C1716 1.524 . S
C1715 C1719 1.400 . S
C1716 H1701 0.960 . S
C1716 H1702 0.960 . S
C1716 H1703 0.960 . S
C1716 C1715 1.524 . S
C1717 C1714 1.403 . S
C1717 C1718 1.392 . S
C1717 C1721 1.495 . S
C1718 C1717 1.392 . S
C1718 C1719 1.385 . S
C1718 C1720 1.478 . S
C1719 H1713 0.930 . S
C1719 C1715 1.400 . S
C1719 C1718 1.385 . S
C1720 C1718 1.478 . S
C1720 C1722 1.381 . S
C1720 C1726 1.383 . S
C1721 C1717 1.495 . S
C1721 H1727 0.959 . S
C1721 H1728 0.961 . S
C1721 H1729 0.960 . S
C1722 C1720 1.381 . S
C1722 C1723 1.394 . S
C1722 H1730 0.930 . S
C1723 C1722 1.394 . S
C1723 C1724 1.383 . S
C1723 H1731 0.929 . S
C1724 C1723 1.383 . S
C1724 C1725 1.377 . S
C1725 H1709 0.930 . S
C1725 C1724 1.377 . S
C1725 C1726 1.379 . S
C1726 H1710 0.931 . S
C1726 C1720 1.383 . S
C1726 C1725 1.379 . S
H1727 C1721 0.959 . S
H1728 C1721 0.961 . S
H1729 C1721 0.960 . S
H1730 C1722 0.930 . S
H1731 C1723 0.929 . S
H1732 C1740 0.929 . S
H1733 C1742 0.930 . S
H1734 C1744 0.930 . S
H1735 C1747 0.929 . S
H1736 C1750 0.930 . S
H1737 C1752 0.960 . S
H1738 C1752 0.960 . S
H1739 C1752 0.960 . S
C1740 H1732 0.929 . S
C1740 C1741 1.377 . S
C1740 C1742 1.384 . S
C1741 C1740 1.377 . S
C1741 C1747 1.390 . S
C1742 H1733 0.930 . S
C1742 C1740 1.384 . S
C1742 C1743 1.372 . S
C1743 C1742 1.372 . S
C1743 C1744 1.400 . S
C1743 C1748 1.490 . S
C1744 H1734 0.930 . S
C1744 C1743 1.400 . S
C1744 C1747 1.386 . S
H1745 C1761 0.930 . S
H1746 C1762 0.931 . S
C1747 H1735 0.929 . S
C1747 C1741 1.390 . S
C1747 C1744 1.386 . S
C1748 C1743 1.490 . S
C1748 C1750 1.395 . S
C1748 C1751 1.403 . S
H1749 C1755 0.930 . S
C1750 H1736 0.930 . S
C1750 C1748 1.395 . S
C1750 C1753 1.403 . S
C1751 C1748 1.403 . S
C1751 C1752 1.524 . S
C1751 C1755 1.400 . S
C1752 H1737 0.960 . S
C1752 H1738 0.960 . S
C1752 H1739 0.960 . S
C1752 C1751 1.524 . S
C1753 C1750 1.403 . S
C1753 C1754 1.392 . S
C1753 C1757 1.495 . S
C1754 C1753 1.392 . S
C1754 C1755 1.385 . S
C1754 C1756 1.478 . S
C1755 H1749 0.930 . S
C1755 C1751 1.400 . S
C1755 C1754 1.385 . S
C1756 C1754 1.478 . S
C1756 C1758 1.381 . S
C1756 C1762 1.383 . S
C1757 C1753 1.495 . S
C1757 H1763 0.959 . S
C1757 H1764 0.961 . S
C1757 H1765 0.960 . S
C1758 C1756 1.381 . S
C1758 C1759 1.394 . S
C1758 H1766 0.930 . S
C1759 C1758 1.394 . S
C1759 C1760 1.383 . S
C1759 H1767 0.929 . S
C1760 C1759 1.383 . S
C1760 C1761 1.377 . S
C1761 H1745 0.930 . S
C1761 C1760 1.377 . S
C1761 C1762 1.379 . S
C1762 H1746 0.931 . S
C1762 C1756 1.383 . S
C1762 C1761 1.379 . S
H1763 C1757 0.959 . S
H1764 C1757 0.961 . S
H1765 C1757 0.960 . S
H1766 C1758 0.930 . S
H1767 C1759 0.929 . S
H1768 C1776 0.929 . S
H1769 C1778 0.930 . S
H1770 C1780 0.930 . S
H1771 C1783 0.929 . S
H1772 C1786 0.930 . S
H1773 C1788 0.960 . S
H1774 C1788 0.960 . S
H1775 C1788 0.960 . S
C1776 H1768 0.929 . S
C1776 C1777 1.377 . S
C1776 C1778 1.384 . S
C1777 C1776 1.377 . S
C1777 C1783 1.390 . S
C1778 H1769 0.930 . S
C1778 C1776 1.384 . S
C1778 C1779 1.372 . S
C1779 C1778 1.372 . S
C1779 C1780 1.400 . S
C1779 C1784 1.490 . S
C1780 H1770 0.930 . S
C1780 C1779 1.400 . S
C1780 C1783 1.386 . S
H1781 C1797 0.930 . S
H1782 C1798 0.931 . S
C1783 H1771 0.929 . S
C1783 C1777 1.390 . S
C1783 C1780 1.386 . S
C1784 C1779 1.490 . S
C1784 C1786 1.395 . S
C1784 C1787 1.403 . S
H1785 C1791 0.930 . S
C1786 H1772 0.930 . S
C1786 C1784 1.395 . S
C1786 C1789 1.403 . S
C1787 C1784 1.403 . S
C1787 C1788 1.524 . S
C1787 C1791 1.400 . S
C1788 H1773 0.960 . S
C1788 H1774 0.960 . S
C1788 H1775 0.960 . S
C1788 C1787 1.524 . S
C1789 C1786 1.403 . S
C1789 C1790 1.392 . S
C1789 C1793 1.495 . S
C1790 C1789 1.392 . S
C1790 C1791 1.385 . S
C1790 C1792 1.478 . S
C1791 H1785 0.930 . S
C1791 C1787 1.400 . S
C1791 C1790 1.385 . S
C1792 C1790 1.478 . S
C1792 C1794 1.381 . S
C1792 C1798 1.383 . S
C1793 C1789 1.495 . S
C1793 H1799 0.959 . S
C1793 H1800 0.961 . S
C1793 H1801 0.960 . S
C1794 C1792 1.381 . S
C1794 C1795 1.394 . S
C1794 H1802 0.930 . S
C1795 C1794 1.394 . S
C1795 C1796 1.383 . S
C1795 H1803 0.929 . S
C1796 C1795 1.383 . S
C1796 C1797 1.377 . S
C1797 H1781 0.930 . S
C1797 C1796 1.377 . S
C1797 C1798 1.379 . S
C1798 H1782 0.931 . S
C1798 C1792 1.383 . S
C1798 C1797 1.379 . S
H1799 C1793 0.959 . S
H1800 C1793 0.961 . S
H1801 C1793 0.960 . S
H1802 C1794 0.930 . S
H1803 C1795 0.929 . S
H1804 C1812 0.929 . S
H1805 C1814 0.930 . S
H1806 C1816 0.930 . S
H1807 C1819 0.929 . S
H1808 C1822 0.930 . S
H1809 C1824 0.960 . S
H1810 C1824 0.960 . S
H1811 C1824 0.960 . S
C1812 H1804 0.929 . S
C1812 C1813 1.377 . S
C1812 C1814 1.384 . S
C1813 C1812 1.377 . S
C1813 C1819 1.390 . S
C1814 H1805 0.930 . S
C1814 C1812 1.384 . S
C1814 C1815 1.372 . S
C1815 C1814 1.372 . S
C1815 C1816 1.400 . S
C1815 C1820 1.490 . S
C1816 H1806 0.930 . S
C1816 C1815 1.400 . S
C1816 C1819 1.386 . S
H1817 C1833 0.930 . S
H1818 C1834 0.931 . S
C1819 H1807 0.929 . S
C1819 C1813 1.390 . S
C1819 C1816 1.386 . S
C1820 C1815 1.490 . S
C1820 C1822 1.395 . S
C1820 C1823 1.403 . S
H1821 C1827 0.930 . S
C1822 H1808 0.930 . S
C1822 C1820 1.395 . S
C1822 C1825 1.403 . S
C1823 C1820 1.403 . S
C1823 C1824 1.524 . S
C1823 C1827 1.400 . S
C1824 H1809 0.960 . S
C1824 H1810 0.960 . S
C1824 H1811 0.960 . S
C1824 C1823 1.524 . S
C1825 C1822 1.403 . S
C1825 C1826 1.392 . S
C1825 C1829 1.495 . S
C1826 C1825 1.392 . S
C1826 C1827 1.385 . S
C1826 C1828 1.478 . S
C1827 H1821 0.930 . S
C1827 C1823 1.400 . S
C1827 C1826 1.385 . S
C1828 C1826 1.478 . S
C1828 C1830 1.381 . S
C1828 C1834 1.383 . S
C1829 C1825 1.495 . S
C1829 H1835 0.959 . S
C1829 H1836 0.961 . S
C1829 H1837 0.960 . S
C1830 C1828 1.381 . S
C1830 C1831 1.394 . S
C1830 H1838 0.930 . S
C1831 C1830 1.394 . S
C1831 C1832 1.383 . S
C1831 H1839 0.929 . S
C1832 C1831 1.383 . S
C1832 C1833 1.377 . S
C1833 H1817 0.930 . S
C1833 C1832 1.377 . S
C1833 C1834 1.379 . S
C1834 H1818 0.931 . S
C1834 C1828 1.383 . S
C1834 C1833 1.379 . S
H1835 C1829 0.959 . S
H1836 C1829 0.961 . S
H1837 C1829 0.960 . S
H1838 C1830 0.930 . S
H1839 C1831 0.929 . S
H1840 C1848 0.929 1_655 S
H1841 C1850 0.930 . S
H1842 C1852 0.930 . S
H1843 C1855 0.929 1_655 S
H1844 C1858 0.930 . S
H1845 C1860 0.960 . S
H1846 C1860 0.960 . S
H1847 C1860 0.960 . S
C1848 H1840 0.929 1_455 S
C1848 C1849 1.377 1_455 S
C1848 C1850 1.384 . S
C1849 C1848 1.377 1_655 S
C1849 C1855 1.390 1_655 S
C1850 H1841 0.930 . S
C1850 C1848 1.384 . S
C1850 C1851 1.372 . S
C1851 C1850 1.372 . S
C1851 C1852 1.400 . S
C1851 C1856 1.490 . S
C1852 H1842 0.930 . S
C1852 C1851 1.400 . S
C1852 C1855 1.386 . S
H1853 C1869 0.930 . S
H1854 C1870 0.931 . S
C1855 H1843 0.929 1_455 S
C1855 C1849 1.390 1_455 S
C1855 C1852 1.386 . S
C1856 C1851 1.490 . S
C1856 C1858 1.395 . S
C1856 C1859 1.403 . S
H1857 C1863 0.930 . S
C1858 H1844 0.930 . S
C1858 C1856 1.395 . S
C1858 C1861 1.403 . S
C1859 C1856 1.403 . S
C1859 C1860 1.524 . S
C1859 C1863 1.400 . S
C1860 H1845 0.960 . S
C1860 H1846 0.960 . S
C1860 H1847 0.960 . S
C1860 C1859 1.524 . S
C1861 C1858 1.403 . S
C1861 C1862 1.392 . S
C1861 C1865 1.495 . S
C1862 C1861 1.392 . S
C1862 C1863 1.385 . S
C1862 C1864 1.478 . S
C1863 H1857 0.930 . S
C1863 C1859 1.400 . S
C1863 C1862 1.385 . S
C1864 C1862 1.478 . S
C1864 C1866 1.381 . S
C1864 C1870 1.383 . S
C1865 C1861 1.495 . S
C1865 H1871 0.959 . S
C1865 H1872 0.961 . S
C1865 H1873 0.960 . S
C1866 C1864 1.381 . S
C1866 C1867 1.394 . S
C1866 H1874 0.930 . S
C1867 C1866 1.394 . S
C1867 C1868 1.383 . S
C1867 H1875 0.929 . S
C1868 C1867 1.383 . S
C1868 C1869 1.377 . S
C1869 H1853 0.930 . S
C1869 C1868 1.377 . S
C1869 C1870 1.379 . S
C1870 H1854 0.931 . S
C1870 C1864 1.383 . S
C1870 C1869 1.379 . S
H1871 C1865 0.959 . S
H1872 C1865 0.961 . S
H1873 C1865 0.960 . S
H1874 C1866 0.930 . S
H1875 C1867 0.929 . S
H1876 C1884 0.929 . S
H1877 C1886 0.930 . S
H1878 C1888 0.930 . S
H1879 C1891 0.929 . S
H1880 C1894 0.930 . S
H1881 C1896 0.960 . S
H1882 C1896 0.960 . S
H1883 C1896 0.960 . S
C1884 H1876 0.929 . S
C1884 C1885 1.377 . S
C1884 C1886 1.384 . S
C1885 C1884 1.377 . S
C1885 C1891 1.390 . S
C1886 H1877 0.930 . S
C1886 C1884 1.384 . S
C1886 C1887 1.372 . S
C1887 C1886 1.372 . S
C1887 C1888 1.400 . S
C1887 C1892 1.490 . S
C1888 H1878 0.930 . S
C1888 C1887 1.400 . S
C1888 C1891 1.386 . S
H1889 C1905 0.930 1_565 S
H1890 C1906 0.931 . S
C1891 H1879 0.929 . S
C1891 C1885 1.390 . S
C1891 C1888 1.386 . S
C1892 C1887 1.490 . S
C1892 C1894 1.395 . S
C1892 C1895 1.403 . S
H1893 C1899 0.930 . S
C1894 H1880 0.930 . S
C1894 C1892 1.395 . S
C1894 C1897 1.403 . S
C1895 C1892 1.403 . S
C1895 C1896 1.524 . S
C1895 C1899 1.400 . S
C1896 H1881 0.960 . S
C1896 H1882 0.960 . S
C1896 H1883 0.960 . S
C1896 C1895 1.524 . S
C1897 C1894 1.403 . S
C1897 C1898 1.392 . S
C1897 C1901 1.495 . S
C1898 C1897 1.392 . S
C1898 C1899 1.385 . S
C1898 C1900 1.478 . S
C1899 H1893 0.930 . S
C1899 C1895 1.400 . S
C1899 C1898 1.385 . S
C1900 C1898 1.478 . S
C1900 C1902 1.381 . S
C1900 C1906 1.383 . S
C1901 C1897 1.495 . S
C1901 H1907 0.959 . S
C1901 H1908 0.961 . S
C1901 H1909 0.960 . S
C1902 C1900 1.381 . S
C1902 C1903 1.394 . S
C1902 H1910 0.930 . S
C1903 C1902 1.394 . S
C1903 C1904 1.383 1_545 S
C1903 H1911 0.929 1_545 S
C1904 C1903 1.383 1_565 S
C1904 C1905 1.377 1_565 S
C1905 H1889 0.930 1_545 S
C1905 C1904 1.377 1_545 S
C1905 C1906 1.379 . S
C1906 H1890 0.931 . S
C1906 C1900 1.383 . S
C1906 C1905 1.379 . S
H1907 C1901 0.959 . S
H1908 C1901 0.961 . S
H1909 C1901 0.960 . S
H1910 C1902 0.930 . S
H1911 C1903 0.929 1_565 S
H1912 C1920 0.929 . S
H1913 C1922 0.930 . S
H1914 C1924 0.930 . S
H1915 C1927 0.929 . S
H1916 C1930 0.930 . S
H1917 C1932 0.960 . S
H1918 C1932 0.960 . S
H1919 C1932 0.960 . S
C1920 H1912 0.929 . S
C1920 C1921 1.377 . S
C1920 C1922 1.384 . S
C1921 C1920 1.377 . S
C1921 C1927 1.390 . S
C1922 H1913 0.930 . S
C1922 C1920 1.384 . S
C1922 C1923 1.372 . S
C1923 C1922 1.372 . S
C1923 C1924 1.400 . S
C1923 C1928 1.490 . S
C1924 H1914 0.930 . S
C1924 C1923 1.400 . S
C1924 C1927 1.386 . S
H1925 C1941 0.930 1_455 S
H1926 C1942 0.931 . S
C1927 H1915 0.929 . S
C1927 C1921 1.390 . S
C1927 C1924 1.386 . S
C1928 C1923 1.490 . S
C1928 C1930 1.395 . S
C1928 C1931 1.403 . S
H1929 C1935 0.930 . S
C1930 H1916 0.930 . S
C1930 C1928 1.395 . S
C1930 C1933 1.403 . S
C1931 C1928 1.403 . S
C1931 C1932 1.524 . S
C1931 C1935 1.400 . S
C1932 H1917 0.960 . S
C1932 H1918 0.960 . S
C1932 H1919 0.960 . S
C1932 C1931 1.524 . S
C1933 C1930 1.403 . S
C1933 C1934 1.392 . S
C1933 C1937 1.495 . S
C1934 C1933 1.392 . S
C1934 C1935 1.385 . S
C1934 C1936 1.478 . S
C1935 H1929 0.930 . S
C1935 C1931 1.400 . S
C1935 C1934 1.385 . S
C1936 C1934 1.478 . S
C1936 C1938 1.381 . S
C1936 C1942 1.383 . S
C1937 C1933 1.495 . S
C1937 H1943 0.959 . S
C1937 H1944 0.961 . S
C1937 H1945 0.960 . S
C1938 C1936 1.381 . S
C1938 C1939 1.394 . S
C1938 H1946 0.930 . S
C1939 C1938 1.394 . S
C1939 C1940 1.383 1_655 S
C1939 H1947 0.929 1_655 S
C1940 C1939 1.383 1_455 S
C1940 C1941 1.377 1_455 S
C1941 H1925 0.930 1_655 S
C1941 C1940 1.377 1_655 S
C1941 C1942 1.379 . S
C1942 H1926 0.931 . S
C1942 C1936 1.383 . S
C1942 C1941 1.379 . S
H1943 C1937 0.959 . S
H1944 C1937 0.961 . S
H1945 C1937 0.960 . S
H1946 C1938 0.930 . S
H1947 C1939 0.929 1_455 S
H1948 C1956 0.929 1_545 S
H1949 C1958 0.930 . S
H1950 C1960 0.930 . S
H1951 C1963 0.929 1_545 S
H1952 C1966 0.930 . S
H1953 C1968 0.960 . S
H1954 C1968 0.960 . S
H1955 C1968 0.960 . S
C1956 H1948 0.929 1_565 S
C1956 C1957 1.377 1_565 S
C1956 C1958 1.384 . S
C1957 C1956 1.377 1_545 S
C1957 C1963 1.390 1_545 S
C1958 H1949 0.930 . S
C1958 C1956 1.384 . S
C1958 C1959 1.372 . S
C1959 C1958 1.372 . S
C1959 C1960 1.400 . S
C1959 C1964 1.490 . S
C1960 H1950 0.930 . S
C1960 C1959 1.400 . S
C1960 C1963 1.386 . S
H1961 C1977 0.930 . S
H1962 C1978 0.931 . S
C1963 H1951 0.929 1_565 S
C1963 C1957 1.390 1_565 S
C1963 C1960 1.386 . S
C1964 C1959 1.490 . S
C1964 C1966 1.395 . S
C1964 C1967 1.403 . S
H1965 C1971 0.930 . S
C1966 H1952 0.930 . S
C1966 C1964 1.395 . S
C1966 C1969 1.403 . S
C1967 C1964 1.403 . S
C1967 C1968 1.524 . S
C1967 C1971 1.400 . S
C1968 H1953 0.960 . S
C1968 H1954 0.960 . S
C1968 H1955 0.960 . S
C1968 C1967 1.524 . S
C1969 C1966 1.403 . S
C1969 C1970 1.392 . S
C1969 C1973 1.495 . S
C1970 C1969 1.392 . S
C1970 C1971 1.385 . S
C1970 C1972 1.478 . S
C1971 H1965 0.930 . S
C1971 C1967 1.400 . S
C1971 C1970 1.385 . S
C1972 C1970 1.478 . S
C1972 C1974 1.381 . S
C1972 C1978 1.383 . S
C1973 C1969 1.495 . S
C1973 H1979 0.959 . S
C1973 H1980 0.961 . S
C1973 H1981 0.960 . S
C1974 C1972 1.381 . S
C1974 C1975 1.394 . S
C1974 H1982 0.930 . S
C1975 C1974 1.394 . S
C1975 C1976 1.383 . S
C1975 H1983 0.929 . S
C1976 C1975 1.383 . S
C1976 C1977 1.377 . S
C1977 H1961 0.930 . S
C1977 C1976 1.377 . S
C1977 C1978 1.379 . S
C1978 H1962 0.931 . S
C1978 C1972 1.383 . S
C1978 C1977 1.379 . S
H1979 C1973 0.959 . S
H1980 C1973 0.961 . S
H1981 C1973 0.960 . S
H1982 C1974 0.930 . S
H1983 C1975 0.929 . S
C553 C33 1.736 . S
C572 C101 1.738 . S
C589 C135 1.735 . S
C608 C67 1.738 . S
C625 C237 1.737 . S
C644 C169 1.729 . S
C661 C203 1.736 . S
C680 C271 1.727 . S
C697 C373 1.707 . S
C716 C305 1.696 . S
C733 C339 1.706 . S
C752 C407 1.696 . S
C769 C509 1.705 . S
C788 C441 1.703 . S
C805 C475 1.707 . S
C824 C543 1.697 . S
C841 C5 1.526 . S
C860 C342 1.540 . S
C877 C376 1.537 . S
C896 C39 1.528 . S
C913 C274 1.537 . S
C932 C73 1.534 . S
C949 C308 1.537 . S
C968 C107 1.520 . S
C985 C478 1.537 . S
C1004 C141 1.534 . S
C1021 C512 1.535 . S
C1040 C175 1.531 . S
C1057 C410 1.536 . S
C1076 C209 1.534 . S
C1093 C444 1.537 . S
C1112 C243 1.529 . S
C1129 C9 1.328 . S
C1148 C247 1.358 . S
C1165 C43 1.338 . S
C1184 C145 1.301 . S
C1201 C179 1.329 . S
C1220 C77 1.321 . S
C1237 C213 1.327 . S
C1256 C111 1.349 . S
C1273 C292 2.093 . S
C1292 C530 2.095 . S
C1309 C326 2.094 . S
C1328 C428 2.093 . S
C1345 C360 2.092 . S
C1364 C462 2.092 . S
C1381 C394 2.091 . S
C1400 C496 2.082 . S
C1417 C481 0.828 . S
C1436 C20 0.849 . S
C1453 C54 0.823 . S
C1472 C515 0.838 . S
C1489 C413 0.818 . S
C1508 C88 0.811 . S
C1525 C447 0.828 . S
C1544 C122 0.848 . S
C1561 C345 0.821 . S
C1580 C156 0.803 . S
C1597 C190 0.826 . S
C1616 C379 0.847 . S
C1633 C277 0.827 . S
C1652 C224 0.849 . S
C1669 C258 0.820 . S
C1688 C311 0.803 . S
C1705 C206 0.791 . S
C1724 C281 0.804 . S
C1741 C240 0.799 . S
C1760 C315 0.792 . S
C1777 C138 0.786 . S
C1796 C349 0.750 . S
C1813 C383 0.792 . S
C1832 C172 0.819 . S
C1849 C70 0.798 . S
C1868 C417 0.786 . S
C1885 C451 0.793 . S
C1904 C104 0.821 . S
C1921 C485 0.787 . S
C1940 C2 0.804 . S
C1957 C36 0.802 . S
C1976 C519 0.828 . S
