# Generated by pormake.
# Topology som, (6)-cn, num edge types: 1
# Building blocks:
#     Node 0, Type 0, BuildingBlock: GEDQOX_clean_sbu_0, # of connection points: 6
#     Node 1, Type 0, BuildingBlock: GEDQOX_clean_sbu_0, # of connection points: 6
#     Node 2, Type 0, BuildingBlock: GEDQOX_clean_sbu_0, # of connection points: 6
#     Node 3, Type 0, BuildingBlock: GEDQOX_clean_sbu_0, # of connection points: 6
#     Node 4, Type 0, BuildingBlock: GEDQOX_clean_sbu_0, # of connection points: 6
#     Node 5, Type 0, BuildingBlock: GEDQOX_clean_sbu_0, # of connection points: 6
#     Node 6, Type 0, BuildingBlock: GEDQOX_clean_sbu_0, # of connection points: 6
#     Node 7, Type 0, BuildingBlock: GEDQOX_clean_sbu_0, # of connection points: 6
#     Node 8, Type 0, BuildingBlock: GEDQOX_clean_sbu_0, # of connection points: 6
#     Node 9, Type 0, BuildingBlock: GEDQOX_clean_sbu_0, # of connection points: 6
#     Node 10, Type 0, BuildingBlock: GEDQOX_clean_sbu_0, # of connection points: 6
#     Node 11, Type 0, BuildingBlock: GEDQOX_clean_sbu_0, # of connection points: 6
#     Node 12, Type 0, BuildingBlock: GEDQOX_clean_sbu_0, # of connection points: 6
#     Node 13, Type 0, BuildingBlock: GEDQOX_clean_sbu_0, # of connection points: 6
#     Node 14, Type 0, BuildingBlock: GEDQOX_clean_sbu_0, # of connection points: 6
#     Node 15, Type 0, BuildingBlock: GEDQOX_clean_sbu_0, # of connection points: 6
#     Node 16, Type 0, BuildingBlock: GEDQOX_clean_sbu_0, # of connection points: 6
#     Node 17, Type 0, BuildingBlock: GEDQOX_clean_sbu_0, # of connection points: 6
#     Node 18, Type 0, BuildingBlock: GEDQOX_clean_sbu_0, # of connection points: 6
#     Node 19, Type 0, BuildingBlock: GEDQOX_clean_sbu_0, # of connection points: 6
#     Node 20, Type 0, BuildingBlock: GEDQOX_clean_sbu_0, # of connection points: 6
#     Node 21, Type 0, BuildingBlock: GEDQOX_clean_sbu_0, # of connection points: 6
#     Node 22, Type 0, BuildingBlock: GEDQOX_clean_sbu_0, # of connection points: 6
#     Node 23, Type 0, BuildingBlock: GEDQOX_clean_sbu_0, # of connection points: 6
#     Node 24, Type 0, BuildingBlock: GEDQOX_clean_sbu_0, # of connection points: 6
#     Node 25, Type 0, BuildingBlock: GEDQOX_clean_sbu_0, # of connection points: 6
#     Node 26, Type 0, BuildingBlock: GEDQOX_clean_sbu_0, # of connection points: 6
#     Node 27, Type 0, BuildingBlock: GEDQOX_clean_sbu_0, # of connection points: 6
#     Node 28, Type 0, BuildingBlock: GEDQOX_clean_sbu_0, # of connection points: 6
#     Node 29, Type 0, BuildingBlock: GEDQOX_clean_sbu_0, # of connection points: 6
#     Node 30, Type 0, BuildingBlock: GEDQOX_clean_sbu_0, # of connection points: 6
#     Node 31, Type 0, BuildingBlock: GEDQOX_clean_sbu_0, # of connection points: 6
#     Edge 32, Type (0, 0), BuildingBlock: UVAHIK_clean_linker_0, # of connection points: 2
#     Edge 33, Type (0, 0), BuildingBlock: UVAHIK_clean_linker_0, # of connection points: 2
#     Edge 34, Type (0, 0), BuildingBlock: UVAHIK_clean_linker_0, # of connection points: 2
#     Edge 35, Type (0, 0), BuildingBlock: UVAHIK_clean_linker_0, # of connection points: 2
#     Edge 36, Type (0, 0), BuildingBlock: UVAHIK_clean_linker_0, # of connection points: 2
#     Edge 37, Type (0, 0), BuildingBlock: UVAHIK_clean_linker_0, # of connection points: 2
#     Edge 38, Type (0, 0), BuildingBlock: UVAHIK_clean_linker_0, # of connection points: 2
#     Edge 39, Type (0, 0), BuildingBlock: UVAHIK_clean_linker_0, # of connection points: 2
#     Edge 40, Type (0, 0), BuildingBlock: UVAHIK_clean_linker_0, # of connection points: 2
#     Edge 41, Type (0, 0), BuildingBlock: UVAHIK_clean_linker_0, # of connection points: 2
#     Edge 42, Type (0, 0), BuildingBlock: UVAHIK_clean_linker_0, # of connection points: 2
#     Edge 43, Type (0, 0), BuildingBlock: UVAHIK_clean_linker_0, # of connection points: 2
#     Edge 44, Type (0, 0), BuildingBlock: UVAHIK_clean_linker_0, # of connection points: 2
#     Edge 45, Type (0, 0), BuildingBlock: UVAHIK_clean_linker_0, # of connection points: 2
#     Edge 46, Type (0, 0), BuildingBlock: UVAHIK_clean_linker_0, # of connection points: 2
#     Edge 47, Type (0, 0), BuildingBlock: UVAHIK_clean_linker_0, # of connection points: 2
#     Edge 48, Type (0, 0), BuildingBlock: UVAHIK_clean_linker_0, # of connection points: 2
#     Edge 49, Type (0, 0), BuildingBlock: UVAHIK_clean_linker_0, # of connection points: 2
#     Edge 50, Type (0, 0), BuildingBlock: UVAHIK_clean_linker_0, # of connection points: 2
#     Edge 51, Type (0, 0), BuildingBlock: UVAHIK_clean_linker_0, # of connection points: 2
#     Edge 52, Type (0, 0), BuildingBlock: UVAHIK_clean_linker_0, # of connection points: 2
#     Edge 53, Type (0, 0), BuildingBlock: UVAHIK_clean_linker_0, # of connection points: 2
#     Edge 54, Type (0, 0), BuildingBlock: UVAHIK_clean_linker_0, # of connection points: 2
#     Edge 55, Type (0, 0), BuildingBlock: UVAHIK_clean_linker_0, # of connection points: 2
#     Edge 56, Type (0, 0), BuildingBlock: UVAHIK_clean_linker_0, # of connection points: 2
#     Edge 57, Type (0, 0), BuildingBlock: UVAHIK_clean_linker_0, # of connection points: 2
#     Edge 58, Type (0, 0), BuildingBlock: UVAHIK_clean_linker_0, # of connection points: 2
#     Edge 59, Type (0, 0), BuildingBlock: UVAHIK_clean_linker_0, # of connection points: 2
#     Edge 60, Type (0, 0), BuildingBlock: UVAHIK_clean_linker_0, # of connection points: 2
#     Edge 61, Type (0, 0), BuildingBlock: UVAHIK_clean_linker_0, # of connection points: 2
#     Edge 62, Type (0, 0), BuildingBlock: UVAHIK_clean_linker_0, # of connection points: 2
#     Edge 63, Type (0, 0), BuildingBlock: UVAHIK_clean_linker_0, # of connection points: 2
#     Edge 64, Type (0, 0), BuildingBlock: UVAHIK_clean_linker_0, # of connection points: 2
#     Edge 65, Type (0, 0), BuildingBlock: UVAHIK_clean_linker_0, # of connection points: 2
#     Edge 66, Type (0, 0), BuildingBlock: UVAHIK_clean_linker_0, # of connection points: 2
#     Edge 67, Type (0, 0), BuildingBlock: UVAHIK_clean_linker_0, # of connection points: 2
#     Edge 68, Type (0, 0), BuildingBlock: UVAHIK_clean_linker_0, # of connection points: 2
#     Edge 69, Type (0, 0), BuildingBlock: UVAHIK_clean_linker_0, # of connection points: 2
#     Edge 70, Type (0, 0), BuildingBlock: UVAHIK_clean_linker_0, # of connection points: 2
#     Edge 71, Type (0, 0), BuildingBlock: UVAHIK_clean_linker_0, # of connection points: 2
#     Edge 72, Type (0, 0), BuildingBlock: UVAHIK_clean_linker_0, # of connection points: 2
#     Edge 73, Type (0, 0), BuildingBlock: UVAHIK_clean_linker_0, # of connection points: 2
#     Edge 74, Type (0, 0), BuildingBlock: UVAHIK_clean_linker_0, # of connection points: 2
#     Edge 75, Type (0, 0), BuildingBlock: UVAHIK_clean_linker_0, # of connection points: 2
#     Edge 76, Type (0, 0), BuildingBlock: UVAHIK_clean_linker_0, # of connection points: 2
#     Edge 77, Type (0, 0), BuildingBlock: UVAHIK_clean_linker_0, # of connection points: 2
#     Edge 78, Type (0, 0), BuildingBlock: UVAHIK_clean_linker_0, # of connection points: 2
#     Edge 79, Type (0, 0), BuildingBlock: UVAHIK_clean_linker_0, # of connection points: 2
#     Edge 80, Type (0, 0), BuildingBlock: UVAHIK_clean_linker_0, # of connection points: 2
#     Edge 81, Type (0, 0), BuildingBlock: UVAHIK_clean_linker_0, # of connection points: 2
#     Edge 82, Type (0, 0), BuildingBlock: UVAHIK_clean_linker_0, # of connection points: 2
#     Edge 83, Type (0, 0), BuildingBlock: UVAHIK_clean_linker_0, # of connection points: 2
#     Edge 84, Type (0, 0), BuildingBlock: UVAHIK_clean_linker_0, # of connection points: 2
#     Edge 85, Type (0, 0), BuildingBlock: UVAHIK_clean_linker_0, # of connection points: 2
#     Edge 86, Type (0, 0), BuildingBlock: UVAHIK_clean_linker_0, # of connection points: 2
#     Edge 87, Type (0, 0), BuildingBlock: UVAHIK_clean_linker_0, # of connection points: 2
#     Edge 88, Type (0, 0), BuildingBlock: UVAHIK_clean_linker_0, # of connection points: 2
#     Edge 89, Type (0, 0), BuildingBlock: UVAHIK_clean_linker_0, # of connection points: 2
#     Edge 90, Type (0, 0), BuildingBlock: UVAHIK_clean_linker_0, # of connection points: 2
#     Edge 91, Type (0, 0), BuildingBlock: UVAHIK_clean_linker_0, # of connection points: 2
#     Edge 92, Type (0, 0), BuildingBlock: UVAHIK_clean_linker_0, # of connection points: 2
#     Edge 93, Type (0, 0), BuildingBlock: UVAHIK_clean_linker_0, # of connection points: 2
#     Edge 94, Type (0, 0), BuildingBlock: UVAHIK_clean_linker_0, # of connection points: 2
#     Edge 95, Type (0, 0), BuildingBlock: UVAHIK_clean_linker_0, # of connection points: 2
#     Edge 96, Type (0, 0), BuildingBlock: UVAHIK_clean_linker_0, # of connection points: 2
#     Edge 97, Type (0, 0), BuildingBlock: UVAHIK_clean_linker_0, # of connection points: 2
#     Edge 98, Type (0, 0), BuildingBlock: UVAHIK_clean_linker_0, # of connection points: 2
#     Edge 99, Type (0, 0), BuildingBlock: UVAHIK_clean_linker_0, # of connection points: 2
#     Edge 100, Type (0, 0), BuildingBlock: UVAHIK_clean_linker_0, # of connection points: 2
#     Edge 101, Type (0, 0), BuildingBlock: UVAHIK_clean_linker_0, # of connection points: 2
#     Edge 102, Type (0, 0), BuildingBlock: UVAHIK_clean_linker_0, # of connection points: 2
#     Edge 103, Type (0, 0), BuildingBlock: UVAHIK_clean_linker_0, # of connection points: 2
#     Edge 104, Type (0, 0), BuildingBlock: UVAHIK_clean_linker_0, # of connection points: 2
#     Edge 105, Type (0, 0), BuildingBlock: UVAHIK_clean_linker_0, # of connection points: 2
#     Edge 106, Type (0, 0), BuildingBlock: UVAHIK_clean_linker_0, # of connection points: 2
#     Edge 107, Type (0, 0), BuildingBlock: UVAHIK_clean_linker_0, # of connection points: 2
#     Edge 108, Type (0, 0), BuildingBlock: UVAHIK_clean_linker_0, # of connection points: 2
#     Edge 109, Type (0, 0), BuildingBlock: UVAHIK_clean_linker_0, # of connection points: 2
#     Edge 110, Type (0, 0), BuildingBlock: UVAHIK_clean_linker_0, # of connection points: 2
#     Edge 111, Type (0, 0), BuildingBlock: UVAHIK_clean_linker_0, # of connection points: 2
#     Edge 112, Type (0, 0), BuildingBlock: UVAHIK_clean_linker_0, # of connection points: 2
#     Edge 113, Type (0, 0), BuildingBlock: UVAHIK_clean_linker_0, # of connection points: 2
#     Edge 114, Type (0, 0), BuildingBlock: UVAHIK_clean_linker_0, # of connection points: 2
#     Edge 115, Type (0, 0), BuildingBlock: UVAHIK_clean_linker_0, # of connection points: 2
#     Edge 116, Type (0, 0), BuildingBlock: UVAHIK_clean_linker_0, # of connection points: 2
#     Edge 117, Type (0, 0), BuildingBlock: UVAHIK_clean_linker_0, # of connection points: 2
#     Edge 118, Type (0, 0), BuildingBlock: UVAHIK_clean_linker_0, # of connection points: 2
#     Edge 119, Type (0, 0), BuildingBlock: UVAHIK_clean_linker_0, # of connection points: 2
#     Edge 120, Type (0, 0), BuildingBlock: UVAHIK_clean_linker_0, # of connection points: 2
#     Edge 121, Type (0, 0), BuildingBlock: UVAHIK_clean_linker_0, # of connection points: 2
#     Edge 122, Type (0, 0), BuildingBlock: UVAHIK_clean_linker_0, # of connection points: 2
#     Edge 123, Type (0, 0), BuildingBlock: UVAHIK_clean_linker_0, # of connection points: 2
#     Edge 124, Type (0, 0), BuildingBlock: UVAHIK_clean_linker_0, # of connection points: 2
#     Edge 125, Type (0, 0), BuildingBlock: UVAHIK_clean_linker_0, # of connection points: 2
#     Edge 126, Type (0, 0), BuildingBlock: UVAHIK_clean_linker_0, # of connection points: 2
#     Edge 127, Type (0, 0), BuildingBlock: UVAHIK_clean_linker_0, # of connection points: 2
# Relax obj value: 0.180
# Max RMSD: 0.198
# Mean RMSD: 0.198
data_MOF--net-som--node1-GEDQOX_clean_sbu_0--edge1-UVAHIK_clean_linker_0
_symmetry_space_group_name_H-M    P1
_symmetry_Int_Tables_number       1
_symmetry_cell_setting            triclinic
loop_
_symmetry_equiv_pos_as_xyz
'x, y, z'
_cell_length_a     20.162339
_cell_length_b     121.37076
_cell_length_c     152.28411
_cell_angle_alpha  89.985313
_cell_angle_beta   89.938843
_cell_angle_gamma 90.090821
loop_
_atom_site_label
_atom_site_type_symbol
_atom_site_fract_x
_atom_site_fract_y
_atom_site_fract_z
_atom_type_partial_charge
Nd0 Nd 0.07964 0.49794 0.06181 0.0
Nd1 Nd 0.06895 0.5219 0.06561 0.0
C2 C 0.07216 0.47721 0.05622 0.0
C3 C 0.0393 0.46634 0.05721 0.0
C4 C 1.01763 0.46076 0.04966 0.0
C5 C 0.99514 0.44986 0.05017 0.0
C6 C 0.99396 0.44422 0.05826 0.0
C7 C 1.0131 0.44998 0.06588 0.0
C8 C 1.03566 0.46091 0.06536 0.0
C9 C 0.10122 0.50325 0.0792 0.0
C10 C 0.93315 0.50842 0.06617 0.0
C11 C 0.07529 0.54247 0.07155 0.0
C12 C 0.09944 0.55386 0.07018 0.0
C13 C 0.11876 0.56005 0.07752 0.0
C14 C 0.13211 0.57132 0.07674 0.0
C15 C 0.12642 0.57669 0.06858 0.0
C16 C 0.11008 0.57035 0.06114 0.0
C17 C 0.09647 0.55905 0.06193 0.0
C18 C 0.05211 0.51687 0.04803 0.0
C19 C 0.21576 0.51128 0.06146 0.0
O20 O 0.03912 0.48529 0.05259 0.0
O21 O 0.11128 0.48052 0.06252 0.0
O22 O 0.13493 0.49599 0.07488 0.0
O23 O 0.05554 0.50722 0.07451 0.0
O24 O 0.96604 0.50077 0.06181 0.0
O25 O 0.96514 0.51659 0.06997 0.0
O26 O 0.11755 0.53484 0.07385 0.0
O27 O 1.0291 0.53883 0.06629 0.0
O28 O 1.01943 0.52441 0.05217 0.0
O29 O 0.09521 0.51264 0.05299 0.0
O30 O 0.18261 0.51894 0.0658 0.0
O31 O 0.18397 0.50312 0.05758 0.0
H32 H 1.02011 0.46473 0.0433 0.0
H33 H 0.97967 0.44578 0.04419 0.0
H34 H 1.0133 0.44591 0.0722 0.0
H35 H 0.05226 0.46497 0.0713 0.0
H36 H 0.12121 0.55624 0.08395 0.0
H37 H 0.14568 0.57589 0.08258 0.0
H38 H 0.10495 0.57422 0.05477 0.0
H39 H 0.08142 0.55447 0.05616 0.0
Nd40 Nd 0.24383 0.77411 0.06194 0.0
Nd41 Nd 0.25473 0.75015 0.06563 0.0
C42 C 0.25032 0.79488 0.05642 0.0
C43 C 0.28345 0.80573 0.05733 0.0
C44 C 0.29386 0.81214 0.04979 0.0
C45 C 0.31744 0.82296 0.05046 0.0
C46 C 0.33121 0.82767 0.05871 0.0
C47 C 0.32257 0.82109 0.06626 0.0
C48 C 0.29893 0.81024 0.06558 0.0
C49 C 0.22213 0.76866 0.0793 0.0
C50 C 0.39042 0.76367 0.06621 0.0
C51 C 0.24944 0.72953 0.0715 0.0
C52 C 0.22472 0.71818 0.07019 0.0
C53 C 0.21444 0.71152 0.07758 0.0
C54 C 0.19933 0.70033 0.07665 0.0
C55 C 0.19397 0.69551 0.06826 0.0
C56 C 0.20235 0.70232 0.06084 0.0
C57 C 0.21769 0.71355 0.06179 0.0
C58 C 0.27144 0.75535 0.04805 0.0
C59 C 0.10779 0.76072 0.06155 0.0
O60 O 0.28257 0.78684 0.05263 0.0
O61 O 0.21292 0.79155 0.0629 0.0
O62 O 0.18812 0.77589 0.07501 0.0
O63 O 0.268 0.76475 0.07459 0.0
O64 O 0.35752 0.77135 0.0619 0.0
O65 O 0.35846 0.75545 0.06998 0.0
O66 O 0.20781 0.73717 0.07401 0.0
O67 O 0.2942 0.73318 0.06602 0.0
O68 O 0.3045 0.74782 0.05215 0.0
O69 O 0.22828 0.75948 0.05305 0.0
O70 O 0.14096 0.75301 0.06582 0.0
O71 O 0.13952 0.76894 0.05773 0.0
H72 H 0.28165 0.80888 0.04337 0.0
H73 H 0.3225 0.82776 0.0445 0.0
H74 H 0.33355 0.82436 0.07272 0.0
H75 H 0.29134 0.80547 0.07152 0.0
H76 H 0.22036 0.71489 0.08412 0.0
H77 H 0.19433 0.69538 0.08252 0.0
H78 H 0.19767 0.69897 0.05428 0.0
H79 H 0.22555 0.71853 0.05598 0.0
Nd80 Nd 0.07813 0.77401 0.1895 0.0
Nd81 Nd 0.06697 0.75 0.18591 0.0
C82 C 0.07182 0.7948 0.19498 0.0
C83 C 0.03881 0.80564 0.19407 0.0
C84 C 1.02861 0.81204 0.20162 0.0
C85 C 1.0051 0.82286 0.20096 0.0
C86 C 0.99118 0.82757 0.19271 0.0
C87 C 0.99964 0.821 0.18516 0.0
C88 C 1.02323 0.81015 0.18583 0.0
C89 C 0.09879 0.76846 0.17213 0.0
C90 C 0.93139 0.76349 0.18533 0.0
C91 C 0.07191 0.72936 0.1801 0.0
C92 C 0.09679 0.71802 0.1814 0.0
C93 C 0.10758 0.71141 0.17399 0.0
C94 C 0.12276 0.70022 0.17491 0.0
C95 C 0.12769 0.69536 0.18328 0.0
C96 C 0.11882 0.70213 0.19072 0.0
C97 C 0.10342 0.71334 0.18979 0.0
C98 C 0.05058 0.7553 0.20347 0.0
C99 C 0.21407 0.76065 0.18989 0.0
O100 O 0.03955 0.78675 0.19878 0.0
O101 O 0.1091 0.79146 0.18849 0.0
O102 O 0.13283 0.77579 0.17634 0.0
O103 O 0.05335 0.76456 0.17692 0.0
O104 O 0.96444 0.77121 0.1896 0.0
O105 O 0.96319 0.75526 0.18159 0.0
O106 O 0.11323 0.73701 0.1775 0.0
O107 O 1.02762 0.73299 0.18564 0.0
O108 O 1.01744 0.74773 0.19941 0.0
O109 O 0.0937 0.75942 0.19843 0.0
O110 O 0.18075 0.75288 0.18568 0.0
O111 O 0.18253 0.7689 0.19366 0.0
H112 H 0.04091 0.80879 0.20804 0.0
H113 H 1.00019 0.82766 0.20692 0.0
H114 H 0.98854 0.82427 0.17871 0.0
H115 H 1.03065 0.80539 0.17989 0.0
H116 H 0.10198 0.71481 0.16746 0.0
H117 H 0.12815 0.69531 0.16902 0.0
H118 H 0.12317 0.69874 0.19727 0.0
H119 H 0.09518 0.71828 0.19561 0.0
Nd120 Nd 0.24404 0.49781 0.1895 0.0
Nd121 Nd 0.25501 0.52181 0.1858 0.0
C122 C 0.25143 0.47704 0.19502 0.0
C123 C 0.28396 0.46616 0.19397 0.0
C124 C 0.3067 0.46061 0.20146 0.0
C125 C 0.32898 0.4497 0.20092 0.0
C126 C 0.32889 0.44404 0.19285 0.0
C127 C 0.30865 0.44978 0.18527 0.0
C128 C 0.28628 0.46071 0.18582 0.0
C129 C 0.22367 0.50323 0.17209 0.0
C130 C 0.39071 0.50837 0.18527 0.0
C131 C 0.24907 0.54241 0.17993 0.0
C132 C 0.22466 0.55378 0.18127 0.0
C133 C 0.20591 0.55997 0.17391 0.0
C134 C 0.19235 0.57123 0.17468 0.0
C135 C 0.19724 0.57658 0.18285 0.0
C136 C 0.21301 0.57025 0.19031 0.0
C137 C 0.22683 0.55895 0.18953 0.0
C138 C 0.27149 0.51667 0.20336 0.0
C139 C 0.10805 0.51112 0.18986 0.0
O140 O 0.28489 0.4851 0.19863 0.0
O141 O 0.21193 0.48039 0.18878 0.0
O142 O 0.18986 0.49589 0.17632 0.0
O143 O 0.26889 0.50719 0.17688 0.0
O144 O 0.35766 0.5007 0.18961 0.0
O145 O 0.35886 0.51654 0.18146 0.0
O146 O 0.20718 0.53476 0.17751 0.0
O147 O 0.29468 0.53878 0.18527 0.0
O148 O 0.30433 0.52424 0.19925 0.0
O149 O 0.22841 0.51245 0.19838 0.0
O150 O 0.14135 0.51881 0.18555 0.0
O151 O 0.13969 0.50294 0.19372 0.0
H152 H 0.30524 0.46459 0.20783 0.0
H153 H 0.34531 0.44565 0.20687 0.0
H154 H 0.30745 0.44569 0.17895 0.0
H155 H 0.26884 0.46475 0.17992 0.0
H156 H 0.20408 0.55618 0.16747 0.0
H157 H 0.17924 0.57581 0.16883 0.0
H158 H 0.21753 0.5741 0.1967 0.0
H159 H 0.24143 0.55437 0.19531 0.0
Nd160 Nd 1.0041 0.50082 0.93577 0.0
Nd161 Nd 0.99305 0.52483 0.93949 0.0
C162 C 0.99878 0.48024 0.92983 0.0
C163 C 0.97409 0.46889 0.93115 0.0
C164 C 0.96446 0.46218 0.92377 0.0
C165 C 0.94929 0.451 0.92472 0.0
C166 C 0.94319 0.44622 0.93311 0.0
C167 C 0.95094 0.45307 0.94053 0.0
C168 C 0.96635 0.46429 0.93955 0.0
C169 C 1.02087 0.50594 0.95335 0.0
C170 C 0.85711 0.51139 0.93992 0.0
C171 C 0.99912 0.54561 0.94498 0.0
C172 C 1.03243 0.55645 0.94414 0.0
C173 C 0.04104 0.56291 0.95168 0.0
C174 C 0.06469 0.57374 0.95105 0.0
C175 C 0.08037 0.57838 0.94283 0.0
C176 C 0.07353 0.57175 0.93528 0.0
C177 C 0.0498 0.5609 0.93593 0.0
C178 C 0.97117 0.51931 0.92216 0.0
C179 C 0.13975 0.51439 0.93519 0.0
O180 O 0.95703 0.48788 0.92738 0.0
O181 O 0.04371 0.48386 0.93528 0.0
O182 O 0.05355 0.49837 0.94923 0.0
O183 O 0.97791 0.51016 0.94836 0.0
O184 O 0.89031 0.50367 0.93565 0.0
O185 O 0.88878 0.51963 0.94372 0.0
O186 O 1.03074 0.53756 0.94885 0.0
O187 O 0.96265 0.54228 0.93842 0.0
O188 O 0.93701 0.52653 0.92646 0.0
O189 O 1.01732 0.51546 0.92685 0.0
O190 O 0.10676 0.52209 0.93949 0.0
O191 O 0.1079 0.50616 0.93144 0.0
H192 H 0.97093 0.46553 0.91722 0.0
H193 H 0.9448 0.44602 0.91885 0.0
H194 H 0.94569 0.44974 0.94709 0.0
H195 H 0.9737 0.4693 0.94536 0.0
H196 H 1.02734 0.55971 0.95807 0.0
H197 H 0.06832 0.57859 0.95699 0.0
H198 H 0.08601 0.57497 0.92885 0.0
H199 H 0.04362 0.55609 0.92999 0.0
Nd200 Nd 0.81884 0.27257 0.93582 0.0
Nd201 Nd 0.8296 0.24856 0.93953 0.0
C202 C 0.82503 0.29317 0.92993 0.0
C203 C 0.84897 0.30457 0.93132 0.0
C204 C 0.86901 0.31076 0.924 0.0
C205 C 0.88222 0.32203 0.92479 0.0
C206 C 0.87567 0.3274 0.93294 0.0
C207 C 0.8586 0.32107 0.94036 0.0
C208 C 0.84513 0.30976 0.93956 0.0
C209 C 0.8022 0.26744 0.9534 0.0
C210 C 0.96568 0.26193 0.93989 0.0
C211 C 0.82327 0.22778 0.94504 0.0
C212 C 0.78976 0.21696 0.94423 0.0
C213 C 0.78232 0.21042 0.95175 0.0
C214 C 0.75844 0.19961 0.95112 0.0
C215 C 0.74135 0.19506 0.94293 0.0
C216 C 0.74702 0.20177 0.9354 0.0
C217 C 0.771 0.21261 0.93605 0.0
C218 C 0.85159 0.25408 0.9222 0.0
C219 C 0.68307 0.25904 0.93525 0.0
O220 O 0.86746 0.28557 0.92761 0.0
O221 O 0.77873 0.28949 0.93516 0.0
O222 O 0.76969 0.27505 0.94931 0.0
O223 O 0.84499 0.26321 0.94839 0.0
O224 O 0.93253 0.26962 0.93559 0.0
O225 O 0.93392 0.25373 0.94373 0.0
O226 O 0.79188 0.23585 0.94893 0.0
O227 O 0.85962 0.23109 0.93845 0.0
O228 O 0.88562 0.24684 0.92649 0.0
O229 O 0.80548 0.25794 0.92689 0.0
O230 O 0.71594 0.25135 0.93957 0.0
O231 O 0.71508 0.26725 0.93147 0.0
H232 H 0.87214 0.30694 0.91758 0.0
H233 H 0.89637 0.3266 0.91897 0.0
H234 H 0.85279 0.32494 0.94672 0.0
H235 H 0.82951 0.30519 0.94531 0.0
H236 H 0.79709 0.21355 0.95812 0.0
H237 H 0.75574 0.19469 0.95705 0.0
H238 H 0.73346 0.19863 0.929 0.0
H239 H 0.77627 0.21749 0.93013 0.0
Nd240 Nd 1.00664 0.27237 0.81559 0.0
Nd241 Nd 0.99552 0.24831 0.81202 0.0
C242 C 1.00165 0.29299 0.82144 0.0
C243 C 0.97663 0.30433 0.82017 0.0
C244 C 0.9669 0.31098 0.82758 0.0
C245 C 0.95151 0.32216 0.82667 0.0
C246 C 0.94529 0.32698 0.8183 0.0
C247 C 0.95312 0.32018 0.81086 0.0
C248 C 0.96874 0.30897 0.81179 0.0
C249 C 1.02307 0.2671 0.79804 0.0
C250 C 0.85958 0.2617 0.81157 0.0
C251 C 1.00148 0.22749 0.8066 0.0
C252 C 1.03467 0.21665 0.80741 0.0
C253 C 0.043 0.21019 0.79986 0.0
C254 C 0.06657 0.19937 0.80046 0.0
C255 C 0.08246 0.19471 0.80866 0.0
C256 C 0.07588 0.20134 0.81622 0.0
C257 C 0.05221 0.21219 0.8156 0.0
C258 C 0.97457 0.25398 0.82936 0.0
C259 C 0.14228 0.25886 0.81616 0.0
O260 O 0.96046 0.28532 0.82405 0.0
O261 O 0.04582 0.28938 0.81587 0.0
O262 O 0.05589 0.27472 0.8021 0.0
O263 O 0.98019 0.2629 0.80307 0.0
O264 O 0.89285 0.26949 0.81576 0.0
O265 O 0.89111 0.25341 0.80785 0.0
O266 O 1.03292 0.23554 0.80267 0.0
O267 O 0.96534 0.23084 0.81319 0.0
O268 O 0.94035 0.24667 0.82516 0.0
O269 O 1.02032 0.2578 0.82457 0.0
O270 O 0.10921 0.25111 0.81192 0.0
O271 O 0.11053 0.26711 0.81988 0.0
H272 H 0.97347 0.30761 0.83411 0.0
H273 H 0.94696 0.3271 0.83256 0.0
H274 H 0.94778 0.32354 0.80431 0.0
H275 H 0.97616 0.304 0.80596 0.0
H276 H 1.02917 0.21341 0.79348 0.0
H277 H 0.06997 0.19454 0.79451 0.0
H278 H 0.08852 0.19811 0.82263 0.0
H279 H 0.04624 0.21699 0.82155 0.0
Nd280 Nd 0.81693 0.50051 0.81562 0.0
Nd281 Nd 0.82787 0.52454 0.81194 0.0
C282 C 0.82298 0.47992 0.82152 0.0
C283 C 0.8473 0.46855 0.82016 0.0
C284 C 0.86708 0.4624 0.8275 0.0
C285 C 0.88062 0.45114 0.82674 0.0
C286 C 0.87467 0.44574 0.8186 0.0
C287 C 0.85783 0.45203 0.81115 0.0
C288 C 0.84404 0.46333 0.81193 0.0
C289 C 0.80063 0.50564 0.79804 0.0
C290 C 0.96384 0.51122 0.81155 0.0
C291 C 0.82063 0.54531 0.80644 0.0
C292 C 0.78791 0.55618 0.80746 0.0
C293 C 0.76529 0.56171 0.79995 0.0
C294 C 0.74291 0.57261 0.80047 0.0
C295 C 0.7428 0.57829 0.80853 0.0
C296 C 0.76291 0.57258 0.81612 0.0
C297 C 0.78536 0.56166 0.8156 0.0
C298 C 0.84845 0.51904 0.82931 0.0
C299 C 0.68118 0.51396 0.81615 0.0
O300 O 0.86501 0.48757 0.8239 0.0
O301 O 0.77713 0.48355 0.81621 0.0
O302 O 0.76805 0.49802 0.80213 0.0
O303 O 0.84336 0.5099 0.80305 0.0
O304 O 0.93059 0.50351 0.81584 0.0
O305 O 0.9322 0.51942 0.80772 0.0
O306 O 0.78757 0.53726 0.80277 0.0
O307 O 0.85966 0.54196 0.81274 0.0
O308 O 0.88233 0.52638 0.82509 0.0
O309 O 0.80298 0.51512 0.82454 0.0
O310 O 0.71425 0.52167 0.81185 0.0
O311 O 0.71296 0.50576 0.81992 0.0
H312 H 0.86975 0.46623 0.83392 0.0
H313 H 0.89457 0.4466 0.83257 0.0
H314 H 0.85247 0.44814 0.80479 0.0
H315 H 0.82864 0.46787 0.80616 0.0
H316 H 0.76693 0.5577 0.79359 0.0
H317 H 0.72667 0.57664 0.7945 0.0
H318 H 0.76396 0.57669 0.82243 0.0
H319 H 0.80271 0.55764 0.82152 0.0
Nd320 Nd 0.0734 0.9981 0.56183 0.0
Nd321 Nd 0.06266 0.02207 0.56553 0.0
C322 C 0.06645 0.97733 0.55631 0.0
C323 C 1.03403 0.96642 0.55732 0.0
C324 C 1.01294 0.96078 0.54977 0.0
C325 C 0.99091 0.94985 0.5503 0.0
C326 C 0.98963 0.94425 0.5584 0.0
C327 C 1.00818 0.95007 0.56602 0.0
C328 C 1.0303 0.96102 0.56548 0.0
C329 C 0.09356 1.00351 0.57923 0.0
C330 C 0.92675 1.0086 0.566 0.0
C331 C 0.06804 0.04266 0.57145 0.0
C332 C 0.09358 0.05397 0.57021 0.0
C333 C 0.10163 0.06069 0.57762 0.0
C334 C 0.11759 0.07185 0.5767 0.0
C335 C 0.1261 0.07658 0.56833 0.0
C336 C 0.11997 0.06971 0.5609 0.0
C337 C 0.10376 0.05852 0.56183 0.0
C338 C 0.04652 0.01692 0.54794 0.0
C339 C 0.20956 0.01145 0.56147 0.0
O340 O 1.03317 0.98536 0.55266 0.0
O341 O 0.10541 0.98071 0.56261 0.0
O342 O 0.12775 0.99625 0.57499 0.0
O343 O 0.04833 1.00745 0.57444 0.0
O344 O 0.95979 1.00093 0.56168 0.0
O345 O 0.95862 0.01679 0.56981 0.0
O346 O 0.10888 0.03496 0.57405 0.0
O347 O 1.024 0.0391 0.56585 0.0
O348 O 1.01342 0.02445 0.55204 0.0
O349 O 0.08945 0.01275 0.55295 0.0
O350 O 0.17635 0.01915 0.56576 0.0
O351 O 0.17782 1.00327 0.55762 0.0
H352 H 1.01551 0.96472 0.5434 0.0
H353 H 0.97587 0.94572 0.54432 0.0
H354 H 1.00827 0.94603 0.57236 0.0
H355 H 0.04646 0.96514 0.57142 0.0
H356 H 0.0933 0.05738 0.58414 0.0
H357 H 0.12078 0.07685 0.58257 0.0
H358 H 0.12709 0.073 0.55436 0.0
H359 H 0.09769 0.05349 0.55601 0.0
Nd360 Nd 0.24373 0.27408 0.56187 0.0
Nd361 Nd 0.25429 0.25016 0.56562 0.0
C362 C 0.25139 0.29483 0.5563 0.0
C363 C 0.2843 0.3057 0.55731 0.0
C364 C 0.3072 0.31121 0.54979 0.0
C365 C 0.32977 0.32211 0.55029 0.0
C366 C 0.3298 0.32781 0.55835 0.0
C367 C 0.30942 0.32211 0.56595 0.0
C368 C 0.28678 0.31119 0.56544 0.0
C369 C 0.22208 0.26876 0.57926 0.0
C370 C 0.39015 0.2636 0.56618 0.0
C371 C 0.2478 0.22956 0.5715 0.0
C372 C 0.22376 0.21817 0.57009 0.0
C373 C 0.20224 0.21206 0.57737 0.0
C374 C 0.18885 0.20078 0.57659 0.0
C375 C 0.19673 0.19535 0.5685 0.0
C376 C 0.21533 0.20161 0.5611 0.0
C377 C 0.22895 0.21291 0.56189 0.0
C378 C 0.27099 0.25525 0.54801 0.0
C379 C 0.10755 0.26079 0.56153 0.0
O380 O 0.28445 0.28676 0.55267 0.0
O381 O 0.21213 0.2915 0.5626 0.0
O382 O 0.18832 0.27601 0.57494 0.0
O383 O 0.2678 0.26479 0.57456 0.0
O384 O 0.35733 0.27125 0.56182 0.0
O385 O 0.35807 0.25543 0.56999 0.0
O386 O 0.2054 0.23718 0.5738 0.0
O387 O 0.29426 0.23324 0.56628 0.0
O388 O 0.30382 0.24771 0.55213 0.0
O389 O 0.22796 0.25943 0.55301 0.0
O390 O 0.14066 0.25313 0.56587 0.0
O391 O 0.13941 0.26894 0.55764 0.0
H392 H 0.30562 0.30719 0.54344 0.0
H393 H 0.34621 0.32613 0.54433 0.0
H394 H 0.3083 0.32624 0.57226 0.0
H395 H 0.26923 0.30719 0.57136 0.0
H396 H 0.19806 0.21592 0.58376 0.0
H397 H 0.17351 0.19627 0.58239 0.0
H398 H 0.2222 0.19768 0.55478 0.0
H399 H 0.24572 0.21743 0.55617 0.0
Nd400 Nd 0.07893 0.27441 0.68953 0.0
Nd401 Nd 0.06794 0.25045 0.68581 0.0
C402 C 0.07166 0.29515 0.69509 0.0
C403 C 0.0389 0.30601 0.69408 0.0
C404 C 1.01655 0.31156 0.7016 0.0
C405 C 0.99403 0.32245 0.70107 0.0
C406 C 0.99349 0.3281 0.69299 0.0
C407 C 1.0133 0.32236 0.68538 0.0
C408 C 1.0359 0.31145 0.68592 0.0
C409 C 0.09917 0.26904 0.67211 0.0
C410 C 0.93218 0.26388 0.68535 0.0
C411 C 0.0733 0.22989 0.67985 0.0
C412 C 0.09947 0.21863 0.68107 0.0
C413 C 0.10814 0.21196 0.67365 0.0
C414 C 0.12492 0.20085 0.67454 0.0
C415 C 0.13362 0.19612 0.6829 0.0
C416 C 0.1268 0.20294 0.69035 0.0
C417 C 0.1098 0.21409 0.68944 0.0
C418 C 0.05146 0.25557 0.70339 0.0
C419 C 0.21492 0.26108 0.68989 0.0
O420 O 0.03839 0.28708 0.69872 0.0
O421 O 0.11096 0.29183 0.68881 0.0
O422 O 0.13315 0.27636 0.67634 0.0
O423 O 0.05395 0.26508 0.67691 0.0
O424 O 0.96527 0.27157 0.68964 0.0
O425 O 0.96395 0.25569 0.68156 0.0
O426 O 0.11364 0.23765 0.67718 0.0
O427 O 1.02961 0.23339 0.68553 0.0
O428 O 1.01832 0.24804 0.69928 0.0
O429 O 0.09458 0.25975 0.69839 0.0
O430 O 0.18168 0.25335 0.68563 0.0
O431 O 0.18329 0.26929 0.6937 0.0
H432 H 1.01851 0.30759 0.70796 0.0
H433 H 0.97802 0.32651 0.70703 0.0
H434 H 1.014 0.32644 0.67906 0.0
H435 H 0.053 0.3074 0.68 0.0
H436 H 0.09972 0.21527 0.66713 0.0
H437 H 0.12865 0.19587 0.66866 0.0
H438 H 0.13401 0.19964 0.69688 0.0
H439 H 0.10327 0.21908 0.69527 0.0
Nd440 Nd 0.24174 0.99763 0.68861 0.0
Nd441 Nd 0.25023 0.02329 0.68566 0.0
C442 C 0.24629 0.9762 0.69199 0.0
C443 C 0.28358 0.96582 0.6933 0.0
C444 C 0.26408 0.95863 0.70006 0.0
C445 C 0.28869 0.94786 0.70043 0.0
C446 C 0.33319 0.94398 0.69401 0.0
C447 C 0.35517 0.95137 0.68749 0.0
C448 C 0.33069 0.96217 0.68714 0.0
C449 C 0.21096 1.00528 0.67206 0.0
C450 C 0.38843 1.00926 0.68601 0.0
C451 C 0.24918 0.04305 0.67828 0.0
C452 C 0.23161 0.05472 0.67972 0.0
C453 C 0.21372 0.06119 0.67249 0.0
C454 C 0.20311 0.07252 0.67344 0.0
C455 C 0.21021 0.07763 0.68168 0.0
C456 C 0.22597 0.07104 0.68901 0.0
C457 C 0.23673 0.05969 0.68803 0.0
C458 C 0.25533 0.01921 0.70356 0.0
C459 C 0.10616 0.01142 0.69003 0.0
O460 O 0.24358 0.98363 0.69824 0.0
O461 O 0.24588 0.98043 0.6841 0.0
O462 O 0.17755 0.99773 0.67614 0.0
O463 O 0.25894 1.00859 0.6767 0.0
O464 O 0.35491 1.00057 0.68886 0.0
O465 O 0.35849 0.01835 0.68336 0.0
O466 O 0.20069 0.03594 0.67736 0.0
O467 O 0.29942 0.03916 0.68275 0.0
O468 O 0.25733 0.02898 0.70013 0.0
O469 O 0.25011 0.01217 0.69752 0.0
O470 O 0.13756 0.01958 0.68597 0.0
O471 O 0.13816 1.00275 0.69313 0.0
H472 H 0.22717 0.96118 0.70481 0.0
H473 H 0.27018 0.9424 0.7055 0.0
H474 H 0.39024 0.94873 0.68253 0.0
H475 H 0.34664 0.9675 0.68184 0.0
H476 H 0.20941 0.05753 0.66602 0.0
H477 H 0.1899 0.07729 0.6677 0.0
H478 H 0.2322 0.07472 0.69543 0.0
H479 H 0.25055 0.05485 0.69372 0.0
Nd480 Nd 1.004 1.00075 0.43569 0.0
Nd481 Nd 0.99305 0.02479 0.43938 0.0
C482 C 0.99881 0.98018 0.42975 0.0
C483 C 0.97406 0.96883 0.43107 0.0
C484 C 0.96474 0.96211 0.42369 0.0
C485 C 0.94954 0.95093 0.42466 0.0
C486 C 0.94311 0.94618 0.43306 0.0
C487 C 0.95056 0.95304 0.44046 0.0
C488 C 0.96599 0.96426 0.43948 0.0
C489 C 1.02018 1.00589 0.45327 0.0
C490 C 0.85704 0.01137 0.43976 0.0
C491 C 0.99933 0.04555 0.44492 0.0
C492 C 1.03238 0.0564 0.44401 0.0
C493 C 0.04193 0.06285 0.45155 0.0
C494 C 0.06549 0.07368 0.45088 0.0
C495 C 0.08013 0.07835 0.44263 0.0
C496 C 0.07234 0.07173 0.43509 0.0
C497 C 0.04869 0.06088 0.43577 0.0
C498 C 0.97247 0.01927 0.42202 0.0
C499 C 0.13976 0.0143 0.43519 0.0
O500 O 0.95712 0.98782 0.42728 0.0
O501 O 0.04363 0.9838 0.43522 0.0
O502 O 0.05288 0.9983 0.44918 0.0
O503 O 0.97746 1.01012 0.44825 0.0
O504 O 0.89026 1.00365 0.4355 0.0
O505 O 0.88868 0.0196 0.44357 0.0
O506 O 1.03162 0.03751 0.44869 0.0
O507 O 0.96205 0.04222 0.43843 0.0
O508 O 0.93842 0.02657 0.42624 0.0
O509 O 1.018 0.01539 0.42679 0.0
O510 O 0.10673 0.02201 0.43947 0.0
O511 O 0.10794 1.00609 0.43141 0.0
H512 H 0.97146 0.96544 0.41715 0.0
H513 H 0.94528 0.94593 0.4188 0.0
H514 H 0.94506 0.94974 0.44703 0.0
H515 H 0.97311 0.96929 0.44528 0.0
H516 H 1.02906 0.05963 0.45797 0.0
H517 H 0.06988 0.07851 0.45683 0.0
H518 H 0.084 0.07497 0.42865 0.0
H519 H 0.04178 0.05608 0.42985 0.0
Nd520 Nd 0.81912 0.77254 0.43589 0.0
Nd521 Nd 0.8299 0.74853 0.43959 0.0
C522 C 0.82531 0.79314 0.43 0.0
C523 C 0.84927 0.80453 0.43139 0.0
C524 C 0.86951 0.81071 0.42408 0.0
C525 C 0.88272 0.82198 0.42486 0.0
C526 C 0.87596 0.82737 0.433 0.0
C527 C 0.85869 0.82105 0.44042 0.0
C528 C 0.84523 0.80974 0.43962 0.0
C529 C 0.80243 0.7674 0.45347 0.0
C530 C 0.96596 0.7619 0.43996 0.0
C531 C 0.82348 0.72774 0.44508 0.0
C532 C 0.79004 0.71693 0.44422 0.0
C533 C 0.78113 0.71044 0.45175 0.0
C534 C 0.75731 0.69963 0.4511 0.0
C535 C 0.74178 0.69501 0.44287 0.0
C536 C 0.74892 0.70166 0.43534 0.0
C537 C 0.77281 0.7125 0.436 0.0
C538 C 0.85183 0.75406 0.42225 0.0
C539 C 0.68336 0.75901 0.43531 0.0
O540 O 0.86773 0.78553 0.42768 0.0
O541 O 0.77902 0.78945 0.43524 0.0
O542 O 0.76992 0.775 0.44938 0.0
O543 O 0.84525 0.76317 0.44846 0.0
O544 O 0.93281 0.76959 0.43566 0.0
O545 O 0.93419 0.7537 0.44381 0.0
O546 O 0.79181 0.7358 0.44894 0.0
O547 O 0.86021 0.73107 0.43853 0.0
O548 O 0.88587 0.74682 0.42654 0.0
O549 O 0.80574 0.75792 0.42695 0.0
O550 O 0.71623 0.75133 0.43963 0.0
O551 O 0.71536 0.76722 0.43154 0.0
H552 H 0.87279 0.80688 0.41767 0.0
H553 H 0.89702 0.82654 0.41905 0.0
H554 H 0.85273 0.82493 0.44678 0.0
H555 H 0.82946 0.80518 0.44537 0.0
H556 H 0.7947 0.71363 0.45815 0.0
H557 H 0.75344 0.69477 0.45704 0.0
H558 H 0.73657 0.69846 0.4289 0.0
H559 H 0.77923 0.71733 0.43007 0.0
Nd560 Nd 1.00572 0.77276 0.31563 0.0
Nd561 Nd 0.99488 0.7487 0.31203 0.0
C562 C 0.99971 0.79337 0.32146 0.0
C563 C 0.97542 0.80474 0.32011 0.0
C564 C 0.95619 0.81092 0.32746 0.0
C565 C 0.94275 0.82219 0.32669 0.0
C566 C 0.94823 0.82755 0.31852 0.0
C567 C 0.96448 0.82123 0.31107 0.0
C568 C 0.97819 0.80993 0.31186 0.0
C569 C 1.022 0.76753 0.29806 0.0
C570 C 0.85887 0.76201 0.31163 0.0
C571 C 1.00221 0.7279 0.30661 0.0
C572 C 1.03502 0.71703 0.30765 0.0
C573 C 0.0585 0.71155 0.30015 0.0
C574 C 0.08095 0.70066 0.30067 0.0
C575 C 0.08027 0.69493 0.30871 0.0
C576 C 0.05929 0.70059 0.3163 0.0
C577 C 0.03677 0.71151 0.31577 0.0
C578 C 0.97426 0.75429 0.32939 0.0
C579 C 0.14151 0.75932 0.31616 0.0
O580 O 0.95774 0.78573 0.3239 0.0
O581 O 0.04543 0.78972 0.31614 0.0
O582 O 0.05457 0.77518 0.30212 0.0
O583 O 0.97931 0.7633 0.3031 0.0
O584 O 0.89208 0.76974 0.31589 0.0
O585 O 0.89057 0.75381 0.30781 0.0
O586 O 1.03517 0.73594 0.30289 0.0
O587 O 0.96322 0.73127 0.31291 0.0
O588 O 0.9404 0.74692 0.3252 0.0
O589 O 1.01974 0.75818 0.32459 0.0
O590 O 0.10848 0.7516 0.31189 0.0
O591 O 0.10966 0.76752 0.31993 0.0
H592 H 0.9539 0.80711 0.33389 0.0
H593 H 0.92926 0.82675 0.33253 0.0
H594 H 0.96946 0.8251 0.3047 0.0
H595 H 0.99317 0.80536 0.30608 0.0
H596 H 0.05748 0.71559 0.29381 0.0
H597 H 0.09786 0.69666 0.29472 0.0
H598 H 0.05761 0.69645 0.32259 0.0
H599 H 1.01874 0.71549 0.32167 0.0
Nd600 Nd 0.81754 1.00088 0.31555 0.0
Nd601 Nd 0.82893 0.0249 0.31181 0.0
C602 C 0.82271 0.9803 0.3215 0.0
C603 C 0.84746 0.96897 0.32018 0.0
C604 C 0.85783 0.96231 0.32757 0.0
C605 C 0.87309 0.95113 0.32663 0.0
C606 C 0.87851 0.94632 0.31825 0.0
C607 C 0.87002 0.95312 0.31082 0.0
C608 C 0.85454 0.96433 0.31178 0.0
C609 C 0.80087 1.00599 0.29797 0.0
C610 C 0.96468 0.01148 0.31139 0.0
C611 C 0.82307 0.04568 0.3063 0.0
C612 C 0.78986 0.0565 0.30713 0.0
C613 C 0.78147 0.06298 0.29959 0.0
C614 C 0.75789 0.0738 0.30022 0.0
C615 C 0.74208 0.07843 0.30844 0.0
C616 C 0.74871 0.07179 0.31598 0.0
C617 C 0.77237 0.06094 0.31534 0.0
C618 C 0.85068 0.01939 0.32914 0.0
C619 C 0.68208 0.01444 0.31611 0.0
O620 O 0.8644 0.98796 0.32396 0.0
O621 O 0.77785 0.9839 0.31603 0.0
O622 O 0.76806 0.99842 0.30209 0.0
O623 O 0.84388 1.01022 0.30295 0.0
O624 O 0.93136 1.00376 0.31566 0.0
O625 O 0.93315 0.01971 0.30759 0.0
O626 O 0.79138 0.03761 0.30243 0.0
O627 O 0.8595 0.04235 0.31286 0.0
O628 O 0.88494 0.02661 0.32484 0.0
O629 O 0.80449 0.01553 0.32446 0.0
O630 O 0.71519 0.02213 0.3118 0.0
O631 O 0.71379 1.00621 0.31987 0.0
H632 H 0.85189 0.96568 0.33412 0.0
H633 H 0.87818 0.94618 0.33251 0.0
H634 H 0.87474 0.94977 0.30426 0.0
H635 H 0.84663 0.96931 0.30597 0.0
H636 H 0.79526 0.05979 0.2932 0.0
H637 H 0.75442 0.07865 0.29428 0.0
H638 H 0.73613 0.07499 0.32241 0.0
H639 H 0.77839 0.05612 0.32127 0.0
Nd640 Nd 0.57922 0.49788 0.5619 0.0
Nd641 Nd 0.56819 0.52181 0.56567 0.0
C642 C 0.57299 0.47714 0.55632 0.0
C643 C 0.53984 0.46629 0.55717 0.0
C644 C 0.53152 0.45979 0.54964 0.0
C645 C 0.5079 0.44897 0.55028 0.0
C646 C 0.49197 0.44435 0.5585 0.0
C647 C 0.49856 0.45101 0.56604 0.0
C648 C 0.52226 0.46186 0.56538 0.0
C649 C 0.6009 0.50324 0.57928 0.0
C650 C 0.43255 0.50828 0.56624 0.0
C651 C 0.5734 0.5424 0.5716 0.0
C652 C 0.59818 0.55375 0.57032 0.0
C653 C 0.60723 0.56045 0.57771 0.0
C654 C 0.62247 0.57164 0.57677 0.0
C655 C 0.62922 0.57641 0.56839 0.0
C656 C 0.62204 0.56957 0.56097 0.0
C657 C 0.60657 0.55834 0.56192 0.0
C658 C 0.55138 0.51672 0.54808 0.0
C659 C 0.71522 0.51128 0.56152 0.0
O660 O 0.54093 0.4852 0.55254 0.0
O661 O 0.60995 0.48044 0.56285 0.0
O662 O 0.63502 0.49605 0.57495 0.0
O663 O 0.55498 0.50716 0.57459 0.0
O664 O 0.46552 0.50062 0.5619 0.0
O665 O 0.46445 0.51647 0.57003 0.0
O666 O 0.61498 0.53475 0.57408 0.0
O667 O 0.52873 0.53878 0.56611 0.0
O668 O 0.51827 0.52421 0.55222 0.0
O669 O 0.59464 0.51257 0.55305 0.0
O670 O 0.68199 0.51897 0.56582 0.0
O671 O 0.68354 0.50307 0.55769 0.0
H672 H 0.54538 0.46298 0.54325 0.0
H673 H 0.50448 0.4441 0.54434 0.0
H674 H 0.48589 0.44781 0.57247 0.0
H675 H 0.52823 0.4667 0.57131 0.0
H676 H 0.60025 0.55711 0.58425 0.0
H677 H 0.6265 0.57662 0.58265 0.0
H678 H 0.6278 0.57289 0.55441 0.0
H679 H 0.59967 0.55333 0.55611 0.0
Nd680 Nd 0.74273 0.77405 0.56195 0.0
Nd681 Nd 0.75349 0.75011 0.56566 0.0
C682 C 0.74937 0.79481 0.5564 0.0
C683 C 0.78244 0.80566 0.5573 0.0
C684 C 0.79249 0.81209 0.54977 0.0
C685 C 0.81597 0.82292 0.55043 0.0
C686 C 0.83 0.82762 0.55868 0.0
C687 C 0.82172 0.82102 0.56623 0.0
C688 C 0.79818 0.81016 0.56555 0.0
C689 C 0.72097 0.76864 0.57932 0.0
C690 C 0.88924 0.7636 0.56626 0.0
C691 C 0.74736 0.72949 0.5715 0.0
C692 C 0.72335 0.71809 0.57012 0.0
C693 C 0.70293 0.71194 0.57744 0.0
C694 C 0.68969 0.70066 0.57667 0.0
C695 C 0.6966 0.69526 0.56854 0.0
C696 C 0.71406 0.70155 0.56112 0.0
C697 C 0.72755 0.71286 0.5619 0.0
C698 C 0.77033 0.75526 0.54807 0.0
C699 C 0.60664 0.76071 0.56159 0.0
O700 O 0.78173 0.78676 0.55264 0.0
O701 O 0.71184 0.79149 0.56288 0.0
O702 O 0.687 0.77587 0.57502 0.0
O703 O 0.76682 0.76472 0.57462 0.0
O704 O 0.85639 0.77127 0.56192 0.0
O705 O 0.8572 0.7554 0.57004 0.0
O706 O 0.70507 0.7371 0.57387 0.0
O707 O 0.79346 0.73318 0.56624 0.0
O708 O 0.80321 0.74772 0.55218 0.0
O709 O 0.72718 0.75941 0.55306 0.0
O710 O 0.6398 0.75303 0.56589 0.0
O711 O 0.63842 0.7689 0.55774 0.0
H712 H 0.78008 0.80884 0.54334 0.0
H713 H 0.82075 0.82774 0.54448 0.0
H714 H 0.83291 0.82428 0.57268 0.0
H715 H 0.79087 0.80538 0.57148 0.0
H716 H 0.69954 0.71578 0.58385 0.0
H717 H 0.67525 0.69612 0.58249 0.0
H718 H 0.72015 0.69765 0.55477 0.0
H719 H 0.74346 0.71741 0.55615 0.0
Nd720 Nd 0.57943 0.77377 0.68971 0.0
Nd721 Nd 0.56844 0.74984 0.6859 0.0
C722 C 0.5715 0.79448 0.69531 0.0
C723 C 0.53927 0.80538 0.69407 0.0
C724 C 0.49757 0.80959 0.70065 0.0
C725 C 0.47418 0.82044 0.70022 0.0
C726 C 0.49232 0.82742 0.69322 0.0
C727 C 0.53222 0.82306 0.68647 0.0
C728 C 0.55549 0.81219 0.68689 0.0
C729 C 0.59939 0.76854 0.67225 0.0
C730 C 0.43275 0.76325 0.68549 0.0
C731 C 0.57449 0.7293 0.67992 0.0
C732 C 0.59872 0.71793 0.68128 0.0
C733 C 0.61807 0.71176 0.67393 0.0
C734 C 0.63158 0.7005 0.67471 0.0
C735 C 0.62601 0.69514 0.68287 0.0
C736 C 0.60963 0.70146 0.69032 0.0
C737 C 0.59587 0.71274 0.68953 0.0
C738 C 0.55231 0.75484 0.7035 0.0
C739 C 0.71535 0.76048 0.68996 0.0
O740 O 0.53675 0.78642 0.69871 0.0
O741 O 0.61318 0.79112 0.68932 0.0
O742 O 0.63312 0.77587 0.6765 0.0
O743 O 0.55437 0.76451 0.67705 0.0
O744 O 0.46582 0.77086 0.68988 0.0
O745 O 0.46462 0.75513 0.68161 0.0
O746 O 0.61673 0.73695 0.67759 0.0
O747 O 0.52842 0.7329 0.68522 0.0
O748 O 0.51937 0.74729 0.69939 0.0
O749 O 0.59522 0.75909 0.69851 0.0
O750 O 0.68209 0.75286 0.68558 0.0
O751 O 0.68361 0.76858 0.69392 0.0
H752 H 0.48459 0.80459 0.70629 0.0
H753 H 0.44265 0.82342 0.70547 0.0
H754 H 0.5479 0.82817 0.68102 0.0
H755 H 0.58804 0.80927 0.68174 0.0
H756 H 0.62043 0.71557 0.6675 0.0
H757 H 0.64518 0.69594 0.66887 0.0
H758 H 0.60459 0.69759 0.6967 0.0
H759 H 0.58081 0.71732 0.6953 0.0
Nd760 Nd 0.74468 0.49798 0.68952 0.0
Nd761 Nd 0.75603 0.52192 0.68576 0.0
C762 C 0.75083 0.47725 0.69516 0.0
C763 C 0.78371 0.46641 0.69425 0.0
C764 C 0.79294 0.45993 0.70177 0.0
C765 C 0.81654 0.44912 0.70108 0.0
C766 C 0.83154 0.44451 0.69283 0.0
C767 C 0.82402 0.45116 0.6853 0.0
C768 C 0.80034 0.462 0.686 0.0
C769 C 0.72434 0.50333 0.67211 0.0
C770 C 0.89156 0.50842 0.68527 0.0
C771 C 0.75113 0.54249 0.67981 0.0
C772 C 0.72626 0.55382 0.68113 0.0
C773 C 0.7163 0.56051 0.67375 0.0
C774 C 0.70091 0.57167 0.67471 0.0
C775 C 0.69496 0.57644 0.6831 0.0
C776 C 0.70303 0.5696 0.69051 0.0
C777 C 0.71863 0.5584 0.68954 0.0
C778 C 0.77225 0.51684 0.70336 0.0
C779 C 0.60884 0.51135 0.68984 0.0
O780 O 0.78357 0.48533 0.69885 0.0
O781 O 0.71312 0.48054 0.68871 0.0
O782 O 0.69021 0.49605 0.67637 0.0
O783 O 0.76971 0.50728 0.67688 0.0
O784 O 0.85841 0.50075 0.6896 0.0
O785 O 0.85983 0.5166 0.68146 0.0
O786 O 0.70952 0.53484 0.67732 0.0
O787 O 0.79579 0.53889 0.6853 0.0
O788 O 0.80542 0.52435 0.69923 0.0
O789 O 0.72915 0.51266 0.69837 0.0
O790 O 0.64224 0.51905 0.68555 0.0
O791 O 0.64034 0.50315 0.69368 0.0
H792 H 0.77985 0.46311 0.70818 0.0
H793 H 0.82071 0.44426 0.70701 0.0
H794 H 0.83595 0.44796 0.67886 0.0
H795 H 0.79368 0.46683 0.68009 0.0
H796 H 0.72265 0.55717 0.6672 0.0
H797 H 0.69613 0.57665 0.66884 0.0
H798 H 0.69789 0.57292 0.69708 0.0
H799 H 0.72621 0.5534 0.69534 0.0
Nd800 Nd 0.50369 0.50083 0.4358 0.0
Nd801 Nd 0.49301 0.52478 0.43958 0.0
C802 C 0.49721 0.48026 0.42985 0.0
C803 C 0.47322 0.46887 0.43126 0.0
C804 C 0.4532 0.46268 0.42396 0.0
C805 C 0.4399 0.45141 0.42477 0.0
C806 C 0.44634 0.44605 0.43292 0.0
C807 C 0.46339 0.45239 0.44033 0.0
C808 C 0.47695 0.46369 0.43951 0.0
C809 C 0.52037 0.50582 0.4534 0.0
C810 C 0.35692 0.51145 0.43995 0.0
C811 C 0.50042 0.54554 0.4451 0.0
C812 C 0.5334 0.55641 0.4441 0.0
C813 C 0.55576 0.56194 0.45163 0.0
C814 C 0.57836 0.57284 0.45112 0.0
C815 C 0.57896 0.57851 0.44305 0.0
C816 C 0.55913 0.57279 0.43544 0.0
C817 C 0.53647 0.56187 0.43596 0.0
C818 C 0.47133 0.5194 0.42221 0.0
C819 C 0.63954 0.5143 0.43526 0.0
O820 O 0.45469 0.48788 0.42761 0.0
O821 O 0.54378 0.48392 0.43504 0.0
O822 O 0.55289 0.49826 0.44926 0.0
O823 O 0.47754 0.5101 0.44843 0.0
O824 O 0.39005 0.50381 0.43559 0.0
O825 O 0.38876 0.5196 0.44385 0.0
O826 O 0.53323 0.53748 0.44878 0.0
O827 O 0.46151 0.5422 0.43879 0.0
O828 O 0.43744 0.52664 0.42653 0.0
O829 O 0.51727 0.51549 0.4269 0.0
O830 O 0.60662 0.52195 0.43962 0.0
O831 O 0.60755 0.50613 0.43144 0.0
H832 H 0.45015 0.46648 0.41754 0.0
H833 H 0.42578 0.44683 0.41896 0.0
H834 H 0.46911 0.44853 0.4467 0.0
H835 H 0.49253 0.46828 0.44525 0.0
H836 H 0.55373 0.55794 0.45799 0.0
H837 H 0.59437 0.57688 0.45709 0.0
H838 H 0.55846 0.57689 0.42913 0.0
H839 H 0.51934 0.55784 0.43003 0.0
Nd840 Nd 0.31721 0.27267 0.43584 0.0
Nd841 Nd 0.3279 0.24863 0.43949 0.0
C842 C 0.32266 0.29327 0.42993 0.0
C843 C 0.34745 0.30461 0.43124 0.0
C844 C 0.35719 0.31131 0.42386 0.0
C845 C 0.37241 0.32249 0.42481 0.0
C846 C 0.37845 0.32726 0.4332 0.0
C847 C 0.3706 0.32041 0.44062 0.0
C848 C 0.35514 0.3092 0.43965 0.0
C849 C 0.30098 0.26747 0.45341 0.0
C850 C 0.46402 0.262 0.43987 0.0
C851 C 0.32059 0.22785 0.44496 0.0
C852 C 0.28765 0.21698 0.44395 0.0
C853 C 0.26566 0.2114 0.45148 0.0
C854 C 0.24311 0.2005 0.45096 0.0
C855 C 0.24218 0.19487 0.44287 0.0
C856 C 0.26163 0.20064 0.43526 0.0
C857 C 0.28426 0.21157 0.43579 0.0
C858 C 0.34853 0.25418 0.42212 0.0
C859 C 0.18133 0.25918 0.43534 0.0
O860 O 0.3643 0.28562 0.42744 0.0
O861 O 0.27778 0.28964 0.4354 0.0
O862 O 0.26837 0.27509 0.44935 0.0
O863 O 0.34364 0.26325 0.44838 0.0
O864 O 0.4309 0.26973 0.4356 0.0
O865 O 0.43224 0.25379 0.44369 0.0
O866 O 0.28776 0.23589 0.44867 0.0
O867 O 0.35943 0.23121 0.43863 0.0
O868 O 0.38238 0.24684 0.42632 0.0
O869 O 0.30308 0.25807 0.42691 0.0
O870 O 0.21429 0.25148 0.43963 0.0
O871 O 0.21326 0.26738 0.43155 0.0
H872 H 0.35075 0.30797 0.41731 0.0
H873 H 0.37698 0.32747 0.41894 0.0
H874 H 0.3758 0.32373 0.44718 0.0
H875 H 0.34771 0.30418 0.44545 0.0
H876 H 0.26795 0.21536 0.45785 0.0
H877 H 0.2274 0.19641 0.45693 0.0
H878 H 0.26202 0.19658 0.42893 0.0
H879 H 0.3011 0.21563 0.42986 0.0
Nd880 Nd 0.50451 0.27264 0.31562 0.0
Nd881 Nd 0.49357 0.24861 0.31194 0.0
C882 C 0.4982 0.29324 0.32147 0.0
C883 C 0.47426 0.30463 0.32005 0.0
C884 C 0.45201 0.31071 0.3273 0.0
C885 C 0.43869 0.32197 0.32653 0.0
C886 C 0.44738 0.32745 0.31846 0.0
C887 C 0.46672 0.32123 0.31108 0.0
C888 C 0.48026 0.30993 0.31187 0.0
C889 C 0.52115 0.26749 0.29804 0.0
C890 C 0.35764 0.26194 0.31153 0.0
C891 C 0.50078 0.22783 0.30647 0.0
C892 C 0.53394 0.21698 0.30743 0.0
C893 C 0.55648 0.21151 0.29988 0.0
C894 C 0.57917 0.20063 0.30035 0.0
C895 C 0.57967 0.1949 0.30839 0.0
C896 C 0.55963 0.20056 0.31602 0.0
C897 C 0.53689 0.21147 0.31555 0.0
C898 C 0.47168 0.25412 0.32927 0.0
C899 C 0.64016 0.25917 0.31621 0.0
O900 O 0.45574 0.28562 0.32379 0.0
O901 O 0.54467 0.28957 0.31627 0.0
O902 O 0.55368 0.27511 0.30212 0.0
O903 O 0.47833 0.26325 0.30305 0.0
O904 O 0.39083 0.26964 0.31582 0.0
O905 O 0.38934 0.25374 0.3077 0.0
O906 O 0.53311 0.2359 0.3027 0.0
O907 O 0.46246 0.23116 0.31286 0.0
O908 O 0.43781 0.24683 0.325 0.0
O909 O 0.51773 0.25802 0.32457 0.0
O910 O 0.6072 0.25146 0.31191 0.0
O911 O 0.60829 0.26738 0.31996 0.0
H912 H 0.44719 0.30681 0.33368 0.0
H913 H 0.42278 0.32645 0.33231 0.0
H914 H 0.47423 0.32518 0.30478 0.0
H915 H 0.49759 0.30545 0.30617 0.0
H916 H 0.55452 0.21555 0.29354 0.0
H917 H 0.59533 0.19663 0.29436 0.0
H918 H 0.55887 0.19641 0.32232 0.0
H919 H 0.5196 0.21544 0.32149 0.0
Nd920 Nd 0.31676 0.50079 0.31564 0.0
Nd921 Nd 0.32812 0.52484 0.312 0.0
C922 C 0.32151 0.48019 0.32154 0.0
C923 C 0.34657 0.46886 0.32031 0.0
C924 C 0.35381 0.46211 0.32771 0.0
C925 C 0.36933 0.45094 0.3268 0.0
C926 C 0.37822 0.44623 0.31843 0.0
C927 C 0.37281 0.45313 0.311 0.0
C928 C 0.35702 0.46434 0.31194 0.0
C929 C 0.30036 0.506 0.29808 0.0
C930 C 0.46393 0.51143 0.31156 0.0
C931 C 0.32228 0.54564 0.30654 0.0
C932 C 0.28927 0.55648 0.30741 0.0
C933 C 0.28121 0.56302 0.29989 0.0
C934 C 0.25771 0.57383 0.30056 0.0
C935 C 0.24161 0.57842 0.30878 0.0
C936 C 0.24795 0.57172 0.3163 0.0
C937 C 0.27155 0.56087 0.31563 0.0
C938 C 0.34878 0.51923 0.32935 0.0
C939 C 0.18121 0.51433 0.31617 0.0
O940 O 0.36266 0.48787 0.32414 0.0
O941 O 0.27757 0.48378 0.31594 0.0
O942 O 0.26745 0.49842 0.30217 0.0
O943 O 0.34332 0.51021 0.30308 0.0
O944 O 0.43058 0.50367 0.3158 0.0
O945 O 0.43242 0.51968 0.30779 0.0
O946 O 0.29036 0.53761 0.30268 0.0
O947 O 0.35889 0.54229 0.31308 0.0
O948 O 0.3831 0.52652 0.32513 0.0
O949 O 0.30306 0.51539 0.32458 0.0
O950 O 0.21439 0.52204 0.3119 0.0
O951 O 0.21289 0.5061 0.31993 0.0
H952 H 0.34521 0.4654 0.33423 0.0
H953 H 0.37193 0.44593 0.33266 0.0
H954 H 0.38022 0.44986 0.30446 0.0
H955 H 0.35153 0.46939 0.30612 0.0
H956 H 0.29519 0.55986 0.2935 0.0
H957 H 0.25451 0.57873 0.29463 0.0
H958 H 0.23515 0.57489 0.32273 0.0
H959 H 0.27732 0.55601 0.32155 0.0
Nd960 Nd 0.57845 0.99799 0.06178 0.0
Nd961 Nd 0.5677 0.02196 0.06548 0.0
C962 C 0.57119 0.97722 0.05625 0.0
C963 C 0.53851 0.96633 0.05726 0.0
C964 C 0.51746 0.96068 0.04972 0.0
C965 C 0.49511 0.94977 0.05026 0.0
C966 C 0.49343 0.9442 0.05837 0.0
C967 C 0.51194 0.95003 0.06598 0.0
C968 C 0.53438 0.96097 0.06543 0.0
C969 C 0.59884 1.0034 0.07919 0.0
C970 C 0.43183 1.00848 0.06598 0.0
C971 C 0.57279 0.04255 0.07139 0.0
C972 C 0.59794 0.05389 0.07018 0.0
C973 C 0.60472 0.06065 0.07758 0.0
C974 C 0.62027 0.07183 0.07668 0.0
C975 C 0.62964 0.07654 0.06831 0.0
C976 C 0.62472 0.06964 0.06089 0.0
C977 C 0.6089 0.05842 0.06181 0.0
C978 C 0.55116 0.01679 0.04789 0.0
C979 C 0.7146 1.01135 0.06139 0.0
O980 O 0.53803 0.98527 0.05261 0.0
O981 O 0.61028 0.98057 0.06254 0.0
O982 O 0.63267 0.99608 0.07495 0.0
O983 O 0.55361 1.00734 0.0744 0.0
O984 O 0.46482 1.00081 0.06166 0.0
O985 O 0.46374 0.01667 0.06978 0.0
O986 O 0.61388 0.03488 0.07397 0.0
O987 O 0.52879 0.03897 0.06579 0.0
O988 O 0.51823 0.02434 0.052 0.0
O989 O 0.59426 0.01264 0.05289 0.0
O990 O 0.68143 0.01907 0.06567 0.0
O991 O 0.68286 1.00314 0.05757 0.0
H992 H 0.52031 0.9646 0.04334 0.0
H993 H 0.48012 0.94563 0.04428 0.0
H994 H 0.51172 0.94601 0.07233 0.0
H995 H 0.55048 0.96509 0.07137 0.0
H996 H 0.59573 0.05736 0.08409 0.0
H997 H 0.62249 0.07685 0.08254 0.0
H998 H 0.63252 0.07291 0.05435 0.0
H999 H 0.60376 0.05336 0.05599 0.0
Nd1000 Nd 0.7436 0.27417 0.06189 0.0
Nd1001 Nd 0.7543 0.25023 0.06559 0.0
C1002 C 0.75025 0.29493 0.05633 0.0
C1003 C 0.7835 0.30576 0.0572 0.0
C1004 C 0.79307 0.3122 0.04965 0.0
C1005 C 0.81674 0.32302 0.05029 0.0
C1006 C 0.83145 0.3277 0.05853 0.0
C1007 C 0.82364 0.32109 0.06608 0.0
C1008 C 0.7999 0.31024 0.06542 0.0
C1009 C 0.72172 0.26876 0.07925 0.0
C1010 C 0.89006 0.26371 0.06621 0.0
C1011 C 0.74801 0.2296 0.07142 0.0
C1012 C 0.72414 0.2182 0.06998 0.0
C1013 C 0.70149 0.21212 0.07722 0.0
C1014 C 0.68824 0.20084 0.07644 0.0
C1015 C 0.69741 0.19537 0.06838 0.0
C1016 C 0.71715 0.2016 0.06102 0.0
C1017 C 0.73061 0.2129 0.06182 0.0
C1018 C 0.77109 0.25537 0.048 0.0
C1019 C 0.60746 0.26084 0.06154 0.0
O1020 O 0.78233 0.28686 0.05254 0.0
O1021 O 0.71299 0.29162 0.06283 0.0
O1022 O 0.68782 0.27599 0.07495 0.0
O1023 O 0.76759 0.26483 0.07455 0.0
O1024 O 0.85724 0.27139 0.06187 0.0
O1025 O 0.85799 0.25552 0.06998 0.0
O1026 O 0.70549 0.23719 0.07374 0.0
O1027 O 0.79453 0.23332 0.06624 0.0
O1028 O 0.80394 0.24783 0.05211 0.0
O1029 O 0.72798 0.25953 0.053 0.0
O1030 O 0.64063 0.25316 0.06585 0.0
O1031 O 0.63923 0.26903 0.05769 0.0
H1032 H 0.78013 0.30896 0.04324 0.0
H1033 H 0.82113 0.32784 0.04434 0.0
H1034 H 0.83536 0.32434 0.07252 0.0
H1035 H 0.79297 0.30546 0.07136 0.0
H1036 H 0.69632 0.21601 0.08359 0.0
H1037 H 0.67201 0.19635 0.0822 0.0
H1038 H 0.72503 0.19764 0.05473 0.0
H1039 H 0.74826 0.21739 0.05613 0.0
Nd1040 Nd 0.57809 0.274 0.18946 0.0
Nd1041 Nd 0.5669 0.24999 0.18588 0.0
C1042 C 0.57192 0.2948 0.19492 0.0
C1043 C 0.53889 0.30564 0.19403 0.0
C1044 C 0.52992 0.31212 0.20155 0.0
C1045 C 0.50637 0.32294 0.20089 0.0
C1046 C 0.49112 0.32756 0.19265 0.0
C1047 C 0.49838 0.32091 0.18512 0.0
C1048 C 0.52204 0.31007 0.1858 0.0
C1049 C 0.5987 0.26843 0.17209 0.0
C1050 C 0.43131 0.26348 0.18531 0.0
C1051 C 0.57168 0.22934 0.18009 0.0
C1052 C 0.5966 0.218 0.18136 0.0
C1053 C 0.60592 0.21133 0.17395 0.0
C1054 C 0.62118 0.20015 0.17486 0.0
C1055 C 0.62768 0.19534 0.18323 0.0
C1056 C 0.62024 0.20216 0.19067 0.0
C1057 C 0.60474 0.21337 0.18974 0.0
C1058 C 0.55052 0.25531 0.20344 0.0
C1059 C 0.71403 0.26063 0.18986 0.0
O1060 O 0.53979 0.28675 0.19875 0.0
O1061 O 0.60892 0.29145 0.18841 0.0
O1062 O 0.63284 0.27574 0.1763 0.0
O1063 O 0.55322 0.26454 0.17689 0.0
O1064 O 0.46439 0.27119 0.18959 0.0
O1065 O 0.46312 0.25526 0.18156 0.0
O1066 O 0.61285 0.23699 0.17745 0.0
O1067 O 0.52769 0.23297 0.18568 0.0
O1068 O 0.5173 0.24775 0.19938 0.0
O1069 O 0.59368 0.25941 0.19841 0.0
O1070 O 0.68069 0.25288 0.18564 0.0
O1071 O 0.68248 0.26889 0.19363 0.0
H1072 H 0.54322 0.30894 0.20796 0.0
H1073 H 0.50243 0.3278 0.20682 0.0
H1074 H 0.48626 0.32411 0.17868 0.0
H1075 H 0.52852 0.30524 0.17988 0.0
H1076 H 0.59912 0.2147 0.16742 0.0
H1077 H 0.62541 0.1952 0.16897 0.0
H1078 H 0.62581 0.19881 0.19722 0.0
H1079 H 0.59763 0.21835 0.19557 0.0
Nd1080 Nd 0.74317 0.99777 0.18943 0.0
Nd1081 Nd 0.7542 0.02175 0.18568 0.0
C1082 C 0.75038 0.97701 0.19496 0.0
C1083 C 0.78324 0.96614 0.19398 0.0
C1084 C 0.8044 0.96054 0.20153 0.0
C1085 C 0.82684 0.94965 0.20103 0.0
C1086 C 0.82849 0.94404 0.19294 0.0
C1087 C 0.80986 0.94982 0.18531 0.0
C1088 C 0.78733 0.96074 0.18582 0.0
C1089 C 0.72163 1.00315 0.17205 0.0
C1090 C 0.88981 1.00829 0.1851 0.0
C1091 C 0.74804 0.04236 0.17982 0.0
C1092 C 0.7239 0.05373 0.18123 0.0
C1093 C 0.70357 0.0599 0.17392 0.0
C1094 C 0.69014 0.07116 0.17472 0.0
C1095 C 0.69678 0.07655 0.18286 0.0
C1096 C 0.71417 0.07024 0.19027 0.0
C1097 C 0.72785 0.05894 0.18946 0.0
C1098 C 0.77097 0.01664 0.20326 0.0
C1099 C 0.60722 1.01108 0.1898 0.0
O1100 O 0.78319 0.98508 0.19864 0.0
O1101 O 0.71167 0.98033 0.18862 0.0
O1102 O 0.68776 0.99589 0.17636 0.0
O1103 O 0.7674 1.00711 0.17675 0.0
O1104 O 0.8568 1.00063 0.18946 0.0
O1105 O 0.85792 0.01647 0.1813 0.0
O1106 O 0.70579 0.03473 0.17748 0.0
O1107 O 0.79418 0.0387 0.18507 0.0
O1108 O 0.80382 0.02419 0.19913 0.0
O1109 O 0.72778 0.01243 0.19829 0.0
O1110 O 0.64051 0.01876 0.18547 0.0
O1111 O 0.63888 1.00291 0.19367 0.0
H1112 H 0.80155 0.96449 0.2079 0.0
H1113 H 0.84192 0.94555 0.20702 0.0
H1114 H 0.81004 0.94577 0.17897 0.0
H1115 H 0.77113 0.96482 0.17987 0.0
H1116 H 0.70035 0.05608 0.16751 0.0
H1117 H 0.67576 0.07571 0.16891 0.0
H1118 H 0.72006 0.07412 0.19662 0.0
H1119 H 0.74368 0.05439 0.1952 0.0
Nd1120 Nd 0.50427 1.00081 0.9356 0.0
Nd1121 Nd 0.49335 0.02477 0.93938 0.0
C1122 C 0.49865 0.98025 0.92961 0.0
C1123 C 0.47408 0.9689 0.93095 0.0
C1124 C 0.46383 0.96221 0.92358 0.0
C1125 C 0.44874 0.95103 0.92454 0.0
C1126 C 0.44336 0.94624 0.93294 0.0
C1127 C 0.45174 0.95307 0.94035 0.0
C1128 C 0.46705 0.96429 0.93936 0.0
C1129 C 0.52095 1.00583 0.95321 0.0
C1130 C 0.35738 0.01138 0.93979 0.0
C1131 C 0.50054 0.04553 0.9449 0.0
C1132 C 0.53344 0.05641 0.9439 0.0
C1133 C 0.55709 0.06184 0.95141 0.0
C1134 C 0.57966 0.07274 0.95092 0.0
C1135 C 0.57891 0.07853 0.94291 0.0
C1136 C 0.55774 0.07291 0.93531 0.0
C1137 C 0.53513 0.06199 0.9358 0.0
C1138 C 0.47168 0.01938 0.92202 0.0
C1139 C 0.63999 0.01432 0.93508 0.0
O1140 O 0.45666 0.98789 0.92724 0.0
O1141 O 0.544 0.98386 0.93501 0.0
O1142 O 0.55362 0.99828 0.94906 0.0
O1143 O 0.47805 1.01008 0.94823 0.0
O1144 O 0.39052 1.00371 0.93546 0.0
O1145 O 0.38916 0.01956 0.94365 0.0
O1146 O 0.53341 0.03748 0.94859 0.0
O1147 O 0.46166 0.04218 0.93859 0.0
O1148 O 0.43771 0.0266 0.92633 0.0
O1149 O 0.51768 0.01548 0.9267 0.0
O1150 O 0.607 0.02198 0.93941 0.0
O1151 O 0.60811 1.00613 0.93128 0.0
H1152 H 0.46974 0.96557 0.91703 0.0
H1153 H 0.44375 0.94606 0.91868 0.0
H1154 H 0.44705 0.94973 0.94691 0.0
H1155 H 0.47488 0.96929 0.94516 0.0
H1156 H 0.55612 0.05776 0.95774 0.0
H1157 H 0.59671 0.0767 0.95688 0.0
H1158 H 0.556 0.0771 0.92904 0.0
H1159 H 0.51697 0.05805 0.92989 0.0
Nd1160 Nd 0.31844 0.77263 0.93585 0.0
Nd1161 Nd 0.32901 0.74863 0.93959 0.0
C1162 C 0.32485 0.7932 0.92991 0.0
C1163 C 0.34893 0.8046 0.93126 0.0
C1164 C 0.36832 0.81078 0.92392 0.0
C1165 C 0.38161 0.82206 0.92469 0.0
C1166 C 0.3758 0.82743 0.93284 0.0
C1167 C 0.35939 0.8211 0.94029 0.0
C1168 C 0.34583 0.80979 0.93951 0.0
C1169 C 0.30189 0.76755 0.95345 0.0
C1170 C 0.46514 0.76197 0.93995 0.0
C1171 C 0.32152 0.72787 0.9451 0.0
C1172 C 0.28843 0.71701 0.9441 0.0
C1173 C 0.26589 0.71148 0.95163 0.0
C1174 C 0.2432 0.70059 0.95113 0.0
C1175 C 0.2427 0.69491 0.94306 0.0
C1176 C 0.26271 0.70063 0.93545 0.0
C1177 C 0.28546 0.71154 0.93597 0.0
C1178 C 0.3507 0.75407 0.92224 0.0
C1179 C 0.18255 0.75916 0.93533 0.0
O1180 O 0.36717 0.78558 0.9276 0.0
O1181 O 0.27858 0.78956 0.93517 0.0
O1182 O 0.26943 0.77516 0.94935 0.0
O1183 O 0.3446 0.7633 0.94844 0.0
O1184 O 0.43207 0.76964 0.93562 0.0
O1185 O 0.43328 0.75381 0.94383 0.0
O1186 O 0.28883 0.73593 0.94881 0.0
O1187 O 0.36037 0.73121 0.93877 0.0
O1188 O 0.38452 0.74681 0.92652 0.0
O1189 O 0.3048 0.75798 0.92694 0.0
O1190 O 0.21541 0.75149 0.93966 0.0
O1191 O 0.21457 0.76734 0.93152 0.0
H1192 H 0.37087 0.80697 0.91749 0.0
H1193 H 0.39523 0.82662 0.91884 0.0
H1194 H 0.35417 0.82497 0.94666 0.0
H1195 H 0.33073 0.80521 0.94528 0.0
H1196 H 0.26784 0.71548 0.95799 0.0
H1197 H 0.22705 0.69655 0.9571 0.0
H1198 H 0.26346 0.69653 0.92914 0.0
H1199 H 0.30273 0.71557 0.93004 0.0
Nd1200 Nd 0.50519 0.77242 0.81564 0.0
Nd1201 Nd 0.49416 0.74833 0.81205 0.0
C1202 C 0.49949 0.79303 0.82147 0.0
C1203 C 0.47508 0.8044 0.82016 0.0
C1204 C 0.45652 0.81058 0.82754 0.0
C1205 C 0.44304 0.82184 0.82679 0.0
C1206 C 0.44782 0.82721 0.81862 0.0
C1207 C 0.4634 0.82089 0.81114 0.0
C1208 C 0.47715 0.80959 0.81191 0.0
C1209 C 0.52152 0.76715 0.79808 0.0
C1210 C 0.35821 0.7617 0.81164 0.0
C1211 C 0.50035 0.72753 0.8066 0.0
C1212 C 0.5336 0.71671 0.80745 0.0
C1213 C 0.54232 0.71025 0.79991 0.0
C1214 C 0.56595 0.69943 0.80054 0.0
C1215 C 0.58149 0.69479 0.80876 0.0
C1216 C 0.57454 0.70143 0.81631 0.0
C1217 C 0.55082 0.71227 0.81566 0.0
C1218 C 0.47334 0.75399 0.82939 0.0
C1219 C 0.64087 0.75891 0.8162 0.0
O1220 O 0.45771 0.78538 0.82396 0.0
O1221 O 0.54484 0.78939 0.81609 0.0
O1222 O 0.55409 0.7748 0.80212 0.0
O1223 O 0.47878 0.76293 0.80313 0.0
O1224 O 0.39148 0.76947 0.81585 0.0
O1225 O 0.38977 0.75343 0.80789 0.0
O1226 O 0.53206 0.73559 0.80272 0.0
O1227 O 0.46376 0.73086 0.81316 0.0
O1228 O 0.43928 0.74664 0.8252 0.0
O1229 O 0.51897 0.75784 0.82459 0.0
O1230 O 0.60784 0.75116 0.81197 0.0
O1231 O 0.60908 0.76716 0.81993 0.0
H1232 H 0.45479 0.80677 0.83397 0.0
H1233 H 0.43008 0.8264 0.83265 0.0
H1234 H 0.46783 0.82476 0.80476 0.0
H1235 H 0.49161 0.80502 0.80611 0.0
H1236 H 0.52875 0.71344 0.79351 0.0
H1237 H 0.56966 0.69459 0.7946 0.0
H1238 H 0.58691 0.69822 0.82274 0.0
H1239 H 0.54454 0.71708 0.82159 0.0
Nd1240 Nd 0.31903 1.00046 0.81555 0.0
Nd1241 Nd 0.32908 0.02445 0.81164 0.0
C1242 C 0.3253 0.98003 0.82181 0.0
C1243 C 0.34918 0.96866 0.82046 0.0
C1244 C 0.35997 0.962 0.82784 0.0
C1245 C 0.3747 0.9508 0.82688 0.0
C1246 C 0.37916 0.94598 0.81849 0.0
C1247 C 0.37016 0.95278 0.81108 0.0
C1248 C 0.35521 0.96401 0.81205 0.0
C1249 C 0.30389 1.00516 0.79787 0.0
C1250 C 0.46548 1.01124 0.81148 0.0
C1251 C 0.32152 0.04516 0.80599 0.0
C1252 C 0.28918 0.05606 0.80705 0.0
C1253 C 0.26617 0.06161 0.79957 0.0
C1254 C 0.24397 0.07251 0.80012 0.0
C1255 C 0.24441 0.07819 0.80818 0.0
C1256 C 0.26496 0.07246 0.81575 0.0
C1257 C 0.28724 0.06153 0.8152 0.0
C1258 C 0.349 0.01921 0.82911 0.0
C1259 C 0.18269 0.01382 0.81579 0.0
O1260 O 0.36823 0.9877 0.82387 0.0
O1261 O 0.27863 0.98357 0.81659 0.0
O1262 O 0.27272 0.9974 0.80198 0.0
O1263 O 0.34546 1.0097 0.80289 0.0
O1264 O 0.43241 1.0036 0.81587 0.0
O1265 O 0.43363 0.01931 0.8075 0.0
O1266 O 0.28759 0.03708 0.80249 0.0
O1267 O 0.3616 0.04185 0.81218 0.0
O1268 O 0.38273 0.02654 0.82485 0.0
O1269 O 0.30401 0.0152 0.82431 0.0
O1270 O 0.21569 0.02149 0.81146 0.0
O1271 O 0.21452 1.00568 0.81965 0.0
H1272 H 0.35484 0.96538 0.83439 0.0
H1273 H 0.3802 0.94586 0.83275 0.0
H1274 H 0.37412 0.94942 0.80451 0.0
H1275 H 0.34694 0.969 0.80626 0.0
H1276 H 0.26732 0.0576 0.79321 0.0
H1277 H 0.22738 0.07656 0.79418 0.0
H1278 H 0.26645 0.07656 0.82207 0.0
H1279 H 0.30489 0.05749 0.82109 0.0
C1280 C 0.9382 0.42792 0.06559 0.0
C1281 C 0.97619 0.43225 0.05863 0.0
C1282 C 0.92309 0.41663 0.06596 0.0
C1283 C 0.97934 0.38948 0.05749 0.0
H1284 H 0.80386 0.37958 0.06431 0.0
C1285 C 0.89409 0.34428 0.05283 0.0
C1286 C 0.85223 0.33952 0.0592 0.0
C1287 C 0.91049 0.35549 0.05317 0.0
C1288 C 0.85345 0.38217 0.06251 0.0
H1289 H 1.02871 0.42795 0.04667 0.0
H1290 H 1.00158 0.40843 0.04725 0.0
H1291 H 0.82914 0.39924 0.06414 0.0
H1292 H 0.79532 0.34298 0.07098 0.0
H1293 H 0.82522 0.36243 0.07168 0.0
H1294 H 1.0038 0.37245 0.05585 0.0
C1295 C 0.98375 0.41372 0.05246 0.0
C1296 C 0.86792 0.39348 0.06241 0.0
C1297 C 0.99859 0.42498 0.05207 0.0
C1298 C 0.82822 0.34629 0.066 0.0
C1299 C 0.84467 0.35751 0.06634 0.0
C1300 C 0.96495 0.37819 0.05762 0.0
C1301 C 0.94599 0.40937 0.05942 0.0
C1302 C 0.93093 0.3973 0.05982 0.0
C1303 C 0.88565 0.3623 0.05989 0.0
C1304 C 0.90164 0.37436 0.06006 0.0
H1305 H 0.91971 0.43326 0.07073 0.0
H1306 H 0.89431 0.41358 0.07146 0.0
H1307 H 1.02879 0.39209 0.05563 0.0
H1308 H 0.91422 0.33933 0.04755 0.0
H1309 H 0.94162 0.35886 0.04803 0.0
C1310 C 0.49887 0.92491 0.05229 0.0
C1311 C 0.4758 0.93223 0.05878 0.0
C1312 C 0.48407 0.91365 0.05271 0.0
C1313 C 0.36732 0.89347 0.06252 0.0
H1314 H 0.50388 0.87241 0.05629 0.0
C1315 C 0.32713 0.84628 0.06614 0.0
C1316 C 0.35191 0.83949 0.0594 0.0
C1317 C 0.34354 0.85751 0.06649 0.0
C1318 C 0.46484 0.87816 0.05796 0.0
H1319 H 0.41822 0.93332 0.07078 0.0
H1320 H 0.39284 0.91363 0.07155 0.0
H1321 H 0.52889 0.89205 0.05605 0.0
H1322 H 0.41523 0.83927 0.04788 0.0
H1323 H 0.4426 0.8588 0.04837 0.0
H1324 H 0.30304 0.87958 0.06435 0.0
C1325 C 0.42213 0.91665 0.0661 0.0
C1326 C 0.47925 0.88945 0.05783 0.0
C1327 C 0.43721 0.92794 0.0657 0.0
C1328 C 0.3945 0.84423 0.05311 0.0
C1329 C 0.41087 0.85545 0.05346 0.0
C1330 C 0.35283 0.88216 0.06263 0.0
C1331 C 0.44567 0.90934 0.05963 0.0
C1332 C 0.43059 0.89728 0.06005 0.0
C1333 C 0.38528 0.86228 0.06012 0.0
C1334 C 0.40127 0.87434 0.0603 0.0
H1335 H 0.52946 0.92785 0.04693 0.0
H1336 H 0.50242 0.90833 0.04755 0.0
H1337 H 0.32835 0.89924 0.06417 0.0
H1338 H 0.29365 0.84299 0.07106 0.0
H1339 H 0.32349 0.86245 0.07178 0.0
C1340 C 0.82346 0.92477 0.19908 0.0
C1341 C 0.84625 0.93207 0.19256 0.0
C1342 C 0.83833 0.91352 0.19869 0.0
C1343 C 0.95484 0.89337 0.18885 0.0
H1344 H 0.81867 0.87224 0.19525 0.0
C1345 C 0.99501 0.84619 0.18527 0.0
C1346 C 0.97049 0.83939 0.19203 0.0
C1347 C 0.97858 0.85741 0.18492 0.0
C1348 C 0.8576 0.878 0.19353 0.0
H1349 H 0.90346 0.93315 0.18052 0.0
H1350 H 0.92895 0.91348 0.1798 0.0
H1351 H 0.7936 0.89186 0.19546 0.0
H1352 H 0.9076 0.83914 0.20359 0.0
H1353 H 0.88024 0.85866 0.20311 0.0
H1354 H 1.01907 0.87951 0.187 0.0
C1355 C 0.89982 0.9165 0.18526 0.0
C1356 C 0.84316 0.88929 0.19365 0.0
C1357 C 0.88467 0.92778 0.18564 0.0
C1358 C 0.92814 0.84411 0.19834 0.0
C1359 C 0.91176 0.85532 0.198 0.0
C1360 C 0.96936 0.88206 0.18875 0.0
C1361 C 0.87654 0.9092 0.19177 0.0
C1362 C 0.89167 0.89714 0.19137 0.0
C1363 C 0.93709 0.86216 0.19132 0.0
C1364 C 0.92106 0.87421 0.19114 0.0
H1365 H 0.79301 0.92771 0.20445 0.0
H1366 H 0.82019 0.9082 0.20388 0.0
H1367 H 0.9937 0.89916 0.18715 0.0
H1368 H 1.02829 0.84292 0.18033 0.0
H1369 H 0.99842 0.86236 0.17961 0.0
C1370 C 0.32508 0.42481 0.19909 0.0
C1371 C 0.34651 0.43207 0.19245 0.0
C1372 C 0.3398 0.41356 0.19868 0.0
C1373 C 0.4541 0.39332 0.18851 0.0
H1374 H 0.31914 0.37226 0.19547 0.0
C1375 C 0.49357 0.34611 0.18507 0.0
C1376 C 0.47028 0.33937 0.19195 0.0
C1377 C 0.47708 0.35732 0.18471 0.0
C1378 C 0.35776 0.37801 0.19359 0.0
H1379 H 0.40116 0.43307 0.1802 0.0
H1380 H 0.4264 0.41339 0.17946 0.0
H1381 H 0.29422 0.39189 0.19569 0.0
H1382 H 0.40943 0.33924 0.20371 0.0
H1383 H 0.38202 0.35875 0.20319 0.0
H1384 H 0.51789 0.37944 0.1865 0.0
C1385 C 0.39845 0.41645 0.18502 0.0
C1386 C 0.3434 0.3893 0.19371 0.0
C1387 C 0.38343 0.42773 0.1854 0.0
C1388 C 0.42904 0.34416 0.19837 0.0
C1389 C 0.41261 0.35536 0.19801 0.0
C1390 C 0.46855 0.38202 0.18841 0.0
C1391 C 0.37651 0.40919 0.19164 0.0
C1392 C 0.39148 0.39713 0.19123 0.0
C1393 C 0.43674 0.36214 0.19121 0.0
C1394 C 0.42071 0.37419 0.19101 0.0
H1395 H 0.29579 0.42779 0.20455 0.0
H1396 H 0.32273 0.40827 0.20396 0.0
H1397 H 0.49264 0.3991 0.18665 0.0
H1398 H 0.52597 0.34279 0.18006 0.0
H1399 H 0.49597 0.36222 0.17931 0.0
C1400 C 0.14219 0.595 0.94859 0.0
C1401 C 0.10115 0.59021 0.94216 0.0
C1402 C 0.15855 0.60621 0.94825 0.0
C1403 C 0.10253 0.63285 0.93873 0.0
H1404 H 0.27697 0.64281 0.94591 0.0
C1405 C 0.18756 0.6786 0.93569 0.0
C1406 C 0.2248 0.68295 0.9427 0.0
C1407 C 0.17245 0.66731 0.93533 0.0
C1408 C 0.22776 0.6402 0.94397 0.0
H1409 H 0.04568 0.59361 0.93026 0.0
H1410 H 0.07553 0.61307 0.92956 0.0
H1411 H 0.2521 0.62317 0.94569 0.0
H1412 H 0.27593 0.67869 0.95476 0.0
H1413 H 0.24876 0.65917 0.9542 0.0
H1414 H 0.07834 0.64992 0.93701 0.0
C1415 C 0.09435 0.60817 0.93495 0.0
C1416 C 0.21344 0.6289 0.94384 0.0
C1417 C 0.07794 0.59694 0.93529 0.0
C1418 C 0.24639 0.6757 0.94932 0.0
C1419 C 0.23154 0.66444 0.94894 0.0
C1420 C 0.11694 0.64416 0.93884 0.0
C1421 C 0.1345 0.61299 0.94146 0.0
C1422 C 0.15046 0.62505 0.94129 0.0
C1423 C 0.19458 0.66007 0.94192 0.0
C1424 C 0.17961 0.648 0.94152 0.0
H1425 H 0.16171 0.59008 0.95392 0.0
H1426 H 0.18903 0.60961 0.95344 0.0
H1427 H 0.05318 0.63024 0.93684 0.0
H1428 H 0.1697 0.68392 0.93051 0.0
H1429 H 0.14429 0.66424 0.92979 0.0
C1430 C 0.7423 0.17658 0.93526 0.0
C1431 C 0.72034 0.18324 0.94225 0.0
C1432 C 0.72579 0.16536 0.93491 0.0
C1433 C 0.60834 0.14453 0.94408 0.0
H1434 H 0.7422 0.1236 0.93665 0.0
C1435 C 0.57633 0.09766 0.94933 0.0
C1436 C 0.59678 0.09049 0.94259 0.0
C1437 C 0.59111 0.10892 0.94898 0.0
C1438 C 0.70393 0.12933 0.93865 0.0
H1439 H 0.66184 0.18326 0.95421 0.0
H1440 H 0.63439 0.16373 0.9537 0.0
H1441 H 0.76729 0.14327 0.93653 0.0
H1442 H 0.64982 0.08968 0.93021 0.0
H1443 H 0.67507 0.10937 0.92956 0.0
H1444 H 0.54522 0.13059 0.94628 0.0
C1445 C 0.66395 0.16718 0.94843 0.0
C1446 C 0.7183 0.14064 0.93856 0.0
C1447 C 0.6804 0.17839 0.94878 0.0
C1448 C 0.63284 0.09494 0.93549 0.0
C1449 C 0.64787 0.10623 0.93516 0.0
C1450 C 0.59406 0.13323 0.94418 0.0
C1451 C 0.68679 0.16047 0.94153 0.0
C1452 C 0.67083 0.14841 0.94133 0.0
C1453 C 0.62687 0.11339 0.94188 0.0
C1454 C 0.64177 0.12546 0.94152 0.0
H1455 H 0.77369 0.17996 0.93015 0.0
H1456 H 0.74364 0.16051 0.92943 0.0
H1457 H 0.57001 0.15024 0.9461 0.0
H1458 H 0.54772 0.0946 0.95484 0.0
H1459 H 0.5748 0.11413 0.95434 0.0
C1460 C 0.0805 0.17614 0.8162 0.0
C1461 C 0.10325 0.18289 0.8093 0.0
C1462 C 0.09693 0.16492 0.81652 0.0
C1463 C 0.21535 0.14423 0.80742 0.0
H1464 H 0.08103 0.12315 0.81456 0.0
C1465 C 0.24773 0.09741 0.80192 0.0
C1466 C 0.22676 0.09016 0.80859 0.0
C1467 C 0.233 0.10867 0.80233 0.0
C1468 C 0.11942 0.12892 0.81265 0.0
H1469 H 0.16306 0.18304 0.79745 0.0
H1470 H 0.19035 0.16353 0.79789 0.0
H1471 H 0.05585 0.14281 0.81476 0.0
H1472 H 0.17289 0.08918 0.82089 0.0
H1473 H 0.14767 0.10886 0.82165 0.0
H1474 H 0.27867 0.13035 0.80523 0.0
C1475 C 0.16024 0.16691 0.80313 0.0
C1476 C 0.10501 0.14023 0.81277 0.0
C1477 C 0.14387 0.17811 0.80282 0.0
C1478 C 0.19027 0.09451 0.81567 0.0
C1479 C 0.17526 0.10579 0.81606 0.0
C1480 C 0.22967 0.13294 0.80728 0.0
C1481 C 0.13665 0.16011 0.80995 0.0
C1482 C 0.15264 0.14805 0.81011 0.0
C1483 C 0.19675 0.11304 0.80941 0.0
C1484 C 0.1818 0.12511 0.80983 0.0
H1485 H 0.04857 0.17945 0.82127 0.0
H1486 H 0.07847 0.16001 0.82194 0.0
H1487 H 0.25382 0.14998 0.80549 0.0
H1488 H 0.27668 0.09443 0.79642 0.0
H1489 H 0.24971 0.11395 0.79703 0.0
C1490 C 0.64327 0.6782 0.803 0.0
C1491 C 0.60225 0.68298 0.80943 0.0
C1492 C 0.65958 0.66699 0.80333 0.0
C1493 C 0.60344 0.64034 0.8129 0.0
H1494 H 0.77766 0.63042 0.80561 0.0
C1495 C 0.68814 0.59462 0.81593 0.0
C1496 C 0.72513 0.59026 0.80889 0.0
C1497 C 0.67318 0.6059 0.81629 0.0
C1498 C 0.72851 0.63302 0.80759 0.0
H1499 H 0.54677 0.67956 0.82134 0.0
H1500 H 0.57656 0.66012 0.82205 0.0
H1501 H 0.75295 0.65005 0.80584 0.0
H1502 H 0.77599 0.59451 0.79679 0.0
H1503 H 0.7491 0.61403 0.79736 0.0
H1504 H 0.57917 0.62327 0.81465 0.0
C1505 C 0.59539 0.66502 0.81665 0.0
C1506 C 0.71428 0.64432 0.80771 0.0
C1507 C 0.57902 0.67624 0.81631 0.0
C1508 C 0.74665 0.5975 0.80225 0.0
C1509 C 0.73196 0.60876 0.80264 0.0
C1510 C 0.61777 0.62903 0.81279 0.0
C1511 C 0.63551 0.6602 0.81013 0.0
C1512 C 0.65138 0.64815 0.81031 0.0
C1513 C 0.69522 0.61314 0.80967 0.0
C1514 C 0.68035 0.62521 0.81007 0.0
H1515 H 0.66281 0.68312 0.79765 0.0
H1516 H 0.69002 0.6636 0.79813 0.0
H1517 H 0.55415 0.64293 0.81481 0.0
H1518 H 0.67034 0.5893 0.82113 0.0
H1519 H 0.6452 0.60898 0.82185 0.0
C1520 C 0.93408 0.92792 0.56573 0.0
C1521 C 0.97233 0.93226 0.5588 0.0
C1522 C 0.91931 0.91663 0.56612 0.0
C1523 C 0.97677 0.88949 0.55776 0.0
H1524 H 0.80105 0.87949 0.56439 0.0
C1525 C 0.89279 0.84422 0.55305 0.0
C1526 C 0.85054 0.83945 0.55937 0.0
C1527 C 0.90897 0.85544 0.5534 0.0
C1528 C 0.85071 0.88211 0.56264 0.0
H1529 H 1.0257 0.92796 0.54691 0.0
H1530 H 0.99918 0.90841 0.54751 0.0
H1531 H 0.8259 0.89917 0.56422 0.0
H1532 H 0.7927 0.8429 0.57107 0.0
H1533 H 0.82221 0.86237 0.5718 0.0
H1534 H 1.00172 0.87246 0.55618 0.0
C1535 C 0.98087 0.91371 0.55269 0.0
C1536 C 0.86494 0.89342 0.56254 0.0
C1537 C 0.99537 0.92498 0.55228 0.0
C1538 C 0.82592 0.84621 0.56614 0.0
C1539 C 0.84214 0.85745 0.56649 0.0
C1540 C 0.96263 0.87818 0.55789 0.0
C1541 C 0.94282 0.90935 0.55962 0.0
C1542 C 0.92803 0.89728 0.56003 0.0
C1543 C 0.88351 0.86225 0.56008 0.0
C1544 C 0.89924 0.87432 0.56027 0.0
H1545 H 0.91512 0.93327 0.57084 0.0
H1546 H 0.89029 0.91357 0.57159 0.0
H1547 H 1.02628 0.89212 0.55596 0.0
H1548 H 0.9134 0.83928 0.5478 0.0
H1549 H 0.94042 0.85882 0.5483 0.0
C1550 C 0.38452 0.34415 0.56574 0.0
C1551 C 0.34765 0.33978 0.5587 0.0
C1552 C 0.39959 0.35544 0.5661 0.0
C1553 C 0.34463 0.38253 0.55737 0.0
H1554 H 0.51889 0.39251 0.56461 0.0
C1555 C 0.43033 0.42772 0.55274 0.0
C1556 C 0.47114 0.43253 0.55918 0.0
C1557 C 0.41394 0.4165 0.55308 0.0
C1558 C 0.46962 0.38989 0.56269 0.0
H1559 H 0.29713 0.344 0.54659 0.0
H1560 H 0.32421 0.36353 0.54715 0.0
H1561 H 0.49376 0.37283 0.56446 0.0
H1562 H 0.52617 0.42916 0.57112 0.0
H1563 H 0.49627 0.4097 0.57184 0.0
H1564 H 0.32034 0.39955 0.5556 0.0
C1565 C 0.34118 0.35827 0.55243 0.0
C1566 C 0.45524 0.37858 0.56259 0.0
C1567 C 0.32638 0.347 0.55205 0.0
C1568 C 0.49409 0.42581 0.56608 0.0
C1569 C 0.47766 0.41458 0.56643 0.0
C1570 C 0.35893 0.39383 0.55749 0.0
C1571 C 0.37777 0.36266 0.55947 0.0
C1572 C 0.3927 0.37473 0.55986 0.0
C1573 C 0.43774 0.40974 0.5599 0.0
C1574 C 0.42179 0.39768 0.56009 0.0
H1575 H 0.40214 0.33884 0.57095 0.0
H1576 H 0.42746 0.35853 0.57165 0.0
H1577 H 0.29552 0.3799 0.55539 0.0
H1578 H 0.41101 0.43262 0.54738 0.0
H1579 H 0.38366 0.41309 0.54788 0.0
C1580 C 0.93825 0.34437 0.68561 0.0
C1581 C 0.97576 0.34005 0.6926 0.0
C1582 C 0.92323 0.35565 0.68523 0.0
C1583 C 0.97921 0.3828 0.69373 0.0
H1584 H 0.80405 0.39266 0.68686 0.0
C1585 C 0.89403 0.42793 0.69847 0.0
C1586 C 0.85236 0.4327 0.69212 0.0
C1587 C 0.91042 0.41673 0.69811 0.0
C1588 C 0.85356 0.39008 0.68867 0.0
H1589 H 1.02749 0.34436 0.70461 0.0
H1590 H 1.00051 0.36388 0.70401 0.0
H1591 H 0.82919 0.373 0.68701 0.0
H1592 H 0.79582 0.42928 0.68031 0.0
H1593 H 0.82573 0.40985 0.67954 0.0
H1594 H 1.00374 0.39984 0.6954 0.0
C1595 C 0.983 0.35858 0.69878 0.0
C1596 C 0.86794 0.37878 0.68877 0.0
C1597 C 0.99775 0.34733 0.69918 0.0
C1598 C 0.82857 0.42597 0.68528 0.0
C1599 C 0.84501 0.41475 0.68491 0.0
C1600 C 0.96491 0.39409 0.69361 0.0
C1601 C 0.94574 0.36292 0.69179 0.0
C1602 C 0.93082 0.37498 0.69137 0.0
C1603 C 0.88578 0.40995 0.69135 0.0
C1604 C 0.90172 0.3979 0.69115 0.0
H1605 H 0.92011 0.33902 0.68045 0.0
H1606 H 0.89482 0.3587 0.67971 0.0
H1607 H 1.02856 0.38021 0.69561 0.0
H1608 H 0.914 0.43286 0.70378 0.0
H1609 H 0.94137 0.41335 0.70324 0.0
C1610 C 0.47281 0.84544 0.70105 0.0
C1611 C 0.47281 0.83932 0.6932 0.0
C1612 C 0.45747 0.85668 0.70104 0.0
C1613 C 0.37783 0.87872 0.68771 0.0
H1614 H 0.47819 0.89811 0.70299 0.0
C1615 C 0.3559 0.92632 0.68583 0.0
C1616 C 0.35327 0.93213 0.69382 0.0
C1617 C 0.37113 0.91506 0.68566 0.0
C1618 C 0.4492 0.89281 0.69874 0.0
H1619 H 0.45512 0.84034 0.67918 0.0
H1620 H 0.42975 0.85998 0.67913 0.0
H1621 H 0.50236 0.87845 0.70283 0.0
H1622 H 0.36603 0.93059 0.7079 0.0
H1623 H 0.39214 0.91096 0.70762 0.0
H1624 H 0.32495 0.89313 0.6836 0.0
C1625 C 0.44099 0.85604 0.68533 0.0
C1626 C 0.46299 0.8815 0.69866 0.0
C1627 C 0.45629 0.84477 0.68534 0.0
C1628 C 0.36716 0.92639 0.70163 0.0
C1629 C 0.38272 0.91514 0.70146 0.0
C1630 C 0.36418 0.89005 0.68778 0.0
C1631 C 0.44185 0.86218 0.69317 0.0
C1632 C 0.42735 0.87428 0.69317 0.0
C1633 C 0.38446 0.9093 0.69347 0.0
C1634 C 0.39955 0.89724 0.69332 0.0
H1635 H 0.48609 0.8416 0.70722 0.0
H1636 H 0.45775 0.86107 0.70723 0.0
H1637 H 0.34866 0.87343 0.68349 0.0
H1638 H 0.34468 0.93041 0.67969 0.0
H1639 H 0.37269 0.91088 0.67938 0.0
C1640 C 0.07684 0.09692 0.43513 0.0
C1641 C 0.10087 0.09017 0.44194 0.0
C1642 C 0.09324 0.10815 0.43478 0.0
C1643 C 0.21342 0.12885 0.44346 0.0
H1644 H 0.07757 0.14989 0.43695 0.0
C1645 C 0.24665 0.17563 0.44905 0.0
C1646 C 0.22441 0.18291 0.44248 0.0
C1647 C 0.23186 0.16437 0.44864 0.0
C1648 C 0.11636 0.14413 0.43868 0.0
H1649 H 0.16288 0.09 0.45357 0.0
H1650 H 0.19018 0.10953 0.45306 0.0
H1651 H 0.05239 0.13022 0.43678 0.0
H1652 H 0.16827 0.18394 0.43038 0.0
H1653 H 0.14291 0.16425 0.42963 0.0
H1654 H 0.27716 0.14276 0.44545 0.0
C1655 C 0.15907 0.10615 0.44793 0.0
C1656 C 0.10195 0.13282 0.43858 0.0
C1657 C 0.14272 0.09494 0.44829 0.0
C1658 C 0.18661 0.17859 0.43552 0.0
C1659 C 0.17154 0.1673 0.43513 0.0
C1660 C 0.22775 0.14015 0.44359 0.0
C1661 C 0.13421 0.11295 0.44121 0.0
C1662 C 0.15016 0.12501 0.44102 0.0
C1663 C 0.1943 0.16002 0.44167 0.0
C1664 C 0.17932 0.14796 0.44126 0.0
H1665 H 0.04395 0.09361 0.43017 0.0
H1666 H 0.07378 0.11307 0.42944 0.0
H1667 H 0.25229 0.12312 0.44522 0.0
H1668 H 0.27662 0.17859 0.45445 0.0
H1669 H 0.24957 0.15907 0.45386 0.0
C1670 C 0.74418 0.67647 0.43532 0.0
C1671 C 0.72085 0.6832 0.44219 0.0
C1672 C 0.72767 0.66525 0.43497 0.0
C1673 C 0.60822 0.64453 0.44382 0.0
H1674 H 0.74341 0.6235 0.43701 0.0
C1675 C 0.57503 0.59772 0.4493 0.0
C1676 C 0.5968 0.59048 0.44269 0.0
C1677 C 0.58988 0.60898 0.44892 0.0
C1678 C 0.70479 0.62926 0.43883 0.0
H1679 H 0.65997 0.68332 0.45394 0.0
H1680 H 0.63247 0.6638 0.45344 0.0
H1681 H 0.76866 0.64317 0.43686 0.0
H1682 H 0.65218 0.58951 0.4305 0.0
H1683 H 0.67758 0.6092 0.42978 0.0
H1684 H 0.54457 0.63062 0.44588 0.0
C1685 C 0.66311 0.6672 0.44825 0.0
C1686 C 0.71925 0.64057 0.43873 0.0
C1687 C 0.67958 0.67841 0.4486 0.0
C1688 C 0.63419 0.59483 0.43568 0.0
C1689 C 0.64929 0.60612 0.43531 0.0
C1690 C 0.59384 0.63323 0.44394 0.0
C1691 C 0.6873 0.66043 0.44147 0.0
C1692 C 0.67128 0.64837 0.44128 0.0
C1693 C 0.62701 0.61336 0.44191 0.0
C1694 C 0.64203 0.62543 0.44151 0.0
H1695 H 0.77662 0.6798 0.4303 0.0
H1696 H 0.7466 0.66036 0.42958 0.0
H1697 H 0.56953 0.65026 0.44567 0.0
H1698 H 0.54538 0.59473 0.45474 0.0
H1699 H 0.57254 0.61426 0.45417 0.0
C1700 C 0.18038 0.59506 0.30301 0.0
C1701 C 0.22082 0.59023 0.30948 0.0
C1702 C 0.16406 0.60627 0.30337 0.0
C1703 C 0.21927 0.63286 0.31313 0.0
H1704 H 0.04587 0.64282 0.3056 0.0
C1705 C 0.13422 0.67857 0.31615 0.0
C1706 C 0.09799 0.68296 0.30908 0.0
C1707 C 0.14918 0.66729 0.31652 0.0
C1708 C 0.0948 0.64021 0.30765 0.0
H1709 H 0.27522 0.59356 0.32147 0.0
H1710 H 0.24539 0.613 0.32223 0.0
H1711 H 0.07052 0.62319 0.3058 0.0
H1712 H 0.0485 0.67877 0.29688 0.0
H1713 H 0.07538 0.65925 0.29744 0.0
H1714 H 0.24337 0.64992 0.31498 0.0
C1715 C 0.22705 0.60814 0.31678 0.0
C1716 C 0.109 0.62891 0.30776 0.0
C1717 C 0.24343 0.59692 0.31641 0.0
C1718 C 0.07725 0.67575 0.30238 0.0
C1719 C 0.09193 0.66449 0.30275 0.0
C1720 C 0.20497 0.64416 0.31304 0.0
C1721 C 0.18752 0.61301 0.31023 0.0
C1722 C 0.17162 0.62506 0.31043 0.0
C1723 C 0.12788 0.66008 0.30984 0.0
C1724 C 0.14269 0.64801 0.31023 0.0
H1725 H 0.1613 0.59018 0.29762 0.0
H1726 H 0.1341 0.60969 0.29815 0.0
H1727 H 0.26836 0.63025 0.31511 0.0
H1728 H 0.15142 0.68387 0.3214 0.0
H1729 H 0.17655 0.66418 0.3221 0.0
C1730 C 0.6805 0.09503 0.30266 0.0
C1731 C 0.72134 0.09025 0.3091 0.0
C1732 C 0.66417 0.10624 0.303 0.0
C1733 C 0.71993 0.13289 0.31259 0.0
H1734 H 0.5457 0.14278 0.30533 0.0
C1735 C 0.63477 0.17857 0.31572 0.0
C1736 C 0.59762 0.18294 0.30871 0.0
C1737 C 0.64991 0.16729 0.31605 0.0
C1738 C 0.59486 0.14019 0.3073 0.0
H1739 H 0.77649 0.09365 0.32103 0.0
H1740 H 0.74667 0.11309 0.32174 0.0
H1741 H 0.57059 0.12315 0.30552 0.0
H1742 H 0.5467 0.17872 0.29663 0.0
H1743 H 0.57394 0.15921 0.29713 0.0
H1744 H 0.74404 0.14996 0.31436 0.0
C1745 C 0.728 0.1082 0.31633 0.0
C1746 C 0.60919 0.1289 0.3074 0.0
C1747 C 0.74438 0.09698 0.31599 0.0
C1748 C 0.57617 0.17572 0.30206 0.0
C1749 C 0.59105 0.16447 0.30241 0.0
C1750 C 0.70551 0.14419 0.3125 0.0
C1751 C 0.68804 0.11302 0.3098 0.0
C1752 C 0.67209 0.12507 0.30999 0.0
C1753 C 0.62791 0.16007 0.30942 0.0
C1754 C 0.64292 0.14801 0.30979 0.0
H1755 H 0.66112 0.09012 0.29731 0.0
H1756 H 0.63385 0.10964 0.2978 0.0
H1757 H 0.76922 0.1303 0.3145 0.0
H1758 H 0.65254 0.18387 0.32093 0.0
H1759 H 0.67798 0.1642 0.32158 0.0
C1760 C 0.17938 0.50523 0.09173 0.0
C1761 C 0.11433 0.50592 0.08853 0.0
C1762 C 0.19293 0.50684 0.10065 0.0
C1763 C 0.11583 0.51564 0.12217 0.0
H1764 H 0.26247 0.49881 0.13168 0.0
C1765 C 0.14999 0.50387 0.15895 0.0
C1766 C 0.21266 0.5058 0.16269 0.0
C1767 C 0.13919 0.50557 0.14998 0.0
C1768 C 0.22186 0.50366 0.12911 0.0
H1769 H 1.01229 0.50907 0.09209 0.0
H1770 H 1.03475 0.51122 0.10777 0.0
H1771 H 0.24024 0.49825 0.11603 0.0
H1772 H 0.31299 0.51121 0.16 0.0
H1773 H 0.29481 0.51376 0.14414 0.0
H1774 H 0.09547 0.52038 0.13551 0.0
C1775 C 0.07621 0.50982 0.1034 0.0
C1776 C 0.20908 0.50342 0.12007 0.0
C1777 C 0.06298 0.50853 0.0944 0.0
C1778 C 0.26421 0.50967 0.15728 0.0
C1779 C 0.25383 0.5111 0.14823 0.0
C1780 C 0.12777 0.51566 0.13125 0.0
C1781 C 0.14145 0.50883 0.10671 0.0
C1782 C 0.15579 0.5094 0.11641 0.0
C1783 C 0.19125 0.509 0.14448 0.0
C1784 C 0.1809 0.50966 0.13481 0.0
H1785 H 0.22009 0.5034 0.08732 0.0
H1786 H 0.2441 0.50641 0.10275 0.0
H1787 H 0.07516 0.52055 0.11969 0.0
H1788 H 0.10925 0.50094 0.16297 0.0
H1789 H 0.09063 0.50382 0.14727 0.0
C1790 C 0.14377 0.7665 0.09181 0.0
C1791 C 0.20892 0.76589 0.08861 0.0
C1792 C 0.13009 0.76481 0.10071 0.0
C1793 C 0.20702 0.75597 0.12221 0.0
H1794 H 0.06009 0.77275 0.13176 0.0
C1795 C 0.17263 0.76771 0.15899 0.0
C1796 C 0.10988 0.76583 0.16274 0.0
C1797 C 0.18348 0.76598 0.15002 0.0
C1798 C 0.10077 0.7679 0.12917 0.0
H1799 H 0.311 0.76282 0.09216 0.0
H1800 H 0.28829 0.76054 0.10784 0.0
H1801 H 0.08246 0.77334 0.1161 0.0
H1802 H 1.00946 0.76047 0.16007 0.0
H1803 H 1.02773 0.75786 0.14422 0.0
H1804 H 0.22731 0.75121 0.13554 0.0
C1805 C 0.24687 0.76192 0.10347 0.0
C1806 C 0.11363 0.76817 0.12014 0.0
C1807 C 0.26024 0.7633 0.09447 0.0
C1808 C 0.05831 0.76198 0.15735 0.0
C1809 C 0.06874 0.76051 0.1483 0.0
C1810 C 0.19498 0.75593 0.13129 0.0
C1811 C 0.18153 0.76283 0.10678 0.0
C1812 C 0.16704 0.76222 0.11647 0.0
C1813 C 0.13139 0.76257 0.14454 0.0
C1814 C 0.14176 0.76192 0.13487 0.0
H1815 H 0.10308 0.76831 0.0874 0.0
H1816 H 0.07887 0.76518 0.10281 0.0
H1817 H 0.24779 0.75109 0.11973 0.0
H1818 H 0.21339 0.77063 0.163 0.0
H1819 H 0.23209 0.7677 0.1473 0.0
C1820 C 0.92214 0.51839 0.84245 0.0
C1821 C 0.85946 0.51646 0.83871 0.0
C1822 C 0.93293 0.51669 0.85143 0.0
C1823 C 0.85 0.51855 0.8723 0.0
H1824 H 0.99756 0.50187 0.88171 0.0
C1825 C 0.89291 0.51711 0.90966 0.0
C1826 C 0.95806 0.51655 0.91285 0.0
C1827 C 0.87932 0.51544 0.90076 0.0
C1828 C 0.95663 0.50672 0.87923 0.0
H1829 H 0.75912 0.51105 0.84141 0.0
H1830 H 0.7773 0.5085 0.85726 0.0
H1831 H 0.97716 0.502 0.8659 0.0
H1832 H 0.06025 0.51358 0.90927 0.0
H1833 H 0.03767 0.51132 0.8936 0.0
H1834 H 0.83141 0.52395 0.88538 0.0
C1835 C 0.81829 0.51116 0.85317 0.0
C1836 C 0.94464 0.50668 0.87015 0.0
C1837 C 0.80791 0.51259 0.84412 0.0
C1838 C 1.00948 0.51401 0.90698 0.0
C1839 C 0.99618 0.51266 0.89798 0.0
C1840 C 0.8628 0.51881 0.88133 0.0
C1841 C 0.88087 0.51326 0.85692 0.0
C1842 C 0.89123 0.51262 0.86659 0.0
C1843 C 0.93083 0.51352 0.89468 0.0
C1844 C 0.91641 0.51291 0.88499 0.0
H1845 H 0.96288 0.52132 0.83843 0.0
H1846 H 0.98149 0.51844 0.85413 0.0
H1847 H 0.80914 0.52336 0.86973 0.0
H1848 H 0.85214 0.51888 0.91409 0.0
H1849 H 0.82809 0.51577 0.89867 0.0
C1850 C 1.01513 0.2605 0.84413 0.0
C1851 C 0.96351 0.25665 0.83874 0.0
C1852 C 1.0047 0.26199 0.85318 0.0
C1853 C 0.87833 0.26663 0.87017 0.0
H1854 H 0.99119 0.24933 0.8854 0.0
C1855 C 0.81334 0.25938 0.90702 0.0
C1856 C 0.86473 0.25683 0.91288 0.0
C1857 C 0.82665 0.26072 0.89802 0.0
C1858 C 0.95992 0.25448 0.88135 0.0
H1859 H 0.85985 0.25191 0.83848 0.0
H1860 H 0.84124 0.25489 0.85418 0.0
H1861 H 1.01348 0.24987 0.86974 0.0
H1862 H 0.97062 0.25447 0.91409 0.0
H1863 H 0.99471 0.25756 0.89867 0.0
H1864 H 0.82549 0.27149 0.88173 0.0
C1865 C 0.88985 0.25658 0.85146 0.0
C1866 C 0.97273 0.25471 0.87232 0.0
C1867 C 0.90069 0.25482 0.84249 0.0
C1868 C 0.92988 0.25625 0.90968 0.0
C1869 C 0.94349 0.25791 0.90077 0.0
C1870 C 0.86632 0.26662 0.87925 0.0
C1871 C 0.94201 0.25997 0.85694 0.0
C1872 C 0.93163 0.26066 0.86661 0.0
C1873 C 0.89199 0.25983 0.89471 0.0
C1874 C 0.90643 0.26042 0.88501 0.0
H1875 H 0.06399 0.26197 0.84141 0.0
H1876 H 0.04578 0.26463 0.85725 0.0
H1877 H 0.84592 0.27132 0.86591 0.0
H1878 H 0.76257 0.25983 0.90933 0.0
H1879 H 0.78519 0.26207 0.89365 0.0
C1880 C 0.05413 1.00924 0.59425 0.0
C1881 C 0.10588 1.00634 0.58854 0.0
C1882 C 0.06643 1.01078 0.60325 0.0
C1883 C 0.19674 1.00461 0.6203 0.0
H1884 H 0.0836 0.02248 0.63514 0.0
C1885 C 0.25095 0.01184 0.6573 0.0
C1886 C 0.19904 1.00823 0.66275 0.0
C1887 C 0.24063 0.01318 0.64824 0.0
C1888 C 0.11575 0.0175 0.63105 0.0
H1889 H 0.21154 1.00351 0.58759 0.0
H1890 H 0.23403 1.00693 0.60301 0.0
H1891 H 0.06468 0.02209 0.6193 0.0
H1892 H 0.09498 1.00379 0.66313 0.0
H1893 H 0.07644 1.00652 0.64739 0.0
H1894 H 0.24863 1.00029 0.6321 0.0
C1895 C 0.18316 1.00741 0.60079 0.0
C1896 C 0.10461 0.01717 0.62195 0.0
C1897 C 0.17049 1.00556 0.59189 0.0
C1898 C 0.13593 1.00655 0.65907 0.0
C1899 C 0.12522 1.00816 0.65008 0.0
C1900 C 0.20874 1.00516 0.62935 0.0
C1901 C 0.13117 1.00973 0.60671 0.0
C1902 C 0.14448 1.0106 0.61642 0.0
C1903 C 0.17779 1.01122 0.64453 0.0
C1904 C 0.16798 0.0115 0.63484 0.0
H1905 H 1.00377 1.00986 0.59183 0.0
H1906 H 1.02461 0.01242 0.60751 0.0
H1907 H 0.22771 0.99919 0.61644 0.0
H1908 H 0.30013 0.01316 0.65996 0.0
H1909 H 0.28198 0.01557 0.64411 0.0
C1910 C 0.2603 0.26351 0.59444 0.0
C1911 C 0.20894 0.26607 0.58858 0.0
C1912 C 0.24702 0.26221 0.60345 0.0
C1913 C 0.11394 0.26858 0.62011 0.0
H1914 H 0.22778 0.25173 0.63557 0.0
C1915 C 0.05886 0.2625 0.65735 0.0
C1916 C 0.1103 0.26644 0.66272 0.0
C1917 C 0.06927 0.26101 0.6483 0.0
C1918 C 0.19541 0.25643 0.63131 0.0
H1919 H 0.10312 0.26851 0.58738 0.0
H1920 H 0.07904 0.26549 0.60281 0.0
H1921 H 0.24813 0.25151 0.61976 0.0
H1922 H 0.21363 0.27135 0.66296 0.0
H1923 H 0.23234 0.26838 0.64727 0.0
H1924 H 0.06044 0.27322 0.63172 0.0
C1925 C 0.13024 0.2651 0.6007 0.0
C1926 C 0.20737 0.25641 0.62223 0.0
C1927 C 0.14384 0.26672 0.59179 0.0
C1928 C 0.17296 0.26837 0.65896 0.0
C1929 C 0.18382 0.26661 0.64999 0.0
C1930 C 0.10114 0.26837 0.62915 0.0
C1931 C 0.18173 0.26316 0.60676 0.0
C1932 C 0.16733 0.26261 0.61646 0.0
C1933 C 0.13183 0.26312 0.64453 0.0
C1934 C 0.14218 0.26242 0.63486 0.0
H1935 H 0.31104 0.263 0.59213 0.0
H1936 H 0.28848 0.26085 0.60782 0.0
H1937 H 0.08271 0.27373 0.61606 0.0
H1938 H 1.01009 0.26094 0.66008 0.0
H1939 H 1.02835 0.2583 0.64423 0.0
C1940 C 0.8988 0.01854 0.40888 0.0
C1941 C 0.9615 0.01667 0.41262 0.0
C1942 C 0.88806 0.01682 0.3999 0.0
C1943 C 0.9711 0.01879 0.37903 0.0
H1944 H 0.82391 1.00196 0.36961 0.0
C1945 C 0.92876 0.01728 0.34166 0.0
C1946 C 0.86367 0.01665 0.33846 0.0
C1947 C 0.94223 0.01563 0.35057 0.0
C1948 C 0.86473 1.00685 0.37208 0.0
H1949 H 0.06194 0.01137 0.40993 0.0
H1950 H 0.04385 1.0088 0.39408 0.0
H1951 H 0.84415 1.0021 0.38542 0.0
H1952 H 0.76146 0.0136 0.34202 0.0
H1953 H 0.78382 0.01137 0.3577 0.0
H1954 H 0.98974 0.0242 0.36596 0.0
C1955 C 1.00281 0.01142 0.39816 0.0
C1956 C 0.87663 1.00682 0.38117 0.0
C1957 C 1.01313 0.01286 0.40722 0.0
C1958 C 0.81218 0.01408 0.34432 0.0
C1959 C 0.82535 0.01275 0.35333 0.0
C1960 C 0.95839 0.01903 0.37 0.0
C1961 C 0.9402 0.01346 0.39441 0.0
C1962 C 0.92991 0.01281 0.38474 0.0
C1963 C 0.89064 0.01367 0.35664 0.0
C1964 C 0.90493 0.01308 0.36633 0.0
H1965 H 0.858 0.02142 0.4129 0.0
H1966 H 0.83948 0.01853 0.39719 0.0
H1967 H 1.01185 0.02363 0.38161 0.0
H1968 H 0.96957 0.01908 0.33725 0.0
H1969 H 0.99341 0.016 0.35268 0.0
C1970 C 0.90058 0.75501 0.34254 0.0
C1971 C 0.96328 0.7569 0.33878 0.0
C1972 C 0.88982 0.75674 0.35152 0.0
C1973 C 0.97282 0.75484 0.37236 0.0
H1974 H 0.82556 0.77157 0.38182 0.0
C1975 C 0.93008 0.75625 0.40973 0.0
C1976 C 0.86495 0.75683 0.41294 0.0
C1977 C 0.94367 0.75793 0.40083 0.0
C1978 C 0.8664 0.76671 0.37933 0.0
H1979 H 0.0637 0.76228 0.34144 0.0
H1980 H 0.04559 0.76487 0.35729 0.0
H1981 H 0.84589 0.77145 0.366 0.0
H1982 H 0.76279 0.75985 0.4094 0.0
H1983 H 0.78535 0.76213 0.39372 0.0
H1984 H 0.99138 0.74942 0.38543 0.0
C1985 C 1.00455 0.76222 0.35322 0.0
C1986 C 0.87835 0.76675 0.37025 0.0
C1987 C 1.01489 0.76076 0.34416 0.0
C1988 C 0.81355 0.75939 0.40709 0.0
C1989 C 0.82683 0.76076 0.39808 0.0
C1990 C 0.96006 0.75457 0.3814 0.0
C1991 C 0.94195 0.76015 0.35699 0.0
C1992 C 0.93166 0.7608 0.36667 0.0
C1993 C 0.89216 0.75988 0.39477 0.0
C1994 C 0.90656 0.7605 0.38507 0.0
H1995 H 0.85979 0.75209 0.33854 0.0
H1996 H 0.84125 0.755 0.35424 0.0
H1997 H 1.01359 0.75002 0.36977 0.0
H1998 H 0.97084 0.75445 0.41414 0.0
H1999 H 0.99488 0.75758 0.39872 0.0
C2000 C 0.67923 0.50535 0.59178 0.0
C2001 C 0.61409 0.50596 0.58859 0.0
C2002 C 0.69289 0.507 0.60068 0.0
C2003 C 0.61584 0.51574 0.62222 0.0
H2004 H 0.76304 0.499 0.63169 0.0
C2005 C 0.6505 0.50398 0.65898 0.0
C2006 C 0.71322 0.5059 0.66271 0.0
C2007 C 0.63961 0.5057 0.65001 0.0
C2008 C 0.72227 0.50383 0.62913 0.0
H2009 H 0.51199 0.509 0.59218 0.0
H2010 H 0.53466 0.51122 0.60785 0.0
H2011 H 0.74066 0.49844 0.61604 0.0
H2012 H 0.81353 0.51132 0.66001 0.0
H2013 H 0.79519 0.51389 0.64416 0.0
H2014 H 0.59551 0.52046 0.63556 0.0
C2015 C 0.5761 0.50986 0.60347 0.0
C2016 C 0.70941 0.50359 0.6201 0.0
C2017 C 0.56275 0.50852 0.59447 0.0
C2018 C 0.76471 0.50978 0.6573 0.0
C2019 C 0.75425 0.51122 0.64825 0.0
C2020 C 0.62789 0.51576 0.6313 0.0
C2021 C 0.64143 0.50894 0.60676 0.0
C2022 C 0.65591 0.50953 0.61645 0.0
C2023 C 0.69163 0.50913 0.64451 0.0
C2024 C 0.6812 0.50979 0.63484 0.0
H2025 H 0.71994 0.50355 0.58735 0.0
H2026 H 0.74411 0.50663 0.60277 0.0
H2027 H 0.57501 0.52062 0.61975 0.0
H2028 H 0.60979 0.50105 0.66301 0.0
H2029 H 0.59104 0.50395 0.64731 0.0
C2030 C 0.64289 0.76653 0.59187 0.0
C2031 C 0.70798 0.76594 0.58865 0.0
C2032 C 0.62943 0.7649 0.60079 0.0
C2033 C 0.70712 0.75625 0.62229 0.0
H2034 H 0.55964 0.77289 0.63183 0.0
C2035 C 0.67281 0.76808 0.65906 0.0
C2036 C 0.61034 0.76603 0.66283 0.0
C2037 C 0.68355 0.76638 0.65008 0.0
C2038 C 0.60049 0.76809 0.62925 0.0
H2039 H 0.8102 0.76295 0.59218 0.0
H2040 H 0.78787 0.76077 0.60787 0.0
H2041 H 0.58168 0.77344 0.61617 0.0
H2042 H 0.51032 0.76043 0.66021 0.0
H2043 H 0.52838 0.75789 0.64435 0.0
H2044 H 0.72788 0.75158 0.63563 0.0
C2045 C 0.74632 0.7621 0.60351 0.0
C2046 C 0.61316 0.76832 0.62021 0.0
C2047 C 0.75947 0.76342 0.5945 0.0
C2048 C 0.55895 0.76207 0.65747 0.0
C2049 C 0.56924 0.76064 0.64841 0.0
C2050 C 0.69527 0.75624 0.63138 0.0
C2051 C 0.68103 0.76299 0.60684 0.0
C2052 C 0.66676 0.76241 0.61654 0.0
C2053 C 0.63162 0.76285 0.64462 0.0
C2054 C 0.64186 0.76218 0.63495 0.0
H2055 H 0.60208 0.7683 0.58747 0.0
H2056 H 0.57824 0.76525 0.6029 0.0
H2057 H 0.74803 0.7514 0.61981 0.0
H2058 H 0.71343 0.77108 0.66305 0.0
H2059 H 0.73193 0.76821 0.64734 0.0
C2060 C 0.42262 0.5184 0.34247 0.0
C2061 C 0.35975 0.51662 0.33874 0.0
C2062 C 0.43338 0.51669 0.35144 0.0
C2063 C 0.35067 0.51883 0.37232 0.0
H2064 H 0.49692 0.50187 0.38177 0.0
C2065 C 0.39313 0.51739 0.40969 0.0
C2066 C 0.45818 0.51669 0.41289 0.0
C2067 C 0.37954 0.51574 0.40078 0.0
C2068 C 0.45638 0.50679 0.37929 0.0
H2069 H 0.25901 0.51144 0.34146 0.0
H2070 H 0.27716 0.50887 0.35732 0.0
H2071 H 0.47656 0.50198 0.36596 0.0
H2072 H 0.56018 0.51349 0.40934 0.0
H2073 H 0.53764 0.51127 0.39366 0.0
H2074 H 0.33247 0.52432 0.38538 0.0
C2075 C 0.31832 0.51143 0.35321 0.0
C2076 C 0.4444 0.50675 0.3702 0.0
C2077 C 0.30796 0.51287 0.34416 0.0
C2078 C 0.50948 0.51404 0.40703 0.0
C2079 C 0.49621 0.5127 0.39803 0.0
C2080 C 0.36347 0.5191 0.38135 0.0
C2081 C 0.38109 0.5134 0.35695 0.0
C2082 C 0.39144 0.51278 0.36663 0.0
C2083 C 0.43098 0.5137 0.39472 0.0
C2084 C 0.4166 0.51309 0.38503 0.0
H2085 H 0.46355 0.52124 0.33843 0.0
H2086 H 0.4821 0.51835 0.35414 0.0
H2087 H 0.3102 0.52371 0.36973 0.0
H2088 H 0.35244 0.51925 0.4141 0.0
H2089 H 0.32837 0.51617 0.39868 0.0
C2090 C 0.42239 0.25495 0.40898 0.0
C2091 C 0.35963 0.2568 0.41273 0.0
C2092 C 0.43326 0.25668 0.40001 0.0
C2093 C 0.35059 0.25471 0.37916 0.0
H2094 H 0.49764 0.2716 0.36971 0.0
C2095 C 0.39341 0.25622 0.34179 0.0
C2096 C 0.45854 0.25687 0.33858 0.0
C2097 C 0.3798 0.25787 0.3507 0.0
C2098 C 0.45686 0.2667 0.3722 0.0
H2099 H 0.25922 0.26211 0.41005 0.0
H2100 H 0.27753 0.26471 0.3942 0.0
H2101 H 0.47718 0.27145 0.38553 0.0
H2102 H 0.56066 0.25997 0.34213 0.0
H2103 H 0.53805 0.2622 0.35781 0.0
H2104 H 0.33224 0.24928 0.36608 0.0
C2105 C 0.31853 0.26209 0.39828 0.0
C2106 C 0.44484 0.26672 0.38128 0.0
C2107 C 0.30808 0.26063 0.40733 0.0
C2108 C 0.5099 0.25947 0.34444 0.0
C2109 C 0.4966 0.26081 0.35344 0.0
C2110 C 0.36344 0.25446 0.37012 0.0
C2111 C 0.38119 0.26006 0.39452 0.0
C2112 C 0.39159 0.26071 0.38485 0.0
C2113 C 0.43128 0.25986 0.35675 0.0
C2114 C 0.41685 0.26045 0.36645 0.0
H2115 H 0.46314 0.25206 0.413 0.0
H2116 H 0.48188 0.25498 0.3973 0.0
H2117 H 0.30989 0.24985 0.38174 0.0
H2118 H 0.35269 0.25439 0.33738 0.0
H2119 H 0.32859 0.25748 0.3528 0.0
C2120 C 0.75983 1.00852 0.15687 0.0
C2121 C 0.7085 1.00588 0.16273 0.0
C2122 C 0.74656 1.00985 0.14786 0.0
C2123 C 0.61354 1.00349 0.13119 0.0
H2124 H 0.72723 0.02054 0.11578 0.0
C2125 C 0.55833 1.0098 0.09399 0.0
C2126 C 0.60988 1.00597 0.08858 0.0
C2127 C 0.56873 1.01122 0.10305 0.0
C2128 C 0.6949 0.01579 0.12003 0.0
H2129 H 0.6027 1.00332 0.16395 0.0
H2130 H 0.57864 1.0064 0.14853 0.0
H2131 H 0.74761 0.02065 0.13159 0.0
H2132 H 0.71332 1.00119 0.08829 0.0
H2133 H 0.73197 1.00405 0.10399 0.0
H2134 H 0.56006 0.9989 0.11958 0.0
C2135 C 0.62983 1.00683 0.15063 0.0
C2136 C 0.70689 0.01575 0.12912 0.0
C2137 C 0.64342 1.00518 0.15953 0.0
C2138 C 0.67258 1.00408 0.09231 0.0
C2139 C 0.6834 1.00578 0.10129 0.0
C2140 C 0.60073 1.00376 0.12216 0.0
C2141 C 0.68129 1.00886 0.14456 0.0
C2142 C 0.6669 1.00947 0.13486 0.0
C2143 C 0.63134 1.00915 0.10679 0.0
C2144 C 0.64171 1.00978 0.11646 0.0
H2145 H 0.81055 1.00906 0.15917 0.0
H2146 H 0.78802 1.01128 0.14349 0.0
H2147 H 0.58236 0.99829 0.13523 0.0
H2148 H 0.50952 1.01131 0.09129 0.0
H2149 H 0.52774 0.01384 0.10714 0.0
C2150 C 0.64337 0.26669 0.09177 0.0
C2151 C 0.70846 0.26601 0.08857 0.0
C2152 C 0.62968 0.265 0.10068 0.0
C2153 C 0.70635 0.25599 0.12214 0.0
H2154 H 0.56019 0.2729 0.13175 0.0
C2155 C 0.67252 0.26764 0.15896 0.0
C2156 C 0.6097 0.26581 0.1627 0.0
C2157 C 0.6833 0.26592 0.14998 0.0
C2158 C 0.60066 0.26802 0.12915 0.0
H2159 H 0.81043 0.2628 0.0921 0.0
H2160 H 0.78773 0.26051 0.10778 0.0
H2161 H 0.58253 0.27354 0.11609 0.0
H2162 H 0.50908 0.26056 0.16002 0.0
H2163 H 0.52725 0.25798 0.14417 0.0
H2164 H 0.72648 0.25115 0.13546 0.0
C2165 C 0.74634 0.26196 0.10341 0.0
C2166 C 0.61349 0.26831 0.12011 0.0
C2167 C 0.75971 0.26334 0.09441 0.0
C2168 C 0.55799 0.26202 0.15731 0.0
C2169 C 0.56835 0.26057 0.14825 0.0
C2170 C 0.69434 0.25593 0.13123 0.0
C2171 C 0.68107 0.26294 0.10673 0.0
C2172 C 0.66662 0.2623 0.11642 0.0
C2173 C 0.63108 0.26258 0.14449 0.0
C2174 C 0.6414 0.26196 0.13482 0.0
H2175 H 0.60273 0.26857 0.08737 0.0
H2176 H 0.5785 0.26543 0.10278 0.0
H2177 H 0.74689 0.25107 0.11965 0.0
H2178 H 0.71338 0.2705 0.16297 0.0
H2179 H 0.73196 0.2676 0.14727 0.0
C2180 C 0.30861 0.01278 0.84393 0.0
C2181 C 0.36002 0.01669 0.83852 0.0
C2182 C 0.31902 0.01138 0.85298 0.0
C2183 C 0.44537 1.00697 0.86996 0.0
H2184 H 0.3322 0.02423 0.8852 0.0
C2185 C 0.51005 0.01415 0.90682 0.0
C2186 C 0.45864 0.01669 0.91269 0.0
C2187 C 0.49683 0.01285 0.89781 0.0
C2188 C 0.36357 0.0191 0.88115 0.0
H2189 H 0.46325 0.02166 0.83823 0.0
H2190 H 0.48195 0.01883 0.85394 0.0
H2191 H 0.3099 0.02365 0.86955 0.0
H2192 H 0.35277 0.01909 0.91391 0.0
H2193 H 0.32881 0.01607 0.89848 0.0
H2194 H 0.49827 1.00214 0.88151 0.0
C2195 C 0.43346 0.01702 0.85123 0.0
C2196 C 0.35075 0.01885 0.87212 0.0
C2197 C 0.42261 0.0187 0.84226 0.0
C2198 C 0.39354 0.01731 0.90949 0.0
C2199 C 0.38001 0.0157 0.90058 0.0
C2200 C 0.45737 1.007 0.87904 0.0
C2201 C 0.38153 0.01355 0.85673 0.0
C2202 C 0.39195 0.01291 0.86641 0.0
C2203 C 0.43153 0.01377 0.89451 0.0
C2204 C 0.41716 0.01318 0.88481 0.0
H2205 H 0.25989 1.01118 0.84122 0.0
H2206 H 0.27814 1.00868 0.85708 0.0
H2207 H 0.47786 1.00229 0.8657 0.0
H2208 H 0.56079 0.01366 0.90912 0.0
H2209 H 0.53833 0.0115 0.89343 0.0
C2210 C 0.51395 0.76049 0.84416 0.0
C2211 C 0.4623 0.75665 0.83878 0.0
C2212 C 0.50359 0.76198 0.8532 0.0
C2213 C 0.37744 0.76664 0.87022 0.0
H2214 H 0.49001 0.74926 0.88543 0.0
C2215 C 0.31248 0.7594 0.90707 0.0
C2216 C 0.36384 0.75682 0.91292 0.0
C2217 C 0.32577 0.76074 0.89806 0.0
C2218 C 0.45882 0.75443 0.88138 0.0
H2219 H 0.35871 0.75189 0.83852 0.0
H2220 H 0.34012 0.75487 0.85422 0.0
H2221 H 0.51225 0.7498 0.86977 0.0
H2222 H 0.46968 0.75438 0.91412 0.0
H2223 H 0.49376 0.75747 0.8987 0.0
H2224 H 0.32475 0.77152 0.88178 0.0
C2225 C 0.38875 0.75656 0.8515 0.0
C2226 C 0.4716 0.75466 0.87235 0.0
C2227 C 0.39953 0.75481 0.84253 0.0
C2228 C 0.42895 0.75619 0.90971 0.0
C2229 C 0.44255 0.75785 0.90081 0.0
C2230 C 0.36547 0.76662 0.8793 0.0
C2231 C 0.44092 0.75996 0.85697 0.0
C2232 C 0.4306 0.76064 0.86665 0.0
C2233 C 0.39107 0.75981 0.89475 0.0
C2234 C 0.40547 0.76039 0.88505 0.0
H2235 H 0.56282 0.76197 0.84143 0.0
H2236 H 0.54465 0.76462 0.85728 0.0
H2237 H 0.3451 0.77135 0.86596 0.0
H2238 H 0.26173 0.75989 0.90938 0.0
H2239 H 0.28431 0.76212 0.8937 0.0
C2240 C 0.14081 0.67773 0.07327 0.0
C2241 C 0.18242 0.68338 0.06735 0.0
C2242 C 0.13341 0.66628 0.0728 0.0
C2243 C 0.21566 0.64112 0.06404 0.0
H2244 H 0.04736 0.62745 0.06985 0.0
C2245 C 0.16801 0.59389 0.06097 0.0
C2246 C 0.13376 0.58891 0.06799 0.0
C2247 C 0.17379 0.6054 0.06045 0.0
C2248 C 0.09487 0.63113 0.06827 0.0
H2249 H 0.24823 0.68124 0.0562 0.0
H2250 H 0.2336 0.66135 0.0552 0.0
H2251 H 0.05631 0.64746 0.06956 0.0
H2252 H 0.07769 0.5922 0.07986 0.0
H2253 H 0.0881 0.61217 0.07898 0.0
H2254 H 0.25389 0.62472 0.06271 0.0
C2255 C 0.20758 0.66577 0.06033 0.0
C2256 C 0.1001 0.64263 0.06812 0.0
C2257 C 0.21521 0.67724 0.06082 0.0
C2258 C 0.10518 0.59573 0.07443 0.0
C2259 C 0.11046 0.6072 0.07387 0.0
C2260 C 0.21027 0.6296 0.06413 0.0
C2261 C 0.16704 0.6601 0.06636 0.0
C2262 C 0.16075 0.64781 0.0661 0.0
C2263 C 0.14475 0.6122 0.06688 0.0
C2264 C 0.14998 0.62446 0.06635 0.0
H2265 H 0.114 0.68216 0.07832 0.0
H2266 H 0.10233 0.66225 0.07763 0.0
H2267 H 0.26346 0.64476 0.06257 0.0
H2268 H 0.19087 0.58889 0.05592 0.0
H2269 H 0.20019 0.60898 0.05495 0.0
C2270 C 0.18131 0.67765 0.17829 0.0
C2271 C 0.13929 0.68323 0.18417 0.0
C2272 C 0.18885 0.6662 0.17873 0.0
C2273 C 0.10649 0.64092 0.18735 0.0
H2274 H 0.27543 0.62744 0.18172 0.0
C2275 C 0.15475 0.59373 0.19042 0.0
C2276 C 0.18966 0.5888 0.18345 0.0
C2277 C 0.14872 0.60523 0.19095 0.0
C2278 C 0.22774 0.63106 0.18325 0.0
H2279 H 0.07283 0.68099 0.19525 0.0
H2280 H 0.08766 0.6611 0.19621 0.0
H2281 H 0.26607 0.64744 0.18203 0.0
H2282 H 0.24663 0.59218 0.17166 0.0
H2283 H 0.23576 0.61213 0.17254 0.0
H2284 H 0.06849 0.62447 0.18862 0.0
C2285 C 0.11393 0.66557 0.19112 0.0
C2286 C 0.22228 0.64256 0.18341 0.0
C2287 C 0.10617 0.67703 0.19065 0.0
C2288 C 0.21863 0.59567 0.17706 0.0
C2289 C 0.21308 0.60713 0.17762 0.0
C2290 C 0.1121 0.6294 0.18725 0.0
C2291 C 0.15492 0.65996 0.18512 0.0
C2292 C 0.16141 0.64767 0.18537 0.0
C2293 C 0.17814 0.61208 0.18457 0.0
C2294 C 0.17264 0.62433 0.1851 0.0
H2295 H 0.20837 0.68212 0.17328 0.0
H2296 H 0.22029 0.66221 0.17392 0.0
H2297 H 0.05854 0.64451 0.18877 0.0
H2298 H 0.13157 0.58869 0.19543 0.0
H2299 H 0.1218 0.60877 0.19642 0.0
C2300 C 0.91641 0.34462 0.9406 0.0
C2301 C 0.8829 0.33963 0.93353 0.0
C2302 C 0.92212 0.35613 0.94111 0.0
C2303 C 0.84397 0.38184 0.93314 0.0
H2304 H 1.01199 0.39549 0.93905 0.0
C2305 C 0.89041 0.42843 0.9281 0.0
C2306 C 0.93151 0.43409 0.93405 0.0
C2307 C 0.88293 0.41698 0.92859 0.0
C2308 C 0.96434 0.39184 0.93753 0.0
H2309 H 0.82805 0.3429 0.92157 0.0
H2310 H 0.83834 0.36287 0.92244 0.0
H2311 H 1.00243 0.37544 0.93894 0.0
H2312 H 0.99629 0.432 0.94529 0.0
H2313 H 0.9815 0.41211 0.94633 0.0
H2314 H 0.80554 0.39817 0.93176 0.0
C2315 C 0.86018 0.35791 0.92759 0.0
C2316 C 0.95896 0.38032 0.93745 0.0
C2317 C 0.85497 0.34644 0.92704 0.0
C2318 C 0.96368 0.42798 0.94064 0.0
C2319 C 0.95596 0.41651 0.94116 0.0
C2320 C 0.84919 0.39334 0.93328 0.0
C2321 C 0.89374 0.36292 0.93463 0.0
C2322 C 0.8989 0.37517 0.93515 0.0
C2323 C 0.91596 0.41082 0.93508 0.0
C2324 C 0.90963 0.39853 0.93537 0.0
H2325 H 0.93876 0.33962 0.94569 0.0
H2326 H 0.94795 0.35972 0.94665 0.0
H2327 H 0.79663 0.37816 0.93149 0.0
H2328 H 0.86407 0.43284 0.923 0.0
H2329 H 0.85229 0.41293 0.92372 0.0
C2330 C 0.85438 0.42668 0.82451 0.0
C2331 C 0.8823 0.43352 0.81802 0.0
C2332 C 0.85995 0.41522 0.82397 0.0
C2333 C 0.9596 0.39292 0.81412 0.0
H2334 H 0.80666 0.37487 0.81983 0.0
C2335 C 0.96544 0.34528 0.81082 0.0
C2336 C 0.93341 0.3391 0.81741 0.0
C2337 C 0.95748 0.35674 0.81035 0.0
C2338 C 0.85017 0.37975 0.81831 0.0
H2339 H 0.93854 0.43358 0.80588 0.0
H2340 H 0.94831 0.4135 0.80493 0.0
H2341 H 0.79718 0.39487 0.82011 0.0
H2342 H 0.86602 0.34024 0.82849 0.0
H2343 H 0.85382 0.36014 0.82783 0.0
H2344 H 1.01303 0.37782 0.81249 0.0
C2345 C 0.92223 0.41706 0.81047 0.0
C2346 C 0.84464 0.39125 0.81846 0.0
C2347 C 0.91618 0.42857 0.81097 0.0
C2348 C 0.89225 0.3447 0.8234 0.0
C2349 C 0.88453 0.35614 0.82294 0.0
C2350 C 0.96528 0.38141 0.81403 0.0
C2351 C 0.89386 0.41024 0.81694 0.0
C2352 C 0.89938 0.39799 0.81643 0.0
C2353 C 0.91739 0.36236 0.81645 0.0
C2354 C 0.91076 0.37465 0.81619 0.0
H2355 H 0.82719 0.43019 0.82997 0.0
H2356 H 0.83811 0.41024 0.82912 0.0
H2357 H 1.00294 0.39786 0.81262 0.0
H2358 H 0.9981 0.34132 0.80615 0.0
H2359 H 0.9829 0.3612 0.80518 0.0
C2360 C 0.17824 0.09434 0.57354 0.0
C2361 C 0.1385 0.08869 0.56742 0.0
C2362 C 0.18618 0.10578 0.57306 0.0
C2363 C 0.10763 0.13094 0.56375 0.0
H2364 H 0.27408 0.14454 0.57046 0.0
C2365 C 0.15714 0.17811 0.56076 0.0
C2366 C 0.18924 0.18312 0.56793 0.0
C2367 C 0.15131 0.1666 0.56027 0.0
C2368 C 0.22707 0.14088 0.56863 0.0
H2369 H 0.0767 0.0908 0.55588 0.0
H2370 H 0.09234 0.11068 0.55488 0.0
H2371 H 0.2648 0.12454 0.57019 0.0
H2372 H 0.24139 0.17988 0.58011 0.0
H2373 H 0.2308 0.15991 0.57927 0.0
H2374 H 0.07023 0.14735 0.56214 0.0
C2375 C 0.11642 0.10627 0.56017 0.0
C2376 C 0.22166 0.12938 0.56849 0.0
C2377 C 0.10823 0.09481 0.56067 0.0
C2378 C 0.21557 0.17633 0.57455 0.0
C2379 C 0.21021 0.16486 0.57402 0.0
C2380 C 0.11322 0.14245 0.56383 0.0
C2381 C 0.15499 0.11194 0.56641 0.0
C2382 C 0.16165 0.12423 0.56614 0.0
C2383 C 0.17811 0.15983 0.56687 0.0
C2384 C 0.17281 0.14758 0.56637 0.0
H2385 H 0.20312 0.08992 0.57876 0.0
H2386 H 0.21569 0.10982 0.57805 0.0
H2387 H 0.0603 0.12731 0.56202 0.0
H2388 H 0.13603 0.18309 0.55557 0.0
H2389 H 0.12663 0.163 0.55464 0.0
C2390 C 0.18774 0.17856 0.6777 0.0
C2391 C 0.14699 0.18405 0.68379 0.0
C2392 C 0.19668 0.16714 0.67815 0.0
C2393 C 0.11928 0.14173 0.68719 0.0
H2394 H 0.28777 0.12865 0.68076 0.0
C2395 C 0.17032 0.09463 0.68967 0.0
C2396 C 0.20371 0.08984 0.68251 0.0
C2397 C 0.16437 0.10612 0.69035 0.0
C2398 C 0.24022 0.13216 0.68252 0.0
H2399 H 0.08445 0.1817 0.69525 0.0
H2400 H 0.10171 0.16186 0.6962 0.0
H2401 H 0.27687 0.14863 0.68116 0.0
H2402 H 0.25824 0.09344 0.67056 0.0
H2403 H 0.24735 0.11336 0.6717 0.0
H2404 H 0.08285 0.1252 0.68855 0.0
C2405 C 0.12586 0.16638 0.69095 0.0
C2406 C 0.23388 0.14364 0.68273 0.0
C2407 C 0.11672 0.17781 0.69048 0.0
C2408 C 0.23145 0.09682 0.6761 0.0
C2409 C 0.22589 0.10827 0.67681 0.0
C2410 C 0.12575 0.13023 0.68701 0.0
C2411 C 0.16547 0.16086 0.68474 0.0
C2412 C 0.17312 0.1486 0.68497 0.0
C2413 C 0.19225 0.11308 0.68393 0.0
C2414 C 0.1861 0.1253 0.68458 0.0
H2415 H 0.21261 0.18308 0.67252 0.0
H2416 H 0.22696 0.16322 0.67318 0.0
H2417 H 0.07142 0.14521 0.68882 0.0
H2418 H 0.14806 0.08951 0.6947 0.0
H2419 H 0.13853 0.10955 0.69595 0.0
C2420 C 0.85537 0.84639 0.42707 0.0
C2421 C 0.88316 0.83959 0.43358 0.0
C2422 C 0.86052 0.85786 0.42762 0.0
C2423 C 0.95897 0.8803 0.43749 0.0
H2424 H 0.80561 0.89812 0.43172 0.0
C2425 C 0.9634 0.92795 0.44063 0.0
C2426 C 0.93142 0.93405 0.43401 0.0
C2427 C 0.9557 0.91649 0.44116 0.0
C2428 C 0.84924 0.8933 0.43326 0.0
H2429 H 0.9387 0.83961 0.44576 0.0
H2430 H 0.9478 0.85971 0.44671 0.0
H2431 H 0.79678 0.8781 0.43147 0.0
H2432 H 0.86433 0.93276 0.42292 0.0
H2433 H 0.85257 0.91286 0.42367 0.0
H2434 H 1.01189 0.89547 0.4391 0.0
C2435 C 0.92212 0.85611 0.44116 0.0
C2436 C 0.84407 0.8818 0.43313 0.0
C2437 C 0.91648 0.8446 0.44066 0.0
C2438 C 0.89052 0.92837 0.42804 0.0
C2439 C 0.88306 0.91692 0.42855 0.0
C2440 C 0.96429 0.89182 0.43756 0.0
C2441 C 0.89388 0.86288 0.43467 0.0
C2442 C 0.89898 0.87514 0.43518 0.0
C2443 C 0.91591 0.91078 0.43507 0.0
C2444 C 0.90961 0.89849 0.43538 0.0
H2445 H 0.8286 0.84284 0.42159 0.0
H2446 H 0.8388 0.86281 0.42245 0.0
H2447 H 1.00242 0.87543 0.43901 0.0
H2448 H 0.99586 0.93199 0.44529 0.0
H2449 H 0.9811 0.9121 0.44635 0.0
C2450 C 0.96931 0.84662 0.32435 0.0
C2451 C 0.94074 0.83977 0.31793 0.0
C2452 C 0.96382 0.85809 0.3238 0.0
C2453 C 0.86349 0.88039 0.31411 0.0
H2454 H 1.0171 0.89841 0.31949 0.0
C2455 C 0.85759 0.92802 0.31081 0.0
C2456 C 0.89028 0.9342 0.31733 0.0
C2457 C 0.86545 0.91656 0.31031 0.0
C2458 C 0.97341 0.89353 0.31807 0.0
H2459 H 0.88348 0.8397 0.30589 0.0
H2460 H 0.87383 0.85978 0.30492 0.0
H2461 H 1.02646 0.87841 0.31978 0.0
H2462 H 0.95875 0.93305 0.32827 0.0
H2463 H 0.97083 0.91315 0.32758 0.0
H2464 H 0.81 0.89549 0.31257 0.0
C2465 C 0.90036 0.85622 0.31041 0.0
C2466 C 0.97887 0.88204 0.31821 0.0
C2467 C 0.90632 0.84472 0.31093 0.0
C2468 C 0.93201 0.92859 0.32323 0.0
C2469 C 0.93965 0.91715 0.32276 0.0
C2470 C 0.85788 0.8919 0.31402 0.0
C2471 C 0.92936 0.86305 0.31683 0.0
C2472 C 0.92389 0.8753 0.31631 0.0
C2473 C 0.90612 0.91094 0.31634 0.0
C2474 C 0.91266 0.89865 0.31606 0.0
H2475 H 0.99692 0.84312 0.32977 0.0
H2476 H 0.98617 0.86307 0.3289 0.0
H2477 H 0.81997 0.87546 0.3127 0.0
H2478 H 0.82449 0.93199 0.3062 0.0
H2479 H 0.8395 0.91212 0.3052 0.0
C2480 C 0.68157 0.59421 0.57348 0.0
C2481 C 0.64096 0.58854 0.56747 0.0
C2482 C 0.68906 0.60567 0.573 0.0
C2483 C 0.60826 0.63079 0.56394 0.0
H2484 H 0.77545 0.6445 0.57019 0.0
C2485 C 0.65625 0.67801 0.56088 0.0
C2486 C 0.68933 0.68303 0.56797 0.0
C2487 C 0.65058 0.6665 0.56038 0.0
C2488 C 0.72824 0.64081 0.56849 0.0
H2489 H 0.57707 0.59063 0.55613 0.0
H2490 H 0.59188 0.61052 0.55512 0.0
H2491 H 0.76662 0.62449 0.56992 0.0
H2492 H 0.74341 0.67978 0.58 0.0
H2493 H 0.73316 0.65982 0.57916 0.0
H2494 H 0.57021 0.64718 0.56247 0.0
C2495 C 0.61702 0.60612 0.56033 0.0
C2496 C 0.72308 0.62931 0.56835 0.0
C2497 C 0.6093 0.59466 0.56083 0.0
C2498 C 0.71683 0.67623 0.57451 0.0
C2499 C 0.71165 0.66476 0.57397 0.0
C2500 C 0.61358 0.64231 0.56403 0.0
C2501 C 0.65652 0.61182 0.56645 0.0
C2502 C 0.66282 0.62411 0.56617 0.0
C2503 C 0.67855 0.65973 0.5669 0.0
C2504 C 0.67345 0.64747 0.5664 0.0
H2505 H 0.70752 0.58981 0.57861 0.0
H2506 H 0.71931 0.60972 0.5779 0.0
H2507 H 0.56074 0.62714 0.56236 0.0
H2508 H 0.63424 0.68299 0.55576 0.0
H2509 H 0.62511 0.6629 0.55482 0.0
C2510 C 0.7157 0.59469 0.69059 0.0
C2511 C 0.68315 0.58855 0.68404 0.0
C2512 C 0.70787 0.60615 0.69111 0.0
C2513 C 0.60021 0.6292 0.68337 0.0
H2514 H 0.75391 0.64723 0.68871 0.0
C2515 C 0.60488 0.67608 0.67705 0.0
C2516 C 0.63347 0.68292 0.68347 0.0
C2517 C 0.61026 0.66462 0.67761 0.0
C2518 C 0.71032 0.64231 0.68731 0.0
H2519 H 0.61497 0.58973 0.67307 0.0
H2520 H 0.60292 0.60963 0.6738 0.0
H2521 H 0.76367 0.62719 0.68884 0.0
H2522 H 0.69067 0.683 0.69551 0.0
H2523 H 0.70013 0.66292 0.6965 0.0
H2524 H 0.5473 0.64434 0.68167 0.0
C2525 C 0.63396 0.60561 0.67862 0.0
C2526 C 0.71582 0.6308 0.6874 0.0
C2527 C 0.64157 0.59417 0.67813 0.0
C2528 C 0.66781 0.67798 0.69048 0.0
C2529 C 0.67367 0.66648 0.691 0.0
C2530 C 0.59487 0.6407 0.68323 0.0
C2531 C 0.66738 0.61179 0.68507 0.0
C2532 C 0.66094 0.62407 0.68536 0.0
C2533 C 0.64463 0.65965 0.68459 0.0
C2534 C 0.64995 0.64741 0.68512 0.0
H2535 H 0.74868 0.5907 0.69521 0.0
H2536 H 0.73372 0.61058 0.69624 0.0
H2537 H 0.55647 0.62433 0.68195 0.0
H2538 H 0.57732 0.67958 0.67162 0.0
H2539 H 0.5879 0.65963 0.67251 0.0
C2540 C 0.46707 0.42701 0.42705 0.0
C2541 C 0.43906 0.43383 0.43354 0.0
C2542 C 0.46181 0.41554 0.42762 0.0
C2543 C 0.36282 0.39315 0.4375 0.0
H2544 H 0.51632 0.37529 0.43186 0.0
C2545 C 0.35791 0.3455 0.44073 0.0
C2546 C 0.39017 0.33938 0.43414 0.0
C2547 C 0.36566 0.35697 0.44124 0.0
C2548 C 0.47266 0.38012 0.43336 0.0
H2549 H 0.38303 0.43386 0.44569 0.0
H2550 H 0.37376 0.41377 0.44669 0.0
H2551 H 0.5253 0.3953 0.43157 0.0
H2552 H 0.4578 0.34064 0.42309 0.0
H2553 H 0.46964 0.36054 0.42381 0.0
H2554 H 0.30971 0.37799 0.43912 0.0
C2555 C 0.39968 0.41735 0.44114 0.0
C2556 C 0.4779 0.39162 0.43321 0.0
C2557 C 0.40542 0.42886 0.44061 0.0
C2558 C 0.43139 0.34505 0.42819 0.0
C2559 C 0.4389 0.3565 0.42867 0.0
C2560 C 0.35741 0.38163 0.43759 0.0
C2561 C 0.42814 0.41054 0.43467 0.0
C2562 C 0.42295 0.39829 0.43521 0.0
C2563 C 0.40578 0.36265 0.43517 0.0
C2564 C 0.41214 0.37494 0.43545 0.0
H2565 H 0.49407 0.43053 0.42158 0.0
H2566 H 0.48372 0.41057 0.42248 0.0
H2567 H 0.31932 0.39804 0.43899 0.0
H2568 H 0.32521 0.34148 0.44538 0.0
H2569 H 0.34005 0.36137 0.44641 0.0
C2570 C 0.46559 0.34645 0.32459 0.0
C2571 C 0.43998 0.33968 0.31791 0.0
C2572 C 0.46034 0.35792 0.32408 0.0
C2573 C 0.36471 0.38035 0.31374 0.0
H2574 H 0.51576 0.39827 0.32044 0.0
C2575 C 0.36058 0.42802 0.3107 0.0
C2576 C 0.39037 0.43412 0.31751 0.0
C2577 C 0.3686 0.41656 0.31019 0.0
C2578 C 0.47274 0.39342 0.31864 0.0
H2579 H 0.38815 0.33974 0.30544 0.0
H2580 H 0.37895 0.35983 0.30454 0.0
H2581 H 0.52478 0.37827 0.32069 0.0
H2582 H 0.45396 0.43284 0.32895 0.0
H2583 H 0.46617 0.41295 0.32823 0.0
H2584 H 0.31216 0.39549 0.31187 0.0
C2585 C 0.40297 0.35621 0.3102 0.0
C2586 C 0.47802 0.38192 0.31877 0.0
C2587 C 0.4087 0.3447 0.31069 0.0
C2588 C 0.42944 0.42845 0.32368 0.0
C2589 C 0.4372 0.417 0.32319 0.0
C2590 C 0.35925 0.39187 0.31367 0.0
C2591 C 0.42908 0.36297 0.31688 0.0
C2592 C 0.42394 0.37523 0.31639 0.0
C2593 C 0.40651 0.41087 0.31648 0.0
C2594 C 0.41306 0.39858 0.31619 0.0
H2595 H 0.49078 0.34289 0.33019 0.0
H2596 H 0.48038 0.36285 0.32938 0.0
H2597 H 0.32186 0.37545 0.31196 0.0
H2598 H 0.32957 0.43205 0.30588 0.0
H2599 H 0.34493 0.41218 0.30486 0.0
C2600 C 0.61229 0.09473 0.06056 0.0
C2601 C 0.64175 0.08866 0.0674 0.0
C2602 C 0.6202 0.1062 0.06006 0.0
C2603 C 0.72354 0.12942 0.0686 0.0
H2604 H 0.57274 0.14726 0.06178 0.0
C2605 C 0.71539 0.17638 0.07455 0.0
C2606 C 0.69011 0.18314 0.06783 0.0
C2607 C 0.7103 0.1649 0.07403 0.0
C2608 C 0.61557 0.1424 0.06361 0.0
H2609 H 0.70469 0.08999 0.0789 0.0
H2610 H 0.71671 0.10989 0.07818 0.0
H2611 H 0.56334 0.12722 0.06168 0.0
H2612 H 0.63899 0.18303 0.05532 0.0
H2613 H 0.63007 0.16294 0.05441 0.0
H2614 H 0.77524 0.14463 0.07069 0.0
C2615 C 0.68807 0.10581 0.07312 0.0
C2616 C 0.61029 0.13088 0.06353 0.0
C2617 C 0.68042 0.09436 0.07361 0.0
C2618 C 0.65929 0.17808 0.06058 0.0
C2619 C 0.65372 0.16657 0.0601 0.0
C2620 C 0.72864 0.14093 0.06873 0.0
C2621 C 0.65768 0.11193 0.06638 0.0
C2622 C 0.66407 0.12422 0.06609 0.0
C2623 C 0.67952 0.15984 0.0668 0.0
C2624 C 0.67459 0.14757 0.0663 0.0
H2625 H 0.58159 0.09068 0.05571 0.0
H2626 H 0.59678 0.11056 0.05469 0.0
H2627 H 0.76653 0.12461 0.07044 0.0
H2628 H 0.74022 0.17996 0.08017 0.0
H2629 H 0.73008 0.15999 0.07935 0.0
C2630 C 0.68023 0.1776 0.17811 0.0
C2631 C 0.63946 0.18322 0.18412 0.0
C2632 C 0.68782 0.16615 0.17856 0.0
C2633 C 0.60726 0.14092 0.18758 0.0
H2634 H 0.77475 0.12739 0.18129 0.0
C2635 C 0.65601 0.09372 0.19055 0.0
C2636 C 0.6893 0.08877 0.18345 0.0
C2637 C 0.65012 0.10523 0.19107 0.0
C2638 C 0.72746 0.13103 0.18301 0.0
H2639 H 0.57536 0.18103 0.19545 0.0
H2640 H 0.59036 0.16115 0.19642 0.0
H2641 H 0.76558 0.14739 0.1816 0.0
H2642 H 0.74353 0.0921 0.17143 0.0
H2643 H 0.7329 0.11206 0.17231 0.0
H2644 H 0.56948 0.12448 0.18903 0.0
C2645 C 0.61555 0.16559 0.19123 0.0
C2646 C 0.7221 0.14253 0.18316 0.0
C2647 C 0.60772 0.17705 0.19075 0.0
C2648 C 0.71679 0.09561 0.17693 0.0
C2649 C 0.71139 0.10708 0.17749 0.0
C2650 C 0.61278 0.1294 0.18748 0.0
C2651 C 0.65523 0.15995 0.18509 0.0
C2652 C 0.66173 0.14766 0.18535 0.0
C2653 C 0.67808 0.11205 0.18457 0.0
C2654 C 0.67276 0.12431 0.18509 0.0
H2655 H 0.70624 0.18204 0.17298 0.0
H2656 H 0.71821 0.16214 0.17365 0.0
H2657 H 0.55966 0.14452 0.18918 0.0
H2658 H 0.634 0.08871 0.19567 0.0
H2659 H 0.62449 0.10879 0.19664 0.0
C2660 C 0.3545 0.84646 0.92698 0.0
C2661 C 0.38308 0.83965 0.93342 0.0
C2662 C 0.35977 0.85793 0.92752 0.0
C2663 C 0.45959 0.88034 0.93719 0.0
H2664 H 0.30561 0.89819 0.9318 0.0
C2665 C 0.46461 0.92798 0.94041 0.0
C2666 C 0.4318 0.93411 0.93388 0.0
C2667 C 0.45695 0.91652 0.94093 0.0
C2668 C 0.3494 0.89336 0.93323 0.0
H2669 H 0.44016 0.83964 0.94547 0.0
H2670 H 0.44947 0.85974 0.94642 0.0
H2671 H 0.29663 0.87818 0.93154 0.0
H2672 H 0.36332 0.93286 0.92294 0.0
H2673 H 0.3516 0.91295 0.92367 0.0
H2674 H 0.5128 0.8955 0.9387 0.0
C2675 C 0.42307 0.85615 0.94093 0.0
C2676 C 0.34415 0.88186 0.9331 0.0
C2677 C 0.41731 0.84464 0.94042 0.0
C2678 C 0.39014 0.92845 0.92799 0.0
C2679 C 0.38271 0.917 0.92849 0.0
C2680 C 0.46499 0.89186 0.93726 0.0
C2681 C 0.39405 0.86294 0.9345 0.0
C2682 C 0.39928 0.87519 0.93501 0.0
C2683 C 0.41637 0.91084 0.93492 0.0
C2684 C 0.41006 0.89855 0.93522 0.0
H2685 H 0.32703 0.84293 0.92156 0.0
H2686 H 0.33742 0.86289 0.92241 0.0
H2687 H 0.50321 0.87546 0.93861 0.0
H2688 H 0.49766 0.932 0.94501 0.0
H2689 H 0.48299 0.91211 0.94606 0.0
C2690 C 0.40527 0.84438 0.8111 0.0
C2691 C 0.44035 0.83943 0.81804 0.0
C2692 C 0.39932 0.85589 0.8106 0.0
C2693 C 0.47878 0.88168 0.81826 0.0
H2694 H 0.30939 0.89517 0.81295 0.0
C2695 C 0.43284 0.92823 0.82339 0.0
C2696 C 0.39057 0.93385 0.81756 0.0
C2697 C 0.44028 0.91679 0.8229 0.0
C2698 C 0.35739 0.89157 0.81431 0.0
H2699 H 0.49771 0.84276 0.82979 0.0
H2700 H 0.48699 0.86272 0.82894 0.0
H2701 H 0.31924 0.87513 0.81305 0.0
H2702 H 0.32357 0.93168 0.80656 0.0
H2703 H 0.33823 0.91179 0.80552 0.0
H2704 H 0.51726 0.89804 0.81947 0.0
C2705 C 0.46412 0.85773 0.82388 0.0
C2706 C 0.36294 0.88005 0.81438 0.0
C2707 C 0.46958 0.84627 0.82442 0.0
C2708 C 0.3571 0.92769 0.8111 0.0
C2709 C 0.36476 0.91623 0.81059 0.0
C2710 C 0.47338 0.89317 0.81813 0.0
C2711 C 0.42899 0.86271 0.81696 0.0
C2712 C 0.42355 0.87496 0.81645 0.0
C2713 C 0.40602 0.91059 0.81654 0.0
C2714 C 0.41244 0.8983 0.81624 0.0
H2715 H 0.3819 0.83936 0.8061 0.0
H2716 H 0.37226 0.85945 0.80516 0.0
H2717 H 0.52652 0.87804 0.81973 0.0
H2718 H 0.46017 0.93268 0.82838 0.0
H2719 H 0.47193 0.91278 0.82766 0.0
C2720 C 0.82387 0.4996 0.0623 0.0
C2721 C 0.85932 0.50818 0.06637 0.0
C2722 C 0.75443 0.49985 0.06187 0.0
C2723 C 0.60539 0.51321 0.07166 0.0
H2724 H 0.52089 0.50398 0.05002 0.0
C2725 C 0.32486 0.52004 0.06549 0.0
C2726 C 0.28958 0.51149 0.06136 0.0
C2727 C 0.39429 0.51979 0.06596 0.0
C2728 C 0.54349 0.50648 0.05615 0.0
H2729 H 0.84892 0.5237 0.0733 0.0
H2730 H 0.72833 0.52418 0.0725 0.0
H2731 H 0.64111 0.50295 0.05138 0.0
H2732 H 0.30024 0.49601 0.05438 0.0
H2733 H 0.42075 0.49552 0.05526 0.0
H2734 H 0.50776 0.51674 0.07644 0.0
C2735 C 0.75402 0.51717 0.06972 0.0
C2736 C 0.61262 0.50587 0.05694 0.0
C2737 C 0.82341 0.51691 0.07016 0.0
C2738 C 0.32562 0.50278 0.05757 0.0
C2739 C 0.39498 0.50252 0.05805 0.0
C2740 C 0.53624 0.51382 0.07088 0.0
C2741 C 0.71853 0.5087 0.06549 0.0
C2742 C 0.64461 0.50922 0.06471 0.0
C2743 C 0.43033 0.51097 0.06232 0.0
C2744 C 0.50425 0.51046 0.06311 0.0
H2745 H 0.84975 0.49274 0.05932 0.0
H2746 H 0.72888 0.49309 0.05869 0.0
H2747 H 0.62801 0.51572 0.07779 0.0
H2748 H 0.29887 0.52689 0.06847 0.0
H2749 H 0.41972 0.52654 0.06917 0.0
C2750 C 0.50001 0.75512 0.07014 0.0
C2751 C 0.46424 0.76389 0.06641 0.0
C2752 C 0.56939 0.75485 0.06971 0.0
C2753 C 0.71114 0.76623 0.05701 0.0
H2754 H 0.81542 0.75511 0.07645 0.0
C2755 C 0.99804 0.76926 0.05771 0.0
C2756 C 1.03397 0.76051 0.06144 0.0
C2757 C 0.92869 0.76952 0.05818 0.0
C2758 C 0.7871 0.7581 0.0709 0.0
H2759 H 0.47403 0.77941 0.05946 0.0
H2760 H 0.59494 0.77903 0.05883 0.0
H2761 H 0.69516 0.75617 0.0778 0.0
H2762 H 1.02452 0.74502 0.06844 0.0
H2763 H 0.90362 0.74537 0.06913 0.0
H2764 H 0.80304 0.76816 0.05011 0.0
C2765 C 0.56927 0.77225 0.06197 0.0
C2766 C 0.71795 0.75873 0.07169 0.0
C2767 C 0.49982 0.77251 0.06239 0.0
C2768 C 0.99859 0.7519 0.06551 0.0
C2769 C 0.92915 0.75215 0.06596 0.0
C2770 C 0.78027 0.7656 0.05623 0.0
C2771 C 0.60503 0.76335 0.06553 0.0
C2772 C 0.67894 0.76281 0.06475 0.0
C2773 C 0.89322 0.76102 0.06238 0.0
C2774 C 0.8193 0.76153 0.06316 0.0
H2775 H 0.47441 0.7483 0.07325 0.0
H2776 H 0.59496 0.7478 0.07244 0.0
H2777 H 0.68282 0.76923 0.05147 0.0
H2778 H 1.0235 0.77607 0.05457 0.0
H2779 H 0.903 0.77655 0.05544 0.0
C2780 C 0.82167 0.75491 0.18144 0.0
C2781 C 0.85759 0.76371 0.18513 0.0
C2782 C 0.75229 0.75465 0.18186 0.0
C2783 C 0.61071 0.76614 0.19447 0.0
H2784 H 0.50638 0.75489 0.17507 0.0
C2785 C 0.32395 0.76921 0.19369 0.0
C2786 C 0.28786 0.76043 0.19001 0.0
C2787 C 0.39331 0.76946 0.19323 0.0
C2788 C 0.53472 0.75792 0.1806 0.0
H2789 H 0.84809 0.77928 0.192 0.0
H2790 H 0.72717 0.77892 0.1926 0.0
H2791 H 0.62668 0.75593 0.17373 0.0
H2792 H 0.29702 0.74487 0.18311 0.0
H2793 H 0.41794 0.7452 0.18245 0.0
H2794 H 0.51877 0.76813 0.20134 0.0
C2795 C 0.75273 0.77211 0.18951 0.0
C2796 C 0.60388 0.75854 0.17983 0.0
C2797 C 0.82218 0.77236 0.1891 0.0
C2798 C 0.32308 0.75178 0.18601 0.0
C2799 C 0.39252 0.75202 0.18556 0.0
C2800 C 0.54156 0.76552 0.19525 0.0
C2801 C 0.71681 0.76319 0.18598 0.0
C2802 C 0.6429 0.76267 0.18675 0.0
C2803 C 0.42861 0.76092 0.18909 0.0
C2804 C 0.50253 0.76141 0.18832 0.0
H2805 H 0.84715 0.74807 0.17837 0.0
H2806 H 0.72659 0.74758 0.17916 0.0
H2807 H 0.63904 0.76918 0.20001 0.0
H2808 H 0.29863 0.77606 0.19677 0.0
H2809 H 0.41914 0.77652 0.19592 0.0
C2810 C 0.99804 0.50274 0.19393 0.0
C2811 C 1.03423 0.51132 0.18996 0.0
C2812 C 0.92868 0.50246 0.19346 0.0
C2813 C 0.78083 0.51983 0.18896 0.0
H2814 H 0.69504 0.49174 0.18461 0.0
C2815 C 0.50056 0.51674 0.18109 0.0
C2816 C 0.46454 0.50815 0.18508 0.0
C2817 C 0.56995 0.51701 0.18151 0.0
C2818 C 0.71804 0.49964 0.18592 0.0
H2819 H 1.02523 0.52646 0.18249 0.0
H2820 H 0.90445 0.52597 0.18165 0.0
H2821 H 0.81544 0.49262 0.18594 0.0
H2822 H 0.4739 0.49297 0.1925 0.0
H2823 H 0.5947 0.49346 0.19324 0.0
H2824 H 0.68344 0.52685 0.18895 0.0
C2825 C 0.92967 0.51948 0.1852 0.0
C2826 C 0.78723 0.50015 0.18669 0.0
C2827 C 0.9991 0.51975 0.18566 0.0
C2828 C 0.49988 0.4997 0.18932 0.0
C2829 C 0.56933 0.49996 0.18973 0.0
C2830 C 0.71164 0.51933 0.18819 0.0
C2831 C 0.89351 0.51077 0.18901 0.0
C2832 C 0.81963 0.51025 0.18823 0.0
C2833 C 0.60532 0.50869 0.18591 0.0
C2834 C 0.67924 0.50922 0.18666 0.0
H2835 H 1.02328 0.49611 0.19731 0.0
H2836 H 0.90257 0.49572 0.19659 0.0
H2837 H 0.80384 0.52773 0.19028 0.0
H2838 H 0.47516 0.52339 0.17776 0.0
H2839 H 0.59592 0.52377 0.17837 0.0
C2840 C 0.74731 0.51994 0.94376 0.0
C2841 C 0.78328 0.51118 0.94004 0.0
C2842 C 0.67796 0.52022 0.94328 0.0
C2843 C 0.53658 0.5088 0.93055 0.0
H2844 H 0.43188 0.52 0.94994 0.0
C2845 C 0.24944 0.50585 0.93127 0.0
C2846 C 0.21358 0.51462 0.935 0.0
C2847 C 0.31882 0.50558 0.93172 0.0
C2848 C 0.46032 0.51698 0.94441 0.0
H2849 H 0.77387 0.49569 0.93305 0.0
H2850 H 0.65299 0.49606 0.93236 0.0
H2851 H 0.55207 0.51891 0.95132 0.0
H2852 H 0.22324 0.53015 0.94193 0.0
H2853 H 0.34413 0.52978 0.94256 0.0
H2854 H 0.4448 0.50687 0.92364 0.0
C2855 C 0.67849 0.50284 0.93552 0.0
C2856 C 0.52944 0.51634 0.94521 0.0
C2857 C 0.74792 0.50258 0.93598 0.0
C2858 C 0.24908 0.52325 0.939 0.0
C2859 C 0.31853 0.52299 0.93943 0.0
C2860 C 0.46745 0.50944 0.92975 0.0
C2861 C 0.64253 0.51172 0.93908 0.0
C2862 C 0.56861 0.51224 0.93829 0.0
C2863 C 0.35437 0.51409 0.93588 0.0
C2864 C 0.42828 0.51355 0.93667 0.0
H2865 H 0.77273 0.52676 0.94689 0.0
H2866 H 0.65227 0.52726 0.946 0.0
H2867 H 0.56502 0.50579 0.92501 0.0
H2868 H 0.22391 0.49902 0.92818 0.0
H2869 H 0.34444 0.49853 0.929 0.0
C2870 C 0.5736 0.25037 0.93928 0.0
C2871 C 0.60923 0.25882 0.93505 0.0
C2872 C 0.50414 0.25064 0.93969 0.0
C2873 C 0.36238 0.27006 0.9382 0.0
H2874 H 0.2578 0.2434 0.9359 0.0
C2875 C 0.07489 0.27056 0.93568 0.0
C2876 C 0.03951 0.26214 0.93999 0.0
C2877 C 0.14432 0.27028 0.93522 0.0
C2878 C 0.28623 0.25091 0.93667 0.0
H2879 H 0.5991 0.27409 0.92777 0.0
H2880 H 0.47837 0.2745 0.92839 0.0
H2881 H 0.3782 0.24248 0.93457 0.0
H2882 H 0.05005 0.24691 0.94732 0.0
H2883 H 0.17073 0.2465 0.94659 0.0
H2884 H 0.27039 0.27849 0.9403 0.0
C2885 C 0.5041 0.26773 0.93152 0.0
C2886 C 0.35542 0.25039 0.93589 0.0
C2887 C 0.57349 0.26744 0.93109 0.0
C2888 C 0.07547 0.25354 0.94395 0.0
C2889 C 0.14482 0.25325 0.94346 0.0
C2890 C 0.29319 0.27059 0.93897 0.0
C2891 C 0.46843 0.2594 0.9359 0.0
C2892 C 0.39451 0.25995 0.93665 0.0
C2893 C 0.18023 0.26156 0.93902 0.0
C2894 C 0.25411 0.26102 0.93823 0.0
H2895 H 0.59936 0.24362 0.94244 0.0
H2896 H 0.47854 0.24414 0.94319 0.0
H2897 H 0.3908 0.27758 0.93897 0.0
H2898 H 0.04894 0.27728 0.93252 0.0
H2899 H 0.16975 0.27677 0.93167 0.0
C2900 C 0.74971 0.25312 0.8078 0.0
C2901 C 0.78579 0.26193 0.81145 0.0
C2902 C 0.68036 0.25287 0.80826 0.0
C2903 C 0.53893 0.26448 0.82084 0.0
H2904 H 0.43462 0.2531 0.80148 0.0
C2905 C 0.252 0.26746 0.82001 0.0
C2906 C 0.21608 0.25864 0.81635 0.0
C2907 C 0.32137 0.26772 0.81957 0.0
C2908 C 0.46295 0.25616 0.807 0.0
H2909 H 0.7766 0.27753 0.81828 0.0
H2910 H 0.65568 0.2772 0.81894 0.0
H2911 H 0.55488 0.25415 0.80014 0.0
H2912 H 0.22557 0.24303 0.80953 0.0
H2913 H 0.34648 0.24339 0.80891 0.0
H2914 H 0.44698 0.2665 0.8277 0.0
C2915 C 0.68111 0.27036 0.81586 0.0
C2916 C 0.5321 0.25679 0.80622 0.0
C2917 C 0.75056 0.2706 0.81541 0.0
C2918 C 0.25148 0.24997 0.81241 0.0
C2919 C 0.32093 0.25022 0.81199 0.0
C2920 C 0.46977 0.26385 0.82162 0.0
C2921 C 0.64504 0.26144 0.81236 0.0
C2922 C 0.57112 0.26095 0.81313 0.0
C2923 C 0.35684 0.25916 0.81548 0.0
C2924 C 0.43076 0.25969 0.81471 0.0
H2925 H 0.77505 0.24625 0.80474 0.0
H2926 H 0.65454 0.2458 0.80559 0.0
H2927 H 0.56727 0.26754 0.82636 0.0
H2928 H 0.22652 0.27432 0.82305 0.0
H2929 H 0.34707 0.27481 0.82225 0.0
C2930 C 0.07278 0.50241 0.8155 0.0
C2931 C 0.03764 0.51101 0.81144 0.0
C2932 C 0.14221 0.50265 0.81596 0.0
C2933 C 0.29152 0.51604 0.8062 0.0
H2934 H 0.3761 0.50661 0.82777 0.0
C2935 C 0.57211 0.52282 0.81232 0.0
C2936 C 0.60736 0.5142 0.81634 0.0
C2937 C 0.50267 0.52259 0.8119 0.0
C2938 C 0.35345 0.50917 0.82166 0.0
H2939 H 0.04852 0.52657 0.80456 0.0
H2940 H 0.16905 0.52704 0.80542 0.0
H2941 H 0.2558 0.50561 0.82644 0.0
H2942 H 0.59664 0.49862 0.82319 0.0
H2943 H 0.47605 0.49817 0.8224 0.0
H2944 H 0.38915 0.5196 0.80142 0.0
C2945 C 0.14316 0.52001 0.80816 0.0
C2946 C 0.28429 0.50858 0.82089 0.0
C2947 C 0.0738 0.51976 0.8077 0.0
C2948 C 0.57128 0.50544 0.82008 0.0
C2949 C 0.50189 0.5052 0.81965 0.0
C2950 C 0.36067 0.51664 0.80697 0.0
C2951 C 0.17838 0.51152 0.81237 0.0
C2952 C 0.25229 0.51201 0.81314 0.0
C2953 C 0.46658 0.51371 0.81548 0.0
C2954 C 0.39267 0.51321 0.81471 0.0
H2955 H 0.04668 0.49553 0.81844 0.0
H2956 H 0.16755 0.49587 0.81912 0.0
H2957 H 0.26889 0.5186 0.80008 0.0
H2958 H 0.59814 0.52972 0.80938 0.0
H2959 H 0.47725 0.52938 0.80877 0.0
C2960 C 0.31874 0.02007 0.56566 0.0
C2961 C 0.28338 0.01166 0.56137 0.0
C2962 C 0.38817 0.0198 0.56611 0.0
C2963 C 0.53006 1.00043 0.56462 0.0
H2964 H 0.63458 0.0271 0.56227 0.0
C2965 C 0.81743 0.99993 0.56194 0.0
C2966 C 0.85293 1.00837 0.56618 0.0
C2967 C 0.74798 1.00019 0.56154 0.0
C2968 C 0.60617 0.01958 0.56306 0.0
H2969 H 0.29391 0.99644 0.55403 0.0
H2970 H 0.41458 0.99602 0.55473 0.0
H2971 H 0.51418 0.028 0.56098 0.0
H2972 H 0.84263 0.02362 0.57349 0.0
H2973 H 0.72192 0.02401 0.57287 0.0
H2974 H 0.62205 0.992 0.56669 0.0
C2975 C 0.38867 1.00277 0.55787 0.0
C2976 C 0.53699 0.0201 0.5623 0.0
C2977 C 0.31933 1.00306 0.5574 0.0
C2978 C 0.8171 0.01697 0.57016 0.0
C2979 C 0.74773 0.01725 0.56974 0.0
C2980 C 0.59925 0.9999 0.56537 0.0
C2981 C 0.42407 1.01107 0.5623 0.0
C2982 C 0.49794 1.01053 0.56307 0.0
C2983 C 0.71219 1.00893 0.56534 0.0
C2984 C 0.6383 1.00947 0.5646 0.0
H2985 H 0.29279 0.02679 0.56883 0.0
H2986 H 0.41359 0.02628 0.56965 0.0
H2987 H 0.50164 0.99291 0.5654 0.0
H2988 H 0.84328 0.9932 0.55877 0.0
H2989 H 0.72246 0.99369 0.55803 0.0
C2990 C 0.49979 0.2551 0.57017 0.0
C2991 C 0.46396 0.26383 0.56638 0.0
C2992 C 0.56918 0.25485 0.56974 0.0
C2993 C 0.71083 0.26615 0.55698 0.0
H2994 H 0.81527 0.2553 0.5765 0.0
C2995 C 0.99775 0.26928 0.55764 0.0
C2996 C 1.03374 0.26058 0.56144 0.0
C2997 C 0.92839 0.26954 0.55812 0.0
C2998 C 0.7869 0.25822 0.57093 0.0
H2999 H 0.47366 0.27928 0.55933 0.0
H3000 H 0.59454 0.27893 0.55872 0.0
H3001 H 0.69498 0.25631 0.57784 0.0
H3002 H 1.02439 0.24517 0.56856 0.0
H3003 H 0.90352 0.24551 0.56925 0.0
H3004 H 0.80271 0.26804 0.55007 0.0
C3005 C 0.56892 0.27217 0.56189 0.0
C3006 C 0.71774 0.25882 0.57171 0.0
C3007 C 0.49949 0.27241 0.56231 0.0
C3008 C 0.99842 0.25202 0.56557 0.0
C3009 C 0.92899 0.25226 0.56603 0.0
C3010 C 0.77998 0.26554 0.5562 0.0
C3011 C 0.60475 0.26332 0.56552 0.0
C3012 C 0.67867 0.2628 0.56474 0.0
C3013 C 0.89299 0.26108 0.56239 0.0
C3014 C 0.81906 0.26157 0.56316 0.0
H3015 H 0.47422 0.24831 0.57332 0.0
H3016 H 0.59482 0.24783 0.57252 0.0
H3017 H 0.68246 0.26907 0.55141 0.0
H3018 H 1.02317 0.27606 0.55445 0.0
H3019 H 0.90264 0.27653 0.55533 0.0
C3020 C 0.82242 0.25534 0.68144 0.0
C3021 C 0.85839 0.26411 0.68517 0.0
C3022 C 0.75305 0.25509 0.68187 0.0
C3023 C 0.61155 0.26651 0.69453 0.0
H3024 H 0.50718 0.25543 0.67507 0.0
C3025 C 0.32477 0.26961 0.69375 0.0
C3026 C 0.2887 0.26085 0.69002 0.0
C3027 C 0.39413 0.26986 0.6933 0.0
C3028 C 0.53553 0.25841 0.68062 0.0
H3029 H 0.849 0.27963 0.69211 0.0
H3030 H 0.72809 0.27928 0.69273 0.0
H3031 H 0.62748 0.25647 0.67374 0.0
H3032 H 0.29787 0.24535 0.68306 0.0
H3033 H 0.41878 0.24568 0.68241 0.0
H3034 H 0.51961 0.26845 0.70141 0.0
C3035 C 0.7536 0.27249 0.6896 0.0
C3036 C 0.60469 0.25903 0.67985 0.0
C3037 C 0.82305 0.27273 0.68918 0.0
C3038 C 0.32393 0.25223 0.68599 0.0
C3039 C 0.39336 0.25247 0.68555 0.0
C3040 C 0.54239 0.26589 0.6953 0.0
C3041 C 0.71763 0.2636 0.68603 0.0
C3042 C 0.64372 0.26309 0.68679 0.0
C3043 C 0.42944 0.26134 0.68912 0.0
C3044 C 0.50335 0.26184 0.68836 0.0
H3045 H 0.84786 0.24852 0.67834 0.0
H3046 H 0.72729 0.24805 0.67913 0.0
H3047 H 0.63989 0.26949 0.70008 0.0
H3048 H 0.29943 0.27644 0.69687 0.0
H3049 H 0.41996 0.27689 0.69603 0.0
C3050 C 0.9971 1.0024 0.69371 0.0
C3051 C 1.03235 0.01153 0.69042 0.0
C3052 C 0.92767 1.00211 0.69344 0.0
C3053 C 0.77887 0.01987 0.69114 0.0
H3054 H 0.69253 0.99269 0.68413 0.0
C3055 C 0.49891 0.01823 0.68315 0.0
C3056 C 0.46234 1.00904 0.68607 0.0
C3057 C 0.5682 0.01838 0.68368 0.0
C3058 C 0.71569 1.00031 0.6862 0.0
H3059 H 1.02147 0.02764 0.68441 0.0
H3060 H 0.90064 0.02714 0.68395 0.0
H3061 H 0.81312 0.99337 0.68531 0.0
H3062 H 0.47082 0.99271 0.69175 0.0
H3063 H 0.59164 0.993 0.69273 0.0
H3064 H 0.68157 0.02681 0.69204 0.0
C3065 C 0.9267 0.02021 0.68679 0.0
C3066 C 0.78497 1.00071 0.68688 0.0
C3067 C 0.99617 0.02048 0.68703 0.0
C3068 C 0.49718 0.99992 0.68941 0.0
C3069 C 0.56664 1.00007 0.68994 0.0
C3070 C 0.70963 0.01947 0.69047 0.0
C3071 C 0.89151 1.01097 0.68991 0.0
C3072 C 0.81755 1.0105 0.68933 0.0
C3073 C 0.60309 1.00935 0.68716 0.0
C3074 C 0.67701 1.0097 0.68796 0.0
H3075 H 1.02309 0.99535 0.69637 0.0
H3076 H 0.90229 0.99494 0.69602 0.0
H3077 H 0.80208 0.0275 0.69318 0.0
H3078 H 0.47406 0.02541 0.68051 0.0
H3079 H 0.59447 0.02558 0.68133 0.0
C3080 C 0.74728 0.01991 0.44361 0.0
C3081 C 0.78323 1.01116 0.43988 0.0
C3082 C 0.67794 0.02017 0.44316 0.0
C3083 C 0.53645 1.00877 0.43046 0.0
H3084 H 0.43203 0.01989 0.44991 0.0
C3085 C 0.24943 1.00577 0.43126 0.0
C3086 C 0.21358 0.01454 0.435 0.0
C3087 C 0.3188 1.00551 0.43169 0.0
C3088 C 0.46039 0.0169 0.44437 0.0
H3089 H 0.7738 0.99566 0.4329 0.0
H3090 H 0.65289 0.99602 0.43223 0.0
H3091 H 0.55225 0.01881 0.45125 0.0
H3092 H 0.22322 0.03005 0.44195 0.0
H3093 H 0.34414 0.02969 0.44257 0.0
H3094 H 0.44457 1.00685 0.42358 0.0
C3095 C 0.67842 1.0028 0.43539 0.0
C3096 C 0.52952 0.01626 0.44514 0.0
C3097 C 0.74786 1.00255 0.43583 0.0
C3098 C 0.24907 0.02315 0.43902 0.0
C3099 C 0.31852 0.0229 0.43943 0.0
C3100 C 0.46731 1.00941 0.42969 0.0
C3101 C 0.64249 0.01168 0.43897 0.0
C3102 C 0.56858 0.01219 0.4382 0.0
C3103 C 0.35435 0.01401 0.43586 0.0
C3104 C 0.42826 0.01348 0.43663 0.0
H3105 H 0.77272 0.02673 0.44674 0.0
H3106 H 0.65225 0.02721 0.44589 0.0
H3107 H 0.56481 1.00578 0.42491 0.0
H3108 H 0.2239 0.99895 0.42816 0.0
H3109 H 0.34442 0.99846 0.42896 0.0
C3110 C 0.57388 0.75034 0.43935 0.0
C3111 C 0.60951 0.75879 0.43512 0.0
C3112 C 0.50442 0.75062 0.43976 0.0
C3113 C 0.36266 0.77003 0.43826 0.0
H3114 H 0.25809 0.74337 0.43598 0.0
C3115 C 0.07516 0.77053 0.43575 0.0
C3116 C 0.03979 0.76211 0.44006 0.0
C3117 C 0.14459 0.77025 0.43528 0.0
C3118 C 0.28651 0.75088 0.43674 0.0
H3119 H 0.59938 0.77406 0.42783 0.0
H3120 H 0.47865 0.77447 0.42845 0.0
H3121 H 0.37848 0.74245 0.43464 0.0
H3122 H 0.05034 0.74689 0.4474 0.0
H3123 H 0.17102 0.74648 0.44666 0.0
H3124 H 0.27067 0.77846 0.44035 0.0
C3125 C 0.50438 0.76769 0.43158 0.0
C3126 C 0.3557 0.75036 0.43596 0.0
C3127 C 0.57377 0.7674 0.43115 0.0
C3128 C 0.07575 0.75352 0.44402 0.0
C3129 C 0.1451 0.75323 0.44353 0.0
C3130 C 0.29347 0.77056 0.43903 0.0
C3131 C 0.46871 0.75937 0.43596 0.0
C3132 C 0.39479 0.75992 0.43671 0.0
C3133 C 0.18051 0.76153 0.43908 0.0
C3134 C 0.25439 0.76099 0.43829 0.0
H3135 H 0.59964 0.74359 0.44251 0.0
H3136 H 0.47883 0.74411 0.44326 0.0
H3137 H 0.39108 0.77755 0.43903 0.0
H3138 H 0.04921 0.77725 0.43259 0.0
H3139 H 0.17001 0.77674 0.43173 0.0
C3140 C 0.25072 0.75062 0.31214 0.0
C3141 C 0.21533 0.75909 0.31634 0.0
C3142 C 0.32017 0.75088 0.31173 0.0
C3143 C 0.46248 0.77025 0.31317 0.0
H3144 H 0.56619 0.74356 0.31559 0.0
C3145 C 0.74983 0.77068 0.31577 0.0
C3146 C 0.78506 0.76222 0.31151 0.0
C3147 C 0.6804 0.77042 0.31621 0.0
C3148 C 0.538 0.75108 0.31479 0.0
H3149 H 0.22586 0.77439 0.32359 0.0
H3150 H 0.34661 0.77477 0.32296 0.0
H3151 H 0.44576 0.74269 0.31691 0.0
H3152 H 0.77429 0.74696 0.30423 0.0
H3153 H 0.65357 0.74658 0.30492 0.0
H3154 H 0.55474 0.77863 0.31106 0.0
C3155 C 0.32069 0.76799 0.31986 0.0
C3156 C 0.4688 0.75058 0.31556 0.0
C3157 C 0.25129 0.76772 0.32028 0.0
C3158 C 0.74897 0.75361 0.30757 0.0
C3159 C 0.6796 0.75334 0.30804 0.0
C3160 C 0.53168 0.77074 0.31241 0.0
C3161 C 0.35611 0.75963 0.3155 0.0
C3162 C 0.43003 0.76016 0.31476 0.0
C3163 C 0.64433 0.76168 0.31243 0.0
C3164 C 0.57044 0.76117 0.3132 0.0
H3165 H 0.22478 0.74387 0.309 0.0
H3166 H 0.34559 0.74435 0.30825 0.0
H3167 H 0.43429 0.77777 0.31237 0.0
H3168 H 0.77589 0.77741 0.31891 0.0
H3169 H 0.65508 0.77693 0.31973 0.0
C3170 C 0.07368 1.00266 0.31534 0.0
C3171 C 0.0385 1.01127 0.31127 0.0
C3172 C 0.14312 1.00292 0.3158 0.0
C3173 C 0.29244 0.0164 0.30609 0.0
H3174 H 0.37689 1.00694 0.32767 0.0
C3175 C 0.57293 0.02329 0.31229 0.0
C3176 C 0.60825 0.01467 0.3163 0.0
C3177 C 0.50348 0.02303 0.31186 0.0
C3178 C 0.35429 1.00951 0.32156 0.0
H3179 H 0.04936 0.02684 0.30441 0.0
H3180 H 0.16985 0.02733 0.30529 0.0
H3181 H 0.25664 1.00588 0.3263 0.0
H3182 H 0.59761 0.99907 0.32313 0.0
H3183 H 0.47706 0.99858 0.32232 0.0
H3184 H 0.39008 0.02004 0.30135 0.0
C3185 C 0.144 0.02029 0.30803 0.0
C3186 C 0.28514 1.00888 0.32076 0.0
C3187 C 0.07465 0.02003 0.30755 0.0
C3188 C 0.57221 1.0059 0.32003 0.0
C3189 C 0.50283 1.00563 0.31959 0.0
C3190 C 0.36158 0.01703 0.30689 0.0
C3191 C 0.17926 0.0118 0.31223 0.0
C3192 C 0.25318 0.01232 0.31302 0.0
C3193 C 0.46745 0.01414 0.31542 0.0
C3194 C 0.39354 0.0136 0.31463 0.0
H3195 H 0.04759 0.99578 0.31827 0.0
H3196 H 0.16848 0.99614 0.31896 0.0
H3197 H 0.26986 0.01897 0.29998 0.0
H3198 H 0.59891 0.03019 0.30936 0.0
H3199 H 0.47802 0.02982 0.30873 0.0
C3200 C 0.32321 0.49944 0.56241 0.0
C3201 C 0.35872 0.50804 0.56644 0.0
C3202 C 0.25377 0.4997 0.56198 0.0
C3203 C 0.10486 0.5132 0.5717 0.0
H3204 H 1.02024 0.50383 0.55011 0.0
C3205 C 0.82438 0.52008 0.5655 0.0
C3206 C 0.78905 0.51149 0.56141 0.0
C3207 C 0.89382 0.51982 0.56596 0.0
C3208 C 0.04288 0.50637 0.55623 0.0
H3209 H 0.34841 0.52361 0.5733 0.0
H3210 H 0.22787 0.52411 0.57249 0.0
H3211 H 0.14043 0.50274 0.55148 0.0
H3212 H 0.79961 0.49595 0.55452 0.0
H3213 H 0.92008 0.49545 0.55541 0.0
H3214 H 1.0073 0.51683 0.57645 0.0
C3215 C 0.25349 0.51707 0.56975 0.0
C3216 C 0.11199 0.50572 0.55702 0.0
C3217 C 0.32287 0.5168 0.57019 0.0
C3218 C 0.82503 0.50275 0.55767 0.0
C3219 C 0.89437 0.50248 0.55815 0.0
C3220 C 1.03574 0.51384 0.57091 0.0
C3221 C 0.21793 0.50858 0.56556 0.0
C3222 C 0.14403 0.50913 0.56477 0.0
C3223 C 0.92979 0.51096 0.56237 0.0
C3224 C 1.0037 0.51043 0.56316 0.0
H3225 H 0.34906 0.49255 0.55946 0.0
H3226 H 0.22816 0.49292 0.55883 0.0
H3227 H 0.12752 0.51574 0.57782 0.0
H3228 H 0.79842 0.52696 0.56844 0.0
H3229 H 0.91931 0.52659 0.56914 0.0
C3230 C 0.49749 0.75191 0.56559 0.0
C3231 C 0.53283 0.7605 0.56149 0.0
C3232 C 0.42806 0.75216 0.56605 0.0
C3233 C 0.27909 0.76553 0.55628 0.0
H3234 H 0.19405 0.75618 0.57788 0.0
C3235 C 0.99864 0.77243 0.56242 0.0
C3236 C 0.96306 0.76383 0.56646 0.0
C3237 C 0.06808 0.77217 0.562 0.0
C3238 C 0.21682 0.75872 0.57176 0.0
H3239 H 0.52228 0.77603 0.55457 0.0
H3240 H 0.40177 0.7765 0.55545 0.0
H3241 H 0.31432 0.75514 0.57653 0.0
H3242 H 0.97325 0.74826 0.57334 0.0
H3243 H 0.09382 0.74777 0.57254 0.0
H3244 H 0.1816 0.76912 0.55151 0.0
C3245 C 0.4275 0.76948 0.55821 0.0
C3246 C 0.28598 0.7581 0.57097 0.0
C3247 C 0.49685 0.76923 0.55773 0.0
C3248 C 0.99885 0.75507 0.57022 0.0
C3249 C 0.06823 0.7548 0.56979 0.0
C3250 C 0.20995 0.76615 0.55706 0.0
C3251 C 0.39207 0.761 0.56244 0.0
C3252 C 0.31815 0.7615 0.56322 0.0
C3253 C 0.10386 0.76329 0.56559 0.0
C3254 C 0.17778 0.76276 0.56481 0.0
H3255 H 0.52345 0.74504 0.56854 0.0
H3256 H 0.40256 0.74539 0.56923 0.0
H3257 H 0.30183 0.76807 0.55015 0.0
H3258 H 0.97285 0.77932 0.55947 0.0
H3259 H 0.09374 0.77895 0.55885 0.0
C3260 C 0.82525 0.76881 0.69411 0.0
C3261 C 0.78916 0.76028 0.69006 0.0
C3262 C 0.89462 0.76909 0.69365 0.0
C3263 C 0.04251 0.75179 0.68904 0.0
H3264 H 0.12853 0.77993 0.68495 0.0
C3265 C 0.32295 0.75496 0.68124 0.0
C3266 C 0.35893 0.76349 0.68531 0.0
C3267 C 0.25355 0.75469 0.68165 0.0
C3268 C 0.10546 0.77202 0.68618 0.0
H3269 H 0.79834 0.74526 0.68244 0.0
H3270 H 0.91915 0.74577 0.68162 0.0
H3271 H 1.00808 0.77904 0.68624 0.0
H3272 H 0.3495 0.77855 0.69286 0.0
H3273 H 0.22867 0.77807 0.69359 0.0
H3274 H 0.13988 0.74476 0.68899 0.0
C3275 C 0.89383 0.7522 0.68523 0.0
C3276 C 1.03625 0.77151 0.68693 0.0
C3277 C 0.8244 0.75193 0.68568 0.0
C3278 C 0.32355 0.77187 0.68963 0.0
C3279 C 0.25409 0.77162 0.69002 0.0
C3280 C 0.11172 0.7523 0.68829 0.0
C3281 C 0.92989 0.76086 0.68913 0.0
C3282 C 1.00378 0.76139 0.68838 0.0
C3283 C 0.21813 0.76295 0.68612 0.0
C3284 C 0.14421 0.76242 0.68685 0.0
H3285 H 0.79992 0.77538 0.69755 0.0
H3286 H 0.92064 0.77579 0.69685 0.0
H3287 H 1.01943 0.74388 0.69027 0.0
H3288 H 0.34838 0.74836 0.67785 0.0
H3289 H 0.22762 0.74799 0.67845 0.0
C3290 C 1.00071 0.49959 0.68912 0.0
C3291 C 0.96536 0.50819 0.68508 0.0
C3292 C 0.07015 0.49985 0.68953 0.0
C3293 C 0.21919 0.5133 0.67975 0.0
H3294 H 0.30392 0.50399 0.70134 0.0
C3295 C 0.49988 0.52016 0.68588 0.0
C3296 C 0.53504 0.51157 0.68996 0.0
C3297 C 0.43044 0.51991 0.68543 0.0
C3298 C 0.28124 0.50651 0.69522 0.0
H3299 H 0.97593 0.52375 0.67819 0.0
H3300 H 0.09648 0.52424 0.67898 0.0
H3301 H 0.18368 0.50291 0.70001 0.0
H3302 H 0.52418 0.49603 0.69686 0.0
H3303 H 0.4037 0.49555 0.69601 0.0
H3304 H 0.31677 0.5169 0.67496 0.0
C3305 C 0.07073 0.51721 0.68174 0.0
C3306 C 0.2121 0.50588 0.69445 0.0
C3307 C 1.00135 0.51694 0.68131 0.0
C3308 C 0.4989 0.50283 0.69371 0.0
C3309 C 0.42955 0.50257 0.69325 0.0
C3310 C 0.28833 0.51394 0.68052 0.0
C3311 C 0.10614 0.50872 0.68593 0.0
C3312 C 0.18005 0.50926 0.6867 0.0
C3313 C 0.3943 0.51106 0.68903 0.0
C3314 C 0.32039 0.51055 0.68827 0.0
H3315 H 0.97474 0.49271 0.69208 0.0
H3316 H 0.09566 0.49308 0.69269 0.0
H3317 H 0.1965 0.51583 0.67363 0.0
H3318 H 0.52597 0.52704 0.68292 0.0
H3319 H 0.40506 0.52669 0.68225 0.0
C3320 C 0.74888 0.52295 0.43935 0.0
C3321 C 0.71339 0.51453 0.43507 0.0
C3322 C 0.81833 0.52267 0.43977 0.0
C3323 C 0.96027 0.5033 0.43819 0.0
H3324 H 0.0647 0.53001 0.43609 0.0
C3325 C 0.24777 0.50287 0.4357 0.0
C3326 C 0.28308 0.51125 0.44005 0.0
C3327 C 0.17835 0.50315 0.43523 0.0
C3328 C 0.03631 0.52248 0.4368 0.0
H3329 H 0.72377 0.49933 0.42771 0.0
H3330 H 0.8445 0.49893 0.42834 0.0
H3331 H 0.94434 0.53091 0.43474 0.0
H3332 H 0.27242 0.5264 0.44748 0.0
H3333 H 0.15172 0.52681 0.44674 0.0
H3334 H 0.05227 0.49487 0.44025 0.0
C3335 C 0.81866 0.50567 0.4315 0.0
C3336 C 0.96714 0.523 0.43601 0.0
C3337 C 0.74927 0.50595 0.43107 0.0
C3338 C 0.24705 0.5198 0.44406 0.0
C3339 C 0.17769 0.52009 0.44358 0.0
C3340 C 1.02945 0.50278 0.43897 0.0
C3341 C 0.85419 0.51396 0.43594 0.0
C3342 C 0.9281 0.51342 0.43669 0.0
C3343 C 0.14236 0.51183 0.43908 0.0
C3344 C 0.06848 0.51237 0.4383 0.0
H3345 H 0.72302 0.52966 0.44255 0.0
H3346 H 0.84379 0.52915 0.44331 0.0
H3347 H 0.9319 0.49577 0.4389 0.0
H3348 H 0.27377 0.49618 0.43249 0.0
H3349 H 0.15301 0.49669 0.43164 0.0
C3350 C 0.07193 0.2505 0.43939 0.0
C3351 C 0.10751 0.25895 0.43516 0.0
C3352 C 1.00247 0.25077 0.4398 0.0
C3353 C 0.86067 0.27016 0.43832 0.0
H3354 H 0.7562 0.2435 0.43594 0.0
C3355 C 0.57328 0.27065 0.43571 0.0
C3356 C 0.53784 0.26221 0.43998 0.0
C3357 C 0.64272 0.27038 0.43527 0.0
C3358 C 0.7846 0.25101 0.43673 0.0
H3359 H 0.09731 0.27423 0.42788 0.0
H3360 H 0.9766 0.27462 0.42851 0.0
H3361 H 0.87662 0.24259 0.43464 0.0
H3362 H 0.54826 0.24697 0.44729 0.0
H3363 H 0.66895 0.24657 0.4466 0.0
H3364 H 0.76865 0.27857 0.44041 0.0
C3365 C 1.00236 0.26785 0.43163 0.0
C3366 C 0.85379 0.25049 0.43597 0.0
C3367 C 0.07173 0.26757 0.4312 0.0
C3368 C 0.57373 0.25361 0.44394 0.0
C3369 C 0.64309 0.25333 0.44348 0.0
C3370 C 0.79148 0.27068 0.43907 0.0
C3371 C 0.96674 0.25952 0.43601 0.0
C3372 C 0.89284 0.26006 0.43675 0.0
C3373 C 0.67856 0.26165 0.43906 0.0
C3374 C 0.75244 0.26111 0.43829 0.0
H3375 H 0.09773 0.24375 0.44255 0.0
H3376 H 0.9769 0.24425 0.4433 0.0
H3377 H 0.88907 0.27767 0.43911 0.0
H3378 H 0.54738 0.27739 0.43256 0.0
H3379 H 0.6682 0.27688 0.43174 0.0
C3380 C 0.24865 0.27073 0.31551 0.0
C3381 C 0.28383 0.26214 0.31143 0.0
C3382 C 0.17922 0.27049 0.31598 0.0
C3383 C 1.02995 0.25713 0.30622 0.0
H3384 H 0.94517 0.26653 0.32781 0.0
C3385 C 0.74932 0.25031 0.31238 0.0
C3386 C 0.71398 0.25893 0.31641 0.0
C3387 C 0.81876 0.25056 0.31196 0.0
C3388 C 0.96788 0.26397 0.3217 0.0
H3389 H 0.27298 0.24661 0.30453 0.0
H3390 H 0.15244 0.24614 0.30541 0.0
H3391 H 0.06548 0.26753 0.32646 0.0
H3392 H 0.72458 0.27451 0.32326 0.0
H3393 H 0.84519 0.27497 0.32245 0.0
H3394 H 0.93235 0.25357 0.30146 0.0
C3395 C 0.17831 0.25315 0.30816 0.0
C3396 C 0.03705 0.26457 0.32091 0.0
C3397 C 0.24768 0.25341 0.30768 0.0
C3398 C 0.75 0.26769 0.32015 0.0
C3399 C 0.8194 0.26794 0.31971 0.0
C3400 C 0.96079 0.25653 0.307 0.0
C3401 C 0.14306 0.26164 0.31238 0.0
C3402 C 0.06912 0.26115 0.31317 0.0
C3403 C 0.85478 0.25943 0.31553 0.0
C3404 C 0.92872 0.25994 0.31475 0.0
H3405 H 0.27473 0.2776 0.31846 0.0
H3406 H 0.15387 0.27726 0.31916 0.0
H3407 H 0.05263 0.25458 0.3001 0.0
H3408 H 0.72335 0.24342 0.30944 0.0
H3409 H 0.84423 0.24377 0.30882 0.0
C3410 C 0.0714 0.50589 0.32026 0.0
C3411 C 0.10738 0.51455 0.31635 0.0
C3412 C 1.00203 0.5056 0.31982 0.0
C3413 C 0.85374 0.52296 0.31557 0.0
H3414 H 0.76845 0.4949 0.31093 0.0
C3415 C 0.57385 0.51986 0.30755 0.0
C3416 C 0.53775 0.51121 0.31144 0.0
C3417 C 0.6432 0.52015 0.30802 0.0
C3418 C 0.79132 0.50279 0.31233 0.0
H3419 H 0.09795 0.52982 0.30906 0.0
H3420 H 0.97711 0.52931 0.3083 0.0
H3421 H 0.88885 0.49582 0.31225 0.0
H3422 H 0.54692 0.49596 0.31876 0.0
H3423 H 0.66775 0.49647 0.31959 0.0
H3424 H 0.7562 0.52993 0.31564 0.0
C3425 C 1.00254 0.52277 0.31176 0.0
C3426 C 0.8605 0.50332 0.31309 0.0
C3427 C 0.07199 0.52304 0.31217 0.0
C3428 C 0.57299 0.50273 0.31566 0.0
C3429 C 0.64243 0.50301 0.31611 0.0
C3430 C 0.78456 0.52243 0.3148 0.0
C3431 C 0.96661 0.51397 0.31549 0.0
C3432 C 0.89272 0.51341 0.31473 0.0
C3433 C 0.67847 0.51179 0.31238 0.0
C3434 C 0.75234 0.51234 0.31316 0.0
H3435 H 0.09682 0.49921 0.32354 0.0
H3436 H 0.97612 0.49879 0.3229 0.0
H3437 H 0.8766 0.53085 0.31696 0.0
H3438 H 0.54855 0.52654 0.30424 0.0
H3439 H 0.66922 0.52695 0.30495 0.0
C3440 C 0.82379 0.02 0.06555 0.0
C3441 C 0.78842 0.01156 0.06128 0.0
C3442 C 0.89322 0.01973 0.066 0.0
C3443 C 1.03508 1.00034 0.06459 0.0
H3444 H 0.13971 0.02699 0.06219 0.0
C3445 C 0.32248 0.9998 0.06194 0.0
C3446 C 0.358 1.00826 0.06616 0.0
C3447 C 0.25303 1.00007 0.06153 0.0
C3448 C 0.11127 0.01948 0.06299 0.0
H3449 H 0.79897 0.9963 0.054 0.0
H3450 H 0.91964 0.99589 0.05471 0.0
H3451 H 1.01932 0.0279 0.06087 0.0
H3452 H 0.34772 0.02353 0.07344 0.0
H3453 H 0.22701 0.02393 0.07281 0.0
H3454 H 0.12702 0.99191 0.0667 0.0
C3455 C 0.89373 1.00266 0.05782 0.0
C3456 C 0.04209 0.02 0.06222 0.0
C3457 C 0.82438 1.00295 0.05734 0.0
C3458 C 0.32218 0.01687 0.07012 0.0
C3459 C 0.25281 0.01716 0.06969 0.0
C3460 C 0.10426 0.99981 0.06535 0.0
C3461 C 0.92913 1.01098 0.06222 0.0
C3462 C 1.00299 1.01044 0.063 0.0
C3463 C 0.21725 1.00882 0.06532 0.0
C3464 C 0.14336 1.00937 0.06457 0.0
H3465 H 0.79784 0.02674 0.06869 0.0
H3466 H 0.91864 0.02623 0.06952 0.0
H3467 H 1.00663 0.99283 0.06538 0.0
H3468 H 0.34832 0.99305 0.05879 0.0
H3469 H 0.2275 0.99356 0.05804 0.0
C3470 C 0.99966 0.25519 0.07018 0.0
C3471 C 0.96388 0.26394 0.06642 0.0
C3472 C 0.06905 0.25493 0.06975 0.0
C3473 C 0.21077 0.26628 0.05703 0.0
H3474 H 0.31514 0.25527 0.0765 0.0
C3475 C 0.49766 0.26936 0.0577 0.0
C3476 C 0.53365 0.26063 0.06145 0.0
C3477 C 0.42831 0.26962 0.05818 0.0
C3478 C 0.2868 0.25823 0.07095 0.0
H3479 H 0.97367 0.27944 0.05943 0.0
H3480 H 0.09456 0.27907 0.05882 0.0
H3481 H 0.19486 0.2563 0.07784 0.0
H3482 H 0.52429 0.24518 0.06851 0.0
H3483 H 0.40341 0.24553 0.06921 0.0
H3484 H 0.30266 0.2682 0.05012 0.0
C3485 C 0.0689 0.27229 0.06197 0.0
C3486 C 0.21764 0.25885 0.07173 0.0
C3487 C 0.99946 0.27255 0.06238 0.0
C3488 C 0.49832 0.25205 0.06556 0.0
C3489 C 0.42889 0.2523 0.06602 0.0
C3490 C 0.27991 0.26566 0.05624 0.0
C3491 C 0.10468 0.26341 0.06556 0.0
C3492 C 0.1786 0.26289 0.06478 0.0
C3493 C 0.3929 0.26114 0.06241 0.0
C3494 C 0.31897 0.26164 0.06319 0.0
H3495 H 0.97405 0.24838 0.07329 0.0
H3496 H 0.09464 0.24789 0.0725 0.0
H3497 H 0.18242 0.26924 0.05147 0.0
H3498 H 0.52308 0.27616 0.05454 0.0
H3499 H 0.40258 0.27664 0.05542 0.0
C3500 C 0.82309 0.25193 0.18576 0.0
C3501 C 0.78784 0.26042 0.18997 0.0
C3502 C 0.89254 0.2522 0.18531 0.0
C3503 C 1.03472 0.2716 0.18661 0.0
H3504 H 0.13883 0.24498 0.1892 0.0
C3505 C 0.32203 0.27219 0.1893 0.0
C3506 C 0.3575 0.2637 0.18512 0.0
C3507 C 0.25257 0.27191 0.1897 0.0
C3508 C 0.11053 0.25248 0.18835 0.0
H3509 H 0.79858 0.27574 0.19717 0.0
H3510 H 0.91925 0.27614 0.19647 0.0
H3511 H 1.01839 0.24408 0.1905 0.0
H3512 H 0.34712 0.24835 0.17794 0.0
H3513 H 0.2264 0.24794 0.17856 0.0
H3514 H 0.12685 0.28001 0.18446 0.0
C3515 C 0.89325 0.26934 0.19339 0.0
C3516 C 0.04133 0.25196 0.18911 0.0
C3517 C 0.8239 0.26906 0.19386 0.0
C3518 C 0.32162 0.25504 0.18122 0.0
C3519 C 0.25224 0.25475 0.18164 0.0
C3520 C 0.10392 0.27212 0.18585 0.0
C3521 C 0.92855 0.26098 0.18903 0.0
C3522 C 1.00243 0.26151 0.18826 0.0
C3523 C 0.21673 0.26312 0.18597 0.0
C3524 C 0.14283 0.26257 0.18671 0.0
H3525 H 0.79705 0.24517 0.18265 0.0
H3526 H 0.91789 0.24566 0.18183 0.0
H3527 H 1.00642 0.2791 0.18577 0.0
H3528 H 0.34791 0.27897 0.19241 0.0
H3529 H 0.22707 0.27845 0.19315 0.0
C3530 C 0.49827 0.01969 0.18557 0.0
C3531 C 0.53339 1.01129 0.1899 0.0
C3532 C 0.42884 0.01942 0.1851 0.0
C3533 C 0.2864 1.00009 0.1866 0.0
H3534 H 0.18254 0.02679 0.18878 0.0
C3535 C 0.99899 0.99962 0.18916 0.0
C3536 C 0.96365 1.00806 0.1849 0.0
C3537 C 0.06844 0.99989 0.18957 0.0
C3538 C 0.21076 0.01926 0.18804 0.0
H3539 H 0.52239 0.99609 0.19727 0.0
H3540 H 0.40168 0.99569 0.19653 0.0
H3541 H 0.30292 0.02768 0.19013 0.0
H3542 H 0.97429 0.0233 0.17758 0.0
H3543 H 0.09505 0.02369 0.17821 0.0
H3544 H 0.19425 0.99167 0.1845 0.0
C3545 C 0.4278 1.00243 0.19339 0.0
C3546 C 0.27994 0.01978 0.18883 0.0
C3547 C 0.49717 1.00271 0.19388 0.0
C3548 C 0.99969 0.01666 0.18092 0.0
C3549 C 0.06909 0.01694 0.18135 0.0
C3550 C 0.21722 0.99958 0.18581 0.0
C3551 C 0.39266 1.01072 0.18892 0.0
C3552 C 0.31877 1.01019 0.18813 0.0
C3553 C 0.10445 1.00862 0.18576 0.0
C3554 C 0.17837 1.00916 0.18652 0.0
H3555 H 0.52441 0.0264 0.18239 0.0
H3556 H 0.40365 0.0259 0.18153 0.0
H3557 H 0.31463 0.99256 0.18586 0.0
H3558 H 0.97301 0.99289 0.19233 0.0
H3559 H 0.09378 0.99339 0.19309 0.0
C3560 C 0.74975 1.00584 0.9311 0.0
C3561 C 0.71383 0.01456 0.93489 0.0
C3562 C 0.81913 1.00557 0.93155 0.0
C3563 C 0.96053 0.01684 0.94434 0.0
H3564 H 0.06534 1.00596 0.92484 0.0
C3565 C 0.24756 0.01987 0.94371 0.0
C3566 C 0.28355 1.01117 0.93991 0.0
C3567 C 0.17821 0.02015 0.94324 0.0
C3568 C 0.03687 1.00889 0.9304 0.0
H3569 H 0.72337 0.03 0.94195 0.0
H3570 H 0.84425 0.02963 0.9426 0.0
H3571 H 0.94511 1.00702 0.92348 0.0
H3572 H 0.27417 0.99577 0.93279 0.0
H3573 H 0.1533 0.99614 0.9321 0.0
H3574 H 0.05227 0.01871 0.95127 0.0
C3575 C 0.8187 0.02288 0.93941 0.0
C3576 C 0.96774 1.00951 0.92962 0.0
C3577 C 0.74926 0.02313 0.93898 0.0
C3578 C 0.24821 1.00262 0.93578 0.0
C3579 C 0.17878 1.00288 0.93532 0.0
C3580 C 1.02966 0.01621 0.94513 0.0
C3581 C 0.85462 0.01403 0.93579 0.0
C3582 C 0.92853 0.0135 0.93657 0.0
C3583 C 0.14279 0.01171 0.93896 0.0
C3584 C 0.06888 0.01223 0.93817 0.0
H3585 H 0.72426 0.99905 0.92795 0.0
H3586 H 0.84482 0.99856 0.92877 0.0
H3587 H 0.93206 0.01977 0.9499 0.0
H3588 H 0.27298 0.02664 0.9469 0.0
H3589 H 0.15248 0.02715 0.94602 0.0
C3590 C 0.07291 0.76752 0.93115 0.0
C3591 C 0.10871 0.75893 0.93514 0.0
C3592 C 1.00352 0.7678 0.93157 0.0
C3593 C 0.85498 0.75045 0.93603 0.0
H3594 H 0.76972 0.77856 0.94031 0.0
C3595 C 0.57493 0.75361 0.94405 0.0
C3596 C 0.53897 0.76217 0.94005 0.0
C3597 C 0.6443 0.75333 0.94357 0.0
C3598 C 0.79258 0.77066 0.93902 0.0
H3599 H 0.09894 0.74378 0.94259 0.0
H3600 H 0.97815 0.74428 0.94335 0.0
H3601 H 0.89013 0.77767 0.93899 0.0
H3602 H 0.5484 0.77727 0.93252 0.0
H3603 H 0.66919 0.77677 0.93168 0.0
H3604 H 0.75743 0.74344 0.93607 0.0
C3605 C 1.00369 0.75077 0.93982 0.0
C3606 C 0.86178 0.77014 0.93825 0.0
C3607 C 0.07314 0.7505 0.93941 0.0
C3608 C 0.57435 0.77057 0.93571 0.0
C3609 C 0.64378 0.7703 0.93525 0.0
C3610 C 0.78579 0.75096 0.9368 0.0
C3611 C 0.96791 0.75949 0.93599 0.0
C3612 C 0.894 0.76003 0.93674 0.0
C3613 C 0.6797 0.76161 0.9391 0.0
C3614 C 0.75359 0.76107 0.93832 0.0
H3615 H 0.09848 0.77416 0.9278 0.0
H3616 H 0.97774 0.77455 0.92842 0.0
H3617 H 0.87783 0.74255 0.93474 0.0
H3618 H 0.5495 0.747 0.94745 0.0
H3619 H 0.67022 0.7466 0.94673 0.0
C3620 C 0.24922 0.77057 0.81552 0.0
C3621 C 0.28442 0.76191 0.81153 0.0
C3622 C 0.17978 0.77034 0.81596 0.0
C3623 C 1.03072 0.75683 0.80629 0.0
H3624 H 0.9456 0.76647 0.82779 0.0
C3625 C 0.75008 0.75003 0.81245 0.0
C3626 C 0.71467 0.75869 0.8164 0.0
C3627 C 0.81953 0.75027 0.81203 0.0
C3628 C 0.9684 0.76385 0.8217 0.0
H3629 H 0.27364 0.74627 0.80478 0.0
H3630 H 0.15312 0.74582 0.80563 0.0
H3631 H 0.06591 0.7675 0.82646 0.0
H3632 H 0.72514 0.77435 0.82313 0.0
H3633 H 0.84571 0.77482 0.82234 0.0
H3634 H 0.93323 0.75318 0.80153 0.0
C3635 C 0.17896 0.75288 0.80832 0.0
C3636 C 0.03757 0.76446 0.82092 0.0
C3637 C 0.24832 0.75312 0.80786 0.0
C3638 C 0.75061 0.76749 0.82008 0.0
C3639 C 0.81999 0.76775 0.81965 0.0
C3640 C 0.96156 0.75622 0.80706 0.0
C3641 C 0.14368 0.76144 0.81244 0.0
C3642 C 0.06975 0.76095 0.81321 0.0
C3643 C 0.85546 0.7592 0.81555 0.0
C3644 C 0.92938 0.75972 0.81478 0.0
H3645 H 0.27528 0.77749 0.8184 0.0
H3646 H 0.15437 0.77717 0.81906 0.0
H3647 H 0.0535 0.75421 0.8002 0.0
H3648 H 0.72416 0.7431 0.80956 0.0
H3649 H 0.84507 0.74345 0.80895 0.0
C3650 C 0.57534 0.01978 0.80758 0.0
C3651 C 0.53925 1.01107 0.81138 0.0
C3652 C 0.6447 0.02003 0.80803 0.0
C3653 C 0.78602 1.0087 0.82076 0.0
H3654 H 0.89046 0.01941 0.80114 0.0
C3655 C 0.07282 1.00534 0.81979 0.0
C3656 C 0.10891 0.01405 0.81598 0.0
C3657 C 1.00343 1.00513 0.8194 0.0
C3658 C 0.86209 0.01653 0.80674 0.0
H3659 H 0.54837 0.99565 0.81849 0.0
H3660 H 0.66921 0.996 0.81913 0.0
H3661 H 0.77012 0.01847 0.79989 0.0
H3662 H 0.09975 0.02953 0.80896 0.0
H3663 H 0.97887 0.02925 0.80841 0.0
H3664 H 0.87802 1.00674 0.8276 0.0
C3665 C 0.64383 1.00275 0.81594 0.0
C3666 C 0.79291 0.01597 0.80601 0.0
C3667 C 0.57443 1.00251 0.8155 0.0
C3668 C 0.0737 0.02267 0.81194 0.0
C3669 C 1.00427 0.02246 0.81156 0.0
C3670 C 0.85521 1.00925 0.82149 0.0
C3671 C 0.67994 0.01157 0.81228 0.0
C3672 C 0.75385 0.01205 0.81301 0.0
C3673 C 0.96816 0.01363 0.8152 0.0
C3674 C 0.89425 0.01317 0.81449 0.0
H3675 H 0.55 0.02655 0.8044 0.0
H3676 H 0.67058 0.02703 0.80523 0.0
H3677 H 0.75765 1.00581 0.82635 0.0
H3678 H 0.09817 0.99853 0.82291 0.0
H3679 H 0.97753 0.99813 0.82219 0.0
C3680 C 0.09219 0.50824 0.03392 0.0
C3681 C 0.04835 0.5153 0.03836 0.0
C3682 C 0.08914 0.50716 0.02475 0.0
C3683 C 0.97792 0.51204 0.00556 0.0
H3684 H 0.14122 0.5107 0.99216 0.0
C3685 C 0.98079 0.51464 0.96742 0.0
C3686 C 1.02463 0.50756 0.963 0.0
C3687 C 0.98383 0.51576 0.9766 0.0
C3688 C 0.09504 0.51095 0.99579 0.0
H3689 H 0.96635 0.52663 0.03668 0.0
H3690 H 0.96129 0.52483 0.02077 0.0
H3691 H 0.14577 0.51187 0.00813 0.0
H3692 H 0.10663 0.49624 0.96472 0.0
H3693 H 0.11168 0.49812 0.98062 0.0
H3694 H 0.92719 0.51112 0.99322 0.0
C3695 C 0.99771 0.52003 0.02432 0.0
C3696 C 0.09768 0.5116 0.00498 0.0
C3697 C 1.00089 0.52112 0.03346 0.0
C3698 C 0.07209 0.50177 0.96792 0.0
C3699 C 0.07527 0.5029 0.97706 0.0
C3700 C 0.97528 0.51139 0.99638 0.0
C3701 C 0.04195 0.51308 0.01981 0.0
C3702 C 0.03916 0.51216 0.01001 0.0
C3703 C 1.03102 0.50987 0.98155 0.0
C3704 C 1.0338 0.51083 0.99135 0.0
H3705 H 0.12913 0.50361 0.03753 0.0
H3706 H 0.12347 0.50162 0.02153 0.0
H3707 H 0.93174 0.51229 0.00919 0.0
H3708 H 0.94384 0.51925 0.9638 0.0
H3709 H 0.94949 0.52131 0.9798 0.0
C3710 C 0.34176 0.75872 0.96746 0.0
C3711 C 0.29826 0.76591 0.9631 0.0
C3712 C 0.33884 0.75754 0.97663 0.0
C3713 C 0.27717 0.77172 0.99677 0.0
H3714 H 0.3022 0.74315 0.00763 0.0
C3715 C 0.23123 0.76416 0.03404 0.0
C3716 C 0.27499 0.75702 0.0384 0.0
C3717 C 0.23409 0.76536 0.02487 0.0
C3718 C 0.29583 0.75123 0.00473 0.0
H3719 H 0.21665 0.77728 0.9649 0.0
H3720 H 0.21093 0.77514 0.98079 0.0
H3721 H 0.3075 0.74485 0.9917 0.0
H3722 H 0.35698 0.74572 0.03658 0.0
H3723 H 0.36254 0.74788 0.02069 0.0
H3724 H 0.26547 0.77809 0.0098 0.0
C3725 C 0.24827 0.77056 0.97721 0.0
C3726 C 0.29892 0.7522 0.99556 0.0
C3727 C 0.25124 0.77174 0.96807 0.0
C3728 C 0.3222 0.75123 0.03342 0.0
C3729 C 0.32508 0.75242 0.02428 0.0
C3730 C 0.27406 0.77075 0.00594 0.0
C3731 C 0.29229 0.76351 0.98164 0.0
C3732 C 0.2896 0.76246 0.99144 0.0
C3733 C 0.28081 0.75944 0.01985 0.0
C3734 C 0.28342 0.76049 0.01006 0.0
H3735 H 0.37853 0.75411 0.96381 0.0
H3736 H 0.37396 0.7521 0.9798 0.0
H3737 H 0.27083 0.77979 0.99387 0.0
H3738 H 0.19432 0.76874 0.0377 0.0
H3739 H 0.19881 0.77077 0.0217 0.0
C3740 C 0.9816 0.75869 0.28407 0.0
C3741 C 1.02544 0.76585 0.28842 0.0
C3742 C 0.98432 0.7575 0.2749 0.0
C3743 C 0.04616 0.77166 0.25474 0.0
H3744 H 1.01995 0.74312 0.24388 0.0
C3745 C 0.09128 0.76412 0.21746 0.0
C3746 C 0.04721 0.75699 0.21311 0.0
C3747 C 0.08859 0.76531 0.22663 0.0
C3748 C 1.02665 0.75119 0.24679 0.0
H3749 H 0.10748 0.77718 0.28658 0.0
H3750 H 0.11285 0.77502 0.27069 0.0
H3751 H 1.01492 0.7448 0.25982 0.0
H3752 H 0.96484 0.74573 0.21496 0.0
H3753 H 0.95958 0.74789 0.23084 0.0
H3754 H 0.05792 0.77804 0.24171 0.0
C3755 C 0.07539 0.77047 0.27429 0.0
C3756 C 1.02371 0.75215 0.25595 0.0
C3757 C 0.07261 0.77166 0.28342 0.0
C3758 C 0.99986 0.75122 0.21811 0.0
C3759 C 0.99715 0.75241 0.22724 0.0
C3760 C 0.04912 0.7707 0.24557 0.0
C3761 C 1.03101 0.76344 0.26987 0.0
C3762 C 1.03348 0.7624 0.26007 0.0
C3763 C 0.04175 0.75941 0.23166 0.0
C3764 C 0.03933 0.76045 0.24146 0.0
H3765 H 0.9447 0.7541 0.28774 0.0
H3766 H 0.94894 0.75208 0.27174 0.0
H3767 H 0.05284 0.77973 0.25764 0.0
H3768 H 0.1283 0.76867 0.21378 0.0
H3769 H 0.12411 0.77071 0.22978 0.0
C3770 C 0.23063 0.5081 0.21747 0.0
C3771 C 0.27502 0.5151 0.21303 0.0
C3772 C 0.23343 0.50705 0.22665 0.0
C3773 C 0.34459 0.51185 0.24586 0.0
H3774 H 0.18094 0.51083 0.25921 0.0
C3775 C 0.3412 0.51464 0.284 0.0
C3776 C 0.29681 0.50763 0.28842 0.0
C3777 C 0.33838 0.51573 0.27482 0.0
C3778 C 0.22721 0.511 0.25559 0.0
H3779 H 0.35775 0.52631 0.21472 0.0
H3780 H 0.36241 0.52455 0.23063 0.0
H3781 H 0.1768 0.51191 0.24323 0.0
H3782 H 0.21404 0.49642 0.2867 0.0
H3783 H 0.20936 0.49826 0.2708 0.0
H3784 H 0.395 0.51093 0.25823 0.0
C3785 C 0.32573 0.51979 0.22708 0.0
C3786 C 0.2248 0.51159 0.2464 0.0
C3787 C 0.32279 0.52086 0.21794 0.0
C3788 C 0.24901 0.50189 0.2835 0.0
C3789 C 0.24605 0.503 0.27436 0.0
C3790 C 0.347 0.51125 0.25505 0.0
C3791 C 0.28093 0.51291 0.23159 0.0
C3792 C 0.28345 0.51203 0.2414 0.0
C3793 C 0.29086 0.50989 0.26986 0.0
C3794 C 0.28835 0.5108 0.26006 0.0
H3795 H 0.19343 0.50352 0.21386 0.0
H3796 H 0.19865 0.50157 0.22987 0.0
H3797 H 0.39086 0.51201 0.24225 0.0
H3798 H 0.37842 0.5192 0.28762 0.0
H3799 H 0.37317 0.52122 0.27161 0.0
C3800 C 0.75141 0.27161 0.96802 0.0
C3801 C 0.7985 0.26578 0.96305 0.0
C3802 C 0.74839 0.27043 0.97715 0.0
C3803 C 0.79897 0.2521 0.99552 0.0
H3804 H 0.76559 0.27803 0.00973 0.0
C3805 C 0.82186 0.2512 0.03338 0.0
C3806 C 0.7747 0.25701 0.03835 0.0
C3807 C 0.82483 0.25236 0.02425 0.0
C3808 C 0.77415 0.27067 0.00588 0.0
H3809 H 0.87882 0.254 0.96377 0.0
H3810 H 0.87416 0.25199 0.97977 0.0
H3811 H 0.77106 0.2797 0.9938 0.0
H3812 H 0.69421 0.26876 0.03763 0.0
H3813 H 0.69882 0.27076 0.02163 0.0
H3814 H 0.80209 0.24308 0.0076 0.0
C3815 C 0.83903 0.25742 0.97659 0.0
C3816 C 0.77733 0.27162 0.99671 0.0
C3817 C 0.84201 0.2586 0.96742 0.0
C3818 C 0.73107 0.26417 0.03398 0.0
C3819 C 0.73401 0.26534 0.02481 0.0
C3820 C 0.7958 0.25115 0.00469 0.0
C3821 C 0.79244 0.26339 0.9816 0.0
C3822 C 0.78972 0.26235 0.99139 0.0
C3823 C 0.78069 0.25938 0.0198 0.0
C3824 C 0.7834 0.26042 0.01001 0.0
H3825 H 0.71681 0.27714 0.96485 0.0
H3826 H 0.71101 0.275 0.98073 0.0
H3827 H 0.80753 0.24475 0.99167 0.0
H3828 H 0.85655 0.24568 0.03656 0.0
H3829 H 0.86225 0.2478 0.02067 0.0
C3830 C 0.98227 0.25836 0.78402 0.0
C3831 C 1.02649 0.26544 0.78839 0.0
C3832 C 0.98488 0.25723 0.77485 0.0
C3833 C 0.04722 0.27147 0.75475 0.0
H3834 H 1.01976 0.24306 0.74374 0.0
C3835 C 0.09222 0.26423 0.71744 0.0
C3836 C 0.048 0.25717 0.71305 0.0
C3837 C 0.08947 0.26534 0.72662 0.0
C3838 C 1.0268 0.25109 0.74668 0.0
H3839 H 0.10913 0.27666 0.78659 0.0
H3840 H 0.11431 0.27459 0.7707 0.0
H3841 H 1.01477 0.24461 0.75968 0.0
H3842 H 0.96527 0.24595 0.7148 0.0
H3843 H 0.95996 0.24798 0.73071 0.0
H3844 H 0.05926 0.27795 0.74175 0.0
C3845 C 0.07664 0.27007 0.77428 0.0
C3846 C 1.02389 0.25198 0.75586 0.0
C3847 C 0.07397 0.2712 0.78342 0.0
C3848 C 1.00047 0.2514 0.718 0.0
C3849 C 0.99768 0.2525 0.72714 0.0
C3850 C 0.05013 0.27058 0.74558 0.0
C3851 C 1.03183 0.26314 0.76984 0.0
C3852 C 1.03414 0.26218 0.76003 0.0
C3853 C 0.04242 0.25942 0.7316 0.0
C3854 C 0.03993 0.26038 0.74141 0.0
H3855 H 0.94514 0.25381 0.78768 0.0
H3856 H 0.94919 0.25188 0.77167 0.0
H3857 H 0.05426 0.27951 0.7577 0.0
H3858 H 0.12936 0.26879 0.7138 0.0
H3859 H 0.12513 0.27068 0.72981 0.0
C3860 C 0.84123 0.51433 0.78398 0.0
C3861 C 0.79724 0.50724 0.78838 0.0
C3862 C 0.83857 0.51542 0.7748 0.0
C3863 C 0.77652 0.50107 0.75476 0.0
H3864 H 0.80327 0.52947 0.74367 0.0
C3865 C 0.7315 0.50819 0.71743 0.0
C3866 C 0.77562 0.51526 0.71302 0.0
C3867 C 0.73418 0.5071 0.72661 0.0
C3868 C 0.79643 0.52143 0.74664 0.0
H3869 H 0.71499 0.49593 0.78664 0.0
H3870 H 0.70971 0.49793 0.77074 0.0
H3871 H 0.8083 0.52796 0.75962 0.0
H3872 H 0.85808 0.52651 0.71475 0.0
H3873 H 0.86339 0.52453 0.73065 0.0
H3874 H 0.76463 0.49454 0.74178 0.0
C3875 C 0.74725 0.50249 0.7743 0.0
C3876 C 0.79936 0.52058 0.75581 0.0
C3877 C 0.74997 0.50141 0.78344 0.0
C3878 C 0.82306 0.52107 0.71795 0.0
C3879 C 0.82577 0.51998 0.7271 0.0
C3880 C 0.77358 0.50193 0.74558 0.0
C3881 C 0.79179 0.50945 0.76982 0.0
C3882 C 0.78939 0.51038 0.76001 0.0
C3883 C 0.78111 0.51305 0.73158 0.0
C3884 C 0.78354 0.51212 0.74138 0.0
H3885 H 0.87821 0.51894 0.78761 0.0
H3886 H 0.87406 0.52079 0.77159 0.0
H3887 H 0.76968 0.49303 0.75772 0.0
H3888 H 0.6944 0.5036 0.7138 0.0
H3889 H 0.69861 0.50176 0.72982 0.0
C3890 C 0.08753 1.00826 0.5339 0.0
C3891 C 0.04323 0.01531 0.53829 0.0
C3892 C 0.08497 1.00715 0.52473 0.0
C3893 C 0.97459 0.01187 0.50544 0.0
H3894 H 0.13862 1.01069 0.49219 0.0
C3895 C 0.97936 0.01456 0.46732 0.0
C3896 C 1.02352 1.00751 0.46293 0.0
C3897 C 0.98195 0.01567 0.47649 0.0
C3898 C 0.09226 1.0109 0.49578 0.0
H3899 H 0.9609 0.02656 0.53651 0.0
H3900 H 0.95677 0.02468 0.52059 0.0
H3901 H 0.14232 0.01186 0.50816 0.0
H3902 H 0.10563 0.99622 0.4647 0.0
H3903 H 0.10991 0.99808 0.48061 0.0
H3904 H 0.92454 1.01092 0.49305 0.0
C3905 C 0.99315 0.01993 0.52419 0.0
C3906 C 0.0944 0.01155 0.50497 0.0
C3907 C 0.99584 0.02106 0.53333 0.0
C3908 C 0.07085 1.00173 0.46788 0.0
C3909 C 0.07358 1.00285 0.47702 0.0
C3910 C 0.97245 1.01123 0.49625 0.0
C3911 C 0.03785 0.013 0.51974 0.0
C3912 C 1.03561 0.01206 0.50994 0.0
C3913 C 1.02899 1.00979 0.48148 0.0
C3914 C 1.03124 1.01072 0.49128 0.0
H3915 H 0.12441 1.00369 0.53755 0.0
H3916 H 0.11966 1.00163 0.52155 0.0
H3917 H 0.92823 0.01208 0.50903 0.0
H3918 H 0.94251 0.01916 0.46367 0.0
H3919 H 0.94735 0.0212 0.47967 0.0
C3920 C 0.34111 0.25859 0.4674 0.0
C3921 C 0.29749 0.26578 0.46306 0.0
C3922 C 0.33833 0.25739 0.47657 0.0
C3923 C 0.27704 0.27154 0.49673 0.0
H3924 H 0.30185 0.24297 0.50758 0.0
C3925 C 0.23099 0.26404 0.53399 0.0
C3926 C 0.27456 0.25687 0.53836 0.0
C3927 C 0.2339 0.26522 0.52482 0.0
C3928 C 0.29556 0.25105 0.50468 0.0
H3929 H 0.21581 0.27713 0.46491 0.0
H3930 H 0.21036 0.27495 0.48079 0.0
H3931 H 0.30713 0.24467 0.49165 0.0
H3932 H 0.35626 0.24551 0.53656 0.0
H3933 H 0.36193 0.24764 0.52067 0.0
H3934 H 0.26547 0.27792 0.50977 0.0
C3935 C 0.24767 0.27039 0.47719 0.0
C3936 C 0.29863 0.25202 0.49552 0.0
C3937 C 0.2505 0.27159 0.46806 0.0
C3938 C 0.32162 0.25104 0.53339 0.0
C3939 C 0.32457 0.25221 0.52425 0.0
C3940 C 0.27397 0.27057 0.5059 0.0
C3941 C 0.29183 0.26334 0.4816 0.0
C3942 C 0.28933 0.26228 0.4914 0.0
C3943 C 0.2805 0.25925 0.51981 0.0
C3944 C 0.28321 0.26031 0.51002 0.0
H3945 H 0.37786 0.254 0.46373 0.0
H3946 H 0.37353 0.25195 0.47972 0.0
H3947 H 0.27074 0.27962 0.49384 0.0
H3948 H 0.1942 0.26865 0.53764 0.0
H3949 H 0.19876 0.27065 0.52165 0.0
C3950 C 0.26893 0.99864 0.78297 0.0
C3951 C 0.30167 1.00652 0.78818 0.0
C3952 C 0.26636 0.99975 0.77383 0.0
C3953 C 0.27209 0.02027 0.75619 0.0
H3954 H 0.31006 0.9954 0.74101 0.0
C3955 C 0.28354 0.02569 0.71862 0.0
C3956 C 0.26245 0.01708 0.71312 0.0
C3957 C 0.28992 0.02413 0.72767 0.0
C3958 C 0.29821 1.0024 0.74512 0.0
H3959 H 0.35688 0.02183 0.78786 0.0
H3960 H 0.35111 0.02393 0.77183 0.0
H3961 H 0.31856 0.99333 0.75692 0.0
H3962 H 0.2316 1.00001 0.71282 0.0
H3963 H 0.24033 0.9973 0.72874 0.0
H3964 H 0.24943 0.02928 0.74452 0.0
C3965 C 0.3279 0.01683 0.77486 0.0
C3966 C 0.30352 1.00122 0.75426 0.0
C3967 C 0.33144 0.01561 0.78402 0.0
C3968 C 0.24813 1.00679 0.71689 0.0
C3969 C 0.25358 1.00525 0.72603 0.0
C3970 C 0.26581 0.02141 0.74707 0.0
C3971 C 0.29549 1.00888 0.76965 0.0
C3972 C 0.29084 1.01016 0.75991 0.0
C3973 C 0.27424 0.01393 0.73157 0.0
C3974 C 0.27924 0.01253 0.74136 0.0
H3975 H 0.2454 0.99154 0.78597 0.0
H3976 H 0.24043 0.99355 0.77003 0.0
H3977 H 0.26084 0.02726 0.76035 0.0
H3978 H 0.2957 0.0337 0.71591 0.0
H3979 H 0.3078 0.03095 0.73158 0.0
C3980 C 0.75153 0.77156 0.46809 0.0
C3981 C 0.79867 0.76574 0.46312 0.0
C3982 C 0.74843 0.77038 0.47722 0.0
C3983 C 0.79887 0.75203 0.49559 0.0
H3984 H 0.76517 0.77794 0.50981 0.0
C3985 C 0.82126 0.7511 0.53346 0.0
C3986 C 0.77403 0.75691 0.53842 0.0
C3987 C 0.82434 0.75227 0.52432 0.0
C3988 C 0.77382 0.77059 0.50595 0.0
H3989 H 0.87901 0.75396 0.46385 0.0
H3990 H 0.8742 0.75194 0.47984 0.0
H3991 H 0.77083 0.77963 0.49388 0.0
H3992 H 0.69352 0.76865 0.53768 0.0
H3993 H 0.69832 0.77066 0.52169 0.0
H3994 H 0.80188 0.743 0.50766 0.0
C3995 C 0.8391 0.75737 0.47666 0.0
C3996 C 0.77712 0.77155 0.49678 0.0
C3997 C 0.84216 0.75856 0.46749 0.0
C3998 C 0.73043 0.76406 0.53404 0.0
C3999 C 0.73348 0.76524 0.52487 0.0
C4000 C 0.79559 0.75107 0.50476 0.0
C4001 C 0.79244 0.76333 0.48167 0.0
C4002 C 0.78963 0.76229 0.49146 0.0
C4003 C 0.78024 0.75929 0.51987 0.0
C4004 C 0.78307 0.76033 0.51008 0.0
H4005 H 0.71694 0.77709 0.46491 0.0
H4006 H 0.71101 0.77494 0.48079 0.0
H4007 H 0.80752 0.74468 0.49173 0.0
H4008 H 0.85593 0.74558 0.53664 0.0
H4009 H 0.86182 0.74772 0.52075 0.0
C4010 C 0.7305 1.00803 0.21736 0.0
C4011 C 0.77463 0.01507 0.21292 0.0
C4012 C 0.73343 1.00696 0.22654 0.0
C4013 C 0.84461 0.01183 0.24574 0.0
H4014 H 0.6811 1.01062 0.25911 0.0
C4015 C 0.84135 0.01461 0.28387 0.0
C4016 C 0.79724 1.00757 0.28831 0.0
C4017 C 0.83845 0.01569 0.27469 0.0
C4018 C 0.72733 1.01083 0.25549 0.0
H4019 H 0.85703 0.02635 0.2146 0.0
H4020 H 0.86188 0.02457 0.23052 0.0
H4021 H 0.67678 0.01172 0.24313 0.0
H4022 H 0.71492 0.99627 0.28661 0.0
H4023 H 0.71011 0.99807 0.2707 0.0
H4024 H 0.89515 1.01094 0.2581 0.0
C4025 C 0.82533 0.01978 0.22697 0.0
C4026 C 0.72482 0.01145 0.2463 0.0
C4027 C 0.82227 0.02087 0.21783 0.0
C4028 C 0.74966 1.00177 0.28339 0.0
C4029 C 0.74662 1.00286 0.27425 0.0
C4030 C 0.84711 1.01122 0.25493 0.0
C4031 C 0.78078 0.01286 0.23148 0.0
C4032 C 0.78342 0.01196 0.24128 0.0
C4033 C 0.79114 1.00979 0.26975 0.0
C4034 C 0.78852 1.0107 0.25994 0.0
H4035 H 0.69341 1.00342 0.21376 0.0
H4036 H 0.69886 1.00144 0.22976 0.0
H4037 H 0.89083 0.01205 0.24212 0.0
H4038 H 0.8784 0.01923 0.28748 0.0
H4039 H 0.87301 0.02122 0.27148 0.0
C4040 C 0.50011 0.52091 0.53351 0.0
C4041 C 0.54767 0.51513 0.53842 0.0
C4042 C 0.49696 0.51979 0.52437 0.0
C4043 C 0.59706 0.51133 0.50505 0.0
H4044 H 0.42659 0.51085 0.49328 0.0
C4045 C 0.57144 0.50156 0.46797 0.0
C4046 C 0.52408 0.50739 0.46306 0.0
C4047 C 0.5746 0.50266 0.47711 0.0
C4048 C 0.47467 0.51111 0.49644 0.0
H4049 H 0.62862 0.50347 0.53761 0.0
H4050 H 0.62299 0.50142 0.52161 0.0
H4051 H 0.43111 0.51201 0.50926 0.0
H4052 H 0.44345 0.51911 0.46389 0.0
H4053 H 0.44905 0.52111 0.47989 0.0
H4054 H 0.64061 0.51043 0.49223 0.0
C4055 C 0.58858 0.50696 0.52482 0.0
C4056 C 0.4773 0.51176 0.50563 0.0
C4057 C 0.59162 0.50807 0.53399 0.0
C4058 C 0.48031 0.51447 0.4675 0.0
C4059 C 0.48333 0.51555 0.47667 0.0
C4060 C 0.59443 0.51068 0.49586 0.0
C4061 C 0.5413 0.51284 0.51987 0.0
C4062 C 0.53854 0.51189 0.51007 0.0
C4063 C 0.53043 0.50963 0.48162 0.0
C4064 C 0.5332 0.51056 0.49142 0.0
H4065 H 0.46549 0.52641 0.53672 0.0
H4066 H 0.46048 0.52456 0.52081 0.0
H4067 H 0.64515 0.51161 0.5082 0.0
H4068 H 0.60592 0.49604 0.46476 0.0
H4069 H 0.61095 0.49785 0.48067 0.0
C4070 C 0.57216 0.77125 0.78344 0.0
C4071 C 0.52506 0.76543 0.78844 0.0
C4072 C 0.57503 0.77003 0.77431 0.0
C4073 C 0.52402 0.75164 0.756 0.0
H4074 H 0.55748 0.77754 0.74173 0.0
C4075 C 0.50148 0.75063 0.71813 0.0
C4076 C 0.54858 0.75647 0.71316 0.0
C4077 C 0.49838 0.7518 0.72726 0.0
C4078 C 0.54889 0.77019 0.74561 0.0
H4079 H 0.44458 0.75363 0.78778 0.0
H4080 H 0.44899 0.75156 0.77178 0.0
H4081 H 0.55207 0.77925 0.75766 0.0
H4082 H 0.62892 0.76827 0.71389 0.0
H4083 H 0.62429 0.77029 0.72987 0.0
H4084 H 0.52086 0.74258 0.74394 0.0
C4085 C 0.48423 0.75701 0.77494 0.0
C4086 C 0.54575 0.77117 0.75477 0.0
C4087 C 0.4814 0.75823 0.7841 0.0
C4088 C 0.59216 0.76366 0.71753 0.0
C4089 C 0.58912 0.76484 0.7267 0.0
C4090 C 0.52718 0.75066 0.74683 0.0
C4091 C 0.53081 0.76297 0.7699 0.0
C4092 C 0.53336 0.76191 0.76011 0.0
C4093 C 0.54246 0.75887 0.7317 0.0
C4094 C 0.53964 0.75992 0.7415 0.0
H4095 H 0.60688 0.7768 0.78659 0.0
H4096 H 0.61241 0.77459 0.77071 0.0
H4097 H 0.51544 0.74429 0.75987 0.0
H4098 H 0.4667 0.74506 0.71495 0.0
H4099 H 0.46097 0.74723 0.73085 0.0
C4100 C 0.57188 0.27167 0.28341 0.0
C4101 C 0.5247 0.26585 0.28839 0.0
C4102 C 0.57476 0.27051 0.27427 0.0
C4103 C 0.52338 0.25219 0.25592 0.0
H4104 H 0.55768 0.27809 0.24168 0.0
C4105 C 0.49967 0.25126 0.21808 0.0
C4106 C 0.5471 0.25701 0.21309 0.0
C4107 C 0.49691 0.25246 0.22721 0.0
C4108 C 0.54885 0.27074 0.24555 0.0
H4109 H 0.44405 0.25408 0.28768 0.0
H4110 H 0.44846 0.2521 0.27168 0.0
H4111 H 0.55247 0.27977 0.25762 0.0
H4112 H 0.62824 0.26868 0.21376 0.0
H4113 H 0.62396 0.27074 0.22976 0.0
H4114 H 0.5197 0.24316 0.24385 0.0
C4115 C 0.48377 0.25752 0.27485 0.0
C4116 C 0.54582 0.2717 0.25471 0.0
C4117 C 0.48095 0.25869 0.28402 0.0
C4118 C 0.59117 0.26414 0.21743 0.0
C4119 C 0.58842 0.26534 0.2266 0.0
C4120 C 0.52638 0.25123 0.24675 0.0
C4121 C 0.53048 0.26348 0.26984 0.0
C4122 C 0.53309 0.26244 0.26004 0.0
C4123 C 0.54152 0.25945 0.23163 0.0
C4124 C 0.53908 0.26049 0.24142 0.0
H4125 H 0.60666 0.2772 0.28658 0.0
H4126 H 0.61223 0.27507 0.27069 0.0
H4127 H 0.51457 0.24484 0.25978 0.0
H4128 H 0.46463 0.24577 0.21493 0.0
H4129 H 0.45929 0.24795 0.23081 0.0
C4130 C 0.59161 1.0081 0.03383 0.0
C4131 C 0.54755 0.01516 0.03824 0.0
C4132 C 0.58863 1.00697 0.02466 0.0
C4133 C 0.47742 0.01171 0.00544 0.0
H4134 H 0.64083 1.01041 0.99206 0.0
C4135 C 0.48062 0.01443 0.96731 0.0
C4136 C 0.52456 1.00738 0.96287 0.0
C4137 C 0.48355 0.0155 0.97649 0.0
C4138 C 0.59462 1.01065 0.99569 0.0
H4139 H 0.4652 0.02643 0.03651 0.0
H4140 H 0.46038 0.02452 0.02061 0.0
H4141 H 0.64525 0.01159 0.00804 0.0
H4142 H 0.60659 0.99607 0.96457 0.0
H4143 H 0.61146 0.99786 0.98048 0.0
H4144 H 0.4268 1.01077 0.99309 0.0
C4145 C 0.49687 0.01977 0.02418 0.0
C4146 C 0.59719 1.01131 0.00488 0.0
C4147 C 0.49998 0.02091 0.03331 0.0
C4148 C 0.57199 1.00157 0.96778 0.0
C4149 C 0.57506 1.00265 0.97693 0.0
C4150 C 0.47486 1.01106 0.99625 0.0
C4151 C 0.54133 0.01282 0.01969 0.0
C4152 C 0.53863 0.01186 0.00989 0.0
C4153 C 0.53072 1.00959 0.98143 0.0
C4154 C 0.53342 1.01051 0.99124 0.0
H4155 H 0.62858 1.00353 0.03745 0.0
H4156 H 0.62317 1.00143 0.02146 0.0
H4157 H 0.43121 0.01195 0.00906 0.0
H4158 H 0.4437 0.01905 0.9637 0.0
H4159 H 0.44914 0.02103 0.9797 0.0
loop_
_geom_bond_atom_site_label_1
_geom_bond_atom_site_label_2
_geom_bond_distance
_geom_bond_site_symmetry_2
_ccdc_geom_bond_type
Nd0 C2 2.836 1_455 S
Nd0 O20 2.500 1_455 S
Nd0 O21 2.492 . S
Nd0 O22 2.487 . S
Nd0 O23 2.682 . S
Nd0 O24 2.410 1_455 S
Nd0 O29 2.414 . S
Nd0 O31 2.424 . S
Nd1 C11 2.836 . S
Nd1 O23 2.414 . S
Nd1 O25 2.424 1_455 S
Nd1 O26 2.500 . S
Nd1 O27 2.492 . S
Nd1 O28 2.487 . S
Nd1 O29 2.682 . S
Nd1 O30 2.410 . S
C2 Nd0 2.836 1_655 S
C2 C3 1.498 . S
C2 O20 1.258 . S
C2 O21 1.239 1_655 S
C3 C2 1.498 . S
C3 C4 1.366 . S
C3 C8 1.407 . S
C4 C3 1.366 . S
C4 C5 1.392 . S
C4 H32 0.930 . S
C5 C4 1.392 . S
C5 C6 1.398 . S
C5 H33 0.929 . S
C6 C5 1.398 . S
C6 C7 1.352 . S
C7 C6 1.352 . S
C7 C8 1.384 . S
C7 H34 0.930 . S
C8 C3 1.407 . S
C8 C7 1.384 . S
C8 H35 0.929 . S
C9 O22 1.241 . S
C9 O23 1.273 . S
C10 O24 1.251 . S
C10 O25 1.268 . S
C11 Nd1 2.836 . S
C11 C12 1.498 . S
C11 O26 1.258 . S
C11 O27 1.239 . S
C12 C11 1.498 . S
C12 C13 1.366 . S
C12 C17 1.407 . S
C13 C12 1.366 . S
C13 C14 1.392 . S
C13 H36 0.930 . S
C14 C13 1.392 . S
C14 C15 1.398 . S
C14 H37 0.929 . S
C15 C14 1.398 . S
C15 C16 1.352 . S
C16 C15 1.352 . S
C16 C17 1.384 . S
C16 H38 0.930 . S
C17 C12 1.407 . S
C17 C16 1.384 . S
C17 H39 0.929 . S
C18 O28 1.241 . S
C18 O29 1.273 . S
C19 O30 1.251 . S
C19 O31 1.268 . S
O20 Nd0 2.500 1_655 S
O20 C2 1.258 . S
O21 Nd0 2.492 . S
O21 C2 1.239 1_455 S
O22 Nd0 2.487 . S
O22 C9 1.241 . S
O23 Nd0 2.682 . S
O23 Nd1 2.414 . S
O23 C9 1.273 . S
O24 Nd0 2.410 1_655 S
O24 C10 1.251 . S
O25 Nd1 2.424 1_655 S
O25 C10 1.268 . S
O26 Nd1 2.500 . S
O26 C11 1.258 . S
O27 Nd1 2.492 . S
O27 C11 1.239 . S
O28 Nd1 2.487 . S
O28 C18 1.241 . S
O29 Nd0 2.414 . S
O29 Nd1 2.682 . S
O29 C18 1.273 . S
O30 Nd1 2.410 . S
O30 C19 1.251 . S
O31 Nd0 2.424 . S
O31 C19 1.268 . S
H32 C4 0.930 . S
H33 C5 0.929 . S
H34 C7 0.930 . S
H35 C8 0.929 . S
H36 C13 0.930 . S
H37 C14 0.929 . S
H38 C16 0.930 . S
H39 C17 0.929 . S
Nd40 C42 2.836 . S
Nd40 O60 2.500 . S
Nd40 O61 2.492 . S
Nd40 O62 2.487 . S
Nd40 O63 2.682 . S
Nd40 O64 2.410 . S
Nd40 O69 2.414 . S
Nd40 O71 2.424 . S
Nd41 C51 2.836 . S
Nd41 O63 2.414 . S
Nd41 O65 2.424 . S
Nd41 O66 2.500 . S
Nd41 O67 2.492 . S
Nd41 O68 2.487 . S
Nd41 O69 2.682 . S
Nd41 O70 2.410 . S
C42 Nd40 2.836 . S
C42 C43 1.498 . S
C42 O60 1.258 . S
C42 O61 1.239 . S
C43 C42 1.498 . S
C43 C44 1.366 . S
C43 C48 1.407 . S
C44 C43 1.366 . S
C44 C45 1.392 . S
C44 H72 0.930 . S
C45 C44 1.392 . S
C45 C46 1.398 . S
C45 H73 0.929 . S
C46 C45 1.398 . S
C46 C47 1.352 . S
C47 C46 1.352 . S
C47 C48 1.384 . S
C47 H74 0.930 . S
C48 C43 1.407 . S
C48 C47 1.384 . S
C48 H75 0.929 . S
C49 O62 1.241 . S
C49 O63 1.273 . S
C50 O64 1.251 . S
C50 O65 1.268 . S
C51 Nd41 2.836 . S
C51 C52 1.498 . S
C51 O66 1.258 . S
C51 O67 1.239 . S
C52 C51 1.498 . S
C52 C53 1.366 . S
C52 C57 1.407 . S
C53 C52 1.366 . S
C53 C54 1.392 . S
C53 H76 0.930 . S
C54 C53 1.392 . S
C54 C55 1.398 . S
C54 H77 0.929 . S
C55 C54 1.398 . S
C55 C56 1.352 . S
C56 C55 1.352 . S
C56 C57 1.384 . S
C56 H78 0.930 . S
C57 C52 1.407 . S
C57 C56 1.384 . S
C57 H79 0.929 . S
C58 O68 1.241 . S
C58 O69 1.273 . S
C59 O70 1.251 . S
C59 O71 1.268 . S
O60 Nd40 2.500 . S
O60 C42 1.258 . S
O61 Nd40 2.492 . S
O61 C42 1.239 . S
O62 Nd40 2.487 . S
O62 C49 1.241 . S
O63 Nd40 2.682 . S
O63 Nd41 2.414 . S
O63 C49 1.273 . S
O64 Nd40 2.410 . S
O64 C50 1.251 . S
O65 Nd41 2.424 . S
O65 C50 1.268 . S
O66 Nd41 2.500 . S
O66 C51 1.258 . S
O67 Nd41 2.492 . S
O67 C51 1.239 . S
O68 Nd41 2.487 . S
O68 C58 1.241 . S
O69 Nd40 2.414 . S
O69 Nd41 2.682 . S
O69 C58 1.273 . S
O70 Nd41 2.410 . S
O70 C59 1.251 . S
O71 Nd40 2.424 . S
O71 C59 1.268 . S
H72 C44 0.930 . S
H73 C45 0.929 . S
H74 C47 0.930 . S
H75 C48 0.929 . S
H76 C53 0.930 . S
H77 C54 0.929 . S
H78 C56 0.930 . S
H79 C57 0.929 . S
Nd80 C82 2.836 1_455 S
Nd80 O100 2.500 1_455 S
Nd80 O101 2.492 . S
Nd80 O102 2.487 . S
Nd80 O103 2.682 . S
Nd80 O104 2.410 1_455 S
Nd80 O109 2.414 . S
Nd80 O111 2.424 . S
Nd81 C91 2.836 . S
Nd81 O103 2.414 . S
Nd81 O105 2.424 1_455 S
Nd81 O106 2.500 . S
Nd81 O107 2.492 . S
Nd81 O108 2.487 . S
Nd81 O109 2.682 . S
Nd81 O110 2.410 . S
C82 Nd80 2.836 1_655 S
C82 C83 1.498 . S
C82 O100 1.258 . S
C82 O101 1.239 1_655 S
C83 C82 1.498 . S
C83 C84 1.366 . S
C83 C88 1.407 . S
C84 C83 1.366 . S
C84 C85 1.392 . S
C84 H112 0.930 . S
C85 C84 1.392 . S
C85 C86 1.398 . S
C85 H113 0.929 . S
C86 C85 1.398 . S
C86 C87 1.352 . S
C87 C86 1.352 . S
C87 C88 1.384 . S
C87 H114 0.930 . S
C88 C83 1.407 . S
C88 C87 1.384 . S
C88 H115 0.929 . S
C89 O102 1.241 . S
C89 O103 1.273 . S
C90 O104 1.251 . S
C90 O105 1.268 . S
C91 Nd81 2.836 . S
C91 C92 1.498 . S
C91 O106 1.258 . S
C91 O107 1.239 . S
C92 C91 1.498 . S
C92 C93 1.366 . S
C92 C97 1.407 . S
C93 C92 1.366 . S
C93 C94 1.392 . S
C93 H116 0.930 . S
C94 C93 1.392 . S
C94 C95 1.398 . S
C94 H117 0.929 . S
C95 C94 1.398 . S
C95 C96 1.352 . S
C96 C95 1.352 . S
C96 C97 1.384 . S
C96 H118 0.930 . S
C97 C92 1.407 . S
C97 C96 1.384 . S
C97 H119 0.929 . S
C98 O108 1.241 . S
C98 O109 1.273 . S
C99 O110 1.251 . S
C99 O111 1.268 . S
O100 Nd80 2.500 1_655 S
O100 C82 1.258 . S
O101 Nd80 2.492 . S
O101 C82 1.239 1_455 S
O102 Nd80 2.487 . S
O102 C89 1.241 . S
O103 Nd80 2.682 . S
O103 Nd81 2.414 . S
O103 C89 1.273 . S
O104 Nd80 2.410 1_655 S
O104 C90 1.251 . S
O105 Nd81 2.424 1_655 S
O105 C90 1.268 . S
O106 Nd81 2.500 . S
O106 C91 1.258 . S
O107 Nd81 2.492 . S
O107 C91 1.239 . S
O108 Nd81 2.487 . S
O108 C98 1.241 . S
O109 Nd80 2.414 . S
O109 Nd81 2.682 . S
O109 C98 1.273 . S
O110 Nd81 2.410 . S
O110 C99 1.251 . S
O111 Nd80 2.424 . S
O111 C99 1.268 . S
H112 C84 0.930 . S
H113 C85 0.929 . S
H114 C87 0.930 . S
H115 C88 0.929 . S
H116 C93 0.930 . S
H117 C94 0.929 . S
H118 C96 0.930 . S
H119 C97 0.929 . S
Nd120 C122 2.836 . S
Nd120 O140 2.500 . S
Nd120 O141 2.492 . S
Nd120 O142 2.487 . S
Nd120 O143 2.682 . S
Nd120 O144 2.410 . S
Nd120 O149 2.414 . S
Nd120 O151 2.424 . S
Nd121 C131 2.836 . S
Nd121 O143 2.414 . S
Nd121 O145 2.424 . S
Nd121 O146 2.500 . S
Nd121 O147 2.492 . S
Nd121 O148 2.487 . S
Nd121 O149 2.682 . S
Nd121 O150 2.410 . S
C122 Nd120 2.836 . S
C122 C123 1.498 . S
C122 O140 1.258 . S
C122 O141 1.239 . S
C123 C122 1.498 . S
C123 C124 1.366 . S
C123 C128 1.407 . S
C124 C123 1.366 . S
C124 C125 1.392 . S
C124 H152 0.930 . S
C125 C124 1.392 . S
C125 C126 1.398 . S
C125 H153 0.929 . S
C126 C125 1.398 . S
C126 C127 1.352 . S
C127 C126 1.352 . S
C127 C128 1.384 . S
C127 H154 0.930 . S
C128 C123 1.407 . S
C128 C127 1.384 . S
C128 H155 0.929 . S
C129 O142 1.241 . S
C129 O143 1.273 . S
C130 O144 1.251 . S
C130 O145 1.268 . S
C131 Nd121 2.836 . S
C131 C132 1.498 . S
C131 O146 1.258 . S
C131 O147 1.239 . S
C132 C131 1.498 . S
C132 C133 1.366 . S
C132 C137 1.407 . S
C133 C132 1.366 . S
C133 C134 1.392 . S
C133 H156 0.930 . S
C134 C133 1.392 . S
C134 C135 1.398 . S
C134 H157 0.929 . S
C135 C134 1.398 . S
C135 C136 1.352 . S
C136 C135 1.352 . S
C136 C137 1.384 . S
C136 H158 0.930 . S
C137 C132 1.407 . S
C137 C136 1.384 . S
C137 H159 0.929 . S
C138 O148 1.241 . S
C138 O149 1.273 . S
C139 O150 1.251 . S
C139 O151 1.268 . S
O140 Nd120 2.500 . S
O140 C122 1.258 . S
O141 Nd120 2.492 . S
O141 C122 1.239 . S
O142 Nd120 2.487 . S
O142 C129 1.241 . S
O143 Nd120 2.682 . S
O143 Nd121 2.414 . S
O143 C129 1.273 . S
O144 Nd120 2.410 . S
O144 C130 1.251 . S
O145 Nd121 2.424 . S
O145 C130 1.268 . S
O146 Nd121 2.500 . S
O146 C131 1.258 . S
O147 Nd121 2.492 . S
O147 C131 1.239 . S
O148 Nd121 2.487 . S
O148 C138 1.241 . S
O149 Nd120 2.414 . S
O149 Nd121 2.682 . S
O149 C138 1.273 . S
O150 Nd121 2.410 . S
O150 C139 1.251 . S
O151 Nd120 2.424 . S
O151 C139 1.268 . S
H152 C124 0.930 . S
H153 C125 0.929 . S
H154 C127 0.930 . S
H155 C128 0.929 . S
H156 C133 0.930 . S
H157 C134 0.929 . S
H158 C136 0.930 . S
H159 C137 0.929 . S
Nd160 C162 2.836 . S
Nd160 O180 2.500 . S
Nd160 O181 2.492 . S
Nd160 O182 2.487 . S
Nd160 O183 2.682 . S
Nd160 O184 2.410 . S
Nd160 O189 2.414 . S
Nd160 O191 2.424 1_655 S
Nd161 C171 2.836 1_655 S
Nd161 O183 2.414 . S
Nd161 O185 2.424 . S
Nd161 O186 2.500 1_655 S
Nd161 O187 2.492 . S
Nd161 O188 2.487 . S
Nd161 O189 2.682 . S
Nd161 O190 2.410 1_655 S
C162 Nd160 2.836 . S
C162 C163 1.498 . S
C162 O180 1.258 . S
C162 O181 1.239 . S
C163 C162 1.498 . S
C163 C164 1.366 . S
C163 C168 1.407 . S
C164 C163 1.366 . S
C164 C165 1.392 . S
C164 H192 0.930 . S
C165 C164 1.392 . S
C165 C166 1.398 . S
C165 H193 0.929 . S
C166 C165 1.398 . S
C166 C167 1.352 . S
C167 C166 1.352 . S
C167 C168 1.384 . S
C167 H194 0.930 . S
C168 C163 1.407 . S
C168 C167 1.384 . S
C168 H195 0.929 . S
C169 O182 1.241 . S
C169 O183 1.273 . S
C170 O184 1.251 . S
C170 O185 1.268 . S
C171 Nd161 2.836 1_455 S
C171 C172 1.498 . S
C171 O186 1.258 . S
C171 O187 1.239 1_455 S
C172 C171 1.498 . S
C172 C173 1.366 . S
C172 C177 1.407 . S
C173 C172 1.366 . S
C173 C174 1.392 . S
C173 H196 0.930 . S
C174 C173 1.392 . S
C174 C175 1.398 . S
C174 H197 0.929 . S
C175 C174 1.398 . S
C175 C176 1.352 . S
C176 C175 1.352 . S
C176 C177 1.384 . S
C176 H198 0.930 . S
C177 C172 1.407 . S
C177 C176 1.384 . S
C177 H199 0.929 . S
C178 O188 1.241 . S
C178 O189 1.273 . S
C179 O190 1.251 . S
C179 O191 1.268 . S
O180 Nd160 2.500 . S
O180 C162 1.258 . S
O181 Nd160 2.492 . S
O181 C162 1.239 . S
O182 Nd160 2.487 . S
O182 C169 1.241 . S
O183 Nd160 2.682 . S
O183 Nd161 2.414 . S
O183 C169 1.273 . S
O184 Nd160 2.410 . S
O184 C170 1.251 . S
O185 Nd161 2.424 . S
O185 C170 1.268 . S
O186 Nd161 2.500 1_455 S
O186 C171 1.258 . S
O187 Nd161 2.492 . S
O187 C171 1.239 1_655 S
O188 Nd161 2.487 . S
O188 C178 1.241 . S
O189 Nd160 2.414 . S
O189 Nd161 2.682 . S
O189 C178 1.273 . S
O190 Nd161 2.410 1_455 S
O190 C179 1.251 . S
O191 Nd160 2.424 1_455 S
O191 C179 1.268 . S
H192 C164 0.930 . S
H193 C165 0.929 . S
H194 C167 0.930 . S
H195 C168 0.929 . S
H196 C173 0.930 . S
H197 C174 0.929 . S
H198 C176 0.930 . S
H199 C177 0.929 . S
Nd200 C202 2.836 . S
Nd200 O220 2.500 . S
Nd200 O221 2.492 . S
Nd200 O222 2.487 . S
Nd200 O223 2.682 . S
Nd200 O224 2.410 . S
Nd200 O229 2.414 . S
Nd200 O231 2.424 . S
Nd201 C211 2.836 . S
Nd201 O223 2.414 . S
Nd201 O225 2.424 . S
Nd201 O226 2.500 . S
Nd201 O227 2.492 . S
Nd201 O228 2.487 . S
Nd201 O229 2.682 . S
Nd201 O230 2.410 . S
C202 Nd200 2.836 . S
C202 C203 1.498 . S
C202 O220 1.258 . S
C202 O221 1.239 . S
C203 C202 1.498 . S
C203 C204 1.366 . S
C203 C208 1.407 . S
C204 C203 1.366 . S
C204 C205 1.392 . S
C204 H232 0.930 . S
C205 C204 1.392 . S
C205 C206 1.398 . S
C205 H233 0.929 . S
C206 C205 1.398 . S
C206 C207 1.352 . S
C207 C206 1.352 . S
C207 C208 1.384 . S
C207 H234 0.930 . S
C208 C203 1.407 . S
C208 C207 1.384 . S
C208 H235 0.929 . S
C209 O222 1.241 . S
C209 O223 1.273 . S
C210 O224 1.251 . S
C210 O225 1.268 . S
C211 Nd201 2.836 . S
C211 C212 1.498 . S
C211 O226 1.258 . S
C211 O227 1.239 . S
C212 C211 1.498 . S
C212 C213 1.366 . S
C212 C217 1.407 . S
C213 C212 1.366 . S
C213 C214 1.392 . S
C213 H236 0.930 . S
C214 C213 1.392 . S
C214 C215 1.398 . S
C214 H237 0.929 . S
C215 C214 1.398 . S
C215 C216 1.352 . S
C216 C215 1.352 . S
C216 C217 1.384 . S
C216 H238 0.930 . S
C217 C212 1.407 . S
C217 C216 1.384 . S
C217 H239 0.929 . S
C218 O228 1.241 . S
C218 O229 1.273 . S
C219 O230 1.251 . S
C219 O231 1.268 . S
O220 Nd200 2.500 . S
O220 C202 1.258 . S
O221 Nd200 2.492 . S
O221 C202 1.239 . S
O222 Nd200 2.487 . S
O222 C209 1.241 . S
O223 Nd200 2.682 . S
O223 Nd201 2.414 . S
O223 C209 1.273 . S
O224 Nd200 2.410 . S
O224 C210 1.251 . S
O225 Nd201 2.424 . S
O225 C210 1.268 . S
O226 Nd201 2.500 . S
O226 C211 1.258 . S
O227 Nd201 2.492 . S
O227 C211 1.239 . S
O228 Nd201 2.487 . S
O228 C218 1.241 . S
O229 Nd200 2.414 . S
O229 Nd201 2.682 . S
O229 C218 1.273 . S
O230 Nd201 2.410 . S
O230 C219 1.251 . S
O231 Nd200 2.424 . S
O231 C219 1.268 . S
H232 C204 0.930 . S
H233 C205 0.929 . S
H234 C207 0.930 . S
H235 C208 0.929 . S
H236 C213 0.930 . S
H237 C214 0.929 . S
H238 C216 0.930 . S
H239 C217 0.929 . S
Nd240 C242 2.836 . S
Nd240 O260 2.500 . S
Nd240 O261 2.492 . S
Nd240 O262 2.487 . S
Nd240 O263 2.682 . S
Nd240 O264 2.410 . S
Nd240 O269 2.414 . S
Nd240 O271 2.424 1_655 S
Nd241 C251 2.836 1_655 S
Nd241 O263 2.414 . S
Nd241 O265 2.424 . S
Nd241 O266 2.500 1_655 S
Nd241 O267 2.492 . S
Nd241 O268 2.487 . S
Nd241 O269 2.682 . S
Nd241 O270 2.410 1_655 S
C242 Nd240 2.836 . S
C242 C243 1.498 . S
C242 O260 1.258 . S
C242 O261 1.239 . S
C243 C242 1.498 . S
C243 C244 1.366 . S
C243 C248 1.407 . S
C244 C243 1.366 . S
C244 C245 1.392 . S
C244 H272 0.930 . S
C245 C244 1.392 . S
C245 C246 1.398 . S
C245 H273 0.929 . S
C246 C245 1.398 . S
C246 C247 1.352 . S
C247 C246 1.352 . S
C247 C248 1.384 . S
C247 H274 0.930 . S
C248 C243 1.407 . S
C248 C247 1.384 . S
C248 H275 0.929 . S
C249 O262 1.241 . S
C249 O263 1.273 . S
C250 O264 1.251 . S
C250 O265 1.268 . S
C251 Nd241 2.836 1_455 S
C251 C252 1.498 . S
C251 O266 1.258 . S
C251 O267 1.239 1_455 S
C252 C251 1.498 . S
C252 C253 1.366 . S
C252 C257 1.407 . S
C253 C252 1.366 . S
C253 C254 1.392 . S
C253 H276 0.930 . S
C254 C253 1.392 . S
C254 C255 1.398 . S
C254 H277 0.929 . S
C255 C254 1.398 . S
C255 C256 1.352 . S
C256 C255 1.352 . S
C256 C257 1.384 . S
C256 H278 0.930 . S
C257 C252 1.407 . S
C257 C256 1.384 . S
C257 H279 0.929 . S
C258 O268 1.241 . S
C258 O269 1.273 . S
C259 O270 1.251 . S
C259 O271 1.268 . S
O260 Nd240 2.500 . S
O260 C242 1.258 . S
O261 Nd240 2.492 . S
O261 C242 1.239 . S
O262 Nd240 2.487 . S
O262 C249 1.241 . S
O263 Nd240 2.682 . S
O263 Nd241 2.414 . S
O263 C249 1.273 . S
O264 Nd240 2.410 . S
O264 C250 1.251 . S
O265 Nd241 2.424 . S
O265 C250 1.268 . S
O266 Nd241 2.500 1_455 S
O266 C251 1.258 . S
O267 Nd241 2.492 . S
O267 C251 1.239 1_655 S
O268 Nd241 2.487 . S
O268 C258 1.241 . S
O269 Nd240 2.414 . S
O269 Nd241 2.682 . S
O269 C258 1.273 . S
O270 Nd241 2.410 1_455 S
O270 C259 1.251 . S
O271 Nd240 2.424 1_455 S
O271 C259 1.268 . S
H272 C244 0.930 . S
H273 C245 0.929 . S
H274 C247 0.930 . S
H275 C248 0.929 . S
H276 C253 0.930 . S
H277 C254 0.929 . S
H278 C256 0.930 . S
H279 C257 0.929 . S
Nd280 C282 2.836 . S
Nd280 O300 2.500 . S
Nd280 O301 2.492 . S
Nd280 O302 2.487 . S
Nd280 O303 2.682 . S
Nd280 O304 2.410 . S
Nd280 O309 2.414 . S
Nd280 O311 2.424 . S
Nd281 C291 2.836 . S
Nd281 O303 2.414 . S
Nd281 O305 2.424 . S
Nd281 O306 2.500 . S
Nd281 O307 2.492 . S
Nd281 O308 2.487 . S
Nd281 O309 2.682 . S
Nd281 O310 2.410 . S
C282 Nd280 2.836 . S
C282 C283 1.498 . S
C282 O300 1.258 . S
C282 O301 1.239 . S
C283 C282 1.498 . S
C283 C284 1.366 . S
C283 C288 1.407 . S
C284 C283 1.366 . S
C284 C285 1.392 . S
C284 H312 0.930 . S
C285 C284 1.392 . S
C285 C286 1.398 . S
C285 H313 0.929 . S
C286 C285 1.398 . S
C286 C287 1.352 . S
C287 C286 1.352 . S
C287 C288 1.384 . S
C287 H314 0.930 . S
C288 C283 1.407 . S
C288 C287 1.384 . S
C288 H315 0.929 . S
C289 O302 1.241 . S
C289 O303 1.273 . S
C290 O304 1.251 . S
C290 O305 1.268 . S
C291 Nd281 2.836 . S
C291 C292 1.498 . S
C291 O306 1.258 . S
C291 O307 1.239 . S
C292 C291 1.498 . S
C292 C293 1.366 . S
C292 C297 1.407 . S
C293 C292 1.366 . S
C293 C294 1.392 . S
C293 H316 0.930 . S
C294 C293 1.392 . S
C294 C295 1.398 . S
C294 H317 0.929 . S
C295 C294 1.398 . S
C295 C296 1.352 . S
C296 C295 1.352 . S
C296 C297 1.384 . S
C296 H318 0.930 . S
C297 C292 1.407 . S
C297 C296 1.384 . S
C297 H319 0.929 . S
C298 O308 1.241 . S
C298 O309 1.273 . S
C299 O310 1.251 . S
C299 O311 1.268 . S
O300 Nd280 2.500 . S
O300 C282 1.258 . S
O301 Nd280 2.492 . S
O301 C282 1.239 . S
O302 Nd280 2.487 . S
O302 C289 1.241 . S
O303 Nd280 2.682 . S
O303 Nd281 2.414 . S
O303 C289 1.273 . S
O304 Nd280 2.410 . S
O304 C290 1.251 . S
O305 Nd281 2.424 . S
O305 C290 1.268 . S
O306 Nd281 2.500 . S
O306 C291 1.258 . S
O307 Nd281 2.492 . S
O307 C291 1.239 . S
O308 Nd281 2.487 . S
O308 C298 1.241 . S
O309 Nd280 2.414 . S
O309 Nd281 2.682 . S
O309 C298 1.273 . S
O310 Nd281 2.410 . S
O310 C299 1.251 . S
O311 Nd280 2.424 . S
O311 C299 1.268 . S
H312 C284 0.930 . S
H313 C285 0.929 . S
H314 C287 0.930 . S
H315 C288 0.929 . S
H316 C293 0.930 . S
H317 C294 0.929 . S
H318 C296 0.930 . S
H319 C297 0.929 . S
Nd320 C322 2.836 1_455 S
Nd320 O340 2.500 1_455 S
Nd320 O341 2.492 . S
Nd320 O342 2.487 . S
Nd320 O343 2.682 1_565 S
Nd320 O344 2.410 1_455 S
Nd320 O349 2.414 . S
Nd320 O351 2.424 . S
Nd321 C331 2.836 . S
Nd321 O343 2.414 . S
Nd321 O345 2.424 1_455 S
Nd321 O346 2.500 . S
Nd321 O347 2.492 . S
Nd321 O348 2.487 . S
Nd321 O349 2.682 1_545 S
Nd321 O350 2.410 . S
C322 Nd320 2.836 1_655 S
C322 C323 1.498 . S
C322 O340 1.258 . S
C322 O341 1.239 1_655 S
C323 C322 1.498 . S
C323 C324 1.366 . S
C323 C328 1.407 . S
C324 C323 1.366 . S
C324 C325 1.392 . S
C324 H352 0.930 . S
C325 C324 1.392 . S
C325 C326 1.398 . S
C325 H353 0.929 . S
C326 C325 1.398 . S
C326 C327 1.352 . S
C327 C326 1.352 . S
C327 C328 1.384 . S
C327 H354 0.930 . S
C328 C323 1.407 . S
C328 C327 1.384 . S
C328 H355 0.929 . S
C329 O342 1.241 . S
C329 O343 1.273 1_565 S
C330 O344 1.251 . S
C330 O345 1.268 1_565 S
C331 Nd321 2.836 . S
C331 C332 1.498 . S
C331 O346 1.258 . S
C331 O347 1.239 . S
C332 C331 1.498 . S
C332 C333 1.366 . S
C332 C337 1.407 . S
C333 C332 1.366 . S
C333 C334 1.392 . S
C333 H356 0.930 . S
C334 C333 1.392 . S
C334 C335 1.398 . S
C334 H357 0.929 . S
C335 C334 1.398 . S
C335 C336 1.352 . S
C336 C335 1.352 . S
C336 C337 1.384 . S
C336 H358 0.930 . S
C337 C332 1.407 . S
C337 C336 1.384 . S
C337 H359 0.929 . S
C338 O348 1.241 . S
C338 O349 1.273 1_545 S
C339 O350 1.251 . S
C339 O351 1.268 1_545 S
O340 Nd320 2.500 1_655 S
O340 C322 1.258 . S
O341 Nd320 2.492 . S
O341 C322 1.239 1_455 S
O342 Nd320 2.487 . S
O342 C329 1.241 . S
O343 Nd320 2.682 1_545 S
O343 Nd321 2.414 . S
O343 C329 1.273 1_545 S
O344 Nd320 2.410 1_655 S
O344 C330 1.251 . S
O345 Nd321 2.424 1_655 S
O345 C330 1.268 1_545 S
O346 Nd321 2.500 . S
O346 C331 1.258 . S
O347 Nd321 2.492 . S
O347 C331 1.239 . S
O348 Nd321 2.487 . S
O348 C338 1.241 . S
O349 Nd320 2.414 . S
O349 Nd321 2.682 1_565 S
O349 C338 1.273 1_565 S
O350 Nd321 2.410 . S
O350 C339 1.251 . S
O351 Nd320 2.424 . S
O351 C339 1.268 1_565 S
H352 C324 0.930 . S
H353 C325 0.929 . S
H354 C327 0.930 . S
H355 C328 0.929 . S
H356 C333 0.930 . S
H357 C334 0.929 . S
H358 C336 0.930 . S
H359 C337 0.929 . S
Nd360 C362 2.836 . S
Nd360 O380 2.500 . S
Nd360 O381 2.492 . S
Nd360 O382 2.487 . S
Nd360 O383 2.682 . S
Nd360 O384 2.410 . S
Nd360 O389 2.414 . S
Nd360 O391 2.424 . S
Nd361 C371 2.836 . S
Nd361 O383 2.414 . S
Nd361 O385 2.424 . S
Nd361 O386 2.500 . S
Nd361 O387 2.492 . S
Nd361 O388 2.487 . S
Nd361 O389 2.682 . S
Nd361 O390 2.410 . S
C362 Nd360 2.836 . S
C362 C363 1.498 . S
C362 O380 1.258 . S
C362 O381 1.239 . S
C363 C362 1.498 . S
C363 C364 1.366 . S
C363 C368 1.407 . S
C364 C363 1.366 . S
C364 C365 1.392 . S
C364 H392 0.930 . S
C365 C364 1.392 . S
C365 C366 1.398 . S
C365 H393 0.929 . S
C366 C365 1.398 . S
C366 C367 1.352 . S
C367 C366 1.352 . S
C367 C368 1.384 . S
C367 H394 0.930 . S
C368 C363 1.407 . S
C368 C367 1.384 . S
C368 H395 0.929 . S
C369 O382 1.241 . S
C369 O383 1.273 . S
C370 O384 1.251 . S
C370 O385 1.268 . S
C371 Nd361 2.836 . S
C371 C372 1.498 . S
C371 O386 1.258 . S
C371 O387 1.239 . S
C372 C371 1.498 . S
C372 C373 1.366 . S
C372 C377 1.407 . S
C373 C372 1.366 . S
C373 C374 1.392 . S
C373 H396 0.930 . S
C374 C373 1.392 . S
C374 C375 1.398 . S
C374 H397 0.929 . S
C375 C374 1.398 . S
C375 C376 1.352 . S
C376 C375 1.352 . S
C376 C377 1.384 . S
C376 H398 0.930 . S
C377 C372 1.407 . S
C377 C376 1.384 . S
C377 H399 0.929 . S
C378 O388 1.241 . S
C378 O389 1.273 . S
C379 O390 1.251 . S
C379 O391 1.268 . S
O380 Nd360 2.500 . S
O380 C362 1.258 . S
O381 Nd360 2.492 . S
O381 C362 1.239 . S
O382 Nd360 2.487 . S
O382 C369 1.241 . S
O383 Nd360 2.682 . S
O383 Nd361 2.414 . S
O383 C369 1.273 . S
O384 Nd360 2.410 . S
O384 C370 1.251 . S
O385 Nd361 2.424 . S
O385 C370 1.268 . S
O386 Nd361 2.500 . S
O386 C371 1.258 . S
O387 Nd361 2.492 . S
O387 C371 1.239 . S
O388 Nd361 2.487 . S
O388 C378 1.241 . S
O389 Nd360 2.414 . S
O389 Nd361 2.682 . S
O389 C378 1.273 . S
O390 Nd361 2.410 . S
O390 C379 1.251 . S
O391 Nd360 2.424 . S
O391 C379 1.268 . S
H392 C364 0.930 . S
H393 C365 0.929 . S
H394 C367 0.930 . S
H395 C368 0.929 . S
H396 C373 0.930 . S
H397 C374 0.929 . S
H398 C376 0.930 . S
H399 C377 0.929 . S
Nd400 C402 2.836 1_455 S
Nd400 O420 2.500 1_455 S
Nd400 O421 2.492 . S
Nd400 O422 2.487 . S
Nd400 O423 2.682 . S
Nd400 O424 2.410 1_455 S
Nd400 O429 2.414 . S
Nd400 O431 2.424 . S
Nd401 C411 2.836 . S
Nd401 O423 2.414 . S
Nd401 O425 2.424 1_455 S
Nd401 O426 2.500 . S
Nd401 O427 2.492 . S
Nd401 O428 2.487 . S
Nd401 O429 2.682 . S
Nd401 O430 2.410 . S
C402 Nd400 2.836 1_655 S
C402 C403 1.498 . S
C402 O420 1.258 . S
C402 O421 1.239 1_655 S
C403 C402 1.498 . S
C403 C404 1.366 . S
C403 C408 1.407 . S
C404 C403 1.366 . S
C404 C405 1.392 . S
C404 H432 0.930 . S
C405 C404 1.392 . S
C405 C406 1.398 . S
C405 H433 0.929 . S
C406 C405 1.398 . S
C406 C407 1.352 . S
C407 C406 1.352 . S
C407 C408 1.384 . S
C407 H434 0.930 . S
C408 C403 1.407 . S
C408 C407 1.384 . S
C408 H435 0.929 . S
C409 O422 1.241 . S
C409 O423 1.273 . S
C410 O424 1.251 . S
C410 O425 1.268 . S
C411 Nd401 2.836 . S
C411 C412 1.498 . S
C411 O426 1.258 . S
C411 O427 1.239 . S
C412 C411 1.498 . S
C412 C413 1.366 . S
C412 C417 1.407 . S
C413 C412 1.366 . S
C413 C414 1.392 . S
C413 H436 0.930 . S
C414 C413 1.392 . S
C414 C415 1.398 . S
C414 H437 0.929 . S
C415 C414 1.398 . S
C415 C416 1.352 . S
C416 C415 1.352 . S
C416 C417 1.384 . S
C416 H438 0.930 . S
C417 C412 1.407 . S
C417 C416 1.384 . S
C417 H439 0.929 . S
C418 O428 1.241 . S
C418 O429 1.273 . S
C419 O430 1.251 . S
C419 O431 1.268 . S
O420 Nd400 2.500 1_655 S
O420 C402 1.258 . S
O421 Nd400 2.492 . S
O421 C402 1.239 1_455 S
O422 Nd400 2.487 . S
O422 C409 1.241 . S
O423 Nd400 2.682 . S
O423 Nd401 2.414 . S
O423 C409 1.273 . S
O424 Nd400 2.410 1_655 S
O424 C410 1.251 . S
O425 Nd401 2.424 1_655 S
O425 C410 1.268 . S
O426 Nd401 2.500 . S
O426 C411 1.258 . S
O427 Nd401 2.492 . S
O427 C411 1.239 . S
O428 Nd401 2.487 . S
O428 C418 1.241 . S
O429 Nd400 2.414 . S
O429 Nd401 2.682 . S
O429 C418 1.273 . S
O430 Nd401 2.410 . S
O430 C419 1.251 . S
O431 Nd400 2.424 . S
O431 C419 1.268 . S
H432 C404 0.930 . S
H433 C405 0.929 . S
H434 C407 0.930 . S
H435 C408 0.929 . S
H436 C413 0.930 . S
H437 C414 0.929 . S
H438 C416 0.930 . S
H439 C417 0.929 . S
Nd440 C442 2.836 . S
Nd440 O460 2.500 . S
Nd440 O461 2.492 . S
Nd440 O462 2.487 . S
Nd440 O463 2.682 1_565 S
Nd440 O464 2.410 . S
Nd440 O469 2.414 . S
Nd440 O471 2.424 . S
Nd441 C451 2.836 . S
Nd441 O463 2.414 . S
Nd441 O465 2.424 . S
Nd441 O466 2.500 . S
Nd441 O467 2.492 . S
Nd441 O468 2.487 . S
Nd441 O469 2.682 1_545 S
Nd441 O470 2.410 . S
C442 Nd440 2.836 . S
C442 C443 1.498 . S
C442 O460 1.258 . S
C442 O461 1.239 . S
C443 C442 1.498 . S
C443 C444 1.366 . S
C443 C448 1.407 . S
C444 C443 1.366 . S
C444 C445 1.392 . S
C444 H472 0.930 . S
C445 C444 1.392 . S
C445 C446 1.398 . S
C445 H473 0.929 . S
C446 C445 1.398 . S
C446 C447 1.352 . S
C447 C446 1.352 . S
C447 C448 1.384 . S
C447 H474 0.930 . S
C448 C443 1.407 . S
C448 C447 1.384 . S
C448 H475 0.929 . S
C449 O462 1.241 . S
C449 O463 1.273 1_565 S
C450 O464 1.251 . S
C450 O465 1.268 1_565 S
C451 Nd441 2.836 . S
C451 C452 1.498 . S
C451 O466 1.258 . S
C451 O467 1.239 . S
C452 C451 1.498 . S
C452 C453 1.366 . S
C452 C457 1.407 . S
C453 C452 1.366 . S
C453 C454 1.392 . S
C453 H476 0.930 . S
C454 C453 1.392 . S
C454 C455 1.398 . S
C454 H477 0.929 . S
C455 C454 1.398 . S
C455 C456 1.352 . S
C456 C455 1.352 . S
C456 C457 1.384 . S
C456 H478 0.930 . S
C457 C452 1.407 . S
C457 C456 1.384 . S
C457 H479 0.929 . S
C458 O468 1.241 . S
C458 O469 1.273 1_545 S
C459 O470 1.251 . S
C459 O471 1.268 1_545 S
O460 Nd440 2.500 . S
O460 C442 1.258 . S
O461 Nd440 2.492 . S
O461 C442 1.239 . S
O462 Nd440 2.487 . S
O462 C449 1.241 . S
O463 Nd440 2.682 1_545 S
O463 Nd441 2.414 . S
O463 C449 1.273 1_545 S
O464 Nd440 2.410 . S
O464 C450 1.251 . S
O465 Nd441 2.424 . S
O465 C450 1.268 1_545 S
O466 Nd441 2.500 . S
O466 C451 1.258 . S
O467 Nd441 2.492 . S
O467 C451 1.239 . S
O468 Nd441 2.487 . S
O468 C458 1.241 . S
O469 Nd440 2.414 . S
O469 Nd441 2.682 1_565 S
O469 C458 1.273 1_565 S
O470 Nd441 2.410 . S
O470 C459 1.251 . S
O471 Nd440 2.424 . S
O471 C459 1.268 1_565 S
H472 C444 0.930 . S
H473 C445 0.929 . S
H474 C447 0.930 . S
H475 C448 0.929 . S
H476 C453 0.930 . S
H477 C454 0.929 . S
H478 C456 0.930 . S
H479 C457 0.929 . S
Nd480 C482 2.836 . S
Nd480 O500 2.500 . S
Nd480 O501 2.492 . S
Nd480 O502 2.487 . S
Nd480 O503 2.682 1_565 S
Nd480 O504 2.410 . S
Nd480 O509 2.414 . S
Nd480 O511 2.424 1_655 S
Nd481 C491 2.836 1_655 S
Nd481 O503 2.414 . S
Nd481 O505 2.424 . S
Nd481 O506 2.500 1_655 S
Nd481 O507 2.492 . S
Nd481 O508 2.487 . S
Nd481 O509 2.682 1_545 S
Nd481 O510 2.410 1_655 S
C482 Nd480 2.836 . S
C482 C483 1.498 . S
C482 O500 1.258 . S
C482 O501 1.239 . S
C483 C482 1.498 . S
C483 C484 1.366 . S
C483 C488 1.407 . S
C484 C483 1.366 . S
C484 C485 1.392 . S
C484 H512 0.930 . S
C485 C484 1.392 . S
C485 C486 1.398 . S
C485 H513 0.929 . S
C486 C485 1.398 . S
C486 C487 1.352 . S
C487 C486 1.352 . S
C487 C488 1.384 . S
C487 H514 0.930 . S
C488 C483 1.407 . S
C488 C487 1.384 . S
C488 H515 0.929 . S
C489 O502 1.241 . S
C489 O503 1.273 1_565 S
C490 O504 1.251 . S
C490 O505 1.268 1_565 S
C491 Nd481 2.836 1_455 S
C491 C492 1.498 . S
C491 O506 1.258 . S
C491 O507 1.239 1_455 S
C492 C491 1.498 . S
C492 C493 1.366 . S
C492 C497 1.407 . S
C493 C492 1.366 . S
C493 C494 1.392 . S
C493 H516 0.930 . S
C494 C493 1.392 . S
C494 C495 1.398 . S
C494 H517 0.929 . S
C495 C494 1.398 . S
C495 C496 1.352 . S
C496 C495 1.352 . S
C496 C497 1.384 . S
C496 H518 0.930 . S
C497 C492 1.407 . S
C497 C496 1.384 . S
C497 H519 0.929 . S
C498 O508 1.241 . S
C498 O509 1.273 1_545 S
C499 O510 1.251 . S
C499 O511 1.268 1_545 S
O500 Nd480 2.500 . S
O500 C482 1.258 . S
O501 Nd480 2.492 . S
O501 C482 1.239 . S
O502 Nd480 2.487 . S
O502 C489 1.241 . S
O503 Nd480 2.682 1_545 S
O503 Nd481 2.414 . S
O503 C489 1.273 1_545 S
O504 Nd480 2.410 . S
O504 C490 1.251 . S
O505 Nd481 2.424 . S
O505 C490 1.268 1_545 S
O506 Nd481 2.500 1_455 S
O506 C491 1.258 . S
O507 Nd481 2.492 . S
O507 C491 1.239 1_655 S
O508 Nd481 2.487 . S
O508 C498 1.241 . S
O509 Nd480 2.414 . S
O509 Nd481 2.682 1_565 S
O509 C498 1.273 1_565 S
O510 Nd481 2.410 1_455 S
O510 C499 1.251 . S
O511 Nd480 2.424 1_455 S
O511 C499 1.268 1_565 S
H512 C484 0.930 . S
H513 C485 0.929 . S
H514 C487 0.930 . S
H515 C488 0.929 . S
H516 C493 0.930 . S
H517 C494 0.929 . S
H518 C496 0.930 . S
H519 C497 0.929 . S
Nd520 C522 2.836 . S
Nd520 O540 2.500 . S
Nd520 O541 2.492 . S
Nd520 O542 2.487 . S
Nd520 O543 2.682 . S
Nd520 O544 2.410 . S
Nd520 O549 2.414 . S
Nd520 O551 2.424 . S
Nd521 C531 2.836 . S
Nd521 O543 2.414 . S
Nd521 O545 2.424 . S
Nd521 O546 2.500 . S
Nd521 O547 2.492 . S
Nd521 O548 2.487 . S
Nd521 O549 2.682 . S
Nd521 O550 2.410 . S
C522 Nd520 2.836 . S
C522 C523 1.498 . S
C522 O540 1.258 . S
C522 O541 1.239 . S
C523 C522 1.498 . S
C523 C524 1.366 . S
C523 C528 1.407 . S
C524 C523 1.366 . S
C524 C525 1.392 . S
C524 H552 0.930 . S
C525 C524 1.392 . S
C525 C526 1.398 . S
C525 H553 0.929 . S
C526 C525 1.398 . S
C526 C527 1.352 . S
C527 C526 1.352 . S
C527 C528 1.384 . S
C527 H554 0.930 . S
C528 C523 1.407 . S
C528 C527 1.384 . S
C528 H555 0.929 . S
C529 O542 1.241 . S
C529 O543 1.273 . S
C530 O544 1.251 . S
C530 O545 1.268 . S
C531 Nd521 2.836 . S
C531 C532 1.498 . S
C531 O546 1.258 . S
C531 O547 1.239 . S
C532 C531 1.498 . S
C532 C533 1.366 . S
C532 C537 1.407 . S
C533 C532 1.366 . S
C533 C534 1.392 . S
C533 H556 0.930 . S
C534 C533 1.392 . S
C534 C535 1.398 . S
C534 H557 0.929 . S
C535 C534 1.398 . S
C535 C536 1.352 . S
C536 C535 1.352 . S
C536 C537 1.384 . S
C536 H558 0.930 . S
C537 C532 1.407 . S
C537 C536 1.384 . S
C537 H559 0.929 . S
C538 O548 1.241 . S
C538 O549 1.273 . S
C539 O550 1.251 . S
C539 O551 1.268 . S
O540 Nd520 2.500 . S
O540 C522 1.258 . S
O541 Nd520 2.492 . S
O541 C522 1.239 . S
O542 Nd520 2.487 . S
O542 C529 1.241 . S
O543 Nd520 2.682 . S
O543 Nd521 2.414 . S
O543 C529 1.273 . S
O544 Nd520 2.410 . S
O544 C530 1.251 . S
O545 Nd521 2.424 . S
O545 C530 1.268 . S
O546 Nd521 2.500 . S
O546 C531 1.258 . S
O547 Nd521 2.492 . S
O547 C531 1.239 . S
O548 Nd521 2.487 . S
O548 C538 1.241 . S
O549 Nd520 2.414 . S
O549 Nd521 2.682 . S
O549 C538 1.273 . S
O550 Nd521 2.410 . S
O550 C539 1.251 . S
O551 Nd520 2.424 . S
O551 C539 1.268 . S
H552 C524 0.930 . S
H553 C525 0.929 . S
H554 C527 0.930 . S
H555 C528 0.929 . S
H556 C533 0.930 . S
H557 C534 0.929 . S
H558 C536 0.930 . S
H559 C537 0.929 . S
Nd560 C562 2.836 . S
Nd560 O580 2.500 . S
Nd560 O581 2.492 . S
Nd560 O582 2.487 . S
Nd560 O583 2.682 . S
Nd560 O584 2.410 . S
Nd560 O589 2.414 . S
Nd560 O591 2.424 1_655 S
Nd561 C571 2.836 1_655 S
Nd561 O583 2.414 . S
Nd561 O585 2.424 . S
Nd561 O586 2.500 1_655 S
Nd561 O587 2.492 . S
Nd561 O588 2.487 . S
Nd561 O589 2.682 . S
Nd561 O590 2.410 1_655 S
C562 Nd560 2.836 . S
C562 C563 1.498 . S
C562 O580 1.258 . S
C562 O581 1.239 . S
C563 C562 1.498 . S
C563 C564 1.366 . S
C563 C568 1.407 . S
C564 C563 1.366 . S
C564 C565 1.392 . S
C564 H592 0.930 . S
C565 C564 1.392 . S
C565 C566 1.398 . S
C565 H593 0.929 . S
C566 C565 1.398 . S
C566 C567 1.352 . S
C567 C566 1.352 . S
C567 C568 1.384 . S
C567 H594 0.930 . S
C568 C563 1.407 . S
C568 C567 1.384 . S
C568 H595 0.929 . S
C569 O582 1.241 . S
C569 O583 1.273 . S
C570 O584 1.251 . S
C570 O585 1.268 . S
C571 Nd561 2.836 1_455 S
C571 C572 1.498 . S
C571 O586 1.258 . S
C571 O587 1.239 1_455 S
C572 C571 1.498 . S
C572 C573 1.366 . S
C572 C577 1.407 . S
C573 C572 1.366 . S
C573 C574 1.392 . S
C573 H596 0.930 . S
C574 C573 1.392 . S
C574 C575 1.398 . S
C574 H597 0.929 . S
C575 C574 1.398 . S
C575 C576 1.352 . S
C576 C575 1.352 . S
C576 C577 1.384 . S
C576 H598 0.930 . S
C577 C572 1.407 . S
C577 C576 1.384 . S
C577 H599 0.929 . S
C578 O588 1.241 . S
C578 O589 1.273 . S
C579 O590 1.251 . S
C579 O591 1.268 . S
O580 Nd560 2.500 . S
O580 C562 1.258 . S
O581 Nd560 2.492 . S
O581 C562 1.239 . S
O582 Nd560 2.487 . S
O582 C569 1.241 . S
O583 Nd560 2.682 . S
O583 Nd561 2.414 . S
O583 C569 1.273 . S
O584 Nd560 2.410 . S
O584 C570 1.251 . S
O585 Nd561 2.424 . S
O585 C570 1.268 . S
O586 Nd561 2.500 1_455 S
O586 C571 1.258 . S
O587 Nd561 2.492 . S
O587 C571 1.239 1_655 S
O588 Nd561 2.487 . S
O588 C578 1.241 . S
O589 Nd560 2.414 . S
O589 Nd561 2.682 . S
O589 C578 1.273 . S
O590 Nd561 2.410 1_455 S
O590 C579 1.251 . S
O591 Nd560 2.424 1_455 S
O591 C579 1.268 . S
H592 C564 0.930 . S
H593 C565 0.929 . S
H594 C567 0.930 . S
H595 C568 0.929 . S
H596 C573 0.930 . S
H597 C574 0.929 . S
H598 C576 0.930 . S
H599 C577 0.929 . S
Nd600 C602 2.836 . S
Nd600 O620 2.500 . S
Nd600 O621 2.492 . S
Nd600 O622 2.487 . S
Nd600 O623 2.682 1_565 S
Nd600 O624 2.410 . S
Nd600 O629 2.414 . S
Nd600 O631 2.424 . S
Nd601 C611 2.836 . S
Nd601 O623 2.414 . S
Nd601 O625 2.424 . S
Nd601 O626 2.500 . S
Nd601 O627 2.492 . S
Nd601 O628 2.487 . S
Nd601 O629 2.682 1_545 S
Nd601 O630 2.410 . S
C602 Nd600 2.836 . S
C602 C603 1.498 . S
C602 O620 1.258 . S
C602 O621 1.239 . S
C603 C602 1.498 . S
C603 C604 1.366 . S
C603 C608 1.407 . S
C604 C603 1.366 . S
C604 C605 1.392 . S
C604 H632 0.930 . S
C605 C604 1.392 . S
C605 C606 1.398 . S
C605 H633 0.929 . S
C606 C605 1.398 . S
C606 C607 1.352 . S
C607 C606 1.352 . S
C607 C608 1.384 . S
C607 H634 0.930 . S
C608 C603 1.407 . S
C608 C607 1.384 . S
C608 H635 0.929 . S
C609 O622 1.241 . S
C609 O623 1.273 1_565 S
C610 O624 1.251 . S
C610 O625 1.268 1_565 S
C611 Nd601 2.836 . S
C611 C612 1.498 . S
C611 O626 1.258 . S
C611 O627 1.239 . S
C612 C611 1.498 . S
C612 C613 1.366 . S
C612 C617 1.407 . S
C613 C612 1.366 . S
C613 C614 1.392 . S
C613 H636 0.930 . S
C614 C613 1.392 . S
C614 C615 1.398 . S
C614 H637 0.929 . S
C615 C614 1.398 . S
C615 C616 1.352 . S
C616 C615 1.352 . S
C616 C617 1.384 . S
C616 H638 0.930 . S
C617 C612 1.407 . S
C617 C616 1.384 . S
C617 H639 0.929 . S
C618 O628 1.241 . S
C618 O629 1.273 1_545 S
C619 O630 1.251 . S
C619 O631 1.268 1_545 S
O620 Nd600 2.500 . S
O620 C602 1.258 . S
O621 Nd600 2.492 . S
O621 C602 1.239 . S
O622 Nd600 2.487 . S
O622 C609 1.241 . S
O623 Nd600 2.682 1_545 S
O623 Nd601 2.414 . S
O623 C609 1.273 1_545 S
O624 Nd600 2.410 . S
O624 C610 1.251 . S
O625 Nd601 2.424 . S
O625 C610 1.268 1_545 S
O626 Nd601 2.500 . S
O626 C611 1.258 . S
O627 Nd601 2.492 . S
O627 C611 1.239 . S
O628 Nd601 2.487 . S
O628 C618 1.241 . S
O629 Nd600 2.414 . S
O629 Nd601 2.682 1_565 S
O629 C618 1.273 1_565 S
O630 Nd601 2.410 . S
O630 C619 1.251 . S
O631 Nd600 2.424 . S
O631 C619 1.268 1_565 S
H632 C604 0.930 . S
H633 C605 0.929 . S
H634 C607 0.930 . S
H635 C608 0.929 . S
H636 C613 0.930 . S
H637 C614 0.929 . S
H638 C616 0.930 . S
H639 C617 0.929 . S
Nd640 C642 2.836 . S
Nd640 O660 2.500 . S
Nd640 O661 2.492 . S
Nd640 O662 2.487 . S
Nd640 O663 2.682 . S
Nd640 O664 2.410 . S
Nd640 O669 2.414 . S
Nd640 O671 2.424 . S
Nd641 C651 2.836 . S
Nd641 O663 2.414 . S
Nd641 O665 2.424 . S
Nd641 O666 2.500 . S
Nd641 O667 2.492 . S
Nd641 O668 2.487 . S
Nd641 O669 2.682 . S
Nd641 O670 2.410 . S
C642 Nd640 2.836 . S
C642 C643 1.498 . S
C642 O660 1.258 . S
C642 O661 1.239 . S
C643 C642 1.498 . S
C643 C644 1.366 . S
C643 C648 1.407 . S
C644 C643 1.366 . S
C644 C645 1.392 . S
C644 H672 0.930 . S
C645 C644 1.392 . S
C645 C646 1.398 . S
C645 H673 0.929 . S
C646 C645 1.398 . S
C646 C647 1.352 . S
C647 C646 1.352 . S
C647 C648 1.384 . S
C647 H674 0.930 . S
C648 C643 1.407 . S
C648 C647 1.384 . S
C648 H675 0.929 . S
C649 O662 1.241 . S
C649 O663 1.273 . S
C650 O664 1.251 . S
C650 O665 1.268 . S
C651 Nd641 2.836 . S
C651 C652 1.498 . S
C651 O666 1.258 . S
C651 O667 1.239 . S
C652 C651 1.498 . S
C652 C653 1.366 . S
C652 C657 1.407 . S
C653 C652 1.366 . S
C653 C654 1.392 . S
C653 H676 0.930 . S
C654 C653 1.392 . S
C654 C655 1.398 . S
C654 H677 0.929 . S
C655 C654 1.398 . S
C655 C656 1.352 . S
C656 C655 1.352 . S
C656 C657 1.384 . S
C656 H678 0.930 . S
C657 C652 1.407 . S
C657 C656 1.384 . S
C657 H679 0.929 . S
C658 O668 1.241 . S
C658 O669 1.273 . S
C659 O670 1.251 . S
C659 O671 1.268 . S
O660 Nd640 2.500 . S
O660 C642 1.258 . S
O661 Nd640 2.492 . S
O661 C642 1.239 . S
O662 Nd640 2.487 . S
O662 C649 1.241 . S
O663 Nd640 2.682 . S
O663 Nd641 2.414 . S
O663 C649 1.273 . S
O664 Nd640 2.410 . S
O664 C650 1.251 . S
O665 Nd641 2.424 . S
O665 C650 1.268 . S
O666 Nd641 2.500 . S
O666 C651 1.258 . S
O667 Nd641 2.492 . S
O667 C651 1.239 . S
O668 Nd641 2.487 . S
O668 C658 1.241 . S
O669 Nd640 2.414 . S
O669 Nd641 2.682 . S
O669 C658 1.273 . S
O670 Nd641 2.410 . S
O670 C659 1.251 . S
O671 Nd640 2.424 . S
O671 C659 1.268 . S
H672 C644 0.930 . S
H673 C645 0.929 . S
H674 C647 0.930 . S
H675 C648 0.929 . S
H676 C653 0.930 . S
H677 C654 0.929 . S
H678 C656 0.930 . S
H679 C657 0.929 . S
Nd680 C682 2.836 . S
Nd680 O700 2.500 . S
Nd680 O701 2.492 . S
Nd680 O702 2.487 . S
Nd680 O703 2.682 . S
Nd680 O704 2.410 . S
Nd680 O709 2.414 . S
Nd680 O711 2.424 . S
Nd681 C691 2.836 . S
Nd681 O703 2.414 . S
Nd681 O705 2.424 . S
Nd681 O706 2.500 . S
Nd681 O707 2.492 . S
Nd681 O708 2.487 . S
Nd681 O709 2.682 . S
Nd681 O710 2.410 . S
C682 Nd680 2.836 . S
C682 C683 1.498 . S
C682 O700 1.258 . S
C682 O701 1.239 . S
C683 C682 1.498 . S
C683 C684 1.366 . S
C683 C688 1.407 . S
C684 C683 1.366 . S
C684 C685 1.392 . S
C684 H712 0.930 . S
C685 C684 1.392 . S
C685 C686 1.398 . S
C685 H713 0.929 . S
C686 C685 1.398 . S
C686 C687 1.352 . S
C687 C686 1.352 . S
C687 C688 1.384 . S
C687 H714 0.930 . S
C688 C683 1.407 . S
C688 C687 1.384 . S
C688 H715 0.929 . S
C689 O702 1.241 . S
C689 O703 1.273 . S
C690 O704 1.251 . S
C690 O705 1.268 . S
C691 Nd681 2.836 . S
C691 C692 1.498 . S
C691 O706 1.258 . S
C691 O707 1.239 . S
C692 C691 1.498 . S
C692 C693 1.366 . S
C692 C697 1.407 . S
C693 C692 1.366 . S
C693 C694 1.392 . S
C693 H716 0.930 . S
C694 C693 1.392 . S
C694 C695 1.398 . S
C694 H717 0.929 . S
C695 C694 1.398 . S
C695 C696 1.352 . S
C696 C695 1.352 . S
C696 C697 1.384 . S
C696 H718 0.930 . S
C697 C692 1.407 . S
C697 C696 1.384 . S
C697 H719 0.929 . S
C698 O708 1.241 . S
C698 O709 1.273 . S
C699 O710 1.251 . S
C699 O711 1.268 . S
O700 Nd680 2.500 . S
O700 C682 1.258 . S
O701 Nd680 2.492 . S
O701 C682 1.239 . S
O702 Nd680 2.487 . S
O702 C689 1.241 . S
O703 Nd680 2.682 . S
O703 Nd681 2.414 . S
O703 C689 1.273 . S
O704 Nd680 2.410 . S
O704 C690 1.251 . S
O705 Nd681 2.424 . S
O705 C690 1.268 . S
O706 Nd681 2.500 . S
O706 C691 1.258 . S
O707 Nd681 2.492 . S
O707 C691 1.239 . S
O708 Nd681 2.487 . S
O708 C698 1.241 . S
O709 Nd680 2.414 . S
O709 Nd681 2.682 . S
O709 C698 1.273 . S
O710 Nd681 2.410 . S
O710 C699 1.251 . S
O711 Nd680 2.424 . S
O711 C699 1.268 . S
H712 C684 0.930 . S
H713 C685 0.929 . S
H714 C687 0.930 . S
H715 C688 0.929 . S
H716 C693 0.930 . S
H717 C694 0.929 . S
H718 C696 0.930 . S
H719 C697 0.929 . S
Nd720 C722 2.836 . S
Nd720 O740 2.500 . S
Nd720 O741 2.492 . S
Nd720 O742 2.487 . S
Nd720 O743 2.682 . S
Nd720 O744 2.410 . S
Nd720 O749 2.414 . S
Nd720 O751 2.424 . S
Nd721 C731 2.836 . S
Nd721 O743 2.414 . S
Nd721 O745 2.424 . S
Nd721 O746 2.500 . S
Nd721 O747 2.492 . S
Nd721 O748 2.487 . S
Nd721 O749 2.682 . S
Nd721 O750 2.410 . S
C722 Nd720 2.836 . S
C722 C723 1.498 . S
C722 O740 1.258 . S
C722 O741 1.239 . S
C723 C722 1.498 . S
C723 C724 1.366 . S
C723 C728 1.407 . S
C724 C723 1.366 . S
C724 C725 1.392 . S
C724 H752 0.930 . S
C725 C724 1.392 . S
C725 C726 1.398 . S
C725 H753 0.929 . S
C726 C725 1.398 . S
C726 C727 1.352 . S
C727 C726 1.352 . S
C727 C728 1.384 . S
C727 H754 0.930 . S
C728 C723 1.407 . S
C728 C727 1.384 . S
C728 H755 0.929 . S
C729 O742 1.241 . S
C729 O743 1.273 . S
C730 O744 1.251 . S
C730 O745 1.268 . S
C731 Nd721 2.836 . S
C731 C732 1.498 . S
C731 O746 1.258 . S
C731 O747 1.239 . S
C732 C731 1.498 . S
C732 C733 1.366 . S
C732 C737 1.407 . S
C733 C732 1.366 . S
C733 C734 1.392 . S
C733 H756 0.930 . S
C734 C733 1.392 . S
C734 C735 1.398 . S
C734 H757 0.929 . S
C735 C734 1.398 . S
C735 C736 1.352 . S
C736 C735 1.352 . S
C736 C737 1.384 . S
C736 H758 0.930 . S
C737 C732 1.407 . S
C737 C736 1.384 . S
C737 H759 0.929 . S
C738 O748 1.241 . S
C738 O749 1.273 . S
C739 O750 1.251 . S
C739 O751 1.268 . S
O740 Nd720 2.500 . S
O740 C722 1.258 . S
O741 Nd720 2.492 . S
O741 C722 1.239 . S
O742 Nd720 2.487 . S
O742 C729 1.241 . S
O743 Nd720 2.682 . S
O743 Nd721 2.414 . S
O743 C729 1.273 . S
O744 Nd720 2.410 . S
O744 C730 1.251 . S
O745 Nd721 2.424 . S
O745 C730 1.268 . S
O746 Nd721 2.500 . S
O746 C731 1.258 . S
O747 Nd721 2.492 . S
O747 C731 1.239 . S
O748 Nd721 2.487 . S
O748 C738 1.241 . S
O749 Nd720 2.414 . S
O749 Nd721 2.682 . S
O749 C738 1.273 . S
O750 Nd721 2.410 . S
O750 C739 1.251 . S
O751 Nd720 2.424 . S
O751 C739 1.268 . S
H752 C724 0.930 . S
H753 C725 0.929 . S
H754 C727 0.930 . S
H755 C728 0.929 . S
H756 C733 0.930 . S
H757 C734 0.929 . S
H758 C736 0.930 . S
H759 C737 0.929 . S
Nd760 C762 2.836 . S
Nd760 O780 2.500 . S
Nd760 O781 2.492 . S
Nd760 O782 2.487 . S
Nd760 O783 2.682 . S
Nd760 O784 2.410 . S
Nd760 O789 2.414 . S
Nd760 O791 2.424 . S
Nd761 C771 2.836 . S
Nd761 O783 2.414 . S
Nd761 O785 2.424 . S
Nd761 O786 2.500 . S
Nd761 O787 2.492 . S
Nd761 O788 2.487 . S
Nd761 O789 2.682 . S
Nd761 O790 2.410 . S
C762 Nd760 2.836 . S
C762 C763 1.498 . S
C762 O780 1.258 . S
C762 O781 1.239 . S
C763 C762 1.498 . S
C763 C764 1.366 . S
C763 C768 1.407 . S
C764 C763 1.366 . S
C764 C765 1.392 . S
C764 H792 0.930 . S
C765 C764 1.392 . S
C765 C766 1.398 . S
C765 H793 0.929 . S
C766 C765 1.398 . S
C766 C767 1.352 . S
C767 C766 1.352 . S
C767 C768 1.384 . S
C767 H794 0.930 . S
C768 C763 1.407 . S
C768 C767 1.384 . S
C768 H795 0.929 . S
C769 O782 1.241 . S
C769 O783 1.273 . S
C770 O784 1.251 . S
C770 O785 1.268 . S
C771 Nd761 2.836 . S
C771 C772 1.498 . S
C771 O786 1.258 . S
C771 O787 1.239 . S
C772 C771 1.498 . S
C772 C773 1.366 . S
C772 C777 1.407 . S
C773 C772 1.366 . S
C773 C774 1.392 . S
C773 H796 0.930 . S
C774 C773 1.392 . S
C774 C775 1.398 . S
C774 H797 0.929 . S
C775 C774 1.398 . S
C775 C776 1.352 . S
C776 C775 1.352 . S
C776 C777 1.384 . S
C776 H798 0.930 . S
C777 C772 1.407 . S
C777 C776 1.384 . S
C777 H799 0.929 . S
C778 O788 1.241 . S
C778 O789 1.273 . S
C779 O790 1.251 . S
C779 O791 1.268 . S
O780 Nd760 2.500 . S
O780 C762 1.258 . S
O781 Nd760 2.492 . S
O781 C762 1.239 . S
O782 Nd760 2.487 . S
O782 C769 1.241 . S
O783 Nd760 2.682 . S
O783 Nd761 2.414 . S
O783 C769 1.273 . S
O784 Nd760 2.410 . S
O784 C770 1.251 . S
O785 Nd761 2.424 . S
O785 C770 1.268 . S
O786 Nd761 2.500 . S
O786 C771 1.258 . S
O787 Nd761 2.492 . S
O787 C771 1.239 . S
O788 Nd761 2.487 . S
O788 C778 1.241 . S
O789 Nd760 2.414 . S
O789 Nd761 2.682 . S
O789 C778 1.273 . S
O790 Nd761 2.410 . S
O790 C779 1.251 . S
O791 Nd760 2.424 . S
O791 C779 1.268 . S
H792 C764 0.930 . S
H793 C765 0.929 . S
H794 C767 0.930 . S
H795 C768 0.929 . S
H796 C773 0.930 . S
H797 C774 0.929 . S
H798 C776 0.930 . S
H799 C777 0.929 . S
Nd800 C802 2.836 . S
Nd800 O820 2.500 . S
Nd800 O821 2.492 . S
Nd800 O822 2.487 . S
Nd800 O823 2.682 . S
Nd800 O824 2.410 . S
Nd800 O829 2.414 . S
Nd800 O831 2.424 . S
Nd801 C811 2.836 . S
Nd801 O823 2.414 . S
Nd801 O825 2.424 . S
Nd801 O826 2.500 . S
Nd801 O827 2.492 . S
Nd801 O828 2.487 . S
Nd801 O829 2.682 . S
Nd801 O830 2.410 . S
C802 Nd800 2.836 . S
C802 C803 1.498 . S
C802 O820 1.258 . S
C802 O821 1.239 . S
C803 C802 1.498 . S
C803 C804 1.366 . S
C803 C808 1.407 . S
C804 C803 1.366 . S
C804 C805 1.392 . S
C804 H832 0.930 . S
C805 C804 1.392 . S
C805 C806 1.398 . S
C805 H833 0.929 . S
C806 C805 1.398 . S
C806 C807 1.352 . S
C807 C806 1.352 . S
C807 C808 1.384 . S
C807 H834 0.930 . S
C808 C803 1.407 . S
C808 C807 1.384 . S
C808 H835 0.929 . S
C809 O822 1.241 . S
C809 O823 1.273 . S
C810 O824 1.251 . S
C810 O825 1.268 . S
C811 Nd801 2.836 . S
C811 C812 1.498 . S
C811 O826 1.258 . S
C811 O827 1.239 . S
C812 C811 1.498 . S
C812 C813 1.366 . S
C812 C817 1.407 . S
C813 C812 1.366 . S
C813 C814 1.392 . S
C813 H836 0.930 . S
C814 C813 1.392 . S
C814 C815 1.398 . S
C814 H837 0.929 . S
C815 C814 1.398 . S
C815 C816 1.352 . S
C816 C815 1.352 . S
C816 C817 1.384 . S
C816 H838 0.930 . S
C817 C812 1.407 . S
C817 C816 1.384 . S
C817 H839 0.929 . S
C818 O828 1.241 . S
C818 O829 1.273 . S
C819 O830 1.251 . S
C819 O831 1.268 . S
O820 Nd800 2.500 . S
O820 C802 1.258 . S
O821 Nd800 2.492 . S
O821 C802 1.239 . S
O822 Nd800 2.487 . S
O822 C809 1.241 . S
O823 Nd800 2.682 . S
O823 Nd801 2.414 . S
O823 C809 1.273 . S
O824 Nd800 2.410 . S
O824 C810 1.251 . S
O825 Nd801 2.424 . S
O825 C810 1.268 . S
O826 Nd801 2.500 . S
O826 C811 1.258 . S
O827 Nd801 2.492 . S
O827 C811 1.239 . S
O828 Nd801 2.487 . S
O828 C818 1.241 . S
O829 Nd800 2.414 . S
O829 Nd801 2.682 . S
O829 C818 1.273 . S
O830 Nd801 2.410 . S
O830 C819 1.251 . S
O831 Nd800 2.424 . S
O831 C819 1.268 . S
H832 C804 0.930 . S
H833 C805 0.929 . S
H834 C807 0.930 . S
H835 C808 0.929 . S
H836 C813 0.930 . S
H837 C814 0.929 . S
H838 C816 0.930 . S
H839 C817 0.929 . S
Nd840 C842 2.836 . S
Nd840 O860 2.500 . S
Nd840 O861 2.492 . S
Nd840 O862 2.487 . S
Nd840 O863 2.682 . S
Nd840 O864 2.410 . S
Nd840 O869 2.414 . S
Nd840 O871 2.424 . S
Nd841 C851 2.836 . S
Nd841 O863 2.414 . S
Nd841 O865 2.424 . S
Nd841 O866 2.500 . S
Nd841 O867 2.492 . S
Nd841 O868 2.487 . S
Nd841 O869 2.682 . S
Nd841 O870 2.410 . S
C842 Nd840 2.836 . S
C842 C843 1.498 . S
C842 O860 1.258 . S
C842 O861 1.239 . S
C843 C842 1.498 . S
C843 C844 1.366 . S
C843 C848 1.407 . S
C844 C843 1.366 . S
C844 C845 1.392 . S
C844 H872 0.930 . S
C845 C844 1.392 . S
C845 C846 1.398 . S
C845 H873 0.929 . S
C846 C845 1.398 . S
C846 C847 1.352 . S
C847 C846 1.352 . S
C847 C848 1.384 . S
C847 H874 0.930 . S
C848 C843 1.407 . S
C848 C847 1.384 . S
C848 H875 0.929 . S
C849 O862 1.241 . S
C849 O863 1.273 . S
C850 O864 1.251 . S
C850 O865 1.268 . S
C851 Nd841 2.836 . S
C851 C852 1.498 . S
C851 O866 1.258 . S
C851 O867 1.239 . S
C852 C851 1.498 . S
C852 C853 1.366 . S
C852 C857 1.407 . S
C853 C852 1.366 . S
C853 C854 1.392 . S
C853 H876 0.930 . S
C854 C853 1.392 . S
C854 C855 1.398 . S
C854 H877 0.929 . S
C855 C854 1.398 . S
C855 C856 1.352 . S
C856 C855 1.352 . S
C856 C857 1.384 . S
C856 H878 0.930 . S
C857 C852 1.407 . S
C857 C856 1.384 . S
C857 H879 0.929 . S
C858 O868 1.241 . S
C858 O869 1.273 . S
C859 O870 1.251 . S
C859 O871 1.268 . S
O860 Nd840 2.500 . S
O860 C842 1.258 . S
O861 Nd840 2.492 . S
O861 C842 1.239 . S
O862 Nd840 2.487 . S
O862 C849 1.241 . S
O863 Nd840 2.682 . S
O863 Nd841 2.414 . S
O863 C849 1.273 . S
O864 Nd840 2.410 . S
O864 C850 1.251 . S
O865 Nd841 2.424 . S
O865 C850 1.268 . S
O866 Nd841 2.500 . S
O866 C851 1.258 . S
O867 Nd841 2.492 . S
O867 C851 1.239 . S
O868 Nd841 2.487 . S
O868 C858 1.241 . S
O869 Nd840 2.414 . S
O869 Nd841 2.682 . S
O869 C858 1.273 . S
O870 Nd841 2.410 . S
O870 C859 1.251 . S
O871 Nd840 2.424 . S
O871 C859 1.268 . S
H872 C844 0.930 . S
H873 C845 0.929 . S
H874 C847 0.930 . S
H875 C848 0.929 . S
H876 C853 0.930 . S
H877 C854 0.929 . S
H878 C856 0.930 . S
H879 C857 0.929 . S
Nd880 C882 2.836 . S
Nd880 O900 2.500 . S
Nd880 O901 2.492 . S
Nd880 O902 2.487 . S
Nd880 O903 2.682 . S
Nd880 O904 2.410 . S
Nd880 O909 2.414 . S
Nd880 O911 2.424 . S
Nd881 C891 2.836 . S
Nd881 O903 2.414 . S
Nd881 O905 2.424 . S
Nd881 O906 2.500 . S
Nd881 O907 2.492 . S
Nd881 O908 2.487 . S
Nd881 O909 2.682 . S
Nd881 O910 2.410 . S
C882 Nd880 2.836 . S
C882 C883 1.498 . S
C882 O900 1.258 . S
C882 O901 1.239 . S
C883 C882 1.498 . S
C883 C884 1.366 . S
C883 C888 1.407 . S
C884 C883 1.366 . S
C884 C885 1.392 . S
C884 H912 0.930 . S
C885 C884 1.392 . S
C885 C886 1.398 . S
C885 H913 0.929 . S
C886 C885 1.398 . S
C886 C887 1.352 . S
C887 C886 1.352 . S
C887 C888 1.384 . S
C887 H914 0.930 . S
C888 C883 1.407 . S
C888 C887 1.384 . S
C888 H915 0.929 . S
C889 O902 1.241 . S
C889 O903 1.273 . S
C890 O904 1.251 . S
C890 O905 1.268 . S
C891 Nd881 2.836 . S
C891 C892 1.498 . S
C891 O906 1.258 . S
C891 O907 1.239 . S
C892 C891 1.498 . S
C892 C893 1.366 . S
C892 C897 1.407 . S
C893 C892 1.366 . S
C893 C894 1.392 . S
C893 H916 0.930 . S
C894 C893 1.392 . S
C894 C895 1.398 . S
C894 H917 0.929 . S
C895 C894 1.398 . S
C895 C896 1.352 . S
C896 C895 1.352 . S
C896 C897 1.384 . S
C896 H918 0.930 . S
C897 C892 1.407 . S
C897 C896 1.384 . S
C897 H919 0.929 . S
C898 O908 1.241 . S
C898 O909 1.273 . S
C899 O910 1.251 . S
C899 O911 1.268 . S
O900 Nd880 2.500 . S
O900 C882 1.258 . S
O901 Nd880 2.492 . S
O901 C882 1.239 . S
O902 Nd880 2.487 . S
O902 C889 1.241 . S
O903 Nd880 2.682 . S
O903 Nd881 2.414 . S
O903 C889 1.273 . S
O904 Nd880 2.410 . S
O904 C890 1.251 . S
O905 Nd881 2.424 . S
O905 C890 1.268 . S
O906 Nd881 2.500 . S
O906 C891 1.258 . S
O907 Nd881 2.492 . S
O907 C891 1.239 . S
O908 Nd881 2.487 . S
O908 C898 1.241 . S
O909 Nd880 2.414 . S
O909 Nd881 2.682 . S
O909 C898 1.273 . S
O910 Nd881 2.410 . S
O910 C899 1.251 . S
O911 Nd880 2.424 . S
O911 C899 1.268 . S
H912 C884 0.930 . S
H913 C885 0.929 . S
H914 C887 0.930 . S
H915 C888 0.929 . S
H916 C893 0.930 . S
H917 C894 0.929 . S
H918 C896 0.930 . S
H919 C897 0.929 . S
Nd920 C922 2.836 . S
Nd920 O940 2.500 . S
Nd920 O941 2.492 . S
Nd920 O942 2.487 . S
Nd920 O943 2.682 . S
Nd920 O944 2.410 . S
Nd920 O949 2.414 . S
Nd920 O951 2.424 . S
Nd921 C931 2.836 . S
Nd921 O943 2.414 . S
Nd921 O945 2.424 . S
Nd921 O946 2.500 . S
Nd921 O947 2.492 . S
Nd921 O948 2.487 . S
Nd921 O949 2.682 . S
Nd921 O950 2.410 . S
C922 Nd920 2.836 . S
C922 C923 1.498 . S
C922 O940 1.258 . S
C922 O941 1.239 . S
C923 C922 1.498 . S
C923 C924 1.366 . S
C923 C928 1.407 . S
C924 C923 1.366 . S
C924 C925 1.392 . S
C924 H952 0.930 . S
C925 C924 1.392 . S
C925 C926 1.398 . S
C925 H953 0.929 . S
C926 C925 1.398 . S
C926 C927 1.352 . S
C927 C926 1.352 . S
C927 C928 1.384 . S
C927 H954 0.930 . S
C928 C923 1.407 . S
C928 C927 1.384 . S
C928 H955 0.929 . S
C929 O942 1.241 . S
C929 O943 1.273 . S
C930 O944 1.251 . S
C930 O945 1.268 . S
C931 Nd921 2.836 . S
C931 C932 1.498 . S
C931 O946 1.258 . S
C931 O947 1.239 . S
C932 C931 1.498 . S
C932 C933 1.366 . S
C932 C937 1.407 . S
C933 C932 1.366 . S
C933 C934 1.392 . S
C933 H956 0.930 . S
C934 C933 1.392 . S
C934 C935 1.398 . S
C934 H957 0.929 . S
C935 C934 1.398 . S
C935 C936 1.352 . S
C936 C935 1.352 . S
C936 C937 1.384 . S
C936 H958 0.930 . S
C937 C932 1.407 . S
C937 C936 1.384 . S
C937 H959 0.929 . S
C938 O948 1.241 . S
C938 O949 1.273 . S
C939 O950 1.251 . S
C939 O951 1.268 . S
O940 Nd920 2.500 . S
O940 C922 1.258 . S
O941 Nd920 2.492 . S
O941 C922 1.239 . S
O942 Nd920 2.487 . S
O942 C929 1.241 . S
O943 Nd920 2.682 . S
O943 Nd921 2.414 . S
O943 C929 1.273 . S
O944 Nd920 2.410 . S
O944 C930 1.251 . S
O945 Nd921 2.424 . S
O945 C930 1.268 . S
O946 Nd921 2.500 . S
O946 C931 1.258 . S
O947 Nd921 2.492 . S
O947 C931 1.239 . S
O948 Nd921 2.487 . S
O948 C938 1.241 . S
O949 Nd920 2.414 . S
O949 Nd921 2.682 . S
O949 C938 1.273 . S
O950 Nd921 2.410 . S
O950 C939 1.251 . S
O951 Nd920 2.424 . S
O951 C939 1.268 . S
H952 C924 0.930 . S
H953 C925 0.929 . S
H954 C927 0.930 . S
H955 C928 0.929 . S
H956 C933 0.930 . S
H957 C934 0.929 . S
H958 C936 0.930 . S
H959 C937 0.929 . S
Nd960 C962 2.836 . S
Nd960 O980 2.500 . S
Nd960 O981 2.492 . S
Nd960 O982 2.487 . S
Nd960 O983 2.682 1_565 S
Nd960 O984 2.410 . S
Nd960 O989 2.414 . S
Nd960 O991 2.424 . S
Nd961 C971 2.836 . S
Nd961 O983 2.414 . S
Nd961 O985 2.424 . S
Nd961 O986 2.500 . S
Nd961 O987 2.492 . S
Nd961 O988 2.487 . S
Nd961 O989 2.682 1_545 S
Nd961 O990 2.410 . S
C962 Nd960 2.836 . S
C962 C963 1.498 . S
C962 O980 1.258 . S
C962 O981 1.239 . S
C963 C962 1.498 . S
C963 C964 1.366 . S
C963 C968 1.407 . S
C964 C963 1.366 . S
C964 C965 1.392 . S
C964 H992 0.930 . S
C965 C964 1.392 . S
C965 C966 1.398 . S
C965 H993 0.929 . S
C966 C965 1.398 . S
C966 C967 1.352 . S
C967 C966 1.352 . S
C967 C968 1.384 . S
C967 H994 0.930 . S
C968 C963 1.407 . S
C968 C967 1.384 . S
C968 H995 0.929 . S
C969 O982 1.241 . S
C969 O983 1.273 1_565 S
C970 O984 1.251 . S
C970 O985 1.268 1_565 S
C971 Nd961 2.836 . S
C971 C972 1.498 . S
C971 O986 1.258 . S
C971 O987 1.239 . S
C972 C971 1.498 . S
C972 C973 1.366 . S
C972 C977 1.407 . S
C973 C972 1.366 . S
C973 C974 1.392 . S
C973 H996 0.930 . S
C974 C973 1.392 . S
C974 C975 1.398 . S
C974 H997 0.929 . S
C975 C974 1.398 . S
C975 C976 1.352 . S
C976 C975 1.352 . S
C976 C977 1.384 . S
C976 H998 0.930 . S
C977 C972 1.407 . S
C977 C976 1.384 . S
C977 H999 0.929 . S
C978 O988 1.241 . S
C978 O989 1.273 1_545 S
C979 O990 1.251 . S
C979 O991 1.268 1_545 S
O980 Nd960 2.500 . S
O980 C962 1.258 . S
O981 Nd960 2.492 . S
O981 C962 1.239 . S
O982 Nd960 2.487 . S
O982 C969 1.241 . S
O983 Nd960 2.682 1_545 S
O983 Nd961 2.414 . S
O983 C969 1.273 1_545 S
O984 Nd960 2.410 . S
O984 C970 1.251 . S
O985 Nd961 2.424 . S
O985 C970 1.268 1_545 S
O986 Nd961 2.500 . S
O986 C971 1.258 . S
O987 Nd961 2.492 . S
O987 C971 1.239 . S
O988 Nd961 2.487 . S
O988 C978 1.241 . S
O989 Nd960 2.414 . S
O989 Nd961 2.682 1_565 S
O989 C978 1.273 1_565 S
O990 Nd961 2.410 . S
O990 C979 1.251 . S
O991 Nd960 2.424 . S
O991 C979 1.268 1_565 S
H992 C964 0.930 . S
H993 C965 0.929 . S
H994 C967 0.930 . S
H995 C968 0.929 . S
H996 C973 0.930 . S
H997 C974 0.929 . S
H998 C976 0.930 . S
H999 C977 0.929 . S
Nd1000 C1002 2.836 . S
Nd1000 O1020 2.500 . S
Nd1000 O1021 2.492 . S
Nd1000 O1022 2.487 . S
Nd1000 O1023 2.682 . S
Nd1000 O1024 2.410 . S
Nd1000 O1029 2.414 . S
Nd1000 O1031 2.424 . S
Nd1001 C1011 2.836 . S
Nd1001 O1023 2.414 . S
Nd1001 O1025 2.424 . S
Nd1001 O1026 2.500 . S
Nd1001 O1027 2.492 . S
Nd1001 O1028 2.487 . S
Nd1001 O1029 2.682 . S
Nd1001 O1030 2.410 . S
C1002 Nd1000 2.836 . S
C1002 C1003 1.498 . S
C1002 O1020 1.258 . S
C1002 O1021 1.239 . S
C1003 C1002 1.498 . S
C1003 C1004 1.366 . S
C1003 C1008 1.407 . S
C1004 C1003 1.366 . S
C1004 C1005 1.392 . S
C1004 H1032 0.930 . S
C1005 C1004 1.392 . S
C1005 C1006 1.398 . S
C1005 H1033 0.929 . S
C1006 C1005 1.398 . S
C1006 C1007 1.352 . S
C1007 C1006 1.352 . S
C1007 C1008 1.384 . S
C1007 H1034 0.930 . S
C1008 C1003 1.407 . S
C1008 C1007 1.384 . S
C1008 H1035 0.929 . S
C1009 O1022 1.241 . S
C1009 O1023 1.273 . S
C1010 O1024 1.251 . S
C1010 O1025 1.268 . S
C1011 Nd1001 2.836 . S
C1011 C1012 1.498 . S
C1011 O1026 1.258 . S
C1011 O1027 1.239 . S
C1012 C1011 1.498 . S
C1012 C1013 1.366 . S
C1012 C1017 1.407 . S
C1013 C1012 1.366 . S
C1013 C1014 1.392 . S
C1013 H1036 0.930 . S
C1014 C1013 1.392 . S
C1014 C1015 1.398 . S
C1014 H1037 0.929 . S
C1015 C1014 1.398 . S
C1015 C1016 1.352 . S
C1016 C1015 1.352 . S
C1016 C1017 1.384 . S
C1016 H1038 0.930 . S
C1017 C1012 1.407 . S
C1017 C1016 1.384 . S
C1017 H1039 0.929 . S
C1018 O1028 1.241 . S
C1018 O1029 1.273 . S
C1019 O1030 1.251 . S
C1019 O1031 1.268 . S
O1020 Nd1000 2.500 . S
O1020 C1002 1.258 . S
O1021 Nd1000 2.492 . S
O1021 C1002 1.239 . S
O1022 Nd1000 2.487 . S
O1022 C1009 1.241 . S
O1023 Nd1000 2.682 . S
O1023 Nd1001 2.414 . S
O1023 C1009 1.273 . S
O1024 Nd1000 2.410 . S
O1024 C1010 1.251 . S
O1025 Nd1001 2.424 . S
O1025 C1010 1.268 . S
O1026 Nd1001 2.500 . S
O1026 C1011 1.258 . S
O1027 Nd1001 2.492 . S
O1027 C1011 1.239 . S
O1028 Nd1001 2.487 . S
O1028 C1018 1.241 . S
O1029 Nd1000 2.414 . S
O1029 Nd1001 2.682 . S
O1029 C1018 1.273 . S
O1030 Nd1001 2.410 . S
O1030 C1019 1.251 . S
O1031 Nd1000 2.424 . S
O1031 C1019 1.268 . S
H1032 C1004 0.930 . S
H1033 C1005 0.929 . S
H1034 C1007 0.930 . S
H1035 C1008 0.929 . S
H1036 C1013 0.930 . S
H1037 C1014 0.929 . S
H1038 C1016 0.930 . S
H1039 C1017 0.929 . S
Nd1040 C1042 2.836 . S
Nd1040 O1060 2.500 . S
Nd1040 O1061 2.492 . S
Nd1040 O1062 2.487 . S
Nd1040 O1063 2.682 . S
Nd1040 O1064 2.410 . S
Nd1040 O1069 2.414 . S
Nd1040 O1071 2.424 . S
Nd1041 C1051 2.836 . S
Nd1041 O1063 2.414 . S
Nd1041 O1065 2.424 . S
Nd1041 O1066 2.500 . S
Nd1041 O1067 2.492 . S
Nd1041 O1068 2.487 . S
Nd1041 O1069 2.682 . S
Nd1041 O1070 2.410 . S
C1042 Nd1040 2.836 . S
C1042 C1043 1.498 . S
C1042 O1060 1.258 . S
C1042 O1061 1.239 . S
C1043 C1042 1.498 . S
C1043 C1044 1.366 . S
C1043 C1048 1.407 . S
C1044 C1043 1.366 . S
C1044 C1045 1.392 . S
C1044 H1072 0.930 . S
C1045 C1044 1.392 . S
C1045 C1046 1.398 . S
C1045 H1073 0.929 . S
C1046 C1045 1.398 . S
C1046 C1047 1.352 . S
C1047 C1046 1.352 . S
C1047 C1048 1.384 . S
C1047 H1074 0.930 . S
C1048 C1043 1.407 . S
C1048 C1047 1.384 . S
C1048 H1075 0.929 . S
C1049 O1062 1.241 . S
C1049 O1063 1.273 . S
C1050 O1064 1.251 . S
C1050 O1065 1.268 . S
C1051 Nd1041 2.836 . S
C1051 C1052 1.498 . S
C1051 O1066 1.258 . S
C1051 O1067 1.239 . S
C1052 C1051 1.498 . S
C1052 C1053 1.366 . S
C1052 C1057 1.407 . S
C1053 C1052 1.366 . S
C1053 C1054 1.392 . S
C1053 H1076 0.930 . S
C1054 C1053 1.392 . S
C1054 C1055 1.398 . S
C1054 H1077 0.929 . S
C1055 C1054 1.398 . S
C1055 C1056 1.352 . S
C1056 C1055 1.352 . S
C1056 C1057 1.384 . S
C1056 H1078 0.930 . S
C1057 C1052 1.407 . S
C1057 C1056 1.384 . S
C1057 H1079 0.929 . S
C1058 O1068 1.241 . S
C1058 O1069 1.273 . S
C1059 O1070 1.251 . S
C1059 O1071 1.268 . S
O1060 Nd1040 2.500 . S
O1060 C1042 1.258 . S
O1061 Nd1040 2.492 . S
O1061 C1042 1.239 . S
O1062 Nd1040 2.487 . S
O1062 C1049 1.241 . S
O1063 Nd1040 2.682 . S
O1063 Nd1041 2.414 . S
O1063 C1049 1.273 . S
O1064 Nd1040 2.410 . S
O1064 C1050 1.251 . S
O1065 Nd1041 2.424 . S
O1065 C1050 1.268 . S
O1066 Nd1041 2.500 . S
O1066 C1051 1.258 . S
O1067 Nd1041 2.492 . S
O1067 C1051 1.239 . S
O1068 Nd1041 2.487 . S
O1068 C1058 1.241 . S
O1069 Nd1040 2.414 . S
O1069 Nd1041 2.682 . S
O1069 C1058 1.273 . S
O1070 Nd1041 2.410 . S
O1070 C1059 1.251 . S
O1071 Nd1040 2.424 . S
O1071 C1059 1.268 . S
H1072 C1044 0.930 . S
H1073 C1045 0.929 . S
H1074 C1047 0.930 . S
H1075 C1048 0.929 . S
H1076 C1053 0.930 . S
H1077 C1054 0.929 . S
H1078 C1056 0.930 . S
H1079 C1057 0.929 . S
Nd1080 C1082 2.836 . S
Nd1080 O1100 2.500 . S
Nd1080 O1101 2.492 . S
Nd1080 O1102 2.487 . S
Nd1080 O1103 2.682 1_565 S
Nd1080 O1104 2.410 . S
Nd1080 O1109 2.414 . S
Nd1080 O1111 2.424 . S
Nd1081 C1091 2.836 . S
Nd1081 O1103 2.414 . S
Nd1081 O1105 2.424 . S
Nd1081 O1106 2.500 . S
Nd1081 O1107 2.492 . S
Nd1081 O1108 2.487 . S
Nd1081 O1109 2.682 1_545 S
Nd1081 O1110 2.410 . S
C1082 Nd1080 2.836 . S
C1082 C1083 1.498 . S
C1082 O1100 1.258 . S
C1082 O1101 1.239 . S
C1083 C1082 1.498 . S
C1083 C1084 1.366 . S
C1083 C1088 1.407 . S
C1084 C1083 1.366 . S
C1084 C1085 1.392 . S
C1084 H1112 0.930 . S
C1085 C1084 1.392 . S
C1085 C1086 1.398 . S
C1085 H1113 0.929 . S
C1086 C1085 1.398 . S
C1086 C1087 1.352 . S
C1087 C1086 1.352 . S
C1087 C1088 1.384 . S
C1087 H1114 0.930 . S
C1088 C1083 1.407 . S
C1088 C1087 1.384 . S
C1088 H1115 0.929 . S
C1089 O1102 1.241 . S
C1089 O1103 1.273 1_565 S
C1090 O1104 1.251 . S
C1090 O1105 1.268 1_565 S
C1091 Nd1081 2.836 . S
C1091 C1092 1.498 . S
C1091 O1106 1.258 . S
C1091 O1107 1.239 . S
C1092 C1091 1.498 . S
C1092 C1093 1.366 . S
C1092 C1097 1.407 . S
C1093 C1092 1.366 . S
C1093 C1094 1.392 . S
C1093 H1116 0.930 . S
C1094 C1093 1.392 . S
C1094 C1095 1.398 . S
C1094 H1117 0.929 . S
C1095 C1094 1.398 . S
C1095 C1096 1.352 . S
C1096 C1095 1.352 . S
C1096 C1097 1.384 . S
C1096 H1118 0.930 . S
C1097 C1092 1.407 . S
C1097 C1096 1.384 . S
C1097 H1119 0.929 . S
C1098 O1108 1.241 . S
C1098 O1109 1.273 1_545 S
C1099 O1110 1.251 . S
C1099 O1111 1.268 1_545 S
O1100 Nd1080 2.500 . S
O1100 C1082 1.258 . S
O1101 Nd1080 2.492 . S
O1101 C1082 1.239 . S
O1102 Nd1080 2.487 . S
O1102 C1089 1.241 . S
O1103 Nd1080 2.682 1_545 S
O1103 Nd1081 2.414 . S
O1103 C1089 1.273 1_545 S
O1104 Nd1080 2.410 . S
O1104 C1090 1.251 . S
O1105 Nd1081 2.424 . S
O1105 C1090 1.268 1_545 S
O1106 Nd1081 2.500 . S
O1106 C1091 1.258 . S
O1107 Nd1081 2.492 . S
O1107 C1091 1.239 . S
O1108 Nd1081 2.487 . S
O1108 C1098 1.241 . S
O1109 Nd1080 2.414 . S
O1109 Nd1081 2.682 1_565 S
O1109 C1098 1.273 1_565 S
O1110 Nd1081 2.410 . S
O1110 C1099 1.251 . S
O1111 Nd1080 2.424 . S
O1111 C1099 1.268 1_565 S
H1112 C1084 0.930 . S
H1113 C1085 0.929 . S
H1114 C1087 0.930 . S
H1115 C1088 0.929 . S
H1116 C1093 0.930 . S
H1117 C1094 0.929 . S
H1118 C1096 0.930 . S
H1119 C1097 0.929 . S
Nd1120 C1122 2.836 . S
Nd1120 O1140 2.500 . S
Nd1120 O1141 2.492 . S
Nd1120 O1142 2.487 . S
Nd1120 O1143 2.682 1_565 S
Nd1120 O1144 2.410 . S
Nd1120 O1149 2.414 . S
Nd1120 O1151 2.424 . S
Nd1121 C1131 2.836 . S
Nd1121 O1143 2.414 . S
Nd1121 O1145 2.424 . S
Nd1121 O1146 2.500 . S
Nd1121 O1147 2.492 . S
Nd1121 O1148 2.487 . S
Nd1121 O1149 2.682 1_545 S
Nd1121 O1150 2.410 . S
C1122 Nd1120 2.836 . S
C1122 C1123 1.498 . S
C1122 O1140 1.258 . S
C1122 O1141 1.239 . S
C1123 C1122 1.498 . S
C1123 C1124 1.366 . S
C1123 C1128 1.407 . S
C1124 C1123 1.366 . S
C1124 C1125 1.392 . S
C1124 H1152 0.930 . S
C1125 C1124 1.392 . S
C1125 C1126 1.398 . S
C1125 H1153 0.929 . S
C1126 C1125 1.398 . S
C1126 C1127 1.352 . S
C1127 C1126 1.352 . S
C1127 C1128 1.384 . S
C1127 H1154 0.930 . S
C1128 C1123 1.407 . S
C1128 C1127 1.384 . S
C1128 H1155 0.929 . S
C1129 O1142 1.241 . S
C1129 O1143 1.273 1_565 S
C1130 O1144 1.251 . S
C1130 O1145 1.268 1_565 S
C1131 Nd1121 2.836 . S
C1131 C1132 1.498 . S
C1131 O1146 1.258 . S
C1131 O1147 1.239 . S
C1132 C1131 1.498 . S
C1132 C1133 1.366 . S
C1132 C1137 1.407 . S
C1133 C1132 1.366 . S
C1133 C1134 1.392 . S
C1133 H1156 0.930 . S
C1134 C1133 1.392 . S
C1134 C1135 1.398 . S
C1134 H1157 0.929 . S
C1135 C1134 1.398 . S
C1135 C1136 1.352 . S
C1136 C1135 1.352 . S
C1136 C1137 1.384 . S
C1136 H1158 0.930 . S
C1137 C1132 1.407 . S
C1137 C1136 1.384 . S
C1137 H1159 0.929 . S
C1138 O1148 1.241 . S
C1138 O1149 1.273 1_545 S
C1139 O1150 1.251 . S
C1139 O1151 1.268 1_545 S
O1140 Nd1120 2.500 . S
O1140 C1122 1.258 . S
O1141 Nd1120 2.492 . S
O1141 C1122 1.239 . S
O1142 Nd1120 2.487 . S
O1142 C1129 1.241 . S
O1143 Nd1120 2.682 1_545 S
O1143 Nd1121 2.414 . S
O1143 C1129 1.273 1_545 S
O1144 Nd1120 2.410 . S
O1144 C1130 1.251 . S
O1145 Nd1121 2.424 . S
O1145 C1130 1.268 1_545 S
O1146 Nd1121 2.500 . S
O1146 C1131 1.258 . S
O1147 Nd1121 2.492 . S
O1147 C1131 1.239 . S
O1148 Nd1121 2.487 . S
O1148 C1138 1.241 . S
O1149 Nd1120 2.414 . S
O1149 Nd1121 2.682 1_565 S
O1149 C1138 1.273 1_565 S
O1150 Nd1121 2.410 . S
O1150 C1139 1.251 . S
O1151 Nd1120 2.424 . S
O1151 C1139 1.268 1_565 S
H1152 C1124 0.930 . S
H1153 C1125 0.929 . S
H1154 C1127 0.930 . S
H1155 C1128 0.929 . S
H1156 C1133 0.930 . S
H1157 C1134 0.929 . S
H1158 C1136 0.930 . S
H1159 C1137 0.929 . S
Nd1160 C1162 2.836 . S
Nd1160 O1180 2.500 . S
Nd1160 O1181 2.492 . S
Nd1160 O1182 2.487 . S
Nd1160 O1183 2.682 . S
Nd1160 O1184 2.410 . S
Nd1160 O1189 2.414 . S
Nd1160 O1191 2.424 . S
Nd1161 C1171 2.836 . S
Nd1161 O1183 2.414 . S
Nd1161 O1185 2.424 . S
Nd1161 O1186 2.500 . S
Nd1161 O1187 2.492 . S
Nd1161 O1188 2.487 . S
Nd1161 O1189 2.682 . S
Nd1161 O1190 2.410 . S
C1162 Nd1160 2.836 . S
C1162 C1163 1.498 . S
C1162 O1180 1.258 . S
C1162 O1181 1.239 . S
C1163 C1162 1.498 . S
C1163 C1164 1.366 . S
C1163 C1168 1.407 . S
C1164 C1163 1.366 . S
C1164 C1165 1.392 . S
C1164 H1192 0.930 . S
C1165 C1164 1.392 . S
C1165 C1166 1.398 . S
C1165 H1193 0.929 . S
C1166 C1165 1.398 . S
C1166 C1167 1.352 . S
C1167 C1166 1.352 . S
C1167 C1168 1.384 . S
C1167 H1194 0.930 . S
C1168 C1163 1.407 . S
C1168 C1167 1.384 . S
C1168 H1195 0.929 . S
C1169 O1182 1.241 . S
C1169 O1183 1.273 . S
C1170 O1184 1.251 . S
C1170 O1185 1.268 . S
C1171 Nd1161 2.836 . S
C1171 C1172 1.498 . S
C1171 O1186 1.258 . S
C1171 O1187 1.239 . S
C1172 C1171 1.498 . S
C1172 C1173 1.366 . S
C1172 C1177 1.407 . S
C1173 C1172 1.366 . S
C1173 C1174 1.392 . S
C1173 H1196 0.930 . S
C1174 C1173 1.392 . S
C1174 C1175 1.398 . S
C1174 H1197 0.929 . S
C1175 C1174 1.398 . S
C1175 C1176 1.352 . S
C1176 C1175 1.352 . S
C1176 C1177 1.384 . S
C1176 H1198 0.930 . S
C1177 C1172 1.407 . S
C1177 C1176 1.384 . S
C1177 H1199 0.929 . S
C1178 O1188 1.241 . S
C1178 O1189 1.273 . S
C1179 O1190 1.251 . S
C1179 O1191 1.268 . S
O1180 Nd1160 2.500 . S
O1180 C1162 1.258 . S
O1181 Nd1160 2.492 . S
O1181 C1162 1.239 . S
O1182 Nd1160 2.487 . S
O1182 C1169 1.241 . S
O1183 Nd1160 2.682 . S
O1183 Nd1161 2.414 . S
O1183 C1169 1.273 . S
O1184 Nd1160 2.410 . S
O1184 C1170 1.251 . S
O1185 Nd1161 2.424 . S
O1185 C1170 1.268 . S
O1186 Nd1161 2.500 . S
O1186 C1171 1.258 . S
O1187 Nd1161 2.492 . S
O1187 C1171 1.239 . S
O1188 Nd1161 2.487 . S
O1188 C1178 1.241 . S
O1189 Nd1160 2.414 . S
O1189 Nd1161 2.682 . S
O1189 C1178 1.273 . S
O1190 Nd1161 2.410 . S
O1190 C1179 1.251 . S
O1191 Nd1160 2.424 . S
O1191 C1179 1.268 . S
H1192 C1164 0.930 . S
H1193 C1165 0.929 . S
H1194 C1167 0.930 . S
H1195 C1168 0.929 . S
H1196 C1173 0.930 . S
H1197 C1174 0.929 . S
H1198 C1176 0.930 . S
H1199 C1177 0.929 . S
Nd1200 C1202 2.836 . S
Nd1200 O1220 2.500 . S
Nd1200 O1221 2.492 . S
Nd1200 O1222 2.487 . S
Nd1200 O1223 2.682 . S
Nd1200 O1224 2.410 . S
Nd1200 O1229 2.414 . S
Nd1200 O1231 2.424 . S
Nd1201 C1211 2.836 . S
Nd1201 O1223 2.414 . S
Nd1201 O1225 2.424 . S
Nd1201 O1226 2.500 . S
Nd1201 O1227 2.492 . S
Nd1201 O1228 2.487 . S
Nd1201 O1229 2.682 . S
Nd1201 O1230 2.410 . S
C1202 Nd1200 2.836 . S
C1202 C1203 1.498 . S
C1202 O1220 1.258 . S
C1202 O1221 1.239 . S
C1203 C1202 1.498 . S
C1203 C1204 1.366 . S
C1203 C1208 1.407 . S
C1204 C1203 1.366 . S
C1204 C1205 1.392 . S
C1204 H1232 0.930 . S
C1205 C1204 1.392 . S
C1205 C1206 1.398 . S
C1205 H1233 0.929 . S
C1206 C1205 1.398 . S
C1206 C1207 1.352 . S
C1207 C1206 1.352 . S
C1207 C1208 1.384 . S
C1207 H1234 0.930 . S
C1208 C1203 1.407 . S
C1208 C1207 1.384 . S
C1208 H1235 0.929 . S
C1209 O1222 1.241 . S
C1209 O1223 1.273 . S
C1210 O1224 1.251 . S
C1210 O1225 1.268 . S
C1211 Nd1201 2.836 . S
C1211 C1212 1.498 . S
C1211 O1226 1.258 . S
C1211 O1227 1.239 . S
C1212 C1211 1.498 . S
C1212 C1213 1.366 . S
C1212 C1217 1.407 . S
C1213 C1212 1.366 . S
C1213 C1214 1.392 . S
C1213 H1236 0.930 . S
C1214 C1213 1.392 . S
C1214 C1215 1.398 . S
C1214 H1237 0.929 . S
C1215 C1214 1.398 . S
C1215 C1216 1.352 . S
C1216 C1215 1.352 . S
C1216 C1217 1.384 . S
C1216 H1238 0.930 . S
C1217 C1212 1.407 . S
C1217 C1216 1.384 . S
C1217 H1239 0.929 . S
C1218 O1228 1.241 . S
C1218 O1229 1.273 . S
C1219 O1230 1.251 . S
C1219 O1231 1.268 . S
O1220 Nd1200 2.500 . S
O1220 C1202 1.258 . S
O1221 Nd1200 2.492 . S
O1221 C1202 1.239 . S
O1222 Nd1200 2.487 . S
O1222 C1209 1.241 . S
O1223 Nd1200 2.682 . S
O1223 Nd1201 2.414 . S
O1223 C1209 1.273 . S
O1224 Nd1200 2.410 . S
O1224 C1210 1.251 . S
O1225 Nd1201 2.424 . S
O1225 C1210 1.268 . S
O1226 Nd1201 2.500 . S
O1226 C1211 1.258 . S
O1227 Nd1201 2.492 . S
O1227 C1211 1.239 . S
O1228 Nd1201 2.487 . S
O1228 C1218 1.241 . S
O1229 Nd1200 2.414 . S
O1229 Nd1201 2.682 . S
O1229 C1218 1.273 . S
O1230 Nd1201 2.410 . S
O1230 C1219 1.251 . S
O1231 Nd1200 2.424 . S
O1231 C1219 1.268 . S
H1232 C1204 0.930 . S
H1233 C1205 0.929 . S
H1234 C1207 0.930 . S
H1235 C1208 0.929 . S
H1236 C1213 0.930 . S
H1237 C1214 0.929 . S
H1238 C1216 0.930 . S
H1239 C1217 0.929 . S
Nd1240 C1242 2.836 . S
Nd1240 O1260 2.500 . S
Nd1240 O1261 2.492 . S
Nd1240 O1262 2.487 . S
Nd1240 O1263 2.682 1_565 S
Nd1240 O1264 2.410 . S
Nd1240 O1269 2.414 . S
Nd1240 O1271 2.424 . S
Nd1241 C1251 2.836 . S
Nd1241 O1263 2.414 . S
Nd1241 O1265 2.424 . S
Nd1241 O1266 2.500 . S
Nd1241 O1267 2.492 . S
Nd1241 O1268 2.487 . S
Nd1241 O1269 2.682 1_545 S
Nd1241 O1270 2.410 . S
C1242 Nd1240 2.836 . S
C1242 C1243 1.498 . S
C1242 O1260 1.258 . S
C1242 O1261 1.239 . S
C1243 C1242 1.498 . S
C1243 C1244 1.366 . S
C1243 C1248 1.407 . S
C1244 C1243 1.366 . S
C1244 C1245 1.392 . S
C1244 H1272 0.930 . S
C1245 C1244 1.392 . S
C1245 C1246 1.398 . S
C1245 H1273 0.929 . S
C1246 C1245 1.398 . S
C1246 C1247 1.352 . S
C1247 C1246 1.352 . S
C1247 C1248 1.384 . S
C1247 H1274 0.930 . S
C1248 C1243 1.407 . S
C1248 C1247 1.384 . S
C1248 H1275 0.929 . S
C1249 O1262 1.241 . S
C1249 O1263 1.273 1_565 S
C1250 O1264 1.251 . S
C1250 O1265 1.268 1_565 S
C1251 Nd1241 2.836 . S
C1251 C1252 1.498 . S
C1251 O1266 1.258 . S
C1251 O1267 1.239 . S
C1252 C1251 1.498 . S
C1252 C1253 1.366 . S
C1252 C1257 1.407 . S
C1253 C1252 1.366 . S
C1253 C1254 1.392 . S
C1253 H1276 0.930 . S
C1254 C1253 1.392 . S
C1254 C1255 1.398 . S
C1254 H1277 0.929 . S
C1255 C1254 1.398 . S
C1255 C1256 1.352 . S
C1256 C1255 1.352 . S
C1256 C1257 1.384 . S
C1256 H1278 0.930 . S
C1257 C1252 1.407 . S
C1257 C1256 1.384 . S
C1257 H1279 0.929 . S
C1258 O1268 1.241 . S
C1258 O1269 1.273 1_545 S
C1259 O1270 1.251 . S
C1259 O1271 1.268 1_545 S
O1260 Nd1240 2.500 . S
O1260 C1242 1.258 . S
O1261 Nd1240 2.492 . S
O1261 C1242 1.239 . S
O1262 Nd1240 2.487 . S
O1262 C1249 1.241 . S
O1263 Nd1240 2.682 1_545 S
O1263 Nd1241 2.414 . S
O1263 C1249 1.273 1_545 S
O1264 Nd1240 2.410 . S
O1264 C1250 1.251 . S
O1265 Nd1241 2.424 . S
O1265 C1250 1.268 1_545 S
O1266 Nd1241 2.500 . S
O1266 C1251 1.258 . S
O1267 Nd1241 2.492 . S
O1267 C1251 1.239 . S
O1268 Nd1241 2.487 . S
O1268 C1258 1.241 . S
O1269 Nd1240 2.414 . S
O1269 Nd1241 2.682 1_565 S
O1269 C1258 1.273 1_565 S
O1270 Nd1241 2.410 . S
O1270 C1259 1.251 . S
O1271 Nd1240 2.424 . S
O1271 C1259 1.268 1_565 S
H1272 C1244 0.930 . S
H1273 C1245 0.929 . S
H1274 C1247 0.930 . S
H1275 C1248 0.929 . S
H1276 C1253 0.930 . S
H1277 C1254 0.929 . S
H1278 C1256 0.930 . S
H1279 C1257 0.929 . S
C1280 C1281 1.349 . S
C1280 C1282 1.327 . S
C1280 H1305 0.950 . S
C1281 C1280 1.349 . S
C1281 C1297 1.349 . S
C1282 C1280 1.327 . S
C1282 C1301 1.429 . S
C1282 H1306 0.950 . S
C1283 C1300 1.574 . S
C1283 C1302 1.368 . S
C1283 H1307 0.949 . S
H1284 C1288 0.949 . S
C1285 C1286 1.349 . S
C1285 C1287 1.327 . S
C1285 H1308 0.950 . S
C1286 C1285 1.349 . S
C1286 C1298 1.349 . S
C1287 C1285 1.327 . S
C1287 C1303 1.429 . S
C1287 H1309 0.950 . S
C1288 H1284 0.949 . S
C1288 C1296 1.574 . S
C1288 C1304 1.368 . S
H1289 C1297 0.950 . S
H1290 C1295 0.950 . S
H1291 C1296 0.949 . S
H1292 C1298 0.950 . S
H1293 C1299 0.950 . S
H1294 C1300 0.949 . S
C1295 H1290 0.950 . S
C1295 C1297 1.327 . S
C1295 C1301 1.429 . S
C1296 C1288 1.574 . S
C1296 H1291 0.949 . S
C1296 C1302 1.368 . S
C1297 C1281 1.349 . S
C1297 H1289 0.950 . S
C1297 C1295 1.327 . S
C1298 C1286 1.349 . S
C1298 H1292 0.950 . S
C1298 C1299 1.327 . S
C1299 H1293 0.950 . S
C1299 C1298 1.327 . S
C1299 C1303 1.429 . S
C1300 C1283 1.574 . S
C1300 H1294 0.949 . S
C1300 C1304 1.368 . S
C1301 C1282 1.429 . S
C1301 C1295 1.429 . S
C1301 C1302 1.523 . S
C1302 C1283 1.368 . S
C1302 C1296 1.368 . S
C1302 C1301 1.523 . S
C1303 C1287 1.429 . S
C1303 C1299 1.429 . S
C1303 C1304 1.523 . S
C1304 C1288 1.368 . S
C1304 C1300 1.368 . S
C1304 C1303 1.523 . S
H1305 C1280 0.950 . S
H1306 C1282 0.950 . S
H1307 C1283 0.949 . S
H1308 C1285 0.950 . S
H1309 C1287 0.950 . S
C1310 C1311 1.349 . S
C1310 C1312 1.327 . S
C1310 H1335 0.950 . S
C1311 C1310 1.349 . S
C1311 C1327 1.349 . S
C1312 C1310 1.327 . S
C1312 C1331 1.429 . S
C1312 H1336 0.950 . S
C1313 C1330 1.574 . S
C1313 C1332 1.368 . S
C1313 H1337 0.949 . S
H1314 C1318 0.949 . S
C1315 C1316 1.349 . S
C1315 C1317 1.327 . S
C1315 H1338 0.950 . S
C1316 C1315 1.349 . S
C1316 C1328 1.349 . S
C1317 C1315 1.327 . S
C1317 C1333 1.429 . S
C1317 H1339 0.950 . S
C1318 H1314 0.949 . S
C1318 C1326 1.574 . S
C1318 C1334 1.368 . S
H1319 C1327 0.950 . S
H1320 C1325 0.950 . S
H1321 C1326 0.949 . S
H1322 C1328 0.950 . S
H1323 C1329 0.950 . S
H1324 C1330 0.949 . S
C1325 H1320 0.950 . S
C1325 C1327 1.327 . S
C1325 C1331 1.429 . S
C1326 C1318 1.574 . S
C1326 H1321 0.949 . S
C1326 C1332 1.368 . S
C1327 C1311 1.349 . S
C1327 H1319 0.950 . S
C1327 C1325 1.327 . S
C1328 C1316 1.349 . S
C1328 H1322 0.950 . S
C1328 C1329 1.327 . S
C1329 H1323 0.950 . S
C1329 C1328 1.327 . S
C1329 C1333 1.429 . S
C1330 C1313 1.574 . S
C1330 H1324 0.949 . S
C1330 C1334 1.368 . S
C1331 C1312 1.429 . S
C1331 C1325 1.429 . S
C1331 C1332 1.523 . S
C1332 C1313 1.368 . S
C1332 C1326 1.368 . S
C1332 C1331 1.523 . S
C1333 C1317 1.429 . S
C1333 C1329 1.429 . S
C1333 C1334 1.523 . S
C1334 C1318 1.368 . S
C1334 C1330 1.368 . S
C1334 C1333 1.523 . S
H1335 C1310 0.950 . S
H1336 C1312 0.950 . S
H1337 C1313 0.949 . S
H1338 C1315 0.950 . S
H1339 C1317 0.950 . S
C1340 C1341 1.349 . S
C1340 C1342 1.327 . S
C1340 H1365 0.950 . S
C1341 C1340 1.349 . S
C1341 C1357 1.349 . S
C1342 C1340 1.327 . S
C1342 C1361 1.429 . S
C1342 H1366 0.950 . S
C1343 C1360 1.574 . S
C1343 C1362 1.368 . S
C1343 H1367 0.949 . S
H1344 C1348 0.949 . S
C1345 C1346 1.349 . S
C1345 C1347 1.327 . S
C1345 H1368 0.950 . S
C1346 C1345 1.349 . S
C1346 C1358 1.349 . S
C1347 C1345 1.327 . S
C1347 C1363 1.429 . S
C1347 H1369 0.950 . S
C1348 H1344 0.949 . S
C1348 C1356 1.574 . S
C1348 C1364 1.368 . S
H1349 C1357 0.950 . S
H1350 C1355 0.950 . S
H1351 C1356 0.949 . S
H1352 C1358 0.950 . S
H1353 C1359 0.950 . S
H1354 C1360 0.949 . S
C1355 H1350 0.950 . S
C1355 C1357 1.327 . S
C1355 C1361 1.429 . S
C1356 C1348 1.574 . S
C1356 H1351 0.949 . S
C1356 C1362 1.368 . S
C1357 C1341 1.349 . S
C1357 H1349 0.950 . S
C1357 C1355 1.327 . S
C1358 C1346 1.349 . S
C1358 H1352 0.950 . S
C1358 C1359 1.327 . S
C1359 H1353 0.950 . S
C1359 C1358 1.327 . S
C1359 C1363 1.429 . S
C1360 C1343 1.574 . S
C1360 H1354 0.949 . S
C1360 C1364 1.368 . S
C1361 C1342 1.429 . S
C1361 C1355 1.429 . S
C1361 C1362 1.523 . S
C1362 C1343 1.368 . S
C1362 C1356 1.368 . S
C1362 C1361 1.523 . S
C1363 C1347 1.429 . S
C1363 C1359 1.429 . S
C1363 C1364 1.523 . S
C1364 C1348 1.368 . S
C1364 C1360 1.368 . S
C1364 C1363 1.523 . S
H1365 C1340 0.950 . S
H1366 C1342 0.950 . S
H1367 C1343 0.949 . S
H1368 C1345 0.950 . S
H1369 C1347 0.950 . S
C1370 C1371 1.349 . S
C1370 C1372 1.327 . S
C1370 H1395 0.950 . S
C1371 C1370 1.349 . S
C1371 C1387 1.349 . S
C1372 C1370 1.327 . S
C1372 C1391 1.429 . S
C1372 H1396 0.950 . S
C1373 C1390 1.574 . S
C1373 C1392 1.368 . S
C1373 H1397 0.949 . S
H1374 C1378 0.949 . S
C1375 C1376 1.349 . S
C1375 C1377 1.327 . S
C1375 H1398 0.950 . S
C1376 C1375 1.349 . S
C1376 C1388 1.349 . S
C1377 C1375 1.327 . S
C1377 C1393 1.429 . S
C1377 H1399 0.950 . S
C1378 H1374 0.949 . S
C1378 C1386 1.574 . S
C1378 C1394 1.368 . S
H1379 C1387 0.950 . S
H1380 C1385 0.950 . S
H1381 C1386 0.949 . S
H1382 C1388 0.950 . S
H1383 C1389 0.950 . S
H1384 C1390 0.949 . S
C1385 H1380 0.950 . S
C1385 C1387 1.327 . S
C1385 C1391 1.429 . S
C1386 C1378 1.574 . S
C1386 H1381 0.949 . S
C1386 C1392 1.368 . S
C1387 C1371 1.349 . S
C1387 H1379 0.950 . S
C1387 C1385 1.327 . S
C1388 C1376 1.349 . S
C1388 H1382 0.950 . S
C1388 C1389 1.327 . S
C1389 H1383 0.950 . S
C1389 C1388 1.327 . S
C1389 C1393 1.429 . S
C1390 C1373 1.574 . S
C1390 H1384 0.949 . S
C1390 C1394 1.368 . S
C1391 C1372 1.429 . S
C1391 C1385 1.429 . S
C1391 C1392 1.523 . S
C1392 C1373 1.368 . S
C1392 C1386 1.368 . S
C1392 C1391 1.523 . S
C1393 C1377 1.429 . S
C1393 C1389 1.429 . S
C1393 C1394 1.523 . S
C1394 C1378 1.368 . S
C1394 C1390 1.368 . S
C1394 C1393 1.523 . S
H1395 C1370 0.950 . S
H1396 C1372 0.950 . S
H1397 C1373 0.949 . S
H1398 C1375 0.950 . S
H1399 C1377 0.950 . S
C1400 C1401 1.349 . S
C1400 C1402 1.327 . S
C1400 H1425 0.950 . S
C1401 C1400 1.349 . S
C1401 C1417 1.349 . S
C1402 C1400 1.327 . S
C1402 C1421 1.429 . S
C1402 H1426 0.950 . S
C1403 C1420 1.574 . S
C1403 C1422 1.368 . S
C1403 H1427 0.949 . S
H1404 C1408 0.949 . S
C1405 C1406 1.349 . S
C1405 C1407 1.327 . S
C1405 H1428 0.950 . S
C1406 C1405 1.349 . S
C1406 C1418 1.349 . S
C1407 C1405 1.327 . S
C1407 C1423 1.429 . S
C1407 H1429 0.950 . S
C1408 H1404 0.949 . S
C1408 C1416 1.574 . S
C1408 C1424 1.368 . S
H1409 C1417 0.950 . S
H1410 C1415 0.950 . S
H1411 C1416 0.949 . S
H1412 C1418 0.950 . S
H1413 C1419 0.950 . S
H1414 C1420 0.949 . S
C1415 H1410 0.950 . S
C1415 C1417 1.327 . S
C1415 C1421 1.429 . S
C1416 C1408 1.574 . S
C1416 H1411 0.949 . S
C1416 C1422 1.368 . S
C1417 C1401 1.349 . S
C1417 H1409 0.950 . S
C1417 C1415 1.327 . S
C1418 C1406 1.349 . S
C1418 H1412 0.950 . S
C1418 C1419 1.327 . S
C1419 H1413 0.950 . S
C1419 C1418 1.327 . S
C1419 C1423 1.429 . S
C1420 C1403 1.574 . S
C1420 H1414 0.949 . S
C1420 C1424 1.368 . S
C1421 C1402 1.429 . S
C1421 C1415 1.429 . S
C1421 C1422 1.523 . S
C1422 C1403 1.368 . S
C1422 C1416 1.368 . S
C1422 C1421 1.523 . S
C1423 C1407 1.429 . S
C1423 C1419 1.429 . S
C1423 C1424 1.523 . S
C1424 C1408 1.368 . S
C1424 C1420 1.368 . S
C1424 C1423 1.523 . S
H1425 C1400 0.950 . S
H1426 C1402 0.950 . S
H1427 C1403 0.949 . S
H1428 C1405 0.950 . S
H1429 C1407 0.950 . S
C1430 C1431 1.349 . S
C1430 C1432 1.327 . S
C1430 H1455 0.950 . S
C1431 C1430 1.349 . S
C1431 C1447 1.349 . S
C1432 C1430 1.327 . S
C1432 C1451 1.429 . S
C1432 H1456 0.950 . S
C1433 C1450 1.574 . S
C1433 C1452 1.368 . S
C1433 H1457 0.949 . S
H1434 C1438 0.949 . S
C1435 C1436 1.349 . S
C1435 C1437 1.327 . S
C1435 H1458 0.950 . S
C1436 C1435 1.349 . S
C1436 C1448 1.349 . S
C1437 C1435 1.327 . S
C1437 C1453 1.429 . S
C1437 H1459 0.950 . S
C1438 H1434 0.949 . S
C1438 C1446 1.574 . S
C1438 C1454 1.368 . S
H1439 C1447 0.950 . S
H1440 C1445 0.950 . S
H1441 C1446 0.949 . S
H1442 C1448 0.950 . S
H1443 C1449 0.950 . S
H1444 C1450 0.949 . S
C1445 H1440 0.950 . S
C1445 C1447 1.327 . S
C1445 C1451 1.429 . S
C1446 C1438 1.574 . S
C1446 H1441 0.949 . S
C1446 C1452 1.368 . S
C1447 C1431 1.349 . S
C1447 H1439 0.950 . S
C1447 C1445 1.327 . S
C1448 C1436 1.349 . S
C1448 H1442 0.950 . S
C1448 C1449 1.327 . S
C1449 H1443 0.950 . S
C1449 C1448 1.327 . S
C1449 C1453 1.429 . S
C1450 C1433 1.574 . S
C1450 H1444 0.949 . S
C1450 C1454 1.368 . S
C1451 C1432 1.429 . S
C1451 C1445 1.429 . S
C1451 C1452 1.523 . S
C1452 C1433 1.368 . S
C1452 C1446 1.368 . S
C1452 C1451 1.523 . S
C1453 C1437 1.429 . S
C1453 C1449 1.429 . S
C1453 C1454 1.523 . S
C1454 C1438 1.368 . S
C1454 C1450 1.368 . S
C1454 C1453 1.523 . S
H1455 C1430 0.950 . S
H1456 C1432 0.950 . S
H1457 C1433 0.949 . S
H1458 C1435 0.950 . S
H1459 C1437 0.950 . S
C1460 C1461 1.349 . S
C1460 C1462 1.327 . S
C1460 H1485 0.950 . S
C1461 C1460 1.349 . S
C1461 C1477 1.349 . S
C1462 C1460 1.327 . S
C1462 C1481 1.429 . S
C1462 H1486 0.950 . S
C1463 C1480 1.574 . S
C1463 C1482 1.368 . S
C1463 H1487 0.949 . S
H1464 C1468 0.949 . S
C1465 C1466 1.349 . S
C1465 C1467 1.327 . S
C1465 H1488 0.950 . S
C1466 C1465 1.349 . S
C1466 C1478 1.349 . S
C1467 C1465 1.327 . S
C1467 C1483 1.429 . S
C1467 H1489 0.950 . S
C1468 H1464 0.949 . S
C1468 C1476 1.574 . S
C1468 C1484 1.368 . S
H1469 C1477 0.950 . S
H1470 C1475 0.950 . S
H1471 C1476 0.949 . S
H1472 C1478 0.950 . S
H1473 C1479 0.950 . S
H1474 C1480 0.949 . S
C1475 H1470 0.950 . S
C1475 C1477 1.327 . S
C1475 C1481 1.429 . S
C1476 C1468 1.574 . S
C1476 H1471 0.949 . S
C1476 C1482 1.368 . S
C1477 C1461 1.349 . S
C1477 H1469 0.950 . S
C1477 C1475 1.327 . S
C1478 C1466 1.349 . S
C1478 H1472 0.950 . S
C1478 C1479 1.327 . S
C1479 H1473 0.950 . S
C1479 C1478 1.327 . S
C1479 C1483 1.429 . S
C1480 C1463 1.574 . S
C1480 H1474 0.949 . S
C1480 C1484 1.368 . S
C1481 C1462 1.429 . S
C1481 C1475 1.429 . S
C1481 C1482 1.523 . S
C1482 C1463 1.368 . S
C1482 C1476 1.368 . S
C1482 C1481 1.523 . S
C1483 C1467 1.429 . S
C1483 C1479 1.429 . S
C1483 C1484 1.523 . S
C1484 C1468 1.368 . S
C1484 C1480 1.368 . S
C1484 C1483 1.523 . S
H1485 C1460 0.950 . S
H1486 C1462 0.950 . S
H1487 C1463 0.949 . S
H1488 C1465 0.950 . S
H1489 C1467 0.950 . S
C1490 C1491 1.349 . S
C1490 C1492 1.327 . S
C1490 H1515 0.950 . S
C1491 C1490 1.349 . S
C1491 C1507 1.349 . S
C1492 C1490 1.327 . S
C1492 C1511 1.429 . S
C1492 H1516 0.950 . S
C1493 C1510 1.574 . S
C1493 C1512 1.368 . S
C1493 H1517 0.949 . S
H1494 C1498 0.949 . S
C1495 C1496 1.349 . S
C1495 C1497 1.327 . S
C1495 H1518 0.950 . S
C1496 C1495 1.349 . S
C1496 C1508 1.349 . S
C1497 C1495 1.327 . S
C1497 C1513 1.429 . S
C1497 H1519 0.950 . S
C1498 H1494 0.949 . S
C1498 C1506 1.574 . S
C1498 C1514 1.368 . S
H1499 C1507 0.950 . S
H1500 C1505 0.950 . S
H1501 C1506 0.949 . S
H1502 C1508 0.950 . S
H1503 C1509 0.950 . S
H1504 C1510 0.949 . S
C1505 H1500 0.950 . S
C1505 C1507 1.327 . S
C1505 C1511 1.429 . S
C1506 C1498 1.574 . S
C1506 H1501 0.949 . S
C1506 C1512 1.368 . S
C1507 C1491 1.349 . S
C1507 H1499 0.950 . S
C1507 C1505 1.327 . S
C1508 C1496 1.349 . S
C1508 H1502 0.950 . S
C1508 C1509 1.327 . S
C1509 H1503 0.950 . S
C1509 C1508 1.327 . S
C1509 C1513 1.429 . S
C1510 C1493 1.574 . S
C1510 H1504 0.949 . S
C1510 C1514 1.368 . S
C1511 C1492 1.429 . S
C1511 C1505 1.429 . S
C1511 C1512 1.523 . S
C1512 C1493 1.368 . S
C1512 C1506 1.368 . S
C1512 C1511 1.523 . S
C1513 C1497 1.429 . S
C1513 C1509 1.429 . S
C1513 C1514 1.523 . S
C1514 C1498 1.368 . S
C1514 C1510 1.368 . S
C1514 C1513 1.523 . S
H1515 C1490 0.950 . S
H1516 C1492 0.950 . S
H1517 C1493 0.949 . S
H1518 C1495 0.950 . S
H1519 C1497 0.950 . S
C1520 C1521 1.349 . S
C1520 C1522 1.327 . S
C1520 H1545 0.950 . S
C1521 C1520 1.349 . S
C1521 C1537 1.349 . S
C1522 C1520 1.327 . S
C1522 C1541 1.429 . S
C1522 H1546 0.950 . S
C1523 C1540 1.574 . S
C1523 C1542 1.368 . S
C1523 H1547 0.949 . S
H1524 C1528 0.949 . S
C1525 C1526 1.349 . S
C1525 C1527 1.327 . S
C1525 H1548 0.950 . S
C1526 C1525 1.349 . S
C1526 C1538 1.349 . S
C1527 C1525 1.327 . S
C1527 C1543 1.429 . S
C1527 H1549 0.950 . S
C1528 H1524 0.949 . S
C1528 C1536 1.574 . S
C1528 C1544 1.368 . S
H1529 C1537 0.950 . S
H1530 C1535 0.950 . S
H1531 C1536 0.949 . S
H1532 C1538 0.950 . S
H1533 C1539 0.950 . S
H1534 C1540 0.949 . S
C1535 H1530 0.950 . S
C1535 C1537 1.327 . S
C1535 C1541 1.429 . S
C1536 C1528 1.574 . S
C1536 H1531 0.949 . S
C1536 C1542 1.368 . S
C1537 C1521 1.349 . S
C1537 H1529 0.950 . S
C1537 C1535 1.327 . S
C1538 C1526 1.349 . S
C1538 H1532 0.950 . S
C1538 C1539 1.327 . S
C1539 H1533 0.950 . S
C1539 C1538 1.327 . S
C1539 C1543 1.429 . S
C1540 C1523 1.574 . S
C1540 H1534 0.949 . S
C1540 C1544 1.368 . S
C1541 C1522 1.429 . S
C1541 C1535 1.429 . S
C1541 C1542 1.523 . S
C1542 C1523 1.368 . S
C1542 C1536 1.368 . S
C1542 C1541 1.523 . S
C1543 C1527 1.429 . S
C1543 C1539 1.429 . S
C1543 C1544 1.523 . S
C1544 C1528 1.368 . S
C1544 C1540 1.368 . S
C1544 C1543 1.523 . S
H1545 C1520 0.950 . S
H1546 C1522 0.950 . S
H1547 C1523 0.949 . S
H1548 C1525 0.950 . S
H1549 C1527 0.950 . S
C1550 C1551 1.349 . S
C1550 C1552 1.327 . S
C1550 H1575 0.950 . S
C1551 C1550 1.349 . S
C1551 C1567 1.349 . S
C1552 C1550 1.327 . S
C1552 C1571 1.429 . S
C1552 H1576 0.950 . S
C1553 C1570 1.574 . S
C1553 C1572 1.368 . S
C1553 H1577 0.949 . S
H1554 C1558 0.949 . S
C1555 C1556 1.349 . S
C1555 C1557 1.327 . S
C1555 H1578 0.950 . S
C1556 C1555 1.349 . S
C1556 C1568 1.349 . S
C1557 C1555 1.327 . S
C1557 C1573 1.429 . S
C1557 H1579 0.950 . S
C1558 H1554 0.949 . S
C1558 C1566 1.574 . S
C1558 C1574 1.368 . S
H1559 C1567 0.950 . S
H1560 C1565 0.950 . S
H1561 C1566 0.949 . S
H1562 C1568 0.950 . S
H1563 C1569 0.950 . S
H1564 C1570 0.949 . S
C1565 H1560 0.950 . S
C1565 C1567 1.327 . S
C1565 C1571 1.429 . S
C1566 C1558 1.574 . S
C1566 H1561 0.949 . S
C1566 C1572 1.368 . S
C1567 C1551 1.349 . S
C1567 H1559 0.950 . S
C1567 C1565 1.327 . S
C1568 C1556 1.349 . S
C1568 H1562 0.950 . S
C1568 C1569 1.327 . S
C1569 H1563 0.950 . S
C1569 C1568 1.327 . S
C1569 C1573 1.429 . S
C1570 C1553 1.574 . S
C1570 H1564 0.949 . S
C1570 C1574 1.368 . S
C1571 C1552 1.429 . S
C1571 C1565 1.429 . S
C1571 C1572 1.523 . S
C1572 C1553 1.368 . S
C1572 C1566 1.368 . S
C1572 C1571 1.523 . S
C1573 C1557 1.429 . S
C1573 C1569 1.429 . S
C1573 C1574 1.523 . S
C1574 C1558 1.368 . S
C1574 C1570 1.368 . S
C1574 C1573 1.523 . S
H1575 C1550 0.950 . S
H1576 C1552 0.950 . S
H1577 C1553 0.949 . S
H1578 C1555 0.950 . S
H1579 C1557 0.950 . S
C1580 C1581 1.349 . S
C1580 C1582 1.327 . S
C1580 H1605 0.950 . S
C1581 C1580 1.349 . S
C1581 C1597 1.349 . S
C1582 C1580 1.327 . S
C1582 C1601 1.429 . S
C1582 H1606 0.950 . S
C1583 C1600 1.574 . S
C1583 C1602 1.368 . S
C1583 H1607 0.949 . S
H1584 C1588 0.949 . S
C1585 C1586 1.349 . S
C1585 C1587 1.327 . S
C1585 H1608 0.950 . S
C1586 C1585 1.349 . S
C1586 C1598 1.349 . S
C1587 C1585 1.327 . S
C1587 C1603 1.429 . S
C1587 H1609 0.950 . S
C1588 H1584 0.949 . S
C1588 C1596 1.574 . S
C1588 C1604 1.368 . S
H1589 C1597 0.950 . S
H1590 C1595 0.950 . S
H1591 C1596 0.949 . S
H1592 C1598 0.950 . S
H1593 C1599 0.950 . S
H1594 C1600 0.949 . S
C1595 H1590 0.950 . S
C1595 C1597 1.327 . S
C1595 C1601 1.429 . S
C1596 C1588 1.574 . S
C1596 H1591 0.949 . S
C1596 C1602 1.368 . S
C1597 C1581 1.349 . S
C1597 H1589 0.950 . S
C1597 C1595 1.327 . S
C1598 C1586 1.349 . S
C1598 H1592 0.950 . S
C1598 C1599 1.327 . S
C1599 H1593 0.950 . S
C1599 C1598 1.327 . S
C1599 C1603 1.429 . S
C1600 C1583 1.574 . S
C1600 H1594 0.949 . S
C1600 C1604 1.368 . S
C1601 C1582 1.429 . S
C1601 C1595 1.429 . S
C1601 C1602 1.523 . S
C1602 C1583 1.368 . S
C1602 C1596 1.368 . S
C1602 C1601 1.523 . S
C1603 C1587 1.429 . S
C1603 C1599 1.429 . S
C1603 C1604 1.523 . S
C1604 C1588 1.368 . S
C1604 C1600 1.368 . S
C1604 C1603 1.523 . S
H1605 C1580 0.950 . S
H1606 C1582 0.950 . S
H1607 C1583 0.949 . S
H1608 C1585 0.950 . S
H1609 C1587 0.950 . S
C1610 C1611 1.349 . S
C1610 C1612 1.327 . S
C1610 H1635 0.950 . S
C1611 C1610 1.349 . S
C1611 C1627 1.349 . S
C1612 C1610 1.327 . S
C1612 C1631 1.429 . S
C1612 H1636 0.950 . S
C1613 C1630 1.574 . S
C1613 C1632 1.368 . S
C1613 H1637 0.949 . S
H1614 C1618 0.949 . S
C1615 C1616 1.349 . S
C1615 C1617 1.327 . S
C1615 H1638 0.950 . S
C1616 C1615 1.349 . S
C1616 C1628 1.349 . S
C1617 C1615 1.327 . S
C1617 C1633 1.429 . S
C1617 H1639 0.950 . S
C1618 H1614 0.949 . S
C1618 C1626 1.574 . S
C1618 C1634 1.368 . S
H1619 C1627 0.950 . S
H1620 C1625 0.950 . S
H1621 C1626 0.949 . S
H1622 C1628 0.950 . S
H1623 C1629 0.950 . S
H1624 C1630 0.949 . S
C1625 H1620 0.950 . S
C1625 C1627 1.327 . S
C1625 C1631 1.429 . S
C1626 C1618 1.574 . S
C1626 H1621 0.949 . S
C1626 C1632 1.368 . S
C1627 C1611 1.349 . S
C1627 H1619 0.950 . S
C1627 C1625 1.327 . S
C1628 C1616 1.349 . S
C1628 H1622 0.950 . S
C1628 C1629 1.327 . S
C1629 H1623 0.950 . S
C1629 C1628 1.327 . S
C1629 C1633 1.429 . S
C1630 C1613 1.574 . S
C1630 H1624 0.949 . S
C1630 C1634 1.368 . S
C1631 C1612 1.429 . S
C1631 C1625 1.429 . S
C1631 C1632 1.523 . S
C1632 C1613 1.368 . S
C1632 C1626 1.368 . S
C1632 C1631 1.523 . S
C1633 C1617 1.429 . S
C1633 C1629 1.429 . S
C1633 C1634 1.523 . S
C1634 C1618 1.368 . S
C1634 C1630 1.368 . S
C1634 C1633 1.523 . S
H1635 C1610 0.950 . S
H1636 C1612 0.950 . S
H1637 C1613 0.949 . S
H1638 C1615 0.950 . S
H1639 C1617 0.950 . S
C1640 C1641 1.349 . S
C1640 C1642 1.327 . S
C1640 H1665 0.950 . S
C1641 C1640 1.349 . S
C1641 C1657 1.349 . S
C1642 C1640 1.327 . S
C1642 C1661 1.429 . S
C1642 H1666 0.950 . S
C1643 C1660 1.574 . S
C1643 C1662 1.368 . S
C1643 H1667 0.949 . S
H1644 C1648 0.949 . S
C1645 C1646 1.349 . S
C1645 C1647 1.327 . S
C1645 H1668 0.950 . S
C1646 C1645 1.349 . S
C1646 C1658 1.349 . S
C1647 C1645 1.327 . S
C1647 C1663 1.429 . S
C1647 H1669 0.950 . S
C1648 H1644 0.949 . S
C1648 C1656 1.574 . S
C1648 C1664 1.368 . S
H1649 C1657 0.950 . S
H1650 C1655 0.950 . S
H1651 C1656 0.949 . S
H1652 C1658 0.950 . S
H1653 C1659 0.950 . S
H1654 C1660 0.949 . S
C1655 H1650 0.950 . S
C1655 C1657 1.327 . S
C1655 C1661 1.429 . S
C1656 C1648 1.574 . S
C1656 H1651 0.949 . S
C1656 C1662 1.368 . S
C1657 C1641 1.349 . S
C1657 H1649 0.950 . S
C1657 C1655 1.327 . S
C1658 C1646 1.349 . S
C1658 H1652 0.950 . S
C1658 C1659 1.327 . S
C1659 H1653 0.950 . S
C1659 C1658 1.327 . S
C1659 C1663 1.429 . S
C1660 C1643 1.574 . S
C1660 H1654 0.949 . S
C1660 C1664 1.368 . S
C1661 C1642 1.429 . S
C1661 C1655 1.429 . S
C1661 C1662 1.523 . S
C1662 C1643 1.368 . S
C1662 C1656 1.368 . S
C1662 C1661 1.523 . S
C1663 C1647 1.429 . S
C1663 C1659 1.429 . S
C1663 C1664 1.523 . S
C1664 C1648 1.368 . S
C1664 C1660 1.368 . S
C1664 C1663 1.523 . S
H1665 C1640 0.950 . S
H1666 C1642 0.950 . S
H1667 C1643 0.949 . S
H1668 C1645 0.950 . S
H1669 C1647 0.950 . S
C1670 C1671 1.349 . S
C1670 C1672 1.327 . S
C1670 H1695 0.950 . S
C1671 C1670 1.349 . S
C1671 C1687 1.349 . S
C1672 C1670 1.327 . S
C1672 C1691 1.429 . S
C1672 H1696 0.950 . S
C1673 C1690 1.574 . S
C1673 C1692 1.368 . S
C1673 H1697 0.949 . S
H1674 C1678 0.949 . S
C1675 C1676 1.349 . S
C1675 C1677 1.327 . S
C1675 H1698 0.950 . S
C1676 C1675 1.349 . S
C1676 C1688 1.349 . S
C1677 C1675 1.327 . S
C1677 C1693 1.429 . S
C1677 H1699 0.950 . S
C1678 H1674 0.949 . S
C1678 C1686 1.574 . S
C1678 C1694 1.368 . S
H1679 C1687 0.950 . S
H1680 C1685 0.950 . S
H1681 C1686 0.949 . S
H1682 C1688 0.950 . S
H1683 C1689 0.950 . S
H1684 C1690 0.949 . S
C1685 H1680 0.950 . S
C1685 C1687 1.327 . S
C1685 C1691 1.429 . S
C1686 C1678 1.574 . S
C1686 H1681 0.949 . S
C1686 C1692 1.368 . S
C1687 C1671 1.349 . S
C1687 H1679 0.950 . S
C1687 C1685 1.327 . S
C1688 C1676 1.349 . S
C1688 H1682 0.950 . S
C1688 C1689 1.327 . S
C1689 H1683 0.950 . S
C1689 C1688 1.327 . S
C1689 C1693 1.429 . S
C1690 C1673 1.574 . S
C1690 H1684 0.949 . S
C1690 C1694 1.368 . S
C1691 C1672 1.429 . S
C1691 C1685 1.429 . S
C1691 C1692 1.523 . S
C1692 C1673 1.368 . S
C1692 C1686 1.368 . S
C1692 C1691 1.523 . S
C1693 C1677 1.429 . S
C1693 C1689 1.429 . S
C1693 C1694 1.523 . S
C1694 C1678 1.368 . S
C1694 C1690 1.368 . S
C1694 C1693 1.523 . S
H1695 C1670 0.950 . S
H1696 C1672 0.950 . S
H1697 C1673 0.949 . S
H1698 C1675 0.950 . S
H1699 C1677 0.950 . S
C1700 C1701 1.349 . S
C1700 C1702 1.327 . S
C1700 H1725 0.950 . S
C1701 C1700 1.349 . S
C1701 C1717 1.349 . S
C1702 C1700 1.327 . S
C1702 C1721 1.429 . S
C1702 H1726 0.950 . S
C1703 C1720 1.574 . S
C1703 C1722 1.368 . S
C1703 H1727 0.949 . S
H1704 C1708 0.949 . S
C1705 C1706 1.349 . S
C1705 C1707 1.327 . S
C1705 H1728 0.950 . S
C1706 C1705 1.349 . S
C1706 C1718 1.349 . S
C1707 C1705 1.327 . S
C1707 C1723 1.429 . S
C1707 H1729 0.950 . S
C1708 H1704 0.949 . S
C1708 C1716 1.574 . S
C1708 C1724 1.368 . S
H1709 C1717 0.950 . S
H1710 C1715 0.950 . S
H1711 C1716 0.949 . S
H1712 C1718 0.950 . S
H1713 C1719 0.950 . S
H1714 C1720 0.949 . S
C1715 H1710 0.950 . S
C1715 C1717 1.327 . S
C1715 C1721 1.429 . S
C1716 C1708 1.574 . S
C1716 H1711 0.949 . S
C1716 C1722 1.368 . S
C1717 C1701 1.349 . S
C1717 H1709 0.950 . S
C1717 C1715 1.327 . S
C1718 C1706 1.349 . S
C1718 H1712 0.950 . S
C1718 C1719 1.327 . S
C1719 H1713 0.950 . S
C1719 C1718 1.327 . S
C1719 C1723 1.429 . S
C1720 C1703 1.574 . S
C1720 H1714 0.949 . S
C1720 C1724 1.368 . S
C1721 C1702 1.429 . S
C1721 C1715 1.429 . S
C1721 C1722 1.523 . S
C1722 C1703 1.368 . S
C1722 C1716 1.368 . S
C1722 C1721 1.523 . S
C1723 C1707 1.429 . S
C1723 C1719 1.429 . S
C1723 C1724 1.523 . S
C1724 C1708 1.368 . S
C1724 C1720 1.368 . S
C1724 C1723 1.523 . S
H1725 C1700 0.950 . S
H1726 C1702 0.950 . S
H1727 C1703 0.949 . S
H1728 C1705 0.950 . S
H1729 C1707 0.950 . S
C1730 C1731 1.349 . S
C1730 C1732 1.327 . S
C1730 H1755 0.950 . S
C1731 C1730 1.349 . S
C1731 C1747 1.349 . S
C1732 C1730 1.327 . S
C1732 C1751 1.429 . S
C1732 H1756 0.950 . S
C1733 C1750 1.574 . S
C1733 C1752 1.368 . S
C1733 H1757 0.949 . S
H1734 C1738 0.949 . S
C1735 C1736 1.349 . S
C1735 C1737 1.327 . S
C1735 H1758 0.950 . S
C1736 C1735 1.349 . S
C1736 C1748 1.349 . S
C1737 C1735 1.327 . S
C1737 C1753 1.429 . S
C1737 H1759 0.950 . S
C1738 H1734 0.949 . S
C1738 C1746 1.574 . S
C1738 C1754 1.368 . S
H1739 C1747 0.950 . S
H1740 C1745 0.950 . S
H1741 C1746 0.949 . S
H1742 C1748 0.950 . S
H1743 C1749 0.950 . S
H1744 C1750 0.949 . S
C1745 H1740 0.950 . S
C1745 C1747 1.327 . S
C1745 C1751 1.429 . S
C1746 C1738 1.574 . S
C1746 H1741 0.949 . S
C1746 C1752 1.368 . S
C1747 C1731 1.349 . S
C1747 H1739 0.950 . S
C1747 C1745 1.327 . S
C1748 C1736 1.349 . S
C1748 H1742 0.950 . S
C1748 C1749 1.327 . S
C1749 H1743 0.950 . S
C1749 C1748 1.327 . S
C1749 C1753 1.429 . S
C1750 C1733 1.574 . S
C1750 H1744 0.949 . S
C1750 C1754 1.368 . S
C1751 C1732 1.429 . S
C1751 C1745 1.429 . S
C1751 C1752 1.523 . S
C1752 C1733 1.368 . S
C1752 C1746 1.368 . S
C1752 C1751 1.523 . S
C1753 C1737 1.429 . S
C1753 C1749 1.429 . S
C1753 C1754 1.523 . S
C1754 C1738 1.368 . S
C1754 C1750 1.368 . S
C1754 C1753 1.523 . S
H1755 C1730 0.950 . S
H1756 C1732 0.950 . S
H1757 C1733 0.949 . S
H1758 C1735 0.950 . S
H1759 C1737 0.950 . S
C1760 C1761 1.349 . S
C1760 C1762 1.327 . S
C1760 H1785 0.950 . S
C1761 C1760 1.349 . S
C1761 C1777 1.349 . S
C1762 C1760 1.327 . S
C1762 C1781 1.429 . S
C1762 H1786 0.950 . S
C1763 C1780 1.574 . S
C1763 C1782 1.368 . S
C1763 H1787 0.949 . S
H1764 C1768 0.949 . S
C1765 C1766 1.349 . S
C1765 C1767 1.327 . S
C1765 H1788 0.950 . S
C1766 C1765 1.349 . S
C1766 C1778 1.349 . S
C1767 C1765 1.327 . S
C1767 C1783 1.429 . S
C1767 H1789 0.950 . S
C1768 H1764 0.949 . S
C1768 C1776 1.574 . S
C1768 C1784 1.368 . S
H1769 C1777 0.950 . S
H1770 C1775 0.950 . S
H1771 C1776 0.949 . S
H1772 C1778 0.950 . S
H1773 C1779 0.950 . S
H1774 C1780 0.949 . S
C1775 H1770 0.950 . S
C1775 C1777 1.327 . S
C1775 C1781 1.429 . S
C1776 C1768 1.574 . S
C1776 H1771 0.949 . S
C1776 C1782 1.368 . S
C1777 C1761 1.349 . S
C1777 H1769 0.950 . S
C1777 C1775 1.327 . S
C1778 C1766 1.349 . S
C1778 H1772 0.950 . S
C1778 C1779 1.327 . S
C1779 H1773 0.950 . S
C1779 C1778 1.327 . S
C1779 C1783 1.429 . S
C1780 C1763 1.574 . S
C1780 H1774 0.949 . S
C1780 C1784 1.368 . S
C1781 C1762 1.429 . S
C1781 C1775 1.429 . S
C1781 C1782 1.523 . S
C1782 C1763 1.368 . S
C1782 C1776 1.368 . S
C1782 C1781 1.523 . S
C1783 C1767 1.429 . S
C1783 C1779 1.429 . S
C1783 C1784 1.523 . S
C1784 C1768 1.368 . S
C1784 C1780 1.368 . S
C1784 C1783 1.523 . S
H1785 C1760 0.950 . S
H1786 C1762 0.950 . S
H1787 C1763 0.949 . S
H1788 C1765 0.950 . S
H1789 C1767 0.950 . S
C1790 C1791 1.349 . S
C1790 C1792 1.327 . S
C1790 H1815 0.950 . S
C1791 C1790 1.349 . S
C1791 C1807 1.349 . S
C1792 C1790 1.327 . S
C1792 C1811 1.429 . S
C1792 H1816 0.950 . S
C1793 C1810 1.574 . S
C1793 C1812 1.368 . S
C1793 H1817 0.949 . S
H1794 C1798 0.949 . S
C1795 C1796 1.349 . S
C1795 C1797 1.327 . S
C1795 H1818 0.950 . S
C1796 C1795 1.349 . S
C1796 C1808 1.349 . S
C1797 C1795 1.327 . S
C1797 C1813 1.429 . S
C1797 H1819 0.950 . S
C1798 H1794 0.949 . S
C1798 C1806 1.574 . S
C1798 C1814 1.368 . S
H1799 C1807 0.950 . S
H1800 C1805 0.950 . S
H1801 C1806 0.949 . S
H1802 C1808 0.950 . S
H1803 C1809 0.950 . S
H1804 C1810 0.949 . S
C1805 H1800 0.950 . S
C1805 C1807 1.327 . S
C1805 C1811 1.429 . S
C1806 C1798 1.574 . S
C1806 H1801 0.949 . S
C1806 C1812 1.368 . S
C1807 C1791 1.349 . S
C1807 H1799 0.950 . S
C1807 C1805 1.327 . S
C1808 C1796 1.349 . S
C1808 H1802 0.950 . S
C1808 C1809 1.327 . S
C1809 H1803 0.950 . S
C1809 C1808 1.327 . S
C1809 C1813 1.429 . S
C1810 C1793 1.574 . S
C1810 H1804 0.949 . S
C1810 C1814 1.368 . S
C1811 C1792 1.429 . S
C1811 C1805 1.429 . S
C1811 C1812 1.523 . S
C1812 C1793 1.368 . S
C1812 C1806 1.368 . S
C1812 C1811 1.523 . S
C1813 C1797 1.429 . S
C1813 C1809 1.429 . S
C1813 C1814 1.523 . S
C1814 C1798 1.368 . S
C1814 C1810 1.368 . S
C1814 C1813 1.523 . S
H1815 C1790 0.950 . S
H1816 C1792 0.950 . S
H1817 C1793 0.949 . S
H1818 C1795 0.950 . S
H1819 C1797 0.950 . S
C1820 C1821 1.349 . S
C1820 C1822 1.327 . S
C1820 H1845 0.950 . S
C1821 C1820 1.349 . S
C1821 C1837 1.349 . S
C1822 C1820 1.327 . S
C1822 C1841 1.429 . S
C1822 H1846 0.950 . S
C1823 C1840 1.574 . S
C1823 C1842 1.368 . S
C1823 H1847 0.949 . S
H1824 C1828 0.949 . S
C1825 C1826 1.349 . S
C1825 C1827 1.327 . S
C1825 H1848 0.950 . S
C1826 C1825 1.349 . S
C1826 C1838 1.349 . S
C1827 C1825 1.327 . S
C1827 C1843 1.429 . S
C1827 H1849 0.950 . S
C1828 H1824 0.949 . S
C1828 C1836 1.574 . S
C1828 C1844 1.368 . S
H1829 C1837 0.950 . S
H1830 C1835 0.950 . S
H1831 C1836 0.949 . S
H1832 C1838 0.950 . S
H1833 C1839 0.950 . S
H1834 C1840 0.949 . S
C1835 H1830 0.950 . S
C1835 C1837 1.327 . S
C1835 C1841 1.429 . S
C1836 C1828 1.574 . S
C1836 H1831 0.949 . S
C1836 C1842 1.368 . S
C1837 C1821 1.349 . S
C1837 H1829 0.950 . S
C1837 C1835 1.327 . S
C1838 C1826 1.349 . S
C1838 H1832 0.950 . S
C1838 C1839 1.327 . S
C1839 H1833 0.950 . S
C1839 C1838 1.327 . S
C1839 C1843 1.429 . S
C1840 C1823 1.574 . S
C1840 H1834 0.949 . S
C1840 C1844 1.368 . S
C1841 C1822 1.429 . S
C1841 C1835 1.429 . S
C1841 C1842 1.523 . S
C1842 C1823 1.368 . S
C1842 C1836 1.368 . S
C1842 C1841 1.523 . S
C1843 C1827 1.429 . S
C1843 C1839 1.429 . S
C1843 C1844 1.523 . S
C1844 C1828 1.368 . S
C1844 C1840 1.368 . S
C1844 C1843 1.523 . S
H1845 C1820 0.950 . S
H1846 C1822 0.950 . S
H1847 C1823 0.949 . S
H1848 C1825 0.950 . S
H1849 C1827 0.950 . S
C1850 C1851 1.349 . S
C1850 C1852 1.327 . S
C1850 H1875 0.950 . S
C1851 C1850 1.349 . S
C1851 C1867 1.349 . S
C1852 C1850 1.327 . S
C1852 C1871 1.429 . S
C1852 H1876 0.950 . S
C1853 C1870 1.574 . S
C1853 C1872 1.368 . S
C1853 H1877 0.949 . S
H1854 C1858 0.949 . S
C1855 C1856 1.349 . S
C1855 C1857 1.327 . S
C1855 H1878 0.950 . S
C1856 C1855 1.349 . S
C1856 C1868 1.349 . S
C1857 C1855 1.327 . S
C1857 C1873 1.429 . S
C1857 H1879 0.950 . S
C1858 H1854 0.949 . S
C1858 C1866 1.574 . S
C1858 C1874 1.368 . S
H1859 C1867 0.950 . S
H1860 C1865 0.950 . S
H1861 C1866 0.949 . S
H1862 C1868 0.950 . S
H1863 C1869 0.950 . S
H1864 C1870 0.949 . S
C1865 H1860 0.950 . S
C1865 C1867 1.327 . S
C1865 C1871 1.429 . S
C1866 C1858 1.574 . S
C1866 H1861 0.949 . S
C1866 C1872 1.368 . S
C1867 C1851 1.349 . S
C1867 H1859 0.950 . S
C1867 C1865 1.327 . S
C1868 C1856 1.349 . S
C1868 H1862 0.950 . S
C1868 C1869 1.327 . S
C1869 H1863 0.950 . S
C1869 C1868 1.327 . S
C1869 C1873 1.429 . S
C1870 C1853 1.574 . S
C1870 H1864 0.949 . S
C1870 C1874 1.368 . S
C1871 C1852 1.429 . S
C1871 C1865 1.429 . S
C1871 C1872 1.523 . S
C1872 C1853 1.368 . S
C1872 C1866 1.368 . S
C1872 C1871 1.523 . S
C1873 C1857 1.429 . S
C1873 C1869 1.429 . S
C1873 C1874 1.523 . S
C1874 C1858 1.368 . S
C1874 C1870 1.368 . S
C1874 C1873 1.523 . S
H1875 C1850 0.950 . S
H1876 C1852 0.950 . S
H1877 C1853 0.949 . S
H1878 C1855 0.950 . S
H1879 C1857 0.950 . S
C1880 C1881 1.388 . S
C1880 C1882 1.327 . S
C1880 H1905 0.950 . S
C1881 C1880 1.388 . S
C1881 C1897 1.311 1_545 S
C1882 C1880 1.327 . S
C1882 C1901 1.466 . S
C1882 H1906 0.950 . S
C1883 C1900 1.574 . S
C1883 C1902 1.328 1_565 S
C1883 H1907 0.949 . S
H1884 C1888 0.949 . S
C1885 C1886 1.311 1_565 S
C1885 C1887 1.327 . S
C1885 H1908 0.950 . S
C1886 C1885 1.311 1_545 S
C1886 C1898 1.388 . S
C1887 C1885 1.327 . S
C1887 C1903 1.392 1_565 S
C1887 H1909 0.950 . S
C1888 H1884 0.949 . S
C1888 C1896 1.574 . S
C1888 C1904 1.410 . S
H1889 C1897 0.950 . S
H1890 C1895 0.950 . S
H1891 C1896 0.949 . S
H1892 C1898 0.950 . S
H1893 C1899 0.950 . S
H1894 C1900 0.949 . S
C1895 H1890 0.950 . S
C1895 C1897 1.327 . S
C1895 C1901 1.392 1_565 S
C1896 C1888 1.574 . S
C1896 H1891 0.949 . S
C1896 C1902 1.410 . S
C1897 C1881 1.311 1_565 S
C1897 H1889 0.950 . S
C1897 C1895 1.327 . S
C1898 C1886 1.388 . S
C1898 H1892 0.950 . S
C1898 C1899 1.327 . S
C1899 H1893 0.950 . S
C1899 C1898 1.327 . S
C1899 C1903 1.466 . S
C1900 C1883 1.574 . S
C1900 H1894 0.949 . S
C1900 C1904 1.328 1_565 S
C1901 C1882 1.466 . S
C1901 C1895 1.392 1_545 S
C1901 C1902 1.523 . S
C1902 C1883 1.328 1_545 S
C1902 C1896 1.410 . S
C1902 C1901 1.523 . S
C1903 C1887 1.392 1_545 S
C1903 C1899 1.466 . S
C1903 C1904 1.523 . S
C1904 C1888 1.410 . S
C1904 C1900 1.328 1_545 S
C1904 C1903 1.523 . S
H1905 C1880 0.950 . S
H1906 C1882 0.950 . S
H1907 C1883 0.949 . S
H1908 C1885 0.950 . S
H1909 C1887 0.950 . S
C1910 C1911 1.349 . S
C1910 C1912 1.327 . S
C1910 H1935 0.950 . S
C1911 C1910 1.349 . S
C1911 C1927 1.349 . S
C1912 C1910 1.327 . S
C1912 C1931 1.429 . S
C1912 H1936 0.950 . S
C1913 C1930 1.574 . S
C1913 C1932 1.368 . S
C1913 H1937 0.949 . S
H1914 C1918 0.949 . S
C1915 C1916 1.349 . S
C1915 C1917 1.327 . S
C1915 H1938 0.950 . S
C1916 C1915 1.349 . S
C1916 C1928 1.349 . S
C1917 C1915 1.327 . S
C1917 C1933 1.429 . S
C1917 H1939 0.950 . S
C1918 H1914 0.949 . S
C1918 C1926 1.574 . S
C1918 C1934 1.368 . S
H1919 C1927 0.950 . S
H1920 C1925 0.950 . S
H1921 C1926 0.949 . S
H1922 C1928 0.950 . S
H1923 C1929 0.950 . S
H1924 C1930 0.949 . S
C1925 H1920 0.950 . S
C1925 C1927 1.327 . S
C1925 C1931 1.429 . S
C1926 C1918 1.574 . S
C1926 H1921 0.949 . S
C1926 C1932 1.368 . S
C1927 C1911 1.349 . S
C1927 H1919 0.950 . S
C1927 C1925 1.327 . S
C1928 C1916 1.349 . S
C1928 H1922 0.950 . S
C1928 C1929 1.327 . S
C1929 H1923 0.950 . S
C1929 C1928 1.327 . S
C1929 C1933 1.429 . S
C1930 C1913 1.574 . S
C1930 H1924 0.949 . S
C1930 C1934 1.368 . S
C1931 C1912 1.429 . S
C1931 C1925 1.429 . S
C1931 C1932 1.523 . S
C1932 C1913 1.368 . S
C1932 C1926 1.368 . S
C1932 C1931 1.523 . S
C1933 C1917 1.429 . S
C1933 C1929 1.429 . S
C1933 C1934 1.523 . S
C1934 C1918 1.368 . S
C1934 C1930 1.368 . S
C1934 C1933 1.523 . S
H1935 C1910 0.950 . S
H1936 C1912 0.950 . S
H1937 C1913 0.949 . S
H1938 C1915 0.950 . S
H1939 C1917 0.950 . S
C1940 C1941 1.388 . S
C1940 C1942 1.327 . S
C1940 H1965 0.950 . S
C1941 C1940 1.388 . S
C1941 C1957 1.311 1_565 S
C1942 C1940 1.327 . S
C1942 C1961 1.466 . S
C1942 H1966 0.950 . S
C1943 C1960 1.574 . S
C1943 C1962 1.328 1_545 S
C1943 H1967 0.949 . S
H1944 C1948 0.949 . S
C1945 C1946 1.311 1_545 S
C1945 C1947 1.327 . S
C1945 H1968 0.950 . S
C1946 C1945 1.311 1_565 S
C1946 C1958 1.388 . S
C1947 C1945 1.327 . S
C1947 C1963 1.392 1_545 S
C1947 H1969 0.950 . S
C1948 H1944 0.949 . S
C1948 C1956 1.574 . S
C1948 C1964 1.410 . S
H1949 C1957 0.950 . S
H1950 C1955 0.950 . S
H1951 C1956 0.949 . S
H1952 C1958 0.950 . S
H1953 C1959 0.950 . S
H1954 C1960 0.949 . S
C1955 H1950 0.950 . S
C1955 C1957 1.327 . S
C1955 C1961 1.392 1_545 S
C1956 C1948 1.574 . S
C1956 H1951 0.949 . S
C1956 C1962 1.410 . S
C1957 C1941 1.311 1_545 S
C1957 H1949 0.950 . S
C1957 C1955 1.327 . S
C1958 C1946 1.388 . S
C1958 H1952 0.950 . S
C1958 C1959 1.327 . S
C1959 H1953 0.950 . S
C1959 C1958 1.327 . S
C1959 C1963 1.466 . S
C1960 C1943 1.574 . S
C1960 H1954 0.949 . S
C1960 C1964 1.328 1_545 S
C1961 C1942 1.466 . S
C1961 C1955 1.392 1_565 S
C1961 C1962 1.523 . S
C1962 C1943 1.328 1_565 S
C1962 C1956 1.410 . S
C1962 C1961 1.523 . S
C1963 C1947 1.392 1_565 S
C1963 C1959 1.466 . S
C1963 C1964 1.523 . S
C1964 C1948 1.410 . S
C1964 C1960 1.328 1_565 S
C1964 C1963 1.523 . S
H1965 C1940 0.950 . S
H1966 C1942 0.950 . S
H1967 C1943 0.949 . S
H1968 C1945 0.950 . S
H1969 C1947 0.950 . S
C1970 C1971 1.349 . S
C1970 C1972 1.327 . S
C1970 H1995 0.950 . S
C1971 C1970 1.349 . S
C1971 C1987 1.349 . S
C1972 C1970 1.327 . S
C1972 C1991 1.429 . S
C1972 H1996 0.950 . S
C1973 C1990 1.574 . S
C1973 C1992 1.368 . S
C1973 H1997 0.949 . S
H1974 C1978 0.949 . S
C1975 C1976 1.349 . S
C1975 C1977 1.327 . S
C1975 H1998 0.950 . S
C1976 C1975 1.349 . S
C1976 C1988 1.349 . S
C1977 C1975 1.327 . S
C1977 C1993 1.429 . S
C1977 H1999 0.950 . S
C1978 H1974 0.949 . S
C1978 C1986 1.574 . S
C1978 C1994 1.368 . S
H1979 C1987 0.950 . S
H1980 C1985 0.950 . S
H1981 C1986 0.949 . S
H1982 C1988 0.950 . S
H1983 C1989 0.950 . S
H1984 C1990 0.949 . S
C1985 H1980 0.950 . S
C1985 C1987 1.327 . S
C1985 C1991 1.429 . S
C1986 C1978 1.574 . S
C1986 H1981 0.949 . S
C1986 C1992 1.368 . S
C1987 C1971 1.349 . S
C1987 H1979 0.950 . S
C1987 C1985 1.327 . S
C1988 C1976 1.349 . S
C1988 H1982 0.950 . S
C1988 C1989 1.327 . S
C1989 H1983 0.950 . S
C1989 C1988 1.327 . S
C1989 C1993 1.429 . S
C1990 C1973 1.574 . S
C1990 H1984 0.949 . S
C1990 C1994 1.368 . S
C1991 C1972 1.429 . S
C1991 C1985 1.429 . S
C1991 C1992 1.523 . S
C1992 C1973 1.368 . S
C1992 C1986 1.368 . S
C1992 C1991 1.523 . S
C1993 C1977 1.429 . S
C1993 C1989 1.429 . S
C1993 C1994 1.523 . S
C1994 C1978 1.368 . S
C1994 C1990 1.368 . S
C1994 C1993 1.523 . S
H1995 C1970 0.950 . S
H1996 C1972 0.950 . S
H1997 C1973 0.949 . S
H1998 C1975 0.950 . S
H1999 C1977 0.950 . S
C2000 C2001 1.349 . S
C2000 C2002 1.327 . S
C2000 H2025 0.950 . S
C2001 C2000 1.349 . S
C2001 C2017 1.349 . S
C2002 C2000 1.327 . S
C2002 C2021 1.429 . S
C2002 H2026 0.950 . S
C2003 C2020 1.574 . S
C2003 C2022 1.368 . S
C2003 H2027 0.949 . S
H2004 C2008 0.949 . S
C2005 C2006 1.349 . S
C2005 C2007 1.327 . S
C2005 H2028 0.950 . S
C2006 C2005 1.349 . S
C2006 C2018 1.349 . S
C2007 C2005 1.327 . S
C2007 C2023 1.429 . S
C2007 H2029 0.950 . S
C2008 H2004 0.949 . S
C2008 C2016 1.574 . S
C2008 C2024 1.368 . S
H2009 C2017 0.950 . S
H2010 C2015 0.950 . S
H2011 C2016 0.949 . S
H2012 C2018 0.950 . S
H2013 C2019 0.950 . S
H2014 C2020 0.949 . S
C2015 H2010 0.950 . S
C2015 C2017 1.327 . S
C2015 C2021 1.429 . S
C2016 C2008 1.574 . S
C2016 H2011 0.949 . S
C2016 C2022 1.368 . S
C2017 C2001 1.349 . S
C2017 H2009 0.950 . S
C2017 C2015 1.327 . S
C2018 C2006 1.349 . S
C2018 H2012 0.950 . S
C2018 C2019 1.327 . S
C2019 H2013 0.950 . S
C2019 C2018 1.327 . S
C2019 C2023 1.429 . S
C2020 C2003 1.574 . S
C2020 H2014 0.949 . S
C2020 C2024 1.368 . S
C2021 C2002 1.429 . S
C2021 C2015 1.429 . S
C2021 C2022 1.523 . S
C2022 C2003 1.368 . S
C2022 C2016 1.368 . S
C2022 C2021 1.523 . S
C2023 C2007 1.429 . S
C2023 C2019 1.429 . S
C2023 C2024 1.523 . S
C2024 C2008 1.368 . S
C2024 C2020 1.368 . S
C2024 C2023 1.523 . S
H2025 C2000 0.950 . S
H2026 C2002 0.950 . S
H2027 C2003 0.949 . S
H2028 C2005 0.950 . S
H2029 C2007 0.950 . S
C2030 C2031 1.349 . S
C2030 C2032 1.327 . S
C2030 H2055 0.950 . S
C2031 C2030 1.349 . S
C2031 C2047 1.349 . S
C2032 C2030 1.327 . S
C2032 C2051 1.429 . S
C2032 H2056 0.950 . S
C2033 C2050 1.574 . S
C2033 C2052 1.368 . S
C2033 H2057 0.949 . S
H2034 C2038 0.949 . S
C2035 C2036 1.349 . S
C2035 C2037 1.327 . S
C2035 H2058 0.950 . S
C2036 C2035 1.349 . S
C2036 C2048 1.349 . S
C2037 C2035 1.327 . S
C2037 C2053 1.429 . S
C2037 H2059 0.950 . S
C2038 H2034 0.949 . S
C2038 C2046 1.574 . S
C2038 C2054 1.368 . S
H2039 C2047 0.950 . S
H2040 C2045 0.950 . S
H2041 C2046 0.949 . S
H2042 C2048 0.950 . S
H2043 C2049 0.950 . S
H2044 C2050 0.949 . S
C2045 H2040 0.950 . S
C2045 C2047 1.327 . S
C2045 C2051 1.429 . S
C2046 C2038 1.574 . S
C2046 H2041 0.949 . S
C2046 C2052 1.368 . S
C2047 C2031 1.349 . S
C2047 H2039 0.950 . S
C2047 C2045 1.327 . S
C2048 C2036 1.349 . S
C2048 H2042 0.950 . S
C2048 C2049 1.327 . S
C2049 H2043 0.950 . S
C2049 C2048 1.327 . S
C2049 C2053 1.429 . S
C2050 C2033 1.574 . S
C2050 H2044 0.949 . S
C2050 C2054 1.368 . S
C2051 C2032 1.429 . S
C2051 C2045 1.429 . S
C2051 C2052 1.523 . S
C2052 C2033 1.368 . S
C2052 C2046 1.368 . S
C2052 C2051 1.523 . S
C2053 C2037 1.429 . S
C2053 C2049 1.429 . S
C2053 C2054 1.523 . S
C2054 C2038 1.368 . S
C2054 C2050 1.368 . S
C2054 C2053 1.523 . S
H2055 C2030 0.950 . S
H2056 C2032 0.950 . S
H2057 C2033 0.949 . S
H2058 C2035 0.950 . S
H2059 C2037 0.950 . S
C2060 C2061 1.349 . S
C2060 C2062 1.327 . S
C2060 H2085 0.950 . S
C2061 C2060 1.349 . S
C2061 C2077 1.349 . S
C2062 C2060 1.327 . S
C2062 C2081 1.429 . S
C2062 H2086 0.950 . S
C2063 C2080 1.574 . S
C2063 C2082 1.368 . S
C2063 H2087 0.949 . S
H2064 C2068 0.949 . S
C2065 C2066 1.349 . S
C2065 C2067 1.327 . S
C2065 H2088 0.950 . S
C2066 C2065 1.349 . S
C2066 C2078 1.349 . S
C2067 C2065 1.327 . S
C2067 C2083 1.429 . S
C2067 H2089 0.950 . S
C2068 H2064 0.949 . S
C2068 C2076 1.574 . S
C2068 C2084 1.368 . S
H2069 C2077 0.950 . S
H2070 C2075 0.950 . S
H2071 C2076 0.949 . S
H2072 C2078 0.950 . S
H2073 C2079 0.950 . S
H2074 C2080 0.949 . S
C2075 H2070 0.950 . S
C2075 C2077 1.327 . S
C2075 C2081 1.429 . S
C2076 C2068 1.574 . S
C2076 H2071 0.949 . S
C2076 C2082 1.368 . S
C2077 C2061 1.349 . S
C2077 H2069 0.950 . S
C2077 C2075 1.327 . S
C2078 C2066 1.349 . S
C2078 H2072 0.950 . S
C2078 C2079 1.327 . S
C2079 H2073 0.950 . S
C2079 C2078 1.327 . S
C2079 C2083 1.429 . S
C2080 C2063 1.574 . S
C2080 H2074 0.949 . S
C2080 C2084 1.368 . S
C2081 C2062 1.429 . S
C2081 C2075 1.429 . S
C2081 C2082 1.523 . S
C2082 C2063 1.368 . S
C2082 C2076 1.368 . S
C2082 C2081 1.523 . S
C2083 C2067 1.429 . S
C2083 C2079 1.429 . S
C2083 C2084 1.523 . S
C2084 C2068 1.368 . S
C2084 C2080 1.368 . S
C2084 C2083 1.523 . S
H2085 C2060 0.950 . S
H2086 C2062 0.950 . S
H2087 C2063 0.949 . S
H2088 C2065 0.950 . S
H2089 C2067 0.950 . S
C2090 C2091 1.349 . S
C2090 C2092 1.327 . S
C2090 H2115 0.950 . S
C2091 C2090 1.349 . S
C2091 C2107 1.349 . S
C2092 C2090 1.327 . S
C2092 C2111 1.429 . S
C2092 H2116 0.950 . S
C2093 C2110 1.574 . S
C2093 C2112 1.368 . S
C2093 H2117 0.949 . S
H2094 C2098 0.949 . S
C2095 C2096 1.349 . S
C2095 C2097 1.327 . S
C2095 H2118 0.950 . S
C2096 C2095 1.349 . S
C2096 C2108 1.349 . S
C2097 C2095 1.327 . S
C2097 C2113 1.429 . S
C2097 H2119 0.950 . S
C2098 H2094 0.949 . S
C2098 C2106 1.574 . S
C2098 C2114 1.368 . S
H2099 C2107 0.950 . S
H2100 C2105 0.950 . S
H2101 C2106 0.949 . S
H2102 C2108 0.950 . S
H2103 C2109 0.950 . S
H2104 C2110 0.949 . S
C2105 H2100 0.950 . S
C2105 C2107 1.327 . S
C2105 C2111 1.429 . S
C2106 C2098 1.574 . S
C2106 H2101 0.949 . S
C2106 C2112 1.368 . S
C2107 C2091 1.349 . S
C2107 H2099 0.950 . S
C2107 C2105 1.327 . S
C2108 C2096 1.349 . S
C2108 H2102 0.950 . S
C2108 C2109 1.327 . S
C2109 H2103 0.950 . S
C2109 C2108 1.327 . S
C2109 C2113 1.429 . S
C2110 C2093 1.574 . S
C2110 H2104 0.949 . S
C2110 C2114 1.368 . S
C2111 C2092 1.429 . S
C2111 C2105 1.429 . S
C2111 C2112 1.523 . S
C2112 C2093 1.368 . S
C2112 C2106 1.368 . S
C2112 C2111 1.523 . S
C2113 C2097 1.429 . S
C2113 C2109 1.429 . S
C2113 C2114 1.523 . S
C2114 C2098 1.368 . S
C2114 C2110 1.368 . S
C2114 C2113 1.523 . S
H2115 C2090 0.950 . S
H2116 C2092 0.950 . S
H2117 C2093 0.949 . S
H2118 C2095 0.950 . S
H2119 C2097 0.950 . S
C2120 C2121 1.388 . S
C2120 C2122 1.327 . S
C2120 H2145 0.950 . S
C2121 C2120 1.388 . S
C2121 C2137 1.311 1_545 S
C2122 C2120 1.327 . S
C2122 C2141 1.466 . S
C2122 H2146 0.950 . S
C2123 C2140 1.574 . S
C2123 C2142 1.328 1_565 S
C2123 H2147 0.949 . S
H2124 C2128 0.949 . S
C2125 C2126 1.311 1_565 S
C2125 C2127 1.327 . S
C2125 H2148 0.950 . S
C2126 C2125 1.311 1_545 S
C2126 C2138 1.388 . S
C2127 C2125 1.327 . S
C2127 C2143 1.392 1_565 S
C2127 H2149 0.950 . S
C2128 H2124 0.949 . S
C2128 C2136 1.574 . S
C2128 C2144 1.410 . S
H2129 C2137 0.950 . S
H2130 C2135 0.950 . S
H2131 C2136 0.949 . S
H2132 C2138 0.950 . S
H2133 C2139 0.950 . S
H2134 C2140 0.949 . S
C2135 H2130 0.950 . S
C2135 C2137 1.327 . S
C2135 C2141 1.392 1_565 S
C2136 C2128 1.574 . S
C2136 H2131 0.949 . S
C2136 C2142 1.410 . S
C2137 C2121 1.311 1_565 S
C2137 H2129 0.950 . S
C2137 C2135 1.327 . S
C2138 C2126 1.388 . S
C2138 H2132 0.950 . S
C2138 C2139 1.327 . S
C2139 H2133 0.950 . S
C2139 C2138 1.327 . S
C2139 C2143 1.466 . S
C2140 C2123 1.574 . S
C2140 H2134 0.949 . S
C2140 C2144 1.328 1_565 S
C2141 C2122 1.466 . S
C2141 C2135 1.392 1_545 S
C2141 C2142 1.523 . S
C2142 C2123 1.328 1_545 S
C2142 C2136 1.410 . S
C2142 C2141 1.523 . S
C2143 C2127 1.392 1_545 S
C2143 C2139 1.466 . S
C2143 C2144 1.523 . S
C2144 C2128 1.410 . S
C2144 C2140 1.328 1_545 S
C2144 C2143 1.523 . S
H2145 C2120 0.950 . S
H2146 C2122 0.950 . S
H2147 C2123 0.949 . S
H2148 C2125 0.950 . S
H2149 C2127 0.950 . S
C2150 C2151 1.349 . S
C2150 C2152 1.327 . S
C2150 H2175 0.950 . S
C2151 C2150 1.349 . S
C2151 C2167 1.349 . S
C2152 C2150 1.327 . S
C2152 C2171 1.429 . S
C2152 H2176 0.950 . S
C2153 C2170 1.574 . S
C2153 C2172 1.368 . S
C2153 H2177 0.949 . S
H2154 C2158 0.949 . S
C2155 C2156 1.349 . S
C2155 C2157 1.327 . S
C2155 H2178 0.950 . S
C2156 C2155 1.349 . S
C2156 C2168 1.349 . S
C2157 C2155 1.327 . S
C2157 C2173 1.429 . S
C2157 H2179 0.950 . S
C2158 H2154 0.949 . S
C2158 C2166 1.574 . S
C2158 C2174 1.368 . S
H2159 C2167 0.950 . S
H2160 C2165 0.950 . S
H2161 C2166 0.949 . S
H2162 C2168 0.950 . S
H2163 C2169 0.950 . S
H2164 C2170 0.949 . S
C2165 H2160 0.950 . S
C2165 C2167 1.327 . S
C2165 C2171 1.429 . S
C2166 C2158 1.574 . S
C2166 H2161 0.949 . S
C2166 C2172 1.368 . S
C2167 C2151 1.349 . S
C2167 H2159 0.950 . S
C2167 C2165 1.327 . S
C2168 C2156 1.349 . S
C2168 H2162 0.950 . S
C2168 C2169 1.327 . S
C2169 H2163 0.950 . S
C2169 C2168 1.327 . S
C2169 C2173 1.429 . S
C2170 C2153 1.574 . S
C2170 H2164 0.949 . S
C2170 C2174 1.368 . S
C2171 C2152 1.429 . S
C2171 C2165 1.429 . S
C2171 C2172 1.523 . S
C2172 C2153 1.368 . S
C2172 C2166 1.368 . S
C2172 C2171 1.523 . S
C2173 C2157 1.429 . S
C2173 C2169 1.429 . S
C2173 C2174 1.523 . S
C2174 C2158 1.368 . S
C2174 C2170 1.368 . S
C2174 C2173 1.523 . S
H2175 C2150 0.950 . S
H2176 C2152 0.950 . S
H2177 C2153 0.949 . S
H2178 C2155 0.950 . S
H2179 C2157 0.950 . S
C2180 C2181 1.311 1_545 S
C2180 C2182 1.327 . S
C2180 H2205 0.950 . S
C2181 C2180 1.311 1_565 S
C2181 C2197 1.388 . S
C2182 C2180 1.327 . S
C2182 C2201 1.392 1_545 S
C2182 H2206 0.950 . S
C2183 C2200 1.574 . S
C2183 C2202 1.410 . S
C2183 H2207 0.949 . S
H2184 C2188 0.949 . S
C2185 C2186 1.388 . S
C2185 C2187 1.327 . S
C2185 H2208 0.950 . S
C2186 C2185 1.388 . S
C2186 C2198 1.311 1_565 S
C2187 C2185 1.327 . S
C2187 C2203 1.466 . S
C2187 H2209 0.950 . S
C2188 H2184 0.949 . S
C2188 C2196 1.574 . S
C2188 C2204 1.328 1_545 S
H2189 C2197 0.950 . S
H2190 C2195 0.950 . S
H2191 C2196 0.949 . S
H2192 C2198 0.950 . S
H2193 C2199 0.950 . S
H2194 C2200 0.949 . S
C2195 H2190 0.950 . S
C2195 C2197 1.327 . S
C2195 C2201 1.466 . S
C2196 C2188 1.574 . S
C2196 H2191 0.949 . S
C2196 C2202 1.328 1_545 S
C2197 C2181 1.388 . S
C2197 H2189 0.950 . S
C2197 C2195 1.327 . S
C2198 C2186 1.311 1_545 S
C2198 H2192 0.950 . S
C2198 C2199 1.327 . S
C2199 H2193 0.950 . S
C2199 C2198 1.327 . S
C2199 C2203 1.392 1_545 S
C2200 C2183 1.574 . S
C2200 H2194 0.949 . S
C2200 C2204 1.410 . S
C2201 C2182 1.392 1_565 S
C2201 C2195 1.466 . S
C2201 C2202 1.523 . S
C2202 C2183 1.410 . S
C2202 C2196 1.328 1_565 S
C2202 C2201 1.523 . S
C2203 C2187 1.466 . S
C2203 C2199 1.392 1_565 S
C2203 C2204 1.523 . S
C2204 C2188 1.328 1_565 S
C2204 C2200 1.410 . S
C2204 C2203 1.523 . S
H2205 C2180 0.950 . S
H2206 C2182 0.950 . S
H2207 C2183 0.949 . S
H2208 C2185 0.950 . S
H2209 C2187 0.950 . S
C2210 C2211 1.349 . S
C2210 C2212 1.327 . S
C2210 H2235 0.950 . S
C2211 C2210 1.349 . S
C2211 C2227 1.349 . S
C2212 C2210 1.327 . S
C2212 C2231 1.429 . S
C2212 H2236 0.950 . S
C2213 C2230 1.574 . S
C2213 C2232 1.368 . S
C2213 H2237 0.949 . S
H2214 C2218 0.949 . S
C2215 C2216 1.349 . S
C2215 C2217 1.327 . S
C2215 H2238 0.950 . S
C2216 C2215 1.349 . S
C2216 C2228 1.349 . S
C2217 C2215 1.327 . S
C2217 C2233 1.429 . S
C2217 H2239 0.950 . S
C2218 H2214 0.949 . S
C2218 C2226 1.574 . S
C2218 C2234 1.368 . S
H2219 C2227 0.950 . S
H2220 C2225 0.950 . S
H2221 C2226 0.949 . S
H2222 C2228 0.950 . S
H2223 C2229 0.950 . S
H2224 C2230 0.949 . S
C2225 H2220 0.950 . S
C2225 C2227 1.327 . S
C2225 C2231 1.429 . S
C2226 C2218 1.574 . S
C2226 H2221 0.949 . S
C2226 C2232 1.368 . S
C2227 C2211 1.349 . S
C2227 H2219 0.950 . S
C2227 C2225 1.327 . S
C2228 C2216 1.349 . S
C2228 H2222 0.950 . S
C2228 C2229 1.327 . S
C2229 H2223 0.950 . S
C2229 C2228 1.327 . S
C2229 C2233 1.429 . S
C2230 C2213 1.574 . S
C2230 H2224 0.949 . S
C2230 C2234 1.368 . S
C2231 C2212 1.429 . S
C2231 C2225 1.429 . S
C2231 C2232 1.523 . S
C2232 C2213 1.368 . S
C2232 C2226 1.368 . S
C2232 C2231 1.523 . S
C2233 C2217 1.429 . S
C2233 C2229 1.429 . S
C2233 C2234 1.523 . S
C2234 C2218 1.368 . S
C2234 C2230 1.368 . S
C2234 C2233 1.523 . S
H2235 C2210 0.950 . S
H2236 C2212 0.950 . S
H2237 C2213 0.949 . S
H2238 C2215 0.950 . S
H2239 C2217 0.950 . S
C2240 C2241 1.349 . S
C2240 C2242 1.327 . S
C2240 H2265 0.950 . S
C2241 C2240 1.349 . S
C2241 C2257 1.349 . S
C2242 C2240 1.327 . S
C2242 C2261 1.429 . S
C2242 H2266 0.950 . S
C2243 C2260 1.574 . S
C2243 C2262 1.368 . S
C2243 H2267 0.949 . S
H2244 C2248 0.949 . S
C2245 C2246 1.349 . S
C2245 C2247 1.327 . S
C2245 H2268 0.950 . S
C2246 C2245 1.349 . S
C2246 C2258 1.349 . S
C2247 C2245 1.327 . S
C2247 C2263 1.429 . S
C2247 H2269 0.950 . S
C2248 H2244 0.949 . S
C2248 C2256 1.574 . S
C2248 C2264 1.368 . S
H2249 C2257 0.950 . S
H2250 C2255 0.950 . S
H2251 C2256 0.949 . S
H2252 C2258 0.950 . S
H2253 C2259 0.950 . S
H2254 C2260 0.949 . S
C2255 H2250 0.950 . S
C2255 C2257 1.327 . S
C2255 C2261 1.429 . S
C2256 C2248 1.574 . S
C2256 H2251 0.949 . S
C2256 C2262 1.368 . S
C2257 C2241 1.349 . S
C2257 H2249 0.950 . S
C2257 C2255 1.327 . S
C2258 C2246 1.349 . S
C2258 H2252 0.950 . S
C2258 C2259 1.327 . S
C2259 H2253 0.950 . S
C2259 C2258 1.327 . S
C2259 C2263 1.429 . S
C2260 C2243 1.574 . S
C2260 H2254 0.949 . S
C2260 C2264 1.368 . S
C2261 C2242 1.429 . S
C2261 C2255 1.429 . S
C2261 C2262 1.523 . S
C2262 C2243 1.368 . S
C2262 C2256 1.368 . S
C2262 C2261 1.523 . S
C2263 C2247 1.429 . S
C2263 C2259 1.429 . S
C2263 C2264 1.523 . S
C2264 C2248 1.368 . S
C2264 C2260 1.368 . S
C2264 C2263 1.523 . S
H2265 C2240 0.950 . S
H2266 C2242 0.950 . S
H2267 C2243 0.949 . S
H2268 C2245 0.950 . S
H2269 C2247 0.950 . S
C2270 C2271 1.349 . S
C2270 C2272 1.327 . S
C2270 H2295 0.950 . S
C2271 C2270 1.349 . S
C2271 C2287 1.349 . S
C2272 C2270 1.327 . S
C2272 C2291 1.429 . S
C2272 H2296 0.950 . S
C2273 C2290 1.574 . S
C2273 C2292 1.368 . S
C2273 H2297 0.949 . S
H2274 C2278 0.949 . S
C2275 C2276 1.349 . S
C2275 C2277 1.327 . S
C2275 H2298 0.950 . S
C2276 C2275 1.349 . S
C2276 C2288 1.349 . S
C2277 C2275 1.327 . S
C2277 C2293 1.429 . S
C2277 H2299 0.950 . S
C2278 H2274 0.949 . S
C2278 C2286 1.574 . S
C2278 C2294 1.368 . S
H2279 C2287 0.950 . S
H2280 C2285 0.950 . S
H2281 C2286 0.949 . S
H2282 C2288 0.950 . S
H2283 C2289 0.950 . S
H2284 C2290 0.949 . S
C2285 H2280 0.950 . S
C2285 C2287 1.327 . S
C2285 C2291 1.429 . S
C2286 C2278 1.574 . S
C2286 H2281 0.949 . S
C2286 C2292 1.368 . S
C2287 C2271 1.349 . S
C2287 H2279 0.950 . S
C2287 C2285 1.327 . S
C2288 C2276 1.349 . S
C2288 H2282 0.950 . S
C2288 C2289 1.327 . S
C2289 H2283 0.950 . S
C2289 C2288 1.327 . S
C2289 C2293 1.429 . S
C2290 C2273 1.574 . S
C2290 H2284 0.949 . S
C2290 C2294 1.368 . S
C2291 C2272 1.429 . S
C2291 C2285 1.429 . S
C2291 C2292 1.523 . S
C2292 C2273 1.368 . S
C2292 C2286 1.368 . S
C2292 C2291 1.523 . S
C2293 C2277 1.429 . S
C2293 C2289 1.429 . S
C2293 C2294 1.523 . S
C2294 C2278 1.368 . S
C2294 C2290 1.368 . S
C2294 C2293 1.523 . S
H2295 C2270 0.950 . S
H2296 C2272 0.950 . S
H2297 C2273 0.949 . S
H2298 C2275 0.950 . S
H2299 C2277 0.950 . S
C2300 C2301 1.349 . S
C2300 C2302 1.327 . S
C2300 H2325 0.950 . S
C2301 C2300 1.349 . S
C2301 C2317 1.349 . S
C2302 C2300 1.327 . S
C2302 C2321 1.429 . S
C2302 H2326 0.950 . S
C2303 C2320 1.574 . S
C2303 C2322 1.368 . S
C2303 H2327 0.949 . S
H2304 C2308 0.949 . S
C2305 C2306 1.349 . S
C2305 C2307 1.327 . S
C2305 H2328 0.950 . S
C2306 C2305 1.349 . S
C2306 C2318 1.349 . S
C2307 C2305 1.327 . S
C2307 C2323 1.429 . S
C2307 H2329 0.950 . S
C2308 H2304 0.949 . S
C2308 C2316 1.574 . S
C2308 C2324 1.368 . S
H2309 C2317 0.950 . S
H2310 C2315 0.950 . S
H2311 C2316 0.949 . S
H2312 C2318 0.950 . S
H2313 C2319 0.950 . S
H2314 C2320 0.949 . S
C2315 H2310 0.950 . S
C2315 C2317 1.327 . S
C2315 C2321 1.429 . S
C2316 C2308 1.574 . S
C2316 H2311 0.949 . S
C2316 C2322 1.368 . S
C2317 C2301 1.349 . S
C2317 H2309 0.950 . S
C2317 C2315 1.327 . S
C2318 C2306 1.349 . S
C2318 H2312 0.950 . S
C2318 C2319 1.327 . S
C2319 H2313 0.950 . S
C2319 C2318 1.327 . S
C2319 C2323 1.429 . S
C2320 C2303 1.574 . S
C2320 H2314 0.949 . S
C2320 C2324 1.368 . S
C2321 C2302 1.429 . S
C2321 C2315 1.429 . S
C2321 C2322 1.523 . S
C2322 C2303 1.368 . S
C2322 C2316 1.368 . S
C2322 C2321 1.523 . S
C2323 C2307 1.429 . S
C2323 C2319 1.429 . S
C2323 C2324 1.523 . S
C2324 C2308 1.368 . S
C2324 C2320 1.368 . S
C2324 C2323 1.523 . S
H2325 C2300 0.950 . S
H2326 C2302 0.950 . S
H2327 C2303 0.949 . S
H2328 C2305 0.950 . S
H2329 C2307 0.950 . S
C2330 C2331 1.349 . S
C2330 C2332 1.327 . S
C2330 H2355 0.950 . S
C2331 C2330 1.349 . S
C2331 C2347 1.349 . S
C2332 C2330 1.327 . S
C2332 C2351 1.429 . S
C2332 H2356 0.950 . S
C2333 C2350 1.574 . S
C2333 C2352 1.368 . S
C2333 H2357 0.949 . S
H2334 C2338 0.949 . S
C2335 C2336 1.349 . S
C2335 C2337 1.327 . S
C2335 H2358 0.950 . S
C2336 C2335 1.349 . S
C2336 C2348 1.349 . S
C2337 C2335 1.327 . S
C2337 C2353 1.429 . S
C2337 H2359 0.950 . S
C2338 H2334 0.949 . S
C2338 C2346 1.574 . S
C2338 C2354 1.368 . S
H2339 C2347 0.950 . S
H2340 C2345 0.950 . S
H2341 C2346 0.949 . S
H2342 C2348 0.950 . S
H2343 C2349 0.950 . S
H2344 C2350 0.949 . S
C2345 H2340 0.950 . S
C2345 C2347 1.327 . S
C2345 C2351 1.429 . S
C2346 C2338 1.574 . S
C2346 H2341 0.949 . S
C2346 C2352 1.368 . S
C2347 C2331 1.349 . S
C2347 H2339 0.950 . S
C2347 C2345 1.327 . S
C2348 C2336 1.349 . S
C2348 H2342 0.950 . S
C2348 C2349 1.327 . S
C2349 H2343 0.950 . S
C2349 C2348 1.327 . S
C2349 C2353 1.429 . S
C2350 C2333 1.574 . S
C2350 H2344 0.949 . S
C2350 C2354 1.368 . S
C2351 C2332 1.429 . S
C2351 C2345 1.429 . S
C2351 C2352 1.523 . S
C2352 C2333 1.368 . S
C2352 C2346 1.368 . S
C2352 C2351 1.523 . S
C2353 C2337 1.429 . S
C2353 C2349 1.429 . S
C2353 C2354 1.523 . S
C2354 C2338 1.368 . S
C2354 C2350 1.368 . S
C2354 C2353 1.523 . S
H2355 C2330 0.950 . S
H2356 C2332 0.950 . S
H2357 C2333 0.949 . S
H2358 C2335 0.950 . S
H2359 C2337 0.950 . S
C2360 C2361 1.349 . S
C2360 C2362 1.327 . S
C2360 H2385 0.950 . S
C2361 C2360 1.349 . S
C2361 C2377 1.349 . S
C2362 C2360 1.327 . S
C2362 C2381 1.429 . S
C2362 H2386 0.950 . S
C2363 C2380 1.574 . S
C2363 C2382 1.368 . S
C2363 H2387 0.949 . S
H2364 C2368 0.949 . S
C2365 C2366 1.349 . S
C2365 C2367 1.327 . S
C2365 H2388 0.950 . S
C2366 C2365 1.349 . S
C2366 C2378 1.349 . S
C2367 C2365 1.327 . S
C2367 C2383 1.429 . S
C2367 H2389 0.950 . S
C2368 H2364 0.949 . S
C2368 C2376 1.574 . S
C2368 C2384 1.368 . S
H2369 C2377 0.950 . S
H2370 C2375 0.950 . S
H2371 C2376 0.949 . S
H2372 C2378 0.950 . S
H2373 C2379 0.950 . S
H2374 C2380 0.949 . S
C2375 H2370 0.950 . S
C2375 C2377 1.327 . S
C2375 C2381 1.429 . S
C2376 C2368 1.574 . S
C2376 H2371 0.949 . S
C2376 C2382 1.368 . S
C2377 C2361 1.349 . S
C2377 H2369 0.950 . S
C2377 C2375 1.327 . S
C2378 C2366 1.349 . S
C2378 H2372 0.950 . S
C2378 C2379 1.327 . S
C2379 H2373 0.950 . S
C2379 C2378 1.327 . S
C2379 C2383 1.429 . S
C2380 C2363 1.574 . S
C2380 H2374 0.949 . S
C2380 C2384 1.368 . S
C2381 C2362 1.429 . S
C2381 C2375 1.429 . S
C2381 C2382 1.523 . S
C2382 C2363 1.368 . S
C2382 C2376 1.368 . S
C2382 C2381 1.523 . S
C2383 C2367 1.429 . S
C2383 C2379 1.429 . S
C2383 C2384 1.523 . S
C2384 C2368 1.368 . S
C2384 C2380 1.368 . S
C2384 C2383 1.523 . S
H2385 C2360 0.950 . S
H2386 C2362 0.950 . S
H2387 C2363 0.949 . S
H2388 C2365 0.950 . S
H2389 C2367 0.950 . S
C2390 C2391 1.349 . S
C2390 C2392 1.327 . S
C2390 H2415 0.950 . S
C2391 C2390 1.349 . S
C2391 C2407 1.349 . S
C2392 C2390 1.327 . S
C2392 C2411 1.429 . S
C2392 H2416 0.950 . S
C2393 C2410 1.574 . S
C2393 C2412 1.368 . S
C2393 H2417 0.949 . S
H2394 C2398 0.949 . S
C2395 C2396 1.349 . S
C2395 C2397 1.327 . S
C2395 H2418 0.950 . S
C2396 C2395 1.349 . S
C2396 C2408 1.349 . S
C2397 C2395 1.327 . S
C2397 C2413 1.429 . S
C2397 H2419 0.950 . S
C2398 H2394 0.949 . S
C2398 C2406 1.574 . S
C2398 C2414 1.368 . S
H2399 C2407 0.950 . S
H2400 C2405 0.950 . S
H2401 C2406 0.949 . S
H2402 C2408 0.950 . S
H2403 C2409 0.950 . S
H2404 C2410 0.949 . S
C2405 H2400 0.950 . S
C2405 C2407 1.327 . S
C2405 C2411 1.429 . S
C2406 C2398 1.574 . S
C2406 H2401 0.949 . S
C2406 C2412 1.368 . S
C2407 C2391 1.349 . S
C2407 H2399 0.950 . S
C2407 C2405 1.327 . S
C2408 C2396 1.349 . S
C2408 H2402 0.950 . S
C2408 C2409 1.327 . S
C2409 H2403 0.950 . S
C2409 C2408 1.327 . S
C2409 C2413 1.429 . S
C2410 C2393 1.574 . S
C2410 H2404 0.949 . S
C2410 C2414 1.368 . S
C2411 C2392 1.429 . S
C2411 C2405 1.429 . S
C2411 C2412 1.523 . S
C2412 C2393 1.368 . S
C2412 C2406 1.368 . S
C2412 C2411 1.523 . S
C2413 C2397 1.429 . S
C2413 C2409 1.429 . S
C2413 C2414 1.523 . S
C2414 C2398 1.368 . S
C2414 C2410 1.368 . S
C2414 C2413 1.523 . S
H2415 C2390 0.950 . S
H2416 C2392 0.950 . S
H2417 C2393 0.949 . S
H2418 C2395 0.950 . S
H2419 C2397 0.950 . S
C2420 C2421 1.349 . S
C2420 C2422 1.327 . S
C2420 H2445 0.950 . S
C2421 C2420 1.349 . S
C2421 C2437 1.349 . S
C2422 C2420 1.327 . S
C2422 C2441 1.429 . S
C2422 H2446 0.950 . S
C2423 C2440 1.574 . S
C2423 C2442 1.368 . S
C2423 H2447 0.949 . S
H2424 C2428 0.949 . S
C2425 C2426 1.349 . S
C2425 C2427 1.327 . S
C2425 H2448 0.950 . S
C2426 C2425 1.349 . S
C2426 C2438 1.349 . S
C2427 C2425 1.327 . S
C2427 C2443 1.429 . S
C2427 H2449 0.950 . S
C2428 H2424 0.949 . S
C2428 C2436 1.574 . S
C2428 C2444 1.368 . S
H2429 C2437 0.950 . S
H2430 C2435 0.950 . S
H2431 C2436 0.949 . S
H2432 C2438 0.950 . S
H2433 C2439 0.950 . S
H2434 C2440 0.949 . S
C2435 H2430 0.950 . S
C2435 C2437 1.327 . S
C2435 C2441 1.429 . S
C2436 C2428 1.574 . S
C2436 H2431 0.949 . S
C2436 C2442 1.368 . S
C2437 C2421 1.349 . S
C2437 H2429 0.950 . S
C2437 C2435 1.327 . S
C2438 C2426 1.349 . S
C2438 H2432 0.950 . S
C2438 C2439 1.327 . S
C2439 H2433 0.950 . S
C2439 C2438 1.327 . S
C2439 C2443 1.429 . S
C2440 C2423 1.574 . S
C2440 H2434 0.949 . S
C2440 C2444 1.368 . S
C2441 C2422 1.429 . S
C2441 C2435 1.429 . S
C2441 C2442 1.523 . S
C2442 C2423 1.368 . S
C2442 C2436 1.368 . S
C2442 C2441 1.523 . S
C2443 C2427 1.429 . S
C2443 C2439 1.429 . S
C2443 C2444 1.523 . S
C2444 C2428 1.368 . S
C2444 C2440 1.368 . S
C2444 C2443 1.523 . S
H2445 C2420 0.950 . S
H2446 C2422 0.950 . S
H2447 C2423 0.949 . S
H2448 C2425 0.950 . S
H2449 C2427 0.950 . S
C2450 C2451 1.349 . S
C2450 C2452 1.327 . S
C2450 H2475 0.950 . S
C2451 C2450 1.349 . S
C2451 C2467 1.349 . S
C2452 C2450 1.327 . S
C2452 C2471 1.429 . S
C2452 H2476 0.950 . S
C2453 C2470 1.574 . S
C2453 C2472 1.368 . S
C2453 H2477 0.949 . S
H2454 C2458 0.949 . S
C2455 C2456 1.349 . S
C2455 C2457 1.327 . S
C2455 H2478 0.950 . S
C2456 C2455 1.349 . S
C2456 C2468 1.349 . S
C2457 C2455 1.327 . S
C2457 C2473 1.429 . S
C2457 H2479 0.950 . S
C2458 H2454 0.949 . S
C2458 C2466 1.574 . S
C2458 C2474 1.368 . S
H2459 C2467 0.950 . S
H2460 C2465 0.950 . S
H2461 C2466 0.949 . S
H2462 C2468 0.950 . S
H2463 C2469 0.950 . S
H2464 C2470 0.949 . S
C2465 H2460 0.950 . S
C2465 C2467 1.327 . S
C2465 C2471 1.429 . S
C2466 C2458 1.574 . S
C2466 H2461 0.949 . S
C2466 C2472 1.368 . S
C2467 C2451 1.349 . S
C2467 H2459 0.950 . S
C2467 C2465 1.327 . S
C2468 C2456 1.349 . S
C2468 H2462 0.950 . S
C2468 C2469 1.327 . S
C2469 H2463 0.950 . S
C2469 C2468 1.327 . S
C2469 C2473 1.429 . S
C2470 C2453 1.574 . S
C2470 H2464 0.949 . S
C2470 C2474 1.368 . S
C2471 C2452 1.429 . S
C2471 C2465 1.429 . S
C2471 C2472 1.523 . S
C2472 C2453 1.368 . S
C2472 C2466 1.368 . S
C2472 C2471 1.523 . S
C2473 C2457 1.429 . S
C2473 C2469 1.429 . S
C2473 C2474 1.523 . S
C2474 C2458 1.368 . S
C2474 C2470 1.368 . S
C2474 C2473 1.523 . S
H2475 C2450 0.950 . S
H2476 C2452 0.950 . S
H2477 C2453 0.949 . S
H2478 C2455 0.950 . S
H2479 C2457 0.950 . S
C2480 C2481 1.349 . S
C2480 C2482 1.327 . S
C2480 H2505 0.950 . S
C2481 C2480 1.349 . S
C2481 C2497 1.349 . S
C2482 C2480 1.327 . S
C2482 C2501 1.429 . S
C2482 H2506 0.950 . S
C2483 C2500 1.574 . S
C2483 C2502 1.368 . S
C2483 H2507 0.949 . S
H2484 C2488 0.949 . S
C2485 C2486 1.349 . S
C2485 C2487 1.327 . S
C2485 H2508 0.950 . S
C2486 C2485 1.349 . S
C2486 C2498 1.349 . S
C2487 C2485 1.327 . S
C2487 C2503 1.429 . S
C2487 H2509 0.950 . S
C2488 H2484 0.949 . S
C2488 C2496 1.574 . S
C2488 C2504 1.368 . S
H2489 C2497 0.950 . S
H2490 C2495 0.950 . S
H2491 C2496 0.949 . S
H2492 C2498 0.950 . S
H2493 C2499 0.950 . S
H2494 C2500 0.949 . S
C2495 H2490 0.950 . S
C2495 C2497 1.327 . S
C2495 C2501 1.429 . S
C2496 C2488 1.574 . S
C2496 H2491 0.949 . S
C2496 C2502 1.368 . S
C2497 C2481 1.349 . S
C2497 H2489 0.950 . S
C2497 C2495 1.327 . S
C2498 C2486 1.349 . S
C2498 H2492 0.950 . S
C2498 C2499 1.327 . S
C2499 H2493 0.950 . S
C2499 C2498 1.327 . S
C2499 C2503 1.429 . S
C2500 C2483 1.574 . S
C2500 H2494 0.949 . S
C2500 C2504 1.368 . S
C2501 C2482 1.429 . S
C2501 C2495 1.429 . S
C2501 C2502 1.523 . S
C2502 C2483 1.368 . S
C2502 C2496 1.368 . S
C2502 C2501 1.523 . S
C2503 C2487 1.429 . S
C2503 C2499 1.429 . S
C2503 C2504 1.523 . S
C2504 C2488 1.368 . S
C2504 C2500 1.368 . S
C2504 C2503 1.523 . S
H2505 C2480 0.950 . S
H2506 C2482 0.950 . S
H2507 C2483 0.949 . S
H2508 C2485 0.950 . S
H2509 C2487 0.950 . S
C2510 C2511 1.349 . S
C2510 C2512 1.327 . S
C2510 H2535 0.950 . S
C2511 C2510 1.349 . S
C2511 C2527 1.349 . S
C2512 C2510 1.327 . S
C2512 C2531 1.429 . S
C2512 H2536 0.950 . S
C2513 C2530 1.574 . S
C2513 C2532 1.368 . S
C2513 H2537 0.949 . S
H2514 C2518 0.949 . S
C2515 C2516 1.349 . S
C2515 C2517 1.327 . S
C2515 H2538 0.950 . S
C2516 C2515 1.349 . S
C2516 C2528 1.349 . S
C2517 C2515 1.327 . S
C2517 C2533 1.429 . S
C2517 H2539 0.950 . S
C2518 H2514 0.949 . S
C2518 C2526 1.574 . S
C2518 C2534 1.368 . S
H2519 C2527 0.950 . S
H2520 C2525 0.950 . S
H2521 C2526 0.949 . S
H2522 C2528 0.950 . S
H2523 C2529 0.950 . S
H2524 C2530 0.949 . S
C2525 H2520 0.950 . S
C2525 C2527 1.327 . S
C2525 C2531 1.429 . S
C2526 C2518 1.574 . S
C2526 H2521 0.949 . S
C2526 C2532 1.368 . S
C2527 C2511 1.349 . S
C2527 H2519 0.950 . S
C2527 C2525 1.327 . S
C2528 C2516 1.349 . S
C2528 H2522 0.950 . S
C2528 C2529 1.327 . S
C2529 H2523 0.950 . S
C2529 C2528 1.327 . S
C2529 C2533 1.429 . S
C2530 C2513 1.574 . S
C2530 H2524 0.949 . S
C2530 C2534 1.368 . S
C2531 C2512 1.429 . S
C2531 C2525 1.429 . S
C2531 C2532 1.523 . S
C2532 C2513 1.368 . S
C2532 C2526 1.368 . S
C2532 C2531 1.523 . S
C2533 C2517 1.429 . S
C2533 C2529 1.429 . S
C2533 C2534 1.523 . S
C2534 C2518 1.368 . S
C2534 C2530 1.368 . S
C2534 C2533 1.523 . S
H2535 C2510 0.950 . S
H2536 C2512 0.950 . S
H2537 C2513 0.949 . S
H2538 C2515 0.950 . S
H2539 C2517 0.950 . S
C2540 C2541 1.349 . S
C2540 C2542 1.327 . S
C2540 H2565 0.950 . S
C2541 C2540 1.349 . S
C2541 C2557 1.349 . S
C2542 C2540 1.327 . S
C2542 C2561 1.429 . S
C2542 H2566 0.950 . S
C2543 C2560 1.574 . S
C2543 C2562 1.368 . S
C2543 H2567 0.949 . S
H2544 C2548 0.949 . S
C2545 C2546 1.349 . S
C2545 C2547 1.327 . S
C2545 H2568 0.950 . S
C2546 C2545 1.349 . S
C2546 C2558 1.349 . S
C2547 C2545 1.327 . S
C2547 C2563 1.429 . S
C2547 H2569 0.950 . S
C2548 H2544 0.949 . S
C2548 C2556 1.574 . S
C2548 C2564 1.368 . S
H2549 C2557 0.950 . S
H2550 C2555 0.950 . S
H2551 C2556 0.949 . S
H2552 C2558 0.950 . S
H2553 C2559 0.950 . S
H2554 C2560 0.949 . S
C2555 H2550 0.950 . S
C2555 C2557 1.327 . S
C2555 C2561 1.429 . S
C2556 C2548 1.574 . S
C2556 H2551 0.949 . S
C2556 C2562 1.368 . S
C2557 C2541 1.349 . S
C2557 H2549 0.950 . S
C2557 C2555 1.327 . S
C2558 C2546 1.349 . S
C2558 H2552 0.950 . S
C2558 C2559 1.327 . S
C2559 H2553 0.950 . S
C2559 C2558 1.327 . S
C2559 C2563 1.429 . S
C2560 C2543 1.574 . S
C2560 H2554 0.949 . S
C2560 C2564 1.368 . S
C2561 C2542 1.429 . S
C2561 C2555 1.429 . S
C2561 C2562 1.523 . S
C2562 C2543 1.368 . S
C2562 C2556 1.368 . S
C2562 C2561 1.523 . S
C2563 C2547 1.429 . S
C2563 C2559 1.429 . S
C2563 C2564 1.523 . S
C2564 C2548 1.368 . S
C2564 C2560 1.368 . S
C2564 C2563 1.523 . S
H2565 C2540 0.950 . S
H2566 C2542 0.950 . S
H2567 C2543 0.949 . S
H2568 C2545 0.950 . S
H2569 C2547 0.950 . S
C2570 C2571 1.349 . S
C2570 C2572 1.327 . S
C2570 H2595 0.950 . S
C2571 C2570 1.349 . S
C2571 C2587 1.349 . S
C2572 C2570 1.327 . S
C2572 C2591 1.429 . S
C2572 H2596 0.950 . S
C2573 C2590 1.574 . S
C2573 C2592 1.368 . S
C2573 H2597 0.949 . S
H2574 C2578 0.949 . S
C2575 C2576 1.349 . S
C2575 C2577 1.327 . S
C2575 H2598 0.950 . S
C2576 C2575 1.349 . S
C2576 C2588 1.349 . S
C2577 C2575 1.327 . S
C2577 C2593 1.429 . S
C2577 H2599 0.950 . S
C2578 H2574 0.949 . S
C2578 C2586 1.574 . S
C2578 C2594 1.368 . S
H2579 C2587 0.950 . S
H2580 C2585 0.950 . S
H2581 C2586 0.949 . S
H2582 C2588 0.950 . S
H2583 C2589 0.950 . S
H2584 C2590 0.949 . S
C2585 H2580 0.950 . S
C2585 C2587 1.327 . S
C2585 C2591 1.429 . S
C2586 C2578 1.574 . S
C2586 H2581 0.949 . S
C2586 C2592 1.368 . S
C2587 C2571 1.349 . S
C2587 H2579 0.950 . S
C2587 C2585 1.327 . S
C2588 C2576 1.349 . S
C2588 H2582 0.950 . S
C2588 C2589 1.327 . S
C2589 H2583 0.950 . S
C2589 C2588 1.327 . S
C2589 C2593 1.429 . S
C2590 C2573 1.574 . S
C2590 H2584 0.949 . S
C2590 C2594 1.368 . S
C2591 C2572 1.429 . S
C2591 C2585 1.429 . S
C2591 C2592 1.523 . S
C2592 C2573 1.368 . S
C2592 C2586 1.368 . S
C2592 C2591 1.523 . S
C2593 C2577 1.429 . S
C2593 C2589 1.429 . S
C2593 C2594 1.523 . S
C2594 C2578 1.368 . S
C2594 C2590 1.368 . S
C2594 C2593 1.523 . S
H2595 C2570 0.950 . S
H2596 C2572 0.950 . S
H2597 C2573 0.949 . S
H2598 C2575 0.950 . S
H2599 C2577 0.950 . S
C2600 C2601 1.349 . S
C2600 C2602 1.327 . S
C2600 H2625 0.950 . S
C2601 C2600 1.349 . S
C2601 C2617 1.349 . S
C2602 C2600 1.327 . S
C2602 C2621 1.429 . S
C2602 H2626 0.950 . S
C2603 C2620 1.574 . S
C2603 C2622 1.368 . S
C2603 H2627 0.949 . S
H2604 C2608 0.949 . S
C2605 C2606 1.349 . S
C2605 C2607 1.327 . S
C2605 H2628 0.950 . S
C2606 C2605 1.349 . S
C2606 C2618 1.349 . S
C2607 C2605 1.327 . S
C2607 C2623 1.429 . S
C2607 H2629 0.950 . S
C2608 H2604 0.949 . S
C2608 C2616 1.574 . S
C2608 C2624 1.368 . S
H2609 C2617 0.950 . S
H2610 C2615 0.950 . S
H2611 C2616 0.949 . S
H2612 C2618 0.950 . S
H2613 C2619 0.950 . S
H2614 C2620 0.949 . S
C2615 H2610 0.950 . S
C2615 C2617 1.327 . S
C2615 C2621 1.429 . S
C2616 C2608 1.574 . S
C2616 H2611 0.949 . S
C2616 C2622 1.368 . S
C2617 C2601 1.349 . S
C2617 H2609 0.950 . S
C2617 C2615 1.327 . S
C2618 C2606 1.349 . S
C2618 H2612 0.950 . S
C2618 C2619 1.327 . S
C2619 H2613 0.950 . S
C2619 C2618 1.327 . S
C2619 C2623 1.429 . S
C2620 C2603 1.574 . S
C2620 H2614 0.949 . S
C2620 C2624 1.368 . S
C2621 C2602 1.429 . S
C2621 C2615 1.429 . S
C2621 C2622 1.523 . S
C2622 C2603 1.368 . S
C2622 C2616 1.368 . S
C2622 C2621 1.523 . S
C2623 C2607 1.429 . S
C2623 C2619 1.429 . S
C2623 C2624 1.523 . S
C2624 C2608 1.368 . S
C2624 C2620 1.368 . S
C2624 C2623 1.523 . S
H2625 C2600 0.950 . S
H2626 C2602 0.950 . S
H2627 C2603 0.949 . S
H2628 C2605 0.950 . S
H2629 C2607 0.950 . S
C2630 C2631 1.349 . S
C2630 C2632 1.327 . S
C2630 H2655 0.950 . S
C2631 C2630 1.349 . S
C2631 C2647 1.349 . S
C2632 C2630 1.327 . S
C2632 C2651 1.429 . S
C2632 H2656 0.950 . S
C2633 C2650 1.574 . S
C2633 C2652 1.368 . S
C2633 H2657 0.949 . S
H2634 C2638 0.949 . S
C2635 C2636 1.349 . S
C2635 C2637 1.327 . S
C2635 H2658 0.950 . S
C2636 C2635 1.349 . S
C2636 C2648 1.349 . S
C2637 C2635 1.327 . S
C2637 C2653 1.429 . S
C2637 H2659 0.950 . S
C2638 H2634 0.949 . S
C2638 C2646 1.574 . S
C2638 C2654 1.368 . S
H2639 C2647 0.950 . S
H2640 C2645 0.950 . S
H2641 C2646 0.949 . S
H2642 C2648 0.950 . S
H2643 C2649 0.950 . S
H2644 C2650 0.949 . S
C2645 H2640 0.950 . S
C2645 C2647 1.327 . S
C2645 C2651 1.429 . S
C2646 C2638 1.574 . S
C2646 H2641 0.949 . S
C2646 C2652 1.368 . S
C2647 C2631 1.349 . S
C2647 H2639 0.950 . S
C2647 C2645 1.327 . S
C2648 C2636 1.349 . S
C2648 H2642 0.950 . S
C2648 C2649 1.327 . S
C2649 H2643 0.950 . S
C2649 C2648 1.327 . S
C2649 C2653 1.429 . S
C2650 C2633 1.574 . S
C2650 H2644 0.949 . S
C2650 C2654 1.368 . S
C2651 C2632 1.429 . S
C2651 C2645 1.429 . S
C2651 C2652 1.523 . S
C2652 C2633 1.368 . S
C2652 C2646 1.368 . S
C2652 C2651 1.523 . S
C2653 C2637 1.429 . S
C2653 C2649 1.429 . S
C2653 C2654 1.523 . S
C2654 C2638 1.368 . S
C2654 C2650 1.368 . S
C2654 C2653 1.523 . S
H2655 C2630 0.950 . S
H2656 C2632 0.950 . S
H2657 C2633 0.949 . S
H2658 C2635 0.950 . S
H2659 C2637 0.950 . S
C2660 C2661 1.349 . S
C2660 C2662 1.327 . S
C2660 H2685 0.950 . S
C2661 C2660 1.349 . S
C2661 C2677 1.349 . S
C2662 C2660 1.327 . S
C2662 C2681 1.429 . S
C2662 H2686 0.950 . S
C2663 C2680 1.574 . S
C2663 C2682 1.368 . S
C2663 H2687 0.949 . S
H2664 C2668 0.949 . S
C2665 C2666 1.349 . S
C2665 C2667 1.327 . S
C2665 H2688 0.950 . S
C2666 C2665 1.349 . S
C2666 C2678 1.349 . S
C2667 C2665 1.327 . S
C2667 C2683 1.429 . S
C2667 H2689 0.950 . S
C2668 H2664 0.949 . S
C2668 C2676 1.574 . S
C2668 C2684 1.368 . S
H2669 C2677 0.950 . S
H2670 C2675 0.950 . S
H2671 C2676 0.949 . S
H2672 C2678 0.950 . S
H2673 C2679 0.950 . S
H2674 C2680 0.949 . S
C2675 H2670 0.950 . S
C2675 C2677 1.327 . S
C2675 C2681 1.429 . S
C2676 C2668 1.574 . S
C2676 H2671 0.949 . S
C2676 C2682 1.368 . S
C2677 C2661 1.349 . S
C2677 H2669 0.950 . S
C2677 C2675 1.327 . S
C2678 C2666 1.349 . S
C2678 H2672 0.950 . S
C2678 C2679 1.327 . S
C2679 H2673 0.950 . S
C2679 C2678 1.327 . S
C2679 C2683 1.429 . S
C2680 C2663 1.574 . S
C2680 H2674 0.949 . S
C2680 C2684 1.368 . S
C2681 C2662 1.429 . S
C2681 C2675 1.429 . S
C2681 C2682 1.523 . S
C2682 C2663 1.368 . S
C2682 C2676 1.368 . S
C2682 C2681 1.523 . S
C2683 C2667 1.429 . S
C2683 C2679 1.429 . S
C2683 C2684 1.523 . S
C2684 C2668 1.368 . S
C2684 C2680 1.368 . S
C2684 C2683 1.523 . S
H2685 C2660 0.950 . S
H2686 C2662 0.950 . S
H2687 C2663 0.949 . S
H2688 C2665 0.950 . S
H2689 C2667 0.950 . S
C2690 C2691 1.349 . S
C2690 C2692 1.327 . S
C2690 H2715 0.950 . S
C2691 C2690 1.349 . S
C2691 C2707 1.349 . S
C2692 C2690 1.327 . S
C2692 C2711 1.429 . S
C2692 H2716 0.950 . S
C2693 C2710 1.574 . S
C2693 C2712 1.368 . S
C2693 H2717 0.949 . S
H2694 C2698 0.949 . S
C2695 C2696 1.349 . S
C2695 C2697 1.327 . S
C2695 H2718 0.950 . S
C2696 C2695 1.349 . S
C2696 C2708 1.349 . S
C2697 C2695 1.327 . S
C2697 C2713 1.429 . S
C2697 H2719 0.950 . S
C2698 H2694 0.949 . S
C2698 C2706 1.574 . S
C2698 C2714 1.368 . S
H2699 C2707 0.950 . S
H2700 C2705 0.950 . S
H2701 C2706 0.949 . S
H2702 C2708 0.950 . S
H2703 C2709 0.950 . S
H2704 C2710 0.949 . S
C2705 H2700 0.950 . S
C2705 C2707 1.327 . S
C2705 C2711 1.429 . S
C2706 C2698 1.574 . S
C2706 H2701 0.949 . S
C2706 C2712 1.368 . S
C2707 C2691 1.349 . S
C2707 H2699 0.950 . S
C2707 C2705 1.327 . S
C2708 C2696 1.349 . S
C2708 H2702 0.950 . S
C2708 C2709 1.327 . S
C2709 H2703 0.950 . S
C2709 C2708 1.327 . S
C2709 C2713 1.429 . S
C2710 C2693 1.574 . S
C2710 H2704 0.949 . S
C2710 C2714 1.368 . S
C2711 C2692 1.429 . S
C2711 C2705 1.429 . S
C2711 C2712 1.523 . S
C2712 C2693 1.368 . S
C2712 C2706 1.368 . S
C2712 C2711 1.523 . S
C2713 C2697 1.429 . S
C2713 C2709 1.429 . S
C2713 C2714 1.523 . S
C2714 C2698 1.368 . S
C2714 C2710 1.368 . S
C2714 C2713 1.523 . S
H2715 C2690 0.950 . S
H2716 C2692 0.950 . S
H2717 C2693 0.949 . S
H2718 C2695 0.950 . S
H2719 C2697 0.950 . S
C2720 C2721 1.349 . S
C2720 C2722 1.327 . S
C2720 H2745 0.950 . S
C2721 C2720 1.349 . S
C2721 C2737 1.349 . S
C2722 C2720 1.327 . S
C2722 C2741 1.429 . S
C2722 H2746 0.950 . S
C2723 C2740 1.574 . S
C2723 C2742 1.368 . S
C2723 H2747 0.949 . S
H2724 C2728 0.949 . S
C2725 C2726 1.349 . S
C2725 C2727 1.327 . S
C2725 H2748 0.950 . S
C2726 C2725 1.349 . S
C2726 C2738 1.349 . S
C2727 C2725 1.327 . S
C2727 C2743 1.429 . S
C2727 H2749 0.950 . S
C2728 H2724 0.949 . S
C2728 C2736 1.574 . S
C2728 C2744 1.368 . S
H2729 C2737 0.950 . S
H2730 C2735 0.950 . S
H2731 C2736 0.949 . S
H2732 C2738 0.950 . S
H2733 C2739 0.950 . S
H2734 C2740 0.949 . S
C2735 H2730 0.950 . S
C2735 C2737 1.327 . S
C2735 C2741 1.429 . S
C2736 C2728 1.574 . S
C2736 H2731 0.949 . S
C2736 C2742 1.368 . S
C2737 C2721 1.349 . S
C2737 H2729 0.950 . S
C2737 C2735 1.327 . S
C2738 C2726 1.349 . S
C2738 H2732 0.950 . S
C2738 C2739 1.327 . S
C2739 H2733 0.950 . S
C2739 C2738 1.327 . S
C2739 C2743 1.429 . S
C2740 C2723 1.574 . S
C2740 H2734 0.949 . S
C2740 C2744 1.368 . S
C2741 C2722 1.429 . S
C2741 C2735 1.429 . S
C2741 C2742 1.523 . S
C2742 C2723 1.368 . S
C2742 C2736 1.368 . S
C2742 C2741 1.523 . S
C2743 C2727 1.429 . S
C2743 C2739 1.429 . S
C2743 C2744 1.523 . S
C2744 C2728 1.368 . S
C2744 C2740 1.368 . S
C2744 C2743 1.523 . S
H2745 C2720 0.950 . S
H2746 C2722 0.950 . S
H2747 C2723 0.949 . S
H2748 C2725 0.950 . S
H2749 C2727 0.950 . S
C2750 C2751 1.349 . S
C2750 C2752 1.327 . S
C2750 H2775 0.950 . S
C2751 C2750 1.349 . S
C2751 C2767 1.349 . S
C2752 C2750 1.327 . S
C2752 C2771 1.429 . S
C2752 H2776 0.950 . S
C2753 C2770 1.574 . S
C2753 C2772 1.368 . S
C2753 H2777 0.949 . S
H2754 C2758 0.949 . S
C2755 C2756 1.349 . S
C2755 C2757 1.327 . S
C2755 H2778 0.950 . S
C2756 C2755 1.349 . S
C2756 C2768 1.349 . S
C2757 C2755 1.327 . S
C2757 C2773 1.429 . S
C2757 H2779 0.950 . S
C2758 H2754 0.949 . S
C2758 C2766 1.574 . S
C2758 C2774 1.368 . S
H2759 C2767 0.950 . S
H2760 C2765 0.950 . S
H2761 C2766 0.949 . S
H2762 C2768 0.950 . S
H2763 C2769 0.950 . S
H2764 C2770 0.949 . S
C2765 H2760 0.950 . S
C2765 C2767 1.327 . S
C2765 C2771 1.429 . S
C2766 C2758 1.574 . S
C2766 H2761 0.949 . S
C2766 C2772 1.368 . S
C2767 C2751 1.349 . S
C2767 H2759 0.950 . S
C2767 C2765 1.327 . S
C2768 C2756 1.349 . S
C2768 H2762 0.950 . S
C2768 C2769 1.327 . S
C2769 H2763 0.950 . S
C2769 C2768 1.327 . S
C2769 C2773 1.429 . S
C2770 C2753 1.574 . S
C2770 H2764 0.949 . S
C2770 C2774 1.368 . S
C2771 C2752 1.429 . S
C2771 C2765 1.429 . S
C2771 C2772 1.523 . S
C2772 C2753 1.368 . S
C2772 C2766 1.368 . S
C2772 C2771 1.523 . S
C2773 C2757 1.429 . S
C2773 C2769 1.429 . S
C2773 C2774 1.523 . S
C2774 C2758 1.368 . S
C2774 C2770 1.368 . S
C2774 C2773 1.523 . S
H2775 C2750 0.950 . S
H2776 C2752 0.950 . S
H2777 C2753 0.949 . S
H2778 C2755 0.950 . S
H2779 C2757 0.950 . S
C2780 C2781 1.349 . S
C2780 C2782 1.327 . S
C2780 H2805 0.950 . S
C2781 C2780 1.349 . S
C2781 C2797 1.349 . S
C2782 C2780 1.327 . S
C2782 C2801 1.429 . S
C2782 H2806 0.950 . S
C2783 C2800 1.574 . S
C2783 C2802 1.368 . S
C2783 H2807 0.949 . S
H2784 C2788 0.949 . S
C2785 C2786 1.349 . S
C2785 C2787 1.327 . S
C2785 H2808 0.950 . S
C2786 C2785 1.349 . S
C2786 C2798 1.349 . S
C2787 C2785 1.327 . S
C2787 C2803 1.429 . S
C2787 H2809 0.950 . S
C2788 H2784 0.949 . S
C2788 C2796 1.574 . S
C2788 C2804 1.368 . S
H2789 C2797 0.950 . S
H2790 C2795 0.950 . S
H2791 C2796 0.949 . S
H2792 C2798 0.950 . S
H2793 C2799 0.950 . S
H2794 C2800 0.949 . S
C2795 H2790 0.950 . S
C2795 C2797 1.327 . S
C2795 C2801 1.429 . S
C2796 C2788 1.574 . S
C2796 H2791 0.949 . S
C2796 C2802 1.368 . S
C2797 C2781 1.349 . S
C2797 H2789 0.950 . S
C2797 C2795 1.327 . S
C2798 C2786 1.349 . S
C2798 H2792 0.950 . S
C2798 C2799 1.327 . S
C2799 H2793 0.950 . S
C2799 C2798 1.327 . S
C2799 C2803 1.429 . S
C2800 C2783 1.574 . S
C2800 H2794 0.949 . S
C2800 C2804 1.368 . S
C2801 C2782 1.429 . S
C2801 C2795 1.429 . S
C2801 C2802 1.523 . S
C2802 C2783 1.368 . S
C2802 C2796 1.368 . S
C2802 C2801 1.523 . S
C2803 C2787 1.429 . S
C2803 C2799 1.429 . S
C2803 C2804 1.523 . S
C2804 C2788 1.368 . S
C2804 C2800 1.368 . S
C2804 C2803 1.523 . S
H2805 C2780 0.950 . S
H2806 C2782 0.950 . S
H2807 C2783 0.949 . S
H2808 C2785 0.950 . S
H2809 C2787 0.950 . S
C2810 C2811 1.349 . S
C2810 C2812 1.327 . S
C2810 H2835 0.950 . S
C2811 C2810 1.349 . S
C2811 C2827 1.349 . S
C2812 C2810 1.327 . S
C2812 C2831 1.429 . S
C2812 H2836 0.950 . S
C2813 C2830 1.574 . S
C2813 C2832 1.368 . S
C2813 H2837 0.949 . S
H2814 C2818 0.949 . S
C2815 C2816 1.349 . S
C2815 C2817 1.327 . S
C2815 H2838 0.950 . S
C2816 C2815 1.349 . S
C2816 C2828 1.349 . S
C2817 C2815 1.327 . S
C2817 C2833 1.429 . S
C2817 H2839 0.950 . S
C2818 H2814 0.949 . S
C2818 C2826 1.574 . S
C2818 C2834 1.368 . S
H2819 C2827 0.950 . S
H2820 C2825 0.950 . S
H2821 C2826 0.949 . S
H2822 C2828 0.950 . S
H2823 C2829 0.950 . S
H2824 C2830 0.949 . S
C2825 H2820 0.950 . S
C2825 C2827 1.327 . S
C2825 C2831 1.429 . S
C2826 C2818 1.574 . S
C2826 H2821 0.949 . S
C2826 C2832 1.368 . S
C2827 C2811 1.349 . S
C2827 H2819 0.950 . S
C2827 C2825 1.327 . S
C2828 C2816 1.349 . S
C2828 H2822 0.950 . S
C2828 C2829 1.327 . S
C2829 H2823 0.950 . S
C2829 C2828 1.327 . S
C2829 C2833 1.429 . S
C2830 C2813 1.574 . S
C2830 H2824 0.949 . S
C2830 C2834 1.368 . S
C2831 C2812 1.429 . S
C2831 C2825 1.429 . S
C2831 C2832 1.523 . S
C2832 C2813 1.368 . S
C2832 C2826 1.368 . S
C2832 C2831 1.523 . S
C2833 C2817 1.429 . S
C2833 C2829 1.429 . S
C2833 C2834 1.523 . S
C2834 C2818 1.368 . S
C2834 C2830 1.368 . S
C2834 C2833 1.523 . S
H2835 C2810 0.950 . S
H2836 C2812 0.950 . S
H2837 C2813 0.949 . S
H2838 C2815 0.950 . S
H2839 C2817 0.950 . S
C2840 C2841 1.349 . S
C2840 C2842 1.327 . S
C2840 H2865 0.950 . S
C2841 C2840 1.349 . S
C2841 C2857 1.349 . S
C2842 C2840 1.327 . S
C2842 C2861 1.429 . S
C2842 H2866 0.950 . S
C2843 C2860 1.574 . S
C2843 C2862 1.368 . S
C2843 H2867 0.949 . S
H2844 C2848 0.949 . S
C2845 C2846 1.349 . S
C2845 C2847 1.327 . S
C2845 H2868 0.950 . S
C2846 C2845 1.349 . S
C2846 C2858 1.349 . S
C2847 C2845 1.327 . S
C2847 C2863 1.429 . S
C2847 H2869 0.950 . S
C2848 H2844 0.949 . S
C2848 C2856 1.574 . S
C2848 C2864 1.368 . S
H2849 C2857 0.950 . S
H2850 C2855 0.950 . S
H2851 C2856 0.949 . S
H2852 C2858 0.950 . S
H2853 C2859 0.950 . S
H2854 C2860 0.949 . S
C2855 H2850 0.950 . S
C2855 C2857 1.327 . S
C2855 C2861 1.429 . S
C2856 C2848 1.574 . S
C2856 H2851 0.949 . S
C2856 C2862 1.368 . S
C2857 C2841 1.349 . S
C2857 H2849 0.950 . S
C2857 C2855 1.327 . S
C2858 C2846 1.349 . S
C2858 H2852 0.950 . S
C2858 C2859 1.327 . S
C2859 H2853 0.950 . S
C2859 C2858 1.327 . S
C2859 C2863 1.429 . S
C2860 C2843 1.574 . S
C2860 H2854 0.949 . S
C2860 C2864 1.368 . S
C2861 C2842 1.429 . S
C2861 C2855 1.429 . S
C2861 C2862 1.523 . S
C2862 C2843 1.368 . S
C2862 C2856 1.368 . S
C2862 C2861 1.523 . S
C2863 C2847 1.429 . S
C2863 C2859 1.429 . S
C2863 C2864 1.523 . S
C2864 C2848 1.368 . S
C2864 C2860 1.368 . S
C2864 C2863 1.523 . S
H2865 C2840 0.950 . S
H2866 C2842 0.950 . S
H2867 C2843 0.949 . S
H2868 C2845 0.950 . S
H2869 C2847 0.950 . S
C2870 C2871 1.349 . S
C2870 C2872 1.327 . S
C2870 H2895 0.950 . S
C2871 C2870 1.349 . S
C2871 C2887 1.349 . S
C2872 C2870 1.327 . S
C2872 C2891 1.429 . S
C2872 H2896 0.950 . S
C2873 C2890 1.574 . S
C2873 C2892 1.368 . S
C2873 H2897 0.949 . S
H2874 C2878 0.949 . S
C2875 C2876 1.349 . S
C2875 C2877 1.327 . S
C2875 H2898 0.950 . S
C2876 C2875 1.349 . S
C2876 C2888 1.349 . S
C2877 C2875 1.327 . S
C2877 C2893 1.429 . S
C2877 H2899 0.950 . S
C2878 H2874 0.949 . S
C2878 C2886 1.574 . S
C2878 C2894 1.368 . S
H2879 C2887 0.950 . S
H2880 C2885 0.950 . S
H2881 C2886 0.949 . S
H2882 C2888 0.950 . S
H2883 C2889 0.950 . S
H2884 C2890 0.949 . S
C2885 H2880 0.950 . S
C2885 C2887 1.327 . S
C2885 C2891 1.429 . S
C2886 C2878 1.574 . S
C2886 H2881 0.949 . S
C2886 C2892 1.368 . S
C2887 C2871 1.349 . S
C2887 H2879 0.950 . S
C2887 C2885 1.327 . S
C2888 C2876 1.349 . S
C2888 H2882 0.950 . S
C2888 C2889 1.327 . S
C2889 H2883 0.950 . S
C2889 C2888 1.327 . S
C2889 C2893 1.429 . S
C2890 C2873 1.574 . S
C2890 H2884 0.949 . S
C2890 C2894 1.368 . S
C2891 C2872 1.429 . S
C2891 C2885 1.429 . S
C2891 C2892 1.523 . S
C2892 C2873 1.368 . S
C2892 C2886 1.368 . S
C2892 C2891 1.523 . S
C2893 C2877 1.429 . S
C2893 C2889 1.429 . S
C2893 C2894 1.523 . S
C2894 C2878 1.368 . S
C2894 C2890 1.368 . S
C2894 C2893 1.523 . S
H2895 C2870 0.950 . S
H2896 C2872 0.950 . S
H2897 C2873 0.949 . S
H2898 C2875 0.950 . S
H2899 C2877 0.950 . S
C2900 C2901 1.349 . S
C2900 C2902 1.327 . S
C2900 H2925 0.950 . S
C2901 C2900 1.349 . S
C2901 C2917 1.349 . S
C2902 C2900 1.327 . S
C2902 C2921 1.429 . S
C2902 H2926 0.950 . S
C2903 C2920 1.574 . S
C2903 C2922 1.368 . S
C2903 H2927 0.949 . S
H2904 C2908 0.949 . S
C2905 C2906 1.349 . S
C2905 C2907 1.327 . S
C2905 H2928 0.950 . S
C2906 C2905 1.349 . S
C2906 C2918 1.349 . S
C2907 C2905 1.327 . S
C2907 C2923 1.429 . S
C2907 H2929 0.950 . S
C2908 H2904 0.949 . S
C2908 C2916 1.574 . S
C2908 C2924 1.368 . S
H2909 C2917 0.950 . S
H2910 C2915 0.950 . S
H2911 C2916 0.949 . S
H2912 C2918 0.950 . S
H2913 C2919 0.950 . S
H2914 C2920 0.949 . S
C2915 H2910 0.950 . S
C2915 C2917 1.327 . S
C2915 C2921 1.429 . S
C2916 C2908 1.574 . S
C2916 H2911 0.949 . S
C2916 C2922 1.368 . S
C2917 C2901 1.349 . S
C2917 H2909 0.950 . S
C2917 C2915 1.327 . S
C2918 C2906 1.349 . S
C2918 H2912 0.950 . S
C2918 C2919 1.327 . S
C2919 H2913 0.950 . S
C2919 C2918 1.327 . S
C2919 C2923 1.429 . S
C2920 C2903 1.574 . S
C2920 H2914 0.949 . S
C2920 C2924 1.368 . S
C2921 C2902 1.429 . S
C2921 C2915 1.429 . S
C2921 C2922 1.523 . S
C2922 C2903 1.368 . S
C2922 C2916 1.368 . S
C2922 C2921 1.523 . S
C2923 C2907 1.429 . S
C2923 C2919 1.429 . S
C2923 C2924 1.523 . S
C2924 C2908 1.368 . S
C2924 C2920 1.368 . S
C2924 C2923 1.523 . S
H2925 C2900 0.950 . S
H2926 C2902 0.950 . S
H2927 C2903 0.949 . S
H2928 C2905 0.950 . S
H2929 C2907 0.950 . S
C2930 C2931 1.349 . S
C2930 C2932 1.327 . S
C2930 H2955 0.950 . S
C2931 C2930 1.349 . S
C2931 C2947 1.349 . S
C2932 C2930 1.327 . S
C2932 C2951 1.429 . S
C2932 H2956 0.950 . S
C2933 C2950 1.574 . S
C2933 C2952 1.368 . S
C2933 H2957 0.949 . S
H2934 C2938 0.949 . S
C2935 C2936 1.349 . S
C2935 C2937 1.327 . S
C2935 H2958 0.950 . S
C2936 C2935 1.349 . S
C2936 C2948 1.349 . S
C2937 C2935 1.327 . S
C2937 C2953 1.429 . S
C2937 H2959 0.950 . S
C2938 H2934 0.949 . S
C2938 C2946 1.574 . S
C2938 C2954 1.368 . S
H2939 C2947 0.950 . S
H2940 C2945 0.950 . S
H2941 C2946 0.949 . S
H2942 C2948 0.950 . S
H2943 C2949 0.950 . S
H2944 C2950 0.949 . S
C2945 H2940 0.950 . S
C2945 C2947 1.327 . S
C2945 C2951 1.429 . S
C2946 C2938 1.574 . S
C2946 H2941 0.949 . S
C2946 C2952 1.368 . S
C2947 C2931 1.349 . S
C2947 H2939 0.950 . S
C2947 C2945 1.327 . S
C2948 C2936 1.349 . S
C2948 H2942 0.950 . S
C2948 C2949 1.327 . S
C2949 H2943 0.950 . S
C2949 C2948 1.327 . S
C2949 C2953 1.429 . S
C2950 C2933 1.574 . S
C2950 H2944 0.949 . S
C2950 C2954 1.368 . S
C2951 C2932 1.429 . S
C2951 C2945 1.429 . S
C2951 C2952 1.523 . S
C2952 C2933 1.368 . S
C2952 C2946 1.368 . S
C2952 C2951 1.523 . S
C2953 C2937 1.429 . S
C2953 C2949 1.429 . S
C2953 C2954 1.523 . S
C2954 C2938 1.368 . S
C2954 C2950 1.368 . S
C2954 C2953 1.523 . S
H2955 C2930 0.950 . S
H2956 C2932 0.950 . S
H2957 C2933 0.949 . S
H2958 C2935 0.950 . S
H2959 C2937 0.950 . S
C2960 C2961 1.349 . S
C2960 C2962 1.327 . S
C2960 H2985 0.950 . S
C2961 C2960 1.349 . S
C2961 C2977 1.349 1_545 S
C2962 C2960 1.327 . S
C2962 C2981 1.429 . S
C2962 H2986 0.950 . S
C2963 C2980 1.574 . S
C2963 C2982 1.368 1_565 S
C2963 H2987 0.949 . S
H2964 C2968 0.949 . S
C2965 C2966 1.349 . S
C2965 C2967 1.327 . S
C2965 H2988 0.950 . S
C2966 C2965 1.349 . S
C2966 C2978 1.349 1_565 S
C2967 C2965 1.327 . S
C2967 C2983 1.429 . S
C2967 H2989 0.950 . S
C2968 H2964 0.949 . S
C2968 C2976 1.574 . S
C2968 C2984 1.368 1_545 S
H2969 C2977 0.950 . S
H2970 C2975 0.950 . S
H2971 C2976 0.949 . S
H2972 C2978 0.950 . S
H2973 C2979 0.950 . S
H2974 C2980 0.949 . S
C2975 H2970 0.950 . S
C2975 C2977 1.327 . S
C2975 C2981 1.429 1_565 S
C2976 C2968 1.574 . S
C2976 H2971 0.949 . S
C2976 C2982 1.368 . S
C2977 C2961 1.349 1_565 S
C2977 H2969 0.950 . S
C2977 C2975 1.327 . S
C2978 C2966 1.349 1_545 S
C2978 H2972 0.950 . S
C2978 C2979 1.327 . S
C2979 H2973 0.950 . S
C2979 C2978 1.327 . S
C2979 C2983 1.429 1_545 S
C2980 C2963 1.574 . S
C2980 H2974 0.949 . S
C2980 C2984 1.368 . S
C2981 C2962 1.429 . S
C2981 C2975 1.429 1_545 S
C2981 C2982 1.523 . S
C2982 C2963 1.368 1_545 S
C2982 C2976 1.368 . S
C2982 C2981 1.523 . S
C2983 C2967 1.429 . S
C2983 C2979 1.429 1_565 S
C2983 C2984 1.523 . S
C2984 C2968 1.368 1_565 S
C2984 C2980 1.368 . S
C2984 C2983 1.523 . S
H2985 C2960 0.950 . S
H2986 C2962 0.950 . S
H2987 C2963 0.949 . S
H2988 C2965 0.950 . S
H2989 C2967 0.950 . S
C2990 C2991 1.349 . S
C2990 C2992 1.327 . S
C2990 H3015 0.950 . S
C2991 C2990 1.349 . S
C2991 C3007 1.349 . S
C2992 C2990 1.327 . S
C2992 C3011 1.429 . S
C2992 H3016 0.950 . S
C2993 C3010 1.574 . S
C2993 C3012 1.368 . S
C2993 H3017 0.949 . S
H2994 C2998 0.949 . S
C2995 C2996 1.349 . S
C2995 C2997 1.327 . S
C2995 H3018 0.950 . S
C2996 C2995 1.349 . S
C2996 C3008 1.349 . S
C2997 C2995 1.327 . S
C2997 C3013 1.429 . S
C2997 H3019 0.950 . S
C2998 H2994 0.949 . S
C2998 C3006 1.574 . S
C2998 C3014 1.368 . S
H2999 C3007 0.950 . S
H3000 C3005 0.950 . S
H3001 C3006 0.949 . S
H3002 C3008 0.950 . S
H3003 C3009 0.950 . S
H3004 C3010 0.949 . S
C3005 H3000 0.950 . S
C3005 C3007 1.327 . S
C3005 C3011 1.429 . S
C3006 C2998 1.574 . S
C3006 H3001 0.949 . S
C3006 C3012 1.368 . S
C3007 C2991 1.349 . S
C3007 H2999 0.950 . S
C3007 C3005 1.327 . S
C3008 C2996 1.349 . S
C3008 H3002 0.950 . S
C3008 C3009 1.327 . S
C3009 H3003 0.950 . S
C3009 C3008 1.327 . S
C3009 C3013 1.429 . S
C3010 C2993 1.574 . S
C3010 H3004 0.949 . S
C3010 C3014 1.368 . S
C3011 C2992 1.429 . S
C3011 C3005 1.429 . S
C3011 C3012 1.523 . S
C3012 C2993 1.368 . S
C3012 C3006 1.368 . S
C3012 C3011 1.523 . S
C3013 C2997 1.429 . S
C3013 C3009 1.429 . S
C3013 C3014 1.523 . S
C3014 C2998 1.368 . S
C3014 C3010 1.368 . S
C3014 C3013 1.523 . S
H3015 C2990 0.950 . S
H3016 C2992 0.950 . S
H3017 C2993 0.949 . S
H3018 C2995 0.950 . S
H3019 C2997 0.950 . S
C3020 C3021 1.349 . S
C3020 C3022 1.327 . S
C3020 H3045 0.950 . S
C3021 C3020 1.349 . S
C3021 C3037 1.349 . S
C3022 C3020 1.327 . S
C3022 C3041 1.429 . S
C3022 H3046 0.950 . S
C3023 C3040 1.574 . S
C3023 C3042 1.368 . S
C3023 H3047 0.949 . S
H3024 C3028 0.949 . S
C3025 C3026 1.349 . S
C3025 C3027 1.327 . S
C3025 H3048 0.950 . S
C3026 C3025 1.349 . S
C3026 C3038 1.349 . S
C3027 C3025 1.327 . S
C3027 C3043 1.429 . S
C3027 H3049 0.950 . S
C3028 H3024 0.949 . S
C3028 C3036 1.574 . S
C3028 C3044 1.368 . S
H3029 C3037 0.950 . S
H3030 C3035 0.950 . S
H3031 C3036 0.949 . S
H3032 C3038 0.950 . S
H3033 C3039 0.950 . S
H3034 C3040 0.949 . S
C3035 H3030 0.950 . S
C3035 C3037 1.327 . S
C3035 C3041 1.429 . S
C3036 C3028 1.574 . S
C3036 H3031 0.949 . S
C3036 C3042 1.368 . S
C3037 C3021 1.349 . S
C3037 H3029 0.950 . S
C3037 C3035 1.327 . S
C3038 C3026 1.349 . S
C3038 H3032 0.950 . S
C3038 C3039 1.327 . S
C3039 H3033 0.950 . S
C3039 C3038 1.327 . S
C3039 C3043 1.429 . S
C3040 C3023 1.574 . S
C3040 H3034 0.949 . S
C3040 C3044 1.368 . S
C3041 C3022 1.429 . S
C3041 C3035 1.429 . S
C3041 C3042 1.523 . S
C3042 C3023 1.368 . S
C3042 C3036 1.368 . S
C3042 C3041 1.523 . S
C3043 C3027 1.429 . S
C3043 C3039 1.429 . S
C3043 C3044 1.523 . S
C3044 C3028 1.368 . S
C3044 C3040 1.368 . S
C3044 C3043 1.523 . S
H3045 C3020 0.950 . S
H3046 C3022 0.950 . S
H3047 C3023 0.949 . S
H3048 C3025 0.950 . S
H3049 C3027 0.950 . S
C3050 C3051 1.348 1_565 S
C3050 C3052 1.327 . S
C3050 H3075 0.951 . S
C3051 C3050 1.348 1_545 S
C3051 C3067 1.349 . S
C3052 C3050 1.327 . S
C3052 C3071 1.429 1_565 S
C3052 H3076 0.950 . S
C3053 C3070 1.574 . S
C3053 C3072 1.368 . S
C3053 H3077 0.949 . S
H3054 C3058 0.949 . S
C3055 C3056 1.348 . S
C3055 C3057 1.327 1_565 S
C3055 H3078 0.951 1_565 S
C3056 C3055 1.348 . S
C3056 C3068 1.349 . S
C3057 C3055 1.327 1_545 S
C3057 C3073 1.429 1_545 S
C3057 H3079 0.950 . S
C3058 H3054 0.949 . S
C3058 C3066 1.574 . S
C3058 C3074 1.368 . S
H3059 C3067 0.950 . S
H3060 C3065 0.950 . S
H3061 C3066 0.949 . S
H3062 C3068 0.950 . S
H3063 C3069 0.950 . S
H3064 C3070 0.949 . S
C3065 H3060 0.950 . S
C3065 C3067 1.327 . S
C3065 C3071 1.429 . S
C3066 C3058 1.574 . S
C3066 H3061 0.949 . S
C3066 C3072 1.368 1_565 S
C3067 C3051 1.349 . S
C3067 H3059 0.950 . S
C3067 C3065 1.327 . S
C3068 C3056 1.349 . S
C3068 H3062 0.950 . S
C3068 C3069 1.327 . S
C3069 H3063 0.950 . S
C3069 C3068 1.327 . S
C3069 C3073 1.429 . S
C3070 C3053 1.574 . S
C3070 H3064 0.949 . S
C3070 C3074 1.368 1_545 S
C3071 C3052 1.429 1_545 S
C3071 C3065 1.429 . S
C3071 C3072 1.523 . S
C3072 C3053 1.368 . S
C3072 C3066 1.368 1_545 S
C3072 C3071 1.523 . S
C3073 C3057 1.429 1_565 S
C3073 C3069 1.429 . S
C3073 C3074 1.523 . S
C3074 C3058 1.368 . S
C3074 C3070 1.368 1_565 S
C3074 C3073 1.523 . S
H3075 C3050 0.951 . S
H3076 C3052 0.950 . S
H3077 C3053 0.949 . S
H3078 C3055 0.951 1_545 S
H3079 C3057 0.950 . S
C3080 C3081 1.349 1_545 S
C3080 C3082 1.327 . S
C3080 H3105 0.950 . S
C3081 C3080 1.349 1_565 S
C3081 C3097 1.349 . S
C3082 C3080 1.327 . S
C3082 C3101 1.429 1_545 S
C3082 H3106 0.950 . S
C3083 C3100 1.574 . S
C3083 C3102 1.368 . S
C3083 H3107 0.949 . S
H3084 C3088 0.949 . S
C3085 C3086 1.349 1_565 S
C3085 C3087 1.327 . S
C3085 H3108 0.950 . S
C3086 C3085 1.349 1_545 S
C3086 C3098 1.349 . S
C3087 C3085 1.327 . S
C3087 C3103 1.429 1_565 S
C3087 H3109 0.950 . S
C3088 H3084 0.949 . S
C3088 C3096 1.574 . S
C3088 C3104 1.368 . S
H3089 C3097 0.950 . S
H3090 C3095 0.950 . S
H3091 C3096 0.949 . S
H3092 C3098 0.950 . S
H3093 C3099 0.950 . S
H3094 C3100 0.949 . S
C3095 H3090 0.950 . S
C3095 C3097 1.327 . S
C3095 C3101 1.429 . S
C3096 C3088 1.574 . S
C3096 H3091 0.949 . S
C3096 C3102 1.368 1_545 S
C3097 C3081 1.349 . S
C3097 H3089 0.950 . S
C3097 C3095 1.327 . S
C3098 C3086 1.349 . S
C3098 H3092 0.950 . S
C3098 C3099 1.327 . S
C3099 H3093 0.950 . S
C3099 C3098 1.327 . S
C3099 C3103 1.429 . S
C3100 C3083 1.574 . S
C3100 H3094 0.949 . S
C3100 C3104 1.368 1_565 S
C3101 C3082 1.429 1_565 S
C3101 C3095 1.429 . S
C3101 C3102 1.523 . S
C3102 C3083 1.368 . S
C3102 C3096 1.368 1_565 S
C3102 C3101 1.523 . S
C3103 C3087 1.429 1_545 S
C3103 C3099 1.429 . S
C3103 C3104 1.523 . S
C3104 C3088 1.368 . S
C3104 C3100 1.368 1_545 S
C3104 C3103 1.523 . S
H3105 C3080 0.950 . S
H3106 C3082 0.950 . S
H3107 C3083 0.949 . S
H3108 C3085 0.950 . S
H3109 C3087 0.950 . S
C3110 C3111 1.349 . S
C3110 C3112 1.327 . S
C3110 H3135 0.950 . S
C3111 C3110 1.349 . S
C3111 C3127 1.349 . S
C3112 C3110 1.327 . S
C3112 C3131 1.429 . S
C3112 H3136 0.950 . S
C3113 C3130 1.574 . S
C3113 C3132 1.368 . S
C3113 H3137 0.949 . S
H3114 C3118 0.949 . S
C3115 C3116 1.349 . S
C3115 C3117 1.327 . S
C3115 H3138 0.950 . S
C3116 C3115 1.349 . S
C3116 C3128 1.349 . S
C3117 C3115 1.327 . S
C3117 C3133 1.429 . S
C3117 H3139 0.950 . S
C3118 H3114 0.949 . S
C3118 C3126 1.574 . S
C3118 C3134 1.368 . S
H3119 C3127 0.950 . S
H3120 C3125 0.950 . S
H3121 C3126 0.949 . S
H3122 C3128 0.950 . S
H3123 C3129 0.950 . S
H3124 C3130 0.949 . S
C3125 H3120 0.950 . S
C3125 C3127 1.327 . S
C3125 C3131 1.429 . S
C3126 C3118 1.574 . S
C3126 H3121 0.949 . S
C3126 C3132 1.368 . S
C3127 C3111 1.349 . S
C3127 H3119 0.950 . S
C3127 C3125 1.327 . S
C3128 C3116 1.349 . S
C3128 H3122 0.950 . S
C3128 C3129 1.327 . S
C3129 H3123 0.950 . S
C3129 C3128 1.327 . S
C3129 C3133 1.429 . S
C3130 C3113 1.574 . S
C3130 H3124 0.949 . S
C3130 C3134 1.368 . S
C3131 C3112 1.429 . S
C3131 C3125 1.429 . S
C3131 C3132 1.523 . S
C3132 C3113 1.368 . S
C3132 C3126 1.368 . S
C3132 C3131 1.523 . S
C3133 C3117 1.429 . S
C3133 C3129 1.429 . S
C3133 C3134 1.523 . S
C3134 C3118 1.368 . S
C3134 C3130 1.368 . S
C3134 C3133 1.523 . S
H3135 C3110 0.950 . S
H3136 C3112 0.950 . S
H3137 C3113 0.949 . S
H3138 C3115 0.950 . S
H3139 C3117 0.950 . S
C3140 C3141 1.349 . S
C3140 C3142 1.327 . S
C3140 H3165 0.950 . S
C3141 C3140 1.349 . S
C3141 C3157 1.349 . S
C3142 C3140 1.327 . S
C3142 C3161 1.429 . S
C3142 H3166 0.950 . S
C3143 C3160 1.574 . S
C3143 C3162 1.368 . S
C3143 H3167 0.949 . S
H3144 C3148 0.949 . S
C3145 C3146 1.349 . S
C3145 C3147 1.327 . S
C3145 H3168 0.950 . S
C3146 C3145 1.349 . S
C3146 C3158 1.349 . S
C3147 C3145 1.327 . S
C3147 C3163 1.429 . S
C3147 H3169 0.950 . S
C3148 H3144 0.949 . S
C3148 C3156 1.574 . S
C3148 C3164 1.368 . S
H3149 C3157 0.950 . S
H3150 C3155 0.950 . S
H3151 C3156 0.949 . S
H3152 C3158 0.950 . S
H3153 C3159 0.950 . S
H3154 C3160 0.949 . S
C3155 H3150 0.950 . S
C3155 C3157 1.327 . S
C3155 C3161 1.429 . S
C3156 C3148 1.574 . S
C3156 H3151 0.949 . S
C3156 C3162 1.368 . S
C3157 C3141 1.349 . S
C3157 H3149 0.950 . S
C3157 C3155 1.327 . S
C3158 C3146 1.349 . S
C3158 H3152 0.950 . S
C3158 C3159 1.327 . S
C3159 H3153 0.950 . S
C3159 C3158 1.327 . S
C3159 C3163 1.429 . S
C3160 C3143 1.574 . S
C3160 H3154 0.949 . S
C3160 C3164 1.368 . S
C3161 C3142 1.429 . S
C3161 C3155 1.429 . S
C3161 C3162 1.523 . S
C3162 C3143 1.368 . S
C3162 C3156 1.368 . S
C3162 C3161 1.523 . S
C3163 C3147 1.429 . S
C3163 C3159 1.429 . S
C3163 C3164 1.523 . S
C3164 C3148 1.368 . S
C3164 C3160 1.368 . S
C3164 C3163 1.523 . S
H3165 C3140 0.950 . S
H3166 C3142 0.950 . S
H3167 C3143 0.949 . S
H3168 C3145 0.950 . S
H3169 C3147 0.950 . S
C3170 C3171 1.349 . S
C3170 C3172 1.327 . S
C3170 H3195 0.950 . S
C3171 C3170 1.349 . S
C3171 C3187 1.349 1_565 S
C3172 C3170 1.327 . S
C3172 C3191 1.429 . S
C3172 H3196 0.950 . S
C3173 C3190 1.574 . S
C3173 C3192 1.368 1_545 S
C3173 H3197 0.949 . S
H3174 C3178 0.949 . S
C3175 C3176 1.349 . S
C3175 C3177 1.327 . S
C3175 H3198 0.950 . S
C3176 C3175 1.349 . S
C3176 C3188 1.349 1_545 S
C3177 C3175 1.327 . S
C3177 C3193 1.429 . S
C3177 H3199 0.950 . S
C3178 H3174 0.949 . S
C3178 C3186 1.574 . S
C3178 C3194 1.368 1_565 S
H3179 C3187 0.950 . S
H3180 C3185 0.950 . S
H3181 C3186 0.949 . S
H3182 C3188 0.950 . S
H3183 C3189 0.950 . S
H3184 C3190 0.949 . S
C3185 H3180 0.950 . S
C3185 C3187 1.327 . S
C3185 C3191 1.429 1_545 S
C3186 C3178 1.574 . S
C3186 H3181 0.949 . S
C3186 C3192 1.368 . S
C3187 C3171 1.349 1_545 S
C3187 H3179 0.950 . S
C3187 C3185 1.327 . S
C3188 C3176 1.349 1_565 S
C3188 H3182 0.950 . S
C3188 C3189 1.327 . S
C3189 H3183 0.950 . S
C3189 C3188 1.327 . S
C3189 C3193 1.429 1_565 S
C3190 C3173 1.574 . S
C3190 H3184 0.949 . S
C3190 C3194 1.368 . S
C3191 C3172 1.429 . S
C3191 C3185 1.429 1_565 S
C3191 C3192 1.523 . S
C3192 C3173 1.368 1_565 S
C3192 C3186 1.368 . S
C3192 C3191 1.523 . S
C3193 C3177 1.429 . S
C3193 C3189 1.429 1_545 S
C3193 C3194 1.523 . S
C3194 C3178 1.368 1_545 S
C3194 C3190 1.368 . S
C3194 C3193 1.523 . S
H3195 C3170 0.950 . S
H3196 C3172 0.950 . S
H3197 C3173 0.949 . S
H3198 C3175 0.950 . S
H3199 C3177 0.950 . S
C3200 C3201 1.349 . S
C3200 C3202 1.327 . S
C3200 H3225 0.950 . S
C3201 C3200 1.349 . S
C3201 C3217 1.349 . S
C3202 C3200 1.327 . S
C3202 C3221 1.429 . S
C3202 H3226 0.950 . S
C3203 C3220 1.574 1_455 S
C3203 C3222 1.368 . S
C3203 H3227 0.949 . S
H3204 C3208 0.949 . S
C3205 C3206 1.349 . S
C3205 C3207 1.327 . S
C3205 H3228 0.950 . S
C3206 C3205 1.349 . S
C3206 C3218 1.349 . S
C3207 C3205 1.327 . S
C3207 C3223 1.429 . S
C3207 H3229 0.950 . S
C3208 H3204 0.949 . S
C3208 C3216 1.574 1_655 S
C3208 C3224 1.368 . S
H3209 C3217 0.950 . S
H3210 C3215 0.950 . S
H3211 C3216 0.949 . S
H3212 C3218 0.950 . S
H3213 C3219 0.950 . S
H3214 C3220 0.949 . S
C3215 H3210 0.950 . S
C3215 C3217 1.327 . S
C3215 C3221 1.429 . S
C3216 C3208 1.574 1_455 S
C3216 H3211 0.949 . S
C3216 C3222 1.368 . S
C3217 C3201 1.349 . S
C3217 H3209 0.950 . S
C3217 C3215 1.327 . S
C3218 C3206 1.349 . S
C3218 H3212 0.950 . S
C3218 C3219 1.327 . S
C3219 H3213 0.950 . S
C3219 C3218 1.327 . S
C3219 C3223 1.429 . S
C3220 C3203 1.574 1_655 S
C3220 H3214 0.949 . S
C3220 C3224 1.368 . S
C3221 C3202 1.429 . S
C3221 C3215 1.429 . S
C3221 C3222 1.523 . S
C3222 C3203 1.368 . S
C3222 C3216 1.368 . S
C3222 C3221 1.523 . S
C3223 C3207 1.429 . S
C3223 C3219 1.429 . S
C3223 C3224 1.523 . S
C3224 C3208 1.368 . S
C3224 C3220 1.368 . S
C3224 C3223 1.523 . S
H3225 C3200 0.950 . S
H3226 C3202 0.950 . S
H3227 C3203 0.949 . S
H3228 C3205 0.950 . S
H3229 C3207 0.950 . S
C3230 C3231 1.349 . S
C3230 C3232 1.327 . S
C3230 H3255 0.950 . S
C3231 C3230 1.349 . S
C3231 C3247 1.349 . S
C3232 C3230 1.327 . S
C3232 C3251 1.429 . S
C3232 H3256 0.950 . S
C3233 C3250 1.574 . S
C3233 C3252 1.368 . S
C3233 H3257 0.949 . S
H3234 C3238 0.949 . S
C3235 C3236 1.349 . S
C3235 C3237 1.327 1_655 S
C3235 H3258 0.950 . S
C3236 C3235 1.349 . S
C3236 C3248 1.349 . S
C3237 C3235 1.327 1_455 S
C3237 C3253 1.429 . S
C3237 H3259 0.950 . S
C3238 H3234 0.949 . S
C3238 C3246 1.574 . S
C3238 C3254 1.368 . S
H3239 C3247 0.950 . S
H3240 C3245 0.950 . S
H3241 C3246 0.949 . S
H3242 C3248 0.950 . S
H3243 C3249 0.950 . S
H3244 C3250 0.949 . S
C3245 H3240 0.950 . S
C3245 C3247 1.327 . S
C3245 C3251 1.429 . S
C3246 C3238 1.574 . S
C3246 H3241 0.949 . S
C3246 C3252 1.368 . S
C3247 C3231 1.349 . S
C3247 H3239 0.950 . S
C3247 C3245 1.327 . S
C3248 C3236 1.349 . S
C3248 H3242 0.950 . S
C3248 C3249 1.327 1_655 S
C3249 H3243 0.950 . S
C3249 C3248 1.327 1_455 S
C3249 C3253 1.429 . S
C3250 C3233 1.574 . S
C3250 H3244 0.949 . S
C3250 C3254 1.368 . S
C3251 C3232 1.429 . S
C3251 C3245 1.429 . S
C3251 C3252 1.523 . S
C3252 C3233 1.368 . S
C3252 C3246 1.368 . S
C3252 C3251 1.523 . S
C3253 C3237 1.429 . S
C3253 C3249 1.429 . S
C3253 C3254 1.523 . S
C3254 C3238 1.368 . S
C3254 C3250 1.368 . S
C3254 C3253 1.523 . S
H3255 C3230 0.950 . S
H3256 C3232 0.950 . S
H3257 C3233 0.949 . S
H3258 C3235 0.950 . S
H3259 C3237 0.950 . S
C3260 C3261 1.349 . S
C3260 C3262 1.327 . S
C3260 H3285 0.950 . S
C3261 C3260 1.349 . S
C3261 C3277 1.349 . S
C3262 C3260 1.327 . S
C3262 C3281 1.429 . S
C3262 H3286 0.950 . S
C3263 C3280 1.574 1_655 S
C3263 C3282 1.368 . S
C3263 H3287 0.949 . S
H3264 C3268 0.949 . S
C3265 C3266 1.349 . S
C3265 C3267 1.327 . S
C3265 H3288 0.950 . S
C3266 C3265 1.349 . S
C3266 C3278 1.349 . S
C3267 C3265 1.327 . S
C3267 C3283 1.429 . S
C3267 H3289 0.950 . S
C3268 H3264 0.949 . S
C3268 C3276 1.574 1_455 S
C3268 C3284 1.368 . S
H3269 C3277 0.950 . S
H3270 C3275 0.950 . S
H3271 C3276 0.949 . S
H3272 C3278 0.950 . S
H3273 C3279 0.950 . S
H3274 C3280 0.949 . S
C3275 H3270 0.950 . S
C3275 C3277 1.327 . S
C3275 C3281 1.429 . S
C3276 C3268 1.574 1_655 S
C3276 H3271 0.949 . S
C3276 C3282 1.368 . S
C3277 C3261 1.349 . S
C3277 H3269 0.950 . S
C3277 C3275 1.327 . S
C3278 C3266 1.349 . S
C3278 H3272 0.950 . S
C3278 C3279 1.327 . S
C3279 H3273 0.950 . S
C3279 C3278 1.327 . S
C3279 C3283 1.429 . S
C3280 C3263 1.574 1_455 S
C3280 H3274 0.949 . S
C3280 C3284 1.368 . S
C3281 C3262 1.429 . S
C3281 C3275 1.429 . S
C3281 C3282 1.523 . S
C3282 C3263 1.368 . S
C3282 C3276 1.368 . S
C3282 C3281 1.523 . S
C3283 C3267 1.429 . S
C3283 C3279 1.429 . S
C3283 C3284 1.523 . S
C3284 C3268 1.368 . S
C3284 C3280 1.368 . S
C3284 C3283 1.523 . S
H3285 C3260 0.950 . S
H3286 C3262 0.950 . S
H3287 C3263 0.949 . S
H3288 C3265 0.950 . S
H3289 C3267 0.950 . S
C3290 C3291 1.349 . S
C3290 C3292 1.327 1_655 S
C3290 H3315 0.950 . S
C3291 C3290 1.349 . S
C3291 C3307 1.349 . S
C3292 C3290 1.327 1_455 S
C3292 C3311 1.429 . S
C3292 H3316 0.950 . S
C3293 C3310 1.574 . S
C3293 C3312 1.368 . S
C3293 H3317 0.949 . S
H3294 C3298 0.949 . S
C3295 C3296 1.349 . S
C3295 C3297 1.327 . S
C3295 H3318 0.950 . S
C3296 C3295 1.349 . S
C3296 C3308 1.349 . S
C3297 C3295 1.327 . S
C3297 C3313 1.429 . S
C3297 H3319 0.950 . S
C3298 H3294 0.949 . S
C3298 C3306 1.574 . S
C3298 C3314 1.368 . S
H3299 C3307 0.950 . S
H3300 C3305 0.950 . S
H3301 C3306 0.949 . S
H3302 C3308 0.950 . S
H3303 C3309 0.950 . S
H3304 C3310 0.949 . S
C3305 H3300 0.950 . S
C3305 C3307 1.327 1_455 S
C3305 C3311 1.429 . S
C3306 C3298 1.574 . S
C3306 H3301 0.949 . S
C3306 C3312 1.368 . S
C3307 C3291 1.349 . S
C3307 H3299 0.950 . S
C3307 C3305 1.327 1_655 S
C3308 C3296 1.349 . S
C3308 H3302 0.950 . S
C3308 C3309 1.327 . S
C3309 H3303 0.950 . S
C3309 C3308 1.327 . S
C3309 C3313 1.429 . S
C3310 C3293 1.574 . S
C3310 H3304 0.949 . S
C3310 C3314 1.368 . S
C3311 C3292 1.429 . S
C3311 C3305 1.429 . S
C3311 C3312 1.523 . S
C3312 C3293 1.368 . S
C3312 C3306 1.368 . S
C3312 C3311 1.523 . S
C3313 C3297 1.429 . S
C3313 C3309 1.429 . S
C3313 C3314 1.523 . S
C3314 C3298 1.368 . S
C3314 C3310 1.368 . S
C3314 C3313 1.523 . S
H3315 C3290 0.950 . S
H3316 C3292 0.950 . S
H3317 C3293 0.949 . S
H3318 C3295 0.950 . S
H3319 C3297 0.950 . S
C3320 C3321 1.349 . S
C3320 C3322 1.327 . S
C3320 H3345 0.950 . S
C3321 C3320 1.349 . S
C3321 C3337 1.349 . S
C3322 C3320 1.327 . S
C3322 C3341 1.429 . S
C3322 H3346 0.950 . S
C3323 C3340 1.574 1_655 S
C3323 C3342 1.368 . S
C3323 H3347 0.949 . S
H3324 C3328 0.949 . S
C3325 C3326 1.349 . S
C3325 C3327 1.327 . S
C3325 H3348 0.950 . S
C3326 C3325 1.349 . S
C3326 C3338 1.349 . S
C3327 C3325 1.327 . S
C3327 C3343 1.429 . S
C3327 H3349 0.950 . S
C3328 H3324 0.949 . S
C3328 C3336 1.574 1_455 S
C3328 C3344 1.368 . S
H3329 C3337 0.950 . S
H3330 C3335 0.950 . S
H3331 C3336 0.949 . S
H3332 C3338 0.950 . S
H3333 C3339 0.950 . S
H3334 C3340 0.949 . S
C3335 H3330 0.950 . S
C3335 C3337 1.327 . S
C3335 C3341 1.429 . S
C3336 C3328 1.574 1_655 S
C3336 H3331 0.949 . S
C3336 C3342 1.368 . S
C3337 C3321 1.349 . S
C3337 H3329 0.950 . S
C3337 C3335 1.327 . S
C3338 C3326 1.349 . S
C3338 H3332 0.950 . S
C3338 C3339 1.327 . S
C3339 H3333 0.950 . S
C3339 C3338 1.327 . S
C3339 C3343 1.429 . S
C3340 C3323 1.574 1_455 S
C3340 H3334 0.949 . S
C3340 C3344 1.368 . S
C3341 C3322 1.429 . S
C3341 C3335 1.429 . S
C3341 C3342 1.523 . S
C3342 C3323 1.368 . S
C3342 C3336 1.368 . S
C3342 C3341 1.523 . S
C3343 C3327 1.429 . S
C3343 C3339 1.429 . S
C3343 C3344 1.523 . S
C3344 C3328 1.368 . S
C3344 C3340 1.368 . S
C3344 C3343 1.523 . S
H3345 C3320 0.950 . S
H3346 C3322 0.950 . S
H3347 C3323 0.949 . S
H3348 C3325 0.950 . S
H3349 C3327 0.950 . S
C3350 C3351 1.349 . S
C3350 C3352 1.327 1_455 S
C3350 H3375 0.950 . S
C3351 C3350 1.349 . S
C3351 C3367 1.349 . S
C3352 C3350 1.327 1_655 S
C3352 C3371 1.429 . S
C3352 H3376 0.950 . S
C3353 C3370 1.574 . S
C3353 C3372 1.368 . S
C3353 H3377 0.949 . S
H3354 C3358 0.949 . S
C3355 C3356 1.349 . S
C3355 C3357 1.327 . S
C3355 H3378 0.950 . S
C3356 C3355 1.349 . S
C3356 C3368 1.349 . S
C3357 C3355 1.327 . S
C3357 C3373 1.429 . S
C3357 H3379 0.950 . S
C3358 H3354 0.949 . S
C3358 C3366 1.574 . S
C3358 C3374 1.368 . S
H3359 C3367 0.950 . S
H3360 C3365 0.950 . S
H3361 C3366 0.949 . S
H3362 C3368 0.950 . S
H3363 C3369 0.950 . S
H3364 C3370 0.949 . S
C3365 H3360 0.950 . S
C3365 C3367 1.327 1_655 S
C3365 C3371 1.429 . S
C3366 C3358 1.574 . S
C3366 H3361 0.949 . S
C3366 C3372 1.368 . S
C3367 C3351 1.349 . S
C3367 H3359 0.950 . S
C3367 C3365 1.327 1_455 S
C3368 C3356 1.349 . S
C3368 H3362 0.950 . S
C3368 C3369 1.327 . S
C3369 H3363 0.950 . S
C3369 C3368 1.327 . S
C3369 C3373 1.429 . S
C3370 C3353 1.574 . S
C3370 H3364 0.949 . S
C3370 C3374 1.368 . S
C3371 C3352 1.429 . S
C3371 C3365 1.429 . S
C3371 C3372 1.523 . S
C3372 C3353 1.368 . S
C3372 C3366 1.368 . S
C3372 C3371 1.523 . S
C3373 C3357 1.429 . S
C3373 C3369 1.429 . S
C3373 C3374 1.523 . S
C3374 C3358 1.368 . S
C3374 C3370 1.368 . S
C3374 C3373 1.523 . S
H3375 C3350 0.950 . S
H3376 C3352 0.950 . S
H3377 C3353 0.949 . S
H3378 C3355 0.950 . S
H3379 C3357 0.950 . S
C3380 C3381 1.349 . S
C3380 C3382 1.327 . S
C3380 H3405 0.950 . S
C3381 C3380 1.349 . S
C3381 C3397 1.349 . S
C3382 C3380 1.327 . S
C3382 C3401 1.429 . S
C3382 H3406 0.950 . S
C3383 C3400 1.574 1_455 S
C3383 C3402 1.368 . S
C3383 H3407 0.949 . S
H3384 C3388 0.949 . S
C3385 C3386 1.349 . S
C3385 C3387 1.327 . S
C3385 H3408 0.950 . S
C3386 C3385 1.349 . S
C3386 C3398 1.349 . S
C3387 C3385 1.327 . S
C3387 C3403 1.429 . S
C3387 H3409 0.950 . S
C3388 H3384 0.949 . S
C3388 C3396 1.574 1_655 S
C3388 C3404 1.368 . S
H3389 C3397 0.950 . S
H3390 C3395 0.950 . S
H3391 C3396 0.949 . S
H3392 C3398 0.950 . S
H3393 C3399 0.950 . S
H3394 C3400 0.949 . S
C3395 H3390 0.950 . S
C3395 C3397 1.327 . S
C3395 C3401 1.429 . S
C3396 C3388 1.574 1_455 S
C3396 H3391 0.949 . S
C3396 C3402 1.368 . S
C3397 C3381 1.349 . S
C3397 H3389 0.950 . S
C3397 C3395 1.327 . S
C3398 C3386 1.349 . S
C3398 H3392 0.950 . S
C3398 C3399 1.327 . S
C3399 H3393 0.950 . S
C3399 C3398 1.327 . S
C3399 C3403 1.429 . S
C3400 C3383 1.574 1_655 S
C3400 H3394 0.949 . S
C3400 C3404 1.368 . S
C3401 C3382 1.429 . S
C3401 C3395 1.429 . S
C3401 C3402 1.523 . S
C3402 C3383 1.368 . S
C3402 C3396 1.368 . S
C3402 C3401 1.523 . S
C3403 C3387 1.429 . S
C3403 C3399 1.429 . S
C3403 C3404 1.523 . S
C3404 C3388 1.368 . S
C3404 C3400 1.368 . S
C3404 C3403 1.523 . S
H3405 C3380 0.950 . S
H3406 C3382 0.950 . S
H3407 C3383 0.949 . S
H3408 C3385 0.950 . S
H3409 C3387 0.950 . S
C3410 C3411 1.349 . S
C3410 C3412 1.327 1_455 S
C3410 H3435 0.950 . S
C3411 C3410 1.349 . S
C3411 C3427 1.349 . S
C3412 C3410 1.327 1_655 S
C3412 C3431 1.429 . S
C3412 H3436 0.950 . S
C3413 C3430 1.574 . S
C3413 C3432 1.368 . S
C3413 H3437 0.949 . S
H3414 C3418 0.949 . S
C3415 C3416 1.349 . S
C3415 C3417 1.327 . S
C3415 H3438 0.950 . S
C3416 C3415 1.349 . S
C3416 C3428 1.349 . S
C3417 C3415 1.327 . S
C3417 C3433 1.429 . S
C3417 H3439 0.950 . S
C3418 H3414 0.949 . S
C3418 C3426 1.574 . S
C3418 C3434 1.368 . S
H3419 C3427 0.950 . S
H3420 C3425 0.950 . S
H3421 C3426 0.949 . S
H3422 C3428 0.950 . S
H3423 C3429 0.950 . S
H3424 C3430 0.949 . S
C3425 H3420 0.950 . S
C3425 C3427 1.327 1_655 S
C3425 C3431 1.429 . S
C3426 C3418 1.574 . S
C3426 H3421 0.949 . S
C3426 C3432 1.368 . S
C3427 C3411 1.349 . S
C3427 H3419 0.950 . S
C3427 C3425 1.327 1_455 S
C3428 C3416 1.349 . S
C3428 H3422 0.950 . S
C3428 C3429 1.327 . S
C3429 H3423 0.950 . S
C3429 C3428 1.327 . S
C3429 C3433 1.429 . S
C3430 C3413 1.574 . S
C3430 H3424 0.949 . S
C3430 C3434 1.368 . S
C3431 C3412 1.429 . S
C3431 C3425 1.429 . S
C3431 C3432 1.523 . S
C3432 C3413 1.368 . S
C3432 C3426 1.368 . S
C3432 C3431 1.523 . S
C3433 C3417 1.429 . S
C3433 C3429 1.429 . S
C3433 C3434 1.523 . S
C3434 C3418 1.368 . S
C3434 C3430 1.368 . S
C3434 C3433 1.523 . S
H3435 C3410 0.950 . S
H3436 C3412 0.950 . S
H3437 C3413 0.949 . S
H3438 C3415 0.950 . S
H3439 C3417 0.950 . S
C3440 C3441 1.349 . S
C3440 C3442 1.327 . S
C3440 H3465 0.950 . S
C3441 C3440 1.349 . S
C3441 C3457 1.295 1_545 S
C3442 C3440 1.327 . S
C3442 C3461 1.429 . S
C3442 H3466 0.950 . S
C3443 C3460 1.574 1_655 S
C3443 C3462 1.368 1_565 S
C3443 H3467 0.949 . S
H3444 C3448 0.949 . S
C3445 C3446 1.349 . S
C3445 C3447 1.327 . S
C3445 H3468 0.950 . S
C3446 C3445 1.349 . S
C3446 C3458 1.307 1_565 S
C3447 C3445 1.327 . S
C3447 C3463 1.429 . S
C3447 H3469 0.950 . S
C3448 H3444 0.949 . S
C3448 C3456 1.574 1_455 S
C3448 C3464 1.368 1_545 S
H3449 C3457 0.999 . S
H3450 C3455 0.950 . S
H3451 C3456 0.949 . S
H3452 C3458 0.987 . S
H3453 C3459 0.950 . S
H3454 C3460 0.949 . S
C3455 H3450 0.950 . S
C3455 C3457 1.344 . S
C3455 C3461 1.429 1_565 S
C3456 C3448 1.574 1_655 S
C3456 H3451 0.949 . S
C3456 C3462 1.368 . S
C3457 C3441 1.295 1_565 S
C3457 H3449 0.999 . S
C3457 C3455 1.344 . S
C3458 C3446 1.307 1_545 S
C3458 H3452 0.987 . S
C3458 C3459 1.340 . S
C3459 H3453 0.950 . S
C3459 C3458 1.340 . S
C3459 C3463 1.429 1_545 S
C3460 C3443 1.574 1_455 S
C3460 H3454 0.949 . S
C3460 C3464 1.368 . S
C3461 C3442 1.429 . S
C3461 C3455 1.429 1_545 S
C3461 C3462 1.523 . S
C3462 C3443 1.368 1_545 S
C3462 C3456 1.368 . S
C3462 C3461 1.523 . S
C3463 C3447 1.429 . S
C3463 C3459 1.429 1_565 S
C3463 C3464 1.523 . S
C3464 C3448 1.368 1_565 S
C3464 C3460 1.368 . S
C3464 C3463 1.523 . S
H3465 C3440 0.950 . S
H3466 C3442 0.950 . S
H3467 C3443 0.949 . S
H3468 C3445 0.950 . S
H3469 C3447 0.950 . S
C3470 C3471 1.349 . S
C3470 C3472 1.327 1_655 S
C3470 H3495 0.950 . S
C3471 C3470 1.349 . S
C3471 C3487 1.349 . S
C3472 C3470 1.327 1_455 S
C3472 C3491 1.429 . S
C3472 H3496 0.950 . S
C3473 C3490 1.574 . S
C3473 C3492 1.368 . S
C3473 H3497 0.949 . S
H3474 C3478 0.949 . S
C3475 C3476 1.349 . S
C3475 C3477 1.327 . S
C3475 H3498 0.950 . S
C3476 C3475 1.349 . S
C3476 C3488 1.349 . S
C3477 C3475 1.327 . S
C3477 C3493 1.429 . S
C3477 H3499 0.950 . S
C3478 H3474 0.949 . S
C3478 C3486 1.574 . S
C3478 C3494 1.368 . S
H3479 C3487 0.950 . S
H3480 C3485 0.950 . S
H3481 C3486 0.949 . S
H3482 C3488 0.950 . S
H3483 C3489 0.950 . S
H3484 C3490 0.949 . S
C3485 H3480 0.950 . S
C3485 C3487 1.327 1_455 S
C3485 C3491 1.429 . S
C3486 C3478 1.574 . S
C3486 H3481 0.949 . S
C3486 C3492 1.368 . S
C3487 C3471 1.349 . S
C3487 H3479 0.950 . S
C3487 C3485 1.327 1_655 S
C3488 C3476 1.349 . S
C3488 H3482 0.950 . S
C3488 C3489 1.327 . S
C3489 H3483 0.950 . S
C3489 C3488 1.327 . S
C3489 C3493 1.429 . S
C3490 C3473 1.574 . S
C3490 H3484 0.949 . S
C3490 C3494 1.368 . S
C3491 C3472 1.429 . S
C3491 C3485 1.429 . S
C3491 C3492 1.523 . S
C3492 C3473 1.368 . S
C3492 C3486 1.368 . S
C3492 C3491 1.523 . S
C3493 C3477 1.429 . S
C3493 C3489 1.429 . S
C3493 C3494 1.523 . S
C3494 C3478 1.368 . S
C3494 C3490 1.368 . S
C3494 C3493 1.523 . S
H3495 C3470 0.950 . S
H3496 C3472 0.950 . S
H3497 C3473 0.949 . S
H3498 C3475 0.950 . S
H3499 C3477 0.950 . S
C3500 C3501 1.349 . S
C3500 C3502 1.327 . S
C3500 H3525 0.950 . S
C3501 C3500 1.349 . S
C3501 C3517 1.349 . S
C3502 C3500 1.327 . S
C3502 C3521 1.429 . S
C3502 H3526 0.950 . S
C3503 C3520 1.574 1_655 S
C3503 C3522 1.368 . S
C3503 H3527 0.949 . S
H3504 C3508 0.949 . S
C3505 C3506 1.349 . S
C3505 C3507 1.327 . S
C3505 H3528 0.950 . S
C3506 C3505 1.349 . S
C3506 C3518 1.349 . S
C3507 C3505 1.327 . S
C3507 C3523 1.429 . S
C3507 H3529 0.950 . S
C3508 H3504 0.949 . S
C3508 C3516 1.574 1_455 S
C3508 C3524 1.368 . S
H3509 C3517 0.950 . S
H3510 C3515 0.950 . S
H3511 C3516 0.949 . S
H3512 C3518 0.950 . S
H3513 C3519 0.950 . S
H3514 C3520 0.949 . S
C3515 H3510 0.950 . S
C3515 C3517 1.327 . S
C3515 C3521 1.429 . S
C3516 C3508 1.574 1_655 S
C3516 H3511 0.949 . S
C3516 C3522 1.368 . S
C3517 C3501 1.349 . S
C3517 H3509 0.950 . S
C3517 C3515 1.327 . S
C3518 C3506 1.349 . S
C3518 H3512 0.950 . S
C3518 C3519 1.327 . S
C3519 H3513 0.950 . S
C3519 C3518 1.327 . S
C3519 C3523 1.429 . S
C3520 C3503 1.574 1_455 S
C3520 H3514 0.949 . S
C3520 C3524 1.368 . S
C3521 C3502 1.429 . S
C3521 C3515 1.429 . S
C3521 C3522 1.523 . S
C3522 C3503 1.368 . S
C3522 C3516 1.368 . S
C3522 C3521 1.523 . S
C3523 C3507 1.429 . S
C3523 C3519 1.429 . S
C3523 C3524 1.523 . S
C3524 C3508 1.368 . S
C3524 C3520 1.368 . S
C3524 C3523 1.523 . S
H3525 C3500 0.950 . S
H3526 C3502 0.950 . S
H3527 C3503 0.949 . S
H3528 C3505 0.950 . S
H3529 C3507 0.950 . S
C3530 C3531 1.349 . S
C3530 C3532 1.327 . S
C3530 H3555 0.950 . S
C3531 C3530 1.349 . S
C3531 C3547 1.321 1_545 S
C3532 C3530 1.327 . S
C3532 C3551 1.429 . S
C3532 H3556 0.950 . S
C3533 C3550 1.574 . S
C3533 C3552 1.368 1_565 S
C3533 H3557 0.949 . S
H3534 C3538 0.949 . S
C3535 C3536 1.349 . S
C3535 C3537 1.327 1_655 S
C3535 H3558 0.950 . S
C3536 C3535 1.349 . S
C3536 C3548 1.333 1_565 S
C3537 C3535 1.327 1_455 S
C3537 C3553 1.429 . S
C3537 H3559 0.950 . S
C3538 H3534 0.949 . S
C3538 C3546 1.574 . S
C3538 C3554 1.368 1_545 S
H3539 C3547 0.974 . S
H3540 C3545 0.950 . S
H3541 C3546 0.949 . S
H3542 C3548 0.963 . S
H3543 C3549 0.950 . S
H3544 C3550 0.949 . S
C3545 H3540 0.950 . S
C3545 C3547 1.335 . S
C3545 C3551 1.429 1_565 S
C3546 C3538 1.574 . S
C3546 H3541 0.949 . S
C3546 C3552 1.368 . S
C3547 C3531 1.321 1_565 S
C3547 H3539 0.974 . S
C3547 C3545 1.335 . S
C3548 C3536 1.333 1_545 S
C3548 H3542 0.963 . S
C3548 C3549 1.332 1_655 S
C3549 H3543 0.950 . S
C3549 C3548 1.332 1_455 S
C3549 C3553 1.429 1_545 S
C3550 C3533 1.574 . S
C3550 H3544 0.949 . S
C3550 C3554 1.368 . S
C3551 C3532 1.429 . S
C3551 C3545 1.429 1_545 S
C3551 C3552 1.523 . S
C3552 C3533 1.368 1_545 S
C3552 C3546 1.368 . S
C3552 C3551 1.523 . S
C3553 C3537 1.429 . S
C3553 C3549 1.429 1_565 S
C3553 C3554 1.523 . S
C3554 C3538 1.368 1_565 S
C3554 C3550 1.368 . S
C3554 C3553 1.523 . S
H3555 C3530 0.950 . S
H3556 C3532 0.950 . S
H3557 C3533 0.949 . S
H3558 C3535 0.950 . S
H3559 C3537 0.950 . S
C3560 C3561 1.349 . S
C3560 C3562 1.327 . S
C3560 H3585 0.950 . S
C3561 C3560 1.349 . S
C3561 C3577 1.349 . S
C3562 C3560 1.327 . S
C3562 C3581 1.429 . S
C3562 H3586 0.950 . S
C3563 C3580 1.573 1_645 S
C3563 C3582 1.369 . S
C3563 H3587 0.949 . S
H3564 C3568 0.949 . S
C3565 C3566 1.349 . S
C3565 C3567 1.327 . S
C3565 H3588 0.950 . S
C3566 C3565 1.349 . S
C3566 C3578 1.349 . S
C3567 C3565 1.327 . S
C3567 C3583 1.429 . S
C3567 H3589 0.950 . S
C3568 H3564 0.949 . S
C3568 C3576 1.573 1_455 S
C3568 C3584 1.369 1_545 S
H3569 C3577 0.950 . S
H3570 C3575 0.950 . S
H3571 C3576 0.949 . S
H3572 C3578 0.950 . S
H3573 C3579 0.950 . S
H3574 C3580 0.949 . S
C3575 H3570 0.950 . S
C3575 C3577 1.327 . S
C3575 C3581 1.429 . S
C3576 C3568 1.573 1_655 S
C3576 H3571 0.949 . S
C3576 C3582 1.368 . S
C3577 C3561 1.349 . S
C3577 H3569 0.950 . S
C3577 C3575 1.327 . S
C3578 C3566 1.349 . S
C3578 H3572 0.950 . S
C3578 C3579 1.327 . S
C3579 H3573 0.950 . S
C3579 C3578 1.327 . S
C3579 C3583 1.429 . S
C3580 C3563 1.573 1_465 S
C3580 H3574 0.949 . S
C3580 C3584 1.368 . S
C3581 C3562 1.429 . S
C3581 C3575 1.429 . S
C3581 C3582 1.523 . S
C3582 C3563 1.369 . S
C3582 C3576 1.368 . S
C3582 C3581 1.523 . S
C3583 C3567 1.429 . S
C3583 C3579 1.429 . S
C3583 C3584 1.523 . S
C3584 C3568 1.369 1_565 S
C3584 C3580 1.368 . S
C3584 C3583 1.523 . S
H3585 C3560 0.950 . S
H3586 C3562 0.950 . S
H3587 C3563 0.949 . S
H3588 C3565 0.950 . S
H3589 C3567 0.950 . S
C3590 C3591 1.349 . S
C3590 C3592 1.327 1_455 S
C3590 H3615 0.950 . S
C3591 C3590 1.349 . S
C3591 C3607 1.349 . S
C3592 C3590 1.327 1_655 S
C3592 C3611 1.429 . S
C3592 H3616 0.950 . S
C3593 C3610 1.574 . S
C3593 C3612 1.368 . S
C3593 H3617 0.949 . S
H3594 C3598 0.949 . S
C3595 C3596 1.349 . S
C3595 C3597 1.327 . S
C3595 H3618 0.950 . S
C3596 C3595 1.349 . S
C3596 C3608 1.349 . S
C3597 C3595 1.327 . S
C3597 C3613 1.429 . S
C3597 H3619 0.950 . S
C3598 H3594 0.949 . S
C3598 C3606 1.574 . S
C3598 C3614 1.368 . S
H3599 C3607 0.950 . S
H3600 C3605 0.950 . S
H3601 C3606 0.949 . S
H3602 C3608 0.950 . S
H3603 C3609 0.950 . S
H3604 C3610 0.949 . S
C3605 H3600 0.950 . S
C3605 C3607 1.327 1_655 S
C3605 C3611 1.429 . S
C3606 C3598 1.574 . S
C3606 H3601 0.949 . S
C3606 C3612 1.368 . S
C3607 C3591 1.349 . S
C3607 H3599 0.950 . S
C3607 C3605 1.327 1_455 S
C3608 C3596 1.349 . S
C3608 H3602 0.950 . S
C3608 C3609 1.327 . S
C3609 H3603 0.950 . S
C3609 C3608 1.327 . S
C3609 C3613 1.429 . S
C3610 C3593 1.574 . S
C3610 H3604 0.949 . S
C3610 C3614 1.368 . S
C3611 C3592 1.429 . S
C3611 C3605 1.429 . S
C3611 C3612 1.523 . S
C3612 C3593 1.368 . S
C3612 C3606 1.368 . S
C3612 C3611 1.523 . S
C3613 C3597 1.429 . S
C3613 C3609 1.429 . S
C3613 C3614 1.523 . S
C3614 C3598 1.368 . S
C3614 C3610 1.368 . S
C3614 C3613 1.523 . S
H3615 C3590 0.950 . S
H3616 C3592 0.950 . S
H3617 C3593 0.949 . S
H3618 C3595 0.950 . S
H3619 C3597 0.950 . S
C3620 C3621 1.349 . S
C3620 C3622 1.327 . S
C3620 H3645 0.950 . S
C3621 C3620 1.349 . S
C3621 C3637 1.349 . S
C3622 C3620 1.327 . S
C3622 C3641 1.429 . S
C3622 H3646 0.950 . S
C3623 C3640 1.574 1_455 S
C3623 C3642 1.368 . S
C3623 H3647 0.949 . S
H3624 C3628 0.949 . S
C3625 C3626 1.349 . S
C3625 C3627 1.327 . S
C3625 H3648 0.950 . S
C3626 C3625 1.349 . S
C3626 C3638 1.349 . S
C3627 C3625 1.327 . S
C3627 C3643 1.429 . S
C3627 H3649 0.950 . S
C3628 H3624 0.949 . S
C3628 C3636 1.574 1_655 S
C3628 C3644 1.368 . S
H3629 C3637 0.950 . S
H3630 C3635 0.950 . S
H3631 C3636 0.949 . S
H3632 C3638 0.950 . S
H3633 C3639 0.950 . S
H3634 C3640 0.949 . S
C3635 H3630 0.950 . S
C3635 C3637 1.327 . S
C3635 C3641 1.429 . S
C3636 C3628 1.574 1_455 S
C3636 H3631 0.949 . S
C3636 C3642 1.368 . S
C3637 C3621 1.349 . S
C3637 H3629 0.950 . S
C3637 C3635 1.327 . S
C3638 C3626 1.349 . S
C3638 H3632 0.950 . S
C3638 C3639 1.327 . S
C3639 H3633 0.950 . S
C3639 C3638 1.327 . S
C3639 C3643 1.429 . S
C3640 C3623 1.574 1_655 S
C3640 H3634 0.949 . S
C3640 C3644 1.368 . S
C3641 C3622 1.429 . S
C3641 C3635 1.429 . S
C3641 C3642 1.523 . S
C3642 C3623 1.368 . S
C3642 C3636 1.368 . S
C3642 C3641 1.523 . S
C3643 C3627 1.429 . S
C3643 C3639 1.429 . S
C3643 C3644 1.523 . S
C3644 C3628 1.368 . S
C3644 C3640 1.368 . S
C3644 C3643 1.523 . S
H3645 C3620 0.950 . S
H3646 C3622 0.950 . S
H3647 C3623 0.949 . S
H3648 C3625 0.950 . S
H3649 C3627 0.950 . S
C3650 C3651 1.349 1_545 S
C3650 C3652 1.327 . S
C3650 H3675 0.950 . S
C3651 C3650 1.349 1_565 S
C3651 C3667 1.349 . S
C3652 C3650 1.327 . S
C3652 C3671 1.429 1_545 S
C3652 H3676 0.950 . S
C3653 C3670 1.574 . S
C3653 C3672 1.368 . S
C3653 H3677 0.949 . S
H3654 C3658 0.949 . S
C3655 C3656 1.349 1_565 S
C3655 C3657 1.327 1_455 S
C3655 H3678 0.950 . S
C3656 C3655 1.349 1_545 S
C3656 C3668 1.349 . S
C3657 C3655 1.327 1_655 S
C3657 C3673 1.429 1_565 S
C3657 H3679 0.950 . S
C3658 H3654 0.949 . S
C3658 C3666 1.574 . S
C3658 C3674 1.368 . S
H3659 C3667 0.950 . S
H3660 C3665 0.950 . S
H3661 C3666 0.949 . S
H3662 C3668 0.950 . S
H3663 C3669 0.950 . S
H3664 C3670 0.949 . S
C3665 H3660 0.950 . S
C3665 C3667 1.327 . S
C3665 C3671 1.429 . S
C3666 C3658 1.574 . S
C3666 H3661 0.949 . S
C3666 C3672 1.368 1_545 S
C3667 C3651 1.349 . S
C3667 H3659 0.950 . S
C3667 C3665 1.327 . S
C3668 C3656 1.349 . S
C3668 H3662 0.950 . S
C3668 C3669 1.327 1_455 S
C3669 H3663 0.950 . S
C3669 C3668 1.327 1_655 S
C3669 C3673 1.429 . S
C3670 C3653 1.574 . S
C3670 H3664 0.949 . S
C3670 C3674 1.368 1_565 S
C3671 C3652 1.429 1_565 S
C3671 C3665 1.429 . S
C3671 C3672 1.523 . S
C3672 C3653 1.368 . S
C3672 C3666 1.368 1_565 S
C3672 C3671 1.523 . S
C3673 C3657 1.429 1_545 S
C3673 C3669 1.429 . S
C3673 C3674 1.523 . S
C3674 C3658 1.368 . S
C3674 C3670 1.368 1_545 S
C3674 C3673 1.523 . S
H3675 C3650 0.950 . S
H3676 C3652 0.950 . S
H3677 C3653 0.949 . S
H3678 C3655 0.950 . S
H3679 C3657 0.950 . S
C3680 C3681 1.349 . S
C3680 C3682 1.327 . S
C3680 H3705 0.950 . S
C3681 C3680 1.349 . S
C3681 C3697 1.349 1_455 S
C3682 C3680 1.327 . S
C3682 C3701 1.429 . S
C3682 H3706 0.950 . S
C3683 C3700 1.574 1_554 S
C3683 C3702 1.368 1_655 S
C3683 H3707 0.949 . S
H3684 C3688 0.949 . S
C3685 C3686 1.349 . S
C3685 C3687 1.327 . S
C3685 H3708 0.950 . S
C3686 C3685 1.349 . S
C3686 C3698 1.349 1_655 S
C3687 C3685 1.327 . S
C3687 C3703 1.429 . S
C3687 H3709 0.950 . S
C3688 H3684 0.949 . S
C3688 C3696 1.574 1_556 S
C3688 C3704 1.368 1_455 S
H3689 C3697 0.950 . S
H3690 C3695 0.950 . S
H3691 C3696 0.949 . S
H3692 C3698 0.950 . S
H3693 C3699 0.950 . S
H3694 C3700 0.949 . S
C3695 H3690 0.950 . S
C3695 C3697 1.327 . S
C3695 C3701 1.429 1_655 S
C3696 C3688 1.574 1_554 S
C3696 H3691 0.949 . S
C3696 C3702 1.368 . S
C3697 C3681 1.349 1_655 S
C3697 H3689 0.950 . S
C3697 C3695 1.327 . S
C3698 C3686 1.349 1_455 S
C3698 H3692 0.950 . S
C3698 C3699 1.327 . S
C3699 H3693 0.950 . S
C3699 C3698 1.327 . S
C3699 C3703 1.429 1_455 S
C3700 C3683 1.574 1_556 S
C3700 H3694 0.949 . S
C3700 C3704 1.368 . S
C3701 C3682 1.429 . S
C3701 C3695 1.429 1_455 S
C3701 C3702 1.523 . S
C3702 C3683 1.368 1_455 S
C3702 C3696 1.368 . S
C3702 C3701 1.523 . S
C3703 C3687 1.429 . S
C3703 C3699 1.429 1_655 S
C3703 C3704 1.523 . S
C3704 C3688 1.368 1_655 S
C3704 C3700 1.368 . S
C3704 C3703 1.523 . S
H3705 C3680 0.950 . S
H3706 C3682 0.950 . S
H3707 C3683 0.949 . S
H3708 C3685 0.950 . S
H3709 C3687 0.950 . S
C3710 C3711 1.349 . S
C3710 C3712 1.327 . S
C3710 H3735 0.950 . S
C3711 C3710 1.349 . S
C3711 C3727 1.349 . S
C3712 C3710 1.327 . S
C3712 C3731 1.429 . S
C3712 H3736 0.950 . S
C3713 C3730 1.574 1_556 S
C3713 C3732 1.368 . S
C3713 H3737 0.949 . S
H3714 C3718 0.949 . S
C3715 C3716 1.349 . S
C3715 C3717 1.327 . S
C3715 H3738 0.950 . S
C3716 C3715 1.349 . S
C3716 C3728 1.349 . S
C3717 C3715 1.327 . S
C3717 C3733 1.429 . S
C3717 H3739 0.950 . S
C3718 H3714 0.949 . S
C3718 C3726 1.574 1_554 S
C3718 C3734 1.368 . S
H3719 C3727 0.950 . S
H3720 C3725 0.950 . S
H3721 C3726 0.949 . S
H3722 C3728 0.950 . S
H3723 C3729 0.950 . S
H3724 C3730 0.949 . S
C3725 H3720 0.950 . S
C3725 C3727 1.327 . S
C3725 C3731 1.429 . S
C3726 C3718 1.574 1_556 S
C3726 H3721 0.949 . S
C3726 C3732 1.368 . S
C3727 C3711 1.349 . S
C3727 H3719 0.950 . S
C3727 C3725 1.327 . S
C3728 C3716 1.349 . S
C3728 H3722 0.950 . S
C3728 C3729 1.327 . S
C3729 H3723 0.950 . S
C3729 C3728 1.327 . S
C3729 C3733 1.429 . S
C3730 C3713 1.574 1_554 S
C3730 H3724 0.949 . S
C3730 C3734 1.368 . S
C3731 C3712 1.429 . S
C3731 C3725 1.429 . S
C3731 C3732 1.523 . S
C3732 C3713 1.368 . S
C3732 C3726 1.368 . S
C3732 C3731 1.523 . S
C3733 C3717 1.429 . S
C3733 C3729 1.429 . S
C3733 C3734 1.523 . S
C3734 C3718 1.368 . S
C3734 C3730 1.368 . S
C3734 C3733 1.523 . S
H3735 C3710 0.950 . S
H3736 C3712 0.950 . S
H3737 C3713 0.949 . S
H3738 C3715 0.950 . S
H3739 C3717 0.950 . S
C3740 C3741 1.349 . S
C3740 C3742 1.327 . S
C3740 H3765 0.950 . S
C3741 C3740 1.349 . S
C3741 C3757 1.349 1_655 S
C3742 C3740 1.327 . S
C3742 C3761 1.429 . S
C3742 H3766 0.950 . S
C3743 C3760 1.574 . S
C3743 C3762 1.368 1_455 S
C3743 H3767 0.949 . S
H3744 C3748 0.949 . S
C3745 C3746 1.349 . S
C3745 C3747 1.327 . S
C3745 H3768 0.950 . S
C3746 C3745 1.349 . S
C3746 C3758 1.349 1_455 S
C3747 C3745 1.327 . S
C3747 C3763 1.429 . S
C3747 H3769 0.950 . S
C3748 H3744 0.949 . S
C3748 C3756 1.574 . S
C3748 C3764 1.368 1_655 S
H3749 C3757 0.950 . S
H3750 C3755 0.950 . S
H3751 C3756 0.949 . S
H3752 C3758 0.950 . S
H3753 C3759 0.950 . S
H3754 C3760 0.949 . S
C3755 H3750 0.950 . S
C3755 C3757 1.327 . S
C3755 C3761 1.429 1_455 S
C3756 C3748 1.574 . S
C3756 H3751 0.949 . S
C3756 C3762 1.368 . S
C3757 C3741 1.349 1_455 S
C3757 H3749 0.950 . S
C3757 C3755 1.327 . S
C3758 C3746 1.349 1_655 S
C3758 H3752 0.950 . S
C3758 C3759 1.327 . S
C3759 H3753 0.950 . S
C3759 C3758 1.327 . S
C3759 C3763 1.429 1_655 S
C3760 C3743 1.574 . S
C3760 H3754 0.949 . S
C3760 C3764 1.368 . S
C3761 C3742 1.429 . S
C3761 C3755 1.429 1_655 S
C3761 C3762 1.523 . S
C3762 C3743 1.368 1_655 S
C3762 C3756 1.368 . S
C3762 C3761 1.523 . S
C3763 C3747 1.429 . S
C3763 C3759 1.429 1_455 S
C3763 C3764 1.523 . S
C3764 C3748 1.368 1_455 S
C3764 C3760 1.368 . S
C3764 C3763 1.523 . S
H3765 C3740 0.950 . S
H3766 C3742 0.950 . S
H3767 C3743 0.949 . S
H3768 C3745 0.950 . S
H3769 C3747 0.950 . S
C3770 C3771 1.349 . S
C3770 C3772 1.327 . S
C3770 H3795 0.950 . S
C3771 C3770 1.349 . S
C3771 C3787 1.349 . S
C3772 C3770 1.327 . S
C3772 C3791 1.429 . S
C3772 H3796 0.950 . S
C3773 C3790 1.574 . S
C3773 C3792 1.368 . S
C3773 H3797 0.949 . S
H3774 C3778 0.949 . S
C3775 C3776 1.349 . S
C3775 C3777 1.327 . S
C3775 H3798 0.950 . S
C3776 C3775 1.349 . S
C3776 C3788 1.349 . S
C3777 C3775 1.327 . S
C3777 C3793 1.429 . S
C3777 H3799 0.950 . S
C3778 H3774 0.949 . S
C3778 C3786 1.574 . S
C3778 C3794 1.368 . S
H3779 C3787 0.950 . S
H3780 C3785 0.950 . S
H3781 C3786 0.949 . S
H3782 C3788 0.950 . S
H3783 C3789 0.950 . S
H3784 C3790 0.949 . S
C3785 H3780 0.950 . S
C3785 C3787 1.327 . S
C3785 C3791 1.429 . S
C3786 C3778 1.574 . S
C3786 H3781 0.949 . S
C3786 C3792 1.368 . S
C3787 C3771 1.349 . S
C3787 H3779 0.950 . S
C3787 C3785 1.327 . S
C3788 C3776 1.349 . S
C3788 H3782 0.950 . S
C3788 C3789 1.327 . S
C3789 H3783 0.950 . S
C3789 C3788 1.327 . S
C3789 C3793 1.429 . S
C3790 C3773 1.574 . S
C3790 H3784 0.949 . S
C3790 C3794 1.368 . S
C3791 C3772 1.429 . S
C3791 C3785 1.429 . S
C3791 C3792 1.523 . S
C3792 C3773 1.368 . S
C3792 C3786 1.368 . S
C3792 C3791 1.523 . S
C3793 C3777 1.429 . S
C3793 C3789 1.429 . S
C3793 C3794 1.523 . S
C3794 C3778 1.368 . S
C3794 C3790 1.368 . S
C3794 C3793 1.523 . S
H3795 C3770 0.950 . S
H3796 C3772 0.950 . S
H3797 C3773 0.949 . S
H3798 C3775 0.950 . S
H3799 C3777 0.950 . S
C3800 C3801 1.349 . S
C3800 C3802 1.327 . S
C3800 H3825 0.950 . S
C3801 C3800 1.349 . S
C3801 C3817 1.349 . S
C3802 C3800 1.327 . S
C3802 C3821 1.429 . S
C3802 H3826 0.950 . S
C3803 C3820 1.574 1_556 S
C3803 C3822 1.368 . S
C3803 H3827 0.949 . S
H3804 C3808 0.949 . S
C3805 C3806 1.349 . S
C3805 C3807 1.327 . S
C3805 H3828 0.950 . S
C3806 C3805 1.349 . S
C3806 C3818 1.349 . S
C3807 C3805 1.327 . S
C3807 C3823 1.429 . S
C3807 H3829 0.950 . S
C3808 H3804 0.949 . S
C3808 C3816 1.574 1_554 S
C3808 C3824 1.368 . S
H3809 C3817 0.950 . S
H3810 C3815 0.950 . S
H3811 C3816 0.949 . S
H3812 C3818 0.950 . S
H3813 C3819 0.950 . S
H3814 C3820 0.949 . S
C3815 H3810 0.950 . S
C3815 C3817 1.327 . S
C3815 C3821 1.429 . S
C3816 C3808 1.574 1_556 S
C3816 H3811 0.949 . S
C3816 C3822 1.368 . S
C3817 C3801 1.349 . S
C3817 H3809 0.950 . S
C3817 C3815 1.327 . S
C3818 C3806 1.349 . S
C3818 H3812 0.950 . S
C3818 C3819 1.327 . S
C3819 H3813 0.950 . S
C3819 C3818 1.327 . S
C3819 C3823 1.429 . S
C3820 C3803 1.574 1_554 S
C3820 H3814 0.949 . S
C3820 C3824 1.368 . S
C3821 C3802 1.429 . S
C3821 C3815 1.429 . S
C3821 C3822 1.523 . S
C3822 C3803 1.368 . S
C3822 C3816 1.368 . S
C3822 C3821 1.523 . S
C3823 C3807 1.429 . S
C3823 C3819 1.429 . S
C3823 C3824 1.523 . S
C3824 C3808 1.368 . S
C3824 C3820 1.368 . S
C3824 C3823 1.523 . S
H3825 C3800 0.950 . S
H3826 C3802 0.950 . S
H3827 C3803 0.949 . S
H3828 C3805 0.950 . S
H3829 C3807 0.950 . S
C3830 C3831 1.349 . S
C3830 C3832 1.327 . S
C3830 H3855 0.950 . S
C3831 C3830 1.349 . S
C3831 C3847 1.349 1_655 S
C3832 C3830 1.327 . S
C3832 C3851 1.429 . S
C3832 H3856 0.950 . S
C3833 C3850 1.574 . S
C3833 C3852 1.368 1_455 S
C3833 H3857 0.949 . S
H3834 C3838 0.949 . S
C3835 C3836 1.349 . S
C3835 C3837 1.327 . S
C3835 H3858 0.950 . S
C3836 C3835 1.349 . S
C3836 C3848 1.349 1_455 S
C3837 C3835 1.327 . S
C3837 C3853 1.429 . S
C3837 H3859 0.950 . S
C3838 H3834 0.949 . S
C3838 C3846 1.574 . S
C3838 C3854 1.368 1_655 S
H3839 C3847 0.950 . S
H3840 C3845 0.950 . S
H3841 C3846 0.949 . S
H3842 C3848 0.950 . S
H3843 C3849 0.950 . S
H3844 C3850 0.949 . S
C3845 H3840 0.950 . S
C3845 C3847 1.327 . S
C3845 C3851 1.429 1_455 S
C3846 C3838 1.574 . S
C3846 H3841 0.949 . S
C3846 C3852 1.368 . S
C3847 C3831 1.349 1_455 S
C3847 H3839 0.950 . S
C3847 C3845 1.327 . S
C3848 C3836 1.349 1_655 S
C3848 H3842 0.950 . S
C3848 C3849 1.327 . S
C3849 H3843 0.950 . S
C3849 C3848 1.327 . S
C3849 C3853 1.429 1_655 S
C3850 C3833 1.574 . S
C3850 H3844 0.949 . S
C3850 C3854 1.368 . S
C3851 C3832 1.429 . S
C3851 C3845 1.429 1_655 S
C3851 C3852 1.523 . S
C3852 C3833 1.368 1_655 S
C3852 C3846 1.368 . S
C3852 C3851 1.523 . S
C3853 C3837 1.429 . S
C3853 C3849 1.429 1_455 S
C3853 C3854 1.523 . S
C3854 C3838 1.368 1_455 S
C3854 C3850 1.368 . S
C3854 C3853 1.523 . S
H3855 C3830 0.950 . S
H3856 C3832 0.950 . S
H3857 C3833 0.949 . S
H3858 C3835 0.950 . S
H3859 C3837 0.950 . S
C3860 C3861 1.349 . S
C3860 C3862 1.327 . S
C3860 H3885 0.950 . S
C3861 C3860 1.349 . S
C3861 C3877 1.349 . S
C3862 C3860 1.327 . S
C3862 C3881 1.429 . S
C3862 H3886 0.950 . S
C3863 C3880 1.574 . S
C3863 C3882 1.368 . S
C3863 H3887 0.949 . S
H3864 C3868 0.949 . S
C3865 C3866 1.349 . S
C3865 C3867 1.327 . S
C3865 H3888 0.950 . S
C3866 C3865 1.349 . S
C3866 C3878 1.349 . S
C3867 C3865 1.327 . S
C3867 C3883 1.429 . S
C3867 H3889 0.950 . S
C3868 H3864 0.949 . S
C3868 C3876 1.574 . S
C3868 C3884 1.368 . S
H3869 C3877 0.950 . S
H3870 C3875 0.950 . S
H3871 C3876 0.949 . S
H3872 C3878 0.950 . S
H3873 C3879 0.950 . S
H3874 C3880 0.949 . S
C3875 H3870 0.950 . S
C3875 C3877 1.327 . S
C3875 C3881 1.429 . S
C3876 C3868 1.574 . S
C3876 H3871 0.949 . S
C3876 C3882 1.368 . S
C3877 C3861 1.349 . S
C3877 H3869 0.950 . S
C3877 C3875 1.327 . S
C3878 C3866 1.349 . S
C3878 H3872 0.950 . S
C3878 C3879 1.327 . S
C3879 H3873 0.950 . S
C3879 C3878 1.327 . S
C3879 C3883 1.429 . S
C3880 C3863 1.574 . S
C3880 H3874 0.949 . S
C3880 C3884 1.368 . S
C3881 C3862 1.429 . S
C3881 C3875 1.429 . S
C3881 C3882 1.523 . S
C3882 C3863 1.368 . S
C3882 C3876 1.368 . S
C3882 C3881 1.523 . S
C3883 C3867 1.429 . S
C3883 C3879 1.429 . S
C3883 C3884 1.523 . S
C3884 C3868 1.368 . S
C3884 C3880 1.368 . S
C3884 C3883 1.523 . S
H3885 C3860 0.950 . S
H3886 C3862 0.950 . S
H3887 C3863 0.949 . S
H3888 C3865 0.950 . S
H3889 C3867 0.950 . S
C3890 C3891 1.301 1_545 S
C3890 C3892 1.327 . S
C3890 H3915 0.950 . S
C3891 C3890 1.301 1_565 S
C3891 C3907 1.398 1_455 S
C3892 C3890 1.327 . S
C3892 C3911 1.405 1_545 S
C3892 H3916 0.950 . S
C3893 C3910 1.574 . S
C3893 C3912 1.380 1_655 S
C3893 H3917 0.949 . S
H3894 C3898 0.949 . S
C3895 C3896 1.318 1_565 S
C3895 C3897 1.327 . S
C3895 H3918 0.950 . S
C3896 C3895 1.318 1_545 S
C3896 C3908 1.380 1_655 S
C3897 C3895 1.327 . S
C3897 C3913 1.422 1_565 S
C3897 H3919 0.950 . S
C3898 H3894 0.949 . S
C3898 C3906 1.574 . S
C3898 C3914 1.362 1_455 S
H3899 C3907 0.950 . S
H3900 C3905 0.950 . S
H3901 C3906 0.949 . S
H3902 C3908 0.950 . S
H3903 C3909 0.950 . S
H3904 C3910 0.949 . S
C3905 H3900 0.950 . S
C3905 C3907 1.327 . S
C3905 C3911 1.453 1_655 S
C3906 C3898 1.574 . S
C3906 H3901 0.949 . S
C3906 C3912 1.356 1_545 S
C3907 C3891 1.398 1_655 S
C3907 H3899 0.950 . S
C3907 C3905 1.327 . S
C3908 C3896 1.380 1_455 S
C3908 H3902 0.950 . S
C3908 C3909 1.327 . S
C3909 H3903 0.950 . S
C3909 C3908 1.327 . S
C3909 C3913 1.436 1_455 S
C3910 C3893 1.574 . S
C3910 H3904 0.949 . S
C3910 C3914 1.375 1_565 S
C3911 C3892 1.405 1_565 S
C3911 C3905 1.453 1_455 S
C3911 C3912 1.523 . S
C3912 C3893 1.380 1_455 S
C3912 C3906 1.356 1_565 S
C3912 C3911 1.523 . S
C3913 C3897 1.422 1_545 S
C3913 C3909 1.436 1_655 S
C3913 C3914 1.523 . S
C3914 C3898 1.362 1_655 S
C3914 C3910 1.375 1_545 S
C3914 C3913 1.523 . S
H3915 C3890 0.950 . S
H3916 C3892 0.950 . S
H3917 C3893 0.949 . S
H3918 C3895 0.950 . S
H3919 C3897 0.950 . S
C3920 C3921 1.349 . S
C3920 C3922 1.327 . S
C3920 H3945 0.950 . S
C3921 C3920 1.349 . S
C3921 C3937 1.349 . S
C3922 C3920 1.327 . S
C3922 C3941 1.429 . S
C3922 H3946 0.950 . S
C3923 C3940 1.574 . S
C3923 C3942 1.368 . S
C3923 H3947 0.949 . S
H3924 C3928 0.949 . S
C3925 C3926 1.349 . S
C3925 C3927 1.327 . S
C3925 H3948 0.950 . S
C3926 C3925 1.349 . S
C3926 C3938 1.349 . S
C3927 C3925 1.327 . S
C3927 C3943 1.429 . S
C3927 H3949 0.950 . S
C3928 H3924 0.949 . S
C3928 C3936 1.574 . S
C3928 C3944 1.368 . S
H3929 C3937 0.950 . S
H3930 C3935 0.950 . S
H3931 C3936 0.949 . S
H3932 C3938 0.950 . S
H3933 C3939 0.950 . S
H3934 C3940 0.949 . S
C3935 H3930 0.950 . S
C3935 C3937 1.327 . S
C3935 C3941 1.429 . S
C3936 C3928 1.574 . S
C3936 H3931 0.949 . S
C3936 C3942 1.368 . S
C3937 C3921 1.349 . S
C3937 H3929 0.950 . S
C3937 C3935 1.327 . S
C3938 C3926 1.349 . S
C3938 H3932 0.950 . S
C3938 C3939 1.327 . S
C3939 H3933 0.950 . S
C3939 C3938 1.327 . S
C3939 C3943 1.429 . S
C3940 C3923 1.574 . S
C3940 H3934 0.949 . S
C3940 C3944 1.368 . S
C3941 C3922 1.429 . S
C3941 C3935 1.429 . S
C3941 C3942 1.523 . S
C3942 C3923 1.368 . S
C3942 C3936 1.368 . S
C3942 C3941 1.523 . S
C3943 C3927 1.429 . S
C3943 C3939 1.429 . S
C3943 C3944 1.523 . S
C3944 C3928 1.368 . S
C3944 C3940 1.368 . S
C3944 C3943 1.523 . S
H3945 C3920 0.950 . S
H3946 C3922 0.950 . S
H3947 C3923 0.949 . S
H3948 C3925 0.950 . S
H3949 C3927 0.950 . S
C3950 C3951 1.294 1_565 S
C3950 C3952 1.327 . S
C3950 H3975 0.950 . S
C3951 C3950 1.294 1_545 S
C3951 C3967 1.404 . S
C3952 C3950 1.327 . S
C3952 C3971 1.402 1_565 S
C3952 H3976 0.950 . S
C3953 C3970 1.574 . S
C3953 C3972 1.382 . S
C3953 H3977 0.949 . S
H3954 C3958 0.949 . S
C3955 C3956 1.313 1_545 S
C3955 C3957 1.327 . S
C3955 H3978 0.950 . S
C3956 C3955 1.313 1_565 S
C3956 C3968 1.384 . S
C3957 C3955 1.327 . S
C3957 C3973 1.421 1_545 S
C3957 H3979 0.950 . S
C3958 H3954 0.949 . S
C3958 C3966 1.574 . S
C3958 C3974 1.361 . S
H3959 C3967 0.950 . S
H3960 C3965 0.950 . S
H3961 C3966 0.949 . S
H3962 C3968 0.950 . S
H3963 C3969 0.950 . S
H3964 C3970 0.949 . S
C3965 H3960 0.950 . S
C3965 C3967 1.327 . S
C3965 C3971 1.456 . S
C3966 C3958 1.574 . S
C3966 H3961 0.949 . S
C3966 C3972 1.354 1_565 S
C3967 C3951 1.404 . S
C3967 H3959 0.950 . S
C3967 C3965 1.327 . S
C3968 C3956 1.384 . S
C3968 H3962 0.950 . S
C3968 C3969 1.327 . S
C3969 H3963 0.950 . S
C3969 C3968 1.327 . S
C3969 C3973 1.437 . S
C3970 C3953 1.574 . S
C3970 H3964 0.949 . S
C3970 C3974 1.376 1_545 S
C3971 C3952 1.402 1_545 S
C3971 C3965 1.456 . S
C3971 C3972 1.523 . S
C3972 C3953 1.382 . S
C3972 C3966 1.354 1_545 S
C3972 C3971 1.523 . S
C3973 C3957 1.421 1_565 S
C3973 C3969 1.437 . S
C3973 C3974 1.523 . S
C3974 C3958 1.361 . S
C3974 C3970 1.376 1_565 S
C3974 C3973 1.523 . S
H3975 C3950 0.950 . S
H3976 C3952 0.950 . S
H3977 C3953 0.949 . S
H3978 C3955 0.950 . S
H3979 C3957 0.950 . S
C3980 C3981 1.349 . S
C3980 C3982 1.327 . S
C3980 H4005 0.950 . S
C3981 C3980 1.349 . S
C3981 C3997 1.349 . S
C3982 C3980 1.327 . S
C3982 C4001 1.429 . S
C3982 H4006 0.950 . S
C3983 C4000 1.574 . S
C3983 C4002 1.368 . S
C3983 H4007 0.949 . S
H3984 C3988 0.949 . S
C3985 C3986 1.349 . S
C3985 C3987 1.327 . S
C3985 H4008 0.950 . S
C3986 C3985 1.349 . S
C3986 C3998 1.349 . S
C3987 C3985 1.327 . S
C3987 C4003 1.429 . S
C3987 H4009 0.950 . S
C3988 H3984 0.949 . S
C3988 C3996 1.574 . S
C3988 C4004 1.368 . S
H3989 C3997 0.950 . S
H3990 C3995 0.950 . S
H3991 C3996 0.949 . S
H3992 C3998 0.950 . S
H3993 C3999 0.950 . S
H3994 C4000 0.949 . S
C3995 H3990 0.950 . S
C3995 C3997 1.327 . S
C3995 C4001 1.429 . S
C3996 C3988 1.574 . S
C3996 H3991 0.949 . S
C3996 C4002 1.368 . S
C3997 C3981 1.349 . S
C3997 H3989 0.950 . S
C3997 C3995 1.327 . S
C3998 C3986 1.349 . S
C3998 H3992 0.950 . S
C3998 C3999 1.327 . S
C3999 H3993 0.950 . S
C3999 C3998 1.327 . S
C3999 C4003 1.429 . S
C4000 C3983 1.574 . S
C4000 H3994 0.949 . S
C4000 C4004 1.368 . S
C4001 C3982 1.429 . S
C4001 C3995 1.429 . S
C4001 C4002 1.523 . S
C4002 C3983 1.368 . S
C4002 C3996 1.368 . S
C4002 C4001 1.523 . S
C4003 C3987 1.429 . S
C4003 C3999 1.429 . S
C4003 C4004 1.523 . S
C4004 C3988 1.368 . S
C4004 C4000 1.368 . S
C4004 C4003 1.523 . S
H4005 C3980 0.950 . S
H4006 C3982 0.950 . S
H4007 C3983 0.949 . S
H4008 C3985 0.950 . S
H4009 C3987 0.950 . S
C4010 C4011 1.300 1_545 S
C4010 C4012 1.327 . S
C4010 H4035 0.950 . S
C4011 C4010 1.300 1_565 S
C4011 C4027 1.398 . S
C4012 C4010 1.327 . S
C4012 C4031 1.405 1_545 S
C4012 H4036 0.950 . S
C4013 C4030 1.574 . S
C4013 C4032 1.381 . S
C4013 H4037 0.949 . S
H4014 C4018 0.949 . S
C4015 C4016 1.317 1_565 S
C4015 C4017 1.327 . S
C4015 H4038 0.950 . S
C4016 C4015 1.317 1_545 S
C4016 C4028 1.381 . S
C4017 C4015 1.327 . S
C4017 C4033 1.422 1_565 S
C4017 H4039 0.950 . S
C4018 H4014 0.949 . S
C4018 C4026 1.574 . S
C4018 C4034 1.362 . S
H4019 C4027 0.950 . S
H4020 C4025 0.950 . S
H4021 C4026 0.949 . S
H4022 C4028 0.950 . S
H4023 C4029 0.950 . S
H4024 C4030 0.949 . S
C4025 H4020 0.950 . S
C4025 C4027 1.327 . S
C4025 C4031 1.453 . S
C4026 C4018 1.574 . S
C4026 H4021 0.949 . S
C4026 C4032 1.356 1_545 S
C4027 C4011 1.398 . S
C4027 H4019 0.950 . S
C4027 C4025 1.327 . S
C4028 C4016 1.381 . S
C4028 H4022 0.950 . S
C4028 C4029 1.327 . S
C4029 H4023 0.950 . S
C4029 C4028 1.327 . S
C4029 C4033 1.436 . S
C4030 C4013 1.574 . S
C4030 H4024 0.949 . S
C4030 C4034 1.375 1_565 S
C4031 C4012 1.405 1_565 S
C4031 C4025 1.453 . S
C4031 C4032 1.523 . S
C4032 C4013 1.381 . S
C4032 C4026 1.356 1_565 S
C4032 C4031 1.523 . S
C4033 C4017 1.422 1_545 S
C4033 C4029 1.436 . S
C4033 C4034 1.523 . S
C4034 C4018 1.362 . S
C4034 C4030 1.375 1_545 S
C4034 C4033 1.523 . S
H4035 C4010 0.950 . S
H4036 C4012 0.950 . S
H4037 C4013 0.949 . S
H4038 C4015 0.950 . S
H4039 C4017 0.950 . S
C4040 C4041 1.349 . S
C4040 C4042 1.327 . S
C4040 H4065 0.950 . S
C4041 C4040 1.349 . S
C4041 C4057 1.349 . S
C4042 C4040 1.327 . S
C4042 C4061 1.429 . S
C4042 H4066 0.950 . S
C4043 C4060 1.574 . S
C4043 C4062 1.368 . S
C4043 H4067 0.949 . S
H4044 C4048 0.949 . S
C4045 C4046 1.349 . S
C4045 C4047 1.327 . S
C4045 H4068 0.950 . S
C4046 C4045 1.349 . S
C4046 C4058 1.349 . S
C4047 C4045 1.327 . S
C4047 C4063 1.429 . S
C4047 H4069 0.950 . S
C4048 H4044 0.949 . S
C4048 C4056 1.574 . S
C4048 C4064 1.368 . S
H4049 C4057 0.950 . S
H4050 C4055 0.950 . S
H4051 C4056 0.949 . S
H4052 C4058 0.950 . S
H4053 C4059 0.950 . S
H4054 C4060 0.949 . S
C4055 H4050 0.950 . S
C4055 C4057 1.327 . S
C4055 C4061 1.429 . S
C4056 C4048 1.574 . S
C4056 H4051 0.949 . S
C4056 C4062 1.368 . S
C4057 C4041 1.349 . S
C4057 H4049 0.950 . S
C4057 C4055 1.327 . S
C4058 C4046 1.349 . S
C4058 H4052 0.950 . S
C4058 C4059 1.327 . S
C4059 H4053 0.950 . S
C4059 C4058 1.327 . S
C4059 C4063 1.429 . S
C4060 C4043 1.574 . S
C4060 H4054 0.949 . S
C4060 C4064 1.368 . S
C4061 C4042 1.429 . S
C4061 C4055 1.429 . S
C4061 C4062 1.523 . S
C4062 C4043 1.368 . S
C4062 C4056 1.368 . S
C4062 C4061 1.523 . S
C4063 C4047 1.429 . S
C4063 C4059 1.429 . S
C4063 C4064 1.523 . S
C4064 C4048 1.368 . S
C4064 C4060 1.368 . S
C4064 C4063 1.523 . S
H4065 C4040 0.950 . S
H4066 C4042 0.950 . S
H4067 C4043 0.949 . S
H4068 C4045 0.950 . S
H4069 C4047 0.950 . S
C4070 C4071 1.349 . S
C4070 C4072 1.327 . S
C4070 H4095 0.950 . S
C4071 C4070 1.349 . S
C4071 C4087 1.349 . S
C4072 C4070 1.327 . S
C4072 C4091 1.429 . S
C4072 H4096 0.950 . S
C4073 C4090 1.574 . S
C4073 C4092 1.368 . S
C4073 H4097 0.949 . S
H4074 C4078 0.949 . S
C4075 C4076 1.349 . S
C4075 C4077 1.327 . S
C4075 H4098 0.950 . S
C4076 C4075 1.349 . S
C4076 C4088 1.349 . S
C4077 C4075 1.327 . S
C4077 C4093 1.429 . S
C4077 H4099 0.950 . S
C4078 H4074 0.949 . S
C4078 C4086 1.574 . S
C4078 C4094 1.368 . S
H4079 C4087 0.950 . S
H4080 C4085 0.950 . S
H4081 C4086 0.949 . S
H4082 C4088 0.950 . S
H4083 C4089 0.950 . S
H4084 C4090 0.949 . S
C4085 H4080 0.950 . S
C4085 C4087 1.327 . S
C4085 C4091 1.429 . S
C4086 C4078 1.574 . S
C4086 H4081 0.949 . S
C4086 C4092 1.368 . S
C4087 C4071 1.349 . S
C4087 H4079 0.950 . S
C4087 C4085 1.327 . S
C4088 C4076 1.349 . S
C4088 H4082 0.950 . S
C4088 C4089 1.327 . S
C4089 H4083 0.950 . S
C4089 C4088 1.327 . S
C4089 C4093 1.429 . S
C4090 C4073 1.574 . S
C4090 H4084 0.949 . S
C4090 C4094 1.368 . S
C4091 C4072 1.429 . S
C4091 C4085 1.429 . S
C4091 C4092 1.523 . S
C4092 C4073 1.368 . S
C4092 C4086 1.368 . S
C4092 C4091 1.523 . S
C4093 C4077 1.429 . S
C4093 C4089 1.429 . S
C4093 C4094 1.523 . S
C4094 C4078 1.368 . S
C4094 C4090 1.368 . S
C4094 C4093 1.523 . S
H4095 C4070 0.950 . S
H4096 C4072 0.950 . S
H4097 C4073 0.949 . S
H4098 C4075 0.950 . S
H4099 C4077 0.950 . S
C4100 C4101 1.349 . S
C4100 C4102 1.327 . S
C4100 H4125 0.950 . S
C4101 C4100 1.349 . S
C4101 C4117 1.349 . S
C4102 C4100 1.327 . S
C4102 C4121 1.429 . S
C4102 H4126 0.950 . S
C4103 C4120 1.574 . S
C4103 C4122 1.368 . S
C4103 H4127 0.949 . S
H4104 C4108 0.949 . S
C4105 C4106 1.349 . S
C4105 C4107 1.327 . S
C4105 H4128 0.950 . S
C4106 C4105 1.349 . S
C4106 C4118 1.349 . S
C4107 C4105 1.327 . S
C4107 C4123 1.429 . S
C4107 H4129 0.950 . S
C4108 H4104 0.949 . S
C4108 C4116 1.574 . S
C4108 C4124 1.368 . S
H4109 C4117 0.950 . S
H4110 C4115 0.950 . S
H4111 C4116 0.949 . S
H4112 C4118 0.950 . S
H4113 C4119 0.950 . S
H4114 C4120 0.949 . S
C4115 H4110 0.950 . S
C4115 C4117 1.327 . S
C4115 C4121 1.429 . S
C4116 C4108 1.574 . S
C4116 H4111 0.949 . S
C4116 C4122 1.368 . S
C4117 C4101 1.349 . S
C4117 H4109 0.950 . S
C4117 C4115 1.327 . S
C4118 C4106 1.349 . S
C4118 H4112 0.950 . S
C4118 C4119 1.327 . S
C4119 H4113 0.950 . S
C4119 C4118 1.327 . S
C4119 C4123 1.429 . S
C4120 C4103 1.574 . S
C4120 H4114 0.949 . S
C4120 C4124 1.368 . S
C4121 C4102 1.429 . S
C4121 C4115 1.429 . S
C4121 C4122 1.523 . S
C4122 C4103 1.368 . S
C4122 C4116 1.368 . S
C4122 C4121 1.523 . S
C4123 C4107 1.429 . S
C4123 C4119 1.429 . S
C4123 C4124 1.523 . S
C4124 C4108 1.368 . S
C4124 C4120 1.368 . S
C4124 C4123 1.523 . S
H4125 C4100 0.950 . S
H4126 C4102 0.950 . S
H4127 C4103 0.949 . S
H4128 C4105 0.950 . S
H4129 C4107 0.950 . S
C4130 C4131 1.304 1_545 S
C4130 C4132 1.327 . S
C4130 H4155 0.950 . S
C4131 C4130 1.304 1_565 S
C4131 C4147 1.395 . S
C4132 C4130 1.327 . S
C4132 C4151 1.407 1_545 S
C4132 H4156 0.950 . S
C4133 C4150 1.574 1_554 S
C4133 C4152 1.380 . S
C4133 H4157 0.949 . S
H4134 C4138 0.949 . S
C4135 C4136 1.320 1_565 S
C4135 C4137 1.327 . S
C4135 H4158 0.950 . S
C4136 C4135 1.320 1_545 S
C4136 C4148 1.378 . S
C4137 C4135 1.327 . S
C4137 C4153 1.422 1_565 S
C4137 H4159 0.950 . S
C4138 H4134 0.949 . S
C4138 C4146 1.574 1_556 S
C4138 C4154 1.362 . S
H4139 C4147 0.950 . S
H4140 C4145 0.950 . S
H4141 C4146 0.949 . S
H4142 C4148 0.950 . S
H4143 C4149 0.950 . S
H4144 C4150 0.949 . S
C4145 H4140 0.950 . S
C4145 C4147 1.327 . S
C4145 C4151 1.451 . S
C4146 C4138 1.574 1_554 S
C4146 H4141 0.949 . S
C4146 C4152 1.357 1_545 S
C4147 C4131 1.395 . S
C4147 H4139 0.950 . S
C4147 C4145 1.327 . S
C4148 C4136 1.378 . S
C4148 H4142 0.950 . S
C4148 C4149 1.327 . S
C4149 H4143 0.950 . S
C4149 C4148 1.327 . S
C4149 C4153 1.435 . S
C4150 C4133 1.574 1_556 S
C4150 H4144 0.949 . S
C4150 C4154 1.374 1_565 S
C4151 C4132 1.407 1_565 S
C4151 C4145 1.451 . S
C4151 C4152 1.523 . S
C4152 C4133 1.380 . S
C4152 C4146 1.357 1_565 S
C4152 C4151 1.523 . S
C4153 C4137 1.422 1_545 S
C4153 C4149 1.435 . S
C4153 C4154 1.523 . S
C4154 C4138 1.362 . S
C4154 C4150 1.374 1_545 S
C4154 C4153 1.523 . S
H4155 C4130 0.950 . S
H4156 C4132 0.950 . S
H4157 C4133 0.949 . S
H4158 C4135 0.950 . S
H4159 C4137 0.950 . S
C1281 C6 2.060 . S
C1286 C1006 2.060 . S
C1311 C966 2.033 . S
C1316 C46 2.021 . S
C1341 C1086 2.034 . S
C1346 C86 2.022 . S
C1371 C126 2.061 . S
C1376 C1046 2.061 . S
C1401 C175 2.060 . S
C1406 C1175 2.061 . S
C1431 C215 2.034 . S
C1436 C1135 2.021 . S
C1461 C255 2.034 . S
C1466 C1255 2.021 . S
C1491 C1215 2.061 . S
C1496 C295 2.060 . S
C1521 C326 2.034 . S
C1526 C686 2.022 . S
C1551 C366 2.061 . S
C1556 C646 2.061 . S
C1581 C406 2.061 . S
C1586 C766 2.060 . S
C1611 C726 2.033 . S
C1616 C446 2.021 . S
C1641 C495 2.034 . S
C1646 C855 2.021 . S
C1671 C535 2.061 . S
C1676 C815 2.061 . S
C1701 C935 2.061 . S
C1706 C575 2.061 . S
C1731 C615 2.033 . S
C1736 C895 2.021 . S
C1761 C9 1.479 . S
C1766 C129 1.479 . S
C1791 C49 1.484 . S
C1796 C89 1.484 . S
C1821 C298 1.479 . S
C1826 C178 1.479 . S
C1851 C258 1.484 . S
C1856 C218 1.484 . S
C1881 C329 1.464 1_545 S
C1886 C449 1.464 1_545 S
C1911 C369 1.472 . S
C1916 C409 1.472 . S
C1941 C498 1.464 1_565 S
C1946 C618 1.464 1_565 S
C1971 C578 1.472 . S
C1976 C538 1.472 . S
C2001 C649 1.480 . S
C2006 C769 1.480 . S
C2031 C689 1.484 . S
C2036 C729 1.484 . S
C2061 C938 1.480 . S
C2066 C818 1.480 . S
C2091 C858 1.484 . S
C2096 C898 1.484 . S
C2121 C1089 1.465 1_545 S
C2126 C969 1.465 1_545 S
C2151 C1009 1.472 . S
C2156 C1049 1.472 . S
C2181 C1258 1.465 1_565 S
C2186 C1138 1.465 1_565 S
C2211 C1218 1.472 . S
C2216 C1178 1.472 . S
C2241 C55 2.008 . S
C2246 C15 2.008 . S
C2271 C95 2.007 . S
C2276 C135 2.007 . S
C2301 C206 2.008 . S
C2306 C166 2.008 . S
C2331 C286 2.007 . S
C2336 C246 2.007 . S
C2361 C335 2.035 . S
C2366 C375 2.048 . S
C2391 C415 2.035 . S
C2396 C455 2.047 . S
C2421 C526 2.035 . S
C2426 C486 2.047 . S
C2451 C566 2.035 . S
C2456 C606 2.047 . S
C2481 C655 2.007 . S
C2486 C695 2.007 . S
C2511 C775 2.008 . S
C2516 C735 2.008 . S
C2541 C806 2.007 . S
C2546 C846 2.007 . S
C2571 C886 2.008 . S
C2576 C926 2.007 . S
C2601 C975 2.035 . S
C2606 C1015 2.048 . S
C2631 C1055 2.035 . S
C2636 C1095 2.047 . S
C2661 C1166 2.035 . S
C2666 C1126 2.047 . S
C2691 C1206 2.035 . S
C2696 C1246 2.047 . S
C2721 C10 2.534 . S
C2726 C19 2.534 . S
C2751 C50 2.534 . S
C2756 C59 2.534 1_655 S
C2781 C90 2.534 . S
C2786 C99 2.534 . S
C2811 C139 2.534 1_655 S
C2816 C130 2.534 . S
C2841 C170 2.534 . S
C2846 C179 2.534 . S
C2871 C219 2.534 . S
C2876 C210 2.534 1_455 S
C2901 C250 2.534 . S
C2906 C259 2.534 . S
C2931 C290 2.534 1_455 S
C2936 C299 2.534 . S
C2961 C339 2.534 . S
C2966 C330 2.534 . S
C2991 C370 2.534 . S
C2996 C379 2.534 1_655 S
C3021 C410 2.534 . S
C3026 C419 2.534 . S
C3051 C459 2.534 1_655 S
C3056 C450 2.534 . S
C3081 C490 2.534 . S
C3086 C499 2.534 . S
C3111 C539 2.534 . S
C3116 C530 2.534 1_455 S
C3141 C579 2.534 . S
C3146 C570 2.534 . S
C3171 C610 2.534 1_455 S
C3176 C619 2.534 . S
C3201 C650 2.534 . S
C3206 C659 2.534 . S
C3231 C699 2.534 . S
C3236 C690 2.534 . S
C3261 C739 2.534 . S
C3266 C730 2.534 . S
C3291 C770 2.534 . S
C3296 C779 2.534 . S
C3321 C819 2.534 . S
C3326 C810 2.534 . S
C3351 C859 2.534 . S
C3356 C850 2.534 . S
C3381 C890 2.534 . S
C3386 C899 2.534 . S
C3411 C939 2.534 . S
C3416 C930 2.534 . S
C3441 C979 2.534 . S
C3446 C970 2.534 . S
C3471 C1010 2.534 . S
C3476 C1019 2.534 . S
C3501 C1059 2.534 . S
C3506 C1050 2.534 . S
C3531 C1099 2.534 . S
C3536 C1090 2.534 . S
C3561 C1139 2.534 . S
C3566 C1130 2.534 . S
C3591 C1179 2.534 . S
C3596 C1170 2.534 . S
C3621 C1210 2.534 . S
C3626 C1219 2.534 . S
C3651 C1250 2.534 . S
C3656 C1259 2.534 . S
C3681 C18 1.477 . S
C3686 C169 1.477 . S
C3711 C1169 1.477 . S
C3716 C58 1.477 . S
C3741 C569 1.477 . S
C3746 C98 1.477 . S
C3771 C138 1.477 . S
C3776 C929 1.477 . S
C3801 C209 1.477 . S
C3806 C1018 1.477 . S
C3831 C249 1.477 . S
C3836 C418 1.477 . S
C3861 C289 1.477 . S
C3866 C778 1.477 . S
C3891 C338 1.458 1_565 S
C3896 C489 1.458 1_545 S
C3921 C849 1.477 . S
C3926 C378 1.477 . S
C3951 C1249 1.458 1_545 S
C3956 C458 1.458 1_565 S
C3981 C529 1.477 . S
C3986 C698 1.477 . S
C4011 C1098 1.458 1_565 S
C4016 C609 1.458 1_545 S
C4041 C658 1.477 . S
C4046 C809 1.477 . S
C4071 C1209 1.477 . S
C4076 C738 1.477 . S
C4101 C889 1.477 . S
C4106 C1058 1.477 . S
C4131 C978 1.459 1_565 S
C4136 C1129 1.459 1_545 S
