# Generated by pormake.
# Topology zft, (5)-cn, num edge types: 1
# Building blocks:
#     Node 0, Type 0, BuildingBlock: BEQFEK_clean_sbu_0, # of connection points: 5
#     Node 1, Type 0, BuildingBlock: BEQFEK_clean_sbu_0, # of connection points: 5
#     Node 2, Type 0, BuildingBlock: BEQFEK_clean_sbu_0, # of connection points: 5
#     Node 3, Type 0, BuildingBlock: BEQFEK_clean_sbu_0, # of connection points: 5
#     Node 4, Type 0, BuildingBlock: BEQFEK_clean_sbu_0, # of connection points: 5
#     Node 5, Type 0, BuildingBlock: BEQFEK_clean_sbu_0, # of connection points: 5
#     Node 6, Type 0, BuildingBlock: BEQFEK_clean_sbu_0, # of connection points: 5
#     Node 7, Type 0, BuildingBlock: BEQFEK_clean_sbu_0, # of connection points: 5
#     Edge 8, Type (0, 0), BuildingBlock: XUDNAN_clean_linker_2, # of connection points: 2
#     Edge 9, Type (0, 0), BuildingBlock: XUDNAN_clean_linker_2, # of connection points: 2
#     Edge 10, Type (0, 0), BuildingBlock: XUDNAN_clean_linker_2, # of connection points: 2
#     Edge 11, Type (0, 0), BuildingBlock: XUDNAN_clean_linker_2, # of connection points: 2
#     Edge 12, Type (0, 0), BuildingBlock: XUDNAN_clean_linker_2, # of connection points: 2
#     Edge 13, Type (0, 0), BuildingBlock: XUDNAN_clean_linker_2, # of connection points: 2
#     Edge 14, Type (0, 0), BuildingBlock: XUDNAN_clean_linker_2, # of connection points: 2
#     Edge 15, Type (0, 0), BuildingBlock: XUDNAN_clean_linker_2, # of connection points: 2
#     Edge 16, Type (0, 0), BuildingBlock: XUDNAN_clean_linker_2, # of connection points: 2
#     Edge 17, Type (0, 0), BuildingBlock: XUDNAN_clean_linker_2, # of connection points: 2
#     Edge 18, Type (0, 0), BuildingBlock: XUDNAN_clean_linker_2, # of connection points: 2
#     Edge 19, Type (0, 0), BuildingBlock: XUDNAN_clean_linker_2, # of connection points: 2
#     Edge 20, Type (0, 0), BuildingBlock: XUDNAN_clean_linker_2, # of connection points: 2
#     Edge 21, Type (0, 0), BuildingBlock: XUDNAN_clean_linker_2, # of connection points: 2
#     Edge 22, Type (0, 0), BuildingBlock: XUDNAN_clean_linker_2, # of connection points: 2
#     Edge 23, Type (0, 0), BuildingBlock: XUDNAN_clean_linker_2, # of connection points: 2
#     Edge 24, Type (0, 0), BuildingBlock: XUDNAN_clean_linker_2, # of connection points: 2
#     Edge 25, Type (0, 0), BuildingBlock: XUDNAN_clean_linker_2, # of connection points: 2
#     Edge 26, Type (0, 0), BuildingBlock: XUDNAN_clean_linker_2, # of connection points: 2
#     Edge 27, Type (0, 0), BuildingBlock: XUDNAN_clean_linker_2, # of connection points: 2
# Relax obj value: 0.051
# Max RMSD: 0.118
# Mean RMSD: 0.118
data_MOF--net-zft--node1-BEQFEK_clean_sbu_0--edge1-XUDNAN_clean_linker_2
_symmetry_space_group_name_H-M    P1
_symmetry_Int_Tables_number       1
_symmetry_cell_setting            triclinic
loop_
_symmetry_equiv_pos_as_xyz
'x, y, z'
_cell_length_a     28.445975
_cell_length_b     28.412234
_cell_length_c     54.642771
_cell_angle_alpha  89.922948
_cell_angle_beta   89.98342
_cell_angle_gamma 90.070843
loop_
_atom_site_label
_atom_site_type_symbol
_atom_site_fract_x
_atom_site_fract_y
_atom_site_fract_z
_atom_type_partial_charge
Co0 Co 0.03886 0.26616 0.18952 0.0
Co1 Co 0.11985 0.33273 0.17061 0.0
C2 C 0.02627 0.3344 0.14713 0.0
O3 O 0.0119 0.30231 0.16167 0.0
O4 O 0.06786 0.35089 0.1485 0.0
C5 C 0.94737 0.25402 0.20954 0.0
O6 O 0.94298 0.29772 0.202 0.0
C7 C 0.17984 0.4155 0.15779 0.0
C8 C 0.24991 0.38276 0.16091 0.0
C9 C 0.22793 0.42508 0.15544 0.0
N10 N 0.17459 0.37003 0.16438 0.0
N11 N 0.21664 0.35081 0.1661 0.0
C12 C 0.13936 0.44861 0.15499 0.0
H13 H 0.10694 0.43315 0.16296 0.0
H14 H 0.1472 0.48254 0.16417 0.0
H15 H 0.13309 0.45531 0.13525 0.0
C16 C 0.06087 0.31586 0.23593 0.0
N17 N 0.06868 0.30747 0.21201 0.0
N18 N 0.10175 0.3362 0.2041 0.0
C19 C 0.11579 0.36393 0.22276 0.0
C20 C 0.0901 0.35204 0.24349 0.0
C21 C 0.02652 0.2894 0.2515 0.0
H22 H 0.02642 0.25164 0.24642 0.0
H23 H 0.99082 0.30398 0.24858 0.0
H24 H 0.03539 0.29275 0.2712 0.0
O25 O 0.08404 0.21899 0.17671 0.0
O26 O 0.13854 0.2676 0.1623 0.0
H27 H 0.18464 0.38891 0.21382 0.0
H28 H 0.15595 0.42234 0.23766 0.0
C29 C 0.15053 0.40323 0.22022 0.0
H30 H 0.1377 0.42847 0.2063 0.0
H31 H 0.22263 0.31578 0.17093 0.0
O32 O 0.98602 0.23269 0.20588 0.0
C33 C 0.12276 0.22613 0.16559 0.0
Co34 Co 0.21663 0.55289 0.43134 0.0
Co35 Co 0.14458 0.63029 0.41482 0.0
C36 C 0.14533 0.53484 0.39199 0.0
O37 O 0.18024 0.52148 0.4048 0.0
O38 O 0.12761 0.57565 0.39442 0.0
C39 C 0.27081 0.4685 0.43627 0.0
O40 O 0.25777 0.46181 0.41347 0.0
C41 C 0.05517 0.67373 0.40178 0.0
C42 C 0.07547 0.74806 0.3964 0.0
C43 C 0.03806 0.71706 0.3938 0.0
N44 N 0.10047 0.67899 0.40813 0.0
N45 N 0.11229 0.72358 0.40514 0.0
C46 C 0.02947 0.62797 0.40407 0.0
H47 H 0.04656 0.60532 0.41804 0.0
H48 H 0.99219 0.63398 0.40917 0.0
H49 H 0.03081 0.60924 0.38631 0.0
C50 C 0.17187 0.57323 0.47929 0.0
N51 N 0.17597 0.58036 0.45501 0.0
N52 N 0.14584 0.61299 0.44822 0.0
C53 C 0.12155 0.62766 0.46795 0.0
C54 C 0.1372 0.60288 0.48831 0.0
C55 C 0.19982 0.53764 0.49329 0.0
H56 H 0.19712 0.50295 0.4841 0.0
H57 H 0.18739 0.53412 0.51245 0.0
H58 H 0.2374 0.54818 0.49324 0.0
O59 O 0.25829 0.60119 0.41656 0.0
O60 O 0.20645 0.65447 0.40425 0.0
H61 H 0.07711 0.6788 0.48612 0.0
H62 H 0.05364 0.65372 0.45831 0.0
C63 C 0.08605 0.6665 0.46744 0.0
H64 H 0.09995 0.69653 0.45665 0.0
H65 H 0.14599 0.73694 0.40818 0.0
O66 O 0.25734 0.50535 0.44739 0.0
C67 C 0.24863 0.64001 0.40604 0.0
Co68 Co 0.9492 0.72734 0.68428 0.0
Co69 Co 0.87475 0.65637 0.66322 0.0
C70 C 0.97137 0.66394 0.64182 0.0
O71 O 0.98338 0.69522 0.65736 0.0
O72 O 0.93031 0.64579 0.64185 0.0
C73 C 0.03589 0.76412 0.70655 0.0
O74 O 0.05811 0.72788 0.69716 0.0
C75 C 0.82474 0.57282 0.64324 0.0
C76 C 0.75126 0.5932 0.65106 0.0
C77 C 0.77833 0.55883 0.64003 0.0
N78 N 0.82487 0.61373 0.65566 0.0
N79 N 0.78085 0.62531 0.66048 0.0
C80 C 0.86779 0.55074 0.63258 0.0
H81 H 0.8784 0.5708 0.61603 0.0
H82 H 0.89709 0.55275 0.64594 0.0
H83 H 0.86137 0.5136 0.62733 0.0
C84 C 0.92608 0.67623 0.7299 0.0
N85 N 0.92162 0.68276 0.70561 0.0
N86 N 0.89138 0.65197 0.69687 0.0
C87 C 0.87618 0.62433 0.71536 0.0
C88 C 0.89756 0.639 0.73689 0.0
C89 C 0.95722 0.70519 0.74605 0.0
H90 H 0.94787 0.74292 0.74414 0.0
H91 H 0.99421 0.7008 0.7401 0.0
H92 H 0.95444 0.69458 0.76554 0.0
O93 O 0.90072 0.76978 0.67061 0.0
O94 O 0.84856 0.71944 0.65577 0.0
H95 H 0.80523 0.60364 0.70861 0.0
H96 H 0.83594 0.56552 0.7296 0.0
C97 C 0.83954 0.58688 0.7127 0.0
H98 H 0.84872 0.5636 0.69714 0.0
H99 H 0.77096 0.65608 0.66952 0.0
O100 O 0.99204 0.76886 0.7029 0.0
C101 C 0.86218 0.76143 0.65964 0.0
Co102 Co 0.78729 0.45468 0.93697 0.0
Co103 Co 0.86468 0.38539 0.9177 0.0
C104 C 0.84747 0.47844 0.8936 0.0
O105 O 0.81589 0.4887 0.90919 0.0
O106 O 0.86935 0.43939 0.89451 0.0
C107 C 0.7235 0.53084 0.94225 0.0
O108 O 0.7311 0.53532 0.91865 0.0
C109 C 0.95783 0.34653 0.90438 0.0
C110 C 0.94174 0.2704 0.90442 0.0
C111 C 0.97755 0.30246 0.90012 0.0
N112 N 0.91261 0.34043 0.91092 0.0
N113 N 0.90338 0.29485 0.91099 0.0
C114 C 0.98053 0.39369 0.90117 0.0
H115 H 0.95388 0.42177 0.89942 0.0
H116 H 0.00219 0.40164 0.91753 0.0
H117 H 0.00369 0.39377 0.88482 0.0
C118 C 0.8388 0.43998 0.98311 0.0
N119 N 0.83401 0.43366 0.95885 0.0
N120 N 0.86678 0.4047 0.95105 0.0
C121 C 0.89339 0.39129 0.97027 0.0
C122 C 0.87646 0.41323 0.99125 0.0
C123 C 0.8071 0.47043 0.99816 0.0
H124 H 0.77145 0.45455 0.99869 0.0
H125 H 0.80414 0.50561 0.98948 0.0
H126 H 0.82043 0.47478 0.0171 0.0
O127 O 0.7497 0.40115 0.9245 0.0
O128 O 0.80492 0.35266 0.91098 0.0
H129 H 0.91581 0.32213 0.96025 0.0
H130 H 0.94445 0.34471 0.98723 0.0
C131 C 0.93059 0.35415 0.96892 0.0
H132 H 0.95988 0.36697 0.95729 0.0
H133 H 0.87062 0.28043 0.91524 0.0
O134 O 0.74384 0.498 0.95393 0.0
C135 C 0.76187 0.36265 0.91443 0.0
Co136 Co 0.54667 0.21686 0.56127 0.0
Co137 Co 0.62878 0.16559 0.58891 0.0
C138 C 0.52955 0.16982 0.60904 0.0
O139 O 0.51378 0.1922 0.59058 0.0
O140 O 0.5728 0.15858 0.61054 0.0
C141 C 0.48016 0.28362 0.54217 0.0
O142 O 0.49046 0.30762 0.56199 0.0
C143 C 0.67238 0.08067 0.60884 0.0
C144 C 0.74789 0.09891 0.6089 0.0
C145 C 0.7168 0.06224 0.61328 0.0
N146 N 0.67719 0.12562 0.60151 0.0
N147 N 0.72236 0.13657 0.60197 0.0
C148 C 0.62574 0.05687 0.61213 0.0
H149 H 0.60853 0.05243 0.59406 0.0
H150 H 0.62907 0.02231 0.62139 0.0
H151 H 0.60264 0.07931 0.62348 0.0
C152 C 0.57398 0.1505 0.52236 0.0
N153 N 0.57931 0.16849 0.54497 0.0
N154 N 0.61421 0.14696 0.55614 0.0
C155 C 0.63225 0.11443 0.54076 0.0
C156 C 0.60731 0.11568 0.51895 0.0
C157 C 0.53624 0.16509 0.50486 0.0
H158 H 0.50161 0.16335 0.51416 0.0
H159 H 0.53546 0.14241 0.48835 0.0
H160 H 0.54235 0.20213 0.49922 0.0
O161 O 0.59116 0.26744 0.57043 0.0
O162 O 0.65054 0.23247 0.58962 0.0
H163 H 0.68825 0.06801 0.52932 0.0
H164 H 0.66259 0.05483 0.55863 0.0
C165 C 0.67364 0.08374 0.54627 0.0
H166 H 0.70143 0.10459 0.55543 0.0
H167 H 0.73588 0.16922 0.59672 0.0
O168 O 0.49971 0.24404 0.53862 0.0
C169 C 0.63074 0.26946 0.58131 0.0
Co170 Co 0.28921 0.05215 0.82174 0.0
Co171 Co 0.36493 0.1274 0.8359 0.0
C172 C 0.35139 0.03844 0.86519 0.0
O173 O 0.31877 0.02292 0.85135 0.0
O174 O 0.37152 0.07758 0.86083 0.0
C175 C 0.24819 0.96453 0.80293 0.0
O176 O 0.28863 0.94413 0.80761 0.0
C177 C 0.45862 0.16733 0.8462 0.0
C178 C 0.44212 0.24332 0.84683 0.0
C179 C 0.47835 0.21144 0.85028 0.0
N180 N 0.41294 0.17316 0.84065 0.0
N181 N 0.40346 0.21867 0.84087 0.0
C182 C 0.48174 0.1203 0.84887 0.0
H183 H 0.45536 0.09172 0.84971 0.0
H184 H 0.50438 0.11375 0.83271 0.0
H185 H 0.50414 0.11959 0.8655 0.0
C186 C 0.33787 0.06285 0.77336 0.0
N187 N 0.3342 0.07137 0.79759 0.0
N188 N 0.36598 0.10292 0.80375 0.0
C189 C 0.3909 0.11535 0.78378 0.0
C190 C 0.37408 0.09026 0.76383 0.0
C191 C 0.3064 0.03008 0.75954 0.0
H192 H 0.26916 0.03994 0.76268 0.0
H193 H 0.31162 0.99381 0.76649 0.0
H194 H 0.31401 0.03027 0.73964 0.0
O195 O 0.25139 0.10719 0.83247 0.0
O196 O 0.30543 0.16032 0.842 0.0
H197 H 0.41046 0.1863 0.79212 0.0
H198 H 0.43681 0.16418 0.76449 0.0
C199 C 0.42592 0.15476 0.78335 0.0
H200 H 0.45742 0.14427 0.79398 0.0
H201 H 0.37026 0.23285 0.83752 0.0
O202 O 0.24288 0.00804 0.80748 0.0
C203 C 0.26265 0.14802 0.84008 0.0
Co204 Co 0.44212 0.77423 0.06767 0.0
Co205 Co 0.35653 0.82603 0.09171 0.0
C206 C 0.45707 0.83693 0.10998 0.0
O207 O 0.47418 0.81162 0.09298 0.0
O208 O 0.41289 0.84374 0.11175 0.0
C209 C 0.5134 0.70796 0.05089 0.0
O210 O 0.50683 0.68545 0.07163 0.0
C211 C 0.30793 0.91003 0.10907 0.0
C212 C 0.23309 0.88935 0.10737 0.0
C213 C 0.26261 0.92695 0.11242 0.0
N214 N 0.30526 0.8649 0.10186 0.0
N215 N 0.26046 0.85254 0.10116 0.0
C216 C 0.35345 0.93501 0.11383 0.0
H217 H 0.37586 0.93364 0.09722 0.0
H218 H 0.34845 0.97193 0.11971 0.0
H219 H 0.37238 0.91648 0.12872 0.0
C220 C 0.41031 0.82765 0.02472 0.0
N221 N 0.40422 0.81341 0.04799 0.0
N222 N 0.36855 0.83619 0.05766 0.0
C223 C 0.35084 0.86585 0.0406 0.0
C224 C 0.3769 0.86138 0.0192 0.0
C225 C 0.44943 0.81135 0.00852 0.0
H226 H 0.44788 0.77247 0.00692 0.0
H227 H 0.48363 0.82104 0.0169 0.0
H228 H 0.4471 0.8269 0.98992 0.0
O229 O 0.40508 0.72402 0.08374 0.0
O230 O 0.34091 0.75856 0.09851 0.0
H231 H 0.2824 0.8836 0.05394 0.0
H232 H 0.30163 0.91872 0.02817 0.0
C233 C 0.31302 0.9012 0.04533 0.0
H234 H 0.32639 0.92832 0.05814 0.0
H235 H 0.24852 0.81935 0.09584 0.0
O236 O 0.49017 0.74514 0.04649 0.0
C237 C 0.36575 0.7219 0.09484 0.0
Co238 Co 0.71002 0.9571 0.317 0.0
Co239 Co 0.64772 0.86854 0.32828 0.0
C240 C 0.6539 0.95209 0.36256 0.0
O241 O 0.68002 0.97646 0.34843 0.0
O242 O 0.64053 0.91093 0.35661 0.0
C243 C 0.73344 0.05313 0.30516 0.0
O244 O 0.69391 0.06258 0.31658 0.0
C245 C 0.55859 0.82306 0.33944 0.0
C246 C 0.5743 0.74765 0.33375 0.0
C247 C 0.53879 0.77841 0.34046 0.0
N248 N 0.60345 0.81881 0.33216 0.0
N249 N 0.61273 0.77371 0.32881 0.0
C250 C 0.53756 0.86888 0.3474 0.0
H251 H 0.55484 0.88022 0.3646 0.0
H252 H 0.54476 0.89625 0.33337 0.0
H253 H 0.49936 0.86647 0.35094 0.0
C254 C 0.65552 0.95138 0.27021 0.0
N255 N 0.6646 0.93721 0.29332 0.0
N256 N 0.63837 0.90024 0.29829 0.0
C257 C 0.61193 0.88961 0.2786 0.0
C258 C 0.62168 0.9218 0.26014 0.0
C259 C 0.67949 0.99191 0.2579 0.0
H260 H 0.71806 0.98613 0.25796 0.0
H261 H 0.67213 0.02451 0.26833 0.0
H262 H 0.66709 0.99692 0.23884 0.0
O263 O 0.75571 0.90538 0.32432 0.0
O264 O 0.71114 0.84168 0.32935 0.0
H265 H 0.6029 0.81529 0.28316 0.0
H266 H 0.57126 0.8391 0.25747 0.0
C267 C 0.58253 0.846 0.27655 0.0
H268 H 0.5509 0.84977 0.28825 0.0
H269 H 0.64537 0.76073 0.32331 0.0
O270 O 0.7469 0.01061 0.30352 0.0
C271 C 0.75129 0.86134 0.32833 0.0
H272 H 0.16263 0.36782 0.27543 0.0
H273 H 0.0138 0.39238 0.26444 0.0
H274 H 0.01032 0.43664 0.30334 0.0
H275 H 0.15728 0.35432 0.3423 0.0
H276 H 0.2124 0.38424 0.34715 0.0
H277 H 0.20259 0.3519 0.31926 0.0
H278 H 0.22176 0.42655 0.29381 0.0
H279 H 0.23182 0.45901 0.32159 0.0
H280 H 0.18963 0.48007 0.29954 0.0
H281 H 0.02436 0.48362 0.34115 0.0
H282 H 0.05469 0.52907 0.37627 0.0
H283 H 0.19402 0.4721 0.36378 0.0
C284 C 0.12937 0.38234 0.28141 0.0
C285 C 0.08844 0.37693 0.26714 0.0
C286 C 0.04538 0.39608 0.27534 0.0
C287 C 0.04311 0.4212 0.29734 0.0
C288 C 0.08416 0.42634 0.31097 0.0
C289 C 0.12645 0.40724 0.30345 0.0
C290 C 0.16566 0.41939 0.3211 0.0
C291 C 0.18565 0.3748 0.33317 0.0
C292 C 0.2045 0.44796 0.30824 0.0
C293 C 0.13901 0.44915 0.33942 0.0
C294 C 0.09202 0.45259 0.33324 0.0
C295 C 0.06093 0.4807 0.34639 0.0
C296 C 0.07846 0.5065 0.36622 0.0
C297 C 0.12649 0.50373 0.37278 0.0
C298 C 0.15691 0.47403 0.35946 0.0
H299 H 0.95151 0.62781 0.59657 0.0
H300 H 0.0672 0.67154 0.64307 0.0
H301 H 0.12309 0.65511 0.60953 0.0
H302 H 0.01373 0.53465 0.56313 0.0
H303 H 0.98548 0.54895 0.53455 0.0
H304 H 0.95532 0.55921 0.56306 0.0
H305 H 0.94351 0.64666 0.55102 0.0
H306 H 0.97387 0.63679 0.52259 0.0
H307 H 0.99397 0.68207 0.54317 0.0
H308 H 0.16588 0.6379 0.5703 0.0
H309 H 0.1919 0.6242 0.52762 0.0
H310 H 0.04809 0.59512 0.50633 0.0
C311 C 0.9887 0.63298 0.59986 0.0
C312 C 0.00512 0.6505 0.62249 0.0
C313 C 0.05392 0.65797 0.62589 0.0
C314 C 0.08592 0.64861 0.60699 0.0
C315 C 0.0685 0.63215 0.58475 0.0
C316 C 0.02101 0.62454 0.58108 0.0
C317 C 0.011 0.61019 0.5549 0.0
C318 C 0.99016 0.56028 0.55386 0.0
C319 C 0.97868 0.64607 0.54218 0.0
C320 C 0.06019 0.61153 0.54435 0.0
C321 C 0.09294 0.62366 0.56194 0.0
C322 C 0.1406 0.62809 0.55642 0.0
C323 C 0.15507 0.62021 0.53223 0.0
C324 C 0.12191 0.60859 0.51394 0.0
C325 C 0.074 0.60397 0.52011 0.0
H326 H 0.88999 0.45991 0.84948 0.0
H327 H 0.82346 0.57136 0.8913 0.0
H328 H 0.83122 0.62494 0.856 0.0
H329 H 0.97257 0.5348 0.81558 0.0
H330 H 0.96649 0.50132 0.78776 0.0
H331 H 0.95921 0.47281 0.817 0.0
H332 H 0.87682 0.4435 0.80365 0.0
H333 H 0.88362 0.47231 0.77449 0.0
H334 H 0.83358 0.48557 0.7935 0.0
H335 H 0.84287 0.66546 0.81592 0.0
H336 H 0.85836 0.69041 0.77322 0.0
H337 H 0.91491 0.55247 0.75688 0.0
C338 C 0.87785 0.49583 0.85136 0.0
C339 C 0.85636 0.51154 0.8732 0.0
C340 C 0.84012 0.55857 0.87477 0.0
C341 C 0.84438 0.5893 0.85483 0.0
C342 C 0.8648 0.57244 0.83342 0.0
C343 C 0.88138 0.52689 0.83153 0.0
C344 C 0.8998 0.51704 0.80601 0.0
C345 C 0.95266 0.50584 0.80663 0.0
C346 C 0.87177 0.47725 0.79369 0.0
C347 C 0.89049 0.56401 0.79382 0.0
C348 C 0.87061 0.59556 0.81004 0.0
C349 C 0.85857 0.64116 0.80307 0.0
C350 C 0.86737 0.65499 0.77888 0.0
C351 C 0.88762 0.62322 0.76204 0.0
C352 C 0.89918 0.57717 0.76954 0.0
H353 H 0.96344 0.42164 0.01224 0.0
H354 H 0.81917 0.38231 0.02763 0.0
H355 H 0.84076 0.36378 0.07039 0.0
H356 H 0.01659 0.33114 0.04722 0.0
H357 H 0.06471 0.36686 0.05801 0.0
H358 H 0.03715 0.38019 0.02918 0.0
H359 H 0.02071 0.46521 0.04401 0.0
H360 H 0.04807 0.45204 0.07296 0.0
H361 H 0.98877 0.47429 0.07211 0.0
H362 H 0.87876 0.34435 0.11027 0.0
H363 H 0.93077 0.32504 0.14497 0.0
H364 H 0.05062 0.37821 0.10414 0.0
C365 C 0.9365 0.40947 0.02476 0.0
C366 C 0.88965 0.40364 0.01689 0.0
C367 C 0.85514 0.38748 0.03355 0.0
C368 C 0.86708 0.37686 0.0578 0.0
C369 C 0.91364 0.38282 0.06505 0.0
C370 C 0.94784 0.39886 0.04908 0.0
C371 C 0.99561 0.40029 0.06131 0.0
C372 C 0.03056 0.36767 0.04815 0.0
C373 C 0.01438 0.45098 0.06268 0.0
C374 C 0.98306 0.38168 0.08648 0.0
C375 C 0.93555 0.37205 0.08826 0.0
C376 C 0.91593 0.35222 0.10923 0.0
C377 C 0.94578 0.34131 0.12881 0.0
C378 C 0.99468 0.35038 0.12732 0.0
C379 C 0.01329 0.37156 0.10598 0.0
H380 H 0.63102 0.13882 0.47193 0.0
H381 H 0.59426 0.0213 0.5188 0.0
H382 H 0.59924 0.96729 0.48335 0.0
H383 H 0.56927 0.10039 0.41783 0.0
H384 H 0.6143 0.11979 0.39689 0.0
H385 H 0.60648 0.14947 0.42572 0.0
H386 H 0.69391 0.13462 0.43652 0.0
H387 H 0.70205 0.1051 0.40768 0.0
H388 H 0.71655 0.07539 0.43584 0.0
H389 H 0.60576 0.92707 0.44305 0.0
H390 H 0.62137 0.90045 0.40104 0.0
H391 H 0.65902 0.04322 0.38014 0.0
C392 C 0.62404 0.10167 0.47456 0.0
C393 C 0.612 0.08383 0.49785 0.0
C394 C 0.6035 0.03521 0.50096 0.0
C395 C 0.60607 0.00449 0.48098 0.0
C396 C 0.61775 0.02308 0.45815 0.0
C397 C 0.62725 0.07038 0.45485 0.0
C398 C 0.64091 0.08074 0.42855 0.0
C399 C 0.60563 0.1146 0.41654 0.0
C400 C 0.69136 0.1001 0.42707 0.0
C401 C 0.63753 0.03186 0.41758 0.0
C402 C 0.6235 0.99936 0.43496 0.0
C403 C 0.61703 0.9521 0.42929 0.0
C404 C 0.62583 0.9374 0.4053 0.0
C405 C 0.64159 0.96971 0.38725 0.0
C406 C 0.64723 0.01766 0.39353 0.0
H407 H 0.46125 0.08249 0.74346 0.0
H408 H 0.31658 0.11666 0.72633 0.0
H409 H 0.33977 0.13671 0.68388 0.0
H410 H 0.51231 0.17576 0.71062 0.0
H411 H 0.56265 0.14294 0.70018 0.0
H412 H 0.53394 0.12679 0.72832 0.0
H413 H 0.52194 0.04189 0.71218 0.0
H414 H 0.55086 0.0577 0.68399 0.0
H415 H 0.49256 0.03283 0.68334 0.0
H416 H 0.37999 0.15894 0.6444 0.0
H417 H 0.43353 0.1794 0.61043 0.0
H418 H 0.55228 0.13106 0.65359 0.0
C419 C 0.43446 0.09337 0.73056 0.0
C420 C 0.3871 0.09748 0.73789 0.0
C421 C 0.35291 0.11249 0.7208 0.0
C422 C 0.36581 0.12414 0.69675 0.0
C423 C 0.41303 0.12048 0.69015 0.0
C424 C 0.44679 0.10514 0.70652 0.0
C425 C 0.49539 0.10649 0.69522 0.0
C426 C 0.52798 0.14 0.70943 0.0
C427 C 0.51641 0.05676 0.69358 0.0
C428 C 0.48385 0.12576 0.67008 0.0
C429 C 0.43616 0.13342 0.66748 0.0
C430 C 0.41736 0.15266 0.64615 0.0
C431 C 0.4481 0.16432 0.62697 0.0
C432 C 0.49717 0.15673 0.62924 0.0
C433 C 0.51498 0.13698 0.65112 0.0
H434 H 0.31321 0.86993 0.98163 0.0
H435 H 0.4453 0.92433 0.0092 0.0
H436 H 0.45397 0.97371 0.97218 0.0
H437 H 0.34803 0.86295 0.91876 0.0
H438 H 0.29206 0.88116 0.90655 0.0
H439 H 0.29478 0.85134 0.93563 0.0
H440 H 0.25073 0.92044 0.9563 0.0
H441 H 0.24731 0.95018 0.92722 0.0
H442 H 0.27335 0.97944 0.95315 0.0
H443 H 0.4496 0.01524 0.93233 0.0
H444 H 0.4306 0.05076 0.89246 0.0
H445 H 0.30135 0.96931 0.88958 0.0
C446 C 0.34348 0.89284 0.97988 0.0
C447 C 0.37857 0.89384 0.99812 0.0
C448 C 0.41811 0.92354 0.99533 0.0
C449 C 0.42336 0.95146 0.97438 0.0
C450 C 0.38872 0.94914 0.95642 0.0
C451 C 0.34936 0.92094 0.95895 0.0
C452 C 0.31774 0.92495 0.93666 0.0
C453 C 0.31288 0.87726 0.92363 0.0
C454 C 0.26942 0.94495 0.94376 0.0
C455 C 0.34558 0.9597 0.92128 0.0
C456 C 0.38641 0.97303 0.93309 0.0
C457 C 0.41772 0.00517 0.92287 0.0
C458 C 0.4066 0.02509 0.90017 0.0
C459 C 0.36453 0.0128 0.88782 0.0
C460 C 0.33401 0.97907 0.89842 0.0
H461 H 0.53114 0.92019 0.24369 0.0
H462 H 0.67586 0.91496 0.21918 0.0
H463 H 0.64893 0.90035 0.1768 0.0
H464 H 0.49115 0.82698 0.20842 0.0
H465 H 0.43426 0.85165 0.20163 0.0
H466 H 0.46452 0.86836 0.22919 0.0
H467 H 0.45886 0.95621 0.21675 0.0
H468 H 0.42831 0.93981 0.18914 0.0
H469 H 0.48108 0.97483 0.18738 0.0
H470 H 0.60671 0.87678 0.13848 0.0
H471 H 0.55233 0.8486 0.10649 0.0
H472 H 0.43454 0.86959 0.1558 0.0
C473 C 0.55696 0.91713 0.22921 0.0
C474 C 0.60547 0.91934 0.23446 0.0
C475 C 0.63852 0.9143 0.21531 0.0
C476 C 0.62353 0.90582 0.19126 0.0
C477 C 0.57538 0.90275 0.18673 0.0
C478 C 0.54254 0.90868 0.20512 0.0
C479 C 0.49309 0.9003 0.19576 0.0
C480 C 0.46939 0.85939 0.20957 0.0
C481 C 0.4636 0.94549 0.19735 0.0
C482 C 0.50333 0.88738 0.16941 0.0
C483 C 0.55098 0.88933 0.16454 0.0
C484 C 0.56926 0.87587 0.14195 0.0
C485 C 0.5381 0.85972 0.12393 0.0
C486 C 0.48913 0.85721 0.12856 0.0
C487 C 0.47165 0.87188 0.15154 0.0
H488 H 0.19254 0.95616 0.14325 0.0
H489 H 0.29636 0.00736 0.0915 0.0
H490 H 0.27302 0.08912 0.10043 0.0
H491 H 0.10347 0.0421 0.12744 0.0
H492 H 0.08211 0.048 0.15834 0.0
H493 H 0.10787 0.99334 0.14846 0.0
H494 H 0.1675 0.99746 0.18423 0.0
H495 H 0.14202 0.0522 0.19418 0.0
H496 H 0.20403 0.04895 0.1876 0.0
H497 H 0.24039 0.16472 0.11553 0.0
H498 H 0.1964 0.23047 0.13367 0.0
H499 H 0.11003 0.13114 0.17429 0.0
C500 C 0.21036 0.98471 0.13391 0.0
C501 C 0.24758 0.97573 0.11746 0.0
C502 C 0.26934 0.0137 0.10506 0.0
C503 C 0.25598 0.06019 0.10981 0.0
C504 C 0.2201 0.06801 0.12664 0.0
C505 C 0.19713 0.03144 0.13831 0.0
C506 C 0.15883 0.04978 0.15509 0.0
C507 C 0.11019 0.03227 0.14683 0.0
C508 C 0.16871 0.03629 0.18186 0.0
C509 C 0.1641 0.10234 0.15107 0.0
C510 C 0.19986 0.11193 0.13469 0.0
C511 C 0.21212 0.15773 0.12829 0.0
C512 C 0.18695 0.19485 0.13879 0.0
C513 C 0.1496 0.18605 0.15538 0.0
C514 C 0.13818 0.13905 0.16158 0.0
H515 H 0.51317 0.70643 0.37064 0.0
H516 H 0.4561 0.8177 0.32516 0.0
H517 H 0.37572 0.7961 0.33824 0.0
H518 H 0.4216 0.62211 0.35762 0.0
H519 H 0.42162 0.59758 0.38805 0.0
H520 H 0.47463 0.62288 0.37568 0.0
H521 H 0.48034 0.67868 0.41305 0.0
H522 H 0.42723 0.65369 0.42549 0.0
H523 H 0.43134 0.71626 0.42044 0.0
H524 H 0.30213 0.76324 0.35671 0.0
H525 H 0.2393 0.7181 0.37709 0.0
H526 H 0.34409 0.62563 0.40925 0.0
C527 C 0.48367 0.72623 0.36351 0.0
C528 C 0.49068 0.76482 0.34764 0.0
C529 C 0.45141 0.78939 0.33823 0.0
C530 C 0.4057 0.77707 0.34535 0.0
C531 C 0.39999 0.7396 0.36155 0.0
C532 C 0.43781 0.71419 0.37032 0.0
C533 C 0.42191 0.67465 0.387 0.0
C534 C 0.43576 0.62646 0.37645 0.0
C535 C 0.44136 0.68124 0.41304 0.0
C536 C 0.36922 0.68186 0.38627 0.0
C537 C 0.35738 0.71966 0.37159 0.0
C538 C 0.31091 0.73345 0.36819 0.0
C539 C 0.27549 0.70761 0.37991 0.0
C540 C 0.28669 0.6682 0.39475 0.0
C541 C 0.3343 0.65545 0.398 0.0
H542 H 0.78757 0.03101 0.64297 0.0
H543 H 0.67903 0.98228 0.59332 0.0
H544 H 0.7022 0.9001 0.60126 0.0
H545 H 0.87401 0.94692 0.62424 0.0
H546 H 0.89847 0.93936 0.65442 0.0
H547 H 0.87139 0.99435 0.64608 0.0
H548 H 0.81528 0.98761 0.68331 0.0
H549 H 0.84222 0.93259 0.69176 0.0
H550 H 0.77961 0.93556 0.68693 0.0
H551 H 0.73745 0.82331 0.61425 0.0
H552 H 0.78494 0.75717 0.62981 0.0
H553 H 0.87336 0.85573 0.66952 0.0
C554 C 0.76843 0.00293 0.63399 0.0
C555 C 0.73019 0.01288 0.61835 0.0
C556 C 0.70682 0.97539 0.60636 0.0
C557 C 0.72011 0.92859 0.61052 0.0
C558 C 0.75738 0.9199 0.6264 0.0
C559 C 0.78148 0.95598 0.63781 0.0
C560 C 0.82152 0.93708 0.65323 0.0
C561 C 0.86916 0.95552 0.64393 0.0
C562 C 0.8142 0.94891 0.68042 0.0
C563 C 0.81624 0.88478 0.6486 0.0
C564 C 0.77883 0.87564 0.6332 0.0
C565 C 0.76688 0.83 0.6263 0.0
C566 C 0.79407 0.79265 0.63527 0.0
C567 C 0.833 0.80117 0.65085 0.0
C568 C 0.84397 0.84797 0.65759 0.0
H569 H 0.50177 0.2834 0.88056 0.0
H570 H 0.56302 0.16947 0.83848 0.0
H571 H 0.64181 0.19197 0.85317 0.0
H572 H 0.59073 0.36661 0.86746 0.0
H573 H 0.58895 0.39377 0.89723 0.0
H574 H 0.53713 0.36596 0.88507 0.0
H575 H 0.53163 0.31319 0.92372 0.0
H576 H 0.58357 0.34079 0.93599 0.0
H577 H 0.58139 0.27775 0.93249 0.0
H578 H 0.71427 0.22925 0.8711 0.0
H579 H 0.77508 0.28031 0.88926 0.0
H580 H 0.66613 0.37143 0.91846 0.0
C581 C 0.53171 0.2629 0.87456 0.0
C582 C 0.52603 0.2238 0.85892 0.0
C583 C 0.56612 0.1983 0.85124 0.0
C584 C 0.61115 0.21113 0.85932 0.0
C585 C 0.61538 0.24966 0.87492 0.0
C586 C 0.57673 0.27529 0.88237 0.0
C587 C 0.59085 0.31667 0.89813 0.0
C588 C 0.57604 0.36351 0.88625 0.0
C589 C 0.57066 0.31178 0.92413 0.0
C590 C 0.64365 0.31084 0.89806 0.0
C591 C 0.65709 0.27173 0.88479 0.0
C592 C 0.70416 0.25984 0.88163 0.0
C593 C 0.73843 0.2891 0.89204 0.0
C594 C 0.72541 0.32996 0.90529 0.0
C595 C 0.6773 0.34044 0.90853 0.0
H596 H 0.70535 0.29346 0.61127 0.0
H597 H 0.60641 0.35153 0.55876 0.0
H598 H 0.6395 0.43043 0.56539 0.0
H599 H 0.69837 0.38661 0.65328 0.0
H600 H 0.75964 0.38606 0.66167 0.0
H601 H 0.73186 0.33295 0.65105 0.0
H602 H 0.79491 0.3249 0.6171 0.0
H603 H 0.82291 0.37812 0.62762 0.0
H604 H 0.80463 0.37301 0.59615 0.0
H605 H 0.677 0.50347 0.58011 0.0
H606 H 0.71757 0.56718 0.60242 0.0
H607 H 0.79364 0.46377 0.64522 0.0
C608 C 0.69124 0.32265 0.60086 0.0
C609 C 0.65329 0.31615 0.58444 0.0
C610 C 0.63538 0.35546 0.57145 0.0
C611 C 0.65409 0.40049 0.575 0.0
C612 C 0.69089 0.40582 0.59153 0.0
C613 C 0.70947 0.36811 0.60423 0.0
C614 C 0.74697 0.38435 0.62212 0.0
C615 C 0.73337 0.37175 0.64859 0.0
C616 C 0.79522 0.36387 0.61533 0.0
C617 C 0.74559 0.43713 0.61787 0.0
C618 C 0.71321 0.44854 0.59995 0.0
C619 C 0.70305 0.49502 0.59386 0.0
C620 C 0.72614 0.5309 0.60661 0.0
C621 C 0.7592 0.52015 0.62509 0.0
C622 C 0.76949 0.4727 0.63062 0.0
H623 H 0.16692 0.13662 0.83694 0.0
H624 H 0.2746 0.23391 0.86192 0.0
H625 H 0.21322 0.28619 0.87837 0.0
H626 H 0.08059 0.2266 0.81963 0.0
H627 H 0.03153 0.19152 0.82986 0.0
H628 H 0.08391 0.16327 0.8186 0.0
H629 H 0.09057 0.11611 0.85909 0.0
H630 H 0.03844 0.14437 0.87053 0.0
H631 H 0.09235 0.14728 0.88779 0.0
H632 H 0.14072 0.32413 0.89549 0.0
H633 H 0.06207 0.34706 0.90993 0.0
H634 H 0.00151 0.22726 0.87205 0.0
C635 C 0.17764 0.16918 0.84559 0.0
C636 C 0.22561 0.18106 0.84814 0.0
C637 C 0.23808 0.224 0.85967 0.0
C638 C 0.20348 0.25398 0.86911 0.0
C639 C 0.15659 0.24078 0.86666 0.0
C640 C 0.14359 0.19966 0.85497 0.0
C641 C 0.09082 0.19298 0.8554 0.0
C642 C 0.07053 0.19365 0.82932 0.0
C643 C 0.07728 0.14749 0.86902 0.0
C644 C 0.07632 0.23624 0.86961 0.0
C645 C 0.11471 0.26345 0.87589 0.0
C646 C 0.11022 0.3038 0.89015 0.0
C647 C 0.06519 0.31688 0.89806 0.0
C648 C 0.02524 0.28996 0.89144 0.0
C649 C 0.03122 0.24901 0.87714 0.0
H650 H 0.27676 0.6829 0.09835 0.0
H651 H 0.42354 0.65839 0.11582 0.0
H652 H 0.40273 0.58257 0.13487 0.0
H653 H 0.22574 0.62785 0.15232 0.0
H654 H 0.17784 0.60074 0.13596 0.0
H655 H 0.20314 0.65493 0.12489 0.0
H656 H 0.21941 0.61614 0.08286 0.0
H657 H 0.19385 0.562 0.09375 0.0
H658 H 0.25275 0.56227 0.08158 0.0
H659 H 0.36723 0.51104 0.1524 0.0
H660 H 0.32016 0.44253 0.16416 0.0
H661 H 0.1965 0.50788 0.13186 0.0
C662 C 0.30429 0.66156 0.10636 0.0
C663 C 0.35173 0.67649 0.10579 0.0
C664 C 0.38703 0.64746 0.11603 0.0
C665 C 0.37555 0.6045 0.12701 0.0
C666 C 0.32864 0.59061 0.12726 0.0
C667 C 0.29355 0.61771 0.11691 0.0
C668 C 0.24646 0.59251 0.11834 0.0
C669 C 0.21122 0.6207 0.1338 0.0
C670 C 0.22698 0.58264 0.0926 0.0
C671 C 0.26077 0.54728 0.1312 0.0
C672 C 0.30823 0.54752 0.13642 0.0
C673 C 0.33002 0.51026 0.14831 0.0
C674 C 0.30274 0.47131 0.15486 0.0
C675 C 0.25401 0.46919 0.14929 0.0
C676 C 0.23294 0.50805 0.13721 0.0
H677 H 0.83248 0.88952 0.35081 0.0
H678 H 0.76336 0.76797 0.31896 0.0
H679 H 0.83016 0.71783 0.33143 0.0
H680 H 0.95357 0.85631 0.33634 0.0
H681 H 0.97613 0.87772 0.36508 0.0
H682 H 0.92499 0.90467 0.35161 0.0
H683 H 0.87831 0.88909 0.39155 0.0
H684 H 0.92911 0.86164 0.40504 0.0
H685 H 0.87429 0.82993 0.40335 0.0
H686 H 0.90393 0.68114 0.34751 0.0
H687 H 0.97819 0.65943 0.36715 0.0
H688 H 0.99599 0.80334 0.39225 0.0
C689 C 0.83196 0.85255 0.34601 0.0
C690 C 0.79319 0.83261 0.33364 0.0
C691 C 0.79298 0.78387 0.32829 0.0
C692 C 0.8307 0.75518 0.33528 0.0
C693 C 0.86798 0.77571 0.34789 0.0
C694 C 0.86889 0.82322 0.35329 0.0
C695 C 0.91175 0.83583 0.36838 0.0
C696 C 0.94349 0.87069 0.35452 0.0
C697 C 0.89749 0.85526 0.39357 0.0
C698 C 0.9347 0.78796 0.37065 0.0
C699 C 0.9091 0.75392 0.35851 0.0
C700 C 0.92385 0.7073 0.35749 0.0
C701 C 0.96592 0.69508 0.3692 0.0
C702 C 0.9923 0.72909 0.38232 0.0
C703 C 0.97634 0.77622 0.3828 0.0
H704 H 0.8189 0.04616 0.28209 0.0
H705 H 0.70772 0.14536 0.29931 0.0
H706 H 0.75014 0.20737 0.27652 0.0
H707 H 0.91519 0.12884 0.28777 0.0
H708 H 0.94804 0.10348 0.26286 0.0
H709 H 0.90908 0.06715 0.28075 0.0
H710 H 0.86541 0.04206 0.24123 0.0
H711 H 0.90408 0.0785 0.22323 0.0
H712 H 0.84135 0.0866 0.22134 0.0
H713 H 0.80354 0.25792 0.25082 0.0
H714 H 0.86586 0.29447 0.22573 0.0
H715 H 0.9429 0.1626 0.22596 0.0
C716 C 0.80352 0.08097 0.28118 0.0
C717 C 0.75992 0.09088 0.29249 0.0
C718 C 0.7411 0.13692 0.29086 0.0
C719 C 0.76488 0.17237 0.2779 0.0
C720 C 0.80755 0.16128 0.2668 0.0
C721 C 0.82689 0.1168 0.26846 0.0
C722 C 0.87332 0.1141 0.25494 0.0
C723 C 0.91379 0.10273 0.27264 0.0
C724 C 0.87086 0.07819 0.23394 0.0
C725 C 0.87696 0.16395 0.24529 0.0
C726 C 0.8386 0.19055 0.25227 0.0
C727 C 0.83383 0.23749 0.24532 0.0
C728 C 0.86939 0.25789 0.23101 0.0
C729 C 0.90931 0.23145 0.22387 0.0
C730 C 0.91289 0.18381 0.23113 0.0
H731 H 0.43232 0.36756 0.54367 0.0
H732 H 0.45444 0.24372 0.4986 0.0
H733 H 0.40227 0.27698 0.467 0.0
H734 H 0.30937 0.38406 0.52832 0.0
H735 H 0.31352 0.44736 0.52811 0.0
H736 H 0.3518 0.41334 0.54752 0.0
H737 H 0.42441 0.45329 0.5277 0.0
H738 H 0.38638 0.48736 0.50821 0.0
H739 H 0.43169 0.45118 0.49494 0.0
H740 H 0.34984 0.32462 0.43971 0.0
H741 H 0.29927 0.38281 0.41895 0.0
H742 H 0.31044 0.47519 0.48196 0.0
C743 C 0.42602 0.34728 0.52722 0.0
C744 C 0.44753 0.30301 0.52363 0.0
C745 C 0.43839 0.27769 0.5018 0.0
C746 C 0.40879 0.29628 0.48372 0.0
C747 C 0.38844 0.34013 0.48777 0.0
C748 C 0.39646 0.36525 0.509 0.0
C749 C 0.37067 0.41186 0.50865 0.0
C750 C 0.33417 0.41427 0.52938 0.0
C751 C 0.40536 0.45336 0.50995 0.0
C752 C 0.34717 0.40912 0.48383 0.0
C753 C 0.35788 0.36746 0.47209 0.0
C754 C 0.34101 0.3573 0.44876 0.0
C755 C 0.31238 0.39062 0.43711 0.0
C756 C 0.30084 0.43353 0.44882 0.0
C757 C 0.31846 0.44266 0.47254 0.0
H758 H 0.12917 0.76429 0.72057 0.0
H759 H 0.99846 0.8419 0.72826 0.0
H760 H 0.03833 0.8995 0.75463 0.0
H761 H 0.17002 0.78223 0.78268 0.0
H762 H 0.23079 0.789 0.77399 0.0
H763 H 0.19213 0.75302 0.75577 0.0
H764 H 0.21289 0.80231 0.71732 0.0
H765 H 0.2517 0.83834 0.7354 0.0
H766 H 0.20513 0.86527 0.71798 0.0
H767 H 0.09171 0.94983 0.77905 0.0
H768 H 0.15621 0.99034 0.80048 0.0
H769 H 0.25284 0.88026 0.7781 0.0
C770 C 0.10895 0.79337 0.72782 0.0
C771 C 0.06066 0.79854 0.72227 0.0
C772 C 0.03547 0.83711 0.73217 0.0
C773 C 0.05777 0.87006 0.74723 0.0
C774 C 0.10526 0.86396 0.75233 0.0
C775 C 0.13067 0.82666 0.743 0.0
C776 C 0.18156 0.82889 0.75123 0.0
C777 C 0.19436 0.78571 0.76685 0.0
C778 C 0.21477 0.83402 0.72917 0.0
C779 C 0.18067 0.8734 0.76652 0.0
C780 C 0.13624 0.89296 0.76685 0.0
C781 C 0.12664 0.93479 0.77906 0.0
C782 C 0.16355 0.95756 0.79115 0.0
C783 C 0.2095 0.93837 0.79105 0.0
C784 C 0.21798 0.89548 0.77873 0.0
H785 H 0.69038 0.52453 0.98935 0.0
H786 H 0.6858 0.6121 0.92417 0.0
H787 H 0.63378 0.66797 0.94553 0.0
H788 H 0.56964 0.5402 0.00605 0.0
H789 H 0.58103 0.54118 0.0385 0.0
H790 H 0.6193 0.50878 0.01841 0.0
H791 H 0.69091 0.55558 0.03477 0.0
H792 H 0.65284 0.58821 0.0549 0.0
H793 H 0.69025 0.619 0.03358 0.0
H794 H 0.5828 0.71411 0.97361 0.0
H795 H 0.53245 0.74625 0.00607 0.0
H796 H 0.56775 0.62778 0.05292 0.0
C797 C 0.67857 0.55555 0.97959 0.0
C798 C 0.69222 0.56406 0.9551 0.0
C799 C 0.67576 0.60484 0.94292 0.0
C800 C 0.64633 0.63686 0.95491 0.0
C801 C 0.63355 0.62743 0.97903 0.0
C802 C 0.64887 0.58771 0.99122 0.0
C803 C 0.62872 0.5853 0.01688 0.0
C804 C 0.59783 0.54125 0.02014 0.0
C805 C 0.66803 0.58715 0.03617 0.0
C806 C 0.59952 0.62984 0.01713 0.0
C807 C 0.60317 0.65371 0.99516 0.0
C808 C 0.57952 0.69571 0.99089 0.0
C809 C 0.5509 0.71364 0.00948 0.0
C810 C 0.54579 0.68942 0.03203 0.0
C811 C 0.57082 0.64712 0.0359 0.0
loop_
_geom_bond_atom_site_label_1
_geom_bond_atom_site_label_2
_geom_bond_distance
_geom_bond_site_symmetry_2
_ccdc_geom_bond_type
Co0 O3 1.970 . S
Co0 N17 1.989 . S
Co0 O25 1.967 . S
Co0 O32 1.920 . S
Co1 O4 1.966 . S
Co1 N10 2.022 . S
Co1 N18 1.993 . S
Co1 O26 1.941 . S
C2 O3 1.258 . S
C2 O4 1.263 . S
O3 Co0 1.970 . S
O3 C2 1.258 . S
O4 Co1 1.966 . S
O4 C2 1.263 . S
C5 O6 1.235 . S
C5 O32 1.289 1_655 S
O6 C5 1.235 . S
C7 C9 1.400 . S
C7 N10 1.351 . S
C7 C12 1.501 . S
C8 C9 1.387 . S
C8 N11 1.341 . S
C9 C7 1.400 . S
C9 C8 1.387 . S
N10 Co1 2.022 . S
N10 C7 1.351 . S
N10 N11 1.365 . S
N11 C8 1.341 . S
N11 N10 1.365 . S
N11 H31 0.862 . S
C12 C7 1.501 . S
C12 H13 0.961 . S
C12 H14 0.961 . S
C12 H15 0.960 . S
H13 C12 0.961 . S
H14 C12 0.961 . S
H15 C12 0.960 . S
C16 N17 1.342 . S
C16 C20 1.401 . S
C16 C21 1.499 . S
N17 Co0 1.989 . S
N17 C16 1.342 . S
N17 N18 1.388 . S
N18 Co1 1.993 . S
N18 N17 1.388 . S
N18 C19 1.346 . S
C19 N18 1.346 . S
C19 C20 1.396 . S
C19 C29 1.510 . S
C20 C16 1.401 . S
C20 C19 1.396 . S
C21 C16 1.499 . S
C21 H22 0.959 . S
C21 H23 0.960 . S
C21 H24 0.961 . S
H22 C21 0.959 . S
H23 C21 0.960 . S
H24 C21 0.961 . S
O25 Co0 1.967 . S
O25 C33 1.258 . S
O26 Co1 1.941 . S
O26 C33 1.266 . S
H27 C29 0.959 . S
H28 C29 0.961 . S
C29 C19 1.510 . S
C29 H27 0.959 . S
C29 H28 0.961 . S
C29 H30 0.960 . S
H30 C29 0.960 . S
H31 N11 0.862 . S
O32 Co0 1.920 . S
O32 C5 1.289 1_455 S
C33 O25 1.258 . S
C33 O26 1.266 . S
Co34 O37 1.970 . S
Co34 N51 1.989 . S
Co34 O59 1.967 . S
Co34 O66 1.920 . S
Co35 O38 1.966 . S
Co35 N44 2.022 . S
Co35 N52 1.993 . S
Co35 O60 1.941 . S
C36 O37 1.258 . S
C36 O38 1.263 . S
O37 Co34 1.970 . S
O37 C36 1.258 . S
O38 Co35 1.966 . S
O38 C36 1.263 . S
C39 O40 1.235 . S
C39 O66 1.289 . S
O40 C39 1.235 . S
C41 C43 1.400 . S
C41 N44 1.351 . S
C41 C46 1.501 . S
C42 C43 1.387 . S
C42 N45 1.341 . S
C43 C41 1.400 . S
C43 C42 1.387 . S
N44 Co35 2.022 . S
N44 C41 1.351 . S
N44 N45 1.365 . S
N45 C42 1.341 . S
N45 N44 1.365 . S
N45 H65 0.862 . S
C46 C41 1.501 . S
C46 H47 0.961 . S
C46 H48 0.961 . S
C46 H49 0.960 . S
H47 C46 0.961 . S
H48 C46 0.961 . S
H49 C46 0.960 . S
C50 N51 1.342 . S
C50 C54 1.401 . S
C50 C55 1.499 . S
N51 Co34 1.989 . S
N51 C50 1.342 . S
N51 N52 1.388 . S
N52 Co35 1.993 . S
N52 N51 1.388 . S
N52 C53 1.346 . S
C53 N52 1.346 . S
C53 C54 1.396 . S
C53 C63 1.510 . S
C54 C50 1.401 . S
C54 C53 1.396 . S
C55 C50 1.499 . S
C55 H56 0.959 . S
C55 H57 0.960 . S
C55 H58 0.961 . S
H56 C55 0.959 . S
H57 C55 0.960 . S
H58 C55 0.961 . S
O59 Co34 1.967 . S
O59 C67 1.258 . S
O60 Co35 1.941 . S
O60 C67 1.266 . S
H61 C63 0.959 . S
H62 C63 0.961 . S
C63 C53 1.510 . S
C63 H61 0.959 . S
C63 H62 0.961 . S
C63 H64 0.960 . S
H64 C63 0.960 . S
H65 N45 0.862 . S
O66 Co34 1.920 . S
O66 C39 1.289 . S
C67 O59 1.258 . S
C67 O60 1.266 . S
Co68 O71 1.970 . S
Co68 N85 1.989 . S
Co68 O93 1.967 . S
Co68 O100 1.920 . S
Co69 O72 1.966 . S
Co69 N78 2.022 . S
Co69 N86 1.993 . S
Co69 O94 1.941 . S
C70 O71 1.258 . S
C70 O72 1.263 . S
O71 Co68 1.970 . S
O71 C70 1.258 . S
O72 Co69 1.966 . S
O72 C70 1.263 . S
C73 O74 1.235 . S
C73 O100 1.289 1_455 S
O74 C73 1.235 . S
C75 C77 1.400 . S
C75 N78 1.351 . S
C75 C80 1.501 . S
C76 C77 1.387 . S
C76 N79 1.341 . S
C77 C75 1.400 . S
C77 C76 1.387 . S
N78 Co69 2.022 . S
N78 C75 1.351 . S
N78 N79 1.365 . S
N79 C76 1.341 . S
N79 N78 1.365 . S
N79 H99 0.862 . S
C80 C75 1.501 . S
C80 H81 0.961 . S
C80 H82 0.961 . S
C80 H83 0.960 . S
H81 C80 0.961 . S
H82 C80 0.961 . S
H83 C80 0.960 . S
C84 N85 1.342 . S
C84 C88 1.401 . S
C84 C89 1.499 . S
N85 Co68 1.989 . S
N85 C84 1.342 . S
N85 N86 1.388 . S
N86 Co69 1.993 . S
N86 N85 1.388 . S
N86 C87 1.346 . S
C87 N86 1.346 . S
C87 C88 1.396 . S
C87 C97 1.510 . S
C88 C84 1.401 . S
C88 C87 1.396 . S
C89 C84 1.499 . S
C89 H90 0.959 . S
C89 H91 0.960 . S
C89 H92 0.961 . S
H90 C89 0.959 . S
H91 C89 0.960 . S
H92 C89 0.961 . S
O93 Co68 1.967 . S
O93 C101 1.258 . S
O94 Co69 1.941 . S
O94 C101 1.266 . S
H95 C97 0.959 . S
H96 C97 0.961 . S
C97 C87 1.510 . S
C97 H95 0.959 . S
C97 H96 0.961 . S
C97 H98 0.960 . S
H98 C97 0.960 . S
H99 N79 0.862 . S
O100 Co68 1.920 . S
O100 C73 1.289 1_655 S
C101 O93 1.258 . S
C101 O94 1.266 . S
Co102 O105 1.970 . S
Co102 N119 1.989 . S
Co102 O127 1.967 . S
Co102 O134 1.920 . S
Co103 O106 1.966 . S
Co103 N112 2.022 . S
Co103 N120 1.993 . S
Co103 O128 1.941 . S
C104 O105 1.258 . S
C104 O106 1.263 . S
O105 Co102 1.970 . S
O105 C104 1.258 . S
O106 Co103 1.966 . S
O106 C104 1.263 . S
C107 O108 1.235 . S
C107 O134 1.289 . S
O108 C107 1.235 . S
C109 C111 1.400 . S
C109 N112 1.351 . S
C109 C114 1.501 . S
C110 C111 1.387 . S
C110 N113 1.341 . S
C111 C109 1.400 . S
C111 C110 1.387 . S
N112 Co103 2.022 . S
N112 C109 1.351 . S
N112 N113 1.365 . S
N113 C110 1.341 . S
N113 N112 1.365 . S
N113 H133 0.862 . S
C114 C109 1.501 . S
C114 H115 0.961 . S
C114 H116 0.961 . S
C114 H117 0.960 . S
H115 C114 0.961 . S
H116 C114 0.961 . S
H117 C114 0.960 . S
C118 N119 1.342 . S
C118 C122 1.401 . S
C118 C123 1.499 1_556 S
N119 Co102 1.989 . S
N119 C118 1.342 . S
N119 N120 1.388 . S
N120 Co103 1.993 . S
N120 N119 1.388 . S
N120 C121 1.346 . S
C121 N120 1.346 . S
C121 C122 1.396 . S
C121 C131 1.510 . S
C122 C118 1.401 . S
C122 C121 1.396 . S
C123 C118 1.499 1_554 S
C123 H124 0.959 1_554 S
C123 H125 0.960 . S
C123 H126 0.961 . S
H124 C123 0.959 1_556 S
H125 C123 0.960 . S
H126 C123 0.961 . S
O127 Co102 1.967 . S
O127 C135 1.258 . S
O128 Co103 1.941 . S
O128 C135 1.266 . S
H129 C131 0.959 . S
H130 C131 0.961 . S
C131 C121 1.510 . S
C131 H129 0.959 . S
C131 H130 0.961 . S
C131 H132 0.960 . S
H132 C131 0.960 . S
H133 N113 0.862 . S
O134 Co102 1.920 . S
O134 C107 1.289 . S
C135 O127 1.258 . S
C135 O128 1.266 . S
Co136 O139 1.970 . S
Co136 N153 1.989 . S
Co136 O161 1.967 . S
Co136 O168 1.920 . S
Co137 O140 1.966 . S
Co137 N146 2.022 . S
Co137 N154 1.993 . S
Co137 O162 1.941 . S
C138 O139 1.258 . S
C138 O140 1.263 . S
O139 Co136 1.970 . S
O139 C138 1.258 . S
O140 Co137 1.966 . S
O140 C138 1.263 . S
C141 O142 1.235 . S
C141 O168 1.289 . S
O142 C141 1.235 . S
C143 C145 1.400 . S
C143 N146 1.351 . S
C143 C148 1.501 . S
C144 C145 1.387 . S
C144 N147 1.341 . S
C145 C143 1.400 . S
C145 C144 1.387 . S
N146 Co137 2.022 . S
N146 C143 1.351 . S
N146 N147 1.365 . S
N147 C144 1.341 . S
N147 N146 1.365 . S
N147 H167 0.862 . S
C148 C143 1.501 . S
C148 H149 0.961 . S
C148 H150 0.961 . S
C148 H151 0.960 . S
H149 C148 0.961 . S
H150 C148 0.961 . S
H151 C148 0.960 . S
C152 N153 1.342 . S
C152 C156 1.401 . S
C152 C157 1.499 . S
N153 Co136 1.989 . S
N153 C152 1.342 . S
N153 N154 1.388 . S
N154 Co137 1.993 . S
N154 N153 1.388 . S
N154 C155 1.346 . S
C155 N154 1.346 . S
C155 C156 1.396 . S
C155 C165 1.510 . S
C156 C152 1.401 . S
C156 C155 1.396 . S
C157 C152 1.499 . S
C157 H158 0.959 . S
C157 H159 0.960 . S
C157 H160 0.961 . S
H158 C157 0.959 . S
H159 C157 0.960 . S
H160 C157 0.961 . S
O161 Co136 1.967 . S
O161 C169 1.258 . S
O162 Co137 1.941 . S
O162 C169 1.266 . S
H163 C165 0.959 . S
H164 C165 0.961 . S
C165 C155 1.510 . S
C165 H163 0.959 . S
C165 H164 0.961 . S
C165 H166 0.960 . S
H166 C165 0.960 . S
H167 N147 0.862 . S
O168 Co136 1.920 . S
O168 C141 1.289 . S
C169 O161 1.258 . S
C169 O162 1.266 . S
Co170 O173 1.970 . S
Co170 N187 1.989 . S
Co170 O195 1.967 . S
Co170 O202 1.920 . S
Co171 O174 1.966 . S
Co171 N180 2.022 . S
Co171 N188 1.993 . S
Co171 O196 1.941 . S
C172 O173 1.258 . S
C172 O174 1.263 . S
O173 Co170 1.970 . S
O173 C172 1.258 . S
O174 Co171 1.966 . S
O174 C172 1.263 . S
C175 O176 1.235 . S
C175 O202 1.289 1_565 S
O176 C175 1.235 . S
C177 C179 1.400 . S
C177 N180 1.351 . S
C177 C182 1.501 . S
C178 C179 1.387 . S
C178 N181 1.341 . S
C179 C177 1.400 . S
C179 C178 1.387 . S
N180 Co171 2.022 . S
N180 C177 1.351 . S
N180 N181 1.365 . S
N181 C178 1.341 . S
N181 N180 1.365 . S
N181 H201 0.862 . S
C182 C177 1.501 . S
C182 H183 0.961 . S
C182 H184 0.961 . S
C182 H185 0.960 . S
H183 C182 0.961 . S
H184 C182 0.961 . S
H185 C182 0.960 . S
C186 N187 1.342 . S
C186 C190 1.401 . S
C186 C191 1.499 . S
N187 Co170 1.989 . S
N187 C186 1.342 . S
N187 N188 1.388 . S
N188 Co171 1.993 . S
N188 N187 1.388 . S
N188 C189 1.346 . S
C189 N188 1.346 . S
C189 C190 1.396 . S
C189 C199 1.510 . S
C190 C186 1.401 . S
C190 C189 1.396 . S
C191 C186 1.499 . S
C191 H192 0.959 . S
C191 H193 0.960 . S
C191 H194 0.961 . S
H192 C191 0.959 . S
H193 C191 0.960 . S
H194 C191 0.961 . S
O195 Co170 1.967 . S
O195 C203 1.258 . S
O196 Co171 1.941 . S
O196 C203 1.266 . S
H197 C199 0.959 . S
H198 C199 0.961 . S
C199 C189 1.510 . S
C199 H197 0.959 . S
C199 H198 0.961 . S
C199 H200 0.960 . S
H200 C199 0.960 . S
H201 N181 0.862 . S
O202 Co170 1.920 . S
O202 C175 1.289 1_545 S
C203 O195 1.258 . S
C203 O196 1.266 . S
Co204 O207 1.970 . S
Co204 N221 1.989 . S
Co204 O229 1.967 . S
Co204 O236 1.920 . S
Co205 O208 1.966 . S
Co205 N214 2.022 . S
Co205 N222 1.993 . S
Co205 O230 1.941 . S
C206 O207 1.258 . S
C206 O208 1.263 . S
O207 Co204 1.970 . S
O207 C206 1.258 . S
O208 Co205 1.966 . S
O208 C206 1.263 . S
C209 O210 1.235 . S
C209 O236 1.289 . S
O210 C209 1.235 . S
C211 C213 1.400 . S
C211 N214 1.351 . S
C211 C216 1.501 . S
C212 C213 1.387 . S
C212 N215 1.341 . S
C213 C211 1.400 . S
C213 C212 1.387 . S
N214 Co205 2.022 . S
N214 C211 1.351 . S
N214 N215 1.365 . S
N215 C212 1.341 . S
N215 N214 1.365 . S
N215 H235 0.862 . S
C216 C211 1.501 . S
C216 H217 0.961 . S
C216 H218 0.961 . S
C216 H219 0.960 . S
H217 C216 0.961 . S
H218 C216 0.961 . S
H219 C216 0.960 . S
C220 N221 1.342 . S
C220 C224 1.401 . S
C220 C225 1.499 1_554 S
N221 Co204 1.989 . S
N221 C220 1.342 . S
N221 N222 1.388 . S
N222 Co205 1.993 . S
N222 N221 1.388 . S
N222 C223 1.346 . S
C223 N222 1.346 . S
C223 C224 1.396 . S
C223 C233 1.510 . S
C224 C220 1.401 . S
C224 C223 1.396 . S
C225 C220 1.499 1_556 S
C225 H226 0.959 1_556 S
C225 H227 0.960 . S
C225 H228 0.961 . S
H226 C225 0.959 1_554 S
H227 C225 0.960 . S
H228 C225 0.961 . S
O229 Co204 1.967 . S
O229 C237 1.258 . S
O230 Co205 1.941 . S
O230 C237 1.266 . S
H231 C233 0.959 . S
H232 C233 0.961 . S
C233 C223 1.510 . S
C233 H231 0.959 . S
C233 H232 0.961 . S
C233 H234 0.960 . S
H234 C233 0.960 . S
H235 N215 0.862 . S
O236 Co204 1.920 . S
O236 C209 1.289 . S
C237 O229 1.258 . S
C237 O230 1.266 . S
Co238 O241 1.970 . S
Co238 N255 1.989 . S
Co238 O263 1.967 . S
Co238 O270 1.920 . S
Co239 O242 1.966 . S
Co239 N248 2.022 . S
Co239 N256 1.993 . S
Co239 O264 1.941 . S
C240 O241 1.258 . S
C240 O242 1.263 . S
O241 Co238 1.970 . S
O241 C240 1.258 . S
O242 Co239 1.966 . S
O242 C240 1.263 . S
C243 O244 1.235 . S
C243 O270 1.289 1_545 S
O244 C243 1.235 . S
C245 C247 1.400 . S
C245 N248 1.351 . S
C245 C250 1.501 . S
C246 C247 1.387 . S
C246 N249 1.341 . S
C247 C245 1.400 . S
C247 C246 1.387 . S
N248 Co239 2.022 . S
N248 C245 1.351 . S
N248 N249 1.365 . S
N249 C246 1.341 . S
N249 N248 1.365 . S
N249 H269 0.862 . S
C250 C245 1.501 . S
C250 H251 0.961 . S
C250 H252 0.961 . S
C250 H253 0.960 . S
H251 C250 0.961 . S
H252 C250 0.961 . S
H253 C250 0.960 . S
C254 N255 1.342 . S
C254 C258 1.401 . S
C254 C259 1.499 . S
N255 Co238 1.989 . S
N255 C254 1.342 . S
N255 N256 1.388 . S
N256 Co239 1.993 . S
N256 N255 1.388 . S
N256 C257 1.346 . S
C257 N256 1.346 . S
C257 C258 1.396 . S
C257 C267 1.510 . S
C258 C254 1.401 . S
C258 C257 1.396 . S
C259 C254 1.499 . S
C259 H260 0.959 . S
C259 H261 0.960 . S
C259 H262 0.961 . S
H260 C259 0.959 . S
H261 C259 0.960 . S
H262 C259 0.961 . S
O263 Co238 1.967 . S
O263 C271 1.258 . S
O264 Co239 1.941 . S
O264 C271 1.266 . S
H265 C267 0.959 . S
H266 C267 0.961 . S
C267 C257 1.510 . S
C267 H265 0.959 . S
C267 H266 0.961 . S
C267 H268 0.960 . S
H268 C267 0.960 . S
H269 N249 0.862 . S
O270 Co238 1.920 . S
O270 C243 1.289 1_565 S
C271 O263 1.258 . S
C271 O264 1.266 . S
H272 C284 0.930 . S
H273 C286 0.930 . S
H274 C287 0.930 . S
H275 C291 0.959 . S
H276 C291 0.959 . S
H277 C291 0.961 . S
H278 C292 0.960 . S
H279 C292 0.961 . S
H280 C292 0.959 . S
H281 C295 0.929 . S
H282 C296 0.931 . S
H283 C298 0.930 . S
C284 H272 0.930 . S
C284 C285 1.399 . S
C284 C289 1.399 . S
C285 C284 1.399 . S
C285 C286 1.376 . S
C286 H273 0.930 . S
C286 C285 1.376 . S
C286 C287 1.388 . S
C287 H274 0.930 . S
C287 C286 1.388 . S
C287 C288 1.390 . S
C288 C287 1.390 . S
C288 C289 1.394 . S
C288 C294 1.465 . S
C289 C284 1.399 . S
C289 C288 1.394 . S
C289 C290 1.516 . S
C290 C289 1.516 . S
C290 C291 1.502 . S
C290 C292 1.561 . S
C290 C293 1.526 . S
C291 H275 0.959 . S
C291 H276 0.959 . S
C291 H277 0.961 . S
C291 C290 1.502 . S
C292 H278 0.960 . S
C292 H279 0.961 . S
C292 H280 0.959 . S
C292 C290 1.561 . S
C293 C290 1.526 . S
C293 C294 1.396 . S
C293 C298 1.390 . S
C294 C288 1.465 . S
C294 C293 1.396 . S
C294 C295 1.399 . S
C295 H281 0.929 . S
C295 C294 1.399 . S
C295 C296 1.385 . S
C296 H282 0.931 . S
C296 C295 1.385 . S
C296 C297 1.389 . S
C297 C296 1.389 . S
C297 C298 1.387 . S
C298 H283 0.930 . S
C298 C293 1.390 . S
C298 C297 1.387 . S
H299 C311 0.930 . S
H300 C313 0.930 . S
H301 C314 0.930 . S
H302 C318 0.959 . S
H303 C318 0.959 . S
H304 C318 0.961 . S
H305 C319 0.960 . S
H306 C319 0.961 . S
H307 C319 0.959 1_455 S
H308 C322 0.929 . S
H309 C323 0.931 . S
H310 C325 0.930 . S
C311 H299 0.930 . S
C311 C312 1.399 . S
C311 C316 1.386 1_655 S
C312 C311 1.399 . S
C312 C313 1.376 1_655 S
C313 H300 0.930 . S
C313 C312 1.376 1_455 S
C313 C314 1.388 . S
C314 H301 0.930 . S
C314 C313 1.388 . S
C314 C315 1.390 . S
C315 C314 1.390 . S
C315 C316 1.412 . S
C315 C321 1.465 . S
C316 C311 1.386 1_455 S
C316 C315 1.412 . S
C316 C317 1.514 1_455 S
C317 C316 1.514 1_655 S
C317 C318 1.502 . S
C317 C319 1.561 . S
C317 C320 1.526 1_655 S
C318 H302 0.959 . S
C318 H303 0.959 . S
C318 H304 0.961 . S
C318 C317 1.502 . S
C319 H305 0.960 . S
C319 H306 0.961 . S
C319 H307 0.959 1_655 S
C319 C317 1.561 . S
C320 C317 1.526 1_455 S
C320 C321 1.396 . S
C320 C325 1.390 . S
C321 C315 1.465 . S
C321 C320 1.396 . S
C321 C322 1.399 . S
C322 H308 0.929 . S
C322 C321 1.399 . S
C322 C323 1.385 . S
C323 H309 0.931 . S
C323 C322 1.385 . S
C323 C324 1.389 . S
C324 C323 1.389 . S
C324 C325 1.387 . S
C325 H310 0.930 . S
C325 C320 1.390 . S
C325 C324 1.387 . S
H326 C338 0.930 . S
H327 C340 0.930 . S
H328 C341 0.930 . S
H329 C345 0.959 . S
H330 C345 0.959 . S
H331 C345 0.961 . S
H332 C346 0.960 . S
H333 C346 0.961 . S
H334 C346 0.959 . S
H335 C349 0.929 . S
H336 C350 0.931 . S
H337 C352 0.930 . S
C338 H326 0.930 . S
C338 C339 1.399 . S
C338 C343 1.399 . S
C339 C338 1.399 . S
C339 C340 1.376 . S
C340 H327 0.930 . S
C340 C339 1.376 . S
C340 C341 1.388 . S
C341 H328 0.930 . S
C341 C340 1.388 . S
C341 C342 1.390 . S
C342 C341 1.390 . S
C342 C343 1.394 . S
C342 C348 1.465 . S
C343 C338 1.399 . S
C343 C342 1.394 . S
C343 C344 1.516 . S
C344 C343 1.516 . S
C344 C345 1.502 . S
C344 C346 1.561 . S
C344 C347 1.526 . S
C345 H329 0.959 . S
C345 H330 0.959 . S
C345 H331 0.961 . S
C345 C344 1.502 . S
C346 H332 0.960 . S
C346 H333 0.961 . S
C346 H334 0.959 . S
C346 C344 1.561 . S
C347 C344 1.526 . S
C347 C348 1.396 . S
C347 C352 1.390 . S
C348 C342 1.465 . S
C348 C347 1.396 . S
C348 C349 1.399 . S
C349 H335 0.929 . S
C349 C348 1.399 . S
C349 C350 1.385 . S
C350 H336 0.931 . S
C350 C349 1.385 . S
C350 C351 1.389 . S
C351 C350 1.389 . S
C351 C352 1.387 . S
C352 H337 0.930 . S
C352 C347 1.390 . S
C352 C351 1.387 . S
H353 C365 0.930 . S
H354 C367 0.930 . S
H355 C368 0.930 . S
H356 C372 0.959 . S
H357 C372 0.959 . S
H358 C372 0.961 . S
H359 C373 0.960 . S
H360 C373 0.961 . S
H361 C373 0.959 . S
H362 C376 0.929 . S
H363 C377 0.931 . S
H364 C379 0.930 . S
C365 H353 0.930 . S
C365 C366 1.399 . S
C365 C370 1.399 . S
C366 C365 1.399 . S
C366 C367 1.376 . S
C367 H354 0.930 . S
C367 C366 1.376 . S
C367 C368 1.388 . S
C368 H355 0.930 . S
C368 C367 1.388 . S
C368 C369 1.390 . S
C369 C368 1.390 . S
C369 C370 1.394 . S
C369 C375 1.465 . S
C370 C365 1.399 . S
C370 C369 1.394 . S
C370 C371 1.516 . S
C371 C370 1.516 . S
C371 C372 1.502 1_655 S
C371 C373 1.561 . S
C371 C374 1.526 . S
C372 H356 0.959 . S
C372 H357 0.959 . S
C372 H358 0.961 . S
C372 C371 1.502 1_455 S
C373 H359 0.960 . S
C373 H360 0.961 . S
C373 H361 0.959 . S
C373 C371 1.561 . S
C374 C371 1.526 . S
C374 C375 1.396 . S
C374 C379 1.390 1_655 S
C375 C369 1.465 . S
C375 C374 1.396 . S
C375 C376 1.399 . S
C376 H362 0.929 . S
C376 C375 1.399 . S
C376 C377 1.385 . S
C377 H363 0.931 . S
C377 C376 1.385 . S
C377 C378 1.389 1_655 S
C378 C377 1.389 1_455 S
C378 C379 1.387 . S
C379 H364 0.930 . S
C379 C374 1.390 1_455 S
C379 C378 1.387 . S
H380 C392 0.930 . S
H381 C394 0.930 . S
H382 C395 0.930 1_565 S
H383 C399 0.959 . S
H384 C399 0.959 . S
H385 C399 0.961 . S
H386 C400 0.960 . S
H387 C400 0.961 . S
H388 C400 0.959 . S
H389 C403 0.929 . S
H390 C404 0.931 . S
H391 C406 0.930 . S
C392 H380 0.930 . S
C392 C393 1.399 . S
C392 C397 1.399 . S
C393 C392 1.399 . S
C393 C394 1.376 . S
C394 H381 0.930 . S
C394 C393 1.376 . S
C394 C395 1.388 . S
C395 H382 0.930 1_545 S
C395 C394 1.388 . S
C395 C396 1.390 . S
C396 C395 1.390 . S
C396 C397 1.394 . S
C396 C402 1.465 . S
C397 C392 1.399 . S
C397 C396 1.394 . S
C397 C398 1.516 . S
C398 C397 1.516 . S
C398 C399 1.502 . S
C398 C400 1.561 . S
C398 C401 1.526 . S
C399 H383 0.959 . S
C399 H384 0.959 . S
C399 H385 0.961 . S
C399 C398 1.502 . S
C400 H386 0.960 . S
C400 H387 0.961 . S
C400 H388 0.959 . S
C400 C398 1.561 . S
C401 C398 1.526 . S
C401 C402 1.396 . S
C401 C406 1.390 . S
C402 C396 1.465 . S
C402 C401 1.396 . S
C402 C403 1.399 1_545 S
C403 H389 0.929 . S
C403 C402 1.399 1_565 S
C403 C404 1.385 . S
C404 H390 0.931 . S
C404 C403 1.385 . S
C404 C405 1.389 . S
C405 C404 1.389 . S
C405 C406 1.387 1_565 S
C406 H391 0.930 . S
C406 C401 1.390 . S
C406 C405 1.387 1_545 S
H407 C419 0.930 . S
H408 C421 0.930 . S
H409 C422 0.930 . S
H410 C426 0.959 . S
H411 C426 0.959 . S
H412 C426 0.961 . S
H413 C427 0.960 . S
H414 C427 0.961 . S
H415 C427 0.959 . S
H416 C430 0.929 . S
H417 C431 0.931 . S
H418 C433 0.930 . S
C419 H407 0.930 . S
C419 C420 1.399 . S
C419 C424 1.399 . S
C420 C419 1.399 . S
C420 C421 1.376 . S
C421 H408 0.930 . S
C421 C420 1.376 . S
C421 C422 1.388 . S
C422 H409 0.930 . S
C422 C421 1.388 . S
C422 C423 1.390 . S
C423 C422 1.390 . S
C423 C424 1.394 . S
C423 C429 1.465 . S
C424 C419 1.399 . S
C424 C423 1.394 . S
C424 C425 1.516 . S
C425 C424 1.516 . S
C425 C426 1.502 . S
C425 C427 1.561 . S
C425 C428 1.526 . S
C426 H410 0.959 . S
C426 H411 0.959 . S
C426 H412 0.961 . S
C426 C425 1.502 . S
C427 H413 0.960 . S
C427 H414 0.961 . S
C427 H415 0.959 . S
C427 C425 1.561 . S
C428 C425 1.526 . S
C428 C429 1.396 . S
C428 C433 1.390 . S
C429 C423 1.465 . S
C429 C428 1.396 . S
C429 C430 1.399 . S
C430 H416 0.929 . S
C430 C429 1.399 . S
C430 C431 1.385 . S
C431 H417 0.931 . S
C431 C430 1.385 . S
C431 C432 1.389 . S
C432 C431 1.389 . S
C432 C433 1.387 . S
C433 H418 0.930 . S
C433 C428 1.390 . S
C433 C432 1.387 . S
H434 C446 0.930 . S
H435 C448 0.966 . S
H436 C449 0.930 1_545 S
H437 C453 0.959 . S
H438 C453 0.959 . S
H439 C453 0.961 . S
H440 C454 0.960 . S
H441 C454 0.961 . S
H442 C454 0.959 . S
H443 C457 0.929 . S
H444 C458 0.931 . S
H445 C460 0.930 . S
C446 H434 0.930 . S
C446 C447 1.399 . S
C446 C451 1.399 . S
C447 C446 1.399 . S
C447 C448 1.376 . S
C448 H435 0.966 . S
C448 C447 1.376 . S
C448 C449 1.388 . S
C449 H436 0.930 1_565 S
C449 C448 1.388 . S
C449 C450 1.390 . S
C450 C449 1.390 . S
C450 C451 1.394 . S
C450 C456 1.465 . S
C451 C446 1.399 . S
C451 C450 1.394 . S
C451 C452 1.516 . S
C452 C451 1.516 . S
C452 C453 1.502 . S
C452 C454 1.561 . S
C452 C455 1.526 . S
C453 H437 0.959 . S
C453 H438 0.959 . S
C453 H439 0.961 . S
C453 C452 1.502 . S
C454 H440 0.960 . S
C454 H441 0.961 . S
C454 H442 0.959 . S
C454 C452 1.561 . S
C455 C452 1.526 . S
C455 C456 1.396 . S
C455 C460 1.390 . S
C456 C450 1.465 . S
C456 C455 1.396 . S
C456 C457 1.399 1_565 S
C457 H443 0.929 . S
C457 C456 1.399 1_545 S
C457 C458 1.385 . S
C458 H444 0.931 . S
C458 C457 1.385 . S
C458 C459 1.389 . S
C459 C458 1.389 . S
C459 C460 1.387 1_545 S
C460 H445 0.930 . S
C460 C455 1.390 . S
C460 C459 1.387 1_565 S
H461 C473 0.930 . S
H462 C475 0.930 . S
H463 C476 0.930 . S
H464 C480 0.959 . S
H465 C480 0.959 . S
H466 C480 0.961 . S
H467 C481 0.960 . S
H468 C481 0.961 . S
H469 C481 0.959 . S
H470 C484 0.929 . S
H471 C485 0.931 . S
H472 C487 0.930 . S
C473 H461 0.930 . S
C473 C474 1.399 . S
C473 C478 1.399 . S
C474 C473 1.399 . S
C474 C475 1.376 . S
C475 H462 0.930 . S
C475 C474 1.376 . S
C475 C476 1.388 . S
C476 H463 0.930 . S
C476 C475 1.388 . S
C476 C477 1.390 . S
C477 C476 1.390 . S
C477 C478 1.394 . S
C477 C483 1.465 . S
C478 C473 1.399 . S
C478 C477 1.394 . S
C478 C479 1.516 . S
C479 C478 1.516 . S
C479 C480 1.502 . S
C479 C481 1.561 . S
C479 C482 1.526 . S
C480 H464 0.959 . S
C480 H465 0.959 . S
C480 H466 0.961 . S
C480 C479 1.502 . S
C481 H467 0.960 . S
C481 H468 0.961 . S
C481 H469 0.959 . S
C481 C479 1.561 . S
C482 C479 1.526 . S
C482 C483 1.396 . S
C482 C487 1.390 . S
C483 C477 1.465 . S
C483 C482 1.396 . S
C483 C484 1.399 . S
C484 H470 0.929 . S
C484 C483 1.399 . S
C484 C485 1.385 . S
C485 H471 0.931 . S
C485 C484 1.385 . S
C485 C486 1.389 . S
C486 C485 1.389 . S
C486 C487 1.387 . S
C487 H472 0.930 . S
C487 C482 1.390 . S
C487 C486 1.387 . S
H488 C500 0.930 . S
H489 C502 0.930 . S
H490 C503 0.930 . S
H491 C507 0.959 . S
H492 C507 0.959 . S
H493 C507 0.961 . S
H494 C508 0.960 . S
H495 C508 0.961 . S
H496 C508 0.959 . S
H497 C511 0.929 . S
H498 C512 0.931 . S
H499 C514 0.930 . S
C500 H488 0.930 . S
C500 C501 1.399 . S
C500 C505 1.399 . S
C501 C500 1.399 . S
C501 C502 1.376 . S
C502 H489 0.930 . S
C502 C501 1.376 . S
C502 C503 1.388 . S
C503 H490 0.930 . S
C503 C502 1.388 . S
C503 C504 1.390 . S
C504 C503 1.390 . S
C504 C505 1.394 . S
C504 C510 1.465 . S
C505 C500 1.399 . S
C505 C504 1.394 . S
C505 C506 1.516 . S
C506 C505 1.516 . S
C506 C507 1.502 . S
C506 C508 1.561 . S
C506 C509 1.526 . S
C507 H491 0.959 . S
C507 H492 0.959 . S
C507 H493 0.961 . S
C507 C506 1.502 . S
C508 H494 0.960 . S
C508 H495 0.961 . S
C508 H496 0.959 . S
C508 C506 1.561 . S
C509 C506 1.526 . S
C509 C510 1.396 . S
C509 C514 1.390 . S
C510 C504 1.465 . S
C510 C509 1.396 . S
C510 C511 1.399 . S
C511 H497 0.929 . S
C511 C510 1.399 . S
C511 C512 1.385 . S
C512 H498 0.931 . S
C512 C511 1.385 . S
C512 C513 1.389 . S
C513 C512 1.389 . S
C513 C514 1.387 . S
C514 H499 0.930 . S
C514 C509 1.390 . S
C514 C513 1.387 . S
H515 C527 0.930 . S
H516 C529 0.930 . S
H517 C530 0.930 . S
H518 C534 0.959 . S
H519 C534 0.959 . S
H520 C534 0.961 . S
H521 C535 0.960 . S
H522 C535 0.961 . S
H523 C535 0.959 . S
H524 C538 0.929 . S
H525 C539 0.931 . S
H526 C541 0.930 . S
C527 H515 0.930 . S
C527 C528 1.399 . S
C527 C532 1.399 . S
C528 C527 1.399 . S
C528 C529 1.376 . S
C529 H516 0.930 . S
C529 C528 1.376 . S
C529 C530 1.388 . S
C530 H517 0.930 . S
C530 C529 1.388 . S
C530 C531 1.390 . S
C531 C530 1.390 . S
C531 C532 1.394 . S
C531 C537 1.465 . S
C532 C527 1.399 . S
C532 C531 1.394 . S
C532 C533 1.516 . S
C533 C532 1.516 . S
C533 C534 1.502 . S
C533 C535 1.561 . S
C533 C536 1.526 . S
C534 H518 0.959 . S
C534 H519 0.959 . S
C534 H520 0.961 . S
C534 C533 1.502 . S
C535 H521 0.960 . S
C535 H522 0.961 . S
C535 H523 0.959 . S
C535 C533 1.561 . S
C536 C533 1.526 . S
C536 C537 1.396 . S
C536 C541 1.390 . S
C537 C531 1.465 . S
C537 C536 1.396 . S
C537 C538 1.399 . S
C538 H524 0.929 . S
C538 C537 1.399 . S
C538 C539 1.385 . S
C539 H525 0.931 . S
C539 C538 1.385 . S
C539 C540 1.389 . S
C540 C539 1.389 . S
C540 C541 1.387 . S
C541 H526 0.930 . S
C541 C536 1.390 . S
C541 C540 1.387 . S
H542 C554 0.930 . S
H543 C556 0.930 . S
H544 C557 0.930 . S
H545 C561 0.959 . S
H546 C561 0.959 . S
H547 C561 0.961 . S
H548 C562 0.960 . S
H549 C562 0.961 . S
H550 C562 0.959 . S
H551 C565 0.929 . S
H552 C566 0.931 . S
H553 C568 0.930 . S
C554 H542 0.930 . S
C554 C555 1.399 . S
C554 C559 1.399 . S
C555 C554 1.399 . S
C555 C556 1.376 . S
C556 H543 0.930 . S
C556 C555 1.376 . S
C556 C557 1.388 . S
C557 H544 0.930 . S
C557 C556 1.388 . S
C557 C558 1.390 . S
C558 C557 1.390 . S
C558 C559 1.394 . S
C558 C564 1.465 . S
C559 C554 1.399 . S
C559 C558 1.394 . S
C559 C560 1.516 . S
C560 C559 1.516 . S
C560 C561 1.502 . S
C560 C562 1.561 . S
C560 C563 1.526 . S
C561 H545 0.959 . S
C561 H546 0.959 . S
C561 H547 0.961 . S
C561 C560 1.502 . S
C562 H548 0.960 . S
C562 H549 0.961 . S
C562 H550 0.959 . S
C562 C560 1.561 . S
C563 C560 1.526 . S
C563 C564 1.396 . S
C563 C568 1.390 . S
C564 C558 1.465 . S
C564 C563 1.396 . S
C564 C565 1.399 . S
C565 H551 0.929 . S
C565 C564 1.399 . S
C565 C566 1.385 . S
C566 H552 0.931 . S
C566 C565 1.385 . S
C566 C567 1.389 . S
C567 C566 1.389 . S
C567 C568 1.387 . S
C568 H553 0.930 . S
C568 C563 1.390 . S
C568 C567 1.387 . S
H569 C581 0.930 . S
H570 C583 0.930 . S
H571 C584 0.930 . S
H572 C588 0.959 . S
H573 C588 0.959 . S
H574 C588 0.961 . S
H575 C589 0.960 . S
H576 C589 0.961 . S
H577 C589 0.959 . S
H578 C592 0.929 . S
H579 C593 0.931 . S
H580 C595 0.930 . S
C581 H569 0.930 . S
C581 C582 1.399 . S
C581 C586 1.399 . S
C582 C581 1.399 . S
C582 C583 1.376 . S
C583 H570 0.930 . S
C583 C582 1.376 . S
C583 C584 1.388 . S
C584 H571 0.930 . S
C584 C583 1.388 . S
C584 C585 1.390 . S
C585 C584 1.390 . S
C585 C586 1.394 . S
C585 C591 1.465 . S
C586 C581 1.399 . S
C586 C585 1.394 . S
C586 C587 1.516 . S
C587 C586 1.516 . S
C587 C588 1.502 . S
C587 C589 1.561 . S
C587 C590 1.526 . S
C588 H572 0.959 . S
C588 H573 0.959 . S
C588 H574 0.961 . S
C588 C587 1.502 . S
C589 H575 0.960 . S
C589 H576 0.961 . S
C589 H577 0.959 . S
C589 C587 1.561 . S
C590 C587 1.526 . S
C590 C591 1.396 . S
C590 C595 1.390 . S
C591 C585 1.465 . S
C591 C590 1.396 . S
C591 C592 1.399 . S
C592 H578 0.929 . S
C592 C591 1.399 . S
C592 C593 1.385 . S
C593 H579 0.931 . S
C593 C592 1.385 . S
C593 C594 1.389 . S
C594 C593 1.389 . S
C594 C595 1.387 . S
C595 H580 0.930 . S
C595 C590 1.390 . S
C595 C594 1.387 . S
H596 C608 0.930 . S
H597 C610 0.930 . S
H598 C611 0.930 . S
H599 C615 0.959 . S
H600 C615 0.959 . S
H601 C615 0.961 . S
H602 C616 0.960 . S
H603 C616 0.961 . S
H604 C616 0.959 . S
H605 C619 0.929 . S
H606 C620 0.931 . S
H607 C622 0.930 . S
C608 H596 0.930 . S
C608 C609 1.399 . S
C608 C613 1.399 . S
C609 C608 1.399 . S
C609 C610 1.376 . S
C610 H597 0.930 . S
C610 C609 1.376 . S
C610 C611 1.388 . S
C611 H598 0.930 . S
C611 C610 1.388 . S
C611 C612 1.390 . S
C612 C611 1.390 . S
C612 C613 1.394 . S
C612 C618 1.465 . S
C613 C608 1.399 . S
C613 C612 1.394 . S
C613 C614 1.516 . S
C614 C613 1.516 . S
C614 C615 1.502 . S
C614 C616 1.561 . S
C614 C617 1.526 . S
C615 H599 0.959 . S
C615 H600 0.959 . S
C615 H601 0.961 . S
C615 C614 1.502 . S
C616 H602 0.960 . S
C616 H603 0.961 . S
C616 H604 0.959 . S
C616 C614 1.561 . S
C617 C614 1.526 . S
C617 C618 1.396 . S
C617 C622 1.390 . S
C618 C612 1.465 . S
C618 C617 1.396 . S
C618 C619 1.399 . S
C619 H605 0.929 . S
C619 C618 1.399 . S
C619 C620 1.385 . S
C620 H606 0.931 . S
C620 C619 1.385 . S
C620 C621 1.389 . S
C621 C620 1.389 . S
C621 C622 1.387 . S
C622 H607 0.930 . S
C622 C617 1.390 . S
C622 C621 1.387 . S
H623 C635 0.930 . S
H624 C637 0.930 . S
H625 C638 0.930 . S
H626 C642 0.959 . S
H627 C642 0.959 . S
H628 C642 0.961 . S
H629 C643 0.960 . S
H630 C643 0.961 . S
H631 C643 0.959 . S
H632 C646 0.929 . S
H633 C647 0.931 . S
H634 C649 0.930 . S
C635 H623 0.930 . S
C635 C636 1.399 . S
C635 C640 1.399 . S
C636 C635 1.399 . S
C636 C637 1.376 . S
C637 H624 0.930 . S
C637 C636 1.376 . S
C637 C638 1.388 . S
C638 H625 0.930 . S
C638 C637 1.388 . S
C638 C639 1.390 . S
C639 C638 1.390 . S
C639 C640 1.394 . S
C639 C645 1.465 . S
C640 C635 1.399 . S
C640 C639 1.394 . S
C640 C641 1.516 . S
C641 C640 1.516 . S
C641 C642 1.502 . S
C641 C643 1.561 . S
C641 C644 1.526 . S
C642 H626 0.959 . S
C642 H627 0.959 . S
C642 H628 0.961 . S
C642 C641 1.502 . S
C643 H629 0.960 . S
C643 H630 0.961 . S
C643 H631 0.959 . S
C643 C641 1.561 . S
C644 C641 1.526 . S
C644 C645 1.396 . S
C644 C649 1.390 . S
C645 C639 1.465 . S
C645 C644 1.396 . S
C645 C646 1.399 . S
C646 H632 0.929 . S
C646 C645 1.399 . S
C646 C647 1.385 . S
C647 H633 0.931 . S
C647 C646 1.385 . S
C647 C648 1.389 . S
C648 C647 1.389 . S
C648 C649 1.387 . S
C649 H634 0.930 . S
C649 C644 1.390 . S
C649 C648 1.387 . S
H650 C662 0.930 . S
H651 C664 0.930 . S
H652 C665 0.930 . S
H653 C669 0.959 . S
H654 C669 0.959 . S
H655 C669 0.961 . S
H656 C670 0.960 . S
H657 C670 0.961 . S
H658 C670 0.959 . S
H659 C673 0.929 . S
H660 C674 0.931 . S
H661 C676 0.930 . S
C662 H650 0.930 . S
C662 C663 1.399 . S
C662 C667 1.399 . S
C663 C662 1.399 . S
C663 C664 1.376 . S
C664 H651 0.930 . S
C664 C663 1.376 . S
C664 C665 1.388 . S
C665 H652 0.930 . S
C665 C664 1.388 . S
C665 C666 1.390 . S
C666 C665 1.390 . S
C666 C667 1.394 . S
C666 C672 1.465 . S
C667 C662 1.399 . S
C667 C666 1.394 . S
C667 C668 1.516 . S
C668 C667 1.516 . S
C668 C669 1.502 . S
C668 C670 1.561 . S
C668 C671 1.526 . S
C669 H653 0.959 . S
C669 H654 0.959 . S
C669 H655 0.961 . S
C669 C668 1.502 . S
C670 H656 0.960 . S
C670 H657 0.961 . S
C670 H658 0.959 . S
C670 C668 1.561 . S
C671 C668 1.526 . S
C671 C672 1.396 . S
C671 C676 1.390 . S
C672 C666 1.465 . S
C672 C671 1.396 . S
C672 C673 1.399 . S
C673 H659 0.929 . S
C673 C672 1.399 . S
C673 C674 1.385 . S
C674 H660 0.931 . S
C674 C673 1.385 . S
C674 C675 1.389 . S
C675 C674 1.389 . S
C675 C676 1.387 . S
C676 H661 0.930 . S
C676 C671 1.390 . S
C676 C675 1.387 . S
H677 C689 0.930 . S
H678 C691 0.930 . S
H679 C692 0.930 . S
H680 C696 0.959 . S
H681 C696 0.959 . S
H682 C696 0.961 . S
H683 C697 0.960 . S
H684 C697 0.961 . S
H685 C697 0.959 . S
H686 C700 0.929 . S
H687 C701 0.931 . S
H688 C703 0.930 . S
C689 H677 0.930 . S
C689 C690 1.399 . S
C689 C694 1.399 . S
C690 C689 1.399 . S
C690 C691 1.376 . S
C691 H678 0.930 . S
C691 C690 1.376 . S
C691 C692 1.388 . S
C692 H679 0.930 . S
C692 C691 1.388 . S
C692 C693 1.390 . S
C693 C692 1.390 . S
C693 C694 1.394 . S
C693 C699 1.465 . S
C694 C689 1.399 . S
C694 C693 1.394 . S
C694 C695 1.516 . S
C695 C694 1.516 . S
C695 C696 1.502 . S
C695 C697 1.561 . S
C695 C698 1.526 . S
C696 H680 0.959 . S
C696 H681 0.959 . S
C696 H682 0.961 . S
C696 C695 1.502 . S
C697 H683 0.960 . S
C697 H684 0.961 . S
C697 H685 0.959 . S
C697 C695 1.561 . S
C698 C695 1.526 . S
C698 C699 1.396 . S
C698 C703 1.390 . S
C699 C693 1.465 . S
C699 C698 1.396 . S
C699 C700 1.399 . S
C700 H686 0.929 . S
C700 C699 1.399 . S
C700 C701 1.385 . S
C701 H687 0.931 . S
C701 C700 1.385 . S
C701 C702 1.389 . S
C702 C701 1.389 . S
C702 C703 1.387 . S
C703 H688 0.930 . S
C703 C698 1.390 . S
C703 C702 1.387 . S
H704 C716 0.930 . S
H705 C718 0.930 . S
H706 C719 0.930 . S
H707 C723 0.959 . S
H708 C723 0.959 . S
H709 C723 0.961 . S
H710 C724 0.960 . S
H711 C724 0.961 . S
H712 C724 0.959 . S
H713 C727 0.929 . S
H714 C728 0.931 . S
H715 C730 0.930 . S
C716 H704 0.930 . S
C716 C717 1.399 . S
C716 C721 1.399 . S
C717 C716 1.399 . S
C717 C718 1.376 . S
C718 H705 0.930 . S
C718 C717 1.376 . S
C718 C719 1.388 . S
C719 H706 0.930 . S
C719 C718 1.388 . S
C719 C720 1.390 . S
C720 C719 1.390 . S
C720 C721 1.394 . S
C720 C726 1.465 . S
C721 C716 1.399 . S
C721 C720 1.394 . S
C721 C722 1.516 . S
C722 C721 1.516 . S
C722 C723 1.502 . S
C722 C724 1.561 . S
C722 C725 1.526 . S
C723 H707 0.959 . S
C723 H708 0.959 . S
C723 H709 0.961 . S
C723 C722 1.502 . S
C724 H710 0.960 . S
C724 H711 0.961 . S
C724 H712 0.959 . S
C724 C722 1.561 . S
C725 C722 1.526 . S
C725 C726 1.396 . S
C725 C730 1.390 . S
C726 C720 1.465 . S
C726 C725 1.396 . S
C726 C727 1.399 . S
C727 H713 0.929 . S
C727 C726 1.399 . S
C727 C728 1.385 . S
C728 H714 0.931 . S
C728 C727 1.385 . S
C728 C729 1.389 . S
C729 C728 1.389 . S
C729 C730 1.387 . S
C730 H715 0.930 . S
C730 C725 1.390 . S
C730 C729 1.387 . S
H731 C743 0.930 . S
H732 C745 0.930 . S
H733 C746 0.930 . S
H734 C750 0.959 . S
H735 C750 0.959 . S
H736 C750 0.961 . S
H737 C751 0.960 . S
H738 C751 0.961 . S
H739 C751 0.959 . S
H740 C754 0.929 . S
H741 C755 0.931 . S
H742 C757 0.930 . S
C743 H731 0.930 . S
C743 C744 1.399 . S
C743 C748 1.399 . S
C744 C743 1.399 . S
C744 C745 1.376 . S
C745 H732 0.930 . S
C745 C744 1.376 . S
C745 C746 1.388 . S
C746 H733 0.930 . S
C746 C745 1.388 . S
C746 C747 1.390 . S
C747 C746 1.390 . S
C747 C748 1.394 . S
C747 C753 1.465 . S
C748 C743 1.399 . S
C748 C747 1.394 . S
C748 C749 1.516 . S
C749 C748 1.516 . S
C749 C750 1.502 . S
C749 C751 1.561 . S
C749 C752 1.526 . S
C750 H734 0.959 . S
C750 H735 0.959 . S
C750 H736 0.961 . S
C750 C749 1.502 . S
C751 H737 0.960 . S
C751 H738 0.961 . S
C751 H739 0.959 . S
C751 C749 1.561 . S
C752 C749 1.526 . S
C752 C753 1.396 . S
C752 C757 1.390 . S
C753 C747 1.465 . S
C753 C752 1.396 . S
C753 C754 1.399 . S
C754 H740 0.929 . S
C754 C753 1.399 . S
C754 C755 1.385 . S
C755 H741 0.931 . S
C755 C754 1.385 . S
C755 C756 1.389 . S
C756 C755 1.389 . S
C756 C757 1.387 . S
C757 H742 0.930 . S
C757 C752 1.390 . S
C757 C756 1.387 . S
H758 C770 0.930 . S
H759 C772 0.930 1_655 S
H760 C773 0.930 . S
H761 C777 0.959 . S
H762 C777 0.959 . S
H763 C777 0.961 . S
H764 C778 0.960 . S
H765 C778 0.961 . S
H766 C778 0.959 . S
H767 C781 0.929 . S
H768 C782 0.931 . S
H769 C784 0.930 . S
C770 H758 0.930 . S
C770 C771 1.399 . S
C770 C775 1.399 . S
C771 C770 1.399 . S
C771 C772 1.376 . S
C772 H759 0.930 1_455 S
C772 C771 1.376 . S
C772 C773 1.388 . S
C773 H760 0.930 . S
C773 C772 1.388 . S
C773 C774 1.390 . S
C774 C773 1.390 . S
C774 C775 1.394 . S
C774 C780 1.465 . S
C775 C770 1.399 . S
C775 C774 1.394 . S
C775 C776 1.516 . S
C776 C775 1.516 . S
C776 C777 1.502 . S
C776 C778 1.561 . S
C776 C779 1.526 . S
C777 H761 0.959 . S
C777 H762 0.959 . S
C777 H763 0.961 . S
C777 C776 1.502 . S
C778 H764 0.960 . S
C778 H765 0.961 . S
C778 H766 0.959 . S
C778 C776 1.561 . S
C779 C776 1.526 . S
C779 C780 1.396 . S
C779 C784 1.390 . S
C780 C774 1.465 . S
C780 C779 1.396 . S
C780 C781 1.399 . S
C781 H767 0.929 . S
C781 C780 1.399 . S
C781 C782 1.385 . S
C782 H768 0.931 . S
C782 C781 1.385 . S
C782 C783 1.389 . S
C783 C782 1.389 . S
C783 C784 1.387 . S
C784 H769 0.930 . S
C784 C779 1.390 . S
C784 C783 1.387 . S
H785 C797 0.930 1_554 S
H786 C799 0.930 . S
H787 C800 0.930 . S
H788 C804 0.959 . S
H789 C804 0.959 . S
H790 C804 0.961 . S
H791 C805 0.960 . S
H792 C805 0.961 . S
H793 C805 0.959 . S
H794 C808 0.929 . S
H795 C809 0.931 1_556 S
H796 C811 0.930 . S
C797 H785 0.930 1_556 S
C797 C798 1.399 . S
C797 C802 1.399 1_556 S
C798 C797 1.399 . S
C798 C799 1.376 . S
C799 H786 0.930 . S
C799 C798 1.376 . S
C799 C800 1.388 . S
C800 H787 0.930 . S
C800 C799 1.388 . S
C800 C801 1.390 . S
C801 C800 1.390 . S
C801 C802 1.394 1_556 S
C801 C807 1.465 . S
C802 C797 1.399 1_554 S
C802 C801 1.394 1_554 S
C802 C803 1.516 . S
C803 C802 1.516 . S
C803 C804 1.502 . S
C803 C805 1.561 . S
C803 C806 1.526 . S
C804 H788 0.959 . S
C804 H789 0.959 . S
C804 H790 0.961 . S
C804 C803 1.502 . S
C805 H791 0.960 . S
C805 H792 0.961 . S
C805 H793 0.959 . S
C805 C803 1.561 . S
C806 C803 1.526 . S
C806 C807 1.396 1_554 S
C806 C811 1.390 . S
C807 C801 1.465 . S
C807 C806 1.396 1_556 S
C807 C808 1.399 . S
C808 H794 0.929 . S
C808 C807 1.399 . S
C808 C809 1.385 1_556 S
C809 H795 0.931 1_554 S
C809 C808 1.385 1_554 S
C809 C810 1.389 . S
C810 C809 1.389 . S
C810 C811 1.387 . S
C811 H796 0.930 . S
C811 C806 1.390 . S
C811 C810 1.387 . S
C285 C20 1.288 . S
C297 C36 1.296 . S
C312 C70 1.302 . S
C324 C54 1.305 . S
C339 C104 1.298 . S
C351 C88 1.295 . S
C366 C122 1.308 1_554 S
C378 C2 1.304 . S
C393 C156 1.292 . S
C405 C240 1.297 . S
C420 C190 1.306 . S
C432 C138 1.303 . S
C447 C224 1.286 1_556 S
C459 C172 1.295 . S
C474 C258 1.308 . S
C486 C206 1.304 . S
C501 C213 1.368 1_545 S
C513 C33 1.374 . S
C528 C247 1.383 . S
C540 C67 1.395 . S
C555 C145 1.351 1_565 S
C567 C101 1.374 . S
C582 C179 1.341 . S
C594 C135 1.374 . S
C609 C169 1.393 . S
C621 C77 1.315 . S
C636 C203 1.375 . S
C648 C111 1.332 1_455 S
C663 C237 1.383 . S
C675 C9 1.316 . S
C690 C271 1.393 . S
C702 C43 1.385 1_655 S
C717 C243 1.670 . S
C729 C5 1.673 . S
C744 C141 1.664 . S
C756 C39 1.668 . S
C771 C73 1.682 . S
C783 C175 1.684 . S
C798 C107 1.663 . S
C810 C209 1.661 . S
