# Generated by pormake.
# Topology pbz, (3)-cn, num edge types: 1
# Building blocks:
#     Node 0, Type 0, BuildingBlock: WUSLED_clean_sbu_0, # of connection points: 3
#     Node 1, Type 0, BuildingBlock: WUSLED_clean_sbu_0, # of connection points: 3
#     Node 2, Type 0, BuildingBlock: WUSLED_clean_sbu_0, # of connection points: 3
#     Node 3, Type 0, BuildingBlock: WUSLED_clean_sbu_0, # of connection points: 3
#     Node 4, Type 0, BuildingBlock: WUSLED_clean_sbu_0, # of connection points: 3
#     Node 5, Type 0, BuildingBlock: WUSLED_clean_sbu_0, # of connection points: 3
#     Node 6, Type 0, BuildingBlock: WUSLED_clean_sbu_0, # of connection points: 3
#     Node 7, Type 0, BuildingBlock: WUSLED_clean_sbu_0, # of connection points: 3
#     Node 8, Type 0, BuildingBlock: WUSLED_clean_sbu_0, # of connection points: 3
#     Node 9, Type 0, BuildingBlock: WUSLED_clean_sbu_0, # of connection points: 3
#     Node 10, Type 0, BuildingBlock: WUSLED_clean_sbu_0, # of connection points: 3
#     Node 11, Type 0, BuildingBlock: WUSLED_clean_sbu_0, # of connection points: 3
#     Node 12, Type 0, BuildingBlock: WUSLED_clean_sbu_0, # of connection points: 3
#     Node 13, Type 0, BuildingBlock: WUSLED_clean_sbu_0, # of connection points: 3
#     Node 14, Type 0, BuildingBlock: WUSLED_clean_sbu_0, # of connection points: 3
#     Node 15, Type 0, BuildingBlock: WUSLED_clean_sbu_0, # of connection points: 3
#     Node 16, Type 0, BuildingBlock: WUSLED_clean_sbu_0, # of connection points: 3
#     Node 17, Type 0, BuildingBlock: WUSLED_clean_sbu_0, # of connection points: 3
#     Node 18, Type 0, BuildingBlock: WUSLED_clean_sbu_0, # of connection points: 3
#     Node 19, Type 0, BuildingBlock: WUSLED_clean_sbu_0, # of connection points: 3
#     Node 20, Type 0, BuildingBlock: WUSLED_clean_sbu_0, # of connection points: 3
#     Node 21, Type 0, BuildingBlock: WUSLED_clean_sbu_0, # of connection points: 3
#     Node 22, Type 0, BuildingBlock: WUSLED_clean_sbu_0, # of connection points: 3
#     Node 23, Type 0, BuildingBlock: WUSLED_clean_sbu_0, # of connection points: 3
#     Edge 24, Type (0, 0), BuildingBlock: UVAHIK_clean_linker_0, # of connection points: 2
#     Edge 25, Type (0, 0), BuildingBlock: UVAHIK_clean_linker_0, # of connection points: 2
#     Edge 26, Type (0, 0), BuildingBlock: UVAHIK_clean_linker_0, # of connection points: 2
#     Edge 27, Type (0, 0), BuildingBlock: UVAHIK_clean_linker_0, # of connection points: 2
#     Edge 28, Type (0, 0), BuildingBlock: UVAHIK_clean_linker_0, # of connection points: 2
#     Edge 29, Type (0, 0), BuildingBlock: UVAHIK_clean_linker_0, # of connection points: 2
#     Edge 30, Type (0, 0), BuildingBlock: UVAHIK_clean_linker_0, # of connection points: 2
#     Edge 31, Type (0, 0), BuildingBlock: UVAHIK_clean_linker_0, # of connection points: 2
#     Edge 32, Type (0, 0), BuildingBlock: UVAHIK_clean_linker_0, # of connection points: 2
#     Edge 33, Type (0, 0), BuildingBlock: UVAHIK_clean_linker_0, # of connection points: 2
#     Edge 34, Type (0, 0), BuildingBlock: UVAHIK_clean_linker_0, # of connection points: 2
#     Edge 35, Type (0, 0), BuildingBlock: UVAHIK_clean_linker_0, # of connection points: 2
#     Edge 36, Type (0, 0), BuildingBlock: UVAHIK_clean_linker_0, # of connection points: 2
#     Edge 37, Type (0, 0), BuildingBlock: UVAHIK_clean_linker_0, # of connection points: 2
#     Edge 38, Type (0, 0), BuildingBlock: UVAHIK_clean_linker_0, # of connection points: 2
#     Edge 39, Type (0, 0), BuildingBlock: UVAHIK_clean_linker_0, # of connection points: 2
#     Edge 40, Type (0, 0), BuildingBlock: UVAHIK_clean_linker_0, # of connection points: 2
#     Edge 41, Type (0, 0), BuildingBlock: UVAHIK_clean_linker_0, # of connection points: 2
#     Edge 42, Type (0, 0), BuildingBlock: UVAHIK_clean_linker_0, # of connection points: 2
#     Edge 43, Type (0, 0), BuildingBlock: UVAHIK_clean_linker_0, # of connection points: 2
#     Edge 44, Type (0, 0), BuildingBlock: UVAHIK_clean_linker_0, # of connection points: 2
#     Edge 45, Type (0, 0), BuildingBlock: UVAHIK_clean_linker_0, # of connection points: 2
#     Edge 46, Type (0, 0), BuildingBlock: UVAHIK_clean_linker_0, # of connection points: 2
#     Edge 47, Type (0, 0), BuildingBlock: UVAHIK_clean_linker_0, # of connection points: 2
#     Edge 48, Type (0, 0), BuildingBlock: UVAHIK_clean_linker_0, # of connection points: 2
#     Edge 49, Type (0, 0), BuildingBlock: UVAHIK_clean_linker_0, # of connection points: 2
#     Edge 50, Type (0, 0), BuildingBlock: UVAHIK_clean_linker_0, # of connection points: 2
#     Edge 51, Type (0, 0), BuildingBlock: UVAHIK_clean_linker_0, # of connection points: 2
#     Edge 52, Type (0, 0), BuildingBlock: UVAHIK_clean_linker_0, # of connection points: 2
#     Edge 53, Type (0, 0), BuildingBlock: UVAHIK_clean_linker_0, # of connection points: 2
#     Edge 54, Type (0, 0), BuildingBlock: UVAHIK_clean_linker_0, # of connection points: 2
#     Edge 55, Type (0, 0), BuildingBlock: UVAHIK_clean_linker_0, # of connection points: 2
#     Edge 56, Type (0, 0), BuildingBlock: UVAHIK_clean_linker_0, # of connection points: 2
#     Edge 57, Type (0, 0), BuildingBlock: UVAHIK_clean_linker_0, # of connection points: 2
#     Edge 58, Type (0, 0), BuildingBlock: UVAHIK_clean_linker_0, # of connection points: 2
#     Edge 59, Type (0, 0), BuildingBlock: UVAHIK_clean_linker_0, # of connection points: 2
# Relax obj value: 0.000
# Max RMSD: 0.013
# Mean RMSD: 0.009
data_MOF--net-pbz--node1-WUSLED_clean_sbu_0--edge1-UVAHIK_clean_linker_0
_symmetry_space_group_name_H-M    P1
_symmetry_Int_Tables_number       1
_symmetry_cell_setting            triclinic
loop_
_symmetry_equiv_pos_as_xyz
'x, y, z'
_cell_length_a     116.04787
_cell_length_b     116.14615
_cell_length_c     116.35414
_cell_angle_alpha  89.468761
_cell_angle_beta   90.025379
_cell_angle_gamma 89.990271
loop_
_atom_site_label
_atom_site_type_symbol
_atom_site_fract_x
_atom_site_fract_y
_atom_site_fract_z
_atom_type_partial_charge
C0 C 1.0068 0.21621 0.70683 0.0
C1 C 1.01343 0.21345 0.71658 0.0
C2 C 1.00844 0.23189 0.72525 0.0
C3 C 1.01424 0.22122 0.72571 0.0
C4 C 1.00199 0.23463 0.71535 0.0
C5 C 1.00118 0.22687 0.70626 0.0
U6 U 1.01569 0.18975 0.68901 0.0
O7 O 1.0047 0.17662 0.68103 0.0
O8 O 1.01558 0.18771 0.67019 0.0
C9 C 1.00749 0.17979 0.67051 0.0
C10 C 1.00541 0.2081 0.69724 0.0
C11 C 0.99784 0.18144 0.6624 0.0
C12 C 0.97889 0.18906 0.65751 0.0
C13 C 0.98803 0.18787 0.66533 0.0
C14 C 0.98932 0.17757 0.64373 0.0
C15 C 0.97942 0.18391 0.6466 0.0
C16 C 0.99842 0.17635 0.65154 0.0
C17 C 0.04251 0.17201 0.69778 0.0
C18 C 0.04835 0.15381 0.68935 0.0
C19 C 0.06069 0.16312 0.70325 0.0
C20 C 0.05273 0.1721 0.70418 0.0
C21 C 0.05859 0.1538 0.69588 0.0
C22 C 0.04037 0.16284 0.6903 0.0
C23 C 0.03423 0.18153 0.6992 0.0
O24 O 1.01334 0.20858 0.68919 0.0
O25 O 1.00246 0.19751 0.70004 0.0
O26 O 0.02369 0.17858 0.70214 0.0
O27 O 0.03454 0.18968 0.6913 0.0
H28 H 0.01786 0.20526 0.71717 0.0
H29 H 0.01922 0.21878 0.73322 0.0
H30 H 0.99759 0.24282 0.71457 0.0
H31 H 0.99608 0.22918 0.69879 0.0
H32 H 0.97146 0.19412 0.65997 0.0
H33 H 0.98744 0.19192 0.67366 0.0
H34 H 0.98998 0.17335 0.63549 0.0
H35 H 1.00589 0.17133 0.64913 0.0
H36 H 0.04641 0.14675 0.68366 0.0
H37 H 0.06855 0.16355 0.70824 0.0
H38 H 0.05456 0.17914 0.70996 0.0
H39 H 0.03252 0.16263 0.68527 0.0
C40 C 0.82416 0.51263 0.20997 0.0
C41 C 0.82702 0.51919 0.21964 0.0
C42 C 0.80853 0.51441 0.22855 0.0
C43 C 0.81927 0.52008 0.22885 0.0
C44 C 0.8057 0.50801 0.21873 0.0
C45 C 0.81343 0.50713 0.20957 0.0
U46 U 0.85099 0.521 0.19213 0.0
O47 O 0.86366 0.50977 0.18375 0.0
O48 O 0.85303 0.52147 0.17329 0.0
C49 C 0.86061 0.51306 0.17334 0.0
C50 C 0.8322 0.51123 0.20027 0.0
C51 C 0.85875 0.50386 0.16484 0.0
C52 C 0.85329 0.48429 0.15977 0.0
C53 C 0.85431 0.49302 0.16797 0.0
C54 C 0.86086 0.49722 0.14519 0.0
C55 C 0.85668 0.48624 0.14829 0.0
C56 C 0.8619 0.50589 0.15338 0.0
C57 C 0.87 0.54655 0.20113 0.0
C58 C 0.88702 0.5529 0.19063 0.0
C59 C 0.88113 0.5629 0.20782 0.0
C60 C 0.8718 0.55537 0.20906 0.0
C61 C 0.88889 0.56177 0.1986 0.0
C62 C 0.87766 0.54535 0.19189 0.0
C63 C 0.86007 0.53878 0.20266 0.0
O64 O 0.83206 0.51945 0.19244 0.0
O65 O 0.84266 0.50775 0.20291 0.0
O66 O 0.86253 0.52804 0.20535 0.0
O67 O 0.85188 0.5397 0.1949 0.0
H68 H 0.83527 0.52353 0.22011 0.0
H69 H 0.82179 0.52501 0.2363 0.0
H70 H 0.79745 0.50371 0.21807 0.0
H71 H 0.81104 0.50209 0.20215 0.0
H72 H 0.85011 0.47594 0.1625 0.0
H73 H 0.85179 0.49124 0.17678 0.0
H74 H 0.86334 0.49913 0.13641 0.0
H75 H 0.86529 0.51421 0.15076 0.0
H76 H 0.89287 0.55169 0.18349 0.0
H77 H 0.88217 0.56972 0.21402 0.0
H78 H 0.86595 0.55646 0.21622 0.0
H79 H 0.87641 0.53857 0.18568 0.0
C80 C 0.49371 0.37968 0.67975 0.0
C81 C 0.48772 0.38004 0.69022 0.0
C82 C 0.47504 0.39507 0.68258 0.0
C83 C 0.47848 0.38769 0.69164 0.0
C84 C 0.48106 0.39458 0.6721 0.0
C85 C 0.49029 0.38697 0.67072 0.0
U86 U 0.51259 0.35372 0.68834 0.0
O87 O 0.52051 0.34058 0.67729 0.0
O88 O 0.53144 0.35183 0.6877 0.0
C89 C 0.53105 0.34386 0.67976 0.0
C90 C 0.50356 0.37185 0.67804 0.0
C91 C 0.53888 0.34547 0.66989 0.0
C92 C 0.54754 0.3574 0.65491 0.0
C93 C 0.53975 0.35606 0.66404 0.0
C94 C 0.55352 0.33755 0.65727 0.0
C95 C 0.55455 0.34816 0.65142 0.0
C96 C 0.54578 0.33623 0.6664 0.0
C97 C 0.50503 0.33588 0.7154 0.0
C98 C 0.51415 0.31777 0.72087 0.0
C99 C 0.50043 0.32669 0.73369 0.0
C100 C 0.49896 0.33573 0.7258 0.0
C101 C 0.50802 0.31756 0.73132 0.0
C102 C 0.51269 0.32686 0.71298 0.0
C103 C 0.50307 0.34542 0.70718 0.0
O104 O 0.51188 0.37249 0.68568 0.0
O105 O 0.50095 0.36122 0.67531 0.0
O106 O 0.49986 0.34245 0.69679 0.0
O107 O 0.51082 0.35367 0.70719 0.0
H108 H 0.4902 0.37443 0.69729 0.0
H109 H 0.47397 0.38774 0.69978 0.0
H110 H 0.47878 0.40023 0.665 0.0
H111 H 0.49482 0.38683 0.66258 0.0
H112 H 0.548 0.36565 0.65051 0.0
H113 H 0.53446 0.36329 0.66657 0.0
H114 H 0.55887 0.33029 0.65495 0.0
H115 H 0.54526 0.328 0.67083 0.0
H116 H 0.52016 0.31095 0.71881 0.0
H117 H 0.49544 0.32675 0.74155 0.0
H118 H 0.49298 0.3426 0.7278 0.0
H119 H 0.51749 0.32684 0.705 0.0
C120 C 0.6768 0.03728 0.1599 0.0
C121 C 0.68389 0.04663 0.16272 0.0
C122 C 0.67967 0.05583 0.14422 0.0
C123 C 0.68529 0.05584 0.15496 0.0
C124 C 0.67266 0.04636 0.14144 0.0
C125 C 0.67125 0.0372 0.14921 0.0
U126 U 0.68476 0.01888 0.18647 0.0
O127 O 0.67337 1.01129 0.19967 0.0
O128 O 0.68391 1.00009 0.18883 0.0
C129 C 0.67579 1.00068 0.19669 0.0
C130 C 0.67488 0.02763 0.168 0.0
C131 C 0.66583 0.99296 0.19512 0.0
C132 C 0.65067 0.98472 0.18329 0.0
C133 C 0.65993 0.99236 0.1846 0.0
C134 C 0.65302 0.97833 0.20302 0.0
C135 C 0.64711 0.97758 0.19249 0.0
C136 C 0.66228 0.98593 0.2043 0.0
C137 C 0.71191 0.02667 0.20414 0.0
C138 C 0.71648 0.02162 0.224 0.0
C139 C 0.73142 0.02895 0.2114 0.0
C140 C 0.72345 0.02979 0.20242 0.0
C141 C 0.72803 0.025 0.22237 0.0
C142 C 0.70849 0.02245 0.21497 0.0
C143 C 0.70363 0.02833 0.19461 0.0
O144 O 0.68248 0.01924 0.16766 0.0
O145 O 0.67196 0.03044 0.17852 0.0
O146 O 0.6932 0.03171 0.19742 0.0
O147 O 0.7037 0.02044 0.18659 0.0
H148 H 0.6883 0.04683 0.17092 0.0
H149 H 0.69086 0.06292 0.15733 0.0
H150 H 0.66808 0.04612 0.13334 0.0
H151 H 0.66571 0.03008 0.14689 0.0
H152 H 0.64624 0.98447 0.1751 0.0
H153 H 0.66251 0.99776 0.17741 0.0
H154 H 0.65064 0.97288 0.21024 0.0
H155 H 0.66674 0.98624 0.21248 0.0
H156 H 0.71353 0.01862 0.23233 0.0
H157 H 0.74027 0.03141 0.20974 0.0
H158 H 0.72628 0.03301 0.19412 0.0
H159 H 0.69962 0.01996 0.2165 0.0
C160 C 1.00537 0.32777 0.83821 0.0
C161 C 1.01524 0.32805 0.83125 0.0
C162 C 1.00741 0.31266 0.81937 0.0
C163 C 0.01627 0.32054 0.82192 0.0
C164 C 0.99758 0.31242 0.82646 0.0
C165 C 0.99659 0.31989 0.83576 0.0
U166 U 1.01416 0.35379 0.85666 0.0
O167 O 1.00303 0.36685 0.86463 0.0
O168 O 1.01378 0.35563 0.87546 0.0
C169 C 1.00571 0.36358 0.87513 0.0
C170 C 1.00394 0.33559 0.84802 0.0
C171 C 0.99595 0.36198 0.88311 0.0
C172 C 0.98112 0.3501 0.89207 0.0
C173 C 0.99024 0.35137 0.88425 0.0
C174 C 0.98323 0.37005 0.89756 0.0
C175 C 0.97749 0.35944 0.89883 0.0
C176 C 0.99235 0.37129 0.88979 0.0
C177 C 0.04066 0.37207 0.84851 0.0
C178 C 0.04866 0.3873 0.86033 0.0
C179 C 0.05599 0.38432 0.8411 0.0
C180 C 0.04824 0.37522 0.83966 0.0
C181 C 0.05632 0.39049 0.85145 0.0
C182 C 0.04088 0.37819 0.85886 0.0
C183 C 0.03266 0.36238 0.84673 0.0
O184 O 1.01188 0.33498 0.85606 0.0
O185 O 1.00097 0.34622 0.84542 0.0
O186 O 0.02212 0.36519 0.84368 0.0
O187 O 0.033 0.35409 0.8545 0.0
H188 H 0.02211 0.33411 0.83299 0.0
H189 H 0.0239 0.32103 0.81659 0.0
H190 H 0.99067 0.30637 0.82489 0.0
H191 H 0.98892 0.31952 0.84106 0.0
H192 H 0.97682 0.34185 0.89273 0.0
H193 H 0.99285 0.34409 0.87912 0.0
H194 H 0.9808 0.37737 0.90272 0.0
H195 H 0.99665 0.37954 0.88905 0.0
H196 H 0.04859 0.39193 0.86836 0.0
H197 H 0.06184 0.38641 0.83414 0.0
H198 H 0.04822 0.37058 0.83162 0.0
H199 H 0.03505 0.37591 0.86578 0.0
C200 C 0.67704 0.5047 0.38654 0.0
C201 C 0.68634 0.49705 0.38553 0.0
C202 C 0.67966 0.48624 0.40238 0.0
C203 C 0.68764 0.4879 0.39338 0.0
C204 C 0.67035 0.49396 0.40328 0.0
C205 C 0.66907 0.50308 0.39545 0.0
U206 U 0.68544 0.52247 0.35973 0.0
O207 O 0.67423 0.53039 0.3466 0.0
O208 O 0.68534 0.54128 0.35717 0.0
C209 C 0.67712 0.54093 0.34941 0.0
C210 C 0.67544 0.51438 0.37842 0.0
C211 C 0.66749 0.54903 0.35104 0.0
C212 C 0.65056 0.55552 0.36148 0.0
C213 C 0.65972 0.54775 0.3602 0.0
C214 C 0.6569 0.56591 0.34449 0.0
C215 C 0.64901 0.56469 0.35361 0.0
C216 C 0.66603 0.55816 0.34323 0.0
C217 C 0.71158 0.5132 0.34153 0.0
C218 C 0.71915 0.52386 0.32508 0.0
C219 C 0.72696 0.50511 0.32996 0.0
C220 C 0.71936 0.50429 0.33925 0.0
C221 C 0.72694 0.51488 0.32271 0.0
C222 C 0.71151 0.52301 0.3344 0.0
C223 C 0.70363 0.51197 0.35135 0.0
O224 O 0.68346 0.52237 0.37855 0.0
O225 O 0.67222 0.5116 0.36798 0.0
O226 O 0.693 0.50907 0.3488 0.0
O227 O 0.70424 0.52 0.35921 0.0
H228 H 0.6926 0.49818 0.37871 0.0
H229 H 0.69497 0.48221 0.39248 0.0
H230 H 0.66394 0.49287 0.40996 0.0
H231 H 0.66181 0.50887 0.39633 0.0
H232 H 0.64459 0.55423 0.36853 0.0
H233 H 0.6607 0.54072 0.36631 0.0
H234 H 0.65611 0.57295 0.33837 0.0
H235 H 0.67197 0.55931 0.33613 0.0
H236 H 0.71882 0.53146 0.31962 0.0
H237 H 0.73294 0.49811 0.32853 0.0
H238 H 0.71957 0.49666 0.34469 0.0
H239 H 0.70552 0.52998 0.336 0.0
C240 C 0.4946 0.16175 0.86583 0.0
C241 C 0.48856 0.16141 0.85538 0.0
C242 C 0.47606 0.1462 0.86295 0.0
C243 C 0.47939 0.15369 0.85394 0.0
C244 C 0.48214 0.14666 0.87341 0.0
C245 C 0.4913 0.15434 0.87482 0.0
U246 U 0.51328 0.18781 0.85721 0.0
O247 O 0.52107 0.20106 0.8682 0.0
O248 O 0.53211 0.18985 0.85787 0.0
C249 C 0.53165 0.19786 0.86577 0.0
C250 C 0.50438 0.16965 0.86756 0.0
C251 C 0.53948 0.19635 0.87566 0.0
C252 C 0.54812 0.18456 0.89078 0.0
C253 C 0.54035 0.18581 0.88162 0.0
C254 C 0.55411 0.20439 0.88823 0.0
C255 C 0.55513 0.19383 0.89419 0.0
C256 C 0.54637 0.20561 0.87907 0.0
C257 C 0.50556 0.2054 0.82998 0.0
C258 C 0.51435 0.22363 0.82437 0.0
C259 C 0.50103 0.2142 0.81149 0.0
C260 C 0.49964 0.20525 0.81949 0.0
C261 C 0.50838 0.22354 0.81382 0.0
C262 C 0.51298 0.21462 0.83237 0.0
C263 C 0.50371 0.19592 0.83829 0.0
O264 O 0.51273 0.16905 0.85996 0.0
O265 O 0.50167 0.18028 0.87023 0.0
O266 O 0.50048 0.19894 0.84866 0.0
O267 O 0.51153 0.18773 0.83835 0.0
H268 H 0.49095 0.16711 0.84835 0.0
H269 H 0.47483 0.15367 0.84582 0.0
H270 H 0.47995 0.14093 0.88047 0.0
H271 H 0.49588 0.15446 0.88294 0.0
H272 H 0.54858 0.17635 0.89525 0.0
H273 H 0.53505 0.17856 0.87915 0.0
H274 H 0.55945 0.21167 0.89049 0.0
H275 H 0.54585 0.2138 0.87456 0.0
H276 H 0.52017 0.23061 0.8264 0.0
H277 H 0.49616 0.21391 0.80356 0.0
H278 H 0.49386 0.19822 0.8175 0.0
H279 H 0.51766 0.21487 0.84042 0.0
C280 C 0.82556 0.03021 0.33475 0.0
C281 C 0.8241 0.01944 0.32953 0.0
C282 C 0.81052 0.02782 0.31575 0.0
C283 C 0.81662 0.01825 0.32014 0.0
C284 C 0.81212 0.03859 0.32098 0.0
C285 C 0.81954 0.03975 0.33037 0.0
U286 U 0.85155 0.02212 0.35389 0.0
O287 O 0.86375 0.03346 0.3628 0.0
O288 O 0.85283 0.02165 0.37281 0.0
C289 C 0.86032 0.03013 0.37307 0.0
C290 C 0.83307 0.03171 0.34488 0.0
C291 C 0.858 0.03933 0.38146 0.0
C292 C 0.85148 0.05863 0.38629 0.0
C293 C 0.85308 0.04991 0.37817 0.0
C294 C 0.85948 0.04621 0.40108 0.0
C295 C 0.8547 0.0569 0.39785 0.0
C296 C 0.86112 0.03755 0.39297 0.0
C297 C 0.87123 0.99677 0.34538 0.0
C298 C 0.88576 0.98774 0.35757 0.0
C299 C 0.88464 0.98288 0.33741 0.0
C300 C 0.87539 0.99049 0.33603 0.0
C301 C 0.88994 0.98136 0.34821 0.0
C302 C 0.8765 0.9954 0.35616 0.0
C303 C 0.86128 1.00451 0.34364 0.0
O304 O 0.83269 0.02352 0.35274 0.0
O305 O 0.84358 0.03537 0.34276 0.0
O306 O 0.86373 1.01529 0.34112 0.0
O307 O 0.8528 1.00345 0.35107 0.0
H308 H 0.82871 1.01196 0.33274 0.0
H309 H 0.8157 1.00987 0.31625 0.0
H310 H 0.80747 0.0461 0.31794 0.0
H311 H 0.82052 0.04812 0.33429 0.0
H312 H 0.84766 0.0667 0.38352 0.0
H313 H 0.85055 0.05147 0.36932 0.0
H314 H 0.86221 0.04461 0.40986 0.0
H315 H 0.86497 0.02947 0.39569 0.0
H316 H 0.88971 0.98689 0.36597 0.0
H317 H 0.88749 0.97801 0.33005 0.0
H318 H 0.87142 0.99141 0.32764 0.0
H319 H 0.87344 1.00022 0.36349 0.0
C320 C 0.17497 0.65936 1.00431 0.0
C321 C 0.18475 0.65986 0.99724 0.0
C322 C 0.17735 0.64399 0.98573 0.0
C323 C 0.18594 0.65223 0.98804 0.0
C324 C 0.16756 0.64359 0.99287 0.0
C325 C 0.1664 0.6512 1.00205 0.0
U326 U 0.18374 0.68547 0.02254 0.0
O327 O 0.17272 0.6983 0.03096 0.0
O328 O 0.18398 0.6872 0.04138 0.0
C329 C 0.17583 0.69505 0.04136 0.0
C330 C 0.17353 0.66716 1.01414 0.0
C331 C 0.16641 0.69326 0.04969 0.0
C332 C 0.14846 0.68414 0.05563 0.0
C333 C 0.15738 0.68551 0.0476 0.0
C334 C 0.15757 0.69817 0.06794 0.0
C335 C 0.14845 0.69046 0.06592 0.0
C336 C 0.16644 0.69954 0.05991 0.0
C337 C 0.20991 0.70393 1.01379 0.0
C338 C 0.21796 0.71929 0.02542 0.0
C339 C 0.22546 0.71588 1.00633 0.0
C340 C 0.21762 0.70684 1.00497 0.0
C341 C 0.22576 0.72222 0.01658 0.0
C342 C 0.21009 0.71024 0.02403 0.0
C343 C 0.20189 0.69424 1.01215 0.0
O344 O 0.18161 0.66665 0.02204 0.0
O345 O 0.17036 0.67774 1.0116 0.0
O346 O 0.19125 0.69704 1.00944 0.0
O347 O 0.20249 0.68589 0.01983 0.0
H348 H 0.19145 0.66614 0.99883 0.0
H349 H 0.19353 0.65287 0.98266 0.0
H350 H 0.16086 0.63727 0.99148 0.0
H351 H 0.1588 0.65065 1.00744 0.0
H352 H 0.14164 0.67805 0.05385 0.0
H353 H 0.15723 0.68055 0.03976 0.0
H354 H 0.15778 0.70331 0.07565 0.0
H355 H 0.17332 0.70559 0.06165 0.0
H356 H 0.21785 0.72406 0.03337 0.0
H357 H 0.23143 0.71775 0.99942 0.0
H358 H 0.21764 0.70205 0.99702 0.0
H359 H 0.20416 0.70815 0.03093 0.0
C360 C 0.15691 0.86483 0.50367 0.0
C361 C 0.15987 0.85776 0.49441 0.0
C362 C 0.1415 0.86207 0.48502 0.0
C363 C 0.15224 0.85639 0.48516 0.0
C364 C 0.13855 0.869 0.49444 0.0
C365 C 0.14618 0.87037 0.50364 0.0
U366 U 0.1832 0.8568 0.52234 0.0
O367 O 0.19637 0.86813 0.52989 0.0
O368 O 0.18526 0.85769 0.54111 0.0
C369 C 0.19319 0.86575 0.54048 0.0
C370 C 0.16488 0.86673 0.51335 0.0
C371 C 0.19155 0.87573 0.54807 0.0
C372 C 0.17968 0.89103 0.55595 0.0
C373 C 0.18107 0.88176 0.54844 0.0
C374 C 0.19927 0.88843 0.56268 0.0
C375 C 0.18877 0.89448 0.56319 0.0
C376 C 0.20063 0.87916 0.5552 0.0
C377 C 0.20089 0.82955 0.51504 0.0
C378 C 0.22071 0.82488 0.52018 0.0
C379 C 0.20803 0.80997 0.51316 0.0
C380 C 0.1991 0.818 0.51215 0.0
C381 C 0.21901 0.81331 0.51704 0.0
C382 C 0.21173 0.83293 0.51919 0.0
C383 C 0.19141 0.83787 0.5132 0.0
O384 O 0.16435 0.85917 0.5218 0.0
O385 O 0.17549 0.86958 0.51059 0.0
O386 O 0.19434 0.84827 0.50973 0.0
O387 O 0.18323 0.83787 0.52101 0.0
H388 H 0.16812 0.85339 0.49427 0.0
H389 H 0.15485 0.85107 0.47803 0.0
H390 H 0.1303 0.87333 0.49476 0.0
H391 H 0.14371 0.87581 0.51074 0.0
H392 H 0.17153 0.89557 0.55602 0.0
H393 H 0.17397 0.87927 0.54295 0.0
H394 H 0.20639 0.89072 0.56822 0.0
H395 H 0.20877 0.8746 0.55507 0.0
H396 H 0.22906 0.82779 0.52313 0.0
H397 H 0.20631 0.80111 0.51088 0.0
H398 H 0.19079 0.81519 0.50898 0.0
H399 H 0.21331 0.8418 0.5215 0.0
C400 C 0.33071 0.71469 0.51377 0.0
C401 C 0.32545 0.71635 0.5245 0.0
C402 C 0.31186 0.73 0.51589 0.0
C403 C 0.31613 0.72397 0.52555 0.0
C404 C 0.31714 0.72821 0.50516 0.0
C405 C 0.32646 0.72065 0.50413 0.0
U406 U 0.34969 0.68881 0.52265 0.0
O407 O 0.35825 0.67604 0.51171 0.0
O408 O 0.36862 0.68731 0.52265 0.0
C409 C 0.36865 0.67946 0.51459 0.0
C410 C 0.34073 0.70699 0.51238 0.0
C411 C 0.37679 0.6814 0.50503 0.0
C412 C 0.38168 0.68958 0.48632 0.0
C413 C 0.37383 0.68811 0.49538 0.0
C414 C 0.39557 0.67776 0.49654 0.0
C415 C 0.39266 0.6844 0.48678 0.0
C416 C 0.38772 0.67628 0.50555 0.0
C417 C 0.34148 0.67032 0.54911 0.0
C418 C 0.35009 0.65187 0.55426 0.0
C419 C 0.33698 0.66117 0.56744 0.0
C420 C 0.33565 0.67032 0.55965 0.0
C421 C 0.34419 0.6518 0.56485 0.0
C422 C 0.34877 0.66106 0.54647 0.0
C423 C 0.33966 0.67998 0.54099 0.0
O424 O 0.34875 0.7076 0.52033 0.0
O425 O 0.33839 0.69637 0.50933 0.0
O426 O 0.33687 0.67717 0.53043 0.0
O427 O 0.34724 0.68837 0.54143 0.0
H428 H 0.32856 0.71179 0.53205 0.0
H429 H 0.31219 0.72504 0.53391 0.0
H430 H 0.31421 0.73281 0.49757 0.0
H431 H 0.33042 0.71952 0.49578 0.0
H432 H 0.37919 0.69485 0.479 0.0
H433 H 0.36544 0.69219 0.49484 0.0
H434 H 0.40386 0.67351 0.49713 0.0
H435 H 0.39016 0.67104 0.51291 0.0
H436 H 0.3558 0.64486 0.55204 0.0
H437 H 0.33218 0.66135 0.57542 0.0
H438 H 0.32996 0.67737 0.56182 0.0
H439 H 0.35339 0.66093 0.53838 0.0
C440 C 0.3332 0.82474 0.02977 0.0
C441 C 0.32336 0.82765 0.02335 0.0
C442 C 0.31492 0.80877 0.02746 0.0
C443 C 0.3143 0.81975 0.0222 0.0
C444 C 0.32491 0.80589 0.03373 0.0
C445 C 0.33392 0.81379 0.03488 0.0
U446 U 0.35091 0.85168 0.02153 0.0
O447 O 0.35859 0.86477 0.03275 0.0
O448 O 0.36972 0.85415 0.02192 0.0
C449 C 0.3692 0.86194 0.03003 0.0
C450 C 0.34273 0.83296 0.03145 0.0
C451 C 0.37723 0.86034 0.03973 0.0
C452 C 0.38355 0.85014 0.05698 0.0
C453 C 0.37579 0.8514 0.0478 0.0
C454 C 0.39425 0.86671 0.05006 0.0
C455 C 0.39287 0.85782 0.05825 0.0
C456 C 0.38651 0.86795 0.04091 0.0
C457 C 0.34245 0.86991 0.99501 0.0
C458 C 0.35115 0.88831 0.98982 0.0
C459 C 0.33756 0.87932 0.9769 0.0
C460 C 0.33631 0.87012 0.98463 0.0
C461 C 0.34499 0.88856 0.97938 0.0
C462 C 0.34992 0.87905 0.99755 0.0
C463 C 0.34086 0.86013 1.00301 0.0
O464 O 0.35093 0.8328 0.02366 0.0
O465 O 0.33979 0.84343 0.0345 0.0
O466 O 0.3377 0.86274 1.01352 0.0
O467 O 0.34884 0.85211 1.0027 0.0
H468 H 0.32264 0.83607 0.01932 0.0
H469 H 0.30672 0.82231 0.01739 0.0
H470 H 0.32582 0.79747 0.03771 0.0
H471 H 0.34147 0.81135 0.03982 0.0
H472 H 0.38215 0.84327 0.06317 0.0
H473 H 0.36866 0.84544 0.04702 0.0
H474 H 0.40141 0.87266 0.05063 0.0
H475 H 0.38779 0.87487 0.03473 0.0
H476 H 0.35704 0.8952 0.99195 0.0
H477 H 0.33255 0.87929 0.96905 0.0
H478 H 0.33049 0.86315 0.98253 0.0
H479 H 0.35477 0.87902 1.00551 0.0
C480 C 1.00955 0.83603 0.32843 0.0
C481 C 0.0199 0.82981 0.32781 0.0
C482 C 1.0115 0.81706 0.31346 0.0
C483 C 0.02088 0.82042 0.32036 0.0
C484 C 1.00117 0.82337 0.31416 0.0
C485 C 1.00022 0.83274 0.32156 0.0
U486 U 0.01855 0.85505 0.35399 0.0
O487 O 0.01797 0.87391 0.3555 0.0
O488 O 1.00749 0.86315 0.36703 0.0
C489 C 1.00999 0.87364 0.36352 0.0
C490 C 1.00818 0.84596 0.33613 0.0
C491 C 1.00011 0.88149 0.36187 0.0
C492 C 0.98549 0.89058 0.34982 0.0
C493 C 0.99467 0.88282 0.35116 0.0
C494 C 0.98698 0.8956 0.36992 0.0
C495 C 0.98153 0.89709 0.3592 0.0
C496 C 0.99616 0.8879 0.37122 0.0
C497 C 0.04542 0.84751 0.37201 0.0
C498 C 0.05028 0.85602 0.39043 0.0
C499 C 0.06393 0.84349 0.38099 0.0
C500 C 0.05618 0.84205 0.37189 0.0
C501 C 0.06106 0.85042 0.39043 0.0
C502 C 0.04253 0.85458 0.3813 0.0
C503 C 0.0373 0.84549 0.36247 0.0
O504 O 1.00538 0.8435 0.34681 0.0
O505 O 0.01602 0.8541 0.33527 0.0
O506 O 0.03745 0.85315 0.35408 0.0
O507 O 0.02683 0.84235 0.36543 0.0
H508 H 0.0272 0.8322 0.33309 0.0
H509 H 0.02893 0.8157 0.32012 0.0
H510 H 0.99384 0.82117 0.30886 0.0
H511 H 0.99217 0.83745 0.32189 0.0
H512 H 0.98141 0.89141 0.34148 0.0
H513 H 0.99754 0.8779 0.34383 0.0
H514 H 0.98429 0.90056 0.37728 0.0
H515 H 1.00026 0.88701 0.37956 0.0
H516 H 0.04773 0.86133 0.39758 0.0
H517 H 0.07221 0.83921 0.38057 0.0
H518 H 0.05859 0.8366 0.36478 0.0
H519 H 0.03425 0.85888 0.38154 0.0
C520 C 0.15585 0.50049 0.86643 0.0
C521 C 0.15557 0.4943 0.85613 0.0
C522 C 0.14023 0.48199 0.86373 0.0
C523 C 0.14781 0.48515 0.85478 0.0
C524 C 0.14063 0.48822 0.87405 0.0
C525 C 0.14836 0.49736 0.87537 0.0
U526 U 0.18202 0.51896 0.85775 0.0
O527 O 0.18408 0.53779 0.85796 0.0
O528 O 0.19523 0.52691 0.86872 0.0
C529 C 0.19208 0.53744 0.86596 0.0
C530 C 0.16378 0.51026 0.86805 0.0
C531 C 0.19055 0.54544 0.8756 0.0
C532 C 0.17943 0.55293 0.89162 0.0
C533 C 0.18073 0.54506 0.88263 0.0
C534 C 0.19779 0.56155 0.88667 0.0
C535 C 0.18793 0.56133 0.89372 0.0
C536 C 0.19907 0.5537 0.87772 0.0
C537 C 0.19974 0.51085 0.83099 0.0
C538 C 0.21704 0.52089 0.82462 0.0
C539 C 0.20951 0.50507 0.81349 0.0
C540 C 0.20054 0.50369 0.8214 0.0
C541 C 0.21791 0.51366 0.81499 0.0
C542 C 0.20804 0.51949 0.83256 0.0
C543 C 0.19021 0.5091 0.83919 0.0
O544 O 0.1744 0.50757 0.87094 0.0
O545 O 0.16323 0.5185 0.86024 0.0
O546 O 0.18202 0.51692 0.83895 0.0
O547 O 0.1932 0.50603 0.84968 0.0
H548 H 0.16133 0.49656 0.84914 0.0
H549 H 0.14783 0.48048 0.84677 0.0
H550 H 0.13483 0.48615 0.88106 0.0
H551 H 0.14843 0.50205 0.88338 0.0
H552 H 0.17168 0.55256 0.89678 0.0
H553 H 0.17405 0.53873 0.88112 0.0
H554 H 0.2046 0.56774 0.88814 0.0
H555 H 0.20674 0.55409 0.87242 0.0
H556 H 0.22341 0.52753 0.82612 0.0
H557 H 0.20976 0.49948 0.8061 0.0
H558 H 0.19418 0.497 0.82002 0.0
H559 H 0.20756 0.52511 0.83993 0.0
C560 C 0.53639 0.66164 0.36678 0.0
C561 C 0.54418 0.66296 0.35763 0.0
C562 C 0.55498 0.64609 0.36425 0.0
C563 C 0.5534 0.65526 0.35639 0.0
C564 C 0.54714 0.64489 0.37342 0.0
C565 C 0.53796 0.65258 0.37466 0.0
U566 U 0.51788 0.68767 0.35769 0.0
O567 O 0.49897 0.68946 0.35763 0.0
O568 O 0.50949 0.70073 0.36842 0.0
C569 C 0.49905 0.69741 0.36559 0.0
C570 C 0.52654 0.6695 0.36823 0.0
C571 C 0.49089 0.69567 0.37518 0.0
C572 C 0.48589 0.68765 0.39392 0.0
C573 C 0.49377 0.68897 0.38486 0.0
C574 C 0.47215 0.69958 0.38363 0.0
C575 C 0.47497 0.69294 0.39342 0.0
C576 C 0.48003 0.70092 0.37462 0.0
C577 C 0.52635 0.70541 0.33079 0.0
C578 C 0.51663 0.72286 0.32428 0.0
C579 C 0.53209 0.71479 0.31293 0.0
C580 C 0.5334 0.70591 0.32103 0.0
C581 C 0.52369 0.72339 0.31443 0.0
C582 C 0.51793 0.71393 0.33238 0.0
C583 C 0.52802 0.69595 0.33916 0.0
O584 O 0.52909 0.68013 0.37105 0.0
O585 O 0.51847 0.66889 0.36033 0.0
O586 O 0.52031 0.68767 0.33891 0.0
O587 O 0.53082 0.699 0.34965 0.0
H588 H 0.54308 0.6699 0.35144 0.0
H589 H 0.55918 0.65638 0.34916 0.0
H590 H 0.54817 0.63806 0.37975 0.0
H591 H 0.53206 0.65145 0.3818 0.0
H592 H 0.48831 0.68238 0.40126 0.0
H593 H 0.5021 0.6848 0.38543 0.0
H594 H 0.46391 0.70391 0.38301 0.0
H595 H 0.47766 0.70614 0.36723 0.0
H596 H 0.51 0.72927 0.32565 0.0
H597 H 0.5378 0.71501 0.30557 0.0
H598 H 0.53997 0.69944 0.31967 0.0
H599 H 0.51239 0.71366 0.33986 0.0
C600 C 0.32099 1.01212 0.83789 0.0
C601 C 0.32195 0.02146 0.83021 0.0
C602 C 0.30513 1.01469 0.81956 0.0
C603 C 0.31409 0.02273 0.8211 0.0
C604 C 0.30432 1.00533 0.82728 0.0
C605 C 0.31216 1.00407 0.83633 0.0
U606 U 0.34748 0.02056 0.85603 0.0
O607 O 0.34947 0.0203 0.87487 0.0
O608 O 0.36043 1.00933 0.86421 0.0
C609 C 0.35729 1.01212 0.87468 0.0
C610 C 0.32902 1.01056 0.8476 0.0
C611 C 0.3555 1.00245 0.88278 0.0
C612 C 0.34664 0.98414 0.88802 0.0
C613 C 0.34799 0.99334 0.88023 0.0
C614 C 0.36018 0.99313 0.90099 0.0
C615 C 0.35273 0.98392 0.8985 0.0
C616 C 0.36154 1.00228 0.8932 0.0
C617 C 0.36592 0.04687 0.84761 0.0
C618 C 0.38112 0.05496 0.85949 0.0
C619 C 0.37831 0.06202 0.84004 0.0
C620 C 0.36918 0.0543 0.83863 0.0
C621 C 0.3844 0.06248 0.85049 0.0
C622 C 0.37198 0.04721 0.85805 0.0
C623 C 0.35616 0.03894 0.84589 0.0
O624 O 0.33958 1.00749 0.84493 0.0
O625 O 0.32863 0.01848 0.85558 0.0
O626 O 0.34791 0.03937 0.85362 0.0
O627 O 0.35888 0.02838 0.84298 0.0
H628 H 0.32873 0.02778 0.83128 0.0
H629 H 0.31493 0.0301 0.81539 0.0
H630 H 0.29769 0.99886 0.82626 0.0
H631 H 0.31132 0.99677 0.84215 0.0
H632 H 0.34074 0.97726 0.88587 0.0
H633 H 0.34321 0.99334 0.87223 0.0
H634 H 0.36513 0.99319 0.90888 0.0
H635 H 0.3674 1.00922 0.8953 0.0
H636 H 0.38569 0.05499 0.8676 0.0
H637 H 0.38047 0.06777 0.83299 0.0
H638 H 0.36459 0.05419 0.83052 0.0
H639 H 0.36962 0.04149 0.86508 0.0
C640 C 1.01126 0.7035 0.21808 0.0
C641 C 0.0168 0.71375 0.21473 0.0
C642 C 1.01298 0.7221 0.23356 0.0
C643 C 0.01765 0.72297 0.2224 0.0
C644 C 1.0077 0.71168 0.23691 0.0
C645 C 1.00684 0.70251 0.22924 0.0
U646 U 0.01922 0.68572 0.19132 0.0
O647 O 1.00772 0.67777 0.1786 0.0
O648 O 0.01907 0.66691 0.18918 0.0
C649 C 1.0107 0.66723 0.18156 0.0
C650 C 1.00964 0.69387 0.21005 0.0
C651 C 1.00114 0.65909 0.18351 0.0
C652 C 0.98454 0.65237 0.19445 0.0
C653 C 0.99358 0.66025 0.19284 0.0
C654 C 0.99056 0.64214 0.17743 0.0
C655 C 0.98293 0.64319 0.18677 0.0
C656 C 0.99956 0.65 0.17584 0.0
C657 C 0.04507 0.69462 0.17244 0.0
C658 C 0.05211 0.68368 0.15613 0.0
C659 C 0.06083 0.70201 0.16076 0.0
C660 C 0.05326 0.70316 0.17003 0.0
C661 C 0.06037 0.69226 0.15367 0.0
C662 C 0.04451 0.68486 0.16543 0.0
C663 C 0.0373 0.69607 0.18234 0.0
O664 O 1.00621 0.69663 0.19961 0.0
O665 O 0.01765 0.68587 0.21021 0.0
O666 O 0.03801 0.68814 0.19044 0.0
O667 O 0.02664 0.699 0.17989 0.0
H668 H 0.0203 0.71469 0.20614 0.0
H669 H 0.0217 0.73087 0.21949 0.0
H670 H 1.0042 0.71059 0.24548 0.0
H671 H 1.00259 0.69466 0.23202 0.0
H672 H 0.97891 0.65339 0.20179 0.0
H673 H 0.99468 0.66721 0.19887 0.0
H674 H 0.98949 0.63532 0.17124 0.0
H675 H 1.00529 0.649 0.16856 0.0
H676 H 0.05144 0.67612 0.1508 0.0
H677 H 0.06718 0.70869 0.15927 0.0
H678 H 0.05386 0.71073 0.17538 0.0
H679 H 0.03821 0.67818 0.16714 0.0
C680 C 0.31933 0.52842 0.70677 0.0
C681 C 0.321 0.51965 0.71499 0.0
C682 C 0.30353 0.52555 0.72509 0.0
C683 C 0.31318 0.51824 0.72409 0.0
C684 C 0.30198 0.53433 0.71682 0.0
C685 C 0.3098 0.53574 0.70777 0.0
U686 U 0.34588 0.52019 0.68871 0.0
O687 O 0.34793 0.52041 0.66988 0.0
O688 O 0.35881 0.53145 0.68056 0.0
C689 C 0.35572 0.52862 0.67009 0.0
C690 C 0.32734 0.5301 0.69707 0.0
C691 C 0.35394 0.53826 0.66194 0.0
C692 C 0.34537 0.55671 0.65671 0.0
C693 C 0.34668 0.54754 0.66454 0.0
C694 C 0.35844 0.54732 0.64356 0.0
C695 C 0.35125 0.55672 0.64612 0.0
C696 C 0.35976 0.5382 0.65139 0.0
C697 C 0.36439 0.49395 0.69727 0.0
C698 C 0.37958 0.48579 0.68545 0.0
C699 C 0.37685 0.47893 0.70498 0.0
C700 C 0.36769 0.48663 0.70632 0.0
C701 C 0.38292 0.47838 0.69452 0.0
C702 C 0.37041 0.49353 0.68682 0.0
C703 C 0.35459 0.50186 0.69893 0.0
O704 O 0.33787 0.53323 0.69976 0.0
O705 O 0.32702 0.5222 0.68907 0.0
O706 O 0.34638 0.50139 0.69116 0.0
O707 O 0.35726 0.51244 0.70183 0.0
H708 H 0.32831 0.5139 0.71434 0.0
H709 H 0.31458 0.51132 0.73023 0.0
H710 H 0.29478 0.54023 0.7174 0.0
H711 H 0.30839 0.54258 0.70153 0.0
H712 H 0.33966 0.56373 0.65891 0.0
H713 H 0.34206 0.54772 0.67263 0.0
H714 H 0.36323 0.54709 0.63558 0.0
H715 H 0.36542 0.53112 0.64924 0.0
H716 H 0.38413 0.48569 0.67733 0.0
H717 H 0.37906 0.47326 0.71209 0.0
H718 H 0.36313 0.48682 0.71444 0.0
H719 H 0.36801 0.49916 0.67974 0.0
C720 C 0.53638 0.8786 0.17901 0.0
C721 C 0.54228 0.87926 0.18952 0.0
C722 C 0.55502 0.89408 0.18158 0.0
C723 C 0.5515 0.88695 0.1908 0.0
C724 C 0.54908 0.89329 0.17106 0.0
C725 C 0.53987 0.88564 0.16981 0.0
U726 U 0.51758 0.85268 0.1879 0.0
O727 O 0.4987 0.85087 0.18751 0.0
O728 O 0.50946 0.83955 0.17702 0.0
C729 C 0.49895 0.84283 0.17964 0.0
C730 C 0.52651 0.87076 0.17745 0.0
C731 C 0.49096 0.84442 0.1699 0.0
C732 C 0.48462 0.85468 0.15269 0.0
C733 C 0.49244 0.85334 0.16181 0.0
C734 C 0.47383 0.83819 0.15966 0.0
C735 C 0.47518 0.84714 0.15153 0.0
C736 C 0.48164 0.83686 0.16874 0.0
C737 C 0.52537 0.83491 0.21496 0.0
C738 C 0.51748 0.81612 0.22006 0.0
C739 C 0.52909 0.82649 0.23381 0.0
C740 C 0.53044 0.8355 0.22587 0.0
C741 C 0.52265 0.81664 0.231 0.0
C742 C 0.5188 0.82519 0.21212 0.0
C743 C 0.52727 0.84441 0.20668 0.0
O744 O 0.52908 0.86011 0.17472 0.0
O745 O 0.51828 0.87144 0.18517 0.0
O746 O 0.51957 0.85271 0.20674 0.0
O747 O 0.53037 0.84142 0.19626 0.0
H748 H 0.53975 0.87385 0.19672 0.0
H749 H 0.55595 0.88723 0.19898 0.0
H750 H 0.55142 0.89874 0.16383 0.0
H751 H 0.5354 0.88527 0.16164 0.0
H752 H 0.48587 0.86173 0.14667 0.0
H753 H 0.49959 0.85928 0.16259 0.0
H754 H 0.4668 0.83211 0.15895 0.0
H755 H 0.48039 0.8299 0.17487 0.0
H756 H 0.51235 0.80873 0.21765 0.0
H757 H 0.53333 0.82713 0.24208 0.0
H758 H 0.53556 0.84292 0.22822 0.0
H759 H 0.51476 0.82458 0.20375 0.0
C760 C 0.1744 1.00499 0.66116 0.0
C761 C 0.18483 0.99888 0.66071 0.0
C762 C 0.17704 0.98645 0.64575 0.0
C763 C 0.18615 0.98972 0.65305 0.0
C764 C 0.16659 0.99259 0.64634 0.0
C765 C 0.1653 1.00175 0.65395 0.0
U766 U 0.18298 0.02313 0.68732 0.0
O767 O 0.18311 0.04198 0.68928 0.0
O768 O 0.17193 0.03134 0.70025 0.0
C769 C 0.17499 0.04181 0.69715 0.0
C770 C 0.17282 1.0148 0.66898 0.0
C771 C 0.16557 0.05021 0.69557 0.0
C772 C 0.14732 0.0562 0.68709 0.0
C773 C 0.15621 0.04807 0.68825 0.0
C774 C 0.15713 0.06867 0.70048 0.0
C775 C 0.14768 0.06662 0.69319 0.0
C776 C 0.16597 0.06055 0.70164 0.0
C777 C 0.20934 1.01409 0.70551 0.0
C778 C 0.21472 0.02241 0.72388 0.0
C779 C 0.22718 1.00838 0.71492 0.0
C780 C 0.2195 1.00758 0.7057 0.0
C781 C 0.22486 0.01572 0.7242 0.0
C782 C 0.20702 0.02159 0.71462 0.0
C783 C 0.20124 1.0127 0.69585 0.0
O784 O 0.16965 1.01217 0.67952 0.0
O785 O 0.1808 0.02282 0.66854 0.0
O786 O 0.2018 0.02057 0.68768 0.0
O787 O 0.19062 1.0099 0.69862 0.0
H788 H 0.19194 1.00121 0.66625 0.0
H789 H 0.19426 0.98511 0.65293 0.0
H790 H 0.15945 0.99044 0.64076 0.0
H791 H 0.1572 1.00638 0.65416 0.0
H792 H 0.14023 0.05438 0.68133 0.0
H793 H 0.15577 0.04013 0.68345 0.0
H794 H 0.15763 0.07649 0.70546 0.0
H795 H 0.1731 0.06234 0.70736 0.0
H796 H 0.2126 0.02808 0.73091 0.0
H797 H 0.23498 1.00326 0.71475 0.0
H798 H 0.22147 1.00179 0.69872 0.0
H799 H 0.19921 0.02671 0.71463 0.0
C800 C 0.82239 0.33711 0.03288 0.0
C801 C 0.82259 0.33062 0.02276 0.0
C802 C 0.80671 0.31871 0.02987 0.0
C803 C 0.81481 0.32152 0.02126 0.0
C804 C 0.80666 0.32522 0.04002 0.0
C805 C 0.81441 0.33431 0.04149 0.0
U806 U 0.84891 0.35541 0.02486 0.0
O807 O 0.85087 0.3743 0.02465 0.0
O808 O 0.86162 0.3637 0.03611 0.0
C809 C 0.85854 0.37416 0.03297 0.0
C810 C 0.83026 0.34692 0.03458 0.0
C811 C 0.85682 0.38258 0.04226 0.0
C812 C 0.85179 0.38747 0.06196 0.0
C813 C 0.85259 0.37934 0.05314 0.0
C814 C 0.85913 0.40219 0.04905 0.0
C815 C 0.85519 0.39898 0.06007 0.0
C816 C 0.85994 0.39408 0.04028 0.0
C817 C 0.86782 0.34669 0.9991 0.0
C818 C 0.88268 0.35861 0.99022 0.0
C819 C 0.88072 0.33862 0.98481 0.0
C820 C 0.87154 0.33737 0.99251 0.0
C821 C 0.8864 0.34926 0.98352 0.0
C822 C 0.87349 0.35733 0.99796 0.0
C823 C 0.85795 0.34512 1.00694 0.0
O824 O 0.84075 0.34432 0.03799 0.0
O825 O 0.83004 0.35496 0.02656 0.0
O826 O 0.84971 0.35287 1.00616 0.0
O827 O 0.86049 0.3423 0.0176 0.0
H828 H 0.82873 0.33263 0.01602 0.0
H829 H 0.81519 0.31662 1.01339 0.0
H830 H 0.80046 0.32344 0.04676 0.0
H831 H 0.8141 0.33925 0.04934 0.0
H832 H 0.84879 0.38466 0.07034 0.0
H833 H 0.8501 0.37051 0.05488 0.0
H834 H 0.8616 0.411 0.04718 0.0
H835 H 0.86317 0.39678 0.03194 0.0
H836 H 0.88693 0.36688 0.98955 0.0
H837 H 0.88323 0.33128 0.9797 0.0
H838 H 0.86726 0.3291 0.99324 0.0
H839 H 0.87078 0.36463 1.00301 0.0
C840 C 0.82235 0.20503 0.51451 0.0
C841 C 0.82234 0.21123 0.5248 0.0
C842 C 0.80676 0.22349 0.51759 0.0
C843 C 0.8146 0.22037 0.52634 0.0
C844 C 0.80692 0.21726 0.50727 0.0
C845 C 0.81463 0.20814 0.50576 0.0
U846 U 0.84846 0.18615 0.52267 0.0
O847 O 0.8501 0.16724 0.52247 0.0
O848 O 0.86123 0.17789 0.51145 0.0
C849 C 0.85789 0.16742 0.51427 0.0
C850 C 0.83015 0.19517 0.51275 0.0
C851 C 0.85604 0.15932 0.50473 0.0
C852 C 0.84999 0.15497 0.48519 0.0
C853 C 0.85126 0.16285 0.49417 0.0
C854 C 0.85807 0.13993 0.49728 0.0
C855 C 0.8534 0.1434 0.48663 0.0
C856 C 0.85938 0.1478 0.5062 0.0
C857 C 0.86681 0.19381 0.54921 0.0
C858 C 0.88568 0.18594 0.55399 0.0
C859 C 0.87535 0.19732 0.56795 0.0
C860 C 0.86628 0.19874 0.56015 0.0
C861 C 0.88521 0.19094 0.56498 0.0
C862 C 0.87655 0.18734 0.54619 0.0
C863 C 0.8572 0.19575 0.54111 0.0
O864 O 0.84075 0.19773 0.50967 0.0
O865 O 0.82964 0.18693 0.52055 0.0
O866 O 0.84883 0.18814 0.54149 0.0
O867 O 0.86005 0.1988 0.53058 0.0
H868 H 0.82828 0.20898 0.53165 0.0
H869 H 0.81481 0.22504 0.53435 0.0
H870 H 0.80091 0.21928 0.50041 0.0
H871 H 0.81448 0.20343 0.49776 0.0
H872 H 0.84625 0.15791 0.47715 0.0
H873 H 0.84857 0.1717 0.49286 0.0
H874 H 0.86095 0.13115 0.49866 0.0
H875 H 0.86312 0.1449 0.51426 0.0
H876 H 0.89307 0.18086 0.55146 0.0
H877 H 0.87474 0.20143 0.57624 0.0
H878 H 0.85885 0.20379 0.56263 0.0
H879 H 0.87712 0.18341 0.5378 0.0
C880 C 0.6562 0.36222 0.54323 0.0
C881 C 0.6552 0.35159 0.54899 0.0
C882 C 0.64025 0.35946 0.56144 0.0
C883 C 0.64727 0.35021 0.558 0.0
C884 C 0.64138 0.3701 0.55566 0.0
C885 C 0.64926 0.37145 0.54666 0.0
U886 U 0.68243 0.35359 0.52488 0.0
O887 O 0.68458 0.35438 0.5061 0.0
O888 O 0.69581 0.36467 0.51716 0.0
C889 C 0.69267 0.36228 0.5066 0.0
C890 C 0.66427 0.3639 0.53357 0.0
C891 C 0.69124 0.37223 0.49877 0.0
C892 C 0.68074 0.38919 0.49218 0.0
C893 C 0.68195 0.37988 0.49985 0.0
C894 C 0.69812 0.38331 0.48233 0.0
C895 C 0.6888 0.391 0.48328 0.0
C896 C 0.69931 0.37403 0.48999 0.0
C897 C 0.69986 0.32632 0.53263 0.0
C898 C 0.71868 0.32133 0.52489 0.0
C899 C 0.70809 0.30739 0.53632 0.0
C900 C 0.69912 0.31532 0.53761 0.0
C901 C 0.71804 0.3103 0.53002 0.0
C902 C 0.70967 0.32926 0.52618 0.0
C903 C 0.69039 0.33458 0.53446 0.0
O904 O 0.67491 0.36656 0.53637 0.0
O905 O 0.66367 0.35631 0.52528 0.0
O906 O 0.68221 0.33467 0.52664 0.0
O907 O 0.69342 0.34495 0.53774 0.0
H908 H 0.66052 0.34437 0.54649 0.0
H909 H 0.64673 0.34194 0.56234 0.0
H910 H 0.63602 0.37736 0.55795 0.0
H911 H 0.64989 0.37971 0.5423 0.0
H912 H 0.6734 0.39487 0.4931 0.0
H913 H 0.67561 0.37861 0.50658 0.0
H914 H 0.7046 0.38452 0.47573 0.0
H915 H 0.70657 0.36824 0.48905 0.0
H916 H 0.72624 0.32391 0.52006 0.0
H917 H 0.70717 0.29894 0.54021 0.0
H918 H 0.69159 0.31287 0.54257 0.0
H919 H 0.7104 0.33772 0.52224 0.0
C920 C 0.65602 0.18036 1.00325 0.0
C921 C 0.65512 0.19096 0.99743 0.0
C922 C 0.64032 0.18306 0.98479 0.0
C923 C 0.64732 0.19231 0.9883 0.0
C924 C 0.64136 0.17245 0.99064 0.0
C925 C 0.64912 0.17113 0.99976 0.0
U926 U 0.68196 0.18899 0.02204 0.0
O927 O 0.68369 0.18837 0.0409 0.0
O928 O 0.69509 0.17793 0.03017 0.0
C929 C 0.69173 0.18041 0.04065 0.0
C930 C 0.66391 0.17872 1.01308 0.0
C931 C 0.69008 0.17054 0.04854 0.0
C932 C 0.68185 0.1518 0.05323 0.0
C933 C 0.68312 0.16113 0.0456 0.0
C934 C 0.6944 0.16124 0.06685 0.0
C935 C 0.68749 0.15174 0.06397 0.0
C936 C 0.69567 0.17053 0.05921 0.0
C937 C 0.69968 0.2161 1.01438 0.0
C938 C 0.71833 0.22115 0.0225 0.0
C939 C 0.70809 0.23492 1.01053 0.0
C940 C 0.69912 0.22701 1.00917 0.0
C941 C 0.71787 0.23208 0.01714 0.0
C942 C 0.70931 0.21324 0.02114 0.0
C943 C 0.69021 0.20786 1.01245 0.0
O944 O 0.67458 0.17597 1.01051 0.0
O945 O 0.6632 0.18639 0.02128 0.0
O946 O 0.68188 0.20789 0.0201 0.0
O947 O 0.69327 0.19744 1.00935 0.0
H948 H 0.66042 0.19819 0.99997 0.0
H949 H 0.64685 0.20056 0.98391 0.0
H950 H 0.63602 0.16519 0.98831 0.0
H951 H 0.64966 0.16289 1.00418 0.0
H952 H 0.67637 0.14469 0.05078 0.0
H953 H 0.67868 0.161 0.0374 0.0
H954 H 0.699 0.16144 0.07495 0.0
H955 H 0.7011 0.1777 0.06163 0.0
H956 H 0.72575 0.21863 0.02757 0.0
H957 H 0.70731 0.2433 1.00646 0.0
H958 H 0.69173 0.22941 1.00397 0.0
H959 H 0.7099 0.20485 0.02525 0.0
C960 C 0.99857 0.30258 0.80245 0.0
C961 C 1.00828 0.30476 0.80935 0.0
C962 C 0.99922 0.29495 0.79324 0.0
C963 C 0.01625 0.27057 0.78193 0.0
H964 H 0.99968 0.2775 0.75377 0.0
C965 C 0.0192 0.24189 0.74122 0.0
C966 C 1.00892 0.24009 0.73506 0.0
C967 C 0.01963 0.24984 0.75022 0.0
C968 C 1.00427 0.27536 0.76161 0.0
H969 H 0.02632 0.30059 0.81186 0.0
H970 H 0.02749 0.28738 0.79566 0.0
H971 H 0.99962 0.29134 0.76935 0.0
H972 H 0.99092 0.24501 0.73392 0.0
H973 H 0.99167 0.2588 0.7495 0.0
H974 H 0.02085 0.25454 0.77416 0.0
C975 C 0.01933 0.29151 0.79747 0.0
C976 C 1.00424 0.28332 0.77056 0.0
C977 C 0.0187 0.29918 0.80669 0.0
C978 C 0.99906 0.24633 0.73827 0.0
C979 C 0.99948 0.25426 0.74723 0.0
C980 C 0.01629 0.26259 0.77295 0.0
C981 C 1.00959 0.28927 0.79064 0.0
C982 C 1.01012 0.28099 0.7809 0.0
C983 C 1.00979 0.25619 0.75329 0.0
C984 C 1.01019 0.26484 0.76271 0.0
H985 H 0.99044 0.30681 0.80414 0.0
H986 H 0.9915 0.29336 0.78827 0.0
H987 H 0.02077 0.26841 0.7898 0.0
H988 H 0.027 0.23734 0.73892 0.0
H989 H 0.02774 0.25117 0.75461 0.0
C990 C 0.73711 0.5058 0.30598 0.0
C991 C 0.73498 0.51557 0.31271 0.0
C992 C 0.74486 0.50627 0.29678 0.0
C993 C 0.76961 0.52287 0.28525 0.0
H994 H 0.76269 0.5063 0.25731 0.0
C995 C 0.79862 0.52532 0.24445 0.0
C996 C 0.80032 0.51501 0.23842 0.0
C997 C 0.79064 0.52586 0.25348 0.0
C998 C 0.76483 0.51088 0.26509 0.0
H999 H 0.73939 0.53355 0.31495 0.0
H1000 H 0.7528 0.53443 0.29877 0.0
H1001 H 0.7487 0.5065 0.2729 0.0
H1002 H 0.79521 0.49707 0.23752 0.0
H1003 H 0.78135 0.49803 0.25316 0.0
H1004 H 0.78579 0.52721 0.27742 0.0
C1005 C 0.74854 0.52635 0.3007 0.0
C1006 C 0.75679 0.511 0.27404 0.0
C1007 C 0.74074 0.52588 0.30991 0.0
C1008 C 0.79396 0.50523 0.24178 0.0
C1009 C 0.78599 0.50578 0.25077 0.0
C1010 C 0.77767 0.52276 0.27627 0.0
C1011 C 0.75071 0.51654 0.29403 0.0
C1012 C 0.75911 0.5169 0.2843 0.0
C1013 C 0.78415 0.51611 0.25669 0.0
C1014 C 0.77543 0.51666 0.26612 0.0
H1015 H 0.73274 0.49774 0.30778 0.0
H1016 H 0.7464 0.49851 0.29194 0.0
H1017 H 0.77176 0.5274 0.29306 0.0
H1018 H 0.80327 0.53305 0.24204 0.0
H1019 H 0.78937 0.534 0.25778 0.0
C1020 C 0.51 0.29637 0.73587 0.0
C1021 C 0.50934 0.30781 0.73968 0.0
C1022 C 0.51069 0.2872 0.74375 0.0
C1023 C 0.51761 0.28012 0.77423 0.0
H1024 H 0.49921 0.25292 0.76851 0.0
C1025 C 0.50998 0.24468 0.8089 0.0
C1026 C 0.50962 0.23316 0.8053 0.0
C1027 C 0.51059 0.25371 0.80084 0.0
C1028 C 0.50454 0.26037 0.77018 0.0
H1029 H 0.50925 0.31854 0.75484 0.0
H1030 H 0.51025 0.30258 0.76856 0.0
H1031 H 0.49921 0.26868 0.75456 0.0
H1032 H 0.51009 0.22212 0.79037 0.0
H1033 H 0.51118 0.23781 0.77637 0.0
H1034 H 0.52289 0.27182 0.7899 0.0
C1035 C 0.51031 0.30068 0.75946 0.0
C1036 C 0.50453 0.26943 0.76217 0.0
C1037 C 0.5096 0.30984 0.75159 0.0
C1038 C 0.51012 0.23089 0.79345 0.0
C1039 C 0.51074 0.23991 0.78541 0.0
C1040 C 0.51762 0.27105 0.78225 0.0
C1041 C 0.51076 0.28923 0.75566 0.0
C1042 C 0.51104 0.27945 0.76409 0.0
C1043 C 0.51087 0.25145 0.78898 0.0
C1044 C 0.51106 0.26106 0.78036 0.0
H1045 H 0.50973 0.29446 0.72678 0.0
H1046 H 0.51116 0.27851 0.7405 0.0
H1047 H 0.52286 0.28762 0.77593 0.0
H1048 H 0.50947 0.24676 0.81794 0.0
H1049 H 0.51053 0.26248 0.80392 0.0
C1050 C 0.80197 0.03518 0.29719 0.0
C1051 C 0.80245 0.02664 0.30583 0.0
C1052 C 0.79414 0.03433 0.28809 0.0
C1053 C 0.76666 0.02047 0.27979 0.0
H1054 H 0.77575 0.02992 0.24907 0.0
C1055 C 0.73657 1.01556 0.24011 0.0
C1056 C 0.73651 0.02467 0.23205 0.0
C1057 C 0.74465 1.01527 0.24907 0.0
C1058 C 0.77302 0.02735 0.25761 0.0
H1059 H 0.79502 1.01046 0.3116 0.0
H1060 H 0.78146 1.00889 0.29562 0.0
H1061 H 0.78983 0.03026 0.2646 0.0
H1062 H 0.74474 0.04083 0.22741 0.0
H1063 H 0.75877 0.04032 0.24293 0.0
H1064 H 0.74981 0.01764 0.27279 0.0
C1065 C 0.78709 0.01632 0.29595 0.0
C1066 C 0.78111 0.02754 0.26653 0.0
C1067 C 0.79496 0.01715 0.30505 0.0
C1068 C 0.74467 0.03354 0.23328 0.0
C1069 C 0.75274 0.03325 0.24221 0.0
C1070 C 0.75855 0.02028 0.27086 0.0
C1071 C 0.78654 0.02492 0.28737 0.0
C1072 C 0.77802 0.02421 0.27777 0.0
C1073 C 0.75289 0.02409 0.2502 0.0
C1074 C 0.7616 0.02383 0.25966 0.0
H1075 H 0.80768 0.04255 0.29743 0.0
H1076 H 0.7939 0.04117 0.28171 0.0
H1077 H 0.76392 0.01798 0.28836 0.0
H1078 H 0.73051 1.00852 0.23937 0.0
H1079 H 0.74458 1.00802 0.25499 0.0
C1080 C 0.24011 0.7332 0.02854 0.0
C1081 C 0.2343 0.73172 0.01804 0.0
C1082 C 0.24846 0.74182 0.02975 0.0
C1083 C 0.25904 0.76916 0.01656 0.0
H1084 H 0.28704 0.7619 0.0333 0.0
C1085 C 0.2991 0.79913 0.01614 0.0
C1086 C 0.30523 0.80036 0.02649 0.0
C1087 C 0.2902 0.79103 1.01522 0.0
C1088 C 0.27922 0.76413 0.02871 0.0
H1089 H 0.23254 0.73844 1.00068 0.0
H1090 H 0.2472 0.7533 1.00271 0.0
H1091 H 0.27198 0.74741 0.03161 0.0
H1092 H 0.30646 0.79422 0.04412 0.0
H1093 H 0.29105 0.78011 0.0425 0.0
H1094 H 0.26634 0.78588 1.01361 0.0
C1095 C 0.24526 0.74785 1.01005 0.0
C1096 C 0.27056 0.75581 0.02775 0.0
C1097 C 0.23694 0.73922 1.00884 0.0
C1098 C 0.30212 0.79337 0.03593 0.0
C1099 C 0.29325 0.78526 0.03501 0.0
C1100 C 0.26771 0.77749 0.01752 0.0
C1101 C 0.2512 0.74922 0.02049 0.0
C1102 C 0.26035 0.75819 0.02166 0.0
C1103 C 0.28721 0.78393 0.02462 0.0
C1104 C 0.27793 0.77509 0.02361 0.0
H1105 H 0.23839 0.72753 0.03578 0.0
H1106 H 0.25274 0.7427 0.03796 0.0
H1107 H 0.25123 0.77137 1.01195 0.0
H1108 H 0.30134 0.80425 1.00864 0.0
H1109 H 0.28584 0.79015 1.00704 0.0
C1110 C 0.30123 0.74579 0.52623 0.0
C1111 C 0.302 0.73819 0.51691 0.0
C1112 C 0.29218 0.75376 0.52691 0.0
C1113 C 0.26282 0.75987 0.51563 0.0
H1114 H 0.26932 0.7912 0.52484 0.0
C1115 C 0.2299 0.79652 0.50886 0.0
C1116 C 0.22865 0.80478 0.51754 0.0
C1117 C 0.23878 0.78838 0.50932 0.0
C1118 C 0.26732 0.78246 0.52239 0.0
H1119 H 0.29363 0.73285 0.50117 0.0
H1120 H 0.278 0.74679 0.50227 0.0
H1121 H 0.28479 0.77696 0.52479 0.0
H1122 H 0.23589 0.81089 0.53355 0.0
H1123 H 0.25142 0.7967 0.53434 0.0
H1124 H 0.24538 0.76536 0.51315 0.0
C1125 C 0.28434 0.74657 0.5091 0.0
C1126 C 0.2762 0.77427 0.52237 0.0
C1127 C 0.29339 0.73865 0.5084 0.0
C1128 C 0.23664 0.80475 0.52665 0.0
C1129 C 0.24555 0.7966 0.5271 0.0
C1130 C 0.25396 0.76804 0.51565 0.0
C1131 C 0.28363 0.75428 0.51834 0.0
C1132 C 0.27409 0.76289 0.51888 0.0
C1133 C 0.2467 0.78826 0.51847 0.0
C1134 C 0.2561 0.77948 0.51892 0.0
H1135 H 0.30775 0.74575 0.53289 0.0
H1136 H 0.29185 0.75948 0.53421 0.0
H1137 H 0.26082 0.75114 0.51311 0.0
H1138 H 0.22408 0.79641 0.50158 0.0
H1139 H 0.23952 0.78227 0.50239 0.0
C1140 C 0.02235 0.80518 0.29894 0.0
C1141 C 1.01237 0.80704 0.30554 0.0
C1142 C 0.02287 0.79607 0.29111 0.0
C1143 C 1.00389 0.77659 0.27452 0.0
H1144 H 0.03157 0.75834 0.27071 0.0
C1145 C 1.00378 0.7345 0.24863 0.0
C1146 C 1.01332 0.73204 0.24161 0.0
C1147 C 1.00401 0.74376 0.25623 0.0
C1148 C 0.02381 0.76344 0.27156 0.0
H1149 H 0.99532 0.80042 0.30942 0.0
H1150 H 0.99623 0.78461 0.29587 0.0
H1151 H 0.03142 0.77413 0.28444 0.0
H1152 H 0.03065 0.73749 0.23718 0.0
H1153 H 0.03097 0.7538 0.25031 0.0
H1154 H 0.99626 0.76594 0.26169 0.0
C1155 C 1.00357 0.79033 0.29651 0.0
C1156 C 0.02372 0.7725 0.27944 0.0
C1157 C 1.00305 0.79941 0.30431 0.0
C1158 C 0.0231 0.73916 0.24238 0.0
C1159 C 0.02334 0.74844 0.25001 0.0
C1160 C 1.00397 0.76756 0.26665 0.0
C1161 C 1.01343 0.7886 0.28971 0.0
C1162 C 1.01372 0.77914 0.2811 0.0
C1163 C 1.01377 0.75088 0.25702 0.0
C1164 C 1.0139 0.76078 0.26513 0.0
H1165 H 0.02965 0.81094 0.29958 0.0
H1166 H 0.03056 0.79507 0.28595 0.0
H1167 H 0.9961 0.78166 0.27537 0.0
H1168 H 0.99603 0.72932 0.24819 0.0
H1169 H 0.99653 0.74526 0.26158 0.0
C1170 C 0.2832 0.52541 0.73265 0.0
C1171 C 0.29508 0.52406 0.73467 0.0
C1172 C 0.27525 0.52436 0.74164 0.0
C1173 C 0.27162 0.51251 0.77115 0.0
H1174 H 0.2455 0.53332 0.77186 0.0
C1175 C 0.23273 0.50537 0.80157 0.0
C1176 C 0.22746 0.51506 0.80648 0.0
C1177 C 0.24137 0.50663 0.79326 0.0
C1178 C 0.2528 0.5275 0.77188 0.0
H1179 H 0.30787 0.52052 0.74783 0.0
H1180 H 0.29401 0.51869 0.76352 0.0
H1181 H 0.2598 0.53525 0.75665 0.0
H1182 H 0.2273 0.53373 0.8065 0.0
H1183 H 0.24252 0.53594 0.79218 0.0
H1184 H 0.26469 0.50488 0.78648 0.0
C1185 C 0.29082 0.52044 0.75493 0.0
C1186 C 0.26094 0.52852 0.76305 0.0
C1187 C 0.29878 0.52148 0.74592 0.0
C1188 C 0.23121 0.52607 0.80298 0.0
C1189 C 0.23986 0.52733 0.79466 0.0
C1190 C 0.26347 0.51149 0.77998 0.0
C1191 C 0.27895 0.52193 0.75292 0.0
C1192 C 0.27043 0.521 0.76252 0.0
C1193 C 0.245 0.51763 0.78962 0.0
C1194 C 0.25391 0.51894 0.78043 0.0
H1195 H 0.28 0.52718 0.72407 0.0
H1196 H 0.26617 0.52534 0.73971 0.0
H1197 H 0.27876 0.50651 0.77098 0.0
H1198 H 0.23019 0.49675 0.80415 0.0
H1199 H 0.24503 0.49895 0.78952 0.0
C1200 C 0.52242 0.79541 0.23577 0.0
C1201 C 0.52156 0.8069 0.23941 0.0
C1202 C 0.52196 0.78631 0.24373 0.0
C1203 C 0.51297 0.77881 0.27354 0.0
H1204 H 0.53453 0.75359 0.27001 0.0
C1205 C 0.52055 0.7443 0.3092 0.0
C1206 C 0.52242 0.73287 0.30576 0.0
C1207 C 0.51989 0.75324 0.30104 0.0
C1208 C 0.52834 0.76047 0.27106 0.0
H1209 H 0.51918 0.81774 0.2543 0.0
H1210 H 0.51854 0.8019 0.26817 0.0
H1211 H 0.53429 0.76921 0.25591 0.0
H1212 H 0.52461 0.72187 0.29095 0.0
H1213 H 0.52343 0.73739 0.27678 0.0
H1214 H 0.50706 0.77008 0.28874 0.0
C1215 C 0.51952 0.79991 0.25915 0.0
C1216 C 0.5282 0.76945 0.26295 0.0
C1217 C 0.52001 0.80902 0.25119 0.0
C1218 C 0.52339 0.73059 0.29394 0.0
C1219 C 0.52272 0.73951 0.2858 0.0
C1220 C 0.5131 0.76981 0.28166 0.0
C1221 C 0.52059 0.78843 0.25554 0.0
C1222 C 0.52053 0.77875 0.26409 0.0
C1223 C 0.52107 0.75098 0.28923 0.0
C1224 C 0.5208 0.76053 0.28054 0.0
H1225 H 0.52372 0.79345 0.22678 0.0
H1226 H 0.52268 0.77758 0.24062 0.0
H1227 H 0.50684 0.78574 0.27461 0.0
H1228 H 0.51991 0.7464 0.31822 0.0
H1229 H 0.51876 0.76197 0.30403 0.0
C1230 C 0.28495 1.01335 0.81171 0.0
C1231 C 0.29666 0.01596 0.80995 0.0
C1232 C 0.27706 1.01396 0.80263 0.0
C1233 C 0.27256 0.02606 0.77329 0.0
H1234 H 0.24993 1.00162 0.77114 0.0
C1235 C 0.23554 0.02668 0.73956 0.0
C1236 C 0.23291 0.01618 0.73421 0.0
C1237 C 0.24321 0.02704 0.74887 0.0
C1238 C 0.25622 1.00848 0.77155 0.0
H1239 H 0.30917 0.02145 0.7972 0.0
H1240 H 0.2954 0.02253 0.78135 0.0
H1241 H 0.26358 1.0016 0.78702 0.0
H1242 H 0.23617 0.99779 0.73469 0.0
H1243 H 0.24963 0.99844 0.75071 0.0
H1244 H 0.26532 0.03278 0.75766 0.0
C1245 C 0.2923 0.0201 0.7898 0.0
C1246 C 0.26398 1.00855 0.78076 0.0
C1247 C 0.30021 0.01948 0.7989 0.0
C1248 C 0.23809 1.00606 0.73848 0.0
C1249 C 0.24572 1.00641 0.74778 0.0
C1250 C 0.26476 0.026 0.76408 0.0
C1251 C 0.28064 0.01722 0.79152 0.0
C1252 C 0.27228 0.01732 0.78175 0.0
C1253 C 0.24839 0.01689 0.75311 0.0
C1254 C 0.25653 0.01718 0.76306 0.0
H1255 H 0.28185 1.01084 0.82015 0.0
H1256 H 0.26812 1.01191 0.80435 0.0
H1257 H 0.27876 0.033 0.77383 0.0
H1258 H 0.2318 0.03466 0.73645 0.0
H1259 H 0.24498 0.03525 0.75282 0.0
C1260 C 0.73096 0.24739 1.00892 0.0
C1261 C 0.72754 0.2405 0.01833 0.0
C1262 C 0.7398 0.2555 1.01005 0.0
C1263 C 0.76476 0.26345 0.02829 0.0
H1264 H 0.761 0.29336 1.01368 0.0
C1265 C 0.79528 0.30182 0.03747 0.0
C1266 C 0.79823 0.30919 0.02826 0.0
C1267 C 0.78699 0.29318 0.03611 0.0
C1268 C 0.76228 0.28501 0.01769 0.0
H1269 H 0.73085 0.23678 0.03633 0.0
H1270 H 0.7463 0.2509 0.03828 0.0
H1271 H 0.74599 0.27886 1.01167 0.0
H1272 H 0.79474 0.31312 1.01034 0.0
H1273 H 0.78046 0.29793 1.0079 0.0
H1274 H 0.78105 0.26963 0.03433 0.0
C1275 C 0.7422 0.24994 0.02998 0.0
C1276 C 0.75365 0.27668 0.01655 0.0
C1277 C 0.73333 0.24183 0.02886 0.0
C1278 C 0.79277 0.30756 0.0176 0.0
C1279 C 0.78447 0.29893 0.01624 0.0
C1280 C 0.7734 0.27179 0.02943 0.0
C1281 C 0.7455 0.25694 0.02061 0.0
C1282 C 0.75476 0.26579 0.02183 0.0
C1283 C 0.7814 0.29166 0.02549 0.0
C1284 C 0.77228 0.28269 0.02415 0.0
H1285 H 0.72688 0.24646 1.00061 0.0
H1286 H 0.74225 0.26057 1.00258 0.0
H1287 H 0.76599 0.25511 0.03234 0.0
H1288 H 0.79939 0.30272 0.04577 0.0
H1289 H 0.7848 0.28784 0.04346 0.0
C1290 C 0.73375 0.30072 0.5185 0.0
C1291 C 0.72769 0.30185 0.5289 0.0
C1292 C 0.74261 0.29259 0.51744 0.0
C1293 C 0.7536 0.26552 0.53057 0.0
H1294 H 0.78149 0.27285 0.51371 0.0
C1295 C 0.79258 0.23443 0.52979 0.0
C1296 C 0.7983 0.23304 0.51923 0.0
C1297 C 0.7843 0.24308 0.53115 0.0
C1298 C 0.77371 0.27061 0.51835 0.0
H1299 H 0.72655 0.29551 0.54647 0.0
H1300 H 0.74191 0.28137 0.5446 0.0
H1301 H 0.76645 0.28738 0.51564 0.0
H1302 H 0.79997 0.23996 0.50193 0.0
H1303 H 0.7854 0.25487 0.50424 0.0
H1304 H 0.76081 0.24873 0.53324 0.0
C1305 C 0.73967 0.28662 0.53718 0.0
C1306 C 0.76507 0.27895 0.51945 0.0
C1307 C 0.73084 0.29474 0.53825 0.0
C1308 C 0.79564 0.24067 0.51014 0.0
C1309 C 0.78737 0.24932 0.51151 0.0
C1310 C 0.76223 0.25717 0.52946 0.0
C1311 C 0.74565 0.28538 0.52675 0.0
C1312 C 0.7549 0.27652 0.52558 0.0
C1313 C 0.78151 0.2506 0.52201 0.0
C1314 C 0.77241 0.25959 0.52333 0.0
H1315 H 0.73148 0.30593 0.51108 0.0
H1316 H 0.74692 0.29179 0.50923 0.0
H1317 H 0.74581 0.26326 0.53519 0.0
H1318 H 0.79433 0.22866 0.53695 0.0
H1319 H 0.78008 0.24388 0.53941 0.0
C1320 C 0.12661 0.07194 0.69181 0.0
C1321 C 0.13825 0.07533 0.69214 0.0
C1322 C 0.11778 0.0802 0.69154 0.0
C1323 C 0.11219 0.11059 0.69903 0.0
H1324 H 0.08441 0.10677 0.68092 0.0
C1325 C 0.07278 0.14012 0.70506 0.0
C1326 C 0.06708 0.14415 0.69513 0.0
C1327 C 0.08112 0.13147 0.70439 0.0
C1328 C 0.09215 0.108 0.68598 0.0
H1329 H 0.14968 0.0901 0.69185 0.0
H1330 H 0.13436 0.10442 0.69139 0.0
H1331 H 0.09973 0.09235 0.67991 0.0
H1332 H 0.06564 0.14201 0.67669 0.0
H1333 H 0.08019 0.12686 0.67552 0.0
H1334 H 0.10473 0.12628 0.705 0.0
C1335 C 0.13202 0.09539 0.6916 0.0
C1336 C 0.10088 0.09967 0.68548 0.0
C1337 C 0.14082 0.08717 0.69186 0.0
C1338 C 0.06976 0.13907 0.68453 0.0
C1339 C 0.07812 0.13037 0.68386 0.0
C1340 C 0.10346 0.11887 0.69956 0.0
C1341 C 0.12037 0.09203 0.69159 0.0
C1342 C 0.11103 0.10087 0.692 0.0
C1343 C 0.08401 0.12656 0.69377 0.0
C1344 C 0.09331 0.11769 0.69306 0.0
H1345 H 0.12429 0.06292 0.69213 0.0
H1346 H 0.10891 0.07729 0.69165 0.0
H1347 H 0.1198 0.11175 0.70428 0.0
H1348 H 0.07076 0.14363 0.71341 0.0
H1349 H 0.08529 0.12858 0.71223 0.0
C1350 C 0.96233 0.6384 0.19192 0.0
C1351 C 0.97333 0.63475 0.18839 0.0
C1352 C 0.95327 0.63049 0.19311 0.0
C1353 C 0.94391 0.60146 0.18383 0.0
H1354 H 0.92231 0.60401 0.20908 0.0
C1355 C 0.90213 0.57413 0.18647 0.0
C1356 C 0.89883 0.56987 0.19734 0.0
C1357 C 0.91125 0.58197 0.18536 0.0
C1358 C 0.92831 0.60311 0.20201 0.0
H1359 H 0.98345 0.61981 0.1837 0.0
H1360 H 0.9677 0.60608 0.18577 0.0
H1361 H 0.93818 0.61768 0.20741 0.0
H1362 H 0.90284 0.57033 0.21554 0.0
H1363 H 0.9187 0.58395 0.21362 0.0
H1364 H 0.93416 0.58677 0.17855 0.0
C1365 C 0.966 0.61509 0.1874 0.0
C1366 C 0.93734 0.61105 0.20098 0.0
C1367 C 0.97505 0.62298 0.18622 0.0
C1368 C 0.90499 0.57357 0.20706 0.0
C1369 C 0.91409 0.58141 0.20595 0.0
C1370 C 0.93486 0.59354 0.18485 0.0
C1371 C 0.95497 0.61874 0.19081 0.0
C1372 C 0.94529 0.61032 0.19189 0.0
C1373 C 0.91732 0.58576 0.1951 0.0
C1374 C 0.92695 0.59424 0.19397 0.0
H1375 H 0.96064 0.64741 0.19352 0.0
H1376 H 0.94487 0.63365 0.1956 0.0
H1377 H 0.94978 0.6007 0.17664 0.0
H1378 H 0.8975 0.57161 0.17882 0.0
H1379 H 0.91339 0.58524 0.17689 0.0
C1380 C 0.46395 0.40951 0.69428 0.0
C1381 C 0.46529 0.40333 0.68403 0.0
C1382 C 0.45502 0.41754 0.69547 0.0
C1383 C 0.4267 0.42617 0.6832 0.0
H1384 H 0.43307 0.4552 0.6981 0.0
C1385 C 0.39393 0.46383 0.68287 0.0
C1386 C 0.3926 0.47004 0.69312 0.0
C1387 C 0.40281 0.45575 0.68172 0.0
C1388 C 0.43109 0.44709 0.69402 0.0
H1389 H 0.45804 0.40058 0.66709 0.0
H1390 H 0.44263 0.41467 0.66908 0.0
H1391 H 0.44833 0.44089 0.69635 0.0
H1392 H 0.39981 0.47275 0.71008 0.0
H1393 H 0.41515 0.45858 0.70813 0.0
H1394 H 0.40946 0.43237 0.68086 0.0
C1395 C 0.44843 0.41328 0.67625 0.0
C1396 C 0.43986 0.43887 0.69303 0.0
C1397 C 0.45737 0.40528 0.67506 0.0
C1398 C 0.40048 0.46805 0.70211 0.0
C1399 C 0.40937 0.46 0.70095 0.0
C1400 C 0.41793 0.43439 0.68419 0.0
C1401 C 0.44717 0.41957 0.68645 0.0
C1402 C 0.43779 0.42829 0.6876 0.0
C1403 C 0.41063 0.4537 0.69076 0.0
C1404 C 0.42001 0.44497 0.68962 0.0
H1405 H 0.46993 0.40832 0.70134 0.0
H1406 H 0.45425 0.42212 0.70349 0.0
H1407 H 0.42473 0.41806 0.67912 0.0
H1408 H 0.38797 0.46506 0.6758 0.0
H1409 H 0.40359 0.45116 0.6737 0.0
C1410 C 0.62935 0.96758 0.20005 0.0
C1411 C 0.63737 0.9693 0.19113 0.0
C1412 C 0.62043 0.95954 0.19896 0.0
C1413 C 0.61204 0.93352 0.18275 0.0
H1414 H 0.58152 0.94035 0.19437 0.0
C1415 C 0.57273 0.90413 0.17396 0.0
C1416 C 0.56473 0.90241 0.1829 0.0
C1417 C 0.58163 0.91218 0.17502 0.0
C1418 C 0.59002 0.93823 0.1912 0.0
H1419 H 0.64221 0.96385 0.17402 0.0
H1420 H 0.62656 0.94999 0.17204 0.0
H1421 H 0.59676 0.95469 0.19593 0.0
H1422 H 0.55991 0.90786 0.20001 0.0
H1423 H 0.57554 0.92176 0.20194 0.0
H1424 H 0.6053 0.91706 0.17802 0.0
C1425 C 0.62724 0.95478 0.17995 0.0
C1426 C 0.59878 0.94648 0.19209 0.0
C1427 C 0.63615 0.96284 0.18103 0.0
C1428 C 0.56595 0.90888 0.19299 0.0
C1429 C 0.57485 0.91696 0.19404 0.0
C1430 C 0.60329 0.92527 0.18186 0.0
C1431 C 0.61929 0.95298 0.18892 0.0
C1432 C 0.60991 0.94423 0.18787 0.0
C1433 C 0.58278 0.91876 0.18505 0.0
C1434 C 0.59215 0.92751 0.18608 0.0
H1435 H 0.62993 0.97248 0.2079 0.0
H1436 H 0.61455 0.95833 0.20609 0.0
H1437 H 0.62055 0.9314 0.17958 0.0
H1438 H 0.57214 0.89921 0.16612 0.0
H1439 H 0.5875 0.91339 0.16788 0.0
C1440 C 0.06693 0.40789 0.84384 0.0
C1441 C 0.06467 0.40015 0.85294 0.0
C1442 C 0.075 0.41675 0.84509 0.0
C1443 C 0.10027 0.42537 0.86252 0.0
H1444 H 0.09429 0.45559 0.84938 0.0
C1445 C 0.12962 0.46464 0.87147 0.0
C1446 C 0.13185 0.47235 0.86233 0.0
C1447 C 0.12153 0.45579 0.87029 0.0
C1448 C 0.09617 0.44716 0.85298 0.0
H1449 H 0.0692 0.39572 0.87051 0.0
H1450 H 0.08313 0.41128 0.87276 0.0
H1451 H 0.0799 0.44043 0.84756 0.0
H1452 H 0.12724 0.47671 0.84476 0.0
H1453 H 0.11327 0.46117 0.84265 0.0
H1454 H 0.11655 0.4321 0.86794 0.0
C1455 C 0.07874 0.41042 0.8646 0.0
C1456 C 0.0879 0.43846 0.85195 0.0
C1457 C 0.07063 0.40157 0.86336 0.0
C1458 C 0.12583 0.47089 0.85195 0.0
C1459 C 0.11771 0.46205 0.85078 0.0
C1460 C 0.10854 0.43408 0.86356 0.0
C1461 C 0.08106 0.41811 0.85546 0.0
C1462 C 0.08983 0.42744 0.85669 0.0
C1463 C 0.11541 0.4544 0.85996 0.0
C1464 C 0.10662 0.44509 0.8588 0.0
H1465 H 0.06241 0.40715 0.83574 0.0
H1466 H 0.07662 0.42242 0.83783 0.0
H1467 H 0.10215 0.41695 0.86612 0.0
H1468 H 0.13418 0.46541 0.87955 0.0
H1469 H 0.11993 0.45015 0.87758 0.0
C1470 C 0.57572 0.64153 0.35959 0.0
C1471 C 0.56469 0.63776 0.36293 0.0
C1472 C 0.58486 0.63371 0.35861 0.0
C1473 C 0.59424 0.60453 0.36805 0.0
H1474 H 0.61615 0.60762 0.34308 0.0
C1475 C 0.63585 0.57695 0.36569 0.0
C1476 C 0.63922 0.57294 0.35482 0.0
C1477 C 0.62682 0.58488 0.36676 0.0
C1478 C 0.61007 0.60658 0.35006 0.0
H1479 H 0.55461 0.62268 0.36754 0.0
H1480 H 0.57049 0.6091 0.36582 0.0
H1481 H 0.60026 0.62126 0.34459 0.0
H1482 H 0.63543 0.57394 0.33658 0.0
H1483 H 0.61972 0.5877 0.33844 0.0
H1484 H 0.60391 0.58971 0.37339 0.0
C1485 C 0.57215 0.61814 0.36417 0.0
C1486 C 0.60102 0.61449 0.35101 0.0
C1487 C 0.56303 0.62594 0.36516 0.0
C1488 C 0.63323 0.57699 0.34507 0.0
C1489 C 0.62421 0.58491 0.34614 0.0
C1490 C 0.60329 0.59662 0.36711 0.0
C1491 C 0.58321 0.62191 0.36093 0.0
C1492 C 0.59295 0.61356 0.35999 0.0
C1493 C 0.6209 0.589 0.35699 0.0
C1494 C 0.61132 0.59751 0.35808 0.0
H1495 H 0.57737 0.65058 0.35796 0.0
H1496 H 0.59328 0.63696 0.35624 0.0
H1497 H 0.58828 0.60361 0.37516 0.0
H1498 H 0.64036 0.57415 0.37338 0.0
H1499 H 0.62462 0.58794 0.37524 0.0
C1500 C 0.46504 0.13177 0.85117 0.0
C1501 C 0.46638 0.13787 0.86148 0.0
C1502 C 0.45617 0.12369 0.84995 0.0
C1503 C 0.42797 0.11476 0.86226 0.0
H1504 H 0.43444 0.08593 0.84702 0.0
C1505 C 0.3954 0.07693 0.86227 0.0
C1506 C 0.39406 0.07083 0.85196 0.0
C1507 C 0.40425 0.08503 0.86349 0.0
C1508 C 0.43244 0.09398 0.85119 0.0
H1509 H 0.45921 0.1404 0.87848 0.0
H1510 H 0.4439 0.12621 0.87642 0.0
H1511 H 0.44963 0.1003 0.84886 0.0
H1512 H 0.40122 0.06834 0.83495 0.0
H1513 H 0.41651 0.08255 0.83701 0.0
H1514 H 0.41078 0.10844 0.86459 0.0
C1515 C 0.44965 0.12772 0.86924 0.0
C1516 C 0.44116 0.10224 0.85223 0.0
C1517 C 0.45853 0.13577 0.87047 0.0
C1518 C 0.4019 0.07296 0.84297 0.0
C1519 C 0.41076 0.08103 0.84419 0.0
C1520 C 0.41925 0.1065 0.86121 0.0
C1521 C 0.44838 0.12151 0.85899 0.0
C1522 C 0.43905 0.11275 0.85778 0.0
C1523 C 0.41203 0.08723 0.85445 0.0
C1524 C 0.42136 0.09599 0.85566 0.0
H1525 H 0.47097 0.13308 0.8441 0.0
H1526 H 0.45538 0.11918 0.84188 0.0
H1527 H 0.42597 0.12281 0.86643 0.0
H1528 H 0.38948 0.0756 0.86935 0.0
H1529 H 0.40504 0.08954 0.87156 0.0
C1530 C 0.90818 0.97202 0.34111 0.0
C1531 C 0.89966 0.97303 0.34965 0.0
C1532 C 0.91705 0.96392 0.34222 0.0
C1533 C 0.9246 0.93668 0.35732 0.0
H1534 H 0.95568 0.94427 0.34768 0.0
C1535 C 0.96345 0.9066 0.36645 0.0
C1536 C 0.97188 0.9055 0.35783 0.0
C1537 C 0.9546 0.91474 0.36538 0.0
C1538 C 0.94702 0.94195 0.35028 0.0
H1539 H 0.89389 0.96628 0.3661 0.0
H1540 H 0.90948 0.9523 0.36814 0.0
H1541 H 0.94053 0.95875 0.34617 0.0
H1542 H 0.97753 0.91215 0.3413 0.0
H1543 H 0.96201 0.92622 0.33935 0.0
H1544 H 0.9311 0.91987 0.36143 0.0
C1545 C 0.90922 0.95769 0.3605 0.0
C1546 C 0.93832 0.95027 0.34943 0.0
C1547 C 0.90035 0.96581 0.3594 0.0
C1548 C 0.97114 0.91268 0.34806 0.0
C1549 C 0.96231 0.92086 0.34701 0.0
C1550 C 0.9333 0.92835 0.35818 0.0
C1551 C 0.91766 0.95659 0.3519 0.0
C1552 C 0.92698 0.94775 0.35293 0.0
C1553 C 0.95394 0.92203 0.35567 0.0
C1554 C 0.94464 0.93087 0.35467 0.0
H1555 H 0.90801 0.97751 0.33354 0.0
H1556 H 0.92333 0.96327 0.33537 0.0
H1557 H 0.91594 0.93435 0.35991 0.0
H1558 H 0.96366 0.90113 0.37403 0.0
H1559 H 0.94839 0.91545 0.37227 0.0
C1560 C 0.68193 0.06376 0.1241 0.0
C1561 C 0.68094 0.06569 0.13598 0.0
C1562 C 0.68272 0.073 0.11632 0.0
C1563 C 0.68961 0.1042 0.11442 0.0
H1564 H 0.67299 0.1026 0.08556 0.0
C1565 C 0.68527 0.14366 0.08403 0.0
C1566 C 0.68628 0.14181 0.07213 0.0
C1567 C 0.68453 0.13437 0.09174 0.0
C1568 C 0.6778 0.10314 0.09351 0.0
H1569 H 0.67998 0.07895 0.14894 0.0
H1570 H 0.68135 0.09504 0.1354 0.0
H1571 H 0.67206 0.08649 0.09911 0.0
H1572 H 0.68731 0.12864 0.05908 0.0
H1573 H 0.68603 0.11245 0.07253 0.0
H1574 H 0.69535 0.12085 0.10882 0.0
C1575 C 0.68168 0.08637 0.13209 0.0
C1576 C 0.67727 0.09389 0.1013 0.0
C1577 C 0.6809 0.07712 0.13988 0.0
C1578 C 0.68639 0.1304 0.06816 0.0
C1579 C 0.68566 0.1211 0.07589 0.0
C1580 C 0.69014 0.11345 0.10663 0.0
C1581 C 0.68254 0.08443 0.1202 0.0
C1582 C 0.68316 0.09429 0.11187 0.0
C1583 C 0.68479 0.12296 0.08779 0.0
C1584 C 0.68423 0.11306 0.09607 0.0
H1585 H 0.68218 0.05508 0.12079 0.0
H1586 H 0.68359 0.07116 0.10725 0.0
H1587 H 0.69442 0.10475 0.12237 0.0
H1588 H 0.68495 0.15231 0.08739 0.0
H1589 H 0.68365 0.13615 0.10082 0.0
C1590 C 0.9718 0.18667 0.62647 0.0
C1591 C 0.96967 0.18501 0.63827 0.0
C1592 C 0.9627 0.18735 0.61859 0.0
C1593 C 0.93196 0.17946 0.61496 0.0
H1594 H 0.93312 0.20132 0.5896 0.0
C1595 C 0.89285 0.18794 0.58507 0.0
C1596 C 0.89497 0.18969 0.57328 0.0
C1597 C 0.90196 0.18719 0.59293 0.0
C1598 C 0.93271 0.19506 0.59654 0.0
H1599 H 0.95619 0.18278 0.651 0.0
H1600 H 0.94031 0.18414 0.63729 0.0
H1601 H 0.94887 0.2006 0.60346 0.0
H1602 H 0.90843 0.19197 0.56054 0.0
H1603 H 0.92433 0.19047 0.57421 0.0
H1604 H 0.9158 0.17392 0.60804 0.0
C1605 C 0.94905 0.1848 0.63411 0.0
C1606 C 0.94176 0.19466 0.60451 0.0
C1607 C 0.95817 0.18416 0.642 0.0
C1608 C 0.90647 0.19052 0.56954 0.0
C1609 C 0.91559 0.1898 0.57741 0.0
C1610 C 0.92292 0.17986 0.60699 0.0
C1611 C 0.9512 0.18636 0.62229 0.0
C1612 C 0.94151 0.18685 0.61384 0.0
C1613 C 0.91346 0.18819 0.58922 0.0
C1614 C 0.92316 0.18767 0.59766 0.0
H1615 H 0.98054 0.18749 0.6233 0.0
H1616 H 0.9647 0.18845 0.60956 0.0
H1617 H 0.93155 0.17321 0.62191 0.0
H1618 H 0.88412 0.18713 0.58826 0.0
H1619 H 0.89997 0.18605 0.60196 0.0
C1620 C 0.86493 0.4757 0.13136 0.0
C1621 C 0.85613 0.47687 0.13958 0.0
C1622 C 0.86438 0.46713 0.12301 0.0
C1623 C 0.85066 0.43923 0.11603 0.0
H1624 H 0.86024 0.44713 0.08503 0.0
C1625 C 0.84582 0.40786 0.07751 0.0
C1626 C 0.85494 0.40759 0.06954 0.0
C1627 C 0.84557 0.41614 0.08621 0.0
C1628 C 0.85765 0.44473 0.09366 0.0
H1629 H 0.83984 0.46977 0.14543 0.0
H1630 H 0.83891 0.45478 0.13086 0.0
H1631 H 0.8605 0.46178 0.09984 0.0
H1632 H 0.87116 0.41562 0.06482 0.0
H1633 H 0.8707 0.42999 0.07987 0.0
H1634 H 0.84785 0.42214 0.1098 0.0
C1635 C 0.8463 0.46047 0.13095 0.0
C1636 C 0.8578 0.45314 0.10217 0.0
C1637 C 0.84684 0.46908 0.13932 0.0
C1638 C 0.86386 0.41571 0.07061 0.0
C1639 C 0.8636 0.42397 0.07928 0.0
C1640 C 0.85052 0.43079 0.10749 0.0
C1641 C 0.85503 0.45945 0.12263 0.0
C1642 C 0.85442 0.4505 0.1135 0.0
C1643 C 0.85442 0.42437 0.08715 0.0
C1644 C 0.85412 0.4334 0.09621 0.0
H1645 H 0.87236 0.48134 0.13143 0.0
H1646 H 0.87139 0.46646 0.11691 0.0
H1647 H 0.8481 0.43686 0.12468 0.0
H1648 H 0.83875 0.40181 0.07689 0.0
H1649 H 0.8383 0.41624 0.09205 0.0
C1650 C 0.56471 0.34071 0.63385 0.0
C1651 C 0.56303 0.34956 0.64186 0.0
C1652 C 0.57295 0.34183 0.62512 0.0
C1653 C 0.59953 0.35782 0.61743 0.0
H1654 H 0.59312 0.34674 0.58675 0.0
C1655 C 0.62998 0.36689 0.57896 0.0
C1656 C 0.63169 0.35806 0.57094 0.0
C1657 C 0.62171 0.36577 0.58765 0.0
C1658 C 0.59512 0.34975 0.5953 0.0
H1659 H 0.56873 0.36656 0.64688 0.0
H1660 H 0.58296 0.36859 0.63156 0.0
H1661 H 0.57839 0.34514 0.60163 0.0
H1662 H 0.62597 0.34108 0.56585 0.0
H1663 H 0.61168 0.33904 0.58112 0.0
H1664 H 0.61625 0.36243 0.61111 0.0
C1665 C 0.57799 0.36072 0.6321 0.0
C1666 C 0.58665 0.34884 0.60385 0.0
C1667 C 0.56972 0.35961 0.64082 0.0
C1668 C 0.62497 0.34802 0.57193 0.0
C1669 C 0.61667 0.3469 0.58061 0.0
C1670 C 0.60799 0.35873 0.60889 0.0
C1671 C 0.57976 0.35181 0.62417 0.0
C1672 C 0.58874 0.35287 0.61503 0.0
C1673 C 0.61489 0.35579 0.58856 0.0
C1674 C 0.6059 0.35471 0.5977 0.0
H1675 H 0.55963 0.3329 0.6343 0.0
H1676 H 0.57413 0.33475 0.61924 0.0
H1677 H 0.60153 0.36084 0.62598 0.0
H1678 H 0.63508 0.3747 0.57856 0.0
H1679 H 0.62052 0.37283 0.59354 0.0
C1680 C 0.67845 0.47808 0.4225 0.0
C1681 C 0.68095 0.47652 0.41078 0.0
C1682 C 0.67935 0.46891 0.43034 0.0
C1683 C 0.69263 0.44009 0.43441 0.0
H1684 H 0.6693 0.43651 0.45803 0.0
C1685 C 0.69008 0.39935 0.46325 0.0
C1686 C 0.68754 0.40081 0.47497 0.0
C1687 C 0.68921 0.40858 0.45548 0.0
C1688 C 0.67597 0.43745 0.45158 0.0
H1689 H 0.68634 0.46398 0.39818 0.0
H1690 H 0.68792 0.44801 0.41185 0.0
H1691 H 0.66806 0.45255 0.44442 0.0
H1692 H 0.68209 0.41323 0.48767 0.0
H1693 H 0.68056 0.42933 0.47412 0.0
H1694 H 0.70055 0.42499 0.44157 0.0
C1695 C 0.6854 0.45638 0.415 0.0
C1696 C 0.67526 0.44666 0.44376 0.0
C1697 C 0.6845 0.46555 0.40715 0.0
C1698 C 0.68397 0.41174 0.47869 0.0
C1699 C 0.6831 0.42098 0.47091 0.0
C1700 C 0.69335 0.43088 0.44223 0.0
C1701 C 0.68278 0.45792 0.4267 0.0
C1702 C 0.68357 0.44811 0.43506 0.0
C1703 C 0.68576 0.41954 0.45921 0.0
C1704 C 0.68502 0.42942 0.45092 0.0
H1705 H 0.6759 0.48644 0.42566 0.0
H1706 H 0.67747 0.47049 0.43931 0.0
H1707 H 0.69929 0.44103 0.42796 0.0
H1708 H 0.69264 0.39102 0.46003 0.0
H1709 H 0.69112 0.40708 0.44651 0.0
C1710 C 0.57028 0.18248 0.90495 0.0
C1711 C 0.56359 0.19253 0.90379 0.0
C1712 C 0.57852 0.18145 0.9137 0.0
C1713 C 0.58708 0.19357 0.94189 0.0
H1714 H 0.61669 0.17985 0.93492 0.0
C1715 C 0.62519 0.19451 0.97409 0.0
C1716 C 0.63187 0.18445 0.97519 0.0
C1717 C 0.61696 0.19559 0.96533 0.0
C1718 C 0.60843 0.1836 0.93706 0.0
H1719 H 0.56019 0.20927 0.91117 0.0
H1720 H 0.57464 0.20755 0.92629 0.0
H1721 H 0.60205 0.18136 0.91995 0.0
H1722 H 0.63528 0.16776 0.9677 0.0
H1723 H 0.62085 0.16958 0.95257 0.0
H1724 H 0.59346 0.1958 0.959 0.0
C1725 C 0.57348 0.20042 0.92048 0.0
C1726 C 0.60001 0.18445 0.92846 0.0
C1727 C 0.56527 0.20145 0.91171 0.0
C1728 C 0.63021 0.17558 0.9672 0.0
C1729 C 0.622 0.17667 0.95843 0.0
C1730 C 0.5955 0.19272 0.95049 0.0
C1731 C 0.58027 0.19043 0.92156 0.0
C1732 C 0.58922 0.18945 0.93076 0.0
C1733 C 0.61522 0.18667 0.95741 0.0
C1734 C 0.60629 0.18771 0.9482 0.0
H1735 H 0.56931 0.17547 0.89895 0.0
H1736 H 0.58349 0.17358 0.91434 0.0
H1737 H 0.57882 0.19732 0.94403 0.0
H1738 H 0.62615 0.20147 0.98014 0.0
H1739 H 0.61199 0.20347 0.96473 0.0
C1740 C 0.84874 0.12358 0.47935 0.0
C1741 C 0.85228 0.13496 0.47708 0.0
C1742 C 0.8483 0.11545 0.47056 0.0
C1743 C 0.84777 0.11224 0.43878 0.0
H1744 H 0.85876 0.08147 0.44594 0.0
C1745 C 0.85602 0.07771 0.4038 0.0
C1746 C 0.85331 0.0662 0.40653 0.0
C1747 C 0.85535 0.0863 0.41216 0.0
C1748 C 0.85551 0.08997 0.4438 0.0
H1749 H 0.85801 0.1467 0.46366 0.0
H1750 H 0.85727 0.13251 0.44832 0.0
H1751 H 0.85855 0.09601 0.46085 0.0
H1752 H 0.84726 0.05484 0.42013 0.0
H1753 H 0.84603 0.06975 0.43465 0.0
H1754 H 0.84479 0.10616 0.42168 0.0
C1755 C 0.8547 0.1299 0.4569 0.0
C1756 C 0.85539 0.09833 0.45238 0.0
C1757 C 0.85512 0.13805 0.46571 0.0
C1758 C 0.84963 0.06356 0.41777 0.0
C1759 C 0.84894 0.07213 0.42611 0.0
C1760 C 0.84789 0.10385 0.43018 0.0
C1761 C 0.85141 0.11845 0.45924 0.0
C1762 C 0.85149 0.10958 0.45001 0.0
C1763 C 0.85193 0.08359 0.42348 0.0
C1764 C 0.85174 0.09259 0.43259 0.0
H1765 H 0.84627 0.12093 0.48796 0.0
H1766 H 0.84549 0.10679 0.47266 0.0
H1767 H 0.84458 0.12076 0.43666 0.0
H1768 H 0.85901 0.08004 0.39527 0.0
H1769 H 0.85783 0.095 0.40984 0.0
C1770 C 0.9669 0.34821 0.9142 0.0
C1771 C 0.96787 0.35815 0.90727 0.0
C1772 C 0.95811 0.34722 0.9224 0.0
C1773 C 0.92953 0.35914 0.93043 0.0
H1774 H 0.93663 0.34607 0.96038 0.0
C1775 C 0.89703 0.3605 0.96819 0.0
C1776 C 0.89606 0.35057 0.97513 0.0
C1777 C 0.90584 0.36151 0.96001 0.0
C1778 C 0.93446 0.34962 0.95203 0.0
H1779 H 0.96012 0.37473 0.90339 0.0
H1780 H 0.94493 0.37308 0.91777 0.0
H1781 H 0.95169 0.34745 0.94583 0.0
H1782 H 0.90387 0.33403 0.97906 0.0
H1783 H 0.91909 0.3357 0.96473 0.0
H1784 H 0.9123 0.3613 0.93662 0.0
C1785 C 0.95092 0.366 0.91683 0.0
C1786 C 0.94311 0.35041 0.94366 0.0
C1787 C 0.95972 0.367 0.90866 0.0
C1788 C 0.90425 0.34175 0.97379 0.0
C1789 C 0.91308 0.34276 0.96564 0.0
C1790 C 0.92088 0.35835 0.93879 0.0
C1791 C 0.95002 0.35612 0.92386 0.0
C1792 C 0.94077 0.35518 0.93275 0.0
C1793 C 0.91396 0.35263 0.95859 0.0
C1794 C 0.92322 0.35358 0.94971 0.0
H1795 H 0.97307 0.34126 0.91345 0.0
H1796 H 0.95761 0.33943 0.92757 0.0
H1797 H 0.92736 0.3627 0.92207 0.0
H1798 H 0.89082 0.36743 0.9689 0.0
H1799 H 0.90632 0.3693 0.95484 0.0
C1800 C 0.12739 0.68832 0.07096 0.0
C1801 C 0.13895 0.68918 0.0745 0.0
C1802 C 0.11847 0.68769 0.07907 0.0
C1803 C 0.11253 0.68145 0.10995 0.0
H1804 H 0.08494 0.6995 0.10445 0.0
C1805 C 0.07376 0.68044 0.14139 0.0
C1806 C 0.06856 0.69108 0.14385 0.0
C1807 C 0.08184 0.67951 0.1325 0.0
C1808 C 0.09261 0.69444 0.10615 0.0
H1809 H 0.15016 0.68966 0.08941 0.0
H1810 H 0.13466 0.68878 0.10349 0.0
H1811 H 0.1001 0.69913 0.08996 0.0
H1812 H 0.06756 0.70901 0.13855 0.0
H1813 H 0.08175 0.70744 0.12324 0.0
H1814 H 0.10519 0.67704 0.1263 0.0
C1815 C 0.13246 0.68851 0.09445 0.0
C1816 C 0.10125 0.69412 0.09777 0.0
C1817 C 0.14136 0.68915 0.08636 0.0
C1818 C 0.07149 0.70071 0.13702 0.0
C1819 C 0.07954 0.69977 0.12813 0.0
C1820 C 0.10388 0.68176 0.11833 0.0
C1821 C 0.12088 0.68787 0.09092 0.0
C1822 C 0.11139 0.68771 0.0996 0.0
C1823 C 0.0849 0.68918 0.12579 0.0
C1824 C 0.09384 0.68836 0.1166 0.0
H1825 H 0.1252 0.68839 0.06192 0.0
H1826 H 0.10968 0.68708 0.07603 0.0
H1827 H 0.12015 0.6763 0.11162 0.0
H1828 H 0.07178 0.67286 0.14651 0.0
H1829 H 0.08568 0.67119 0.13087 0.0
C1830 C 0.07575 0.84219 0.40421 0.0
C1831 C 0.06926 0.85167 0.40025 0.0
C1832 C 0.08354 0.84334 0.41331 0.0
C1833 C 0.09079 0.86198 0.43801 0.0
H1834 H 0.12027 0.84633 0.43662 0.0
C1835 C 0.127 0.87038 0.4711 0.0
C1836 C 0.1334 0.86086 0.47511 0.0
C1837 C 0.11926 0.86926 0.46195 0.0
C1838 C 0.11202 0.85066 0.43722 0.0
H1839 H 0.06603 0.86986 0.40281 0.0
H1840 H 0.07961 0.87186 0.41868 0.0
H1841 H 0.10663 0.84444 0.4208 0.0
H1842 H 0.13658 0.84267 0.47256 0.0
H1843 H 0.12311 0.84073 0.45658 0.0
H1844 H 0.09618 0.8682 0.45443 0.0
C1845 C 0.07855 0.86348 0.41483 0.0
C1846 C 0.10419 0.84958 0.42813 0.0
C1847 C 0.07075 0.86233 0.40571 0.0
C1848 C 0.13192 0.85022 0.46962 0.0
C1849 C 0.12418 0.8491 0.46045 0.0
C1850 C 0.09862 0.86307 0.44709 0.0
C1851 C 0.08508 0.85401 0.41873 0.0
C1852 C 0.09346 0.85522 0.4284 0.0
C1853 C 0.11771 0.85861 0.45652 0.0
C1854 C 0.10935 0.85742 0.44683 0.0
H1855 H 0.07469 0.83379 0.40038 0.0
H1856 H 0.08825 0.8358 0.4162 0.0
H1857 H 0.08254 0.8663 0.43861 0.0
H1858 H 0.12806 0.87877 0.47494 0.0
H1859 H 0.11459 0.87682 0.45903 0.0
C1860 C 0.16897 0.63281 0.96925 0.0
C1861 C 0.17857 0.63576 0.97601 0.0
C1862 C 0.17 0.62483 0.96036 0.0
C1863 C 0.19139 0.61079 0.94137 0.0
H1864 H 0.16686 0.58865 0.93668 0.0
C1865 C 0.19001 0.58139 0.90153 0.0
C1866 C 0.18656 0.56987 0.90314 0.0
C1867 C 0.18899 0.58937 0.91041 0.0
C1868 C 0.17384 0.59471 0.93791 0.0
H1869 H 0.19678 0.63254 0.97867 0.0
H1870 H 0.19858 0.61865 0.96317 0.0
H1871 H 0.16536 0.60253 0.9522 0.0
H1872 H 0.17934 0.55777 0.91549 0.0
H1873 H 0.17755 0.5717 0.93097 0.0
H1874 H 0.19996 0.60284 0.92721 0.0
C1875 C 0.19027 0.62262 0.96465 0.0
C1876 C 0.17291 0.60278 0.94674 0.0
C1877 C 0.18925 0.63061 0.97355 0.0
C1878 C 0.18195 0.56659 0.91387 0.0
C1879 C 0.18093 0.57459 0.92276 0.0
C1880 C 0.19231 0.60274 0.93252 0.0
C1881 C 0.18064 0.61958 0.95797 0.0
C1882 C 0.18167 0.61094 0.94858 0.0
C1883 C 0.18448 0.58608 0.92116 0.0
C1884 C 0.18353 0.5946 0.93066 0.0
H1885 H 0.16066 0.63674 0.97075 0.0
H1886 H 0.16244 0.62288 0.95526 0.0
H1887 H 0.19826 0.617 0.94244 0.0
H1888 H 0.19339 0.5843 0.89333 0.0
H1889 H 0.19161 0.59819 0.90878 0.0
C1890 C 0.39733 0.68527 0.46561 0.0
C1891 C 0.40103 0.68576 0.47711 0.0
C1892 C 0.40526 0.68612 0.45656 0.0
C1893 C 0.43496 0.69593 0.44959 0.0
H1894 H 0.43153 0.67593 0.42332 0.0
C1895 C 0.47024 0.69218 0.41458 0.0
C1896 C 0.46657 0.69168 0.40307 0.0
C1897 C 0.46228 0.69138 0.42361 0.0
C1898 C 0.43256 0.68167 0.43053 0.0
H1899 H 0.416 0.68786 0.48805 0.0
H1900 H 0.42982 0.68917 0.47233 0.0
H1901 H 0.41755 0.67494 0.43894 0.0
H1902 H 0.45161 0.68967 0.39209 0.0
H1903 H 0.43774 0.68844 0.40779 0.0
H1904 H 0.44997 0.70265 0.44119 0.0
C1905 C 0.42077 0.68819 0.47028 0.0
C1906 C 0.42452 0.68111 0.43949 0.0
C1907 C 0.41285 0.6873 0.47931 0.0
C1908 C 0.45474 0.69022 0.40084 0.0
C1909 C 0.44679 0.68939 0.40986 0.0
C1910 C 0.443 0.69648 0.44063 0.0
C1911 C 0.4171 0.68755 0.45877 0.0
C1912 C 0.42561 0.68823 0.44915 0.0
C1913 C 0.45044 0.69002 0.42137 0.0
C1914 C 0.44191 0.68936 0.43097 0.0
H1915 H 0.38832 0.68399 0.46358 0.0
H1916 H 0.4021 0.68573 0.44782 0.0
H1917 H 0.43599 0.70167 0.4568 0.0
H1918 H 0.47926 0.69341 0.41663 0.0
H1919 H 0.46543 0.69177 0.43236 0.0
C1920 C 0.35108 0.97604 0.9187 0.0
C1921 C 0.35147 0.97409 0.90678 0.0
C1922 C 0.35029 0.96683 0.9265 0.0
C1923 C 0.35565 0.93544 0.92913 0.0
H1924 H 0.33644 0.93786 0.95626 0.0
C1925 C 0.34654 0.89647 0.95919 0.0
C1926 C 0.34618 0.8984 0.97111 0.0
C1927 C 0.34731 0.9057 0.9514 0.0
C1928 C 0.34196 0.93709 0.9488 0.0
H1929 H 0.3513 0.96083 0.89379 0.0
H1930 H 0.34972 0.94478 0.90738 0.0
H1931 H 0.33728 0.95385 0.94255 0.0
H1932 H 0.34637 0.91164 0.98413 0.0
H1933 H 0.34791 0.92771 0.97055 0.0
H1934 H 0.36033 0.91868 0.93538 0.0
C1935 C 0.35015 0.95345 0.9107 0.0
C1936 C 0.34244 0.94626 0.94092 0.0
C1937 C 0.35092 0.96268 0.90289 0.0
C1938 C 0.34673 0.90981 0.97502 0.0
C1939 C 0.34747 0.91905 0.96722 0.0
C1940 C 0.35517 0.92626 0.93701 0.0
C1941 C 0.34988 0.9554 0.92262 0.0
C1942 C 0.34928 0.94557 0.93098 0.0
C1943 C 0.34773 0.91712 0.9553 0.0
C1944 C 0.34832 0.92695 0.94695 0.0
H1945 H 0.35135 0.98472 0.92202 0.0
H1946 H 0.3502 0.96867 0.93561 0.0
H1947 H 0.36117 0.93467 0.92168 0.0
H1948 H 0.34627 0.8878 0.95586 0.0
H1949 H 0.34738 0.90387 0.94229 0.0
C1950 C 0.47043 0.85146 0.13074 0.0
C1951 C 0.46673 0.84854 0.14192 0.0
C1952 C 0.4625 0.85246 0.1217 0.0
C1953 C 0.43296 0.8437 0.11309 0.0
H1954 H 0.43631 0.86797 0.09024 0.0
C1955 C 0.40496 0.84571 0.07177 0.0
C1956 C 0.40114 0.85662 0.06804 0.0
C1957 C 0.41295 0.84466 0.08076 0.0
C1958 C 0.43519 0.86118 0.09659 0.0
H1959 H 0.45168 0.84475 0.15233 0.0
H1960 H 0.43791 0.84651 0.13662 0.0
H1961 H 0.45013 0.86648 0.10597 0.0
H1962 H 0.40254 0.87496 0.07113 0.0
H1963 H 0.41641 0.87312 0.08676 0.0
H1964 H 0.41789 0.83854 0.10383 0.0
C1965 C 0.44697 0.84779 0.13478 0.0
C1966 C 0.44321 0.86025 0.10555 0.0
C1967 C 0.45488 0.84679 0.14381 0.0
C1968 C 0.40543 0.86643 0.07362 0.0
C1969 C 0.41341 0.86537 0.08259 0.0
C1970 C 0.42496 0.84463 0.10412 0.0
C1971 C 0.45066 0.85059 0.12359 0.0
C1972 C 0.44219 0.85152 0.11395 0.0
C1973 C 0.41732 0.85448 0.08626 0.0
C1974 C 0.42593 0.8534 0.09576 0.0
H1975 H 0.47949 0.85272 0.12892 0.0
H1976 H 0.46568 0.85449 0.11317 0.0
H1977 H 0.43197 0.83679 0.11932 0.0
H1978 H 0.40197 0.83798 0.06759 0.0
H1979 H 0.41587 0.83613 0.08325 0.0
C1980 C 0.16933 0.96897 0.63562 0.0
C1981 C 0.1784 0.97678 0.63749 0.0
C1982 C 0.17047 0.96009 0.62764 0.0
C1983 C 0.18727 0.95149 0.60202 0.0
H1984 H 0.17493 0.92117 0.60882 0.0
C1985 C 0.19634 0.91211 0.57317 0.0
C1986 C 0.18733 0.90423 0.57136 0.0
C1987 C 0.19515 0.92103 0.5811 0.0
C1988 C 0.1783 0.92962 0.60671 0.0
H1989 H 0.19579 0.98131 0.63236 0.0
H1990 H 0.19784 0.96572 0.61859 0.0
H1991 H 0.17321 0.9364 0.62299 0.0
H1992 H 0.16996 0.89963 0.57652 0.0
H1993 H 0.16782 0.91529 0.59019 0.0
H1994 H 0.19236 0.94471 0.58573 0.0
C1995 C 0.18979 0.96654 0.62322 0.0
C1996 C 0.17732 0.93837 0.61486 0.0
C1997 C 0.18867 0.9754 0.63123 0.0
C1998 C 0.17704 0.90559 0.5776 0.0
C1999 C 0.17587 0.9145 0.58556 0.0
C2000 C 0.18825 0.94274 0.59387 0.0
C2001 C 0.18069 0.95878 0.62129 0.0
C2002 C 0.1818 0.94943 0.61263 0.0
C2003 C 0.18493 0.92231 0.58746 0.0
C2004 C 0.18378 0.93168 0.5961 0.0
H2005 H 0.16135 0.96968 0.64037 0.0
H2006 H 0.16324 0.95436 0.62632 0.0
H2007 H 0.19065 0.95994 0.59991 0.0
H2008 H 0.20433 0.91142 0.56843 0.0
H2009 H 0.20235 0.92681 0.58239 0.0
C2010 C 0.34987 0.57797 0.64162 0.0
C2011 C 0.35006 0.56651 0.63779 0.0
C2012 C 0.34919 0.58716 0.63376 0.0
C2013 C 0.3411 0.59437 0.60364 0.0
H2014 H 0.35981 0.6215 0.6087 0.0
C2015 C 0.3456 0.63053 0.56928 0.0
C2016 C 0.34539 0.64197 0.57314 0.0
C2017 C 0.3463 0.62132 0.57711 0.0
C2018 C 0.35443 0.61405 0.60721 0.0
H2019 H 0.34938 0.5558 0.62264 0.0
H2020 H 0.34837 0.57179 0.60896 0.0
H2021 H 0.3605 0.60557 0.62247 0.0
H2022 H 0.34607 0.65264 0.58833 0.0
H2023 H 0.3471 0.63661 0.60196 0.0
H2024 H 0.33502 0.60284 0.58837 0.0
C2025 C 0.34868 0.57368 0.61805 0.0
C2026 C 0.35482 0.6049 0.61513 0.0
C2027 C 0.34939 0.5645 0.6259 0.0
C2028 C 0.34607 0.64395 0.58504 0.0
C2029 C 0.34679 0.63474 0.59286 0.0
C2030 C 0.34071 0.60351 0.59572 0.0
C2031 C 0.34864 0.58514 0.62186 0.0
C2032 C 0.34815 0.59493 0.61346 0.0
C2033 C 0.34685 0.6233 0.58901 0.0
C2034 C 0.34736 0.61349 0.59739 0.0
H2035 H 0.35048 0.57986 0.6507 0.0
H2036 H 0.34904 0.59586 0.63703 0.0
H2037 H 0.33571 0.58691 0.60215 0.0
H2038 H 0.34499 0.62867 0.56019 0.0
H2039 H 0.34645 0.61263 0.57381 0.0
loop_
_geom_bond_atom_site_label_1
_geom_bond_atom_site_label_2
_geom_bond_distance
_geom_bond_site_symmetry_2
_ccdc_geom_bond_type
C0 C1 1.263 . S
C0 C5 1.480 1_455 S
C0 C10 1.465 1_455 S
C1 C0 1.263 . S
C1 C3 1.339 . S
C1 H28 0.931 . S
C2 C3 1.395 . S
C2 C4 1.320 1_455 S
C3 C1 1.339 . S
C3 C2 1.395 . S
C3 H29 0.929 . S
C4 C2 1.320 1_655 S
C4 C5 1.405 . S
C4 H30 0.930 . S
C5 C0 1.480 1_655 S
C5 C4 1.405 . S
C5 H31 0.931 . S
U6 O7 2.454 . S
U6 O8 2.458 . S
U6 C9 2.984 . S
U6 C10 2.847 . S
U6 C23 2.882 1_655 S
U6 O24 2.441 . S
U6 O25 2.420 1_655 S
U6 O26 2.455 1_655 S
U6 O27 2.449 1_655 S
O7 U6 2.454 . S
O7 C9 1.353 . S
O8 U6 2.458 . S
O8 C9 1.286 . S
C9 U6 2.984 . S
C9 O7 1.353 . S
C9 O8 1.286 . S
C9 C11 1.363 . S
C10 C0 1.465 1_655 S
C10 U6 2.847 . S
C10 O24 1.249 . S
C10 O25 1.202 1_655 S
C11 C9 1.363 . S
C11 C13 1.408 . S
C11 C16 1.342 . S
C12 C13 1.310 . S
C12 C15 1.461 . S
C12 H32 0.932 . S
C13 C11 1.408 . S
C13 C12 1.310 . S
C13 H33 0.930 . S
C14 C15 1.474 . S
C14 C16 1.285 . S
C14 H34 0.929 . S
C15 C12 1.461 . S
C15 C14 1.474 . S
C16 C11 1.342 . S
C16 C14 1.285 . S
C16 H35 0.930 . S
C17 C20 1.424 . S
C17 C22 1.245 . S
C17 C23 1.428 . S
C18 C21 1.260 . S
C18 C22 1.477 . S
C18 H36 0.932 . S
C19 C20 1.384 . S
C19 C21 1.479 . S
C19 H37 0.929 . S
C20 C17 1.424 . S
C20 C19 1.384 . S
C20 H38 0.928 . S
C21 C18 1.260 . S
C21 C19 1.479 . S
C22 C17 1.245 . S
C22 C18 1.477 . S
C22 H39 0.932 . S
C23 U6 2.882 1_455 S
C23 C17 1.428 . S
C23 O26 1.301 . S
C23 O27 1.282 . S
O24 U6 2.441 . S
O24 C10 1.249 . S
O25 U6 2.420 1_455 S
O25 C10 1.202 1_455 S
O26 U6 2.455 1_455 S
O26 C23 1.301 . S
O27 U6 2.449 1_455 S
O27 C23 1.282 . S
H28 C1 0.931 . S
H29 C3 0.929 . S
H30 C4 0.930 . S
H31 C5 0.931 . S
H32 C12 0.932 . S
H33 C13 0.930 . S
H34 C14 0.929 . S
H35 C16 0.930 . S
H36 C18 0.932 . S
H37 C19 0.929 . S
H38 C20 0.928 . S
H39 C22 0.932 . S
C40 C41 1.264 . S
C40 C45 1.479 . S
C40 C50 1.465 . S
C41 C40 1.264 . S
C41 C43 1.339 . S
C41 H68 0.931 . S
C42 C43 1.395 . S
C42 C44 1.320 . S
C43 C41 1.339 . S
C43 C42 1.395 . S
C43 H69 0.929 . S
C44 C42 1.320 . S
C44 C45 1.405 . S
C44 H70 0.930 . S
C45 C40 1.479 . S
C45 C44 1.405 . S
C45 H71 0.931 . S
U46 O47 2.454 . S
U46 O48 2.458 . S
U46 C49 2.984 . S
U46 C50 2.847 . S
U46 C63 2.882 . S
U46 O64 2.441 . S
U46 O65 2.420 . S
U46 O66 2.455 . S
U46 O67 2.449 . S
O47 U46 2.454 . S
O47 C49 1.353 . S
O48 U46 2.458 . S
O48 C49 1.286 . S
C49 U46 2.984 . S
C49 O47 1.353 . S
C49 O48 1.286 . S
C49 C51 1.363 . S
C50 C40 1.465 . S
C50 U46 2.847 . S
C50 O64 1.249 . S
C50 O65 1.202 . S
C51 C49 1.363 . S
C51 C53 1.408 . S
C51 C56 1.342 . S
C52 C53 1.310 . S
C52 C55 1.461 . S
C52 H72 0.932 . S
C53 C51 1.408 . S
C53 C52 1.310 . S
C53 H73 0.930 . S
C54 C55 1.474 . S
C54 C56 1.285 . S
C54 H74 0.929 . S
C55 C52 1.461 . S
C55 C54 1.474 . S
C56 C51 1.342 . S
C56 C54 1.285 . S
C56 H75 0.930 . S
C57 C60 1.424 . S
C57 C62 1.245 . S
C57 C63 1.428 . S
C58 C61 1.260 . S
C58 C62 1.477 . S
C58 H76 0.932 . S
C59 C60 1.384 . S
C59 C61 1.479 . S
C59 H77 0.929 . S
C60 C57 1.424 . S
C60 C59 1.384 . S
C60 H78 0.928 . S
C61 C58 1.260 . S
C61 C59 1.479 . S
C62 C57 1.245 . S
C62 C58 1.477 . S
C62 H79 0.932 . S
C63 U46 2.882 . S
C63 C57 1.428 . S
C63 O66 1.301 . S
C63 O67 1.282 . S
O64 U46 2.441 . S
O64 C50 1.249 . S
O65 U46 2.420 . S
O65 C50 1.202 . S
O66 U46 2.455 . S
O66 C63 1.301 . S
O67 U46 2.449 . S
O67 C63 1.282 . S
H68 C41 0.931 . S
H69 C43 0.929 . S
H70 C44 0.930 . S
H71 C45 0.931 . S
H72 C52 0.932 . S
H73 C53 0.930 . S
H74 C54 0.929 . S
H75 C56 0.930 . S
H76 C58 0.932 . S
H77 C59 0.929 . S
H78 C60 0.928 . S
H79 C62 0.932 . S
C80 C81 1.264 . S
C80 C85 1.479 . S
C80 C90 1.465 . S
C81 C80 1.264 . S
C81 C83 1.339 . S
C81 H108 0.931 . S
C82 C83 1.395 . S
C82 C84 1.320 . S
C83 C81 1.339 . S
C83 C82 1.395 . S
C83 H109 0.929 . S
C84 C82 1.320 . S
C84 C85 1.405 . S
C84 H110 0.930 . S
C85 C80 1.479 . S
C85 C84 1.405 . S
C85 H111 0.931 . S
U86 O87 2.454 . S
U86 O88 2.458 . S
U86 C89 2.984 . S
U86 C90 2.847 . S
U86 C103 2.882 . S
U86 O104 2.441 . S
U86 O105 2.420 . S
U86 O106 2.455 . S
U86 O107 2.449 . S
O87 U86 2.454 . S
O87 C89 1.353 . S
O88 U86 2.458 . S
O88 C89 1.286 . S
C89 U86 2.984 . S
C89 O87 1.353 . S
C89 O88 1.286 . S
C89 C91 1.363 . S
C90 C80 1.465 . S
C90 U86 2.847 . S
C90 O104 1.249 . S
C90 O105 1.202 . S
C91 C89 1.363 . S
C91 C93 1.408 . S
C91 C96 1.342 . S
C92 C93 1.310 . S
C92 C95 1.461 . S
C92 H112 0.932 . S
C93 C91 1.408 . S
C93 C92 1.310 . S
C93 H113 0.930 . S
C94 C95 1.474 . S
C94 C96 1.285 . S
C94 H114 0.929 . S
C95 C92 1.461 . S
C95 C94 1.474 . S
C96 C91 1.342 . S
C96 C94 1.285 . S
C96 H115 0.930 . S
C97 C100 1.424 . S
C97 C102 1.245 . S
C97 C103 1.428 . S
C98 C101 1.260 . S
C98 C102 1.477 . S
C98 H116 0.932 . S
C99 C100 1.384 . S
C99 C101 1.479 . S
C99 H117 0.929 . S
C100 C97 1.424 . S
C100 C99 1.384 . S
C100 H118 0.928 . S
C101 C98 1.260 . S
C101 C99 1.479 . S
C102 C97 1.245 . S
C102 C98 1.477 . S
C102 H119 0.932 . S
C103 U86 2.882 . S
C103 C97 1.428 . S
C103 O106 1.301 . S
C103 O107 1.282 . S
O104 U86 2.441 . S
O104 C90 1.249 . S
O105 U86 2.420 . S
O105 C90 1.202 . S
O106 U86 2.455 . S
O106 C103 1.301 . S
O107 U86 2.449 . S
O107 C103 1.282 . S
H108 C81 0.931 . S
H109 C83 0.929 . S
H110 C84 0.930 . S
H111 C85 0.931 . S
H112 C92 0.932 . S
H113 C93 0.930 . S
H114 C94 0.929 . S
H115 C96 0.930 . S
H116 C98 0.932 . S
H117 C99 0.929 . S
H118 C100 0.928 . S
H119 C102 0.932 . S
C120 C121 1.264 . S
C120 C125 1.479 . S
C120 C130 1.465 . S
C121 C120 1.264 . S
C121 C123 1.339 . S
C121 H148 0.931 . S
C122 C123 1.395 . S
C122 C124 1.320 . S
C123 C121 1.339 . S
C123 C122 1.395 . S
C123 H149 0.929 . S
C124 C122 1.320 . S
C124 C125 1.405 . S
C124 H150 0.930 . S
C125 C120 1.479 . S
C125 C124 1.405 . S
C125 H151 0.931 . S
U126 O127 2.454 1_545 S
U126 O128 2.458 1_545 S
U126 C129 2.984 1_545 S
U126 C130 2.847 . S
U126 C143 2.882 . S
U126 O144 2.441 . S
U126 O145 2.420 . S
U126 O146 2.455 1_545 S
U126 O147 2.449 . S
O127 U126 2.454 1_565 S
O127 C129 1.353 . S
O128 U126 2.458 1_565 S
O128 C129 1.286 . S
C129 U126 2.984 1_565 S
C129 O127 1.353 . S
C129 O128 1.286 . S
C129 C131 1.363 . S
C130 C120 1.465 . S
C130 U126 2.847 . S
C130 O144 1.249 . S
C130 O145 1.202 . S
C131 C129 1.363 . S
C131 C133 1.408 . S
C131 C136 1.342 . S
C132 C133 1.310 . S
C132 C135 1.461 . S
C132 H152 0.932 . S
C133 C131 1.408 . S
C133 C132 1.310 . S
C133 H153 0.930 . S
C134 C135 1.474 . S
C134 C136 1.285 . S
C134 H154 0.929 . S
C135 C132 1.461 . S
C135 C134 1.474 . S
C136 C131 1.342 . S
C136 C134 1.285 . S
C136 H155 0.930 . S
C137 C140 1.424 . S
C137 C142 1.245 1_545 S
C137 C143 1.428 . S
C138 C141 1.260 1_565 S
C138 C142 1.477 . S
C138 H156 0.932 . S
C139 C140 1.384 . S
C139 C141 1.479 . S
C139 H157 0.929 . S
C140 C137 1.424 . S
C140 C139 1.384 . S
C140 H158 0.928 . S
C141 C138 1.260 1_545 S
C141 C139 1.479 . S
C142 C137 1.245 1_565 S
C142 C138 1.477 . S
C142 H159 0.932 . S
C143 U126 2.882 . S
C143 C137 1.428 . S
C143 O146 1.301 1_545 S
C143 O147 1.282 . S
O144 U126 2.441 . S
O144 C130 1.249 . S
O145 U126 2.420 . S
O145 C130 1.202 . S
O146 U126 2.455 1_565 S
O146 C143 1.301 1_565 S
O147 U126 2.449 . S
O147 C143 1.282 . S
H148 C121 0.931 . S
H149 C123 0.929 . S
H150 C124 0.930 . S
H151 C125 0.931 . S
H152 C132 0.932 . S
H153 C133 0.930 . S
H154 C134 0.929 . S
H155 C136 0.930 . S
H156 C138 0.932 . S
H157 C139 0.929 . S
H158 C140 0.928 . S
H159 C142 0.932 . S
C160 C161 1.270 . S
C160 C165 1.474 1_455 S
C160 C170 1.463 1_455 S
C161 C160 1.270 . S
C161 C163 1.339 . S
C161 H188 0.931 . S
C162 C163 1.395 . S
C162 C164 1.320 1_455 S
C163 C161 1.339 . S
C163 C162 1.395 . S
C163 H189 0.929 . S
C164 C162 1.320 1_655 S
C164 C165 1.405 . S
C164 H190 0.930 . S
C165 C160 1.474 1_655 S
C165 C164 1.405 . S
C165 H191 0.931 . S
U166 O167 2.454 . S
U166 O168 2.458 . S
U166 C169 2.984 . S
U166 C170 2.847 . S
U166 C183 2.882 1_655 S
U166 O184 2.441 . S
U166 O185 2.420 1_655 S
U166 O186 2.455 1_655 S
U166 O187 2.449 1_655 S
O167 U166 2.454 . S
O167 C169 1.353 . S
O168 U166 2.458 . S
O168 C169 1.286 . S
C169 U166 2.984 . S
C169 O167 1.353 . S
C169 O168 1.286 . S
C169 C171 1.363 . S
C170 C160 1.463 1_655 S
C170 U166 2.847 . S
C170 O184 1.249 . S
C170 O185 1.202 1_655 S
C171 C169 1.363 . S
C171 C173 1.408 . S
C171 C176 1.342 . S
C172 C173 1.310 . S
C172 C175 1.461 . S
C172 H192 0.932 . S
C173 C171 1.408 . S
C173 C172 1.310 . S
C173 H193 0.930 . S
C174 C175 1.474 . S
C174 C176 1.285 . S
C174 H194 0.929 . S
C175 C172 1.461 . S
C175 C174 1.474 . S
C176 C171 1.342 . S
C176 C174 1.285 . S
C176 H195 0.930 . S
C177 C180 1.424 . S
C177 C182 1.245 . S
C177 C183 1.428 . S
C178 C181 1.260 . S
C178 C182 1.477 . S
C178 H196 0.932 . S
C179 C180 1.384 . S
C179 C181 1.479 . S
C179 H197 0.929 . S
C180 C177 1.424 . S
C180 C179 1.384 . S
C180 H198 0.928 . S
C181 C178 1.260 . S
C181 C179 1.479 . S
C182 C177 1.245 . S
C182 C178 1.477 . S
C182 H199 0.932 . S
C183 U166 2.882 1_455 S
C183 C177 1.428 . S
C183 O186 1.301 . S
C183 O187 1.282 . S
O184 U166 2.441 . S
O184 C170 1.249 . S
O185 U166 2.420 1_455 S
O185 C170 1.202 1_455 S
O186 U166 2.455 1_455 S
O186 C183 1.301 . S
O187 U166 2.449 1_455 S
O187 C183 1.282 . S
H188 C161 0.931 . S
H189 C163 0.929 . S
H190 C164 0.930 . S
H191 C165 0.931 . S
H192 C172 0.932 . S
H193 C173 0.930 . S
H194 C174 0.929 . S
H195 C176 0.930 . S
H196 C178 0.932 . S
H197 C179 0.929 . S
H198 C180 0.928 . S
H199 C182 0.932 . S
C200 C201 1.264 . S
C200 C205 1.479 . S
C200 C210 1.465 . S
C201 C200 1.264 . S
C201 C203 1.339 . S
C201 H228 0.931 . S
C202 C203 1.395 . S
C202 C204 1.320 . S
C203 C201 1.339 . S
C203 C202 1.395 . S
C203 H229 0.929 . S
C204 C202 1.320 . S
C204 C205 1.405 . S
C204 H230 0.930 . S
C205 C200 1.479 . S
C205 C204 1.405 . S
C205 H231 0.931 . S
U206 O207 2.454 . S
U206 O208 2.458 . S
U206 C209 2.984 . S
U206 C210 2.847 . S
U206 C223 2.882 . S
U206 O224 2.441 . S
U206 O225 2.420 . S
U206 O226 2.455 . S
U206 O227 2.449 . S
O207 U206 2.454 . S
O207 C209 1.353 . S
O208 U206 2.458 . S
O208 C209 1.286 . S
C209 U206 2.984 . S
C209 O207 1.353 . S
C209 O208 1.286 . S
C209 C211 1.363 . S
C210 C200 1.465 . S
C210 U206 2.847 . S
C210 O224 1.249 . S
C210 O225 1.202 . S
C211 C209 1.363 . S
C211 C213 1.408 . S
C211 C216 1.342 . S
C212 C213 1.310 . S
C212 C215 1.461 . S
C212 H232 0.932 . S
C213 C211 1.408 . S
C213 C212 1.310 . S
C213 H233 0.930 . S
C214 C215 1.474 . S
C214 C216 1.285 . S
C214 H234 0.929 . S
C215 C212 1.461 . S
C215 C214 1.474 . S
C216 C211 1.342 . S
C216 C214 1.285 . S
C216 H235 0.930 . S
C217 C220 1.424 . S
C217 C222 1.245 . S
C217 C223 1.428 . S
C218 C221 1.260 . S
C218 C222 1.477 . S
C218 H236 0.932 . S
C219 C220 1.384 . S
C219 C221 1.479 . S
C219 H237 0.929 . S
C220 C217 1.424 . S
C220 C219 1.384 . S
C220 H238 0.928 . S
C221 C218 1.260 . S
C221 C219 1.479 . S
C222 C217 1.245 . S
C222 C218 1.477 . S
C222 H239 0.932 . S
C223 U206 2.882 . S
C223 C217 1.428 . S
C223 O226 1.301 . S
C223 O227 1.282 . S
O224 U206 2.441 . S
O224 C210 1.249 . S
O225 U206 2.420 . S
O225 C210 1.202 . S
O226 U206 2.455 . S
O226 C223 1.301 . S
O227 U206 2.449 . S
O227 C223 1.282 . S
H228 C201 0.931 . S
H229 C203 0.929 . S
H230 C204 0.930 . S
H231 C205 0.931 . S
H232 C212 0.932 . S
H233 C213 0.930 . S
H234 C214 0.929 . S
H235 C216 0.930 . S
H236 C218 0.932 . S
H237 C219 0.929 . S
H238 C220 0.928 . S
H239 C222 0.932 . S
C240 C241 1.264 . S
C240 C245 1.479 . S
C240 C250 1.465 . S
C241 C240 1.264 . S
C241 C243 1.339 . S
C241 H268 0.931 . S
C242 C243 1.395 . S
C242 C244 1.320 . S
C243 C241 1.339 . S
C243 C242 1.395 . S
C243 H269 0.929 . S
C244 C242 1.320 . S
C244 C245 1.405 . S
C244 H270 0.930 . S
C245 C240 1.479 . S
C245 C244 1.405 . S
C245 H271 0.931 . S
U246 O247 2.454 . S
U246 O248 2.458 . S
U246 C249 2.984 . S
U246 C250 2.847 . S
U246 C263 2.882 . S
U246 O264 2.441 . S
U246 O265 2.420 . S
U246 O266 2.455 . S
U246 O267 2.449 . S
O247 U246 2.454 . S
O247 C249 1.353 . S
O248 U246 2.458 . S
O248 C249 1.286 . S
C249 U246 2.984 . S
C249 O247 1.353 . S
C249 O248 1.286 . S
C249 C251 1.363 . S
C250 C240 1.465 . S
C250 U246 2.847 . S
C250 O264 1.249 . S
C250 O265 1.202 . S
C251 C249 1.363 . S
C251 C253 1.408 . S
C251 C256 1.342 . S
C252 C253 1.310 . S
C252 C255 1.461 . S
C252 H272 0.932 . S
C253 C251 1.408 . S
C253 C252 1.310 . S
C253 H273 0.930 . S
C254 C255 1.474 . S
C254 C256 1.285 . S
C254 H274 0.929 . S
C255 C252 1.461 . S
C255 C254 1.474 . S
C256 C251 1.342 . S
C256 C254 1.285 . S
C256 H275 0.930 . S
C257 C260 1.424 . S
C257 C262 1.245 . S
C257 C263 1.428 . S
C258 C261 1.260 . S
C258 C262 1.477 . S
C258 H276 0.932 . S
C259 C260 1.384 . S
C259 C261 1.479 . S
C259 H277 0.929 . S
C260 C257 1.424 . S
C260 C259 1.384 . S
C260 H278 0.928 . S
C261 C258 1.260 . S
C261 C259 1.479 . S
C262 C257 1.245 . S
C262 C258 1.477 . S
C262 H279 0.932 . S
C263 U246 2.882 . S
C263 C257 1.428 . S
C263 O266 1.301 . S
C263 O267 1.282 . S
O264 U246 2.441 . S
O264 C250 1.249 . S
O265 U246 2.420 . S
O265 C250 1.202 . S
O266 U246 2.455 . S
O266 C263 1.301 . S
O267 U246 2.449 . S
O267 C263 1.282 . S
H268 C241 0.931 . S
H269 C243 0.929 . S
H270 C244 0.930 . S
H271 C245 0.931 . S
H272 C252 0.932 . S
H273 C253 0.930 . S
H274 C254 0.929 . S
H275 C256 0.930 . S
H276 C258 0.932 . S
H277 C259 0.929 . S
H278 C260 0.928 . S
H279 C262 0.932 . S
C280 C281 1.264 . S
C280 C285 1.479 . S
C280 C290 1.465 . S
C281 C280 1.264 . S
C281 C283 1.339 . S
C281 H308 0.946 . S
C282 C283 1.395 . S
C282 C284 1.320 . S
C283 C281 1.339 . S
C283 C282 1.395 . S
C283 H309 0.929 1_545 S
C284 C282 1.320 . S
C284 C285 1.405 . S
C284 H310 0.930 . S
C285 C280 1.479 . S
C285 C284 1.405 . S
C285 H311 0.931 . S
U286 O287 2.454 . S
U286 O288 2.458 . S
U286 C289 2.984 . S
U286 C290 2.847 . S
U286 C303 2.882 1_545 S
U286 O304 2.441 . S
U286 O305 2.420 . S
U286 O306 2.455 . S
U286 O307 2.395 1_545 S
O287 U286 2.454 . S
O287 C289 1.353 . S
O288 U286 2.458 . S
O288 C289 1.286 . S
C289 U286 2.984 . S
C289 O287 1.353 . S
C289 O288 1.286 . S
C289 C291 1.363 . S
C290 C280 1.465 . S
C290 U286 2.847 . S
C290 O304 1.249 . S
C290 O305 1.202 . S
C291 C289 1.363 . S
C291 C293 1.408 . S
C291 C296 1.342 . S
C292 C293 1.310 . S
C292 C295 1.461 . S
C292 H312 0.932 . S
C293 C291 1.408 . S
C293 C292 1.310 . S
C293 H313 0.930 . S
C294 C295 1.474 . S
C294 C296 1.285 . S
C294 H314 0.929 . S
C295 C292 1.461 . S
C295 C294 1.474 . S
C296 C291 1.342 . S
C296 C294 1.285 . S
C296 H315 0.930 . S
C297 C300 1.424 . S
C297 C302 1.245 . S
C297 C303 1.428 . S
C298 C301 1.260 . S
C298 C302 1.477 . S
C298 H316 0.932 . S
C299 C300 1.384 . S
C299 C301 1.479 . S
C299 H317 0.929 . S
C300 C297 1.424 . S
C300 C299 1.384 . S
C300 H318 0.928 . S
C301 C298 1.260 . S
C301 C299 1.479 . S
C302 C297 1.245 . S
C302 C298 1.477 . S
C302 H319 0.932 . S
C303 U286 2.882 1_565 S
C303 C297 1.428 . S
C303 O306 1.301 1_565 S
C303 O307 1.294 . S
O304 U286 2.441 . S
O304 C290 1.249 . S
O305 U286 2.420 . S
O305 C290 1.202 . S
O306 U286 2.455 . S
O306 C303 1.301 1_545 S
O307 U286 2.395 1_565 S
O307 C303 1.294 . S
H308 C281 0.946 . S
H309 C283 0.929 1_565 S
H310 C284 0.930 . S
H311 C285 0.931 . S
H312 C292 0.932 . S
H313 C293 0.930 . S
H314 C294 0.929 . S
H315 C296 0.930 . S
H316 C298 0.932 . S
H317 C299 0.929 . S
H318 C300 0.928 . S
H319 C302 0.932 . S
C320 C321 1.264 . S
C320 C325 1.479 . S
C320 C330 1.465 . S
C321 C320 1.264 . S
C321 C323 1.339 . S
C321 H348 0.931 . S
C322 C323 1.395 . S
C322 C324 1.320 . S
C323 C321 1.339 . S
C323 C322 1.395 . S
C323 H349 0.929 . S
C324 C322 1.320 . S
C324 C325 1.405 . S
C324 H350 0.930 . S
C325 C320 1.479 . S
C325 C324 1.405 . S
C325 H351 0.931 . S
U326 O327 2.502 . S
U326 O328 2.532 . S
U326 C329 3.051 . S
U326 C330 2.789 1_554 S
U326 C343 2.880 1_554 S
U326 O344 2.407 1_554 S
U326 O345 2.348 1_554 S
U326 O346 2.483 . S
U326 O347 2.414 1_554 S
O327 U326 2.502 . S
O327 C329 1.353 . S
O328 U326 2.532 . S
O328 C329 1.286 . S
C329 U326 3.051 . S
C329 O327 1.353 . S
C329 O328 1.286 . S
C329 C331 1.363 . S
C330 C320 1.465 . S
C330 U326 2.789 1_556 S
C330 O344 1.249 . S
C330 O345 1.202 . S
C331 C329 1.363 . S
C331 C333 1.408 . S
C331 C336 1.342 . S
C332 C333 1.310 . S
C332 C335 1.461 . S
C332 H352 0.932 . S
C333 C331 1.408 . S
C333 C332 1.310 . S
C333 H353 0.930 . S
C334 C335 1.474 . S
C334 C336 1.285 . S
C334 H354 0.929 . S
C335 C332 1.461 . S
C335 C334 1.474 . S
C336 C331 1.342 . S
C336 C334 1.285 . S
C336 H355 0.930 . S
C337 C340 1.405 1_554 S
C337 C342 1.267 . S
C337 C343 1.425 1_554 S
C338 C341 1.260 . S
C338 C342 1.477 . S
C338 H356 0.932 . S
C339 C340 1.384 . S
C339 C341 1.479 1_556 S
C339 H357 0.929 . S
C340 C337 1.405 1_556 S
C340 C339 1.384 . S
C340 H358 0.928 . S
C341 C338 1.260 . S
C341 C339 1.479 1_554 S
C342 C337 1.267 . S
C342 C338 1.477 . S
C342 H359 0.932 . S
C343 U326 2.880 1_556 S
C343 C337 1.425 1_556 S
C343 O346 1.277 1_556 S
C343 O347 1.309 . S
O344 U326 2.407 1_556 S
O344 C330 1.249 . S
O345 U326 2.348 1_556 S
O345 C330 1.202 . S
O346 U326 2.483 . S
O346 C343 1.277 1_554 S
O347 U326 2.414 1_556 S
O347 C343 1.309 . S
H348 C321 0.931 . S
H349 C323 0.929 . S
H350 C324 0.930 . S
H351 C325 0.931 . S
H352 C332 0.932 . S
H353 C333 0.930 . S
H354 C334 0.929 . S
H355 C336 0.930 . S
H356 C338 0.932 . S
H357 C339 0.929 . S
H358 C340 0.928 . S
H359 C342 0.932 . S
C360 C361 1.264 . S
C360 C365 1.479 . S
C360 C370 1.465 . S
C361 C360 1.264 . S
C361 C363 1.339 . S
C361 H388 0.931 . S
C362 C363 1.395 . S
C362 C364 1.320 . S
C363 C361 1.339 . S
C363 C362 1.395 . S
C363 H389 0.929 . S
C364 C362 1.320 . S
C364 C365 1.405 . S
C364 H390 0.930 . S
C365 C360 1.479 . S
C365 C364 1.405 . S
C365 H391 0.931 . S
U366 O367 2.454 . S
U366 O368 2.458 . S
U366 C369 2.984 . S
U366 C370 2.847 . S
U366 C383 2.882 . S
U366 O384 2.441 . S
U366 O385 2.420 . S
U366 O386 2.455 . S
U366 O387 2.449 . S
O367 U366 2.454 . S
O367 C369 1.353 . S
O368 U366 2.458 . S
O368 C369 1.286 . S
C369 U366 2.984 . S
C369 O367 1.353 . S
C369 O368 1.286 . S
C369 C371 1.363 . S
C370 C360 1.465 . S
C370 U366 2.847 . S
C370 O384 1.249 . S
C370 O385 1.202 . S
C371 C369 1.363 . S
C371 C373 1.408 . S
C371 C376 1.342 . S
C372 C373 1.310 . S
C372 C375 1.461 . S
C372 H392 0.932 . S
C373 C371 1.408 . S
C373 C372 1.310 . S
C373 H393 0.930 . S
C374 C375 1.474 . S
C374 C376 1.285 . S
C374 H394 0.929 . S
C375 C372 1.461 . S
C375 C374 1.474 . S
C376 C371 1.342 . S
C376 C374 1.285 . S
C376 H395 0.930 . S
C377 C380 1.424 . S
C377 C382 1.245 . S
C377 C383 1.428 . S
C378 C381 1.260 . S
C378 C382 1.477 . S
C378 H396 0.932 . S
C379 C380 1.384 . S
C379 C381 1.479 . S
C379 H397 0.929 . S
C380 C377 1.424 . S
C380 C379 1.384 . S
C380 H398 0.928 . S
C381 C378 1.260 . S
C381 C379 1.479 . S
C382 C377 1.245 . S
C382 C378 1.477 . S
C382 H399 0.932 . S
C383 U366 2.882 . S
C383 C377 1.428 . S
C383 O386 1.301 . S
C383 O387 1.282 . S
O384 U366 2.441 . S
O384 C370 1.249 . S
O385 U366 2.420 . S
O385 C370 1.202 . S
O386 U366 2.455 . S
O386 C383 1.301 . S
O387 U366 2.449 . S
O387 C383 1.282 . S
H388 C361 0.931 . S
H389 C363 0.929 . S
H390 C364 0.930 . S
H391 C365 0.931 . S
H392 C372 0.932 . S
H393 C373 0.930 . S
H394 C374 0.929 . S
H395 C376 0.930 . S
H396 C378 0.932 . S
H397 C379 0.929 . S
H398 C380 0.928 . S
H399 C382 0.932 . S
C400 C401 1.264 . S
C400 C405 1.479 . S
C400 C410 1.465 . S
C401 C400 1.264 . S
C401 C403 1.339 . S
C401 H428 0.931 . S
C402 C403 1.395 . S
C402 C404 1.320 . S
C403 C401 1.339 . S
C403 C402 1.395 . S
C403 H429 0.929 . S
C404 C402 1.320 . S
C404 C405 1.405 . S
C404 H430 0.930 . S
C405 C400 1.479 . S
C405 C404 1.405 . S
C405 H431 0.931 . S
U406 O407 2.454 . S
U406 O408 2.458 . S
U406 C409 2.984 . S
U406 C410 2.847 . S
U406 C423 2.882 . S
U406 O424 2.441 . S
U406 O425 2.420 . S
U406 O426 2.455 . S
U406 O427 2.449 . S
O407 U406 2.454 . S
O407 C409 1.353 . S
O408 U406 2.458 . S
O408 C409 1.286 . S
C409 U406 2.984 . S
C409 O407 1.353 . S
C409 O408 1.286 . S
C409 C411 1.363 . S
C410 C400 1.465 . S
C410 U406 2.847 . S
C410 O424 1.249 . S
C410 O425 1.202 . S
C411 C409 1.363 . S
C411 C413 1.408 . S
C411 C416 1.342 . S
C412 C413 1.310 . S
C412 C415 1.461 . S
C412 H432 0.932 . S
C413 C411 1.408 . S
C413 C412 1.310 . S
C413 H433 0.930 . S
C414 C415 1.474 . S
C414 C416 1.285 . S
C414 H434 0.929 . S
C415 C412 1.461 . S
C415 C414 1.474 . S
C416 C411 1.342 . S
C416 C414 1.285 . S
C416 H435 0.930 . S
C417 C420 1.424 . S
C417 C422 1.245 . S
C417 C423 1.428 . S
C418 C421 1.260 . S
C418 C422 1.477 . S
C418 H436 0.932 . S
C419 C420 1.384 . S
C419 C421 1.479 . S
C419 H437 0.929 . S
C420 C417 1.424 . S
C420 C419 1.384 . S
C420 H438 0.928 . S
C421 C418 1.260 . S
C421 C419 1.479 . S
C422 C417 1.245 . S
C422 C418 1.477 . S
C422 H439 0.932 . S
C423 U406 2.882 . S
C423 C417 1.428 . S
C423 O426 1.301 . S
C423 O427 1.282 . S
O424 U406 2.441 . S
O424 C410 1.249 . S
O425 U406 2.420 . S
O425 C410 1.202 . S
O426 U406 2.455 . S
O426 C423 1.301 . S
O427 U406 2.449 . S
O427 C423 1.282 . S
H428 C401 0.931 . S
H429 C403 0.929 . S
H430 C404 0.930 . S
H431 C405 0.931 . S
H432 C412 0.932 . S
H433 C413 0.930 . S
H434 C414 0.929 . S
H435 C416 0.930 . S
H436 C418 0.932 . S
H437 C419 0.929 . S
H438 C420 0.928 . S
H439 C422 0.932 . S
C440 C441 1.249 1_554 S
C440 C445 1.479 . S
C440 C450 1.465 . S
C441 C440 1.249 1_556 S
C441 C443 1.342 . S
C441 H468 0.944 . S
C442 C443 1.395 1_554 S
C442 C444 1.320 . S
C443 C441 1.342 . S
C443 C442 1.395 1_556 S
C443 H469 0.929 . S
C444 C442 1.320 . S
C444 C445 1.405 . S
C444 H470 0.930 . S
C445 C440 1.479 . S
C445 C444 1.405 . S
C445 H471 0.931 . S
U446 O447 2.454 . S
U446 O448 2.458 . S
U446 C449 2.984 . S
U446 C450 2.847 . S
U446 C463 2.882 1_554 S
U446 O464 2.441 . S
U446 O465 2.420 . S
U446 O466 2.459 1_554 S
U446 O467 2.449 1_554 S
O447 U446 2.454 . S
O447 C449 1.353 . S
O448 U446 2.458 . S
O448 C449 1.286 . S
C449 U446 2.984 . S
C449 O447 1.353 . S
C449 O448 1.286 . S
C449 C451 1.363 . S
C450 C440 1.465 . S
C450 U446 2.847 . S
C450 O464 1.249 . S
C450 O465 1.202 . S
C451 C449 1.363 . S
C451 C453 1.408 . S
C451 C456 1.342 . S
C452 C453 1.310 . S
C452 C455 1.461 . S
C452 H472 0.932 . S
C453 C451 1.408 . S
C453 C452 1.310 . S
C453 H473 0.930 . S
C454 C455 1.474 . S
C454 C456 1.285 . S
C454 H474 0.929 . S
C455 C452 1.461 . S
C455 C454 1.474 . S
C456 C451 1.342 . S
C456 C454 1.285 . S
C456 H475 0.930 . S
C457 C460 1.424 . S
C457 C462 1.245 . S
C457 C463 1.428 . S
C458 C461 1.260 . S
C458 C462 1.477 . S
C458 H476 0.932 . S
C459 C460 1.384 . S
C459 C461 1.479 . S
C459 H477 0.929 . S
C460 C457 1.424 . S
C460 C459 1.384 . S
C460 H478 0.928 . S
C461 C458 1.260 . S
C461 C459 1.479 . S
C462 C457 1.245 . S
C462 C458 1.477 . S
C462 H479 0.932 . S
C463 U446 2.882 1_556 S
C463 C457 1.428 . S
C463 O466 1.294 . S
C463 O467 1.282 . S
O464 U446 2.441 . S
O464 C450 1.249 . S
O465 U446 2.420 . S
O465 C450 1.202 . S
O466 U446 2.459 1_556 S
O466 C463 1.294 . S
O467 U446 2.449 1_556 S
O467 C463 1.282 . S
H468 C441 0.944 . S
H469 C443 0.929 . S
H470 C444 0.930 . S
H471 C445 0.931 . S
H472 C452 0.932 . S
H473 C453 0.930 . S
H474 C454 0.929 . S
H475 C456 0.930 . S
H476 C458 0.932 . S
H477 C459 0.929 . S
H478 C460 0.928 . S
H479 C462 0.932 . S
C480 C481 1.264 . S
C480 C485 1.479 . S
C480 C490 1.465 . S
C481 C480 1.264 . S
C481 C483 1.339 . S
C481 H508 0.931 . S
C482 C483 1.395 . S
C482 C484 1.320 . S
C483 C481 1.339 . S
C483 C482 1.395 . S
C483 H509 0.929 . S
C484 C482 1.320 . S
C484 C485 1.405 . S
C484 H510 0.930 1_455 S
C485 C480 1.479 . S
C485 C484 1.405 . S
C485 H511 0.931 1_455 S
U486 O487 2.454 1_455 S
U486 O488 2.428 1_455 S
U486 C489 2.984 1_455 S
U486 C490 2.847 . S
U486 C503 2.882 . S
U486 O504 2.441 . S
U486 O505 2.420 . S
U486 O506 2.455 . S
U486 O507 2.449 . S
O487 U486 2.454 1_655 S
O487 C489 1.353 . S
O488 U486 2.428 1_655 S
O488 C489 1.330 . S
C489 U486 2.984 1_655 S
C489 O487 1.353 . S
C489 O488 1.330 . S
C489 C491 1.363 . S
C490 C480 1.465 . S
C490 U486 2.847 . S
C490 O504 1.249 . S
C490 O505 1.202 . S
C491 C489 1.363 . S
C491 C493 1.408 . S
C491 C496 1.342 . S
C492 C493 1.310 . S
C492 C495 1.461 . S
C492 H512 0.932 . S
C493 C491 1.408 . S
C493 C492 1.310 . S
C493 H513 0.930 . S
C494 C495 1.474 . S
C494 C496 1.285 . S
C494 H514 0.929 . S
C495 C492 1.461 . S
C495 C494 1.474 . S
C496 C491 1.342 . S
C496 C494 1.285 . S
C496 H515 0.930 . S
C497 C500 1.424 . S
C497 C502 1.245 . S
C497 C503 1.428 . S
C498 C501 1.260 . S
C498 C502 1.477 . S
C498 H516 0.932 . S
C499 C500 1.384 . S
C499 C501 1.479 . S
C499 H517 0.929 . S
C500 C497 1.424 . S
C500 C499 1.384 . S
C500 H518 0.928 . S
C501 C498 1.260 . S
C501 C499 1.479 . S
C502 C497 1.245 . S
C502 C498 1.477 . S
C502 H519 0.932 . S
C503 U486 2.882 . S
C503 C497 1.428 . S
C503 O506 1.301 . S
C503 O507 1.282 . S
O504 U486 2.441 . S
O504 C490 1.249 . S
O505 U486 2.420 . S
O505 C490 1.202 . S
O506 U486 2.455 . S
O506 C503 1.301 . S
O507 U486 2.449 . S
O507 C503 1.282 . S
H508 C481 0.931 . S
H509 C483 0.929 . S
H510 C484 0.930 1_655 S
H511 C485 0.931 1_655 S
H512 C492 0.932 . S
H513 C493 0.930 . S
H514 C494 0.929 . S
H515 C496 0.930 . S
H516 C498 0.932 . S
H517 C499 0.929 . S
H518 C500 0.928 . S
H519 C502 0.932 . S
C520 C521 1.264 . S
C520 C525 1.479 . S
C520 C530 1.465 . S
C521 C520 1.264 . S
C521 C523 1.339 . S
C521 H548 0.931 . S
C522 C523 1.395 . S
C522 C524 1.320 . S
C523 C521 1.339 . S
C523 C522 1.395 . S
C523 H549 0.929 . S
C524 C522 1.320 . S
C524 C525 1.405 . S
C524 H550 0.930 . S
C525 C520 1.479 . S
C525 C524 1.405 . S
C525 H551 0.931 . S
U526 O527 2.454 . S
U526 O528 2.458 . S
U526 C529 2.984 . S
U526 C530 2.847 . S
U526 C543 2.882 . S
U526 O544 2.441 . S
U526 O545 2.420 . S
U526 O546 2.455 . S
U526 O547 2.449 . S
O527 U526 2.454 . S
O527 C529 1.353 . S
O528 U526 2.458 . S
O528 C529 1.286 . S
C529 U526 2.984 . S
C529 O527 1.353 . S
C529 O528 1.286 . S
C529 C531 1.363 . S
C530 C520 1.465 . S
C530 U526 2.847 . S
C530 O544 1.249 . S
C530 O545 1.202 . S
C531 C529 1.363 . S
C531 C533 1.408 . S
C531 C536 1.342 . S
C532 C533 1.310 . S
C532 C535 1.461 . S
C532 H552 0.932 . S
C533 C531 1.408 . S
C533 C532 1.310 . S
C533 H553 0.930 . S
C534 C535 1.474 . S
C534 C536 1.285 . S
C534 H554 0.929 . S
C535 C532 1.461 . S
C535 C534 1.474 . S
C536 C531 1.342 . S
C536 C534 1.285 . S
C536 H555 0.930 . S
C537 C540 1.424 . S
C537 C542 1.245 . S
C537 C543 1.428 . S
C538 C541 1.260 . S
C538 C542 1.477 . S
C538 H556 0.932 . S
C539 C540 1.384 . S
C539 C541 1.479 . S
C539 H557 0.929 . S
C540 C537 1.424 . S
C540 C539 1.384 . S
C540 H558 0.928 . S
C541 C538 1.260 . S
C541 C539 1.479 . S
C542 C537 1.245 . S
C542 C538 1.477 . S
C542 H559 0.932 . S
C543 U526 2.882 . S
C543 C537 1.428 . S
C543 O546 1.301 . S
C543 O547 1.282 . S
O544 U526 2.441 . S
O544 C530 1.249 . S
O545 U526 2.420 . S
O545 C530 1.202 . S
O546 U526 2.455 . S
O546 C543 1.301 . S
O547 U526 2.449 . S
O547 C543 1.282 . S
H548 C521 0.931 . S
H549 C523 0.929 . S
H550 C524 0.930 . S
H551 C525 0.931 . S
H552 C532 0.932 . S
H553 C533 0.930 . S
H554 C534 0.929 . S
H555 C536 0.930 . S
H556 C538 0.932 . S
H557 C539 0.929 . S
H558 C540 0.928 . S
H559 C542 0.932 . S
C560 C561 1.264 . S
C560 C565 1.479 . S
C560 C570 1.465 . S
C561 C560 1.264 . S
C561 C563 1.339 . S
C561 H588 0.931 . S
C562 C563 1.395 . S
C562 C564 1.320 . S
C563 C561 1.339 . S
C563 C562 1.395 . S
C563 H589 0.929 . S
C564 C562 1.320 . S
C564 C565 1.405 . S
C564 H590 0.930 . S
C565 C560 1.479 . S
C565 C564 1.405 . S
C565 H591 0.931 . S
U566 O567 2.454 . S
U566 O568 2.458 . S
U566 C569 2.984 . S
U566 C570 2.847 . S
U566 C583 2.882 . S
U566 O584 2.441 . S
U566 O585 2.420 . S
U566 O586 2.455 . S
U566 O587 2.449 . S
O567 U566 2.454 . S
O567 C569 1.353 . S
O568 U566 2.458 . S
O568 C569 1.286 . S
C569 U566 2.984 . S
C569 O567 1.353 . S
C569 O568 1.286 . S
C569 C571 1.363 . S
C570 C560 1.465 . S
C570 U566 2.847 . S
C570 O584 1.249 . S
C570 O585 1.202 . S
C571 C569 1.363 . S
C571 C573 1.408 . S
C571 C576 1.342 . S
C572 C573 1.310 . S
C572 C575 1.461 . S
C572 H592 0.932 . S
C573 C571 1.408 . S
C573 C572 1.310 . S
C573 H593 0.930 . S
C574 C575 1.474 . S
C574 C576 1.285 . S
C574 H594 0.929 . S
C575 C572 1.461 . S
C575 C574 1.474 . S
C576 C571 1.342 . S
C576 C574 1.285 . S
C576 H595 0.930 . S
C577 C580 1.424 . S
C577 C582 1.245 . S
C577 C583 1.428 . S
C578 C581 1.260 . S
C578 C582 1.477 . S
C578 H596 0.932 . S
C579 C580 1.384 . S
C579 C581 1.479 . S
C579 H597 0.929 . S
C580 C577 1.424 . S
C580 C579 1.384 . S
C580 H598 0.928 . S
C581 C578 1.260 . S
C581 C579 1.479 . S
C582 C577 1.245 . S
C582 C578 1.477 . S
C582 H599 0.932 . S
C583 U566 2.882 . S
C583 C577 1.428 . S
C583 O586 1.301 . S
C583 O587 1.282 . S
O584 U566 2.441 . S
O584 C570 1.249 . S
O585 U566 2.420 . S
O585 C570 1.202 . S
O586 U566 2.455 . S
O586 C583 1.301 . S
O587 U566 2.449 . S
O587 C583 1.282 . S
H588 C561 0.931 . S
H589 C563 0.929 . S
H590 C564 0.930 . S
H591 C565 0.931 . S
H592 C572 0.932 . S
H593 C573 0.930 . S
H594 C574 0.929 . S
H595 C576 0.930 . S
H596 C578 0.932 . S
H597 C579 0.929 . S
H598 C580 0.928 . S
H599 C582 0.932 . S
C600 C601 1.264 . S
C600 C605 1.479 1_545 S
C600 C610 1.465 . S
C601 C600 1.264 . S
C601 C603 1.339 . S
C601 H628 0.931 . S
C602 C603 1.395 . S
C602 C604 1.320 1_545 S
C603 C601 1.339 . S
C603 C602 1.395 . S
C603 H629 0.929 . S
C604 C602 1.320 1_565 S
C604 C605 1.405 . S
C604 H630 0.930 . S
C605 C600 1.479 1_565 S
C605 C604 1.405 . S
C605 H631 0.931 . S
U606 O607 2.454 1_545 S
U606 O608 2.458 1_545 S
U606 C609 2.984 1_545 S
U606 C610 2.847 . S
U606 C623 2.882 . S
U606 O624 2.441 1_545 S
U606 O625 2.420 . S
U606 O626 2.455 . S
U606 O627 2.449 . S
O607 U606 2.454 1_565 S
O607 C609 1.353 . S
O608 U606 2.458 1_565 S
O608 C609 1.286 . S
C609 U606 2.984 1_565 S
C609 O607 1.353 . S
C609 O608 1.286 . S
C609 C611 1.363 . S
C610 C600 1.465 . S
C610 U606 2.847 . S
C610 O624 1.249 1_545 S
C610 O625 1.202 . S
C611 C609 1.363 . S
C611 C613 1.408 . S
C611 C616 1.342 . S
C612 C613 1.310 . S
C612 C615 1.461 . S
C612 H632 0.932 . S
C613 C611 1.408 . S
C613 C612 1.310 . S
C613 H633 0.930 . S
C614 C615 1.474 . S
C614 C616 1.285 . S
C614 H634 0.929 . S
C615 C612 1.461 . S
C615 C614 1.474 . S
C616 C611 1.342 . S
C616 C614 1.285 . S
C616 H635 0.930 . S
C617 C620 1.424 . S
C617 C622 1.245 . S
C617 C623 1.428 . S
C618 C621 1.260 . S
C618 C622 1.477 . S
C618 H636 0.932 . S
C619 C620 1.384 . S
C619 C621 1.479 . S
C619 H637 0.929 . S
C620 C617 1.424 . S
C620 C619 1.384 . S
C620 H638 0.928 . S
C621 C618 1.260 . S
C621 C619 1.479 . S
C622 C617 1.245 . S
C622 C618 1.477 . S
C622 H639 0.932 . S
C623 U606 2.882 . S
C623 C617 1.428 . S
C623 O626 1.301 . S
C623 O627 1.282 . S
O624 U606 2.441 1_565 S
O624 C610 1.249 1_565 S
O625 U606 2.420 . S
O625 C610 1.202 . S
O626 U606 2.455 . S
O626 C623 1.301 . S
O627 U606 2.449 . S
O627 C623 1.282 . S
H628 C601 0.931 . S
H629 C603 0.929 . S
H630 C604 0.930 . S
H631 C605 0.931 . S
H632 C612 0.932 . S
H633 C613 0.930 . S
H634 C614 0.929 . S
H635 C616 0.930 . S
H636 C618 0.932 . S
H637 C619 0.929 . S
H638 C620 0.928 . S
H639 C622 0.932 . S
C640 C641 1.264 . S
C640 C645 1.479 . S
C640 C650 1.465 . S
C641 C640 1.264 . S
C641 C643 1.339 . S
C641 H668 0.931 . S
C642 C643 1.395 . S
C642 C644 1.320 . S
C643 C641 1.339 . S
C643 C642 1.395 . S
C643 H669 0.929 . S
C644 C642 1.320 . S
C644 C645 1.405 . S
C644 H670 0.930 1_455 S
C645 C640 1.479 . S
C645 C644 1.405 . S
C645 H671 0.931 1_455 S
U646 O647 2.454 1_455 S
U646 O648 2.420 1_455 S
U646 C649 2.984 1_455 S
U646 C650 2.847 . S
U646 C663 2.882 . S
U646 O664 2.441 . S
U646 O665 2.420 . S
U646 O666 2.455 . S
U646 O667 2.449 . S
O647 U646 2.454 1_655 S
O647 C649 1.353 . S
O648 U646 2.420 1_655 S
O648 C649 1.342 . S
C649 U646 2.984 1_655 S
C649 O647 1.353 . S
C649 O648 1.342 . S
C649 C651 1.363 . S
C650 C640 1.465 . S
C650 U646 2.847 . S
C650 O664 1.249 . S
C650 O665 1.202 . S
C651 C649 1.363 . S
C651 C653 1.408 . S
C651 C656 1.342 . S
C652 C653 1.310 . S
C652 C655 1.461 . S
C652 H672 0.932 . S
C653 C651 1.408 . S
C653 C652 1.310 . S
C653 H673 0.930 . S
C654 C655 1.474 . S
C654 C656 1.285 . S
C654 H674 0.929 . S
C655 C652 1.461 . S
C655 C654 1.474 . S
C656 C651 1.342 . S
C656 C654 1.285 . S
C656 H675 0.930 . S
C657 C660 1.424 . S
C657 C662 1.245 . S
C657 C663 1.428 . S
C658 C661 1.260 . S
C658 C662 1.477 . S
C658 H676 0.932 . S
C659 C660 1.384 . S
C659 C661 1.479 . S
C659 H677 0.929 . S
C660 C657 1.424 . S
C660 C659 1.384 . S
C660 H678 0.928 . S
C661 C658 1.260 . S
C661 C659 1.479 . S
C662 C657 1.245 . S
C662 C658 1.477 . S
C662 H679 0.932 . S
C663 U646 2.882 . S
C663 C657 1.428 . S
C663 O666 1.301 . S
C663 O667 1.282 . S
O664 U646 2.441 . S
O664 C650 1.249 . S
O665 U646 2.420 . S
O665 C650 1.202 . S
O666 U646 2.455 . S
O666 C663 1.301 . S
O667 U646 2.449 . S
O667 C663 1.282 . S
H668 C641 0.931 . S
H669 C643 0.929 . S
H670 C644 0.930 1_655 S
H671 C645 0.931 1_655 S
H672 C652 0.932 . S
H673 C653 0.930 . S
H674 C654 0.929 . S
H675 C656 0.930 . S
H676 C658 0.932 . S
H677 C659 0.929 . S
H678 C660 0.928 . S
H679 C662 0.932 . S
C680 C681 1.264 . S
C680 C685 1.479 . S
C680 C690 1.465 . S
C681 C680 1.264 . S
C681 C683 1.339 . S
C681 H708 0.931 . S
C682 C683 1.395 . S
C682 C684 1.320 . S
C683 C681 1.339 . S
C683 C682 1.395 . S
C683 H709 0.929 . S
C684 C682 1.320 . S
C684 C685 1.405 . S
C684 H710 0.930 . S
C685 C680 1.479 . S
C685 C684 1.405 . S
C685 H711 0.931 . S
U686 O687 2.454 . S
U686 O688 2.458 . S
U686 C689 2.984 . S
U686 C690 2.847 . S
U686 C703 2.882 . S
U686 O704 2.441 . S
U686 O705 2.420 . S
U686 O706 2.455 . S
U686 O707 2.449 . S
O687 U686 2.454 . S
O687 C689 1.353 . S
O688 U686 2.458 . S
O688 C689 1.286 . S
C689 U686 2.984 . S
C689 O687 1.353 . S
C689 O688 1.286 . S
C689 C691 1.363 . S
C690 C680 1.465 . S
C690 U686 2.847 . S
C690 O704 1.249 . S
C690 O705 1.202 . S
C691 C689 1.363 . S
C691 C693 1.408 . S
C691 C696 1.342 . S
C692 C693 1.310 . S
C692 C695 1.461 . S
C692 H712 0.932 . S
C693 C691 1.408 . S
C693 C692 1.310 . S
C693 H713 0.930 . S
C694 C695 1.474 . S
C694 C696 1.285 . S
C694 H714 0.929 . S
C695 C692 1.461 . S
C695 C694 1.474 . S
C696 C691 1.342 . S
C696 C694 1.285 . S
C696 H715 0.930 . S
C697 C700 1.424 . S
C697 C702 1.245 . S
C697 C703 1.428 . S
C698 C701 1.260 . S
C698 C702 1.477 . S
C698 H716 0.932 . S
C699 C700 1.384 . S
C699 C701 1.479 . S
C699 H717 0.929 . S
C700 C697 1.424 . S
C700 C699 1.384 . S
C700 H718 0.928 . S
C701 C698 1.260 . S
C701 C699 1.479 . S
C702 C697 1.245 . S
C702 C698 1.477 . S
C702 H719 0.932 . S
C703 U686 2.882 . S
C703 C697 1.428 . S
C703 O706 1.301 . S
C703 O707 1.282 . S
O704 U686 2.441 . S
O704 C690 1.249 . S
O705 U686 2.420 . S
O705 C690 1.202 . S
O706 U686 2.455 . S
O706 C703 1.301 . S
O707 U686 2.449 . S
O707 C703 1.282 . S
H708 C681 0.931 . S
H709 C683 0.929 . S
H710 C684 0.930 . S
H711 C685 0.931 . S
H712 C692 0.932 . S
H713 C693 0.930 . S
H714 C694 0.929 . S
H715 C696 0.930 . S
H716 C698 0.932 . S
H717 C699 0.929 . S
H718 C700 0.928 . S
H719 C702 0.932 . S
C720 C721 1.264 . S
C720 C725 1.479 . S
C720 C730 1.465 . S
C721 C720 1.264 . S
C721 C723 1.339 . S
C721 H748 0.931 . S
C722 C723 1.395 . S
C722 C724 1.320 . S
C723 C721 1.339 . S
C723 C722 1.395 . S
C723 H749 0.929 . S
C724 C722 1.320 . S
C724 C725 1.405 . S
C724 H750 0.930 . S
C725 C720 1.479 . S
C725 C724 1.405 . S
C725 H751 0.931 . S
U726 O727 2.454 . S
U726 O728 2.458 . S
U726 C729 2.984 . S
U726 C730 2.847 . S
U726 C743 2.882 . S
U726 O744 2.441 . S
U726 O745 2.420 . S
U726 O746 2.455 . S
U726 O747 2.449 . S
O727 U726 2.454 . S
O727 C729 1.353 . S
O728 U726 2.458 . S
O728 C729 1.286 . S
C729 U726 2.984 . S
C729 O727 1.353 . S
C729 O728 1.286 . S
C729 C731 1.363 . S
C730 C720 1.465 . S
C730 U726 2.847 . S
C730 O744 1.249 . S
C730 O745 1.202 . S
C731 C729 1.363 . S
C731 C733 1.408 . S
C731 C736 1.342 . S
C732 C733 1.310 . S
C732 C735 1.461 . S
C732 H752 0.932 . S
C733 C731 1.408 . S
C733 C732 1.310 . S
C733 H753 0.930 . S
C734 C735 1.474 . S
C734 C736 1.285 . S
C734 H754 0.929 . S
C735 C732 1.461 . S
C735 C734 1.474 . S
C736 C731 1.342 . S
C736 C734 1.285 . S
C736 H755 0.930 . S
C737 C740 1.424 . S
C737 C742 1.245 . S
C737 C743 1.428 . S
C738 C741 1.260 . S
C738 C742 1.477 . S
C738 H756 0.932 . S
C739 C740 1.384 . S
C739 C741 1.479 . S
C739 H757 0.929 . S
C740 C737 1.424 . S
C740 C739 1.384 . S
C740 H758 0.928 . S
C741 C738 1.260 . S
C741 C739 1.479 . S
C742 C737 1.245 . S
C742 C738 1.477 . S
C742 H759 0.932 . S
C743 U726 2.882 . S
C743 C737 1.428 . S
C743 O746 1.301 . S
C743 O747 1.282 . S
O744 U726 2.441 . S
O744 C730 1.249 . S
O745 U726 2.420 . S
O745 C730 1.202 . S
O746 U726 2.455 . S
O746 C743 1.301 . S
O747 U726 2.449 . S
O747 C743 1.282 . S
H748 C721 0.931 . S
H749 C723 0.929 . S
H750 C724 0.930 . S
H751 C725 0.931 . S
H752 C732 0.932 . S
H753 C733 0.930 . S
H754 C734 0.929 . S
H755 C736 0.930 . S
H756 C738 0.932 . S
H757 C739 0.929 . S
H758 C740 0.928 . S
H759 C742 0.932 . S
C760 C761 1.264 . S
C760 C765 1.479 . S
C760 C770 1.465 . S
C761 C760 1.264 . S
C761 C763 1.339 . S
C761 H788 0.931 . S
C762 C763 1.395 . S
C762 C764 1.320 . S
C763 C761 1.339 . S
C763 C762 1.395 . S
C763 H789 0.929 . S
C764 C762 1.320 . S
C764 C765 1.405 . S
C764 H790 0.930 . S
C765 C760 1.479 . S
C765 C764 1.405 . S
C765 H791 0.931 . S
U766 O767 2.454 . S
U766 O768 2.458 . S
U766 C769 2.984 . S
U766 C770 2.847 1_545 S
U766 C783 2.882 . S
U766 O784 2.441 . S
U766 O785 2.358 1_545 S
U766 O786 2.455 . S
U766 O787 2.449 . S
O767 U766 2.454 . S
O767 C769 1.353 . S
O768 U766 2.458 . S
O768 C769 1.286 . S
C769 U766 2.984 . S
C769 O767 1.353 . S
C769 O768 1.286 . S
C769 C771 1.363 . S
C770 C760 1.465 . S
C770 U766 2.847 1_565 S
C770 O784 1.249 1_565 S
C770 O785 1.218 . S
C771 C769 1.363 . S
C771 C773 1.408 . S
C771 C776 1.342 . S
C772 C773 1.310 . S
C772 C775 1.461 . S
C772 H792 0.932 . S
C773 C771 1.408 . S
C773 C772 1.310 . S
C773 H793 0.930 . S
C774 C775 1.474 . S
C774 C776 1.285 . S
C774 H794 0.929 . S
C775 C772 1.461 . S
C775 C774 1.474 . S
C776 C771 1.342 . S
C776 C774 1.285 . S
C776 H795 0.930 . S
C777 C780 1.424 . S
C777 C782 1.245 . S
C777 C783 1.428 . S
C778 C781 1.260 . S
C778 C782 1.477 . S
C778 H796 0.932 . S
C779 C780 1.384 . S
C779 C781 1.479 . S
C779 H797 0.929 1_545 S
C780 C777 1.424 . S
C780 C779 1.384 . S
C780 H798 0.928 1_545 S
C781 C778 1.260 . S
C781 C779 1.479 . S
C782 C777 1.245 . S
C782 C778 1.477 . S
C782 H799 0.932 . S
C783 U766 2.882 . S
C783 C777 1.428 . S
C783 O786 1.301 . S
C783 O787 1.282 . S
O784 U766 2.441 . S
O784 C770 1.249 1_545 S
O785 U766 2.358 1_565 S
O785 C770 1.218 . S
O786 U766 2.455 . S
O786 C783 1.301 . S
O787 U766 2.449 . S
O787 C783 1.282 . S
H788 C761 0.931 . S
H789 C763 0.929 . S
H790 C764 0.930 . S
H791 C765 0.931 . S
H792 C772 0.932 . S
H793 C773 0.930 . S
H794 C774 0.929 . S
H795 C776 0.930 . S
H796 C778 0.932 . S
H797 C779 0.929 1_565 S
H798 C780 0.928 1_565 S
H799 C782 0.932 . S
C800 C801 1.311 . S
C800 C805 1.434 1_556 S
C800 C810 1.464 . S
C801 C800 1.311 . S
C801 C803 1.339 . S
C801 H828 0.931 . S
C802 C803 1.344 1_554 S
C802 C804 1.372 . S
C803 C801 1.339 . S
C803 C802 1.344 1_556 S
C803 H829 0.929 . S
C804 C802 1.372 . S
C804 C805 1.405 . S
C804 H830 0.930 . S
C805 C800 1.434 1_554 S
C805 C804 1.405 . S
C805 H831 0.931 . S
U806 O807 2.462 . S
U806 O808 2.463 . S
U806 C809 2.992 . S
U806 C810 2.847 1_554 S
U806 C823 2.876 1_554 S
U806 O824 2.444 . S
U806 O825 2.417 1_554 S
U806 O826 2.451 1_554 S
U806 O827 2.441 1_554 S
O807 U806 2.462 . S
O807 C809 1.353 . S
O808 U806 2.463 . S
O808 C809 1.286 . S
C809 U806 2.992 . S
C809 O807 1.353 . S
C809 O808 1.286 . S
C809 C811 1.363 . S
C810 C800 1.464 . S
C810 U806 2.847 1_556 S
C810 O824 1.236 1_556 S
C810 O825 1.216 . S
C811 C809 1.363 . S
C811 C813 1.408 . S
C811 C816 1.342 . S
C812 C813 1.310 . S
C812 C815 1.461 . S
C812 H832 0.932 . S
C813 C811 1.408 . S
C813 C812 1.310 . S
C813 H833 0.930 . S
C814 C815 1.474 . S
C814 C816 1.285 . S
C814 H834 0.929 . S
C815 C812 1.461 . S
C815 C814 1.474 . S
C816 C811 1.342 . S
C816 C814 1.285 . S
C816 H835 0.930 . S
C817 C820 1.424 . S
C817 C822 1.245 . S
C817 C823 1.428 . S
C818 C821 1.260 . S
C818 C822 1.477 . S
C818 H836 0.932 . S
C819 C820 1.384 . S
C819 C821 1.479 . S
C819 H837 0.929 . S
C820 C817 1.424 . S
C820 C819 1.384 . S
C820 H838 0.928 . S
C821 C818 1.260 . S
C821 C819 1.479 . S
C822 C817 1.245 . S
C822 C818 1.477 . S
C822 H839 0.932 . S
C823 U806 2.876 1_556 S
C823 C817 1.428 . S
C823 O826 1.301 . S
C823 O827 1.282 . S
O824 U806 2.444 . S
O824 C810 1.236 1_554 S
O825 U806 2.417 1_556 S
O825 C810 1.216 . S
O826 U806 2.451 1_556 S
O826 C823 1.301 . S
O827 U806 2.441 1_556 S
O827 C823 1.282 . S
H828 C801 0.931 . S
H829 C803 0.929 . S
H830 C804 0.930 . S
H831 C805 0.931 . S
H832 C812 0.932 . S
H833 C813 0.930 . S
H834 C814 0.929 . S
H835 C816 0.930 . S
H836 C818 0.932 . S
H837 C819 0.929 . S
H838 C820 0.928 . S
H839 C822 0.932 . S
C840 C841 1.264 . S
C840 C845 1.479 . S
C840 C850 1.465 . S
C841 C840 1.264 . S
C841 C843 1.339 . S
C841 H868 0.931 . S
C842 C843 1.395 . S
C842 C844 1.320 . S
C843 C841 1.339 . S
C843 C842 1.395 . S
C843 H869 0.929 . S
C844 C842 1.320 . S
C844 C845 1.405 . S
C844 H870 0.930 . S
C845 C840 1.479 . S
C845 C844 1.405 . S
C845 H871 0.931 . S
U846 O847 2.454 . S
U846 O848 2.458 . S
U846 C849 2.984 . S
U846 C850 2.847 . S
U846 C863 2.882 . S
U846 O864 2.441 . S
U846 O865 2.420 . S
U846 O866 2.455 . S
U846 O867 2.449 . S
O847 U846 2.454 . S
O847 C849 1.353 . S
O848 U846 2.458 . S
O848 C849 1.286 . S
C849 U846 2.984 . S
C849 O847 1.353 . S
C849 O848 1.286 . S
C849 C851 1.363 . S
C850 C840 1.465 . S
C850 U846 2.847 . S
C850 O864 1.249 . S
C850 O865 1.202 . S
C851 C849 1.363 . S
C851 C853 1.408 . S
C851 C856 1.342 . S
C852 C853 1.310 . S
C852 C855 1.461 . S
C852 H872 0.932 . S
C853 C851 1.408 . S
C853 C852 1.310 . S
C853 H873 0.930 . S
C854 C855 1.474 . S
C854 C856 1.285 . S
C854 H874 0.929 . S
C855 C852 1.461 . S
C855 C854 1.474 . S
C856 C851 1.342 . S
C856 C854 1.285 . S
C856 H875 0.930 . S
C857 C860 1.424 . S
C857 C862 1.245 . S
C857 C863 1.428 . S
C858 C861 1.260 . S
C858 C862 1.477 . S
C858 H876 0.932 . S
C859 C860 1.384 . S
C859 C861 1.479 . S
C859 H877 0.929 . S
C860 C857 1.424 . S
C860 C859 1.384 . S
C860 H878 0.928 . S
C861 C858 1.260 . S
C861 C859 1.479 . S
C862 C857 1.245 . S
C862 C858 1.477 . S
C862 H879 0.932 . S
C863 U846 2.882 . S
C863 C857 1.428 . S
C863 O866 1.301 . S
C863 O867 1.282 . S
O864 U846 2.441 . S
O864 C850 1.249 . S
O865 U846 2.420 . S
O865 C850 1.202 . S
O866 U846 2.455 . S
O866 C863 1.301 . S
O867 U846 2.449 . S
O867 C863 1.282 . S
H868 C841 0.931 . S
H869 C843 0.929 . S
H870 C844 0.930 . S
H871 C845 0.931 . S
H872 C852 0.932 . S
H873 C853 0.930 . S
H874 C854 0.929 . S
H875 C856 0.930 . S
H876 C858 0.932 . S
H877 C859 0.929 . S
H878 C860 0.928 . S
H879 C862 0.932 . S
C880 C881 1.264 . S
C880 C885 1.479 . S
C880 C890 1.465 . S
C881 C880 1.264 . S
C881 C883 1.339 . S
C881 H908 0.931 . S
C882 C883 1.395 . S
C882 C884 1.320 . S
C883 C881 1.339 . S
C883 C882 1.395 . S
C883 H909 0.929 . S
C884 C882 1.320 . S
C884 C885 1.405 . S
C884 H910 0.930 . S
C885 C880 1.479 . S
C885 C884 1.405 . S
C885 H911 0.931 . S
U886 O887 2.454 . S
U886 O888 2.458 . S
U886 C889 2.984 . S
U886 C890 2.847 . S
U886 C903 2.882 . S
U886 O904 2.441 . S
U886 O905 2.420 . S
U886 O906 2.455 . S
U886 O907 2.449 . S
O887 U886 2.454 . S
O887 C889 1.353 . S
O888 U886 2.458 . S
O888 C889 1.286 . S
C889 U886 2.984 . S
C889 O887 1.353 . S
C889 O888 1.286 . S
C889 C891 1.363 . S
C890 C880 1.465 . S
C890 U886 2.847 . S
C890 O904 1.249 . S
C890 O905 1.202 . S
C891 C889 1.363 . S
C891 C893 1.408 . S
C891 C896 1.342 . S
C892 C893 1.310 . S
C892 C895 1.461 . S
C892 H912 0.932 . S
C893 C891 1.408 . S
C893 C892 1.310 . S
C893 H913 0.930 . S
C894 C895 1.474 . S
C894 C896 1.285 . S
C894 H914 0.929 . S
C895 C892 1.461 . S
C895 C894 1.474 . S
C896 C891 1.342 . S
C896 C894 1.285 . S
C896 H915 0.930 . S
C897 C900 1.424 . S
C897 C902 1.245 . S
C897 C903 1.428 . S
C898 C901 1.260 . S
C898 C902 1.477 . S
C898 H916 0.932 . S
C899 C900 1.384 . S
C899 C901 1.479 . S
C899 H917 0.929 . S
C900 C897 1.424 . S
C900 C899 1.384 . S
C900 H918 0.928 . S
C901 C898 1.260 . S
C901 C899 1.479 . S
C902 C897 1.245 . S
C902 C898 1.477 . S
C902 H919 0.932 . S
C903 U886 2.882 . S
C903 C897 1.428 . S
C903 O906 1.301 . S
C903 O907 1.282 . S
O904 U886 2.441 . S
O904 C890 1.249 . S
O905 U886 2.420 . S
O905 C890 1.202 . S
O906 U886 2.455 . S
O906 C903 1.301 . S
O907 U886 2.449 . S
O907 C903 1.282 . S
H908 C881 0.931 . S
H909 C883 0.929 . S
H910 C884 0.930 . S
H911 C885 0.931 . S
H912 C892 0.932 . S
H913 C893 0.930 . S
H914 C894 0.929 . S
H915 C896 0.930 . S
H916 C898 0.932 . S
H917 C899 0.929 . S
H918 C900 0.928 . S
H919 C902 0.932 . S
C920 C921 1.264 . S
C920 C925 1.479 . S
C920 C930 1.465 . S
C921 C920 1.264 . S
C921 C923 1.339 . S
C921 H948 0.931 . S
C922 C923 1.395 . S
C922 C924 1.320 . S
C923 C921 1.339 . S
C923 C922 1.395 . S
C923 H949 0.929 . S
C924 C922 1.320 . S
C924 C925 1.405 . S
C924 H950 0.930 . S
C925 C920 1.479 . S
C925 C924 1.405 . S
C925 H951 0.931 . S
U926 O927 2.454 . S
U926 O928 2.458 . S
U926 C929 2.984 . S
U926 C930 2.847 1_554 S
U926 C943 2.882 . S
U926 O944 2.441 1_554 S
U926 O945 2.420 1_554 S
U926 O946 2.455 . S
U926 O947 2.449 . S
O927 U926 2.454 . S
O927 C929 1.353 . S
O928 U926 2.458 . S
O928 C929 1.286 . S
C929 U926 2.984 . S
C929 O927 1.353 . S
C929 O928 1.286 . S
C929 C931 1.363 . S
C930 C920 1.465 . S
C930 U926 2.847 1_556 S
C930 O944 1.249 . S
C930 O945 1.202 . S
C931 C929 1.363 . S
C931 C933 1.408 . S
C931 C936 1.342 . S
C932 C933 1.310 . S
C932 C935 1.461 . S
C932 H952 0.932 . S
C933 C931 1.408 . S
C933 C932 1.310 . S
C933 H953 0.930 . S
C934 C935 1.474 . S
C934 C936 1.285 . S
C934 H954 0.929 . S
C935 C932 1.461 . S
C935 C934 1.474 . S
C936 C931 1.342 . S
C936 C934 1.285 . S
C936 H955 0.930 . S
C937 C940 1.424 1_554 S
C937 C942 1.245 . S
C937 C943 1.428 . S
C938 C941 1.260 . S
C938 C942 1.477 . S
C938 H956 0.932 . S
C939 C940 1.384 . S
C939 C941 1.479 1_556 S
C939 H957 0.929 . S
C940 C937 1.424 1_556 S
C940 C939 1.384 . S
C940 H958 0.928 . S
C941 C938 1.260 . S
C941 C939 1.479 1_554 S
C942 C937 1.245 . S
C942 C938 1.477 . S
C942 H959 0.932 . S
C943 U926 2.882 . S
C943 C937 1.428 . S
C943 O946 1.301 . S
C943 O947 1.282 . S
O944 U926 2.441 1_556 S
O944 C930 1.249 . S
O945 U926 2.420 1_556 S
O945 C930 1.202 . S
O946 U926 2.455 . S
O946 C943 1.301 . S
O947 U926 2.449 . S
O947 C943 1.282 . S
H948 C921 0.931 . S
H949 C923 0.929 . S
H950 C924 0.930 . S
H951 C925 0.931 . S
H952 C932 0.932 . S
H953 C933 0.930 . S
H954 C934 0.929 . S
H955 C936 0.930 . S
H956 C938 0.932 . S
H957 C939 0.929 . S
H958 C940 0.928 . S
H959 C942 0.932 . S
C960 C961 1.349 1_655 S
C960 C962 1.327 . S
C960 H985 0.950 . S
C961 C960 1.349 1_455 S
C961 C977 1.349 . S
C962 C960 1.327 . S
C962 C981 1.429 1_655 S
C962 H986 0.950 . S
C963 C980 1.574 . S
C963 C982 1.368 . S
C963 H987 0.949 . S
H964 C968 0.949 . S
C965 C966 1.349 . S
C965 C967 1.327 . S
C965 H988 0.950 . S
C966 C965 1.349 . S
C966 C978 1.349 1_455 S
C967 C965 1.327 . S
C967 C983 1.429 . S
C967 H989 0.950 . S
C968 H964 0.949 . S
C968 C976 1.574 . S
C968 C984 1.368 1_655 S
H969 C977 0.950 . S
H970 C975 0.950 . S
H971 C976 0.949 . S
H972 C978 0.950 . S
H973 C979 0.950 . S
H974 C980 0.949 . S
C975 H970 0.950 . S
C975 C977 1.327 . S
C975 C981 1.429 . S
C976 C968 1.574 . S
C976 H971 0.949 . S
C976 C982 1.368 1_655 S
C977 C961 1.349 . S
C977 H969 0.950 . S
C977 C975 1.327 . S
C978 C966 1.349 1_655 S
C978 H972 0.950 . S
C978 C979 1.327 . S
C979 H973 0.950 . S
C979 C978 1.327 . S
C979 C983 1.429 1_655 S
C980 C963 1.574 . S
C980 H974 0.949 . S
C980 C984 1.368 . S
C981 C962 1.429 1_455 S
C981 C975 1.429 . S
C981 C982 1.523 . S
C982 C963 1.368 . S
C982 C976 1.368 1_455 S
C982 C981 1.523 . S
C983 C967 1.429 . S
C983 C979 1.429 1_455 S
C983 C984 1.523 . S
C984 C968 1.368 1_455 S
C984 C980 1.368 . S
C984 C983 1.523 . S
H985 C960 0.950 . S
H986 C962 0.950 . S
H987 C963 0.949 . S
H988 C965 0.950 . S
H989 C967 0.950 . S
C990 C991 1.349 . S
C990 C992 1.327 . S
C990 H1015 0.950 . S
C991 C990 1.349 . S
C991 C1007 1.349 . S
C992 C990 1.327 . S
C992 C1011 1.429 . S
C992 H1016 0.950 . S
C993 C1010 1.574 . S
C993 C1012 1.368 . S
C993 H1017 0.949 . S
H994 C998 0.949 . S
C995 C996 1.349 . S
C995 C997 1.327 . S
C995 H1018 0.950 . S
C996 C995 1.349 . S
C996 C1008 1.349 . S
C997 C995 1.327 . S
C997 C1013 1.429 . S
C997 H1019 0.950 . S
C998 H994 0.949 . S
C998 C1006 1.574 . S
C998 C1014 1.368 . S
H999 C1007 0.950 . S
H1000 C1005 0.950 . S
H1001 C1006 0.949 . S
H1002 C1008 0.950 . S
H1003 C1009 0.950 . S
H1004 C1010 0.949 . S
C1005 H1000 0.950 . S
C1005 C1007 1.327 . S
C1005 C1011 1.429 . S
C1006 C998 1.574 . S
C1006 H1001 0.949 . S
C1006 C1012 1.368 . S
C1007 C991 1.349 . S
C1007 H999 0.950 . S
C1007 C1005 1.327 . S
C1008 C996 1.349 . S
C1008 H1002 0.950 . S
C1008 C1009 1.327 . S
C1009 H1003 0.950 . S
C1009 C1008 1.327 . S
C1009 C1013 1.429 . S
C1010 C993 1.574 . S
C1010 H1004 0.949 . S
C1010 C1014 1.368 . S
C1011 C992 1.429 . S
C1011 C1005 1.429 . S
C1011 C1012 1.523 . S
C1012 C993 1.368 . S
C1012 C1006 1.368 . S
C1012 C1011 1.523 . S
C1013 C997 1.429 . S
C1013 C1009 1.429 . S
C1013 C1014 1.523 . S
C1014 C998 1.368 . S
C1014 C1010 1.368 . S
C1014 C1013 1.523 . S
H1015 C990 0.950 . S
H1016 C992 0.950 . S
H1017 C993 0.949 . S
H1018 C995 0.950 . S
H1019 C997 0.950 . S
C1020 C1021 1.349 . S
C1020 C1022 1.327 . S
C1020 H1045 0.950 . S
C1021 C1020 1.349 . S
C1021 C1037 1.349 . S
C1022 C1020 1.327 . S
C1022 C1041 1.429 . S
C1022 H1046 0.950 . S
C1023 C1040 1.574 . S
C1023 C1042 1.368 . S
C1023 H1047 0.949 . S
H1024 C1028 0.949 . S
C1025 C1026 1.349 . S
C1025 C1027 1.327 . S
C1025 H1048 0.950 . S
C1026 C1025 1.349 . S
C1026 C1038 1.349 . S
C1027 C1025 1.327 . S
C1027 C1043 1.429 . S
C1027 H1049 0.950 . S
C1028 H1024 0.949 . S
C1028 C1036 1.574 . S
C1028 C1044 1.368 . S
H1029 C1037 0.950 . S
H1030 C1035 0.950 . S
H1031 C1036 0.949 . S
H1032 C1038 0.950 . S
H1033 C1039 0.950 . S
H1034 C1040 0.949 . S
C1035 H1030 0.950 . S
C1035 C1037 1.327 . S
C1035 C1041 1.429 . S
C1036 C1028 1.574 . S
C1036 H1031 0.949 . S
C1036 C1042 1.368 . S
C1037 C1021 1.349 . S
C1037 H1029 0.950 . S
C1037 C1035 1.327 . S
C1038 C1026 1.349 . S
C1038 H1032 0.950 . S
C1038 C1039 1.327 . S
C1039 H1033 0.950 . S
C1039 C1038 1.327 . S
C1039 C1043 1.429 . S
C1040 C1023 1.574 . S
C1040 H1034 0.949 . S
C1040 C1044 1.368 . S
C1041 C1022 1.429 . S
C1041 C1035 1.429 . S
C1041 C1042 1.523 . S
C1042 C1023 1.368 . S
C1042 C1036 1.368 . S
C1042 C1041 1.523 . S
C1043 C1027 1.429 . S
C1043 C1039 1.429 . S
C1043 C1044 1.523 . S
C1044 C1028 1.368 . S
C1044 C1040 1.368 . S
C1044 C1043 1.523 . S
H1045 C1020 0.950 . S
H1046 C1022 0.950 . S
H1047 C1023 0.949 . S
H1048 C1025 0.950 . S
H1049 C1027 0.950 . S
C1050 C1051 1.349 . S
C1050 C1052 1.327 . S
C1050 H1075 0.950 . S
C1051 C1050 1.349 . S
C1051 C1067 1.349 1_545 S
C1052 C1050 1.327 . S
C1052 C1071 1.429 . S
C1052 H1076 0.950 . S
C1053 C1070 1.574 . S
C1053 C1072 1.368 1_565 S
C1053 H1077 0.949 . S
H1054 C1058 0.949 . S
C1055 C1056 1.349 1_565 S
C1055 C1057 1.327 . S
C1055 H1078 0.950 . S
C1056 C1055 1.349 1_545 S
C1056 C1068 1.349 . S
C1057 C1055 1.327 . S
C1057 C1073 1.429 1_565 S
C1057 H1079 0.950 . S
C1058 H1054 0.949 . S
C1058 C1066 1.574 . S
C1058 C1074 1.368 . S
H1059 C1067 0.950 . S
H1060 C1065 0.950 . S
H1061 C1066 0.949 . S
H1062 C1068 0.950 . S
H1063 C1069 0.950 . S
H1064 C1070 0.949 . S
C1065 H1060 0.950 . S
C1065 C1067 1.327 . S
C1065 C1071 1.429 1_565 S
C1066 C1058 1.574 . S
C1066 H1061 0.949 . S
C1066 C1072 1.368 . S
C1067 C1051 1.349 1_565 S
C1067 H1059 0.950 . S
C1067 C1065 1.327 . S
C1068 C1056 1.349 . S
C1068 H1062 0.950 . S
C1068 C1069 1.327 . S
C1069 H1063 0.950 . S
C1069 C1068 1.327 . S
C1069 C1073 1.429 . S
C1070 C1053 1.574 . S
C1070 H1064 0.949 . S
C1070 C1074 1.368 1_565 S
C1071 C1052 1.429 . S
C1071 C1065 1.429 1_545 S
C1071 C1072 1.523 . S
C1072 C1053 1.368 1_545 S
C1072 C1066 1.368 . S
C1072 C1071 1.523 . S
C1073 C1057 1.429 1_545 S
C1073 C1069 1.429 . S
C1073 C1074 1.523 . S
C1074 C1058 1.368 . S
C1074 C1070 1.368 1_545 S
C1074 C1073 1.523 . S
H1075 C1050 0.950 . S
H1076 C1052 0.950 . S
H1077 C1053 0.949 . S
H1078 C1055 0.950 . S
H1079 C1057 0.950 . S
C1080 C1081 1.349 . S
C1080 C1082 1.327 . S
C1080 H1105 0.950 . S
C1081 C1080 1.349 . S
C1081 C1097 1.349 1_554 S
C1082 C1080 1.327 . S
C1082 C1101 1.429 . S
C1082 H1106 0.950 . S
C1083 C1100 1.574 . S
C1083 C1102 1.368 1_556 S
C1083 H1107 0.949 . S
H1084 C1088 0.949 . S
C1085 C1086 1.349 1_556 S
C1085 C1087 1.327 . S
C1085 H1108 0.950 . S
C1086 C1085 1.349 1_554 S
C1086 C1098 1.349 . S
C1087 C1085 1.327 . S
C1087 C1103 1.429 1_556 S
C1087 H1109 0.950 . S
C1088 H1084 0.949 . S
C1088 C1096 1.574 . S
C1088 C1104 1.368 . S
H1089 C1097 0.950 . S
H1090 C1095 0.950 . S
H1091 C1096 0.949 . S
H1092 C1098 0.950 . S
H1093 C1099 0.950 . S
H1094 C1100 0.949 . S
C1095 H1090 0.950 . S
C1095 C1097 1.327 . S
C1095 C1101 1.429 1_556 S
C1096 C1088 1.574 . S
C1096 H1091 0.949 . S
C1096 C1102 1.368 . S
C1097 C1081 1.349 1_556 S
C1097 H1089 0.950 . S
C1097 C1095 1.327 . S
C1098 C1086 1.349 . S
C1098 H1092 0.950 . S
C1098 C1099 1.327 . S
C1099 H1093 0.950 . S
C1099 C1098 1.327 . S
C1099 C1103 1.429 . S
C1100 C1083 1.574 . S
C1100 H1094 0.949 . S
C1100 C1104 1.368 1_556 S
C1101 C1082 1.429 . S
C1101 C1095 1.429 1_554 S
C1101 C1102 1.523 . S
C1102 C1083 1.368 1_554 S
C1102 C1096 1.368 . S
C1102 C1101 1.523 . S
C1103 C1087 1.429 1_554 S
C1103 C1099 1.429 . S
C1103 C1104 1.523 . S
C1104 C1088 1.368 . S
C1104 C1100 1.368 1_554 S
C1104 C1103 1.523 . S
H1105 C1080 0.950 . S
H1106 C1082 0.950 . S
H1107 C1083 0.949 . S
H1108 C1085 0.950 . S
H1109 C1087 0.950 . S
C1110 C1111 1.349 . S
C1110 C1112 1.327 . S
C1110 H1135 0.950 . S
C1111 C1110 1.349 . S
C1111 C1127 1.349 . S
C1112 C1110 1.327 . S
C1112 C1131 1.429 . S
C1112 H1136 0.950 . S
C1113 C1130 1.574 . S
C1113 C1132 1.368 . S
C1113 H1137 0.949 . S
H1114 C1118 0.949 . S
C1115 C1116 1.349 . S
C1115 C1117 1.327 . S
C1115 H1138 0.950 . S
C1116 C1115 1.349 . S
C1116 C1128 1.349 . S
C1117 C1115 1.327 . S
C1117 C1133 1.429 . S
C1117 H1139 0.950 . S
C1118 H1114 0.949 . S
C1118 C1126 1.574 . S
C1118 C1134 1.368 . S
H1119 C1127 0.950 . S
H1120 C1125 0.950 . S
H1121 C1126 0.949 . S
H1122 C1128 0.950 . S
H1123 C1129 0.950 . S
H1124 C1130 0.949 . S
C1125 H1120 0.950 . S
C1125 C1127 1.327 . S
C1125 C1131 1.429 . S
C1126 C1118 1.574 . S
C1126 H1121 0.949 . S
C1126 C1132 1.368 . S
C1127 C1111 1.349 . S
C1127 H1119 0.950 . S
C1127 C1125 1.327 . S
C1128 C1116 1.349 . S
C1128 H1122 0.950 . S
C1128 C1129 1.327 . S
C1129 H1123 0.950 . S
C1129 C1128 1.327 . S
C1129 C1133 1.429 . S
C1130 C1113 1.574 . S
C1130 H1124 0.949 . S
C1130 C1134 1.368 . S
C1131 C1112 1.429 . S
C1131 C1125 1.429 . S
C1131 C1132 1.523 . S
C1132 C1113 1.368 . S
C1132 C1126 1.368 . S
C1132 C1131 1.523 . S
C1133 C1117 1.429 . S
C1133 C1129 1.429 . S
C1133 C1134 1.523 . S
C1134 C1118 1.368 . S
C1134 C1130 1.368 . S
C1134 C1133 1.523 . S
H1135 C1110 0.950 . S
H1136 C1112 0.950 . S
H1137 C1113 0.949 . S
H1138 C1115 0.950 . S
H1139 C1117 0.950 . S
C1140 C1141 1.349 . S
C1140 C1142 1.327 . S
C1140 H1165 0.950 . S
C1141 C1140 1.349 . S
C1141 C1157 1.310 1_455 S
C1142 C1140 1.327 . S
C1142 C1161 1.429 . S
C1142 H1166 0.950 . S
C1143 C1160 1.574 . S
C1143 C1162 1.368 1_655 S
C1143 H1167 0.949 . S
H1144 C1148 0.949 . S
C1145 C1146 1.307 1_655 S
C1145 C1147 1.327 . S
C1145 H1168 0.992 . S
C1146 C1145 1.307 1_455 S
C1146 C1158 1.349 . S
C1147 C1145 1.327 . S
C1147 C1163 1.364 1_655 S
C1147 H1169 1.019 . S
C1148 H1144 0.949 . S
C1148 C1156 1.574 . S
C1148 C1164 1.368 . S
H1149 C1157 0.988 . S
H1150 C1155 1.017 . S
H1151 C1156 0.949 . S
H1152 C1158 0.950 . S
H1153 C1159 0.950 . S
H1154 C1160 0.949 . S
C1155 H1150 1.017 . S
C1155 C1157 1.327 . S
C1155 C1161 1.366 1_655 S
C1156 C1148 1.574 . S
C1156 H1151 0.949 . S
C1156 C1162 1.368 . S
C1157 C1141 1.310 1_655 S
C1157 H1149 0.988 . S
C1157 C1155 1.327 . S
C1158 C1146 1.349 . S
C1158 H1152 0.950 . S
C1158 C1159 1.327 . S
C1159 H1153 0.950 . S
C1159 C1158 1.327 . S
C1159 C1163 1.429 . S
C1160 C1143 1.574 . S
C1160 H1154 0.949 . S
C1160 C1164 1.368 1_655 S
C1161 C1142 1.429 . S
C1161 C1155 1.366 1_455 S
C1161 C1162 1.523 . S
C1162 C1143 1.368 1_455 S
C1162 C1156 1.368 . S
C1162 C1161 1.523 . S
C1163 C1147 1.364 1_455 S
C1163 C1159 1.429 . S
C1163 C1164 1.523 . S
C1164 C1148 1.368 . S
C1164 C1160 1.368 1_455 S
C1164 C1163 1.523 . S
H1165 C1140 0.950 . S
H1166 C1142 0.950 . S
H1167 C1143 0.949 . S
H1168 C1145 0.992 . S
H1169 C1147 1.019 . S
C1170 C1171 1.349 . S
C1170 C1172 1.327 . S
C1170 H1195 0.950 . S
C1171 C1170 1.349 . S
C1171 C1187 1.349 . S
C1172 C1170 1.327 . S
C1172 C1191 1.429 . S
C1172 H1196 0.950 . S
C1173 C1190 1.574 . S
C1173 C1192 1.368 . S
C1173 H1197 0.949 . S
H1174 C1178 0.949 . S
C1175 C1176 1.349 . S
C1175 C1177 1.327 . S
C1175 H1198 0.950 . S
C1176 C1175 1.349 . S
C1176 C1188 1.349 . S
C1177 C1175 1.327 . S
C1177 C1193 1.429 . S
C1177 H1199 0.950 . S
C1178 H1174 0.949 . S
C1178 C1186 1.574 . S
C1178 C1194 1.368 . S
H1179 C1187 0.950 . S
H1180 C1185 0.950 . S
H1181 C1186 0.949 . S
H1182 C1188 0.950 . S
H1183 C1189 0.950 . S
H1184 C1190 0.949 . S
C1185 H1180 0.950 . S
C1185 C1187 1.327 . S
C1185 C1191 1.429 . S
C1186 C1178 1.574 . S
C1186 H1181 0.949 . S
C1186 C1192 1.368 . S
C1187 C1171 1.349 . S
C1187 H1179 0.950 . S
C1187 C1185 1.327 . S
C1188 C1176 1.349 . S
C1188 H1182 0.950 . S
C1188 C1189 1.327 . S
C1189 H1183 0.950 . S
C1189 C1188 1.327 . S
C1189 C1193 1.429 . S
C1190 C1173 1.574 . S
C1190 H1184 0.949 . S
C1190 C1194 1.368 . S
C1191 C1172 1.429 . S
C1191 C1185 1.429 . S
C1191 C1192 1.523 . S
C1192 C1173 1.368 . S
C1192 C1186 1.368 . S
C1192 C1191 1.523 . S
C1193 C1177 1.429 . S
C1193 C1189 1.429 . S
C1193 C1194 1.523 . S
C1194 C1178 1.368 . S
C1194 C1190 1.368 . S
C1194 C1193 1.523 . S
H1195 C1170 0.950 . S
H1196 C1172 0.950 . S
H1197 C1173 0.949 . S
H1198 C1175 0.950 . S
H1199 C1177 0.950 . S
C1200 C1201 1.349 . S
C1200 C1202 1.327 . S
C1200 H1225 0.950 . S
C1201 C1200 1.349 . S
C1201 C1217 1.349 . S
C1202 C1200 1.327 . S
C1202 C1221 1.429 . S
C1202 H1226 0.950 . S
C1203 C1220 1.574 . S
C1203 C1222 1.368 . S
C1203 H1227 0.949 . S
H1204 C1208 0.949 . S
C1205 C1206 1.349 . S
C1205 C1207 1.327 . S
C1205 H1228 0.950 . S
C1206 C1205 1.349 . S
C1206 C1218 1.349 . S
C1207 C1205 1.327 . S
C1207 C1223 1.429 . S
C1207 H1229 0.950 . S
C1208 H1204 0.949 . S
C1208 C1216 1.574 . S
C1208 C1224 1.368 . S
H1209 C1217 0.950 . S
H1210 C1215 0.950 . S
H1211 C1216 0.949 . S
H1212 C1218 0.950 . S
H1213 C1219 0.950 . S
H1214 C1220 0.949 . S
C1215 H1210 0.950 . S
C1215 C1217 1.327 . S
C1215 C1221 1.429 . S
C1216 C1208 1.574 . S
C1216 H1211 0.949 . S
C1216 C1222 1.368 . S
C1217 C1201 1.349 . S
C1217 H1209 0.950 . S
C1217 C1215 1.327 . S
C1218 C1206 1.349 . S
C1218 H1212 0.950 . S
C1218 C1219 1.327 . S
C1219 H1213 0.950 . S
C1219 C1218 1.327 . S
C1219 C1223 1.429 . S
C1220 C1203 1.574 . S
C1220 H1214 0.949 . S
C1220 C1224 1.368 . S
C1221 C1202 1.429 . S
C1221 C1215 1.429 . S
C1221 C1222 1.523 . S
C1222 C1203 1.368 . S
C1222 C1216 1.368 . S
C1222 C1221 1.523 . S
C1223 C1207 1.429 . S
C1223 C1219 1.429 . S
C1223 C1224 1.523 . S
C1224 C1208 1.368 . S
C1224 C1220 1.368 . S
C1224 C1223 1.523 . S
H1225 C1200 0.950 . S
H1226 C1202 0.950 . S
H1227 C1203 0.949 . S
H1228 C1205 0.950 . S
H1229 C1207 0.950 . S
C1230 C1231 1.349 1_565 S
C1230 C1232 1.327 . S
C1230 H1255 0.950 . S
C1231 C1230 1.349 1_545 S
C1231 C1247 1.349 . S
C1232 C1230 1.327 . S
C1232 C1251 1.429 1_565 S
C1232 H1256 0.950 . S
C1233 C1250 1.574 . S
C1233 C1252 1.368 . S
C1233 H1257 0.949 . S
H1234 C1238 0.949 . S
C1235 C1236 1.349 . S
C1235 C1237 1.327 . S
C1235 H1258 0.950 . S
C1236 C1235 1.349 . S
C1236 C1248 1.404 . S
C1237 C1235 1.327 . S
C1237 C1253 1.429 . S
C1237 H1259 0.950 . S
C1238 H1234 0.949 . S
C1238 C1246 1.574 . S
C1238 C1254 1.368 1_565 S
H1239 C1247 0.950 . S
H1240 C1245 0.950 . S
H1241 C1246 0.949 . S
H1242 C1248 0.900 1_565 S
H1243 C1249 0.956 1_565 S
H1244 C1250 0.949 . S
C1245 H1240 0.950 . S
C1245 C1247 1.327 . S
C1245 C1251 1.429 . S
C1246 C1238 1.574 . S
C1246 H1241 0.949 . S
C1246 C1252 1.368 1_565 S
C1247 C1231 1.349 . S
C1247 H1239 0.950 . S
C1247 C1245 1.327 . S
C1248 C1236 1.404 . S
C1248 H1242 0.900 1_545 S
C1248 C1249 1.325 . S
C1249 H1243 0.956 1_545 S
C1249 C1248 1.325 . S
C1249 C1253 1.423 . S
C1250 C1233 1.574 . S
C1250 H1244 0.949 . S
C1250 C1254 1.368 . S
C1251 C1232 1.429 1_545 S
C1251 C1245 1.429 . S
C1251 C1252 1.523 . S
C1252 C1233 1.368 . S
C1252 C1246 1.368 1_545 S
C1252 C1251 1.523 . S
C1253 C1237 1.429 . S
C1253 C1249 1.423 . S
C1253 C1254 1.523 . S
C1254 C1238 1.368 1_545 S
C1254 C1250 1.368 . S
C1254 C1253 1.523 . S
H1255 C1230 0.950 . S
H1256 C1232 0.950 . S
H1257 C1233 0.949 . S
H1258 C1235 0.950 . S
H1259 C1237 0.950 . S
C1260 C1261 1.349 1_556 S
C1260 C1262 1.327 . S
C1260 H1285 0.950 . S
C1261 C1260 1.349 1_554 S
C1261 C1277 1.349 . S
C1262 C1260 1.327 . S
C1262 C1281 1.429 1_556 S
C1262 H1286 0.950 . S
C1263 C1280 1.574 . S
C1263 C1282 1.368 . S
C1263 H1287 0.949 . S
H1264 C1268 0.949 . S
C1265 C1266 1.403 . S
C1265 C1267 1.327 . S
C1265 H1288 0.950 . S
C1266 C1265 1.403 . S
C1266 C1278 1.297 1_554 S
C1267 C1265 1.327 . S
C1267 C1283 1.429 . S
C1267 H1289 0.950 . S
C1268 H1264 0.949 . S
C1268 C1276 1.574 . S
C1268 C1284 1.368 1_556 S
H1269 C1277 0.950 . S
H1270 C1275 0.950 . S
H1271 C1276 0.949 . S
H1272 C1278 0.950 . S
H1273 C1279 0.950 . S
H1274 C1280 0.949 . S
C1275 H1270 0.950 . S
C1275 C1277 1.327 . S
C1275 C1281 1.429 . S
C1276 C1268 1.574 . S
C1276 H1271 0.949 . S
C1276 C1282 1.368 1_556 S
C1277 C1261 1.349 . S
C1277 H1269 0.950 . S
C1277 C1275 1.327 . S
C1278 C1266 1.297 1_556 S
C1278 H1272 0.950 . S
C1278 C1279 1.327 . S
C1279 H1273 0.950 . S
C1279 C1278 1.327 . S
C1279 C1283 1.429 1_556 S
C1280 C1263 1.574 . S
C1280 H1274 0.949 . S
C1280 C1284 1.368 . S
C1281 C1262 1.429 1_554 S
C1281 C1275 1.429 . S
C1281 C1282 1.523 . S
C1282 C1263 1.368 . S
C1282 C1276 1.368 1_554 S
C1282 C1281 1.523 . S
C1283 C1267 1.429 . S
C1283 C1279 1.429 1_554 S
C1283 C1284 1.523 . S
C1284 C1268 1.368 1_554 S
C1284 C1280 1.368 . S
C1284 C1283 1.523 . S
H1285 C1260 0.950 . S
H1286 C1262 0.950 . S
H1287 C1263 0.949 . S
H1288 C1265 0.950 . S
H1289 C1267 0.950 . S
C1290 C1291 1.349 . S
C1290 C1292 1.327 . S
C1290 H1315 0.950 . S
C1291 C1290 1.349 . S
C1291 C1307 1.349 . S
C1292 C1290 1.327 . S
C1292 C1311 1.429 . S
C1292 H1316 0.950 . S
C1293 C1310 1.574 . S
C1293 C1312 1.368 . S
C1293 H1317 0.949 . S
H1294 C1298 0.949 . S
C1295 C1296 1.349 . S
C1295 C1297 1.327 . S
C1295 H1318 0.950 . S
C1296 C1295 1.349 . S
C1296 C1308 1.349 . S
C1297 C1295 1.327 . S
C1297 C1313 1.429 . S
C1297 H1319 0.950 . S
C1298 H1294 0.949 . S
C1298 C1306 1.574 . S
C1298 C1314 1.368 . S
H1299 C1307 0.950 . S
H1300 C1305 0.950 . S
H1301 C1306 0.949 . S
H1302 C1308 0.950 . S
H1303 C1309 0.950 . S
H1304 C1310 0.949 . S
C1305 H1300 0.950 . S
C1305 C1307 1.327 . S
C1305 C1311 1.429 . S
C1306 C1298 1.574 . S
C1306 H1301 0.949 . S
C1306 C1312 1.368 . S
C1307 C1291 1.349 . S
C1307 H1299 0.950 . S
C1307 C1305 1.327 . S
C1308 C1296 1.349 . S
C1308 H1302 0.950 . S
C1308 C1309 1.327 . S
C1309 H1303 0.950 . S
C1309 C1308 1.327 . S
C1309 C1313 1.429 . S
C1310 C1293 1.574 . S
C1310 H1304 0.949 . S
C1310 C1314 1.368 . S
C1311 C1292 1.429 . S
C1311 C1305 1.429 . S
C1311 C1312 1.523 . S
C1312 C1293 1.368 . S
C1312 C1306 1.368 . S
C1312 C1311 1.523 . S
C1313 C1297 1.429 . S
C1313 C1309 1.429 . S
C1313 C1314 1.523 . S
C1314 C1298 1.368 . S
C1314 C1310 1.368 . S
C1314 C1313 1.523 . S
H1315 C1290 0.950 . S
H1316 C1292 0.950 . S
H1317 C1293 0.949 . S
H1318 C1295 0.950 . S
H1319 C1297 0.950 . S
C1320 C1321 1.349 . S
C1320 C1322 1.327 . S
C1320 H1345 0.950 . S
C1321 C1320 1.349 . S
C1321 C1337 1.349 . S
C1322 C1320 1.327 . S
C1322 C1341 1.429 . S
C1322 H1346 0.950 . S
C1323 C1340 1.574 . S
C1323 C1342 1.368 . S
C1323 H1347 0.949 . S
H1324 C1328 0.949 . S
C1325 C1326 1.349 . S
C1325 C1327 1.327 . S
C1325 H1348 0.950 . S
C1326 C1325 1.349 . S
C1326 C1338 1.349 . S
C1327 C1325 1.327 . S
C1327 C1343 1.429 . S
C1327 H1349 0.950 . S
C1328 H1324 0.949 . S
C1328 C1336 1.574 . S
C1328 C1344 1.368 . S
H1329 C1337 0.950 . S
H1330 C1335 0.950 . S
H1331 C1336 0.949 . S
H1332 C1338 0.950 . S
H1333 C1339 0.950 . S
H1334 C1340 0.949 . S
C1335 H1330 0.950 . S
C1335 C1337 1.327 . S
C1335 C1341 1.429 . S
C1336 C1328 1.574 . S
C1336 H1331 0.949 . S
C1336 C1342 1.368 . S
C1337 C1321 1.349 . S
C1337 H1329 0.950 . S
C1337 C1335 1.327 . S
C1338 C1326 1.349 . S
C1338 H1332 0.950 . S
C1338 C1339 1.327 . S
C1339 H1333 0.950 . S
C1339 C1338 1.327 . S
C1339 C1343 1.429 . S
C1340 C1323 1.574 . S
C1340 H1334 0.949 . S
C1340 C1344 1.368 . S
C1341 C1322 1.429 . S
C1341 C1335 1.429 . S
C1341 C1342 1.523 . S
C1342 C1323 1.368 . S
C1342 C1336 1.368 . S
C1342 C1341 1.523 . S
C1343 C1327 1.429 . S
C1343 C1339 1.429 . S
C1343 C1344 1.523 . S
C1344 C1328 1.368 . S
C1344 C1340 1.368 . S
C1344 C1343 1.523 . S
H1345 C1320 0.950 . S
H1346 C1322 0.950 . S
H1347 C1323 0.949 . S
H1348 C1325 0.950 . S
H1349 C1327 0.950 . S
C1350 C1351 1.349 . S
C1350 C1352 1.327 . S
C1350 H1375 0.950 . S
C1351 C1350 1.349 . S
C1351 C1367 1.349 . S
C1352 C1350 1.327 . S
C1352 C1371 1.429 . S
C1352 H1376 0.950 . S
C1353 C1370 1.574 . S
C1353 C1372 1.368 . S
C1353 H1377 0.949 . S
H1354 C1358 0.949 . S
C1355 C1356 1.349 . S
C1355 C1357 1.327 . S
C1355 H1378 0.950 . S
C1356 C1355 1.349 . S
C1356 C1368 1.349 . S
C1357 C1355 1.327 . S
C1357 C1373 1.429 . S
C1357 H1379 0.950 . S
C1358 H1354 0.949 . S
C1358 C1366 1.574 . S
C1358 C1374 1.368 . S
H1359 C1367 0.950 . S
H1360 C1365 0.950 . S
H1361 C1366 0.949 . S
H1362 C1368 0.950 . S
H1363 C1369 0.950 . S
H1364 C1370 0.949 . S
C1365 H1360 0.950 . S
C1365 C1367 1.327 . S
C1365 C1371 1.429 . S
C1366 C1358 1.574 . S
C1366 H1361 0.949 . S
C1366 C1372 1.368 . S
C1367 C1351 1.349 . S
C1367 H1359 0.950 . S
C1367 C1365 1.327 . S
C1368 C1356 1.349 . S
C1368 H1362 0.950 . S
C1368 C1369 1.327 . S
C1369 H1363 0.950 . S
C1369 C1368 1.327 . S
C1369 C1373 1.429 . S
C1370 C1353 1.574 . S
C1370 H1364 0.949 . S
C1370 C1374 1.368 . S
C1371 C1352 1.429 . S
C1371 C1365 1.429 . S
C1371 C1372 1.523 . S
C1372 C1353 1.368 . S
C1372 C1366 1.368 . S
C1372 C1371 1.523 . S
C1373 C1357 1.429 . S
C1373 C1369 1.429 . S
C1373 C1374 1.523 . S
C1374 C1358 1.368 . S
C1374 C1370 1.368 . S
C1374 C1373 1.523 . S
H1375 C1350 0.950 . S
H1376 C1352 0.950 . S
H1377 C1353 0.949 . S
H1378 C1355 0.950 . S
H1379 C1357 0.950 . S
C1380 C1381 1.349 . S
C1380 C1382 1.327 . S
C1380 H1405 0.950 . S
C1381 C1380 1.349 . S
C1381 C1397 1.349 . S
C1382 C1380 1.327 . S
C1382 C1401 1.429 . S
C1382 H1406 0.950 . S
C1383 C1400 1.574 . S
C1383 C1402 1.368 . S
C1383 H1407 0.949 . S
H1384 C1388 0.949 . S
C1385 C1386 1.349 . S
C1385 C1387 1.327 . S
C1385 H1408 0.950 . S
C1386 C1385 1.349 . S
C1386 C1398 1.349 . S
C1387 C1385 1.327 . S
C1387 C1403 1.429 . S
C1387 H1409 0.950 . S
C1388 H1384 0.949 . S
C1388 C1396 1.574 . S
C1388 C1404 1.368 . S
H1389 C1397 0.950 . S
H1390 C1395 0.950 . S
H1391 C1396 0.949 . S
H1392 C1398 0.950 . S
H1393 C1399 0.950 . S
H1394 C1400 0.949 . S
C1395 H1390 0.950 . S
C1395 C1397 1.327 . S
C1395 C1401 1.429 . S
C1396 C1388 1.574 . S
C1396 H1391 0.949 . S
C1396 C1402 1.368 . S
C1397 C1381 1.349 . S
C1397 H1389 0.950 . S
C1397 C1395 1.327 . S
C1398 C1386 1.349 . S
C1398 H1392 0.950 . S
C1398 C1399 1.327 . S
C1399 H1393 0.950 . S
C1399 C1398 1.327 . S
C1399 C1403 1.429 . S
C1400 C1383 1.574 . S
C1400 H1394 0.949 . S
C1400 C1404 1.368 . S
C1401 C1382 1.429 . S
C1401 C1395 1.429 . S
C1401 C1402 1.523 . S
C1402 C1383 1.368 . S
C1402 C1396 1.368 . S
C1402 C1401 1.523 . S
C1403 C1387 1.429 . S
C1403 C1399 1.429 . S
C1403 C1404 1.523 . S
C1404 C1388 1.368 . S
C1404 C1400 1.368 . S
C1404 C1403 1.523 . S
H1405 C1380 0.950 . S
H1406 C1382 0.950 . S
H1407 C1383 0.949 . S
H1408 C1385 0.950 . S
H1409 C1387 0.950 . S
C1410 C1411 1.349 . S
C1410 C1412 1.327 . S
C1410 H1435 0.950 . S
C1411 C1410 1.349 . S
C1411 C1427 1.349 . S
C1412 C1410 1.327 . S
C1412 C1431 1.429 . S
C1412 H1436 0.950 . S
C1413 C1430 1.574 . S
C1413 C1432 1.368 . S
C1413 H1437 0.949 . S
H1414 C1418 0.949 . S
C1415 C1416 1.349 . S
C1415 C1417 1.327 . S
C1415 H1438 0.950 . S
C1416 C1415 1.349 . S
C1416 C1428 1.349 . S
C1417 C1415 1.327 . S
C1417 C1433 1.429 . S
C1417 H1439 0.950 . S
C1418 H1414 0.949 . S
C1418 C1426 1.574 . S
C1418 C1434 1.368 . S
H1419 C1427 0.950 . S
H1420 C1425 0.950 . S
H1421 C1426 0.949 . S
H1422 C1428 0.950 . S
H1423 C1429 0.950 . S
H1424 C1430 0.949 . S
C1425 H1420 0.950 . S
C1425 C1427 1.327 . S
C1425 C1431 1.429 . S
C1426 C1418 1.574 . S
C1426 H1421 0.949 . S
C1426 C1432 1.368 . S
C1427 C1411 1.349 . S
C1427 H1419 0.950 . S
C1427 C1425 1.327 . S
C1428 C1416 1.349 . S
C1428 H1422 0.950 . S
C1428 C1429 1.327 . S
C1429 H1423 0.950 . S
C1429 C1428 1.327 . S
C1429 C1433 1.429 . S
C1430 C1413 1.574 . S
C1430 H1424 0.949 . S
C1430 C1434 1.368 . S
C1431 C1412 1.429 . S
C1431 C1425 1.429 . S
C1431 C1432 1.523 . S
C1432 C1413 1.368 . S
C1432 C1426 1.368 . S
C1432 C1431 1.523 . S
C1433 C1417 1.429 . S
C1433 C1429 1.429 . S
C1433 C1434 1.523 . S
C1434 C1418 1.368 . S
C1434 C1430 1.368 . S
C1434 C1433 1.523 . S
H1435 C1410 0.950 . S
H1436 C1412 0.950 . S
H1437 C1413 0.949 . S
H1438 C1415 0.950 . S
H1439 C1417 0.950 . S
C1440 C1441 1.349 . S
C1440 C1442 1.327 . S
C1440 H1465 0.950 . S
C1441 C1440 1.349 . S
C1441 C1457 1.349 . S
C1442 C1440 1.327 . S
C1442 C1461 1.429 . S
C1442 H1466 0.950 . S
C1443 C1460 1.574 . S
C1443 C1462 1.368 . S
C1443 H1467 0.949 . S
H1444 C1448 0.949 . S
C1445 C1446 1.349 . S
C1445 C1447 1.327 . S
C1445 H1468 0.950 . S
C1446 C1445 1.349 . S
C1446 C1458 1.349 . S
C1447 C1445 1.327 . S
C1447 C1463 1.429 . S
C1447 H1469 0.950 . S
C1448 H1444 0.949 . S
C1448 C1456 1.574 . S
C1448 C1464 1.368 . S
H1449 C1457 0.950 . S
H1450 C1455 0.950 . S
H1451 C1456 0.949 . S
H1452 C1458 0.950 . S
H1453 C1459 0.950 . S
H1454 C1460 0.949 . S
C1455 H1450 0.950 . S
C1455 C1457 1.327 . S
C1455 C1461 1.429 . S
C1456 C1448 1.574 . S
C1456 H1451 0.949 . S
C1456 C1462 1.368 . S
C1457 C1441 1.349 . S
C1457 H1449 0.950 . S
C1457 C1455 1.327 . S
C1458 C1446 1.349 . S
C1458 H1452 0.950 . S
C1458 C1459 1.327 . S
C1459 H1453 0.950 . S
C1459 C1458 1.327 . S
C1459 C1463 1.429 . S
C1460 C1443 1.574 . S
C1460 H1454 0.949 . S
C1460 C1464 1.368 . S
C1461 C1442 1.429 . S
C1461 C1455 1.429 . S
C1461 C1462 1.523 . S
C1462 C1443 1.368 . S
C1462 C1456 1.368 . S
C1462 C1461 1.523 . S
C1463 C1447 1.429 . S
C1463 C1459 1.429 . S
C1463 C1464 1.523 . S
C1464 C1448 1.368 . S
C1464 C1460 1.368 . S
C1464 C1463 1.523 . S
H1465 C1440 0.950 . S
H1466 C1442 0.950 . S
H1467 C1443 0.949 . S
H1468 C1445 0.950 . S
H1469 C1447 0.950 . S
C1470 C1471 1.349 . S
C1470 C1472 1.327 . S
C1470 H1495 0.950 . S
C1471 C1470 1.349 . S
C1471 C1487 1.349 . S
C1472 C1470 1.327 . S
C1472 C1491 1.429 . S
C1472 H1496 0.950 . S
C1473 C1490 1.574 . S
C1473 C1492 1.368 . S
C1473 H1497 0.949 . S
H1474 C1478 0.949 . S
C1475 C1476 1.349 . S
C1475 C1477 1.327 . S
C1475 H1498 0.950 . S
C1476 C1475 1.349 . S
C1476 C1488 1.349 . S
C1477 C1475 1.327 . S
C1477 C1493 1.429 . S
C1477 H1499 0.950 . S
C1478 H1474 0.949 . S
C1478 C1486 1.574 . S
C1478 C1494 1.368 . S
H1479 C1487 0.950 . S
H1480 C1485 0.950 . S
H1481 C1486 0.949 . S
H1482 C1488 0.950 . S
H1483 C1489 0.950 . S
H1484 C1490 0.949 . S
C1485 H1480 0.950 . S
C1485 C1487 1.327 . S
C1485 C1491 1.429 . S
C1486 C1478 1.574 . S
C1486 H1481 0.949 . S
C1486 C1492 1.368 . S
C1487 C1471 1.349 . S
C1487 H1479 0.950 . S
C1487 C1485 1.327 . S
C1488 C1476 1.349 . S
C1488 H1482 0.950 . S
C1488 C1489 1.327 . S
C1489 H1483 0.950 . S
C1489 C1488 1.327 . S
C1489 C1493 1.429 . S
C1490 C1473 1.574 . S
C1490 H1484 0.949 . S
C1490 C1494 1.368 . S
C1491 C1472 1.429 . S
C1491 C1485 1.429 . S
C1491 C1492 1.523 . S
C1492 C1473 1.368 . S
C1492 C1486 1.368 . S
C1492 C1491 1.523 . S
C1493 C1477 1.429 . S
C1493 C1489 1.429 . S
C1493 C1494 1.523 . S
C1494 C1478 1.368 . S
C1494 C1490 1.368 . S
C1494 C1493 1.523 . S
H1495 C1470 0.950 . S
H1496 C1472 0.950 . S
H1497 C1473 0.949 . S
H1498 C1475 0.950 . S
H1499 C1477 0.950 . S
C1500 C1501 1.349 . S
C1500 C1502 1.327 . S
C1500 H1525 0.950 . S
C1501 C1500 1.349 . S
C1501 C1517 1.349 . S
C1502 C1500 1.327 . S
C1502 C1521 1.429 . S
C1502 H1526 0.950 . S
C1503 C1520 1.574 . S
C1503 C1522 1.368 . S
C1503 H1527 0.949 . S
H1504 C1508 0.949 . S
C1505 C1506 1.349 . S
C1505 C1507 1.327 . S
C1505 H1528 0.950 . S
C1506 C1505 1.349 . S
C1506 C1518 1.349 . S
C1507 C1505 1.327 . S
C1507 C1523 1.429 . S
C1507 H1529 0.950 . S
C1508 H1504 0.949 . S
C1508 C1516 1.574 . S
C1508 C1524 1.368 . S
H1509 C1517 0.950 . S
H1510 C1515 0.950 . S
H1511 C1516 0.949 . S
H1512 C1518 0.950 . S
H1513 C1519 0.950 . S
H1514 C1520 0.949 . S
C1515 H1510 0.950 . S
C1515 C1517 1.327 . S
C1515 C1521 1.429 . S
C1516 C1508 1.574 . S
C1516 H1511 0.949 . S
C1516 C1522 1.368 . S
C1517 C1501 1.349 . S
C1517 H1509 0.950 . S
C1517 C1515 1.327 . S
C1518 C1506 1.349 . S
C1518 H1512 0.950 . S
C1518 C1519 1.327 . S
C1519 H1513 0.950 . S
C1519 C1518 1.327 . S
C1519 C1523 1.429 . S
C1520 C1503 1.574 . S
C1520 H1514 0.949 . S
C1520 C1524 1.368 . S
C1521 C1502 1.429 . S
C1521 C1515 1.429 . S
C1521 C1522 1.523 . S
C1522 C1503 1.368 . S
C1522 C1516 1.368 . S
C1522 C1521 1.523 . S
C1523 C1507 1.429 . S
C1523 C1519 1.429 . S
C1523 C1524 1.523 . S
C1524 C1508 1.368 . S
C1524 C1520 1.368 . S
C1524 C1523 1.523 . S
H1525 C1500 0.950 . S
H1526 C1502 0.950 . S
H1527 C1503 0.949 . S
H1528 C1505 0.950 . S
H1529 C1507 0.950 . S
C1530 C1531 1.349 . S
C1530 C1532 1.327 . S
C1530 H1555 0.950 . S
C1531 C1530 1.349 . S
C1531 C1547 1.349 . S
C1532 C1530 1.327 . S
C1532 C1551 1.429 . S
C1532 H1556 0.950 . S
C1533 C1550 1.574 . S
C1533 C1552 1.368 . S
C1533 H1557 0.949 . S
H1534 C1538 0.949 . S
C1535 C1536 1.349 . S
C1535 C1537 1.327 . S
C1535 H1558 0.950 . S
C1536 C1535 1.349 . S
C1536 C1548 1.349 . S
C1537 C1535 1.327 . S
C1537 C1553 1.429 . S
C1537 H1559 0.950 . S
C1538 H1534 0.949 . S
C1538 C1546 1.574 . S
C1538 C1554 1.368 . S
H1539 C1547 0.950 . S
H1540 C1545 0.950 . S
H1541 C1546 0.949 . S
H1542 C1548 0.950 . S
H1543 C1549 0.950 . S
H1544 C1550 0.949 . S
C1545 H1540 0.950 . S
C1545 C1547 1.327 . S
C1545 C1551 1.429 . S
C1546 C1538 1.574 . S
C1546 H1541 0.949 . S
C1546 C1552 1.368 . S
C1547 C1531 1.349 . S
C1547 H1539 0.950 . S
C1547 C1545 1.327 . S
C1548 C1536 1.349 . S
C1548 H1542 0.950 . S
C1548 C1549 1.327 . S
C1549 H1543 0.950 . S
C1549 C1548 1.327 . S
C1549 C1553 1.429 . S
C1550 C1533 1.574 . S
C1550 H1544 0.949 . S
C1550 C1554 1.368 . S
C1551 C1532 1.429 . S
C1551 C1545 1.429 . S
C1551 C1552 1.523 . S
C1552 C1533 1.368 . S
C1552 C1546 1.368 . S
C1552 C1551 1.523 . S
C1553 C1537 1.429 . S
C1553 C1549 1.429 . S
C1553 C1554 1.523 . S
C1554 C1538 1.368 . S
C1554 C1550 1.368 . S
C1554 C1553 1.523 . S
H1555 C1530 0.950 . S
H1556 C1532 0.950 . S
H1557 C1533 0.949 . S
H1558 C1535 0.950 . S
H1559 C1537 0.950 . S
C1560 C1561 1.349 . S
C1560 C1562 1.327 . S
C1560 H1585 0.950 . S
C1561 C1560 1.349 . S
C1561 C1577 1.349 . S
C1562 C1560 1.327 . S
C1562 C1581 1.429 . S
C1562 H1586 0.950 . S
C1563 C1580 1.574 . S
C1563 C1582 1.368 . S
C1563 H1587 0.949 . S
H1564 C1568 0.949 . S
C1565 C1566 1.349 . S
C1565 C1567 1.327 . S
C1565 H1588 0.950 . S
C1566 C1565 1.349 . S
C1566 C1578 1.349 . S
C1567 C1565 1.327 . S
C1567 C1583 1.429 . S
C1567 H1589 0.950 . S
C1568 H1564 0.949 . S
C1568 C1576 1.574 . S
C1568 C1584 1.368 . S
H1569 C1577 0.950 . S
H1570 C1575 0.950 . S
H1571 C1576 0.949 . S
H1572 C1578 0.950 . S
H1573 C1579 0.950 . S
H1574 C1580 0.949 . S
C1575 H1570 0.950 . S
C1575 C1577 1.327 . S
C1575 C1581 1.429 . S
C1576 C1568 1.574 . S
C1576 H1571 0.949 . S
C1576 C1582 1.368 . S
C1577 C1561 1.349 . S
C1577 H1569 0.950 . S
C1577 C1575 1.327 . S
C1578 C1566 1.349 . S
C1578 H1572 0.950 . S
C1578 C1579 1.327 . S
C1579 H1573 0.950 . S
C1579 C1578 1.327 . S
C1579 C1583 1.429 . S
C1580 C1563 1.574 . S
C1580 H1574 0.949 . S
C1580 C1584 1.368 . S
C1581 C1562 1.429 . S
C1581 C1575 1.429 . S
C1581 C1582 1.523 . S
C1582 C1563 1.368 . S
C1582 C1576 1.368 . S
C1582 C1581 1.523 . S
C1583 C1567 1.429 . S
C1583 C1579 1.429 . S
C1583 C1584 1.523 . S
C1584 C1568 1.368 . S
C1584 C1580 1.368 . S
C1584 C1583 1.523 . S
H1585 C1560 0.950 . S
H1586 C1562 0.950 . S
H1587 C1563 0.949 . S
H1588 C1565 0.950 . S
H1589 C1567 0.950 . S
C1590 C1591 1.349 . S
C1590 C1592 1.327 . S
C1590 H1615 0.950 . S
C1591 C1590 1.349 . S
C1591 C1607 1.349 . S
C1592 C1590 1.327 . S
C1592 C1611 1.429 . S
C1592 H1616 0.950 . S
C1593 C1610 1.574 . S
C1593 C1612 1.368 . S
C1593 H1617 0.949 . S
H1594 C1598 0.949 . S
C1595 C1596 1.349 . S
C1595 C1597 1.327 . S
C1595 H1618 0.950 . S
C1596 C1595 1.349 . S
C1596 C1608 1.349 . S
C1597 C1595 1.327 . S
C1597 C1613 1.429 . S
C1597 H1619 0.950 . S
C1598 H1594 0.949 . S
C1598 C1606 1.574 . S
C1598 C1614 1.368 . S
H1599 C1607 0.950 . S
H1600 C1605 0.950 . S
H1601 C1606 0.949 . S
H1602 C1608 0.950 . S
H1603 C1609 0.950 . S
H1604 C1610 0.949 . S
C1605 H1600 0.950 . S
C1605 C1607 1.327 . S
C1605 C1611 1.429 . S
C1606 C1598 1.574 . S
C1606 H1601 0.949 . S
C1606 C1612 1.368 . S
C1607 C1591 1.349 . S
C1607 H1599 0.950 . S
C1607 C1605 1.327 . S
C1608 C1596 1.349 . S
C1608 H1602 0.950 . S
C1608 C1609 1.327 . S
C1609 H1603 0.950 . S
C1609 C1608 1.327 . S
C1609 C1613 1.429 . S
C1610 C1593 1.574 . S
C1610 H1604 0.949 . S
C1610 C1614 1.368 . S
C1611 C1592 1.429 . S
C1611 C1605 1.429 . S
C1611 C1612 1.523 . S
C1612 C1593 1.368 . S
C1612 C1606 1.368 . S
C1612 C1611 1.523 . S
C1613 C1597 1.429 . S
C1613 C1609 1.429 . S
C1613 C1614 1.523 . S
C1614 C1598 1.368 . S
C1614 C1610 1.368 . S
C1614 C1613 1.523 . S
H1615 C1590 0.950 . S
H1616 C1592 0.950 . S
H1617 C1593 0.949 . S
H1618 C1595 0.950 . S
H1619 C1597 0.950 . S
C1620 C1621 1.349 . S
C1620 C1622 1.327 . S
C1620 H1645 0.950 . S
C1621 C1620 1.349 . S
C1621 C1637 1.349 . S
C1622 C1620 1.327 . S
C1622 C1641 1.429 . S
C1622 H1646 0.950 . S
C1623 C1640 1.574 . S
C1623 C1642 1.368 . S
C1623 H1647 0.949 . S
H1624 C1628 0.949 . S
C1625 C1626 1.349 . S
C1625 C1627 1.327 . S
C1625 H1648 0.950 . S
C1626 C1625 1.349 . S
C1626 C1638 1.349 . S
C1627 C1625 1.327 . S
C1627 C1643 1.429 . S
C1627 H1649 0.950 . S
C1628 H1624 0.949 . S
C1628 C1636 1.574 . S
C1628 C1644 1.368 . S
H1629 C1637 0.950 . S
H1630 C1635 0.950 . S
H1631 C1636 0.949 . S
H1632 C1638 0.950 . S
H1633 C1639 0.950 . S
H1634 C1640 0.949 . S
C1635 H1630 0.950 . S
C1635 C1637 1.327 . S
C1635 C1641 1.429 . S
C1636 C1628 1.574 . S
C1636 H1631 0.949 . S
C1636 C1642 1.368 . S
C1637 C1621 1.349 . S
C1637 H1629 0.950 . S
C1637 C1635 1.327 . S
C1638 C1626 1.349 . S
C1638 H1632 0.950 . S
C1638 C1639 1.327 . S
C1639 H1633 0.950 . S
C1639 C1638 1.327 . S
C1639 C1643 1.429 . S
C1640 C1623 1.574 . S
C1640 H1634 0.949 . S
C1640 C1644 1.368 . S
C1641 C1622 1.429 . S
C1641 C1635 1.429 . S
C1641 C1642 1.523 . S
C1642 C1623 1.368 . S
C1642 C1636 1.368 . S
C1642 C1641 1.523 . S
C1643 C1627 1.429 . S
C1643 C1639 1.429 . S
C1643 C1644 1.523 . S
C1644 C1628 1.368 . S
C1644 C1640 1.368 . S
C1644 C1643 1.523 . S
H1645 C1620 0.950 . S
H1646 C1622 0.950 . S
H1647 C1623 0.949 . S
H1648 C1625 0.950 . S
H1649 C1627 0.950 . S
C1650 C1651 1.349 . S
C1650 C1652 1.327 . S
C1650 H1675 0.950 . S
C1651 C1650 1.349 . S
C1651 C1667 1.349 . S
C1652 C1650 1.327 . S
C1652 C1671 1.429 . S
C1652 H1676 0.950 . S
C1653 C1670 1.574 . S
C1653 C1672 1.368 . S
C1653 H1677 0.949 . S
H1654 C1658 0.949 . S
C1655 C1656 1.349 . S
C1655 C1657 1.327 . S
C1655 H1678 0.950 . S
C1656 C1655 1.349 . S
C1656 C1668 1.349 . S
C1657 C1655 1.327 . S
C1657 C1673 1.429 . S
C1657 H1679 0.950 . S
C1658 H1654 0.949 . S
C1658 C1666 1.574 . S
C1658 C1674 1.368 . S
H1659 C1667 0.950 . S
H1660 C1665 0.950 . S
H1661 C1666 0.949 . S
H1662 C1668 0.950 . S
H1663 C1669 0.950 . S
H1664 C1670 0.949 . S
C1665 H1660 0.950 . S
C1665 C1667 1.327 . S
C1665 C1671 1.429 . S
C1666 C1658 1.574 . S
C1666 H1661 0.949 . S
C1666 C1672 1.368 . S
C1667 C1651 1.349 . S
C1667 H1659 0.950 . S
C1667 C1665 1.327 . S
C1668 C1656 1.349 . S
C1668 H1662 0.950 . S
C1668 C1669 1.327 . S
C1669 H1663 0.950 . S
C1669 C1668 1.327 . S
C1669 C1673 1.429 . S
C1670 C1653 1.574 . S
C1670 H1664 0.949 . S
C1670 C1674 1.368 . S
C1671 C1652 1.429 . S
C1671 C1665 1.429 . S
C1671 C1672 1.523 . S
C1672 C1653 1.368 . S
C1672 C1666 1.368 . S
C1672 C1671 1.523 . S
C1673 C1657 1.429 . S
C1673 C1669 1.429 . S
C1673 C1674 1.523 . S
C1674 C1658 1.368 . S
C1674 C1670 1.368 . S
C1674 C1673 1.523 . S
H1675 C1650 0.950 . S
H1676 C1652 0.950 . S
H1677 C1653 0.949 . S
H1678 C1655 0.950 . S
H1679 C1657 0.950 . S
C1680 C1681 1.349 . S
C1680 C1682 1.327 . S
C1680 H1705 0.950 . S
C1681 C1680 1.349 . S
C1681 C1697 1.349 . S
C1682 C1680 1.327 . S
C1682 C1701 1.429 . S
C1682 H1706 0.950 . S
C1683 C1700 1.574 . S
C1683 C1702 1.368 . S
C1683 H1707 0.949 . S
H1684 C1688 0.949 . S
C1685 C1686 1.349 . S
C1685 C1687 1.327 . S
C1685 H1708 0.950 . S
C1686 C1685 1.349 . S
C1686 C1698 1.349 . S
C1687 C1685 1.327 . S
C1687 C1703 1.429 . S
C1687 H1709 0.950 . S
C1688 H1684 0.949 . S
C1688 C1696 1.574 . S
C1688 C1704 1.368 . S
H1689 C1697 0.950 . S
H1690 C1695 0.950 . S
H1691 C1696 0.949 . S
H1692 C1698 0.950 . S
H1693 C1699 0.950 . S
H1694 C1700 0.949 . S
C1695 H1690 0.950 . S
C1695 C1697 1.327 . S
C1695 C1701 1.429 . S
C1696 C1688 1.574 . S
C1696 H1691 0.949 . S
C1696 C1702 1.368 . S
C1697 C1681 1.349 . S
C1697 H1689 0.950 . S
C1697 C1695 1.327 . S
C1698 C1686 1.349 . S
C1698 H1692 0.950 . S
C1698 C1699 1.327 . S
C1699 H1693 0.950 . S
C1699 C1698 1.327 . S
C1699 C1703 1.429 . S
C1700 C1683 1.574 . S
C1700 H1694 0.949 . S
C1700 C1704 1.368 . S
C1701 C1682 1.429 . S
C1701 C1695 1.429 . S
C1701 C1702 1.523 . S
C1702 C1683 1.368 . S
C1702 C1696 1.368 . S
C1702 C1701 1.523 . S
C1703 C1687 1.429 . S
C1703 C1699 1.429 . S
C1703 C1704 1.523 . S
C1704 C1688 1.368 . S
C1704 C1700 1.368 . S
C1704 C1703 1.523 . S
H1705 C1680 0.950 . S
H1706 C1682 0.950 . S
H1707 C1683 0.949 . S
H1708 C1685 0.950 . S
H1709 C1687 0.950 . S
C1710 C1711 1.349 . S
C1710 C1712 1.327 . S
C1710 H1735 0.950 . S
C1711 C1710 1.349 . S
C1711 C1727 1.349 . S
C1712 C1710 1.327 . S
C1712 C1731 1.429 . S
C1712 H1736 0.950 . S
C1713 C1730 1.574 . S
C1713 C1732 1.368 . S
C1713 H1737 0.949 . S
H1714 C1718 0.949 . S
C1715 C1716 1.349 . S
C1715 C1717 1.327 . S
C1715 H1738 0.950 . S
C1716 C1715 1.349 . S
C1716 C1728 1.349 . S
C1717 C1715 1.327 . S
C1717 C1733 1.429 . S
C1717 H1739 0.950 . S
C1718 H1714 0.949 . S
C1718 C1726 1.574 . S
C1718 C1734 1.368 . S
H1719 C1727 0.950 . S
H1720 C1725 0.950 . S
H1721 C1726 0.949 . S
H1722 C1728 0.950 . S
H1723 C1729 0.950 . S
H1724 C1730 0.949 . S
C1725 H1720 0.950 . S
C1725 C1727 1.327 . S
C1725 C1731 1.429 . S
C1726 C1718 1.574 . S
C1726 H1721 0.949 . S
C1726 C1732 1.368 . S
C1727 C1711 1.349 . S
C1727 H1719 0.950 . S
C1727 C1725 1.327 . S
C1728 C1716 1.349 . S
C1728 H1722 0.950 . S
C1728 C1729 1.327 . S
C1729 H1723 0.950 . S
C1729 C1728 1.327 . S
C1729 C1733 1.429 . S
C1730 C1713 1.574 . S
C1730 H1724 0.949 . S
C1730 C1734 1.368 . S
C1731 C1712 1.429 . S
C1731 C1725 1.429 . S
C1731 C1732 1.523 . S
C1732 C1713 1.368 . S
C1732 C1726 1.368 . S
C1732 C1731 1.523 . S
C1733 C1717 1.429 . S
C1733 C1729 1.429 . S
C1733 C1734 1.523 . S
C1734 C1718 1.368 . S
C1734 C1730 1.368 . S
C1734 C1733 1.523 . S
H1735 C1710 0.950 . S
H1736 C1712 0.950 . S
H1737 C1713 0.949 . S
H1738 C1715 0.950 . S
H1739 C1717 0.950 . S
C1740 C1741 1.349 . S
C1740 C1742 1.327 . S
C1740 H1765 0.950 . S
C1741 C1740 1.349 . S
C1741 C1757 1.349 . S
C1742 C1740 1.327 . S
C1742 C1761 1.429 . S
C1742 H1766 0.950 . S
C1743 C1760 1.574 . S
C1743 C1762 1.368 . S
C1743 H1767 0.949 . S
H1744 C1748 0.949 . S
C1745 C1746 1.349 . S
C1745 C1747 1.327 . S
C1745 H1768 0.950 . S
C1746 C1745 1.349 . S
C1746 C1758 1.349 . S
C1747 C1745 1.327 . S
C1747 C1763 1.429 . S
C1747 H1769 0.950 . S
C1748 H1744 0.949 . S
C1748 C1756 1.574 . S
C1748 C1764 1.368 . S
H1749 C1757 0.950 . S
H1750 C1755 0.950 . S
H1751 C1756 0.949 . S
H1752 C1758 0.950 . S
H1753 C1759 0.950 . S
H1754 C1760 0.949 . S
C1755 H1750 0.950 . S
C1755 C1757 1.327 . S
C1755 C1761 1.429 . S
C1756 C1748 1.574 . S
C1756 H1751 0.949 . S
C1756 C1762 1.368 . S
C1757 C1741 1.349 . S
C1757 H1749 0.950 . S
C1757 C1755 1.327 . S
C1758 C1746 1.349 . S
C1758 H1752 0.950 . S
C1758 C1759 1.327 . S
C1759 H1753 0.950 . S
C1759 C1758 1.327 . S
C1759 C1763 1.429 . S
C1760 C1743 1.574 . S
C1760 H1754 0.949 . S
C1760 C1764 1.368 . S
C1761 C1742 1.429 . S
C1761 C1755 1.429 . S
C1761 C1762 1.523 . S
C1762 C1743 1.368 . S
C1762 C1756 1.368 . S
C1762 C1761 1.523 . S
C1763 C1747 1.429 . S
C1763 C1759 1.429 . S
C1763 C1764 1.523 . S
C1764 C1748 1.368 . S
C1764 C1760 1.368 . S
C1764 C1763 1.523 . S
H1765 C1740 0.950 . S
H1766 C1742 0.950 . S
H1767 C1743 0.949 . S
H1768 C1745 0.950 . S
H1769 C1747 0.950 . S
C1770 C1771 1.349 . S
C1770 C1772 1.327 . S
C1770 H1795 0.950 . S
C1771 C1770 1.349 . S
C1771 C1787 1.349 . S
C1772 C1770 1.327 . S
C1772 C1791 1.429 . S
C1772 H1796 0.950 . S
C1773 C1790 1.574 . S
C1773 C1792 1.368 . S
C1773 H1797 0.949 . S
H1774 C1778 0.949 . S
C1775 C1776 1.349 . S
C1775 C1777 1.327 . S
C1775 H1798 0.950 . S
C1776 C1775 1.349 . S
C1776 C1788 1.349 . S
C1777 C1775 1.327 . S
C1777 C1793 1.429 . S
C1777 H1799 0.950 . S
C1778 H1774 0.949 . S
C1778 C1786 1.574 . S
C1778 C1794 1.368 . S
H1779 C1787 0.950 . S
H1780 C1785 0.950 . S
H1781 C1786 0.949 . S
H1782 C1788 0.950 . S
H1783 C1789 0.950 . S
H1784 C1790 0.949 . S
C1785 H1780 0.950 . S
C1785 C1787 1.327 . S
C1785 C1791 1.429 . S
C1786 C1778 1.574 . S
C1786 H1781 0.949 . S
C1786 C1792 1.368 . S
C1787 C1771 1.349 . S
C1787 H1779 0.950 . S
C1787 C1785 1.327 . S
C1788 C1776 1.349 . S
C1788 H1782 0.950 . S
C1788 C1789 1.327 . S
C1789 H1783 0.950 . S
C1789 C1788 1.327 . S
C1789 C1793 1.429 . S
C1790 C1773 1.574 . S
C1790 H1784 0.949 . S
C1790 C1794 1.368 . S
C1791 C1772 1.429 . S
C1791 C1785 1.429 . S
C1791 C1792 1.523 . S
C1792 C1773 1.368 . S
C1792 C1786 1.368 . S
C1792 C1791 1.523 . S
C1793 C1777 1.429 . S
C1793 C1789 1.429 . S
C1793 C1794 1.523 . S
C1794 C1778 1.368 . S
C1794 C1790 1.368 . S
C1794 C1793 1.523 . S
H1795 C1770 0.950 . S
H1796 C1772 0.950 . S
H1797 C1773 0.949 . S
H1798 C1775 0.950 . S
H1799 C1777 0.950 . S
C1800 C1801 1.349 . S
C1800 C1802 1.327 . S
C1800 H1825 0.950 . S
C1801 C1800 1.349 . S
C1801 C1817 1.349 . S
C1802 C1800 1.327 . S
C1802 C1821 1.429 . S
C1802 H1826 0.950 . S
C1803 C1820 1.574 . S
C1803 C1822 1.368 . S
C1803 H1827 0.949 . S
H1804 C1808 0.949 . S
C1805 C1806 1.349 . S
C1805 C1807 1.327 . S
C1805 H1828 0.950 . S
C1806 C1805 1.349 . S
C1806 C1818 1.349 . S
C1807 C1805 1.327 . S
C1807 C1823 1.429 . S
C1807 H1829 0.950 . S
C1808 H1804 0.949 . S
C1808 C1816 1.574 . S
C1808 C1824 1.368 . S
H1809 C1817 0.950 . S
H1810 C1815 0.950 . S
H1811 C1816 0.949 . S
H1812 C1818 0.950 . S
H1813 C1819 0.950 . S
H1814 C1820 0.949 . S
C1815 H1810 0.950 . S
C1815 C1817 1.327 . S
C1815 C1821 1.429 . S
C1816 C1808 1.574 . S
C1816 H1811 0.949 . S
C1816 C1822 1.368 . S
C1817 C1801 1.349 . S
C1817 H1809 0.950 . S
C1817 C1815 1.327 . S
C1818 C1806 1.349 . S
C1818 H1812 0.950 . S
C1818 C1819 1.327 . S
C1819 H1813 0.950 . S
C1819 C1818 1.327 . S
C1819 C1823 1.429 . S
C1820 C1803 1.574 . S
C1820 H1814 0.949 . S
C1820 C1824 1.368 . S
C1821 C1802 1.429 . S
C1821 C1815 1.429 . S
C1821 C1822 1.523 . S
C1822 C1803 1.368 . S
C1822 C1816 1.368 . S
C1822 C1821 1.523 . S
C1823 C1807 1.429 . S
C1823 C1819 1.429 . S
C1823 C1824 1.523 . S
C1824 C1808 1.368 . S
C1824 C1820 1.368 . S
C1824 C1823 1.523 . S
H1825 C1800 0.950 . S
H1826 C1802 0.950 . S
H1827 C1803 0.949 . S
H1828 C1805 0.950 . S
H1829 C1807 0.950 . S
C1830 C1831 1.349 . S
C1830 C1832 1.327 . S
C1830 H1855 0.950 . S
C1831 C1830 1.349 . S
C1831 C1847 1.349 . S
C1832 C1830 1.327 . S
C1832 C1851 1.429 . S
C1832 H1856 0.950 . S
C1833 C1850 1.574 . S
C1833 C1852 1.368 . S
C1833 H1857 0.949 . S
H1834 C1838 0.949 . S
C1835 C1836 1.349 . S
C1835 C1837 1.327 . S
C1835 H1858 0.950 . S
C1836 C1835 1.349 . S
C1836 C1848 1.349 . S
C1837 C1835 1.327 . S
C1837 C1853 1.429 . S
C1837 H1859 0.950 . S
C1838 H1834 0.949 . S
C1838 C1846 1.574 . S
C1838 C1854 1.368 . S
H1839 C1847 0.950 . S
H1840 C1845 0.950 . S
H1841 C1846 0.949 . S
H1842 C1848 0.950 . S
H1843 C1849 0.950 . S
H1844 C1850 0.949 . S
C1845 H1840 0.950 . S
C1845 C1847 1.327 . S
C1845 C1851 1.429 . S
C1846 C1838 1.574 . S
C1846 H1841 0.949 . S
C1846 C1852 1.368 . S
C1847 C1831 1.349 . S
C1847 H1839 0.950 . S
C1847 C1845 1.327 . S
C1848 C1836 1.349 . S
C1848 H1842 0.950 . S
C1848 C1849 1.327 . S
C1849 H1843 0.950 . S
C1849 C1848 1.327 . S
C1849 C1853 1.429 . S
C1850 C1833 1.574 . S
C1850 H1844 0.949 . S
C1850 C1854 1.368 . S
C1851 C1832 1.429 . S
C1851 C1845 1.429 . S
C1851 C1852 1.523 . S
C1852 C1833 1.368 . S
C1852 C1846 1.368 . S
C1852 C1851 1.523 . S
C1853 C1837 1.429 . S
C1853 C1849 1.429 . S
C1853 C1854 1.523 . S
C1854 C1838 1.368 . S
C1854 C1850 1.368 . S
C1854 C1853 1.523 . S
H1855 C1830 0.950 . S
H1856 C1832 0.950 . S
H1857 C1833 0.949 . S
H1858 C1835 0.950 . S
H1859 C1837 0.950 . S
C1860 C1861 1.349 . S
C1860 C1862 1.327 . S
C1860 H1885 0.950 . S
C1861 C1860 1.349 . S
C1861 C1877 1.349 . S
C1862 C1860 1.327 . S
C1862 C1881 1.429 . S
C1862 H1886 0.950 . S
C1863 C1880 1.574 . S
C1863 C1882 1.368 . S
C1863 H1887 0.949 . S
H1864 C1868 0.949 . S
C1865 C1866 1.349 . S
C1865 C1867 1.327 . S
C1865 H1888 0.950 . S
C1866 C1865 1.349 . S
C1866 C1878 1.349 . S
C1867 C1865 1.327 . S
C1867 C1883 1.429 . S
C1867 H1889 0.950 . S
C1868 H1864 0.949 . S
C1868 C1876 1.574 . S
C1868 C1884 1.368 . S
H1869 C1877 0.950 . S
H1870 C1875 0.950 . S
H1871 C1876 0.949 . S
H1872 C1878 0.950 . S
H1873 C1879 0.950 . S
H1874 C1880 0.949 . S
C1875 H1870 0.950 . S
C1875 C1877 1.327 . S
C1875 C1881 1.429 . S
C1876 C1868 1.574 . S
C1876 H1871 0.949 . S
C1876 C1882 1.368 . S
C1877 C1861 1.349 . S
C1877 H1869 0.950 . S
C1877 C1875 1.327 . S
C1878 C1866 1.349 . S
C1878 H1872 0.950 . S
C1878 C1879 1.327 . S
C1879 H1873 0.950 . S
C1879 C1878 1.327 . S
C1879 C1883 1.429 . S
C1880 C1863 1.574 . S
C1880 H1874 0.949 . S
C1880 C1884 1.368 . S
C1881 C1862 1.429 . S
C1881 C1875 1.429 . S
C1881 C1882 1.523 . S
C1882 C1863 1.368 . S
C1882 C1876 1.368 . S
C1882 C1881 1.523 . S
C1883 C1867 1.429 . S
C1883 C1879 1.429 . S
C1883 C1884 1.523 . S
C1884 C1868 1.368 . S
C1884 C1880 1.368 . S
C1884 C1883 1.523 . S
H1885 C1860 0.950 . S
H1886 C1862 0.950 . S
H1887 C1863 0.949 . S
H1888 C1865 0.950 . S
H1889 C1867 0.950 . S
C1890 C1891 1.349 . S
C1890 C1892 1.327 . S
C1890 H1915 0.950 . S
C1891 C1890 1.349 . S
C1891 C1907 1.349 . S
C1892 C1890 1.327 . S
C1892 C1911 1.429 . S
C1892 H1916 0.950 . S
C1893 C1910 1.574 . S
C1893 C1912 1.368 . S
C1893 H1917 0.949 . S
H1894 C1898 0.949 . S
C1895 C1896 1.349 . S
C1895 C1897 1.327 . S
C1895 H1918 0.950 . S
C1896 C1895 1.349 . S
C1896 C1908 1.349 . S
C1897 C1895 1.327 . S
C1897 C1913 1.429 . S
C1897 H1919 0.950 . S
C1898 H1894 0.949 . S
C1898 C1906 1.574 . S
C1898 C1914 1.368 . S
H1899 C1907 0.950 . S
H1900 C1905 0.950 . S
H1901 C1906 0.949 . S
H1902 C1908 0.950 . S
H1903 C1909 0.950 . S
H1904 C1910 0.949 . S
C1905 H1900 0.950 . S
C1905 C1907 1.327 . S
C1905 C1911 1.429 . S
C1906 C1898 1.574 . S
C1906 H1901 0.949 . S
C1906 C1912 1.368 . S
C1907 C1891 1.349 . S
C1907 H1899 0.950 . S
C1907 C1905 1.327 . S
C1908 C1896 1.349 . S
C1908 H1902 0.950 . S
C1908 C1909 1.327 . S
C1909 H1903 0.950 . S
C1909 C1908 1.327 . S
C1909 C1913 1.429 . S
C1910 C1893 1.574 . S
C1910 H1904 0.949 . S
C1910 C1914 1.368 . S
C1911 C1892 1.429 . S
C1911 C1905 1.429 . S
C1911 C1912 1.523 . S
C1912 C1893 1.368 . S
C1912 C1906 1.368 . S
C1912 C1911 1.523 . S
C1913 C1897 1.429 . S
C1913 C1909 1.429 . S
C1913 C1914 1.523 . S
C1914 C1898 1.368 . S
C1914 C1910 1.368 . S
C1914 C1913 1.523 . S
H1915 C1890 0.950 . S
H1916 C1892 0.950 . S
H1917 C1893 0.949 . S
H1918 C1895 0.950 . S
H1919 C1897 0.950 . S
C1920 C1921 1.349 . S
C1920 C1922 1.327 . S
C1920 H1945 0.950 . S
C1921 C1920 1.349 . S
C1921 C1937 1.349 . S
C1922 C1920 1.327 . S
C1922 C1941 1.429 . S
C1922 H1946 0.950 . S
C1923 C1940 1.574 . S
C1923 C1942 1.368 . S
C1923 H1947 0.949 . S
H1924 C1928 0.949 . S
C1925 C1926 1.349 . S
C1925 C1927 1.327 . S
C1925 H1948 0.950 . S
C1926 C1925 1.349 . S
C1926 C1938 1.349 . S
C1927 C1925 1.327 . S
C1927 C1943 1.429 . S
C1927 H1949 0.950 . S
C1928 H1924 0.949 . S
C1928 C1936 1.574 . S
C1928 C1944 1.368 . S
H1929 C1937 0.950 . S
H1930 C1935 0.950 . S
H1931 C1936 0.949 . S
H1932 C1938 0.950 . S
H1933 C1939 0.950 . S
H1934 C1940 0.949 . S
C1935 H1930 0.950 . S
C1935 C1937 1.327 . S
C1935 C1941 1.429 . S
C1936 C1928 1.574 . S
C1936 H1931 0.949 . S
C1936 C1942 1.368 . S
C1937 C1921 1.349 . S
C1937 H1929 0.950 . S
C1937 C1935 1.327 . S
C1938 C1926 1.349 . S
C1938 H1932 0.950 . S
C1938 C1939 1.327 . S
C1939 H1933 0.950 . S
C1939 C1938 1.327 . S
C1939 C1943 1.429 . S
C1940 C1923 1.574 . S
C1940 H1934 0.949 . S
C1940 C1944 1.368 . S
C1941 C1922 1.429 . S
C1941 C1935 1.429 . S
C1941 C1942 1.523 . S
C1942 C1923 1.368 . S
C1942 C1936 1.368 . S
C1942 C1941 1.523 . S
C1943 C1927 1.429 . S
C1943 C1939 1.429 . S
C1943 C1944 1.523 . S
C1944 C1928 1.368 . S
C1944 C1940 1.368 . S
C1944 C1943 1.523 . S
H1945 C1920 0.950 . S
H1946 C1922 0.950 . S
H1947 C1923 0.949 . S
H1948 C1925 0.950 . S
H1949 C1927 0.950 . S
C1950 C1951 1.349 . S
C1950 C1952 1.327 . S
C1950 H1975 0.950 . S
C1951 C1950 1.349 . S
C1951 C1967 1.349 . S
C1952 C1950 1.327 . S
C1952 C1971 1.429 . S
C1952 H1976 0.950 . S
C1953 C1970 1.574 . S
C1953 C1972 1.368 . S
C1953 H1977 0.949 . S
H1954 C1958 0.949 . S
C1955 C1956 1.349 . S
C1955 C1957 1.327 . S
C1955 H1978 0.950 . S
C1956 C1955 1.349 . S
C1956 C1968 1.349 . S
C1957 C1955 1.327 . S
C1957 C1973 1.429 . S
C1957 H1979 0.950 . S
C1958 H1954 0.949 . S
C1958 C1966 1.574 . S
C1958 C1974 1.368 . S
H1959 C1967 0.950 . S
H1960 C1965 0.950 . S
H1961 C1966 0.949 . S
H1962 C1968 0.950 . S
H1963 C1969 0.950 . S
H1964 C1970 0.949 . S
C1965 H1960 0.950 . S
C1965 C1967 1.327 . S
C1965 C1971 1.429 . S
C1966 C1958 1.574 . S
C1966 H1961 0.949 . S
C1966 C1972 1.368 . S
C1967 C1951 1.349 . S
C1967 H1959 0.950 . S
C1967 C1965 1.327 . S
C1968 C1956 1.349 . S
C1968 H1962 0.950 . S
C1968 C1969 1.327 . S
C1969 H1963 0.950 . S
C1969 C1968 1.327 . S
C1969 C1973 1.429 . S
C1970 C1953 1.574 . S
C1970 H1964 0.949 . S
C1970 C1974 1.368 . S
C1971 C1952 1.429 . S
C1971 C1965 1.429 . S
C1971 C1972 1.523 . S
C1972 C1953 1.368 . S
C1972 C1966 1.368 . S
C1972 C1971 1.523 . S
C1973 C1957 1.429 . S
C1973 C1969 1.429 . S
C1973 C1974 1.523 . S
C1974 C1958 1.368 . S
C1974 C1970 1.368 . S
C1974 C1973 1.523 . S
H1975 C1950 0.950 . S
H1976 C1952 0.950 . S
H1977 C1953 0.949 . S
H1978 C1955 0.950 . S
H1979 C1957 0.950 . S
C1980 C1981 1.349 . S
C1980 C1982 1.327 . S
C1980 H2005 0.950 . S
C1981 C1980 1.349 . S
C1981 C1997 1.349 . S
C1982 C1980 1.327 . S
C1982 C2001 1.429 . S
C1982 H2006 0.950 . S
C1983 C2000 1.574 . S
C1983 C2002 1.368 . S
C1983 H2007 0.949 . S
H1984 C1988 0.949 . S
C1985 C1986 1.349 . S
C1985 C1987 1.327 . S
C1985 H2008 0.950 . S
C1986 C1985 1.349 . S
C1986 C1998 1.349 . S
C1987 C1985 1.327 . S
C1987 C2003 1.429 . S
C1987 H2009 0.950 . S
C1988 H1984 0.949 . S
C1988 C1996 1.574 . S
C1988 C2004 1.368 . S
H1989 C1997 0.950 . S
H1990 C1995 0.950 . S
H1991 C1996 0.949 . S
H1992 C1998 0.950 . S
H1993 C1999 0.950 . S
H1994 C2000 0.949 . S
C1995 H1990 0.950 . S
C1995 C1997 1.327 . S
C1995 C2001 1.429 . S
C1996 C1988 1.574 . S
C1996 H1991 0.949 . S
C1996 C2002 1.368 . S
C1997 C1981 1.349 . S
C1997 H1989 0.950 . S
C1997 C1995 1.327 . S
C1998 C1986 1.349 . S
C1998 H1992 0.950 . S
C1998 C1999 1.327 . S
C1999 H1993 0.950 . S
C1999 C1998 1.327 . S
C1999 C2003 1.429 . S
C2000 C1983 1.574 . S
C2000 H1994 0.949 . S
C2000 C2004 1.368 . S
C2001 C1982 1.429 . S
C2001 C1995 1.429 . S
C2001 C2002 1.523 . S
C2002 C1983 1.368 . S
C2002 C1996 1.368 . S
C2002 C2001 1.523 . S
C2003 C1987 1.429 . S
C2003 C1999 1.429 . S
C2003 C2004 1.523 . S
C2004 C1988 1.368 . S
C2004 C2000 1.368 . S
C2004 C2003 1.523 . S
H2005 C1980 0.950 . S
H2006 C1982 0.950 . S
H2007 C1983 0.949 . S
H2008 C1985 0.950 . S
H2009 C1987 0.950 . S
C2010 C2011 1.349 . S
C2010 C2012 1.327 . S
C2010 H2035 0.950 . S
C2011 C2010 1.349 . S
C2011 C2027 1.349 . S
C2012 C2010 1.327 . S
C2012 C2031 1.429 . S
C2012 H2036 0.950 . S
C2013 C2030 1.574 . S
C2013 C2032 1.368 . S
C2013 H2037 0.949 . S
H2014 C2018 0.949 . S
C2015 C2016 1.349 . S
C2015 C2017 1.327 . S
C2015 H2038 0.950 . S
C2016 C2015 1.349 . S
C2016 C2028 1.349 . S
C2017 C2015 1.327 . S
C2017 C2033 1.429 . S
C2017 H2039 0.950 . S
C2018 H2014 0.949 . S
C2018 C2026 1.574 . S
C2018 C2034 1.368 . S
H2019 C2027 0.950 . S
H2020 C2025 0.950 . S
H2021 C2026 0.949 . S
H2022 C2028 0.950 . S
H2023 C2029 0.950 . S
H2024 C2030 0.949 . S
C2025 H2020 0.950 . S
C2025 C2027 1.327 . S
C2025 C2031 1.429 . S
C2026 C2018 1.574 . S
C2026 H2021 0.949 . S
C2026 C2032 1.368 . S
C2027 C2011 1.349 . S
C2027 H2019 0.950 . S
C2027 C2025 1.327 . S
C2028 C2016 1.349 . S
C2028 H2022 0.950 . S
C2028 C2029 1.327 . S
C2029 H2023 0.950 . S
C2029 C2028 1.327 . S
C2029 C2033 1.429 . S
C2030 C2013 1.574 . S
C2030 H2024 0.949 . S
C2030 C2034 1.368 . S
C2031 C2012 1.429 . S
C2031 C2025 1.429 . S
C2031 C2032 1.523 . S
C2032 C2013 1.368 . S
C2032 C2026 1.368 . S
C2032 C2031 1.523 . S
C2033 C2017 1.429 . S
C2033 C2029 1.429 . S
C2033 C2034 1.523 . S
C2034 C2018 1.368 . S
C2034 C2030 1.368 . S
C2034 C2033 1.523 . S
H2035 C2010 0.950 . S
H2036 C2012 0.950 . S
H2037 C2013 0.949 . S
H2038 C2015 0.950 . S
H2039 C2017 0.950 . S
C961 C162 1.483 . S
C966 C2 1.482 . S
C991 C221 1.459 . S
C996 C42 1.465 . S
C1021 C101 1.487 . S
C1026 C261 1.488 . S
C1051 C282 1.467 . S
C1056 C141 1.461 . S
C1081 C341 1.489 . S
C1086 C442 1.478 . S
C1111 C402 1.479 . S
C1116 C381 1.472 . S
C1141 C482 1.503 . S
C1146 C642 1.503 . S
C1171 C682 1.480 . S
C1176 C541 1.473 . S
C1201 C741 1.450 . S
C1206 C581 1.448 . S
C1231 C602 1.472 . S
C1236 C781 1.477 . S
C1261 C941 1.483 . S
C1266 C802 1.494 . S
C1291 C901 1.481 . S
C1296 C842 1.492 . S
C1321 C775 1.505 . S
C1326 C21 1.488 . S
C1351 C655 1.525 . S
C1356 C61 1.514 . S
C1381 C82 1.537 . S
C1386 C701 1.536 . S
C1411 C135 1.499 . S
C1416 C722 1.487 . S
C1441 C181 1.494 . S
C1446 C522 1.494 . S
C1471 C562 1.485 . S
C1476 C215 1.498 . S
C1501 C242 1.544 . S
C1506 C621 1.536 . S
C1531 C301 1.519 . S
C1536 C495 1.530 . S
C1561 C122 1.477 . S
C1566 C935 1.493 . S
C1591 C15 1.545 . S
C1596 C861 1.545 . S
C1621 C55 1.550 . S
C1626 C815 1.549 . S
C1651 C95 1.518 . S
C1656 C882 1.499 . S
C1681 C202 1.474 . S
C1686 C895 1.490 . S
C1711 C255 1.525 . S
C1716 C922 1.506 . S
C1741 C855 1.550 . S
C1746 C295 1.551 . S
C1771 C175 1.549 . S
C1776 C821 1.548 . S
C1801 C335 1.524 . S
C1806 C661 1.521 . S
C1831 C501 1.524 . S
C1836 C362 1.503 . S
C1861 C322 1.505 . S
C1866 C535 1.510 . S
C1891 C415 1.523 . S
C1896 C575 1.523 . S
C1921 C615 1.546 . S
C1926 C461 1.531 . S
C1951 C735 1.523 . S
C1956 C455 1.522 . S
C1981 C762 1.500 . S
C1986 C375 1.506 . S
C2011 C695 1.547 . S
C2016 C421 1.534 . S
