# Generated by pormake.
# Topology zfu, (5)-cn, num edge types: 1
# Building blocks:
#     Node 0, Type 0, BuildingBlock: XOMCOT_clean_sbu_0, # of connection points: 5
#     Node 1, Type 0, BuildingBlock: XOMCOT_clean_sbu_0, # of connection points: 5
#     Node 2, Type 0, BuildingBlock: XOMCOT_clean_sbu_0, # of connection points: 5
#     Node 3, Type 0, BuildingBlock: XOMCOT_clean_sbu_0, # of connection points: 5
#     Node 4, Type 0, BuildingBlock: XOMCOT_clean_sbu_0, # of connection points: 5
#     Node 5, Type 0, BuildingBlock: XOMCOT_clean_sbu_0, # of connection points: 5
#     Node 6, Type 0, BuildingBlock: XOMCOT_clean_sbu_0, # of connection points: 5
#     Node 7, Type 0, BuildingBlock: XOMCOT_clean_sbu_0, # of connection points: 5
#     Edge 8, Type (0, 0), BuildingBlock: XIVTED_clean_linker_0, # of connection points: 2
#     Edge 9, Type (0, 0), BuildingBlock: XIVTED_clean_linker_0, # of connection points: 2
#     Edge 10, Type (0, 0), BuildingBlock: XIVTED_clean_linker_0, # of connection points: 2
#     Edge 11, Type (0, 0), BuildingBlock: XIVTED_clean_linker_0, # of connection points: 2
#     Edge 12, Type (0, 0), BuildingBlock: XIVTED_clean_linker_0, # of connection points: 2
#     Edge 13, Type (0, 0), BuildingBlock: XIVTED_clean_linker_0, # of connection points: 2
#     Edge 14, Type (0, 0), BuildingBlock: XIVTED_clean_linker_0, # of connection points: 2
#     Edge 15, Type (0, 0), BuildingBlock: XIVTED_clean_linker_0, # of connection points: 2
#     Edge 16, Type (0, 0), BuildingBlock: XIVTED_clean_linker_0, # of connection points: 2
#     Edge 17, Type (0, 0), BuildingBlock: XIVTED_clean_linker_0, # of connection points: 2
#     Edge 18, Type (0, 0), BuildingBlock: XIVTED_clean_linker_0, # of connection points: 2
#     Edge 19, Type (0, 0), BuildingBlock: XIVTED_clean_linker_0, # of connection points: 2
#     Edge 20, Type (0, 0), BuildingBlock: XIVTED_clean_linker_0, # of connection points: 2
#     Edge 21, Type (0, 0), BuildingBlock: XIVTED_clean_linker_0, # of connection points: 2
#     Edge 22, Type (0, 0), BuildingBlock: XIVTED_clean_linker_0, # of connection points: 2
#     Edge 23, Type (0, 0), BuildingBlock: XIVTED_clean_linker_0, # of connection points: 2
#     Edge 24, Type (0, 0), BuildingBlock: XIVTED_clean_linker_0, # of connection points: 2
#     Edge 25, Type (0, 0), BuildingBlock: XIVTED_clean_linker_0, # of connection points: 2
#     Edge 26, Type (0, 0), BuildingBlock: XIVTED_clean_linker_0, # of connection points: 2
#     Edge 27, Type (0, 0), BuildingBlock: XIVTED_clean_linker_0, # of connection points: 2
# Relax obj value: 0.175
# Max RMSD: 0.196
# Mean RMSD: 0.196
data_MOF--net-zfu--node1-XOMCOT_clean_sbu_0--edge1-XIVTED_clean_linker_0
_symmetry_space_group_name_H-M    P1
_symmetry_Int_Tables_number       1
_symmetry_cell_setting            triclinic
loop_
_symmetry_equiv_pos_as_xyz
'x, y, z'
_cell_length_a     41.108705
_cell_length_b     40.672299
_cell_length_c     24.988751
_cell_angle_alpha  90.251517
_cell_angle_beta   90.13673
_cell_angle_gamma 89.899187
loop_
_atom_site_label
_atom_site_type_symbol
_atom_site_fract_x
_atom_site_fract_y
_atom_site_fract_z
_atom_type_partial_charge
Co0 Co 0.44616 0.75333 0.9828 0.0
C1 C 0.49443 0.70135 1.01632 0.0
C2 C 0.47548 0.69455 0.93712 0.0
C3 C 0.49786 0.67034 0.94656 0.0
N4 N 0.47246 0.7136 0.98114 0.0
N5 N 0.50981 0.67454 0.99627 0.0
H6 H 0.50014 0.71234 0.05461 0.0
H7 H 0.464 0.69917 0.89903 0.0
C8 C 0.38935 0.73733 0.90532 0.0
O9 O 0.37249 0.76347 0.91892 0.0
N10 N 0.42079 0.79338 0.98106 0.0
C11 C 0.40664 0.80984 0.02174 0.0
C12 C 0.39382 0.83883 1.00201 0.0
C13 C 0.41712 0.81279 0.93775 0.0
N14 N 0.40023 0.84036 0.94911 0.0
C15 C 0.43591 0.73383 0.0909 0.0
C16 C 0.37136 0.71611 0.0841 0.0
C17 C 0.38726 0.71353 0.13373 0.0
C18 C 0.42005 0.72252 0.13639 0.0
C19 C 0.38832 0.72742 0.03912 0.0
N20 N 0.42044 0.73595 0.04252 0.0
H21 H 0.46089 0.74108 0.09539 0.0
H22 H 0.37503 0.72964 1.0025 0.0
H23 H 0.4061 0.80169 0.06286 0.0
H24 H 0.42664 0.80675 0.89856 0.0
O25 O 0.47809 0.77554 0.02553 0.0
O26 O 0.4789 0.77431 0.93701 0.0
O27 O 0.41702 0.7314 0.92702 0.0
C28 C 0.49244 0.78383 0.98179 0.0
H29 H 0.50624 0.65228 0.91775 0.0
H30 H 0.38062 0.85722 0.0247 0.0
H31 H 0.34585 0.70997 0.08007 0.0
H32 H 0.43372 0.72056 0.17333 0.0
Co33 Co 0.73518 0.95501 0.23112 0.0
C34 C 0.78828 1.00086 0.26566 0.0
C35 C 0.78246 0.99672 0.18032 0.0
C36 C 0.80602 0.01966 0.19066 0.0
N37 N 0.77127 0.98501 0.22706 0.0
N38 N 0.80966 0.02228 0.2441 0.0
H39 H 0.78444 0.99762 0.30815 0.0
H40 H 0.77341 0.98958 0.14129 0.0
C41 C 0.75657 0.89662 0.16782 0.0
O42 O 0.74242 0.87854 0.2044 0.0
N43 N 0.69803 0.92523 0.23054 0.0
C44 C 0.6857 0.90504 0.26818 0.0
C45 C 0.66169 0.88597 0.24517 0.0
C46 C 0.68071 0.91849 0.18568 0.0
N47 N 0.6587 0.89442 0.1933 0.0
C48 C 0.74599 0.9328 0.33771 0.0
C49 C 0.80584 0.90349 0.32195 0.0
C50 C 0.79313 0.9053 0.37393 0.0
C51 C 0.76284 0.92017 0.38138 0.0
C52 C 0.78827 0.91703 0.2791 0.0
N53 N 0.7581 0.93051 0.28694 0.0
H54 H 0.72312 0.94495 0.34532 0.0
H55 H 0.79967 0.91783 0.24028 0.0
H56 H 0.69389 0.90281 0.3089 0.0
H57 H 0.6856 0.92961 0.14727 0.0
O58 O 0.71253 0.98455 0.27796 0.0
O59 O 0.7091 0.98658 0.18969 0.0
O60 O 0.75601 0.92803 0.17175 0.0
C61 C 0.7005 0.99857 0.23613 0.0
H62 H 0.81942 0.03356 0.16117 0.0
H63 H 0.64796 0.86682 0.26482 0.0
H64 H 0.82966 0.89294 0.31486 0.0
H65 H 0.75222 0.92222 0.4209 0.0
Co66 Co 0.56887 0.26722 0.49158 0.0
C67 C 0.51466 0.31498 0.51556 0.0
C68 C 0.55268 0.33637 0.46876 0.0
C69 C 0.52832 0.35909 0.47423 0.0
N70 N 0.54442 0.30849 0.49456 0.0
N71 N 0.50425 0.34568 0.5032 0.0
H72 H 0.50026 0.29736 0.53745 0.0
H73 H 0.57454 0.3402 0.44586 0.0
C74 C 0.62533 0.28407 0.42126 0.0
O75 O 0.64424 0.26743 0.45388 0.0
N76 N 0.59271 0.2258 0.48536 0.0
C77 C 0.59927 0.20323 0.5234 0.0
C78 C 0.61015 0.1748 0.49928 0.0
C79 C 0.59924 0.21024 0.43848 0.0
N80 N 0.61012 0.17924 0.44592 0.0
C81 C 0.59802 0.27128 0.59538 0.0
C82 C 0.63445 0.32729 0.5803 0.0
C83 C 0.63371 0.31301 0.63126 0.0
C84 C 0.61545 0.28445 0.63816 0.0
C85 C 0.61694 0.31293 0.53802 0.0
N86 N 0.59919 0.28482 0.54543 0.0
H87 H 0.58208 0.25113 0.60402 0.0
H88 H 0.61693 0.32542 0.5002 0.0
H89 H 0.59445 0.2057 0.56549 0.0
H90 H 0.59415 0.22067 0.39957 0.0
O91 O 0.53944 0.24697 0.54065 0.0
O92 O 0.53293 0.24626 0.45261 0.0
O93 O 0.59468 0.28537 0.42968 0.0
C94 C 0.52287 0.23699 0.49971 0.0
H95 H 0.5282 0.38359 0.45748 0.0
H96 H 0.61645 0.15214 0.5194 0.0
H97 H 0.6479 0.34975 0.57338 0.0
H98 H 0.61305 0.27329 0.67725 0.0
Co99 Co 0.27319 0.06284 0.72361 0.0
C100 C 0.21444 0.02105 0.74584 0.0
C101 C 0.22628 0.02625 0.66262 0.0
C102 C 0.19941 1.00667 0.66643 0.0
N103 N 0.23563 0.03548 0.71205 0.0
N104 N 0.19177 1.00341 0.71859 0.0
H105 H 0.21552 0.02352 0.78895 0.0
H106 H 0.23861 0.03299 0.62609 0.0
C107 C 0.25567 0.12261 0.66125 0.0
O108 O 0.26825 0.13995 0.70067 0.0
N109 N 0.31219 0.08985 0.72996 0.0
C110 C 0.33343 0.09318 0.771 0.0
C111 C 0.36079 0.10928 0.75306 0.0
C112 C 0.32778 0.10285 0.6874 0.0
N113 N 0.35702 0.11546 0.7005 0.0
C114 C 0.26133 0.08989 0.82701 0.0
C115 C 0.20421 0.12284 0.80482 0.0
C116 C 0.21779 0.12553 0.85639 0.0
C117 C 0.24629 0.10791 0.86723 0.0
C118 C 0.22009 0.10399 0.76547 0.0
N119 N 0.24939 0.08932 0.77606 0.0
H120 H 0.28217 0.07546 0.83788 0.0
H121 H 0.20873 0.10117 0.7267 0.0
H122 H 0.33094 0.08263 0.81022 0.0
H123 H 0.31882 0.10128 0.64673 0.0
O124 O 0.2907 0.03199 0.77347 0.0
O125 O 0.29988 0.02978 0.68626 0.0
O126 O 0.25709 0.09117 0.66241 0.0
C127 C 0.30503 0.0176 0.73389 0.0
H128 H 0.18702 0.99495 0.63321 0.0
H129 H 0.38227 0.11495 0.77647 0.0
H130 H 0.18167 0.13518 0.79481 0.0
H131 H 0.25667 0.10725 0.90709 0.0
Co132 Co 0.96235 0.769 0.84521 0.0
C133 C 1.00369 0.82742 0.82047 0.0
C134 C 0.98342 0.82856 0.89953 0.0
C135 C 1.00461 0.85428 0.89493 0.0
N136 N 0.98259 0.81171 0.85296 0.0
N137 N 0.01762 0.85343 0.84558 0.0
H138 H 0.01037 0.81879 0.78096 0.0
H139 H 0.9713 0.82149 0.93595 0.0
C140 C 0.90022 0.77816 0.90525 0.0
O141 O 0.88572 0.76208 0.8662 0.0
N142 N 0.94297 0.72526 0.84266 0.0
C143 C 0.9444 0.70158 0.80461 0.0
C144 C 0.93366 0.67231 0.826 0.0
C145 C 0.93291 0.70935 0.88706 0.0
N146 N 0.92637 0.67734 0.87797 0.0
C147 C 0.93393 0.77279 0.74124 0.0
C148 C 0.8976 0.82912 0.75679 0.0
C149 C 0.89777 0.81435 0.70578 0.0
C150 C 0.91648 0.78589 0.69862 0.0
C151 C 0.91576 0.81517 0.79865 0.0
N152 N 0.9329 0.78667 0.79099 0.0
H153 H 0.94979 0.75246 0.73294 0.0
H154 H 0.91663 0.82777 0.83678 0.0
H155 H 0.95494 0.70409 0.7654 0.0
H156 H 0.93259 0.72047 0.92643 0.0
O157 O 0.99575 0.75559 0.79669 0.0
O158 O 0.99898 0.74932 0.88454 0.0
O159 O 0.93117 0.78178 0.90479 0.0
C160 C 0.01228 0.74549 0.83739 0.0
H161 H 0.01098 0.87153 0.92635 0.0
H162 H 0.93248 0.64892 0.80528 0.0
H163 H 0.88393 0.85143 0.76427 0.0
H164 H 0.91895 0.77442 0.65965 0.0
Co165 Co 0.7755 0.47548 0.10428 0.0
C166 C 0.72147 0.52574 0.08445 0.0
C167 C 0.74903 0.53342 0.15618 0.0
C168 C 0.72531 0.55705 0.15376 0.0
N169 N 0.74709 0.51375 0.11263 0.0
N170 N 0.7079 0.55222 0.10879 0.0
H171 H 0.71189 0.51506 0.04826 0.0
H172 H 0.76589 0.53011 0.18898 0.0
C173 C 0.72248 0.45169 0.17457 0.0
O174 O 0.70228 0.46665 0.14194 0.0
N175 N 0.8045 0.43831 0.10104 0.0
C176 C 0.81514 0.42077 0.05874 0.0
C177 C 0.83586 0.39651 0.07736 0.0
C178 C 0.81903 0.42506 0.14424 0.0
N179 N 0.83828 0.39945 0.13113 0.0
C180 C 0.74376 0.46904 1.00372 0.0
C181 C 0.72015 0.40608 1.01657 0.0
C182 C 0.71618 0.42165 0.96688 0.0
C183 C 0.72813 0.45361 0.96112 0.0
C184 C 0.73584 0.42266 0.0587 0.0
N185 N 0.74684 0.45414 0.05232 0.0
H186 H 0.75395 0.49311 0.9971 0.0
H187 H 0.74049 0.40955 0.09544 0.0
H188 H 0.80839 0.42526 1.01755 0.0
H189 H 0.81527 0.43393 0.18465 0.0
O190 O 0.80159 0.49818 0.05303 0.0
O191 O 0.81005 0.50051 0.14046 0.0
O192 O 0.75314 0.45376 0.16683 0.0
C193 C 0.81858 0.50954 0.09243 0.0
H194 H 0.72036 0.57543 0.18413 0.0
H195 H 0.84856 0.37851 0.05313 0.0
H196 H 0.7118 0.38113 0.02255 0.0
H197 H 0.72674 0.46627 0.92313 0.0
Co198 Co 0.04947 0.24882 0.33662 0.0
C199 C 0.99908 0.19588 0.33977 0.0
C200 C 0.04741 0.17673 0.34775 0.0
C201 C 0.02583 0.15084 0.34868 0.0
N202 N 0.03065 0.20502 0.3418 0.0
N203 N 0.99543 0.16296 0.34344 0.0
H204 H 0.97902 0.21274 0.33575 0.0
H205 H 0.07363 0.17495 0.34989 0.0
C206 C 0.10818 0.24677 0.41247 0.0
O207 O 0.11957 0.27444 0.39353 0.0
N208 N 0.06742 0.29284 0.3341 0.0
C209 C 0.07884 0.31014 0.29232 0.0
C210 C 0.08784 0.341 0.31047 0.0
C211 C 0.06798 0.31387 0.37606 0.0
N212 N 0.08134 0.34304 0.36337 0.0
C213 C 0.06207 0.21721 0.2385 0.0
C214 C 0.1275 0.2306 0.2286 0.0
C215 C 0.11124 0.21506 0.18585 0.0
C216 C 0.07825 0.20765 0.19225 0.0
C217 C 0.11036 0.23923 0.27516 0.0
N218 N 0.07782 0.23294 0.27938 0.0
H219 H 0.03627 0.21248 0.24089 0.0
H220 H 0.12309 0.25237 0.30595 0.0
H221 H 0.08074 0.30102 0.25173 0.0
H222 H 0.05985 0.30732 0.41577 0.0
O223 O 0.01547 0.2631 0.28999 0.0
O224 O 0.01318 0.26718 0.37839 0.0
O225 O 0.08132 0.23471 0.39507 0.0
C226 C 0.99963 0.2727 0.33181 0.0
H227 H 0.03217 0.12506 0.35111 0.0
H228 H 0.09923 0.36003 0.28691 0.0
H229 H 0.15294 0.23716 0.22552 0.0
H230 H 0.06464 0.19483 0.16147 0.0
Co231 Co 0.23454 0.54733 0.59045 0.0
C232 C 0.28939 0.49745 0.5703 0.0
C233 C 0.25646 0.48457 0.63291 0.0
C234 C 0.27997 0.4608 0.62994 0.0
N235 N 0.26178 0.50769 0.5953 0.0
N236 N 0.30092 0.46888 0.59089 0.0
H237 H 0.30223 0.51131 0.5404 0.0
H238 H 0.23723 0.48522 0.66227 0.0
C239 C 0.28696 0.56745 0.66574 0.0
O240 O 0.30751 0.55327 0.63282 0.0
N241 N 0.20657 0.58554 0.59067 0.0
C242 C 0.19646 0.60474 0.55012 0.0
C243 C 0.17608 0.62871 0.57085 0.0
C244 C 0.19197 0.59758 0.63489 0.0
N245 N 0.17324 0.62401 0.62417 0.0
C246 C 0.26866 0.55564 0.49321 0.0
C247 C 0.28915 0.61949 0.50999 0.0
C248 C 0.29261 0.60544 0.4588 0.0
C249 C 0.28316 0.57268 0.45154 0.0
C250 C 0.27481 0.60122 0.55129 0.0
N251 N 0.26457 0.56966 0.54246 0.0
H252 H 0.25966 0.53119 0.48514 0.0
H253 H 0.26988 0.61327 0.58904 0.0
H254 H 0.20328 0.60149 0.50865 0.0
H255 H 0.1952 0.58715 0.67432 0.0
O256 O 0.20873 0.52772 0.53507 0.0
O257 O 0.19837 0.52211 0.62131 0.0
O258 O 0.25641 0.56601 0.65639 0.0
C259 C 0.19049 0.51539 0.57178 0.0
H260 H 0.28159 0.43937 0.6553 0.0
H261 H 0.1638 0.6477 0.54824 0.0
H262 H 0.29569 0.6449 0.5173 0.0
H263 H 0.28587 0.56046 0.41322 0.0
H264 H 0.69333 0.61566 0.13274 0.0
H265 H 0.52193 0.61003 0.98112 0.0
H266 H 0.65661 0.53011 0.04978 0.0
H267 H 0.55791 0.69633 0.06249 0.0
H268 H 0.57004 0.57972 1.00996 0.0
H269 H 0.64338 0.64512 0.11037 0.0
C270 C 0.67473 0.60301 0.10992 0.0
C271 C 0.67921 0.57028 0.09321 0.0
C272 C 0.56743 0.60522 0.02186 0.0
C273 C 0.62192 0.60401 0.06721 0.0
C274 C 0.53997 0.62253 1.00537 0.0
C275 C 0.53609 0.6558 1.01906 0.0
C276 C 0.59141 0.62128 0.05221 0.0
C277 C 0.55989 0.67068 0.05131 0.0
C278 C 0.64623 0.61991 0.09705 0.0
C279 C 0.65446 0.55538 0.06297 0.0
N280 N 0.58672 0.65337 0.06645 0.0
N281 N 0.62688 0.57234 0.05105 0.0
H282 H 0.93981 0.18239 0.2937 0.0
H283 H 0.84979 1.00925 0.32784 0.0
H284 H 0.98244 0.10133 0.38023 0.0
H285 H 0.81994 0.08555 0.21928 0.0
H286 H 0.89349 0.0455 0.3613 0.0
H287 H 0.89084 0.15014 0.28008 0.0
C288 C 0.93882 0.15797 0.31054 0.0
C289 C 0.96555 0.14459 0.33799 0.0
C290 C 0.87707 0.0544 0.33065 0.0
C291 C 0.90928 0.10704 0.32156 0.0
C292 C 0.85209 0.03388 0.312 0.0
C293 C 0.83161 0.0445 0.27058 0.0
C294 C 0.88114 0.08573 0.30793 0.0
C295 C 0.83556 0.07642 0.25084 0.0
C296 C 0.9108 0.1394 0.30237 0.0
C297 C 0.9627 0.11247 0.35807 0.0
N298 N 0.85991 0.09581 0.26945 0.0
N299 N 0.93515 0.0947 0.3492 0.0
H300 H 0.46601 0.33652 0.59059 0.0
H301 H 0.33394 0.47032 0.49641 0.0
H302 H 0.47188 0.38993 0.44225 0.0
H303 H 0.33549 0.42676 0.65365 0.0
H304 H 0.38283 0.43881 0.47365 0.0
H305 H 0.41546 0.3661 0.61168 0.0
C306 C 0.45654 0.35425 0.56235 0.0
C307 C 0.4734 0.36103 0.51495 0.0
C308 C 0.37237 0.43614 0.51312 0.0
C309 C 0.4158 0.39507 0.53869 0.0
C310 C 0.34454 0.45431 0.52623 0.0
C311 C 0.33028 0.45118 0.57693 0.0
C312 C 0.38609 0.41462 0.55094 0.0
C313 C 0.34506 0.42964 0.61371 0.0
C314 C 0.42784 0.3713 0.57447 0.0
C315 C 0.4601 0.3844 0.47978 0.0
N316 N 0.37202 0.41223 0.59998 0.0
N317 N 0.4322 0.40057 0.49238 0.0
H318 H 0.06717 0.87783 0.90487 0.0
H319 H 0.13536 0.98841 0.66785 0.0
H320 H 0.02788 0.87561 0.74478 0.0
H321 H 0.18768 0.97343 0.81569 0.0
H322 H 0.09347 0.95071 0.69815 0.0
H323 H 0.10943 0.91558 0.87524 0.0
C324 C 0.06741 0.88542 0.86341 0.0
C325 C 0.04378 0.87391 0.82724 0.0
C326 C 0.11411 0.9556 0.724 0.0
C327 C 0.09221 0.9171 0.79305 0.0
C328 C 0.13814 0.97711 0.70671 0.0
C329 C 0.16544 0.98376 0.73895 0.0
C330 C 0.11708 0.94071 0.77421 0.0
C331 C 0.16709 0.96911 0.7896 0.0
C332 C 0.09165 0.90683 0.8465 0.0
C333 C 0.04568 0.88391 0.77379 0.0
N334 N 0.14327 0.94815 0.80562 0.0
N335 N 0.06936 0.90518 0.75834 0.0
H336 H 0.26907 0.6036 0.35632 0.0
H337 H 0.39487 0.73388 0.23833 0.0
H338 H 0.34146 0.65202 0.45402 0.0
H339 H 0.34094 0.66492 0.14084 0.0
H340 H 0.37047 0.71005 0.31825 0.0
H341 H 0.28993 0.63196 0.27809 0.0
C342 C 0.28953 0.62007 0.36139 0.0
C343 C 0.30397 0.62481 0.41191 0.0
C344 C 0.36393 0.70023 0.27933 0.0
C345 C 0.32758 0.65808 0.32198 0.0
C346 C 0.37796 0.7137 0.23355 0.0
C347 C 0.37034 0.70117 0.18244 0.0
C348 C 0.34179 0.67422 0.2742 0.0
C349 C 0.34747 0.67562 0.17909 0.0
C350 C 0.30129 0.63642 0.31659 0.0
C351 C 0.32961 0.64749 0.41598 0.0
N352 N 0.33414 0.66295 0.22428 0.0
N353 N 0.34073 0.66315 0.37153 0.0
H354 H 0.8206 0.84449 0.38718 0.0
H355 H 0.88885 0.87993 0.68142 0.0
H356 H 0.80624 0.93733 0.46773 0.0
H357 H 0.86735 0.78231 0.6226 0.0
H358 H 0.86451 0.90277 0.60012 0.0
H359 H 0.84572 0.82264 0.46896 0.0
C360 C 0.82312 0.86033 0.42189 0.0
C361 C 0.81123 0.89264 0.42093 0.0
C362 C 0.86511 0.87635 0.60524 0.0
C363 C 0.83973 0.86796 0.51433 0.0
C364 C 0.87874 0.86326 0.6519 0.0
C365 C 0.88046 0.82904 0.65902 0.0
C366 C 0.85345 0.85511 0.56509 0.0
C367 C 0.86733 0.80879 0.6186 0.0
C368 C 0.83715 0.84783 0.46861 0.0
C369 C 0.81485 0.91215 0.4671 0.0
N370 N 0.85467 0.82209 0.57333 0.0
N371 N 0.82882 0.89954 0.51191 0.0
H372 H 0.67469 0.44695 0.89162 0.0
H373 H 0.669 0.28397 0.71141 0.0
H374 H 0.72512 0.35758 0.934 0.0
H375 H 0.6326 0.37816 0.65957 0.0
H376 H 0.68823 0.30955 0.79446 0.0
H377 H 0.65643 0.42088 0.8088 0.0
C378 C 0.68186 0.42177 0.88359 0.0
C379 C 0.70172 0.40454 0.91976 0.0
C380 C 0.67625 0.32467 0.76478 0.0
C381 C 0.68073 0.37443 0.82469 0.0
C382 C 0.66529 0.3101 0.71736 0.0
C383 C 0.64914 0.32896 0.6785 0.0
C384 C 0.67078 0.35833 0.77372 0.0
C385 C 0.64521 0.36275 0.68812 0.0
C386 C 0.67143 0.40691 0.8362 0.0
C387 C 0.70967 0.37175 0.90759 0.0
N388 N 0.65572 0.37628 0.73491 0.0
N389 N 0.69926 0.3578 0.86098 0.0
H390 H 0.24771 0.16133 0.93571 0.0
H391 H 0.08564 0.21651 0.08403 0.0
H392 H 0.15235 0.13442 0.87732 0.0
H393 H 0.1749 0.19566 0.1692 0.0
H394 H 0.11136 0.19842 1.00119 0.0
H395 H 0.22255 0.18642 1.01422 0.0
C396 C 0.22146 0.16069 0.93919 0.0
C397 C 0.20221 0.14497 0.90011 0.0
C398 C 0.12526 0.19793 0.03806 0.0
C399 C 0.17333 0.17463 0.98953 0.0
C400 C 0.11059 0.20801 0.08562 0.0
C401 C 0.12783 0.20696 0.13438 0.0
C402 C 0.15768 0.18738 0.0387 0.0
C403 C 0.16057 0.197 0.13292 0.0
C404 C 0.20719 0.17516 0.98401 0.0
C405 C 0.16825 0.14617 0.90615 0.0
N406 N 0.1744 0.18753 0.08587 0.0
N407 N 0.15489 0.16059 0.9502 0.0
H408 H 0.25504 0.61753 0.71826 0.0
H409 H 0.41449 0.67753 0.87481 0.0
H410 H 0.34847 0.56948 0.70686 0.0
H411 H 0.3288 0.73811 0.85797 0.0
H412 H 0.3886 0.63519 0.82074 0.0
H413 H 0.27924 0.65873 0.77823 0.0
C414 C 0.28049 0.61532 0.72902 0.0
C415 C 0.29978 0.59 0.70746 0.0
C416 C 0.37546 0.65778 0.82867 0.0
C417 C 0.32762 0.6372 0.77557 0.0
C418 C 0.39036 0.68218 0.85944 0.0
C419 C 0.37409 0.7118 0.87069 0.0
C420 C 0.34379 0.66269 0.80914 0.0
C421 C 0.34245 0.71583 0.85017 0.0
C422 C 0.29434 0.63902 0.76286 0.0
C423 C 0.3327 0.5886 0.72235 0.0
N424 N 0.32831 0.69155 0.82049 0.0
N425 N 0.34554 0.61186 0.75534 0.0
H426 H 0.74935 0.8343 0.12937 0.0
H427 H 0.91599 0.83191 0.96688 0.0
H428 H 0.80901 0.92075 0.11235 0.0
H429 H 0.83828 0.7632 0.93604 0.0
H430 H 0.88047 0.8617 0.02915 0.0
H431 H 0.78453 0.80518 0.06611 0.0
C432 C 0.76978 0.84722 0.11205 0.0
C433 C 0.77622 0.88003 0.12603 0.0
C434 C 0.87127 0.84006 1.00881 0.0
C435 C 0.81696 0.8466 0.0543 0.0
C436 C 0.89163 0.82283 0.97369 0.0
C437 C 0.88014 0.79491 0.94635 0.0
C438 C 0.83935 0.829 1.01731 0.0
C439 C 0.84814 0.78461 0.95619 0.0
C440 C 0.78983 0.83058 0.07594 0.0
C441 C 0.80302 0.89555 0.10233 0.0
N442 N 0.82894 0.80153 0.99102 0.0
N443 N 0.82263 0.8786 0.06799 0.0
H444 H 0.75611 0.40889 0.23964 0.0
H445 H 0.59381 0.32347 0.34912 0.0
H446 H 0.65875 0.43985 0.19837 0.0
H447 H 0.69008 0.29605 0.40227 0.0
H448 H 0.61783 0.36442 0.29036 0.0
H449 H 0.73303 0.36664 0.29795 0.0
C450 C 0.72992 0.40706 0.2432 0.0
C451 C 0.70936 0.42804 0.21402 0.0
C452 C 0.63377 0.3494 0.3147 0.0
C453 C 0.68281 0.37942 0.28009 0.0
C454 C 0.62004 0.32585 0.34819 0.0
C455 C 0.6399 0.30632 0.38102 0.0
C456 C 0.66768 0.35357 0.31379 0.0
C457 C 0.67377 0.31054 0.37776 0.0
C458 C 0.71676 0.3828 0.27628 0.0
C459 C 0.6756 0.4243 0.21998 0.0
N460 N 0.68659 0.33379 0.34495 0.0
N461 N 0.66345 0.40045 0.2521 0.0
H462 H 0.15935 0.27008 0.47056 0.0
H463 H 0.21103 0.09565 0.59161 0.0
H464 H 0.104 0.18159 0.44212 0.0
H465 H 0.25377 0.18818 0.63903 0.0
H466 H 0.17412 0.12538 0.53149 0.0
H467 H 0.19585 0.23935 0.52858 0.0
C468 C 0.15475 0.24415 0.47668 0.0
C469 C 0.12854 0.2284 0.45124 0.0
C470 C 0.19168 0.1391 0.55492 0.0
C471 C 0.1707 0.19281 0.51769 0.0
C472 C 0.21295 0.12215 0.5889 0.0
C473 C 0.23557 0.13947 0.62041 0.0
C474 C 0.19322 0.17357 0.55218 0.0
C475 C 0.23671 0.1738 0.61564 0.0
C476 C 0.17569 0.22658 0.50989 0.0
C477 C 0.12382 0.19475 0.46102 0.0
N478 N 0.21587 0.18966 0.5823 0.0
N479 N 0.14483 0.178 0.49326 0.0
H480 H 0.39757 0.90577 0.96823 0.0
H481 H 0.30226 0.95233 0.70423 0.0
H482 H 0.38107 0.83276 0.84574 0.0
H483 H 0.35756 0.02223 0.79682 0.0
H484 H 0.32998 0.90729 0.75223 0.0
H485 H 0.38038 0.94854 0.90561 0.0
C486 C 0.39029 0.89881 0.92809 0.0
C487 C 0.39071 0.86577 0.91213 0.0
C488 C 0.33668 0.9325 0.76083 0.0
C489 C 0.37083 0.91449 0.84005 0.0
C490 C 0.32121 0.95811 0.73294 0.0
C491 C 0.32803 0.9909 0.74626 0.0
C492 C 0.35842 0.94006 0.80277 0.0
C493 C 0.35189 0.99721 0.78513 0.0
C494 C 0.38073 0.92319 0.89216 0.0
C495 C 0.3813 0.85805 0.85939 0.0
N496 N 0.36581 0.97212 0.81255 0.0
N497 N 0.37135 0.88218 0.82535 0.0
H498 H 0.50395 0.84968 0.97409 0.0
H499 H 0.64495 0.82965 0.18523 0.0
H500 H 0.55009 0.75691 1.00731 0.0
H501 H 0.62735 0.92301 0.10964 0.0
H502 H 0.61002 0.8031 0.1187 0.0
H503 H 0.54961 0.87811 1.01809 0.0
C504 C 0.52452 0.83545 0.98824 0.0
C505 C 0.52375 0.80101 0.98606 0.0
C506 C 0.61393 0.82937 0.11623 0.0
C507 C 0.57486 0.83299 0.03908 0.0
C508 C 0.63361 0.84455 0.15459 0.0
C509 C 0.63875 0.8786 0.15323 0.0
C510 C 0.59863 0.84839 0.07661 0.0
C511 C 0.62394 0.89669 0.11201 0.0
C512 C 0.55031 0.8516 1.01409 0.0
C513 C 0.5502 0.78355 1.00719 0.0
N514 N 0.60414 0.88145 0.07574 0.0
N515 N 0.57436 0.79965 0.03362 0.0
H516 H 0.70996 0.06316 0.20939 0.0
H517 H 0.59452 0.11489 0.44913 0.0
H518 H 0.643 0.99758 0.28674 0.0
H519 H 0.64157 0.18749 0.35124 0.0
H520 H 0.60983 0.07242 0.38478 0.0
H521 H 0.68246 0.1101 0.25273 0.0
C522 C 0.68853 0.05883 0.23349 0.0
C523 C 0.67832 0.02662 0.24401 0.0
C524 C 0.61666 0.09763 0.37682 0.0
C525 C 0.64779 0.07967 0.29539 0.0
C526 C 0.60808 0.12184 0.41387 0.0
C527 C 0.61712 0.15464 0.40577 0.0
C528 C 0.63503 0.10599 0.33149 0.0
C529 C 0.6342 0.16241 0.35886 0.0
C530 C 0.67313 0.08553 0.25884 0.0
C531 C 0.65128 0.02213 0.27715 0.0
N532 N 0.64307 0.13818 0.3238 0.0
N533 N 0.63727 0.04822 0.30215 0.0
H534 H 0.45713 0.24575 0.48489 0.0
H535 H 0.42261 0.11028 0.70477 0.0
H536 H 0.52897 0.1767 0.5407 0.0
H537 H 0.34433 0.15366 0.61414 0.0
H538 H 0.46169 0.1357 0.64436 0.0
H539 H 0.41446 0.21258 0.52807 0.0
C540 C 0.46367 0.22291 0.50434 0.0
C541 C 0.49637 0.21352 0.50877 0.0
C542 C 0.43596 0.13955 0.63731 0.0
C543 C 0.44842 0.17656 0.55994 0.0
C544 C 0.41369 0.12527 0.67217 0.0
C545 C 0.38024 0.13002 0.6646 0.0
C546 C 0.42483 0.15926 0.59491 0.0
C547 C 0.36997 0.14931 0.62113 0.0
C548 C 0.43948 0.20424 0.52953 0.0
C549 C 0.5039 0.18445 0.536 0.0
N550 N 0.39219 0.16355 0.58819 0.0
N551 N 0.48023 0.16726 0.5611 0.0
H552 H 0.89206 0.68894 0.96903 0.0
H553 H 0.87053 0.49795 0.02995 0.0
H554 H 0.93646 0.61113 0.8766 0.0
H555 H 0.82386 0.574 0.12245 0.0
H556 H 0.90257 0.53963 0.98398 0.0
H557 H 0.87326 0.64821 0.03357 0.0
C558 C 0.89817 0.66335 0.96251 0.0
C559 C 0.91577 0.65351 0.91696 0.0
C560 C 0.88597 0.54733 1.01521 0.0
C561 C 0.89412 0.60661 0.99087 0.0
C562 C 0.86803 0.52347 0.04198 0.0
C563 C 0.84499 0.53263 0.08048 0.0
C564 C 0.88025 0.58075 0.0261 0.0
C565 C 0.84193 0.566 0.09372 0.0
C566 C 0.88735 0.64007 0.99942 0.0
C567 C 0.92255 0.61989 0.91047 0.0
N568 N 0.85897 0.58898 0.06587 0.0
N569 N 0.91162 0.59772 0.94681 0.0
H570 H 0.97841 0.33358 0.36471 0.0
H571 H 0.85381 0.33504 0.12029 0.0
H572 H 0.9501 0.24776 0.2745 0.0
H573 H 0.86614 0.41866 0.22499 0.0
H574 H 0.88689 0.30213 0.18118 0.0
H575 H 0.93388 0.36449 0.32182 0.0
C576 C 0.9619 0.32091 0.33783 0.0
C577 C 0.96758 0.28804 0.32356 0.0
C578 C 0.88221 0.32762 0.19121 0.0
C579 C 0.91781 0.32323 0.27287 0.0
C580 C 0.86356 0.34648 0.15608 0.0
C581 C 0.85736 0.37967 0.16733 0.0
C582 C 0.89527 0.34211 0.23778 0.0
C583 C 0.87017 0.39309 0.2149 0.0
C584 C 0.93684 0.33861 0.3127 0.0
C585 C 0.94627 0.27297 0.28709 0.0
N586 N 0.8888 0.37438 0.24811 0.0
N587 N 0.92269 0.29074 0.26256 0.0
H588 H 0.14807 0.52629 0.49181 0.0
H589 H 0.09745 0.33725 0.46858 0.0
H590 H 0.17384 0.45452 0.61091 0.0
H591 H 0.08642 0.40824 0.3421 0.0
H592 H 0.11622 0.38108 0.52843 0.0
H593 H 0.11498 0.48523 0.44586 0.0
C594 C 0.14592 0.502 0.50912 0.0
C595 C 0.16357 0.49373 0.55522 0.0
C596 C 0.10937 0.38713 0.48777 0.0
C597 C 0.12666 0.44608 0.50166 0.0
C598 C 0.09846 0.36214 0.45356 0.0
C599 C 0.09037 0.36905 0.40003 0.0
C600 C 0.11208 0.41936 0.46851 0.0
C601 C 0.09274 0.40171 0.38274 0.0
C602 C 0.1273 0.47845 0.48256 0.0
C603 C 0.16024 0.46191 0.5758 0.0
N604 N 0.10344 0.42556 0.41677 0.0
N605 N 0.14255 0.43898 0.54832 0.0
H606 H 0.1576 0.68875 0.61907 0.0
H607 H 0.03298 0.68323 0.86289 0.0
H608 H 0.14501 0.60224 0.71589 0.0
H609 H 0.0618 0.77198 0.78273 0.0
H610 H 0.07692 0.65348 0.81632 0.0
H611 H 0.12424 0.71987 0.68235 0.0
C612 C 0.14777 0.67628 0.65361 0.0
C613 C 0.15403 0.64279 0.66191 0.0
C614 C 0.07421 0.67967 0.8101 0.0
C615 C 0.11575 0.67835 0.73513 0.0
C616 C 0.04949 0.6967 0.83738 0.0
C617 C 0.04416 0.73013 0.82709 0.0
C618 C 0.09325 0.69624 0.77194 0.0
C619 C 0.0654 0.74625 0.79211 0.0
C620 C 0.12893 0.69412 0.6901 0.0
C621 C 0.14102 0.62805 0.70801 0.0
N622 N 0.08865 0.72913 0.76533 0.0
N623 N 0.12225 0.64581 0.74256 0.0
loop_
_geom_bond_atom_site_label_1
_geom_bond_atom_site_label_2
_geom_bond_distance
_geom_bond_site_symmetry_2
_ccdc_geom_bond_type
Co0 N4 2.148 . S
Co0 N10 2.128 . S
Co0 N20 2.194 1_556 S
Co0 O25 2.351 1_556 S
Co0 O26 2.155 . S
Co0 O27 2.096 . S
C1 N4 1.301 1_554 S
C1 N5 1.328 . S
C1 H6 0.930 . S
C2 C3 1.333 . S
C2 N4 1.317 . S
C2 H7 0.930 . S
C3 C2 1.333 . S
C3 N5 1.350 1_556 S
C3 H29 0.931 . S
N4 Co0 2.148 . S
N4 C1 1.301 1_556 S
N4 C2 1.317 . S
N5 C1 1.328 . S
N5 C3 1.350 1_554 S
H6 C1 0.930 . S
H7 C2 0.930 . S
C8 O9 1.224 . S
C8 O27 1.247 . S
O9 C8 1.224 . S
N10 Co0 2.128 . S
N10 C11 1.355 1_556 S
N10 C13 1.311 . S
C11 N10 1.355 1_554 S
C11 C12 1.363 . S
C11 H23 0.929 . S
C12 C11 1.363 . S
C12 N14 1.375 1_554 S
C12 H30 0.931 . S
C13 N10 1.311 . S
C13 N14 1.347 . S
C13 H24 0.929 . S
N14 C12 1.375 1_556 S
N14 C13 1.347 . S
C15 C18 1.365 . S
C15 N20 1.328 . S
C15 H21 0.929 . S
C16 C17 1.362 . S
C16 C19 1.378 . S
C16 H31 0.929 . S
C17 C16 1.362 . S
C17 C18 1.366 . S
C18 C15 1.365 . S
C18 C17 1.366 . S
C18 H32 0.930 . S
C19 C16 1.378 . S
C19 N20 1.315 . S
C19 H22 0.930 . S
N20 Co0 2.194 1_554 S
N20 C15 1.328 . S
N20 C19 1.315 . S
H21 C15 0.929 . S
H22 C19 0.930 . S
H23 C11 0.929 . S
H24 C13 0.929 . S
O25 Co0 2.351 1_554 S
O25 C28 1.244 . S
O26 Co0 2.155 . S
O26 C28 1.240 1_556 S
O27 Co0 2.096 . S
O27 C8 1.247 . S
C28 O25 1.244 . S
C28 O26 1.240 1_554 S
H29 C3 0.931 . S
H30 C12 0.931 . S
H31 C16 0.929 . S
H32 C18 0.930 . S
Co33 N37 2.148 . S
Co33 N43 2.128 . S
Co33 N53 2.194 . S
Co33 O58 2.351 . S
Co33 O59 2.155 . S
Co33 O60 2.096 . S
C34 N37 1.301 . S
C34 N38 1.328 1_565 S
C34 H39 0.930 . S
C35 C36 1.333 . S
C35 N37 1.317 . S
C35 H40 0.930 . S
C36 C35 1.333 . S
C36 N38 1.350 1_565 S
C36 H62 0.931 . S
N37 Co33 2.148 . S
N37 C34 1.301 . S
N37 C35 1.317 . S
N38 C34 1.328 1_545 S
N38 C36 1.350 1_545 S
H39 C34 0.930 . S
H40 C35 0.930 . S
C41 O42 1.224 . S
C41 O60 1.247 . S
O42 C41 1.224 . S
N43 Co33 2.128 . S
N43 C44 1.355 . S
N43 C46 1.311 . S
C44 N43 1.355 . S
C44 C45 1.363 . S
C44 H56 0.929 . S
C45 C44 1.363 . S
C45 N47 1.375 . S
C45 H63 0.931 . S
C46 N43 1.311 . S
C46 N47 1.347 . S
C46 H57 0.929 . S
N47 C45 1.375 . S
N47 C46 1.347 . S
C48 C51 1.365 . S
C48 N53 1.328 . S
C48 H54 0.929 . S
C49 C50 1.362 . S
C49 C52 1.378 . S
C49 H64 0.929 . S
C50 C49 1.362 . S
C50 C51 1.366 . S
C51 C48 1.365 . S
C51 C50 1.366 . S
C51 H65 0.930 . S
C52 C49 1.378 . S
C52 N53 1.315 . S
C52 H55 0.930 . S
N53 Co33 2.194 . S
N53 C48 1.328 . S
N53 C52 1.315 . S
H54 C48 0.929 . S
H55 C52 0.930 . S
H56 C44 0.929 . S
H57 C46 0.929 . S
O58 Co33 2.351 . S
O58 C61 1.244 . S
O59 Co33 2.155 . S
O59 C61 1.240 . S
O60 Co33 2.096 . S
O60 C41 1.247 . S
C61 O58 1.244 . S
C61 O59 1.240 . S
H62 C36 0.931 . S
H63 C45 0.931 . S
H64 C49 0.929 . S
H65 C51 0.930 . S
Co66 N70 2.148 . S
Co66 N76 2.128 . S
Co66 N86 2.194 . S
Co66 O91 2.351 . S
Co66 O92 2.155 . S
Co66 O93 2.096 . S
C67 N70 1.301 . S
C67 N71 1.328 . S
C67 H72 0.930 . S
C68 C69 1.333 . S
C68 N70 1.317 . S
C68 H73 0.930 . S
C69 C68 1.333 . S
C69 N71 1.350 . S
C69 H95 0.931 . S
N70 Co66 2.148 . S
N70 C67 1.301 . S
N70 C68 1.317 . S
N71 C67 1.328 . S
N71 C69 1.350 . S
H72 C67 0.930 . S
H73 C68 0.930 . S
C74 O75 1.224 . S
C74 O93 1.247 . S
O75 C74 1.224 . S
N76 Co66 2.128 . S
N76 C77 1.355 . S
N76 C79 1.311 . S
C77 N76 1.355 . S
C77 C78 1.363 . S
C77 H89 0.929 . S
C78 C77 1.363 . S
C78 N80 1.375 . S
C78 H96 0.931 . S
C79 N76 1.311 . S
C79 N80 1.347 . S
C79 H90 0.929 . S
N80 C78 1.375 . S
N80 C79 1.347 . S
C81 C84 1.365 . S
C81 N86 1.328 . S
C81 H87 0.929 . S
C82 C83 1.362 . S
C82 C85 1.378 . S
C82 H97 0.929 . S
C83 C82 1.362 . S
C83 C84 1.366 . S
C84 C81 1.365 . S
C84 C83 1.366 . S
C84 H98 0.930 . S
C85 C82 1.378 . S
C85 N86 1.315 . S
C85 H88 0.930 . S
N86 Co66 2.194 . S
N86 C81 1.328 . S
N86 C85 1.315 . S
H87 C81 0.929 . S
H88 C85 0.930 . S
H89 C77 0.929 . S
H90 C79 0.929 . S
O91 Co66 2.351 . S
O91 C94 1.244 . S
O92 Co66 2.155 . S
O92 C94 1.240 . S
O93 Co66 2.096 . S
O93 C74 1.247 . S
C94 O91 1.244 . S
C94 O92 1.240 . S
H95 C69 0.931 . S
H96 C78 0.931 . S
H97 C82 0.929 . S
H98 C84 0.930 . S
Co99 N103 2.148 . S
Co99 N109 2.128 . S
Co99 N119 2.194 . S
Co99 O124 2.351 . S
Co99 O125 2.155 . S
Co99 O126 2.096 . S
C100 N103 1.301 . S
C100 N104 1.328 1_545 S
C100 H105 0.930 . S
C101 C102 1.333 . S
C101 N103 1.317 . S
C101 H106 0.930 . S
C102 C101 1.333 . S
C102 N104 1.350 1_545 S
C102 H128 0.931 . S
N103 Co99 2.148 . S
N103 C100 1.301 . S
N103 C101 1.317 . S
N104 C100 1.328 1_565 S
N104 C102 1.350 1_565 S
H105 C100 0.930 . S
H106 C101 0.930 . S
C107 O108 1.224 . S
C107 O126 1.247 . S
O108 C107 1.224 . S
N109 Co99 2.128 . S
N109 C110 1.355 . S
N109 C112 1.311 . S
C110 N109 1.355 . S
C110 C111 1.363 . S
C110 H122 0.929 . S
C111 C110 1.363 . S
C111 N113 1.375 . S
C111 H129 0.931 . S
C112 N109 1.311 . S
C112 N113 1.347 . S
C112 H123 0.929 . S
N113 C111 1.375 . S
N113 C112 1.347 . S
C114 C117 1.365 . S
C114 N119 1.328 . S
C114 H120 0.929 . S
C115 C116 1.362 . S
C115 C118 1.378 . S
C115 H130 0.929 . S
C116 C115 1.362 . S
C116 C117 1.366 . S
C117 C114 1.365 . S
C117 C116 1.366 . S
C117 H131 0.930 . S
C118 C115 1.378 . S
C118 N119 1.315 . S
C118 H121 0.930 . S
N119 Co99 2.194 . S
N119 C114 1.328 . S
N119 C118 1.315 . S
H120 C114 0.929 . S
H121 C118 0.930 . S
H122 C110 0.929 . S
H123 C112 0.929 . S
O124 Co99 2.351 . S
O124 C127 1.244 . S
O125 Co99 2.155 . S
O125 C127 1.240 . S
O126 Co99 2.096 . S
O126 C107 1.247 . S
C127 O124 1.244 . S
C127 O125 1.240 . S
H128 C102 0.931 . S
H129 C111 0.931 . S
H130 C115 0.929 . S
H131 C117 0.930 . S
Co132 N136 2.148 . S
Co132 N142 2.128 . S
Co132 N152 2.194 . S
Co132 O157 2.351 . S
Co132 O158 2.155 . S
Co132 O159 2.096 . S
C133 N136 1.301 . S
C133 N137 1.328 1_655 S
C133 H138 0.930 . S
C134 C135 1.333 . S
C134 N136 1.317 . S
C134 H139 0.930 . S
C135 C134 1.333 . S
C135 N137 1.350 1_655 S
C135 H161 0.931 . S
N136 Co132 2.148 . S
N136 C133 1.301 . S
N136 C134 1.317 . S
N137 C133 1.328 1_455 S
N137 C135 1.350 1_455 S
H138 C133 0.930 . S
H139 C134 0.930 . S
C140 O141 1.224 . S
C140 O159 1.247 . S
O141 C140 1.224 . S
N142 Co132 2.128 . S
N142 C143 1.355 . S
N142 C145 1.311 . S
C143 N142 1.355 . S
C143 C144 1.363 . S
C143 H155 0.929 . S
C144 C143 1.363 . S
C144 N146 1.375 . S
C144 H162 0.931 . S
C145 N142 1.311 . S
C145 N146 1.347 . S
C145 H156 0.929 . S
N146 C144 1.375 . S
N146 C145 1.347 . S
C147 C150 1.365 . S
C147 N152 1.328 . S
C147 H153 0.929 . S
C148 C149 1.362 . S
C148 C151 1.378 . S
C148 H163 0.929 . S
C149 C148 1.362 . S
C149 C150 1.366 . S
C150 C147 1.365 . S
C150 C149 1.366 . S
C150 H164 0.930 . S
C151 C148 1.378 . S
C151 N152 1.315 . S
C151 H154 0.930 . S
N152 Co132 2.194 . S
N152 C147 1.328 . S
N152 C151 1.315 . S
H153 C147 0.929 . S
H154 C151 0.930 . S
H155 C143 0.929 . S
H156 C145 0.929 . S
O157 Co132 2.351 . S
O157 C160 1.244 . S
O158 Co132 2.155 . S
O158 C160 1.240 . S
O159 Co132 2.096 . S
O159 C140 1.247 . S
C160 O157 1.244 . S
C160 O158 1.240 . S
H161 C135 0.931 . S
H162 C144 0.931 . S
H163 C148 0.929 . S
H164 C150 0.930 . S
Co165 N169 2.148 . S
Co165 N175 2.128 . S
Co165 N185 2.194 1_554 S
Co165 O190 2.351 1_554 S
Co165 O191 2.155 . S
Co165 O192 2.096 . S
C166 N169 1.301 . S
C166 N170 1.328 . S
C166 H171 0.930 1_554 S
C167 C168 1.333 . S
C167 N169 1.317 . S
C167 H172 0.930 . S
C168 C167 1.333 . S
C168 N170 1.350 . S
C168 H194 0.931 . S
N169 Co165 2.148 . S
N169 C166 1.301 . S
N169 C167 1.317 . S
N170 C166 1.328 . S
N170 C168 1.350 . S
H171 C166 0.930 1_556 S
H172 C167 0.930 . S
C173 O174 1.224 . S
C173 O192 1.247 . S
O174 C173 1.224 . S
N175 Co165 2.128 . S
N175 C176 1.355 . S
N175 C178 1.311 . S
C176 N175 1.355 . S
C176 C177 1.363 . S
C176 H188 0.929 1_554 S
C177 C176 1.363 . S
C177 N179 1.375 . S
C177 H195 0.931 . S
C178 N175 1.311 . S
C178 N179 1.347 . S
C178 H189 0.929 . S
N179 C177 1.375 . S
N179 C178 1.347 . S
C180 C183 1.365 . S
C180 N185 1.328 . S
C180 H186 0.929 . S
C181 C182 1.362 . S
C181 C184 1.378 . S
C181 H196 0.929 . S
C182 C181 1.362 . S
C182 C183 1.366 . S
C183 C180 1.365 . S
C183 C182 1.366 . S
C183 H197 0.930 . S
C184 C181 1.378 . S
C184 N185 1.315 . S
C184 H187 0.930 1_556 S
N185 Co165 2.194 1_556 S
N185 C180 1.328 . S
N185 C184 1.315 . S
H186 C180 0.929 . S
H187 C184 0.930 1_554 S
H188 C176 0.929 1_556 S
H189 C178 0.929 . S
O190 Co165 2.351 1_556 S
O190 C193 1.244 1_556 S
O191 Co165 2.155 . S
O191 C193 1.240 . S
O192 Co165 2.096 . S
O192 C173 1.247 . S
C193 O190 1.244 1_554 S
C193 O191 1.240 . S
H194 C168 0.931 . S
H195 C177 0.931 . S
H196 C181 0.929 . S
H197 C183 0.930 . S
Co198 N202 2.148 . S
Co198 N208 2.128 . S
Co198 N218 2.194 . S
Co198 O223 2.351 . S
Co198 O224 2.155 . S
Co198 O225 2.096 . S
C199 N202 1.301 . S
C199 N203 1.328 1_455 S
C199 H204 0.930 . S
C200 C201 1.333 . S
C200 N202 1.317 . S
C200 H205 0.930 . S
C201 C200 1.333 . S
C201 N203 1.350 1_455 S
C201 H227 0.931 . S
N202 Co198 2.148 . S
N202 C199 1.301 . S
N202 C200 1.317 . S
N203 C199 1.328 1_655 S
N203 C201 1.350 1_655 S
H204 C199 0.930 . S
H205 C200 0.930 . S
C206 O207 1.224 . S
C206 O225 1.247 . S
O207 C206 1.224 . S
N208 Co198 2.128 . S
N208 C209 1.355 . S
N208 C211 1.311 . S
C209 N208 1.355 . S
C209 C210 1.363 . S
C209 H221 0.929 . S
C210 C209 1.363 . S
C210 N212 1.375 . S
C210 H228 0.931 . S
C211 N208 1.311 . S
C211 N212 1.347 . S
C211 H222 0.929 . S
N212 C210 1.375 . S
N212 C211 1.347 . S
C213 C216 1.365 . S
C213 N218 1.328 . S
C213 H219 0.929 . S
C214 C215 1.362 . S
C214 C217 1.378 . S
C214 H229 0.929 . S
C215 C214 1.362 . S
C215 C216 1.366 . S
C216 C213 1.365 . S
C216 C215 1.366 . S
C216 H230 0.930 . S
C217 C214 1.378 . S
C217 N218 1.315 . S
C217 H220 0.930 . S
N218 Co198 2.194 . S
N218 C213 1.328 . S
N218 C217 1.315 . S
H219 C213 0.929 . S
H220 C217 0.930 . S
H221 C209 0.929 . S
H222 C211 0.929 . S
O223 Co198 2.351 . S
O223 C226 1.244 . S
O224 Co198 2.155 . S
O224 C226 1.240 . S
O225 Co198 2.096 . S
O225 C206 1.247 . S
C226 O223 1.244 . S
C226 O224 1.240 . S
H227 C201 0.931 . S
H228 C210 0.931 . S
H229 C214 0.929 . S
H230 C216 0.930 . S
Co231 N235 2.148 . S
Co231 N241 2.128 . S
Co231 N251 2.194 . S
Co231 O256 2.351 . S
Co231 O257 2.155 . S
Co231 O258 2.096 . S
C232 N235 1.301 . S
C232 N236 1.328 . S
C232 H237 0.930 . S
C233 C234 1.333 . S
C233 N235 1.317 . S
C233 H238 0.930 . S
C234 C233 1.333 . S
C234 N236 1.350 . S
C234 H260 0.931 . S
N235 Co231 2.148 . S
N235 C232 1.301 . S
N235 C233 1.317 . S
N236 C232 1.328 . S
N236 C234 1.350 . S
H237 C232 0.930 . S
H238 C233 0.930 . S
C239 O240 1.224 . S
C239 O258 1.247 . S
O240 C239 1.224 . S
N241 Co231 2.128 . S
N241 C242 1.355 . S
N241 C244 1.311 . S
C242 N241 1.355 . S
C242 C243 1.363 . S
C242 H254 0.929 . S
C243 C242 1.363 . S
C243 N245 1.375 . S
C243 H261 0.931 . S
C244 N241 1.311 . S
C244 N245 1.347 . S
C244 H255 0.929 . S
N245 C243 1.375 . S
N245 C244 1.347 . S
C246 C249 1.365 . S
C246 N251 1.328 . S
C246 H252 0.929 . S
C247 C248 1.362 . S
C247 C250 1.378 . S
C247 H262 0.929 . S
C248 C247 1.362 . S
C248 C249 1.366 . S
C249 C246 1.365 . S
C249 C248 1.366 . S
C249 H263 0.930 . S
C250 C247 1.378 . S
C250 N251 1.315 . S
C250 H253 0.930 . S
N251 Co231 2.194 . S
N251 C246 1.328 . S
N251 C250 1.315 . S
H252 C246 0.929 . S
H253 C250 0.930 . S
H254 C242 0.929 . S
H255 C244 0.929 . S
O256 Co231 2.351 . S
O256 C259 1.244 . S
O257 Co231 2.155 . S
O257 C259 1.240 . S
O258 Co231 2.096 . S
O258 C239 1.247 . S
C259 O256 1.244 . S
C259 O257 1.240 . S
H260 C234 0.931 . S
H261 C243 0.931 . S
H262 C247 0.929 . S
H263 C249 0.930 . S
H264 C270 0.930 . S
H265 C274 0.930 . S
H266 C279 0.929 . S
H267 C277 0.929 . S
H268 C272 0.929 . S
H269 C278 0.929 . S
C270 H264 0.930 . S
C270 C271 1.367 . S
C270 C278 1.378 . S
C271 C270 1.367 . S
C271 C279 1.433 1_554 S
C272 H268 0.929 . S
C272 C274 1.378 . S
C272 C276 1.350 1_556 S
C273 C276 1.463 . S
C273 C278 1.350 . S
C273 N281 1.427 1_554 S
C274 H265 0.930 . S
C274 C272 1.378 . S
C274 C275 1.367 1_556 S
C275 C274 1.367 1_554 S
C275 C277 1.433 . S
C276 C272 1.350 1_554 S
C276 C273 1.463 . S
C276 N280 1.427 . S
C277 H267 0.929 . S
C277 C275 1.433 . S
C277 N280 1.384 . S
C278 H269 0.929 . S
C278 C270 1.378 . S
C278 C273 1.350 . S
C279 H266 0.929 . S
C279 C271 1.433 1_556 S
C279 N281 1.384 . S
N280 C276 1.427 . S
N280 C277 1.384 . S
N281 C273 1.427 1_556 S
N281 C279 1.384 . S
H282 C288 0.930 . S
H283 C292 0.930 . S
H284 C297 0.929 . S
H285 C295 0.929 . S
H286 C290 0.929 . S
H287 C296 0.929 . S
C288 H282 0.930 . S
C288 C289 1.367 . S
C288 C296 1.378 . S
C289 C288 1.367 . S
C289 C297 1.433 . S
C290 H286 0.929 . S
C290 C292 1.378 . S
C290 C294 1.350 . S
C291 C294 1.463 . S
C291 C296 1.350 . S
C291 N299 1.427 . S
C292 H283 0.930 . S
C292 C290 1.378 . S
C292 C293 1.367 . S
C293 C292 1.367 . S
C293 C295 1.433 . S
C294 C290 1.350 . S
C294 C291 1.463 . S
C294 N298 1.427 . S
C295 H285 0.929 . S
C295 C293 1.433 . S
C295 N298 1.384 . S
C296 H287 0.929 . S
C296 C288 1.378 . S
C296 C291 1.350 . S
C297 H284 0.929 . S
C297 C289 1.433 . S
C297 N299 1.384 . S
N298 C294 1.427 . S
N298 C295 1.384 . S
N299 C291 1.427 . S
N299 C297 1.384 . S
H300 C306 0.930 . S
H301 C310 0.930 . S
H302 C315 0.929 . S
H303 C313 0.929 . S
H304 C308 0.929 . S
H305 C314 0.929 . S
C306 H300 0.930 . S
C306 C307 1.367 . S
C306 C314 1.378 . S
C307 C306 1.367 . S
C307 C315 1.433 . S
C308 H304 0.929 . S
C308 C310 1.378 . S
C308 C312 1.350 . S
C309 C312 1.463 . S
C309 C314 1.350 . S
C309 N317 1.427 . S
C310 H301 0.930 . S
C310 C308 1.378 . S
C310 C311 1.367 . S
C311 C310 1.367 . S
C311 C313 1.433 . S
C312 C308 1.350 . S
C312 C309 1.463 . S
C312 N316 1.427 . S
C313 H303 0.929 . S
C313 C311 1.433 . S
C313 N316 1.384 . S
C314 H305 0.929 . S
C314 C306 1.378 . S
C314 C309 1.350 . S
C315 H302 0.929 . S
C315 C307 1.433 . S
C315 N317 1.384 . S
N316 C312 1.427 . S
N316 C313 1.384 . S
N317 C309 1.427 . S
N317 C315 1.384 . S
H318 C324 0.930 . S
H319 C328 0.930 . S
H320 C333 0.929 . S
H321 C331 0.929 . S
H322 C326 0.929 . S
H323 C332 0.929 . S
C324 H318 0.930 . S
C324 C325 1.367 . S
C324 C332 1.378 . S
C325 C324 1.367 . S
C325 C333 1.433 . S
C326 H322 0.929 . S
C326 C328 1.378 . S
C326 C330 1.350 . S
C327 C330 1.463 . S
C327 C332 1.350 . S
C327 N335 1.427 . S
C328 H319 0.930 . S
C328 C326 1.378 . S
C328 C329 1.367 . S
C329 C328 1.367 . S
C329 C331 1.433 . S
C330 C326 1.350 . S
C330 C327 1.463 . S
C330 N334 1.427 . S
C331 H321 0.929 . S
C331 C329 1.433 . S
C331 N334 1.384 . S
C332 H323 0.929 . S
C332 C324 1.378 . S
C332 C327 1.350 . S
C333 H320 0.929 . S
C333 C325 1.433 . S
C333 N335 1.384 . S
N334 C330 1.427 . S
N334 C331 1.384 . S
N335 C327 1.427 . S
N335 C333 1.384 . S
H336 C342 0.930 . S
H337 C346 0.930 . S
H338 C351 0.929 . S
H339 C349 0.929 . S
H340 C344 0.929 . S
H341 C350 0.929 . S
C342 H336 0.930 . S
C342 C343 1.367 . S
C342 C350 1.378 . S
C343 C342 1.367 . S
C343 C351 1.433 . S
C344 H340 0.929 . S
C344 C346 1.378 . S
C344 C348 1.350 . S
C345 C348 1.463 . S
C345 C350 1.350 . S
C345 N353 1.427 . S
C346 H337 0.930 . S
C346 C344 1.378 . S
C346 C347 1.367 . S
C347 C346 1.367 . S
C347 C349 1.433 . S
C348 C344 1.350 . S
C348 C345 1.463 . S
C348 N352 1.427 . S
C349 H339 0.929 . S
C349 C347 1.433 . S
C349 N352 1.384 . S
C350 H341 0.929 . S
C350 C342 1.378 . S
C350 C345 1.350 . S
C351 H338 0.929 . S
C351 C343 1.433 . S
C351 N353 1.384 . S
N352 C348 1.427 . S
N352 C349 1.384 . S
N353 C345 1.427 . S
N353 C351 1.384 . S
H354 C360 0.930 . S
H355 C364 0.930 . S
H356 C369 0.929 . S
H357 C367 0.929 . S
H358 C362 0.929 . S
H359 C368 0.929 . S
C360 H354 0.930 . S
C360 C361 1.367 . S
C360 C368 1.378 . S
C361 C360 1.367 . S
C361 C369 1.433 . S
C362 H358 0.929 . S
C362 C364 1.378 . S
C362 C366 1.350 . S
C363 C366 1.463 . S
C363 C368 1.350 . S
C363 N371 1.427 . S
C364 H355 0.930 . S
C364 C362 1.378 . S
C364 C365 1.367 . S
C365 C364 1.367 . S
C365 C367 1.433 . S
C366 C362 1.350 . S
C366 C363 1.463 . S
C366 N370 1.427 . S
C367 H357 0.929 . S
C367 C365 1.433 . S
C367 N370 1.384 . S
C368 H359 0.929 . S
C368 C360 1.378 . S
C368 C363 1.350 . S
C369 H356 0.929 . S
C369 C361 1.433 . S
C369 N371 1.384 . S
N370 C366 1.427 . S
N370 C367 1.384 . S
N371 C363 1.427 . S
N371 C369 1.384 . S
H372 C378 0.930 . S
H373 C382 0.930 . S
H374 C387 0.929 . S
H375 C385 0.929 . S
H376 C380 0.929 . S
H377 C386 0.929 . S
C378 H372 0.930 . S
C378 C379 1.367 . S
C378 C386 1.378 . S
C379 C378 1.367 . S
C379 C387 1.433 . S
C380 H376 0.929 . S
C380 C382 1.378 . S
C380 C384 1.350 . S
C381 C384 1.463 . S
C381 C386 1.350 . S
C381 N389 1.427 . S
C382 H373 0.930 . S
C382 C380 1.378 . S
C382 C383 1.367 . S
C383 C382 1.367 . S
C383 C385 1.433 . S
C384 C380 1.350 . S
C384 C381 1.463 . S
C384 N388 1.427 . S
C385 H375 0.929 . S
C385 C383 1.433 . S
C385 N388 1.384 . S
C386 H377 0.929 . S
C386 C378 1.378 . S
C386 C381 1.350 . S
C387 H374 0.929 . S
C387 C379 1.433 . S
C387 N389 1.384 . S
N388 C384 1.427 . S
N388 C385 1.384 . S
N389 C381 1.427 . S
N389 C387 1.384 . S
H390 C396 0.930 . S
H391 C400 0.930 . S
H392 C405 0.929 . S
H393 C403 0.929 . S
H394 C398 0.929 . S
H395 C404 0.929 1_554 S
C396 H390 0.930 . S
C396 C397 1.367 . S
C396 C404 1.378 . S
C397 C396 1.367 . S
C397 C405 1.433 . S
C398 H394 0.929 . S
C398 C400 1.378 . S
C398 C402 1.350 . S
C399 C402 1.463 1_556 S
C399 C404 1.350 . S
C399 N407 1.427 . S
C400 H391 0.930 . S
C400 C398 1.378 . S
C400 C401 1.367 . S
C401 C400 1.367 . S
C401 C403 1.433 . S
C402 C398 1.350 . S
C402 C399 1.463 1_554 S
C402 N406 1.427 . S
C403 H393 0.929 . S
C403 C401 1.433 . S
C403 N406 1.384 . S
C404 H395 0.929 1_556 S
C404 C396 1.378 . S
C404 C399 1.350 . S
C405 H392 0.929 . S
C405 C397 1.433 . S
C405 N407 1.384 . S
N406 C402 1.427 . S
N406 C403 1.384 . S
N407 C399 1.427 . S
N407 C405 1.384 . S
H408 C414 0.930 . S
H409 C418 0.930 . S
H410 C423 0.929 . S
H411 C421 0.929 . S
H412 C416 0.929 . S
H413 C422 0.929 . S
C414 H408 0.930 . S
C414 C415 1.367 . S
C414 C422 1.378 . S
C415 C414 1.367 . S
C415 C423 1.433 . S
C416 H412 0.929 . S
C416 C418 1.378 . S
C416 C420 1.350 . S
C417 C420 1.463 . S
C417 C422 1.350 . S
C417 N425 1.427 . S
C418 H409 0.930 . S
C418 C416 1.378 . S
C418 C419 1.367 . S
C419 C418 1.367 . S
C419 C421 1.433 . S
C420 C416 1.350 . S
C420 C417 1.463 . S
C420 N424 1.427 . S
C421 H411 0.929 . S
C421 C419 1.433 . S
C421 N424 1.384 . S
C422 H413 0.929 . S
C422 C414 1.378 . S
C422 C417 1.350 . S
C423 H410 0.929 . S
C423 C415 1.433 . S
C423 N425 1.384 . S
N424 C420 1.427 . S
N424 C421 1.384 . S
N425 C417 1.427 . S
N425 C423 1.384 . S
H426 C432 0.930 . S
H427 C436 0.930 . S
H428 C441 0.929 . S
H429 C439 0.929 . S
H430 C434 0.929 1_554 S
H431 C440 0.929 . S
C432 H426 0.930 . S
C432 C433 1.367 . S
C432 C440 1.378 . S
C433 C432 1.367 . S
C433 C441 1.433 . S
C434 H430 0.929 1_556 S
C434 C436 1.378 . S
C434 C438 1.350 1_556 S
C435 C438 1.463 . S
C435 C440 1.350 . S
C435 N443 1.427 . S
C436 H427 0.930 . S
C436 C434 1.378 . S
C436 C437 1.367 . S
C437 C436 1.367 . S
C437 C439 1.433 . S
C438 C434 1.350 1_554 S
C438 C435 1.463 . S
C438 N442 1.427 1_554 S
C439 H429 0.929 . S
C439 C437 1.433 . S
C439 N442 1.384 . S
C440 H431 0.929 . S
C440 C432 1.378 . S
C440 C435 1.350 . S
C441 H428 0.929 . S
C441 C433 1.433 . S
C441 N443 1.384 . S
N442 C438 1.427 1_556 S
N442 C439 1.384 . S
N443 C435 1.427 . S
N443 C441 1.384 . S
H444 C450 0.930 . S
H445 C454 0.930 . S
H446 C459 0.929 . S
H447 C457 0.929 . S
H448 C452 0.929 . S
H449 C458 0.929 . S
C450 H444 0.930 . S
C450 C451 1.367 . S
C450 C458 1.378 . S
C451 C450 1.367 . S
C451 C459 1.433 . S
C452 H448 0.929 . S
C452 C454 1.378 . S
C452 C456 1.350 . S
C453 C456 1.463 . S
C453 C458 1.350 . S
C453 N461 1.427 . S
C454 H445 0.930 . S
C454 C452 1.378 . S
C454 C455 1.367 . S
C455 C454 1.367 . S
C455 C457 1.433 . S
C456 C452 1.350 . S
C456 C453 1.463 . S
C456 N460 1.427 . S
C457 H447 0.929 . S
C457 C455 1.433 . S
C457 N460 1.384 . S
C458 H449 0.929 . S
C458 C450 1.378 . S
C458 C453 1.350 . S
C459 H446 0.929 . S
C459 C451 1.433 . S
C459 N461 1.384 . S
N460 C456 1.427 . S
N460 C457 1.384 . S
N461 C453 1.427 . S
N461 C459 1.384 . S
H462 C468 0.930 . S
H463 C472 0.930 . S
H464 C477 0.929 . S
H465 C475 0.929 . S
H466 C470 0.929 . S
H467 C476 0.929 . S
C468 H462 0.930 . S
C468 C469 1.367 . S
C468 C476 1.378 . S
C469 C468 1.367 . S
C469 C477 1.433 . S
C470 H466 0.929 . S
C470 C472 1.378 . S
C470 C474 1.350 . S
C471 C474 1.463 . S
C471 C476 1.350 . S
C471 N479 1.427 . S
C472 H463 0.930 . S
C472 C470 1.378 . S
C472 C473 1.367 . S
C473 C472 1.367 . S
C473 C475 1.433 . S
C474 C470 1.350 . S
C474 C471 1.463 . S
C474 N478 1.427 . S
C475 H465 0.929 . S
C475 C473 1.433 . S
C475 N478 1.384 . S
C476 H467 0.929 . S
C476 C468 1.378 . S
C476 C471 1.350 . S
C477 H464 0.929 . S
C477 C469 1.433 . S
C477 N479 1.384 . S
N478 C474 1.427 . S
N478 C475 1.384 . S
N479 C471 1.427 . S
N479 C477 1.384 . S
H480 C486 0.930 . S
H481 C490 0.930 . S
H482 C495 0.929 . S
H483 C493 0.929 1_545 S
H484 C488 0.929 . S
H485 C494 0.929 . S
C486 H480 0.930 . S
C486 C487 1.367 . S
C486 C494 1.378 . S
C487 C486 1.367 . S
C487 C495 1.433 . S
C488 H484 0.929 . S
C488 C490 1.378 . S
C488 C492 1.350 . S
C489 C492 1.463 . S
C489 C494 1.350 . S
C489 N497 1.427 . S
C490 H481 0.930 . S
C490 C488 1.378 . S
C490 C491 1.367 . S
C491 C490 1.367 . S
C491 C493 1.433 . S
C492 C488 1.350 . S
C492 C489 1.463 . S
C492 N496 1.427 . S
C493 H483 0.929 1_565 S
C493 C491 1.433 . S
C493 N496 1.384 . S
C494 H485 0.929 . S
C494 C486 1.378 . S
C494 C489 1.350 . S
C495 H482 0.929 . S
C495 C487 1.433 . S
C495 N497 1.384 . S
N496 C492 1.427 . S
N496 C493 1.384 . S
N497 C489 1.427 . S
N497 C495 1.384 . S
H498 C504 0.930 . S
H499 C508 0.930 . S
H500 C513 0.929 . S
H501 C511 0.929 . S
H502 C506 0.929 . S
H503 C512 0.929 . S
C504 H498 0.930 . S
C504 C505 1.367 . S
C504 C512 1.378 . S
C505 C504 1.367 . S
C505 C513 1.433 . S
C506 H502 0.929 . S
C506 C508 1.378 . S
C506 C510 1.350 . S
C507 C510 1.463 . S
C507 C512 1.350 . S
C507 N515 1.427 . S
C508 H499 0.930 . S
C508 C506 1.378 . S
C508 C509 1.367 . S
C509 C508 1.367 . S
C509 C511 1.433 . S
C510 C506 1.350 . S
C510 C507 1.463 . S
C510 N514 1.427 . S
C511 H501 0.929 . S
C511 C509 1.433 . S
C511 N514 1.384 . S
C512 H503 0.929 . S
C512 C504 1.378 . S
C512 C507 1.350 . S
C513 H500 0.929 . S
C513 C505 1.433 . S
C513 N515 1.384 . S
N514 C510 1.427 . S
N514 C511 1.384 . S
N515 C507 1.427 . S
N515 C513 1.384 . S
H516 C522 0.930 . S
H517 C526 0.930 . S
H518 C531 0.918 1_565 S
H519 C529 0.929 . S
H520 C524 0.929 . S
H521 C530 0.929 . S
C522 H516 0.930 . S
C522 C523 1.367 . S
C522 C530 1.378 . S
C523 C522 1.367 . S
C523 C531 1.433 . S
C524 H520 0.929 . S
C524 C526 1.378 . S
C524 C528 1.350 . S
C525 C528 1.463 . S
C525 C530 1.350 . S
C525 N533 1.427 . S
C526 H517 0.930 . S
C526 C524 1.378 . S
C526 C527 1.367 . S
C527 C526 1.367 . S
C527 C529 1.433 . S
C528 C524 1.350 . S
C528 C525 1.463 . S
C528 N532 1.427 . S
C529 H519 0.929 . S
C529 C527 1.433 . S
C529 N532 1.384 . S
C530 H521 0.929 . S
C530 C522 1.378 . S
C530 C525 1.350 . S
C531 H518 0.918 1_545 S
C531 C523 1.433 . S
C531 N533 1.384 . S
N532 C528 1.427 . S
N532 C529 1.384 . S
N533 C525 1.427 . S
N533 C531 1.384 . S
H534 C540 0.930 . S
H535 C544 0.930 . S
H536 C549 0.929 . S
H537 C547 0.929 . S
H538 C542 0.929 . S
H539 C548 0.929 . S
C540 H534 0.930 . S
C540 C541 1.367 . S
C540 C548 1.378 . S
C541 C540 1.367 . S
C541 C549 1.433 . S
C542 H538 0.929 . S
C542 C544 1.378 . S
C542 C546 1.350 . S
C543 C546 1.463 . S
C543 C548 1.350 . S
C543 N551 1.427 . S
C544 H535 0.930 . S
C544 C542 1.378 . S
C544 C545 1.367 . S
C545 C544 1.367 . S
C545 C547 1.433 . S
C546 C542 1.350 . S
C546 C543 1.463 . S
C546 N550 1.427 . S
C547 H537 0.929 . S
C547 C545 1.433 . S
C547 N550 1.384 . S
C548 H539 0.929 . S
C548 C540 1.378 . S
C548 C543 1.350 . S
C549 H536 0.929 . S
C549 C541 1.433 . S
C549 N551 1.384 . S
N550 C546 1.427 . S
N550 C547 1.384 . S
N551 C543 1.427 . S
N551 C549 1.384 . S
H552 C558 0.930 . S
H553 C562 0.930 . S
H554 C567 0.929 . S
H555 C565 0.929 . S
H556 C560 0.929 . S
H557 C566 0.929 . S
C558 H552 0.930 . S
C558 C559 1.367 . S
C558 C566 1.378 . S
C559 C558 1.367 . S
C559 C567 1.433 . S
C560 H556 0.929 . S
C560 C562 1.378 . S
C560 C564 1.350 . S
C561 C564 1.463 . S
C561 C566 1.350 . S
C561 N569 1.427 . S
C562 H553 0.930 . S
C562 C560 1.378 . S
C562 C563 1.367 1_556 S
C563 C562 1.367 1_554 S
C563 C565 1.433 . S
C564 C560 1.350 . S
C564 C561 1.463 . S
C564 N568 1.427 1_556 S
C565 H555 0.929 . S
C565 C563 1.433 . S
C565 N568 1.384 . S
C566 H557 0.929 . S
C566 C558 1.378 . S
C566 C561 1.350 . S
C567 H554 0.929 . S
C567 C559 1.433 . S
C567 N569 1.384 . S
N568 C564 1.427 1_554 S
N568 C565 1.384 . S
N569 C561 1.427 . S
N569 C567 1.384 . S
H570 C576 0.930 . S
H571 C580 0.930 . S
H572 C585 0.929 . S
H573 C583 0.929 . S
H574 C578 0.929 . S
H575 C584 0.929 . S
C576 H570 0.930 . S
C576 C577 1.367 . S
C576 C584 1.378 . S
C577 C576 1.367 . S
C577 C585 1.433 . S
C578 H574 0.929 . S
C578 C580 1.378 . S
C578 C582 1.350 . S
C579 C582 1.463 . S
C579 C584 1.350 . S
C579 N587 1.427 . S
C580 H571 0.930 . S
C580 C578 1.378 . S
C580 C581 1.367 . S
C581 C580 1.367 . S
C581 C583 1.433 . S
C582 C578 1.350 . S
C582 C579 1.463 . S
C582 N586 1.427 . S
C583 H573 0.929 . S
C583 C581 1.433 . S
C583 N586 1.384 . S
C584 H575 0.929 . S
C584 C576 1.378 . S
C584 C579 1.350 . S
C585 H572 0.929 . S
C585 C577 1.433 . S
C585 N587 1.384 . S
N586 C582 1.427 . S
N586 C583 1.384 . S
N587 C579 1.427 . S
N587 C585 1.384 . S
H588 C594 0.930 . S
H589 C598 0.930 . S
H590 C603 0.929 . S
H591 C601 0.929 . S
H592 C596 0.929 . S
H593 C602 0.929 . S
C594 H588 0.930 . S
C594 C595 1.367 . S
C594 C602 1.378 . S
C595 C594 1.367 . S
C595 C603 1.433 . S
C596 H592 0.929 . S
C596 C598 1.378 . S
C596 C600 1.350 . S
C597 C600 1.463 . S
C597 C602 1.350 . S
C597 N605 1.427 . S
C598 H589 0.930 . S
C598 C596 1.378 . S
C598 C599 1.367 . S
C599 C598 1.367 . S
C599 C601 1.433 . S
C600 C596 1.350 . S
C600 C597 1.463 . S
C600 N604 1.427 . S
C601 H591 0.929 . S
C601 C599 1.433 . S
C601 N604 1.384 . S
C602 H593 0.929 . S
C602 C594 1.378 . S
C602 C597 1.350 . S
C603 H590 0.929 . S
C603 C595 1.433 . S
C603 N605 1.384 . S
N604 C600 1.427 . S
N604 C601 1.384 . S
N605 C597 1.427 . S
N605 C603 1.384 . S
H606 C612 0.930 . S
H607 C616 0.930 . S
H608 C621 0.929 . S
H609 C619 0.929 . S
H610 C614 0.929 . S
H611 C620 0.929 . S
C612 H606 0.930 . S
C612 C613 1.367 . S
C612 C620 1.378 . S
C613 C612 1.367 . S
C613 C621 1.433 . S
C614 H610 0.929 . S
C614 C616 1.378 . S
C614 C618 1.350 . S
C615 C618 1.463 . S
C615 C620 1.350 . S
C615 N623 1.427 . S
C616 H607 0.930 . S
C616 C614 1.378 . S
C616 C617 1.367 . S
C617 C616 1.367 . S
C617 C619 1.433 . S
C618 C614 1.350 . S
C618 C615 1.463 . S
C618 N622 1.427 . S
C619 H609 0.929 . S
C619 C617 1.433 . S
C619 N622 1.384 . S
C620 H611 0.929 . S
C620 C612 1.378 . S
C620 C615 1.350 . S
C621 H608 0.929 . S
C621 C613 1.433 . S
C621 N623 1.384 . S
N622 C618 1.427 . S
N622 C619 1.384 . S
N623 C615 1.427 . S
N623 C621 1.384 . S
C271 N170 1.280 . S
C275 N5 1.277 . S
C289 N203 1.292 . S
C293 N38 1.290 . S
C307 N71 1.289 . S
C311 N236 1.292 . S
C325 N137 1.280 . S
C329 N104 1.277 . S
C343 C248 0.845 . S
C347 C17 0.844 . S
C361 C50 0.853 . S
C365 C149 0.843 . S
C379 C182 0.841 . S
C383 C83 0.851 . S
C397 C116 0.844 . S
C401 C215 0.848 . S
C415 C239 1.570 . S
C419 C8 1.572 . S
C433 C41 1.575 . S
C437 C140 1.575 . S
C451 C173 1.570 . S
C455 C74 1.569 . S
C469 C206 1.581 . S
C473 C107 1.581 . S
C487 N14 1.764 . S
C491 C127 1.774 1_565 S
C505 C28 1.771 . S
C509 N47 1.771 . S
C523 C61 1.774 1_545 S
C527 N80 1.765 . S
C541 C94 1.773 . S
C545 N113 1.764 . S
C559 N146 1.768 . S
C563 C193 1.766 . S
C577 C226 1.775 1_655 S
C581 N179 1.769 . S
C595 C259 1.766 . S
C599 N212 1.769 . S
C613 N245 1.769 . S
C617 C160 1.775 1_455 S
