# Generated by pormake.
# Topology wir, (6)-cn, num edge types: 1
# Building blocks:
#     Node 0, Type 0, BuildingBlock: KUMBUR_clean_sbu_1, # of connection points: 6
#     Node 1, Type 0, BuildingBlock: KUMBUR_clean_sbu_1, # of connection points: 6
#     Node 2, Type 0, BuildingBlock: KUMBUR_clean_sbu_1, # of connection points: 6
#     Node 3, Type 0, BuildingBlock: KUMBUR_clean_sbu_1, # of connection points: 6
#     Node 4, Type 0, BuildingBlock: KUMBUR_clean_sbu_1, # of connection points: 6
#     Node 5, Type 0, BuildingBlock: KUMBUR_clean_sbu_1, # of connection points: 6
#     Node 6, Type 0, BuildingBlock: KUMBUR_clean_sbu_1, # of connection points: 6
#     Node 7, Type 0, BuildingBlock: KUMBUR_clean_sbu_1, # of connection points: 6
#     Node 8, Type 0, BuildingBlock: KUMBUR_clean_sbu_1, # of connection points: 6
#     Node 9, Type 0, BuildingBlock: KUMBUR_clean_sbu_1, # of connection points: 6
#     Node 10, Type 0, BuildingBlock: KUMBUR_clean_sbu_1, # of connection points: 6
#     Node 11, Type 0, BuildingBlock: KUMBUR_clean_sbu_1, # of connection points: 6
#     Node 12, Type 0, BuildingBlock: KUMBUR_clean_sbu_1, # of connection points: 6
#     Node 13, Type 0, BuildingBlock: KUMBUR_clean_sbu_1, # of connection points: 6
#     Node 14, Type 0, BuildingBlock: KUMBUR_clean_sbu_1, # of connection points: 6
#     Node 15, Type 0, BuildingBlock: KUMBUR_clean_sbu_1, # of connection points: 6
#     Node 16, Type 0, BuildingBlock: KUMBUR_clean_sbu_1, # of connection points: 6
#     Node 17, Type 0, BuildingBlock: KUMBUR_clean_sbu_1, # of connection points: 6
#     Node 18, Type 0, BuildingBlock: KUMBUR_clean_sbu_1, # of connection points: 6
#     Node 19, Type 0, BuildingBlock: KUMBUR_clean_sbu_1, # of connection points: 6
#     Node 20, Type 0, BuildingBlock: KUMBUR_clean_sbu_1, # of connection points: 6
#     Node 21, Type 0, BuildingBlock: KUMBUR_clean_sbu_1, # of connection points: 6
#     Node 22, Type 0, BuildingBlock: KUMBUR_clean_sbu_1, # of connection points: 6
#     Node 23, Type 0, BuildingBlock: KUMBUR_clean_sbu_1, # of connection points: 6
#     Node 24, Type 0, BuildingBlock: KUMBUR_clean_sbu_1, # of connection points: 6
#     Node 25, Type 0, BuildingBlock: KUMBUR_clean_sbu_1, # of connection points: 6
#     Node 26, Type 0, BuildingBlock: KUMBUR_clean_sbu_1, # of connection points: 6
#     Node 27, Type 0, BuildingBlock: KUMBUR_clean_sbu_1, # of connection points: 6
#     Node 28, Type 0, BuildingBlock: KUMBUR_clean_sbu_1, # of connection points: 6
#     Node 29, Type 0, BuildingBlock: KUMBUR_clean_sbu_1, # of connection points: 6
#     Node 30, Type 0, BuildingBlock: KUMBUR_clean_sbu_1, # of connection points: 6
#     Node 31, Type 0, BuildingBlock: KUMBUR_clean_sbu_1, # of connection points: 6
#     Edge 32, Type (0, 0), BuildingBlock: UVAHIK_clean_linker_0, # of connection points: 2
#     Edge 33, Type (0, 0), BuildingBlock: UVAHIK_clean_linker_0, # of connection points: 2
#     Edge 34, Type (0, 0), BuildingBlock: UVAHIK_clean_linker_0, # of connection points: 2
#     Edge 35, Type (0, 0), BuildingBlock: UVAHIK_clean_linker_0, # of connection points: 2
#     Edge 36, Type (0, 0), BuildingBlock: UVAHIK_clean_linker_0, # of connection points: 2
#     Edge 37, Type (0, 0), BuildingBlock: UVAHIK_clean_linker_0, # of connection points: 2
#     Edge 38, Type (0, 0), BuildingBlock: UVAHIK_clean_linker_0, # of connection points: 2
#     Edge 39, Type (0, 0), BuildingBlock: UVAHIK_clean_linker_0, # of connection points: 2
#     Edge 40, Type (0, 0), BuildingBlock: UVAHIK_clean_linker_0, # of connection points: 2
#     Edge 41, Type (0, 0), BuildingBlock: UVAHIK_clean_linker_0, # of connection points: 2
#     Edge 42, Type (0, 0), BuildingBlock: UVAHIK_clean_linker_0, # of connection points: 2
#     Edge 43, Type (0, 0), BuildingBlock: UVAHIK_clean_linker_0, # of connection points: 2
#     Edge 44, Type (0, 0), BuildingBlock: UVAHIK_clean_linker_0, # of connection points: 2
#     Edge 45, Type (0, 0), BuildingBlock: UVAHIK_clean_linker_0, # of connection points: 2
#     Edge 46, Type (0, 0), BuildingBlock: UVAHIK_clean_linker_0, # of connection points: 2
#     Edge 47, Type (0, 0), BuildingBlock: UVAHIK_clean_linker_0, # of connection points: 2
#     Edge 48, Type (0, 0), BuildingBlock: UVAHIK_clean_linker_0, # of connection points: 2
#     Edge 49, Type (0, 0), BuildingBlock: UVAHIK_clean_linker_0, # of connection points: 2
#     Edge 50, Type (0, 0), BuildingBlock: UVAHIK_clean_linker_0, # of connection points: 2
#     Edge 51, Type (0, 0), BuildingBlock: UVAHIK_clean_linker_0, # of connection points: 2
#     Edge 52, Type (0, 0), BuildingBlock: UVAHIK_clean_linker_0, # of connection points: 2
#     Edge 53, Type (0, 0), BuildingBlock: UVAHIK_clean_linker_0, # of connection points: 2
#     Edge 54, Type (0, 0), BuildingBlock: UVAHIK_clean_linker_0, # of connection points: 2
#     Edge 55, Type (0, 0), BuildingBlock: UVAHIK_clean_linker_0, # of connection points: 2
#     Edge 56, Type (0, 0), BuildingBlock: UVAHIK_clean_linker_0, # of connection points: 2
#     Edge 57, Type (0, 0), BuildingBlock: UVAHIK_clean_linker_0, # of connection points: 2
#     Edge 58, Type (0, 0), BuildingBlock: UVAHIK_clean_linker_0, # of connection points: 2
#     Edge 59, Type (0, 0), BuildingBlock: UVAHIK_clean_linker_0, # of connection points: 2
#     Edge 60, Type (0, 0), BuildingBlock: UVAHIK_clean_linker_0, # of connection points: 2
#     Edge 61, Type (0, 0), BuildingBlock: UVAHIK_clean_linker_0, # of connection points: 2
#     Edge 62, Type (0, 0), BuildingBlock: UVAHIK_clean_linker_0, # of connection points: 2
#     Edge 63, Type (0, 0), BuildingBlock: UVAHIK_clean_linker_0, # of connection points: 2
#     Edge 64, Type (0, 0), BuildingBlock: UVAHIK_clean_linker_0, # of connection points: 2
#     Edge 65, Type (0, 0), BuildingBlock: UVAHIK_clean_linker_0, # of connection points: 2
#     Edge 66, Type (0, 0), BuildingBlock: UVAHIK_clean_linker_0, # of connection points: 2
#     Edge 67, Type (0, 0), BuildingBlock: UVAHIK_clean_linker_0, # of connection points: 2
#     Edge 68, Type (0, 0), BuildingBlock: UVAHIK_clean_linker_0, # of connection points: 2
#     Edge 69, Type (0, 0), BuildingBlock: UVAHIK_clean_linker_0, # of connection points: 2
#     Edge 70, Type (0, 0), BuildingBlock: UVAHIK_clean_linker_0, # of connection points: 2
#     Edge 71, Type (0, 0), BuildingBlock: UVAHIK_clean_linker_0, # of connection points: 2
#     Edge 72, Type (0, 0), BuildingBlock: UVAHIK_clean_linker_0, # of connection points: 2
#     Edge 73, Type (0, 0), BuildingBlock: UVAHIK_clean_linker_0, # of connection points: 2
#     Edge 74, Type (0, 0), BuildingBlock: UVAHIK_clean_linker_0, # of connection points: 2
#     Edge 75, Type (0, 0), BuildingBlock: UVAHIK_clean_linker_0, # of connection points: 2
#     Edge 76, Type (0, 0), BuildingBlock: UVAHIK_clean_linker_0, # of connection points: 2
#     Edge 77, Type (0, 0), BuildingBlock: UVAHIK_clean_linker_0, # of connection points: 2
#     Edge 78, Type (0, 0), BuildingBlock: UVAHIK_clean_linker_0, # of connection points: 2
#     Edge 79, Type (0, 0), BuildingBlock: UVAHIK_clean_linker_0, # of connection points: 2
#     Edge 80, Type (0, 0), BuildingBlock: UVAHIK_clean_linker_0, # of connection points: 2
#     Edge 81, Type (0, 0), BuildingBlock: UVAHIK_clean_linker_0, # of connection points: 2
#     Edge 82, Type (0, 0), BuildingBlock: UVAHIK_clean_linker_0, # of connection points: 2
#     Edge 83, Type (0, 0), BuildingBlock: UVAHIK_clean_linker_0, # of connection points: 2
#     Edge 84, Type (0, 0), BuildingBlock: UVAHIK_clean_linker_0, # of connection points: 2
#     Edge 85, Type (0, 0), BuildingBlock: UVAHIK_clean_linker_0, # of connection points: 2
#     Edge 86, Type (0, 0), BuildingBlock: UVAHIK_clean_linker_0, # of connection points: 2
#     Edge 87, Type (0, 0), BuildingBlock: UVAHIK_clean_linker_0, # of connection points: 2
#     Edge 88, Type (0, 0), BuildingBlock: UVAHIK_clean_linker_0, # of connection points: 2
#     Edge 89, Type (0, 0), BuildingBlock: UVAHIK_clean_linker_0, # of connection points: 2
#     Edge 90, Type (0, 0), BuildingBlock: UVAHIK_clean_linker_0, # of connection points: 2
#     Edge 91, Type (0, 0), BuildingBlock: UVAHIK_clean_linker_0, # of connection points: 2
#     Edge 92, Type (0, 0), BuildingBlock: UVAHIK_clean_linker_0, # of connection points: 2
#     Edge 93, Type (0, 0), BuildingBlock: UVAHIK_clean_linker_0, # of connection points: 2
#     Edge 94, Type (0, 0), BuildingBlock: UVAHIK_clean_linker_0, # of connection points: 2
#     Edge 95, Type (0, 0), BuildingBlock: UVAHIK_clean_linker_0, # of connection points: 2
#     Edge 96, Type (0, 0), BuildingBlock: UVAHIK_clean_linker_0, # of connection points: 2
#     Edge 97, Type (0, 0), BuildingBlock: UVAHIK_clean_linker_0, # of connection points: 2
#     Edge 98, Type (0, 0), BuildingBlock: UVAHIK_clean_linker_0, # of connection points: 2
#     Edge 99, Type (0, 0), BuildingBlock: UVAHIK_clean_linker_0, # of connection points: 2
#     Edge 100, Type (0, 0), BuildingBlock: UVAHIK_clean_linker_0, # of connection points: 2
#     Edge 101, Type (0, 0), BuildingBlock: UVAHIK_clean_linker_0, # of connection points: 2
#     Edge 102, Type (0, 0), BuildingBlock: UVAHIK_clean_linker_0, # of connection points: 2
#     Edge 103, Type (0, 0), BuildingBlock: UVAHIK_clean_linker_0, # of connection points: 2
#     Edge 104, Type (0, 0), BuildingBlock: UVAHIK_clean_linker_0, # of connection points: 2
#     Edge 105, Type (0, 0), BuildingBlock: UVAHIK_clean_linker_0, # of connection points: 2
#     Edge 106, Type (0, 0), BuildingBlock: UVAHIK_clean_linker_0, # of connection points: 2
#     Edge 107, Type (0, 0), BuildingBlock: UVAHIK_clean_linker_0, # of connection points: 2
#     Edge 108, Type (0, 0), BuildingBlock: UVAHIK_clean_linker_0, # of connection points: 2
#     Edge 109, Type (0, 0), BuildingBlock: UVAHIK_clean_linker_0, # of connection points: 2
#     Edge 110, Type (0, 0), BuildingBlock: UVAHIK_clean_linker_0, # of connection points: 2
#     Edge 111, Type (0, 0), BuildingBlock: UVAHIK_clean_linker_0, # of connection points: 2
#     Edge 112, Type (0, 0), BuildingBlock: UVAHIK_clean_linker_0, # of connection points: 2
#     Edge 113, Type (0, 0), BuildingBlock: UVAHIK_clean_linker_0, # of connection points: 2
#     Edge 114, Type (0, 0), BuildingBlock: UVAHIK_clean_linker_0, # of connection points: 2
#     Edge 115, Type (0, 0), BuildingBlock: UVAHIK_clean_linker_0, # of connection points: 2
#     Edge 116, Type (0, 0), BuildingBlock: UVAHIK_clean_linker_0, # of connection points: 2
#     Edge 117, Type (0, 0), BuildingBlock: UVAHIK_clean_linker_0, # of connection points: 2
#     Edge 118, Type (0, 0), BuildingBlock: UVAHIK_clean_linker_0, # of connection points: 2
#     Edge 119, Type (0, 0), BuildingBlock: UVAHIK_clean_linker_0, # of connection points: 2
#     Edge 120, Type (0, 0), BuildingBlock: UVAHIK_clean_linker_0, # of connection points: 2
#     Edge 121, Type (0, 0), BuildingBlock: UVAHIK_clean_linker_0, # of connection points: 2
#     Edge 122, Type (0, 0), BuildingBlock: UVAHIK_clean_linker_0, # of connection points: 2
#     Edge 123, Type (0, 0), BuildingBlock: UVAHIK_clean_linker_0, # of connection points: 2
#     Edge 124, Type (0, 0), BuildingBlock: UVAHIK_clean_linker_0, # of connection points: 2
#     Edge 125, Type (0, 0), BuildingBlock: UVAHIK_clean_linker_0, # of connection points: 2
#     Edge 126, Type (0, 0), BuildingBlock: UVAHIK_clean_linker_0, # of connection points: 2
#     Edge 127, Type (0, 0), BuildingBlock: UVAHIK_clean_linker_0, # of connection points: 2
# Relax obj value: 0.287
# Max RMSD: 0.187
# Mean RMSD: 0.187
data_MOF--net-wir--node1-KUMBUR_clean_sbu_1--edge1-UVAHIK_clean_linker_0
_symmetry_space_group_name_H-M    P1
_symmetry_Int_Tables_number       1
_symmetry_cell_setting            triclinic
loop_
_symmetry_equiv_pos_as_xyz
'x, y, z'
_cell_length_a     50.532031
_cell_length_b     50.440373
_cell_length_c     119.77328
_cell_angle_alpha  89.758969
_cell_angle_beta   90.029735
_cell_angle_gamma 89.869499
loop_
_atom_site_label
_atom_site_type_symbol
_atom_site_fract_x
_atom_site_fract_y
_atom_site_fract_z
_atom_type_partial_charge
Tb0 Tb 0.24321 0.20097 0.36783 0.0
C1 C 0.31908 0.29772 0.36964 0.0
N2 N 0.31579 0.27719 0.37693 0.0
C3 C 0.36292 0.2734 0.37899 0.0
C4 C 0.34457 0.30612 0.36641 0.0
C5 C 0.33729 0.26557 0.38188 0.0
C6 C 0.3666 0.29361 0.37116 0.0
C7 C 0.29943 0.33007 0.35706 0.0
C8 C 0.29673 0.30969 0.3651 0.0
C9 C 0.32477 0.33842 0.35381 0.0
C10 C 0.34727 0.32654 0.35849 0.0
Tb11 Tb 0.27294 0.26717 0.38131 0.0
N12 N 0.27243 0.30067 0.36823 0.0
C13 C 0.27659 0.34123 0.35242 0.0
C14 C 0.25007 0.31197 0.36383 0.0
C15 C 0.25184 0.3322 0.35585 0.0
H16 H 0.3351 0.25055 0.3882 0.0
H17 H 0.23403 0.34088 0.35237 0.0
H18 H 0.21412 0.22549 0.34514 0.0
H19 H 0.22696 0.10934 0.39024 0.0
H20 H 0.23063 0.30595 0.36636 0.0
H21 H 0.27784 0.35684 0.3462 0.0
H22 H 0.25169 0.14935 0.38466 0.0
H23 H 0.37986 0.26395 0.38287 0.0
H24 H 0.32719 0.35399 0.34763 0.0
H25 H 0.3667 0.33317 0.35587 0.0
H26 H 0.17378 0.21726 0.33417 0.0
H27 H 0.3865 0.29953 0.36891 0.0
H28 H 0.18365 0.09959 0.38152 0.0
N29 N 0.20727 0.19383 0.35658 0.0
C30 C 0.19136 0.17329 0.35939 0.0
C31 C 0.17847 0.20473 0.34126 0.0
C32 C 0.16811 0.16773 0.35334 0.0
C33 C 0.20145 0.20924 0.34749 0.0
C34 C 0.16159 0.184 0.34425 0.0
N35 N 0.22247 0.16263 0.37314 0.0
C36 C 0.23286 0.14537 0.38081 0.0
C37 C 0.1845 0.13432 0.37083 0.0
C38 C 0.19931 0.15701 0.36799 0.0
C39 C 0.1944 0.11725 0.37908 0.0
C40 C 0.21886 0.12266 0.384 0.0
H41 H 0.14387 0.18045 0.33939 0.0
H42 H 0.13453 0.14126 0.3519 0.0
H43 H 0.14898 0.11186 0.36724 0.0
O44 O 0.25213 0.17186 0.356 0.0
O45 O 0.23021 0.19868 0.38535 0.0
O46 O 0.24796 0.23504 0.38191 0.0
O47 O 0.28257 0.19836 0.3622 0.0
O48 O 0.27501 0.19193 0.38116 0.0
O49 O 0.29342 0.23093 0.38881 0.0
O50 O 0.26807 0.30395 0.38894 0.0
O51 O 0.28855 0.25417 0.36498 0.0
O52 O 0.25005 0.23829 0.35777 0.0
O53 O 0.28169 0.27049 0.39852 0.0
O54 O 0.22785 0.27047 0.37848 0.0
O55 O 0.21239 0.23446 0.36764 0.0
C56 C 0.23615 0.2212 0.38953 0.0
C57 C 0.28663 0.18296 0.34367 0.0
C58 C 0.31704 0.1678 0.32908 0.0
C59 C 0.30262 0.18346 0.32133 0.0
C60 C 0.27271 0.19808 0.3358 0.0
C61 C 0.28108 0.19879 0.32474 0.0
C62 C 0.30923 0.16886 0.3404 0.0
C63 C 0.29219 0.20426 0.38806 0.0
C64 C 0.27667 0.17968 0.35509 0.0
C65 C 0.15257 0.14579 0.35639 0.0
C66 C 0.16078 0.12907 0.36513 0.0
C67 C 0.27316 0.25036 0.35624 0.0
C68 C 0.25598 0.30291 0.40785 0.0
C69 C 0.21417 0.32222 0.41403 0.0
C70 C 0.22296 0.31992 0.42517 0.0
C71 C 0.26425 0.30056 0.41897 0.0
C72 C 0.23089 0.31362 0.40543 0.0
C73 C 0.24772 0.30896 0.4276 0.0
C74 C 0.20832 0.25796 0.37273 0.0
C75 C 0.27402 0.29512 0.39882 0.0
H76 H 0.30692 0.18331 0.31251 0.0
H77 H 0.25513 0.20888 0.33817 0.0
H78 H 0.27014 0.21043 0.31867 0.0
H79 H 0.3199 0.1581 0.3468 0.0
H80 H 0.21092 0.32694 0.43203 0.0
H81 H 0.28353 0.2924 0.42098 0.0
H82 H 0.22424 0.31496 0.39685 0.0
H83 H 0.25424 0.30725 0.43618 0.0
Tb84 Tb 0.17333 0.99117 0.61965 0.0
C85 C 0.08615 0.0691 0.61955 0.0
N86 N 0.10975 1.05934 0.62322 0.0
C87 C 0.13209 0.09595 0.61445 0.0
C88 C 0.08451 0.09321 0.61358 0.0
C89 C 0.13269 0.07178 0.62022 0.0
C90 C 0.10787 0.10701 0.61131 0.0
C91 C 1.03946 1.06132 0.61619 0.0
C92 C 0.06396 1.05337 0.62071 0.0
C93 C 1.03734 0.08613 0.61089 0.0
C94 C 1.05985 0.10203 0.60956 0.0
Tb95 Tb 0.107 1.02039 0.63328 0.0
N96 N 0.06715 1.029 0.62531 0.0
C97 C 1.01818 1.0436 0.61671 0.0
C98 C 1.04697 1.01114 0.62537 0.0
C99 C 1.02205 1.01826 0.62121 0.0
H100 H 0.15164 0.06311 0.62194 0.0
H101 H 1.00595 1.00415 0.6214 0.0
H102 H 0.14373 0.96215 0.59794 0.0
H103 H 0.26437 0.96875 0.64115 0.0
H104 H 1.05025 0.99133 0.62852 0.0
H105 H 0.99899 1.04896 0.61335 0.0
H106 H 0.22638 0.99691 0.63555 0.0
H107 H 0.15038 0.10581 0.61226 0.0
H108 H 1.01863 0.09274 0.60742 0.0
H109 H 1.05817 0.12064 0.60507 0.0
H110 H 0.14801 0.92011 0.58762 0.0
H111 H 0.10751 0.12554 0.60671 0.0
H112 H 0.26931 0.92373 0.63324 0.0
N113 N 0.17548 0.95352 0.60908 0.0
C114 C 0.19486 0.93611 0.61198 0.0
C115 C 0.16134 0.92438 0.59445 0.0
C116 C 0.19795 0.91182 0.60636 0.0
C117 C 0.15919 0.94833 0.60023 0.0
C118 C 0.18064 0.90593 0.59759 0.0
N119 N 0.20982 0.96774 0.62488 0.0
C120 C 0.2284 0.97724 0.6321 0.0
C121 C 0.23402 0.92682 0.62304 0.0
C122 C 0.21262 0.94346 0.6202 0.0
C123 C 0.25257 0.93592 0.63082 0.0
C124 C 0.24988 0.96136 0.63528 0.0
H125 H 0.18232 0.88744 0.59307 0.0
H126 H 0.22118 0.87572 0.60532 0.0
H127 H 0.2528 0.88887 0.61993 0.0
O128 O 0.18085 1.0282 0.61229 0.0
O129 O 0.17476 0.97698 0.63714 0.0
O130 O 0.14114 0.99925 0.63381 0.0
O131 O 0.20536 0.99409 0.60852 0.0
O132 O 0.18345 1.02321 0.63268 0.0
O133 O 0.1439 1.04217 0.6398 0.0
O134 O 0.08933 1.00107 0.64687 0.0
O135 O 0.09909 1.01133 0.61577 0.0
O136 O 0.1416 1.00835 0.60842 0.0
O137 O 0.09131 1.04349 0.64636 0.0
O138 O 0.10178 0.97628 0.63028 0.0
O139 O 0.13889 0.96152 0.61997 0.0
C140 C 0.15284 0.98488 0.64128 0.0
C141 C 0.19789 1.025 0.59404 0.0
C142 C 0.21244 1.05076 0.57786 0.0
C143 C 0.19274 1.03843 0.5714 0.0
C144 C 0.17941 1.01203 0.58726 0.0
C145 C 0.17656 1.01901 0.57607 0.0
C146 C 0.21454 1.0442 0.58929 0.0
C147 C 0.17074 1.04071 0.63933 0.0
C148 C 0.19983 1.0187 0.60602 0.0
C149 C 0.2186 0.89459 0.60947 0.0
C150 C 0.2366 0.90207 0.6178 0.0
C151 C 0.11572 1.01315 0.60735 0.0
C152 C 1.05307 1.0246 0.65442 0.0
C153 C 1.00841 1.00569 0.65394 0.0
C154 C 0.99932 1.02788 0.66 0.0
C155 C 1.04344 1.04655 0.66028 0.0
C156 C 1.03556 1.00426 0.65142 0.0
C157 C 1.0167 1.0481 0.66308 0.0
C158 C 0.11514 0.95718 0.62478 0.0
C159 C 0.08134 1.023 0.65142 0.0
H160 H 0.19007 1.04347 0.56268 0.0
H161 H 0.16668 0.99698 0.59066 0.0
H162 H 0.16175 1.00934 0.57099 0.0
H163 H 0.2296 1.05333 0.59444 0.0
H164 H 0.97896 1.0296 0.66265 0.0
H165 H 1.05662 1.06241 0.66273 0.0
H166 H 1.04332 0.98745 0.64699 0.0
H167 H 1.00941 0.06496 0.66772 0.0
Tb168 Tb 0.37959 0.91642 0.87002 0.0
C169 C 0.30436 0.81882 0.87198 0.0
N170 N 0.30859 0.84122 0.878 0.0
C171 C 0.26185 0.84992 0.87822 0.0
C172 C 0.27865 0.81131 0.8687 0.0
C173 C 0.28772 0.8567 0.8812 0.0
C174 C 0.25727 0.82712 0.87196 0.0
C175 C 0.32276 0.78172 0.86179 0.0
C176 C 0.32615 0.80432 0.86854 0.0
C177 C 0.29717 0.77388 0.85866 0.0
C178 C 0.27516 0.78864 0.86211 0.0
Tb179 Tb 0.35147 0.84893 0.88321 0.0
N180 N 0.35066 0.81292 0.87151 0.0
C181 C 0.34519 0.76776 0.85832 0.0
C182 C 0.37259 0.79896 0.86827 0.0
C183 C 0.37018 0.77638 0.86161 0.0
H184 H 0.29062 0.87429 0.88609 0.0
H185 H 0.38765 0.76547 0.85911 0.0
H186 H 0.40836 0.89578 0.84671 0.0
H187 H 0.39311 1.0059 0.89399 0.0
H188 H 0.39211 0.80429 0.87097 0.0
H189 H 0.34343 0.75027 0.85316 0.0
H190 H 0.37005 0.96534 0.88811 0.0
H191 H 0.24542 0.86231 0.88077 0.0
H192 H 0.29421 0.75657 0.85348 0.0
H193 H 0.25556 0.78254 0.85952 0.0
H194 H 0.44722 0.9075 0.83536 0.0
H195 H 0.2372 0.82204 0.86962 0.0
H196 H 0.43482 1.01923 0.88473 0.0
N197 N 0.41416 0.92675 0.85848 0.0
C198 C 0.42908 0.94789 0.8614 0.0
C199 C 0.44236 0.91904 0.84268 0.0
C200 C 0.45145 0.95544 0.85513 0.0
C201 C 0.42022 0.91251 0.84913 0.0
C202 C 0.45817 0.94051 0.84573 0.0
N203 N 0.39874 0.95512 0.87581 0.0
C204 C 0.38824 0.97077 0.884 0.0
C205 C 0.43481 0.98584 0.87342 0.0
C206 C 0.42102 0.96269 0.8704 0.0
C207 C 0.42483 1.00128 0.88214 0.0
C208 C 0.40128 0.99384 0.88737 0.0
H209 H 0.47522 0.94561 0.84069 0.0
H210 H 0.4833 0.98398 0.85366 0.0
H211 H 0.46863 1.01073 0.86968 0.0
O212 O 0.33998 0.91697 0.86459 0.0
O213 O 0.39541 0.91675 0.88728 0.0
O214 O 0.37492 0.88203 0.88395 0.0
O215 O 0.36848 0.94635 0.85885 0.0
O216 O 0.34804 0.92414 0.88343 0.0
O217 O 0.33357 0.88472 0.89219 0.0
O218 O 0.37005 0.8206 0.89322 0.0
O219 O 0.337 0.86005 0.86649 0.0
O220 O 0.37409 0.87981 0.85932 0.0
O221 O 0.33286 0.83738 0.89828 0.0
O222 O 0.39552 0.84577 0.87868 0.0
O223 O 0.41099 0.88392 0.86922 0.0
C224 C 0.38911 0.89411 0.89134 0.0
C225 C 0.33432 0.93526 0.84647 0.0
C226 C 0.30578 0.9544 0.83199 0.0
C227 C 0.31941 0.93883 0.82403 0.0
C228 C 0.3477 0.92045 0.8384 0.0
C229 C 0.33976 0.92166 0.82728 0.0
C230 C 0.31282 0.9512 0.84334 0.0
C231 C 0.33291 0.91139 0.89099 0.0
C232 C 0.34443 0.93712 0.85791 0.0
C233 C 0.46595 0.97791 0.85832 0.0
C234 C 0.45762 0.99312 0.86745 0.0
C235 C 0.35218 0.86551 0.85785 0.0
C236 C 0.34007 0.79164 0.90199 0.0
C237 C 0.34524 0.74376 0.89898 0.0
C238 C 0.32706 0.73946 0.90779 0.0
C239 C 0.32226 0.78675 0.91068 0.0
C240 C 0.35002 0.77022 0.89578 0.0
C241 C 0.3153 0.76076 0.91336 0.0
C242 C 0.41496 0.85946 0.87345 0.0
C243 C 0.35016 0.81871 0.90004 0.0
H244 H 0.31555 0.94055 0.81519 0.0
H245 H 0.36471 0.90859 0.84064 0.0
H246 H 0.35027 0.91024 0.82106 0.0
H247 H 0.30257 0.96189 0.84984 0.0
H248 H 0.32252 0.71986 0.91087 0.0
H249 H 0.31418 0.80295 0.91552 0.0
H250 H 0.36255 0.7745 0.88876 0.0
H251 H 0.3017 0.75704 0.92017 0.0
Tb252 Tb 0.4477 0.14285 0.11646 0.0
C253 C 0.54604 0.06812 0.12012 0.0
N254 N 0.52283 0.07113 0.12569 0.0
C255 C 0.51529 1.02421 0.12476 0.0
C256 C 0.55458 1.04299 0.11645 0.0
C257 C 0.50753 1.04957 0.12815 0.0
C258 C 0.53889 1.02089 0.11888 0.0
C259 C 0.58433 0.08849 0.11154 0.0
C260 C 0.56053 0.09059 0.11763 0.0
C261 C 0.59309 0.06349 0.10793 0.0
C262 C 0.57823 1.04079 0.11038 0.0
Tb263 Tb 0.51266 0.11314 0.13141 0.0
N264 N 0.55114 0.11449 0.1211 0.0
C265 C 0.59866 0.11152 0.10926 0.0
C266 C 0.56566 0.13693 0.11916 0.0
C267 C 0.58935 0.13581 0.11315 0.0
H268 H 0.48932 1.05164 0.13273 0.0
H269 H 0.60064 0.15369 0.11167 0.0
H270 H 0.47237 0.17128 0.09371 0.0
H271 H 0.35715 0.16086 0.13928 0.0
H272 H 0.55998 0.15583 0.12247 0.0
H273 H 0.61707 0.11074 0.10464 0.0
H274 H 0.39771 0.13659 0.13439 0.0
H275 H 0.50304 1.00723 0.12669 0.0
H276 H 0.61129 1.06152 0.10323 0.0
H277 H 0.58514 1.02166 0.10749 0.0
H278 H 0.46269 0.20998 0.08184 0.0
H279 H 0.54477 1.00124 0.11621 0.0
H280 H 0.34519 0.20194 0.12907 0.0
N281 N 0.43962 0.17759 0.10458 0.0
C282 C 0.41837 0.19299 0.10692 0.0
C283 C 0.45 0.20542 0.08887 0.0
C284 C 0.41203 0.21538 0.10034 0.0
C285 C 0.45533 0.18333 0.09561 0.0
C286 C 0.42831 0.22161 0.09127 0.0
N287 N 0.40908 0.1635 0.12153 0.0
C288 C 0.39279 0.15427 0.12978 0.0
C289 C 0.37939 0.20023 0.11821 0.0
C290 C 0.40244 0.18562 0.1157 0.0
C291 C 0.36309 0.1913 0.12687 0.0
C292 C 0.36974 0.1681 0.13263 0.0
H293 H 0.42417 0.23866 0.08601 0.0
H294 H 0.38433 0.24784 0.09804 0.0
H295 H 0.35563 0.2345 0.1137 0.0
O296 O 0.4465 0.10322 0.11109 0.0
O297 O 0.44701 0.16117 0.13319 0.0
O298 O 0.47873 0.13522 0.13108 0.0
O299 O 0.42001 0.13305 0.10413 0.0
O300 O 0.43672 0.11148 0.12992 0.0
O301 O 0.4752 0.09434 0.13864 0.0
O302 O 0.53753 0.13027 0.14336 0.0
O303 O 0.50387 0.09901 0.11447 0.0
O304 O 0.48612 0.13688 0.10698 0.0
O305 O 0.51937 0.09238 0.14646 0.0
O306 O 0.51655 0.15768 0.12781 0.0
O307 O 0.48179 0.1724 0.11607 0.0
C308 C 0.46758 0.15152 0.13793 0.0
C309 C 0.43368 0.09873 0.09218 0.0
C310 C 0.42274 0.06879 0.07688 0.0
C311 C 0.44325 0.08014 0.07052 0.0
C312 C 0.45253 0.11103 0.08535 0.0
C313 C 0.45781 0.1013 0.07471 0.0
C314 C 0.41864 0.07774 0.08789 0.0
C315 C 0.44861 0.09502 0.13737 0.0
C316 C 0.42849 0.10859 0.10351 0.0
C317 C 0.3895 0.2305 0.10296 0.0
C318 C 0.37318 0.22292 0.11187 0.0
C319 C 0.5001 0.1146 0.10579 0.0
C320 C 0.56293 0.09817 0.15297 0.0
C321 C 0.61112 0.09775 0.15082 0.0
C322 C 0.61275 0.08203 0.16061 0.0
C323 C 0.56508 0.08263 0.16262 0.0
C324 C 0.58574 0.10425 0.1468 0.0
C325 C 0.58989 0.07412 0.16627 0.0
C326 C 0.50464 0.17671 0.12157 0.0
C327 C 0.5371 0.10926 0.14972 0.0
H328 H 0.44739 0.07332 0.06214 0.0
H329 H 0.46302 0.12825 0.08821 0.0
H330 H 0.47277 0.11063 0.06957 0.0
H331 H 0.40287 0.06946 0.09294 0.0
H332 H 0.63152 0.07671 0.16432 0.0
H333 H 0.54765 0.07748 0.16742 0.0
H334 H 0.58353 0.11516 0.13913 0.0
H335 H 0.59153 1.06234 0.17382 0.0
Tb336 Tb 0.23323 0.92903 0.23814 0.0
C337 C 0.30736 0.83049 0.23323 0.0
N338 N 0.30346 0.85406 0.22792 0.0
C339 C 0.35027 0.86221 0.2282 0.0
C340 C 0.33293 0.82202 0.23636 0.0
C341 C 0.32453 0.86991 0.22534 0.0
C342 C 0.35452 0.83816 0.23372 0.0
C343 C 0.28847 0.79152 0.242 0.0
C344 C 0.28538 0.81557 0.23607 0.0
C345 C 0.31392 0.7828 0.245 0.0
C346 C 0.3361 0.79802 0.2422 0.0
Tb347 Tb 0.26067 0.86377 0.2231 0.0
N348 N 0.26099 0.82498 0.23326 0.0
C349 C 0.26589 0.77697 0.24477 0.0
C350 C 0.23895 0.81038 0.23574 0.0
C351 C 0.24107 0.78639 0.24157 0.0
H352 H 0.3219 0.88853 0.22109 0.0
H353 H 0.22349 0.77501 0.24348 0.0
H354 H 0.2074 0.90554 0.26166 0.0
H355 H 0.21473 1.01999 0.21531 0.0
H356 H 0.21958 0.81631 0.23303 0.0
H357 H 0.26743 0.75838 0.24928 0.0
H358 H 0.2379 0.97835 0.21963 0.0
H359 H 0.36685 0.87488 0.22614 0.0
H360 H 0.31664 0.7644 0.24956 0.0
H361 H 0.35559 0.79118 0.24467 0.0
H362 H 0.17138 0.91694 0.27453 0.0
H363 H 0.37448 0.83236 0.23598 0.0
H364 H 0.17647 1.03405 0.22675 0.0
N365 N 0.20096 0.93869 0.25092 0.0
C366 C 0.18622 0.96068 0.24897 0.0
C367 C 0.17534 0.92947 0.26737 0.0
C368 C 0.16536 0.96805 0.25614 0.0
C369 C 0.19591 0.92312 0.26003 0.0
C370 C 0.15992 0.952 0.2654 0.0
N371 N 0.21326 0.96846 0.23345 0.0
C372 C 0.22151 0.98417 0.2248 0.0
C373 C 0.1787 0.99991 0.23773 0.0
C374 C 0.19267 0.97621 0.23992 0.0
C375 C 0.18665 1.01569 0.22872 0.0
C376 C 0.20827 1.00784 0.22226 0.0
H377 H 0.14405 0.95692 0.27111 0.0
H378 H 0.13474 0.99726 0.25928 0.0
H379 H 0.14651 1.02529 0.24314 0.0
O380 O 0.24666 0.95651 0.24985 0.0
O381 O 0.21311 0.92989 0.2218 0.0
O382 O 0.23938 0.89826 0.22344 0.0
O383 O 0.27365 0.92791 0.2423 0.0
O384 O 0.26341 0.93981 0.22421 0.0
O385 O 0.27927 0.90097 0.2154 0.0
O386 O 0.2395 0.84162 0.21147 0.0
O387 O 0.27505 0.87063 0.24023 0.0
O388 O 0.23882 0.89091 0.24803 0.0
O389 O 0.27976 0.85291 0.20811 0.0
O390 O 0.21689 0.85988 0.22757 0.0
O391 O 0.2026 0.89569 0.23874 0.0
C392 C 0.2222 0.90935 0.2169 0.0
C393 C 0.28269 0.94216 0.26074 0.0
C394 C 0.31617 0.95414 0.27453 0.0
C395 C 0.30381 0.93702 0.28226 0.0
C396 C 0.27016 0.92617 0.2687 0.0
C397 C 0.28108 0.92304 0.27931 0.0
C398 C 0.30585 0.95579 0.26361 0.0
C399 C 0.27917 0.92764 0.21663 0.0
C400 C 0.27068 0.94673 0.24973 0.0
C401 C 0.15089 0.99129 0.25389 0.0
C402 C 0.15758 1.00723 0.2447 0.0
C403 C 0.26048 0.87586 0.24907 0.0
C404 C 0.26585 0.81069 0.20186 0.0
C405 C 0.25395 0.76377 0.20265 0.0
C406 C 0.27199 0.75893 0.1939 0.0
C407 C 0.28364 0.80547 0.19319 0.0
C408 C 0.25208 0.78962 0.20686 0.0
C409 C 0.28702 0.77958 0.18937 0.0
C410 C 0.19809 0.87236 0.23362 0.0
C411 C 0.25997 0.83822 0.20505 0.0
H412 H 0.31072 0.93546 0.29079 0.0
H413 H 0.2517 0.91652 0.26679 0.0
H414 H 0.27133 0.91055 0.28541 0.0
H415 H 0.31513 0.96851 0.25745 0.0
H416 H 0.27378 0.73953 0.19016 0.0
H417 H 0.29448 0.82146 0.18923 0.0
H418 H 0.23893 0.79362 0.21375 0.0
H419 H 0.30054 0.77566 0.18256 0.0
Tb420 Tb 0.4592 0.98508 0.48786 0.0
C421 C 0.55528 1.05139 0.48611 0.0
N422 N 0.53289 1.05177 0.47977 0.0
C423 C 0.52893 0.09877 0.48251 0.0
C424 C 0.56459 0.07457 0.49134 0.0
C425 C 0.52027 0.07526 0.47757 0.0
C426 C 0.55098 0.09839 0.48953 0.0
C427 C 0.59174 1.02635 0.49406 0.0
C428 C 0.56861 1.02752 0.48746 0.0
C429 C 0.60057 1.04919 0.49959 0.0
C430 C 0.58706 0.07325 0.49822 0.0
Tb431 Tb 0.52067 1.01197 0.4722 0.0
N432 N 0.55953 1.00576 0.48196 0.0
C433 C 0.60576 1.00248 0.49466 0.0
C434 C 0.57454 0.98313 0.4818 0.0
C435 C 0.5974 0.98095 0.48832 0.0
H436 H 0.5034 0.07615 0.47208 0.0
H437 H 0.60885 0.96279 0.48828 0.0
H438 H 0.48609 0.95331 0.50957 0.0
H439 H 0.36615 0.96896 0.46673 0.0
H440 H 0.56976 0.96692 0.4764 0.0
H441 H 0.62362 1.00079 0.49962 0.0
H442 H 0.4051 0.99448 0.47257 0.0
H443 H 0.51859 0.1172 0.48089 0.0
H444 H 0.61814 1.04857 0.50478 0.0
H445 H 0.59432 0.09078 0.50241 0.0
H446 H 0.47955 0.91156 0.5198 0.0
H447 H 0.55752 0.11662 0.4934 0.0
H448 H 0.35889 0.92379 0.47426 0.0
N449 N 0.45389 0.94716 0.49836 0.0
C450 C 0.43371 0.93095 0.4955 0.0
C451 C 0.46646 0.91676 0.51298 0.0
C452 C 0.42932 0.90668 0.50107 0.0
C453 C 0.46991 0.94067 0.5072 0.0
C454 C 0.44623 0.89954 0.50983 0.0
N455 N 0.42094 0.96379 0.48281 0.0
C456 C 0.40261 0.97471 0.47576 0.0
C457 C 0.39429 0.92433 0.48445 0.0
C458 C 0.4166 0.93957 0.48735 0.0
C459 C 0.37628 0.93483 0.47673 0.0
C460 C 0.38031 0.96031 0.47248 0.0
H461 H 0.44356 0.88106 0.51433 0.0
H462 H 0.4042 0.87194 0.50203 0.0
H463 H 0.37341 0.88746 0.48742 0.0
O464 O 0.45747 1.02326 0.49488 0.0
O465 O 0.45641 0.98155 0.46983 0.0
O466 O 0.49997 0.97855 0.46473 0.0
O467 O 0.4311 0.99234 0.50045 0.0
O468 O 0.44742 1.0159 0.47457 0.0
O469 O 0.48492 1.03523 0.46668 0.0
O470 O 0.55594 1.01688 0.46319 0.0
O471 O 0.50795 1.02738 0.4886 0.0
O472 O 0.49773 0.98915 0.49671 0.0
O473 O 0.51858 1.02598 0.45561 0.0
O474 O 0.52405 0.9672 0.47561 0.0
O475 O 0.48869 0.95187 0.48634 0.0
C476 C 0.47476 0.97773 0.46224 0.0
C477 C 0.44521 1.02354 0.51382 0.0
C478 C 0.43631 1.05135 0.53004 0.0
C479 C 0.45686 1.03833 0.53582 0.0
C480 C 0.46455 1.00992 0.51997 0.0
C481 C 0.47067 1.01759 0.53083 0.0
C482 C 0.43101 1.04414 0.5189 0.0
C483 C 0.45871 1.03401 0.46777 0.0
C484 C 0.4396 1.01637 0.50217 0.0
C485 C 0.40781 0.89076 0.49792 0.0
C486 C 0.39031 0.89958 0.4896 0.0
C487 C 0.50971 1.01209 0.49744 0.0
C488 C 0.54973 1.00345 0.44474 0.0
C489 C 0.56346 0.95942 0.43858 0.0
C490 C 0.56159 0.96833 0.42743 0.0
C491 C 0.54784 1.0119 0.43363 0.0
C492 C 0.5568 0.9771 0.44714 0.0
C493 C 0.55355 0.99427 0.425 0.0
C494 C 0.51177 0.9476 0.48128 0.0
C495 C 0.54358 1.02163 0.4539 0.0
H496 H 0.46181 1.04371 0.54431 0.0
H497 H 0.47507 0.99352 0.51635 0.0
H498 H 0.48592 1.00719 0.53546 0.0
H499 H 0.41518 1.05375 0.51429 0.0
H500 H 0.56708 0.95563 0.42054 0.0
H501 H 0.54196 1.03205 0.43165 0.0
H502 H 0.55708 0.97038 0.45574 0.0
H503 H 0.55224 1.00087 0.41641 0.0
Tb504 Tb 0.38685 0.20793 0.73719 0.0
C505 C 0.31883 0.30326 0.73717 0.0
N506 N 0.31949 0.28133 0.73057 0.0
C507 C 0.27262 0.27581 0.73292 0.0
C508 C 0.29512 0.31157 0.7423 0.0
C509 C 0.29663 0.26811 0.7281 0.0
C510 C 0.27189 0.29747 0.74012 0.0
C511 C 0.34246 0.33909 0.74618 0.0
C512 C 0.34228 0.31684 0.73907 0.0
C513 C 0.31899 0.34707 0.75149 0.0
C514 C 0.29537 0.3334 0.74953 0.0
Tb515 Tb 0.35979 0.27138 0.72291 0.0
N516 N 0.36474 0.30853 0.73382 0.0
C517 C 0.36611 0.35297 0.74762 0.0
C518 C 0.38741 0.32323 0.73467 0.0
C519 C 0.38855 0.34523 0.74171 0.0
H520 H 0.2966 0.25151 0.72248 0.0
H521 H 0.40668 0.35649 0.74241 0.0
H522 H 0.41806 0.22959 0.75976 0.0
H523 H 0.40172 0.11836 0.71328 0.0
H524 H 0.40454 0.31894 0.72969 0.0
H525 H 0.36705 0.37014 0.75301 0.0
H526 H 0.37656 0.15649 0.7203 0.0
H527 H 0.25467 0.26503 0.73106 0.0
H528 H 0.31884 0.36399 0.75704 0.0
H529 H 0.2774 0.3399 0.75363 0.0
H530 H 0.45991 0.22087 0.76964 0.0
H531 H 0.25327 0.30324 0.7439 0.0
H532 H 0.44683 0.10924 0.7204 0.0
N533 N 0.42437 0.19985 0.74746 0.0
C534 C 0.44044 0.18015 0.74389 0.0
C535 C 0.4547 0.20925 0.76239 0.0
C536 C 0.46462 0.17443 0.74926 0.0
C537 C 0.43083 0.21401 0.75679 0.0
C538 C 0.47183 0.18955 0.75854 0.0
N539 N 0.40753 0.17022 0.73091 0.0
C540 C 0.39634 0.15324 0.72338 0.0
C541 C 0.44668 0.14278 0.73162 0.0
C542 C 0.43169 0.16473 0.73524 0.0
C543 C 0.43598 0.12631 0.72342 0.0
C544 C 0.41052 0.13137 0.7194 0.0
H545 H 0.49026 0.18583 0.76291 0.0
H546 H 0.49912 0.14877 0.74934 0.0
H547 H 0.48334 0.12093 0.73385 0.0
O548 O 0.37923 0.1784 0.74918 0.0
O549 O 0.39068 0.20755 0.71907 0.0
O550 O 0.39333 0.25183 0.71508 0.0
O551 O 0.34857 0.20583 0.74402 0.0
O552 O 0.35536 0.19795 0.72424 0.0
O553 O 0.338 0.23614 0.71599 0.0
O554 O 0.35642 0.30833 0.71492 0.0
O555 O 0.34507 0.25696 0.73922 0.0
O556 O 0.38326 0.24516 0.747 0.0
O557 O 0.34445 0.27286 0.70655 0.0
O558 O 0.40451 0.27414 0.72612 0.0
O559 O 0.41969 0.2379 0.73651 0.0
C560 C 0.39425 0.22706 0.71195 0.0
C561 C 0.34692 0.19007 0.76251 0.0
C562 C 0.31841 0.17642 0.77794 0.0
C563 C 0.33156 0.19469 0.78487 0.0
C564 C 0.36001 0.20773 0.76959 0.0
C565 C 0.35203 0.21036 0.78067 0.0
C566 C 0.32591 0.17486 0.76663 0.0
C567 C 0.33831 0.20985 0.71721 0.0
C568 C 0.3551 0.18674 0.75085 0.0
C569 C 0.48036 0.15338 0.74539 0.0
C570 C 0.47138 0.13755 0.73657 0.0
C571 C 0.36056 0.25756 0.748 0.0
C572 C 0.36769 0.30437 0.69608 0.0
C573 C 0.4116 0.31666 0.68935 0.0
C574 C 0.40183 0.31572 0.67833 0.0
C575 C 0.35838 0.30338 0.68509 0.0
C576 C 0.39435 0.31051 0.69815 0.0
C577 C 0.37549 0.30891 0.67624 0.0
C578 C 0.42398 0.26138 0.7317 0.0
C579 C 0.35013 0.29782 0.70543 0.0
H580 H 0.32682 0.19623 0.79366 0.0
H581 H 0.37641 0.21937 0.76658 0.0
H582 H 0.3622 0.2241 0.7861 0.0
H583 H 0.31579 0.16145 0.76103 0.0
H584 H 0.41425 0.32091 0.67129 0.0
H585 H 0.33798 0.29826 0.68336 0.0
H586 H 0.40172 0.31017 0.70664 0.0
H587 H 0.36824 0.30828 0.66774 0.0
Tb588 Tb 0.16706 0.13307 0.98769 0.0
C589 C 0.06938 1.05669 0.98321 0.0
N590 N 0.08921 1.06116 0.97577 0.0
C591 C 0.09131 1.01464 0.97172 0.0
C592 C 1.06056 1.03076 0.98556 0.0
C593 C 0.09954 1.04069 0.96972 0.0
C594 C 0.07195 1.00961 0.97976 0.0
C595 C 1.03818 0.0743 0.99668 0.0
C596 C 1.05812 0.07824 0.9886 0.0
C597 C 1.02958 1.04848 0.99915 0.0
C598 C 1.04068 1.02677 0.99358 0.0
Tb599 Tb 0.10074 0.1045 0.97321 0.0
N600 N 0.06734 0.10294 0.98619 0.0
C601 C 1.02768 0.0964 1.00213 0.0
C602 C 1.05675 0.12462 0.99138 0.0
C603 C 1.03694 0.12164 0.99943 0.0
H604 H 0.11379 1.04413 0.96319 0.0
H605 H 1.02884 0.13888 1.00357 0.0
H606 H 0.14315 0.16521 1.00958 0.0
H607 H 0.25856 0.14472 0.96492 0.0
H608 H 0.06333 0.14436 0.9895 0.0
H609 H 1.01242 0.0942 1.00842 0.0
H610 H 0.21832 0.12125 0.97105 0.0
H611 H 0.09976 0.99847 0.96699 0.0
H612 H 1.01435 1.04508 1.00535 0.0
H613 H 1.03376 1.00698 0.99553 0.0
H614 H 0.15237 0.20679 1.01964 0.0
H615 H 0.06567 0.98939 0.9813 0.0
H616 H 0.26907 0.18896 0.97259 0.0
N617 N 0.17479 0.17019 0.99805 0.0
C618 C 0.19557 0.18533 0.99484 0.0
C619 C 0.1647 0.20099 1.01267 0.0
C620 C 0.20165 0.2092 1.00034 0.0
C621 C 0.15966 0.17733 1.007 0.0
C622 C 0.18566 0.21712 1.00927 0.0
N623 N 0.20559 0.15225 0.98182 0.0
C624 C 0.22257 0.14057 0.97443 0.0
C625 C 0.2345 0.19004 0.98325 0.0
C626 C 0.21163 0.17598 0.98643 0.0
C627 C 0.25128 0.17881 0.97526 0.0
C628 C 0.24543 0.15382 0.97093 0.0
H629 H 0.18961 0.23537 1.01371 0.0
H630 H 0.22871 0.24246 1.00097 0.0
H631 H 0.25758 0.22561 0.98601 0.0
O632 O 0.17088 0.09455 0.99435 0.0
O633 O 0.16913 0.14807 0.9704 0.0
O634 O 0.13414 0.12733 0.97348 0.0
O635 O 0.19528 0.12678 1.00029 0.0
O636 O 0.17582 0.09999 0.97492 0.0
O637 O 0.13708 0.08365 0.9662 0.0
O638 O 0.06498 0.11244 0.96513 0.0
O639 O 0.11283 0.08789 0.98951 0.0
O640 O 0.12896 0.12609 0.99703 0.0
O641 O 0.09863 0.09869 0.95578 0.0
O642 O 0.09752 0.14917 0.97666 0.0
O643 O 0.13352 0.16375 0.98773 0.0
C644 C 0.14716 0.1408 0.96612 0.0
C645 C 0.18329 0.09406 1.01337 0.0
C646 C 0.19482 0.06701 1.02963 0.0
C647 C 0.17408 0.07906 1.0356 0.0
C648 C 0.16389 0.10691 1.01972 0.0
C649 C 0.15891 0.09904 1.03068 0.0
C650 C 0.19885 0.07421 1.01836 0.0
C651 C 0.16359 0.08366 0.96763 0.0
C652 C 0.18832 0.10212 1.00175 0.0
C653 C 0.22379 0.22396 0.99691 0.0
C654 C 0.24021 0.21437 0.98839 0.0
C655 C 0.11692 0.10284 0.99834 0.0
C656 C 0.06997 0.1295 0.94701 0.0
C657 C 1.05384 0.17396 0.94251 0.0
C658 C 1.05574 0.16768 0.93109 0.0
C659 C 0.0722 0.12387 0.93561 0.0
C660 C 1.06145 0.15478 0.9504 0.0
C661 C 0.06532 0.14301 0.92769 0.0
C662 C 0.11021 0.16823 0.98255 0.0
C663 C 0.07481 0.10843 0.95526 0.0
H664 H 0.17011 0.07363 1.04419 0.0
H665 H 0.15268 0.1231 1.01621 0.0
H666 H 0.14363 0.10885 1.03547 0.0
H667 H 0.21485 0.06539 1.01363 0.0
H668 H 1.0492 0.18154 0.92473 0.0
H669 H 0.07883 0.10453 0.93285 0.0
H670 H 1.06019 0.15933 0.95921 0.0
H671 H 0.06677 0.1385 0.91888 0.0
Tb672 Tb 0.85798 0.85268 0.72358 0.0
C673 C 0.93603 0.94767 0.74663 0.0
N674 N 0.92107 0.92634 0.74932 0.0
C675 C 0.95052 0.91604 0.76448 0.0
C676 C 0.9591 0.95397 0.75267 0.0
C677 C 0.92764 0.91082 0.75829 0.0
C678 C 0.96647 0.93759 0.7616 0.0
C679 C 0.94086 0.98756 0.73556 0.0
C680 C 0.92717 0.96406 0.73821 0.0
C681 C 0.96445 0.99354 0.74122 0.0
C682 C 0.97359 0.97673 0.74976 0.0
Tb683 Tb 0.88524 0.91824 0.73815 0.0
N684 N 0.90411 0.95774 0.73312 0.0
C685 C 0.92994 1.0047 0.72756 0.0
C686 C 0.89264 0.97508 0.72575 0.0
C687 C 0.90554 0.99857 0.72274 0.0
H688 H 0.91567 0.89397 0.76055 0.0
H689 H 0.89662 1.01196 0.71673 0.0
H690 H 0.79625 0.87615 0.72142 0.0
H691 H 0.89805 0.76869 0.74654 0.0
H692 H 0.87374 0.97064 0.722 0.0
H693 H 0.93981 1.02298 0.72528 0.0
H694 H 0.90075 0.80933 0.73556 0.0
H695 H 0.95584 0.90342 0.77147 0.0
H696 H 0.97541 1.01139 0.73926 0.0
H697 H 0.99149 0.98184 0.75424 0.0
H698 H 0.75157 0.86119 0.72624 0.0
H699 H 0.98409 0.94169 0.76645 0.0
H700 H 0.85453 0.75026 0.7518 0.0
N701 N 0.81565 0.84301 0.72898 0.0
C702 C 0.81243 0.81954 0.73443 0.0
C703 C 0.76854 0.84933 0.72864 0.0
C704 C 0.78707 0.81024 0.73736 0.0
C705 C 0.7941 0.85783 0.72596 0.0
C706 C 0.76499 0.82542 0.73434 0.0
N707 N 0.85894 0.8157 0.73486 0.0
C708 C 0.88148 0.80249 0.73795 0.0
C709 C 0.83247 0.78184 0.74377 0.0
C710 C 0.83484 0.80558 0.73759 0.0
C711 C 0.85551 0.76856 0.74705 0.0
C712 C 0.88009 0.77898 0.74414 0.0
H713 H 0.74516 0.81894 0.73641 0.0
H714 H 0.76526 0.77883 0.74562 0.0
H715 H 0.80505 0.75394 0.75124 0.0
O716 O 0.87292 0.8223 0.71348 0.0
O717 O 0.84247 0.86208 0.74029 0.0
O718 O 0.87973 0.88006 0.74788 0.0
O719 O 0.84027 0.84628 0.70788 0.0
O720 O 0.90284 0.85008 0.72684 0.0
O721 O 0.91702 0.88562 0.73818 0.0
O722 O 0.84604 0.91917 0.74405 0.0
O723 O 0.89866 0.92233 0.72068 0.0
O724 O 0.88211 0.8854 0.72348 0.0
O725 O 0.87571 0.94645 0.75028 0.0
O726 O 0.85292 0.92719 0.72501 0.0
O727 O 0.83893 0.88881 0.71548 0.0
C728 C 0.85739 0.86637 0.74911 0.0
C729 C 0.83633 0.79966 0.70611 0.0
C730 C 0.83255 0.75219 0.70995 0.0
C731 C 0.805 0.75396 0.70866 0.0
C732 C 0.80868 0.80109 0.70484 0.0
C733 C 0.79318 0.77832 0.70608 0.0
C734 C 0.84801 0.77502 0.70844 0.0
C735 C 0.92178 0.86247 0.73292 0.0
C736 C 0.85278 0.82386 0.70672 0.0
C737 C 0.78459 0.78636 0.74333 0.0
C738 C 0.80725 0.7722 0.74653 0.0
C739 C 0.89354 0.90006 0.71607 0.0
C740 C 0.84211 0.93367 0.76273 0.0
C741 C 0.8126 0.94681 0.77788 0.0
C742 C 0.82617 0.92914 0.78504 0.0
C743 C 0.85581 0.91693 0.77008 0.0
C744 C 0.82031 0.94822 0.76659 0.0
C745 C 0.84747 0.9142 0.78111 0.0
C746 C 0.83789 0.91518 0.71719 0.0
C747 C 0.85147 0.93781 0.75126 0.0
H748 H 0.79267 0.73658 0.70966 0.0
H749 H 0.79894 0.81985 0.70319 0.0
H750 H 0.77191 0.77964 0.70517 0.0
H751 H 0.86935 0.77366 0.70922 0.0
H752 H 0.82131 0.92775 0.79382 0.0
H753 H 0.87317 0.90633 0.76733 0.0
H754 H 0.81002 0.9613 0.76084 0.0
H755 H 0.85814 0.90119 0.78675 0.0
Tb756 Tb 1.01382 0.11196 0.47405 0.0
C757 C 0.92374 0.19421 0.49625 0.0
N758 N 0.9438 0.17757 0.49909 0.0
C759 C 0.95679 0.20709 0.51379 0.0
C760 C 0.91961 0.21824 0.50196 0.0
C761 C 0.95998 0.18339 0.50791 0.0
C762 C 0.93664 0.2247 0.51074 0.0
C763 C 0.88447 0.20225 0.48509 0.0
C764 C 0.90646 0.18638 0.48794 0.0
C765 C 0.88075 0.22668 0.49047 0.0
C766 C 0.89829 0.23467 0.49888 0.0
Tb767 Tb 0.94776 0.14032 0.48836 0.0
N768 N 0.91044 0.16245 0.4831 0.0
C769 C 0.86657 0.19272 0.47714 0.0
C770 C 0.89254 0.15256 0.47566 0.0
C771 C 0.8705 0.16765 0.47249 0.0
H772 H 0.97606 0.17024 0.51014 0.0
H773 H 0.85654 0.15993 0.46647 0.0
H774 H 0.9689 0.06813 0.48423 0.0
H775 H 0.11514 0.12494 0.48631 0.0
H776 H 0.89543 0.1332 0.47204 0.0
H777 H 0.8494 0.2043 0.47472 0.0
H778 H 0.07086 0.13959 0.47977 0.0
H779 H 0.96996 0.21182 0.52062 0.0
H780 H 0.86407 0.23927 0.48834 0.0
H781 H 0.89488 0.25331 0.50311 0.0
H782 H 0.96973 1.02354 0.49231 0.0
H783 H 0.93417 0.24301 0.51533 0.0
H784 H 0.12181 0.07857 0.49265 0.0
N785 N 1.01077 0.07153 0.48294 0.0
C786 C 1.03431 1.06073 0.48612 0.0
C787 C 0.98811 1.03357 0.49042 0.0
C788 C 1.03576 1.03545 0.49115 0.0
C789 C 0.98772 1.05886 0.48557 0.0
C790 C 1.01226 1.02156 0.49301 0.0
N791 N 1.05359 0.10161 0.48176 0.0
C792 C 0.07396 0.11923 0.48228 0.0
C793 C 0.08115 0.06724 0.48953 0.0
C794 C 1.05665 0.07636 0.48542 0.0
C795 C 0.10259 0.08481 0.48958 0.0
C796 C 0.09888 0.11103 0.48606 0.0
H797 H 1.01246 1.00213 0.4969 0.0
H798 H 0.06198 1.00601 0.49846 0.0
H799 H 0.10182 1.03385 0.49697 0.0
O800 O 1.03333 0.13255 0.46129 0.0
O801 O 1.02193 0.1168 0.49186 0.0
O802 O 0.98018 0.12454 0.49956 0.0
O803 O 1.02802 0.09046 0.46021 0.0
O804 O 1.01943 0.15552 0.47792 0.0
O805 O 0.98255 0.16972 0.48853 0.0
O806 O 0.94146 0.10252 0.49525 0.0
O807 O 0.94703 0.15758 0.47143 0.0
O808 O 0.97941 0.13281 0.47415 0.0
O809 O 0.91639 0.13583 0.4997 0.0
O810 O 0.93764 0.10883 0.47496 0.0
O811 O 0.97685 0.09211 0.4666 0.0
C812 C 1.00559 0.11744 0.50042 0.0
C813 C 0.0681 0.1078 0.4532 0.0
C814 C 0.11383 0.12388 0.45429 0.0
C815 C 0.12183 0.10151 0.44806 0.0
C816 C 0.07666 0.08567 0.44717 0.0
C817 C 0.1034 0.08261 0.44461 0.0
C818 C 0.08669 0.12674 0.45661 0.0
C819 C 1.00635 0.17422 0.48375 0.0
C820 C 1.03984 0.11104 0.456 0.0
C821 C 1.06042 1.02552 0.49469 0.0
C822 C 0.08311 1.04139 0.49386 0.0
C823 C 0.96841 0.14889 0.46711 0.0
C824 C 0.92542 0.10425 0.51374 0.0
C825 C 0.91365 0.07633 0.5297 0.0
C826 C 0.93204 0.09027 0.53626 0.0
C827 C 0.94251 0.11869 0.52064 0.0
C828 C 0.91084 0.08319 0.51832 0.0
C829 C 0.94611 0.11148 0.53177 0.0
C830 C 0.95006 0.09279 0.46756 0.0
C831 C 0.92264 0.11119 0.50184 0.0
H832 H 0.14214 0.09866 0.44552 0.0
H833 H 0.06266 0.07084 0.4444 0.0
H834 H 0.10989 0.06562 0.43984 0.0
H835 H 0.07967 0.1436 0.4612 0.0
H836 H 0.93525 0.08509 0.54494 0.0
H837 H 0.95363 0.13511 0.51738 0.0
H838 H 0.89675 0.07283 0.5131 0.0
H839 H 0.95989 0.12236 0.53693 0.0
Tb840 Tb 0.7733 0.26713 0.22309 0.0
C841 C 0.69159 0.17789 0.24461 0.0
N842 N 0.70823 0.1972 0.24801 0.0
C843 C 0.67898 0.20729 0.26325 0.0
C844 C 0.66762 0.17273 0.25023 0.0
C845 C 0.7026 0.21148 0.25741 0.0
C846 C 0.66125 0.18802 0.25957 0.0
C847 C 0.6839 0.14075 0.2324 0.0
C848 C 0.69953 0.16231 0.23588 0.0
C849 C 0.65941 0.13608 0.23759 0.0
C850 C 0.65126 0.15208 0.24651 0.0
Tb851 Tb 0.74516 0.20467 0.23732 0.0
N852 N 0.72351 0.16729 0.2313 0.0
C853 C 0.69376 0.1241 0.22407 0.0
C854 C 0.73385 0.15014 0.22361 0.0
C855 C 0.71902 0.12863 0.21977 0.0
H856 H 0.7159 0.22664 0.26031 0.0
H857 H 0.72717 0.11547 0.21353 0.0
H858 H 0.83622 0.24651 0.22397 0.0
H859 H 0.72623 0.35596 0.2394 0.0
H860 H 0.75346 0.15292 0.22029 0.0
H861 H 0.6824 0.10731 0.22114 0.0
H862 H 0.72921 0.31679 0.22753 0.0
H863 H 0.67445 0.21899 0.27056 0.0
H864 H 0.64698 0.11976 0.23498 0.0
H865 H 0.63265 0.14791 0.25064 0.0
H866 H 0.87753 0.26022 0.23306 0.0
H867 H 0.64301 0.18473 0.26412 0.0
H868 H 0.7646 0.36963 0.25079 0.0
N869 N 0.81297 0.27729 0.23124 0.0
C870 C 0.81321 0.29976 0.23751 0.0
C871 C 0.85952 0.27138 0.23445 0.0
C872 C 0.83649 0.30819 0.24292 0.0
C873 C 0.83593 0.2636 0.22932 0.0
C874 C 0.85977 0.2936 0.24136 0.0
N875 N 0.76793 0.30572 0.23302 0.0
C876 C 0.74565 0.32121 0.2329 0.0
C877 C 0.78925 0.33707 0.24528 0.0
C878 C 0.78981 0.31399 0.23867 0.0
C879 C 0.76582 0.35179 0.2458 0.0
C880 C 0.74409 0.34406 0.23944 0.0
H881 H 0.87807 0.29944 0.24537 0.0
H882 H 0.8534 0.33735 0.25407 0.0
H883 H 0.81205 0.36264 0.25614 0.0
O884 O 0.77971 0.30296 0.21457 0.0
O885 O 0.78747 0.25322 0.23958 0.0
O886 O 0.74896 0.24197 0.24711 0.0
O887 O 0.78822 0.26591 0.20667 0.0
O888 O 0.72847 0.271 0.22632 0.0
O889 O 0.71262 0.23508 0.23668 0.0
O890 O 0.7535 0.17544 0.24938 0.0
O891 O 0.74075 0.20462 0.21923 0.0
O892 O 0.73915 0.24902 0.21521 0.0
O893 O 0.78392 0.20235 0.24361 0.0
O894 O 0.77536 0.19356 0.22398 0.0
O895 O 0.79514 0.2314 0.21661 0.0
C896 C 0.7717 0.25412 0.24825 0.0
C897 C 0.76622 0.29802 0.19595 0.0
C898 C 0.72421 0.31677 0.18989 0.0
C899 C 0.72835 0.30653 0.17916 0.0
C900 C 0.77045 0.28811 0.18517 0.0
C901 C 0.75155 0.29241 0.1768 0.0
C902 C 0.74308 0.31245 0.1982 0.0
C903 C 0.70868 0.25862 0.23186 0.0
C904 C 0.78422 0.29112 0.20516 0.0
C905 C 0.83578 0.33074 0.24974 0.0
C906 C 0.81221 0.34509 0.25095 0.0
C907 C 0.73732 0.22426 0.21214 0.0
C908 C 0.7874 0.1869 0.26208 0.0
C909 C 0.81833 0.17382 0.27673 0.0
C910 C 0.80686 0.19279 0.28384 0.0
C911 C 0.77552 0.20493 0.2694 0.0
C912 C 0.80886 0.17159 0.26573 0.0
C913 C 0.7856 0.20827 0.28015 0.0
C914 C 0.79335 0.2051 0.21731 0.0
C915 C 0.77786 0.1835 0.25061 0.0
H916 H 0.71401 0.30996 0.17259 0.0
H917 H 0.788 0.27659 0.1833 0.0
H918 H 0.75477 0.2846 0.16851 0.0
H919 H 0.73933 0.32016 0.20648 0.0
H920 H 0.81349 0.19482 0.29239 0.0
H921 H 0.75852 0.21638 0.2668 0.0
H922 H 0.8178 0.15746 0.26007 0.0
H923 H 0.77649 0.22243 0.28574 0.0
Tb924 Tb 0.60614 1.02311 0.9728 0.0
C925 C 0.69345 0.93894 0.99751 0.0
N926 N 0.67301 0.95539 0.99989 0.0
C927 C 0.65884 0.92587 1.01448 0.0
C928 C 0.69724 0.91497 1.00339 0.0
C929 C 0.65612 0.94956 1.00847 0.0
C930 C 0.67934 0.90834 1.01186 0.0
C931 C 0.7343 0.93185 0.98743 0.0
C932 C 0.71156 0.94716 0.98966 0.0
C933 C 0.7377 0.90734 0.99288 0.0
C934 C 0.71916 0.8989 1.00084 0.0
Tb935 Tb 0.66907 0.99255 0.98897 0.0
N936 N 0.70773 0.97113 0.98477 0.0
C937 C 0.7533 0.9421 0.9801 0.0
C938 C 0.72692 0.98191 0.97813 0.0
C939 C 0.74974 0.96741 0.97554 0.0
H940 H 0.63999 0.96275 1.01047 0.0
H941 H 0.7646 0.9758 0.97007 0.0
H942 H 0.62416 0.08596 0.96776 0.0
H943 H 0.52411 0.98198 0.99667 0.0
H944 H 0.72434 1.00145 0.97461 0.0
H945 H 0.77107 0.93099 0.97816 0.0
H946 H 0.56109 0.9798 0.98378 0.0
H947 H 0.6451 0.92112 1.02112 0.0
H948 H 0.75491 0.89514 0.99121 0.0
H949 H 0.72234 0.88028 1.0052 0.0
H950 H 0.61065 0.1302 0.97389 0.0
H951 H 0.68151 0.89008 1.01657 0.0
H952 H 0.50933 1.02503 1.00419 0.0
N953 N 0.59552 0.06558 0.97767 0.0
C954 C 0.57394 0.0682 0.9844 0.0
C955 C 0.60035 0.1129 0.97701 0.0
C956 C 0.56553 0.09337 0.98809 0.0
C957 C 0.60818 0.08755 0.97365 0.0
C958 C 0.57912 0.11582 0.98434 0.0
N959 N 0.56959 1.02137 0.98425 0.0
C960 C 0.55607 0.99884 0.98711 0.0
C961 C 0.53906 1.04745 0.99524 0.0
C962 C 0.56084 1.04542 0.98791 0.0
C963 C 0.52609 1.0243 0.99856 0.0
C964 C 0.53446 0.99996 0.99438 0.0
H965 H 0.57323 0.1355 0.98697 0.0
H966 H 0.5374 0.1145 0.99843 0.0
H967 H 0.51429 0.07432 1.00471 0.0
O968 O 0.57112 1.02392 0.96352 0.0
O969 O 0.61759 1.03929 0.98922 0.0
O970 O 0.62992 1.00039 0.99725 0.0
O971 O 0.60842 1.02916 0.95534 0.0
O972 O 0.60189 0.97807 0.97568 0.0
O973 O 0.63511 0.96242 0.98803 0.0
O974 O 0.67266 1.03114 0.99542 0.0
O975 O 0.67521 0.97996 0.97164 0.0
O976 O 0.63768 0.99679 0.9732 0.0
O977 O 0.69592 0.99865 1.00207 0.0
O978 O 0.68037 1.02479 0.97597 0.0
O979 O 0.64318 1.04377 0.96694 0.0
C980 C 0.6186 1.02404 0.99817 0.0
C981 C 0.57583 1.0043 0.94601 0.0
C982 C 0.55679 0.96095 0.9424 0.0
C983 C 0.56236 0.96407 0.93099 0.0
C984 C 0.58097 1.00749 0.93458 0.0
C985 C 0.57427 0.98737 0.9271 0.0
C986 C 0.56367 0.98099 0.94984 0.0
C987 C 0.61272 0.95855 0.9821 0.0
C988 C 0.58327 1.02496 0.954 0.0
C989 C 0.54402 0.09535 0.99545 0.0
C990 C 0.53087 0.07246 0.99903 0.0
C991 C 0.65395 0.98561 0.96629 0.0
C992 C 0.68338 1.03218 1.01461 0.0
C993 C 0.69444 1.0596 1.03069 0.0
C994 C 0.67298 1.04847 1.03653 0.0
C995 C 0.66308 1.02032 1.0208 0.0
C996 C 0.69908 1.05174 1.01958 0.0
C997 C 0.65752 1.02884 1.03161 0.0
C998 C 0.66944 1.04216 0.96862 0.0
C999 C 0.68924 1.02348 1.00318 0.0
H1000 H 0.5567 0.94893 0.92506 0.0
H1001 H 0.59035 1.02536 0.93148 0.0
H1002 H 0.57832 0.98982 0.91829 0.0
H1003 H 0.55926 0.97835 0.95863 0.0
H1004 H 0.66863 1.05436 1.04502 0.0
H1005 H 0.65166 1.00437 1.01729 0.0
H1006 H 0.71569 1.05979 1.01497 0.0
H1007 H 0.64158 1.0198 1.03629 0.0
Tb1008 Tb 0.86007 0.26702 0.88145 0.0
C1009 C 0.93705 0.16778 0.85838 0.0
N1010 N 0.9225 0.1896 0.85589 0.0
C1011 C 0.94872 0.19667 0.83941 0.0
C1012 C 0.95807 0.15943 0.85149 0.0
C1013 C 0.92798 0.20403 0.84649 0.0
C1014 C 0.9639 0.17429 0.84193 0.0
C1015 C 0.94411 0.13001 0.87051 0.0
C1016 C 0.93029 0.15344 0.86773 0.0
C1017 C 0.96535 0.1217 0.86381 0.0
C1018 C 0.97235 0.13642 0.85431 0.0
Tb1019 Tb 0.88974 0.20091 0.86824 0.0
N1020 N 0.9096 0.16212 0.87392 0.0
C1021 C 0.93593 0.11547 0.87986 0.0
C1022 C 0.9012 0.14763 0.88292 0.0
C1023 C 0.91428 0.12428 0.88605 0.0
H1024 H 0.91669 0.22143 0.84438 0.0
H1025 H 0.90767 0.11312 0.89326 0.0
H1026 H 0.80123 0.23739 0.8789 0.0
H1027 H 0.8961 0.36212 0.86727 0.0
H1028 H 0.88479 0.1542 0.88792 0.0
H1029 H 0.94601 0.09736 0.88228 0.0
H1030 H 0.89991 0.31816 0.87589 0.0
H1031 H 0.95298 0.20829 0.83201 0.0
H1032 H 0.9763 0.10381 0.86583 0.0
H1033 H 0.98862 0.1297 0.84915 0.0
H1034 H 0.75687 0.24948 0.87216 0.0
H1035 H 0.97991 0.16858 0.83642 0.0
H1036 H 0.85316 0.37735 0.85967 0.0
N1037 N 0.81858 0.27447 0.87449 0.0
C1038 C 0.81452 0.29885 0.86989 0.0
C1039 C 0.77293 0.26357 0.8715 0.0
C1040 C 0.78942 0.30654 0.86589 0.0
C1041 C 0.7982 0.25681 0.87535 0.0
C1042 C 0.76847 0.28857 0.86679 0.0
N1043 N 0.86008 0.30705 0.87243 0.0
C1044 C 0.88136 0.3237 0.87214 0.0
C1045 C 0.83284 0.34094 0.86392 0.0
C1046 C 0.83605 0.31559 0.86875 0.0
C1047 C 0.85483 0.35765 0.86324 0.0
C1048 C 0.87914 0.34904 0.86745 0.0
H1049 H 0.74887 0.2937 0.86379 0.0
H1050 H 0.76697 0.33803 0.85792 0.0
H1051 H 0.80493 0.3683 0.85633 0.0
O1052 O 0.87881 0.28899 0.89389 0.0
O1053 O 0.84874 0.25992 0.86399 0.0
O1054 O 0.8851 0.23756 0.85725 0.0
O1055 O 0.83767 0.27884 0.89544 0.0
O1056 O 0.90416 0.27175 0.87722 0.0
O1057 O 0.92009 0.23429 0.86743 0.0
O1058 O 0.84961 0.20265 0.86356 0.0
O1059 O 0.90843 0.20232 0.88491 0.0
O1060 O 0.88225 0.23341 0.882 0.0
O1061 O 0.87615 0.17178 0.85735 0.0
O1062 O 0.85897 0.19125 0.88203 0.0
O1063 O 0.8408 0.2307 0.88946 0.0
C1064 C 0.86397 0.2531 0.85557 0.0
C1065 C 0.85032 0.32312 0.89932 0.0
C1066 C 0.8678 0.36808 0.89815 0.0
C1067 C 0.84221 0.37776 0.89602 0.0
C1068 C 0.82471 0.33306 0.89733 0.0
C1069 C 0.82074 0.36028 0.89574 0.0
C1070 C 0.87146 0.34087 0.89996 0.0
C1071 C 0.92377 0.25848 0.87191 0.0
C1072 C 0.85647 0.29455 0.89877 0.0
C1073 C 0.78613 0.33171 0.86102 0.0
C1074 C 0.80778 0.34891 0.86007 0.0
C1075 C 0.89863 0.22337 0.88914 0.0
C1076 C 0.8413 0.18471 0.84558 0.0
C1077 C 0.81073 0.16692 0.83162 0.0
C1078 C 0.82425 0.18186 0.8234 0.0
C1079 C 0.85462 0.19876 0.83722 0.0
C1080 C 0.81888 0.16977 0.84285 0.0
C1081 C 0.84562 0.19797 0.82624 0.0
C1082 C 0.84202 0.20395 0.88895 0.0
C1083 C 0.85245 0.18232 0.85685 0.0
H1084 H 0.83877 0.39873 0.89468 0.0
H1085 H 0.80797 0.31981 0.8966 0.0
H1086 H 0.80105 0.3678 0.89408 0.0
H1087 H 0.8913 0.33316 0.90119 0.0
H1088 H 0.81952 0.1803 0.81463 0.0
H1089 H 0.87242 0.20963 0.8391 0.0
H1090 H 0.8088 0.15946 0.84953 0.0
H1091 H 0.85608 0.20884 0.81981 0.0
Tb1092 Tb 0.60705 0.1042 0.63221 0.0
C1093 C 0.7027 0.18126 0.60776 0.0
N1094 N 0.68095 0.16679 0.60527 0.0
C1095 C 0.67105 0.19618 0.59 0.0
C1096 C 0.70953 0.20395 0.60149 0.0
C1097 C 0.66524 0.17372 0.59643 0.0
C1098 C 0.69324 0.21146 0.59257 0.0
C1099 C 0.74226 0.1861 0.61894 0.0
C1100 C 0.71868 0.17256 0.61635 0.0
C1101 C 0.74893 0.20913 0.61293 0.0
C1102 C 0.73257 0.21807 0.60423 0.0
Tb1103 Tb 0.67209 0.13157 0.61672 0.0
N1104 N 0.7116 0.15013 0.62184 0.0
C1105 C 0.75864 0.17574 0.62731 0.0
C1106 C 0.72804 0.1394 0.62975 0.0
C1107 C 0.7516 0.15216 0.63267 0.0
H1108 H 0.64783 0.16236 0.59445 0.0
H1109 H 0.76432 0.14377 0.63904 0.0
H1110 H 0.63002 1.0425 0.63437 0.0
H1111 H 0.52059 0.14449 0.61105 0.0
H1112 H 0.72298 0.12125 0.634 0.0
H1113 H 0.77695 0.18552 0.62955 0.0
H1114 H 0.56131 0.14703 0.62182 0.0
H1115 H 0.65837 0.20173 0.58309 0.0
H1116 H 0.76688 0.21992 0.61484 0.0
H1117 H 0.73812 0.23563 0.59956 0.0
H1118 H 0.6158 0.99782 0.62904 0.0
H1119 H 0.69775 0.2288 0.58755 0.0
H1120 H 0.50319 0.10109 0.60508 0.0
N1121 N 0.59663 1.06188 0.62709 0.0
C1122 C 0.57335 1.05873 0.62157 0.0
C1123 C 0.6037 1.0148 0.62686 0.0
C1124 C 0.56451 1.03342 0.61832 0.0
C1125 C 0.61175 1.04033 0.62984 0.0
C1126 C 0.57999 1.01131 0.62108 0.0
N1127 N 0.56892 0.10528 0.62167 0.0
C1128 C 0.55506 0.12783 0.61907 0.0
C1129 C 0.53538 0.07892 0.61257 0.0
C1130 C 0.55913 0.08121 0.61869 0.0
C1131 C 0.52155 0.102 0.60974 0.0
C1132 C 0.5314 0.12653 0.61304 0.0
H1133 H 0.57388 0.99152 0.61873 0.0
H1134 H 0.53365 1.01176 0.60974 0.0
H1135 H 0.50805 1.05163 0.60474 0.0
O1136 O 0.58255 0.12298 0.64386 0.0
O1137 O 0.61494 0.08948 0.61523 0.0
O1138 O 0.6333 0.1267 0.60752 0.0
O1139 O 0.59907 0.08446 0.64738 0.0
O1140 O 0.60379 0.14853 0.62847 0.0
O1141 O 0.63858 0.16215 0.61656 0.0
O1142 O 0.67279 0.09216 0.61102 0.0
O1143 O 0.67417 0.15025 0.63332 0.0
O1144 O 0.64161 0.12529 0.63171 0.0
O1145 O 0.69892 0.12208 0.60401 0.0
O1146 O 0.68232 0.09936 0.62996 0.0
O1147 O 0.64415 0.08548 0.63978 0.0
C1148 C 0.61905 0.10466 0.60644 0.0
C1149 C 0.55549 0.09246 0.65349 0.0
C1150 C 0.50736 0.09431 0.65105 0.0
C1151 C 0.5048 0.07862 0.66081 0.0
C1152 C 0.55239 0.07698 0.66311 0.0
C1153 C 0.52714 0.06963 0.6666 0.0
C1154 C 0.53313 0.09968 0.64721 0.0
C1155 C 0.61592 0.1671 0.62214 0.0
C1156 C 0.58189 0.10225 0.65038 0.0
C1157 C 0.5408 1.03104 0.6123 0.0
C1158 C 0.52625 1.05374 0.60944 0.0
C1159 C 0.6535 0.14164 0.6383 0.0
C1160 C 0.68424 0.08855 0.59191 0.0
C1161 C 0.69341 1.05886 0.5763 0.0
C1162 C 0.673 0.0713 0.57021 0.0
C1163 C 0.66564 0.10197 0.58531 0.0
C1164 C 0.69832 0.06716 0.58735 0.0
C1165 C 0.65956 0.09296 0.57463 0.0
C1166 C 0.67052 0.08445 0.63796 0.0
C1167 C 0.69028 0.09774 0.60328 0.0
H1168 H 0.48575 0.0741 0.66441 0.0
H1169 H 0.56944 0.07096 0.66799 0.0
H1170 H 0.52478 1.05788 0.67412 0.0
H1171 H 0.53608 0.1105 0.63956 0.0
H1172 H 0.66816 0.06501 0.56182 0.0
H1173 H 0.6559 0.11948 0.58838 0.0
H1174 H 0.71403 1.05808 0.59221 0.0
H1175 H 0.64485 0.1032 0.56965 0.0
Tb1176 Tb 0.7637 0.86036 0.38198 0.0
C1177 C 0.68123 0.94953 0.3595 0.0
N1178 N 0.69944 0.93079 0.35686 0.0
C1179 C 0.67374 0.91838 0.34086 0.0
C1180 C 0.65826 0.95326 0.35301 0.0
C1181 C 0.69633 0.91559 0.34752 0.0
C1182 C 0.6545 0.93714 0.34366 0.0
C1183 C 0.66902 0.9868 0.37113 0.0
C1184 C 0.68644 0.96596 0.36843 0.0
C1185 C 0.64558 0.99008 0.36494 0.0
C1186 C 0.6402 0.97332 0.3559 0.0
Tb1187 Tb 0.73438 0.92688 0.36888 0.0
N1188 N 0.70947 0.96241 0.37406 0.0
C1189 C 0.67607 1.00408 0.37975 0.0
C1190 C 0.71704 0.9798 0.38216 0.0
C1191 C 0.70032 1.00072 0.38521 0.0
H1192 H 0.71088 0.90079 0.34535 0.0
H1193 H 0.70616 1.01424 0.39175 0.0
H1194 H 0.80743 0.90746 0.37345 0.0
H1195 H 0.75089 0.76085 0.36718 0.0
H1196 H 0.73576 0.97727 0.38639 0.0
H1197 H 0.66323 1.02037 0.38208 0.0
H1198 H 0.73699 0.80318 0.37594 0.0
H1199 H 0.67115 0.90601 0.33358 0.0
H1200 H 0.6318 1.00586 0.36693 0.0
H1201 H 0.62233 0.97641 0.35106 0.0
H1202 H 0.85063 0.90863 0.36441 0.0
H1203 H 0.63708 0.93933 0.33845 0.0
H1204 H 0.79592 0.75649 0.35928 0.0
N1205 N 0.80318 0.86553 0.37255 0.0
C1206 C 0.81364 0.84284 0.36827 0.0
C1207 C 0.84059 0.88989 0.36557 0.0
C1208 C 0.83828 0.84267 0.36275 0.0
C1209 C 0.81597 0.88906 0.3709 0.0
C1210 C 0.85202 0.86654 0.36163 0.0
N1211 N 0.77376 0.82212 0.37291 0.0
C1212 C 0.75662 0.8013 0.37244 0.0
C1213 C 0.80715 0.79667 0.36344 0.0
C1214 C 0.79838 0.8202 0.36854 0.0
C1215 C 0.78995 0.77496 0.36313 0.0
C1216 C 0.76445 0.7774 0.36753 0.0
H1217 H 0.87096 0.86731 0.35742 0.0
H1218 H 0.86684 0.81838 0.35393 0.0
H1219 H 0.83955 0.77801 0.35457 0.0
O1220 O 0.74701 0.83456 0.3939 0.0
O1221 O 0.75693 0.85425 0.36411 0.0
O1222 O 0.75187 0.89691 0.35691 0.0
O1223 O 0.787 0.84802 0.39558 0.0
O1224 O 0.71958 0.8553 0.379 0.0
O1225 O 0.70604 0.89141 0.36767 0.0
O1226 O 0.73989 0.96026 0.35864 0.0
O1227 O 0.71569 0.92521 0.38554 0.0
O1228 O 0.74186 0.89418 0.38299 0.0
O1229 O 0.77303 0.93531 0.36375 0.0
O1230 O 0.76432 0.93665 0.38288 0.0
O1231 O 0.78258 0.89695 0.39026 0.0
C1232 C 0.75777 0.87122 0.35575 0.0
C1233 C 0.77934 0.80248 0.39865 0.0
C1234 C 0.76902 0.75606 0.39491 0.0
C1235 C 0.79615 0.75066 0.39369 0.0
C1236 C 0.80646 0.79659 0.39755 0.0
C1237 C 0.81474 0.77078 0.39518 0.0
C1238 C 0.76097 0.78181 0.39784 0.0
C1239 C 0.7011 0.86808 0.37284 0.0
C1240 C 0.76983 0.83028 0.39864 0.0
C1241 C 0.84784 0.81894 0.35811 0.0
C1242 C 0.8323 0.79596 0.35847 0.0
C1243 C 0.7249 0.90396 0.38989 0.0
C1244 C 0.77576 0.95606 0.34618 0.0
C1245 C 0.80932 0.97182 0.33318 0.0
C1246 C 0.79732 0.95706 0.32463 0.0
C1247 C 0.76348 0.9422 0.33748 0.0
C1248 C 0.79858 0.97089 0.34399 0.0
C1249 C 0.77445 0.94243 0.32679 0.0
C1250 C 0.78098 0.92385 0.38993 0.0
C1251 C 0.76518 0.95534 0.35757 0.0
H1252 H 0.80298 0.73104 0.39143 0.0
H1253 H 0.82124 0.81205 0.39811 0.0
H1254 H 0.8356 0.76653 0.39416 0.0
H1255 H 0.74013 0.78614 0.39899 0.0
H1256 H 0.80497 0.95771 0.31619 0.0
H1257 H 0.74574 0.93084 0.33898 0.0
H1258 H 0.80776 0.98204 0.35067 0.0
H1259 H 0.76507 0.93143 0.32013 0.0
Tb1260 Tb 1.02172 1.01495 0.1323 0.0
C1261 C 0.9261 0.93279 0.11214 0.0
N1262 N 0.94662 0.94804 0.10874 0.0
C1263 C 0.95624 0.91713 0.0941 0.0
C1264 C 0.91993 0.90882 0.10675 0.0
C1265 C 0.96138 0.94089 0.09967 0.0
C1266 C 0.93554 0.90089 0.0977 0.0
C1267 C 0.88776 0.92798 0.12406 0.0
C1268 C 0.91039 0.94214 0.12066 0.0
C1269 C 0.88195 0.90355 0.11902 0.0
C1270 C 0.89804 0.89396 0.11038 0.0
Tb1271 Tb 0.95462 0.98535 0.11894 0.0
N1272 N 0.9165 0.96596 0.12517 0.0
C1273 C 0.87129 0.93919 0.13217 0.0
C1274 C 0.89981 0.97761 0.13268 0.0
C1275 C 0.8772 0.96427 0.1364 0.0
H1276 H 0.97766 0.9531 0.09693 0.0
H1277 H 0.86431 0.97336 0.14251 0.0
H1278 H 1.00976 0.07657 0.14085 0.0
H1279 H 0.09142 0.97572 0.102 0.0
H1280 H 0.90411 0.99698 0.13599 0.0
H1281 H 0.85369 0.92897 0.13501 0.0
H1282 H 1.05758 0.97254 0.11641 0.0
H1283 H 0.96828 0.91133 0.08704 0.0
H1284 H 0.86477 0.89224 0.12157 0.0
H1285 H 0.89304 0.87538 0.10641 0.0
H1286 H 1.0245 0.12151 0.13605 0.0
H1287 H 0.93151 0.88257 0.09334 0.0
H1288 H 0.10858 1.01944 0.09615 0.0
N1289 N 1.03398 1.05764 0.12865 0.0
C1290 C 1.05361 1.06089 0.12102 0.0
C1291 C 1.03263 0.10464 0.13166 0.0
C1292 C 0.06277 0.08636 0.11807 0.0
C1293 C 1.02402 0.079 0.13424 0.0
C1294 C 1.0519 0.10838 0.12346 0.0
N1295 N 1.0545 1.01437 0.11897 0.0
C1296 C 0.06439 0.99193 0.11411 0.0
C1297 C 0.0838 1.04116 0.10769 0.0
C1298 C 0.06417 1.03855 0.11599 0.0
C1299 C 0.09357 1.01827 0.1026 0.0
C1300 C 0.08389 0.99357 0.10586 0.0
H1301 H 1.05845 0.12827 0.12146 0.0
H1302 H 0.08959 0.10845 0.10743 0.0
H1303 H 0.10783 0.06887 0.09826 0.0
O1304 O 1.05703 1.00546 0.14051 0.0
O1305 O 1.00865 1.03071 0.11605 0.0
O1306 O 0.99214 0.9921 0.10908 0.0
O1307 O 1.0257 1.02548 0.14924 0.0
O1308 O 1.02424 0.96979 0.12962 0.0
O1309 O 0.98796 0.95478 0.11886 0.0
O1310 O 0.95054 1.02379 0.11227 0.0
O1311 O 0.9535 0.9715 0.13649 0.0
O1312 O 0.98842 0.99184 0.13304 0.0
O1313 O 0.92574 0.99153 0.1066 0.0
O1314 O 0.94622 1.01862 0.13156 0.0
O1315 O 0.98557 1.03686 0.13898 0.0
C1316 C 1.00405 1.01533 0.10741 0.0
C1317 C 1.05098 0.9942 0.15937 0.0
C1318 C 1.06022 0.94916 0.16587 0.0
C1319 C 1.06064 0.95872 0.17693 0.0
C1320 C 1.05146 1.00326 0.1704 0.0
C1321 C 1.05587 0.98546 0.17915 0.0
C1322 C 1.05445 0.96706 0.1572 0.0
C1323 C 1.01129 0.95042 0.12399 0.0
C1324 C 1.04829 1.0133 0.15015 0.0
C1325 C 0.08239 0.08903 0.10984 0.0
C1326 C 0.09282 0.06649 0.10464 0.0
C1327 C 0.97562 0.9789 0.14065 0.0
C1328 C 0.93694 1.02433 0.09341 0.0
C1329 C 0.92475 1.05213 0.07747 0.0
C1330 C 0.94497 1.04004 0.07119 0.0
C1331 C 0.9558 1.01148 0.08678 0.0
C1332 C 0.92133 1.04453 0.08872 0.0
C1333 C 0.9602 1.01971 0.07582 0.0
C1334 C 0.9589 1.03612 0.13817 0.0
C1335 C 0.93265 1.01618 0.10506 0.0
H1336 H 0.06564 0.94586 0.18387 0.0
H1337 H 1.04865 1.0241 0.17222 0.0
H1338 H 1.05636 0.99254 0.18767 0.0
H1339 H 1.05341 0.96002 0.14869 0.0
H1340 H 0.94851 1.04578 0.0626 0.0
H1341 H 0.96708 0.99508 0.09008 0.0
H1342 H 0.90576 1.05337 0.0937 0.0
H1343 H 0.9751 1.00994 0.0708 0.0
Tb1344 Tb 0.73591 0.70027 0.86744 0.0
C1345 C 0.80422 0.80142 0.87319 0.0
N1346 N 0.802 0.77775 0.87857 0.0
C1347 C 0.84932 0.77321 0.87873 0.0
C1348 C 0.82915 0.81171 0.87018 0.0
C1349 C 0.82415 0.76371 0.88147 0.0
C1350 C 0.85185 0.79731 0.87306 0.0
C1351 C 0.78259 0.83859 0.86411 0.0
C1352 C 0.78123 0.81455 0.87015 0.0
C1353 C 0.80737 0.84917 0.86125 0.0
C1354 C 0.83061 0.83575 0.86427 0.0
Tb1355 Tb 0.76008 0.76533 0.88353 0.0
N1356 N 0.75759 0.80338 0.87288 0.0
C1357 C 0.75902 0.85124 0.86109 0.0
C1358 C 0.73453 0.81603 0.87005 0.0
C1359 C 0.73492 0.83993 0.8641 0.0
H1360 H 0.82277 0.74523 0.88595 0.0
H1361 H 0.71655 0.84976 0.86193 0.0
H1362 H 0.70538 0.7254 0.84525 0.0
H1363 H 0.72762 0.60401 0.88704 0.0
H1364 H 0.71557 0.80855 0.87253 0.0
H1365 H 0.75921 0.86977 0.85648 0.0
H1366 H 0.74925 0.64652 0.88252 0.0
H1367 H 0.86677 0.76195 0.88101 0.0
H1368 H 0.80878 0.86762 0.85662 0.0
H1369 H 0.84958 0.844 0.8619 0.0
H1370 H 0.66555 0.71583 0.83411 0.0
H1371 H 0.87138 0.80454 0.87091 0.0
H1372 H 0.68468 0.59266 0.87833 0.0
N1373 N 0.70059 0.69208 0.85602 0.0
C1374 C 0.68621 0.67012 0.85835 0.0
C1375 C 0.6711 0.70281 0.84093 0.0
C1376 C 0.66339 0.66371 0.85216 0.0
C1377 C 0.69376 0.70812 0.84725 0.0
C1378 C 0.65568 0.68063 0.84346 0.0
N1379 N 0.71837 0.65967 0.87171 0.0
C1380 C 0.73046 0.6419 0.87871 0.0
C1381 C 0.68254 0.62905 0.86872 0.0
C1382 C 0.69551 0.6532 0.8665 0.0
C1383 C 0.69399 0.61144 0.87639 0.0
C1384 C 0.71826 0.61776 0.8813 0.0
H1385 H 0.63824 0.67647 0.83851 0.0
H1386 H 0.63183 0.63508 0.85008 0.0
H1387 H 0.6487 0.60461 0.86458 0.0
O1388 O 0.77514 0.70124 0.86154 0.0
O1389 O 0.7221 0.69347 0.88465 0.0
O1390 O 0.73716 0.73145 0.8831 0.0
O1391 O 0.74639 0.67353 0.85488 0.0
O1392 O 0.76846 0.6914 0.88054 0.0
O1393 O 0.78039 0.72923 0.89091 0.0
O1394 O 0.7412 0.79111 0.89456 0.0
O1395 O 0.77623 0.75831 0.86665 0.0
O1396 O 0.74004 0.73954 0.85852 0.0
O1397 O 0.77833 0.77308 0.89906 0.0
O1398 O 0.71554 0.7665 0.87991 0.0
O1399 O 0.70299 0.73172 0.86787 0.0
C1400 C 0.72636 0.71494 0.89003 0.0
C1401 C 0.77998 0.68776 0.84273 0.0
C1402 C 0.80927 0.67428 0.82756 0.0
C1403 C 0.79594 0.69207 0.82039 0.0
C1404 C 0.76634 0.70454 0.83537 0.0
C1405 C 0.77478 0.70726 0.82434 0.0
C1406 C 0.80173 0.67323 0.83888 0.0
C1407 C 0.78273 0.70321 0.88868 0.0
C1408 C 0.77036 0.68294 0.85411 0.0
C1409 C 0.64954 0.64029 0.85467 0.0
C1410 C 0.65913 0.62295 0.86293 0.0
C1411 C 0.76191 0.75403 0.85765 0.0
C1412 C 0.77152 0.81782 0.90427 0.0
C1413 C 0.76818 0.86604 0.90213 0.0
C1414 C 0.78495 0.86874 0.9115 0.0
C1415 C 0.78802 0.82101 0.91354 0.0
C1416 C 0.76324 0.84028 0.89822 0.0
C1417 C 0.79523 0.84639 0.91695 0.0
C1418 C 0.6973 0.75415 0.8735 0.0
C1419 C 0.76113 0.79141 0.90143 0.0
H1420 H 0.80083 0.6933 0.81161 0.0
H1421 H 0.74889 0.71503 0.83811 0.0
H1422 H 0.7642 0.72033 0.8187 0.0
H1423 H 0.81197 0.66015 0.84465 0.0
H1424 H 0.78926 0.88787 0.91508 0.0
H1425 H 0.79486 0.80394 0.91825 0.0
H1426 H 0.75168 0.83751 0.89076 0.0
H1427 H 0.80778 0.84881 0.92421 0.0
Tb1428 Tb 0.66931 0.49233 0.11608 0.0
C1429 C 0.57228 0.5687 0.11776 0.0
N1430 N 0.59446 0.56481 0.12399 0.0
C1431 C 0.60323 0.61158 0.12357 0.0
C1432 C 0.56501 0.59421 0.11399 0.0
C1433 C 0.6098 0.58587 0.12703 0.0
C1434 C 0.58077 0.61578 0.11701 0.0
C1435 C 0.53515 0.54974 0.10784 0.0
C1436 C 0.55769 0.54673 0.11469 0.0
C1437 C 0.52767 0.57513 0.10412 0.0
C1438 C 0.54256 0.59731 0.10719 0.0
Tb1439 Tb 0.60264 0.52218 0.12966 0.0
N1440 N 0.56591 0.52241 0.11826 0.0
C1441 C 0.52079 0.52718 0.10492 0.0
C1442 C 0.55131 0.50043 0.11568 0.0
C1443 C 0.52881 0.50247 0.10893 0.0
H1444 H 0.62714 0.58319 0.13213 0.0
H1445 H 0.51746 0.48494 0.10693 0.0
H1446 H 0.64587 0.46251 0.09347 0.0
H1447 H 0.75949 0.47663 0.13947 0.0
H1448 H 0.55601 0.48122 0.11901 0.0
H1449 H 0.50334 0.52866 0.09969 0.0
H1450 H 0.71938 0.50085 0.13367 0.0
H1451 H 0.61552 0.62815 0.12598 0.0
H1452 H 0.51045 0.57779 0.09884 0.0
H1453 H 0.53667 0.61675 0.1042 0.0
H1454 H 0.65553 0.42242 0.08255 0.0
H1455 H 0.57584 0.63571 0.11429 0.0
H1456 H 0.77082 0.43385 0.1306 0.0
N1457 N 0.6775 0.45641 0.10497 0.0
C1458 C 0.69832 0.4409 0.10787 0.0
C1459 C 0.66775 0.42738 0.08966 0.0
C1460 C 0.70464 0.41777 0.10186 0.0
C1461 C 0.66245 0.45025 0.09585 0.0
C1462 C 0.68885 0.41095 0.09272 0.0
N1463 N 0.70763 0.47201 0.12176 0.0
C1464 C 0.72405 0.48231 0.1297 0.0
C1465 C 0.73682 0.4345 0.11959 0.0
C1466 C 0.71403 0.44904 0.11659 0.0
C1467 C 0.75312 0.44441 0.12803 0.0
C1468 C 0.74682 0.46857 0.13304 0.0
H1469 H 0.69299 0.39332 0.08789 0.0
H1470 H 0.7319 0.38466 0.10057 0.0
H1471 H 0.76019 0.39938 0.1161 0.0
O1472 O 0.69854 0.50093 0.10419 0.0
O1473 O 0.6702 0.47722 0.13346 0.0
O1474 O 0.63562 0.49839 0.13024 0.0
O1475 O 0.67152 0.53142 0.10997 0.0
O1476 O 0.67812 0.52416 0.12936 0.0
O1477 O 0.63914 0.54003 0.13803 0.0
O1478 O 0.57645 0.50369 0.14058 0.0
O1479 O 0.6141 0.53661 0.11303 0.0
O1480 O 0.63179 0.49853 0.10597 0.0
O1481 O 0.59152 0.54234 0.14442 0.0
O1482 O 0.59873 0.47805 0.12527 0.0
O1483 O 0.63635 0.46157 0.11583 0.0
C1484 C 0.64782 0.48401 0.1376 0.0
C1485 C 0.6864 0.53411 0.09128 0.0
C1486 C 0.6994 0.56215 0.07554 0.0
C1487 C 0.67894 0.55088 0.06916 0.0
C1488 C 0.66757 0.52182 0.08448 0.0
C1489 C 0.66337 0.53065 0.07358 0.0
C1490 C 0.70247 0.55412 0.08677 0.0
C1491 C 0.66576 0.53997 0.13682 0.0
C1492 C 0.69032 0.52532 0.1029 0.0
C1493 C 0.72678 0.40259 0.10503 0.0
C1494 C 0.74287 0.41096 0.11388 0.0
C1495 C 0.61828 0.52101 0.10447 0.0
C1496 C 0.54686 0.53304 0.14926 0.0
C1497 C 0.49945 0.52374 0.14752 0.0
C1498 C 0.49475 0.54181 0.15629 0.0
C1499 C 0.5417 0.55074 0.15795 0.0
C1500 C 0.52556 0.52128 0.1436 0.0
C1501 C 0.51565 0.55565 0.16122 0.0
C1502 C 0.61204 0.45815 0.12017 0.0
C1503 C 0.57419 0.5243 0.14696 0.0
H1504 H 0.67556 0.55703 0.0606 0.0
H1505 H 0.65625 0.5053 0.08755 0.0
H1506 H 0.64842 0.52136 0.06845 0.0
H1507 H 0.71815 0.56237 0.09185 0.0
H1508 H 0.47528 0.54449 0.15984 0.0
H1509 H 0.55779 0.56019 0.16238 0.0
H1510 H 0.52971 0.50884 0.13653 0.0
H1511 H 0.51174 0.56913 0.16804 0.0
Tb1512 Tb 0.88798 0.41524 0.36818 0.0
C1513 C 0.82072 0.31961 0.36839 0.0
N1514 N 0.82121 0.34176 0.37487 0.0
C1515 C 0.77435 0.34721 0.37238 0.0
C1516 C 0.7971 0.31115 0.36325 0.0
C1517 C 0.79826 0.35506 0.37722 0.0
C1518 C 0.77379 0.32533 0.36529 0.0
C1519 C 0.84455 0.28331 0.35975 0.0
C1520 C 0.84423 0.30589 0.36667 0.0
C1521 C 0.82119 0.27521 0.3544 0.0
C1522 C 0.79752 0.28904 0.35618 0.0
Tb1523 Tb 0.86144 0.35199 0.38253 0.0
N1524 N 0.86657 0.31428 0.37197 0.0
C1525 C 0.8682 0.2692 0.35855 0.0
C1526 C 0.8892 0.29937 0.37139 0.0
C1527 C 0.89049 0.27704 0.36454 0.0
H1528 H 0.79812 0.37185 0.38274 0.0
H1529 H 0.9086 0.26559 0.36404 0.0
H1530 H 0.91767 0.39386 0.34521 0.0
H1531 H 0.90407 0.50478 0.39196 0.0
H1532 H 0.90619 0.30377 0.37644 0.0
H1533 H 0.86925 0.25177 0.35332 0.0
H1534 H 0.87858 0.46675 0.38519 0.0
H1535 H 0.75633 0.35807 0.37413 0.0
H1536 H 0.82114 0.25804 0.349 0.0
H1537 H 0.77962 0.28241 0.35207 0.0
H1538 H 0.95895 0.40239 0.33495 0.0
H1539 H 0.75525 0.31945 0.36151 0.0
H1540 H 0.94871 0.51382 0.38439 0.0
N1541 N 0.92479 0.42339 0.35752 0.0
C1542 C 0.94104 0.44302 0.36093 0.0
C1543 C 0.9542 0.41396 0.34227 0.0
C1544 C 0.96489 0.44869 0.35531 0.0
C1545 C 0.93067 0.40928 0.3481 0.0
C1546 C 0.97155 0.43357 0.34596 0.0
N1547 N 0.90889 0.45298 0.37424 0.0
C1548 C 0.89815 0.46995 0.38189 0.0
C1549 C 0.94795 0.48033 0.37315 0.0
C1550 C 0.93277 0.45844 0.36967 0.0
C1551 C 0.93771 0.49679 0.38146 0.0
C1552 C 0.91252 0.49177 0.38574 0.0
H1553 H 0.98971 0.43724 0.3414 0.0
H1554 H 0.99934 0.47423 0.35491 0.0
H1555 H 0.98443 0.50207 0.37057 0.0
O1556 O 0.87933 0.44446 0.35615 0.0
O1557 O 0.89247 0.41557 0.38628 0.0
O1558 O 0.89531 0.37127 0.39014 0.0
O1559 O 0.84925 0.41708 0.36183 0.0
O1560 O 0.85731 0.4255 0.38147 0.0
O1561 O 0.83934 0.38726 0.38935 0.0
O1562 O 0.85731 0.31534 0.39068 0.0
O1563 O 0.84643 0.36596 0.36617 0.0
O1564 O 0.8845 0.37792 0.3584 0.0
O1565 O 0.84726 0.35141 0.39908 0.0
O1566 O 0.90613 0.34907 0.37905 0.0
O1567 O 0.92104 0.38537 0.36868 0.0
C1568 C 0.89622 0.39597 0.39334 0.0
C1569 C 0.84579 0.43258 0.34336 0.0
C1570 C 0.81512 0.44551 0.32859 0.0
C1571 C 0.8268 0.42657 0.32153 0.0
C1572 C 0.85787 0.41455 0.3361 0.0
C1573 C 0.84804 0.41116 0.32531 0.0
C1574 C 0.82436 0.4478 0.33962 0.0
C1575 C 0.84007 0.41361 0.38839 0.0
C1576 C 0.85511 0.43606 0.35486 0.0
C1577 C 0.98082 0.46967 0.35904 0.0
C1578 C 0.97234 0.4855 0.36795 0.0
C1579 C 0.8619 0.36543 0.35739 0.0
C1580 C 0.87058 0.31932 0.40927 0.0
C1581 C 0.91469 0.30521 0.41519 0.0
C1582 C 0.9062 0.30671 0.42639 0.0
C1583 C 0.86254 0.32083 0.42043 0.0
C1584 C 0.89676 0.31214 0.40673 0.0
C1585 C 0.8804 0.31472 0.42895 0.0
C1586 C 0.92549 0.36183 0.37343 0.0
C1587 C 0.85227 0.32628 0.40022 0.0
H1588 H 0.82036 0.42449 0.31296 0.0
H1589 H 0.87484 0.40315 0.33876 0.0
H1590 H 0.8573 0.39701 0.31976 0.0
H1591 H 0.81525 0.46191 0.34526 0.0
H1592 H 0.91913 0.30098 0.43319 0.0
H1593 H 0.84254 0.3268 0.42252 0.0
H1594 H 0.90321 0.31214 0.39811 0.0
H1595 H 0.87413 0.31576 0.43758 0.0
Tb1596 Tb 0.9571 0.63709 0.61781 0.0
C1597 C 1.05297 0.57029 0.6196 0.0
N1598 N 1.03065 0.57055 0.62597 0.0
C1599 C 1.02622 0.52349 0.62371 0.0
C1600 C 0.06205 0.54667 0.61461 0.0
C1601 C 1.01777 0.5474 0.62839 0.0
C1602 C 1.04828 0.52314 0.61671 0.0
C1603 C 0.08914 0.59451 0.61106 0.0
C1604 C 0.06631 0.59399 0.61785 0.0
C1605 C 0.09783 0.57117 0.60585 0.0
C1606 C 0.08437 0.5473 0.60765 0.0
Tb1607 Tb 1.01925 0.6108 0.63333 0.0
N1608 N 1.05733 0.6163 0.62302 0.0
C1609 C 0.1029 0.61836 0.60988 0.0
C1610 C 0.07195 0.63911 0.62249 0.0
C1611 C 0.0945 0.64061 0.61577 0.0
H1612 H 1.00088 0.54711 0.63387 0.0
H1613 H 0.10569 0.65886 0.61529 0.0
H1614 H 0.98093 0.66887 0.59569 0.0
H1615 H 0.86512 0.65112 0.6401 0.0
H1616 H 0.06714 0.65608 0.62748 0.0
H1617 H 0.1205 0.61957 0.60474 0.0
H1618 H 0.90391 0.6261 0.6336 0.0
H1619 H 1.0157 0.5053 0.62552 0.0
H1620 H 0.11519 0.57129 0.60054 0.0
H1621 H 0.09147 0.52941 0.60366 0.0
H1622 H 0.97308 0.71098 0.58574 0.0
H1623 H 1.05464 0.50459 0.61304 0.0
H1624 H 0.85691 0.69665 0.63311 0.0
N1625 N 0.95017 0.675 0.60756 0.0
C1626 C 0.93017 0.69102 0.61086 0.0
C1627 C 0.96085 0.70563 0.59281 0.0
C1628 C 0.92497 0.71536 0.60546 0.0
C1629 C 0.96509 0.68161 0.59843 0.0
C1630 C 0.94089 0.72276 0.59643 0.0
N1631 N 0.91885 0.65761 0.62351 0.0
C1632 C 0.90104 0.64609 0.63062 0.0
C1633 C 0.8916 0.69689 0.6225 0.0
C1634 C 0.91388 0.68199 0.61921 0.0
C1635 C 0.87426 0.68587 0.63034 0.0
C1636 C 0.87881 0.66018 0.63429 0.0
H1637 H 0.93758 0.74131 0.59205 0.0
H1638 H 0.89938 0.74993 0.60509 0.0
H1639 H 0.87005 0.73369 0.62006 0.0
O1640 O 0.92859 0.63015 0.60537 0.0
O1641 O 0.9548 0.6409 0.63586 0.0
O1642 O 0.99845 0.64428 0.6407 0.0
O1643 O 0.95532 0.59908 0.61066 0.0
O1644 O 0.94628 0.60539 0.63076 0.0
O1645 O 0.98379 0.58856 0.63967 0.0
O1646 O 1.05525 0.60727 0.64194 0.0
O1647 O 1.00612 0.59531 0.61698 0.0
O1648 O 0.99529 0.6333 0.60874 0.0
O1649 O 1.01885 0.59632 0.64986 0.0
O1650 O 1.02196 0.6555 0.62995 0.0
O1651 O 0.98681 0.67021 0.61888 0.0
C1652 C 0.97335 0.6449 0.64334 0.0
C1653 C 0.9416 0.59872 0.59188 0.0
C1654 C 0.93002 0.57162 0.57578 0.0
C1655 C 0.95057 0.5837 0.56969 0.0
C1656 C 0.96115 0.61131 0.58552 0.0
C1657 C 0.96595 0.60349 0.57455 0.0
C1658 C 0.92603 0.57896 0.58699 0.0
C1659 C 0.9577 0.58858 0.63808 0.0
C1660 C 0.93697 0.60607 0.60358 0.0
C1661 C 0.90359 0.73103 0.60905 0.0
C1662 C 0.88692 0.7218 0.61757 0.0
C1663 C 1.0076 0.61048 0.60809 0.0
C1664 C 1.04956 0.61988 0.66053 0.0
C1665 C 0.06261 0.66397 0.66681 0.0
C1666 C 1.06088 0.65486 0.67795 0.0
C1667 C 1.04781 0.61124 0.67162 0.0
C1668 C 1.05618 0.64636 0.6582 0.0
C1669 C 1.05324 0.6288 0.6803 0.0
C1670 C 1.00971 0.67478 0.62406 0.0
C1671 C 1.0437 0.60174 0.65133 0.0
H1672 H 0.9544 0.57823 0.56111 0.0
H1673 H 0.97271 0.62713 0.58902 0.0
H1674 H 0.98135 0.61306 0.56973 0.0
H1675 H 0.91017 0.57009 0.59181 0.0
H1676 H 0.06623 0.66748 0.68487 0.0
H1677 H 1.04227 0.591 0.67355 0.0
H1678 H 1.05634 0.65321 0.64962 0.0
H1679 H 1.05205 0.62205 0.68887 0.0
Tb1680 Tb 0.74284 0.42071 0.73745 0.0
C1681 C 0.81613 0.32251 0.73119 0.0
N1682 N 0.81237 0.34377 0.72433 0.0
C1683 C 0.85914 0.34606 0.72096 0.0
C1684 C 0.84178 0.31296 0.73358 0.0
C1685 C 0.83337 0.35501 0.71892 0.0
C1686 C 0.86341 0.32512 0.7284 0.0
C1687 C 0.79742 0.28953 0.74368 0.0
C1688 C 0.79416 0.31078 0.7361 0.0
C1689 C 0.82295 0.28008 0.74613 0.0
C1690 C 0.84506 0.29171 0.74107 0.0
Tb1691 Tb 0.76932 0.35589 0.72142 0.0
N1692 N 0.76972 0.32083 0.73375 0.0
C1693 C 0.77497 0.27857 0.74869 0.0
C1694 C 0.74771 0.30976 0.73849 0.0
C1695 C 0.75004 0.28868 0.74605 0.0
H1696 H 0.83061 0.37057 0.71284 0.0
H1697 H 0.73253 0.28019 0.74982 0.0
H1698 H 0.71505 0.39466 0.75997 0.0
H1699 H 0.72778 0.51581 0.71754 0.0
H1700 H 0.72815 0.31672 0.73659 0.0
H1701 H 0.77666 0.2623 0.75458 0.0
H1702 H 0.75253 0.47496 0.72227 0.0
H1703 H 0.87571 0.35521 0.71672 0.0
H1704 H 0.82581 0.26382 0.75195 0.0
H1705 H 0.86462 0.28419 0.74304 0.0
H1706 H 0.67453 0.40164 0.77111 0.0
H1707 H 0.88342 0.31832 0.72999 0.0
H1708 H 0.68393 0.52418 0.72607 0.0
N1709 N 0.70723 0.42678 0.74889 0.0
C1710 C 0.69117 0.44751 0.7464 0.0
C1711 C 0.67893 0.41466 0.76415 0.0
C1712 C 0.66797 0.45249 0.75257 0.0
C1713 C 0.70191 0.41079 0.75784 0.0
C1714 C 0.66171 0.43543 0.76143 0.0
N1715 N 0.72249 0.45988 0.73299 0.0
C1716 C 0.73336 0.47837 0.72599 0.0
C1717 C 0.68442 0.48791 0.73581 0.0
C1718 C 0.69916 0.4648 0.73814 0.0
C1719 C 0.69462 0.50614 0.7281 0.0
C1720 C 0.71939 0.50152 0.72329 0.0
H1721 H 0.64403 0.43851 0.76637 0.0
H1722 H 0.6343 0.47882 0.75448 0.0
H1723 H 0.6488 0.50997 0.73981 0.0
O1724 O 0.78203 0.42351 0.74319 0.0
O1725 O 0.72883 0.4266 0.72024 0.0
O1726 O 0.74493 0.38879 0.72207 0.0
O1727 O 0.75098 0.44813 0.75013 0.0
O1728 O 0.77471 0.43029 0.72422 0.0
O1729 O 0.78998 0.39231 0.71465 0.0
O1730 O 0.7623 0.3206 0.7129 0.0
O1731 O 0.78735 0.36619 0.7377 0.0
O1732 O 0.75009 0.3817 0.74614 0.0
O1733 O 0.77573 0.35511 0.70399 0.0
O1734 O 0.7247 0.3534 0.72503 0.0
O1735 O 0.7113 0.38787 0.73719 0.0
C1736 C 0.73339 0.40484 0.71513 0.0
C1737 C 0.7866 0.43691 0.76193 0.0
C1738 C 0.81703 0.4504 0.7767 0.0
C1739 C 0.80876 0.42836 0.78307 0.0
C1740 C 0.7773 0.41637 0.76873 0.0
C1741 C 0.78882 0.41169 0.77915 0.0
C1742 C 0.80612 0.45407 0.76596 0.0
C1743 C 0.79038 0.41859 0.7165 0.0
C1744 C 0.77582 0.44121 0.75069 0.0
C1745 C 0.65235 0.47473 0.74991 0.0
C1746 C 0.66059 0.49246 0.74155 0.0
C1747 C 0.77321 0.36917 0.74687 0.0
C1748 C 0.74718 0.32568 0.69448 0.0
C1749 C 0.70341 0.3097 0.68906 0.0
C1750 C 0.71079 0.31271 0.67776 0.0
C1751 C 0.754 0.32868 0.68322 0.0
C1752 C 0.72178 0.31659 0.69735 0.0
C1753 C 0.73577 0.32239 0.67491 0.0
C1754 C 0.70616 0.36536 0.7315 0.0
C1755 C 0.76701 0.33095 0.70316 0.0
H1756 H 0.81718 0.42432 0.79121 0.0
H1757 H 0.7611 0.40413 0.766 0.0
H1758 H 0.78196 0.3954 0.78428 0.0
H1759 H 0.81188 0.47088 0.76086 0.0
H1760 H 0.69763 0.30692 0.67108 0.0
H1761 H 0.77348 0.33569 0.68087 0.0
H1762 H 0.71636 0.31493 0.70606 0.0
H1763 H 0.74118 0.32455 0.66621 0.0
Tb1764 Tb 0.95046 0.4864 0.98763 0.0
C1765 C 1.05121 0.55778 0.98567 0.0
N1766 N 1.02829 0.55679 0.97977 0.0
C1767 C 1.02281 0.6038 0.98186 0.0
C1768 C 1.06055 0.58181 0.99015 0.0
C1769 C 1.01423 0.57945 0.97767 0.0
C1770 C 1.04602 0.60499 0.98816 0.0
C1771 C 0.08829 0.53432 0.99386 0.0
C1772 C 0.06467 0.53433 0.98756 0.0
C1773 C 0.09772 0.55817 0.99837 0.0
C1774 C 0.08386 0.58187 0.99652 0.0
Tb1775 Tb 1.01606 0.51625 0.97304 0.0
N1776 N 1.05468 0.51161 0.98317 0.0
C1777 C 0.10189 0.51043 0.99534 0.0
C1778 C 0.06873 0.48847 0.9842 0.0
C1779 C 0.09219 0.48748 0.99038 0.0
H1780 H 0.99635 0.57897 0.97277 0.0
H1781 H 0.10305 0.46904 0.99115 0.0
H1782 H 0.97499 0.45433 1.00953 0.0
H1783 H 0.85837 0.47452 0.96521 0.0
H1784 H 0.06292 0.47071 0.97997 0.0
H1785 H 0.12014 0.5096 1.00007 0.0
H1786 H 0.89917 0.49747 0.97072 0.0
H1787 H 1.0115 0.62165 0.98023 0.0
H1788 H 0.11576 0.55851 1.00326 0.0
H1789 H 0.09134 0.60012 1.00006 0.0
H1790 H 0.96529 0.4137 1.02023 0.0
H1791 H 1.05253 0.62387 0.99145 0.0
H1792 H 0.84685 0.43139 0.97383 0.0
N1793 N 0.94231 0.4499 0.99848 0.0
C1794 C 0.92098 0.43512 0.9957 0.0
C1795 C 0.95263 0.4195 1.01335 0.0
C1796 C 0.91463 0.41171 1.00158 0.0
C1797 C 0.95795 0.44267 1.0073 0.0
C1798 C 0.93096 0.40384 1.01044 0.0
N1799 N 0.91135 0.46744 0.98222 0.0
C1800 C 0.89459 0.47869 0.97457 0.0
C1801 C 0.88159 0.43047 0.98442 0.0
C1802 C 0.90485 0.44427 0.98726 0.0
C1803 C 0.86492 0.44135 0.97626 0.0
C1804 C 0.87134 0.4657 0.9714 0.0
H1805 H 0.92681 0.38596 1.01516 0.0
H1806 H 0.88682 0.37918 1.00292 0.0
H1807 H 0.85777 0.39569 0.98788 0.0
O1808 O 0.94929 0.52524 0.99395 0.0
O1809 O 0.94853 0.47147 0.97027 0.0
O1810 O 0.98217 0.49429 0.973 0.0
O1811 O 0.92305 0.49463 1.00029 0.0
O1812 O 0.9401 0.51927 0.97488 0.0
O1813 O 0.97877 0.53732 0.9668 0.0
O1814 O 1.03904 0.49981 0.96026 0.0
O1815 O 1.00656 0.52958 0.99001 0.0
O1816 O 0.98904 0.49131 0.9971 0.0
O1817 O 1.0231 0.53916 0.95858 0.0
O1818 O 1.01881 0.47114 0.97584 0.0
O1819 O 0.98386 0.45604 0.98733 0.0
C1820 C 0.96976 0.48014 0.96572 0.0
C1821 C 0.93712 0.52717 1.013 0.0
C1822 C 0.92728 0.55561 1.02893 0.0
C1823 C 0.9474 0.54273 1.03502 0.0
C1824 C 0.95575 0.51349 1.0195 0.0
C1825 C 0.96132 0.52164 1.03035 0.0
C1826 C 0.92277 0.54812 1.01776 0.0
C1827 C 0.95218 0.53649 0.96789 0.0
C1828 C 0.93154 0.51891 1.00147 0.0
C1829 C 0.89199 0.3973 0.99855 0.0
C1830 C 0.87546 0.40669 0.98999 0.0
C1831 C 1.00289 0.51353 0.99853 0.0
C1832 C 0.06557 0.53159 0.95118 0.0
C1833 C 0.11374 0.52917 0.95308 0.0
C1834 C 0.11595 0.54464 0.94325 0.0
C1835 C 0.06825 0.54687 0.94148 0.0
C1836 C 0.0882 0.52427 0.95725 0.0
C1837 C 0.09338 0.55385 0.93769 0.0
C1838 C 1.00659 0.45175 0.98177 0.0
C1839 C 1.03937 0.52177 0.95452 0.0
H1840 H 0.95178 0.54835 1.04354 0.0
H1841 H 0.96591 0.49644 1.01622 0.0
H1842 H 0.97605 0.51121 1.03526 0.0
H1843 H 0.90724 0.55759 1.01292 0.0
H1844 H 0.13488 0.54873 0.93944 0.0
H1845 H 1.05097 0.55295 0.93675 0.0
H1846 H 0.08566 0.51358 0.96496 0.0
H1847 H 0.09541 0.56542 0.9301 0.0
Tb1848 Tb 0.88434 0.70311 0.23608 0.0
C1849 C 0.80629 0.78789 0.23739 0.0
N1850 N 0.81594 0.76497 0.23298 0.0
C1851 C 0.77928 0.74115 0.24092 0.0
C1852 C 0.7824 0.78843 0.24347 0.0
C1853 C 0.80317 0.74159 0.23503 0.0
C1854 C 0.76863 0.76471 0.24502 0.0
C1855 C 0.81354 0.83431 0.24168 0.0
C1856 C 0.82164 0.81048 0.23663 0.0
C1857 C 0.78913 0.83529 0.24726 0.0
C1858 C 0.77362 0.81237 0.24818 0.0
Tb1859 Tb 0.8548 0.76949 0.2231 0.0
N1860 N 0.84567 0.80837 0.23171 0.0
C1861 C 0.83064 0.85612 0.24126 0.0
C1862 C 0.86278 0.82922 0.23153 0.0
C1863 C 0.85545 0.8535 0.23621 0.0
H1864 H 0.81126 0.72302 0.2324 0.0
H1865 H 0.86894 0.87013 0.23596 0.0
H1866 H 0.90671 0.73045 0.2596 0.0
H1867 H 0.91526 0.61582 0.21379 0.0
H1868 H 0.88203 0.82704 0.22771 0.0
H1869 H 0.82511 0.87485 0.24501 0.0
H1870 H 0.88454 0.65212 0.2189 0.0
H1871 H 0.76924 0.72253 0.24241 0.0
H1872 H 0.78244 0.85344 0.25117 0.0
H1873 H 0.75522 0.81319 0.25281 0.0
H1874 H 0.94639 0.72665 0.27149 0.0
H1875 H 0.75026 0.76422 0.24968 0.0
H1876 H 0.95826 0.61128 0.22355 0.0
N1877 N 0.91918 0.70056 0.24824 0.0
C1878 C 0.93796 0.68227 0.24572 0.0
C1879 C 0.94427 0.71405 0.26425 0.0
C1880 C 0.96094 0.67937 0.25228 0.0
C1881 C 0.92169 0.71601 0.25753 0.0
C1882 C 0.96409 0.69581 0.26157 0.0
N1883 N 0.91027 0.6681 0.23118 0.0
C1884 C 0.90328 0.65023 0.22317 0.0
C1885 C 0.95139 0.64502 0.23431 0.0
C1886 C 0.93334 0.66543 0.23686 0.0
C1887 C 0.94493 0.62726 0.22578 0.0
C1888 C 0.92063 0.62972 0.22027 0.0
H1889 H 0.9815 0.69425 0.26682 0.0
H1890 H 0.99751 0.65734 0.25441 0.0
H1891 H 0.9891 0.62718 0.23867 0.0
O1892 O 0.84604 0.6941 0.2415 0.0
O1893 O 0.90205 0.70436 0.21924 0.0
O1894 O 0.87647 0.73573 0.22221 0.0
O1895 O 0.87959 0.66928 0.24614 0.0
O1896 O 0.85446 0.69316 0.22203 0.0
O1897 O 0.83461 0.7329 0.2154 0.0
O1898 O 0.8733 0.78918 0.20985 0.0
O1899 O 0.86393 0.7761 0.24074 0.0
O1900 O 0.86593 0.73316 0.24783 0.0
O1901 O 0.83106 0.7864 0.21045 0.0
O1902 O 0.89866 0.77535 0.22644 0.0
O1903 O 0.9131 0.73834 0.23703 0.0
C1904 C 0.89291 0.72585 0.21511 0.0
C1905 C 0.84428 0.67245 0.25891 0.0
C1906 C 0.81312 0.65364 0.27226 0.0
C1907 C 0.82373 0.66999 0.28061 0.0
C1908 C 0.85527 0.68794 0.26742 0.0
C1909 C 0.84476 0.68697 0.27819 0.0
C1910 C 0.8233 0.6553 0.26136 0.0
C1911 C 0.83682 0.70602 0.21541 0.0
C1912 C 0.85432 0.67384 0.24745 0.0
C1913 C 0.97961 0.65977 0.24951 0.0
C1914 C 0.97483 0.6426 0.24055 0.0
C1915 C 0.86159 0.75915 0.24907 0.0
C1916 C 0.84929 0.82742 0.20484 0.0
C1917 C 0.87145 0.87011 0.20666 0.0
C1918 C 0.84671 0.88288 0.20665 0.0
C1919 C 0.82469 0.84047 0.20468 0.0
C1920 C 0.87246 0.84252 0.20547 0.0
C1921 C 0.82349 0.86809 0.20553 0.0
C1922 C 0.9175 0.76226 0.23227 0.0
C1923 C 0.85112 0.79828 0.20587 0.0
H1924 H 0.81649 0.66887 0.28911 0.0
H1925 H 0.87163 0.70106 0.26572 0.0
H1926 H 0.85312 0.69921 0.28469 0.0
H1927 H 0.81515 0.64296 0.25481 0.0
H1928 H 0.84531 0.90423 0.20737 0.0
H1929 H 0.80642 0.82933 0.20423 0.0
H1930 H 0.89147 0.83256 0.20578 0.0
H1931 H 0.80448 0.87802 0.20551 0.0
Tb1932 Tb 0.67277 0.62831 0.48828 0.0
C1933 C 0.57464 0.556 0.48261 0.0
N1934 N 0.59722 0.55887 0.47655 0.0
C1935 C 0.60245 0.51157 0.47597 0.0
C1936 C 0.56559 0.53075 0.48592 0.0
C1937 C 0.61086 0.53704 0.473 0.0
C1938 C 0.57981 0.50839 0.4825 0.0
C1939 C 0.53872 0.57665 0.49277 0.0
C1940 C 0.56141 0.57867 0.48596 0.0
C1941 C 0.52955 0.55154 0.49607 0.0
C1942 C 0.54293 0.52864 0.49263 0.0
Tb1943 Tb 0.60865 0.60137 0.47186 0.0
N1944 N 0.57124 0.60266 0.48281 0.0
C1945 C 0.52601 0.59991 0.49613 0.0
C1946 C 0.55838 0.6254 0.48587 0.0
C1947 C 0.53582 0.62436 0.49261 0.0
H1948 H 0.62816 0.53889 0.46782 0.0
H1949 H 0.5259 0.64248 0.49504 0.0
H1950 H 0.64588 0.65849 0.51005 0.0
H1951 H 0.76845 0.6406 0.46888 0.0
H1952 H 0.56484 0.64457 0.48311 0.0
H1953 H 0.50855 0.59921 0.50137 0.0
H1954 H 0.7271 0.61699 0.47346 0.0
H1955 H 0.61345 0.49437 0.4732 0.0
H1956 H 0.51219 0.54963 0.50132 0.0
H1957 H 0.5357 0.50941 0.49529 0.0
H1958 H 0.65333 0.69932 0.52086 0.0
H1959 H 0.57348 0.48863 0.48485 0.0
H1960 H 0.77751 0.68449 0.47721 0.0
N1961 N 0.67897 0.66455 0.49936 0.0
C1962 C 0.70017 0.67992 0.49696 0.0
C1963 C 0.66666 0.69412 0.51414 0.0
C1964 C 0.70535 0.70334 0.50294 0.0
C1965 C 0.66256 0.67091 0.50802 0.0
C1966 C 0.68801 0.71057 0.51152 0.0
N1967 N 0.71238 0.64765 0.48395 0.0
C1968 C 0.73075 0.63618 0.47711 0.0
C1969 C 0.74103 0.6852 0.48669 0.0
C1970 C 0.7176 0.67109 0.48896 0.0
C1971 C 0.75924 0.6743 0.47919 0.0
C1972 C 0.75422 0.6495 0.47449 0.0
H1973 H 0.69123 0.72845 0.51631 0.0
H1974 H 0.73227 0.73645 0.5048 0.0
H1975 H 0.76364 0.72048 0.49057 0.0
O1976 O 0.67435 0.58935 0.49461 0.0
O1977 O 0.67884 0.64278 0.47116 0.0
O1978 O 0.64181 0.62497 0.47291 0.0
O1979 O 0.69946 0.62027 0.50128 0.0
O1980 O 0.68306 0.59597 0.47529 0.0
O1981 O 0.64561 0.58169 0.46514 0.0
O1982 O 0.57678 0.61178 0.46155 0.0
O1983 O 0.61768 0.58464 0.4885 0.0
O1984 O 0.63324 0.6223 0.4966 0.0
O1985 O 0.60827 0.58734 0.45533 0.0
O1986 O 0.60615 0.64627 0.47502 0.0
O1987 O 0.63972 0.65978 0.48759 0.0
C1988 C 0.65718 0.63766 0.46611 0.0
C1989 C 0.68601 0.58678 0.51371 0.0
C1990 C 0.69793 0.55932 0.52978 0.0
C1991 C 0.67654 0.57028 0.53572 0.0
C1992 C 0.66596 0.59865 0.52002 0.0
C1993 C 0.6608 0.58995 0.53087 0.0
C1994 C 0.70204 0.56723 0.51862 0.0
C1995 C 0.67171 0.58079 0.46731 0.0
C1996 C 0.69162 0.59575 0.50228 0.0
C1997 C 0.72802 0.71826 0.50037 0.0
C1998 C 0.74587 0.70918 0.49226 0.0
C1999 C 0.62025 0.59949 0.49746 0.0
C2000 C 0.58743 0.6161 0.44238 0.0
C2001 C 0.5758 0.65646 0.43213 0.0
C2002 C 0.58884 0.64638 0.42266 0.0
C2003 C 0.60038 0.60639 0.43286 0.0
C2004 C 0.57465 0.64077 0.44183 0.0
C2005 C 0.60088 0.62141 0.42304 0.0
C2006 C 0.6176 0.6649 0.48158 0.0
C2007 C 0.58688 0.60041 0.4528 0.0
H2008 H 0.67256 0.56432 0.54426 0.0
H2009 H 0.65459 0.61485 0.5166 0.0
H2010 H 0.64503 0.59897 0.53565 0.0
H2011 H 0.71858 0.55935 0.51391 0.0
H2012 H 0.59038 0.65798 0.41507 0.0
H2013 H 0.61016 0.58726 0.43303 0.0
H2014 H 0.56375 0.64781 0.44902 0.0
H2015 H 0.61109 0.61392 0.41576 0.0
Tb2016 Tb 0.36164 0.35326 0.2221 0.0
C2017 C 0.44065 0.44681 0.24531 0.0
N2018 N 0.425 0.42594 0.24794 0.0
C2019 C 0.45403 0.41453 0.26311 0.0
C2020 C 0.46392 0.45226 0.25136 0.0
C2021 C 0.43099 0.41016 0.25691 0.0
C2022 C 0.47072 0.43553 0.26027 0.0
C2023 C 0.44669 0.48676 0.23439 0.0
C2024 C 0.4323 0.46363 0.23695 0.0
C2025 C 0.47051 0.49185 0.24005 0.0
C2026 C 0.47913 0.47458 0.24852 0.0
Tb2027 Tb 0.38907 0.41909 0.23668 0.0
N2028 N 0.40903 0.45818 0.23186 0.0
C2029 C 0.43624 0.50445 0.2265 0.0
C2030 C 0.39799 0.47609 0.22462 0.0
C2031 C 0.41159 0.49924 0.2217 0.0
H2032 H 0.41841 0.39375 0.25914 0.0
H2033 H 0.40302 0.51307 0.21578 0.0
H2034 H 0.29906 0.36654 0.21475 0.0
H2035 H 0.40316 0.27924 0.25033 0.0
H2036 H 0.37896 0.47223 0.2209 0.0
H2037 H 0.44665 0.52247 0.22428 0.0
H2038 H 0.40538 0.31476 0.23661 0.0
H2039 H 0.4589 0.40169 0.27008 0.0
H2040 H 0.48201 0.50939 0.23814 0.0
H2041 H 0.4972 0.47903 0.25301 0.0
H2042 H 0.25479 0.35111 0.21986 0.0
H2043 H 0.48847 0.43898 0.26513 0.0
H2044 H 0.35996 0.26159 0.25641 0.0
N2045 N 0.31921 0.34085 0.22614 0.0
C2046 C 0.31668 0.32003 0.23332 0.0
C2047 C 0.27203 0.34243 0.22382 0.0
C2048 C 0.29152 0.31042 0.23642 0.0
C2049 C 0.29736 0.35145 0.22107 0.0
C2050 C 0.26906 0.32201 0.23161 0.0
N2051 N 0.36341 0.31888 0.2348 0.0
C2052 C 0.38614 0.30808 0.23909 0.0
C2053 C 0.33746 0.28805 0.24574 0.0
C2054 C 0.33945 0.30884 0.23786 0.0
C2055 C 0.36066 0.27751 0.25031 0.0
C2056 C 0.38507 0.28748 0.24693 0.0
H2057 H 0.24939 0.31515 0.23374 0.0
H2058 H 0.27037 0.28216 0.24674 0.0
H2059 H 0.31057 0.26271 0.25496 0.0
O2060 O 0.36684 0.31727 0.21383 0.0
O2061 O 0.34503 0.36478 0.23849 0.0
O2062 O 0.38287 0.38094 0.24615 0.0
O2063 O 0.35391 0.35178 0.20477 0.0
O2064 O 0.40671 0.35109 0.22504 0.0
O2065 O 0.42092 0.38654 0.23645 0.0
O2066 O 0.34991 0.42081 0.24265 0.0
O2067 O 0.40161 0.42376 0.21922 0.0
O2068 O 0.38635 0.38592 0.22166 0.0
O2069 O 0.38015 0.44763 0.24874 0.0
O2070 O 0.35674 0.42797 0.22353 0.0
O2071 O 0.33931 0.38908 0.21546 0.0
C2072 C 0.35994 0.36839 0.24739 0.0
C2073 C 0.38155 0.32136 0.19537 0.0
C2074 C 0.42584 0.30663 0.19005 0.0
C2075 C 0.41812 0.30822 0.17875 0.0
C2076 C 0.37433 0.32294 0.1841 0.0
C2077 C 0.39263 0.3165 0.17582 0.0
C2078 C 0.40733 0.31346 0.19828 0.0
C2079 C 0.42574 0.36352 0.23109 0.0
C2080 C 0.36198 0.32735 0.20405 0.0
C2081 C 0.28954 0.28969 0.24423 0.0
C2082 C 0.31243 0.2786 0.2489 0.0
C2083 C 0.39679 0.40175 0.21434 0.0
C2084 C 0.34607 0.43632 0.2612 0.0
C2085 C 0.31733 0.45321 0.27604 0.0
C2086 C 0.3314 0.43701 0.2837 0.0
C2087 C 0.35972 0.42067 0.26896 0.0
C2088 C 0.32434 0.45148 0.26464 0.0
C2089 C 0.35196 0.42054 0.28012 0.0
C2090 C 0.33968 0.41563 0.21657 0.0
C2091 C 0.35575 0.43952 0.24974 0.0
H2092 H 0.43146 0.30238 0.17212 0.0
H2093 H 0.35453 0.32905 0.18172 0.0
H2094 H 0.38695 0.31758 0.16712 0.0
H2095 H 0.41303 0.31287 0.20699 0.0
H2096 H 0.32762 0.43759 0.29256 0.0
H2097 H 0.3767 0.40911 0.26645 0.0
H2098 H 0.31379 0.46259 0.25832 0.0
H2099 H 0.36269 0.40851 0.28611 0.0
Tb2100 Tb 0.51539 0.61495 0.96994 0.0
C2101 C 0.42069 0.68945 0.9951 0.0
N2102 N 0.44283 0.67533 0.99749 0.0
C2103 C 0.45375 0.70601 1.01204 0.0
C2104 C 0.41431 0.71276 1.00097 0.0
C2105 C 0.45904 0.68285 1.00604 0.0
C2106 C 0.43142 0.7212 1.00942 0.0
C2107 C 0.37925 0.69212 0.98504 0.0
C2108 C 0.40356 0.6794 0.98725 0.0
C2109 C 0.3732 0.71601 0.99048 0.0
C2110 C 0.39073 0.72634 0.99843 0.0
Tb2111 Tb 0.45079 0.63903 0.9866 0.0
N2112 N 0.40998 0.65608 0.98237 0.0
C2113 C 0.36145 0.67994 0.97773 0.0
C2114 C 0.39203 0.64331 0.97576 0.0
C2115 C 0.36774 0.65523 0.97319 0.0
H2116 H 0.47649 0.67143 1.00806 0.0
H2117 H 0.35384 0.64532 0.96775 0.0
H2118 H 0.49643 0.55211 0.9666 0.0
H2119 H 0.5983 0.65747 0.99255 0.0
H2120 H 0.39664 0.62416 0.97226 0.0
H2121 H 0.34254 0.68904 0.9758 0.0
H2122 H 0.55749 0.65897 0.98183 0.0
H2123 H 0.46692 0.71214 1.01867 0.0
H2124 H 0.35472 0.72625 0.98883 0.0
H2125 H 0.38554 0.74441 1.00278 0.0
H2126 H 0.51343 0.50786 0.97116 0.0
H2127 H 0.42728 0.73903 1.01413 0.0
H2128 H 0.61873 0.61449 0.9975 0.0
N2129 N 0.52824 0.57267 0.97444 0.0
C2130 C 0.55168 0.57021 0.97993 0.0
C2131 C 0.52433 0.52525 0.97372 0.0
C2132 C 0.56214 0.5451 0.98271 0.0
C2133 C 0.51465 0.55058 0.97121 0.0
C2134 C 0.54817 0.52248 0.9795 0.0
N2135 N 0.55309 0.61689 0.98075 0.0
C2136 C 0.56523 0.63985 0.98399 0.0
C2137 C 0.58822 0.59145 0.98941 0.0
C2138 C 0.56444 0.59309 0.98326 0.0
C2139 C 0.60042 0.6149 0.99279 0.0
C2140 C 0.58887 0.63918 0.99006 0.0
H2141 H 0.55555 0.50282 0.98147 0.0
H2142 H 0.59433 0.52425 0.99091 0.0
H2143 H 0.61723 0.56487 0.99676 0.0
O2144 O 0.54067 0.63468 0.95892 0.0
O2145 O 0.50866 0.59849 0.9868 0.0
O2146 O 0.49058 0.63502 0.99496 0.0
O2147 O 0.52352 0.59731 0.95432 0.0
O2148 O 0.51658 0.65947 0.97354 0.0
O2149 O 0.48203 0.672 0.98574 0.0
O2150 O 0.45142 0.60022 0.99315 0.0
O2151 O 0.44306 0.6524 0.96938 0.0
O2152 O 0.48134 0.63784 0.97056 0.0
O2153 O 0.42479 0.63005 0.99971 0.0
O2154 O 0.44201 0.6058 0.97382 0.0
O2155 O 0.47924 0.59467 0.96288 0.0
C2156 C 0.50491 0.61296 0.99578 0.0
C2157 C 0.5681 0.60502 0.94919 0.0
C2158 C 0.61609 0.6079 0.9519 0.0
C2159 C 0.61942 0.59205 0.94229 0.0
C2160 C 0.57192 0.58936 0.93972 0.0
C2161 C 0.5975 0.58243 0.93645 0.0
C2162 C 0.59011 0.61278 0.95556 0.0
C2163 C 0.5043 0.67769 0.98 0.0
C2164 C 0.54147 0.61491 0.952 0.0
C2165 C 0.58595 0.54337 0.98872 0.0
C2166 C 0.59897 0.5665 0.99205 0.0
C2167 C 0.46427 0.64833 0.96378 0.0
C2168 C 0.44031 0.59775 1.01231 0.0
C2169 C 0.43085 0.56981 1.02852 0.0
C2170 C 0.45124 0.58264 1.03439 0.0
C2171 C 0.45928 0.61138 1.01856 0.0
C2172 C 0.42602 0.57708 1.01732 0.0
C2173 C 0.46516 0.60344 1.02945 0.0
C2174 C 0.45353 0.59182 0.9655 0.0
C2175 C 0.43396 0.606 1.00084 0.0
H2176 H 0.63877 0.58793 0.93887 0.0
H2177 H 0.55521 0.58296 0.93476 0.0
H2178 H 0.60042 0.57056 0.92904 0.0
H2179 H 0.58683 0.62376 0.96313 0.0
H2180 H 0.45581 0.57723 1.04293 0.0
H2181 H 0.46931 0.6283 1.01505 0.0
H2182 H 0.4102 0.56775 1.01266 0.0
H2183 H 0.48006 0.61388 1.03419 0.0
Tb2184 Tb 0.26607 0.76318 0.72248 0.0
C2185 C 0.1936 0.66489 0.74855 0.0
N2186 N 0.20813 0.68683 0.75063 0.0
C2187 C 0.18356 0.69409 0.76751 0.0
C2188 C 0.17332 0.6566 0.75584 0.0
C2189 C 0.20358 0.70135 0.76004 0.0
C2190 C 0.16825 0.67168 0.76538 0.0
C2191 C 0.18622 0.62649 0.73696 0.0
C2192 C 0.19985 0.65022 0.73927 0.0
C2193 C 0.16557 0.61834 0.74403 0.0
C2194 C 0.1591 0.6334 0.75345 0.0
Tb2195 Tb 0.23914 0.69833 0.73759 0.0
N2196 N 0.22001 0.65875 0.73273 0.0
C2197 C 0.1941 0.61148 0.72775 0.0
C2198 C 0.22831 0.64367 0.72392 0.0
C2199 C 0.21538 0.62002 0.72125 0.0
H2200 H 0.21516 0.71865 0.76187 0.0
H2201 H 0.22184 0.60841 0.71417 0.0
H2202 H 0.32476 0.73226 0.72439 0.0
H2203 H 0.23268 0.85852 0.73732 0.0
H2204 H 0.24453 0.64992 0.71871 0.0
H2205 H 0.18417 0.59312 0.72568 0.0
H2206 H 0.22711 0.81411 0.72947 0.0
H2207 H 0.17998 0.70579 0.77492 0.0
H2208 H 0.15475 0.60025 0.74236 0.0
H2209 H 0.14336 0.62675 0.75892 0.0
H2210 H 0.37015 0.74417 0.72963 0.0
H2211 H 0.15282 0.66603 0.77119 0.0
H2212 H 0.27709 0.87411 0.74289 0.0
N2213 N 0.30858 0.77018 0.7283 0.0
C2214 C 0.3136 0.79486 0.73231 0.0
C2215 C 0.35442 0.75864 0.73038 0.0
C2216 C 0.33934 0.80245 0.73547 0.0
C2217 C 0.32853 0.75199 0.72736 0.0
C2218 C 0.3599 0.78402 0.73438 0.0
N2219 N 0.26773 0.80334 0.73121 0.0
C2220 C 0.24646 0.8199 0.73227 0.0
C2221 C 0.29655 0.83747 0.73828 0.0
C2222 C 0.29241 0.81195 0.73387 0.0
C2223 C 0.27473 0.85426 0.73961 0.0
C2224 C 0.2496 0.84546 0.73655 0.0
H2225 H 0.37997 0.78905 0.73674 0.0
H2226 H 0.36328 0.83418 0.74222 0.0
H2227 H 0.32586 0.86498 0.74454 0.0
O2228 O 0.24541 0.78536 0.71056 0.0
O2229 O 0.27845 0.75856 0.74003 0.0
O2230 O 0.24321 0.73607 0.74769 0.0
O2231 O 0.2862 0.77498 0.70786 0.0
O2232 O 0.22249 0.76793 0.72724 0.0
O2233 O 0.2083 0.73157 0.73823 0.0
O2234 O 0.2797 0.70098 0.7413 0.0
O2235 O 0.21815 0.69779 0.72143 0.0
O2236 O 0.24461 0.72903 0.7228 0.0
O2237 O 0.2543 0.6711 0.74912 0.0
O2238 O 0.26938 0.68785 0.72369 0.0
O2239 O 0.28435 0.72647 0.71438 0.0
C2240 C 0.2639 0.75233 0.74876 0.0
C2241 C 0.27302 0.81936 0.70416 0.0
C2242 C 0.25649 0.8647 0.70582 0.0
C2243 C 0.28264 0.87394 0.70651 0.0
C2244 C 0.29911 0.82891 0.70472 0.0
C2245 C 0.30381 0.85608 0.70586 0.0
C2246 C 0.25202 0.83748 0.70452 0.0
C2247 C 0.20371 0.75516 0.73321 0.0
C2248 C 0.26691 0.79081 0.70503 0.0
C2249 C 0.34361 0.82792 0.7398 0.0
C2250 C 0.32228 0.84542 0.74116 0.0
C2251 C 0.22715 0.71825 0.71639 0.0
C2252 C 0.29142 0.68515 0.75934 0.0
C2253 C 0.32515 0.66985 0.77244 0.0
C2254 C 0.31531 0.68777 0.78042 0.0
C2255 C 0.28087 0.70161 0.7676 0.0
C2256 C 0.31372 0.66964 0.76173 0.0
C2257 C 0.29335 0.70365 0.77796 0.0
C2258 C 0.28454 0.69986 0.71585 0.0
C2259 C 0.27801 0.68152 0.7486 0.0
H2260 H 0.28673 0.89489 0.70739 0.0
H2261 H 0.3158 0.8154 0.70465 0.0
H2262 H 0.32392 0.86329 0.70641 0.0
H2263 H 0.23189 0.83012 0.70438 0.0
H2264 H 0.32342 0.68832 0.78879 0.0
H2265 H 0.26265 0.71222 0.76615 0.0
H2266 H 0.32122 0.65623 0.75541 0.0
H2267 H 0.28523 0.71661 0.78428 0.0
Tb2268 Tb 0.10611 0.51877 0.47373 0.0
C2269 C 0.20179 0.44043 0.49756 0.0
N2270 N 0.18032 0.45519 0.50026 0.0
C2271 C 0.17068 0.42561 0.51547 0.0
C2272 C 0.20858 0.41747 0.50367 0.0
C2273 C 0.16491 0.44835 0.50919 0.0
C2274 C 0.19253 0.40999 0.51266 0.0
C2275 C 0.24101 0.43542 0.48619 0.0
C2276 C 0.21762 0.44919 0.48895 0.0
C2277 C 0.24758 0.41207 0.49201 0.0
C2278 C 0.23137 0.40308 0.50074 0.0
Tb2279 Tb 0.17147 0.49082 0.48903 0.0
N2280 N 0.21068 0.47195 0.48364 0.0
C2281 C 0.25734 0.44591 0.47785 0.0
C2282 C 0.22711 0.48285 0.4758 0.0
C2283 C 0.25047 0.46986 0.47271 0.0
H2284 H 0.14778 0.46003 0.51135 0.0
H2285 H 0.26318 0.47837 0.46637 0.0
H2286 H 0.12799 0.58073 0.47179 0.0
H2287 H 1.01992 0.47708 0.49447 0.0
H2288 H 0.22214 0.5013 0.47174 0.0
H2289 H 0.2755 0.43596 0.47547 0.0
H2290 H 1.06036 0.47531 0.48353 0.0
H2291 H 0.15822 0.42011 0.52245 0.0
H2292 H 0.26538 0.40109 0.48997 0.0
H2293 H 0.23687 0.38529 0.50528 0.0
H2294 H 0.11342 0.62508 0.47754 0.0
H2295 H 0.19702 0.39244 0.51757 0.0
H2296 H 1.00247 0.52002 0.50106 0.0
N2297 N 0.09509 0.5608 0.47912 0.0
C2298 C 0.07195 0.56354 0.48477 0.0
C2299 C 0.1016 0.60791 0.47966 0.0
C2300 C 0.06293 0.58864 0.48827 0.0
C2301 C 0.10985 0.58258 0.47644 0.0
C2302 C 0.07805 0.61097 0.4856 0.0
N2303 N 0.06795 0.517 0.48425 0.0
C2304 C 1.05418 0.49429 0.48658 0.0
C2305 C 1.03439 0.54271 0.49372 0.0
C2306 C 1.05804 0.54085 0.48751 0.0
C2307 C 1.02075 0.51944 0.49633 0.0
C2308 C 1.03063 0.49517 0.49269 0.0
H2309 H 0.0718 0.63061 0.48813 0.0
H2310 H 1.0321 0.60969 0.49718 0.0
H2311 H 1.00701 0.56945 0.50192 0.0
O2312 O 0.08209 0.50025 0.46186 0.0
O2313 O 0.11444 0.53332 0.49069 0.0
O2314 O 0.13281 0.4959 0.49831 0.0
O2315 O 0.09816 0.53903 0.45866 0.0
O2316 O 0.10312 0.4743 0.47731 0.0
O2317 O 0.13795 0.46034 0.48916 0.0
O2318 O 0.1726 0.52991 0.49509 0.0
O2319 O 0.17341 0.4729 0.47229 0.0
O2320 O 0.14069 0.49768 0.4742 0.0
O2321 O 0.19891 0.49942 0.50162 0.0
O2322 O 0.18141 0.5236 0.47602 0.0
O2323 O 0.1431 0.53799 0.46637 0.0
C2324 C 0.11863 0.51804 0.49944 0.0
C2325 C 1.05484 0.53085 0.45231 0.0
C2326 C 1.00673 0.52858 0.45466 0.0
C2327 C 1.00403 0.54411 0.44485 0.0
C2328 C 1.05162 0.54617 0.44265 0.0
C2329 C 1.02629 0.55325 0.43909 0.0
C2330 C 1.03253 0.52354 0.45857 0.0
C2331 C 0.11526 0.45554 0.48359 0.0
C2332 C 0.0813 0.5212 0.45547 0.0
C2333 C 1.03937 0.59058 0.49442 0.0
C2334 C 1.02512 0.56767 0.49714 0.0
C2335 C 0.15263 0.48173 0.46744 0.0
C2336 C 0.18529 0.5326 0.5141 0.0
C2337 C 0.19685 0.56041 0.53001 0.0
C2338 C 0.17617 0.54868 0.53615 0.0
C2339 C 0.16617 0.5199 0.52065 0.0
C2340 C 0.20075 0.55273 0.51882 0.0
C2341 C 0.16114 0.52838 0.53151 0.0
C2342 C 0.16947 0.53893 0.46818 0.0
C2343 C 0.19051 0.52381 0.50261 0.0
H2344 H 0.98495 0.54838 0.4412 0.0
H2345 H 0.06863 0.55226 0.43778 0.0
H2346 H 1.02384 0.56487 0.43154 0.0
H2347 H 1.03555 0.51286 0.46625 0.0
H2348 H 0.17224 0.5545 0.54468 0.0
H2349 H 0.15534 0.50326 0.51742 0.0
H2350 H 0.2167 0.56128 0.51396 0.0
H2351 H 0.14603 0.51872 0.53646 0.0
Tb2352 Tb 0.35418 0.7751 0.38287 0.0
C2353 C 0.43271 0.67852 0.36075 0.0
N2354 N 0.41748 0.69958 0.35785 0.0
C2355 C 0.44619 0.70864 0.34233 0.0
C2356 C 0.45554 0.67174 0.35464 0.0
C2357 C 0.42359 0.71439 0.34862 0.0
C2358 C 0.46238 0.68734 0.3454 0.0
C2359 C 0.43851 0.6398 0.37248 0.0
C2360 C 0.42444 0.66295 0.36954 0.0
C2361 C 0.46183 0.63333 0.3667 0.0
C2362 C 0.47036 0.64931 0.3578 0.0
Tb2363 Tb 0.38231 0.70872 0.36922 0.0
N2364 N 0.40167 0.66975 0.37477 0.0
C2365 C 0.42827 0.62351 0.38092 0.0
C2366 C 0.39088 0.65323 0.38262 0.0
C2367 C 0.40418 0.63012 0.38591 0.0
H2368 H 0.41142 0.73103 0.3462 0.0
H2369 H 0.3958 0.61739 0.39228 0.0
H2370 H 0.29331 0.74999 0.38572 0.0
H2371 H 0.39104 0.85673 0.3577 0.0
H2372 H 0.37228 0.65805 0.38653 0.0
H2373 H 0.43845 0.60553 0.38343 0.0
H2374 H 0.39535 0.81731 0.36942 0.0
H2375 H 0.45113 0.72067 0.33513 0.0
H2376 H 0.47307 0.61574 0.36889 0.0
H2377 H 0.48808 0.64384 0.35326 0.0
H2378 H 0.24802 0.76338 0.38094 0.0
H2379 H 0.4798 0.68284 0.34048 0.0
H2380 H 0.3468 0.87379 0.35256 0.0
N2381 N 0.31142 0.78285 0.37749 0.0
C2382 C 0.30732 0.80569 0.37165 0.0
C2383 C 0.26455 0.77541 0.37823 0.0
C2384 C 0.2816 0.81407 0.36874 0.0
C2385 C 0.29044 0.76778 0.38088 0.0
C2386 C 0.26009 0.79868 0.37217 0.0
N2387 N 0.35372 0.81042 0.37071 0.0
C2388 C 0.37578 0.82361 0.36711 0.0
C2389 C 0.32594 0.84275 0.36142 0.0
C2390 C 0.32923 0.8198 0.36805 0.0
C2391 C 0.34848 0.85607 0.35766 0.0
C2392 C 0.37347 0.84641 0.3605 0.0
H2393 H 0.24 0.80446 0.37011 0.0
H2394 H 0.2586 0.84407 0.36006 0.0
H2395 H 0.29744 0.86919 0.35365 0.0
O2396 O 0.36827 0.80775 0.39178 0.0
O2397 O 0.33891 0.76396 0.3663 0.0
O2398 O 0.37644 0.74605 0.3589 0.0
O2399 O 0.33664 0.78401 0.39839 0.0
O2400 O 0.39883 0.77803 0.37935 0.0
O2401 O 0.41337 0.74153 0.36866 0.0
O2402 O 0.34281 0.70719 0.36372 0.0
O2403 O 0.39837 0.7066 0.38638 0.0
O2404 O 0.37817 0.74204 0.38387 0.0
O2405 O 0.3725 0.67966 0.35752 0.0
O2406 O 0.35065 0.70041 0.38262 0.0
O2407 O 0.33653 0.73923 0.39186 0.0
C2408 C 0.35402 0.75968 0.35755 0.0
C2409 C 0.33198 0.83091 0.39895 0.0
C2410 C 0.32865 0.87826 0.39481 0.0
C2411 C 0.301 0.87673 0.39561 0.0
C2412 C 0.30422 0.82961 0.39966 0.0
C2413 C 0.2889 0.85246 0.39804 0.0
C2414 C 0.34389 0.85542 0.39674 0.0
C2415 C 0.41791 0.76505 0.37358 0.0
C2416 C 0.34869 0.80679 0.39882 0.0
C2417 C 0.27822 0.83724 0.36235 0.0
C2418 C 0.30034 0.85153 0.35869 0.0
C2419 C 0.39212 0.72862 0.391 0.0
C2420 C 0.33808 0.69133 0.34527 0.0
C2421 C 0.30888 0.67591 0.33041 0.0
C2422 C 0.32114 0.69394 0.32303 0.0
C2423 C 0.35062 0.70834 0.33768 0.0
C2424 C 0.317 0.67552 0.34167 0.0
C2425 C 0.3417 0.71016 0.3267 0.0
C2426 C 0.33578 0.71267 0.39042 0.0
C2427 C 0.3481 0.68809 0.35669 0.0
H2428 H 0.28885 0.89419 0.39432 0.0
H2429 H 0.29432 0.81092 0.40118 0.0
H2430 H 0.26755 0.85128 0.39854 0.0
H2431 H 0.3653 0.85666 0.39636 0.0
H2432 H 0.3159 0.69463 0.31427 0.0
H2433 H 0.36759 0.71978 0.3402 0.0
H2434 H 0.30767 0.66217 0.34758 0.0
H2435 H 0.35144 0.72342 0.32088 0.0
Tb2436 Tb 0.10512 0.60159 0.13158 0.0
C2437 C 0.19615 0.68522 0.10947 0.0
N2438 N 0.17614 0.66888 0.1065 0.0
C2439 C 0.16417 0.69863 0.09162 0.0
C2440 C 0.20077 0.70926 0.10377 0.0
C2441 C 0.16057 0.67487 0.09749 0.0
C2442 C 0.18419 0.71606 0.09484 0.0
C2443 C 0.23531 0.69209 0.1207 0.0
C2444 C 0.21303 0.67685 0.1178 0.0
C2445 C 0.23947 0.71666 0.11542 0.0
C2446 C 0.2222 0.72526 0.10697 0.0
Tb2447 Tb 0.17058 0.63164 0.11722 0.0
N2448 N 0.20852 0.65283 0.12251 0.0
C2449 C 0.25314 0.68172 0.12854 0.0
C2450 C 0.22662 0.64196 0.12968 0.0
C2451 C 0.24894 0.65637 0.13294 0.0
H2452 H 0.14478 0.66177 0.09503 0.0
H2453 H 0.26291 0.6479 0.13881 0.0
H2454 H 0.12137 0.539 0.13787 0.0
H2455 H 1.03012 0.64262 0.10378 0.0
H2456 H 0.22352 0.62242 0.1331 0.0
H2457 H 0.27053 0.69278 0.13101 0.0
H2458 H 0.06475 0.64506 0.11782 0.0
H2459 H 0.15144 0.70351 0.08463 0.0
H2460 H 0.25634 0.72882 0.1176 0.0
H2461 H 0.22598 0.74393 0.10276 0.0
H2462 H 0.10819 0.49448 0.13197 0.0
H2463 H 0.18702 0.73438 0.09025 0.0
H2464 H 1.01503 0.59923 0.09678 0.0
N2465 N 0.09476 0.55904 0.12684 0.0
C2466 C 0.07433 0.55627 0.11953 0.0
C2467 C 0.09871 0.51171 0.12831 0.0
C2468 C 0.06613 0.53099 0.11594 0.0
C2469 C 0.10639 0.53718 0.13153 0.0
C2470 C 0.07868 0.50859 0.1204 0.0
N2471 N 0.07112 0.60312 0.11879 0.0
C2472 C 1.05931 0.62578 0.11487 0.0
C2473 C 1.04204 0.57686 0.10724 0.0
C2474 C 0.06233 0.579 0.11529 0.0
C2475 C 1.0306 0.60004 0.103 0.0
C2476 C 1.03915 0.62456 0.10689 0.0
H2477 H 0.07291 0.48882 0.11788 0.0
H2478 H 1.03946 0.5096 0.10505 0.0
H2479 H 1.01849 0.54975 0.09738 0.0
O2480 O 0.06862 0.60422 0.13964 0.0
O2481 O 0.11862 0.58527 0.11549 0.0
O2482 O 0.13257 0.62412 0.10792 0.0
O2483 O 0.10344 0.59359 0.14892 0.0
O2484 O 0.1018 0.64686 0.12884 0.0
O2485 O 0.1369 0.66226 0.11743 0.0
O2486 O 0.17494 0.59318 0.11073 0.0
O2487 O 0.17404 0.6437 0.1348 0.0
O2488 O 0.13712 0.62682 0.13183 0.0
O2489 O 0.19923 0.62555 0.1048 0.0
O2490 O 0.17999 0.59902 0.13028 0.0
O2491 O 0.14153 0.58079 0.13856 0.0
C2492 C 0.12127 0.60056 0.10663 0.0
C2493 C 0.07041 0.61854 0.15819 0.0
C2494 C 1.05102 0.66094 0.1636 0.0
C2495 C 1.05313 0.65316 0.17489 0.0
C2496 C 0.0725 0.61122 0.16945 0.0
C2497 C 0.06397 0.62855 0.17776 0.0
C2498 C 1.05984 0.64346 0.15532 0.0
C2499 C 0.11386 0.6664 0.12287 0.0
C2500 C 0.07848 0.59981 0.14947 0.0
C2501 C 1.04591 0.52885 0.10795 0.0
C2502 C 1.03395 0.55172 0.10359 0.0
C2503 C 0.15176 0.63805 0.13929 0.0
C2504 C 0.1882 0.59237 0.09185 0.0
C2505 C 0.20124 0.56528 0.07592 0.0
C2506 C 0.18003 0.57608 0.06977 0.0
C2507 C 0.16822 0.60396 0.08535 0.0
C2508 C 0.20477 0.57314 0.08711 0.0
C2509 C 0.16376 0.59542 0.07446 0.0
C2510 C 0.16807 0.58187 0.1374 0.0
C2511 C 0.19259 0.60081 0.10344 0.0
H2512 H 1.04593 0.6658 0.18151 0.0
H2513 H 0.08058 0.59207 0.17179 0.0
H2514 H 0.06546 0.62277 0.18645 0.0
H2515 H 1.05868 0.64934 0.14663 0.0
H2516 H 0.17646 0.57011 0.06123 0.0
H2517 H 0.15616 0.61968 0.08868 0.0
H2518 H 0.2211 0.56528 0.09198 0.0
H2519 H 0.148 0.60418 0.06955 0.0
Tb2520 Tb 0.26972 0.35862 0.88116 0.0
C2521 C 0.18617 0.44654 0.85963 0.0
N2522 N 0.20356 0.42788 0.85618 0.0
C2523 C 0.17516 0.41766 0.84069 0.0
C2524 C 0.16223 0.45126 0.85392 0.0
C2525 C 0.19873 0.4139 0.84663 0.0
C2526 C 0.15666 0.43623 0.84442 0.0
C2527 C 0.17694 0.48294 0.87207 0.0
C2528 C 0.19335 0.46196 0.86853 0.0
C2529 C 0.15245 0.48713 0.86677 0.0
C2530 C 0.14509 0.47128 0.85769 0.0
Tb2531 Tb 0.24035 0.42097 0.86703 0.0
N2532 N 0.21736 0.45747 0.8732 0.0
C2533 C 0.18604 0.49953 0.88056 0.0
C2534 C 0.22695 0.47461 0.88105 0.0
C2535 C 0.21133 0.49555 0.88496 0.0
H2536 H 0.21267 0.39933 0.84369 0.0
H2537 H 0.21889 0.50869 0.89133 0.0
H2538 H 0.33249 0.37974 0.88066 0.0
H2539 H 0.22459 0.26912 0.86466 0.0
H2540 H 0.24656 0.47223 0.88444 0.0
H2541 H 0.17406 0.51588 0.88354 0.0
H2542 H 0.22666 0.3082 0.87657 0.0
H2543 H 0.17126 0.4062 0.83325 0.0
H2544 H 0.13942 0.50298 0.86943 0.0
H2545 H 0.12647 0.47511 0.85349 0.0
H2546 H 0.3741 0.36665 0.87165 0.0
H2547 H 0.13846 0.43919 0.83978 0.0
H2548 H 0.26328 0.2562 0.85329 0.0
N2549 N 0.30973 0.34896 0.87316 0.0
C2550 C 0.31041 0.32663 0.86681 0.0
C2551 C 0.35627 0.35536 0.87015 0.0
C2552 C 0.33392 0.31853 0.86146 0.0
C2553 C 0.33248 0.3628 0.87522 0.0
C2554 C 0.35696 0.33332 0.86315 0.0
N2555 N 0.2652 0.31998 0.87119 0.0
C2556 C 0.24325 0.3041 0.87125 0.0
C2557 C 0.28723 0.2891 0.85889 0.0
C2558 C 0.28728 0.31212 0.86555 0.0
C2559 C 0.26411 0.27401 0.85831 0.0
C2560 C 0.2422 0.28131 0.86467 0.0
H2561 H 0.37541 0.32773 0.85919 0.0
H2562 H 0.35147 0.28976 0.85028 0.0
H2563 H 0.3106 0.26398 0.84803 0.0
O2564 O 0.27776 0.32304 0.88963 0.0
O2565 O 0.28395 0.37321 0.86483 0.0
O2566 O 0.24532 0.38392 0.85716 0.0
O2567 O 0.28278 0.36032 0.89787 0.0
O2568 O 0.22505 0.35398 0.87758 0.0
O2569 O 0.20855 0.38996 0.86737 0.0
O2570 O 0.24807 0.45094 0.85523 0.0
O2571 O 0.23605 0.4205 0.88515 0.0
O2572 O 0.23487 0.37604 0.88873 0.0
O2573 O 0.27902 0.4242 0.86076 0.0
O2574 O 0.27017 0.43234 0.88046 0.0
O2575 O 0.29113 0.3947 0.88753 0.0
C2576 C 0.26833 0.37212 0.85611 0.0
C2577 C 0.2628 0.32607 0.90803 0.0
C2578 C 0.22128 0.30508 0.91337 0.0
C2579 C 0.22785 0.30897 0.92468 0.0
C2580 C 0.26914 0.32984 0.91929 0.0
C2581 C 0.25152 0.32156 0.92758 0.0
C2582 C 0.23851 0.31457 0.90516 0.0
C2583 C 0.20509 0.36617 0.87202 0.0
C2584 C 0.28076 0.33484 0.89915 0.0
C2585 C 0.33368 0.29609 0.85457 0.0
C2586 C 0.31038 0.28147 0.85326 0.0
C2587 C 0.23305 0.40054 0.8921 0.0
C2588 C 0.28239 0.44098 0.84249 0.0
C2589 C 0.31272 0.45622 0.82802 0.0
C2590 C 0.30283 0.43661 0.82082 0.0
C2591 C 0.27207 0.42219 0.8351 0.0
C2592 C 0.30271 0.45781 0.83894 0.0
C2593 C 0.28261 0.41969 0.82438 0.0
C2594 C 0.28865 0.421 0.88697 0.0
C2595 C 0.27261 0.4434 0.85396 0.0
H2596 H 0.21522 0.30159 0.93128 0.0
H2597 H 0.28758 0.3392 0.92164 0.0
H2598 H 0.25645 0.32439 0.93629 0.0
H2599 H 0.23307 0.31275 0.89646 0.0
H2600 H 0.30995 0.43503 0.81232 0.0
H2601 H 0.25595 0.40952 0.83761 0.0
H2602 H 0.31049 0.47244 0.84468 0.0
H2603 H 0.27475 0.40496 0.81874 0.0
Tb2604 Tb 0.51732 0.51204 0.63156 0.0
C2605 C 0.42092 0.43386 0.60862 0.0
N2606 N 0.44237 0.44845 0.60578 0.0
C2607 C 0.45112 0.4192 0.59045 0.0
C2608 C 0.41366 0.41119 0.60251 0.0
C2609 C 0.45737 0.44164 0.59675 0.0
C2610 C 0.42922 0.40382 0.59337 0.0
C2611 C 0.38239 0.42874 0.6204 0.0
C2612 C 0.40566 0.44241 0.61743 0.0
C2613 C 0.3753 0.40573 0.61454 0.0
C2614 C 0.39093 0.39695 0.60561 0.0
Tb2615 Tb 0.45208 0.48359 0.61702 0.0
N2616 N 0.41313 0.46481 0.62279 0.0
C2617 C 0.36672 0.43891 0.629 0.0
C2618 C 0.39737 0.47534 0.63094 0.0
C2619 C 0.37414 0.46244 0.63423 0.0
H2620 H 0.47452 0.45313 0.59447 0.0
H2621 H 0.36197 0.47069 0.64079 0.0
H2622 H 0.49039 0.57256 0.6329 0.0
H2623 H 0.6048 0.47572 0.6103 0.0
H2624 H 0.40274 0.49343 0.6351 0.0
H2625 H 0.34867 0.42902 0.63154 0.0
H2626 H 0.56379 0.47128 0.62086 0.0
H2627 H 0.46323 0.41376 0.58337 0.0
H2628 H 0.35757 0.39485 0.61673 0.0
H2629 H 0.38506 0.3794 0.60106 0.0
H2630 H 0.50289 0.61788 0.62766 0.0
H2631 H 0.42437 0.3865 0.58846 0.0
H2632 H 0.62073 0.51999 0.60456 0.0
N2633 N 0.52498 0.55476 0.62597 0.0
C2634 C 0.5483 0.55903 0.62061 0.0
C2635 C 0.51583 0.60147 0.62561 0.0
C2636 C 0.55622 0.58476 0.61745 0.0
C2637 C 0.50876 0.57557 0.62854 0.0
C2638 C 0.53969 0.60612 0.62007 0.0
N2639 N 0.55467 0.51268 0.62066 0.0
C2640 C 0.56949 0.49076 0.61815 0.0
C2641 C 0.58743 0.54064 0.61186 0.0
C2642 C 0.56357 0.53723 0.61779 0.0
C2643 C 0.60225 0.51821 0.60908 0.0
C2644 C 0.59323 0.49319 0.61225 0.0
H2645 H 0.54506 0.62621 0.61779 0.0
H2646 H 0.5866 0.60793 0.60921 0.0
H2647 H 0.61401 0.56929 0.60436 0.0
O2648 O 0.5443 0.4937 0.64245 0.0
O2649 O 0.50871 0.52579 0.61448 0.0
O2650 O 0.49006 0.48838 0.6072 0.0
O2651 O 0.52793 0.53194 0.64633 0.0
O2652 O 0.52137 0.46777 0.62795 0.0
O2653 O 0.48593 0.45351 0.61657 0.0
O2654 O 0.45087 0.523 0.6112 0.0
O2655 O 0.45152 0.46438 0.63361 0.0
O2656 O 0.48321 0.49023 0.63181 0.0
O2657 O 0.42428 0.49298 0.60463 0.0
O2658 O 0.44242 0.5159 0.63016 0.0
O2659 O 0.48069 0.52963 0.63993 0.0
C2660 C 0.50445 0.51028 0.60588 0.0
C2661 C 0.57444 0.52671 0.64772 0.0
C2662 C 0.62103 0.51924 0.64317 0.0
C2663 C 0.62468 0.54675 0.64218 0.0
C2664 C 0.57858 0.55422 0.64682 0.0
C2665 C 0.60359 0.5641 0.6441 0.0
C2666 C 0.59599 0.50954 0.64621 0.0
C2667 C 0.50904 0.44893 0.62188 0.0
C2668 C 0.54741 0.51549 0.6481 0.0
C2669 C 0.58012 0.58829 0.61166 0.0
C2670 C 0.5957 0.56628 0.60888 0.0
C2671 C 0.47225 0.47327 0.63844 0.0
C2672 C 0.43769 0.5267 0.59226 0.0
C2673 C 0.42628 0.55587 0.57664 0.0
C2674 C 0.4465 0.54398 0.5703 0.0
C2675 C 0.45622 0.51384 0.58548 0.0
C2676 C 0.42257 0.54758 0.5878 0.0
C2677 C 0.46113 0.52292 0.57467 0.0
C2678 C 0.45427 0.53065 0.63815 0.0
C2679 C 0.43274 0.51737 0.60373 0.0
H2680 H 0.64375 0.55482 0.63986 0.0
H2681 H 0.56234 0.56808 0.64778 0.0
H2682 H 0.60649 0.58526 0.64324 0.0
H2683 H 0.59301 0.48837 0.64715 0.0
H2684 H 0.45033 0.55028 0.5618 0.0
H2685 H 0.46669 0.49664 0.58848 0.0
H2686 H 0.40701 0.55627 0.59283 0.0
H2687 H 0.47583 0.51316 0.56955 0.0
C2688 C 0.16681 0.33187 0.41871 0.0
C2689 C 0.18832 0.33493 0.41142 0.0
C2690 C 0.14509 0.34886 0.41797 0.0
C2691 C 0.14143 0.41842 0.41114 0.0
H2692 H 0.08458 0.4096 0.43246 0.0
C2693 C 0.13492 0.48703 0.44807 0.0
C2694 C 0.14125 0.47079 0.45722 0.0
C2695 C 0.12484 0.47582 0.43827 0.0
C2696 C 0.09981 0.41275 0.42623 0.0
H2697 H 0.20165 0.35502 0.39636 0.0
H2698 H 0.1633 0.3838 0.39481 0.0
H2699 H 0.09461 0.374 0.41943 0.0
H2700 H 0.14138 0.43071 0.46369 0.0
H2701 H 0.12366 0.4111 0.44676 0.0
H2702 H 0.14803 0.4562 0.41854 0.0
C2703 C 0.16371 0.36913 0.40144 0.0
C2704 C 0.10574 0.39227 0.41882 0.0
C2705 C 0.18574 0.35244 0.4023 0.0
C2706 C 0.13656 0.44353 0.45669 0.0
C2707 C 0.12597 0.43244 0.44707 0.0
C2708 C 0.13522 0.43901 0.41841 0.0
C2709 C 0.14431 0.36918 0.40986 0.0
C2710 C 0.12875 0.39367 0.41223 0.0
C2711 C 0.12057 0.44833 0.43766 0.0
C2712 C 0.1164 0.435 0.42684 0.0
H2713 H 0.1676 0.31767 0.42551 0.0
H2714 H 0.13051 0.34773 0.42457 0.0
H2715 H 0.15884 0.42081 0.40598 0.0
H2716 H 0.13868 0.50813 0.44831 0.0
H2717 H 0.12133 0.48839 0.43107 0.0
C2718 C 0.96254 0.9879 0.65008 0.0
C2719 C 0.99003 0.98362 0.65075 0.0
C2720 C 0.94508 0.96656 0.64947 0.0
C2721 C 0.94859 0.89772 0.6596 0.0
H2722 H 0.87366 0.9129 0.66167 0.0
C2723 C 0.89925 0.87172 0.69923 0.0
C2724 C 0.89237 0.89612 0.70396 0.0
C2725 C 0.90099 0.86919 0.68763 0.0
C2726 C 0.89442 0.90776 0.66093 0.0
H2727 H 1.02025 0.95274 0.64911 0.0
H2728 H 0.99022 0.91682 0.64669 0.0
H2729 H 0.89993 0.9343 0.64719 0.0
H2730 H 0.88004 0.93646 0.70053 0.0
H2731 H 0.88349 0.93242 0.68041 0.0
H2732 H 0.94349 0.87244 0.67366 0.0
C2733 C 0.98197 0.93649 0.6477 0.0
C2734 C 0.90963 0.92033 0.65273 0.0
C2735 C 0.99946 0.95762 0.64891 0.0
C2736 C 0.88558 0.91747 0.69702 0.0
C2737 C 0.88705 0.91493 0.68547 0.0
C2738 C 0.93334 0.88485 0.66762 0.0
C2739 C 0.95461 0.94029 0.64906 0.0
C2740 C 0.93743 0.91794 0.65291 0.0
C2741 C 0.896 0.89115 0.68065 0.0
C2742 C 0.90682 0.89218 0.66917 0.0
H2743 H 0.95419 1.0076 0.65065 0.0
H2744 H 0.92421 0.97089 0.6503 0.0
H2745 H 0.96969 0.89427 0.65993 0.0
H2746 H 0.90508 0.85521 0.70446 0.0
H2747 H 0.90811 0.8507 0.68416 0.0
C2748 C 0.38678 0.72686 0.88922 0.0
C2749 C 0.36231 0.72156 0.89454 0.0
C2750 C 0.40641 0.70745 0.88858 0.0
C2751 C 0.42351 0.64086 0.90125 0.0
H2752 H 0.4753 0.68509 0.91601 0.0
C2753 C 0.486 0.65149 0.94497 0.0
C2754 C 0.46394 0.6454 0.95157 0.0
C2755 C 0.48437 0.64984 0.93331 0.0
C2756 C 0.46181 0.67197 0.91171 0.0
H2757 H 0.33765 0.68887 0.90032 0.0
H2758 H 0.37249 0.65652 0.90053 0.0
H2759 H 0.44987 0.70309 0.9009 0.0
H2760 H 0.42319 0.63213 0.95135 0.0
H2761 H 0.42016 0.62939 0.93126 0.0
H2762 H 0.43396 0.61067 0.9131 0.0
C2763 C 0.37679 0.67575 0.89693 0.0
C2764 C 0.44694 0.68237 0.90292 0.0
C2765 C 0.35674 0.69488 0.89716 0.0
C2766 C 0.44055 0.63689 0.94643 0.0
C2767 C 0.43901 0.63482 0.93489 0.0
C2768 C 0.43837 0.63048 0.9101 0.0
C2769 C 0.40263 0.68263 0.89364 0.0
C2770 C 0.4257 0.66785 0.89838 0.0
C2771 C 0.4606 0.642 0.92815 0.0
C2772 C 0.45569 0.64693 0.91611 0.0
H2773 H 0.39242 0.74638 0.88643 0.0
H2774 H 0.42559 0.71299 0.8853 0.0
H2775 H 0.40826 0.62863 0.89757 0.0
H2776 H 0.50388 0.65895 0.94877 0.0
H2777 H 0.50119 0.65591 0.92833 0.0
C2778 C 0.72507 0.23739 0.19262 0.0
C2779 C 0.73391 0.21806 0.20022 0.0
C2780 C 0.72228 0.23126 0.18131 0.0
C2781 C 0.73453 0.17723 0.1604 0.0
H2782 H 0.66285 0.19464 0.1517 0.0
C2783 C 0.66085 0.10212 0.14889 0.0
C2784 C 0.63525 0.11097 0.14604 0.0
C2785 C 0.68231 0.11948 0.14838 0.0
C2786 C 0.68328 0.18995 0.15359 0.0
H2787 H 0.74818 0.17762 0.20186 0.0
H2788 H 0.74237 0.16663 0.1824 0.0
H2789 H 0.6839 0.21998 0.16598 0.0
H2790 H 0.61443 0.14326 0.13741 0.0
H2791 H 0.65185 0.17171 0.13569 0.0
H2792 H 0.7328 0.14559 0.14856 0.0
C2793 C 0.73807 0.18671 0.185 0.0
C2794 C 0.69544 0.2047 0.16192 0.0
C2795 C 0.74081 0.19283 0.19626 0.0
C2796 C 0.63313 0.13537 0.14024 0.0
C2797 C 0.65485 0.15219 0.13929 0.0
C2798 C 0.72229 0.16236 0.15204 0.0
C2799 C 0.72831 0.20567 0.1774 0.0
C2800 C 0.72032 0.1971 0.16605 0.0
C2801 C 0.67875 0.14571 0.14461 0.0
C2802 C 0.69567 0.16716 0.14924 0.0
H2803 H 0.71978 0.25706 0.19544 0.0
H2804 H 0.7147 0.24631 0.17568 0.0
H2805 H 0.7542 0.17158 0.16312 0.0
H2806 H 0.6641 0.08271 0.15252 0.0
H2807 H 0.70071 0.11317 0.1522 0.0
C2808 C 0.24051 0.71596 0.20514 0.0
C2809 C 0.23462 0.74306 0.20627 0.0
C2810 C 0.2203 0.69713 0.20542 0.0
C2811 C 0.17427 0.66055 0.20241 0.0
H2812 H 0.129 0.69693 0.1812 0.0
C2813 C 0.12541 0.65141 0.15573 0.0
C2814 C 0.14728 0.63812 0.15133 0.0
C2815 C 0.12359 0.65581 0.16721 0.0
C2816 C 0.14057 0.68597 0.18728 0.0
H2817 H 0.20295 0.77074 0.21057 0.0
H2818 H 0.16874 0.73791 0.21184 0.0
H2819 H 0.15045 0.72176 0.19543 0.0
H2820 H 0.18426 0.61851 0.15521 0.0
H2821 H 0.18155 0.62625 0.17511 0.0
H2822 H 0.1656 0.62492 0.1935 0.0
C2823 C 0.18875 0.73132 0.21015 0.0
C2824 C 0.15309 0.70046 0.19559 0.0
C2825 C 0.20873 0.75026 0.20951 0.0
C2826 C 0.16684 0.62827 0.15851 0.0
C2827 C 0.16506 0.63254 0.16997 0.0
C2828 C 0.16151 0.64595 0.1941 0.0
C2829 C 0.19383 0.70498 0.20708 0.0
C2830 C 0.17214 0.68835 0.20251 0.0
C2831 C 0.14393 0.64736 0.17444 0.0
C2832 C 0.14672 0.65904 0.18577 0.0
H2833 H 0.26037 0.70937 0.20319 0.0
H2834 H 0.22522 0.67696 0.20316 0.0
H2835 H 0.18795 0.65044 0.20794 0.0
H2836 H 0.11068 0.65999 0.15024 0.0
H2837 H 0.10715 0.6674 0.17029 0.0
C2838 C 0.68564 0.8862 0.39943 0.0
C2839 C 0.71302 0.89001 0.39937 0.0
C2840 C 0.67357 0.8733 0.40834 0.0
C2841 C 0.67755 0.87574 0.43701 0.0
H2842 H 0.61147 0.83817 0.43309 0.0
C2843 C 0.59096 0.92916 0.45075 0.0
C2844 C 0.57465 0.93279 0.44131 0.0
C2845 C 0.60637 0.90631 0.45192 0.0
C2846 C 0.62994 0.84847 0.4345 0.0
H2847 H 0.74963 0.88342 0.40835 0.0
H2848 H 0.72808 0.86222 0.42453 0.0
H2849 H 0.64877 0.82852 0.42089 0.0
H2850 H 0.55836 0.913 0.42682 0.0
H2851 H 0.58679 0.87475 0.42819 0.0
H2852 H 0.65822 0.89847 0.4494 0.0
C2853 C 0.71619 0.86813 0.41742 0.0
C2854 C 0.65144 0.84264 0.42759 0.0
C2855 C 0.72841 0.88046 0.40827 0.0
C2856 C 0.57167 0.91154 0.43389 0.0
C2857 C 0.58768 0.88908 0.43487 0.0
C2858 C 0.65599 0.8819 0.44378 0.0
C2859 C 0.68858 0.86473 0.41756 0.0
C2860 C 0.67425 0.85848 0.42799 0.0
C2861 C 0.60682 0.88717 0.44343 0.0
C2862 C 0.63098 0.87065 0.44159 0.0
H2863 H 0.67347 0.89349 0.39262 0.0
H2864 H 0.65219 0.87173 0.40833 0.0
H2865 H 0.69518 0.88784 0.43769 0.0
H2866 H 0.59367 0.94477 0.45681 0.0
H2867 H 0.6199 0.90503 0.45892 0.0
C2868 C 0.49553 0.47569 0.65685 0.0
C2869 C 0.48514 0.46069 0.64805 0.0
C2870 C 0.50759 0.46298 0.66595 0.0
C2871 C 0.5311 0.39719 0.67611 0.0
H2872 H 0.47798 0.40735 0.69891 0.0
C2873 C 0.45941 0.32165 0.684 0.0
C2874 C 0.43897 0.32604 0.69171 0.0
C2875 C 0.4828 0.33619 0.68463 0.0
C2876 C 0.49383 0.40415 0.693 0.0
H2877 H 0.48003 0.42121 0.64142 0.0
H2878 H 0.50111 0.39902 0.65713 0.0
H2879 H 0.48879 0.44338 0.68663 0.0
H2880 H 0.42932 0.34558 0.70736 0.0
H2881 H 0.47058 0.36942 0.7088 0.0
H2882 H 0.53459 0.35723 0.68194 0.0
C2883 C 0.50036 0.42049 0.65707 0.0
C2884 C 0.50007 0.42518 0.68589 0.0
C2885 C 0.48779 0.43309 0.64819 0.0
C2886 C 0.44426 0.34197 0.70108 0.0
C2887 C 0.468 0.35594 0.70187 0.0
C2888 C 0.5252 0.37624 0.68336 0.0
C2889 C 0.50987 0.4352 0.66618 0.0
C2890 C 0.51624 0.42073 0.67659 0.0
C2891 C 0.48641 0.35525 0.69308 0.0
C2892 C 0.50383 0.37854 0.69083 0.0
H2893 H 0.49346 0.49704 0.65689 0.0
H2894 H 0.51424 0.47468 0.67297 0.0
H2895 H 0.54442 0.39364 0.66919 0.0
H2896 H 0.45661 0.30848 0.67698 0.0
H2897 H 0.49651 0.3344 0.67774 0.0
C2898 C 1.02312 0.19954 0.95503 0.0
C2899 C 1.0412 0.19922 0.94609 0.0
C2900 C 1.00556 0.22076 0.95629 0.0
C2901 C 0.97975 0.27841 0.93903 0.0
H2902 H 0.91957 0.23108 0.93827 0.0
C2903 C 0.93442 0.24352 0.90022 0.0
C2904 C 0.90785 0.23615 0.89936 0.0
C2905 C 0.94381 0.25514 0.90996 0.0
C2906 C 0.93566 0.24522 0.93864 0.0
H2907 H 1.05864 0.22332 0.93304 0.0
H2908 H 1.02727 0.25891 0.93459 0.0
H2909 H 0.95419 0.22328 0.95157 0.0
H2910 H 0.86997 0.23516 0.90779 0.0
H2911 H 0.88679 0.25439 0.92521 0.0
H2912 H 0.96227 0.29797 0.92491 0.0
C2913 C 1.02619 0.24316 0.94073 0.0
C2914 C 0.95584 0.24077 0.94637 0.0
C2915 C 1.04409 0.22229 0.93963 0.0
C2916 C 0.89056 0.24089 0.9083 0.0
C2917 C 0.90008 0.25208 0.91818 0.0
C2918 C 0.95974 0.28254 0.93114 0.0
C2919 C 1.00503 0.24144 0.94837 0.0
C2920 C 0.97962 0.25529 0.94567 0.0
C2921 C 0.92693 0.25894 0.91916 0.0
C2922 C 0.93902 0.26417 0.93018 0.0
H2923 H 1.02065 0.18243 0.96041 0.0
H2924 H 0.9905 0.21937 0.96269 0.0
H2925 H 0.99698 0.29111 0.93876 0.0
H2926 H 0.94804 0.23988 0.89341 0.0
H2927 H 0.96476 0.25948 0.91055 0.0
C2928 C 0.84034 0.70474 0.70521 0.0
C2929 C 0.846 0.72654 0.71202 0.0
C2930 C 0.85841 0.68387 0.70441 0.0
C2931 C 0.92818 0.68437 0.70287 0.0
H2932 H 0.91547 0.6153 0.68996 0.0
C2933 C 0.98351 0.65354 0.66355 0.0
C2934 C 0.96554 0.64598 0.6552 0.0
C2935 C 0.97581 0.65362 0.67478 0.0
C2936 C 0.91959 0.63443 0.69365 0.0
H2937 H 0.87234 0.74159 0.72479 0.0
H2938 H 0.90418 0.70533 0.72323 0.0
H2939 H 0.88546 0.63226 0.70423 0.0
H2940 H 0.92577 0.63148 0.65216 0.0
H2941 H 0.91213 0.63262 0.67139 0.0
H2942 H 0.96032 0.68804 0.69146 0.0
C2943 C 0.88607 0.70448 0.71841 0.0
C2944 C 0.9025 0.64402 0.70187 0.0
C2945 C 0.86793 0.72528 0.71924 0.0
C2946 C 0.94004 0.63786 0.65832 0.0
C2947 C 0.93237 0.63791 0.66945 0.0
C2948 C 0.94504 0.67494 0.69457 0.0
C2949 C 0.88242 0.68464 0.71037 0.0
C2950 C 0.90547 0.66994 0.70589 0.0
C2951 C 0.94997 0.64614 0.67783 0.0
C2952 C 0.93956 0.65083 0.68924 0.0
H2953 H 0.82352 0.70511 0.6996 0.0
H2954 H 0.85497 0.6689 0.69812 0.0
H2955 H 0.93113 0.70443 0.70581 0.0
H2956 H 1.00326 0.6599 0.66139 0.0
H2957 H 0.98985 0.66011 0.68103 0.0
C2958 C 0.12492 0.17112 0.45999 0.0
C2959 C 0.13324 0.14493 0.45767 0.0
C2960 C 0.14318 0.19166 0.46083 0.0
C2961 C 0.21428 0.20644 0.45337 0.0
H2962 H 0.17718 0.24886 0.43136 0.0
C2963 C 0.22181 0.24884 0.40539 0.0
C2964 C 0.23559 0.22677 0.40147 0.0
C2965 C 0.2173 0.25187 0.4168 0.0
C2966 C 0.18838 0.23807 0.4376 0.0
H2967 H 0.16834 0.11985 0.45695 0.0
H2968 H 0.19943 0.15579 0.45664 0.0
H2969 H 0.15304 0.22966 0.44627 0.0
H2970 H 0.25577 0.19053 0.40614 0.0
H2971 H 0.24803 0.19551 0.42598 0.0
H2972 H 0.24949 0.21368 0.44392 0.0
C2973 C 0.17882 0.16056 0.45804 0.0
C2974 C 0.17426 0.22681 0.44635 0.0
C2975 C 0.16065 0.13975 0.4578 0.0
C2976 C 0.24568 0.20815 0.40906 0.0
C2977 C 0.2414 0.21123 0.42047 0.0
C2978 C 0.22853 0.21789 0.44458 0.0
C2979 C 0.17004 0.18703 0.4586 0.0
C2980 C 0.18651 0.2085 0.45361 0.0
C2981 C 0.22629 0.23269 0.42449 0.0
C2982 C 0.21513 0.23146 0.43597 0.0
H2983 H 0.10436 0.17682 0.46032 0.0
H2984 H 0.13578 0.21164 0.46195 0.0
H2985 H 0.22464 0.19365 0.4592 0.0
H2986 H 0.21306 0.26286 0.39959 0.0
H2987 H 0.20535 0.26842 0.4195 0.0
C2988 C 0.65653 0.47914 0.15794 0.0
C2989 C 0.63883 0.47752 0.14897 0.0
C2990 C 0.65002 0.46782 0.16826 0.0
C2991 C 0.63415 0.43842 0.18926 0.0
H2992 H 0.6205 0.3675 0.17849 0.0
C2993 C 0.70608 0.35983 0.19605 0.0
C2994 C 0.70145 0.33397 0.19236 0.0
C2995 C 0.68523 0.37765 0.19709 0.0
C2996 C 0.62353 0.38696 0.18202 0.0
H2997 H 0.60054 0.46248 0.1439 0.0
H2998 H 0.58824 0.44543 0.16187 0.0
H2999 H 0.60652 0.40459 0.16761 0.0
H3000 H 0.67149 0.30498 0.18839 0.0
H3001 H 0.63447 0.3359 0.19059 0.0
H3002 H 0.65248 0.42031 0.20346 0.0
C3003 C 0.60711 0.45542 0.16104 0.0
C3004 C 0.61543 0.4086 0.17565 0.0
C3005 C 0.61397 0.46591 0.15069 0.0
C3006 C 0.67542 0.32522 0.19088 0.0
C3007 C 0.65433 0.34294 0.19219 0.0
C3008 C 0.64179 0.41665 0.19578 0.0
C3009 C 0.62569 0.45463 0.16972 0.0
C3010 C 0.62308 0.43439 0.17866 0.0
C3011 C 0.65914 0.3699 0.19454 0.0
C3012 C 0.63939 0.39074 0.19153 0.0
H3013 H 0.676 0.48769 0.15678 0.0
H3014 H 0.66505 0.46726 0.17471 0.0
H3015 H 0.63935 0.45818 0.19199 0.0
H3016 H 0.72609 0.36681 0.19742 0.0
H3017 H 0.6902 0.39805 0.19887 0.0
C3018 C 0.40622 0.8595 0.90441 0.0
C3019 C 0.39558 0.88488 0.9027 0.0
C3020 C 0.41652 0.85214 0.91474 0.0
C3021 C 0.43389 0.87773 0.9431 0.0
H3022 H 0.50417 0.85965 0.93279 0.0
C3023 C 0.51575 0.94406 0.95106 0.0
C3024 C 0.54053 0.93868 0.94637 0.0
C3025 C 0.49738 0.92381 0.95244 0.0
C3026 C 0.48485 0.86396 0.93621 0.0
H3027 H 0.3869 0.92247 0.91051 0.0
H3028 H 0.40692 0.91051 0.92841 0.0
H3029 H 0.46703 0.8489 0.92153 0.0
H3030 H 0.56768 0.90779 0.94135 0.0
H3031 H 0.5362 0.87181 0.94444 0.0
H3032 H 0.4522 0.8938 0.95765 0.0
C3033 C 0.40581 0.89557 0.92197 0.0
C3034 C 0.46316 0.85771 0.9296 0.0
C3035 C 0.39473 0.90262 0.91166 0.0
C3036 C 0.5482 0.91235 0.9446 0.0
C3037 C 0.53006 0.89185 0.94635 0.0
C3038 C 0.45568 0.88348 0.94988 0.0
C3039 C 0.41799 0.87062 0.92343 0.0
C3040 C 0.43778 0.86685 0.93246 0.0
C3041 C 0.50357 0.89764 0.94923 0.0
C3042 C 0.48162 0.87953 0.94585 0.0
H3043 H 0.4091 0.84599 0.89763 0.0
H3044 H 0.42573 0.83281 0.91557 0.0
H3045 H 0.41436 0.88403 0.94573 0.0
H3046 H 0.50966 0.9643 0.95268 0.0
H3047 H 0.47757 0.92957 0.95483 0.0
C3048 C 0.89472 0.40637 0.89071 0.0
C3049 C 0.89117 0.38568 0.89848 0.0
C3050 C 0.91745 0.42225 0.89115 0.0
C3051 C 0.98289 0.42677 0.90535 0.0
H3052 H 0.95438 0.4922 0.91709 0.0
C3053 C 0.97896 0.44945 0.95007 0.0
C3054 C 0.97782 0.47542 0.95409 0.0
C3055 C 0.98388 0.4448 0.93878 0.0
C3056 C 0.96338 0.47457 0.9136 0.0
H3057 H 0.90849 0.36558 0.9128 0.0
H3058 H 0.94765 0.39242 0.91343 0.0
H3059 H 0.93179 0.47027 0.90195 0.0
H3060 H 0.98131 0.51681 0.94935 0.0
H3061 H 0.98984 0.5088 0.92986 0.0
H3062 H 1.01214 0.42905 0.91824 0.0
C3063 C 0.93354 0.39616 0.90679 0.0
C3064 C 0.95043 0.46205 0.90481 0.0
C3065 C 0.91085 0.38088 0.90651 0.0
C3066 C 0.98272 0.49658 0.94673 0.0
C3067 C 0.9876 0.49201 0.93545 0.0
C3068 C 0.99563 0.43907 0.91426 0.0
C3069 C 0.93705 0.4172 0.89922 0.0
C3070 C 0.95821 0.43643 0.90169 0.0
C3071 C 0.98736 0.46614 0.93129 0.0
C3072 C 0.98414 0.46148 0.9192 0.0
H3073 H 0.87999 0.4103 0.88434 0.0
H3074 H 0.91944 0.43876 0.88541 0.0
H3075 H 0.9897 0.40734 0.90278 0.0
H3076 H 0.97518 0.43281 0.9556 0.0
H3077 H 0.98295 0.42459 0.93578 0.0
C3078 C 0.45787 0.10122 0.64899 0.0
C3079 C 0.48388 0.10855 0.64609 0.0
C3080 C 0.43727 0.11967 0.64829 0.0
C3081 C 0.43968 0.19064 0.65263 0.0
H3082 H 0.36891 0.17564 0.66322 0.0
C3083 C 0.40398 0.23998 0.69215 0.0
C3084 C 0.39579 0.22085 0.69995 0.0
C3085 C 0.40471 0.23402 0.68076 0.0
C3086 C 0.38853 0.18039 0.66017 0.0
H3087 H 0.50614 0.13917 0.63708 0.0
H3088 H 0.47015 0.16942 0.63505 0.0
H3089 H 0.38819 0.14818 0.6486 0.0
H3090 H 0.38072 0.18083 0.70188 0.0
H3091 H 0.38322 0.16999 0.68229 0.0
H3092 H 0.44102 0.2213 0.66474 0.0
C3093 C 0.46623 0.15034 0.63888 0.0
C3094 C 0.39959 0.16465 0.65179 0.0
C3095 C 0.48713 0.13245 0.64003 0.0
C3096 C 0.3876 0.19591 0.69613 0.0
C3097 C 0.38842 0.1899 0.6848 0.0
C3098 C 0.42864 0.20631 0.66095 0.0
C3099 C 0.44207 0.14547 0.64427 0.0
C3100 C 0.42621 0.16808 0.64869 0.0
C3101 C 0.39749 0.20866 0.67699 0.0
C3102 C 0.4039 0.19985 0.66549 0.0
H3103 H 0.45363 0.0822 0.65276 0.0
H3104 H 0.41861 0.1145 0.65214 0.0
H3105 H 0.46011 0.19441 0.65046 0.0
H3106 H 0.41052 0.25927 0.69487 0.0
H3107 H 0.41177 0.24896 0.67497 0.0
C3108 C 0.75297 0.70963 0.39777 0.0
C3109 C 0.74883 0.73511 0.39336 0.0
C3110 C 0.73181 0.69211 0.39883 0.0
C3111 C 0.68199 0.65986 0.40234 0.0
H3112 H 0.64755 0.70569 0.42379 0.0
C3113 C 0.63567 0.65945 0.45 0.0
C3114 C 0.65369 0.64077 0.45411 0.0
C3115 C 0.63629 0.66671 0.43875 0.0
C3116 C 0.65591 0.69229 0.4177 0.0
H3117 H 0.72038 0.76052 0.38486 0.0
H3118 H 0.68326 0.73033 0.38722 0.0
H3119 H 0.66903 0.72486 0.40783 0.0
H3120 H 0.68669 0.61532 0.45 0.0
H3121 H 0.6867 0.62622 0.43036 0.0
H3122 H 0.66964 0.62727 0.41251 0.0
C3123 C 0.70279 0.72395 0.38984 0.0
C3124 C 0.66831 0.70344 0.40845 0.0
C3125 C 0.724 0.74136 0.38868 0.0
C3126 C 0.6717 0.62874 0.44686 0.0
C3127 C 0.67166 0.63516 0.43557 0.0
C3128 C 0.66889 0.64859 0.41145 0.0
C3129 C 0.70619 0.69994 0.39561 0.0
C3130 C 0.68351 0.68751 0.4013 0.0
C3131 C 0.65428 0.65464 0.43135 0.0
C3132 C 0.65805 0.66493 0.41981 0.0
H3133 H 0.77184 0.7041 0.40139 0.0
H3134 H 0.73499 0.67376 0.40338 0.0
H3135 H 0.69318 0.64716 0.3968 0.0
H3136 H 0.62221 0.66962 0.45557 0.0
H3137 H 0.62305 0.68222 0.43595 0.0
C3138 C 0.22497 0.88906 0.19794 0.0
C3139 C 0.20992 0.89678 0.20721 0.0
C3140 C 0.21294 0.8756 0.18909 0.0
C3141 C 0.15029 0.84211 0.18085 0.0
H3142 H 0.1527 0.89086 0.15591 0.0
C3143 C 0.06641 0.90129 0.17122 0.0
C3144 C 0.06944 0.92174 0.16334 0.0
C3145 C 0.08282 0.87902 0.17085 0.0
C3146 C 0.15175 0.87613 0.16248 0.0
H3147 H 0.17086 0.89743 0.21456 0.0
H3148 H 0.14983 0.87397 0.19927 0.0
H3149 H 0.18975 0.88805 0.16832 0.0
H3150 H 0.08793 0.93173 0.14746 0.0
H3151 H 0.11434 0.89206 0.14632 0.0
H3152 H 0.1114 0.83164 0.17547 0.0
C3153 C 0.17097 0.87741 0.19887 0.0
C3154 C 0.17338 0.87458 0.16967 0.0
C3155 C 0.18284 0.89125 0.20754 0.0
C3156 C 0.08523 0.91685 0.15388 0.0
C3157 C 0.10085 0.89405 0.15329 0.0
C3158 C 0.12874 0.84337 0.17355 0.0
C3159 C 0.18581 0.86954 0.18952 0.0
C3160 C 0.17142 0.85993 0.17959 0.0
C3161 C 0.1023 0.87663 0.16247 0.0
C3162 C 0.12787 0.86312 0.16521 0.0
H3163 H 0.24588 0.89355 0.19752 0.0
H3164 H 0.22465 0.87033 0.18186 0.0
H3165 H 0.14884 0.8298 0.18826 0.0
H3166 H 1.05328 0.90362 0.17829 0.0
H3167 H 0.08228 0.86572 0.17795 0.0
C3168 C 0.67516 0.9971 0.94836 0.0
C3169 C 0.65325 0.98692 0.95409 0.0
C3170 C 0.67727 0.9943 0.93685 0.0
C3171 C 0.6583 0.94488 0.91635 0.0
H3172 H 0.71019 0.98458 0.89934 0.0
C3173 C 0.72716 0.88501 0.89287 0.0
C3174 C 0.75228 0.8891 0.89778 0.0
C3175 C 0.70865 0.90548 0.89232 0.0
C3176 C 0.69529 0.97341 0.90383 0.0
H3177 H 0.61683 0.9651 0.95254 0.0
H3178 H 0.62046 0.95962 0.93233 0.0
H3179 H 0.68509 1.00659 0.91405 0.0
H3180 H 0.7792 0.92006 0.90324 0.0
H3181 H 0.74612 0.95467 0.90351 0.0
H3182 H 0.66928 0.91142 0.90678 0.0
C3183 C 0.63551 0.97089 0.9366 0.0
C3184 C 0.68099 0.98595 0.91231 0.0
C3185 C 0.63324 0.97414 0.94815 0.0
C3186 C 0.7596 0.91538 0.90022 0.0
C3187 C 0.74068 0.93564 0.90006 0.0
C3188 C 0.67223 0.93252 0.90782 0.0
C3189 C 0.65791 0.98036 0.93082 0.0
C3190 C 0.66415 0.97113 0.91932 0.0
C3191 C 0.7143 0.93013 0.89711 0.0
C3192 C 0.69256 0.94601 0.90213 0.0
H3193 H 0.69146 1.00596 0.95286 0.0
H3194 H 0.69531 1.00107 0.93291 0.0
H3195 H 0.6454 0.93266 0.92141 0.0
H3196 H 0.72022 0.86561 0.8905 0.0
H3197 H 0.6888 0.90094 0.8895 0.0
C3198 C 0.38302 0.42063 0.19619 0.0
C3199 C 0.39485 0.39986 0.20218 0.0
C3200 C 0.38465 0.42159 0.18461 0.0
C3201 C 0.39085 0.42312 0.15993 0.0
H3202 H 0.46608 0.41862 0.15436 0.0
C3203 C 0.4517 0.50853 0.14637 0.0
C3204 C 0.47864 0.50428 0.14391 0.0
C3205 C 0.43406 0.48723 0.14676 0.0
C3206 C 0.44482 0.4195 0.1554 0.0
H3207 H 0.41901 0.36484 0.20102 0.0
H3208 H 0.42204 0.36609 0.18059 0.0
H3209 H 0.44735 0.39318 0.16923 0.0
H3210 H 0.50598 0.47432 0.13736 0.0
H3211 H 0.47502 0.43875 0.13721 0.0
H3212 H 0.38916 0.45176 0.14668 0.0
C3213 C 0.41033 0.38101 0.18478 0.0
C3214 C 0.43395 0.40465 0.16406 0.0
C3215 C 0.40837 0.37998 0.19643 0.0
C3216 C 0.48591 0.47916 0.13966 0.0
C3217 C 0.46801 0.4582 0.13964 0.0
C3218 C 0.40182 0.43824 0.15128 0.0
C3219 C 0.39911 0.40229 0.17874 0.0
C3220 C 0.40731 0.40814 0.16706 0.0
C3221 C 0.4428 0.46137 0.14433 0.0
C3222 C 0.42934 0.43826 0.14958 0.0
H3223 H 0.37377 0.43704 0.20048 0.0
H3224 H 0.37658 0.43887 0.18042 0.0
H3225 H 0.36997 0.42537 0.16174 0.0
H3226 H 0.44452 0.52778 0.14893 0.0
H3227 H 0.41451 0.49074 0.15014 0.0
C3228 C 0.98568 0.14309 0.44774 0.0
C3229 C 0.98061 0.15936 0.45696 0.0
C3230 C 0.99741 0.15375 0.43813 0.0
C3231 C 1.02802 0.21575 0.42684 0.0
H3232 H 0.97157 0.21021 0.4052 0.0
C3233 C 0.96264 0.29702 0.41963 0.0
C3234 C 0.94118 0.29416 0.4123 0.0
C3235 C 0.98481 0.28068 0.41864 0.0
C3236 C 0.98832 0.21196 0.41078 0.0
H3237 H 0.98367 0.19898 0.46363 0.0
H3238 H 1.00395 0.21768 0.44701 0.0
H3239 H 0.97964 0.1741 0.4178 0.0
H3240 H 0.92867 0.27541 0.39683 0.0
H3241 H 0.96783 0.24836 0.39478 0.0
H3242 H 1.03502 0.25472 0.42043 0.0
C3243 C 0.99974 0.19663 0.44715 0.0
C3244 C 0.99295 0.1909 0.41809 0.0
C3245 C 0.9877 0.1861 0.45661 0.0
C3246 C 0.94442 0.27792 0.40285 0.0
C3247 C 0.96696 0.26212 0.40169 0.0
C3248 C 1.02355 0.23678 0.41943 0.0
C3249 C 1.00432 0.18074 0.43772 0.0
C3250 C 1.01058 0.19407 0.42701 0.0
C3251 C 0.98608 0.26129 0.41021 0.0
C3252 C 1.00126 0.23639 0.41239 0.0
H3253 H 0.98018 0.12236 0.44788 0.0
H3254 H 1.0003 0.14119 0.43092 0.0
H3255 H 1.04257 0.21816 0.4334 0.0
H3256 H 0.96149 0.31036 0.42668 0.0
H3257 H 0.99928 0.28135 0.4253 0.0
C3258 C 0.08978 0.69452 0.65471 0.0
C3259 C 0.07361 0.69068 0.66416 0.0
C3260 C 0.10537 0.71719 0.65369 0.0
C3261 C 0.13032 0.77322 0.67174 0.0
H3262 H 0.19445 0.73192 0.66823 0.0
C3263 C 0.18737 0.73572 0.70701 0.0
C3264 C 0.21462 0.73091 0.70673 0.0
C3265 C 0.1749 0.74808 0.69804 0.0
C3266 C 0.17715 0.74451 0.66902 0.0
H3267 H 1.05751 0.71015 0.67878 0.0
H3268 H 0.08634 0.74801 0.67768 0.0
H3269 H 0.15728 0.72311 0.6564 0.0
H3270 H 0.25046 0.73475 0.69699 0.0
H3271 H 0.22819 0.75523 0.68082 0.0
H3272 H 0.14972 0.79198 0.68549 0.0
C3273 C 0.08701 0.73396 0.67088 0.0
C3274 C 0.15547 0.73944 0.66218 0.0
C3275 C 0.07077 0.71171 0.67171 0.0
C3276 C 0.22938 0.73856 0.69735 0.0
C3277 C 0.21676 0.75048 0.6882 0.0
C3278 C 0.15195 0.778 0.67871 0.0
C3279 C 0.10619 0.73586 0.66236 0.0
C3280 C 0.13079 0.75143 0.66443 0.0
C3281 C 0.18931 0.75514 0.68844 0.0
C3282 C 0.17437 0.76152 0.67816 0.0
H3283 H 0.09235 0.67913 0.64853 0.0
H3284 H 0.11888 0.71856 0.6467 0.0
H3285 H 0.11214 0.78404 0.67322 0.0
H3286 H 0.17565 0.72974 0.71416 0.0
H3287 H 0.15361 0.75057 0.69836 0.0
C3288 C 0.63757 0.18099 0.64837 0.0
C3289 C 0.64186 0.1536 0.64827 0.0
C3290 C 0.62593 0.19295 0.65759 0.0
C3291 C 0.6311 0.1898 0.68632 0.0
H3292 H 0.58716 0.25249 0.68342 0.0
C3293 C 0.67611 0.27956 0.70132 0.0
C3294 C 0.6778 0.29692 0.6921 0.0
C3295 C 0.65479 0.26216 0.70237 0.0
C3296 C 0.59932 0.23496 0.68452 0.0
H3297 H 0.63787 0.117 0.6576 0.0
H3298 H 0.61882 0.13836 0.67422 0.0
H3299 H 0.58081 0.21541 0.67073 0.0
H3300 H 0.65561 0.31336 0.67819 0.0
H3301 H 0.62016 0.28173 0.67931 0.0
H3302 H 0.65226 0.21016 0.69888 0.0
C3303 C 0.62334 0.15029 0.66693 0.0
C3304 C 0.5954 0.21359 0.67732 0.0
C3305 C 0.6344 0.13818 0.65751 0.0
C3306 C 0.65578 0.29919 0.68501 0.0
C3307 C 0.63491 0.28125 0.68585 0.0
C3308 C 0.63539 0.21133 0.69334 0.0
C3309 C 0.61911 0.17784 0.66704 0.0
C3310 C 0.6131 0.19209 0.67748 0.0
C3311 C 0.63541 0.26089 0.69396 0.0
C3312 C 0.62159 0.23536 0.6916 0.0
H3313 H 0.6433 0.19321 0.64132 0.0
H3314 H 0.62369 0.21433 0.65756 0.0
H3315 H 0.64472 0.1732 0.68675 0.0
H3316 H 0.69226 0.27748 0.70719 0.0
H3317 H 0.65515 0.24778 0.70911 0.0
C3318 C 0.23799 0.43112 0.90821 0.0
C3319 C 0.23106 0.40602 0.90415 0.0
C3320 C 0.23655 0.43659 0.91957 0.0
C3321 C 0.19575 0.41801 0.9428 0.0
H3322 H 0.23368 0.47684 0.95596 0.0
C3323 C 0.13399 0.49023 0.96348 0.0
C3324 C 0.13723 0.51463 0.95779 0.0
C3325 C 0.15508 0.47256 0.96459 0.0
C3326 C 0.22297 0.46018 0.95254 0.0
H3327 H 0.21825 0.36659 0.90886 0.0
H3328 H 0.21557 0.37614 0.92883 0.0
H3329 H 0.2548 0.45027 0.9415 0.0
H3330 H 0.16722 0.54167 0.95146 0.0
H3331 H 0.20275 0.50983 0.95206 0.0
H3332 H 0.16312 0.42893 0.95285 0.0
C3333 C 0.22217 0.39159 0.92318 0.0
C3334 C 0.2351 0.44491 0.94427 0.0
C3335 C 0.22362 0.38613 0.91176 0.0
C3336 C 0.16319 0.5224 0.95507 0.0
C3337 C 0.18402 0.5042 0.95573 0.0
C3338 C 0.18363 0.43323 0.95101 0.0
C3339 C 0.22805 0.4171 0.92718 0.0
C3340 C 0.22066 0.42522 0.93865 0.0
C3341 C 0.17947 0.47814 0.95952 0.0
C3342 C 0.19619 0.45604 0.95522 0.0
H3343 H 0.24431 0.44677 0.90261 0.0
H3344 H 0.24073 0.45661 0.92227 0.0
H3345 H 0.1841 0.4028 0.93877 0.0
H3346 H 0.11487 0.48308 0.96611 0.0
H3347 H 0.15124 0.4532 0.96819 0.0
C3348 C 0.98229 0.99655 0.15988 0.0
C3349 C 0.98329 0.97534 0.15238 0.0
C3350 C 0.9866 0.9925 0.17123 0.0
C3351 C 1.00029 0.9395 0.19252 0.0
H3352 H 0.93587 0.96818 0.20516 0.0
C3353 C 0.91859 0.87758 0.2015 0.0
C3354 C 0.89648 0.88508 0.20783 0.0
C3355 C 0.94173 0.89227 0.20188 0.0
C3356 C 0.9546 0.96051 0.20218 0.0
H3357 H 0.98972 0.93317 0.15075 0.0
H3358 H 0.99573 0.92548 0.17072 0.0
H3359 H 0.95643 0.99064 0.18981 0.0
H3360 H 0.88208 0.91261 0.22031 0.0
H3361 H 0.92246 0.93946 0.22051 0.0
H3362 H 0.99651 0.9078 0.2043 0.0
C3363 C 0.99294 0.94565 0.16782 0.0
C3364 C 0.96647 0.97343 0.19321 0.0
C3365 C 0.98911 0.9499 0.1564 0.0
C3366 C 0.89859 0.90681 0.21509 0.0
C3367 C 0.92183 0.92184 0.21538 0.0
C3368 C 0.98849 0.9267 0.20159 0.0
C3369 C 0.99095 0.96686 0.17542 0.0
C3370 C 0.98759 0.96132 0.18751 0.0
C3371 C 0.94329 0.9153 0.20842 0.0
C3372 C 0.96357 0.93524 0.2054 0.0
H3373 H 0.97715 1.01618 0.15719 0.0
H3374 H 0.98511 1.0093 0.1768 0.0
H3375 H 1.0173 0.93035 0.18861 0.0
H3376 H 0.91766 0.86117 0.19571 0.0
H3377 H 0.95746 0.88682 0.19619 0.0
C3378 C 0.54975 0.69203 0.42243 0.0
C3379 C 0.56293 0.68298 0.43204 0.0
C3380 C 0.53331 0.71417 0.42296 0.0
C3381 C 0.48469 0.73435 0.4409 0.0
H3382 H 0.47057 0.78077 0.41577 0.0
C3383 C 0.4039 0.76267 0.40527 0.0
C3384 C 0.39974 0.73609 0.40244 0.0
C3385 C 0.41818 0.76934 0.41481 0.0
C3386 C 0.47396 0.76875 0.42315 0.0
H3387 H 0.57216 0.6925 0.44932 0.0
H3388 H 0.54147 0.72991 0.4504 0.0
H3389 H 0.51589 0.77114 0.42097 0.0
H3390 H 0.40453 0.69552 0.40804 0.0
H3391 H 0.43022 0.7068 0.42448 0.0
H3392 H 0.44276 0.72917 0.44214 0.0
C3393 C 0.54423 0.71994 0.44249 0.0
C3394 C 0.50008 0.76327 0.42611 0.0
C3395 C 0.56134 0.69821 0.44188 0.0
C3396 C 0.40761 0.71626 0.40998 0.0
C3397 C 0.42205 0.72282 0.4195 0.0
C3398 C 0.45851 0.73968 0.43789 0.0
C3399 C 0.52934 0.7274 0.43313 0.0
C3400 C 0.50549 0.74401 0.43426 0.0
C3401 C 0.42907 0.74937 0.42158 0.0
C3402 C 0.4531 0.75478 0.42827 0.0
H3403 H 0.5504 0.68094 0.41472 0.0
H3404 H 0.52172 0.71932 0.41565 0.0
H3405 H 0.48842 0.7196 0.44731 0.0
H3406 H 0.39892 0.77826 0.3996 0.0
H3407 H 0.42315 0.78995 0.4162 0.0
C3408 C 0.45472 0.27864 0.20259 0.0
C3409 C 0.4521 0.29541 0.19322 0.0
C3410 C 0.47687 0.26227 0.20376 0.0
C3411 C 0.53109 0.23545 0.18511 0.0
H3412 H 0.48431 0.175 0.1874 0.0
C3413 C 0.4864 0.18862 0.14862 0.0
C3414 C 0.47982 0.16176 0.1481 0.0
C3415 C 0.49972 0.19852 0.15787 0.0
C3416 C 0.49833 0.19118 0.18688 0.0
H3417 H 0.47333 0.3123 0.17918 0.0
H3418 H 0.51032 0.28239 0.18051 0.0
H3419 H 0.48015 0.21041 0.20053 0.0
H3420 H 0.48114 0.12408 0.15679 0.0
H3421 H 0.50346 0.14176 0.1734 0.0
H3422 H 0.54663 0.21714 0.17039 0.0
C3423 C 0.49568 0.28152 0.18708 0.0
C3424 C 0.496 0.21185 0.1945 0.0
C3425 C 0.47395 0.29845 0.18611 0.0
C3426 C 0.4864 0.14485 0.15701 0.0
C3427 C 0.49932 0.15487 0.16642 0.0
C3428 C 0.5331 0.21494 0.17734 0.0
C3429 C 0.49606 0.2613 0.19526 0.0
C3430 C 0.50984 0.23578 0.19271 0.0
C3431 C 0.50609 0.18185 0.16693 0.0
C3432 C 0.5146 0.19419 0.1775 0.0
H3433 H 0.4387 0.27611 0.20849 0.0
H3434 H 0.47722 0.24814 0.21058 0.0
H3435 H 0.54348 0.25275 0.18399 0.0
H3436 H 0.48137 0.20197 0.14182 0.0
H3437 H 0.50382 0.21958 0.15816 0.0
C3438 C 0.63495 0.64736 0.96225 0.0
C3439 C 0.63895 0.62274 0.9569 0.0
C3440 C 0.6558 0.66511 0.96363 0.0
C3441 C 0.72498 0.67688 0.9528 0.0
H3442 H 0.68677 0.73189 0.93686 0.0
C3443 C 0.73683 0.69228 0.90782 0.0
C3444 C 0.7288 0.71543 0.90226 0.0
C3445 C 0.73774 0.69137 0.91941 0.0
C3446 C 0.69831 0.71746 0.9415 0.0
H3447 H 0.66976 0.59551 0.95147 0.0
H3448 H 0.70509 0.62734 0.95256 0.0
H3449 H 0.66515 0.70825 0.95156 0.0
H3450 H 0.71526 0.7557 0.90434 0.0
H3451 H 0.71686 0.75439 0.92479 0.0
H3452 H 0.75736 0.68487 0.94178 0.0
C3453 C 0.6859 0.63311 0.95575 0.0
C3454 C 0.68576 0.70362 0.95006 0.0
C3455 C 0.66524 0.6149 0.9548 0.0
C3456 C 0.7224 0.738 0.90847 0.0
C3457 C 0.72313 0.7371 0.92015 0.0
C3458 C 0.73758 0.69082 0.94421 0.0
C3459 C 0.68083 0.65933 0.95918 0.0
C3460 C 0.69796 0.68124 0.95496 0.0
C3461 C 0.73001 0.71345 0.92576 0.0
C3462 C 0.72327 0.70924 0.93771 0.0
H3463 H 0.6155 0.65457 0.96442 0.0
H3464 H 0.65146 0.68462 0.96691 0.0
H3465 H 0.73545 0.66066 0.9568 0.0
H3466 H 0.74185 0.67454 0.9032 0.0
H3467 H 0.74256 0.67259 0.92333 0.0
C3468 C 0.23279 0.90469 0.71361 0.0
C3469 C 0.23348 0.88292 0.7063 0.0
C3470 C 0.21091 0.92185 0.71366 0.0
C3471 C 0.1433 0.92979 0.70134 0.0
H3472 H 0.17333 0.99393 0.68891 0.0
C3473 C 0.14335 0.95413 0.65687 0.0
C3474 C 0.14436 0.98017 0.65285 0.0
C3475 C 0.13927 0.94925 0.66821 0.0
C3476 C 0.16401 0.97672 0.69264 0.0
H3477 H 0.21164 0.86201 0.69345 0.0
H3478 H 0.17402 0.8911 0.69366 0.0
H3479 H 0.19735 0.96987 0.70318 0.0
H3480 H 0.14069 1.02154 0.65754 0.0
H3481 H 0.13457 1.01308 0.67728 0.0
H3482 H 0.112 0.93455 0.68945 0.0
C3483 C 0.18978 0.89482 0.69958 0.0
C3484 C 0.17782 0.96291 0.7009 0.0
C3485 C 0.2116 0.87817 0.69938 0.0
C3486 C 0.1399 1.00125 0.66026 0.0
C3487 C 0.13616 0.99644 0.67162 0.0
C3488 C 0.12971 0.94334 0.69292 0.0
C3489 C 0.1893 0.91717 0.70654 0.0
C3490 C 0.16907 0.93772 0.70426 0.0
C3491 C 0.13672 0.97044 0.67575 0.0
C3492 C 0.14152 0.96529 0.68772 0.0
H3493 H 0.24921 0.90862 0.71917 0.0
H3494 H 0.21121 0.93916 0.71898 0.0
H3495 H 0.13573 0.9108 0.70412 0.0
H3496 H 0.14681 0.93758 0.65131 0.0
H3497 H 0.14039 0.92896 0.67118 0.0
C3498 C 0.98702 0.49019 0.46562 0.0
C3499 C 0.98344 0.51409 0.45957 0.0
C3500 C 0.96638 0.47209 0.46673 0.0
C3501 C 0.90002 0.45722 0.45371 0.0
H3502 H 0.94237 0.40113 0.44073 0.0
C3503 C 0.88934 0.42683 0.40925 0.0
C3504 C 0.89769 0.40197 0.40537 0.0
C3505 C 0.8899 0.43261 0.4206 0.0
C3506 C 0.92975 0.41595 0.44452 0.0
H3507 H 0.95286 0.54017 0.45288 0.0
H3508 H 0.91829 0.50754 0.45345 0.0
H3509 H 0.96093 0.42799 0.45513 0.0
H3510 H 0.91257 0.36347 0.41036 0.0
H3511 H 0.91346 0.3734 0.4303 0.0
H3512 H 0.86965 0.44613 0.44217 0.0
C3513 C 0.93701 0.50253 0.45732 0.0
C3514 C 0.94047 0.4316 0.45292 0.0
C3515 C 0.95735 0.52118 0.45666 0.0
C3516 C 0.90589 0.3827 0.41312 0.0
C3517 C 0.9064 0.38843 0.42453 0.0
C3518 C 0.88928 0.4415 0.44526 0.0
C3519 C 0.94216 0.47675 0.46133 0.0
C3520 C 0.92666 0.45401 0.45686 0.0
C3521 C 0.89892 0.41369 0.42838 0.0
C3522 C 0.90499 0.42228 0.43993 0.0
H3523 H 1.00613 0.48363 0.46856 0.0
H3524 H 0.97056 0.45303 0.47054 0.0
H3525 H 0.88836 0.47354 0.45691 0.0
H3526 H 0.88249 0.44204 0.40353 0.0
H3527 H 0.88454 0.45246 0.42317 0.0
C3528 C 0.44063 0.98473 0.44758 0.0
C3529 C 0.46642 0.97677 0.45043 0.0
C3530 C 0.43246 0.98521 0.43651 0.0
C3531 C 0.44349 0.95005 0.41091 0.0
H3532 H 0.38512 0.99553 0.40196 0.0
C3533 C 0.36451 0.90445 0.38567 0.0
C3534 C 0.34246 0.90365 0.39283 0.0
C3535 C 0.38337 0.92443 0.38678 0.0
C3536 C 0.40179 0.98298 0.40413 0.0
H3537 H 0.50394 0.96325 0.44383 0.0
H3538 H 0.4895 0.96372 0.42429 0.0
H3539 H 0.41584 1.01031 0.41638 0.0
H3540 H 0.32052 0.92518 0.40539 0.0
H3541 H 0.35325 0.96 0.40736 0.0
H3542 H 0.42841 0.92187 0.39936 0.0
C3543 C 0.47575 0.9699 0.43071 0.0
C3544 C 0.41931 0.99135 0.41242 0.0
C3545 C 0.48402 0.96958 0.44188 0.0
C3546 C 0.33743 0.92526 0.39983 0.0
C3547 C 0.35624 0.9453 0.40092 0.0
C3548 C 0.42615 0.9418 0.40256 0.0
C3549 C 0.44976 0.97758 0.42793 0.0
C3550 C 0.4389 0.97397 0.41653 0.0
C3551 C 0.38035 0.94387 0.39505 0.0
C3552 C 0.40388 0.95728 0.39976 0.0
H3553 H 0.42655 0.99066 0.45389 0.0
H3554 H 0.41209 0.99054 0.43477 0.0
H3555 H 0.45845 0.93624 0.41381 0.0
H3556 H 0.36846 0.88823 0.38 0.0
H3557 H 0.40153 0.92312 0.38201 0.0
C3558 C 0.92944 0.74559 0.20437 0.0
C3559 C 0.90273 0.73861 0.20495 0.0
C3560 C 0.93993 0.7557 0.19451 0.0
C3561 C 0.93359 0.74046 0.16615 0.0
H3562 H 0.99851 0.78115 0.16598 0.0
C3563 C 1.02055 0.68776 0.15133 0.0
C3564 C 1.03798 0.68638 0.16049 0.0
C3565 C 1.00369 0.70953 0.14998 0.0
C3566 C 0.98025 0.76997 0.16568 0.0
H3567 H 0.86556 0.7372 0.196 0.0
H3568 H 0.8843 0.75382 0.17837 0.0
H3569 H 0.96264 0.79363 0.17851 0.0
H3570 H 1.05467 0.70878 0.17418 0.0
H3571 H 1.02436 0.74558 0.17238 0.0
H3572 H 0.95199 0.71471 0.15455 0.0
C3573 C 0.8969 0.75232 0.18566 0.0
C3574 C 0.95962 0.77727 0.17282 0.0
C3575 C 0.88627 0.74262 0.19567 0.0
C3576 C 1.04063 0.7087 0.16734 0.0
C3577 C 1.02351 0.73022 0.16611 0.0
C3578 C 0.95427 0.733 0.15913 0.0
C3579 C 0.92403 0.7583 0.18491 0.0
C3580 C 0.93742 0.76074 0.17396 0.0
C3581 C 1.00342 0.72995 0.15794 0.0
C3582 C 0.97895 0.74585 0.15985 0.0
H3583 H 0.94243 0.74241 0.21145 0.0
H3584 H 0.96102 0.75942 0.19418 0.0
H3585 H 0.91647 0.72763 0.16666 0.0
H3586 H 1.01822 0.67114 0.14573 0.0
H3587 H 0.98911 0.70906 0.14335 0.0
C3588 C 0.20022 0.27076 0.90115 0.0
C3589 C 0.19811 0.28879 0.91007 0.0
C3590 C 0.18101 0.25136 0.89954 0.0
C3591 C 0.12029 0.22247 0.91268 0.0
H3592 H 0.16857 0.16407 0.91814 0.0
C3593 C 0.12595 0.17279 0.9534 0.0
C3594 C 0.13805 0.14812 0.95494 0.0
C3595 C 0.12104 0.18235 0.94269 0.0
C3596 C 0.15425 0.17951 0.91635 0.0
H3597 H 0.17218 0.30314 0.92313 0.0
H3598 H 0.1395 0.2685 0.92078 0.0
H3599 H 0.18226 0.20022 0.90639 0.0
H3600 H 0.15368 0.11336 0.94672 0.0
H3601 H 0.1449 0.12994 0.92781 0.0
H3602 H 0.09354 0.20286 0.92365 0.0
C3603 C 0.15578 0.26938 0.91492 0.0
C3604 C 0.16216 0.20048 0.90953 0.0
C3605 C 0.17485 0.28897 0.91646 0.0
C3606 C 0.14406 0.13239 0.94567 0.0
C3607 C 0.13905 0.14191 0.93488 0.0
C3608 C 0.11238 0.20143 0.91948 0.0
C3609 C 0.15963 0.24926 0.90695 0.0
C3610 C 0.14633 0.22339 0.90863 0.0
C3611 C 0.12841 0.16747 0.93327 0.0
C3612 C 0.1304 0.18119 0.92231 0.0
H3613 H 0.21775 0.27001 0.89597 0.0
H3614 H 0.18428 0.23642 0.89322 0.0
H3615 H 0.10731 0.23947 0.91181 0.0
H3616 H 0.1216 0.1854 0.96046 0.0
H3617 H 0.11335 0.20231 0.94186 0.0
C3618 C 0.66794 0.50554 0.64656 0.0
C3619 C 0.64327 0.50035 0.64167 0.0
C3620 C 0.68641 0.48518 0.64789 0.0
C3621 C 0.72162 0.43744 0.65159 0.0
H3622 H 0.67694 0.39432 0.67062 0.0
C3623 C 0.74419 0.42333 0.69658 0.0
C3624 C 0.73314 0.40288 0.70296 0.0
C3625 C 0.7409 0.42389 0.68505 0.0
C3626 C 0.6901 0.40522 0.66516 0.0
H3627 H 0.62033 0.47101 0.63268 0.0
H3628 H 0.65226 0.43521 0.63537 0.0
H3629 H 0.65765 0.41776 0.65508 0.0
H3630 H 0.70889 0.36784 0.70262 0.0
H3631 H 0.70274 0.36861 0.68233 0.0
H3632 H 0.75385 0.42602 0.66215 0.0
C3633 C 0.65723 0.45493 0.63823 0.0
C3634 C 0.67891 0.41878 0.65616 0.0
C3635 C 0.63886 0.47537 0.63682 0.0
C3636 C 0.71868 0.38295 0.6977 0.0
C3637 C 0.715 0.38363 0.68612 0.0
C3638 C 0.73295 0.42343 0.66048 0.0
C3639 C 0.6804 0.45926 0.64442 0.0
C3640 C 0.69413 0.43681 0.64993 0.0
C3641 C 0.72565 0.40443 0.67967 0.0
C3642 C 0.7168 0.40923 0.66798 0.0
H3643 H 0.67202 0.52457 0.65034 0.0
H3644 H 0.70403 0.48914 0.65275 0.0
H3645 H 0.73388 0.4508 0.64674 0.0
H3646 H 0.75438 0.43963 0.70055 0.0
H3647 H 0.74859 0.44085 0.68055 0.0
C3648 C 0.17279 0.29447 0.37743 0.0
C3649 C 0.17954 0.26952 0.37274 0.0
C3650 C 0.14611 0.30441 0.37759 0.0
C3651 C 0.07264 0.28332 0.37402 0.0
H3652 H 1.05851 0.35867 0.37269 0.0
C3653 C 0.96207 0.32686 0.37894 0.0
C3654 C 0.95446 0.35066 0.37339 0.0
C3655 C 0.98881 0.31713 0.37894 0.0
C3656 C 1.06163 0.33746 0.37303 0.0
H3657 H 0.16123 0.23588 0.36463 0.0
H3658 H 0.11585 0.25269 0.36496 0.0
H3659 H 0.10417 0.34238 0.37254 0.0
H3660 H 0.97154 0.38269 0.36369 0.0
H3661 H 1.0171 0.36627 0.36376 0.0
H3662 H 1.03012 0.27839 0.37459 0.0
C3663 C 0.13115 0.26491 0.36859 0.0
C3664 C 0.08843 0.32792 0.37304 0.0
C3665 C 0.15779 0.25515 0.36831 0.0
C3666 C 0.97558 0.36426 0.36802 0.0
C3667 C 1.00233 0.35473 0.36814 0.0
C3668 C 1.04586 0.29287 0.37419 0.0
C3669 C 0.12427 0.28991 0.37322 0.0
C3670 C 0.09493 0.30048 0.37346 0.0
C3671 C 1.00996 0.33075 0.37357 0.0
C3672 C 1.03934 0.32029 0.37361 0.0
H3673 H 0.18823 0.30654 0.38106 0.0
H3674 H 0.14262 0.32353 0.38139 0.0
H3675 H 0.07575 0.26211 0.37449 0.0
H3676 H 0.94734 0.31565 0.38346 0.0
H3677 H 0.99291 0.29892 0.38343 0.0
C3678 C 1.04392 0.71125 0.63012 0.0
C3679 C 1.02088 0.70375 0.62411 0.0
C3680 C 1.05384 0.73791 0.63018 0.0
C3681 C 1.03518 0.81097 0.62306 0.0
H3682 H 0.10992 0.82424 0.62713 0.0
C3683 C 0.07758 0.922 0.628 0.0
C3684 C 0.10364 0.92839 0.62445 0.0
C3685 C 0.06753 0.89537 0.62793 0.0
C3686 C 0.08891 0.82138 0.62591 0.0
H3687 H 0.99035 0.72101 0.61365 0.0
H3688 H 1.00712 0.76641 0.61374 0.0
H3689 H 0.09331 0.77877 0.62702 0.0
H3690 H 0.13917 0.90944 0.61822 0.0
H3691 H 0.12213 0.86413 0.61812 0.0
H3692 H 1.03079 0.85359 0.62196 0.0
C3693 C 1.01793 0.75163 0.61848 0.0
C3694 C 0.07912 0.79468 0.62596 0.0
C3695 C 1.0082 0.72494 0.61833 0.0
C3696 C 0.119 0.9063 0.62093 0.0
C3697 C 0.10908 0.8797 0.62099 0.0
C3698 C 1.04493 0.83769 0.62315 0.0
C3699 C 1.04119 0.75913 0.62437 0.0
C3700 C 1.0519 0.78844 0.62447 0.0
C3701 C 0.08297 0.87319 0.62448 0.0
C3702 C 0.07218 0.84391 0.62452 0.0
H3703 H 1.05438 0.69649 0.63498 0.0
H3704 H 0.0714 0.74189 0.63506 0.0
H3705 H 1.01412 0.80813 0.62199 0.0
H3706 H 0.06469 0.93772 0.63088 0.0
H3707 H 1.04751 0.89223 0.63084 0.0
C3708 C 0.45038 0.82221 0.87723 0.0
C3709 C 0.44365 0.84771 0.87299 0.0
C3710 C 0.47699 0.81211 0.87713 0.0
C3711 C 0.55051 0.83312 0.87368 0.0
H3712 H 0.56411 0.75776 0.87177 0.0
C3713 C 0.6606 0.78887 0.87868 0.0
C3714 C 0.66828 0.76512 0.8732 0.0
C3715 C 0.63393 0.79869 0.87854 0.0
C3716 C 0.56114 0.77897 0.87226 0.0
H3717 H 0.46197 0.88215 0.86539 0.0
H3718 H 0.50728 0.86504 0.86528 0.0
H3719 H 0.51858 0.7744 0.87169 0.0
H3720 H 0.6515 0.73339 0.86335 0.0
H3721 H 0.60588 0.75 0.86319 0.0
H3722 H 0.59303 0.83772 0.87429 0.0
C3723 C 0.49199 0.8525 0.86874 0.0
C3724 C 0.53442 0.78871 0.87233 0.0
C3725 C 0.46539 0.86245 0.86872 0.0
C3726 C 0.64733 0.75173 0.86767 0.0
C3727 C 0.62057 0.76137 0.86766 0.0
C3728 C 0.57721 0.82336 0.87378 0.0
C3729 C 0.49882 0.82695 0.87294 0.0
C3730 C 0.5281 0.81617 0.87299 0.0
C3731 C 0.61287 0.78527 0.87306 0.0
C3732 C 0.58355 0.79592 0.87303 0.0
H3733 H 0.43502 0.80988 0.88079 0.0
H3734 H 0.48043 0.79258 0.88061 0.0
H3735 H 0.54756 0.85431 0.87433 0.0
H3736 H 0.6753 0.80008 0.88322 0.0
H3737 H 0.62981 0.81684 0.883 0.0
C3738 C 0.50341 0.2266 0.11557 0.0
C3739 C 0.51642 0.2054 0.12121 0.0
C3740 C 0.51331 0.25321 0.11553 0.0
C3741 C 0.57534 0.29593 0.12166 0.0
H3742 H 0.52669 0.35508 0.11932 0.0
C3743 C 0.61455 0.40751 0.11575 0.0
C3744 C 0.60011 0.42952 0.11997 0.0
C3745 C 0.60454 0.38095 0.11598 0.0
C3746 C 0.54092 0.3391 0.12003 0.0
H3747 H 0.55091 0.19786 0.1315 0.0
H3748 H 0.56825 0.24323 0.13121 0.0
H3749 H 0.50989 0.30963 0.11963 0.0
H3750 H 0.56278 0.43862 0.12799 0.0
H3751 H 0.54532 0.39328 0.12815 0.0
H3752 H 0.60637 0.32539 0.12202 0.0
C3753 C 0.55019 0.23932 0.12665 0.0
C3754 C 0.53108 0.31242 0.1201 0.0
C3755 C 0.54008 0.21272 0.12682 0.0
C3756 C 0.57485 0.42307 0.12442 0.0
C3757 C 0.56466 0.3965 0.12452 0.0
C3758 C 0.5852 0.32259 0.12142 0.0
C3759 C 0.53711 0.26058 0.12104 0.0
C3760 C 0.54792 0.28983 0.12095 0.0
C3761 C 0.57921 0.37442 0.12037 0.0
C3762 C 0.56836 0.34519 0.12062 0.0
H3763 H 0.48511 0.22276 0.11117 0.0
H3764 H 0.50219 0.26807 0.11096 0.0
H3765 H 0.58959 0.27994 0.12224 0.0
H3766 H 0.63408 0.41067 0.11229 0.0
H3767 H 0.61685 0.36543 0.11254 0.0
C3768 C 0.96803 0.75963 0.23714 0.0
C3769 C 0.94607 0.77424 0.23292 0.0
C3770 C 0.99448 0.76994 0.23726 0.0
C3771 C 1.03588 0.83454 0.23411 0.0
H3772 H 0.09555 0.78653 0.23232 0.0
C3773 C 0.14796 0.87348 0.23935 0.0
C3774 C 0.16942 0.86046 0.23398 0.0
C3775 C 0.12141 0.86335 0.23922 0.0
C3776 C 0.07942 0.80063 0.23279 0.0
H3777 H 0.93687 0.8123 0.22541 0.0
H3778 H 0.98199 0.83015 0.22577 0.0
H3779 H 1.05041 0.76921 0.23205 0.0
H3780 H 0.17747 0.82571 0.22395 0.0
H3781 H 0.13237 0.80807 0.22394 0.0
H3782 H 0.06493 0.86596 0.23487 0.0
C3783 C 0.97889 0.81043 0.22911 0.0
C3784 C 1.0529 0.79043 0.23274 0.0
C3785 C 0.95245 0.79998 0.22887 0.0
C3786 C 0.16242 0.83658 0.22846 0.0
C3787 C 0.13594 0.82627 0.22844 0.0
C3788 C 0.06242 0.84471 0.23431 0.0
C3789 C 1.00096 0.79575 0.23325 0.0
C3790 C 1.03009 0.80699 0.23336 0.0
C3791 C 0.11438 0.83931 0.23377 0.0
C3792 C 0.08523 0.82816 0.23363 0.0
H3793 H 0.96491 0.73975 0.24031 0.0
H3794 H 1.00995 0.75745 0.24067 0.0
H3795 H 1.01976 0.84861 0.2347 0.0
H3796 H 0.15156 0.89195 0.24367 0.0
H3797 H 0.10633 0.8745 0.24357 0.0
C3798 C 0.54677 0.91122 0.47557 0.0
C3799 C 0.5231 0.91859 0.48119 0.0
C3800 C 0.55683 0.88456 0.47559 0.0
C3801 C 0.53755 0.81135 0.48123 0.0
H3802 H 0.613 0.79809 0.48072 0.0
C3803 C 0.58214 0.701 0.47623 0.0
C3804 C 0.60626 0.69383 0.48159 0.0
C3805 C 0.57208 0.72766 0.47617 0.0
C3806 C 0.59178 0.80099 0.4809 0.0
H3807 H 0.49151 0.90098 0.49092 0.0
H3808 H 0.5084 0.85551 0.49083 0.0
H3809 H 0.59617 0.84369 0.48059 0.0
H3810 H 0.63843 0.71152 0.4909 0.0
H3811 H 0.62152 0.75707 0.49063 0.0
H3812 H 0.53315 0.76865 0.4814 0.0
C3813 C 0.51968 0.87049 0.48644 0.0
C3814 C 0.58192 0.82771 0.48073 0.0
C3815 C 0.50987 0.8972 0.48657 0.0
C3816 C 0.61979 0.71526 0.48671 0.0
C3817 C 0.60998 0.74197 0.48648 0.0
C3818 C 0.5474 0.78463 0.48118 0.0
C3819 C 0.54362 0.86319 0.48101 0.0
C3820 C 0.55444 0.8339 0.48097 0.0
C3821 C 0.5857 0.74916 0.48125 0.0
C3822 C 0.57488 0.77845 0.4811 0.0
H3823 H 0.55763 0.92603 0.47095 0.0
H3824 H 0.57496 0.88065 0.47108 0.0
H3825 H 0.51633 0.81425 0.48133 0.0
H3826 H 0.5708 0.68589 0.472 0.0
H3827 H 0.55359 0.73143 0.47189 0.0
C3828 C 0.65585 0.36826 0.73651 0.0
C3829 C 0.67733 0.35412 0.73169 0.0
C3830 C 0.62919 0.35858 0.73635 0.0
C3831 C 0.58657 0.29584 0.7315 0.0
H3832 H 0.52784 0.34522 0.73088 0.0
C3833 C 0.47425 0.25883 0.73683 0.0
C3834 C 0.45288 0.27258 0.73167 0.0
C3835 C 0.50092 0.26848 0.73667 0.0
C3836 C 0.54371 0.33079 0.73102 0.0
H3837 H 0.68556 0.31764 0.72287 0.0
H3838 H 0.64004 0.30084 0.72273 0.0
H3839 H 0.57337 0.36167 0.73089 0.0
H3840 H 0.44519 0.30801 0.7219 0.0
H3841 H 0.49061 0.32493 0.72189 0.0
H3842 H 0.55692 0.26497 0.73169 0.0
C3843 C 0.64369 0.31968 0.72673 0.0
C3844 C 0.57041 0.34043 0.73113 0.0
C3845 C 0.67033 0.32953 0.72676 0.0
C3846 C 0.46013 0.29665 0.72627 0.0
C3847 C 0.48677 0.3065 0.72624 0.0
C3848 C 0.55987 0.2862 0.73158 0.0
C3849 C 0.62211 0.33391 0.73147 0.0
C3850 C 0.59284 0.32332 0.73136 0.0
C3851 C 0.50817 0.29273 0.73141 0.0
C3852 C 0.53744 0.30332 0.73132 0.0
H3853 H 0.65952 0.38725 0.74039 0.0
H3854 H 0.61405 0.37058 0.74025 0.0
H3855 H 0.60244 0.28141 0.73175 0.0
H3856 H 0.47049 0.24019 0.74103 0.0
H3857 H 0.5159 0.2568 0.74089 0.0
C3858 C 0.11399 0.21901 0.9865 0.0
C3859 C 0.09883 0.19713 0.98268 0.0
C3860 C 0.10433 0.24575 0.98624 0.0
C3861 C 1.04083 0.28862 0.98273 0.0
H3862 H 0.09015 0.34693 0.98023 0.0
C3863 C 1.00476 0.40166 0.9874 0.0
C3864 C 1.01795 0.4228 0.98183 0.0
C3865 C 1.01433 0.37489 0.98734 0.0
C3866 C 0.07572 0.33119 0.98089 0.0
H3867 H 1.06046 0.18831 0.9756 0.0
H3868 H 1.04376 0.23404 0.97523 0.0
H3869 H 0.10636 0.30123 0.98035 0.0
H3870 H 1.05238 0.42991 0.97148 0.0
H3871 H 0.06917 0.38426 0.9716 0.0
H3872 H 1.01019 0.3186 0.98328 0.0
C3873 C 0.06343 0.23063 0.97851 0.0
C3874 C 0.08525 0.30436 0.98108 0.0
C3875 C 0.07322 0.20387 0.97866 0.0
C3876 C 1.04143 0.41517 0.97614 0.0
C3877 C 1.05122 0.38839 0.9762 0.0
C3878 C 1.03133 0.31546 0.9827 0.0
C3879 C 0.07868 0.25261 0.98224 0.0
C3880 C 0.06817 0.28204 0.982 0.0
C3881 C 1.03796 0.36722 0.98177 0.0
C3882 C 1.04841 0.33778 0.98177 0.0
H3883 H 0.13381 0.2156 0.98963 0.0
H3884 H 0.1172 0.26114 0.98937 0.0
H3885 H 1.0264 0.2729 0.98353 0.0
H3886 H 0.98657 0.40569 0.99186 0.0
H3887 H 1.00308 0.36016 0.99188 0.0
C3888 C 0.1678 0.79128 0.72842 0.0
C3889 C 0.17499 0.76696 0.73367 0.0
C3890 C 0.14121 0.80141 0.72847 0.0
C3891 C 0.06793 0.78175 0.73377 0.0
H3892 H 1.05483 0.85733 0.7329 0.0
C3893 C 0.95761 0.82609 0.72849 0.0
C3894 C 0.95062 0.85094 0.73322 0.0
C3895 C 0.98421 0.81594 0.72864 0.0
C3896 C 1.05765 0.83607 0.73319 0.0
H3897 H 0.15736 0.73452 0.74294 0.0
H3898 H 0.11196 0.75165 0.74294 0.0
H3899 H 0.10025 0.84043 0.73303 0.0
H3900 H 0.96854 0.88421 0.74173 0.0
H3901 H 1.01391 0.86708 0.74187 0.0
H3902 H 1.02532 0.77738 0.73387 0.0
C3903 C 0.12697 0.76328 0.73876 0.0
C3904 C 0.08431 0.82615 0.73316 0.0
C3905 C 0.15361 0.75333 0.73884 0.0
C3906 C 0.97215 0.86503 0.738 0.0
C3907 C 0.99878 0.85507 0.73801 0.0
C3908 C 1.04126 0.79166 0.73363 0.0
C3909 C 0.11975 0.78772 0.73359 0.0
C3910 C 0.09048 0.79861 0.73351 0.0
C3911 C 1.00583 0.83011 0.73335 0.0
C3912 C 1.03509 0.8192 0.73339 0.0
H3913 H 0.18277 0.80262 0.72409 0.0
H3914 H 0.13746 0.81998 0.7242 0.0
H3915 H 0.07075 0.76048 0.73394 0.0
H3916 H 0.94242 0.81424 0.72457 0.0
H3917 H 0.98781 0.7969 0.72479 0.0
C3918 C 1.00325 0.22505 0.48804 0.0
C3919 C 1.01814 0.2029 0.48425 0.0
C3920 C 1.01345 0.25158 0.48798 0.0
C3921 C 0.07798 0.29302 0.48511 0.0
H3922 H 1.03005 0.35257 0.48215 0.0
C3923 C 0.11643 0.40548 0.48958 0.0
C3924 C 0.10362 0.42675 0.48391 0.0
C3925 C 0.10637 0.37888 0.48958 0.0
C3926 C 1.04412 0.33648 0.48295 0.0
H3927 H 1.05655 0.19342 0.47728 0.0
H3928 H 0.07419 0.23868 0.47734 0.0
H3929 H 1.01286 0.30731 0.48217 0.0
H3930 H 0.06931 0.4344 0.47351 0.0
H3931 H 1.05181 0.38916 0.47371 0.0
H3932 H 0.10924 0.3222 0.4859 0.0
C3933 C 1.05436 0.23568 0.48048 0.0
C3934 C 1.034 0.30989 0.48307 0.0
C3935 C 1.04402 0.20916 0.48042 0.0
C3936 C 0.08003 0.41949 0.47822 0.0
C3937 C 0.06979 0.39295 0.47833 0.0
C3938 C 0.08807 0.31962 0.48514 0.0
C3939 C 1.03941 0.25793 0.48421 0.0
C3940 C 1.05054 0.28712 0.48413 0.0
C3941 C 0.08262 0.37159 0.48399 0.0
C3942 C 0.07154 0.34238 0.48403 0.0
H3943 H 0.98321 0.22203 0.49096 0.0
H3944 H 1.00075 0.26721 0.49106 0.0
H3945 H 0.09202 0.27693 0.48604 0.0
H3946 H 0.13466 0.40926 0.49404 0.0
H3947 H 0.11734 0.36397 0.49418 0.0
C3948 C 0.65847 0.25701 0.23715 0.0
C3949 C 0.6798 0.27018 0.23174 0.0
C3950 C 0.63179 0.26675 0.2369 0.0
C3951 C 0.58862 0.32866 0.23038 0.0
H3952 H 0.53008 0.27946 0.23212 0.0
C3953 C 0.47634 0.3669 0.2356 0.0
C3954 C 0.45469 0.35227 0.23121 0.0
C3955 C 0.50305 0.35718 0.23547 0.0
C3956 C 0.54587 0.29385 0.23159 0.0
H3957 H 0.6873 0.30473 0.2214 0.0
H3958 H 0.64185 0.32185 0.22124 0.0
H3959 H 0.57565 0.26297 0.23218 0.0
H3960 H 0.4463 0.31481 0.22322 0.0
H3961 H 0.49192 0.29793 0.22317 0.0
H3962 H 0.55883 0.35954 0.22984 0.0
C3963 C 0.64576 0.3038 0.22587 0.0
C3964 C 0.57264 0.28419 0.23173 0.0
C3965 C 0.67245 0.29383 0.226 0.0
C3966 C 0.46164 0.32713 0.22676 0.0
C3967 C 0.48834 0.31724 0.22677 0.0
C3968 C 0.56185 0.33834 0.23042 0.0
C3969 C 0.62439 0.29057 0.2313 0.0
C3970 C 0.59504 0.30122 0.23111 0.0
C3971 C 0.51009 0.33196 0.23107 0.0
C3972 C 0.53945 0.32131 0.23101 0.0
H3973 H 0.66228 0.23872 0.24163 0.0
H3974 H 0.61688 0.2555 0.24133 0.0
H3975 H 0.60443 0.34305 0.22994 0.0
H3976 H 0.47274 0.38631 0.23912 0.0
H3977 H 0.51826 0.36962 0.23903 0.0
C3978 C 0.57662 0.92359 0.97636 0.0
C3979 C 0.60062 0.93 0.98193 0.0
C3980 C 0.56607 0.89717 0.97615 0.0
C3981 C 0.5845 0.82336 0.98129 0.0
H3982 H 0.50897 0.81116 0.9802 0.0
C3983 C 0.53974 0.71395 0.97525 0.0
C3984 C 0.51537 0.70666 0.98031 0.0
C3985 C 0.54979 0.74052 0.97548 0.0
C3986 C 0.5302 0.81378 0.98054 0.0
H3987 H 0.63194 0.91125 0.9915 0.0
H3988 H 0.61415 0.86626 0.99107 0.0
H3989 H 0.52621 0.85655 0.98043 0.0
H3990 H 0.4827 0.72406 0.98945 0.0
H3991 H 0.49964 0.7696 0.98967 0.0
H3992 H 0.58853 0.78065 0.98128 0.0
C3993 C 0.60312 0.88169 0.98682 0.0
C3994 C 0.5403 0.84037 0.98058 0.0
C3995 C 0.61345 0.90811 0.98715 0.0
C3996 C 0.50154 0.72792 0.98547 0.0
C3997 C 0.51137 0.7546 0.98553 0.0
C3998 C 0.57442 0.79681 0.98104 0.0
C3999 C 0.57903 0.87521 0.98134 0.0
C4000 C 0.56784 0.84614 0.98104 0.0
C4001 C 0.53593 0.76186 0.98058 0.0
C4002 C 0.5469 0.79102 0.98073 0.0
H4003 H 0.56579 0.93909 0.97206 0.0
H4004 H 0.54775 0.89395 0.97168 0.0
H4005 H 0.60574 0.82591 0.98152 0.0
H4006 H 0.55132 0.69902 0.97099 0.0
H4007 H 0.56849 0.74436 0.97139 0.0
C4008 C 0.15501 0.36728 0.86654 0.0
C4009 C 0.17646 0.35417 0.87195 0.0
C4010 C 0.12849 0.35723 0.86663 0.0
C4011 C 0.0861 0.29475 0.87268 0.0
H4012 H 1.02699 0.34358 0.87108 0.0
C4013 C 0.97422 0.25609 0.86703 0.0
C4014 C 0.95245 0.27031 0.8716 0.0
C4015 C 1.00082 0.26597 0.86719 0.0
C4016 C 1.04296 0.32929 0.87157 0.0
H4017 H 0.18433 0.31936 0.8821 0.0
H4018 H 0.13917 0.3017 0.88198 0.0
H4019 H 0.07236 0.3604 0.87122 0.0
H4020 H 0.94397 0.30702 0.88022 0.0
H4021 H 0.98925 0.32432 0.88021 0.0
H4022 H 1.05666 0.26364 0.87297 0.0
C4023 C 0.14287 0.31996 0.87748 0.0
C4024 C 0.0696 0.33914 0.87155 0.0
C4025 C 0.1694 0.33024 0.87751 0.0
C4026 C 0.95923 0.29519 0.87634 0.0
C4027 C 0.98581 0.30527 0.87635 0.0
C4028 C 1.05945 0.28488 0.87252 0.0
C4029 C 0.12139 0.33316 0.87207 0.0
C4030 C 0.09218 0.32226 0.87212 0.0
C4031 C 1.00764 0.29096 0.87184 0.0
C4032 C 1.03687 0.30178 0.87198 0.0
H4033 H 0.15859 0.38576 0.86218 0.0
H4034 H 0.11348 0.36847 0.86223 0.0
H4035 H 0.10208 0.28047 0.87307 0.0
H4036 H 0.97082 0.23684 0.86333 0.0
H4037 H 1.01614 0.25385 0.86349 0.0
C4038 C 0.50685 0.39867 0.61673 0.0
C4039 C 0.52075 0.42021 0.62159 0.0
C4040 C 0.51682 0.37204 0.61684 0.0
C4041 C 0.57995 0.3297 0.62155 0.0
H4042 H 0.53128 0.27058 0.62235 0.0
C4043 C 0.61777 0.21721 0.61643 0.0
C4044 C 0.60442 0.19593 0.62181 0.0
C4045 C 0.60792 0.2439 0.61648 0.0
C4046 C 0.54552 0.28657 0.62216 0.0
H4047 H 0.557 0.42846 0.63058 0.0
H4048 H 0.57441 0.38303 0.63052 0.0
H4049 H 0.5144 0.31609 0.62234 0.0
H4050 H 0.56939 0.18827 0.63173 0.0
H4051 H 0.55215 0.23371 0.63156 0.0
H4052 H 0.61107 0.30016 0.62131 0.0
C4053 C 0.55556 0.38666 0.6265 0.0
C4054 C 0.53561 0.31325 0.62205 0.0
C4055 C 0.54539 0.41326 0.62654 0.0
C4056 C 0.5805 0.20322 0.62725 0.0
C4057 C 0.57044 0.22984 0.62716 0.0
C4058 C 0.58985 0.30301 0.62148 0.0
C4059 C 0.54157 0.36504 0.6217 0.0
C4060 C 0.55246 0.33581 0.62177 0.0
C4061 C 0.58384 0.2512 0.62181 0.0
C4062 C 0.573 0.28045 0.62182 0.0
H4063 H 0.48779 0.40226 0.61287 0.0
H4064 H 0.50497 0.35686 0.61291 0.0
H4065 H 0.59418 0.34569 0.62125 0.0
H4066 H 0.63628 0.21337 0.61218 0.0
H4067 H 0.61929 0.25888 0.61213 0.0
C4068 C 0.66512 0.83192 0.37715 0.0
C4069 C 0.67223 0.85681 0.37244 0.0
C4070 C 0.63839 0.82225 0.37719 0.0
C4071 C 0.56495 0.84378 0.37283 0.0
H4072 H 0.55096 0.76842 0.37315 0.0
C4073 C 0.45393 0.80128 0.37782 0.0
C4074 C 0.44678 0.77636 0.37323 0.0
C4075 C 0.48065 0.81104 0.37769 0.0
C4076 C 0.55399 0.78964 0.373 0.0
H4077 H 0.65439 0.89072 0.36418 0.0
H4078 H 0.60887 0.87432 0.36424 0.0
H4079 H 0.59652 0.78452 0.37288 0.0
H4080 H 0.4645 0.74259 0.36495 0.0
H4081 H 0.50994 0.75909 0.36476 0.0
H4082 H 0.52241 0.84888 0.37294 0.0
C4083 C 0.62396 0.8619 0.36798 0.0
C4084 C 0.58079 0.7991 0.37296 0.0
C4085 C 0.65071 0.87142 0.36784 0.0
C4086 C 0.46823 0.76184 0.36857 0.0
C4087 C 0.49493 0.77145 0.36855 0.0
C4088 C 0.53815 0.83431 0.373 0.0
C4089 C 0.61675 0.83694 0.37266 0.0
C4090 C 0.58732 0.82654 0.37282 0.0
C4091 C 0.50221 0.79642 0.37309 0.0
C4092 C 0.53163 0.80687 0.37304 0.0
H4093 H 0.68035 0.8197 0.38093 0.0
H4094 H 0.63473 0.80319 0.38105 0.0
H4095 H 0.568 0.86499 0.37284 0.0
H4096 H 0.43878 0.81346 0.38162 0.0
H4097 H 0.48438 0.83013 0.38145 0.0
C4098 C 1.04834 0.91456 0.1275 0.0
C4099 C 1.02244 0.92143 0.12389 0.0
C4100 C 1.05797 0.88772 0.1275 0.0
C4101 C 1.03543 0.81398 0.12489 0.0
H4102 H 0.11036 0.79948 0.1224 0.0
C4103 C 0.07832 0.70238 0.1283 0.0
C4104 C 0.10242 0.69529 0.12296 0.0
C4105 C 0.06858 0.72919 0.12855 0.0
C4106 C 0.08924 0.80264 0.12304 0.0
H4107 H 0.9868 0.90315 0.11747 0.0
H4108 H 1.0031 0.85756 0.11747 0.0
H4109 H 0.09441 0.84517 0.12245 0.0
H4110 H 0.13474 0.71319 0.11377 0.0
H4111 H 0.11821 0.75863 0.11411 0.0
H4112 H 1.03027 0.77143 0.12544 0.0
C4113 C 1.01634 0.87283 0.12042 0.0
C4114 C 0.07989 0.82954 0.12319 0.0
C4115 C 1.00684 0.89962 0.12032 0.0
C4116 C 0.11612 0.71685 0.11795 0.0
C4117 C 0.10652 0.74358 0.11825 0.0
C4118 C 1.0448 0.78708 0.12485 0.0
C4119 C 1.04227 0.86579 0.12401 0.0
C4120 C 1.05261 0.83627 0.12405 0.0
C4121 C 0.0824 0.75085 0.12356 0.0
C4122 C 0.07206 0.78036 0.12384 0.0
H4123 H 1.06144 0.9301 0.13031 0.0
H4124 H 0.07793 0.88423 0.13042 0.0
H4125 H 1.01435 0.81716 0.12573 0.0
H4126 H 0.06679 0.68712 0.1324 0.0
H4127 H 1.05019 0.73289 0.13289 0.0
C4128 C 0.30812 0.26905 0.34277 0.0
C4129 C 0.28153 0.26186 0.34486 0.0
C4130 C 0.31626 0.28039 0.33246 0.0
C4131 C 0.29471 0.29174 0.30208 0.0
H4132 H 0.3539 0.34033 0.30157 0.0
C4133 C 0.32478 0.34874 0.26056 0.0
C4134 C 0.35129 0.35651 0.25866 0.0
C4135 C 0.31644 0.33734 0.27084 0.0
C4136 C 0.33753 0.32656 0.30137 0.0
H4137 H 0.24282 0.26148 0.33715 0.0
H4138 H 0.25677 0.28085 0.31929 0.0
H4139 H 0.33937 0.32102 0.31919 0.0
H4140 H 0.38967 0.3576 0.26664 0.0
H4141 H 0.37546 0.33807 0.28439 0.0
H4142 H 0.2929 0.29724 0.28426 0.0
C4143 C 0.27167 0.27759 0.32564 0.0
C4144 C 0.32903 0.31527 0.31167 0.0
C4145 C 0.26349 0.26637 0.33602 0.0
C4146 C 0.36906 0.35233 0.26762 0.0
C4147 C 0.36071 0.34102 0.27795 0.0
C4148 C 0.30324 0.303 0.29177 0.0
C4149 C 0.29831 0.28506 0.32357 0.0
C4150 C 0.30737 0.29749 0.31235 0.0
C4151 C 0.33412 0.33313 0.27987 0.0
C4152 C 0.32492 0.32077 0.29109 0.0
H4153 H 0.32296 0.26576 0.34914 0.0
H4154 H 0.337 0.28511 0.33145 0.0
H4155 H 0.27832 0.27799 0.3019 0.0
H4156 H 0.31015 0.35166 0.25406 0.0
H4157 H 0.29576 0.33224 0.27171 0.0
C4158 C 1.00187 0.09097 0.51866 0.0
C4159 C 1.01648 0.10806 0.51166 0.0
C4160 C 1.01236 0.08105 0.52886 0.0
C4161 C 0.0772 0.07133 0.54493 0.0
H4162 H 1.03053 1.05683 0.56982 0.0
C4163 C 0.11951 1.04 0.58917 0.0
C4164 C 0.10475 1.02307 0.59619 0.0
C4165 C 0.10901 1.05014 0.57901 0.0
C4166 C 1.04408 1.06032 0.56299 0.0
H4167 H 1.0549 0.1264 0.50987 0.0
H4168 H 0.0731 0.10964 0.5275 0.0
H4169 H 1.01248 0.07426 0.55241 0.0
H4170 H 0.06614 1.00513 0.598 0.0
H4171 H 1.04797 1.02223 0.58045 0.0
H4172 H 0.1088 1.05735 0.55549 0.0
C4173 C 1.05317 0.10395 0.52526 0.0
C4174 C 1.03355 0.0705 0.55283 0.0
C4175 C 1.04257 0.11392 0.51508 0.0
C4176 C 0.07856 1.01754 0.5928 0.0
C4177 C 0.06797 1.02771 0.58266 0.0
C4178 C 0.08773 1.06113 0.55508 0.0
C4179 C 1.03832 0.0873 0.53247 0.0
C4180 C 1.0498 0.07631 0.54351 0.0
C4181 C 0.08294 1.04421 0.57543 0.0
C4182 C 0.07148 1.05531 0.56441 0.0
H4183 H 0.98251 0.08434 0.51605 0.0
H4184 H 1.00018 0.06777 0.53375 0.0
H4185 H 0.09074 0.07484 0.53809 0.0
H4186 H 0.13904 1.04627 0.59172 0.0
H4187 H 0.12131 0.06328 0.5741 0.0
C4188 C 0.31761 0.84586 0.84459 0.0
C4189 C 0.34383 0.85468 0.8464 0.0
C4190 C 0.30926 0.83507 0.83426 0.0
C4191 C 0.32825 0.82842 0.80344 0.0
H4192 H 0.27247 0.7759 0.80322 0.0
C4193 C 0.29805 0.77379 0.76171 0.0
C4194 C 0.27204 0.76419 0.76006 0.0
C4195 C 0.30648 0.78465 0.77202 0.0
C4196 C 0.28783 0.79079 0.80296 0.0
H4197 H 0.38164 0.85867 0.8381 0.0
H4198 H 0.36727 0.84021 0.82016 0.0
H4199 H 0.28767 0.79429 0.82086 0.0
H4200 H 0.23454 0.75949 0.76854 0.0
H4201 H 0.24894 0.77831 0.78639 0.0
H4202 H 0.32838 0.82498 0.78554 0.0
C4203 C 0.35285 0.84173 0.8268 0.0
C4204 C 0.29673 0.80154 0.81326 0.0
C4205 C 0.36128 0.85241 0.83722 0.0
C4206 C 0.25477 0.76621 0.76931 0.0
C4207 C 0.26324 0.77709 0.77969 0.0
C4208 C 0.31932 0.81769 0.79313 0.0
C4209 C 0.32659 0.83259 0.82504 0.0
C4210 C 0.3172 0.82071 0.81382 0.0
C4211 C 0.28938 0.78667 0.78134 0.0
C4212 C 0.29885 0.79853 0.79257 0.0
H4213 H 0.30313 0.84752 0.8512 0.0
H4214 H 0.28879 0.82908 0.83351 0.0
H4215 H 0.34363 0.8433 0.80319 0.0
H4216 H 0.31236 0.77251 0.75502 0.0
H4217 H 0.32684 0.79104 0.77268 0.0
C4218 C 0.51858 0.07953 0.09247 0.0
C4219 C 0.51247 0.10641 0.09462 0.0
C4220 C 0.52979 0.07115 0.08222 0.0
C4221 C 0.54389 0.09368 1.05212 0.0
H4222 H 0.58631 1.02967 1.05138 0.0
C4223 C 0.60152 1.06051 1.01128 0.0
C4224 C 0.60569 1.0333 1.00907 0.0
C4225 C 0.59003 0.06942 1.02142 0.0
C4226 C 0.57427 1.04745 1.05127 0.0
H4227 H 0.51448 0.1455 0.08719 0.0
H4228 H 0.53423 0.13123 0.06948 0.0
H4229 H 0.5679 1.04502 0.06899 0.0
H4230 H 0.59983 0.99427 1.01619 0.0
H4231 H 0.58006 1.0095 1.03372 0.0
H4232 H 0.55061 0.09616 1.03437 0.0
C4233 C 0.52985 0.11624 0.07569 0.0
C4234 C 0.56348 1.05642 0.06155 0.0
C4235 C 0.51849 0.12462 0.08599 0.0
C4236 C 0.59741 1.01537 1.01747 0.0
C4237 C 0.58603 1.02427 1.02766 0.0
C4238 C 0.55481 0.08475 1.04184 0.0
C4239 C 0.53576 0.08919 0.07349 0.0
C4240 C 0.54786 0.07977 0.06229 0.0
C4241 C 0.58214 1.05158 1.02996 0.0
C4242 C 0.57025 1.06132 1.04111 0.0
H4243 H 0.51423 0.06459 0.09872 0.0
H4244 H 0.53326 1.05016 0.08113 0.0
H4245 H 0.53184 0.11143 1.05198 0.0
H4246 H 0.60758 0.07519 1.00518 0.0
H4247 H 0.58789 0.09056 1.02263 0.0
C4248 C 0.36268 0.7753 0.33713 0.0
C4249 C 0.34526 0.77131 0.34622 0.0
C4250 C 0.35383 0.7864 0.32679 0.0
C4251 C 0.29569 0.82458 0.31338 0.0
H4252 H 0.32906 0.80478 0.28558 0.0
C4253 C 0.25229 0.86085 0.26961 0.0
C4254 C 0.26937 0.86402 0.26035 0.0
C4255 C 0.26131 0.84981 0.27993 0.0
C4256 C 0.31947 0.81106 0.2932 0.0
H4257 H 0.3042 0.77618 0.35099 0.0
H4258 H 0.28911 0.79533 0.33344 0.0
H4259 H 0.34509 0.78612 0.30312 0.0
H4260 H 0.30996 0.85752 0.25522 0.0
H4261 H 0.32541 0.83878 0.27278 0.0
H4262 H 0.27014 0.84959 0.30348 0.0
C4263 C 0.30985 0.79028 0.33419 0.0
C4264 C 0.32885 0.80013 0.30345 0.0
C4265 C 0.31864 0.77907 0.34443 0.0
C4266 C 0.29579 0.8554 0.26193 0.0
C4267 C 0.30478 0.84438 0.27219 0.0
C4268 C 0.28634 0.83556 0.30314 0.0
C4269 C 0.32712 0.79432 0.32503 0.0
C4270 C 0.31722 0.8065 0.31386 0.0
C4271 C 0.28787 0.8412 0.28153 0.0
C4272 C 0.29791 0.82915 0.29271 0.0
H4273 H 0.38334 0.76994 0.338 0.0
H4274 H 0.36824 0.78915 0.32021 0.0
H4275 H 0.2861 0.8308 0.32101 0.0
H4276 H 0.23178 0.86679 0.26889 0.0
H4277 H 0.2471 0.84769 0.28662 0.0
C4278 C 0.60171 0.06928 0.59301 0.0
C4279 C 0.60697 0.09626 0.59525 0.0
C4280 C 0.59123 1.06077 0.58264 0.0
C4281 C 0.57744 0.08382 0.55249 0.0
H4282 H 0.53887 1.01769 0.55092 0.0
C4283 C 0.52315 1.04923 0.511 0.0
C4284 C 0.52146 1.02193 0.50848 0.0
C4285 C 0.53359 1.05841 0.52131 0.0
C4286 C 0.54983 1.0361 0.55105 0.0
H4287 H 0.60388 0.13542 0.58794 0.0
H4288 H 0.58509 0.12097 0.57009 0.0
H4289 H 0.55559 1.03318 0.56879 0.0
H4290 H 0.53002 0.98308 0.51529 0.0
H4291 H 0.54796 0.99875 0.5331 0.0
H4292 H 0.57121 0.08678 0.53471 0.0
C4293 C 0.58978 0.10596 0.57626 0.0
C4294 C 0.55966 1.04516 0.56148 0.0
C4295 C 0.60055 0.11446 0.58665 0.0
C4296 C 0.53077 1.00422 0.51678 0.0
C4297 C 0.54105 1.01336 0.52713 0.0
C4298 C 0.56743 0.07482 0.54206 0.0
C4299 C 0.58501 0.07879 0.5739 0.0
C4300 C 0.57389 0.06925 0.56254 0.0
C4301 C 0.54267 1.04073 0.52971 0.0
C4302 C 0.55343 1.05064 0.54103 0.0
H4303 H 0.60626 1.0544 0.59927 0.0
H4304 H 0.58856 1.0397 0.58146 0.0
H4305 H 0.58847 0.10216 0.55257 0.0
H4306 H 0.51591 0.0637 0.50503 0.0
H4307 H 0.53393 0.07956 0.52276 0.0
C4308 C 0.3241 0.27159 0.76177 0.0
C4309 C 0.35125 0.26899 0.75918 0.0
C4310 C 0.3153 0.28253 0.77204 0.0
C4311 C 0.3386 0.30133 0.80148 0.0
H4312 H 0.27155 0.33847 0.80272 0.0
C4313 C 0.30476 0.35823 0.84229 0.0
C4314 C 0.27762 0.36044 0.84497 0.0
C4315 C 0.31355 0.34718 0.83205 0.0
C4316 C 0.29022 0.32793 0.8027 0.0
H4317 H 0.39031 0.27591 0.76593 0.0
H4318 H 0.37533 0.29489 0.78364 0.0
H4319 H 0.28679 0.31971 0.78514 0.0
H4320 H 0.23856 0.35281 0.83836 0.0
H4321 H 0.25353 0.33373 0.82066 0.0
H4322 H 0.34204 0.30961 0.81905 0.0
C4323 C 0.36048 0.28836 0.77776 0.0
C4324 C 0.29912 0.31696 0.79244 0.0
C4325 C 0.36924 0.27746 0.76746 0.0
C4326 C 0.25962 0.35153 0.83677 0.0
C4327 C 0.26837 0.34058 0.82648 0.0
C4328 C 0.32971 0.31233 0.81174 0.0
C4329 C 0.33321 0.29132 0.78034 0.0
C4330 C 0.32358 0.30331 0.79151 0.0
C4331 C 0.29563 0.33797 0.82383 0.0
C4332 C 0.30525 0.32596 0.81267 0.0
H4333 H 0.30941 0.2648 0.75586 0.0
H4334 H 0.2942 0.28363 0.77349 0.0
H4335 H 0.35726 0.29077 0.80148 0.0
H4336 H 0.31944 0.36544 0.84811 0.0
H4337 H 0.33464 0.34637 0.83052 0.0
C4338 C 0.09835 0.11247 1.01802 0.0
C4339 C 0.10488 0.09426 1.00952 0.0
C4340 C 0.0874 0.104 1.02837 0.0
C4341 C 1.05476 1.04465 1.04297 0.0
H4342 H 0.07089 0.08351 0.06991 0.0
C4343 C 1.02181 1.00509 0.08762 0.0
C4344 C 1.0156 1.02349 0.09609 0.0
C4345 C 1.03267 1.01332 0.07721 0.0
C4346 C 0.0657 0.07239 0.06252 0.0
H4347 H 0.10389 1.05245 1.00554 0.0
H4348 H 0.08532 1.0378 1.02332 0.0
H4349 H 0.08864 0.09844 1.05206 0.0
H4350 H 1.01681 0.06539 0.0999 0.0
H4351 H 1.03519 0.07959 0.08206 0.0
H4352 H 1.03181 1.01859 0.05345 0.0
C4353 C 0.08845 1.05882 1.02209 0.0
C4354 C 0.07605 0.08111 1.05211 0.0
C4355 C 0.09939 0.06729 1.01177 0.0
C4356 C 1.02113 1.05039 0.09372 0.0
C4357 C 1.03198 1.05861 0.08336 0.0
C4358 C 1.04439 1.03592 0.05339 0.0
C4359 C 0.0823 0.07689 1.03073 0.0
C4360 C 0.07087 0.06751 1.04203 0.0
C4361 C 1.03799 1.04037 0.07477 0.0
C4362 C 1.04953 1.04956 0.06347 0.0
H4363 H 0.10173 0.13343 1.01668 0.0
H4364 H 0.08272 0.11895 1.03452 0.0
H4365 H 1.04961 1.03352 1.03558 0.0
H4366 H 1.01834 0.98417 0.08904 0.0
H4367 H 1.03718 0.99825 0.07109 0.0
C4368 C 0.79773 0.7739 0.84493 0.0
C4369 C 0.77115 0.76591 0.84648 0.0
C4370 C 0.80692 0.78467 0.83467 0.0
C4371 C 0.78877 0.79291 0.80371 0.0
H4372 H 0.84764 0.84192 0.80352 0.0
C4373 C 0.8218 0.84728 0.76211 0.0
C4374 C 0.84843 0.85493 0.7604 0.0
C4375 C 0.81281 0.83657 0.7724 0.0
C4376 C 0.83138 0.82801 0.80326 0.0
H4377 H 0.73344 0.76425 0.83796 0.0
H4378 H 0.74914 0.78285 0.82022 0.0
H4379 H 0.83138 0.82404 0.82117 0.0
H4380 H 0.88639 0.85633 0.76874 0.0
H4381 H 0.87097 0.83789 0.78658 0.0
H4382 H 0.78875 0.79688 0.78581 0.0
C4383 C 0.7633 0.78037 0.82692 0.0
C4384 C 0.82187 0.81756 0.81356 0.0
C4385 C 0.75409 0.76965 0.83724 0.0
C4386 C 0.86571 0.85112 0.76956 0.0
C4387 C 0.85667 0.84048 0.77993 0.0
C4388 C 0.79826 0.80337 0.79342 0.0
C4389 C 0.79004 0.78817 0.82532 0.0
C4390 C 0.80026 0.79968 0.81411 0.0
C4391 C 0.82992 0.83286 0.78165 0.0
C4392 C 0.81984 0.82127 0.79287 0.0
H4393 H 0.81182 0.77144 0.85167 0.0
H4394 H 0.82764 0.7898 0.83406 0.0
H4395 H 0.77253 0.77898 0.80344 0.0
H4396 H 0.80752 0.84989 0.75546 0.0
H4397 H 0.79206 0.83164 0.77311 0.0
C4398 C 0.8256 0.35114 0.34356 0.0
C4399 C 0.85272 0.35389 0.3462 0.0
C4400 C 0.81697 0.34048 0.33321 0.0
C4401 C 0.84073 0.323 0.30364 0.0
H4402 H 0.7739 0.28588 0.30191 0.0
C4403 C 0.80784 0.26797 0.26222 0.0
C4404 C 0.78075 0.26557 0.25948 0.0
C4405 C 0.8164 0.27862 0.27258 0.0
C4406 C 0.79252 0.29643 0.30206 0.0
H4407 H 0.89187 0.34737 0.33945 0.0
H4408 H 0.87719 0.32886 0.32162 0.0
H4409 H 0.78876 0.30392 0.31968 0.0
H4410 H 0.74155 0.27256 0.26609 0.0
H4411 H 0.75612 0.29099 0.28396 0.0
H4412 H 0.8445 0.31547 0.28603 0.0
C4413 C 0.86223 0.3351 0.32752 0.0
C4414 C 0.8012 0.30698 0.31244 0.0
C4415 C 0.87083 0.34571 0.3379 0.0
C4416 C 0.76257 0.27398 0.26771 0.0
C4417 C 0.7711 0.28455 0.27811 0.0
C4418 C 0.83206 0.31243 0.29327 0.0
C4419 C 0.83501 0.33212 0.32486 0.0
C4420 C 0.82558 0.32059 0.31356 0.0
C4421 C 0.7983 0.28727 0.28085 0.0
C4422 C 0.80768 0.29881 0.29215 0.0
H4423 H 0.81082 0.35769 0.34947 0.0
H4424 H 0.79589 0.33933 0.33172 0.0
H4425 H 0.85933 0.33356 0.30378 0.0
H4426 H 0.82267 0.26116 0.25638 0.0
H4427 H 0.83746 0.27954 0.27415 0.0
C4428 C 0.76509 0.35017 0.76667 0.0
C4429 C 0.78256 0.35601 0.75779 0.0
C4430 C 0.77413 0.33868 0.77687 0.0
C4431 C 0.83284 0.30245 0.79048 0.0
H4432 H 0.79808 0.32195 0.81802 0.0
C4433 C 0.87364 0.26599 0.83485 0.0
C4434 C 0.85599 0.26363 0.84396 0.0
C4435 C 0.86534 0.27668 0.82434 0.0
C4436 C 0.80803 0.31567 0.81049 0.0
H4437 H 0.82377 0.35307 0.753 0.0
H4438 H 0.83935 0.33313 0.77046 0.0
H4439 H 0.78261 0.34035 0.8004 0.0
H4440 H 0.81507 0.27047 0.84852 0.0
H4441 H 0.80088 0.28838 0.8307 0.0
H4442 H 0.85821 0.27765 0.80058 0.0
C4443 C 0.81845 0.33744 0.76965 0.0
C4444 C 0.79898 0.32649 0.80019 0.0
C4445 C 0.80942 0.3491 0.7595 0.0
C4446 C 0.82971 0.27219 0.84197 0.0
C4447 C 0.82145 0.28276 0.83155 0.0
C4448 C 0.84183 0.29149 0.8008 0.0
C4449 C 0.80113 0.33213 0.77869 0.0
C4450 C 0.81106 0.32019 0.78987 0.0
C4451 C 0.83898 0.28558 0.82241 0.0
C4452 C 0.82964 0.29769 0.81113 0.0
H4453 H 0.74423 0.35464 0.7658 0.0
H4454 H 0.75968 0.33473 0.78332 0.0
H4455 H 0.84284 0.29649 0.7829 0.0
H4456 H 0.89406 0.25995 0.83586 0.0
H4457 H 0.87996 0.2784 0.81779 0.0
C4458 C 0.76254 0.83378 0.34138 0.0
C4459 C 0.7671 0.86042 0.34446 0.0
C4460 C 0.77255 0.82303 0.33127 0.0
C4461 C 0.80384 0.84234 0.30317 0.0
H4462 H 0.8196 0.76734 0.30139 0.0
C4463 C 0.85642 0.7968 0.26334 0.0
C4464 C 0.8519 0.77013 0.26027 0.0
C4465 C 0.84634 0.80759 0.27342 0.0
C4466 C 0.81509 0.78831 0.30154 0.0
H4467 H 0.78841 0.89541 0.33936 0.0
H4468 H 0.80501 0.87749 0.32176 0.0
H4469 H 0.8023 0.78587 0.31865 0.0
H4470 H 0.83073 0.73508 0.26544 0.0
H4471 H 0.81396 0.75313 0.28298 0.0
H4472 H 0.81663 0.84478 0.28605 0.0
C4473 C 0.79276 0.86488 0.32693 0.0
C4474 C 0.80497 0.79915 0.31163 0.0
C4475 C 0.78278 0.87554 0.33707 0.0
C4476 C 0.83623 0.75502 0.26768 0.0
C4477 C 0.82619 0.76574 0.2778 0.0
C4478 C 0.81395 0.8315 0.29308 0.0
C4479 C 0.78794 0.83827 0.32372 0.0
C4480 C 0.79902 0.82649 0.31275 0.0
C4481 C 0.83097 0.79237 0.28099 0.0
C4482 C 0.8199 0.80416 0.29196 0.0
H4483 H 0.75108 0.82103 0.34683 0.0
H4484 H 0.76788 0.80262 0.32937 0.0
H4485 H 0.79934 0.86332 0.30332 0.0
H4486 H 0.86792 0.80952 0.25789 0.0
H4487 H 0.85099 0.82801 0.27531 0.0
C4488 C 0.60089 0.55632 0.0909 0.0
C4489 C 0.60678 0.52939 0.09312 0.0
C4490 C 0.59015 0.56489 0.08056 0.0
C4491 C 0.57851 0.54362 1.05031 0.0
H4492 H 0.53344 0.6058 1.04945 0.0
C4493 C 0.52392 0.57702 1.00872 0.0
C4494 C 0.51755 0.60397 1.00681 0.0
C4495 C 0.53491 0.56805 1.01898 0.0
C4496 C 0.54627 0.58859 1.04936 0.0
H4497 H 0.60511 0.49041 0.0857 0.0
H4498 H 0.58644 0.5051 0.06775 0.0
H4499 H 0.55115 0.59007 0.0672 0.0
H4500 H 0.51942 0.64263 1.0145 0.0
H4501 H 0.5387 0.62734 1.03219 0.0
H4502 H 0.57357 0.54214 1.03247 0.0
C4503 C 0.59047 0.51993 0.07403 0.0
C4504 C 0.5566 0.57939 0.05973 0.0
C4505 C 0.60121 0.51133 0.08444 0.0
C4506 C 0.52349 0.62169 1.01556 0.0
C4507 C 0.53457 0.61273 1.02585 0.0
C4508 C 0.56817 0.55284 1.03994 0.0
C4509 C 0.58463 0.547 0.07179 0.0
C4510 C 0.57308 0.55666 0.06051 0.0
C4511 C 0.54037 0.58558 1.02789 0.0
C4512 C 0.55176 0.57563 1.03915 0.0
H4513 H 0.60498 0.57116 0.09717 0.0
H4514 H 0.58665 0.5859 0.07942 0.0
H4515 H 0.59129 0.52638 1.05025 0.0
H4516 H 0.5199 0.56251 1.0023 0.0
H4517 H 0.53859 0.54703 1.01995 0.0
C4518 C 1.02175 0.57328 0.59467 0.0
C4519 C 1.01938 0.6006 0.59707 0.0
C4520 C 1.03238 0.5641 0.58439 0.0
C4521 C 1.04793 0.58606 0.55457 0.0
H4522 H 0.08854 0.52096 0.55336 0.0
C4523 C 0.10092 0.55331 0.51284 0.0
C4524 C 0.10663 0.52638 0.51065 0.0
C4525 C 0.09028 0.56179 0.52319 0.0
C4526 C 0.07696 0.53902 0.55335 0.0
H4527 H 1.02676 0.63947 0.59007 0.0
H4528 H 1.04494 0.62377 0.57231 0.0
H4529 H 0.0708 0.53634 0.57114 0.0
H4530 H 0.1043 0.48726 0.51804 0.0
H4531 H 0.08538 0.50166 0.53587 0.0
H4532 H 1.05364 0.58869 0.53682 0.0
C4533 C 1.03849 0.60916 0.57835 0.0
C4534 C 0.06667 0.54801 0.56374 0.0
C4535 C 1.02807 0.61831 0.58867 0.0
C4536 C 0.10061 0.50819 0.51929 0.0
C4537 C 0.08976 0.51665 0.52966 0.0
C4538 C 1.05805 0.577 0.54419 0.0
C4539 C 1.04091 0.58178 0.57591 0.0
C4540 C 1.05196 0.57185 0.56465 0.0
C4541 C 0.08441 0.54377 0.53195 0.0
C4542 C 0.07299 0.55327 0.54325 0.0
H4543 H 1.01493 0.55881 0.6007 0.0
H4544 H 1.03332 0.54292 0.58303 0.0
H4545 H 1.03641 0.60417 0.55461 0.0
H4546 H 0.10518 0.5682 0.50655 0.0
H4547 H 0.08717 0.58282 0.52432 0.0
C4548 C 0.10135 0.61003 0.08711 0.0
C4549 C 0.10897 0.59183 0.09553 0.0
C4550 C 0.08999 0.60149 0.07686 0.0
C4551 C 1.05789 0.5416 0.06257 0.0
H4552 H 0.07077 0.58171 1.03552 0.0
C4553 C 1.0216 0.50278 1.01824 0.0
C4554 C 1.01505 0.52132 1.00979 0.0
C4555 C 1.03302 0.51086 1.02857 0.0
C4556 C 0.06643 0.57021 1.04293 0.0
H4557 H 0.10997 0.54986 0.09934 0.0
H4558 H 0.09046 0.53513 0.08179 0.0
H4559 H 0.08949 0.59659 0.05313 0.0
H4560 H 1.01583 0.56334 1.00604 0.0
H4561 H 1.03509 0.57722 1.02367 0.0
H4562 H 1.03476 0.51525 1.05236 0.0
C4563 C 0.09297 0.55621 0.08304 0.0
C4564 C 0.07739 0.57891 0.05322 0.0
C4565 C 0.1044 0.56474 0.09323 0.0
C4566 C 1.02063 0.54818 1.01214 0.0
C4567 C 1.03196 0.55624 1.02241 0.0
C4568 C 1.04687 0.53292 1.05228 0.0
C4569 C 0.08552 0.5743 0.07451 0.0
C4570 C 0.07344 0.56489 0.06335 0.0
C4571 C 1.03851 0.53788 1.03096 0.0
C4572 C 1.05077 0.54699 1.04215 0.0
H4573 H 0.10411 0.63106 0.08845 0.0
H4574 H 0.08441 0.61646 0.0708 0.0
H4575 H 1.05368 0.5301 0.07 0.0
H4576 H 1.01797 0.4819 1.01686 0.0
H4577 H 1.03782 0.49567 1.03465 0.0
C4578 C 0.52311 0.54507 0.59243 0.0
C4579 C 0.51649 0.51832 0.59462 0.0
C4580 C 0.53404 0.55333 0.58209 0.0
C4581 C 0.54562 0.53139 0.55188 0.0
H4582 H 0.59086 0.59322 0.55092 0.0
C4583 C 0.60161 0.56354 0.51048 0.0
C4584 C 0.60736 0.59055 0.50842 0.0
C4585 C 0.59037 0.55479 0.52071 0.0
C4586 C 0.57801 0.57609 0.55087 0.0
H4587 H 0.51729 0.4793 0.5872 0.0
H4588 H 0.53651 0.49341 0.56932 0.0
H4589 H 0.57291 0.57799 0.56867 0.0
H4590 H 0.60432 0.62946 0.51584 0.0
H4591 H 0.58485 0.61449 0.53351 0.0
H4592 H 0.55093 0.52945 0.53405 0.0
C4593 C 0.53277 0.50837 0.57557 0.0
C4594 C 0.56751 0.56718 0.56123 0.0
C4595 C 0.52173 0.50009 0.58596 0.0
C4596 C 0.6007 0.60849 0.51701 0.0
C4597 C 0.58951 0.59973 0.52728 0.0
C4598 C 0.55619 0.54027 0.54151 0.0
C4599 C 0.53918 0.53529 0.57333 0.0
C4600 C 0.55092 0.54461 0.56205 0.0
C4601 C 0.58421 0.57258 0.52946 0.0
C4602 C 0.57264 0.56293 0.5407 0.0
H4603 H 0.51938 0.56 0.5987 0.0
H4604 H 0.53798 0.57424 0.58096 0.0
H4605 H 0.53277 0.51426 0.55183 0.0
H4606 H 0.6063 0.54887 0.50421 0.0
H4607 H 0.58708 0.53375 0.52182 0.0
C4608 C 0.30902 0.15866 0.39632 0.0
C4609 C 0.30982 0.18688 0.39616 0.0
C4610 C 0.32444 0.14277 0.40393 0.0
C4611 C 0.38384 0.14473 0.42482 0.0
H4612 H 0.3593 0.07521 0.43374 0.0
C4613 C 0.45232 0.07149 0.45266 0.0
C4614 C 0.44116 1.05209 0.45992 0.0
C4615 C 0.4367 0.08762 0.44521 0.0
C4616 C 0.36684 0.09457 0.4315 0.0
H4617 H 0.32916 0.21931 0.40468 0.0
H4618 H 0.35584 0.19227 0.41751 0.0
H4619 H 0.33289 0.10238 0.42094 0.0
H4620 H 0.40293 1.03588 0.46436 0.0
H4621 H 0.37633 0.06295 0.45155 0.0
H4622 H 0.41782 0.13689 0.43536 0.0
C4623 C 0.34315 0.18206 0.41167 0.0
C4624 C 0.35142 0.11046 0.42388 0.0
C4625 C 0.32745 0.19797 0.40414 0.0
C4626 C 0.41313 1.05001 0.45912 0.0
C4627 C 0.39752 0.06588 0.45155 0.0
C4628 C 0.39944 0.12869 0.43232 0.0
C4629 C 0.34218 0.1538 0.41191 0.0
C4630 C 0.35924 0.13624 0.42025 0.0
C4631 C 0.40867 0.08539 0.4443 0.0
C4632 C 0.39154 0.10298 0.436 0.0
H4633 H 0.29632 0.14851 0.39047 0.0
H4634 H 0.32259 0.12145 0.40337 0.0
H4635 H 0.39154 0.16396 0.42248 0.0
H4636 H 0.47354 0.07433 0.45267 0.0
H4637 H 0.44701 0.10169 0.43995 0.0
C4638 C 0.31318 0.16604 0.71192 0.0
C4639 C 0.32073 0.19248 0.7093 0.0
C4640 C 0.29708 0.15024 0.70461 0.0
C4641 C 0.27376 0.14261 0.67409 0.0
H4642 H 0.21976 0.09614 0.68602 0.0
C4643 C 0.21514 0.06365 0.64536 0.0
C4644 C 0.18773 1.05888 0.64718 0.0
C4645 C 0.23085 0.07987 0.65264 0.0
C4646 C 0.23466 0.1089 0.68237 0.0
H4647 H 0.31667 0.22168 0.6961 0.0
H4648 H 0.29003 0.19433 0.68342 0.0
H4649 H 0.24709 0.12288 0.69866 0.0
H4650 H 0.15654 0.06858 0.65888 0.0
H4651 H 0.18365 0.09542 0.67157 0.0
H4652 H 0.26184 0.12808 0.65783 0.0
C4653 C 0.2961 0.18575 0.69132 0.0
C4654 C 0.25076 0.12443 0.68978 0.0
C4655 C 0.31153 0.2018 0.69876 0.0
C4656 C 0.17725 0.07125 0.65688 0.0
C4657 C 0.19314 0.08686 0.66433 0.0
C4658 C 0.25816 0.12653 0.66671 0.0
C4659 C 0.28809 0.15944 0.694 0.0
C4660 C 0.27077 0.14203 0.68591 0.0
C4661 C 0.22051 0.09188 0.66246 0.0
C4662 C 0.23788 0.10922 0.67057 0.0
H4663 H 0.31953 0.15744 0.71977 0.0
H4664 H 0.29206 0.13033 0.70726 0.0
H4665 H 0.28866 0.15536 0.67045 0.0
H4666 H 0.22467 1.05487 0.63818 0.0
H4667 H 0.25156 0.08253 0.65064 0.0
C4668 C 0.17135 1.05446 0.94977 0.0
C4669 C 0.18097 0.06534 0.95993 0.0
C4670 C 0.18739 1.03837 0.94253 0.0
C4671 C 0.25078 0.99513 0.94119 0.0
H4672 H 0.2428 1.00032 0.90911 0.0
C4673 C 0.30557 0.91927 0.90946 0.0
C4674 C 0.31521 0.92858 0.899 0.0
C4675 C 0.28989 0.93548 0.91682 0.0
C4676 C 0.24563 0.9983 0.91803 0.0
H4677 H 0.2166 0.06618 0.96998 0.0
H4678 H 0.24373 1.03784 0.95782 0.0
H4679 H 0.2155 1.02786 0.92144 0.0
H4680 H 0.31428 0.96374 0.88856 0.0
H4681 H 0.28675 0.99102 0.90092 0.0
H4682 H 0.28049 0.9651 0.93777 0.0
C4683 C 0.22356 1.04199 0.9553 0.0
C4684 C 0.2295 1.01432 0.92527 0.0
C4685 C 0.20772 1.05865 0.9624 0.0
C4686 C 0.30774 0.95511 0.89638 0.0
C4687 C 0.29153 0.97105 0.9036 0.0
C4688 C 0.26643 0.9786 0.93396 0.0
C4689 C 0.21407 1.03138 0.94504 0.0
C4690 C 0.23157 1.0135 0.93712 0.0
C4691 C 0.28211 0.96194 0.91413 0.0
C4692 C 0.2646 0.97968 0.9221 0.0
H4693 H 0.1512 1.05869 0.94724 0.0
H4694 H 0.17849 1.03102 0.93493 0.0
H4695 H 0.25356 0.9931 0.95011 0.0
H4696 H 0.31044 0.8993 0.91211 0.0
H4697 H 0.28345 0.92689 0.92466 0.0
C4698 C 0.29595 0.97317 0.2083 0.0
C4699 C 0.29679 0.94495 0.20855 0.0
C4700 C 0.31174 0.98885 0.20077 0.0
C4701 C 0.37261 0.98638 0.18073 0.0
H4702 H 0.34765 1.05492 0.17056 0.0
C4703 C 0.44209 1.0591 0.15317 0.0
C4704 C 0.43106 0.07743 0.14537 0.0
C4705 C 0.42621 1.04322 0.16059 0.0
C4706 C 0.35533 1.03583 0.17317 0.0
H4707 H 0.31683 0.91229 0.20044 0.0
H4708 H 0.34411 0.93898 0.18775 0.0
H4709 H 0.32062 1.02827 0.1833 0.0
H4710 H 0.39281 0.09187 0.13985 0.0
H4711 H 0.36578 0.06535 0.15265 0.0
H4712 H 0.4074 0.99403 0.17066 0.0
C4713 C 0.331 0.94934 0.1934 0.0
C4714 C 0.33953 1.02026 0.18074 0.0
C4715 C 0.31492 0.93365 0.20081 0.0
C4716 C 0.40292 0.07868 0.14558 0.0
C4717 C 0.38704 0.06311 0.15312 0.0
C4718 C 0.3886 1.00215 0.1733 0.0
C4719 C 0.32997 0.97758 0.19303 0.0
C4720 C 0.34747 0.99484 0.18479 0.0
C4721 C 0.39804 1.0447 0.16092 0.0
C4722 C 0.38056 1.02746 0.16917 0.0
H4723 H 0.28292 0.98347 0.21398 0.0
H4724 H 0.30983 1.01019 0.2012 0.0
H4725 H 0.38041 0.96742 0.18342 0.0
H4726 H 0.46339 1.05688 0.15359 0.0
H4727 H 0.43636 1.02995 0.16628 0.0
C4728 C 0.81165 0.92349 0.69854 0.0
C4729 C 0.82054 0.93269 0.70911 0.0
C4730 C 0.79631 0.9396 0.69099 0.0
C4731 C 0.75197 1.00235 0.68904 0.0
H4732 H 0.76055 0.99541 0.65707 0.0
C4733 C 0.67851 1.05726 0.65642 0.0
C4734 C 0.68801 0.06691 0.64598 0.0
C4735 C 0.69446 1.04165 0.66393 0.0
C4736 C 0.75759 0.99796 0.66595 0.0
H4737 H 0.81882 0.96769 0.71948 0.0
H4738 H 0.79182 0.99495 0.70675 0.0
H4739 H 0.78719 0.96813 0.66986 0.0
H4740 H 0.72334 0.0661 0.63577 0.0
H4741 H 0.75038 1.03868 0.64845 0.0
H4742 H 0.72201 1.0318 0.68513 0.0
C4743 C 0.79689 0.97504 0.70417 0.0
C4744 C 0.77308 0.98183 0.67345 0.0
C4745 C 0.81278 0.95914 0.71161 0.0
C4746 C 0.71458 1.05954 0.64355 0.0
C4747 C 0.73036 1.0434 0.65096 0.0
C4748 C 0.73604 1.01803 0.68154 0.0
C4749 C 0.78817 0.96594 0.69353 0.0
C4750 C 0.77098 0.98349 0.68529 0.0
C4751 C 0.72096 1.03398 0.66147 0.0
C4752 C 0.73833 1.01657 0.6697 0.0
H4753 H 0.81686 0.90361 0.69595 0.0
H4754 H 0.79044 0.931 0.6831 0.0
H4755 H 0.74893 1.00482 0.69792 0.0
H4756 H 0.65848 1.06203 0.65893 0.0
H4757 H 0.68561 1.03519 0.6717 0.0
C4758 C 0.90623 0.06788 0.46213 0.0
C4759 C 0.93285 0.07493 0.45966 0.0
C4760 C 0.89048 1.05152 0.45491 0.0
C4761 C 0.88381 1.02604 0.42463 0.0
H4762 H 0.83488 0.97461 0.43685 0.0
C4763 C 0.80478 0.96789 0.39579 0.0
C4764 C 0.79867 0.94084 0.39797 0.0
C4765 C 0.82107 0.98356 0.40306 0.0
C4766 C 0.84834 0.98877 0.43312 0.0
H4767 H 0.96249 0.06933 0.44684 0.0
H4768 H 0.93526 1.04222 0.43428 0.0
H4769 H 0.86181 1.0021 0.44936 0.0
H4770 H 0.80596 0.91025 0.41034 0.0
H4771 H 0.83301 0.93736 0.42301 0.0
H4772 H 0.86983 1.01324 0.4084 0.0
C4773 C 0.92645 1.04902 0.44199 0.0
C4774 C 0.86399 1.00498 0.44045 0.0
C4775 C 0.94244 0.06477 0.44936 0.0
C4776 C 0.80974 0.93068 0.40805 0.0
C4777 C 0.82546 0.94658 0.41548 0.0
C4778 C 0.86764 1.01035 0.41731 0.0
C4779 C 0.89991 1.04164 0.44451 0.0
C4780 C 0.88247 1.0241 0.43648 0.0
C4781 C 0.83188 0.97358 0.41323 0.0
C4782 C 0.84941 0.99098 0.42128 0.0
H4783 H 0.89741 0.07485 0.46982 0.0
H4784 H 0.87043 1.04702 0.45744 0.0
H4785 H 0.89725 1.04021 0.4209 0.0
H4786 H 0.79711 0.97714 0.38828 0.0
H4787 H 0.82481 1.00397 0.40073 0.0
C4788 C 0.9527 0.06726 0.15559 0.0
C4789 C 0.94194 1.05445 0.14604 0.0
C4790 C 0.93695 0.08276 0.16315 0.0
C4791 C 0.87188 0.12215 0.1661 0.0
H4792 H 0.88357 0.11748 0.19799 0.0
C4793 C 0.82019 0.19731 0.19885 0.0
C4794 C 0.81056 0.18761 0.20925 0.0
C4795 C 0.83534 0.18128 0.19127 0.0
C4796 C 0.87975 0.11932 0.18913 0.0
H4797 H 0.90459 1.04987 0.13739 0.0
H4798 H 0.8779 0.07748 0.15002 0.0
H4799 H 0.91061 0.09093 0.18511 0.0
H4800 H 0.81071 0.15188 0.21932 0.0
H4801 H 0.8378 0.1248 0.20659 0.0
H4802 H 0.84161 0.1512 0.17009 0.0
C4803 C 0.89875 0.07508 0.15184 0.0
C4804 C 0.89566 0.1039 0.18159 0.0
C4805 C 0.91436 1.05889 0.14446 0.0
C4806 C 0.8174 0.16078 0.21158 0.0
C4807 C 0.83328 0.14499 0.20415 0.0
C4808 C 0.85652 0.13818 0.17362 0.0
C4809 C 0.9094 0.08737 0.16154 0.0
C4810 C 0.89219 0.10458 0.16979 0.0
C4811 C 0.84268 0.1546 0.19367 0.0
C4812 C 0.85973 0.13723 0.18543 0.0
H4813 H 0.97357 0.06498 0.15741 0.0
H4814 H 0.94668 0.09157 0.17027 0.0
H4815 H 0.86803 0.12397 0.15724 0.0
H4816 H 0.81562 0.2175 0.1964 0.0
H4817 H 0.84175 0.19018 0.18349 0.0
C4818 C 0.71587 1.058 0.96097 0.0
C4819 C 0.68775 1.05951 0.96088 0.0
C4820 C 0.73224 0.07304 0.95342 0.0
C4821 C 0.73155 0.13253 0.93247 0.0
H4822 H 0.80018 0.10608 0.92348 0.0
C4823 C 0.80543 0.19906 0.90443 0.0
C4824 C 0.82422 0.18724 0.89712 0.0
C4825 C 0.78923 0.1839 0.91197 0.0
C4826 C 0.78108 0.11414 0.92574 0.0
H4827 H 0.65603 0.07948 0.95199 0.0
H4828 H 0.6838 0.10545 0.93936 0.0
H4829 H 0.77271 0.0803 0.93636 0.0
H4830 H 0.83918 0.14847 0.8926 0.0
H4831 H 0.81197 0.12264 0.90558 0.0
H4832 H 0.73989 0.16637 0.92189 0.0
C4833 C 0.6936 0.09261 0.94532 0.0
C4834 C 0.76504 0.0991 0.9334 0.0
C4835 C 0.67727 0.07734 0.95275 0.0
C4836 C 0.82561 0.15911 0.89794 0.0
C4837 C 0.80965 0.14397 0.90558 0.0
C4838 C 0.74773 0.14773 0.92494 0.0
C4839 C 0.72173 0.091 0.94532 0.0
C4840 C 0.73958 0.10764 0.93703 0.0
C4841 C 0.79078 0.15575 0.91288 0.0
C4842 C 0.7731 0.1391 0.92124 0.0
H4843 H 0.72551 1.04494 0.96688 0.0
H4844 H 0.75346 0.0707 0.95411 0.0
H4845 H 0.71258 0.14075 0.93483 0.0
H4846 H 0.8031 0.2204 0.90435 0.0
H4847 H 0.77562 0.19462 0.91727 0.0
C4848 C 0.8077 0.69446 0.90754 0.0
C4849 C 0.80037 0.68582 0.89668 0.0
C4850 C 0.82323 0.67856 0.91508 0.0
C4851 C 0.87158 0.61909 0.91681 0.0
H4852 H 0.85832 0.62121 0.94862 0.0
C4853 C 0.94498 0.5666 0.95016 0.0
C4854 C 0.93473 0.55432 0.95997 0.0
C4855 C 0.92887 0.58189 0.9426 0.0
C4856 C 0.86262 0.62007 0.93979 0.0
H4857 H 0.80512 0.65209 0.88575 0.0
H4858 H 0.83265 0.62524 0.89848 0.0
H4859 H 0.83123 0.64791 0.93577 0.0
H4860 H 0.89787 0.55015 0.96901 0.0
H4861 H 0.87052 0.57713 0.9563 0.0
H4862 H 0.90336 0.59171 0.92085 0.0
C4863 C 0.82608 0.64452 0.9013 0.0
C4864 C 0.84686 0.63585 0.93226 0.0
C4865 C 0.80993 0.66017 0.89386 0.0
C4866 C 0.90725 0.55884 0.96174 0.0
C4867 C 0.89127 0.57469 0.95432 0.0
C4868 C 0.88777 0.60382 0.92436 0.0
C4869 C 0.83321 0.65306 0.91222 0.0
C4870 C 0.85063 0.63585 0.92048 0.0
C4871 C 0.90142 0.58662 0.94441 0.0
C4872 C 0.88381 0.6036 0.93613 0.0
H4873 H 0.80102 0.7137 0.91038 0.0
H4874 H 0.82779 0.68667 0.92321 0.0
H4875 H 0.87592 0.61801 0.90797 0.0
H4876 H 0.96573 0.56415 0.94817 0.0
H4877 H 0.93828 0.59041 0.93531 0.0
C4878 C 0.71125 0.55789 0.14444 0.0
C4879 C 0.6831 0.55752 0.14485 0.0
C4880 C 0.72719 0.57348 0.15188 0.0
C4881 C 0.72483 0.63128 0.17352 0.0
H4882 H 0.79635 0.60916 0.18041 0.0
C4883 C 0.79794 0.70036 0.2009 0.0
C4884 C 0.81891 0.68922 0.20734 0.0
C4885 C 0.78162 0.68485 0.19355 0.0
C4886 C 0.77643 0.61602 0.17876 0.0
H4887 H 0.65078 0.57521 0.15409 0.0
H4888 H 0.67789 0.60207 0.16671 0.0
H4889 H 0.76897 0.5826 0.16794 0.0
H4890 H 0.83789 0.65136 0.21043 0.0
H4891 H 0.81037 0.625 0.19786 0.0
H4892 H 0.73232 0.66472 0.18436 0.0
C4893 C 0.68802 0.59012 0.16056 0.0
C4894 C 0.76039 0.60051 0.17132 0.0
C4895 C 0.67208 0.57427 0.15319 0.0
C4896 C 0.82241 0.66146 0.20583 0.0
C4897 C 0.80631 0.64602 0.1984 0.0
C4898 C 0.741 0.64697 0.18086 0.0
C4899 C 0.71625 0.59025 0.16025 0.0
C4900 C 0.7339 0.60745 0.16841 0.0
C4901 C 0.7852 0.65705 0.19196 0.0
C4902 C 0.76744 0.63994 0.18381 0.0
H4903 H 0.72133 0.54609 0.13824 0.0
H4904 H 0.74844 0.57257 0.15087 0.0
H4905 H 0.70502 0.63829 0.17175 0.0
H4906 H 0.79394 0.72139 0.20154 0.0
H4907 H 0.76624 0.69506 0.18894 0.0
C4908 C 0.81652 0.45802 0.39434 0.0
C4909 C 0.82265 0.43092 0.39645 0.0
C4910 C 0.80064 0.47376 0.40179 0.0
C4911 C 0.77431 0.47825 0.43213 0.0
H4912 H 0.72583 0.53102 0.42045 0.0
C4913 C 0.71585 0.55543 0.46212 0.0
C4914 C 0.68954 0.56331 0.45946 0.0
C4915 C 0.73182 0.53949 0.45477 0.0
C4916 C 0.73913 0.51646 0.42404 0.0
H4917 H 0.81619 0.40045 0.40894 0.0
H4918 H 0.78983 0.42755 0.42183 0.0
H4919 H 0.75289 0.5044 0.40768 0.0
H4920 H 0.66079 0.55976 0.44612 0.0
H4921 H 0.68826 0.53336 0.43346 0.0
H4922 H 0.76095 0.49073 0.44851 0.0
C4923 C 0.79693 0.43679 0.41424 0.0
C4924 C 0.75513 0.50098 0.41655 0.0
C4925 C 0.81221 0.42087 0.40666 0.0
C4926 C 0.68055 0.55446 0.44884 0.0
C4927 C 0.69671 0.53914 0.44139 0.0
C4928 C 0.75879 0.4942 0.43964 0.0
C4929 C 0.79037 0.46379 0.41206 0.0
C4930 C 0.77318 0.48113 0.4203 0.0
C4931 C 0.72291 0.5309 0.44408 0.0
C4932 C 0.74044 0.51377 0.43588 0.0
H4933 H 0.82385 0.46722 0.38677 0.0
H4934 H 0.79682 0.4942 0.39951 0.0
H4935 H 0.78766 0.46373 0.43572 0.0
H4936 H 0.72424 0.56143 0.47004 0.0
H4937 H 0.75162 0.53428 0.45745 0.0
C4938 C 0.8174 0.42719 0.69814 0.0
C4939 C 0.80788 0.43635 0.70862 0.0
C4940 C 0.83266 0.44347 0.69067 0.0
C4941 C 0.87583 0.50669 0.68885 0.0
H4942 H 0.86793 0.49955 0.65686 0.0
C4943 C 0.94955 0.56115 0.65639 0.0
C4944 C 0.94009 0.57101 0.64598 0.0
C4945 C 0.93353 0.54566 0.66387 0.0
C4946 C 0.87068 0.50215 0.66574 0.0
H4947 H 0.80836 0.47148 0.71893 0.0
H4948 H 0.83533 0.49906 0.70635 0.0
H4949 H 0.8414 0.4721 0.66957 0.0
H4950 H 0.9047 0.57094 0.63579 0.0
H4951 H 0.87753 0.54351 0.64839 0.0
H4952 H 0.90552 0.53634 0.68502 0.0
C4953 C 0.83079 0.47904 0.70377 0.0
C4954 C 0.85526 0.48593 0.6732 0.0
C4955 C 0.81495 0.46295 0.71114 0.0
C4956 C 0.91344 0.56408 0.64354 0.0
C4957 C 0.8976 0.54798 0.6509 0.0
C4958 C 0.8917 0.52246 0.6814 0.0
C4959 C 0.84009 0.46997 0.69322 0.0
C4960 C 0.85715 0.48767 0.68504 0.0
C4961 C 0.90701 0.53829 0.66138 0.0
C4962 C 0.88964 0.52089 0.66955 0.0
H4963 H 0.8127 0.40722 0.69554 0.0
H4964 H 0.83901 0.43489 0.68284 0.0
H4965 H 0.87867 0.50922 0.69774 0.0
H4966 H 0.96958 0.56574 0.65893 0.0
H4967 H 0.94234 0.53904 0.67163 0.0
C4968 C 0.32157 0.46103 0.20854 0.0
C4969 C 0.32129 0.43281 0.2087 0.0
C4970 C 0.30559 0.47661 0.201 0.0
C4971 C 0.24515 0.47357 0.18076 0.0
H4972 H 0.26918 0.5424 0.17069 0.0
C4973 C 0.17488 0.54585 0.15318 0.0
C4974 C 0.18573 0.56413 0.14534 0.0
C4975 C 0.19091 0.53008 0.16062 0.0
C4976 C 0.26177 0.52322 0.17327 0.0
H4977 H 0.30241 0.40003 0.20022 0.0
H4978 H 0.27467 0.4265 0.18763 0.0
H4979 H 0.29648 0.51599 0.18348 0.0
H4980 H 0.22384 0.57875 0.13984 0.0
H4981 H 0.25113 0.55241 0.15266 0.0
H4982 H 0.21034 0.4809 0.17062 0.0
C4983 C 0.28735 0.43695 0.1934 0.0
C4984 C 0.27771 0.5078 0.18087 0.0
C4985 C 0.30364 0.42139 0.20081 0.0
C4986 C 0.21386 0.56551 0.14556 0.0
C4987 C 0.22988 0.55007 0.15312 0.0
C4988 C 0.229 0.48919 0.17331 0.0
C4989 C 0.28777 0.4652 0.19315 0.0
C4990 C 0.27011 0.4823 0.18488 0.0
C4991 C 0.21906 0.53167 0.16094 0.0
C4992 C 0.23671 0.5146 0.16922 0.0
H4993 H 0.33438 0.47141 0.21427 0.0
H4994 H 0.30708 0.49797 0.2015 0.0
H4995 H 0.23762 0.45451 0.18342 0.0
H4996 H 0.15361 0.54368 0.15367 0.0
H4997 H 0.18089 0.51685 0.16634 0.0
C4998 C 0.41072 0.56412 0.96067 0.0
C4999 C 0.43608 0.57402 0.95766 0.0
C5000 C 0.3951 0.54786 0.95334 0.0
C5001 C 0.38589 0.52733 0.9224 0.0
H5002 H 0.34287 0.47019 0.93405 0.0
C5003 C 0.30964 0.46633 0.89322 0.0
C5004 C 0.3057 0.43871 0.89498 0.0
C5005 C 0.32519 0.48245 0.90062 0.0
C5006 C 0.35466 0.48597 0.93047 0.0
H5007 H 0.46343 0.5738 0.94374 0.0
H5008 H 0.43646 0.54688 0.93112 0.0
H5009 H 0.369 0.4978 0.94678 0.0
H5010 H 0.3158 0.40767 0.90679 0.0
H5011 H 0.34164 0.43535 0.91961 0.0
H5012 H 0.37114 0.51588 0.90612 0.0
C5013 C 0.42856 0.55126 0.9393 0.0
C5014 C 0.36983 0.50226 0.93794 0.0
C5015 C 0.44444 0.56688 0.94673 0.0
C5016 C 0.31802 0.4285 0.90479 0.0
C5017 C 0.333 0.44474 0.91233 0.0
C5018 C 0.37022 0.51147 0.91496 0.0
C5019 C 0.40336 0.54095 0.94234 0.0
C5020 C 0.3862 0.52343 0.93419 0.0
C5021 C 0.33734 0.47231 0.9105 0.0
C5022 C 0.35416 0.49004 0.91869 0.0
H5023 H 0.40286 0.56876 0.96884 0.0
H5024 H 0.37605 0.54103 0.9563 0.0
H5025 H 0.39764 0.54314 0.91882 0.0
H5026 H 0.3008 0.47567 0.88596 0.0
H5027 H 0.32727 0.50329 0.89862 0.0
C5028 C 0.41028 0.5558 0.64344 0.0
C5029 C 0.43668 0.54814 0.64609 0.0
C5030 C 0.39433 0.57197 0.6507 0.0
C5031 C 0.38719 0.5967 0.68118 0.0
H5032 H 0.33768 0.64782 0.66898 0.0
C5033 C 0.30893 0.65561 0.71032 0.0
C5034 C 0.30192 0.68233 0.70785 0.0
C5035 C 0.32514 0.63974 0.70305 0.0
C5036 C 0.35131 0.63377 0.67272 0.0
H5037 H 0.46571 0.55257 0.65925 0.0
H5038 H 0.43822 0.57943 0.6718 0.0
H5039 H 0.36477 0.6205 0.65647 0.0
H5040 H 0.30754 0.71205 0.69497 0.0
H5041 H 0.33446 0.6847 0.68238 0.0
H5042 H 0.37333 0.60957 0.69742 0.0
C5043 C 0.42968 0.57318 0.66396 0.0
C5044 C 0.36706 0.61763 0.66538 0.0
C5045 C 0.44583 0.55755 0.65659 0.0
C5046 C 0.312 0.6919 0.6975 0.0
C5047 C 0.32767 0.67583 0.6901 0.0
C5048 C 0.37097 0.61239 0.68852 0.0
C5049 C 0.40336 0.58114 0.66128 0.0
C5050 C 0.38575 0.59859 0.66933 0.0
C5051 C 0.335 0.64918 0.69263 0.0
C5052 C 0.35253 0.63167 0.68457 0.0
H5053 H 0.40178 0.54944 0.6356 0.0
H5054 H 0.37447 0.57691 0.64802 0.0
H5055 H 0.40076 0.5826 0.68492 0.0
H5056 H 0.30206 0.6468 0.71805 0.0
H5057 H 0.32958 0.61961 0.7056 0.0
C5058 C 0.21323 0.56465 0.4629 0.0
C5059 C 0.18682 0.55703 0.46033 0.0
C5060 C 0.22884 0.58135 0.45568 0.0
C5061 C 0.23478 0.60796 0.42531 0.0
H5062 H 0.28435 0.65856 0.4375 0.0
C5063 C 0.31135 0.66851 0.39595 0.0
C5064 C 0.31847 0.69511 0.39849 0.0
C5065 C 0.29553 0.65233 0.40327 0.0
C5066 C 0.27069 0.64468 0.43377 0.0
H5067 H 0.15744 0.56213 0.44732 0.0
H5068 H 0.18432 0.58987 0.43485 0.0
H5069 H 0.258 0.63038 0.45002 0.0
H5070 H 0.31344 0.72421 0.41156 0.0
H5071 H 0.2871 0.69628 0.42424 0.0
H5072 H 0.24787 0.62183 0.40907 0.0
C5073 C 0.19315 0.58319 0.44261 0.0
C5074 C 0.25537 0.62802 0.44111 0.0
C5075 C 0.17734 0.56704 0.44994 0.0
C5076 C 0.30885 0.7042 0.40897 0.0
C5077 C 0.29354 0.68779 0.41641 0.0
C5078 C 0.25057 0.62415 0.41797 0.0
C5079 C 0.21946 0.59113 0.44521 0.0
C5080 C 0.23667 0.60913 0.43717 0.0
C5081 C 0.28614 0.66125 0.41382 0.0
C5082 C 0.26902 0.64327 0.42191 0.0
H5083 H 0.22198 0.55784 0.47066 0.0
H5084 H 0.24873 0.58623 0.45831 0.0
H5085 H 0.22119 0.59403 0.42157 0.0
H5086 H 0.31789 0.66002 0.38814 0.0
H5087 H 0.29103 0.63233 0.40065 0.0
C5088 C 0.34844 0.1498 0.31432 0.0
C5089 C 0.3377 0.14829 0.32518 0.0
C5090 C 0.36197 0.12828 0.3097 0.0
C5091 C 0.36382 1.05535 0.31451 0.0
H5092 H 0.39512 1.05743 0.285 0.0
C5093 C 0.35459 0.96571 0.28705 0.0
C5094 C 0.33712 0.9728 0.27836 0.0
C5095 C 0.36925 0.98512 0.29258 0.0
C5096 C 0.38694 1.05648 0.29335 0.0
H5097 H 0.33802 0.12362 0.34025 0.0
H5098 H 0.36405 0.08862 0.33274 0.0
H5099 H 0.39576 0.09713 0.29657 0.0
H5100 H 0.32394 1.00565 0.26791 0.0
H5101 H 0.34995 1.03895 0.27731 0.0
H5102 H 0.35472 1.01488 0.3112 0.0
C5103 C 0.35963 0.10532 0.32735 0.0
C5104 C 0.38688 0.07933 0.29995 0.0
C5105 C 0.3449 0.12618 0.33179 0.0
C5106 C 0.3372 0.99919 0.27448 0.0
C5107 C 0.3522 1.01845 0.27989 0.0
C5108 C 0.36457 1.03247 0.30806 0.0
C5109 C 0.36644 0.10502 0.31597 0.0
C5110 C 0.37377 0.07956 0.31035 0.0
C5111 C 0.36714 1.01185 0.28938 0.0
C5112 C 0.37472 1.03319 0.29718 0.0
H5113 H 0.34536 0.16693 0.30904 0.0
H5114 H 0.3672 0.12948 0.30096 0.0
H5115 H 0.35322 1.05421 0.32233 0.0
H5116 H 0.35571 0.94546 0.29004 0.0
H5117 H 0.38081 0.97953 0.29985 0.0
C5118 C 0.24283 0.09046 0.57806 0.0
C5119 C 0.23213 0.06849 0.57245 0.0
C5120 C 0.2638 0.10481 0.57337 0.0
C5121 C 0.30433 0.11115 0.54732 0.0
H5122 H 0.36353 0.11054 0.56788 0.0
C5123 C 0.40736 0.09216 0.53054 0.0
C5124 C 0.41854 0.07006 0.536 0.0
C5125 C 0.38706 0.1067 0.5356 0.0
C5126 C 0.34719 0.11123 0.56202 0.0
H5127 H 0.23456 1.0451 0.5573 0.0
H5128 H 0.27049 0.06985 0.5492 0.0
H5129 H 0.31866 0.10877 0.57513 0.0
H5130 H 0.41828 1.0471 0.55137 0.0
H5131 H 0.38328 0.072 0.56007 0.0
H5132 H 0.33279 0.11041 0.5342 0.0
C5133 C 0.26255 0.07652 0.55711 0.0
C5134 C 0.32139 0.11052 0.56619 0.0
C5135 C 0.24185 1.06216 0.5618 0.0
C5136 C 0.41044 0.06416 0.54694 0.0
C5137 C 0.39028 0.07864 0.55199 0.0
C5138 C 0.3301 0.11148 0.54315 0.0
C5139 C 0.2743 0.09754 0.56295 0.0
C5140 C 0.29981 0.10843 0.55885 0.0
C5141 C 0.37756 0.0994 0.54622 0.0
C5142 C 0.3518 0.10945 0.55047 0.0
H5143 H 0.23549 0.09616 0.5862 0.0
H5144 H 0.27235 0.121 0.57805 0.0
H5145 H 0.288 0.11039 0.54147 0.0
H5146 H 0.41357 0.09756 0.52218 0.0
H5147 H 0.37793 0.12282 0.53099 0.0
C5148 C 0.28305 0.16429 0.79194 0.0
C5149 C 0.29893 0.15735 0.78273 0.0
C5150 C 0.26872 0.14492 0.79771 0.0
C5151 C 0.24645 0.07516 0.7978 0.0
H5152 H 0.28206 0.07137 0.82637 0.0
C5153 C 0.27637 0.97663 0.81748 0.0
C5154 C 0.28717 0.97613 0.82834 0.0
C5155 C 0.26511 0.99981 0.81312 0.0
C5156 C 0.27093 0.07205 0.81866 0.0
H5157 H 0.3102 0.12465 0.77192 0.0
H5158 H 0.2846 0.09147 0.78172 0.0
H5159 H 0.2836 0.1118 0.81574 0.0
H5160 H 0.28969 0.99945 0.84366 0.0
H5161 H 0.26738 1.03763 0.83657 0.0
H5162 H 0.23397 1.03525 0.80062 0.0
C5163 C 0.28331 0.11187 0.78447 0.0
C5164 C 0.27198 0.0955 0.81252 0.0
C5165 C 0.29805 0.13105 0.77884 0.0
C5166 C 0.28241 0.99833 0.83521 0.0
C5167 C 0.26995 1.02096 0.83101 0.0
C5168 C 0.24473 1.05179 0.8041 0.0
C5169 C 0.26949 0.11839 0.79423 0.0
C5170 C 0.261 0.09681 0.80179 0.0
C5171 C 0.26311 1.02286 0.81966 0.0
C5172 C 0.25831 1.04936 0.81435 0.0
H5173 H 0.28258 0.18444 0.795 0.0
H5174 H 0.25814 0.15038 0.80523 0.0
H5175 H 0.23764 0.07584 0.78955 0.0
H5176 H 0.27776 0.95969 0.81202 0.0
H5177 H 0.25976 0.99991 0.80438 0.0
C5178 C 0.2228 1.05644 1.04625 0.0
C5179 C 0.21409 1.04956 1.03551 0.0
C5180 C 0.24373 1.04293 1.05126 0.0
C5181 C 0.30404 1.00936 1.04271 0.0
H5182 H 0.31587 1.01342 0.07463 0.0
C5183 C 0.39505 1.05546 0.06058 0.0
C5184 C 0.40359 1.05041 0.07156 0.0
C5185 C 0.37399 1.04145 0.05603 0.0
C5186 C 0.31305 1.0113 0.06571 0.0
H5187 H 0.21923 1.02162 1.02197 0.0
H5188 H 0.25613 0.99791 1.03075 0.0
H5189 H 0.27096 1.0125 0.06746 0.0
H5190 H 0.39802 1.02499 0.08601 0.0
H5191 H 0.36082 1.0005 0.07804 0.0
H5192 H 0.34613 1.00879 1.04095 0.0
C5193 C 0.24685 1.01405 1.03522 0.0
C5194 C 0.2872 1.01114 0.06159 0.0
C5195 C 0.22579 1.02768 1.03018 0.0
C5196 C 0.39161 1.02969 0.0776 0.0
C5197 C 0.37038 1.0156 0.07303 0.0
C5198 C 0.32988 1.00904 1.04685 0.0
C5199 C 0.25664 1.02211 1.04568 0.0
C5200 C 0.28248 1.01232 1.05002 0.0
C5201 C 0.36074 1.02199 0.06232 0.0
C5202 C 0.33466 1.01217 0.05834 0.0
H5203 H 0.21463 0.07345 1.05054 0.0
H5204 H 0.25097 1.0502 0.05918 0.0
H5205 H 0.30126 1.00993 1.03375 0.0
H5206 H 0.40339 0.07154 0.05572 0.0
H5207 H 0.36689 1.04743 1.04787 0.0
C5208 C 0.77745 0.95929 0.7919 0.0
C5209 C 0.79299 0.96596 0.78254 0.0
C5210 C 0.7639 0.97895 0.7978 0.0
C5211 C 0.77029 1.02772 0.81255 0.0
H5212 H 0.73324 0.08983 0.80148 0.0
C5213 C 0.78647 0.12372 0.83522 0.0
C5214 C 0.79104 0.14601 0.82833 0.0
C5215 C 0.77291 0.10166 0.83122 0.0
C5216 C 0.74377 0.07277 0.80473 0.0
H5217 H 0.80402 0.99843 0.77148 0.0
H5218 H 0.77973 1.03214 0.78151 0.0
H5219 H 0.73434 1.04953 0.79028 0.0
H5220 H 0.78028 0.16343 0.81228 0.0
H5221 H 0.76024 0.12413 0.8049 0.0
H5222 H 0.78266 1.05095 0.82624 0.0
C5223 C 0.7782 1.01174 0.78431 0.0
C5224 C 0.74402 1.04956 0.79835 0.0
C5225 C 0.79218 0.99226 0.77854 0.0
C5226 C 0.77899 0.14631 0.81771 0.0
C5227 C 0.76659 0.12369 0.81352 0.0
C5228 C 0.77072 1.051 0.81875 0.0
C5229 C 0.76509 1.00551 0.7943 0.0
C5230 C 0.75815 1.0272 0.80204 0.0
C5231 C 0.7647 0.10044 0.82002 0.0
C5232 C 0.75847 0.07432 0.81473 0.0
H5233 H 0.77691 0.93914 0.79504 0.0
H5234 H 0.7538 0.97367 0.80547 0.0
H5235 H 0.78165 1.01087 0.81552 0.0
H5236 H 0.79472 0.12208 0.84351 0.0
H5237 H 0.77052 0.08487 0.83678 0.0
C5238 C 0.72426 1.01931 0.57643 0.0
C5239 C 0.71185 1.04024 0.57062 0.0
C5240 C 0.74538 1.00547 0.57159 0.0
C5241 C 0.78593 1.00174 0.54526 0.0
H5242 H 0.84439 1.009 0.56594 0.0
C5243 C 0.88741 1.03373 0.5293 0.0
C5244 C 0.89582 1.05654 0.53501 0.0
C5245 C 0.86811 1.01711 0.53396 0.0
C5246 C 0.82832 1.00649 0.56004 0.0
H5247 H 0.71093 1.06162 0.55484 0.0
H5248 H 0.74707 1.03794 0.54655 0.0
H5249 H 0.79971 1.00516 0.5731 0.0
H5250 H 0.89103 0.07918 0.55026 0.0
H5251 H 0.85794 1.05067 0.55826 0.0
H5252 H 0.81428 1.0065 0.5322 0.0
C5253 C 0.74049 1.03164 0.55474 0.0
C5254 C 0.80262 1.00393 0.56416 0.0
C5255 C 0.71958 1.04544 0.55956 0.0
C5256 C 0.88553 1.06156 0.54568 0.0
C5257 C 0.86648 1.04501 0.55033 0.0
C5258 C 0.81161 1.00481 0.54114 0.0
C5259 C 0.75446 1.01229 0.56085 0.0
C5260 C 0.78095 1.00374 0.55679 0.0
C5261 C 0.85697 1.02297 0.54442 0.0
C5262 C 0.83275 1.00938 0.54851 0.0
H5263 H 0.71842 1.01439 0.58489 0.0
H5264 H 0.75546 0.99041 0.57647 0.0
H5265 H 0.76972 1.00063 0.53936 0.0
H5266 H 0.89525 1.02905 0.52112 0.0
H5267 H 0.8613 1.00021 0.52922 0.0
C5268 C 0.82849 1.01713 0.3338 0.0
C5269 C 0.83083 0.99063 0.33047 0.0
C5270 C 0.84529 1.03637 0.32941 0.0
C5271 C 0.88106 1.04659 0.30312 0.0
H5272 H 0.8778 0.11806 0.31471 0.0
C5273 C 0.83466 0.12737 0.2785 0.0
C5274 C 0.83771 0.15426 0.28114 0.0
C5275 C 0.84968 0.10808 0.28391 0.0
C5276 C 0.87977 0.09834 0.31128 0.0
H5277 H 0.85442 0.96282 0.32098 0.0
H5278 H 0.8846 0.99632 0.31358 0.0
H5279 H 0.87808 0.08088 0.32753 0.0
H5280 H 0.86058 0.18223 0.29085 0.0
H5281 H 0.88717 0.14834 0.30034 0.0
H5282 H 0.88305 0.06407 0.28688 0.0
C5283 C 0.86914 1.00252 0.31925 0.0
C5284 C 0.87944 0.07686 0.31868 0.0
C5285 C 0.85193 0.98327 0.32351 0.0
C5286 C 0.8575 0.16158 0.28878 0.0
C5287 C 0.87275 0.14217 0.29419 0.0
C5288 C 0.88232 0.06805 0.29575 0.0
C5289 C 0.86511 1.02956 0.32165 0.0
C5290 C 0.87727 1.0508 0.31462 0.0
C5291 C 0.8683 0.11508 0.29213 0.0
C5292 C 0.8789 0.09406 0.29969 0.0
H5293 H 0.81231 1.02341 0.3391 0.0
H5294 H 0.84102 1.05683 0.33143 0.0
H5295 H 0.88014 1.02693 0.29956 0.0
H5296 H 0.81935 0.12093 0.2728 0.0
H5297 H 0.84505 0.08755 0.28221 0.0
C5298 C 0.89605 0.06408 0.06122 0.0
C5299 C 0.90538 0.07014 0.07196 0.0
C5300 C 0.87492 0.07805 0.0566 0.0
C5301 C 0.81515 0.11083 0.0661 0.0
H5302 H 0.80235 0.11131 1.03419 0.0
C5303 C 0.72215 0.06977 1.04738 0.0
C5304 C 0.71385 0.07666 1.03656 0.0
C5305 C 0.74369 0.08239 1.05227 0.0
C5306 C 0.80545 0.11214 1.04313 0.0
H5307 H 0.90114 0.09718 0.08588 0.0
H5308 H 0.8638 0.12156 0.0778 0.0
H5309 H 0.84746 0.11061 1.04113 0.0
H5310 H 0.72012 0.10398 1.0228 0.0
H5311 H 0.75797 0.12617 1.03137 0.0
H5312 H 0.77311 0.11164 0.0681 0.0
C5313 C 0.87279 0.10573 0.07303 0.0
C5314 C 0.83141 0.11139 1.04711 0.0
C5315 C 0.89409 0.0917 0.07767 0.0
C5316 C 0.72638 0.09789 1.03107 0.0
C5317 C 0.74801 0.11063 1.03599 0.0
C5318 C 0.78918 0.11197 0.06212 0.0
C5319 C 0.86242 0.09847 0.06258 0.0
C5320 C 0.83645 0.10873 0.0586 0.0
C5321 C 0.75755 0.1023 1.04647 0.0
C5322 C 0.78402 0.11064 1.05059 0.0
H5323 H 0.90388 1.04736 0.05663 0.0
H5324 H 0.86721 0.07144 1.04864 0.0
H5325 H 0.81823 0.10905 0.07502 0.0
H5326 H 0.71324 1.05328 1.05181 0.0
H5327 H 0.75064 0.07501 0.06025 0.0
C5328 C 0.84432 0.66022 0.81367 0.0
C5329 C 0.8283 0.65444 0.82299 0.0
C5330 C 0.8586 0.64006 0.80834 0.0
C5331 C 0.86045 0.58946 0.7943 0.0
H5332 H 0.88551 0.52713 0.81019 0.0
C5333 C 0.8516 0.48639 0.77488 0.0
C5334 C 0.83467 0.47095 0.78163 0.0
C5335 C 0.86426 0.50874 0.77924 0.0
C5336 C 0.87909 0.5445 0.80557 0.0
H5337 H 0.81597 0.62281 0.83424 0.0
H5338 H 0.84111 0.58847 0.82526 0.0
H5339 H 0.88436 0.56989 0.81966 0.0
H5340 H 0.81945 0.46628 0.7985 0.0
H5341 H 0.84206 0.50426 0.80605 0.0
H5342 H 0.85323 0.5637 0.7805 0.0
C5343 C 0.84295 0.60852 0.82209 0.0
C5344 C 0.8784 0.56894 0.81098 0.0
C5345 C 0.82844 0.62843 0.82728 0.0
C5346 C 0.83255 0.47721 0.79303 0.0
C5347 C 0.84557 0.49915 0.7974 0.0
C5348 C 0.86124 0.56501 0.78887 0.0
C5349 C 0.85747 0.61385 0.81235 0.0
C5350 C 0.86735 0.59125 0.80564 0.0
C5351 C 0.86076 0.51571 0.79048 0.0
C5352 C 0.8689 0.54202 0.79471 0.0
H5353 H 0.84514 0.6801 0.81025 0.0
H5354 H 0.86973 0.64474 0.80087 0.0
H5355 H 0.8518 0.60625 0.78996 0.0
H5356 H 0.85432 0.48185 0.76614 0.0
H5357 H 0.87598 0.52112 0.77374 0.0
C5358 C 0.89798 0.59624 1.02903 0.0
C5359 C 0.90892 0.57422 1.03463 0.0
C5360 C 0.8774 0.61083 1.03389 0.0
C5361 C 0.83683 0.61613 0.06011 0.0
H5362 H 0.77823 0.61834 1.03927 0.0
C5363 C 0.73157 0.60043 0.07591 0.0
C5364 C 0.71938 0.57954 0.07011 0.0
C5365 C 0.75326 0.61375 0.07127 0.0
C5366 C 0.7944 0.61815 1.04521 0.0
H5367 H 0.90764 0.55123 1.04999 0.0
H5368 H 0.87218 0.57617 0.05832 0.0
H5369 H 0.82317 0.61612 1.03222 0.0
H5370 H 0.71983 0.55722 0.05464 0.0
H5371 H 0.75707 0.58006 1.04667 0.0
H5372 H 0.80792 0.615 0.07308 0.0
C5373 C 0.87963 0.58277 1.0503 0.0
C5374 C 0.82029 0.61722 1.04116 0.0
C5375 C 0.90007 0.56828 1.04547 0.0
C5376 C 0.72829 0.57348 0.05931 0.0
C5377 C 0.74979 0.58675 0.05468 0.0
C5378 C 0.81092 0.61661 0.06415 0.0
C5379 C 0.86735 0.60364 1.04443 0.0
C5380 C 0.84169 0.61426 1.04857 0.0
C5381 C 0.76313 0.60646 0.06073 0.0
C5382 C 0.78941 0.61568 0.05672 0.0
H5383 H 0.90469 0.60162 1.02074 0.0
H5384 H 0.86862 0.62701 1.0292 0.0
H5385 H 0.85296 0.61478 0.06605 0.0
H5386 H 0.72491 0.60591 0.08418 0.0
H5387 H 0.76293 0.62903 0.0761 0.0
C5388 C 0.79834 0.49183 0.32681 0.0
C5389 C 0.79567 0.46492 0.32412 0.0
C5390 C 0.7831 0.51097 0.32143 0.0
C5391 C 0.75295 0.52098 0.29413 0.0
H5392 H 0.74911 0.59181 0.30636 0.0
C5393 C 0.79845 0.60662 0.27193 0.0
C5394 C 0.79373 0.63284 0.27522 0.0
C5395 C 0.78357 0.58595 0.27639 0.0
C5396 C 0.74916 0.57226 0.30268 0.0
H5397 H 0.7733 0.43677 0.31429 0.0
H5398 H 0.74638 0.47044 0.30482 0.0
H5399 H 0.74824 0.55402 0.3188 0.0
H5400 H 0.76794 0.65843 0.2848 0.0
H5401 H 0.74117 0.62232 0.29239 0.0
H5402 H 0.7538 0.5392 0.27801 0.0
C5403 C 0.76065 0.4767 0.31101 0.0
C5404 C 0.74907 0.55047 0.30989 0.0
C5405 C 0.77609 0.45743 0.3164 0.0
C5406 C 0.77225 0.63827 0.28229 0.0
C5407 C 0.75699 0.61755 0.28665 0.0
C5408 C 0.75224 0.54275 0.28689 0.0
C5409 C 0.76464 0.50381 0.31318 0.0
C5410 C 0.75354 0.5248 0.30575 0.0
C5411 C 0.76333 0.59099 0.2842 0.0
C5412 C 0.75292 0.56872 0.29114 0.0
H5413 H 0.8135 0.49839 0.33256 0.0
H5414 H 0.78736 0.53156 0.32319 0.0
H5415 H 0.75584 0.5015 0.29056 0.0
H5416 H 0.815 0.60181 0.26655 0.0
H5417 H 0.78956 0.56593 0.27437 0.0
C5418 C 0.73111 0.5219 0.53004 0.0
C5419 C 0.71796 0.54263 0.53559 0.0
C5420 C 0.75347 0.50994 0.53481 0.0
C5421 C 0.79568 0.50952 0.56061 0.0
H5422 H 0.85313 0.51411 0.53927 0.0
C5423 C 0.90031 0.53157 0.57578 0.0
C5424 C 0.91105 0.55361 0.57016 0.0
C5425 C 0.87926 0.51744 0.57111 0.0
C5426 C 0.83734 0.51246 0.54535 0.0
H5427 H 0.71704 0.56574 0.55084 0.0
H5428 H 0.7556 0.54524 0.55903 0.0
H5429 H 0.80781 0.51207 0.53261 0.0
H5430 H 0.90904 0.57711 0.55497 0.0
H5431 H 0.87257 0.55291 0.54694 0.0
H5432 H 0.82502 0.5128 0.57334 0.0
C5433 C 0.74863 0.53773 0.5511 0.0
C5434 C 0.81128 0.51093 0.54152 0.0
C5435 C 0.72639 0.54963 0.54636 0.0
C5436 C 0.90152 0.56006 0.55948 0.0
C5437 C 0.88054 0.54602 0.55483 0.0
C5438 C 0.82172 0.5114 0.56443 0.0
C5439 C 0.76309 0.5185 0.54521 0.0
C5440 C 0.79008 0.51117 0.54912 0.0
C5441 C 0.86853 0.52511 0.56075 0.0
C5442 C 0.84268 0.5146 0.55683 0.0
H5443 H 0.72479 0.5157 0.52182 0.0
H5444 H 0.76392 0.49489 0.53012 0.0
H5445 H 0.77982 0.50897 0.56668 0.0
H5446 H 0.90758 0.52582 0.58395 0.0
H5447 H 0.87071 0.5012 0.57581 0.0
C5448 C 0.27426 0.66054 0.31671 0.0
C5449 C 0.29049 0.65534 0.32603 0.0
C5450 C 0.26204 0.63975 0.31102 0.0
C5451 C 0.27174 0.5912 0.29653 0.0
H5452 H 0.24 0.5268 0.30803 0.0
C5453 C 0.29164 0.49617 0.27338 0.0
C5454 C 0.29791 0.47384 0.28003 0.0
C5455 C 0.27766 0.5176 0.27776 0.0
C5456 C 0.24905 0.54452 0.30467 0.0
H5457 H 0.30414 0.62418 0.33728 0.0
H5458 H 0.28219 0.58847 0.32759 0.0
H5459 H 0.23847 0.5673 0.31912 0.0
H5460 H 0.29001 0.4559 0.29629 0.0
H5461 H 0.26931 0.49428 0.30423 0.0
H5462 H 0.28522 0.56866 0.2828 0.0
C5463 C 0.27906 0.60859 0.32466 0.0
C5464 C 0.24779 0.5678 0.31098 0.0
C5465 C 0.29169 0.62923 0.33023 0.0
C5466 C 0.28741 0.47301 0.29094 0.0
C5467 C 0.27459 0.49507 0.29549 0.0
C5468 C 0.27366 0.56792 0.29038 0.0
C5469 C 0.26531 0.61348 0.31469 0.0
C5470 C 0.25995 0.59108 0.30711 0.0
C5471 C 0.27069 0.51825 0.2891 0.0
C5472 C 0.26328 0.54389 0.29454 0.0
H5473 H 0.27219 0.68047 0.31342 0.0
H5474 H 0.25139 0.644 0.30336 0.0
H5475 H 0.28165 0.60877 0.29342 0.0
H5476 H 0.29863 0.49838 0.26492 0.0
H5477 H 0.27379 0.53434 0.27231 0.0
C5478 C 0.40378 0.55805 1.04525 0.0
C5479 C 0.41241 0.55165 1.03445 0.0
C5480 C 0.38295 0.54429 1.05018 0.0
C5481 C 0.32267 0.5118 1.04119 0.0
H5482 H 0.31031 0.51355 0.07311 0.0
C5483 C 0.23003 0.555 0.05955 0.0
C5484 C 0.22134 0.54836 0.07034 0.0
C5485 C 0.25175 0.54219 0.05485 0.0
C5486 C 0.3133 0.51212 0.06418 0.0
H5487 H 0.40751 0.52404 1.02077 0.0
H5488 H 0.3708 0.49998 1.02939 0.0
H5489 H 0.35536 0.51314 0.06608 0.0
H5490 H 0.22735 0.52145 0.08429 0.0
H5491 H 0.2656 0.49904 0.07606 0.0
H5492 H 0.2806 0.51152 1.03929 0.0
C5493 C 0.38001 0.51596 1.03397 0.0
C5494 C 0.33922 0.51222 0.06014 0.0
C5495 C 0.40097 0.52979 1.02902 0.0
C5496 C 0.23387 0.52734 0.07603 0.0
C5497 C 0.25571 0.51446 0.07131 0.0
C5498 C 0.29676 0.51132 1.04523 0.0
C5499 C 0.3701 0.52373 1.04444 0.0
C5500 C 0.34412 0.51406 1.04861 0.0
C5501 C 0.26543 0.52236 0.06081 0.0
C5502 C 0.29179 0.51347 0.05675 0.0
H5503 H 0.41176 0.57497 1.04964 0.0
H5504 H 0.37566 0.55126 0.05815 0.0
H5505 H 0.3256 0.51297 1.03225 0.0
H5506 H 0.2212 0.57134 0.05498 0.0
H5507 H 0.25888 0.54928 1.04686 0.0
C5508 C 0.33892 0.62235 0.77247 0.0
C5509 C 0.34385 0.64852 0.77585 0.0
C5510 C 0.35238 0.60122 0.77737 0.0
C5511 C 0.37994 0.58597 0.80472 0.0
H5512 H 0.37649 0.51575 0.79182 0.0
C5513 C 0.32697 0.50336 0.82642 0.0
C5514 C 0.33144 0.4766 0.82385 0.0
C5515 C 0.34226 0.52317 0.82154 0.0
C5516 C 0.37838 0.53506 0.79564 0.0
H5517 H 0.36886 0.67316 0.78621 0.0
H5518 H 0.39266 0.63604 0.7948 0.0
H5519 H 0.38178 0.55401 0.77972 0.0
H5520 H 0.35664 0.44948 0.81472 0.0
H5521 H 0.38369 0.48429 0.80618 0.0
H5522 H 0.37635 0.56705 0.82063 0.0
C5523 C 0.37791 0.6319 0.78848 0.0
C5524 C 0.38106 0.55713 0.78866 0.0
C5525 C 0.36427 0.65317 0.78358 0.0
C5526 C 0.35252 0.47 0.81672 0.0
C5527 C 0.36803 0.48992 0.81186 0.0
C5528 C 0.37793 0.56388 0.81172 0.0
C5529 C 0.37122 0.60558 0.78582 0.0
C5530 C 0.37947 0.58292 0.79305 0.0
C5531 C 0.36259 0.51683 0.81398 0.0
C5532 C 0.37478 0.53838 0.8072 0.0
H5533 H 0.32309 0.61786 0.76669 0.0
H5534 H 0.34618 0.58139 0.77518 0.0
H5535 H 0.37907 0.60542 0.80849 0.0
H5536 H 0.31062 0.5092 0.83172 0.0
H5537 H 0.33688 0.54357 0.8232 0.0
C5538 C 0.22843 0.59915 0.53011 0.0
C5539 C 0.21635 0.57779 0.5357 0.0
C5540 C 0.24986 0.61242 0.53496 0.0
C5541 C 0.29077 0.61527 0.56116 0.0
H5542 H 0.34934 0.61499 0.54032 0.0
C5543 C 0.39538 0.59531 0.57702 0.0
C5544 C 0.407 0.57411 0.57119 0.0
C5545 C 0.37414 0.60944 0.57237 0.0
C5546 C 0.3332 0.61546 0.54626 0.0
H5547 H 0.2166 0.55456 0.55101 0.0
H5548 H 0.2535 0.57723 0.55931 0.0
H5549 H 0.30433 0.61479 0.53327 0.0
H5550 H 0.40607 0.55206 0.55566 0.0
H5551 H 0.36956 0.57625 0.54768 0.0
H5552 H 0.31964 0.61282 0.57413 0.0
C5553 C 0.24632 0.58435 0.55132 0.0
C5554 C 0.30729 0.6157 0.54221 0.0
C5555 C 0.22503 0.57118 0.54651 0.0
C5556 C 0.39803 0.56853 0.56035 0.0
C5557 C 0.37696 0.58258 0.55572 0.0
C5558 C 0.31669 0.61458 0.56521 0.0
C5559 C 0.25963 0.60454 0.54547 0.0
C5560 C 0.2858 0.61371 0.54962 0.0
C5561 C 0.36412 0.60262 0.5618 0.0
C5562 C 0.33814 0.61278 0.55777 0.0
H5563 H 0.22192 0.60502 0.52185 0.0
H5564 H 0.25944 0.62811 0.53028 0.0
H5565 H 0.27462 0.61465 0.5671 0.0
H5566 H 0.40211 0.60041 0.58533 0.0
H5567 H 0.3649 0.62498 0.57722 0.0
loop_
_geom_bond_atom_site_label_1
_geom_bond_atom_site_label_2
_geom_bond_distance
_geom_bond_site_symmetry_2
_ccdc_geom_bond_type
Tb0 N29 2.617 . S
Tb0 N35 2.572 . S
Tb0 O44 2.465 . S
Tb0 O45 2.387 . S
Tb0 O47 2.428 . S
Tb0 O48 2.308 . S
Tb0 O52 2.349 . S
Tb0 O55 2.393 . S
Tb0 C64 2.802 . S
C1 N2 1.379 . S
C1 C4 1.416 . S
C1 C8 1.424 . S
N2 C1 1.379 . S
N2 C5 1.334 . S
N2 Tb11 2.617 . S
C3 C5 1.390 . S
C3 C6 1.339 . S
C3 H23 0.930 . S
C4 C1 1.416 . S
C4 C6 1.416 . S
C4 C10 1.448 . S
C5 N2 1.334 . S
C5 C3 1.390 . S
C5 H16 0.930 . S
C6 C3 1.339 . S
C6 C4 1.416 . S
C6 H27 0.930 . S
C7 C8 1.413 . S
C7 C9 1.427 . S
C7 C13 1.416 . S
C8 C1 1.424 . S
C8 C7 1.413 . S
C8 N12 1.361 . S
C9 C7 1.427 . S
C9 C10 1.328 . S
C9 H24 0.929 . S
C10 C4 1.448 . S
C10 C9 1.328 . S
C10 H25 0.930 . S
Tb11 N2 2.617 . S
Tb11 N12 2.572 . S
Tb11 O46 2.349 . S
Tb11 O49 2.393 . S
Tb11 O50 2.465 . S
Tb11 O51 2.387 . S
Tb11 O53 2.428 . S
Tb11 O54 2.308 . S
Tb11 C75 2.802 . S
N12 C8 1.361 . S
N12 Tb11 2.572 . S
N12 C14 1.340 . S
C13 C7 1.416 . S
C13 C15 1.332 . S
C13 H21 0.931 . S
C14 N12 1.340 . S
C14 C15 1.407 . S
C14 H20 0.930 . S
C15 C13 1.332 . S
C15 C14 1.407 . S
C15 H17 0.929 . S
H16 C5 0.930 . S
H17 C15 0.929 . S
H18 C33 0.930 . S
H19 C40 0.929 . S
H20 C14 0.930 . S
H21 C13 0.931 . S
H22 C36 0.930 . S
H23 C3 0.930 . S
H24 C9 0.929 . S
H25 C10 0.930 . S
H26 C31 0.930 . S
H27 C6 0.930 . S
H28 C39 0.931 . S
N29 Tb0 2.617 . S
N29 C30 1.379 . S
N29 C33 1.334 . S
C30 N29 1.379 . S
C30 C32 1.416 . S
C30 C38 1.424 . S
C31 H26 0.930 . S
C31 C33 1.390 . S
C31 C34 1.339 . S
C32 C30 1.416 . S
C32 C34 1.416 . S
C32 C65 1.448 . S
C33 H18 0.930 . S
C33 N29 1.334 . S
C33 C31 1.390 . S
C34 C31 1.339 . S
C34 C32 1.416 . S
C34 H41 0.930 . S
N35 Tb0 2.572 . S
N35 C36 1.340 . S
N35 C38 1.361 . S
C36 H22 0.930 . S
C36 N35 1.340 . S
C36 C40 1.407 . S
C37 C38 1.413 . S
C37 C39 1.416 . S
C37 C66 1.427 . S
C38 C30 1.424 . S
C38 N35 1.361 . S
C38 C37 1.413 . S
C39 H28 0.931 . S
C39 C37 1.416 . S
C39 C40 1.332 . S
C40 H19 0.929 . S
C40 C36 1.407 . S
C40 C39 1.332 . S
H41 C34 0.930 . S
H42 C65 0.930 . S
H43 C66 0.929 . S
O44 Tb0 2.465 . S
O44 C64 1.264 . S
O45 Tb0 2.387 . S
O45 C56 1.264 . S
O46 Tb11 2.349 . S
O46 C56 1.243 . S
O47 Tb0 2.428 . S
O47 C64 1.256 . S
O48 Tb0 2.308 . S
O48 C63 1.266 . S
O49 Tb11 2.393 . S
O49 C63 1.248 . S
O50 Tb11 2.465 . S
O50 C75 1.264 . S
O51 Tb11 2.387 . S
O51 C67 1.264 . S
O52 Tb0 2.349 . S
O52 C67 1.243 . S
O53 Tb11 2.428 . S
O53 C75 1.256 . S
O54 Tb11 2.308 . S
O54 C74 1.266 . S
O55 Tb0 2.393 . S
O55 C74 1.248 . S
C56 O45 1.264 . S
C56 O46 1.243 . S
C57 C60 1.399 . S
C57 C62 1.383 . S
C57 C64 1.496 . S
C58 C59 1.399 . S
C58 C62 1.389 . S
C59 C58 1.399 . S
C59 C61 1.380 . S
C59 H76 0.929 . S
C60 C57 1.399 . S
C60 C61 1.392 . S
C60 H77 0.929 . S
C61 C59 1.380 . S
C61 C60 1.392 . S
C61 H78 0.929 . S
C62 C57 1.383 . S
C62 C58 1.389 . S
C62 H79 0.931 . S
C63 O48 1.266 . S
C63 O49 1.248 . S
C64 Tb0 2.802 . S
C64 O44 1.264 . S
C64 O47 1.256 . S
C64 C57 1.496 . S
C65 C32 1.448 . S
C65 H42 0.930 . S
C65 C66 1.328 . S
C66 C37 1.427 . S
C66 H43 0.929 . S
C66 C65 1.328 . S
C67 O51 1.264 . S
C67 O52 1.243 . S
C68 C71 1.399 . S
C68 C72 1.383 . S
C68 C75 1.496 . S
C69 C70 1.399 . S
C69 C72 1.389 . S
C70 C69 1.399 . S
C70 C73 1.380 . S
C70 H80 0.929 . S
C71 C68 1.399 . S
C71 C73 1.392 . S
C71 H81 0.929 . S
C72 C68 1.383 . S
C72 C69 1.389 . S
C72 H82 0.931 . S
C73 C70 1.380 . S
C73 C71 1.392 . S
C73 H83 0.929 . S
C74 O54 1.266 . S
C74 O55 1.248 . S
C75 Tb11 2.802 . S
C75 O50 1.264 . S
C75 O53 1.256 . S
C75 C68 1.496 . S
H76 C59 0.929 . S
H77 C60 0.929 . S
H78 C61 0.929 . S
H79 C62 0.931 . S
H80 C70 0.929 . S
H81 C71 0.929 . S
H82 C72 0.931 . S
H83 C73 0.929 . S
Tb84 N113 2.617 . S
Tb84 N119 2.572 . S
Tb84 O128 2.465 . S
Tb84 O129 2.387 . S
Tb84 O131 2.428 . S
Tb84 O132 2.308 . S
Tb84 O136 2.349 . S
Tb84 O139 2.393 . S
Tb84 C148 2.802 . S
C85 N86 1.391 1_655 S
C85 C88 1.372 1_565 S
C85 C92 1.457 . S
N86 C85 1.391 1_455 S
N86 C89 1.334 1_565 S
N86 Tb95 2.617 . S
C87 C89 1.390 . S
C87 C90 1.339 . S
C87 H107 0.930 . S
C88 C85 1.372 1_545 S
C88 C90 1.416 1_655 S
C88 C94 1.448 . S
C89 N86 1.334 1_545 S
C89 C87 1.390 . S
C89 H100 0.930 . S
C90 C87 1.339 . S
C90 C88 1.416 1_455 S
C90 H111 0.929 1_455 S
C91 C92 1.413 . S
C91 C93 1.427 1_565 S
C91 C97 1.416 . S
C92 C85 1.457 . S
C92 C91 1.413 . S
C92 N96 1.361 . S
C93 C91 1.427 1_545 S
C93 C94 1.328 . S
C93 H108 0.929 . S
C94 C88 1.448 . S
C94 C93 1.328 . S
C94 H109 0.930 . S
Tb95 N86 2.617 . S
Tb95 N96 2.572 1_455 S
Tb95 O130 2.349 . S
Tb95 O133 2.393 . S
Tb95 O134 2.465 . S
Tb95 O135 2.387 . S
Tb95 O137 2.428 . S
Tb95 O138 2.308 . S
Tb95 C159 2.802 . S
N96 C92 1.361 . S
N96 Tb95 2.572 1_655 S
N96 C98 1.340 . S
C97 C91 1.416 . S
C97 C99 1.332 . S
C97 H105 0.931 . S
C98 N96 1.340 . S
C98 C99 1.407 . S
C98 H104 0.930 . S
C99 C97 1.332 . S
C99 C98 1.407 . S
C99 H101 0.929 . S
H100 C89 0.930 . S
H101 C99 0.929 . S
H102 C117 0.930 . S
H103 C124 0.929 . S
H104 C98 0.930 . S
H105 C97 0.931 . S
H106 C120 0.930 . S
H107 C87 0.930 . S
H108 C93 0.929 . S
H109 C94 0.930 . S
H110 C115 0.930 . S
H111 C90 0.929 1_655 S
H112 C123 0.931 . S
N113 Tb84 2.617 . S
N113 C114 1.379 . S
N113 C117 1.334 . S
C114 N113 1.379 . S
C114 C116 1.416 . S
C114 C122 1.424 . S
C115 H110 0.930 . S
C115 C117 1.390 . S
C115 C118 1.339 . S
C116 C114 1.416 . S
C116 C118 1.416 . S
C116 C149 1.448 . S
C117 H102 0.930 . S
C117 N113 1.334 . S
C117 C115 1.390 . S
C118 C115 1.339 . S
C118 C116 1.416 . S
C118 H125 0.930 . S
N119 Tb84 2.572 . S
N119 C120 1.340 . S
N119 C122 1.361 . S
C120 H106 0.930 . S
C120 N119 1.340 . S
C120 C124 1.407 . S
C121 C122 1.413 . S
C121 C123 1.416 . S
C121 C150 1.427 . S
C122 C114 1.424 . S
C122 N119 1.361 . S
C122 C121 1.413 . S
C123 H112 0.931 . S
C123 C121 1.416 . S
C123 C124 1.332 . S
C124 H103 0.929 . S
C124 C120 1.407 . S
C124 C123 1.332 . S
H125 C118 0.930 . S
H126 C149 0.930 . S
H127 C150 0.929 . S
O128 Tb84 2.465 . S
O128 C148 1.264 . S
O129 Tb84 2.387 . S
O129 C140 1.264 . S
O130 Tb95 2.349 . S
O130 C140 1.243 . S
O131 Tb84 2.428 . S
O131 C148 1.256 . S
O132 Tb84 2.308 . S
O132 C147 1.266 . S
O133 Tb95 2.393 . S
O133 C147 1.248 . S
O134 Tb95 2.465 . S
O134 C159 1.264 . S
O135 Tb95 2.387 . S
O135 C151 1.264 . S
O136 Tb84 2.349 . S
O136 C151 1.243 . S
O137 Tb95 2.428 . S
O137 C159 1.256 . S
O138 Tb95 2.308 . S
O138 C158 1.266 . S
O139 Tb84 2.393 . S
O139 C158 1.248 . S
C140 O129 1.264 . S
C140 O130 1.243 . S
C141 C144 1.399 . S
C141 C146 1.383 . S
C141 C148 1.496 . S
C142 C143 1.399 . S
C142 C146 1.389 . S
C143 C142 1.399 . S
C143 C145 1.380 . S
C143 H160 0.929 . S
C144 C141 1.399 . S
C144 C145 1.392 . S
C144 H161 0.929 . S
C145 C143 1.380 . S
C145 C144 1.392 . S
C145 H162 0.929 . S
C146 C141 1.383 . S
C146 C142 1.389 . S
C146 H163 0.931 . S
C147 O132 1.266 . S
C147 O133 1.248 . S
C148 Tb84 2.802 . S
C148 O128 1.264 . S
C148 O131 1.256 . S
C148 C141 1.496 . S
C149 C116 1.448 . S
C149 H126 0.930 . S
C149 C150 1.328 . S
C150 C121 1.427 . S
C150 H127 0.929 . S
C150 C149 1.328 . S
C151 O135 1.264 . S
C151 O136 1.243 . S
C152 C155 1.399 . S
C152 C156 1.383 . S
C152 C159 1.496 1_655 S
C153 C154 1.399 . S
C153 C156 1.389 . S
C154 C153 1.399 . S
C154 C157 1.380 . S
C154 H164 0.929 . S
C155 C152 1.399 . S
C155 C157 1.392 . S
C155 H165 0.929 . S
C156 C152 1.383 . S
C156 C153 1.389 . S
C156 H166 0.931 . S
C157 C154 1.380 . S
C157 C155 1.392 . S
C157 H167 0.929 . S
C158 O138 1.266 . S
C158 O139 1.248 . S
C159 Tb95 2.802 . S
C159 O134 1.264 . S
C159 O137 1.256 . S
C159 C152 1.496 1_455 S
H160 C143 0.929 . S
H161 C144 0.929 . S
H162 C145 0.929 . S
H163 C146 0.931 . S
H164 C154 0.929 . S
H165 C155 0.929 . S
H166 C156 0.931 . S
H167 C157 0.929 . S
Tb168 N197 2.617 . S
Tb168 N203 2.572 . S
Tb168 O212 2.465 . S
Tb168 O213 2.387 . S
Tb168 O215 2.428 . S
Tb168 O216 2.308 . S
Tb168 O220 2.349 . S
Tb168 O223 2.393 . S
Tb168 C232 2.802 . S
C169 N170 1.379 . S
C169 C172 1.416 . S
C169 C176 1.424 . S
N170 C169 1.379 . S
N170 C173 1.334 . S
N170 Tb179 2.617 . S
C171 C173 1.390 . S
C171 C174 1.339 . S
C171 H191 0.930 . S
C172 C169 1.416 . S
C172 C174 1.416 . S
C172 C178 1.448 . S
C173 N170 1.334 . S
C173 C171 1.390 . S
C173 H184 0.930 . S
C174 C171 1.339 . S
C174 C172 1.416 . S
C174 H195 0.930 . S
C175 C176 1.413 . S
C175 C177 1.427 . S
C175 C181 1.416 . S
C176 C169 1.424 . S
C176 C175 1.413 . S
C176 N180 1.361 . S
C177 C175 1.427 . S
C177 C178 1.328 . S
C177 H192 0.929 . S
C178 C172 1.448 . S
C178 C177 1.328 . S
C178 H193 0.930 . S
Tb179 N170 2.617 . S
Tb179 N180 2.572 . S
Tb179 O214 2.349 . S
Tb179 O217 2.393 . S
Tb179 O218 2.465 . S
Tb179 O219 2.387 . S
Tb179 O221 2.428 . S
Tb179 O222 2.308 . S
Tb179 C243 2.802 . S
N180 C176 1.361 . S
N180 Tb179 2.572 . S
N180 C182 1.340 . S
C181 C175 1.416 . S
C181 C183 1.332 . S
C181 H189 0.931 . S
C182 N180 1.340 . S
C182 C183 1.407 . S
C182 H188 0.930 . S
C183 C181 1.332 . S
C183 C182 1.407 . S
C183 H185 0.929 . S
H184 C173 0.930 . S
H185 C183 0.929 . S
H186 C201 0.930 . S
H187 C208 0.929 . S
H188 C182 0.930 . S
H189 C181 0.931 . S
H190 C204 0.930 . S
H191 C171 0.930 . S
H192 C177 0.929 . S
H193 C178 0.930 . S
H194 C199 0.930 . S
H195 C174 0.930 . S
H196 C207 0.931 . S
N197 Tb168 2.617 . S
N197 C198 1.379 . S
N197 C201 1.334 . S
C198 N197 1.379 . S
C198 C200 1.416 . S
C198 C206 1.424 . S
C199 H194 0.930 . S
C199 C201 1.390 . S
C199 C202 1.339 . S
C200 C198 1.416 . S
C200 C202 1.416 . S
C200 C233 1.448 . S
C201 H186 0.930 . S
C201 N197 1.334 . S
C201 C199 1.390 . S
C202 C199 1.339 . S
C202 C200 1.416 . S
C202 H209 0.930 . S
N203 Tb168 2.572 . S
N203 C204 1.340 . S
N203 C206 1.361 . S
C204 H190 0.930 . S
C204 N203 1.340 . S
C204 C208 1.407 . S
C205 C206 1.413 . S
C205 C207 1.416 . S
C205 C234 1.427 . S
C206 C198 1.424 . S
C206 N203 1.361 . S
C206 C205 1.413 . S
C207 H196 0.931 . S
C207 C205 1.416 . S
C207 C208 1.332 . S
C208 H187 0.929 . S
C208 C204 1.407 . S
C208 C207 1.332 . S
H209 C202 0.930 . S
H210 C233 0.930 . S
H211 C234 0.929 . S
O212 Tb168 2.465 . S
O212 C232 1.264 . S
O213 Tb168 2.387 . S
O213 C224 1.264 . S
O214 Tb179 2.349 . S
O214 C224 1.243 . S
O215 Tb168 2.428 . S
O215 C232 1.256 . S
O216 Tb168 2.308 . S
O216 C231 1.266 . S
O217 Tb179 2.393 . S
O217 C231 1.248 . S
O218 Tb179 2.465 . S
O218 C243 1.264 . S
O219 Tb179 2.387 . S
O219 C235 1.264 . S
O220 Tb168 2.349 . S
O220 C235 1.243 . S
O221 Tb179 2.428 . S
O221 C243 1.256 . S
O222 Tb179 2.308 . S
O222 C242 1.266 . S
O223 Tb168 2.393 . S
O223 C242 1.248 . S
C224 O213 1.264 . S
C224 O214 1.243 . S
C225 C228 1.399 . S
C225 C230 1.383 . S
C225 C232 1.496 . S
C226 C227 1.399 . S
C226 C230 1.389 . S
C227 C226 1.399 . S
C227 C229 1.380 . S
C227 H244 0.929 . S
C228 C225 1.399 . S
C228 C229 1.392 . S
C228 H245 0.929 . S
C229 C227 1.380 . S
C229 C228 1.392 . S
C229 H246 0.929 . S
C230 C225 1.383 . S
C230 C226 1.389 . S
C230 H247 0.931 . S
C231 O216 1.266 . S
C231 O217 1.248 . S
C232 Tb168 2.802 . S
C232 O212 1.264 . S
C232 O215 1.256 . S
C232 C225 1.496 . S
C233 C200 1.448 . S
C233 H210 0.930 . S
C233 C234 1.328 . S
C234 C205 1.427 . S
C234 H211 0.929 . S
C234 C233 1.328 . S
C235 O219 1.264 . S
C235 O220 1.243 . S
C236 C239 1.399 . S
C236 C240 1.383 . S
C236 C243 1.496 . S
C237 C238 1.399 . S
C237 C240 1.389 . S
C238 C237 1.399 . S
C238 C241 1.380 . S
C238 H248 0.929 . S
C239 C236 1.399 . S
C239 C241 1.392 . S
C239 H249 0.929 . S
C240 C236 1.383 . S
C240 C237 1.389 . S
C240 H250 0.931 . S
C241 C238 1.380 . S
C241 C239 1.392 . S
C241 H251 0.929 . S
C242 O222 1.266 . S
C242 O223 1.248 . S
C243 Tb179 2.802 . S
C243 O218 1.264 . S
C243 O221 1.256 . S
C243 C236 1.496 . S
H244 C227 0.929 . S
H245 C228 0.929 . S
H246 C229 0.929 . S
H247 C230 0.931 . S
H248 C238 0.929 . S
H249 C239 0.929 . S
H250 C240 0.931 . S
H251 C241 0.929 . S
Tb252 N281 2.617 . S
Tb252 N287 2.572 . S
Tb252 O296 2.465 . S
Tb252 O297 2.387 . S
Tb252 O299 2.428 . S
Tb252 O300 2.308 . S
Tb252 O304 2.349 . S
Tb252 O307 2.393 . S
Tb252 C316 2.802 . S
C253 N254 1.391 . S
C253 C256 1.372 1_545 S
C253 C260 1.457 . S
N254 C253 1.391 . S
N254 C257 1.334 1_545 S
N254 Tb263 2.617 . S
C255 C257 1.390 . S
C255 C258 1.339 . S
C255 H275 0.930 . S
C256 C253 1.372 1_565 S
C256 C258 1.416 . S
C256 C262 1.448 . S
C257 N254 1.334 1_565 S
C257 C255 1.390 . S
C257 H268 0.930 . S
C258 C255 1.339 . S
C258 C256 1.416 . S
C258 H279 0.930 . S
C259 C260 1.413 . S
C259 C261 1.427 1_545 S
C259 C265 1.416 . S
C260 C253 1.457 . S
C260 C259 1.413 . S
C260 N264 1.361 . S
C261 C259 1.427 1_565 S
C261 C262 1.328 . S
C261 H276 0.929 . S
C262 C256 1.448 . S
C262 C261 1.328 . S
C262 H277 0.930 . S
Tb263 N254 2.617 . S
Tb263 N264 2.572 . S
Tb263 O298 2.349 . S
Tb263 O301 2.393 . S
Tb263 O302 2.465 . S
Tb263 O303 2.387 . S
Tb263 O305 2.428 . S
Tb263 O306 2.308 . S
Tb263 C327 2.802 . S
N264 C260 1.361 . S
N264 Tb263 2.572 . S
N264 C266 1.340 . S
C265 C259 1.416 . S
C265 C267 1.332 . S
C265 H273 0.931 . S
C266 N264 1.340 . S
C266 C267 1.407 . S
C266 H272 0.930 . S
C267 C265 1.332 . S
C267 C266 1.407 . S
C267 H269 0.929 . S
H268 C257 0.930 . S
H269 C267 0.929 . S
H270 C285 0.930 . S
H271 C292 0.929 . S
H272 C266 0.930 . S
H273 C265 0.931 . S
H274 C288 0.930 . S
H275 C255 0.930 . S
H276 C261 0.929 . S
H277 C262 0.930 . S
H278 C283 0.930 . S
H279 C258 0.930 . S
H280 C291 0.931 . S
N281 Tb252 2.617 . S
N281 C282 1.379 . S
N281 C285 1.334 . S
C282 N281 1.379 . S
C282 C284 1.416 . S
C282 C290 1.424 . S
C283 H278 0.930 . S
C283 C285 1.390 . S
C283 C286 1.339 . S
C284 C282 1.416 . S
C284 C286 1.416 . S
C284 C317 1.448 . S
C285 H270 0.930 . S
C285 N281 1.334 . S
C285 C283 1.390 . S
C286 C283 1.339 . S
C286 C284 1.416 . S
C286 H293 0.930 . S
N287 Tb252 2.572 . S
N287 C288 1.340 . S
N287 C290 1.361 . S
C288 H274 0.930 . S
C288 N287 1.340 . S
C288 C292 1.407 . S
C289 C290 1.413 . S
C289 C291 1.416 . S
C289 C318 1.427 . S
C290 C282 1.424 . S
C290 N287 1.361 . S
C290 C289 1.413 . S
C291 H280 0.931 . S
C291 C289 1.416 . S
C291 C292 1.332 . S
C292 H271 0.929 . S
C292 C288 1.407 . S
C292 C291 1.332 . S
H293 C286 0.930 . S
H294 C317 0.930 . S
H295 C318 0.929 . S
O296 Tb252 2.465 . S
O296 C316 1.264 . S
O297 Tb252 2.387 . S
O297 C308 1.264 . S
O298 Tb263 2.349 . S
O298 C308 1.243 . S
O299 Tb252 2.428 . S
O299 C316 1.256 . S
O300 Tb252 2.308 . S
O300 C315 1.266 . S
O301 Tb263 2.393 . S
O301 C315 1.248 . S
O302 Tb263 2.465 . S
O302 C327 1.264 . S
O303 Tb263 2.387 . S
O303 C319 1.264 . S
O304 Tb252 2.349 . S
O304 C319 1.243 . S
O305 Tb263 2.428 . S
O305 C327 1.256 . S
O306 Tb263 2.308 . S
O306 C326 1.266 . S
O307 Tb252 2.393 . S
O307 C326 1.248 . S
C308 O297 1.264 . S
C308 O298 1.243 . S
C309 C312 1.399 . S
C309 C314 1.383 . S
C309 C316 1.496 . S
C310 C311 1.399 . S
C310 C314 1.389 . S
C311 C310 1.399 . S
C311 C313 1.380 . S
C311 H328 0.929 . S
C312 C309 1.399 . S
C312 C313 1.392 . S
C312 H329 0.929 . S
C313 C311 1.380 . S
C313 C312 1.392 . S
C313 H330 0.929 . S
C314 C309 1.383 . S
C314 C310 1.389 . S
C314 H331 0.931 . S
C315 O300 1.266 . S
C315 O301 1.248 . S
C316 Tb252 2.802 . S
C316 O296 1.264 . S
C316 O299 1.256 . S
C316 C309 1.496 . S
C317 C284 1.448 . S
C317 H294 0.930 . S
C317 C318 1.328 . S
C318 C289 1.427 . S
C318 H295 0.929 . S
C318 C317 1.328 . S
C319 O303 1.264 . S
C319 O304 1.243 . S
C320 C323 1.399 . S
C320 C324 1.383 . S
C320 C327 1.496 . S
C321 C322 1.399 . S
C321 C324 1.389 . S
C322 C321 1.399 . S
C322 C325 1.380 . S
C322 H332 0.929 . S
C323 C320 1.399 . S
C323 C325 1.392 . S
C323 H333 0.929 . S
C324 C320 1.383 . S
C324 C321 1.389 . S
C324 H334 0.931 . S
C325 C322 1.380 . S
C325 C323 1.392 . S
C325 H335 0.929 . S
C326 O306 1.266 . S
C326 O307 1.248 . S
C327 Tb263 2.802 . S
C327 O302 1.264 . S
C327 O305 1.256 . S
C327 C320 1.496 . S
H328 C311 0.929 . S
H329 C312 0.929 . S
H330 C313 0.929 . S
H331 C314 0.931 . S
H332 C322 0.929 . S
H333 C323 0.929 . S
H334 C324 0.931 . S
H335 C325 0.929 . S
Tb336 N365 2.617 . S
Tb336 N371 2.572 . S
Tb336 O380 2.465 . S
Tb336 O381 2.387 . S
Tb336 O383 2.428 . S
Tb336 O384 2.308 . S
Tb336 O388 2.349 . S
Tb336 O391 2.393 . S
Tb336 C400 2.802 . S
C337 N338 1.379 . S
C337 C340 1.416 . S
C337 C344 1.424 . S
N338 C337 1.379 . S
N338 C341 1.334 . S
N338 Tb347 2.617 . S
C339 C341 1.390 . S
C339 C342 1.339 . S
C339 H359 0.930 . S
C340 C337 1.416 . S
C340 C342 1.416 . S
C340 C346 1.448 . S
C341 N338 1.334 . S
C341 C339 1.390 . S
C341 H352 0.930 . S
C342 C339 1.339 . S
C342 C340 1.416 . S
C342 H363 0.930 . S
C343 C344 1.413 . S
C343 C345 1.427 . S
C343 C349 1.416 . S
C344 C337 1.424 . S
C344 C343 1.413 . S
C344 N348 1.361 . S
C345 C343 1.427 . S
C345 C346 1.328 . S
C345 H360 0.929 . S
C346 C340 1.448 . S
C346 C345 1.328 . S
C346 H361 0.930 . S
Tb347 N338 2.617 . S
Tb347 N348 2.572 . S
Tb347 O382 2.349 . S
Tb347 O385 2.393 . S
Tb347 O386 2.465 . S
Tb347 O387 2.387 . S
Tb347 O389 2.428 . S
Tb347 O390 2.308 . S
Tb347 C411 2.802 . S
N348 C344 1.361 . S
N348 Tb347 2.572 . S
N348 C350 1.340 . S
C349 C343 1.416 . S
C349 C351 1.332 . S
C349 H357 0.931 . S
C350 N348 1.340 . S
C350 C351 1.407 . S
C350 H356 0.930 . S
C351 C349 1.332 . S
C351 C350 1.407 . S
C351 H353 0.929 . S
H352 C341 0.930 . S
H353 C351 0.929 . S
H354 C369 0.930 . S
H355 C376 0.929 . S
H356 C350 0.930 . S
H357 C349 0.931 . S
H358 C372 0.930 . S
H359 C339 0.930 . S
H360 C345 0.929 . S
H361 C346 0.930 . S
H362 C367 0.930 . S
H363 C342 0.930 . S
H364 C375 0.931 . S
N365 Tb336 2.617 . S
N365 C366 1.379 . S
N365 C369 1.334 . S
C366 N365 1.379 . S
C366 C368 1.416 . S
C366 C374 1.424 . S
C367 H362 0.930 . S
C367 C369 1.390 . S
C367 C370 1.339 . S
C368 C366 1.416 . S
C368 C370 1.416 . S
C368 C401 1.448 . S
C369 H354 0.930 . S
C369 N365 1.334 . S
C369 C367 1.390 . S
C370 C367 1.339 . S
C370 C368 1.416 . S
C370 H377 0.930 . S
N371 Tb336 2.572 . S
N371 C372 1.340 . S
N371 C374 1.361 . S
C372 H358 0.930 . S
C372 N371 1.340 . S
C372 C376 1.407 . S
C373 C374 1.413 . S
C373 C375 1.416 . S
C373 C402 1.427 . S
C374 C366 1.424 . S
C374 N371 1.361 . S
C374 C373 1.413 . S
C375 H364 0.931 . S
C375 C373 1.416 . S
C375 C376 1.332 . S
C376 H355 0.929 . S
C376 C372 1.407 . S
C376 C375 1.332 . S
H377 C370 0.930 . S
H378 C401 0.930 . S
H379 C402 0.929 . S
O380 Tb336 2.465 . S
O380 C400 1.264 . S
O381 Tb336 2.387 . S
O381 C392 1.264 . S
O382 Tb347 2.349 . S
O382 C392 1.243 . S
O383 Tb336 2.428 . S
O383 C400 1.256 . S
O384 Tb336 2.308 . S
O384 C399 1.266 . S
O385 Tb347 2.393 . S
O385 C399 1.248 . S
O386 Tb347 2.465 . S
O386 C411 1.264 . S
O387 Tb347 2.387 . S
O387 C403 1.264 . S
O388 Tb336 2.349 . S
O388 C403 1.243 . S
O389 Tb347 2.428 . S
O389 C411 1.256 . S
O390 Tb347 2.308 . S
O390 C410 1.266 . S
O391 Tb336 2.393 . S
O391 C410 1.248 . S
C392 O381 1.264 . S
C392 O382 1.243 . S
C393 C396 1.399 . S
C393 C398 1.383 . S
C393 C400 1.496 . S
C394 C395 1.399 . S
C394 C398 1.389 . S
C395 C394 1.399 . S
C395 C397 1.380 . S
C395 H412 0.929 . S
C396 C393 1.399 . S
C396 C397 1.392 . S
C396 H413 0.929 . S
C397 C395 1.380 . S
C397 C396 1.392 . S
C397 H414 0.929 . S
C398 C393 1.383 . S
C398 C394 1.389 . S
C398 H415 0.931 . S
C399 O384 1.266 . S
C399 O385 1.248 . S
C400 Tb336 2.802 . S
C400 O380 1.264 . S
C400 O383 1.256 . S
C400 C393 1.496 . S
C401 C368 1.448 . S
C401 H378 0.930 . S
C401 C402 1.328 . S
C402 C373 1.427 . S
C402 H379 0.929 . S
C402 C401 1.328 . S
C403 O387 1.264 . S
C403 O388 1.243 . S
C404 C407 1.399 . S
C404 C408 1.383 . S
C404 C411 1.496 . S
C405 C406 1.399 . S
C405 C408 1.389 . S
C406 C405 1.399 . S
C406 C409 1.380 . S
C406 H416 0.929 . S
C407 C404 1.399 . S
C407 C409 1.392 . S
C407 H417 0.929 . S
C408 C404 1.383 . S
C408 C405 1.389 . S
C408 H418 0.931 . S
C409 C406 1.380 . S
C409 C407 1.392 . S
C409 H419 0.929 . S
C410 O390 1.266 . S
C410 O391 1.248 . S
C411 Tb347 2.802 . S
C411 O386 1.264 . S
C411 O389 1.256 . S
C411 C404 1.496 . S
H412 C395 0.929 . S
H413 C396 0.929 . S
H414 C397 0.929 . S
H415 C398 0.931 . S
H416 C406 0.929 . S
H417 C407 0.929 . S
H418 C408 0.931 . S
H419 C409 0.929 . S
Tb420 N449 2.617 . S
Tb420 N455 2.572 . S
Tb420 O464 2.465 . S
Tb420 O465 2.387 . S
Tb420 O467 2.428 . S
Tb420 O468 2.308 . S
Tb420 O472 2.349 . S
Tb420 O475 2.393 . S
Tb420 C484 2.802 . S
C421 N422 1.391 . S
C421 C424 1.372 1_565 S
C421 C428 1.457 . S
N422 C421 1.391 . S
N422 C425 1.334 1_565 S
N422 Tb431 2.617 . S
C423 C425 1.390 . S
C423 C426 1.339 . S
C423 H443 0.930 . S
C424 C421 1.372 1_545 S
C424 C426 1.416 . S
C424 C430 1.448 . S
C425 N422 1.334 1_545 S
C425 C423 1.390 . S
C425 H436 0.930 . S
C426 C423 1.339 . S
C426 C424 1.416 . S
C426 H447 0.930 . S
C427 C428 1.413 . S
C427 C429 1.427 1_565 S
C427 C433 1.416 . S
C428 C421 1.457 . S
C428 C427 1.413 . S
C428 N432 1.361 . S
C429 C427 1.427 1_545 S
C429 C430 1.328 . S
C429 H444 0.929 . S
C430 C424 1.448 . S
C430 C429 1.328 . S
C430 H445 0.930 . S
Tb431 N422 2.617 . S
Tb431 N432 2.572 . S
Tb431 O466 2.349 . S
Tb431 O469 2.393 . S
Tb431 O470 2.465 . S
Tb431 O471 2.387 . S
Tb431 O473 2.428 . S
Tb431 O474 2.308 . S
Tb431 C495 2.802 . S
N432 C428 1.361 . S
N432 Tb431 2.572 . S
N432 C434 1.340 . S
C433 C427 1.416 . S
C433 C435 1.332 . S
C433 H441 0.931 . S
C434 N432 1.340 . S
C434 C435 1.407 . S
C434 H440 0.930 . S
C435 C433 1.332 . S
C435 C434 1.407 . S
C435 H437 0.929 . S
H436 C425 0.930 . S
H437 C435 0.929 . S
H438 C453 0.930 . S
H439 C460 0.929 . S
H440 C434 0.930 . S
H441 C433 0.931 . S
H442 C456 0.930 . S
H443 C423 0.930 . S
H444 C429 0.929 . S
H445 C430 0.930 . S
H446 C451 0.930 . S
H447 C426 0.930 . S
H448 C459 0.931 . S
N449 Tb420 2.617 . S
N449 C450 1.379 . S
N449 C453 1.334 . S
C450 N449 1.379 . S
C450 C452 1.416 . S
C450 C458 1.424 . S
C451 H446 0.930 . S
C451 C453 1.390 . S
C451 C454 1.339 . S
C452 C450 1.416 . S
C452 C454 1.416 . S
C452 C485 1.448 . S
C453 H438 0.930 . S
C453 N449 1.334 . S
C453 C451 1.390 . S
C454 C451 1.339 . S
C454 C452 1.416 . S
C454 H461 0.930 . S
N455 Tb420 2.572 . S
N455 C456 1.340 . S
N455 C458 1.361 . S
C456 H442 0.930 . S
C456 N455 1.340 . S
C456 C460 1.407 . S
C457 C458 1.413 . S
C457 C459 1.416 . S
C457 C486 1.427 . S
C458 C450 1.424 . S
C458 N455 1.361 . S
C458 C457 1.413 . S
C459 H448 0.931 . S
C459 C457 1.416 . S
C459 C460 1.332 . S
C460 H439 0.929 . S
C460 C456 1.407 . S
C460 C459 1.332 . S
H461 C454 0.930 . S
H462 C485 0.930 . S
H463 C486 0.929 . S
O464 Tb420 2.465 . S
O464 C484 1.264 . S
O465 Tb420 2.387 . S
O465 C476 1.264 . S
O466 Tb431 2.349 . S
O466 C476 1.243 . S
O467 Tb420 2.428 . S
O467 C484 1.256 . S
O468 Tb420 2.308 . S
O468 C483 1.266 . S
O469 Tb431 2.393 . S
O469 C483 1.248 . S
O470 Tb431 2.465 . S
O470 C495 1.264 . S
O471 Tb431 2.387 . S
O471 C487 1.264 . S
O472 Tb420 2.349 . S
O472 C487 1.243 . S
O473 Tb431 2.428 . S
O473 C495 1.256 . S
O474 Tb431 2.308 . S
O474 C494 1.266 . S
O475 Tb420 2.393 . S
O475 C494 1.248 . S
C476 O465 1.264 . S
C476 O466 1.243 . S
C477 C480 1.399 . S
C477 C482 1.383 . S
C477 C484 1.496 . S
C478 C479 1.399 . S
C478 C482 1.389 . S
C479 C478 1.399 . S
C479 C481 1.380 . S
C479 H496 0.929 . S
C480 C477 1.399 . S
C480 C481 1.392 . S
C480 H497 0.929 . S
C481 C479 1.380 . S
C481 C480 1.392 . S
C481 H498 0.929 . S
C482 C477 1.383 . S
C482 C478 1.389 . S
C482 H499 0.931 . S
C483 O468 1.266 . S
C483 O469 1.248 . S
C484 Tb420 2.802 . S
C484 O464 1.264 . S
C484 O467 1.256 . S
C484 C477 1.496 . S
C485 C452 1.448 . S
C485 H462 0.930 . S
C485 C486 1.328 . S
C486 C457 1.427 . S
C486 H463 0.929 . S
C486 C485 1.328 . S
C487 O471 1.264 . S
C487 O472 1.243 . S
C488 C491 1.399 . S
C488 C492 1.383 . S
C488 C495 1.496 . S
C489 C490 1.399 . S
C489 C492 1.389 . S
C490 C489 1.399 . S
C490 C493 1.380 . S
C490 H500 0.929 . S
C491 C488 1.399 . S
C491 C493 1.392 . S
C491 H501 0.929 . S
C492 C488 1.383 . S
C492 C489 1.389 . S
C492 H502 0.931 . S
C493 C490 1.380 . S
C493 C491 1.392 . S
C493 H503 0.929 . S
C494 O474 1.266 . S
C494 O475 1.248 . S
C495 Tb431 2.802 . S
C495 O470 1.264 . S
C495 O473 1.256 . S
C495 C488 1.496 . S
H496 C479 0.929 . S
H497 C480 0.929 . S
H498 C481 0.929 . S
H499 C482 0.931 . S
H500 C490 0.929 . S
H501 C491 0.929 . S
H502 C492 0.931 . S
H503 C493 0.929 . S
Tb504 N533 2.617 . S
Tb504 N539 2.572 . S
Tb504 O548 2.465 . S
Tb504 O549 2.387 . S
Tb504 O551 2.428 . S
Tb504 O552 2.308 . S
Tb504 O556 2.349 . S
Tb504 O559 2.393 . S
Tb504 C568 2.802 . S
C505 N506 1.379 . S
C505 C508 1.416 . S
C505 C512 1.424 . S
N506 C505 1.379 . S
N506 C509 1.334 . S
N506 Tb515 2.617 . S
C507 C509 1.390 . S
C507 C510 1.339 . S
C507 H527 0.930 . S
C508 C505 1.416 . S
C508 C510 1.416 . S
C508 C514 1.448 . S
C509 N506 1.334 . S
C509 C507 1.390 . S
C509 H520 0.930 . S
C510 C507 1.339 . S
C510 C508 1.416 . S
C510 H531 0.930 . S
C511 C512 1.413 . S
C511 C513 1.427 . S
C511 C517 1.416 . S
C512 C505 1.424 . S
C512 C511 1.413 . S
C512 N516 1.361 . S
C513 C511 1.427 . S
C513 C514 1.328 . S
C513 H528 0.929 . S
C514 C508 1.448 . S
C514 C513 1.328 . S
C514 H529 0.930 . S
Tb515 N506 2.617 . S
Tb515 N516 2.572 . S
Tb515 O550 2.349 . S
Tb515 O553 2.393 . S
Tb515 O554 2.465 . S
Tb515 O555 2.387 . S
Tb515 O557 2.428 . S
Tb515 O558 2.308 . S
Tb515 C579 2.802 . S
N516 C512 1.361 . S
N516 Tb515 2.572 . S
N516 C518 1.340 . S
C517 C511 1.416 . S
C517 C519 1.332 . S
C517 H525 0.931 . S
C518 N516 1.340 . S
C518 C519 1.407 . S
C518 H524 0.930 . S
C519 C517 1.332 . S
C519 C518 1.407 . S
C519 H521 0.929 . S
H520 C509 0.930 . S
H521 C519 0.929 . S
H522 C537 0.930 . S
H523 C544 0.929 . S
H524 C518 0.930 . S
H525 C517 0.931 . S
H526 C540 0.930 . S
H527 C507 0.930 . S
H528 C513 0.929 . S
H529 C514 0.930 . S
H530 C535 0.930 . S
H531 C510 0.930 . S
H532 C543 0.931 . S
N533 Tb504 2.617 . S
N533 C534 1.379 . S
N533 C537 1.334 . S
C534 N533 1.379 . S
C534 C536 1.416 . S
C534 C542 1.424 . S
C535 H530 0.930 . S
C535 C537 1.390 . S
C535 C538 1.339 . S
C536 C534 1.416 . S
C536 C538 1.416 . S
C536 C569 1.448 . S
C537 H522 0.930 . S
C537 N533 1.334 . S
C537 C535 1.390 . S
C538 C535 1.339 . S
C538 C536 1.416 . S
C538 H545 0.930 . S
N539 Tb504 2.572 . S
N539 C540 1.340 . S
N539 C542 1.361 . S
C540 H526 0.930 . S
C540 N539 1.340 . S
C540 C544 1.407 . S
C541 C542 1.413 . S
C541 C543 1.416 . S
C541 C570 1.427 . S
C542 C534 1.424 . S
C542 N539 1.361 . S
C542 C541 1.413 . S
C543 H532 0.931 . S
C543 C541 1.416 . S
C543 C544 1.332 . S
C544 H523 0.929 . S
C544 C540 1.407 . S
C544 C543 1.332 . S
H545 C538 0.930 . S
H546 C569 0.930 . S
H547 C570 0.929 . S
O548 Tb504 2.465 . S
O548 C568 1.264 . S
O549 Tb504 2.387 . S
O549 C560 1.264 . S
O550 Tb515 2.349 . S
O550 C560 1.243 . S
O551 Tb504 2.428 . S
O551 C568 1.256 . S
O552 Tb504 2.308 . S
O552 C567 1.266 . S
O553 Tb515 2.393 . S
O553 C567 1.248 . S
O554 Tb515 2.465 . S
O554 C579 1.264 . S
O555 Tb515 2.387 . S
O555 C571 1.264 . S
O556 Tb504 2.349 . S
O556 C571 1.243 . S
O557 Tb515 2.428 . S
O557 C579 1.256 . S
O558 Tb515 2.308 . S
O558 C578 1.266 . S
O559 Tb504 2.393 . S
O559 C578 1.248 . S
C560 O549 1.264 . S
C560 O550 1.243 . S
C561 C564 1.399 . S
C561 C566 1.383 . S
C561 C568 1.496 . S
C562 C563 1.399 . S
C562 C566 1.389 . S
C563 C562 1.399 . S
C563 C565 1.380 . S
C563 H580 0.929 . S
C564 C561 1.399 . S
C564 C565 1.392 . S
C564 H581 0.929 . S
C565 C563 1.380 . S
C565 C564 1.392 . S
C565 H582 0.929 . S
C566 C561 1.383 . S
C566 C562 1.389 . S
C566 H583 0.931 . S
C567 O552 1.266 . S
C567 O553 1.248 . S
C568 Tb504 2.802 . S
C568 O548 1.264 . S
C568 O551 1.256 . S
C568 C561 1.496 . S
C569 C536 1.448 . S
C569 H546 0.930 . S
C569 C570 1.328 . S
C570 C541 1.427 . S
C570 H547 0.929 . S
C570 C569 1.328 . S
C571 O555 1.264 . S
C571 O556 1.243 . S
C572 C575 1.399 . S
C572 C576 1.383 . S
C572 C579 1.496 . S
C573 C574 1.399 . S
C573 C576 1.389 . S
C574 C573 1.399 . S
C574 C577 1.380 . S
C574 H584 0.929 . S
C575 C572 1.399 . S
C575 C577 1.392 . S
C575 H585 0.929 . S
C576 C572 1.383 . S
C576 C573 1.389 . S
C576 H586 0.931 . S
C577 C574 1.380 . S
C577 C575 1.392 . S
C577 H587 0.929 . S
C578 O558 1.266 . S
C578 O559 1.248 . S
C579 Tb515 2.802 . S
C579 O554 1.264 . S
C579 O557 1.256 . S
C579 C572 1.496 . S
H580 C563 0.929 . S
H581 C564 0.929 . S
H582 C565 0.929 . S
H583 C566 0.931 . S
H584 C574 0.929 . S
H585 C575 0.929 . S
H586 C576 0.931 . S
H587 C577 0.929 . S
Tb588 N617 2.617 . S
Tb588 N623 2.572 . S
Tb588 O632 2.465 . S
Tb588 O633 2.387 . S
Tb588 O635 2.428 . S
Tb588 O636 2.308 . S
Tb588 O640 2.349 . S
Tb588 O643 2.393 . S
Tb588 C652 2.802 . S
C589 N590 1.391 1_655 S
C589 C592 1.372 1_545 S
C589 C596 1.457 . S
N590 C589 1.391 1_455 S
N590 C593 1.334 1_545 S
N590 Tb599 2.617 . S
C591 C593 1.390 . S
C591 C594 1.339 . S
C591 H611 0.930 . S
C592 C589 1.372 1_565 S
C592 C594 1.416 1_655 S
C592 C598 1.448 . S
C593 N590 1.334 1_565 S
C593 C591 1.390 . S
C593 H604 0.930 . S
C594 C591 1.339 . S
C594 C592 1.416 1_455 S
C594 H615 0.929 1_455 S
C595 C596 1.413 . S
C595 C597 1.427 1_545 S
C595 C601 1.416 . S
C596 C589 1.457 . S
C596 C595 1.413 . S
C596 N600 1.361 . S
C597 C595 1.427 1_565 S
C597 C598 1.328 . S
C597 H612 0.929 . S
C598 C592 1.448 . S
C598 C597 1.328 . S
C598 H613 0.930 . S
Tb599 N590 2.617 . S
Tb599 N600 2.572 1_455 S
Tb599 O634 2.349 . S
Tb599 O637 2.393 . S
Tb599 O638 2.465 . S
Tb599 O639 2.387 . S
Tb599 O641 2.428 . S
Tb599 O642 2.308 . S
Tb599 C663 2.802 . S
N600 C596 1.361 . S
N600 Tb599 2.572 1_655 S
N600 C602 1.340 . S
C601 C595 1.416 . S
C601 C603 1.332 . S
C601 H609 0.931 . S
C602 N600 1.340 . S
C602 C603 1.407 . S
C602 H608 0.930 . S
C603 C601 1.332 . S
C603 C602 1.407 . S
C603 H605 0.929 . S
H604 C593 0.930 . S
H605 C603 0.929 . S
H606 C621 0.930 . S
H607 C628 0.929 . S
H608 C602 0.930 . S
H609 C601 0.931 . S
H610 C624 0.930 . S
H611 C591 0.930 . S
H612 C597 0.929 . S
H613 C598 0.930 . S
H614 C619 0.930 . S
H615 C594 0.929 1_655 S
H616 C627 0.931 . S
N617 Tb588 2.617 . S
N617 C618 1.379 . S
N617 C621 1.334 . S
C618 N617 1.379 . S
C618 C620 1.416 . S
C618 C626 1.424 . S
C619 H614 0.930 . S
C619 C621 1.390 . S
C619 C622 1.339 . S
C620 C618 1.416 . S
C620 C622 1.416 . S
C620 C653 1.448 . S
C621 H606 0.930 . S
C621 N617 1.334 . S
C621 C619 1.390 . S
C622 C619 1.339 . S
C622 C620 1.416 . S
C622 H629 0.930 . S
N623 Tb588 2.572 . S
N623 C624 1.340 . S
N623 C626 1.361 . S
C624 H610 0.930 . S
C624 N623 1.340 . S
C624 C628 1.407 . S
C625 C626 1.413 . S
C625 C627 1.416 . S
C625 C654 1.427 . S
C626 C618 1.424 . S
C626 N623 1.361 . S
C626 C625 1.413 . S
C627 H616 0.931 . S
C627 C625 1.416 . S
C627 C628 1.332 . S
C628 H607 0.929 . S
C628 C624 1.407 . S
C628 C627 1.332 . S
H629 C622 0.930 . S
H630 C653 0.930 . S
H631 C654 0.929 . S
O632 Tb588 2.465 . S
O632 C652 1.264 . S
O633 Tb588 2.387 . S
O633 C644 1.264 . S
O634 Tb599 2.349 . S
O634 C644 1.243 . S
O635 Tb588 2.428 . S
O635 C652 1.256 . S
O636 Tb588 2.308 . S
O636 C651 1.266 . S
O637 Tb599 2.393 . S
O637 C651 1.248 . S
O638 Tb599 2.465 . S
O638 C663 1.264 . S
O639 Tb599 2.387 . S
O639 C655 1.264 . S
O640 Tb588 2.349 . S
O640 C655 1.243 . S
O641 Tb599 2.428 . S
O641 C663 1.256 . S
O642 Tb599 2.308 . S
O642 C662 1.266 . S
O643 Tb588 2.393 . S
O643 C662 1.248 . S
C644 O633 1.264 . S
C644 O634 1.243 . S
C645 C648 1.399 . S
C645 C650 1.383 . S
C645 C652 1.496 . S
C646 C647 1.399 . S
C646 C650 1.389 . S
C647 C646 1.399 . S
C647 C649 1.380 . S
C647 H664 0.929 . S
C648 C645 1.399 . S
C648 C649 1.392 . S
C648 H665 0.929 . S
C649 C647 1.380 . S
C649 C648 1.392 . S
C649 H666 0.929 . S
C650 C645 1.383 . S
C650 C646 1.389 . S
C650 H667 0.931 . S
C651 O636 1.266 . S
C651 O637 1.248 . S
C652 Tb588 2.802 . S
C652 O632 1.264 . S
C652 O635 1.256 . S
C652 C645 1.496 . S
C653 C620 1.448 . S
C653 H630 0.930 . S
C653 C654 1.328 . S
C654 C625 1.427 . S
C654 H631 0.929 . S
C654 C653 1.328 . S
C655 O639 1.264 . S
C655 O640 1.243 . S
C656 C659 1.399 . S
C656 C660 1.383 . S
C656 C663 1.496 1_655 S
C657 C658 1.399 . S
C657 C660 1.389 . S
C658 C657 1.399 . S
C658 C661 1.380 . S
C658 H668 0.929 . S
C659 C656 1.399 . S
C659 C661 1.392 . S
C659 H669 0.929 . S
C660 C656 1.383 . S
C660 C657 1.389 . S
C660 H670 0.931 . S
C661 C658 1.380 . S
C661 C659 1.392 . S
C661 H671 0.929 . S
C662 O642 1.266 . S
C662 O643 1.248 . S
C663 Tb599 2.802 . S
C663 O638 1.264 . S
C663 O641 1.256 . S
C663 C656 1.496 1_455 S
H664 C647 0.929 . S
H665 C648 0.929 . S
H666 C649 0.929 . S
H667 C650 0.931 . S
H668 C658 0.929 . S
H669 C659 0.929 . S
H670 C660 0.931 . S
H671 C661 0.929 . S
Tb672 N701 2.617 . S
Tb672 N707 2.572 . S
Tb672 O716 2.465 . S
Tb672 O717 2.387 . S
Tb672 O719 2.428 . S
Tb672 O720 2.308 . S
Tb672 O724 2.349 . S
Tb672 O727 2.393 . S
Tb672 C736 2.802 . S
C673 N674 1.379 . S
C673 C676 1.416 . S
C673 C680 1.424 . S
N674 C673 1.379 . S
N674 C677 1.334 . S
N674 Tb683 2.617 . S
C675 C677 1.390 . S
C675 C678 1.339 . S
C675 H695 0.930 . S
C676 C673 1.416 . S
C676 C678 1.416 . S
C676 C682 1.448 . S
C677 N674 1.334 . S
C677 C675 1.390 . S
C677 H688 0.930 . S
C678 C675 1.339 . S
C678 C676 1.416 . S
C678 H699 0.930 . S
C679 C680 1.413 . S
C679 C681 1.427 . S
C679 C685 1.416 . S
C680 C673 1.424 . S
C680 C679 1.413 . S
C680 N684 1.361 . S
C681 C679 1.427 . S
C681 C682 1.328 . S
C681 H696 0.929 . S
C682 C676 1.448 . S
C682 C681 1.328 . S
C682 H697 0.930 . S
Tb683 N674 2.617 . S
Tb683 N684 2.572 . S
Tb683 O718 2.349 . S
Tb683 O721 2.393 . S
Tb683 O722 2.465 . S
Tb683 O723 2.387 . S
Tb683 O725 2.428 . S
Tb683 O726 2.308 . S
Tb683 C747 2.802 . S
N684 C680 1.361 . S
N684 Tb683 2.572 . S
N684 C686 1.340 . S
C685 C679 1.416 . S
C685 C687 1.332 . S
C685 H693 0.931 . S
C686 N684 1.340 . S
C686 C687 1.407 . S
C686 H692 0.930 . S
C687 C685 1.332 . S
C687 C686 1.407 . S
C687 H689 0.929 . S
H688 C677 0.930 . S
H689 C687 0.929 . S
H690 C705 0.930 . S
H691 C712 0.929 . S
H692 C686 0.930 . S
H693 C685 0.931 . S
H694 C708 0.930 . S
H695 C675 0.930 . S
H696 C681 0.929 . S
H697 C682 0.930 . S
H698 C703 0.930 . S
H699 C678 0.930 . S
H700 C711 0.931 . S
N701 Tb672 2.617 . S
N701 C702 1.379 . S
N701 C705 1.334 . S
C702 N701 1.379 . S
C702 C704 1.416 . S
C702 C710 1.424 . S
C703 H698 0.930 . S
C703 C705 1.390 . S
C703 C706 1.339 . S
C704 C702 1.416 . S
C704 C706 1.416 . S
C704 C737 1.448 . S
C705 H690 0.930 . S
C705 N701 1.334 . S
C705 C703 1.390 . S
C706 C703 1.339 . S
C706 C704 1.416 . S
C706 H713 0.930 . S
N707 Tb672 2.572 . S
N707 C708 1.340 . S
N707 C710 1.361 . S
C708 H694 0.930 . S
C708 N707 1.340 . S
C708 C712 1.407 . S
C709 C710 1.413 . S
C709 C711 1.416 . S
C709 C738 1.427 . S
C710 C702 1.424 . S
C710 N707 1.361 . S
C710 C709 1.413 . S
C711 H700 0.931 . S
C711 C709 1.416 . S
C711 C712 1.332 . S
C712 H691 0.929 . S
C712 C708 1.407 . S
C712 C711 1.332 . S
H713 C706 0.930 . S
H714 C737 0.930 . S
H715 C738 0.929 . S
O716 Tb672 2.465 . S
O716 C736 1.264 . S
O717 Tb672 2.387 . S
O717 C728 1.264 . S
O718 Tb683 2.349 . S
O718 C728 1.243 . S
O719 Tb672 2.428 . S
O719 C736 1.256 . S
O720 Tb672 2.308 . S
O720 C735 1.266 . S
O721 Tb683 2.393 . S
O721 C735 1.248 . S
O722 Tb683 2.465 . S
O722 C747 1.264 . S
O723 Tb683 2.387 . S
O723 C739 1.264 . S
O724 Tb672 2.349 . S
O724 C739 1.243 . S
O725 Tb683 2.428 . S
O725 C747 1.256 . S
O726 Tb683 2.308 . S
O726 C746 1.266 . S
O727 Tb672 2.393 . S
O727 C746 1.248 . S
C728 O717 1.264 . S
C728 O718 1.243 . S
C729 C732 1.399 . S
C729 C734 1.383 . S
C729 C736 1.496 . S
C730 C731 1.399 . S
C730 C734 1.389 . S
C731 C730 1.399 . S
C731 C733 1.380 . S
C731 H748 0.929 . S
C732 C729 1.399 . S
C732 C733 1.392 . S
C732 H749 0.929 . S
C733 C731 1.380 . S
C733 C732 1.392 . S
C733 H750 0.929 . S
C734 C729 1.383 . S
C734 C730 1.389 . S
C734 H751 0.931 . S
C735 O720 1.266 . S
C735 O721 1.248 . S
C736 Tb672 2.802 . S
C736 O716 1.264 . S
C736 O719 1.256 . S
C736 C729 1.496 . S
C737 C704 1.448 . S
C737 H714 0.930 . S
C737 C738 1.328 . S
C738 C709 1.427 . S
C738 H715 0.929 . S
C738 C737 1.328 . S
C739 O723 1.264 . S
C739 O724 1.243 . S
C740 C743 1.399 . S
C740 C744 1.383 . S
C740 C747 1.496 . S
C741 C742 1.399 . S
C741 C744 1.389 . S
C742 C741 1.399 . S
C742 C745 1.380 . S
C742 H752 0.929 . S
C743 C740 1.399 . S
C743 C745 1.392 . S
C743 H753 0.929 . S
C744 C740 1.383 . S
C744 C741 1.389 . S
C744 H754 0.931 . S
C745 C742 1.380 . S
C745 C743 1.392 . S
C745 H755 0.929 . S
C746 O726 1.266 . S
C746 O727 1.248 . S
C747 Tb683 2.802 . S
C747 O722 1.264 . S
C747 O725 1.256 . S
C747 C740 1.496 . S
H748 C731 0.929 . S
H749 C732 0.929 . S
H750 C733 0.929 . S
H751 C734 0.931 . S
H752 C742 0.929 . S
H753 C743 0.929 . S
H754 C744 0.931 . S
H755 C745 0.929 . S
Tb756 N785 2.617 . S
Tb756 N791 2.572 1_655 S
Tb756 O800 2.465 . S
Tb756 O801 2.387 . S
Tb756 O803 2.428 . S
Tb756 O804 2.308 . S
Tb756 O808 2.349 . S
Tb756 O811 2.393 . S
Tb756 C820 2.802 . S
C757 N758 1.379 . S
C757 C760 1.416 . S
C757 C764 1.424 . S
N758 C757 1.379 . S
N758 C761 1.334 . S
N758 Tb767 2.617 . S
C759 C761 1.390 . S
C759 C762 1.339 . S
C759 H779 0.930 . S
C760 C757 1.416 . S
C760 C762 1.416 . S
C760 C766 1.448 . S
C761 N758 1.334 . S
C761 C759 1.390 . S
C761 H772 0.930 . S
C762 C759 1.339 . S
C762 C760 1.416 . S
C762 H783 0.930 . S
C763 C764 1.413 . S
C763 C765 1.427 . S
C763 C769 1.416 . S
C764 C757 1.424 . S
C764 C763 1.413 . S
C764 N768 1.361 . S
C765 C763 1.427 . S
C765 C766 1.328 . S
C765 H780 0.929 . S
C766 C760 1.448 . S
C766 C765 1.328 . S
C766 H781 0.930 . S
Tb767 N758 2.617 . S
Tb767 N768 2.572 . S
Tb767 O802 2.349 . S
Tb767 O805 2.393 . S
Tb767 O806 2.465 . S
Tb767 O807 2.387 . S
Tb767 O809 2.428 . S
Tb767 O810 2.308 . S
Tb767 C831 2.802 . S
N768 C764 1.361 . S
N768 Tb767 2.572 . S
N768 C770 1.340 . S
C769 C763 1.416 . S
C769 C771 1.332 . S
C769 H777 0.931 . S
C770 N768 1.340 . S
C770 C771 1.407 . S
C770 H776 0.930 . S
C771 C769 1.332 . S
C771 C770 1.407 . S
C771 H773 0.929 . S
H772 C761 0.930 . S
H773 C771 0.929 . S
H774 C789 0.930 . S
H775 C796 0.929 . S
H776 C770 0.930 . S
H777 C769 0.931 . S
H778 C792 0.930 . S
H779 C759 0.930 . S
H780 C765 0.929 . S
H781 C766 0.930 . S
H782 C787 0.930 . S
H783 C762 0.930 . S
H784 C795 0.931 . S
N785 Tb756 2.617 . S
N785 C786 1.391 1_655 S
N785 C789 1.334 1_545 S
C786 N785 1.391 1_455 S
C786 C788 1.372 1_545 S
C786 C794 1.457 . S
C787 H782 0.930 . S
C787 C789 1.390 . S
C787 C790 1.339 . S
C788 C786 1.372 1_565 S
C788 C790 1.416 1_455 S
C788 C821 1.448 . S
C789 H774 0.930 . S
C789 N785 1.334 1_565 S
C789 C787 1.390 . S
C790 C787 1.339 . S
C790 C788 1.416 1_655 S
C790 H797 0.929 1_655 S
N791 Tb756 2.572 1_455 S
N791 C792 1.340 . S
N791 C794 1.361 . S
C792 H778 0.930 . S
C792 N791 1.340 . S
C792 C796 1.407 . S
C793 C794 1.413 . S
C793 C795 1.416 . S
C793 C822 1.427 1_545 S
C794 C786 1.457 . S
C794 N791 1.361 . S
C794 C793 1.413 . S
C795 H784 0.931 . S
C795 C793 1.416 . S
C795 C796 1.332 . S
C796 H775 0.929 . S
C796 C792 1.407 . S
C796 C795 1.332 . S
H797 C790 0.929 1_455 S
H798 C821 0.930 . S
H799 C822 0.929 . S
O800 Tb756 2.465 . S
O800 C820 1.264 . S
O801 Tb756 2.387 . S
O801 C812 1.264 . S
O802 Tb767 2.349 . S
O802 C812 1.243 . S
O803 Tb756 2.428 . S
O803 C820 1.256 . S
O804 Tb756 2.308 . S
O804 C819 1.266 . S
O805 Tb767 2.393 . S
O805 C819 1.248 . S
O806 Tb767 2.465 . S
O806 C831 1.264 . S
O807 Tb767 2.387 . S
O807 C823 1.264 . S
O808 Tb756 2.349 . S
O808 C823 1.243 . S
O809 Tb767 2.428 . S
O809 C831 1.256 . S
O810 Tb767 2.308 . S
O810 C830 1.266 . S
O811 Tb756 2.393 . S
O811 C830 1.248 . S
C812 O801 1.264 . S
C812 O802 1.243 . S
C813 C816 1.399 . S
C813 C818 1.383 . S
C813 C820 1.496 1_455 S
C814 C815 1.399 . S
C814 C818 1.389 . S
C815 C814 1.399 . S
C815 C817 1.380 . S
C815 H832 0.929 . S
C816 C813 1.399 . S
C816 C817 1.392 . S
C816 H833 0.929 . S
C817 C815 1.380 . S
C817 C816 1.392 . S
C817 H834 0.929 . S
C818 C813 1.383 . S
C818 C814 1.389 . S
C818 H835 0.931 . S
C819 O804 1.266 . S
C819 O805 1.248 . S
C820 Tb756 2.802 . S
C820 O800 1.264 . S
C820 O803 1.256 . S
C820 C813 1.496 1_655 S
C821 C788 1.448 . S
C821 H798 0.930 . S
C821 C822 1.328 . S
C822 C793 1.427 1_565 S
C822 H799 0.929 . S
C822 C821 1.328 . S
C823 O807 1.264 . S
C823 O808 1.243 . S
C824 C827 1.399 . S
C824 C828 1.383 . S
C824 C831 1.496 . S
C825 C826 1.399 . S
C825 C828 1.389 . S
C826 C825 1.399 . S
C826 C829 1.380 . S
C826 H836 0.929 . S
C827 C824 1.399 . S
C827 C829 1.392 . S
C827 H837 0.929 . S
C828 C824 1.383 . S
C828 C825 1.389 . S
C828 H838 0.931 . S
C829 C826 1.380 . S
C829 C827 1.392 . S
C829 H839 0.929 . S
C830 O810 1.266 . S
C830 O811 1.248 . S
C831 Tb767 2.802 . S
C831 O806 1.264 . S
C831 O809 1.256 . S
C831 C824 1.496 . S
H832 C815 0.929 . S
H833 C816 0.929 . S
H834 C817 0.929 . S
H835 C818 0.931 . S
H836 C826 0.929 . S
H837 C827 0.929 . S
H838 C828 0.931 . S
H839 C829 0.929 . S
Tb840 N869 2.617 . S
Tb840 N875 2.572 . S
Tb840 O884 2.465 . S
Tb840 O885 2.387 . S
Tb840 O887 2.428 . S
Tb840 O888 2.308 . S
Tb840 O892 2.349 . S
Tb840 O895 2.393 . S
Tb840 C904 2.802 . S
C841 N842 1.379 . S
C841 C844 1.416 . S
C841 C848 1.424 . S
N842 C841 1.379 . S
N842 C845 1.334 . S
N842 Tb851 2.617 . S
C843 C845 1.390 . S
C843 C846 1.339 . S
C843 H863 0.930 . S
C844 C841 1.416 . S
C844 C846 1.416 . S
C844 C850 1.448 . S
C845 N842 1.334 . S
C845 C843 1.390 . S
C845 H856 0.930 . S
C846 C843 1.339 . S
C846 C844 1.416 . S
C846 H867 0.930 . S
C847 C848 1.413 . S
C847 C849 1.427 . S
C847 C853 1.416 . S
C848 C841 1.424 . S
C848 C847 1.413 . S
C848 N852 1.361 . S
C849 C847 1.427 . S
C849 C850 1.328 . S
C849 H864 0.929 . S
C850 C844 1.448 . S
C850 C849 1.328 . S
C850 H865 0.930 . S
Tb851 N842 2.617 . S
Tb851 N852 2.572 . S
Tb851 O886 2.349 . S
Tb851 O889 2.393 . S
Tb851 O890 2.465 . S
Tb851 O891 2.387 . S
Tb851 O893 2.428 . S
Tb851 O894 2.308 . S
Tb851 C915 2.802 . S
N852 C848 1.361 . S
N852 Tb851 2.572 . S
N852 C854 1.340 . S
C853 C847 1.416 . S
C853 C855 1.332 . S
C853 H861 0.931 . S
C854 N852 1.340 . S
C854 C855 1.407 . S
C854 H860 0.930 . S
C855 C853 1.332 . S
C855 C854 1.407 . S
C855 H857 0.929 . S
H856 C845 0.930 . S
H857 C855 0.929 . S
H858 C873 0.930 . S
H859 C880 0.929 . S
H860 C854 0.930 . S
H861 C853 0.931 . S
H862 C876 0.930 . S
H863 C843 0.930 . S
H864 C849 0.929 . S
H865 C850 0.930 . S
H866 C871 0.930 . S
H867 C846 0.930 . S
H868 C879 0.931 . S
N869 Tb840 2.617 . S
N869 C870 1.379 . S
N869 C873 1.334 . S
C870 N869 1.379 . S
C870 C872 1.416 . S
C870 C878 1.424 . S
C871 H866 0.930 . S
C871 C873 1.390 . S
C871 C874 1.339 . S
C872 C870 1.416 . S
C872 C874 1.416 . S
C872 C905 1.448 . S
C873 H858 0.930 . S
C873 N869 1.334 . S
C873 C871 1.390 . S
C874 C871 1.339 . S
C874 C872 1.416 . S
C874 H881 0.930 . S
N875 Tb840 2.572 . S
N875 C876 1.340 . S
N875 C878 1.361 . S
C876 H862 0.930 . S
C876 N875 1.340 . S
C876 C880 1.407 . S
C877 C878 1.413 . S
C877 C879 1.416 . S
C877 C906 1.427 . S
C878 C870 1.424 . S
C878 N875 1.361 . S
C878 C877 1.413 . S
C879 H868 0.931 . S
C879 C877 1.416 . S
C879 C880 1.332 . S
C880 H859 0.929 . S
C880 C876 1.407 . S
C880 C879 1.332 . S
H881 C874 0.930 . S
H882 C905 0.930 . S
H883 C906 0.929 . S
O884 Tb840 2.465 . S
O884 C904 1.264 . S
O885 Tb840 2.387 . S
O885 C896 1.264 . S
O886 Tb851 2.349 . S
O886 C896 1.243 . S
O887 Tb840 2.428 . S
O887 C904 1.256 . S
O888 Tb840 2.308 . S
O888 C903 1.266 . S
O889 Tb851 2.393 . S
O889 C903 1.248 . S
O890 Tb851 2.465 . S
O890 C915 1.264 . S
O891 Tb851 2.387 . S
O891 C907 1.264 . S
O892 Tb840 2.349 . S
O892 C907 1.243 . S
O893 Tb851 2.428 . S
O893 C915 1.256 . S
O894 Tb851 2.308 . S
O894 C914 1.266 . S
O895 Tb840 2.393 . S
O895 C914 1.248 . S
C896 O885 1.264 . S
C896 O886 1.243 . S
C897 C900 1.399 . S
C897 C902 1.383 . S
C897 C904 1.496 . S
C898 C899 1.399 . S
C898 C902 1.389 . S
C899 C898 1.399 . S
C899 C901 1.380 . S
C899 H916 0.929 . S
C900 C897 1.399 . S
C900 C901 1.392 . S
C900 H917 0.929 . S
C901 C899 1.380 . S
C901 C900 1.392 . S
C901 H918 0.929 . S
C902 C897 1.383 . S
C902 C898 1.389 . S
C902 H919 0.931 . S
C903 O888 1.266 . S
C903 O889 1.248 . S
C904 Tb840 2.802 . S
C904 O884 1.264 . S
C904 O887 1.256 . S
C904 C897 1.496 . S
C905 C872 1.448 . S
C905 H882 0.930 . S
C905 C906 1.328 . S
C906 C877 1.427 . S
C906 H883 0.929 . S
C906 C905 1.328 . S
C907 O891 1.264 . S
C907 O892 1.243 . S
C908 C911 1.399 . S
C908 C912 1.383 . S
C908 C915 1.496 . S
C909 C910 1.399 . S
C909 C912 1.389 . S
C910 C909 1.399 . S
C910 C913 1.380 . S
C910 H920 0.929 . S
C911 C908 1.399 . S
C911 C913 1.392 . S
C911 H921 0.929 . S
C912 C908 1.383 . S
C912 C909 1.389 . S
C912 H922 0.931 . S
C913 C910 1.380 . S
C913 C911 1.392 . S
C913 H923 0.929 . S
C914 O894 1.266 . S
C914 O895 1.248 . S
C915 Tb851 2.802 . S
C915 O890 1.264 . S
C915 O893 1.256 . S
C915 C908 1.496 . S
H916 C899 0.929 . S
H917 C900 0.929 . S
H918 C901 0.929 . S
H919 C902 0.931 . S
H920 C910 0.929 . S
H921 C911 0.929 . S
H922 C912 0.931 . S
H923 C913 0.929 . S
Tb924 N953 2.617 . S
Tb924 N959 2.572 . S
Tb924 O968 2.465 . S
Tb924 O969 2.387 . S
Tb924 O971 2.428 . S
Tb924 O972 2.308 . S
Tb924 O976 2.349 . S
Tb924 O979 2.393 . S
Tb924 C988 2.802 . S
C925 N926 1.379 . S
C925 C928 1.416 . S
C925 C932 1.424 . S
N926 C925 1.379 . S
N926 C929 1.334 . S
N926 Tb935 2.617 . S
C927 C929 1.390 . S
C927 C930 1.339 . S
C927 H947 0.930 . S
C928 C925 1.416 . S
C928 C930 1.416 . S
C928 C934 1.448 . S
C929 N926 1.334 . S
C929 C927 1.390 . S
C929 H940 0.930 . S
C930 C927 1.339 . S
C930 C928 1.416 . S
C930 H951 0.930 . S
C931 C932 1.413 . S
C931 C933 1.427 . S
C931 C937 1.416 . S
C932 C925 1.424 . S
C932 C931 1.413 . S
C932 N936 1.361 . S
C933 C931 1.427 . S
C933 C934 1.328 . S
C933 H948 0.929 . S
C934 C928 1.448 . S
C934 C933 1.328 . S
C934 H949 0.930 . S
Tb935 N926 2.617 . S
Tb935 N936 2.572 . S
Tb935 O970 2.349 . S
Tb935 O973 2.393 . S
Tb935 O974 2.465 . S
Tb935 O975 2.387 . S
Tb935 O977 2.428 . S
Tb935 O978 2.308 . S
Tb935 C999 2.802 . S
N936 C932 1.361 . S
N936 Tb935 2.572 . S
N936 C938 1.340 . S
C937 C931 1.416 . S
C937 C939 1.332 . S
C937 H945 0.931 . S
C938 N936 1.340 . S
C938 C939 1.407 . S
C938 H944 0.930 . S
C939 C937 1.332 . S
C939 C938 1.407 . S
C939 H941 0.929 . S
H940 C929 0.930 . S
H941 C939 0.929 . S
H942 C957 0.930 . S
H943 C964 0.929 . S
H944 C938 0.930 . S
H945 C937 0.931 . S
H946 C960 0.930 . S
H947 C927 0.930 . S
H948 C933 0.929 . S
H949 C934 0.930 . S
H950 C955 0.930 . S
H951 C930 0.930 . S
H952 C963 0.931 . S
N953 Tb924 2.617 . S
N953 C954 1.391 . S
N953 C957 1.334 1_565 S
C954 N953 1.391 . S
C954 C956 1.372 1_565 S
C954 C962 1.457 . S
C955 H950 0.930 . S
C955 C957 1.390 . S
C955 C958 1.339 . S
C956 C954 1.372 1_545 S
C956 C958 1.416 . S
C956 C989 1.448 . S
C957 H942 0.930 . S
C957 N953 1.334 1_545 S
C957 C955 1.390 . S
C958 C955 1.339 . S
C958 C956 1.416 . S
C958 H965 0.930 . S
N959 Tb924 2.572 . S
N959 C960 1.340 . S
N959 C962 1.361 . S
C960 H946 0.930 . S
C960 N959 1.340 . S
C960 C964 1.407 . S
C961 C962 1.413 . S
C961 C963 1.416 . S
C961 C990 1.427 1_565 S
C962 C954 1.457 . S
C962 N959 1.361 . S
C962 C961 1.413 . S
C963 H952 0.931 . S
C963 C961 1.416 . S
C963 C964 1.332 . S
C964 H943 0.929 . S
C964 C960 1.407 . S
C964 C963 1.332 . S
H965 C958 0.930 . S
H966 C989 0.930 . S
H967 C990 0.929 . S
O968 Tb924 2.465 . S
O968 C988 1.264 . S
O969 Tb924 2.387 . S
O969 C980 1.264 . S
O970 Tb935 2.349 . S
O970 C980 1.243 . S
O971 Tb924 2.428 . S
O971 C988 1.256 . S
O972 Tb924 2.308 . S
O972 C987 1.266 . S
O973 Tb935 2.393 . S
O973 C987 1.248 . S
O974 Tb935 2.465 . S
O974 C999 1.264 . S
O975 Tb935 2.387 . S
O975 C991 1.264 . S
O976 Tb924 2.349 . S
O976 C991 1.243 . S
O977 Tb935 2.428 . S
O977 C999 1.256 . S
O978 Tb935 2.308 . S
O978 C998 1.266 . S
O979 Tb924 2.393 . S
O979 C998 1.248 . S
C980 O969 1.264 . S
C980 O970 1.243 . S
C981 C984 1.399 . S
C981 C986 1.383 . S
C981 C988 1.496 . S
C982 C983 1.399 . S
C982 C986 1.389 . S
C983 C982 1.399 . S
C983 C985 1.380 . S
C983 H1000 0.929 . S
C984 C981 1.399 . S
C984 C985 1.392 . S
C984 H1001 0.929 . S
C985 C983 1.380 . S
C985 C984 1.392 . S
C985 H1002 0.929 . S
C986 C981 1.383 . S
C986 C982 1.389 . S
C986 H1003 0.931 . S
C987 O972 1.266 . S
C987 O973 1.248 . S
C988 Tb924 2.802 . S
C988 O968 1.264 . S
C988 O971 1.256 . S
C988 C981 1.496 . S
C989 C956 1.448 . S
C989 H966 0.930 . S
C989 C990 1.328 . S
C990 C961 1.427 1_545 S
C990 H967 0.929 . S
C990 C989 1.328 . S
C991 O975 1.264 . S
C991 O976 1.243 . S
C992 C995 1.399 . S
C992 C996 1.383 . S
C992 C999 1.496 . S
C993 C994 1.399 . S
C993 C996 1.389 . S
C994 C993 1.399 . S
C994 C997 1.380 . S
C994 H1004 0.929 . S
C995 C992 1.399 . S
C995 C997 1.392 . S
C995 H1005 0.929 . S
C996 C992 1.383 . S
C996 C993 1.389 . S
C996 H1006 0.931 . S
C997 C994 1.380 . S
C997 C995 1.392 . S
C997 H1007 0.929 . S
C998 O978 1.266 . S
C998 O979 1.248 . S
C999 Tb935 2.802 . S
C999 O974 1.264 . S
C999 O977 1.256 . S
C999 C992 1.496 . S
H1000 C983 0.929 . S
H1001 C984 0.929 . S
H1002 C985 0.929 . S
H1003 C986 0.931 . S
H1004 C994 0.929 . S
H1005 C995 0.929 . S
H1006 C996 0.931 . S
H1007 C997 0.929 . S
Tb1008 N1037 2.617 . S
Tb1008 N1043 2.572 . S
Tb1008 O1052 2.465 . S
Tb1008 O1053 2.387 . S
Tb1008 O1055 2.428 . S
Tb1008 O1056 2.308 . S
Tb1008 O1060 2.349 . S
Tb1008 O1063 2.393 . S
Tb1008 C1072 2.802 . S
C1009 N1010 1.379 . S
C1009 C1012 1.416 . S
C1009 C1016 1.424 . S
N1010 C1009 1.379 . S
N1010 C1013 1.334 . S
N1010 Tb1019 2.617 . S
C1011 C1013 1.390 . S
C1011 C1014 1.339 . S
C1011 H1031 0.930 . S
C1012 C1009 1.416 . S
C1012 C1014 1.416 . S
C1012 C1018 1.448 . S
C1013 N1010 1.334 . S
C1013 C1011 1.390 . S
C1013 H1024 0.930 . S
C1014 C1011 1.339 . S
C1014 C1012 1.416 . S
C1014 H1035 0.930 . S
C1015 C1016 1.413 . S
C1015 C1017 1.427 . S
C1015 C1021 1.416 . S
C1016 C1009 1.424 . S
C1016 C1015 1.413 . S
C1016 N1020 1.361 . S
C1017 C1015 1.427 . S
C1017 C1018 1.328 . S
C1017 H1032 0.929 . S
C1018 C1012 1.448 . S
C1018 C1017 1.328 . S
C1018 H1033 0.930 . S
Tb1019 N1010 2.617 . S
Tb1019 N1020 2.572 . S
Tb1019 O1054 2.349 . S
Tb1019 O1057 2.393 . S
Tb1019 O1058 2.465 . S
Tb1019 O1059 2.387 . S
Tb1019 O1061 2.428 . S
Tb1019 O1062 2.308 . S
Tb1019 C1083 2.802 . S
N1020 C1016 1.361 . S
N1020 Tb1019 2.572 . S
N1020 C1022 1.340 . S
C1021 C1015 1.416 . S
C1021 C1023 1.332 . S
C1021 H1029 0.931 . S
C1022 N1020 1.340 . S
C1022 C1023 1.407 . S
C1022 H1028 0.930 . S
C1023 C1021 1.332 . S
C1023 C1022 1.407 . S
C1023 H1025 0.929 . S
H1024 C1013 0.930 . S
H1025 C1023 0.929 . S
H1026 C1041 0.930 . S
H1027 C1048 0.929 . S
H1028 C1022 0.930 . S
H1029 C1021 0.931 . S
H1030 C1044 0.930 . S
H1031 C1011 0.930 . S
H1032 C1017 0.929 . S
H1033 C1018 0.930 . S
H1034 C1039 0.930 . S
H1035 C1014 0.930 . S
H1036 C1047 0.931 . S
N1037 Tb1008 2.617 . S
N1037 C1038 1.379 . S
N1037 C1041 1.334 . S
C1038 N1037 1.379 . S
C1038 C1040 1.416 . S
C1038 C1046 1.424 . S
C1039 H1034 0.930 . S
C1039 C1041 1.390 . S
C1039 C1042 1.339 . S
C1040 C1038 1.416 . S
C1040 C1042 1.416 . S
C1040 C1073 1.448 . S
C1041 H1026 0.930 . S
C1041 N1037 1.334 . S
C1041 C1039 1.390 . S
C1042 C1039 1.339 . S
C1042 C1040 1.416 . S
C1042 H1049 0.930 . S
N1043 Tb1008 2.572 . S
N1043 C1044 1.340 . S
N1043 C1046 1.361 . S
C1044 H1030 0.930 . S
C1044 N1043 1.340 . S
C1044 C1048 1.407 . S
C1045 C1046 1.413 . S
C1045 C1047 1.416 . S
C1045 C1074 1.427 . S
C1046 C1038 1.424 . S
C1046 N1043 1.361 . S
C1046 C1045 1.413 . S
C1047 H1036 0.931 . S
C1047 C1045 1.416 . S
C1047 C1048 1.332 . S
C1048 H1027 0.929 . S
C1048 C1044 1.407 . S
C1048 C1047 1.332 . S
H1049 C1042 0.930 . S
H1050 C1073 0.930 . S
H1051 C1074 0.929 . S
O1052 Tb1008 2.465 . S
O1052 C1072 1.264 . S
O1053 Tb1008 2.387 . S
O1053 C1064 1.264 . S
O1054 Tb1019 2.349 . S
O1054 C1064 1.243 . S
O1055 Tb1008 2.428 . S
O1055 C1072 1.256 . S
O1056 Tb1008 2.308 . S
O1056 C1071 1.266 . S
O1057 Tb1019 2.393 . S
O1057 C1071 1.248 . S
O1058 Tb1019 2.465 . S
O1058 C1083 1.264 . S
O1059 Tb1019 2.387 . S
O1059 C1075 1.264 . S
O1060 Tb1008 2.349 . S
O1060 C1075 1.243 . S
O1061 Tb1019 2.428 . S
O1061 C1083 1.256 . S
O1062 Tb1019 2.308 . S
O1062 C1082 1.266 . S
O1063 Tb1008 2.393 . S
O1063 C1082 1.248 . S
C1064 O1053 1.264 . S
C1064 O1054 1.243 . S
C1065 C1068 1.399 . S
C1065 C1070 1.383 . S
C1065 C1072 1.496 . S
C1066 C1067 1.399 . S
C1066 C1070 1.389 . S
C1067 C1066 1.399 . S
C1067 C1069 1.380 . S
C1067 H1084 0.929 . S
C1068 C1065 1.399 . S
C1068 C1069 1.392 . S
C1068 H1085 0.929 . S
C1069 C1067 1.380 . S
C1069 C1068 1.392 . S
C1069 H1086 0.929 . S
C1070 C1065 1.383 . S
C1070 C1066 1.389 . S
C1070 H1087 0.931 . S
C1071 O1056 1.266 . S
C1071 O1057 1.248 . S
C1072 Tb1008 2.802 . S
C1072 O1052 1.264 . S
C1072 O1055 1.256 . S
C1072 C1065 1.496 . S
C1073 C1040 1.448 . S
C1073 H1050 0.930 . S
C1073 C1074 1.328 . S
C1074 C1045 1.427 . S
C1074 H1051 0.929 . S
C1074 C1073 1.328 . S
C1075 O1059 1.264 . S
C1075 O1060 1.243 . S
C1076 C1079 1.399 . S
C1076 C1080 1.383 . S
C1076 C1083 1.496 . S
C1077 C1078 1.399 . S
C1077 C1080 1.389 . S
C1078 C1077 1.399 . S
C1078 C1081 1.380 . S
C1078 H1088 0.929 . S
C1079 C1076 1.399 . S
C1079 C1081 1.392 . S
C1079 H1089 0.929 . S
C1080 C1076 1.383 . S
C1080 C1077 1.389 . S
C1080 H1090 0.931 . S
C1081 C1078 1.380 . S
C1081 C1079 1.392 . S
C1081 H1091 0.929 . S
C1082 O1062 1.266 . S
C1082 O1063 1.248 . S
C1083 Tb1019 2.802 . S
C1083 O1058 1.264 . S
C1083 O1061 1.256 . S
C1083 C1076 1.496 . S
H1084 C1067 0.929 . S
H1085 C1068 0.929 . S
H1086 C1069 0.929 . S
H1087 C1070 0.931 . S
H1088 C1078 0.929 . S
H1089 C1079 0.929 . S
H1090 C1080 0.931 . S
H1091 C1081 0.929 . S
Tb1092 N1121 2.617 . S
Tb1092 N1127 2.572 . S
Tb1092 O1136 2.465 . S
Tb1092 O1137 2.387 . S
Tb1092 O1139 2.428 . S
Tb1092 O1140 2.308 . S
Tb1092 O1144 2.349 . S
Tb1092 O1147 2.393 . S
Tb1092 C1156 2.802 . S
C1093 N1094 1.379 . S
C1093 C1096 1.416 . S
C1093 C1100 1.424 . S
N1094 C1093 1.379 . S
N1094 C1097 1.334 . S
N1094 Tb1103 2.617 . S
C1095 C1097 1.390 . S
C1095 C1098 1.339 . S
C1095 H1115 0.930 . S
C1096 C1093 1.416 . S
C1096 C1098 1.416 . S
C1096 C1102 1.448 . S
C1097 N1094 1.334 . S
C1097 C1095 1.390 . S
C1097 H1108 0.930 . S
C1098 C1095 1.339 . S
C1098 C1096 1.416 . S
C1098 H1119 0.930 . S
C1099 C1100 1.413 . S
C1099 C1101 1.427 . S
C1099 C1105 1.416 . S
C1100 C1093 1.424 . S
C1100 C1099 1.413 . S
C1100 N1104 1.361 . S
C1101 C1099 1.427 . S
C1101 C1102 1.328 . S
C1101 H1116 0.929 . S
C1102 C1096 1.448 . S
C1102 C1101 1.328 . S
C1102 H1117 0.930 . S
Tb1103 N1094 2.617 . S
Tb1103 N1104 2.572 . S
Tb1103 O1138 2.349 . S
Tb1103 O1141 2.393 . S
Tb1103 O1142 2.465 . S
Tb1103 O1143 2.387 . S
Tb1103 O1145 2.428 . S
Tb1103 O1146 2.308 . S
Tb1103 C1167 2.802 . S
N1104 C1100 1.361 . S
N1104 Tb1103 2.572 . S
N1104 C1106 1.340 . S
C1105 C1099 1.416 . S
C1105 C1107 1.332 . S
C1105 H1113 0.931 . S
C1106 N1104 1.340 . S
C1106 C1107 1.407 . S
C1106 H1112 0.930 . S
C1107 C1105 1.332 . S
C1107 C1106 1.407 . S
C1107 H1109 0.929 . S
H1108 C1097 0.930 . S
H1109 C1107 0.929 . S
H1110 C1125 0.930 . S
H1111 C1132 0.929 . S
H1112 C1106 0.930 . S
H1113 C1105 0.931 . S
H1114 C1128 0.930 . S
H1115 C1095 0.930 . S
H1116 C1101 0.929 . S
H1117 C1102 0.930 . S
H1118 C1123 0.930 . S
H1119 C1098 0.930 . S
H1120 C1131 0.931 . S
N1121 Tb1092 2.617 . S
N1121 C1122 1.391 . S
N1121 C1125 1.334 1_545 S
C1122 N1121 1.391 . S
C1122 C1124 1.372 1_545 S
C1122 C1130 1.457 . S
C1123 H1118 0.930 . S
C1123 C1125 1.390 . S
C1123 C1126 1.339 . S
C1124 C1122 1.372 1_565 S
C1124 C1126 1.416 . S
C1124 C1157 1.448 . S
C1125 H1110 0.930 . S
C1125 N1121 1.334 1_565 S
C1125 C1123 1.390 . S
C1126 C1123 1.339 . S
C1126 C1124 1.416 . S
C1126 H1133 0.930 . S
N1127 Tb1092 2.572 . S
N1127 C1128 1.340 . S
N1127 C1130 1.361 . S
C1128 H1114 0.930 . S
C1128 N1127 1.340 . S
C1128 C1132 1.407 . S
C1129 C1130 1.413 . S
C1129 C1131 1.416 . S
C1129 C1158 1.427 1_545 S
C1130 C1122 1.457 . S
C1130 N1127 1.361 . S
C1130 C1129 1.413 . S
C1131 H1120 0.931 . S
C1131 C1129 1.416 . S
C1131 C1132 1.332 . S
C1132 H1111 0.929 . S
C1132 C1128 1.407 . S
C1132 C1131 1.332 . S
H1133 C1126 0.930 . S
H1134 C1157 0.930 . S
H1135 C1158 0.929 . S
O1136 Tb1092 2.465 . S
O1136 C1156 1.264 . S
O1137 Tb1092 2.387 . S
O1137 C1148 1.264 . S
O1138 Tb1103 2.349 . S
O1138 C1148 1.243 . S
O1139 Tb1092 2.428 . S
O1139 C1156 1.256 . S
O1140 Tb1092 2.308 . S
O1140 C1155 1.266 . S
O1141 Tb1103 2.393 . S
O1141 C1155 1.248 . S
O1142 Tb1103 2.465 . S
O1142 C1167 1.264 . S
O1143 Tb1103 2.387 . S
O1143 C1159 1.264 . S
O1144 Tb1092 2.349 . S
O1144 C1159 1.243 . S
O1145 Tb1103 2.428 . S
O1145 C1167 1.256 . S
O1146 Tb1103 2.308 . S
O1146 C1166 1.266 . S
O1147 Tb1092 2.393 . S
O1147 C1166 1.248 . S
C1148 O1137 1.264 . S
C1148 O1138 1.243 . S
C1149 C1152 1.399 . S
C1149 C1154 1.383 . S
C1149 C1156 1.496 . S
C1150 C1151 1.399 . S
C1150 C1154 1.389 . S
C1151 C1150 1.399 . S
C1151 C1153 1.380 . S
C1151 H1168 0.929 . S
C1152 C1149 1.399 . S
C1152 C1153 1.392 . S
C1152 H1169 0.929 . S
C1153 C1151 1.380 . S
C1153 C1152 1.392 . S
C1153 H1170 0.929 . S
C1154 C1149 1.383 . S
C1154 C1150 1.389 . S
C1154 H1171 0.931 . S
C1155 O1140 1.266 . S
C1155 O1141 1.248 . S
C1156 Tb1092 2.802 . S
C1156 O1136 1.264 . S
C1156 O1139 1.256 . S
C1156 C1149 1.496 . S
C1157 C1124 1.448 . S
C1157 H1134 0.930 . S
C1157 C1158 1.328 . S
C1158 C1129 1.427 1_565 S
C1158 H1135 0.929 . S
C1158 C1157 1.328 . S
C1159 O1143 1.264 . S
C1159 O1144 1.243 . S
C1160 C1163 1.399 . S
C1160 C1164 1.383 . S
C1160 C1167 1.496 . S
C1161 C1162 1.399 . S
C1161 C1164 1.389 . S
C1162 C1161 1.399 . S
C1162 C1165 1.380 . S
C1162 H1172 0.929 . S
C1163 C1160 1.399 . S
C1163 C1165 1.392 . S
C1163 H1173 0.929 . S
C1164 C1160 1.383 . S
C1164 C1161 1.389 . S
C1164 H1174 0.931 . S
C1165 C1162 1.380 . S
C1165 C1163 1.392 . S
C1165 H1175 0.929 . S
C1166 O1146 1.266 . S
C1166 O1147 1.248 . S
C1167 Tb1103 2.802 . S
C1167 O1142 1.264 . S
C1167 O1145 1.256 . S
C1167 C1160 1.496 . S
H1168 C1151 0.929 . S
H1169 C1152 0.929 . S
H1170 C1153 0.929 . S
H1171 C1154 0.931 . S
H1172 C1162 0.929 . S
H1173 C1163 0.929 . S
H1174 C1164 0.931 . S
H1175 C1165 0.929 . S
Tb1176 N1205 2.617 . S
Tb1176 N1211 2.572 . S
Tb1176 O1220 2.465 . S
Tb1176 O1221 2.387 . S
Tb1176 O1223 2.428 . S
Tb1176 O1224 2.308 . S
Tb1176 O1228 2.349 . S
Tb1176 O1231 2.393 . S
Tb1176 C1240 2.802 . S
C1177 N1178 1.379 . S
C1177 C1180 1.416 . S
C1177 C1184 1.424 . S
N1178 C1177 1.379 . S
N1178 C1181 1.334 . S
N1178 Tb1187 2.617 . S
C1179 C1181 1.390 . S
C1179 C1182 1.339 . S
C1179 H1199 0.930 . S
C1180 C1177 1.416 . S
C1180 C1182 1.416 . S
C1180 C1186 1.448 . S
C1181 N1178 1.334 . S
C1181 C1179 1.390 . S
C1181 H1192 0.930 . S
C1182 C1179 1.339 . S
C1182 C1180 1.416 . S
C1182 H1203 0.930 . S
C1183 C1184 1.413 . S
C1183 C1185 1.427 . S
C1183 C1189 1.416 . S
C1184 C1177 1.424 . S
C1184 C1183 1.413 . S
C1184 N1188 1.361 . S
C1185 C1183 1.427 . S
C1185 C1186 1.328 . S
C1185 H1200 0.929 . S
C1186 C1180 1.448 . S
C1186 C1185 1.328 . S
C1186 H1201 0.930 . S
Tb1187 N1178 2.617 . S
Tb1187 N1188 2.572 . S
Tb1187 O1222 2.349 . S
Tb1187 O1225 2.393 . S
Tb1187 O1226 2.465 . S
Tb1187 O1227 2.387 . S
Tb1187 O1229 2.428 . S
Tb1187 O1230 2.308 . S
Tb1187 C1251 2.802 . S
N1188 C1184 1.361 . S
N1188 Tb1187 2.572 . S
N1188 C1190 1.340 . S
C1189 C1183 1.416 . S
C1189 C1191 1.332 . S
C1189 H1197 0.931 . S
C1190 N1188 1.340 . S
C1190 C1191 1.407 . S
C1190 H1196 0.930 . S
C1191 C1189 1.332 . S
C1191 C1190 1.407 . S
C1191 H1193 0.929 . S
H1192 C1181 0.930 . S
H1193 C1191 0.929 . S
H1194 C1209 0.930 . S
H1195 C1216 0.929 . S
H1196 C1190 0.930 . S
H1197 C1189 0.931 . S
H1198 C1212 0.930 . S
H1199 C1179 0.930 . S
H1200 C1185 0.929 . S
H1201 C1186 0.930 . S
H1202 C1207 0.930 . S
H1203 C1182 0.930 . S
H1204 C1215 0.931 . S
N1205 Tb1176 2.617 . S
N1205 C1206 1.379 . S
N1205 C1209 1.334 . S
C1206 N1205 1.379 . S
C1206 C1208 1.416 . S
C1206 C1214 1.424 . S
C1207 H1202 0.930 . S
C1207 C1209 1.390 . S
C1207 C1210 1.339 . S
C1208 C1206 1.416 . S
C1208 C1210 1.416 . S
C1208 C1241 1.448 . S
C1209 H1194 0.930 . S
C1209 N1205 1.334 . S
C1209 C1207 1.390 . S
C1210 C1207 1.339 . S
C1210 C1208 1.416 . S
C1210 H1217 0.930 . S
N1211 Tb1176 2.572 . S
N1211 C1212 1.340 . S
N1211 C1214 1.361 . S
C1212 H1198 0.930 . S
C1212 N1211 1.340 . S
C1212 C1216 1.407 . S
C1213 C1214 1.413 . S
C1213 C1215 1.416 . S
C1213 C1242 1.427 . S
C1214 C1206 1.424 . S
C1214 N1211 1.361 . S
C1214 C1213 1.413 . S
C1215 H1204 0.931 . S
C1215 C1213 1.416 . S
C1215 C1216 1.332 . S
C1216 H1195 0.929 . S
C1216 C1212 1.407 . S
C1216 C1215 1.332 . S
H1217 C1210 0.930 . S
H1218 C1241 0.930 . S
H1219 C1242 0.929 . S
O1220 Tb1176 2.465 . S
O1220 C1240 1.264 . S
O1221 Tb1176 2.387 . S
O1221 C1232 1.264 . S
O1222 Tb1187 2.349 . S
O1222 C1232 1.243 . S
O1223 Tb1176 2.428 . S
O1223 C1240 1.256 . S
O1224 Tb1176 2.308 . S
O1224 C1239 1.266 . S
O1225 Tb1187 2.393 . S
O1225 C1239 1.248 . S
O1226 Tb1187 2.465 . S
O1226 C1251 1.264 . S
O1227 Tb1187 2.387 . S
O1227 C1243 1.264 . S
O1228 Tb1176 2.349 . S
O1228 C1243 1.243 . S
O1229 Tb1187 2.428 . S
O1229 C1251 1.256 . S
O1230 Tb1187 2.308 . S
O1230 C1250 1.266 . S
O1231 Tb1176 2.393 . S
O1231 C1250 1.248 . S
C1232 O1221 1.264 . S
C1232 O1222 1.243 . S
C1233 C1236 1.399 . S
C1233 C1238 1.383 . S
C1233 C1240 1.496 . S
C1234 C1235 1.399 . S
C1234 C1238 1.389 . S
C1235 C1234 1.399 . S
C1235 C1237 1.380 . S
C1235 H1252 0.929 . S
C1236 C1233 1.399 . S
C1236 C1237 1.392 . S
C1236 H1253 0.929 . S
C1237 C1235 1.380 . S
C1237 C1236 1.392 . S
C1237 H1254 0.929 . S
C1238 C1233 1.383 . S
C1238 C1234 1.389 . S
C1238 H1255 0.931 . S
C1239 O1224 1.266 . S
C1239 O1225 1.248 . S
C1240 Tb1176 2.802 . S
C1240 O1220 1.264 . S
C1240 O1223 1.256 . S
C1240 C1233 1.496 . S
C1241 C1208 1.448 . S
C1241 H1218 0.930 . S
C1241 C1242 1.328 . S
C1242 C1213 1.427 . S
C1242 H1219 0.929 . S
C1242 C1241 1.328 . S
C1243 O1227 1.264 . S
C1243 O1228 1.243 . S
C1244 C1247 1.399 . S
C1244 C1248 1.383 . S
C1244 C1251 1.496 . S
C1245 C1246 1.399 . S
C1245 C1248 1.389 . S
C1246 C1245 1.399 . S
C1246 C1249 1.380 . S
C1246 H1256 0.929 . S
C1247 C1244 1.399 . S
C1247 C1249 1.392 . S
C1247 H1257 0.929 . S
C1248 C1244 1.383 . S
C1248 C1245 1.389 . S
C1248 H1258 0.931 . S
C1249 C1246 1.380 . S
C1249 C1247 1.392 . S
C1249 H1259 0.929 . S
C1250 O1230 1.266 . S
C1250 O1231 1.248 . S
C1251 Tb1187 2.802 . S
C1251 O1226 1.264 . S
C1251 O1229 1.256 . S
C1251 C1244 1.496 . S
H1252 C1235 0.929 . S
H1253 C1236 0.929 . S
H1254 C1237 0.929 . S
H1255 C1238 0.931 . S
H1256 C1246 0.929 . S
H1257 C1247 0.929 . S
H1258 C1248 0.931 . S
H1259 C1249 0.929 . S
Tb1260 N1289 2.617 . S
Tb1260 N1295 2.572 1_655 S
Tb1260 O1304 2.465 . S
Tb1260 O1305 2.387 . S
Tb1260 O1307 2.428 . S
Tb1260 O1308 2.308 . S
Tb1260 O1312 2.349 . S
Tb1260 O1315 2.393 . S
Tb1260 C1324 2.802 . S
C1261 N1262 1.379 . S
C1261 C1264 1.416 . S
C1261 C1268 1.424 . S
N1262 C1261 1.379 . S
N1262 C1265 1.334 . S
N1262 Tb1271 2.617 . S
C1263 C1265 1.390 . S
C1263 C1266 1.339 . S
C1263 H1283 0.930 . S
C1264 C1261 1.416 . S
C1264 C1266 1.416 . S
C1264 C1270 1.448 . S
C1265 N1262 1.334 . S
C1265 C1263 1.390 . S
C1265 H1276 0.930 . S
C1266 C1263 1.339 . S
C1266 C1264 1.416 . S
C1266 H1287 0.930 . S
C1267 C1268 1.413 . S
C1267 C1269 1.427 . S
C1267 C1273 1.416 . S
C1268 C1261 1.424 . S
C1268 C1267 1.413 . S
C1268 N1272 1.361 . S
C1269 C1267 1.427 . S
C1269 C1270 1.328 . S
C1269 H1284 0.929 . S
C1270 C1264 1.448 . S
C1270 C1269 1.328 . S
C1270 H1285 0.930 . S
Tb1271 N1262 2.617 . S
Tb1271 N1272 2.572 . S
Tb1271 O1306 2.349 . S
Tb1271 O1309 2.393 . S
Tb1271 O1310 2.465 . S
Tb1271 O1311 2.387 . S
Tb1271 O1313 2.428 . S
Tb1271 O1314 2.308 . S
Tb1271 C1335 2.802 . S
N1272 C1268 1.361 . S
N1272 Tb1271 2.572 . S
N1272 C1274 1.340 . S
C1273 C1267 1.416 . S
C1273 C1275 1.332 . S
C1273 H1281 0.931 . S
C1274 N1272 1.340 . S
C1274 C1275 1.407 . S
C1274 H1280 0.930 . S
C1275 C1273 1.332 . S
C1275 C1274 1.407 . S
C1275 H1277 0.929 . S
H1276 C1265 0.930 . S
H1277 C1275 0.929 . S
H1278 C1293 0.930 . S
H1279 C1300 0.929 . S
H1280 C1274 0.930 . S
H1281 C1273 0.931 . S
H1282 C1296 0.930 . S
H1283 C1263 0.930 . S
H1284 C1269 0.929 . S
H1285 C1270 0.930 . S
H1286 C1291 0.930 . S
H1287 C1266 0.930 . S
H1288 C1299 0.931 . S
N1289 Tb1260 2.617 . S
N1289 C1290 1.391 1_655 S
N1289 C1293 1.334 1_565 S
C1290 N1289 1.391 1_455 S
C1290 C1292 1.372 1_565 S
C1290 C1298 1.457 . S
C1291 H1286 0.930 . S
C1291 C1293 1.390 . S
C1291 C1294 1.339 . S
C1292 C1290 1.372 1_545 S
C1292 C1294 1.416 1_455 S
C1292 C1325 1.448 . S
C1293 H1278 0.930 . S
C1293 N1289 1.334 1_545 S
C1293 C1291 1.390 . S
C1294 C1291 1.339 . S
C1294 C1292 1.416 1_655 S
C1294 H1301 0.929 1_655 S
N1295 Tb1260 2.572 1_455 S
N1295 C1296 1.340 . S
N1295 C1298 1.361 . S
C1296 H1282 0.930 . S
C1296 N1295 1.340 . S
C1296 C1300 1.407 . S
C1297 C1298 1.413 . S
C1297 C1299 1.416 . S
C1297 C1326 1.427 1_565 S
C1298 C1290 1.457 . S
C1298 N1295 1.361 . S
C1298 C1297 1.413 . S
C1299 H1288 0.931 . S
C1299 C1297 1.416 . S
C1299 C1300 1.332 . S
C1300 H1279 0.929 . S
C1300 C1296 1.407 . S
C1300 C1299 1.332 . S
H1301 C1294 0.929 1_455 S
H1302 C1325 0.930 . S
H1303 C1326 0.929 . S
O1304 Tb1260 2.465 . S
O1304 C1324 1.264 . S
O1305 Tb1260 2.387 . S
O1305 C1316 1.264 . S
O1306 Tb1271 2.349 . S
O1306 C1316 1.243 . S
O1307 Tb1260 2.428 . S
O1307 C1324 1.256 . S
O1308 Tb1260 2.308 . S
O1308 C1323 1.266 . S
O1309 Tb1271 2.393 . S
O1309 C1323 1.248 . S
O1310 Tb1271 2.465 . S
O1310 C1335 1.264 . S
O1311 Tb1271 2.387 . S
O1311 C1327 1.264 . S
O1312 Tb1260 2.349 . S
O1312 C1327 1.243 . S
O1313 Tb1271 2.428 . S
O1313 C1335 1.256 . S
O1314 Tb1271 2.308 . S
O1314 C1334 1.266 . S
O1315 Tb1260 2.393 . S
O1315 C1334 1.248 . S
C1316 O1305 1.264 . S
C1316 O1306 1.243 . S
C1317 C1320 1.399 . S
C1317 C1322 1.383 . S
C1317 C1324 1.496 1_455 S
C1318 C1319 1.399 . S
C1318 C1322 1.389 . S
C1319 C1318 1.399 . S
C1319 C1321 1.380 . S
C1319 H1336 0.929 . S
C1320 C1317 1.399 . S
C1320 C1321 1.392 . S
C1320 H1337 0.929 . S
C1321 C1319 1.380 . S
C1321 C1320 1.392 . S
C1321 H1338 0.929 . S
C1322 C1317 1.383 . S
C1322 C1318 1.389 . S
C1322 H1339 0.931 . S
C1323 O1308 1.266 . S
C1323 O1309 1.248 . S
C1324 Tb1260 2.802 . S
C1324 O1304 1.264 . S
C1324 O1307 1.256 . S
C1324 C1317 1.496 1_655 S
C1325 C1292 1.448 . S
C1325 H1302 0.930 . S
C1325 C1326 1.328 . S
C1326 C1297 1.427 1_545 S
C1326 H1303 0.929 . S
C1326 C1325 1.328 . S
C1327 O1311 1.264 . S
C1327 O1312 1.243 . S
C1328 C1331 1.399 . S
C1328 C1332 1.383 . S
C1328 C1335 1.496 . S
C1329 C1330 1.399 . S
C1329 C1332 1.389 . S
C1330 C1329 1.399 . S
C1330 C1333 1.380 . S
C1330 H1340 0.929 . S
C1331 C1328 1.399 . S
C1331 C1333 1.392 . S
C1331 H1341 0.929 . S
C1332 C1328 1.383 . S
C1332 C1329 1.389 . S
C1332 H1342 0.931 . S
C1333 C1330 1.380 . S
C1333 C1331 1.392 . S
C1333 H1343 0.929 . S
C1334 O1314 1.266 . S
C1334 O1315 1.248 . S
C1335 Tb1271 2.802 . S
C1335 O1310 1.264 . S
C1335 O1313 1.256 . S
C1335 C1328 1.496 . S
H1336 C1319 0.929 . S
H1337 C1320 0.929 . S
H1338 C1321 0.929 . S
H1339 C1322 0.931 . S
H1340 C1330 0.929 . S
H1341 C1331 0.929 . S
H1342 C1332 0.931 . S
H1343 C1333 0.929 . S
Tb1344 N1373 2.617 . S
Tb1344 N1379 2.572 . S
Tb1344 O1388 2.465 . S
Tb1344 O1389 2.387 . S
Tb1344 O1391 2.428 . S
Tb1344 O1392 2.308 . S
Tb1344 O1396 2.349 . S
Tb1344 O1399 2.393 . S
Tb1344 C1408 2.802 . S
C1345 N1346 1.379 . S
C1345 C1348 1.416 . S
C1345 C1352 1.424 . S
N1346 C1345 1.379 . S
N1346 C1349 1.334 . S
N1346 Tb1355 2.617 . S
C1347 C1349 1.390 . S
C1347 C1350 1.339 . S
C1347 H1367 0.930 . S
C1348 C1345 1.416 . S
C1348 C1350 1.416 . S
C1348 C1354 1.448 . S
C1349 N1346 1.334 . S
C1349 C1347 1.390 . S
C1349 H1360 0.930 . S
C1350 C1347 1.339 . S
C1350 C1348 1.416 . S
C1350 H1371 0.930 . S
C1351 C1352 1.413 . S
C1351 C1353 1.427 . S
C1351 C1357 1.416 . S
C1352 C1345 1.424 . S
C1352 C1351 1.413 . S
C1352 N1356 1.361 . S
C1353 C1351 1.427 . S
C1353 C1354 1.328 . S
C1353 H1368 0.929 . S
C1354 C1348 1.448 . S
C1354 C1353 1.328 . S
C1354 H1369 0.930 . S
Tb1355 N1346 2.617 . S
Tb1355 N1356 2.572 . S
Tb1355 O1390 2.349 . S
Tb1355 O1393 2.393 . S
Tb1355 O1394 2.465 . S
Tb1355 O1395 2.387 . S
Tb1355 O1397 2.428 . S
Tb1355 O1398 2.308 . S
Tb1355 C1419 2.802 . S
N1356 C1352 1.361 . S
N1356 Tb1355 2.572 . S
N1356 C1358 1.340 . S
C1357 C1351 1.416 . S
C1357 C1359 1.332 . S
C1357 H1365 0.931 . S
C1358 N1356 1.340 . S
C1358 C1359 1.407 . S
C1358 H1364 0.930 . S
C1359 C1357 1.332 . S
C1359 C1358 1.407 . S
C1359 H1361 0.929 . S
H1360 C1349 0.930 . S
H1361 C1359 0.929 . S
H1362 C1377 0.930 . S
H1363 C1384 0.929 . S
H1364 C1358 0.930 . S
H1365 C1357 0.931 . S
H1366 C1380 0.930 . S
H1367 C1347 0.930 . S
H1368 C1353 0.929 . S
H1369 C1354 0.930 . S
H1370 C1375 0.930 . S
H1371 C1350 0.930 . S
H1372 C1383 0.931 . S
N1373 Tb1344 2.617 . S
N1373 C1374 1.379 . S
N1373 C1377 1.334 . S
C1374 N1373 1.379 . S
C1374 C1376 1.416 . S
C1374 C1382 1.424 . S
C1375 H1370 0.930 . S
C1375 C1377 1.390 . S
C1375 C1378 1.339 . S
C1376 C1374 1.416 . S
C1376 C1378 1.416 . S
C1376 C1409 1.448 . S
C1377 H1362 0.930 . S
C1377 N1373 1.334 . S
C1377 C1375 1.390 . S
C1378 C1375 1.339 . S
C1378 C1376 1.416 . S
C1378 H1385 0.930 . S
N1379 Tb1344 2.572 . S
N1379 C1380 1.340 . S
N1379 C1382 1.361 . S
C1380 H1366 0.930 . S
C1380 N1379 1.340 . S
C1380 C1384 1.407 . S
C1381 C1382 1.413 . S
C1381 C1383 1.416 . S
C1381 C1410 1.427 . S
C1382 C1374 1.424 . S
C1382 N1379 1.361 . S
C1382 C1381 1.413 . S
C1383 H1372 0.931 . S
C1383 C1381 1.416 . S
C1383 C1384 1.332 . S
C1384 H1363 0.929 . S
C1384 C1380 1.407 . S
C1384 C1383 1.332 . S
H1385 C1378 0.930 . S
H1386 C1409 0.930 . S
H1387 C1410 0.929 . S
O1388 Tb1344 2.465 . S
O1388 C1408 1.264 . S
O1389 Tb1344 2.387 . S
O1389 C1400 1.264 . S
O1390 Tb1355 2.349 . S
O1390 C1400 1.243 . S
O1391 Tb1344 2.428 . S
O1391 C1408 1.256 . S
O1392 Tb1344 2.308 . S
O1392 C1407 1.266 . S
O1393 Tb1355 2.393 . S
O1393 C1407 1.248 . S
O1394 Tb1355 2.465 . S
O1394 C1419 1.264 . S
O1395 Tb1355 2.387 . S
O1395 C1411 1.264 . S
O1396 Tb1344 2.349 . S
O1396 C1411 1.243 . S
O1397 Tb1355 2.428 . S
O1397 C1419 1.256 . S
O1398 Tb1355 2.308 . S
O1398 C1418 1.266 . S
O1399 Tb1344 2.393 . S
O1399 C1418 1.248 . S
C1400 O1389 1.264 . S
C1400 O1390 1.243 . S
C1401 C1404 1.399 . S
C1401 C1406 1.383 . S
C1401 C1408 1.496 . S
C1402 C1403 1.399 . S
C1402 C1406 1.389 . S
C1403 C1402 1.399 . S
C1403 C1405 1.380 . S
C1403 H1420 0.929 . S
C1404 C1401 1.399 . S
C1404 C1405 1.392 . S
C1404 H1421 0.929 . S
C1405 C1403 1.380 . S
C1405 C1404 1.392 . S
C1405 H1422 0.929 . S
C1406 C1401 1.383 . S
C1406 C1402 1.389 . S
C1406 H1423 0.931 . S
C1407 O1392 1.266 . S
C1407 O1393 1.248 . S
C1408 Tb1344 2.802 . S
C1408 O1388 1.264 . S
C1408 O1391 1.256 . S
C1408 C1401 1.496 . S
C1409 C1376 1.448 . S
C1409 H1386 0.930 . S
C1409 C1410 1.328 . S
C1410 C1381 1.427 . S
C1410 H1387 0.929 . S
C1410 C1409 1.328 . S
C1411 O1395 1.264 . S
C1411 O1396 1.243 . S
C1412 C1415 1.399 . S
C1412 C1416 1.383 . S
C1412 C1419 1.496 . S
C1413 C1414 1.399 . S
C1413 C1416 1.389 . S
C1414 C1413 1.399 . S
C1414 C1417 1.380 . S
C1414 H1424 0.929 . S
C1415 C1412 1.399 . S
C1415 C1417 1.392 . S
C1415 H1425 0.929 . S
C1416 C1412 1.383 . S
C1416 C1413 1.389 . S
C1416 H1426 0.931 . S
C1417 C1414 1.380 . S
C1417 C1415 1.392 . S
C1417 H1427 0.929 . S
C1418 O1398 1.266 . S
C1418 O1399 1.248 . S
C1419 Tb1355 2.802 . S
C1419 O1394 1.264 . S
C1419 O1397 1.256 . S
C1419 C1412 1.496 . S
H1420 C1403 0.929 . S
H1421 C1404 0.929 . S
H1422 C1405 0.929 . S
H1423 C1406 0.931 . S
H1424 C1414 0.929 . S
H1425 C1415 0.929 . S
H1426 C1416 0.931 . S
H1427 C1417 0.929 . S
Tb1428 N1457 2.617 . S
Tb1428 N1463 2.572 . S
Tb1428 O1472 2.465 . S
Tb1428 O1473 2.387 . S
Tb1428 O1475 2.428 . S
Tb1428 O1476 2.308 . S
Tb1428 O1480 2.349 . S
Tb1428 O1483 2.393 . S
Tb1428 C1492 2.802 . S
C1429 N1430 1.379 . S
C1429 C1432 1.416 . S
C1429 C1436 1.424 . S
N1430 C1429 1.379 . S
N1430 C1433 1.334 . S
N1430 Tb1439 2.617 . S
C1431 C1433 1.390 . S
C1431 C1434 1.339 . S
C1431 H1451 0.930 . S
C1432 C1429 1.416 . S
C1432 C1434 1.416 . S
C1432 C1438 1.448 . S
C1433 N1430 1.334 . S
C1433 C1431 1.390 . S
C1433 H1444 0.930 . S
C1434 C1431 1.339 . S
C1434 C1432 1.416 . S
C1434 H1455 0.930 . S
C1435 C1436 1.413 . S
C1435 C1437 1.427 . S
C1435 C1441 1.416 . S
C1436 C1429 1.424 . S
C1436 C1435 1.413 . S
C1436 N1440 1.361 . S
C1437 C1435 1.427 . S
C1437 C1438 1.328 . S
C1437 H1452 0.929 . S
C1438 C1432 1.448 . S
C1438 C1437 1.328 . S
C1438 H1453 0.930 . S
Tb1439 N1430 2.617 . S
Tb1439 N1440 2.572 . S
Tb1439 O1474 2.349 . S
Tb1439 O1477 2.393 . S
Tb1439 O1478 2.465 . S
Tb1439 O1479 2.387 . S
Tb1439 O1481 2.428 . S
Tb1439 O1482 2.308 . S
Tb1439 C1503 2.802 . S
N1440 C1436 1.361 . S
N1440 Tb1439 2.572 . S
N1440 C1442 1.340 . S
C1441 C1435 1.416 . S
C1441 C1443 1.332 . S
C1441 H1449 0.931 . S
C1442 N1440 1.340 . S
C1442 C1443 1.407 . S
C1442 H1448 0.930 . S
C1443 C1441 1.332 . S
C1443 C1442 1.407 . S
C1443 H1445 0.929 . S
H1444 C1433 0.930 . S
H1445 C1443 0.929 . S
H1446 C1461 0.930 . S
H1447 C1468 0.929 . S
H1448 C1442 0.930 . S
H1449 C1441 0.931 . S
H1450 C1464 0.930 . S
H1451 C1431 0.930 . S
H1452 C1437 0.929 . S
H1453 C1438 0.930 . S
H1454 C1459 0.930 . S
H1455 C1434 0.930 . S
H1456 C1467 0.931 . S
N1457 Tb1428 2.617 . S
N1457 C1458 1.379 . S
N1457 C1461 1.334 . S
C1458 N1457 1.379 . S
C1458 C1460 1.416 . S
C1458 C1466 1.424 . S
C1459 H1454 0.930 . S
C1459 C1461 1.390 . S
C1459 C1462 1.339 . S
C1460 C1458 1.416 . S
C1460 C1462 1.416 . S
C1460 C1493 1.448 . S
C1461 H1446 0.930 . S
C1461 N1457 1.334 . S
C1461 C1459 1.390 . S
C1462 C1459 1.339 . S
C1462 C1460 1.416 . S
C1462 H1469 0.930 . S
N1463 Tb1428 2.572 . S
N1463 C1464 1.340 . S
N1463 C1466 1.361 . S
C1464 H1450 0.930 . S
C1464 N1463 1.340 . S
C1464 C1468 1.407 . S
C1465 C1466 1.413 . S
C1465 C1467 1.416 . S
C1465 C1494 1.427 . S
C1466 C1458 1.424 . S
C1466 N1463 1.361 . S
C1466 C1465 1.413 . S
C1467 H1456 0.931 . S
C1467 C1465 1.416 . S
C1467 C1468 1.332 . S
C1468 H1447 0.929 . S
C1468 C1464 1.407 . S
C1468 C1467 1.332 . S
H1469 C1462 0.930 . S
H1470 C1493 0.930 . S
H1471 C1494 0.929 . S
O1472 Tb1428 2.465 . S
O1472 C1492 1.264 . S
O1473 Tb1428 2.387 . S
O1473 C1484 1.264 . S
O1474 Tb1439 2.349 . S
O1474 C1484 1.243 . S
O1475 Tb1428 2.428 . S
O1475 C1492 1.256 . S
O1476 Tb1428 2.308 . S
O1476 C1491 1.266 . S
O1477 Tb1439 2.393 . S
O1477 C1491 1.248 . S
O1478 Tb1439 2.465 . S
O1478 C1503 1.264 . S
O1479 Tb1439 2.387 . S
O1479 C1495 1.264 . S
O1480 Tb1428 2.349 . S
O1480 C1495 1.243 . S
O1481 Tb1439 2.428 . S
O1481 C1503 1.256 . S
O1482 Tb1439 2.308 . S
O1482 C1502 1.266 . S
O1483 Tb1428 2.393 . S
O1483 C1502 1.248 . S
C1484 O1473 1.264 . S
C1484 O1474 1.243 . S
C1485 C1488 1.399 . S
C1485 C1490 1.383 . S
C1485 C1492 1.496 . S
C1486 C1487 1.399 . S
C1486 C1490 1.389 . S
C1487 C1486 1.399 . S
C1487 C1489 1.380 . S
C1487 H1504 0.929 . S
C1488 C1485 1.399 . S
C1488 C1489 1.392 . S
C1488 H1505 0.929 . S
C1489 C1487 1.380 . S
C1489 C1488 1.392 . S
C1489 H1506 0.929 . S
C1490 C1485 1.383 . S
C1490 C1486 1.389 . S
C1490 H1507 0.931 . S
C1491 O1476 1.266 . S
C1491 O1477 1.248 . S
C1492 Tb1428 2.802 . S
C1492 O1472 1.264 . S
C1492 O1475 1.256 . S
C1492 C1485 1.496 . S
C1493 C1460 1.448 . S
C1493 H1470 0.930 . S
C1493 C1494 1.328 . S
C1494 C1465 1.427 . S
C1494 H1471 0.929 . S
C1494 C1493 1.328 . S
C1495 O1479 1.264 . S
C1495 O1480 1.243 . S
C1496 C1499 1.399 . S
C1496 C1500 1.383 . S
C1496 C1503 1.496 . S
C1497 C1498 1.399 . S
C1497 C1500 1.389 . S
C1498 C1497 1.399 . S
C1498 C1501 1.380 . S
C1498 H1508 0.929 . S
C1499 C1496 1.399 . S
C1499 C1501 1.392 . S
C1499 H1509 0.929 . S
C1500 C1496 1.383 . S
C1500 C1497 1.389 . S
C1500 H1510 0.931 . S
C1501 C1498 1.380 . S
C1501 C1499 1.392 . S
C1501 H1511 0.929 . S
C1502 O1482 1.266 . S
C1502 O1483 1.248 . S
C1503 Tb1439 2.802 . S
C1503 O1478 1.264 . S
C1503 O1481 1.256 . S
C1503 C1496 1.496 . S
H1504 C1487 0.929 . S
H1505 C1488 0.929 . S
H1506 C1489 0.929 . S
H1507 C1490 0.931 . S
H1508 C1498 0.929 . S
H1509 C1499 0.929 . S
H1510 C1500 0.931 . S
H1511 C1501 0.929 . S
Tb1512 N1541 2.617 . S
Tb1512 N1547 2.572 . S
Tb1512 O1556 2.465 . S
Tb1512 O1557 2.387 . S
Tb1512 O1559 2.428 . S
Tb1512 O1560 2.308 . S
Tb1512 O1564 2.349 . S
Tb1512 O1567 2.393 . S
Tb1512 C1576 2.802 . S
C1513 N1514 1.379 . S
C1513 C1516 1.416 . S
C1513 C1520 1.424 . S
N1514 C1513 1.379 . S
N1514 C1517 1.334 . S
N1514 Tb1523 2.617 . S
C1515 C1517 1.390 . S
C1515 C1518 1.339 . S
C1515 H1535 0.930 . S
C1516 C1513 1.416 . S
C1516 C1518 1.416 . S
C1516 C1522 1.448 . S
C1517 N1514 1.334 . S
C1517 C1515 1.390 . S
C1517 H1528 0.930 . S
C1518 C1515 1.339 . S
C1518 C1516 1.416 . S
C1518 H1539 0.930 . S
C1519 C1520 1.413 . S
C1519 C1521 1.427 . S
C1519 C1525 1.416 . S
C1520 C1513 1.424 . S
C1520 C1519 1.413 . S
C1520 N1524 1.361 . S
C1521 C1519 1.427 . S
C1521 C1522 1.328 . S
C1521 H1536 0.929 . S
C1522 C1516 1.448 . S
C1522 C1521 1.328 . S
C1522 H1537 0.930 . S
Tb1523 N1514 2.617 . S
Tb1523 N1524 2.572 . S
Tb1523 O1558 2.349 . S
Tb1523 O1561 2.393 . S
Tb1523 O1562 2.465 . S
Tb1523 O1563 2.387 . S
Tb1523 O1565 2.428 . S
Tb1523 O1566 2.308 . S
Tb1523 C1587 2.802 . S
N1524 C1520 1.361 . S
N1524 Tb1523 2.572 . S
N1524 C1526 1.340 . S
C1525 C1519 1.416 . S
C1525 C1527 1.332 . S
C1525 H1533 0.931 . S
C1526 N1524 1.340 . S
C1526 C1527 1.407 . S
C1526 H1532 0.930 . S
C1527 C1525 1.332 . S
C1527 C1526 1.407 . S
C1527 H1529 0.929 . S
H1528 C1517 0.930 . S
H1529 C1527 0.929 . S
H1530 C1545 0.930 . S
H1531 C1552 0.929 . S
H1532 C1526 0.930 . S
H1533 C1525 0.931 . S
H1534 C1548 0.930 . S
H1535 C1515 0.930 . S
H1536 C1521 0.929 . S
H1537 C1522 0.930 . S
H1538 C1543 0.930 . S
H1539 C1518 0.930 . S
H1540 C1551 0.931 . S
N1541 Tb1512 2.617 . S
N1541 C1542 1.379 . S
N1541 C1545 1.334 . S
C1542 N1541 1.379 . S
C1542 C1544 1.416 . S
C1542 C1550 1.424 . S
C1543 H1538 0.930 . S
C1543 C1545 1.390 . S
C1543 C1546 1.339 . S
C1544 C1542 1.416 . S
C1544 C1546 1.416 . S
C1544 C1577 1.448 . S
C1545 H1530 0.930 . S
C1545 N1541 1.334 . S
C1545 C1543 1.390 . S
C1546 C1543 1.339 . S
C1546 C1544 1.416 . S
C1546 H1553 0.930 . S
N1547 Tb1512 2.572 . S
N1547 C1548 1.340 . S
N1547 C1550 1.361 . S
C1548 H1534 0.930 . S
C1548 N1547 1.340 . S
C1548 C1552 1.407 . S
C1549 C1550 1.413 . S
C1549 C1551 1.416 . S
C1549 C1578 1.427 . S
C1550 C1542 1.424 . S
C1550 N1547 1.361 . S
C1550 C1549 1.413 . S
C1551 H1540 0.931 . S
C1551 C1549 1.416 . S
C1551 C1552 1.332 . S
C1552 H1531 0.929 . S
C1552 C1548 1.407 . S
C1552 C1551 1.332 . S
H1553 C1546 0.930 . S
H1554 C1577 0.930 . S
H1555 C1578 0.929 . S
O1556 Tb1512 2.465 . S
O1556 C1576 1.264 . S
O1557 Tb1512 2.387 . S
O1557 C1568 1.264 . S
O1558 Tb1523 2.349 . S
O1558 C1568 1.243 . S
O1559 Tb1512 2.428 . S
O1559 C1576 1.256 . S
O1560 Tb1512 2.308 . S
O1560 C1575 1.266 . S
O1561 Tb1523 2.393 . S
O1561 C1575 1.248 . S
O1562 Tb1523 2.465 . S
O1562 C1587 1.264 . S
O1563 Tb1523 2.387 . S
O1563 C1579 1.264 . S
O1564 Tb1512 2.349 . S
O1564 C1579 1.243 . S
O1565 Tb1523 2.428 . S
O1565 C1587 1.256 . S
O1566 Tb1523 2.308 . S
O1566 C1586 1.266 . S
O1567 Tb1512 2.393 . S
O1567 C1586 1.248 . S
C1568 O1557 1.264 . S
C1568 O1558 1.243 . S
C1569 C1572 1.399 . S
C1569 C1574 1.383 . S
C1569 C1576 1.496 . S
C1570 C1571 1.399 . S
C1570 C1574 1.389 . S
C1571 C1570 1.399 . S
C1571 C1573 1.380 . S
C1571 H1588 0.929 . S
C1572 C1569 1.399 . S
C1572 C1573 1.392 . S
C1572 H1589 0.929 . S
C1573 C1571 1.380 . S
C1573 C1572 1.392 . S
C1573 H1590 0.929 . S
C1574 C1569 1.383 . S
C1574 C1570 1.389 . S
C1574 H1591 0.931 . S
C1575 O1560 1.266 . S
C1575 O1561 1.248 . S
C1576 Tb1512 2.802 . S
C1576 O1556 1.264 . S
C1576 O1559 1.256 . S
C1576 C1569 1.496 . S
C1577 C1544 1.448 . S
C1577 H1554 0.930 . S
C1577 C1578 1.328 . S
C1578 C1549 1.427 . S
C1578 H1555 0.929 . S
C1578 C1577 1.328 . S
C1579 O1563 1.264 . S
C1579 O1564 1.243 . S
C1580 C1583 1.399 . S
C1580 C1584 1.383 . S
C1580 C1587 1.496 . S
C1581 C1582 1.399 . S
C1581 C1584 1.389 . S
C1582 C1581 1.399 . S
C1582 C1585 1.380 . S
C1582 H1592 0.929 . S
C1583 C1580 1.399 . S
C1583 C1585 1.392 . S
C1583 H1593 0.929 . S
C1584 C1580 1.383 . S
C1584 C1581 1.389 . S
C1584 H1594 0.931 . S
C1585 C1582 1.380 . S
C1585 C1583 1.392 . S
C1585 H1595 0.929 . S
C1586 O1566 1.266 . S
C1586 O1567 1.248 . S
C1587 Tb1523 2.802 . S
C1587 O1562 1.264 . S
C1587 O1565 1.256 . S
C1587 C1580 1.496 . S
H1588 C1571 0.929 . S
H1589 C1572 0.929 . S
H1590 C1573 0.929 . S
H1591 C1574 0.931 . S
H1592 C1582 0.929 . S
H1593 C1583 0.929 . S
H1594 C1584 0.931 . S
H1595 C1585 0.929 . S
Tb1596 N1625 2.617 . S
Tb1596 N1631 2.572 . S
Tb1596 O1640 2.465 . S
Tb1596 O1641 2.387 . S
Tb1596 O1643 2.428 . S
Tb1596 O1644 2.308 . S
Tb1596 O1648 2.349 . S
Tb1596 O1651 2.393 . S
Tb1596 C1660 2.802 . S
C1597 N1598 1.379 1_455 S
C1597 C1600 1.416 . S
C1597 C1604 1.424 . S
N1598 C1597 1.379 1_655 S
N1598 C1601 1.334 . S
N1598 Tb1607 2.617 . S
C1599 C1601 1.390 . S
C1599 C1602 1.339 . S
C1599 H1619 0.930 . S
C1600 C1597 1.416 . S
C1600 C1602 1.416 1_455 S
C1600 C1606 1.448 . S
C1601 N1598 1.334 . S
C1601 C1599 1.390 . S
C1601 H1612 0.930 . S
C1602 C1599 1.339 . S
C1602 C1600 1.416 1_655 S
C1602 H1623 0.929 1_655 S
C1603 C1604 1.413 . S
C1603 C1605 1.427 . S
C1603 C1609 1.416 . S
C1604 C1597 1.424 . S
C1604 C1603 1.413 . S
C1604 N1608 1.361 . S
C1605 C1603 1.427 . S
C1605 C1606 1.328 . S
C1605 H1620 0.929 . S
C1606 C1600 1.448 . S
C1606 C1605 1.328 . S
C1606 H1621 0.930 . S
Tb1607 N1598 2.617 . S
Tb1607 N1608 2.572 1_655 S
Tb1607 O1642 2.349 . S
Tb1607 O1645 2.393 . S
Tb1607 O1646 2.465 . S
Tb1607 O1647 2.387 . S
Tb1607 O1649 2.428 . S
Tb1607 O1650 2.308 . S
Tb1607 C1671 2.802 . S
N1608 C1604 1.361 . S
N1608 Tb1607 2.572 1_455 S
N1608 C1610 1.340 . S
C1609 C1603 1.416 . S
C1609 C1611 1.332 . S
C1609 H1617 0.931 . S
C1610 N1608 1.340 . S
C1610 C1611 1.407 . S
C1610 H1616 0.930 . S
C1611 C1609 1.332 . S
C1611 C1610 1.407 . S
C1611 H1613 0.929 . S
H1612 C1601 0.930 . S
H1613 C1611 0.929 . S
H1614 C1629 0.930 . S
H1615 C1636 0.929 . S
H1616 C1610 0.930 . S
H1617 C1609 0.931 . S
H1618 C1632 0.930 . S
H1619 C1599 0.930 . S
H1620 C1605 0.929 . S
H1621 C1606 0.930 . S
H1622 C1627 0.930 . S
H1623 C1602 0.929 1_455 S
H1624 C1635 0.931 . S
N1625 Tb1596 2.617 . S
N1625 C1626 1.379 . S
N1625 C1629 1.334 . S
C1626 N1625 1.379 . S
C1626 C1628 1.416 . S
C1626 C1634 1.424 . S
C1627 H1622 0.930 . S
C1627 C1629 1.390 . S
C1627 C1630 1.339 . S
C1628 C1626 1.416 . S
C1628 C1630 1.416 . S
C1628 C1661 1.448 . S
C1629 H1614 0.930 . S
C1629 N1625 1.334 . S
C1629 C1627 1.390 . S
C1630 C1627 1.339 . S
C1630 C1628 1.416 . S
C1630 H1637 0.930 . S
N1631 Tb1596 2.572 . S
N1631 C1632 1.340 . S
N1631 C1634 1.361 . S
C1632 H1618 0.930 . S
C1632 N1631 1.340 . S
C1632 C1636 1.407 . S
C1633 C1634 1.413 . S
C1633 C1635 1.416 . S
C1633 C1662 1.427 . S
C1634 C1626 1.424 . S
C1634 N1631 1.361 . S
C1634 C1633 1.413 . S
C1635 H1624 0.931 . S
C1635 C1633 1.416 . S
C1635 C1636 1.332 . S
C1636 H1615 0.929 . S
C1636 C1632 1.407 . S
C1636 C1635 1.332 . S
H1637 C1630 0.930 . S
H1638 C1661 0.930 . S
H1639 C1662 0.929 . S
O1640 Tb1596 2.465 . S
O1640 C1660 1.264 . S
O1641 Tb1596 2.387 . S
O1641 C1652 1.264 . S
O1642 Tb1607 2.349 . S
O1642 C1652 1.243 . S
O1643 Tb1596 2.428 . S
O1643 C1660 1.256 . S
O1644 Tb1596 2.308 . S
O1644 C1659 1.266 . S
O1645 Tb1607 2.393 . S
O1645 C1659 1.248 . S
O1646 Tb1607 2.465 . S
O1646 C1671 1.264 . S
O1647 Tb1607 2.387 . S
O1647 C1663 1.264 . S
O1648 Tb1596 2.349 . S
O1648 C1663 1.243 . S
O1649 Tb1607 2.428 . S
O1649 C1671 1.256 . S
O1650 Tb1607 2.308 . S
O1650 C1670 1.266 . S
O1651 Tb1596 2.393 . S
O1651 C1670 1.248 . S
C1652 O1641 1.264 . S
C1652 O1642 1.243 . S
C1653 C1656 1.399 . S
C1653 C1658 1.383 . S
C1653 C1660 1.496 . S
C1654 C1655 1.399 . S
C1654 C1658 1.389 . S
C1655 C1654 1.399 . S
C1655 C1657 1.380 . S
C1655 H1672 0.929 . S
C1656 C1653 1.399 . S
C1656 C1657 1.392 . S
C1656 H1673 0.929 . S
C1657 C1655 1.380 . S
C1657 C1656 1.392 . S
C1657 H1674 0.929 . S
C1658 C1653 1.383 . S
C1658 C1654 1.389 . S
C1658 H1675 0.931 . S
C1659 O1644 1.266 . S
C1659 O1645 1.248 . S
C1660 Tb1596 2.802 . S
C1660 O1640 1.264 . S
C1660 O1643 1.256 . S
C1660 C1653 1.496 . S
C1661 C1628 1.448 . S
C1661 H1638 0.930 . S
C1661 C1662 1.328 . S
C1662 C1633 1.427 . S
C1662 H1639 0.929 . S
C1662 C1661 1.328 . S
C1663 O1647 1.264 . S
C1663 O1648 1.243 . S
C1664 C1667 1.399 . S
C1664 C1668 1.383 . S
C1664 C1671 1.496 1_455 S
C1665 C1666 1.399 . S
C1665 C1668 1.389 . S
C1666 C1665 1.399 . S
C1666 C1669 1.380 . S
C1666 H1676 0.929 . S
C1667 C1664 1.399 . S
C1667 C1669 1.392 . S
C1667 H1677 0.929 . S
C1668 C1664 1.383 . S
C1668 C1665 1.389 . S
C1668 H1678 0.931 . S
C1669 C1666 1.380 . S
C1669 C1667 1.392 . S
C1669 H1679 0.929 . S
C1670 O1650 1.266 . S
C1670 O1651 1.248 . S
C1671 Tb1607 2.802 . S
C1671 O1646 1.264 . S
C1671 O1649 1.256 . S
C1671 C1664 1.496 1_655 S
H1672 C1655 0.929 . S
H1673 C1656 0.929 . S
H1674 C1657 0.929 . S
H1675 C1658 0.931 . S
H1676 C1666 0.929 . S
H1677 C1667 0.929 . S
H1678 C1668 0.931 . S
H1679 C1669 0.929 . S
Tb1680 N1709 2.617 . S
Tb1680 N1715 2.572 . S
Tb1680 O1724 2.465 . S
Tb1680 O1725 2.387 . S
Tb1680 O1727 2.428 . S
Tb1680 O1728 2.308 . S
Tb1680 O1732 2.349 . S
Tb1680 O1735 2.393 . S
Tb1680 C1744 2.802 . S
C1681 N1682 1.379 . S
C1681 C1684 1.416 . S
C1681 C1688 1.424 . S
N1682 C1681 1.379 . S
N1682 C1685 1.334 . S
N1682 Tb1691 2.617 . S
C1683 C1685 1.390 . S
C1683 C1686 1.339 . S
C1683 H1703 0.930 . S
C1684 C1681 1.416 . S
C1684 C1686 1.416 . S
C1684 C1690 1.448 . S
C1685 N1682 1.334 . S
C1685 C1683 1.390 . S
C1685 H1696 0.930 . S
C1686 C1683 1.339 . S
C1686 C1684 1.416 . S
C1686 H1707 0.930 . S
C1687 C1688 1.413 . S
C1687 C1689 1.427 . S
C1687 C1693 1.416 . S
C1688 C1681 1.424 . S
C1688 C1687 1.413 . S
C1688 N1692 1.361 . S
C1689 C1687 1.427 . S
C1689 C1690 1.328 . S
C1689 H1704 0.929 . S
C1690 C1684 1.448 . S
C1690 C1689 1.328 . S
C1690 H1705 0.930 . S
Tb1691 N1682 2.617 . S
Tb1691 N1692 2.572 . S
Tb1691 O1726 2.349 . S
Tb1691 O1729 2.393 . S
Tb1691 O1730 2.465 . S
Tb1691 O1731 2.387 . S
Tb1691 O1733 2.428 . S
Tb1691 O1734 2.308 . S
Tb1691 C1755 2.802 . S
N1692 C1688 1.361 . S
N1692 Tb1691 2.572 . S
N1692 C1694 1.340 . S
C1693 C1687 1.416 . S
C1693 C1695 1.332 . S
C1693 H1701 0.931 . S
C1694 N1692 1.340 . S
C1694 C1695 1.407 . S
C1694 H1700 0.930 . S
C1695 C1693 1.332 . S
C1695 C1694 1.407 . S
C1695 H1697 0.929 . S
H1696 C1685 0.930 . S
H1697 C1695 0.929 . S
H1698 C1713 0.930 . S
H1699 C1720 0.929 . S
H1700 C1694 0.930 . S
H1701 C1693 0.931 . S
H1702 C1716 0.930 . S
H1703 C1683 0.930 . S
H1704 C1689 0.929 . S
H1705 C1690 0.930 . S
H1706 C1711 0.930 . S
H1707 C1686 0.930 . S
H1708 C1719 0.931 . S
N1709 Tb1680 2.617 . S
N1709 C1710 1.379 . S
N1709 C1713 1.334 . S
C1710 N1709 1.379 . S
C1710 C1712 1.416 . S
C1710 C1718 1.424 . S
C1711 H1706 0.930 . S
C1711 C1713 1.390 . S
C1711 C1714 1.339 . S
C1712 C1710 1.416 . S
C1712 C1714 1.416 . S
C1712 C1745 1.448 . S
C1713 H1698 0.930 . S
C1713 N1709 1.334 . S
C1713 C1711 1.390 . S
C1714 C1711 1.339 . S
C1714 C1712 1.416 . S
C1714 H1721 0.930 . S
N1715 Tb1680 2.572 . S
N1715 C1716 1.340 . S
N1715 C1718 1.361 . S
C1716 H1702 0.930 . S
C1716 N1715 1.340 . S
C1716 C1720 1.407 . S
C1717 C1718 1.413 . S
C1717 C1719 1.416 . S
C1717 C1746 1.427 . S
C1718 C1710 1.424 . S
C1718 N1715 1.361 . S
C1718 C1717 1.413 . S
C1719 H1708 0.931 . S
C1719 C1717 1.416 . S
C1719 C1720 1.332 . S
C1720 H1699 0.929 . S
C1720 C1716 1.407 . S
C1720 C1719 1.332 . S
H1721 C1714 0.930 . S
H1722 C1745 0.930 . S
H1723 C1746 0.929 . S
O1724 Tb1680 2.465 . S
O1724 C1744 1.264 . S
O1725 Tb1680 2.387 . S
O1725 C1736 1.264 . S
O1726 Tb1691 2.349 . S
O1726 C1736 1.243 . S
O1727 Tb1680 2.428 . S
O1727 C1744 1.256 . S
O1728 Tb1680 2.308 . S
O1728 C1743 1.266 . S
O1729 Tb1691 2.393 . S
O1729 C1743 1.248 . S
O1730 Tb1691 2.465 . S
O1730 C1755 1.264 . S
O1731 Tb1691 2.387 . S
O1731 C1747 1.264 . S
O1732 Tb1680 2.349 . S
O1732 C1747 1.243 . S
O1733 Tb1691 2.428 . S
O1733 C1755 1.256 . S
O1734 Tb1691 2.308 . S
O1734 C1754 1.266 . S
O1735 Tb1680 2.393 . S
O1735 C1754 1.248 . S
C1736 O1725 1.264 . S
C1736 O1726 1.243 . S
C1737 C1740 1.399 . S
C1737 C1742 1.383 . S
C1737 C1744 1.496 . S
C1738 C1739 1.399 . S
C1738 C1742 1.389 . S
C1739 C1738 1.399 . S
C1739 C1741 1.380 . S
C1739 H1756 0.929 . S
C1740 C1737 1.399 . S
C1740 C1741 1.392 . S
C1740 H1757 0.929 . S
C1741 C1739 1.380 . S
C1741 C1740 1.392 . S
C1741 H1758 0.929 . S
C1742 C1737 1.383 . S
C1742 C1738 1.389 . S
C1742 H1759 0.931 . S
C1743 O1728 1.266 . S
C1743 O1729 1.248 . S
C1744 Tb1680 2.802 . S
C1744 O1724 1.264 . S
C1744 O1727 1.256 . S
C1744 C1737 1.496 . S
C1745 C1712 1.448 . S
C1745 H1722 0.930 . S
C1745 C1746 1.328 . S
C1746 C1717 1.427 . S
C1746 H1723 0.929 . S
C1746 C1745 1.328 . S
C1747 O1731 1.264 . S
C1747 O1732 1.243 . S
C1748 C1751 1.399 . S
C1748 C1752 1.383 . S
C1748 C1755 1.496 . S
C1749 C1750 1.399 . S
C1749 C1752 1.389 . S
C1750 C1749 1.399 . S
C1750 C1753 1.380 . S
C1750 H1760 0.929 . S
C1751 C1748 1.399 . S
C1751 C1753 1.392 . S
C1751 H1761 0.929 . S
C1752 C1748 1.383 . S
C1752 C1749 1.389 . S
C1752 H1762 0.931 . S
C1753 C1750 1.380 . S
C1753 C1751 1.392 . S
C1753 H1763 0.929 . S
C1754 O1734 1.266 . S
C1754 O1735 1.248 . S
C1755 Tb1691 2.802 . S
C1755 O1730 1.264 . S
C1755 O1733 1.256 . S
C1755 C1748 1.496 . S
H1756 C1739 0.929 . S
H1757 C1740 0.929 . S
H1758 C1741 0.929 . S
H1759 C1742 0.931 . S
H1760 C1750 0.929 . S
H1761 C1751 0.929 . S
H1762 C1752 0.931 . S
H1763 C1753 0.929 . S
Tb1764 N1793 2.617 . S
Tb1764 N1799 2.572 . S
Tb1764 O1808 2.465 . S
Tb1764 O1809 2.387 . S
Tb1764 O1811 2.428 . S
Tb1764 O1812 2.308 . S
Tb1764 O1816 2.349 . S
Tb1764 O1819 2.393 . S
Tb1764 C1828 2.802 . S
C1765 N1766 1.379 1_455 S
C1765 C1768 1.416 . S
C1765 C1772 1.424 . S
N1766 C1765 1.379 1_655 S
N1766 C1769 1.334 . S
N1766 Tb1775 2.617 . S
C1767 C1769 1.390 . S
C1767 C1770 1.339 . S
C1767 H1787 0.930 . S
C1768 C1765 1.416 . S
C1768 C1770 1.416 1_455 S
C1768 C1774 1.448 . S
C1769 N1766 1.334 . S
C1769 C1767 1.390 . S
C1769 H1780 0.930 . S
C1770 C1767 1.339 . S
C1770 C1768 1.416 1_655 S
C1770 H1791 0.929 1_655 S
C1771 C1772 1.413 . S
C1771 C1773 1.427 . S
C1771 C1777 1.416 . S
C1772 C1765 1.424 . S
C1772 C1771 1.413 . S
C1772 N1776 1.361 . S
C1773 C1771 1.427 . S
C1773 C1774 1.328 . S
C1773 H1788 0.929 . S
C1774 C1768 1.448 . S
C1774 C1773 1.328 . S
C1774 H1789 0.930 . S
Tb1775 N1766 2.617 . S
Tb1775 N1776 2.572 1_655 S
Tb1775 O1810 2.349 . S
Tb1775 O1813 2.393 . S
Tb1775 O1814 2.465 . S
Tb1775 O1815 2.387 . S
Tb1775 O1817 2.428 . S
Tb1775 O1818 2.308 . S
Tb1775 C1839 2.802 . S
N1776 C1772 1.361 . S
N1776 Tb1775 2.572 1_455 S
N1776 C1778 1.340 . S
C1777 C1771 1.416 . S
C1777 C1779 1.332 . S
C1777 H1785 0.931 . S
C1778 N1776 1.340 . S
C1778 C1779 1.407 . S
C1778 H1784 0.930 . S
C1779 C1777 1.332 . S
C1779 C1778 1.407 . S
C1779 H1781 0.929 . S
H1780 C1769 0.930 . S
H1781 C1779 0.929 . S
H1782 C1797 0.930 . S
H1783 C1804 0.929 . S
H1784 C1778 0.930 . S
H1785 C1777 0.931 . S
H1786 C1800 0.930 . S
H1787 C1767 0.930 . S
H1788 C1773 0.929 . S
H1789 C1774 0.930 . S
H1790 C1795 0.930 . S
H1791 C1770 0.929 1_455 S
H1792 C1803 0.931 . S
N1793 Tb1764 2.617 . S
N1793 C1794 1.379 . S
N1793 C1797 1.334 . S
C1794 N1793 1.379 . S
C1794 C1796 1.416 . S
C1794 C1802 1.424 . S
C1795 H1790 0.930 . S
C1795 C1797 1.390 . S
C1795 C1798 1.339 . S
C1796 C1794 1.416 . S
C1796 C1798 1.416 . S
C1796 C1829 1.448 . S
C1797 H1782 0.930 . S
C1797 N1793 1.334 . S
C1797 C1795 1.390 . S
C1798 C1795 1.339 . S
C1798 C1796 1.416 . S
C1798 H1805 0.930 . S
N1799 Tb1764 2.572 . S
N1799 C1800 1.340 . S
N1799 C1802 1.361 . S
C1800 H1786 0.930 . S
C1800 N1799 1.340 . S
C1800 C1804 1.407 . S
C1801 C1802 1.413 . S
C1801 C1803 1.416 . S
C1801 C1830 1.427 . S
C1802 C1794 1.424 . S
C1802 N1799 1.361 . S
C1802 C1801 1.413 . S
C1803 H1792 0.931 . S
C1803 C1801 1.416 . S
C1803 C1804 1.332 . S
C1804 H1783 0.929 . S
C1804 C1800 1.407 . S
C1804 C1803 1.332 . S
H1805 C1798 0.930 . S
H1806 C1829 0.930 . S
H1807 C1830 0.929 . S
O1808 Tb1764 2.465 . S
O1808 C1828 1.264 . S
O1809 Tb1764 2.387 . S
O1809 C1820 1.264 . S
O1810 Tb1775 2.349 . S
O1810 C1820 1.243 . S
O1811 Tb1764 2.428 . S
O1811 C1828 1.256 . S
O1812 Tb1764 2.308 . S
O1812 C1827 1.266 . S
O1813 Tb1775 2.393 . S
O1813 C1827 1.248 . S
O1814 Tb1775 2.465 . S
O1814 C1839 1.264 . S
O1815 Tb1775 2.387 . S
O1815 C1831 1.264 . S
O1816 Tb1764 2.349 . S
O1816 C1831 1.243 . S
O1817 Tb1775 2.428 . S
O1817 C1839 1.256 . S
O1818 Tb1775 2.308 . S
O1818 C1838 1.266 . S
O1819 Tb1764 2.393 . S
O1819 C1838 1.248 . S
C1820 O1809 1.264 . S
C1820 O1810 1.243 . S
C1821 C1824 1.399 . S
C1821 C1826 1.383 . S
C1821 C1828 1.496 . S
C1822 C1823 1.399 . S
C1822 C1826 1.389 . S
C1823 C1822 1.399 . S
C1823 C1825 1.380 . S
C1823 H1840 0.929 . S
C1824 C1821 1.399 . S
C1824 C1825 1.392 . S
C1824 H1841 0.929 . S
C1825 C1823 1.380 . S
C1825 C1824 1.392 . S
C1825 H1842 0.929 . S
C1826 C1821 1.383 . S
C1826 C1822 1.389 . S
C1826 H1843 0.931 . S
C1827 O1812 1.266 . S
C1827 O1813 1.248 . S
C1828 Tb1764 2.802 . S
C1828 O1808 1.264 . S
C1828 O1811 1.256 . S
C1828 C1821 1.496 . S
C1829 C1796 1.448 . S
C1829 H1806 0.930 . S
C1829 C1830 1.328 . S
C1830 C1801 1.427 . S
C1830 H1807 0.929 . S
C1830 C1829 1.328 . S
C1831 O1815 1.264 . S
C1831 O1816 1.243 . S
C1832 C1835 1.399 . S
C1832 C1836 1.383 . S
C1832 C1839 1.496 1_455 S
C1833 C1834 1.399 . S
C1833 C1836 1.389 . S
C1834 C1833 1.399 . S
C1834 C1837 1.380 . S
C1834 H1844 0.929 . S
C1835 C1832 1.399 . S
C1835 C1837 1.392 . S
C1835 H1845 0.929 . S
C1836 C1832 1.383 . S
C1836 C1833 1.389 . S
C1836 H1846 0.931 . S
C1837 C1834 1.380 . S
C1837 C1835 1.392 . S
C1837 H1847 0.929 . S
C1838 O1818 1.266 . S
C1838 O1819 1.248 . S
C1839 Tb1775 2.802 . S
C1839 O1814 1.264 . S
C1839 O1817 1.256 . S
C1839 C1832 1.496 1_655 S
H1840 C1823 0.929 . S
H1841 C1824 0.929 . S
H1842 C1825 0.929 . S
H1843 C1826 0.931 . S
H1844 C1834 0.929 . S
H1845 C1835 0.929 . S
H1846 C1836 0.931 . S
H1847 C1837 0.929 . S
Tb1848 N1877 2.617 . S
Tb1848 N1883 2.572 . S
Tb1848 O1892 2.465 . S
Tb1848 O1893 2.387 . S
Tb1848 O1895 2.428 . S
Tb1848 O1896 2.308 . S
Tb1848 O1900 2.349 . S
Tb1848 O1903 2.393 . S
Tb1848 C1912 2.802 . S
C1849 N1850 1.379 . S
C1849 C1852 1.416 . S
C1849 C1856 1.424 . S
N1850 C1849 1.379 . S
N1850 C1853 1.334 . S
N1850 Tb1859 2.617 . S
C1851 C1853 1.390 . S
C1851 C1854 1.339 . S
C1851 H1871 0.930 . S
C1852 C1849 1.416 . S
C1852 C1854 1.416 . S
C1852 C1858 1.448 . S
C1853 N1850 1.334 . S
C1853 C1851 1.390 . S
C1853 H1864 0.930 . S
C1854 C1851 1.339 . S
C1854 C1852 1.416 . S
C1854 H1875 0.930 . S
C1855 C1856 1.413 . S
C1855 C1857 1.427 . S
C1855 C1861 1.416 . S
C1856 C1849 1.424 . S
C1856 C1855 1.413 . S
C1856 N1860 1.361 . S
C1857 C1855 1.427 . S
C1857 C1858 1.328 . S
C1857 H1872 0.929 . S
C1858 C1852 1.448 . S
C1858 C1857 1.328 . S
C1858 H1873 0.930 . S
Tb1859 N1850 2.617 . S
Tb1859 N1860 2.572 . S
Tb1859 O1894 2.349 . S
Tb1859 O1897 2.393 . S
Tb1859 O1898 2.465 . S
Tb1859 O1899 2.387 . S
Tb1859 O1901 2.428 . S
Tb1859 O1902 2.308 . S
Tb1859 C1923 2.802 . S
N1860 C1856 1.361 . S
N1860 Tb1859 2.572 . S
N1860 C1862 1.340 . S
C1861 C1855 1.416 . S
C1861 C1863 1.332 . S
C1861 H1869 0.931 . S
C1862 N1860 1.340 . S
C1862 C1863 1.407 . S
C1862 H1868 0.930 . S
C1863 C1861 1.332 . S
C1863 C1862 1.407 . S
C1863 H1865 0.929 . S
H1864 C1853 0.930 . S
H1865 C1863 0.929 . S
H1866 C1881 0.930 . S
H1867 C1888 0.929 . S
H1868 C1862 0.930 . S
H1869 C1861 0.931 . S
H1870 C1884 0.930 . S
H1871 C1851 0.930 . S
H1872 C1857 0.929 . S
H1873 C1858 0.930 . S
H1874 C1879 0.930 . S
H1875 C1854 0.930 . S
H1876 C1887 0.931 . S
N1877 Tb1848 2.617 . S
N1877 C1878 1.379 . S
N1877 C1881 1.334 . S
C1878 N1877 1.379 . S
C1878 C1880 1.416 . S
C1878 C1886 1.424 . S
C1879 H1874 0.930 . S
C1879 C1881 1.390 . S
C1879 C1882 1.339 . S
C1880 C1878 1.416 . S
C1880 C1882 1.416 . S
C1880 C1913 1.448 . S
C1881 H1866 0.930 . S
C1881 N1877 1.334 . S
C1881 C1879 1.390 . S
C1882 C1879 1.339 . S
C1882 C1880 1.416 . S
C1882 H1889 0.930 . S
N1883 Tb1848 2.572 . S
N1883 C1884 1.340 . S
N1883 C1886 1.361 . S
C1884 H1870 0.930 . S
C1884 N1883 1.340 . S
C1884 C1888 1.407 . S
C1885 C1886 1.413 . S
C1885 C1887 1.416 . S
C1885 C1914 1.427 . S
C1886 C1878 1.424 . S
C1886 N1883 1.361 . S
C1886 C1885 1.413 . S
C1887 H1876 0.931 . S
C1887 C1885 1.416 . S
C1887 C1888 1.332 . S
C1888 H1867 0.929 . S
C1888 C1884 1.407 . S
C1888 C1887 1.332 . S
H1889 C1882 0.930 . S
H1890 C1913 0.930 . S
H1891 C1914 0.929 . S
O1892 Tb1848 2.465 . S
O1892 C1912 1.264 . S
O1893 Tb1848 2.387 . S
O1893 C1904 1.264 . S
O1894 Tb1859 2.349 . S
O1894 C1904 1.243 . S
O1895 Tb1848 2.428 . S
O1895 C1912 1.256 . S
O1896 Tb1848 2.308 . S
O1896 C1911 1.266 . S
O1897 Tb1859 2.393 . S
O1897 C1911 1.248 . S
O1898 Tb1859 2.465 . S
O1898 C1923 1.264 . S
O1899 Tb1859 2.387 . S
O1899 C1915 1.264 . S
O1900 Tb1848 2.349 . S
O1900 C1915 1.243 . S
O1901 Tb1859 2.428 . S
O1901 C1923 1.256 . S
O1902 Tb1859 2.308 . S
O1902 C1922 1.266 . S
O1903 Tb1848 2.393 . S
O1903 C1922 1.248 . S
C1904 O1893 1.264 . S
C1904 O1894 1.243 . S
C1905 C1908 1.399 . S
C1905 C1910 1.383 . S
C1905 C1912 1.496 . S
C1906 C1907 1.399 . S
C1906 C1910 1.389 . S
C1907 C1906 1.399 . S
C1907 C1909 1.380 . S
C1907 H1924 0.929 . S
C1908 C1905 1.399 . S
C1908 C1909 1.392 . S
C1908 H1925 0.929 . S
C1909 C1907 1.380 . S
C1909 C1908 1.392 . S
C1909 H1926 0.929 . S
C1910 C1905 1.383 . S
C1910 C1906 1.389 . S
C1910 H1927 0.931 . S
C1911 O1896 1.266 . S
C1911 O1897 1.248 . S
C1912 Tb1848 2.802 . S
C1912 O1892 1.264 . S
C1912 O1895 1.256 . S
C1912 C1905 1.496 . S
C1913 C1880 1.448 . S
C1913 H1890 0.930 . S
C1913 C1914 1.328 . S
C1914 C1885 1.427 . S
C1914 H1891 0.929 . S
C1914 C1913 1.328 . S
C1915 O1899 1.264 . S
C1915 O1900 1.243 . S
C1916 C1919 1.399 . S
C1916 C1920 1.383 . S
C1916 C1923 1.496 . S
C1917 C1918 1.399 . S
C1917 C1920 1.389 . S
C1918 C1917 1.399 . S
C1918 C1921 1.380 . S
C1918 H1928 0.929 . S
C1919 C1916 1.399 . S
C1919 C1921 1.392 . S
C1919 H1929 0.929 . S
C1920 C1916 1.383 . S
C1920 C1917 1.389 . S
C1920 H1930 0.931 . S
C1921 C1918 1.380 . S
C1921 C1919 1.392 . S
C1921 H1931 0.929 . S
C1922 O1902 1.266 . S
C1922 O1903 1.248 . S
C1923 Tb1859 2.802 . S
C1923 O1898 1.264 . S
C1923 O1901 1.256 . S
C1923 C1916 1.496 . S
H1924 C1907 0.929 . S
H1925 C1908 0.929 . S
H1926 C1909 0.929 . S
H1927 C1910 0.931 . S
H1928 C1918 0.929 . S
H1929 C1919 0.929 . S
H1930 C1920 0.931 . S
H1931 C1921 0.929 . S
Tb1932 N1961 2.617 . S
Tb1932 N1967 2.572 . S
Tb1932 O1976 2.465 . S
Tb1932 O1977 2.387 . S
Tb1932 O1979 2.428 . S
Tb1932 O1980 2.308 . S
Tb1932 O1984 2.349 . S
Tb1932 O1987 2.393 . S
Tb1932 C1996 2.802 . S
C1933 N1934 1.379 . S
C1933 C1936 1.416 . S
C1933 C1940 1.424 . S
N1934 C1933 1.379 . S
N1934 C1937 1.334 . S
N1934 Tb1943 2.617 . S
C1935 C1937 1.390 . S
C1935 C1938 1.339 . S
C1935 H1955 0.930 . S
C1936 C1933 1.416 . S
C1936 C1938 1.416 . S
C1936 C1942 1.448 . S
C1937 N1934 1.334 . S
C1937 C1935 1.390 . S
C1937 H1948 0.930 . S
C1938 C1935 1.339 . S
C1938 C1936 1.416 . S
C1938 H1959 0.930 . S
C1939 C1940 1.413 . S
C1939 C1941 1.427 . S
C1939 C1945 1.416 . S
C1940 C1933 1.424 . S
C1940 C1939 1.413 . S
C1940 N1944 1.361 . S
C1941 C1939 1.427 . S
C1941 C1942 1.328 . S
C1941 H1956 0.929 . S
C1942 C1936 1.448 . S
C1942 C1941 1.328 . S
C1942 H1957 0.930 . S
Tb1943 N1934 2.617 . S
Tb1943 N1944 2.572 . S
Tb1943 O1978 2.349 . S
Tb1943 O1981 2.393 . S
Tb1943 O1982 2.465 . S
Tb1943 O1983 2.387 . S
Tb1943 O1985 2.428 . S
Tb1943 O1986 2.308 . S
Tb1943 C2007 2.802 . S
N1944 C1940 1.361 . S
N1944 Tb1943 2.572 . S
N1944 C1946 1.340 . S
C1945 C1939 1.416 . S
C1945 C1947 1.332 . S
C1945 H1953 0.931 . S
C1946 N1944 1.340 . S
C1946 C1947 1.407 . S
C1946 H1952 0.930 . S
C1947 C1945 1.332 . S
C1947 C1946 1.407 . S
C1947 H1949 0.929 . S
H1948 C1937 0.930 . S
H1949 C1947 0.929 . S
H1950 C1965 0.930 . S
H1951 C1972 0.929 . S
H1952 C1946 0.930 . S
H1953 C1945 0.931 . S
H1954 C1968 0.930 . S
H1955 C1935 0.930 . S
H1956 C1941 0.929 . S
H1957 C1942 0.930 . S
H1958 C1963 0.930 . S
H1959 C1938 0.930 . S
H1960 C1971 0.931 . S
N1961 Tb1932 2.617 . S
N1961 C1962 1.379 . S
N1961 C1965 1.334 . S
C1962 N1961 1.379 . S
C1962 C1964 1.416 . S
C1962 C1970 1.424 . S
C1963 H1958 0.930 . S
C1963 C1965 1.390 . S
C1963 C1966 1.339 . S
C1964 C1962 1.416 . S
C1964 C1966 1.416 . S
C1964 C1997 1.448 . S
C1965 H1950 0.930 . S
C1965 N1961 1.334 . S
C1965 C1963 1.390 . S
C1966 C1963 1.339 . S
C1966 C1964 1.416 . S
C1966 H1973 0.930 . S
N1967 Tb1932 2.572 . S
N1967 C1968 1.340 . S
N1967 C1970 1.361 . S
C1968 H1954 0.930 . S
C1968 N1967 1.340 . S
C1968 C1972 1.407 . S
C1969 C1970 1.413 . S
C1969 C1971 1.416 . S
C1969 C1998 1.427 . S
C1970 C1962 1.424 . S
C1970 N1967 1.361 . S
C1970 C1969 1.413 . S
C1971 H1960 0.931 . S
C1971 C1969 1.416 . S
C1971 C1972 1.332 . S
C1972 H1951 0.929 . S
C1972 C1968 1.407 . S
C1972 C1971 1.332 . S
H1973 C1966 0.930 . S
H1974 C1997 0.930 . S
H1975 C1998 0.929 . S
O1976 Tb1932 2.465 . S
O1976 C1996 1.264 . S
O1977 Tb1932 2.387 . S
O1977 C1988 1.264 . S
O1978 Tb1943 2.349 . S
O1978 C1988 1.243 . S
O1979 Tb1932 2.428 . S
O1979 C1996 1.256 . S
O1980 Tb1932 2.308 . S
O1980 C1995 1.266 . S
O1981 Tb1943 2.393 . S
O1981 C1995 1.248 . S
O1982 Tb1943 2.465 . S
O1982 C2007 1.264 . S
O1983 Tb1943 2.387 . S
O1983 C1999 1.264 . S
O1984 Tb1932 2.349 . S
O1984 C1999 1.243 . S
O1985 Tb1943 2.428 . S
O1985 C2007 1.256 . S
O1986 Tb1943 2.308 . S
O1986 C2006 1.266 . S
O1987 Tb1932 2.393 . S
O1987 C2006 1.248 . S
C1988 O1977 1.264 . S
C1988 O1978 1.243 . S
C1989 C1992 1.399 . S
C1989 C1994 1.383 . S
C1989 C1996 1.496 . S
C1990 C1991 1.399 . S
C1990 C1994 1.389 . S
C1991 C1990 1.399 . S
C1991 C1993 1.380 . S
C1991 H2008 0.929 . S
C1992 C1989 1.399 . S
C1992 C1993 1.392 . S
C1992 H2009 0.929 . S
C1993 C1991 1.380 . S
C1993 C1992 1.392 . S
C1993 H2010 0.929 . S
C1994 C1989 1.383 . S
C1994 C1990 1.389 . S
C1994 H2011 0.931 . S
C1995 O1980 1.266 . S
C1995 O1981 1.248 . S
C1996 Tb1932 2.802 . S
C1996 O1976 1.264 . S
C1996 O1979 1.256 . S
C1996 C1989 1.496 . S
C1997 C1964 1.448 . S
C1997 H1974 0.930 . S
C1997 C1998 1.328 . S
C1998 C1969 1.427 . S
C1998 H1975 0.929 . S
C1998 C1997 1.328 . S
C1999 O1983 1.264 . S
C1999 O1984 1.243 . S
C2000 C2003 1.399 . S
C2000 C2004 1.383 . S
C2000 C2007 1.496 . S
C2001 C2002 1.399 . S
C2001 C2004 1.389 . S
C2002 C2001 1.399 . S
C2002 C2005 1.380 . S
C2002 H2012 0.929 . S
C2003 C2000 1.399 . S
C2003 C2005 1.392 . S
C2003 H2013 0.929 . S
C2004 C2000 1.383 . S
C2004 C2001 1.389 . S
C2004 H2014 0.931 . S
C2005 C2002 1.380 . S
C2005 C2003 1.392 . S
C2005 H2015 0.929 . S
C2006 O1986 1.266 . S
C2006 O1987 1.248 . S
C2007 Tb1943 2.802 . S
C2007 O1982 1.264 . S
C2007 O1985 1.256 . S
C2007 C2000 1.496 . S
H2008 C1991 0.929 . S
H2009 C1992 0.929 . S
H2010 C1993 0.929 . S
H2011 C1994 0.931 . S
H2012 C2002 0.929 . S
H2013 C2003 0.929 . S
H2014 C2004 0.931 . S
H2015 C2005 0.929 . S
Tb2016 N2045 2.617 . S
Tb2016 N2051 2.572 . S
Tb2016 O2060 2.465 . S
Tb2016 O2061 2.387 . S
Tb2016 O2063 2.428 . S
Tb2016 O2064 2.308 . S
Tb2016 O2068 2.349 . S
Tb2016 O2071 2.393 . S
Tb2016 C2080 2.802 . S
C2017 N2018 1.379 . S
C2017 C2020 1.416 . S
C2017 C2024 1.424 . S
N2018 C2017 1.379 . S
N2018 C2021 1.334 . S
N2018 Tb2027 2.617 . S
C2019 C2021 1.390 . S
C2019 C2022 1.339 . S
C2019 H2039 0.930 . S
C2020 C2017 1.416 . S
C2020 C2022 1.416 . S
C2020 C2026 1.448 . S
C2021 N2018 1.334 . S
C2021 C2019 1.390 . S
C2021 H2032 0.930 . S
C2022 C2019 1.339 . S
C2022 C2020 1.416 . S
C2022 H2043 0.930 . S
C2023 C2024 1.413 . S
C2023 C2025 1.427 . S
C2023 C2029 1.416 . S
C2024 C2017 1.424 . S
C2024 C2023 1.413 . S
C2024 N2028 1.361 . S
C2025 C2023 1.427 . S
C2025 C2026 1.328 . S
C2025 H2040 0.929 . S
C2026 C2020 1.448 . S
C2026 C2025 1.328 . S
C2026 H2041 0.930 . S
Tb2027 N2018 2.617 . S
Tb2027 N2028 2.572 . S
Tb2027 O2062 2.349 . S
Tb2027 O2065 2.393 . S
Tb2027 O2066 2.465 . S
Tb2027 O2067 2.387 . S
Tb2027 O2069 2.428 . S
Tb2027 O2070 2.308 . S
Tb2027 C2091 2.802 . S
N2028 C2024 1.361 . S
N2028 Tb2027 2.572 . S
N2028 C2030 1.340 . S
C2029 C2023 1.416 . S
C2029 C2031 1.332 . S
C2029 H2037 0.931 . S
C2030 N2028 1.340 . S
C2030 C2031 1.407 . S
C2030 H2036 0.930 . S
C2031 C2029 1.332 . S
C2031 C2030 1.407 . S
C2031 H2033 0.929 . S
H2032 C2021 0.930 . S
H2033 C2031 0.929 . S
H2034 C2049 0.930 . S
H2035 C2056 0.929 . S
H2036 C2030 0.930 . S
H2037 C2029 0.931 . S
H2038 C2052 0.930 . S
H2039 C2019 0.930 . S
H2040 C2025 0.929 . S
H2041 C2026 0.930 . S
H2042 C2047 0.930 . S
H2043 C2022 0.930 . S
H2044 C2055 0.931 . S
N2045 Tb2016 2.617 . S
N2045 C2046 1.379 . S
N2045 C2049 1.334 . S
C2046 N2045 1.379 . S
C2046 C2048 1.416 . S
C2046 C2054 1.424 . S
C2047 H2042 0.930 . S
C2047 C2049 1.390 . S
C2047 C2050 1.339 . S
C2048 C2046 1.416 . S
C2048 C2050 1.416 . S
C2048 C2081 1.448 . S
C2049 H2034 0.930 . S
C2049 N2045 1.334 . S
C2049 C2047 1.390 . S
C2050 C2047 1.339 . S
C2050 C2048 1.416 . S
C2050 H2057 0.930 . S
N2051 Tb2016 2.572 . S
N2051 C2052 1.340 . S
N2051 C2054 1.361 . S
C2052 H2038 0.930 . S
C2052 N2051 1.340 . S
C2052 C2056 1.407 . S
C2053 C2054 1.413 . S
C2053 C2055 1.416 . S
C2053 C2082 1.427 . S
C2054 C2046 1.424 . S
C2054 N2051 1.361 . S
C2054 C2053 1.413 . S
C2055 H2044 0.931 . S
C2055 C2053 1.416 . S
C2055 C2056 1.332 . S
C2056 H2035 0.929 . S
C2056 C2052 1.407 . S
C2056 C2055 1.332 . S
H2057 C2050 0.930 . S
H2058 C2081 0.930 . S
H2059 C2082 0.929 . S
O2060 Tb2016 2.465 . S
O2060 C2080 1.264 . S
O2061 Tb2016 2.387 . S
O2061 C2072 1.264 . S
O2062 Tb2027 2.349 . S
O2062 C2072 1.243 . S
O2063 Tb2016 2.428 . S
O2063 C2080 1.256 . S
O2064 Tb2016 2.308 . S
O2064 C2079 1.266 . S
O2065 Tb2027 2.393 . S
O2065 C2079 1.248 . S
O2066 Tb2027 2.465 . S
O2066 C2091 1.264 . S
O2067 Tb2027 2.387 . S
O2067 C2083 1.264 . S
O2068 Tb2016 2.349 . S
O2068 C2083 1.243 . S
O2069 Tb2027 2.428 . S
O2069 C2091 1.256 . S
O2070 Tb2027 2.308 . S
O2070 C2090 1.266 . S
O2071 Tb2016 2.393 . S
O2071 C2090 1.248 . S
C2072 O2061 1.264 . S
C2072 O2062 1.243 . S
C2073 C2076 1.399 . S
C2073 C2078 1.383 . S
C2073 C2080 1.496 . S
C2074 C2075 1.399 . S
C2074 C2078 1.389 . S
C2075 C2074 1.399 . S
C2075 C2077 1.380 . S
C2075 H2092 0.929 . S
C2076 C2073 1.399 . S
C2076 C2077 1.392 . S
C2076 H2093 0.929 . S
C2077 C2075 1.380 . S
C2077 C2076 1.392 . S
C2077 H2094 0.929 . S
C2078 C2073 1.383 . S
C2078 C2074 1.389 . S
C2078 H2095 0.931 . S
C2079 O2064 1.266 . S
C2079 O2065 1.248 . S
C2080 Tb2016 2.802 . S
C2080 O2060 1.264 . S
C2080 O2063 1.256 . S
C2080 C2073 1.496 . S
C2081 C2048 1.448 . S
C2081 H2058 0.930 . S
C2081 C2082 1.328 . S
C2082 C2053 1.427 . S
C2082 H2059 0.929 . S
C2082 C2081 1.328 . S
C2083 O2067 1.264 . S
C2083 O2068 1.243 . S
C2084 C2087 1.399 . S
C2084 C2088 1.383 . S
C2084 C2091 1.496 . S
C2085 C2086 1.399 . S
C2085 C2088 1.389 . S
C2086 C2085 1.399 . S
C2086 C2089 1.380 . S
C2086 H2096 0.929 . S
C2087 C2084 1.399 . S
C2087 C2089 1.392 . S
C2087 H2097 0.929 . S
C2088 C2084 1.383 . S
C2088 C2085 1.389 . S
C2088 H2098 0.931 . S
C2089 C2086 1.380 . S
C2089 C2087 1.392 . S
C2089 H2099 0.929 . S
C2090 O2070 1.266 . S
C2090 O2071 1.248 . S
C2091 Tb2027 2.802 . S
C2091 O2066 1.264 . S
C2091 O2069 1.256 . S
C2091 C2084 1.496 . S
H2092 C2075 0.929 . S
H2093 C2076 0.929 . S
H2094 C2077 0.929 . S
H2095 C2078 0.931 . S
H2096 C2086 0.929 . S
H2097 C2087 0.929 . S
H2098 C2088 0.931 . S
H2099 C2089 0.929 . S
Tb2100 N2129 2.617 . S
Tb2100 N2135 2.572 . S
Tb2100 O2144 2.465 . S
Tb2100 O2145 2.387 . S
Tb2100 O2147 2.428 . S
Tb2100 O2148 2.308 . S
Tb2100 O2152 2.349 . S
Tb2100 O2155 2.393 . S
Tb2100 C2164 2.802 . S
C2101 N2102 1.379 . S
C2101 C2104 1.416 . S
C2101 C2108 1.424 . S
N2102 C2101 1.379 . S
N2102 C2105 1.334 . S
N2102 Tb2111 2.617 . S
C2103 C2105 1.390 . S
C2103 C2106 1.339 . S
C2103 H2123 0.930 . S
C2104 C2101 1.416 . S
C2104 C2106 1.416 . S
C2104 C2110 1.448 . S
C2105 N2102 1.334 . S
C2105 C2103 1.390 . S
C2105 H2116 0.930 . S
C2106 C2103 1.339 . S
C2106 C2104 1.416 . S
C2106 H2127 0.930 . S
C2107 C2108 1.413 . S
C2107 C2109 1.427 . S
C2107 C2113 1.416 . S
C2108 C2101 1.424 . S
C2108 C2107 1.413 . S
C2108 N2112 1.361 . S
C2109 C2107 1.427 . S
C2109 C2110 1.328 . S
C2109 H2124 0.929 . S
C2110 C2104 1.448 . S
C2110 C2109 1.328 . S
C2110 H2125 0.930 . S
Tb2111 N2102 2.617 . S
Tb2111 N2112 2.572 . S
Tb2111 O2146 2.349 . S
Tb2111 O2149 2.393 . S
Tb2111 O2150 2.465 . S
Tb2111 O2151 2.387 . S
Tb2111 O2153 2.428 . S
Tb2111 O2154 2.308 . S
Tb2111 C2175 2.802 . S
N2112 C2108 1.361 . S
N2112 Tb2111 2.572 . S
N2112 C2114 1.340 . S
C2113 C2107 1.416 . S
C2113 C2115 1.332 . S
C2113 H2121 0.931 . S
C2114 N2112 1.340 . S
C2114 C2115 1.407 . S
C2114 H2120 0.930 . S
C2115 C2113 1.332 . S
C2115 C2114 1.407 . S
C2115 H2117 0.929 . S
H2116 C2105 0.930 . S
H2117 C2115 0.929 . S
H2118 C2133 0.930 . S
H2119 C2140 0.929 . S
H2120 C2114 0.930 . S
H2121 C2113 0.931 . S
H2122 C2136 0.930 . S
H2123 C2103 0.930 . S
H2124 C2109 0.929 . S
H2125 C2110 0.930 . S
H2126 C2131 0.930 . S
H2127 C2106 0.930 . S
H2128 C2139 0.931 . S
N2129 Tb2100 2.617 . S
N2129 C2130 1.379 . S
N2129 C2133 1.334 . S
C2130 N2129 1.379 . S
C2130 C2132 1.416 . S
C2130 C2138 1.424 . S
C2131 H2126 0.930 . S
C2131 C2133 1.390 . S
C2131 C2134 1.339 . S
C2132 C2130 1.416 . S
C2132 C2134 1.416 . S
C2132 C2165 1.448 . S
C2133 H2118 0.930 . S
C2133 N2129 1.334 . S
C2133 C2131 1.390 . S
C2134 C2131 1.339 . S
C2134 C2132 1.416 . S
C2134 H2141 0.930 . S
N2135 Tb2100 2.572 . S
N2135 C2136 1.340 . S
N2135 C2138 1.361 . S
C2136 H2122 0.930 . S
C2136 N2135 1.340 . S
C2136 C2140 1.407 . S
C2137 C2138 1.413 . S
C2137 C2139 1.416 . S
C2137 C2166 1.427 . S
C2138 C2130 1.424 . S
C2138 N2135 1.361 . S
C2138 C2137 1.413 . S
C2139 H2128 0.931 . S
C2139 C2137 1.416 . S
C2139 C2140 1.332 . S
C2140 H2119 0.929 . S
C2140 C2136 1.407 . S
C2140 C2139 1.332 . S
H2141 C2134 0.930 . S
H2142 C2165 0.930 . S
H2143 C2166 0.929 . S
O2144 Tb2100 2.465 . S
O2144 C2164 1.264 . S
O2145 Tb2100 2.387 . S
O2145 C2156 1.264 . S
O2146 Tb2111 2.349 . S
O2146 C2156 1.243 . S
O2147 Tb2100 2.428 . S
O2147 C2164 1.256 . S
O2148 Tb2100 2.308 . S
O2148 C2163 1.266 . S
O2149 Tb2111 2.393 . S
O2149 C2163 1.248 . S
O2150 Tb2111 2.465 . S
O2150 C2175 1.264 . S
O2151 Tb2111 2.387 . S
O2151 C2167 1.264 . S
O2152 Tb2100 2.349 . S
O2152 C2167 1.243 . S
O2153 Tb2111 2.428 . S
O2153 C2175 1.256 . S
O2154 Tb2111 2.308 . S
O2154 C2174 1.266 . S
O2155 Tb2100 2.393 . S
O2155 C2174 1.248 . S
C2156 O2145 1.264 . S
C2156 O2146 1.243 . S
C2157 C2160 1.399 . S
C2157 C2162 1.383 . S
C2157 C2164 1.496 . S
C2158 C2159 1.399 . S
C2158 C2162 1.389 . S
C2159 C2158 1.399 . S
C2159 C2161 1.380 . S
C2159 H2176 0.929 . S
C2160 C2157 1.399 . S
C2160 C2161 1.392 . S
C2160 H2177 0.929 . S
C2161 C2159 1.380 . S
C2161 C2160 1.392 . S
C2161 H2178 0.929 . S
C2162 C2157 1.383 . S
C2162 C2158 1.389 . S
C2162 H2179 0.931 . S
C2163 O2148 1.266 . S
C2163 O2149 1.248 . S
C2164 Tb2100 2.802 . S
C2164 O2144 1.264 . S
C2164 O2147 1.256 . S
C2164 C2157 1.496 . S
C2165 C2132 1.448 . S
C2165 H2142 0.930 . S
C2165 C2166 1.328 . S
C2166 C2137 1.427 . S
C2166 H2143 0.929 . S
C2166 C2165 1.328 . S
C2167 O2151 1.264 . S
C2167 O2152 1.243 . S
C2168 C2171 1.399 . S
C2168 C2172 1.383 . S
C2168 C2175 1.496 . S
C2169 C2170 1.399 . S
C2169 C2172 1.389 . S
C2170 C2169 1.399 . S
C2170 C2173 1.380 . S
C2170 H2180 0.929 . S
C2171 C2168 1.399 . S
C2171 C2173 1.392 . S
C2171 H2181 0.929 . S
C2172 C2168 1.383 . S
C2172 C2169 1.389 . S
C2172 H2182 0.931 . S
C2173 C2170 1.380 . S
C2173 C2171 1.392 . S
C2173 H2183 0.929 . S
C2174 O2154 1.266 . S
C2174 O2155 1.248 . S
C2175 Tb2111 2.802 . S
C2175 O2150 1.264 . S
C2175 O2153 1.256 . S
C2175 C2168 1.496 . S
H2176 C2159 0.929 . S
H2177 C2160 0.929 . S
H2178 C2161 0.929 . S
H2179 C2162 0.931 . S
H2180 C2170 0.929 . S
H2181 C2171 0.929 . S
H2182 C2172 0.931 . S
H2183 C2173 0.929 . S
Tb2184 N2213 2.617 . S
Tb2184 N2219 2.572 . S
Tb2184 O2228 2.465 . S
Tb2184 O2229 2.387 . S
Tb2184 O2231 2.428 . S
Tb2184 O2232 2.308 . S
Tb2184 O2236 2.349 . S
Tb2184 O2239 2.393 . S
Tb2184 C2248 2.802 . S
C2185 N2186 1.379 . S
C2185 C2188 1.416 . S
C2185 C2192 1.424 . S
N2186 C2185 1.379 . S
N2186 C2189 1.334 . S
N2186 Tb2195 2.617 . S
C2187 C2189 1.390 . S
C2187 C2190 1.339 . S
C2187 H2207 0.930 . S
C2188 C2185 1.416 . S
C2188 C2190 1.416 . S
C2188 C2194 1.448 . S
C2189 N2186 1.334 . S
C2189 C2187 1.390 . S
C2189 H2200 0.930 . S
C2190 C2187 1.339 . S
C2190 C2188 1.416 . S
C2190 H2211 0.930 . S
C2191 C2192 1.413 . S
C2191 C2193 1.427 . S
C2191 C2197 1.416 . S
C2192 C2185 1.424 . S
C2192 C2191 1.413 . S
C2192 N2196 1.361 . S
C2193 C2191 1.427 . S
C2193 C2194 1.328 . S
C2193 H2208 0.929 . S
C2194 C2188 1.448 . S
C2194 C2193 1.328 . S
C2194 H2209 0.930 . S
Tb2195 N2186 2.617 . S
Tb2195 N2196 2.572 . S
Tb2195 O2230 2.349 . S
Tb2195 O2233 2.393 . S
Tb2195 O2234 2.465 . S
Tb2195 O2235 2.387 . S
Tb2195 O2237 2.428 . S
Tb2195 O2238 2.308 . S
Tb2195 C2259 2.802 . S
N2196 C2192 1.361 . S
N2196 Tb2195 2.572 . S
N2196 C2198 1.340 . S
C2197 C2191 1.416 . S
C2197 C2199 1.332 . S
C2197 H2205 0.931 . S
C2198 N2196 1.340 . S
C2198 C2199 1.407 . S
C2198 H2204 0.930 . S
C2199 C2197 1.332 . S
C2199 C2198 1.407 . S
C2199 H2201 0.929 . S
H2200 C2189 0.930 . S
H2201 C2199 0.929 . S
H2202 C2217 0.930 . S
H2203 C2224 0.929 . S
H2204 C2198 0.930 . S
H2205 C2197 0.931 . S
H2206 C2220 0.930 . S
H2207 C2187 0.930 . S
H2208 C2193 0.929 . S
H2209 C2194 0.930 . S
H2210 C2215 0.930 . S
H2211 C2190 0.930 . S
H2212 C2223 0.931 . S
N2213 Tb2184 2.617 . S
N2213 C2214 1.379 . S
N2213 C2217 1.334 . S
C2214 N2213 1.379 . S
C2214 C2216 1.416 . S
C2214 C2222 1.424 . S
C2215 H2210 0.930 . S
C2215 C2217 1.390 . S
C2215 C2218 1.339 . S
C2216 C2214 1.416 . S
C2216 C2218 1.416 . S
C2216 C2249 1.448 . S
C2217 H2202 0.930 . S
C2217 N2213 1.334 . S
C2217 C2215 1.390 . S
C2218 C2215 1.339 . S
C2218 C2216 1.416 . S
C2218 H2225 0.930 . S
N2219 Tb2184 2.572 . S
N2219 C2220 1.340 . S
N2219 C2222 1.361 . S
C2220 H2206 0.930 . S
C2220 N2219 1.340 . S
C2220 C2224 1.407 . S
C2221 C2222 1.413 . S
C2221 C2223 1.416 . S
C2221 C2250 1.427 . S
C2222 C2214 1.424 . S
C2222 N2219 1.361 . S
C2222 C2221 1.413 . S
C2223 H2212 0.931 . S
C2223 C2221 1.416 . S
C2223 C2224 1.332 . S
C2224 H2203 0.929 . S
C2224 C2220 1.407 . S
C2224 C2223 1.332 . S
H2225 C2218 0.930 . S
H2226 C2249 0.930 . S
H2227 C2250 0.929 . S
O2228 Tb2184 2.465 . S
O2228 C2248 1.264 . S
O2229 Tb2184 2.387 . S
O2229 C2240 1.264 . S
O2230 Tb2195 2.349 . S
O2230 C2240 1.243 . S
O2231 Tb2184 2.428 . S
O2231 C2248 1.256 . S
O2232 Tb2184 2.308 . S
O2232 C2247 1.266 . S
O2233 Tb2195 2.393 . S
O2233 C2247 1.248 . S
O2234 Tb2195 2.465 . S
O2234 C2259 1.264 . S
O2235 Tb2195 2.387 . S
O2235 C2251 1.264 . S
O2236 Tb2184 2.349 . S
O2236 C2251 1.243 . S
O2237 Tb2195 2.428 . S
O2237 C2259 1.256 . S
O2238 Tb2195 2.308 . S
O2238 C2258 1.266 . S
O2239 Tb2184 2.393 . S
O2239 C2258 1.248 . S
C2240 O2229 1.264 . S
C2240 O2230 1.243 . S
C2241 C2244 1.399 . S
C2241 C2246 1.383 . S
C2241 C2248 1.496 . S
C2242 C2243 1.399 . S
C2242 C2246 1.389 . S
C2243 C2242 1.399 . S
C2243 C2245 1.380 . S
C2243 H2260 0.929 . S
C2244 C2241 1.399 . S
C2244 C2245 1.392 . S
C2244 H2261 0.929 . S
C2245 C2243 1.380 . S
C2245 C2244 1.392 . S
C2245 H2262 0.929 . S
C2246 C2241 1.383 . S
C2246 C2242 1.389 . S
C2246 H2263 0.931 . S
C2247 O2232 1.266 . S
C2247 O2233 1.248 . S
C2248 Tb2184 2.802 . S
C2248 O2228 1.264 . S
C2248 O2231 1.256 . S
C2248 C2241 1.496 . S
C2249 C2216 1.448 . S
C2249 H2226 0.930 . S
C2249 C2250 1.328 . S
C2250 C2221 1.427 . S
C2250 H2227 0.929 . S
C2250 C2249 1.328 . S
C2251 O2235 1.264 . S
C2251 O2236 1.243 . S
C2252 C2255 1.399 . S
C2252 C2256 1.383 . S
C2252 C2259 1.496 . S
C2253 C2254 1.399 . S
C2253 C2256 1.389 . S
C2254 C2253 1.399 . S
C2254 C2257 1.380 . S
C2254 H2264 0.929 . S
C2255 C2252 1.399 . S
C2255 C2257 1.392 . S
C2255 H2265 0.929 . S
C2256 C2252 1.383 . S
C2256 C2253 1.389 . S
C2256 H2266 0.931 . S
C2257 C2254 1.380 . S
C2257 C2255 1.392 . S
C2257 H2267 0.929 . S
C2258 O2238 1.266 . S
C2258 O2239 1.248 . S
C2259 Tb2195 2.802 . S
C2259 O2234 1.264 . S
C2259 O2237 1.256 . S
C2259 C2252 1.496 . S
H2260 C2243 0.929 . S
H2261 C2244 0.929 . S
H2262 C2245 0.929 . S
H2263 C2246 0.931 . S
H2264 C2254 0.929 . S
H2265 C2255 0.929 . S
H2266 C2256 0.931 . S
H2267 C2257 0.929 . S
Tb2268 N2297 2.617 . S
Tb2268 N2303 2.572 1_455 S
Tb2268 O2312 2.465 . S
Tb2268 O2313 2.387 . S
Tb2268 O2315 2.428 . S
Tb2268 O2316 2.308 . S
Tb2268 O2320 2.349 . S
Tb2268 O2323 2.393 . S
Tb2268 C2332 2.802 . S
C2269 N2270 1.379 . S
C2269 C2272 1.416 . S
C2269 C2276 1.424 . S
N2270 C2269 1.379 . S
N2270 C2273 1.334 . S
N2270 Tb2279 2.617 . S
C2271 C2273 1.390 . S
C2271 C2274 1.339 . S
C2271 H2291 0.930 . S
C2272 C2269 1.416 . S
C2272 C2274 1.416 . S
C2272 C2278 1.448 . S
C2273 N2270 1.334 . S
C2273 C2271 1.390 . S
C2273 H2284 0.930 . S
C2274 C2271 1.339 . S
C2274 C2272 1.416 . S
C2274 H2295 0.930 . S
C2275 C2276 1.413 . S
C2275 C2277 1.427 . S
C2275 C2281 1.416 . S
C2276 C2269 1.424 . S
C2276 C2275 1.413 . S
C2276 N2280 1.361 . S
C2277 C2275 1.427 . S
C2277 C2278 1.328 . S
C2277 H2292 0.929 . S
C2278 C2272 1.448 . S
C2278 C2277 1.328 . S
C2278 H2293 0.930 . S
Tb2279 N2270 2.617 . S
Tb2279 N2280 2.572 . S
Tb2279 O2314 2.349 . S
Tb2279 O2317 2.393 . S
Tb2279 O2318 2.465 . S
Tb2279 O2319 2.387 . S
Tb2279 O2321 2.428 . S
Tb2279 O2322 2.308 . S
Tb2279 C2343 2.802 . S
N2280 C2276 1.361 . S
N2280 Tb2279 2.572 . S
N2280 C2282 1.340 . S
C2281 C2275 1.416 . S
C2281 C2283 1.332 . S
C2281 H2289 0.931 . S
C2282 N2280 1.340 . S
C2282 C2283 1.407 . S
C2282 H2288 0.930 . S
C2283 C2281 1.332 . S
C2283 C2282 1.407 . S
C2283 H2285 0.929 . S
H2284 C2273 0.930 . S
H2285 C2283 0.929 . S
H2286 C2301 0.930 . S
H2287 C2308 0.929 . S
H2288 C2282 0.930 . S
H2289 C2281 0.931 . S
H2290 C2304 0.930 . S
H2291 C2271 0.930 . S
H2292 C2277 0.929 . S
H2293 C2278 0.930 . S
H2294 C2299 0.930 . S
H2295 C2274 0.930 . S
H2296 C2307 0.931 . S
N2297 Tb2268 2.617 . S
N2297 C2298 1.379 1_455 S
N2297 C2301 1.334 . S
C2298 N2297 1.379 1_655 S
C2298 C2300 1.416 . S
C2298 C2306 1.424 . S
C2299 H2294 0.930 . S
C2299 C2301 1.390 . S
C2299 C2302 1.339 . S
C2300 C2298 1.416 . S
C2300 C2302 1.416 1_655 S
C2300 C2333 1.448 . S
C2301 H2286 0.930 . S
C2301 N2297 1.334 . S
C2301 C2299 1.390 . S
C2302 C2299 1.339 . S
C2302 C2300 1.416 1_455 S
C2302 H2309 0.929 1_455 S
N2303 Tb2268 2.572 1_655 S
N2303 C2304 1.340 . S
N2303 C2306 1.361 . S
C2304 H2290 0.930 . S
C2304 N2303 1.340 . S
C2304 C2308 1.407 . S
C2305 C2306 1.413 . S
C2305 C2307 1.416 . S
C2305 C2334 1.427 . S
C2306 C2298 1.424 . S
C2306 N2303 1.361 . S
C2306 C2305 1.413 . S
C2307 H2296 0.931 . S
C2307 C2305 1.416 . S
C2307 C2308 1.332 . S
C2308 H2287 0.929 . S
C2308 C2304 1.407 . S
C2308 C2307 1.332 . S
H2309 C2302 0.929 1_655 S
H2310 C2333 0.930 . S
H2311 C2334 0.929 . S
O2312 Tb2268 2.465 . S
O2312 C2332 1.264 . S
O2313 Tb2268 2.387 . S
O2313 C2324 1.264 . S
O2314 Tb2279 2.349 . S
O2314 C2324 1.243 . S
O2315 Tb2268 2.428 . S
O2315 C2332 1.256 . S
O2316 Tb2268 2.308 . S
O2316 C2331 1.266 . S
O2317 Tb2279 2.393 . S
O2317 C2331 1.248 . S
O2318 Tb2279 2.465 . S
O2318 C2343 1.264 . S
O2319 Tb2279 2.387 . S
O2319 C2335 1.264 . S
O2320 Tb2268 2.349 . S
O2320 C2335 1.243 . S
O2321 Tb2279 2.428 . S
O2321 C2343 1.256 . S
O2322 Tb2279 2.308 . S
O2322 C2342 1.266 . S
O2323 Tb2268 2.393 . S
O2323 C2342 1.248 . S
C2324 O2313 1.264 . S
C2324 O2314 1.243 . S
C2325 C2328 1.399 . S
C2325 C2330 1.383 . S
C2325 C2332 1.496 1_655 S
C2326 C2327 1.399 . S
C2326 C2330 1.389 . S
C2327 C2326 1.399 . S
C2327 C2329 1.380 . S
C2327 H2344 0.929 . S
C2328 C2325 1.399 . S
C2328 C2329 1.392 . S
C2328 H2345 0.929 . S
C2329 C2327 1.380 . S
C2329 C2328 1.392 . S
C2329 H2346 0.929 . S
C2330 C2325 1.383 . S
C2330 C2326 1.389 . S
C2330 H2347 0.931 . S
C2331 O2316 1.266 . S
C2331 O2317 1.248 . S
C2332 Tb2268 2.802 . S
C2332 O2312 1.264 . S
C2332 O2315 1.256 . S
C2332 C2325 1.496 1_455 S
C2333 C2300 1.448 . S
C2333 H2310 0.930 . S
C2333 C2334 1.328 . S
C2334 C2305 1.427 . S
C2334 H2311 0.929 . S
C2334 C2333 1.328 . S
C2335 O2319 1.264 . S
C2335 O2320 1.243 . S
C2336 C2339 1.399 . S
C2336 C2340 1.383 . S
C2336 C2343 1.496 . S
C2337 C2338 1.399 . S
C2337 C2340 1.389 . S
C2338 C2337 1.399 . S
C2338 C2341 1.380 . S
C2338 H2348 0.929 . S
C2339 C2336 1.399 . S
C2339 C2341 1.392 . S
C2339 H2349 0.929 . S
C2340 C2336 1.383 . S
C2340 C2337 1.389 . S
C2340 H2350 0.931 . S
C2341 C2338 1.380 . S
C2341 C2339 1.392 . S
C2341 H2351 0.929 . S
C2342 O2322 1.266 . S
C2342 O2323 1.248 . S
C2343 Tb2279 2.802 . S
C2343 O2318 1.264 . S
C2343 O2321 1.256 . S
C2343 C2336 1.496 . S
H2344 C2327 0.929 . S
H2345 C2328 0.929 . S
H2346 C2329 0.929 . S
H2347 C2330 0.931 . S
H2348 C2338 0.929 . S
H2349 C2339 0.929 . S
H2350 C2340 0.931 . S
H2351 C2341 0.929 . S
Tb2352 N2381 2.617 . S
Tb2352 N2387 2.572 . S
Tb2352 O2396 2.465 . S
Tb2352 O2397 2.387 . S
Tb2352 O2399 2.428 . S
Tb2352 O2400 2.308 . S
Tb2352 O2404 2.349 . S
Tb2352 O2407 2.393 . S
Tb2352 C2416 2.802 . S
C2353 N2354 1.379 . S
C2353 C2356 1.416 . S
C2353 C2360 1.424 . S
N2354 C2353 1.379 . S
N2354 C2357 1.334 . S
N2354 Tb2363 2.617 . S
C2355 C2357 1.390 . S
C2355 C2358 1.339 . S
C2355 H2375 0.930 . S
C2356 C2353 1.416 . S
C2356 C2358 1.416 . S
C2356 C2362 1.448 . S
C2357 N2354 1.334 . S
C2357 C2355 1.390 . S
C2357 H2368 0.930 . S
C2358 C2355 1.339 . S
C2358 C2356 1.416 . S
C2358 H2379 0.930 . S
C2359 C2360 1.413 . S
C2359 C2361 1.427 . S
C2359 C2365 1.416 . S
C2360 C2353 1.424 . S
C2360 C2359 1.413 . S
C2360 N2364 1.361 . S
C2361 C2359 1.427 . S
C2361 C2362 1.328 . S
C2361 H2376 0.929 . S
C2362 C2356 1.448 . S
C2362 C2361 1.328 . S
C2362 H2377 0.930 . S
Tb2363 N2354 2.617 . S
Tb2363 N2364 2.572 . S
Tb2363 O2398 2.349 . S
Tb2363 O2401 2.393 . S
Tb2363 O2402 2.465 . S
Tb2363 O2403 2.387 . S
Tb2363 O2405 2.428 . S
Tb2363 O2406 2.308 . S
Tb2363 C2427 2.802 . S
N2364 C2360 1.361 . S
N2364 Tb2363 2.572 . S
N2364 C2366 1.340 . S
C2365 C2359 1.416 . S
C2365 C2367 1.332 . S
C2365 H2373 0.931 . S
C2366 N2364 1.340 . S
C2366 C2367 1.407 . S
C2366 H2372 0.930 . S
C2367 C2365 1.332 . S
C2367 C2366 1.407 . S
C2367 H2369 0.929 . S
H2368 C2357 0.930 . S
H2369 C2367 0.929 . S
H2370 C2385 0.930 . S
H2371 C2392 0.929 . S
H2372 C2366 0.930 . S
H2373 C2365 0.931 . S
H2374 C2388 0.930 . S
H2375 C2355 0.930 . S
H2376 C2361 0.929 . S
H2377 C2362 0.930 . S
H2378 C2383 0.930 . S
H2379 C2358 0.930 . S
H2380 C2391 0.931 . S
N2381 Tb2352 2.617 . S
N2381 C2382 1.379 . S
N2381 C2385 1.334 . S
C2382 N2381 1.379 . S
C2382 C2384 1.416 . S
C2382 C2390 1.424 . S
C2383 H2378 0.930 . S
C2383 C2385 1.390 . S
C2383 C2386 1.339 . S
C2384 C2382 1.416 . S
C2384 C2386 1.416 . S
C2384 C2417 1.448 . S
C2385 H2370 0.930 . S
C2385 N2381 1.334 . S
C2385 C2383 1.390 . S
C2386 C2383 1.339 . S
C2386 C2384 1.416 . S
C2386 H2393 0.930 . S
N2387 Tb2352 2.572 . S
N2387 C2388 1.340 . S
N2387 C2390 1.361 . S
C2388 H2374 0.930 . S
C2388 N2387 1.340 . S
C2388 C2392 1.407 . S
C2389 C2390 1.413 . S
C2389 C2391 1.416 . S
C2389 C2418 1.427 . S
C2390 C2382 1.424 . S
C2390 N2387 1.361 . S
C2390 C2389 1.413 . S
C2391 H2380 0.931 . S
C2391 C2389 1.416 . S
C2391 C2392 1.332 . S
C2392 H2371 0.929 . S
C2392 C2388 1.407 . S
C2392 C2391 1.332 . S
H2393 C2386 0.930 . S
H2394 C2417 0.930 . S
H2395 C2418 0.929 . S
O2396 Tb2352 2.465 . S
O2396 C2416 1.264 . S
O2397 Tb2352 2.387 . S
O2397 C2408 1.264 . S
O2398 Tb2363 2.349 . S
O2398 C2408 1.243 . S
O2399 Tb2352 2.428 . S
O2399 C2416 1.256 . S
O2400 Tb2352 2.308 . S
O2400 C2415 1.266 . S
O2401 Tb2363 2.393 . S
O2401 C2415 1.248 . S
O2402 Tb2363 2.465 . S
O2402 C2427 1.264 . S
O2403 Tb2363 2.387 . S
O2403 C2419 1.264 . S
O2404 Tb2352 2.349 . S
O2404 C2419 1.243 . S
O2405 Tb2363 2.428 . S
O2405 C2427 1.256 . S
O2406 Tb2363 2.308 . S
O2406 C2426 1.266 . S
O2407 Tb2352 2.393 . S
O2407 C2426 1.248 . S
C2408 O2397 1.264 . S
C2408 O2398 1.243 . S
C2409 C2412 1.399 . S
C2409 C2414 1.383 . S
C2409 C2416 1.496 . S
C2410 C2411 1.399 . S
C2410 C2414 1.389 . S
C2411 C2410 1.399 . S
C2411 C2413 1.380 . S
C2411 H2428 0.929 . S
C2412 C2409 1.399 . S
C2412 C2413 1.392 . S
C2412 H2429 0.929 . S
C2413 C2411 1.380 . S
C2413 C2412 1.392 . S
C2413 H2430 0.929 . S
C2414 C2409 1.383 . S
C2414 C2410 1.389 . S
C2414 H2431 0.931 . S
C2415 O2400 1.266 . S
C2415 O2401 1.248 . S
C2416 Tb2352 2.802 . S
C2416 O2396 1.264 . S
C2416 O2399 1.256 . S
C2416 C2409 1.496 . S
C2417 C2384 1.448 . S
C2417 H2394 0.930 . S
C2417 C2418 1.328 . S
C2418 C2389 1.427 . S
C2418 H2395 0.929 . S
C2418 C2417 1.328 . S
C2419 O2403 1.264 . S
C2419 O2404 1.243 . S
C2420 C2423 1.399 . S
C2420 C2424 1.383 . S
C2420 C2427 1.496 . S
C2421 C2422 1.399 . S
C2421 C2424 1.389 . S
C2422 C2421 1.399 . S
C2422 C2425 1.380 . S
C2422 H2432 0.929 . S
C2423 C2420 1.399 . S
C2423 C2425 1.392 . S
C2423 H2433 0.929 . S
C2424 C2420 1.383 . S
C2424 C2421 1.389 . S
C2424 H2434 0.931 . S
C2425 C2422 1.380 . S
C2425 C2423 1.392 . S
C2425 H2435 0.929 . S
C2426 O2406 1.266 . S
C2426 O2407 1.248 . S
C2427 Tb2363 2.802 . S
C2427 O2402 1.264 . S
C2427 O2405 1.256 . S
C2427 C2420 1.496 . S
H2428 C2411 0.929 . S
H2429 C2412 0.929 . S
H2430 C2413 0.929 . S
H2431 C2414 0.931 . S
H2432 C2422 0.929 . S
H2433 C2423 0.929 . S
H2434 C2424 0.931 . S
H2435 C2425 0.929 . S
Tb2436 N2465 2.617 . S
Tb2436 N2471 2.572 1_455 S
Tb2436 O2480 2.465 . S
Tb2436 O2481 2.387 . S
Tb2436 O2483 2.428 . S
Tb2436 O2484 2.308 . S
Tb2436 O2488 2.349 . S
Tb2436 O2491 2.393 . S
Tb2436 C2500 2.802 . S
C2437 N2438 1.379 . S
C2437 C2440 1.416 . S
C2437 C2444 1.424 . S
N2438 C2437 1.379 . S
N2438 C2441 1.334 . S
N2438 Tb2447 2.617 . S
C2439 C2441 1.390 . S
C2439 C2442 1.339 . S
C2439 H2459 0.930 . S
C2440 C2437 1.416 . S
C2440 C2442 1.416 . S
C2440 C2446 1.448 . S
C2441 N2438 1.334 . S
C2441 C2439 1.390 . S
C2441 H2452 0.930 . S
C2442 C2439 1.339 . S
C2442 C2440 1.416 . S
C2442 H2463 0.930 . S
C2443 C2444 1.413 . S
C2443 C2445 1.427 . S
C2443 C2449 1.416 . S
C2444 C2437 1.424 . S
C2444 C2443 1.413 . S
C2444 N2448 1.361 . S
C2445 C2443 1.427 . S
C2445 C2446 1.328 . S
C2445 H2460 0.929 . S
C2446 C2440 1.448 . S
C2446 C2445 1.328 . S
C2446 H2461 0.930 . S
Tb2447 N2438 2.617 . S
Tb2447 N2448 2.572 . S
Tb2447 O2482 2.349 . S
Tb2447 O2485 2.393 . S
Tb2447 O2486 2.465 . S
Tb2447 O2487 2.387 . S
Tb2447 O2489 2.428 . S
Tb2447 O2490 2.308 . S
Tb2447 C2511 2.802 . S
N2448 C2444 1.361 . S
N2448 Tb2447 2.572 . S
N2448 C2450 1.340 . S
C2449 C2443 1.416 . S
C2449 C2451 1.332 . S
C2449 H2457 0.931 . S
C2450 N2448 1.340 . S
C2450 C2451 1.407 . S
C2450 H2456 0.930 . S
C2451 C2449 1.332 . S
C2451 C2450 1.407 . S
C2451 H2453 0.929 . S
H2452 C2441 0.930 . S
H2453 C2451 0.929 . S
H2454 C2469 0.930 . S
H2455 C2476 0.929 . S
H2456 C2450 0.930 . S
H2457 C2449 0.931 . S
H2458 C2472 0.930 . S
H2459 C2439 0.930 . S
H2460 C2445 0.929 . S
H2461 C2446 0.930 . S
H2462 C2467 0.930 . S
H2463 C2442 0.930 . S
H2464 C2475 0.931 . S
N2465 Tb2436 2.617 . S
N2465 C2466 1.379 1_455 S
N2465 C2469 1.334 . S
C2466 N2465 1.379 1_655 S
C2466 C2468 1.416 . S
C2466 C2474 1.424 . S
C2467 H2462 0.930 . S
C2467 C2469 1.390 . S
C2467 C2470 1.339 . S
C2468 C2466 1.416 . S
C2468 C2470 1.416 1_655 S
C2468 C2501 1.448 . S
C2469 H2454 0.930 . S
C2469 N2465 1.334 . S
C2469 C2467 1.390 . S
C2470 C2467 1.339 . S
C2470 C2468 1.416 1_455 S
C2470 H2477 0.929 1_455 S
N2471 Tb2436 2.572 1_655 S
N2471 C2472 1.340 . S
N2471 C2474 1.361 . S
C2472 H2458 0.930 . S
C2472 N2471 1.340 . S
C2472 C2476 1.407 . S
C2473 C2474 1.413 . S
C2473 C2475 1.416 . S
C2473 C2502 1.427 . S
C2474 C2466 1.424 . S
C2474 N2471 1.361 . S
C2474 C2473 1.413 . S
C2475 H2464 0.931 . S
C2475 C2473 1.416 . S
C2475 C2476 1.332 . S
C2476 H2455 0.929 . S
C2476 C2472 1.407 . S
C2476 C2475 1.332 . S
H2477 C2470 0.929 1_655 S
H2478 C2501 0.930 . S
H2479 C2502 0.929 . S
O2480 Tb2436 2.465 . S
O2480 C2500 1.264 . S
O2481 Tb2436 2.387 . S
O2481 C2492 1.264 . S
O2482 Tb2447 2.349 . S
O2482 C2492 1.243 . S
O2483 Tb2436 2.428 . S
O2483 C2500 1.256 . S
O2484 Tb2436 2.308 . S
O2484 C2499 1.266 . S
O2485 Tb2447 2.393 . S
O2485 C2499 1.248 . S
O2486 Tb2447 2.465 . S
O2486 C2511 1.264 . S
O2487 Tb2447 2.387 . S
O2487 C2503 1.264 . S
O2488 Tb2436 2.349 . S
O2488 C2503 1.243 . S
O2489 Tb2447 2.428 . S
O2489 C2511 1.256 . S
O2490 Tb2447 2.308 . S
O2490 C2510 1.266 . S
O2491 Tb2436 2.393 . S
O2491 C2510 1.248 . S
C2492 O2481 1.264 . S
C2492 O2482 1.243 . S
C2493 C2496 1.399 . S
C2493 C2498 1.383 . S
C2493 C2500 1.496 1_655 S
C2494 C2495 1.399 . S
C2494 C2498 1.389 . S
C2495 C2494 1.399 . S
C2495 C2497 1.380 . S
C2495 H2512 0.929 . S
C2496 C2493 1.399 . S
C2496 C2497 1.392 . S
C2496 H2513 0.929 . S
C2497 C2495 1.380 . S
C2497 C2496 1.392 . S
C2497 H2514 0.929 . S
C2498 C2493 1.383 . S
C2498 C2494 1.389 . S
C2498 H2515 0.931 . S
C2499 O2484 1.266 . S
C2499 O2485 1.248 . S
C2500 Tb2436 2.802 . S
C2500 O2480 1.264 . S
C2500 O2483 1.256 . S
C2500 C2493 1.496 1_455 S
C2501 C2468 1.448 . S
C2501 H2478 0.930 . S
C2501 C2502 1.328 . S
C2502 C2473 1.427 . S
C2502 H2479 0.929 . S
C2502 C2501 1.328 . S
C2503 O2487 1.264 . S
C2503 O2488 1.243 . S
C2504 C2507 1.399 . S
C2504 C2508 1.383 . S
C2504 C2511 1.496 . S
C2505 C2506 1.399 . S
C2505 C2508 1.389 . S
C2506 C2505 1.399 . S
C2506 C2509 1.380 . S
C2506 H2516 0.929 . S
C2507 C2504 1.399 . S
C2507 C2509 1.392 . S
C2507 H2517 0.929 . S
C2508 C2504 1.383 . S
C2508 C2505 1.389 . S
C2508 H2518 0.931 . S
C2509 C2506 1.380 . S
C2509 C2507 1.392 . S
C2509 H2519 0.929 . S
C2510 O2490 1.266 . S
C2510 O2491 1.248 . S
C2511 Tb2447 2.802 . S
C2511 O2486 1.264 . S
C2511 O2489 1.256 . S
C2511 C2504 1.496 . S
H2512 C2495 0.929 . S
H2513 C2496 0.929 . S
H2514 C2497 0.929 . S
H2515 C2498 0.931 . S
H2516 C2506 0.929 . S
H2517 C2507 0.929 . S
H2518 C2508 0.931 . S
H2519 C2509 0.929 . S
Tb2520 N2549 2.617 . S
Tb2520 N2555 2.572 . S
Tb2520 O2564 2.465 . S
Tb2520 O2565 2.387 . S
Tb2520 O2567 2.428 . S
Tb2520 O2568 2.308 . S
Tb2520 O2572 2.349 . S
Tb2520 O2575 2.393 . S
Tb2520 C2584 2.802 . S
C2521 N2522 1.379 . S
C2521 C2524 1.416 . S
C2521 C2528 1.424 . S
N2522 C2521 1.379 . S
N2522 C2525 1.334 . S
N2522 Tb2531 2.617 . S
C2523 C2525 1.390 . S
C2523 C2526 1.339 . S
C2523 H2543 0.930 . S
C2524 C2521 1.416 . S
C2524 C2526 1.416 . S
C2524 C2530 1.448 . S
C2525 N2522 1.334 . S
C2525 C2523 1.390 . S
C2525 H2536 0.930 . S
C2526 C2523 1.339 . S
C2526 C2524 1.416 . S
C2526 H2547 0.930 . S
C2527 C2528 1.413 . S
C2527 C2529 1.427 . S
C2527 C2533 1.416 . S
C2528 C2521 1.424 . S
C2528 C2527 1.413 . S
C2528 N2532 1.361 . S
C2529 C2527 1.427 . S
C2529 C2530 1.328 . S
C2529 H2544 0.929 . S
C2530 C2524 1.448 . S
C2530 C2529 1.328 . S
C2530 H2545 0.930 . S
Tb2531 N2522 2.617 . S
Tb2531 N2532 2.572 . S
Tb2531 O2566 2.349 . S
Tb2531 O2569 2.393 . S
Tb2531 O2570 2.465 . S
Tb2531 O2571 2.387 . S
Tb2531 O2573 2.428 . S
Tb2531 O2574 2.308 . S
Tb2531 C2595 2.802 . S
N2532 C2528 1.361 . S
N2532 Tb2531 2.572 . S
N2532 C2534 1.340 . S
C2533 C2527 1.416 . S
C2533 C2535 1.332 . S
C2533 H2541 0.931 . S
C2534 N2532 1.340 . S
C2534 C2535 1.407 . S
C2534 H2540 0.930 . S
C2535 C2533 1.332 . S
C2535 C2534 1.407 . S
C2535 H2537 0.929 . S
H2536 C2525 0.930 . S
H2537 C2535 0.929 . S
H2538 C2553 0.930 . S
H2539 C2560 0.929 . S
H2540 C2534 0.930 . S
H2541 C2533 0.931 . S
H2542 C2556 0.930 . S
H2543 C2523 0.930 . S
H2544 C2529 0.929 . S
H2545 C2530 0.930 . S
H2546 C2551 0.930 . S
H2547 C2526 0.930 . S
H2548 C2559 0.931 . S
N2549 Tb2520 2.617 . S
N2549 C2550 1.379 . S
N2549 C2553 1.334 . S
C2550 N2549 1.379 . S
C2550 C2552 1.416 . S
C2550 C2558 1.424 . S
C2551 H2546 0.930 . S
C2551 C2553 1.390 . S
C2551 C2554 1.339 . S
C2552 C2550 1.416 . S
C2552 C2554 1.416 . S
C2552 C2585 1.448 . S
C2553 H2538 0.930 . S
C2553 N2549 1.334 . S
C2553 C2551 1.390 . S
C2554 C2551 1.339 . S
C2554 C2552 1.416 . S
C2554 H2561 0.930 . S
N2555 Tb2520 2.572 . S
N2555 C2556 1.340 . S
N2555 C2558 1.361 . S
C2556 H2542 0.930 . S
C2556 N2555 1.340 . S
C2556 C2560 1.407 . S
C2557 C2558 1.413 . S
C2557 C2559 1.416 . S
C2557 C2586 1.427 . S
C2558 C2550 1.424 . S
C2558 N2555 1.361 . S
C2558 C2557 1.413 . S
C2559 H2548 0.931 . S
C2559 C2557 1.416 . S
C2559 C2560 1.332 . S
C2560 H2539 0.929 . S
C2560 C2556 1.407 . S
C2560 C2559 1.332 . S
H2561 C2554 0.930 . S
H2562 C2585 0.930 . S
H2563 C2586 0.929 . S
O2564 Tb2520 2.465 . S
O2564 C2584 1.264 . S
O2565 Tb2520 2.387 . S
O2565 C2576 1.264 . S
O2566 Tb2531 2.349 . S
O2566 C2576 1.243 . S
O2567 Tb2520 2.428 . S
O2567 C2584 1.256 . S
O2568 Tb2520 2.308 . S
O2568 C2583 1.266 . S
O2569 Tb2531 2.393 . S
O2569 C2583 1.248 . S
O2570 Tb2531 2.465 . S
O2570 C2595 1.264 . S
O2571 Tb2531 2.387 . S
O2571 C2587 1.264 . S
O2572 Tb2520 2.349 . S
O2572 C2587 1.243 . S
O2573 Tb2531 2.428 . S
O2573 C2595 1.256 . S
O2574 Tb2531 2.308 . S
O2574 C2594 1.266 . S
O2575 Tb2520 2.393 . S
O2575 C2594 1.248 . S
C2576 O2565 1.264 . S
C2576 O2566 1.243 . S
C2577 C2580 1.399 . S
C2577 C2582 1.383 . S
C2577 C2584 1.496 . S
C2578 C2579 1.399 . S
C2578 C2582 1.389 . S
C2579 C2578 1.399 . S
C2579 C2581 1.380 . S
C2579 H2596 0.929 . S
C2580 C2577 1.399 . S
C2580 C2581 1.392 . S
C2580 H2597 0.929 . S
C2581 C2579 1.380 . S
C2581 C2580 1.392 . S
C2581 H2598 0.929 . S
C2582 C2577 1.383 . S
C2582 C2578 1.389 . S
C2582 H2599 0.931 . S
C2583 O2568 1.266 . S
C2583 O2569 1.248 . S
C2584 Tb2520 2.802 . S
C2584 O2564 1.264 . S
C2584 O2567 1.256 . S
C2584 C2577 1.496 . S
C2585 C2552 1.448 . S
C2585 H2562 0.930 . S
C2585 C2586 1.328 . S
C2586 C2557 1.427 . S
C2586 H2563 0.929 . S
C2586 C2585 1.328 . S
C2587 O2571 1.264 . S
C2587 O2572 1.243 . S
C2588 C2591 1.399 . S
C2588 C2592 1.383 . S
C2588 C2595 1.496 . S
C2589 C2590 1.399 . S
C2589 C2592 1.389 . S
C2590 C2589 1.399 . S
C2590 C2593 1.380 . S
C2590 H2600 0.929 . S
C2591 C2588 1.399 . S
C2591 C2593 1.392 . S
C2591 H2601 0.929 . S
C2592 C2588 1.383 . S
C2592 C2589 1.389 . S
C2592 H2602 0.931 . S
C2593 C2590 1.380 . S
C2593 C2591 1.392 . S
C2593 H2603 0.929 . S
C2594 O2574 1.266 . S
C2594 O2575 1.248 . S
C2595 Tb2531 2.802 . S
C2595 O2570 1.264 . S
C2595 O2573 1.256 . S
C2595 C2588 1.496 . S
H2596 C2579 0.929 . S
H2597 C2580 0.929 . S
H2598 C2581 0.929 . S
H2599 C2582 0.931 . S
H2600 C2590 0.929 . S
H2601 C2591 0.929 . S
H2602 C2592 0.931 . S
H2603 C2593 0.929 . S
Tb2604 N2633 2.617 . S
Tb2604 N2639 2.572 . S
Tb2604 O2648 2.465 . S
Tb2604 O2649 2.387 . S
Tb2604 O2651 2.428 . S
Tb2604 O2652 2.308 . S
Tb2604 O2656 2.349 . S
Tb2604 O2659 2.393 . S
Tb2604 C2668 2.802 . S
C2605 N2606 1.379 . S
C2605 C2608 1.416 . S
C2605 C2612 1.424 . S
N2606 C2605 1.379 . S
N2606 C2609 1.334 . S
N2606 Tb2615 2.617 . S
C2607 C2609 1.390 . S
C2607 C2610 1.339 . S
C2607 H2627 0.930 . S
C2608 C2605 1.416 . S
C2608 C2610 1.416 . S
C2608 C2614 1.448 . S
C2609 N2606 1.334 . S
C2609 C2607 1.390 . S
C2609 H2620 0.930 . S
C2610 C2607 1.339 . S
C2610 C2608 1.416 . S
C2610 H2631 0.930 . S
C2611 C2612 1.413 . S
C2611 C2613 1.427 . S
C2611 C2617 1.416 . S
C2612 C2605 1.424 . S
C2612 C2611 1.413 . S
C2612 N2616 1.361 . S
C2613 C2611 1.427 . S
C2613 C2614 1.328 . S
C2613 H2628 0.929 . S
C2614 C2608 1.448 . S
C2614 C2613 1.328 . S
C2614 H2629 0.930 . S
Tb2615 N2606 2.617 . S
Tb2615 N2616 2.572 . S
Tb2615 O2650 2.349 . S
Tb2615 O2653 2.393 . S
Tb2615 O2654 2.465 . S
Tb2615 O2655 2.387 . S
Tb2615 O2657 2.428 . S
Tb2615 O2658 2.308 . S
Tb2615 C2679 2.802 . S
N2616 C2612 1.361 . S
N2616 Tb2615 2.572 . S
N2616 C2618 1.340 . S
C2617 C2611 1.416 . S
C2617 C2619 1.332 . S
C2617 H2625 0.931 . S
C2618 N2616 1.340 . S
C2618 C2619 1.407 . S
C2618 H2624 0.930 . S
C2619 C2617 1.332 . S
C2619 C2618 1.407 . S
C2619 H2621 0.929 . S
H2620 C2609 0.930 . S
H2621 C2619 0.929 . S
H2622 C2637 0.930 . S
H2623 C2644 0.929 . S
H2624 C2618 0.930 . S
H2625 C2617 0.931 . S
H2626 C2640 0.930 . S
H2627 C2607 0.930 . S
H2628 C2613 0.929 . S
H2629 C2614 0.930 . S
H2630 C2635 0.930 . S
H2631 C2610 0.930 . S
H2632 C2643 0.931 . S
N2633 Tb2604 2.617 . S
N2633 C2634 1.379 . S
N2633 C2637 1.334 . S
C2634 N2633 1.379 . S
C2634 C2636 1.416 . S
C2634 C2642 1.424 . S
C2635 H2630 0.930 . S
C2635 C2637 1.390 . S
C2635 C2638 1.339 . S
C2636 C2634 1.416 . S
C2636 C2638 1.416 . S
C2636 C2669 1.448 . S
C2637 H2622 0.930 . S
C2637 N2633 1.334 . S
C2637 C2635 1.390 . S
C2638 C2635 1.339 . S
C2638 C2636 1.416 . S
C2638 H2645 0.930 . S
N2639 Tb2604 2.572 . S
N2639 C2640 1.340 . S
N2639 C2642 1.361 . S
C2640 H2626 0.930 . S
C2640 N2639 1.340 . S
C2640 C2644 1.407 . S
C2641 C2642 1.413 . S
C2641 C2643 1.416 . S
C2641 C2670 1.427 . S
C2642 C2634 1.424 . S
C2642 N2639 1.361 . S
C2642 C2641 1.413 . S
C2643 H2632 0.931 . S
C2643 C2641 1.416 . S
C2643 C2644 1.332 . S
C2644 H2623 0.929 . S
C2644 C2640 1.407 . S
C2644 C2643 1.332 . S
H2645 C2638 0.930 . S
H2646 C2669 0.930 . S
H2647 C2670 0.929 . S
O2648 Tb2604 2.465 . S
O2648 C2668 1.264 . S
O2649 Tb2604 2.387 . S
O2649 C2660 1.264 . S
O2650 Tb2615 2.349 . S
O2650 C2660 1.243 . S
O2651 Tb2604 2.428 . S
O2651 C2668 1.256 . S
O2652 Tb2604 2.308 . S
O2652 C2667 1.266 . S
O2653 Tb2615 2.393 . S
O2653 C2667 1.248 . S
O2654 Tb2615 2.465 . S
O2654 C2679 1.264 . S
O2655 Tb2615 2.387 . S
O2655 C2671 1.264 . S
O2656 Tb2604 2.349 . S
O2656 C2671 1.243 . S
O2657 Tb2615 2.428 . S
O2657 C2679 1.256 . S
O2658 Tb2615 2.308 . S
O2658 C2678 1.266 . S
O2659 Tb2604 2.393 . S
O2659 C2678 1.248 . S
C2660 O2649 1.264 . S
C2660 O2650 1.243 . S
C2661 C2664 1.399 . S
C2661 C2666 1.383 . S
C2661 C2668 1.496 . S
C2662 C2663 1.399 . S
C2662 C2666 1.389 . S
C2663 C2662 1.399 . S
C2663 C2665 1.380 . S
C2663 H2680 0.929 . S
C2664 C2661 1.399 . S
C2664 C2665 1.392 . S
C2664 H2681 0.929 . S
C2665 C2663 1.380 . S
C2665 C2664 1.392 . S
C2665 H2682 0.929 . S
C2666 C2661 1.383 . S
C2666 C2662 1.389 . S
C2666 H2683 0.931 . S
C2667 O2652 1.266 . S
C2667 O2653 1.248 . S
C2668 Tb2604 2.802 . S
C2668 O2648 1.264 . S
C2668 O2651 1.256 . S
C2668 C2661 1.496 . S
C2669 C2636 1.448 . S
C2669 H2646 0.930 . S
C2669 C2670 1.328 . S
C2670 C2641 1.427 . S
C2670 H2647 0.929 . S
C2670 C2669 1.328 . S
C2671 O2655 1.264 . S
C2671 O2656 1.243 . S
C2672 C2675 1.399 . S
C2672 C2676 1.383 . S
C2672 C2679 1.496 . S
C2673 C2674 1.399 . S
C2673 C2676 1.389 . S
C2674 C2673 1.399 . S
C2674 C2677 1.380 . S
C2674 H2684 0.929 . S
C2675 C2672 1.399 . S
C2675 C2677 1.392 . S
C2675 H2685 0.929 . S
C2676 C2672 1.383 . S
C2676 C2673 1.389 . S
C2676 H2686 0.931 . S
C2677 C2674 1.380 . S
C2677 C2675 1.392 . S
C2677 H2687 0.929 . S
C2678 O2658 1.266 . S
C2678 O2659 1.248 . S
C2679 Tb2615 2.802 . S
C2679 O2654 1.264 . S
C2679 O2657 1.256 . S
C2679 C2672 1.496 . S
H2680 C2663 0.929 . S
H2681 C2664 0.929 . S
H2682 C2665 0.929 . S
H2683 C2666 0.931 . S
H2684 C2674 0.929 . S
H2685 C2675 0.929 . S
H2686 C2676 0.931 . S
H2687 C2677 0.929 . S
C2688 C2689 1.349 . S
C2688 C2690 1.327 . S
C2688 H2713 0.950 . S
C2689 C2688 1.349 . S
C2689 C2705 1.349 . S
C2690 C2688 1.327 . S
C2690 C2709 1.429 . S
C2690 H2714 0.950 . S
C2691 C2708 1.574 . S
C2691 C2710 1.368 . S
C2691 H2715 0.949 . S
H2692 C2696 0.949 . S
C2693 C2694 1.349 . S
C2693 C2695 1.327 . S
C2693 H2716 0.950 . S
C2694 C2693 1.349 . S
C2694 C2706 1.349 . S
C2695 C2693 1.327 . S
C2695 C2711 1.429 . S
C2695 H2717 0.950 . S
C2696 H2692 0.949 . S
C2696 C2704 1.574 . S
C2696 C2712 1.368 . S
H2697 C2705 0.950 . S
H2698 C2703 0.950 . S
H2699 C2704 0.949 . S
H2700 C2706 0.950 . S
H2701 C2707 0.950 . S
H2702 C2708 0.949 . S
C2703 H2698 0.950 . S
C2703 C2705 1.327 . S
C2703 C2709 1.429 . S
C2704 C2696 1.574 . S
C2704 H2699 0.949 . S
C2704 C2710 1.368 . S
C2705 C2689 1.349 . S
C2705 H2697 0.950 . S
C2705 C2703 1.327 . S
C2706 C2694 1.349 . S
C2706 H2700 0.950 . S
C2706 C2707 1.327 . S
C2707 H2701 0.950 . S
C2707 C2706 1.327 . S
C2707 C2711 1.429 . S
C2708 C2691 1.574 . S
C2708 H2702 0.949 . S
C2708 C2712 1.368 . S
C2709 C2690 1.429 . S
C2709 C2703 1.429 . S
C2709 C2710 1.523 . S
C2710 C2691 1.368 . S
C2710 C2704 1.368 . S
C2710 C2709 1.523 . S
C2711 C2695 1.429 . S
C2711 C2707 1.429 . S
C2711 C2712 1.523 . S
C2712 C2696 1.368 . S
C2712 C2708 1.368 . S
C2712 C2711 1.523 . S
H2713 C2688 0.950 . S
H2714 C2690 0.950 . S
H2715 C2691 0.949 . S
H2716 C2693 0.950 . S
H2717 C2695 0.950 . S
C2718 C2719 1.349 . S
C2718 C2720 1.327 . S
C2718 H2743 0.950 . S
C2719 C2718 1.349 . S
C2719 C2735 1.349 . S
C2720 C2718 1.327 . S
C2720 C2739 1.429 . S
C2720 H2744 0.950 . S
C2721 C2738 1.574 . S
C2721 C2740 1.368 . S
C2721 H2745 0.949 . S
H2722 C2726 0.949 . S
C2723 C2724 1.349 . S
C2723 C2725 1.327 . S
C2723 H2746 0.950 . S
C2724 C2723 1.349 . S
C2724 C2736 1.349 . S
C2725 C2723 1.327 . S
C2725 C2741 1.429 . S
C2725 H2747 0.950 . S
C2726 H2722 0.949 . S
C2726 C2734 1.574 . S
C2726 C2742 1.368 . S
H2727 C2735 0.950 . S
H2728 C2733 0.950 . S
H2729 C2734 0.949 . S
H2730 C2736 0.950 . S
H2731 C2737 0.950 . S
H2732 C2738 0.949 . S
C2733 H2728 0.950 . S
C2733 C2735 1.327 . S
C2733 C2739 1.429 . S
C2734 C2726 1.574 . S
C2734 H2729 0.949 . S
C2734 C2740 1.368 . S
C2735 C2719 1.349 . S
C2735 H2727 0.950 . S
C2735 C2733 1.327 . S
C2736 C2724 1.349 . S
C2736 H2730 0.950 . S
C2736 C2737 1.327 . S
C2737 H2731 0.950 . S
C2737 C2736 1.327 . S
C2737 C2741 1.429 . S
C2738 C2721 1.574 . S
C2738 H2732 0.949 . S
C2738 C2742 1.368 . S
C2739 C2720 1.429 . S
C2739 C2733 1.429 . S
C2739 C2740 1.523 . S
C2740 C2721 1.368 . S
C2740 C2734 1.368 . S
C2740 C2739 1.523 . S
C2741 C2725 1.429 . S
C2741 C2737 1.429 . S
C2741 C2742 1.523 . S
C2742 C2726 1.368 . S
C2742 C2738 1.368 . S
C2742 C2741 1.523 . S
H2743 C2718 0.950 . S
H2744 C2720 0.950 . S
H2745 C2721 0.949 . S
H2746 C2723 0.950 . S
H2747 C2725 0.950 . S
C2748 C2749 1.349 . S
C2748 C2750 1.327 . S
C2748 H2773 0.950 . S
C2749 C2748 1.349 . S
C2749 C2765 1.349 . S
C2750 C2748 1.327 . S
C2750 C2769 1.429 . S
C2750 H2774 0.950 . S
C2751 C2768 1.574 . S
C2751 C2770 1.368 . S
C2751 H2775 0.949 . S
H2752 C2756 0.949 . S
C2753 C2754 1.349 . S
C2753 C2755 1.327 . S
C2753 H2776 0.950 . S
C2754 C2753 1.349 . S
C2754 C2766 1.349 . S
C2755 C2753 1.327 . S
C2755 C2771 1.429 . S
C2755 H2777 0.950 . S
C2756 H2752 0.949 . S
C2756 C2764 1.574 . S
C2756 C2772 1.368 . S
H2757 C2765 0.950 . S
H2758 C2763 0.950 . S
H2759 C2764 0.949 . S
H2760 C2766 0.950 . S
H2761 C2767 0.950 . S
H2762 C2768 0.949 . S
C2763 H2758 0.950 . S
C2763 C2765 1.327 . S
C2763 C2769 1.429 . S
C2764 C2756 1.574 . S
C2764 H2759 0.949 . S
C2764 C2770 1.368 . S
C2765 C2749 1.349 . S
C2765 H2757 0.950 . S
C2765 C2763 1.327 . S
C2766 C2754 1.349 . S
C2766 H2760 0.950 . S
C2766 C2767 1.327 . S
C2767 H2761 0.950 . S
C2767 C2766 1.327 . S
C2767 C2771 1.429 . S
C2768 C2751 1.574 . S
C2768 H2762 0.949 . S
C2768 C2772 1.368 . S
C2769 C2750 1.429 . S
C2769 C2763 1.429 . S
C2769 C2770 1.523 . S
C2770 C2751 1.368 . S
C2770 C2764 1.368 . S
C2770 C2769 1.523 . S
C2771 C2755 1.429 . S
C2771 C2767 1.429 . S
C2771 C2772 1.523 . S
C2772 C2756 1.368 . S
C2772 C2768 1.368 . S
C2772 C2771 1.523 . S
H2773 C2748 0.950 . S
H2774 C2750 0.950 . S
H2775 C2751 0.949 . S
H2776 C2753 0.950 . S
H2777 C2755 0.950 . S
C2778 C2779 1.349 . S
C2778 C2780 1.327 . S
C2778 H2803 0.950 . S
C2779 C2778 1.349 . S
C2779 C2795 1.349 . S
C2780 C2778 1.327 . S
C2780 C2799 1.429 . S
C2780 H2804 0.950 . S
C2781 C2798 1.574 . S
C2781 C2800 1.368 . S
C2781 H2805 0.949 . S
H2782 C2786 0.949 . S
C2783 C2784 1.349 . S
C2783 C2785 1.327 . S
C2783 H2806 0.950 . S
C2784 C2783 1.349 . S
C2784 C2796 1.349 . S
C2785 C2783 1.327 . S
C2785 C2801 1.429 . S
C2785 H2807 0.950 . S
C2786 H2782 0.949 . S
C2786 C2794 1.574 . S
C2786 C2802 1.368 . S
H2787 C2795 0.950 . S
H2788 C2793 0.950 . S
H2789 C2794 0.949 . S
H2790 C2796 0.950 . S
H2791 C2797 0.950 . S
H2792 C2798 0.949 . S
C2793 H2788 0.950 . S
C2793 C2795 1.327 . S
C2793 C2799 1.429 . S
C2794 C2786 1.574 . S
C2794 H2789 0.949 . S
C2794 C2800 1.368 . S
C2795 C2779 1.349 . S
C2795 H2787 0.950 . S
C2795 C2793 1.327 . S
C2796 C2784 1.349 . S
C2796 H2790 0.950 . S
C2796 C2797 1.327 . S
C2797 H2791 0.950 . S
C2797 C2796 1.327 . S
C2797 C2801 1.429 . S
C2798 C2781 1.574 . S
C2798 H2792 0.949 . S
C2798 C2802 1.368 . S
C2799 C2780 1.429 . S
C2799 C2793 1.429 . S
C2799 C2800 1.523 . S
C2800 C2781 1.368 . S
C2800 C2794 1.368 . S
C2800 C2799 1.523 . S
C2801 C2785 1.429 . S
C2801 C2797 1.429 . S
C2801 C2802 1.523 . S
C2802 C2786 1.368 . S
C2802 C2798 1.368 . S
C2802 C2801 1.523 . S
H2803 C2778 0.950 . S
H2804 C2780 0.950 . S
H2805 C2781 0.949 . S
H2806 C2783 0.950 . S
H2807 C2785 0.950 . S
C2808 C2809 1.349 . S
C2808 C2810 1.327 . S
C2808 H2833 0.950 . S
C2809 C2808 1.349 . S
C2809 C2825 1.349 . S
C2810 C2808 1.327 . S
C2810 C2829 1.429 . S
C2810 H2834 0.950 . S
C2811 C2828 1.574 . S
C2811 C2830 1.368 . S
C2811 H2835 0.949 . S
H2812 C2816 0.949 . S
C2813 C2814 1.349 . S
C2813 C2815 1.327 . S
C2813 H2836 0.950 . S
C2814 C2813 1.349 . S
C2814 C2826 1.349 . S
C2815 C2813 1.327 . S
C2815 C2831 1.429 . S
C2815 H2837 0.950 . S
C2816 H2812 0.949 . S
C2816 C2824 1.574 . S
C2816 C2832 1.368 . S
H2817 C2825 0.950 . S
H2818 C2823 0.950 . S
H2819 C2824 0.949 . S
H2820 C2826 0.950 . S
H2821 C2827 0.950 . S
H2822 C2828 0.949 . S
C2823 H2818 0.950 . S
C2823 C2825 1.327 . S
C2823 C2829 1.429 . S
C2824 C2816 1.574 . S
C2824 H2819 0.949 . S
C2824 C2830 1.368 . S
C2825 C2809 1.349 . S
C2825 H2817 0.950 . S
C2825 C2823 1.327 . S
C2826 C2814 1.349 . S
C2826 H2820 0.950 . S
C2826 C2827 1.327 . S
C2827 H2821 0.950 . S
C2827 C2826 1.327 . S
C2827 C2831 1.429 . S
C2828 C2811 1.574 . S
C2828 H2822 0.949 . S
C2828 C2832 1.368 . S
C2829 C2810 1.429 . S
C2829 C2823 1.429 . S
C2829 C2830 1.523 . S
C2830 C2811 1.368 . S
C2830 C2824 1.368 . S
C2830 C2829 1.523 . S
C2831 C2815 1.429 . S
C2831 C2827 1.429 . S
C2831 C2832 1.523 . S
C2832 C2816 1.368 . S
C2832 C2828 1.368 . S
C2832 C2831 1.523 . S
H2833 C2808 0.950 . S
H2834 C2810 0.950 . S
H2835 C2811 0.949 . S
H2836 C2813 0.950 . S
H2837 C2815 0.950 . S
C2838 C2839 1.349 . S
C2838 C2840 1.327 . S
C2838 H2863 0.950 . S
C2839 C2838 1.349 . S
C2839 C2855 1.349 . S
C2840 C2838 1.327 . S
C2840 C2859 1.429 . S
C2840 H2864 0.950 . S
C2841 C2858 1.574 . S
C2841 C2860 1.368 . S
C2841 H2865 0.949 . S
H2842 C2846 0.949 . S
C2843 C2844 1.349 . S
C2843 C2845 1.327 . S
C2843 H2866 0.950 . S
C2844 C2843 1.349 . S
C2844 C2856 1.349 . S
C2845 C2843 1.327 . S
C2845 C2861 1.429 . S
C2845 H2867 0.950 . S
C2846 H2842 0.949 . S
C2846 C2854 1.574 . S
C2846 C2862 1.368 . S
H2847 C2855 0.950 . S
H2848 C2853 0.950 . S
H2849 C2854 0.949 . S
H2850 C2856 0.950 . S
H2851 C2857 0.950 . S
H2852 C2858 0.949 . S
C2853 H2848 0.950 . S
C2853 C2855 1.327 . S
C2853 C2859 1.429 . S
C2854 C2846 1.574 . S
C2854 H2849 0.949 . S
C2854 C2860 1.368 . S
C2855 C2839 1.349 . S
C2855 H2847 0.950 . S
C2855 C2853 1.327 . S
C2856 C2844 1.349 . S
C2856 H2850 0.950 . S
C2856 C2857 1.327 . S
C2857 H2851 0.950 . S
C2857 C2856 1.327 . S
C2857 C2861 1.429 . S
C2858 C2841 1.574 . S
C2858 H2852 0.949 . S
C2858 C2862 1.368 . S
C2859 C2840 1.429 . S
C2859 C2853 1.429 . S
C2859 C2860 1.523 . S
C2860 C2841 1.368 . S
C2860 C2854 1.368 . S
C2860 C2859 1.523 . S
C2861 C2845 1.429 . S
C2861 C2857 1.429 . S
C2861 C2862 1.523 . S
C2862 C2846 1.368 . S
C2862 C2858 1.368 . S
C2862 C2861 1.523 . S
H2863 C2838 0.950 . S
H2864 C2840 0.950 . S
H2865 C2841 0.949 . S
H2866 C2843 0.950 . S
H2867 C2845 0.950 . S
C2868 C2869 1.349 . S
C2868 C2870 1.327 . S
C2868 H2893 0.950 . S
C2869 C2868 1.349 . S
C2869 C2885 1.349 . S
C2870 C2868 1.327 . S
C2870 C2889 1.429 . S
C2870 H2894 0.950 . S
C2871 C2888 1.574 . S
C2871 C2890 1.368 . S
C2871 H2895 0.949 . S
H2872 C2876 0.949 . S
C2873 C2874 1.349 . S
C2873 C2875 1.327 . S
C2873 H2896 0.950 . S
C2874 C2873 1.349 . S
C2874 C2886 1.349 . S
C2875 C2873 1.327 . S
C2875 C2891 1.429 . S
C2875 H2897 0.950 . S
C2876 H2872 0.949 . S
C2876 C2884 1.574 . S
C2876 C2892 1.368 . S
H2877 C2885 0.950 . S
H2878 C2883 0.950 . S
H2879 C2884 0.949 . S
H2880 C2886 0.950 . S
H2881 C2887 0.950 . S
H2882 C2888 0.949 . S
C2883 H2878 0.950 . S
C2883 C2885 1.327 . S
C2883 C2889 1.429 . S
C2884 C2876 1.574 . S
C2884 H2879 0.949 . S
C2884 C2890 1.368 . S
C2885 C2869 1.349 . S
C2885 H2877 0.950 . S
C2885 C2883 1.327 . S
C2886 C2874 1.349 . S
C2886 H2880 0.950 . S
C2886 C2887 1.327 . S
C2887 H2881 0.950 . S
C2887 C2886 1.327 . S
C2887 C2891 1.429 . S
C2888 C2871 1.574 . S
C2888 H2882 0.949 . S
C2888 C2892 1.368 . S
C2889 C2870 1.429 . S
C2889 C2883 1.429 . S
C2889 C2890 1.523 . S
C2890 C2871 1.368 . S
C2890 C2884 1.368 . S
C2890 C2889 1.523 . S
C2891 C2875 1.429 . S
C2891 C2887 1.429 . S
C2891 C2892 1.523 . S
C2892 C2876 1.368 . S
C2892 C2888 1.368 . S
C2892 C2891 1.523 . S
H2893 C2868 0.950 . S
H2894 C2870 0.950 . S
H2895 C2871 0.949 . S
H2896 C2873 0.950 . S
H2897 C2875 0.950 . S
C2898 C2899 1.349 . S
C2898 C2900 1.327 . S
C2898 H2923 0.950 . S
C2899 C2898 1.349 . S
C2899 C2915 1.349 . S
C2900 C2898 1.327 . S
C2900 C2919 1.429 . S
C2900 H2924 0.950 . S
C2901 C2918 1.574 . S
C2901 C2920 1.368 . S
C2901 H2925 0.949 . S
H2902 C2906 0.949 . S
C2903 C2904 1.349 . S
C2903 C2905 1.327 . S
C2903 H2926 0.950 . S
C2904 C2903 1.349 . S
C2904 C2916 1.349 . S
C2905 C2903 1.327 . S
C2905 C2921 1.429 . S
C2905 H2927 0.950 . S
C2906 H2902 0.949 . S
C2906 C2914 1.574 . S
C2906 C2922 1.368 . S
H2907 C2915 0.950 . S
H2908 C2913 0.950 . S
H2909 C2914 0.949 . S
H2910 C2916 0.950 . S
H2911 C2917 0.950 . S
H2912 C2918 0.949 . S
C2913 H2908 0.950 . S
C2913 C2915 1.327 . S
C2913 C2919 1.429 . S
C2914 C2906 1.574 . S
C2914 H2909 0.949 . S
C2914 C2920 1.368 . S
C2915 C2899 1.349 . S
C2915 H2907 0.950 . S
C2915 C2913 1.327 . S
C2916 C2904 1.349 . S
C2916 H2910 0.950 . S
C2916 C2917 1.327 . S
C2917 H2911 0.950 . S
C2917 C2916 1.327 . S
C2917 C2921 1.429 . S
C2918 C2901 1.574 . S
C2918 H2912 0.949 . S
C2918 C2922 1.368 . S
C2919 C2900 1.429 . S
C2919 C2913 1.429 . S
C2919 C2920 1.523 . S
C2920 C2901 1.368 . S
C2920 C2914 1.368 . S
C2920 C2919 1.523 . S
C2921 C2905 1.429 . S
C2921 C2917 1.429 . S
C2921 C2922 1.523 . S
C2922 C2906 1.368 . S
C2922 C2918 1.368 . S
C2922 C2921 1.523 . S
H2923 C2898 0.950 . S
H2924 C2900 0.950 . S
H2925 C2901 0.949 . S
H2926 C2903 0.950 . S
H2927 C2905 0.950 . S
C2928 C2929 1.349 . S
C2928 C2930 1.327 . S
C2928 H2953 0.950 . S
C2929 C2928 1.349 . S
C2929 C2945 1.349 . S
C2930 C2928 1.327 . S
C2930 C2949 1.429 . S
C2930 H2954 0.950 . S
C2931 C2948 1.574 . S
C2931 C2950 1.368 . S
C2931 H2955 0.949 . S
H2932 C2936 0.949 . S
C2933 C2934 1.349 . S
C2933 C2935 1.327 . S
C2933 H2956 0.950 . S
C2934 C2933 1.349 . S
C2934 C2946 1.349 . S
C2935 C2933 1.327 . S
C2935 C2951 1.429 . S
C2935 H2957 0.950 . S
C2936 H2932 0.949 . S
C2936 C2944 1.574 . S
C2936 C2952 1.368 . S
H2937 C2945 0.950 . S
H2938 C2943 0.950 . S
H2939 C2944 0.949 . S
H2940 C2946 0.950 . S
H2941 C2947 0.950 . S
H2942 C2948 0.949 . S
C2943 H2938 0.950 . S
C2943 C2945 1.327 . S
C2943 C2949 1.429 . S
C2944 C2936 1.574 . S
C2944 H2939 0.949 . S
C2944 C2950 1.368 . S
C2945 C2929 1.349 . S
C2945 H2937 0.950 . S
C2945 C2943 1.327 . S
C2946 C2934 1.349 . S
C2946 H2940 0.950 . S
C2946 C2947 1.327 . S
C2947 H2941 0.950 . S
C2947 C2946 1.327 . S
C2947 C2951 1.429 . S
C2948 C2931 1.574 . S
C2948 H2942 0.949 . S
C2948 C2952 1.368 . S
C2949 C2930 1.429 . S
C2949 C2943 1.429 . S
C2949 C2950 1.523 . S
C2950 C2931 1.368 . S
C2950 C2944 1.368 . S
C2950 C2949 1.523 . S
C2951 C2935 1.429 . S
C2951 C2947 1.429 . S
C2951 C2952 1.523 . S
C2952 C2936 1.368 . S
C2952 C2948 1.368 . S
C2952 C2951 1.523 . S
H2953 C2928 0.950 . S
H2954 C2930 0.950 . S
H2955 C2931 0.949 . S
H2956 C2933 0.950 . S
H2957 C2935 0.950 . S
C2958 C2959 1.349 . S
C2958 C2960 1.327 . S
C2958 H2983 0.950 . S
C2959 C2958 1.349 . S
C2959 C2975 1.349 . S
C2960 C2958 1.327 . S
C2960 C2979 1.429 . S
C2960 H2984 0.950 . S
C2961 C2978 1.574 . S
C2961 C2980 1.368 . S
C2961 H2985 0.949 . S
H2962 C2966 0.949 . S
C2963 C2964 1.349 . S
C2963 C2965 1.327 . S
C2963 H2986 0.950 . S
C2964 C2963 1.349 . S
C2964 C2976 1.349 . S
C2965 C2963 1.327 . S
C2965 C2981 1.429 . S
C2965 H2987 0.950 . S
C2966 H2962 0.949 . S
C2966 C2974 1.574 . S
C2966 C2982 1.368 . S
H2967 C2975 0.950 . S
H2968 C2973 0.950 . S
H2969 C2974 0.949 . S
H2970 C2976 0.950 . S
H2971 C2977 0.950 . S
H2972 C2978 0.949 . S
C2973 H2968 0.950 . S
C2973 C2975 1.327 . S
C2973 C2979 1.429 . S
C2974 C2966 1.574 . S
C2974 H2969 0.949 . S
C2974 C2980 1.368 . S
C2975 C2959 1.349 . S
C2975 H2967 0.950 . S
C2975 C2973 1.327 . S
C2976 C2964 1.349 . S
C2976 H2970 0.950 . S
C2976 C2977 1.327 . S
C2977 H2971 0.950 . S
C2977 C2976 1.327 . S
C2977 C2981 1.429 . S
C2978 C2961 1.574 . S
C2978 H2972 0.949 . S
C2978 C2982 1.368 . S
C2979 C2960 1.429 . S
C2979 C2973 1.429 . S
C2979 C2980 1.523 . S
C2980 C2961 1.368 . S
C2980 C2974 1.368 . S
C2980 C2979 1.523 . S
C2981 C2965 1.429 . S
C2981 C2977 1.429 . S
C2981 C2982 1.523 . S
C2982 C2966 1.368 . S
C2982 C2978 1.368 . S
C2982 C2981 1.523 . S
H2983 C2958 0.950 . S
H2984 C2960 0.950 . S
H2985 C2961 0.949 . S
H2986 C2963 0.950 . S
H2987 C2965 0.950 . S
C2988 C2989 1.349 . S
C2988 C2990 1.327 . S
C2988 H3013 0.950 . S
C2989 C2988 1.349 . S
C2989 C3005 1.349 . S
C2990 C2988 1.327 . S
C2990 C3009 1.429 . S
C2990 H3014 0.950 . S
C2991 C3008 1.574 . S
C2991 C3010 1.368 . S
C2991 H3015 0.949 . S
H2992 C2996 0.949 . S
C2993 C2994 1.349 . S
C2993 C2995 1.327 . S
C2993 H3016 0.950 . S
C2994 C2993 1.349 . S
C2994 C3006 1.349 . S
C2995 C2993 1.327 . S
C2995 C3011 1.429 . S
C2995 H3017 0.950 . S
C2996 H2992 0.949 . S
C2996 C3004 1.574 . S
C2996 C3012 1.368 . S
H2997 C3005 0.950 . S
H2998 C3003 0.950 . S
H2999 C3004 0.949 . S
H3000 C3006 0.950 . S
H3001 C3007 0.950 . S
H3002 C3008 0.949 . S
C3003 H2998 0.950 . S
C3003 C3005 1.327 . S
C3003 C3009 1.429 . S
C3004 C2996 1.574 . S
C3004 H2999 0.949 . S
C3004 C3010 1.368 . S
C3005 C2989 1.349 . S
C3005 H2997 0.950 . S
C3005 C3003 1.327 . S
C3006 C2994 1.349 . S
C3006 H3000 0.950 . S
C3006 C3007 1.327 . S
C3007 H3001 0.950 . S
C3007 C3006 1.327 . S
C3007 C3011 1.429 . S
C3008 C2991 1.574 . S
C3008 H3002 0.949 . S
C3008 C3012 1.368 . S
C3009 C2990 1.429 . S
C3009 C3003 1.429 . S
C3009 C3010 1.523 . S
C3010 C2991 1.368 . S
C3010 C3004 1.368 . S
C3010 C3009 1.523 . S
C3011 C2995 1.429 . S
C3011 C3007 1.429 . S
C3011 C3012 1.523 . S
C3012 C2996 1.368 . S
C3012 C3008 1.368 . S
C3012 C3011 1.523 . S
H3013 C2988 0.950 . S
H3014 C2990 0.950 . S
H3015 C2991 0.949 . S
H3016 C2993 0.950 . S
H3017 C2995 0.950 . S
C3018 C3019 1.349 . S
C3018 C3020 1.327 . S
C3018 H3043 0.950 . S
C3019 C3018 1.349 . S
C3019 C3035 1.349 . S
C3020 C3018 1.327 . S
C3020 C3039 1.429 . S
C3020 H3044 0.950 . S
C3021 C3038 1.574 . S
C3021 C3040 1.368 . S
C3021 H3045 0.949 . S
H3022 C3026 0.949 . S
C3023 C3024 1.349 . S
C3023 C3025 1.327 . S
C3023 H3046 0.950 . S
C3024 C3023 1.349 . S
C3024 C3036 1.349 . S
C3025 C3023 1.327 . S
C3025 C3041 1.429 . S
C3025 H3047 0.950 . S
C3026 H3022 0.949 . S
C3026 C3034 1.574 . S
C3026 C3042 1.368 . S
H3027 C3035 0.950 . S
H3028 C3033 0.950 . S
H3029 C3034 0.949 . S
H3030 C3036 0.950 . S
H3031 C3037 0.950 . S
H3032 C3038 0.949 . S
C3033 H3028 0.950 . S
C3033 C3035 1.327 . S
C3033 C3039 1.429 . S
C3034 C3026 1.574 . S
C3034 H3029 0.949 . S
C3034 C3040 1.368 . S
C3035 C3019 1.349 . S
C3035 H3027 0.950 . S
C3035 C3033 1.327 . S
C3036 C3024 1.349 . S
C3036 H3030 0.950 . S
C3036 C3037 1.327 . S
C3037 H3031 0.950 . S
C3037 C3036 1.327 . S
C3037 C3041 1.429 . S
C3038 C3021 1.574 . S
C3038 H3032 0.949 . S
C3038 C3042 1.368 . S
C3039 C3020 1.429 . S
C3039 C3033 1.429 . S
C3039 C3040 1.523 . S
C3040 C3021 1.368 . S
C3040 C3034 1.368 . S
C3040 C3039 1.523 . S
C3041 C3025 1.429 . S
C3041 C3037 1.429 . S
C3041 C3042 1.523 . S
C3042 C3026 1.368 . S
C3042 C3038 1.368 . S
C3042 C3041 1.523 . S
H3043 C3018 0.950 . S
H3044 C3020 0.950 . S
H3045 C3021 0.949 . S
H3046 C3023 0.950 . S
H3047 C3025 0.950 . S
C3048 C3049 1.349 . S
C3048 C3050 1.327 . S
C3048 H3073 0.950 . S
C3049 C3048 1.349 . S
C3049 C3065 1.349 . S
C3050 C3048 1.327 . S
C3050 C3069 1.429 . S
C3050 H3074 0.950 . S
C3051 C3068 1.574 . S
C3051 C3070 1.368 . S
C3051 H3075 0.949 . S
H3052 C3056 0.949 . S
C3053 C3054 1.349 . S
C3053 C3055 1.327 . S
C3053 H3076 0.950 . S
C3054 C3053 1.349 . S
C3054 C3066 1.349 . S
C3055 C3053 1.327 . S
C3055 C3071 1.429 . S
C3055 H3077 0.950 . S
C3056 H3052 0.949 . S
C3056 C3064 1.574 . S
C3056 C3072 1.368 . S
H3057 C3065 0.950 . S
H3058 C3063 0.950 . S
H3059 C3064 0.949 . S
H3060 C3066 0.950 . S
H3061 C3067 0.950 . S
H3062 C3068 0.949 . S
C3063 H3058 0.950 . S
C3063 C3065 1.327 . S
C3063 C3069 1.429 . S
C3064 C3056 1.574 . S
C3064 H3059 0.949 . S
C3064 C3070 1.368 . S
C3065 C3049 1.349 . S
C3065 H3057 0.950 . S
C3065 C3063 1.327 . S
C3066 C3054 1.349 . S
C3066 H3060 0.950 . S
C3066 C3067 1.327 . S
C3067 H3061 0.950 . S
C3067 C3066 1.327 . S
C3067 C3071 1.429 . S
C3068 C3051 1.574 . S
C3068 H3062 0.949 . S
C3068 C3072 1.368 . S
C3069 C3050 1.429 . S
C3069 C3063 1.429 . S
C3069 C3070 1.523 . S
C3070 C3051 1.368 . S
C3070 C3064 1.368 . S
C3070 C3069 1.523 . S
C3071 C3055 1.429 . S
C3071 C3067 1.429 . S
C3071 C3072 1.523 . S
C3072 C3056 1.368 . S
C3072 C3068 1.368 . S
C3072 C3071 1.523 . S
H3073 C3048 0.950 . S
H3074 C3050 0.950 . S
H3075 C3051 0.949 . S
H3076 C3053 0.950 . S
H3077 C3055 0.950 . S
C3078 C3079 1.349 . S
C3078 C3080 1.327 . S
C3078 H3103 0.950 . S
C3079 C3078 1.349 . S
C3079 C3095 1.349 . S
C3080 C3078 1.327 . S
C3080 C3099 1.429 . S
C3080 H3104 0.950 . S
C3081 C3098 1.574 . S
C3081 C3100 1.368 . S
C3081 H3105 0.949 . S
H3082 C3086 0.949 . S
C3083 C3084 1.349 . S
C3083 C3085 1.327 . S
C3083 H3106 0.950 . S
C3084 C3083 1.349 . S
C3084 C3096 1.349 . S
C3085 C3083 1.327 . S
C3085 C3101 1.429 . S
C3085 H3107 0.950 . S
C3086 H3082 0.949 . S
C3086 C3094 1.574 . S
C3086 C3102 1.368 . S
H3087 C3095 0.950 . S
H3088 C3093 0.950 . S
H3089 C3094 0.949 . S
H3090 C3096 0.950 . S
H3091 C3097 0.950 . S
H3092 C3098 0.949 . S
C3093 H3088 0.950 . S
C3093 C3095 1.327 . S
C3093 C3099 1.429 . S
C3094 C3086 1.574 . S
C3094 H3089 0.949 . S
C3094 C3100 1.368 . S
C3095 C3079 1.349 . S
C3095 H3087 0.950 . S
C3095 C3093 1.327 . S
C3096 C3084 1.349 . S
C3096 H3090 0.950 . S
C3096 C3097 1.327 . S
C3097 H3091 0.950 . S
C3097 C3096 1.327 . S
C3097 C3101 1.429 . S
C3098 C3081 1.574 . S
C3098 H3092 0.949 . S
C3098 C3102 1.368 . S
C3099 C3080 1.429 . S
C3099 C3093 1.429 . S
C3099 C3100 1.523 . S
C3100 C3081 1.368 . S
C3100 C3094 1.368 . S
C3100 C3099 1.523 . S
C3101 C3085 1.429 . S
C3101 C3097 1.429 . S
C3101 C3102 1.523 . S
C3102 C3086 1.368 . S
C3102 C3098 1.368 . S
C3102 C3101 1.523 . S
H3103 C3078 0.950 . S
H3104 C3080 0.950 . S
H3105 C3081 0.949 . S
H3106 C3083 0.950 . S
H3107 C3085 0.950 . S
C3108 C3109 1.349 . S
C3108 C3110 1.327 . S
C3108 H3133 0.950 . S
C3109 C3108 1.349 . S
C3109 C3125 1.349 . S
C3110 C3108 1.327 . S
C3110 C3129 1.429 . S
C3110 H3134 0.950 . S
C3111 C3128 1.574 . S
C3111 C3130 1.368 . S
C3111 H3135 0.949 . S
H3112 C3116 0.949 . S
C3113 C3114 1.349 . S
C3113 C3115 1.327 . S
C3113 H3136 0.950 . S
C3114 C3113 1.349 . S
C3114 C3126 1.349 . S
C3115 C3113 1.327 . S
C3115 C3131 1.429 . S
C3115 H3137 0.950 . S
C3116 H3112 0.949 . S
C3116 C3124 1.574 . S
C3116 C3132 1.368 . S
H3117 C3125 0.950 . S
H3118 C3123 0.950 . S
H3119 C3124 0.949 . S
H3120 C3126 0.950 . S
H3121 C3127 0.950 . S
H3122 C3128 0.949 . S
C3123 H3118 0.950 . S
C3123 C3125 1.327 . S
C3123 C3129 1.429 . S
C3124 C3116 1.574 . S
C3124 H3119 0.949 . S
C3124 C3130 1.368 . S
C3125 C3109 1.349 . S
C3125 H3117 0.950 . S
C3125 C3123 1.327 . S
C3126 C3114 1.349 . S
C3126 H3120 0.950 . S
C3126 C3127 1.327 . S
C3127 H3121 0.950 . S
C3127 C3126 1.327 . S
C3127 C3131 1.429 . S
C3128 C3111 1.574 . S
C3128 H3122 0.949 . S
C3128 C3132 1.368 . S
C3129 C3110 1.429 . S
C3129 C3123 1.429 . S
C3129 C3130 1.523 . S
C3130 C3111 1.368 . S
C3130 C3124 1.368 . S
C3130 C3129 1.523 . S
C3131 C3115 1.429 . S
C3131 C3127 1.429 . S
C3131 C3132 1.523 . S
C3132 C3116 1.368 . S
C3132 C3128 1.368 . S
C3132 C3131 1.523 . S
H3133 C3108 0.950 . S
H3134 C3110 0.950 . S
H3135 C3111 0.949 . S
H3136 C3113 0.950 . S
H3137 C3115 0.950 . S
C3138 C3139 1.349 . S
C3138 C3140 1.327 . S
C3138 H3163 0.950 . S
C3139 C3138 1.349 . S
C3139 C3155 1.349 . S
C3140 C3138 1.327 . S
C3140 C3159 1.429 . S
C3140 H3164 0.950 . S
C3141 C3158 1.574 . S
C3141 C3160 1.368 . S
C3141 H3165 0.949 . S
H3142 C3146 0.949 . S
C3143 C3144 1.349 . S
C3143 C3145 1.327 . S
C3143 H3166 0.950 . S
C3144 C3143 1.349 . S
C3144 C3156 1.349 . S
C3145 C3143 1.327 . S
C3145 C3161 1.429 . S
C3145 H3167 0.950 . S
C3146 H3142 0.949 . S
C3146 C3154 1.574 . S
C3146 C3162 1.368 . S
H3147 C3155 0.950 . S
H3148 C3153 0.950 . S
H3149 C3154 0.949 . S
H3150 C3156 0.950 . S
H3151 C3157 0.950 . S
H3152 C3158 0.949 . S
C3153 H3148 0.950 . S
C3153 C3155 1.327 . S
C3153 C3159 1.429 . S
C3154 C3146 1.574 . S
C3154 H3149 0.949 . S
C3154 C3160 1.368 . S
C3155 C3139 1.349 . S
C3155 H3147 0.950 . S
C3155 C3153 1.327 . S
C3156 C3144 1.349 . S
C3156 H3150 0.950 . S
C3156 C3157 1.327 . S
C3157 H3151 0.950 . S
C3157 C3156 1.327 . S
C3157 C3161 1.429 . S
C3158 C3141 1.574 . S
C3158 H3152 0.949 . S
C3158 C3162 1.368 . S
C3159 C3140 1.429 . S
C3159 C3153 1.429 . S
C3159 C3160 1.523 . S
C3160 C3141 1.368 . S
C3160 C3154 1.368 . S
C3160 C3159 1.523 . S
C3161 C3145 1.429 . S
C3161 C3157 1.429 . S
C3161 C3162 1.523 . S
C3162 C3146 1.368 . S
C3162 C3158 1.368 . S
C3162 C3161 1.523 . S
H3163 C3138 0.950 . S
H3164 C3140 0.950 . S
H3165 C3141 0.949 . S
H3166 C3143 0.950 . S
H3167 C3145 0.950 . S
C3168 C3169 1.349 . S
C3168 C3170 1.327 . S
C3168 H3193 0.950 . S
C3169 C3168 1.349 . S
C3169 C3185 1.349 . S
C3170 C3168 1.327 . S
C3170 C3189 1.429 . S
C3170 H3194 0.950 . S
C3171 C3188 1.574 . S
C3171 C3190 1.368 . S
C3171 H3195 0.949 . S
H3172 C3176 0.949 . S
C3173 C3174 1.349 . S
C3173 C3175 1.327 . S
C3173 H3196 0.950 . S
C3174 C3173 1.349 . S
C3174 C3186 1.349 . S
C3175 C3173 1.327 . S
C3175 C3191 1.429 . S
C3175 H3197 0.950 . S
C3176 H3172 0.949 . S
C3176 C3184 1.574 . S
C3176 C3192 1.368 . S
H3177 C3185 0.950 . S
H3178 C3183 0.950 . S
H3179 C3184 0.949 . S
H3180 C3186 0.950 . S
H3181 C3187 0.950 . S
H3182 C3188 0.949 . S
C3183 H3178 0.950 . S
C3183 C3185 1.327 . S
C3183 C3189 1.429 . S
C3184 C3176 1.574 . S
C3184 H3179 0.949 . S
C3184 C3190 1.368 . S
C3185 C3169 1.349 . S
C3185 H3177 0.950 . S
C3185 C3183 1.327 . S
C3186 C3174 1.349 . S
C3186 H3180 0.950 . S
C3186 C3187 1.327 . S
C3187 H3181 0.950 . S
C3187 C3186 1.327 . S
C3187 C3191 1.429 . S
C3188 C3171 1.574 . S
C3188 H3182 0.949 . S
C3188 C3192 1.368 . S
C3189 C3170 1.429 . S
C3189 C3183 1.429 . S
C3189 C3190 1.523 . S
C3190 C3171 1.368 . S
C3190 C3184 1.368 . S
C3190 C3189 1.523 . S
C3191 C3175 1.429 . S
C3191 C3187 1.429 . S
C3191 C3192 1.523 . S
C3192 C3176 1.368 . S
C3192 C3188 1.368 . S
C3192 C3191 1.523 . S
H3193 C3168 0.950 . S
H3194 C3170 0.950 . S
H3195 C3171 0.949 . S
H3196 C3173 0.950 . S
H3197 C3175 0.950 . S
C3198 C3199 1.349 . S
C3198 C3200 1.327 . S
C3198 H3223 0.950 . S
C3199 C3198 1.349 . S
C3199 C3215 1.349 . S
C3200 C3198 1.327 . S
C3200 C3219 1.429 . S
C3200 H3224 0.950 . S
C3201 C3218 1.574 . S
C3201 C3220 1.368 . S
C3201 H3225 0.949 . S
H3202 C3206 0.949 . S
C3203 C3204 1.349 . S
C3203 C3205 1.327 . S
C3203 H3226 0.950 . S
C3204 C3203 1.349 . S
C3204 C3216 1.349 . S
C3205 C3203 1.327 . S
C3205 C3221 1.429 . S
C3205 H3227 0.950 . S
C3206 H3202 0.949 . S
C3206 C3214 1.574 . S
C3206 C3222 1.368 . S
H3207 C3215 0.950 . S
H3208 C3213 0.950 . S
H3209 C3214 0.949 . S
H3210 C3216 0.950 . S
H3211 C3217 0.950 . S
H3212 C3218 0.949 . S
C3213 H3208 0.950 . S
C3213 C3215 1.327 . S
C3213 C3219 1.429 . S
C3214 C3206 1.574 . S
C3214 H3209 0.949 . S
C3214 C3220 1.368 . S
C3215 C3199 1.349 . S
C3215 H3207 0.950 . S
C3215 C3213 1.327 . S
C3216 C3204 1.349 . S
C3216 H3210 0.950 . S
C3216 C3217 1.327 . S
C3217 H3211 0.950 . S
C3217 C3216 1.327 . S
C3217 C3221 1.429 . S
C3218 C3201 1.574 . S
C3218 H3212 0.949 . S
C3218 C3222 1.368 . S
C3219 C3200 1.429 . S
C3219 C3213 1.429 . S
C3219 C3220 1.523 . S
C3220 C3201 1.368 . S
C3220 C3214 1.368 . S
C3220 C3219 1.523 . S
C3221 C3205 1.429 . S
C3221 C3217 1.429 . S
C3221 C3222 1.523 . S
C3222 C3206 1.368 . S
C3222 C3218 1.368 . S
C3222 C3221 1.523 . S
H3223 C3198 0.950 . S
H3224 C3200 0.950 . S
H3225 C3201 0.949 . S
H3226 C3203 0.950 . S
H3227 C3205 0.950 . S
C3228 C3229 1.349 . S
C3228 C3230 1.327 . S
C3228 H3253 0.950 . S
C3229 C3228 1.349 . S
C3229 C3245 1.349 . S
C3230 C3228 1.327 . S
C3230 C3249 1.429 . S
C3230 H3254 0.950 . S
C3231 C3248 1.574 . S
C3231 C3250 1.368 . S
C3231 H3255 0.949 . S
H3232 C3236 0.949 . S
C3233 C3234 1.349 . S
C3233 C3235 1.327 . S
C3233 H3256 0.950 . S
C3234 C3233 1.349 . S
C3234 C3246 1.349 . S
C3235 C3233 1.327 . S
C3235 C3251 1.429 . S
C3235 H3257 0.950 . S
C3236 H3232 0.949 . S
C3236 C3244 1.574 . S
C3236 C3252 1.368 . S
H3237 C3245 0.950 . S
H3238 C3243 0.950 . S
H3239 C3244 0.949 . S
H3240 C3246 0.950 . S
H3241 C3247 0.950 . S
H3242 C3248 0.949 . S
C3243 H3238 0.950 . S
C3243 C3245 1.327 . S
C3243 C3249 1.429 . S
C3244 C3236 1.574 . S
C3244 H3239 0.949 . S
C3244 C3250 1.368 . S
C3245 C3229 1.349 . S
C3245 H3237 0.950 . S
C3245 C3243 1.327 . S
C3246 C3234 1.349 . S
C3246 H3240 0.950 . S
C3246 C3247 1.327 . S
C3247 H3241 0.950 . S
C3247 C3246 1.327 . S
C3247 C3251 1.429 . S
C3248 C3231 1.574 . S
C3248 H3242 0.949 . S
C3248 C3252 1.368 . S
C3249 C3230 1.429 . S
C3249 C3243 1.429 . S
C3249 C3250 1.523 . S
C3250 C3231 1.368 . S
C3250 C3244 1.368 . S
C3250 C3249 1.523 . S
C3251 C3235 1.429 . S
C3251 C3247 1.429 . S
C3251 C3252 1.523 . S
C3252 C3236 1.368 . S
C3252 C3248 1.368 . S
C3252 C3251 1.523 . S
H3253 C3228 0.950 . S
H3254 C3230 0.950 . S
H3255 C3231 0.949 . S
H3256 C3233 0.950 . S
H3257 C3235 0.950 . S
C3258 C3259 1.349 . S
C3258 C3260 1.327 . S
C3258 H3283 0.950 . S
C3259 C3258 1.349 . S
C3259 C3275 1.349 . S
C3260 C3258 1.327 . S
C3260 C3279 1.429 . S
C3260 H3284 0.950 . S
C3261 C3278 1.574 . S
C3261 C3280 1.368 . S
C3261 H3285 0.949 . S
H3262 C3266 0.949 . S
C3263 C3264 1.349 . S
C3263 C3265 1.327 . S
C3263 H3286 0.950 . S
C3264 C3263 1.349 . S
C3264 C3276 1.349 . S
C3265 C3263 1.327 . S
C3265 C3281 1.429 . S
C3265 H3287 0.950 . S
C3266 H3262 0.949 . S
C3266 C3274 1.574 . S
C3266 C3282 1.368 . S
H3267 C3275 0.950 . S
H3268 C3273 0.950 . S
H3269 C3274 0.949 . S
H3270 C3276 0.950 . S
H3271 C3277 0.950 . S
H3272 C3278 0.949 . S
C3273 H3268 0.950 . S
C3273 C3275 1.327 . S
C3273 C3279 1.429 . S
C3274 C3266 1.574 . S
C3274 H3269 0.949 . S
C3274 C3280 1.368 . S
C3275 C3259 1.349 . S
C3275 H3267 0.950 . S
C3275 C3273 1.327 . S
C3276 C3264 1.349 . S
C3276 H3270 0.950 . S
C3276 C3277 1.327 . S
C3277 H3271 0.950 . S
C3277 C3276 1.327 . S
C3277 C3281 1.429 . S
C3278 C3261 1.574 . S
C3278 H3272 0.949 . S
C3278 C3282 1.368 . S
C3279 C3260 1.429 . S
C3279 C3273 1.429 . S
C3279 C3280 1.523 . S
C3280 C3261 1.368 . S
C3280 C3274 1.368 . S
C3280 C3279 1.523 . S
C3281 C3265 1.429 . S
C3281 C3277 1.429 . S
C3281 C3282 1.523 . S
C3282 C3266 1.368 . S
C3282 C3278 1.368 . S
C3282 C3281 1.523 . S
H3283 C3258 0.950 . S
H3284 C3260 0.950 . S
H3285 C3261 0.949 . S
H3286 C3263 0.950 . S
H3287 C3265 0.950 . S
C3288 C3289 1.349 . S
C3288 C3290 1.327 . S
C3288 H3313 0.950 . S
C3289 C3288 1.349 . S
C3289 C3305 1.349 . S
C3290 C3288 1.327 . S
C3290 C3309 1.429 . S
C3290 H3314 0.950 . S
C3291 C3308 1.574 . S
C3291 C3310 1.368 . S
C3291 H3315 0.949 . S
H3292 C3296 0.949 . S
C3293 C3294 1.349 . S
C3293 C3295 1.327 . S
C3293 H3316 0.950 . S
C3294 C3293 1.349 . S
C3294 C3306 1.349 . S
C3295 C3293 1.327 . S
C3295 C3311 1.429 . S
C3295 H3317 0.950 . S
C3296 H3292 0.949 . S
C3296 C3304 1.574 . S
C3296 C3312 1.368 . S
H3297 C3305 0.950 . S
H3298 C3303 0.950 . S
H3299 C3304 0.949 . S
H3300 C3306 0.950 . S
H3301 C3307 0.950 . S
H3302 C3308 0.949 . S
C3303 H3298 0.950 . S
C3303 C3305 1.327 . S
C3303 C3309 1.429 . S
C3304 C3296 1.574 . S
C3304 H3299 0.949 . S
C3304 C3310 1.368 . S
C3305 C3289 1.349 . S
C3305 H3297 0.950 . S
C3305 C3303 1.327 . S
C3306 C3294 1.349 . S
C3306 H3300 0.950 . S
C3306 C3307 1.327 . S
C3307 H3301 0.950 . S
C3307 C3306 1.327 . S
C3307 C3311 1.429 . S
C3308 C3291 1.574 . S
C3308 H3302 0.949 . S
C3308 C3312 1.368 . S
C3309 C3290 1.429 . S
C3309 C3303 1.429 . S
C3309 C3310 1.523 . S
C3310 C3291 1.368 . S
C3310 C3304 1.368 . S
C3310 C3309 1.523 . S
C3311 C3295 1.429 . S
C3311 C3307 1.429 . S
C3311 C3312 1.523 . S
C3312 C3296 1.368 . S
C3312 C3308 1.368 . S
C3312 C3311 1.523 . S
H3313 C3288 0.950 . S
H3314 C3290 0.950 . S
H3315 C3291 0.949 . S
H3316 C3293 0.950 . S
H3317 C3295 0.950 . S
C3318 C3319 1.349 . S
C3318 C3320 1.327 . S
C3318 H3343 0.950 . S
C3319 C3318 1.349 . S
C3319 C3335 1.349 . S
C3320 C3318 1.327 . S
C3320 C3339 1.429 . S
C3320 H3344 0.950 . S
C3321 C3338 1.574 . S
C3321 C3340 1.368 . S
C3321 H3345 0.949 . S
H3322 C3326 0.949 . S
C3323 C3324 1.349 . S
C3323 C3325 1.327 . S
C3323 H3346 0.950 . S
C3324 C3323 1.349 . S
C3324 C3336 1.349 . S
C3325 C3323 1.327 . S
C3325 C3341 1.429 . S
C3325 H3347 0.950 . S
C3326 H3322 0.949 . S
C3326 C3334 1.574 . S
C3326 C3342 1.368 . S
H3327 C3335 0.950 . S
H3328 C3333 0.950 . S
H3329 C3334 0.949 . S
H3330 C3336 0.950 . S
H3331 C3337 0.950 . S
H3332 C3338 0.949 . S
C3333 H3328 0.950 . S
C3333 C3335 1.327 . S
C3333 C3339 1.429 . S
C3334 C3326 1.574 . S
C3334 H3329 0.949 . S
C3334 C3340 1.368 . S
C3335 C3319 1.349 . S
C3335 H3327 0.950 . S
C3335 C3333 1.327 . S
C3336 C3324 1.349 . S
C3336 H3330 0.950 . S
C3336 C3337 1.327 . S
C3337 H3331 0.950 . S
C3337 C3336 1.327 . S
C3337 C3341 1.429 . S
C3338 C3321 1.574 . S
C3338 H3332 0.949 . S
C3338 C3342 1.368 . S
C3339 C3320 1.429 . S
C3339 C3333 1.429 . S
C3339 C3340 1.523 . S
C3340 C3321 1.368 . S
C3340 C3334 1.368 . S
C3340 C3339 1.523 . S
C3341 C3325 1.429 . S
C3341 C3337 1.429 . S
C3341 C3342 1.523 . S
C3342 C3326 1.368 . S
C3342 C3338 1.368 . S
C3342 C3341 1.523 . S
H3343 C3318 0.950 . S
H3344 C3320 0.950 . S
H3345 C3321 0.949 . S
H3346 C3323 0.950 . S
H3347 C3325 0.950 . S
C3348 C3349 1.349 . S
C3348 C3350 1.327 . S
C3348 H3373 0.950 . S
C3349 C3348 1.349 . S
C3349 C3365 1.349 . S
C3350 C3348 1.327 . S
C3350 C3369 1.429 . S
C3350 H3374 0.950 . S
C3351 C3368 1.574 . S
C3351 C3370 1.368 . S
C3351 H3375 0.949 . S
H3352 C3356 0.949 . S
C3353 C3354 1.349 . S
C3353 C3355 1.327 . S
C3353 H3376 0.950 . S
C3354 C3353 1.349 . S
C3354 C3366 1.349 . S
C3355 C3353 1.327 . S
C3355 C3371 1.429 . S
C3355 H3377 0.950 . S
C3356 H3352 0.949 . S
C3356 C3364 1.574 . S
C3356 C3372 1.368 . S
H3357 C3365 0.950 . S
H3358 C3363 0.950 . S
H3359 C3364 0.949 . S
H3360 C3366 0.950 . S
H3361 C3367 0.950 . S
H3362 C3368 0.949 . S
C3363 H3358 0.950 . S
C3363 C3365 1.327 . S
C3363 C3369 1.429 . S
C3364 C3356 1.574 . S
C3364 H3359 0.949 . S
C3364 C3370 1.368 . S
C3365 C3349 1.349 . S
C3365 H3357 0.950 . S
C3365 C3363 1.327 . S
C3366 C3354 1.349 . S
C3366 H3360 0.950 . S
C3366 C3367 1.327 . S
C3367 H3361 0.950 . S
C3367 C3366 1.327 . S
C3367 C3371 1.429 . S
C3368 C3351 1.574 . S
C3368 H3362 0.949 . S
C3368 C3372 1.368 . S
C3369 C3350 1.429 . S
C3369 C3363 1.429 . S
C3369 C3370 1.523 . S
C3370 C3351 1.368 . S
C3370 C3364 1.368 . S
C3370 C3369 1.523 . S
C3371 C3355 1.429 . S
C3371 C3367 1.429 . S
C3371 C3372 1.523 . S
C3372 C3356 1.368 . S
C3372 C3368 1.368 . S
C3372 C3371 1.523 . S
H3373 C3348 0.950 . S
H3374 C3350 0.950 . S
H3375 C3351 0.949 . S
H3376 C3353 0.950 . S
H3377 C3355 0.950 . S
C3378 C3379 1.349 . S
C3378 C3380 1.327 . S
C3378 H3403 0.950 . S
C3379 C3378 1.349 . S
C3379 C3395 1.349 . S
C3380 C3378 1.327 . S
C3380 C3399 1.429 . S
C3380 H3404 0.950 . S
C3381 C3398 1.574 . S
C3381 C3400 1.368 . S
C3381 H3405 0.949 . S
H3382 C3386 0.949 . S
C3383 C3384 1.349 . S
C3383 C3385 1.327 . S
C3383 H3406 0.950 . S
C3384 C3383 1.349 . S
C3384 C3396 1.349 . S
C3385 C3383 1.327 . S
C3385 C3401 1.429 . S
C3385 H3407 0.950 . S
C3386 H3382 0.949 . S
C3386 C3394 1.574 . S
C3386 C3402 1.368 . S
H3387 C3395 0.950 . S
H3388 C3393 0.950 . S
H3389 C3394 0.949 . S
H3390 C3396 0.950 . S
H3391 C3397 0.950 . S
H3392 C3398 0.949 . S
C3393 H3388 0.950 . S
C3393 C3395 1.327 . S
C3393 C3399 1.429 . S
C3394 C3386 1.574 . S
C3394 H3389 0.949 . S
C3394 C3400 1.368 . S
C3395 C3379 1.349 . S
C3395 H3387 0.950 . S
C3395 C3393 1.327 . S
C3396 C3384 1.349 . S
C3396 H3390 0.950 . S
C3396 C3397 1.327 . S
C3397 H3391 0.950 . S
C3397 C3396 1.327 . S
C3397 C3401 1.429 . S
C3398 C3381 1.574 . S
C3398 H3392 0.949 . S
C3398 C3402 1.368 . S
C3399 C3380 1.429 . S
C3399 C3393 1.429 . S
C3399 C3400 1.523 . S
C3400 C3381 1.368 . S
C3400 C3394 1.368 . S
C3400 C3399 1.523 . S
C3401 C3385 1.429 . S
C3401 C3397 1.429 . S
C3401 C3402 1.523 . S
C3402 C3386 1.368 . S
C3402 C3398 1.368 . S
C3402 C3401 1.523 . S
H3403 C3378 0.950 . S
H3404 C3380 0.950 . S
H3405 C3381 0.949 . S
H3406 C3383 0.950 . S
H3407 C3385 0.950 . S
C3408 C3409 1.349 . S
C3408 C3410 1.327 . S
C3408 H3433 0.950 . S
C3409 C3408 1.349 . S
C3409 C3425 1.349 . S
C3410 C3408 1.327 . S
C3410 C3429 1.429 . S
C3410 H3434 0.950 . S
C3411 C3428 1.574 . S
C3411 C3430 1.368 . S
C3411 H3435 0.949 . S
H3412 C3416 0.949 . S
C3413 C3414 1.349 . S
C3413 C3415 1.327 . S
C3413 H3436 0.950 . S
C3414 C3413 1.349 . S
C3414 C3426 1.349 . S
C3415 C3413 1.327 . S
C3415 C3431 1.429 . S
C3415 H3437 0.950 . S
C3416 H3412 0.949 . S
C3416 C3424 1.574 . S
C3416 C3432 1.368 . S
H3417 C3425 0.950 . S
H3418 C3423 0.950 . S
H3419 C3424 0.949 . S
H3420 C3426 0.950 . S
H3421 C3427 0.950 . S
H3422 C3428 0.949 . S
C3423 H3418 0.950 . S
C3423 C3425 1.327 . S
C3423 C3429 1.429 . S
C3424 C3416 1.574 . S
C3424 H3419 0.949 . S
C3424 C3430 1.368 . S
C3425 C3409 1.349 . S
C3425 H3417 0.950 . S
C3425 C3423 1.327 . S
C3426 C3414 1.349 . S
C3426 H3420 0.950 . S
C3426 C3427 1.327 . S
C3427 H3421 0.950 . S
C3427 C3426 1.327 . S
C3427 C3431 1.429 . S
C3428 C3411 1.574 . S
C3428 H3422 0.949 . S
C3428 C3432 1.368 . S
C3429 C3410 1.429 . S
C3429 C3423 1.429 . S
C3429 C3430 1.523 . S
C3430 C3411 1.368 . S
C3430 C3424 1.368 . S
C3430 C3429 1.523 . S
C3431 C3415 1.429 . S
C3431 C3427 1.429 . S
C3431 C3432 1.523 . S
C3432 C3416 1.368 . S
C3432 C3428 1.368 . S
C3432 C3431 1.523 . S
H3433 C3408 0.950 . S
H3434 C3410 0.950 . S
H3435 C3411 0.949 . S
H3436 C3413 0.950 . S
H3437 C3415 0.950 . S
C3438 C3439 1.349 . S
C3438 C3440 1.327 . S
C3438 H3463 0.950 . S
C3439 C3438 1.349 . S
C3439 C3455 1.349 . S
C3440 C3438 1.327 . S
C3440 C3459 1.429 . S
C3440 H3464 0.950 . S
C3441 C3458 1.574 . S
C3441 C3460 1.368 . S
C3441 H3465 0.949 . S
H3442 C3446 0.949 . S
C3443 C3444 1.349 . S
C3443 C3445 1.327 . S
C3443 H3466 0.950 . S
C3444 C3443 1.349 . S
C3444 C3456 1.349 . S
C3445 C3443 1.327 . S
C3445 C3461 1.429 . S
C3445 H3467 0.950 . S
C3446 H3442 0.949 . S
C3446 C3454 1.574 . S
C3446 C3462 1.368 . S
H3447 C3455 0.950 . S
H3448 C3453 0.950 . S
H3449 C3454 0.949 . S
H3450 C3456 0.950 . S
H3451 C3457 0.950 . S
H3452 C3458 0.949 . S
C3453 H3448 0.950 . S
C3453 C3455 1.327 . S
C3453 C3459 1.429 . S
C3454 C3446 1.574 . S
C3454 H3449 0.949 . S
C3454 C3460 1.368 . S
C3455 C3439 1.349 . S
C3455 H3447 0.950 . S
C3455 C3453 1.327 . S
C3456 C3444 1.349 . S
C3456 H3450 0.950 . S
C3456 C3457 1.327 . S
C3457 H3451 0.950 . S
C3457 C3456 1.327 . S
C3457 C3461 1.429 . S
C3458 C3441 1.574 . S
C3458 H3452 0.949 . S
C3458 C3462 1.368 . S
C3459 C3440 1.429 . S
C3459 C3453 1.429 . S
C3459 C3460 1.523 . S
C3460 C3441 1.368 . S
C3460 C3454 1.368 . S
C3460 C3459 1.523 . S
C3461 C3445 1.429 . S
C3461 C3457 1.429 . S
C3461 C3462 1.523 . S
C3462 C3446 1.368 . S
C3462 C3458 1.368 . S
C3462 C3461 1.523 . S
H3463 C3438 0.950 . S
H3464 C3440 0.950 . S
H3465 C3441 0.949 . S
H3466 C3443 0.950 . S
H3467 C3445 0.950 . S
C3468 C3469 1.349 . S
C3468 C3470 1.327 . S
C3468 H3493 0.950 . S
C3469 C3468 1.349 . S
C3469 C3485 1.349 . S
C3470 C3468 1.327 . S
C3470 C3489 1.429 . S
C3470 H3494 0.950 . S
C3471 C3488 1.574 . S
C3471 C3490 1.368 . S
C3471 H3495 0.949 . S
H3472 C3476 0.949 . S
C3473 C3474 1.349 . S
C3473 C3475 1.327 . S
C3473 H3496 0.950 . S
C3474 C3473 1.349 . S
C3474 C3486 1.349 . S
C3475 C3473 1.327 . S
C3475 C3491 1.429 . S
C3475 H3497 0.950 . S
C3476 H3472 0.949 . S
C3476 C3484 1.574 . S
C3476 C3492 1.368 . S
H3477 C3485 0.950 . S
H3478 C3483 0.950 . S
H3479 C3484 0.949 . S
H3480 C3486 0.950 . S
H3481 C3487 0.950 . S
H3482 C3488 0.949 . S
C3483 H3478 0.950 . S
C3483 C3485 1.327 . S
C3483 C3489 1.429 . S
C3484 C3476 1.574 . S
C3484 H3479 0.949 . S
C3484 C3490 1.368 . S
C3485 C3469 1.349 . S
C3485 H3477 0.950 . S
C3485 C3483 1.327 . S
C3486 C3474 1.349 . S
C3486 H3480 0.950 . S
C3486 C3487 1.327 . S
C3487 H3481 0.950 . S
C3487 C3486 1.327 . S
C3487 C3491 1.429 . S
C3488 C3471 1.574 . S
C3488 H3482 0.949 . S
C3488 C3492 1.368 . S
C3489 C3470 1.429 . S
C3489 C3483 1.429 . S
C3489 C3490 1.523 . S
C3490 C3471 1.368 . S
C3490 C3484 1.368 . S
C3490 C3489 1.523 . S
C3491 C3475 1.429 . S
C3491 C3487 1.429 . S
C3491 C3492 1.523 . S
C3492 C3476 1.368 . S
C3492 C3488 1.368 . S
C3492 C3491 1.523 . S
H3493 C3468 0.950 . S
H3494 C3470 0.950 . S
H3495 C3471 0.949 . S
H3496 C3473 0.950 . S
H3497 C3475 0.950 . S
C3498 C3499 1.349 . S
C3498 C3500 1.327 . S
C3498 H3523 0.950 . S
C3499 C3498 1.349 . S
C3499 C3515 1.349 . S
C3500 C3498 1.327 . S
C3500 C3519 1.429 . S
C3500 H3524 0.950 . S
C3501 C3518 1.574 . S
C3501 C3520 1.368 . S
C3501 H3525 0.949 . S
H3502 C3506 0.949 . S
C3503 C3504 1.349 . S
C3503 C3505 1.327 . S
C3503 H3526 0.950 . S
C3504 C3503 1.349 . S
C3504 C3516 1.349 . S
C3505 C3503 1.327 . S
C3505 C3521 1.429 . S
C3505 H3527 0.950 . S
C3506 H3502 0.949 . S
C3506 C3514 1.574 . S
C3506 C3522 1.368 . S
H3507 C3515 0.950 . S
H3508 C3513 0.950 . S
H3509 C3514 0.949 . S
H3510 C3516 0.950 . S
H3511 C3517 0.950 . S
H3512 C3518 0.949 . S
C3513 H3508 0.950 . S
C3513 C3515 1.327 . S
C3513 C3519 1.429 . S
C3514 C3506 1.574 . S
C3514 H3509 0.949 . S
C3514 C3520 1.368 . S
C3515 C3499 1.349 . S
C3515 H3507 0.950 . S
C3515 C3513 1.327 . S
C3516 C3504 1.349 . S
C3516 H3510 0.950 . S
C3516 C3517 1.327 . S
C3517 H3511 0.950 . S
C3517 C3516 1.327 . S
C3517 C3521 1.429 . S
C3518 C3501 1.574 . S
C3518 H3512 0.949 . S
C3518 C3522 1.368 . S
C3519 C3500 1.429 . S
C3519 C3513 1.429 . S
C3519 C3520 1.523 . S
C3520 C3501 1.368 . S
C3520 C3514 1.368 . S
C3520 C3519 1.523 . S
C3521 C3505 1.429 . S
C3521 C3517 1.429 . S
C3521 C3522 1.523 . S
C3522 C3506 1.368 . S
C3522 C3518 1.368 . S
C3522 C3521 1.523 . S
H3523 C3498 0.950 . S
H3524 C3500 0.950 . S
H3525 C3501 0.949 . S
H3526 C3503 0.950 . S
H3527 C3505 0.950 . S
C3528 C3529 1.349 . S
C3528 C3530 1.327 . S
C3528 H3553 0.950 . S
C3529 C3528 1.349 . S
C3529 C3545 1.349 . S
C3530 C3528 1.327 . S
C3530 C3549 1.429 . S
C3530 H3554 0.950 . S
C3531 C3548 1.574 . S
C3531 C3550 1.368 . S
C3531 H3555 0.949 . S
H3532 C3536 0.949 . S
C3533 C3534 1.349 . S
C3533 C3535 1.327 . S
C3533 H3556 0.950 . S
C3534 C3533 1.349 . S
C3534 C3546 1.349 . S
C3535 C3533 1.327 . S
C3535 C3551 1.429 . S
C3535 H3557 0.950 . S
C3536 H3532 0.949 . S
C3536 C3544 1.574 . S
C3536 C3552 1.368 . S
H3537 C3545 0.950 . S
H3538 C3543 0.950 . S
H3539 C3544 0.949 . S
H3540 C3546 0.950 . S
H3541 C3547 0.950 . S
H3542 C3548 0.949 . S
C3543 H3538 0.950 . S
C3543 C3545 1.327 . S
C3543 C3549 1.429 . S
C3544 C3536 1.574 . S
C3544 H3539 0.949 . S
C3544 C3550 1.368 . S
C3545 C3529 1.349 . S
C3545 H3537 0.950 . S
C3545 C3543 1.327 . S
C3546 C3534 1.349 . S
C3546 H3540 0.950 . S
C3546 C3547 1.327 . S
C3547 H3541 0.950 . S
C3547 C3546 1.327 . S
C3547 C3551 1.429 . S
C3548 C3531 1.574 . S
C3548 H3542 0.949 . S
C3548 C3552 1.368 . S
C3549 C3530 1.429 . S
C3549 C3543 1.429 . S
C3549 C3550 1.523 . S
C3550 C3531 1.368 . S
C3550 C3544 1.368 . S
C3550 C3549 1.523 . S
C3551 C3535 1.429 . S
C3551 C3547 1.429 . S
C3551 C3552 1.523 . S
C3552 C3536 1.368 . S
C3552 C3548 1.368 . S
C3552 C3551 1.523 . S
H3553 C3528 0.950 . S
H3554 C3530 0.950 . S
H3555 C3531 0.949 . S
H3556 C3533 0.950 . S
H3557 C3535 0.950 . S
C3558 C3559 1.349 . S
C3558 C3560 1.327 . S
C3558 H3583 0.950 . S
C3559 C3558 1.349 . S
C3559 C3575 1.349 . S
C3560 C3558 1.327 . S
C3560 C3579 1.429 . S
C3560 H3584 0.950 . S
C3561 C3578 1.574 . S
C3561 C3580 1.368 . S
C3561 H3585 0.949 . S
H3562 C3566 0.949 . S
C3563 C3564 1.349 . S
C3563 C3565 1.327 . S
C3563 H3586 0.950 . S
C3564 C3563 1.349 . S
C3564 C3576 1.349 . S
C3565 C3563 1.327 . S
C3565 C3581 1.429 . S
C3565 H3587 0.950 . S
C3566 H3562 0.949 . S
C3566 C3574 1.574 . S
C3566 C3582 1.368 . S
H3567 C3575 0.950 . S
H3568 C3573 0.950 . S
H3569 C3574 0.949 . S
H3570 C3576 0.950 . S
H3571 C3577 0.950 . S
H3572 C3578 0.949 . S
C3573 H3568 0.950 . S
C3573 C3575 1.327 . S
C3573 C3579 1.429 . S
C3574 C3566 1.574 . S
C3574 H3569 0.949 . S
C3574 C3580 1.368 . S
C3575 C3559 1.349 . S
C3575 H3567 0.950 . S
C3575 C3573 1.327 . S
C3576 C3564 1.349 . S
C3576 H3570 0.950 . S
C3576 C3577 1.327 . S
C3577 H3571 0.950 . S
C3577 C3576 1.327 . S
C3577 C3581 1.429 . S
C3578 C3561 1.574 . S
C3578 H3572 0.949 . S
C3578 C3582 1.368 . S
C3579 C3560 1.429 . S
C3579 C3573 1.429 . S
C3579 C3580 1.523 . S
C3580 C3561 1.368 . S
C3580 C3574 1.368 . S
C3580 C3579 1.523 . S
C3581 C3565 1.429 . S
C3581 C3577 1.429 . S
C3581 C3582 1.523 . S
C3582 C3566 1.368 . S
C3582 C3578 1.368 . S
C3582 C3581 1.523 . S
H3583 C3558 0.950 . S
H3584 C3560 0.950 . S
H3585 C3561 0.949 . S
H3586 C3563 0.950 . S
H3587 C3565 0.950 . S
C3588 C3589 1.349 . S
C3588 C3590 1.327 . S
C3588 H3613 0.950 . S
C3589 C3588 1.349 . S
C3589 C3605 1.349 . S
C3590 C3588 1.327 . S
C3590 C3609 1.429 . S
C3590 H3614 0.950 . S
C3591 C3608 1.574 . S
C3591 C3610 1.368 . S
C3591 H3615 0.949 . S
H3592 C3596 0.949 . S
C3593 C3594 1.349 . S
C3593 C3595 1.327 . S
C3593 H3616 0.950 . S
C3594 C3593 1.349 . S
C3594 C3606 1.349 . S
C3595 C3593 1.327 . S
C3595 C3611 1.429 . S
C3595 H3617 0.950 . S
C3596 H3592 0.949 . S
C3596 C3604 1.574 . S
C3596 C3612 1.368 . S
H3597 C3605 0.950 . S
H3598 C3603 0.950 . S
H3599 C3604 0.949 . S
H3600 C3606 0.950 . S
H3601 C3607 0.950 . S
H3602 C3608 0.949 . S
C3603 H3598 0.950 . S
C3603 C3605 1.327 . S
C3603 C3609 1.429 . S
C3604 C3596 1.574 . S
C3604 H3599 0.949 . S
C3604 C3610 1.368 . S
C3605 C3589 1.349 . S
C3605 H3597 0.950 . S
C3605 C3603 1.327 . S
C3606 C3594 1.349 . S
C3606 H3600 0.950 . S
C3606 C3607 1.327 . S
C3607 H3601 0.950 . S
C3607 C3606 1.327 . S
C3607 C3611 1.429 . S
C3608 C3591 1.574 . S
C3608 H3602 0.949 . S
C3608 C3612 1.368 . S
C3609 C3590 1.429 . S
C3609 C3603 1.429 . S
C3609 C3610 1.523 . S
C3610 C3591 1.368 . S
C3610 C3604 1.368 . S
C3610 C3609 1.523 . S
C3611 C3595 1.429 . S
C3611 C3607 1.429 . S
C3611 C3612 1.523 . S
C3612 C3596 1.368 . S
C3612 C3608 1.368 . S
C3612 C3611 1.523 . S
H3613 C3588 0.950 . S
H3614 C3590 0.950 . S
H3615 C3591 0.949 . S
H3616 C3593 0.950 . S
H3617 C3595 0.950 . S
C3618 C3619 1.349 . S
C3618 C3620 1.327 . S
C3618 H3643 0.950 . S
C3619 C3618 1.349 . S
C3619 C3635 1.349 . S
C3620 C3618 1.327 . S
C3620 C3639 1.429 . S
C3620 H3644 0.950 . S
C3621 C3638 1.574 . S
C3621 C3640 1.368 . S
C3621 H3645 0.949 . S
H3622 C3626 0.949 . S
C3623 C3624 1.349 . S
C3623 C3625 1.327 . S
C3623 H3646 0.950 . S
C3624 C3623 1.349 . S
C3624 C3636 1.349 . S
C3625 C3623 1.327 . S
C3625 C3641 1.429 . S
C3625 H3647 0.950 . S
C3626 H3622 0.949 . S
C3626 C3634 1.574 . S
C3626 C3642 1.368 . S
H3627 C3635 0.950 . S
H3628 C3633 0.950 . S
H3629 C3634 0.949 . S
H3630 C3636 0.950 . S
H3631 C3637 0.950 . S
H3632 C3638 0.949 . S
C3633 H3628 0.950 . S
C3633 C3635 1.327 . S
C3633 C3639 1.429 . S
C3634 C3626 1.574 . S
C3634 H3629 0.949 . S
C3634 C3640 1.368 . S
C3635 C3619 1.349 . S
C3635 H3627 0.950 . S
C3635 C3633 1.327 . S
C3636 C3624 1.349 . S
C3636 H3630 0.950 . S
C3636 C3637 1.327 . S
C3637 H3631 0.950 . S
C3637 C3636 1.327 . S
C3637 C3641 1.429 . S
C3638 C3621 1.574 . S
C3638 H3632 0.949 . S
C3638 C3642 1.368 . S
C3639 C3620 1.429 . S
C3639 C3633 1.429 . S
C3639 C3640 1.523 . S
C3640 C3621 1.368 . S
C3640 C3634 1.368 . S
C3640 C3639 1.523 . S
C3641 C3625 1.429 . S
C3641 C3637 1.429 . S
C3641 C3642 1.523 . S
C3642 C3626 1.368 . S
C3642 C3638 1.368 . S
C3642 C3641 1.523 . S
H3643 C3618 0.950 . S
H3644 C3620 0.950 . S
H3645 C3621 0.949 . S
H3646 C3623 0.950 . S
H3647 C3625 0.950 . S
C3648 C3649 1.349 . S
C3648 C3650 1.327 . S
C3648 H3673 0.950 . S
C3649 C3648 1.349 . S
C3649 C3665 1.349 . S
C3650 C3648 1.327 . S
C3650 C3669 1.429 . S
C3650 H3674 0.950 . S
C3651 C3668 1.574 1_455 S
C3651 C3670 1.368 . S
C3651 H3675 0.949 . S
H3652 C3656 0.949 . S
C3653 C3654 1.349 . S
C3653 C3655 1.327 . S
C3653 H3676 0.950 . S
C3654 C3653 1.349 . S
C3654 C3666 1.349 . S
C3655 C3653 1.327 . S
C3655 C3671 1.429 . S
C3655 H3677 0.950 . S
C3656 H3652 0.949 . S
C3656 C3664 1.574 1_655 S
C3656 C3672 1.368 . S
H3657 C3665 0.950 . S
H3658 C3663 0.950 . S
H3659 C3664 0.949 . S
H3660 C3666 0.950 . S
H3661 C3667 0.950 . S
H3662 C3668 0.949 . S
C3663 H3658 0.950 . S
C3663 C3665 1.327 . S
C3663 C3669 1.429 . S
C3664 C3656 1.574 1_455 S
C3664 H3659 0.949 . S
C3664 C3670 1.368 . S
C3665 C3649 1.349 . S
C3665 H3657 0.950 . S
C3665 C3663 1.327 . S
C3666 C3654 1.349 . S
C3666 H3660 0.950 . S
C3666 C3667 1.327 . S
C3667 H3661 0.950 . S
C3667 C3666 1.327 . S
C3667 C3671 1.429 . S
C3668 C3651 1.574 1_655 S
C3668 H3662 0.949 . S
C3668 C3672 1.368 . S
C3669 C3650 1.429 . S
C3669 C3663 1.429 . S
C3669 C3670 1.523 . S
C3670 C3651 1.368 . S
C3670 C3664 1.368 . S
C3670 C3669 1.523 . S
C3671 C3655 1.429 . S
C3671 C3667 1.429 . S
C3671 C3672 1.523 . S
C3672 C3656 1.368 . S
C3672 C3668 1.368 . S
C3672 C3671 1.523 . S
H3673 C3648 0.950 . S
H3674 C3650 0.950 . S
H3675 C3651 0.949 . S
H3676 C3653 0.950 . S
H3677 C3655 0.950 . S
C3678 C3679 1.349 . S
C3678 C3680 1.332 . S
C3678 H3703 0.950 1_655 S
C3679 C3678 1.349 . S
C3679 C3695 1.349 . S
C3680 C3678 1.332 . S
C3680 C3699 1.436 . S
C3680 H3704 0.937 1_655 S
C3681 C3698 1.574 . S
C3681 C3700 1.368 . S
C3681 H3705 0.949 . S
H3682 C3686 0.949 . S
C3683 C3684 1.349 . S
C3683 C3685 1.332 . S
C3683 H3706 0.950 1_455 S
C3684 C3683 1.349 . S
C3684 C3696 1.349 . S
C3685 C3683 1.332 . S
C3685 C3701 1.436 . S
C3685 H3707 0.937 1_455 S
C3686 H3682 0.949 . S
C3686 C3694 1.574 . S
C3686 C3702 1.368 . S
H3687 C3695 0.950 . S
H3688 C3693 0.950 . S
H3689 C3694 0.949 . S
H3690 C3696 0.950 . S
H3691 C3697 0.950 . S
H3692 C3698 0.949 . S
C3693 H3688 0.950 . S
C3693 C3695 1.327 . S
C3693 C3699 1.429 . S
C3694 C3686 1.574 . S
C3694 H3689 0.949 . S
C3694 C3700 1.368 1_455 S
C3695 C3679 1.349 . S
C3695 H3687 0.950 . S
C3695 C3693 1.327 . S
C3696 C3684 1.349 . S
C3696 H3690 0.950 . S
C3696 C3697 1.327 . S
C3697 H3691 0.950 . S
C3697 C3696 1.327 . S
C3697 C3701 1.429 . S
C3698 C3681 1.574 . S
C3698 H3692 0.949 . S
C3698 C3702 1.368 1_655 S
C3699 C3680 1.436 . S
C3699 C3693 1.429 . S
C3699 C3700 1.523 . S
C3700 C3681 1.368 . S
C3700 C3694 1.368 1_655 S
C3700 C3699 1.523 . S
C3701 C3685 1.436 . S
C3701 C3697 1.429 . S
C3701 C3702 1.523 . S
C3702 C3686 1.368 . S
C3702 C3698 1.368 1_455 S
C3702 C3701 1.523 . S
H3703 C3678 0.950 1_455 S
H3704 C3680 0.937 1_455 S
H3705 C3681 0.949 . S
H3706 C3683 0.950 1_655 S
H3707 C3685 0.937 1_655 S
C3708 C3709 1.349 . S
C3708 C3710 1.327 . S
C3708 H3733 0.950 . S
C3709 C3708 1.349 . S
C3709 C3725 1.349 . S
C3710 C3708 1.327 . S
C3710 C3729 1.429 . S
C3710 H3734 0.950 . S
C3711 C3728 1.574 . S
C3711 C3730 1.368 . S
C3711 H3735 0.949 . S
H3712 C3716 0.949 . S
C3713 C3714 1.349 . S
C3713 C3715 1.327 . S
C3713 H3736 0.950 . S
C3714 C3713 1.349 . S
C3714 C3726 1.349 . S
C3715 C3713 1.327 . S
C3715 C3731 1.429 . S
C3715 H3737 0.950 . S
C3716 H3712 0.949 . S
C3716 C3724 1.574 . S
C3716 C3732 1.368 . S
H3717 C3725 0.950 . S
H3718 C3723 0.950 . S
H3719 C3724 0.949 . S
H3720 C3726 0.950 . S
H3721 C3727 0.950 . S
H3722 C3728 0.949 . S
C3723 H3718 0.950 . S
C3723 C3725 1.327 . S
C3723 C3729 1.429 . S
C3724 C3716 1.574 . S
C3724 H3719 0.949 . S
C3724 C3730 1.368 . S
C3725 C3709 1.349 . S
C3725 H3717 0.950 . S
C3725 C3723 1.327 . S
C3726 C3714 1.349 . S
C3726 H3720 0.950 . S
C3726 C3727 1.327 . S
C3727 H3721 0.950 . S
C3727 C3726 1.327 . S
C3727 C3731 1.429 . S
C3728 C3711 1.574 . S
C3728 H3722 0.949 . S
C3728 C3732 1.368 . S
C3729 C3710 1.429 . S
C3729 C3723 1.429 . S
C3729 C3730 1.523 . S
C3730 C3711 1.368 . S
C3730 C3724 1.368 . S
C3730 C3729 1.523 . S
C3731 C3715 1.429 . S
C3731 C3727 1.429 . S
C3731 C3732 1.523 . S
C3732 C3716 1.368 . S
C3732 C3728 1.368 . S
C3732 C3731 1.523 . S
H3733 C3708 0.950 . S
H3734 C3710 0.950 . S
H3735 C3711 0.949 . S
H3736 C3713 0.950 . S
H3737 C3715 0.950 . S
C3738 C3739 1.349 . S
C3738 C3740 1.327 . S
C3738 H3763 0.950 . S
C3739 C3738 1.349 . S
C3739 C3755 1.349 . S
C3740 C3738 1.327 . S
C3740 C3759 1.429 . S
C3740 H3764 0.950 . S
C3741 C3758 1.574 . S
C3741 C3760 1.368 . S
C3741 H3765 0.949 . S
H3742 C3746 0.949 . S
C3743 C3744 1.349 . S
C3743 C3745 1.327 . S
C3743 H3766 0.950 . S
C3744 C3743 1.349 . S
C3744 C3756 1.349 . S
C3745 C3743 1.327 . S
C3745 C3761 1.429 . S
C3745 H3767 0.950 . S
C3746 H3742 0.949 . S
C3746 C3754 1.574 . S
C3746 C3762 1.368 . S
H3747 C3755 0.950 . S
H3748 C3753 0.950 . S
H3749 C3754 0.949 . S
H3750 C3756 0.950 . S
H3751 C3757 0.950 . S
H3752 C3758 0.949 . S
C3753 H3748 0.950 . S
C3753 C3755 1.327 . S
C3753 C3759 1.429 . S
C3754 C3746 1.574 . S
C3754 H3749 0.949 . S
C3754 C3760 1.368 . S
C3755 C3739 1.349 . S
C3755 H3747 0.950 . S
C3755 C3753 1.327 . S
C3756 C3744 1.349 . S
C3756 H3750 0.950 . S
C3756 C3757 1.327 . S
C3757 H3751 0.950 . S
C3757 C3756 1.327 . S
C3757 C3761 1.429 . S
C3758 C3741 1.574 . S
C3758 H3752 0.949 . S
C3758 C3762 1.368 . S
C3759 C3740 1.429 . S
C3759 C3753 1.429 . S
C3759 C3760 1.523 . S
C3760 C3741 1.368 . S
C3760 C3754 1.368 . S
C3760 C3759 1.523 . S
C3761 C3745 1.429 . S
C3761 C3757 1.429 . S
C3761 C3762 1.523 . S
C3762 C3746 1.368 . S
C3762 C3758 1.368 . S
C3762 C3761 1.523 . S
H3763 C3738 0.950 . S
H3764 C3740 0.950 . S
H3765 C3741 0.949 . S
H3766 C3743 0.950 . S
H3767 C3745 0.950 . S
C3768 C3769 1.349 . S
C3768 C3770 1.327 . S
C3768 H3793 0.950 . S
C3769 C3768 1.349 . S
C3769 C3785 1.349 . S
C3770 C3768 1.327 . S
C3770 C3789 1.429 . S
C3770 H3794 0.950 . S
C3771 C3788 1.574 1_655 S
C3771 C3790 1.368 . S
C3771 H3795 0.949 . S
H3772 C3776 0.949 . S
C3773 C3774 1.349 . S
C3773 C3775 1.327 . S
C3773 H3796 0.950 . S
C3774 C3773 1.349 . S
C3774 C3786 1.349 . S
C3775 C3773 1.327 . S
C3775 C3791 1.429 . S
C3775 H3797 0.950 . S
C3776 H3772 0.949 . S
C3776 C3784 1.574 1_455 S
C3776 C3792 1.368 . S
H3777 C3785 0.950 . S
H3778 C3783 0.950 . S
H3779 C3784 0.949 . S
H3780 C3786 0.950 . S
H3781 C3787 0.950 . S
H3782 C3788 0.949 . S
C3783 H3778 0.950 . S
C3783 C3785 1.327 . S
C3783 C3789 1.429 . S
C3784 C3776 1.574 1_655 S
C3784 H3779 0.949 . S
C3784 C3790 1.368 . S
C3785 C3769 1.349 . S
C3785 H3777 0.950 . S
C3785 C3783 1.327 . S
C3786 C3774 1.349 . S
C3786 H3780 0.950 . S
C3786 C3787 1.327 . S
C3787 H3781 0.950 . S
C3787 C3786 1.327 . S
C3787 C3791 1.429 . S
C3788 C3771 1.574 1_455 S
C3788 H3782 0.949 . S
C3788 C3792 1.368 . S
C3789 C3770 1.429 . S
C3789 C3783 1.429 . S
C3789 C3790 1.523 . S
C3790 C3771 1.368 . S
C3790 C3784 1.368 . S
C3790 C3789 1.523 . S
C3791 C3775 1.429 . S
C3791 C3787 1.429 . S
C3791 C3792 1.523 . S
C3792 C3776 1.368 . S
C3792 C3788 1.368 . S
C3792 C3791 1.523 . S
H3793 C3768 0.950 . S
H3794 C3770 0.950 . S
H3795 C3771 0.949 . S
H3796 C3773 0.950 . S
H3797 C3775 0.950 . S
C3798 C3799 1.349 . S
C3798 C3800 1.327 . S
C3798 H3823 0.950 . S
C3799 C3798 1.349 . S
C3799 C3815 1.349 . S
C3800 C3798 1.327 . S
C3800 C3819 1.429 . S
C3800 H3824 0.950 . S
C3801 C3818 1.574 . S
C3801 C3820 1.368 . S
C3801 H3825 0.949 . S
H3802 C3806 0.949 . S
C3803 C3804 1.349 . S
C3803 C3805 1.327 . S
C3803 H3826 0.950 . S
C3804 C3803 1.349 . S
C3804 C3816 1.349 . S
C3805 C3803 1.327 . S
C3805 C3821 1.429 . S
C3805 H3827 0.950 . S
C3806 H3802 0.949 . S
C3806 C3814 1.574 . S
C3806 C3822 1.368 . S
H3807 C3815 0.950 . S
H3808 C3813 0.950 . S
H3809 C3814 0.949 . S
H3810 C3816 0.950 . S
H3811 C3817 0.950 . S
H3812 C3818 0.949 . S
C3813 H3808 0.950 . S
C3813 C3815 1.327 . S
C3813 C3819 1.429 . S
C3814 C3806 1.574 . S
C3814 H3809 0.949 . S
C3814 C3820 1.368 . S
C3815 C3799 1.349 . S
C3815 H3807 0.950 . S
C3815 C3813 1.327 . S
C3816 C3804 1.349 . S
C3816 H3810 0.950 . S
C3816 C3817 1.327 . S
C3817 H3811 0.950 . S
C3817 C3816 1.327 . S
C3817 C3821 1.429 . S
C3818 C3801 1.574 . S
C3818 H3812 0.949 . S
C3818 C3822 1.368 . S
C3819 C3800 1.429 . S
C3819 C3813 1.429 . S
C3819 C3820 1.523 . S
C3820 C3801 1.368 . S
C3820 C3814 1.368 . S
C3820 C3819 1.523 . S
C3821 C3805 1.429 . S
C3821 C3817 1.429 . S
C3821 C3822 1.523 . S
C3822 C3806 1.368 . S
C3822 C3818 1.368 . S
C3822 C3821 1.523 . S
H3823 C3798 0.950 . S
H3824 C3800 0.950 . S
H3825 C3801 0.949 . S
H3826 C3803 0.950 . S
H3827 C3805 0.950 . S
C3828 C3829 1.349 . S
C3828 C3830 1.327 . S
C3828 H3853 0.950 . S
C3829 C3828 1.349 . S
C3829 C3845 1.349 . S
C3830 C3828 1.327 . S
C3830 C3849 1.429 . S
C3830 H3854 0.950 . S
C3831 C3848 1.574 . S
C3831 C3850 1.368 . S
C3831 H3855 0.949 . S
H3832 C3836 0.949 . S
C3833 C3834 1.349 . S
C3833 C3835 1.327 . S
C3833 H3856 0.950 . S
C3834 C3833 1.349 . S
C3834 C3846 1.349 . S
C3835 C3833 1.327 . S
C3835 C3851 1.429 . S
C3835 H3857 0.950 . S
C3836 H3832 0.949 . S
C3836 C3844 1.574 . S
C3836 C3852 1.368 . S
H3837 C3845 0.950 . S
H3838 C3843 0.950 . S
H3839 C3844 0.949 . S
H3840 C3846 0.950 . S
H3841 C3847 0.950 . S
H3842 C3848 0.949 . S
C3843 H3838 0.950 . S
C3843 C3845 1.327 . S
C3843 C3849 1.429 . S
C3844 C3836 1.574 . S
C3844 H3839 0.949 . S
C3844 C3850 1.368 . S
C3845 C3829 1.349 . S
C3845 H3837 0.950 . S
C3845 C3843 1.327 . S
C3846 C3834 1.349 . S
C3846 H3840 0.950 . S
C3846 C3847 1.327 . S
C3847 H3841 0.950 . S
C3847 C3846 1.327 . S
C3847 C3851 1.429 . S
C3848 C3831 1.574 . S
C3848 H3842 0.949 . S
C3848 C3852 1.368 . S
C3849 C3830 1.429 . S
C3849 C3843 1.429 . S
C3849 C3850 1.523 . S
C3850 C3831 1.368 . S
C3850 C3844 1.368 . S
C3850 C3849 1.523 . S
C3851 C3835 1.429 . S
C3851 C3847 1.429 . S
C3851 C3852 1.523 . S
C3852 C3836 1.368 . S
C3852 C3848 1.368 . S
C3852 C3851 1.523 . S
H3853 C3828 0.950 . S
H3854 C3830 0.950 . S
H3855 C3831 0.949 . S
H3856 C3833 0.950 . S
H3857 C3835 0.950 . S
C3858 C3859 1.349 . S
C3858 C3860 1.327 . S
C3858 H3883 0.950 . S
C3859 C3858 1.349 . S
C3859 C3875 1.349 . S
C3860 C3858 1.327 . S
C3860 C3879 1.429 . S
C3860 H3884 0.950 . S
C3861 C3878 1.574 . S
C3861 C3880 1.368 1_655 S
C3861 H3885 0.949 . S
H3862 C3866 0.949 . S
C3863 C3864 1.349 . S
C3863 C3865 1.327 . S
C3863 H3886 0.950 . S
C3864 C3863 1.349 . S
C3864 C3876 1.349 . S
C3865 C3863 1.327 . S
C3865 C3881 1.429 . S
C3865 H3887 0.950 . S
C3866 H3862 0.949 . S
C3866 C3874 1.574 . S
C3866 C3882 1.368 1_455 S
H3867 C3875 0.950 1_655 S
H3868 C3873 0.937 1_655 S
H3869 C3874 0.949 . S
H3870 C3876 0.950 1_455 S
H3871 C3877 0.937 1_455 S
H3872 C3878 0.949 . S
C3873 H3868 0.937 1_455 S
C3873 C3875 1.332 . S
C3873 C3879 1.437 . S
C3874 C3866 1.574 . S
C3874 H3869 0.949 . S
C3874 C3880 1.368 . S
C3875 C3859 1.349 . S
C3875 H3867 0.950 1_455 S
C3875 C3873 1.332 . S
C3876 C3864 1.349 . S
C3876 H3870 0.950 1_655 S
C3876 C3877 1.332 . S
C3877 H3871 0.937 1_655 S
C3877 C3876 1.332 . S
C3877 C3881 1.436 . S
C3878 C3861 1.574 . S
C3878 H3872 0.949 . S
C3878 C3882 1.368 . S
C3879 C3860 1.429 . S
C3879 C3873 1.437 . S
C3879 C3880 1.523 . S
C3880 C3861 1.368 1_455 S
C3880 C3874 1.368 . S
C3880 C3879 1.523 . S
C3881 C3865 1.429 . S
C3881 C3877 1.436 . S
C3881 C3882 1.523 . S
C3882 C3866 1.368 1_655 S
C3882 C3878 1.368 . S
C3882 C3881 1.523 . S
H3883 C3858 0.950 . S
H3884 C3860 0.950 . S
H3885 C3861 0.949 . S
H3886 C3863 0.950 . S
H3887 C3865 0.950 . S
C3888 C3889 1.349 . S
C3888 C3890 1.327 . S
C3888 H3913 0.950 . S
C3889 C3888 1.349 . S
C3889 C3905 1.349 . S
C3890 C3888 1.327 . S
C3890 C3909 1.429 . S
C3890 H3914 0.950 . S
C3891 C3908 1.574 1_455 S
C3891 C3910 1.368 . S
C3891 H3915 0.949 . S
H3892 C3896 0.949 . S
C3893 C3894 1.349 . S
C3893 C3895 1.327 . S
C3893 H3916 0.950 . S
C3894 C3893 1.349 . S
C3894 C3906 1.349 . S
C3895 C3893 1.327 . S
C3895 C3911 1.429 . S
C3895 H3917 0.950 . S
C3896 H3892 0.949 . S
C3896 C3904 1.574 1_655 S
C3896 C3912 1.368 . S
H3897 C3905 0.950 . S
H3898 C3903 0.950 . S
H3899 C3904 0.949 . S
H3900 C3906 0.950 . S
H3901 C3907 0.950 . S
H3902 C3908 0.949 . S
C3903 H3898 0.950 . S
C3903 C3905 1.327 . S
C3903 C3909 1.429 . S
C3904 C3896 1.574 1_455 S
C3904 H3899 0.949 . S
C3904 C3910 1.368 . S
C3905 C3889 1.349 . S
C3905 H3897 0.950 . S
C3905 C3903 1.327 . S
C3906 C3894 1.349 . S
C3906 H3900 0.950 . S
C3906 C3907 1.327 . S
C3907 H3901 0.950 . S
C3907 C3906 1.327 . S
C3907 C3911 1.429 . S
C3908 C3891 1.574 1_655 S
C3908 H3902 0.949 . S
C3908 C3912 1.368 . S
C3909 C3890 1.429 . S
C3909 C3903 1.429 . S
C3909 C3910 1.523 . S
C3910 C3891 1.368 . S
C3910 C3904 1.368 . S
C3910 C3909 1.523 . S
C3911 C3895 1.429 . S
C3911 C3907 1.429 . S
C3911 C3912 1.523 . S
C3912 C3896 1.368 . S
C3912 C3908 1.368 . S
C3912 C3911 1.523 . S
H3913 C3888 0.950 . S
H3914 C3890 0.950 . S
H3915 C3891 0.949 . S
H3916 C3893 0.950 . S
H3917 C3895 0.950 . S
C3918 C3919 1.349 . S
C3918 C3920 1.327 . S
C3918 H3943 0.950 . S
C3919 C3918 1.349 . S
C3919 C3935 1.349 . S
C3920 C3918 1.327 . S
C3920 C3939 1.429 . S
C3920 H3944 0.950 . S
C3921 C3938 1.574 . S
C3921 C3940 1.368 1_455 S
C3921 H3945 0.949 . S
H3922 C3926 0.949 . S
C3923 C3924 1.349 . S
C3923 C3925 1.327 . S
C3923 H3946 0.950 . S
C3924 C3923 1.349 . S
C3924 C3936 1.349 . S
C3925 C3923 1.327 . S
C3925 C3941 1.429 . S
C3925 H3947 0.950 . S
C3926 H3922 0.949 . S
C3926 C3934 1.574 . S
C3926 C3942 1.368 1_655 S
H3927 C3935 0.950 1_455 S
H3928 C3933 0.937 1_455 S
H3929 C3934 0.949 . S
H3930 C3936 0.950 1_655 S
H3931 C3937 0.937 1_655 S
H3932 C3938 0.949 . S
C3933 H3928 0.937 1_655 S
C3933 C3935 1.332 . S
C3933 C3939 1.437 . S
C3934 C3926 1.574 . S
C3934 H3929 0.949 . S
C3934 C3940 1.368 . S
C3935 C3919 1.349 . S
C3935 H3927 0.950 1_655 S
C3935 C3933 1.332 . S
C3936 C3924 1.349 . S
C3936 H3930 0.950 1_455 S
C3936 C3937 1.332 . S
C3937 H3931 0.937 1_455 S
C3937 C3936 1.332 . S
C3937 C3941 1.436 . S
C3938 C3921 1.574 . S
C3938 H3932 0.949 . S
C3938 C3942 1.368 . S
C3939 C3920 1.429 . S
C3939 C3933 1.437 . S
C3939 C3940 1.523 . S
C3940 C3921 1.368 1_655 S
C3940 C3934 1.368 . S
C3940 C3939 1.523 . S
C3941 C3925 1.429 . S
C3941 C3937 1.436 . S
C3941 C3942 1.523 . S
C3942 C3926 1.368 1_455 S
C3942 C3938 1.368 . S
C3942 C3941 1.523 . S
H3943 C3918 0.950 . S
H3944 C3920 0.950 . S
H3945 C3921 0.949 . S
H3946 C3923 0.950 . S
H3947 C3925 0.950 . S
C3948 C3949 1.349 . S
C3948 C3950 1.327 . S
C3948 H3973 0.950 . S
C3949 C3948 1.349 . S
C3949 C3965 1.349 . S
C3950 C3948 1.327 . S
C3950 C3969 1.429 . S
C3950 H3974 0.950 . S
C3951 C3968 1.574 . S
C3951 C3970 1.368 . S
C3951 H3975 0.949 . S
H3952 C3956 0.949 . S
C3953 C3954 1.349 . S
C3953 C3955 1.327 . S
C3953 H3976 0.950 . S
C3954 C3953 1.349 . S
C3954 C3966 1.349 . S
C3955 C3953 1.327 . S
C3955 C3971 1.429 . S
C3955 H3977 0.950 . S
C3956 H3952 0.949 . S
C3956 C3964 1.574 . S
C3956 C3972 1.368 . S
H3957 C3965 0.950 . S
H3958 C3963 0.950 . S
H3959 C3964 0.949 . S
H3960 C3966 0.950 . S
H3961 C3967 0.950 . S
H3962 C3968 0.949 . S
C3963 H3958 0.950 . S
C3963 C3965 1.327 . S
C3963 C3969 1.429 . S
C3964 C3956 1.574 . S
C3964 H3959 0.949 . S
C3964 C3970 1.368 . S
C3965 C3949 1.349 . S
C3965 H3957 0.950 . S
C3965 C3963 1.327 . S
C3966 C3954 1.349 . S
C3966 H3960 0.950 . S
C3966 C3967 1.327 . S
C3967 H3961 0.950 . S
C3967 C3966 1.327 . S
C3967 C3971 1.429 . S
C3968 C3951 1.574 . S
C3968 H3962 0.949 . S
C3968 C3972 1.368 . S
C3969 C3950 1.429 . S
C3969 C3963 1.429 . S
C3969 C3970 1.523 . S
C3970 C3951 1.368 . S
C3970 C3964 1.368 . S
C3970 C3969 1.523 . S
C3971 C3955 1.429 . S
C3971 C3967 1.429 . S
C3971 C3972 1.523 . S
C3972 C3956 1.368 . S
C3972 C3968 1.368 . S
C3972 C3971 1.523 . S
H3973 C3948 0.950 . S
H3974 C3950 0.950 . S
H3975 C3951 0.949 . S
H3976 C3953 0.950 . S
H3977 C3955 0.950 . S
C3978 C3979 1.349 . S
C3978 C3980 1.327 . S
C3978 H4003 0.950 . S
C3979 C3978 1.349 . S
C3979 C3995 1.349 . S
C3980 C3978 1.327 . S
C3980 C3999 1.429 . S
C3980 H4004 0.950 . S
C3981 C3998 1.574 . S
C3981 C4000 1.368 . S
C3981 H4005 0.949 . S
H3982 C3986 0.949 . S
C3983 C3984 1.349 . S
C3983 C3985 1.327 . S
C3983 H4006 0.950 . S
C3984 C3983 1.349 . S
C3984 C3996 1.349 . S
C3985 C3983 1.327 . S
C3985 C4001 1.429 . S
C3985 H4007 0.950 . S
C3986 H3982 0.949 . S
C3986 C3994 1.574 . S
C3986 C4002 1.368 . S
H3987 C3995 0.950 . S
H3988 C3993 0.950 . S
H3989 C3994 0.949 . S
H3990 C3996 0.950 . S
H3991 C3997 0.950 . S
H3992 C3998 0.949 . S
C3993 H3988 0.950 . S
C3993 C3995 1.327 . S
C3993 C3999 1.429 . S
C3994 C3986 1.574 . S
C3994 H3989 0.949 . S
C3994 C4000 1.368 . S
C3995 C3979 1.349 . S
C3995 H3987 0.950 . S
C3995 C3993 1.327 . S
C3996 C3984 1.349 . S
C3996 H3990 0.950 . S
C3996 C3997 1.327 . S
C3997 H3991 0.950 . S
C3997 C3996 1.327 . S
C3997 C4001 1.429 . S
C3998 C3981 1.574 . S
C3998 H3992 0.949 . S
C3998 C4002 1.368 . S
C3999 C3980 1.429 . S
C3999 C3993 1.429 . S
C3999 C4000 1.523 . S
C4000 C3981 1.368 . S
C4000 C3994 1.368 . S
C4000 C3999 1.523 . S
C4001 C3985 1.429 . S
C4001 C3997 1.429 . S
C4001 C4002 1.523 . S
C4002 C3986 1.368 . S
C4002 C3998 1.368 . S
C4002 C4001 1.523 . S
H4003 C3978 0.950 . S
H4004 C3980 0.950 . S
H4005 C3981 0.949 . S
H4006 C3983 0.950 . S
H4007 C3985 0.950 . S
C4008 C4009 1.349 . S
C4008 C4010 1.327 . S
C4008 H4033 0.950 . S
C4009 C4008 1.349 . S
C4009 C4025 1.349 . S
C4010 C4008 1.327 . S
C4010 C4029 1.429 . S
C4010 H4034 0.950 . S
C4011 C4028 1.574 1_455 S
C4011 C4030 1.368 . S
C4011 H4035 0.949 . S
H4012 C4016 0.949 . S
C4013 C4014 1.349 . S
C4013 C4015 1.327 . S
C4013 H4036 0.950 . S
C4014 C4013 1.349 . S
C4014 C4026 1.349 . S
C4015 C4013 1.327 . S
C4015 C4031 1.429 . S
C4015 H4037 0.950 . S
C4016 H4012 0.949 . S
C4016 C4024 1.574 1_655 S
C4016 C4032 1.368 . S
H4017 C4025 0.950 . S
H4018 C4023 0.950 . S
H4019 C4024 0.949 . S
H4020 C4026 0.950 . S
H4021 C4027 0.950 . S
H4022 C4028 0.949 . S
C4023 H4018 0.950 . S
C4023 C4025 1.327 . S
C4023 C4029 1.429 . S
C4024 C4016 1.574 1_455 S
C4024 H4019 0.949 . S
C4024 C4030 1.368 . S
C4025 C4009 1.349 . S
C4025 H4017 0.950 . S
C4025 C4023 1.327 . S
C4026 C4014 1.349 . S
C4026 H4020 0.950 . S
C4026 C4027 1.327 . S
C4027 H4021 0.950 . S
C4027 C4026 1.327 . S
C4027 C4031 1.429 . S
C4028 C4011 1.574 1_655 S
C4028 H4022 0.949 . S
C4028 C4032 1.368 . S
C4029 C4010 1.429 . S
C4029 C4023 1.429 . S
C4029 C4030 1.523 . S
C4030 C4011 1.368 . S
C4030 C4024 1.368 . S
C4030 C4029 1.523 . S
C4031 C4015 1.429 . S
C4031 C4027 1.429 . S
C4031 C4032 1.523 . S
C4032 C4016 1.368 . S
C4032 C4028 1.368 . S
C4032 C4031 1.523 . S
H4033 C4008 0.950 . S
H4034 C4010 0.950 . S
H4035 C4011 0.949 . S
H4036 C4013 0.950 . S
H4037 C4015 0.950 . S
C4038 C4039 1.349 . S
C4038 C4040 1.327 . S
C4038 H4063 0.950 . S
C4039 C4038 1.349 . S
C4039 C4055 1.349 . S
C4040 C4038 1.327 . S
C4040 C4059 1.429 . S
C4040 H4064 0.950 . S
C4041 C4058 1.574 . S
C4041 C4060 1.368 . S
C4041 H4065 0.949 . S
H4042 C4046 0.949 . S
C4043 C4044 1.349 . S
C4043 C4045 1.327 . S
C4043 H4066 0.950 . S
C4044 C4043 1.349 . S
C4044 C4056 1.349 . S
C4045 C4043 1.327 . S
C4045 C4061 1.429 . S
C4045 H4067 0.950 . S
C4046 H4042 0.949 . S
C4046 C4054 1.574 . S
C4046 C4062 1.368 . S
H4047 C4055 0.950 . S
H4048 C4053 0.950 . S
H4049 C4054 0.949 . S
H4050 C4056 0.950 . S
H4051 C4057 0.950 . S
H4052 C4058 0.949 . S
C4053 H4048 0.950 . S
C4053 C4055 1.327 . S
C4053 C4059 1.429 . S
C4054 C4046 1.574 . S
C4054 H4049 0.949 . S
C4054 C4060 1.368 . S
C4055 C4039 1.349 . S
C4055 H4047 0.950 . S
C4055 C4053 1.327 . S
C4056 C4044 1.349 . S
C4056 H4050 0.950 . S
C4056 C4057 1.327 . S
C4057 H4051 0.950 . S
C4057 C4056 1.327 . S
C4057 C4061 1.429 . S
C4058 C4041 1.574 . S
C4058 H4052 0.949 . S
C4058 C4062 1.368 . S
C4059 C4040 1.429 . S
C4059 C4053 1.429 . S
C4059 C4060 1.523 . S
C4060 C4041 1.368 . S
C4060 C4054 1.368 . S
C4060 C4059 1.523 . S
C4061 C4045 1.429 . S
C4061 C4057 1.429 . S
C4061 C4062 1.523 . S
C4062 C4046 1.368 . S
C4062 C4058 1.368 . S
C4062 C4061 1.523 . S
H4063 C4038 0.950 . S
H4064 C4040 0.950 . S
H4065 C4041 0.949 . S
H4066 C4043 0.950 . S
H4067 C4045 0.950 . S
C4068 C4069 1.349 . S
C4068 C4070 1.327 . S
C4068 H4093 0.950 . S
C4069 C4068 1.349 . S
C4069 C4085 1.349 . S
C4070 C4068 1.327 . S
C4070 C4089 1.429 . S
C4070 H4094 0.950 . S
C4071 C4088 1.574 . S
C4071 C4090 1.368 . S
C4071 H4095 0.949 . S
H4072 C4076 0.949 . S
C4073 C4074 1.349 . S
C4073 C4075 1.327 . S
C4073 H4096 0.950 . S
C4074 C4073 1.349 . S
C4074 C4086 1.349 . S
C4075 C4073 1.327 . S
C4075 C4091 1.429 . S
C4075 H4097 0.950 . S
C4076 H4072 0.949 . S
C4076 C4084 1.574 . S
C4076 C4092 1.368 . S
H4077 C4085 0.950 . S
H4078 C4083 0.950 . S
H4079 C4084 0.949 . S
H4080 C4086 0.950 . S
H4081 C4087 0.950 . S
H4082 C4088 0.949 . S
C4083 H4078 0.950 . S
C4083 C4085 1.327 . S
C4083 C4089 1.429 . S
C4084 C4076 1.574 . S
C4084 H4079 0.949 . S
C4084 C4090 1.368 . S
C4085 C4069 1.349 . S
C4085 H4077 0.950 . S
C4085 C4083 1.327 . S
C4086 C4074 1.349 . S
C4086 H4080 0.950 . S
C4086 C4087 1.327 . S
C4087 H4081 0.950 . S
C4087 C4086 1.327 . S
C4087 C4091 1.429 . S
C4088 C4071 1.574 . S
C4088 H4082 0.949 . S
C4088 C4092 1.368 . S
C4089 C4070 1.429 . S
C4089 C4083 1.429 . S
C4089 C4090 1.523 . S
C4090 C4071 1.368 . S
C4090 C4084 1.368 . S
C4090 C4089 1.523 . S
C4091 C4075 1.429 . S
C4091 C4087 1.429 . S
C4091 C4092 1.523 . S
C4092 C4076 1.368 . S
C4092 C4088 1.368 . S
C4092 C4091 1.523 . S
H4093 C4068 0.950 . S
H4094 C4070 0.950 . S
H4095 C4071 0.949 . S
H4096 C4073 0.950 . S
H4097 C4075 0.950 . S
C4098 C4099 1.349 . S
C4098 C4100 1.332 . S
C4098 H4123 0.950 1_655 S
C4099 C4098 1.349 . S
C4099 C4115 1.349 . S
C4100 C4098 1.332 . S
C4100 C4119 1.437 . S
C4100 H4124 0.937 1_655 S
C4101 C4118 1.574 . S
C4101 C4120 1.368 . S
C4101 H4125 0.949 . S
H4102 C4106 0.949 . S
C4103 C4104 1.349 . S
C4103 C4105 1.332 . S
C4103 H4126 0.950 1_455 S
C4104 C4103 1.349 . S
C4104 C4116 1.349 . S
C4105 C4103 1.332 . S
C4105 C4121 1.436 . S
C4105 H4127 0.937 1_455 S
C4106 H4102 0.949 . S
C4106 C4114 1.574 . S
C4106 C4122 1.368 . S
H4107 C4115 0.950 . S
H4108 C4113 0.950 . S
H4109 C4114 0.949 . S
H4110 C4116 0.950 . S
H4111 C4117 0.950 . S
H4112 C4118 0.949 . S
C4113 H4108 0.950 . S
C4113 C4115 1.327 . S
C4113 C4119 1.429 . S
C4114 C4106 1.574 . S
C4114 H4109 0.949 . S
C4114 C4120 1.368 1_455 S
C4115 C4099 1.349 . S
C4115 H4107 0.950 . S
C4115 C4113 1.327 . S
C4116 C4104 1.349 . S
C4116 H4110 0.950 . S
C4116 C4117 1.327 . S
C4117 H4111 0.950 . S
C4117 C4116 1.327 . S
C4117 C4121 1.429 . S
C4118 C4101 1.574 . S
C4118 H4112 0.949 . S
C4118 C4122 1.368 1_655 S
C4119 C4100 1.437 . S
C4119 C4113 1.429 . S
C4119 C4120 1.523 . S
C4120 C4101 1.368 . S
C4120 C4114 1.368 1_655 S
C4120 C4119 1.523 . S
C4121 C4105 1.436 . S
C4121 C4117 1.429 . S
C4121 C4122 1.523 . S
C4122 C4106 1.368 . S
C4122 C4118 1.368 1_455 S
C4122 C4121 1.523 . S
H4123 C4098 0.950 1_455 S
H4124 C4100 0.937 1_455 S
H4125 C4101 0.949 . S
H4126 C4103 0.950 1_655 S
H4127 C4105 0.937 1_655 S
C4128 C4129 1.349 . S
C4128 C4130 1.327 . S
C4128 H4153 0.950 . S
C4129 C4128 1.349 . S
C4129 C4145 1.349 . S
C4130 C4128 1.327 . S
C4130 C4149 1.429 . S
C4130 H4154 0.950 . S
C4131 C4148 1.574 . S
C4131 C4150 1.368 . S
C4131 H4155 0.949 . S
H4132 C4136 0.949 . S
C4133 C4134 1.349 . S
C4133 C4135 1.327 . S
C4133 H4156 0.950 . S
C4134 C4133 1.349 . S
C4134 C4146 1.349 . S
C4135 C4133 1.327 . S
C4135 C4151 1.429 . S
C4135 H4157 0.950 . S
C4136 H4132 0.949 . S
C4136 C4144 1.574 . S
C4136 C4152 1.368 . S
H4137 C4145 0.950 . S
H4138 C4143 0.950 . S
H4139 C4144 0.949 . S
H4140 C4146 0.950 . S
H4141 C4147 0.950 . S
H4142 C4148 0.949 . S
C4143 H4138 0.950 . S
C4143 C4145 1.327 . S
C4143 C4149 1.429 . S
C4144 C4136 1.574 . S
C4144 H4139 0.949 . S
C4144 C4150 1.368 . S
C4145 C4129 1.349 . S
C4145 H4137 0.950 . S
C4145 C4143 1.327 . S
C4146 C4134 1.349 . S
C4146 H4140 0.950 . S
C4146 C4147 1.327 . S
C4147 H4141 0.950 . S
C4147 C4146 1.327 . S
C4147 C4151 1.429 . S
C4148 C4131 1.574 . S
C4148 H4142 0.949 . S
C4148 C4152 1.368 . S
C4149 C4130 1.429 . S
C4149 C4143 1.429 . S
C4149 C4150 1.523 . S
C4150 C4131 1.368 . S
C4150 C4144 1.368 . S
C4150 C4149 1.523 . S
C4151 C4135 1.429 . S
C4151 C4147 1.429 . S
C4151 C4152 1.523 . S
C4152 C4136 1.368 . S
C4152 C4148 1.368 . S
C4152 C4151 1.523 . S
H4153 C4128 0.950 . S
H4154 C4130 0.950 . S
H4155 C4131 0.949 . S
H4156 C4133 0.950 . S
H4157 C4135 0.950 . S
C4158 C4159 1.349 . S
C4158 C4160 1.327 . S
C4158 H4183 0.950 . S
C4159 C4158 1.349 . S
C4159 C4175 1.349 . S
C4160 C4158 1.327 . S
C4160 C4179 1.429 . S
C4160 H4184 0.950 . S
C4161 C4178 1.574 1_545 S
C4161 C4180 1.368 1_455 S
C4161 H4185 0.949 . S
H4162 C4166 0.949 . S
C4163 C4164 1.349 . S
C4163 C4165 1.327 . S
C4163 H4186 0.950 . S
C4164 C4163 1.349 . S
C4164 C4176 1.349 . S
C4165 C4163 1.327 . S
C4165 C4181 1.429 . S
C4165 H4187 0.950 . S
C4166 H4162 0.949 . S
C4166 C4174 1.574 1_565 S
C4166 C4182 1.368 1_655 S
H4167 C4175 0.950 1_455 S
H4168 C4173 0.940 1_455 S
H4169 C4174 0.949 . S
H4170 C4176 0.950 1_655 S
H4171 C4177 0.940 1_655 S
H4172 C4178 0.949 . S
C4173 H4168 0.940 1_655 S
C4173 C4175 1.330 . S
C4173 C4179 1.435 . S
C4174 C4166 1.574 1_545 S
C4174 H4169 0.949 . S
C4174 C4180 1.368 . S
C4175 C4159 1.349 . S
C4175 H4167 0.950 1_655 S
C4175 C4173 1.330 . S
C4176 C4164 1.349 . S
C4176 H4170 0.950 1_455 S
C4176 C4177 1.330 . S
C4177 H4171 0.940 1_455 S
C4177 C4176 1.330 . S
C4177 C4181 1.435 . S
C4178 C4161 1.574 1_565 S
C4178 H4172 0.949 . S
C4178 C4182 1.368 . S
C4179 C4160 1.429 . S
C4179 C4173 1.435 . S
C4179 C4180 1.523 . S
C4180 C4161 1.368 1_655 S
C4180 C4174 1.368 . S
C4180 C4179 1.523 . S
C4181 C4165 1.429 . S
C4181 C4177 1.435 . S
C4181 C4182 1.523 . S
C4182 C4166 1.368 1_455 S
C4182 C4178 1.368 . S
C4182 C4181 1.523 . S
H4183 C4158 0.950 . S
H4184 C4160 0.950 . S
H4185 C4161 0.949 . S
H4186 C4163 0.950 . S
H4187 C4165 0.950 . S
C4188 C4189 1.349 . S
C4188 C4190 1.327 . S
C4188 H4213 0.950 . S
C4189 C4188 1.349 . S
C4189 C4205 1.349 . S
C4190 C4188 1.327 . S
C4190 C4209 1.429 . S
C4190 H4214 0.950 . S
C4191 C4208 1.574 . S
C4191 C4210 1.368 . S
C4191 H4215 0.949 . S
H4192 C4196 0.949 . S
C4193 C4194 1.349 . S
C4193 C4195 1.327 . S
C4193 H4216 0.950 . S
C4194 C4193 1.349 . S
C4194 C4206 1.349 . S
C4195 C4193 1.327 . S
C4195 C4211 1.429 . S
C4195 H4217 0.950 . S
C4196 H4192 0.949 . S
C4196 C4204 1.574 . S
C4196 C4212 1.368 . S
H4197 C4205 0.950 . S
H4198 C4203 0.950 . S
H4199 C4204 0.949 . S
H4200 C4206 0.950 . S
H4201 C4207 0.950 . S
H4202 C4208 0.949 . S
C4203 H4198 0.950 . S
C4203 C4205 1.327 . S
C4203 C4209 1.429 . S
C4204 C4196 1.574 . S
C4204 H4199 0.949 . S
C4204 C4210 1.368 . S
C4205 C4189 1.349 . S
C4205 H4197 0.950 . S
C4205 C4203 1.327 . S
C4206 C4194 1.349 . S
C4206 H4200 0.950 . S
C4206 C4207 1.327 . S
C4207 H4201 0.950 . S
C4207 C4206 1.327 . S
C4207 C4211 1.429 . S
C4208 C4191 1.574 . S
C4208 H4202 0.949 . S
C4208 C4212 1.368 . S
C4209 C4190 1.429 . S
C4209 C4203 1.429 . S
C4209 C4210 1.523 . S
C4210 C4191 1.368 . S
C4210 C4204 1.368 . S
C4210 C4209 1.523 . S
C4211 C4195 1.429 . S
C4211 C4207 1.429 . S
C4211 C4212 1.523 . S
C4212 C4196 1.368 . S
C4212 C4208 1.368 . S
C4212 C4211 1.523 . S
H4213 C4188 0.950 . S
H4214 C4190 0.950 . S
H4215 C4191 0.949 . S
H4216 C4193 0.950 . S
H4217 C4195 0.950 . S
C4218 C4219 1.349 . S
C4218 C4220 1.335 . S
C4218 H4243 0.950 1_545 S
C4219 C4218 1.349 . S
C4219 C4235 1.349 . S
C4220 C4218 1.335 . S
C4220 C4239 1.443 . S
C4220 H4244 0.927 1_545 S
C4221 C4238 1.574 1_554 S
C4221 C4240 1.368 . S
C4221 H4245 0.949 . S
H4222 C4226 0.949 . S
C4223 C4224 1.349 . S
C4223 C4225 1.335 . S
C4223 H4246 0.950 1_565 S
C4224 C4223 1.349 . S
C4224 C4236 1.349 . S
C4225 C4223 1.335 . S
C4225 C4241 1.443 . S
C4225 H4247 0.927 1_565 S
C4226 H4222 0.949 . S
C4226 C4234 1.574 1_556 S
C4226 C4242 1.368 . S
H4227 C4235 0.950 . S
H4228 C4233 0.950 . S
H4229 C4234 0.949 . S
H4230 C4236 0.950 . S
H4231 C4237 0.950 . S
H4232 C4238 0.949 . S
C4233 H4228 0.950 . S
C4233 C4235 1.327 . S
C4233 C4239 1.429 . S
C4234 C4226 1.574 1_554 S
C4234 H4229 0.949 . S
C4234 C4240 1.368 1_565 S
C4235 C4219 1.349 . S
C4235 H4227 0.950 . S
C4235 C4233 1.327 . S
C4236 C4224 1.349 . S
C4236 H4230 0.950 . S
C4236 C4237 1.327 . S
C4237 H4231 0.950 . S
C4237 C4236 1.327 . S
C4237 C4241 1.429 . S
C4238 C4221 1.574 1_556 S
C4238 H4232 0.949 . S
C4238 C4242 1.368 1_545 S
C4239 C4220 1.443 . S
C4239 C4233 1.429 . S
C4239 C4240 1.523 . S
C4240 C4221 1.368 . S
C4240 C4234 1.368 1_545 S
C4240 C4239 1.523 . S
C4241 C4225 1.443 . S
C4241 C4237 1.429 . S
C4241 C4242 1.523 . S
C4242 C4226 1.368 . S
C4242 C4238 1.368 1_565 S
C4242 C4241 1.523 . S
H4243 C4218 0.950 1_565 S
H4244 C4220 0.927 1_565 S
H4245 C4221 0.949 . S
H4246 C4223 0.950 1_545 S
H4247 C4225 0.927 1_545 S
C4248 C4249 1.349 . S
C4248 C4250 1.327 . S
C4248 H4273 0.950 . S
C4249 C4248 1.349 . S
C4249 C4265 1.349 . S
C4250 C4248 1.327 . S
C4250 C4269 1.429 . S
C4250 H4274 0.950 . S
C4251 C4268 1.574 . S
C4251 C4270 1.368 . S
C4251 H4275 0.949 . S
H4252 C4256 0.949 . S
C4253 C4254 1.349 . S
C4253 C4255 1.327 . S
C4253 H4276 0.950 . S
C4254 C4253 1.349 . S
C4254 C4266 1.349 . S
C4255 C4253 1.327 . S
C4255 C4271 1.429 . S
C4255 H4277 0.950 . S
C4256 H4252 0.949 . S
C4256 C4264 1.574 . S
C4256 C4272 1.368 . S
H4257 C4265 0.950 . S
H4258 C4263 0.950 . S
H4259 C4264 0.949 . S
H4260 C4266 0.950 . S
H4261 C4267 0.950 . S
H4262 C4268 0.949 . S
C4263 H4258 0.950 . S
C4263 C4265 1.327 . S
C4263 C4269 1.429 . S
C4264 C4256 1.574 . S
C4264 H4259 0.949 . S
C4264 C4270 1.368 . S
C4265 C4249 1.349 . S
C4265 H4257 0.950 . S
C4265 C4263 1.327 . S
C4266 C4254 1.349 . S
C4266 H4260 0.950 . S
C4266 C4267 1.327 . S
C4267 H4261 0.950 . S
C4267 C4266 1.327 . S
C4267 C4271 1.429 . S
C4268 C4251 1.574 . S
C4268 H4262 0.949 . S
C4268 C4272 1.368 . S
C4269 C4250 1.429 . S
C4269 C4263 1.429 . S
C4269 C4270 1.523 . S
C4270 C4251 1.368 . S
C4270 C4264 1.368 . S
C4270 C4269 1.523 . S
C4271 C4255 1.429 . S
C4271 C4267 1.429 . S
C4271 C4272 1.523 . S
C4272 C4256 1.368 . S
C4272 C4268 1.368 . S
C4272 C4271 1.523 . S
H4273 C4248 0.950 . S
H4274 C4250 0.950 . S
H4275 C4251 0.949 . S
H4276 C4253 0.950 . S
H4277 C4255 0.950 . S
C4278 C4279 1.349 . S
C4278 C4280 1.327 . S
C4278 H4303 0.950 . S
C4279 C4278 1.349 . S
C4279 C4295 1.349 . S
C4280 C4278 1.327 . S
C4280 C4299 1.429 . S
C4280 H4304 0.950 1_545 S
C4281 C4298 1.574 . S
C4281 C4300 1.368 . S
C4281 H4305 0.949 . S
H4282 C4286 0.949 . S
C4283 C4284 1.349 . S
C4283 C4285 1.327 . S
C4283 H4306 0.950 . S
C4284 C4283 1.349 . S
C4284 C4296 1.349 . S
C4285 C4283 1.327 . S
C4285 C4301 1.429 . S
C4285 H4307 0.950 1_565 S
C4286 H4282 0.949 . S
C4286 C4294 1.574 . S
C4286 C4302 1.368 . S
H4287 C4295 0.950 . S
H4288 C4293 0.950 . S
H4289 C4294 0.949 . S
H4290 C4296 0.950 . S
H4291 C4297 0.950 . S
H4292 C4298 0.949 . S
C4293 H4288 0.950 . S
C4293 C4295 1.327 . S
C4293 C4299 1.429 . S
C4294 C4286 1.574 . S
C4294 H4289 0.949 . S
C4294 C4300 1.368 1_565 S
C4295 C4279 1.349 . S
C4295 H4287 0.950 . S
C4295 C4293 1.327 . S
C4296 C4284 1.349 . S
C4296 H4290 0.950 . S
C4296 C4297 1.327 . S
C4297 H4291 0.950 . S
C4297 C4296 1.327 . S
C4297 C4301 1.429 . S
C4298 C4281 1.574 . S
C4298 H4292 0.949 . S
C4298 C4302 1.368 1_545 S
C4299 C4280 1.429 . S
C4299 C4293 1.429 . S
C4299 C4300 1.523 . S
C4300 C4281 1.368 . S
C4300 C4294 1.368 1_545 S
C4300 C4299 1.523 . S
C4301 C4285 1.429 . S
C4301 C4297 1.429 . S
C4301 C4302 1.523 . S
C4302 C4286 1.368 . S
C4302 C4298 1.368 1_565 S
C4302 C4301 1.523 . S
H4303 C4278 0.950 . S
H4304 C4280 0.950 1_565 S
H4305 C4281 0.949 . S
H4306 C4283 0.950 . S
H4307 C4285 0.950 1_545 S
C4308 C4309 1.349 . S
C4308 C4310 1.327 . S
C4308 H4333 0.950 . S
C4309 C4308 1.349 . S
C4309 C4325 1.349 . S
C4310 C4308 1.327 . S
C4310 C4329 1.429 . S
C4310 H4334 0.950 . S
C4311 C4328 1.574 . S
C4311 C4330 1.368 . S
C4311 H4335 0.949 . S
H4312 C4316 0.949 . S
C4313 C4314 1.349 . S
C4313 C4315 1.327 . S
C4313 H4336 0.950 . S
C4314 C4313 1.349 . S
C4314 C4326 1.349 . S
C4315 C4313 1.327 . S
C4315 C4331 1.429 . S
C4315 H4337 0.950 . S
C4316 H4312 0.949 . S
C4316 C4324 1.574 . S
C4316 C4332 1.368 . S
H4317 C4325 0.950 . S
H4318 C4323 0.950 . S
H4319 C4324 0.949 . S
H4320 C4326 0.950 . S
H4321 C4327 0.950 . S
H4322 C4328 0.949 . S
C4323 H4318 0.950 . S
C4323 C4325 1.327 . S
C4323 C4329 1.429 . S
C4324 C4316 1.574 . S
C4324 H4319 0.949 . S
C4324 C4330 1.368 . S
C4325 C4309 1.349 . S
C4325 H4317 0.950 . S
C4325 C4323 1.327 . S
C4326 C4314 1.349 . S
C4326 H4320 0.950 . S
C4326 C4327 1.327 . S
C4327 H4321 0.950 . S
C4327 C4326 1.327 . S
C4327 C4331 1.429 . S
C4328 C4311 1.574 . S
C4328 H4322 0.949 . S
C4328 C4332 1.368 . S
C4329 C4310 1.429 . S
C4329 C4323 1.429 . S
C4329 C4330 1.523 . S
C4330 C4311 1.368 . S
C4330 C4324 1.368 . S
C4330 C4329 1.523 . S
C4331 C4315 1.429 . S
C4331 C4327 1.429 . S
C4331 C4332 1.523 . S
C4332 C4316 1.368 . S
C4332 C4328 1.368 . S
C4332 C4331 1.523 . S
H4333 C4308 0.950 . S
H4334 C4310 0.950 . S
H4335 C4311 0.949 . S
H4336 C4313 0.950 . S
H4337 C4315 0.950 . S
C4338 C4339 1.349 . S
C4338 C4340 1.327 . S
C4338 H4363 0.950 . S
C4339 C4338 1.349 . S
C4339 C4355 1.349 . S
C4340 C4338 1.327 . S
C4340 C4359 1.429 . S
C4340 H4364 0.950 . S
C4341 C4358 1.574 1_556 S
C4341 C4360 1.368 1_665 S
C4341 H4365 0.949 . S
H4342 C4346 0.949 . S
C4343 C4344 1.349 . S
C4343 C4345 1.327 . S
C4343 H4366 0.950 . S
C4344 C4343 1.349 . S
C4344 C4356 1.349 . S
C4345 C4343 1.327 . S
C4345 C4361 1.429 . S
C4345 H4367 0.950 . S
C4346 H4342 0.949 . S
C4346 C4354 1.574 1_554 S
C4346 C4362 1.368 1_445 S
H4347 C4355 0.950 . S
H4348 C4353 0.950 1_665 S
H4349 C4354 0.949 . S
H4350 C4356 0.950 . S
H4351 C4357 0.950 1_445 S
H4352 C4358 0.949 . S
C4353 H4348 0.950 1_445 S
C4353 C4355 1.327 . S
C4353 C4359 1.429 . S
C4354 C4346 1.574 1_556 S
C4354 H4349 0.949 . S
C4354 C4360 1.368 . S
C4355 C4339 1.349 . S
C4355 H4347 0.950 . S
C4355 C4353 1.327 . S
C4356 C4344 1.349 . S
C4356 H4350 0.950 . S
C4356 C4357 1.327 . S
C4357 H4351 0.950 1_665 S
C4357 C4356 1.327 . S
C4357 C4361 1.429 . S
C4358 C4341 1.574 1_554 S
C4358 H4352 0.949 . S
C4358 C4362 1.368 . S
C4359 C4340 1.429 . S
C4359 C4353 1.429 . S
C4359 C4360 1.523 . S
C4360 C4341 1.368 1_445 S
C4360 C4354 1.368 . S
C4360 C4359 1.523 . S
C4361 C4345 1.429 . S
C4361 C4357 1.429 . S
C4361 C4362 1.523 . S
C4362 C4346 1.368 1_665 S
C4362 C4358 1.368 . S
C4362 C4361 1.523 . S
H4363 C4338 0.950 . S
H4364 C4340 0.950 . S
H4365 C4341 0.949 . S
H4366 C4343 0.950 . S
H4367 C4345 0.950 . S
C4368 C4369 1.349 . S
C4368 C4370 1.327 . S
C4368 H4393 0.950 . S
C4369 C4368 1.349 . S
C4369 C4385 1.349 . S
C4370 C4368 1.327 . S
C4370 C4389 1.429 . S
C4370 H4394 0.950 . S
C4371 C4388 1.574 . S
C4371 C4390 1.368 . S
C4371 H4395 0.949 . S
H4372 C4376 0.949 . S
C4373 C4374 1.349 . S
C4373 C4375 1.327 . S
C4373 H4396 0.950 . S
C4374 C4373 1.349 . S
C4374 C4386 1.349 . S
C4375 C4373 1.327 . S
C4375 C4391 1.429 . S
C4375 H4397 0.950 . S
C4376 H4372 0.949 . S
C4376 C4384 1.574 . S
C4376 C4392 1.368 . S
H4377 C4385 0.950 . S
H4378 C4383 0.950 . S
H4379 C4384 0.949 . S
H4380 C4386 0.950 . S
H4381 C4387 0.950 . S
H4382 C4388 0.949 . S
C4383 H4378 0.950 . S
C4383 C4385 1.327 . S
C4383 C4389 1.429 . S
C4384 C4376 1.574 . S
C4384 H4379 0.949 . S
C4384 C4390 1.368 . S
C4385 C4369 1.349 . S
C4385 H4377 0.950 . S
C4385 C4383 1.327 . S
C4386 C4374 1.349 . S
C4386 H4380 0.950 . S
C4386 C4387 1.327 . S
C4387 H4381 0.950 . S
C4387 C4386 1.327 . S
C4387 C4391 1.429 . S
C4388 C4371 1.574 . S
C4388 H4382 0.949 . S
C4388 C4392 1.368 . S
C4389 C4370 1.429 . S
C4389 C4383 1.429 . S
C4389 C4390 1.523 . S
C4390 C4371 1.368 . S
C4390 C4384 1.368 . S
C4390 C4389 1.523 . S
C4391 C4375 1.429 . S
C4391 C4387 1.429 . S
C4391 C4392 1.523 . S
C4392 C4376 1.368 . S
C4392 C4388 1.368 . S
C4392 C4391 1.523 . S
H4393 C4368 0.950 . S
H4394 C4370 0.950 . S
H4395 C4371 0.949 . S
H4396 C4373 0.950 . S
H4397 C4375 0.950 . S
C4398 C4399 1.349 . S
C4398 C4400 1.327 . S
C4398 H4423 0.950 . S
C4399 C4398 1.349 . S
C4399 C4415 1.349 . S
C4400 C4398 1.327 . S
C4400 C4419 1.429 . S
C4400 H4424 0.950 . S
C4401 C4418 1.574 . S
C4401 C4420 1.368 . S
C4401 H4425 0.949 . S
H4402 C4406 0.949 . S
C4403 C4404 1.349 . S
C4403 C4405 1.327 . S
C4403 H4426 0.950 . S
C4404 C4403 1.349 . S
C4404 C4416 1.349 . S
C4405 C4403 1.327 . S
C4405 C4421 1.429 . S
C4405 H4427 0.950 . S
C4406 H4402 0.949 . S
C4406 C4414 1.574 . S
C4406 C4422 1.368 . S
H4407 C4415 0.950 . S
H4408 C4413 0.950 . S
H4409 C4414 0.949 . S
H4410 C4416 0.950 . S
H4411 C4417 0.950 . S
H4412 C4418 0.949 . S
C4413 H4408 0.950 . S
C4413 C4415 1.327 . S
C4413 C4419 1.429 . S
C4414 C4406 1.574 . S
C4414 H4409 0.949 . S
C4414 C4420 1.368 . S
C4415 C4399 1.349 . S
C4415 H4407 0.950 . S
C4415 C4413 1.327 . S
C4416 C4404 1.349 . S
C4416 H4410 0.950 . S
C4416 C4417 1.327 . S
C4417 H4411 0.950 . S
C4417 C4416 1.327 . S
C4417 C4421 1.429 . S
C4418 C4401 1.574 . S
C4418 H4412 0.949 . S
C4418 C4422 1.368 . S
C4419 C4400 1.429 . S
C4419 C4413 1.429 . S
C4419 C4420 1.523 . S
C4420 C4401 1.368 . S
C4420 C4414 1.368 . S
C4420 C4419 1.523 . S
C4421 C4405 1.429 . S
C4421 C4417 1.429 . S
C4421 C4422 1.523 . S
C4422 C4406 1.368 . S
C4422 C4418 1.368 . S
C4422 C4421 1.523 . S
H4423 C4398 0.950 . S
H4424 C4400 0.950 . S
H4425 C4401 0.949 . S
H4426 C4403 0.950 . S
H4427 C4405 0.950 . S
C4428 C4429 1.349 . S
C4428 C4430 1.327 . S
C4428 H4453 0.950 . S
C4429 C4428 1.349 . S
C4429 C4445 1.349 . S
C4430 C4428 1.327 . S
C4430 C4449 1.429 . S
C4430 H4454 0.950 . S
C4431 C4448 1.574 . S
C4431 C4450 1.368 . S
C4431 H4455 0.949 . S
H4432 C4436 0.949 . S
C4433 C4434 1.349 . S
C4433 C4435 1.327 . S
C4433 H4456 0.950 . S
C4434 C4433 1.349 . S
C4434 C4446 1.349 . S
C4435 C4433 1.327 . S
C4435 C4451 1.429 . S
C4435 H4457 0.950 . S
C4436 H4432 0.949 . S
C4436 C4444 1.574 . S
C4436 C4452 1.368 . S
H4437 C4445 0.950 . S
H4438 C4443 0.950 . S
H4439 C4444 0.949 . S
H4440 C4446 0.950 . S
H4441 C4447 0.950 . S
H4442 C4448 0.949 . S
C4443 H4438 0.950 . S
C4443 C4445 1.327 . S
C4443 C4449 1.429 . S
C4444 C4436 1.574 . S
C4444 H4439 0.949 . S
C4444 C4450 1.368 . S
C4445 C4429 1.349 . S
C4445 H4437 0.950 . S
C4445 C4443 1.327 . S
C4446 C4434 1.349 . S
C4446 H4440 0.950 . S
C4446 C4447 1.327 . S
C4447 H4441 0.950 . S
C4447 C4446 1.327 . S
C4447 C4451 1.429 . S
C4448 C4431 1.574 . S
C4448 H4442 0.949 . S
C4448 C4452 1.368 . S
C4449 C4430 1.429 . S
C4449 C4443 1.429 . S
C4449 C4450 1.523 . S
C4450 C4431 1.368 . S
C4450 C4444 1.368 . S
C4450 C4449 1.523 . S
C4451 C4435 1.429 . S
C4451 C4447 1.429 . S
C4451 C4452 1.523 . S
C4452 C4436 1.368 . S
C4452 C4448 1.368 . S
C4452 C4451 1.523 . S
H4453 C4428 0.950 . S
H4454 C4430 0.950 . S
H4455 C4431 0.949 . S
H4456 C4433 0.950 . S
H4457 C4435 0.950 . S
C4458 C4459 1.349 . S
C4458 C4460 1.327 . S
C4458 H4483 0.950 . S
C4459 C4458 1.349 . S
C4459 C4475 1.349 . S
C4460 C4458 1.327 . S
C4460 C4479 1.429 . S
C4460 H4484 0.950 . S
C4461 C4478 1.574 . S
C4461 C4480 1.368 . S
C4461 H4485 0.949 . S
H4462 C4466 0.949 . S
C4463 C4464 1.349 . S
C4463 C4465 1.327 . S
C4463 H4486 0.950 . S
C4464 C4463 1.349 . S
C4464 C4476 1.349 . S
C4465 C4463 1.327 . S
C4465 C4481 1.429 . S
C4465 H4487 0.950 . S
C4466 H4462 0.949 . S
C4466 C4474 1.574 . S
C4466 C4482 1.368 . S
H4467 C4475 0.950 . S
H4468 C4473 0.950 . S
H4469 C4474 0.949 . S
H4470 C4476 0.950 . S
H4471 C4477 0.950 . S
H4472 C4478 0.949 . S
C4473 H4468 0.950 . S
C4473 C4475 1.327 . S
C4473 C4479 1.429 . S
C4474 C4466 1.574 . S
C4474 H4469 0.949 . S
C4474 C4480 1.368 . S
C4475 C4459 1.349 . S
C4475 H4467 0.950 . S
C4475 C4473 1.327 . S
C4476 C4464 1.349 . S
C4476 H4470 0.950 . S
C4476 C4477 1.327 . S
C4477 H4471 0.950 . S
C4477 C4476 1.327 . S
C4477 C4481 1.429 . S
C4478 C4461 1.574 . S
C4478 H4472 0.949 . S
C4478 C4482 1.368 . S
C4479 C4460 1.429 . S
C4479 C4473 1.429 . S
C4479 C4480 1.523 . S
C4480 C4461 1.368 . S
C4480 C4474 1.368 . S
C4480 C4479 1.523 . S
C4481 C4465 1.429 . S
C4481 C4477 1.429 . S
C4481 C4482 1.523 . S
C4482 C4466 1.368 . S
C4482 C4478 1.368 . S
C4482 C4481 1.523 . S
H4483 C4458 0.950 . S
H4484 C4460 0.950 . S
H4485 C4461 0.949 . S
H4486 C4463 0.950 . S
H4487 C4465 0.950 . S
C4488 C4489 1.349 . S
C4488 C4490 1.327 . S
C4488 H4513 0.950 . S
C4489 C4488 1.349 . S
C4489 C4505 1.349 . S
C4490 C4488 1.327 . S
C4490 C4509 1.429 . S
C4490 H4514 0.950 . S
C4491 C4508 1.574 1_554 S
C4491 C4510 1.368 . S
C4491 H4515 0.949 . S
H4492 C4496 0.949 . S
C4493 C4494 1.349 . S
C4493 C4495 1.327 . S
C4493 H4516 0.950 . S
C4494 C4493 1.349 . S
C4494 C4506 1.349 . S
C4495 C4493 1.327 . S
C4495 C4511 1.429 . S
C4495 H4517 0.950 . S
C4496 H4492 0.949 . S
C4496 C4504 1.574 1_556 S
C4496 C4512 1.368 . S
H4497 C4505 0.950 . S
H4498 C4503 0.950 . S
H4499 C4504 0.949 . S
H4500 C4506 0.950 . S
H4501 C4507 0.950 . S
H4502 C4508 0.949 . S
C4503 H4498 0.950 . S
C4503 C4505 1.327 . S
C4503 C4509 1.429 . S
C4504 C4496 1.574 1_554 S
C4504 H4499 0.949 . S
C4504 C4510 1.368 . S
C4505 C4489 1.349 . S
C4505 H4497 0.950 . S
C4505 C4503 1.327 . S
C4506 C4494 1.349 . S
C4506 H4500 0.950 . S
C4506 C4507 1.327 . S
C4507 H4501 0.950 . S
C4507 C4506 1.327 . S
C4507 C4511 1.429 . S
C4508 C4491 1.574 1_556 S
C4508 H4502 0.949 . S
C4508 C4512 1.368 . S
C4509 C4490 1.429 . S
C4509 C4503 1.429 . S
C4509 C4510 1.523 . S
C4510 C4491 1.368 . S
C4510 C4504 1.368 . S
C4510 C4509 1.523 . S
C4511 C4495 1.429 . S
C4511 C4507 1.429 . S
C4511 C4512 1.523 . S
C4512 C4496 1.368 . S
C4512 C4508 1.368 . S
C4512 C4511 1.523 . S
H4513 C4488 0.950 . S
H4514 C4490 0.950 . S
H4515 C4491 0.949 . S
H4516 C4493 0.950 . S
H4517 C4495 0.950 . S
C4518 C4519 1.349 . S
C4518 C4520 1.330 . S
C4518 H4543 0.950 1_655 S
C4519 C4518 1.349 . S
C4519 C4535 1.349 . S
C4520 C4518 1.330 . S
C4520 C4539 1.433 . S
C4520 H4544 0.942 1_655 S
C4521 C4538 1.574 . S
C4521 C4540 1.368 . S
C4521 H4545 0.949 . S
H4522 C4526 0.949 . S
C4523 C4524 1.349 . S
C4523 C4525 1.330 . S
C4523 H4546 0.950 1_455 S
C4524 C4523 1.349 . S
C4524 C4536 1.349 . S
C4525 C4523 1.330 . S
C4525 C4541 1.433 . S
C4525 H4547 0.942 1_455 S
C4526 H4522 0.949 . S
C4526 C4534 1.574 . S
C4526 C4542 1.368 . S
H4527 C4535 0.950 . S
H4528 C4533 0.950 . S
H4529 C4534 0.949 . S
H4530 C4536 0.950 . S
H4531 C4537 0.950 . S
H4532 C4538 0.949 . S
C4533 H4528 0.950 . S
C4533 C4535 1.327 . S
C4533 C4539 1.429 . S
C4534 C4526 1.574 . S
C4534 H4529 0.949 . S
C4534 C4540 1.368 1_455 S
C4535 C4519 1.349 . S
C4535 H4527 0.950 . S
C4535 C4533 1.327 . S
C4536 C4524 1.349 . S
C4536 H4530 0.950 . S
C4536 C4537 1.327 . S
C4537 H4531 0.950 . S
C4537 C4536 1.327 . S
C4537 C4541 1.429 . S
C4538 C4521 1.574 . S
C4538 H4532 0.949 . S
C4538 C4542 1.368 1_655 S
C4539 C4520 1.433 . S
C4539 C4533 1.429 . S
C4539 C4540 1.523 . S
C4540 C4521 1.368 . S
C4540 C4534 1.368 1_655 S
C4540 C4539 1.523 . S
C4541 C4525 1.433 . S
C4541 C4537 1.429 . S
C4541 C4542 1.523 . S
C4542 C4526 1.368 . S
C4542 C4538 1.368 1_455 S
C4542 C4541 1.523 . S
H4543 C4518 0.950 1_455 S
H4544 C4520 0.942 1_455 S
H4545 C4521 0.949 . S
H4546 C4523 0.950 1_655 S
H4547 C4525 0.942 1_655 S
C4548 C4549 1.349 . S
C4548 C4550 1.327 . S
C4548 H4573 0.950 . S
C4549 C4548 1.349 . S
C4549 C4565 1.349 . S
C4550 C4548 1.327 . S
C4550 C4569 1.429 . S
C4550 H4574 0.950 . S
C4551 C4568 1.574 1_454 S
C4551 C4570 1.368 . S
C4551 H4575 0.949 . S
H4552 C4556 0.949 . S
C4553 C4554 1.349 . S
C4553 C4555 1.327 . S
C4553 H4576 0.950 . S
C4554 C4553 1.349 . S
C4554 C4566 1.349 . S
C4555 C4553 1.327 . S
C4555 C4571 1.429 . S
C4555 H4577 0.950 . S
C4556 H4552 0.949 . S
C4556 C4564 1.574 1_656 S
C4556 C4572 1.368 . S
H4557 C4565 0.950 . S
H4558 C4563 0.950 . S
H4559 C4564 0.949 . S
H4560 C4566 0.950 . S
H4561 C4567 0.950 . S
H4562 C4568 0.949 . S
C4563 H4558 0.950 . S
C4563 C4565 1.327 . S
C4563 C4569 1.429 . S
C4564 C4556 1.574 1_454 S
C4564 H4559 0.949 . S
C4564 C4570 1.368 . S
C4565 C4549 1.349 . S
C4565 H4557 0.950 . S
C4565 C4563 1.327 . S
C4566 C4554 1.349 . S
C4566 H4560 0.950 . S
C4566 C4567 1.327 . S
C4567 H4561 0.950 . S
C4567 C4566 1.327 . S
C4567 C4571 1.429 . S
C4568 C4551 1.574 1_656 S
C4568 H4562 0.949 . S
C4568 C4572 1.368 . S
C4569 C4550 1.429 . S
C4569 C4563 1.429 . S
C4569 C4570 1.523 . S
C4570 C4551 1.368 . S
C4570 C4564 1.368 . S
C4570 C4569 1.523 . S
C4571 C4555 1.429 . S
C4571 C4567 1.429 . S
C4571 C4572 1.523 . S
C4572 C4556 1.368 . S
C4572 C4568 1.368 . S
C4572 C4571 1.523 . S
H4573 C4548 0.950 . S
H4574 C4550 0.950 . S
H4575 C4551 0.949 . S
H4576 C4553 0.950 . S
H4577 C4555 0.950 . S
C4578 C4579 1.349 . S
C4578 C4580 1.327 . S
C4578 H4603 0.950 . S
C4579 C4578 1.349 . S
C4579 C4595 1.349 . S
C4580 C4578 1.327 . S
C4580 C4599 1.429 . S
C4580 H4604 0.950 . S
C4581 C4598 1.574 . S
C4581 C4600 1.368 . S
C4581 H4605 0.949 . S
H4582 C4586 0.949 . S
C4583 C4584 1.349 . S
C4583 C4585 1.327 . S
C4583 H4606 0.950 . S
C4584 C4583 1.349 . S
C4584 C4596 1.349 . S
C4585 C4583 1.327 . S
C4585 C4601 1.429 . S
C4585 H4607 0.950 . S
C4586 H4582 0.949 . S
C4586 C4594 1.574 . S
C4586 C4602 1.368 . S
H4587 C4595 0.950 . S
H4588 C4593 0.950 . S
H4589 C4594 0.949 . S
H4590 C4596 0.950 . S
H4591 C4597 0.950 . S
H4592 C4598 0.949 . S
C4593 H4588 0.950 . S
C4593 C4595 1.327 . S
C4593 C4599 1.429 . S
C4594 C4586 1.574 . S
C4594 H4589 0.949 . S
C4594 C4600 1.368 . S
C4595 C4579 1.349 . S
C4595 H4587 0.950 . S
C4595 C4593 1.327 . S
C4596 C4584 1.349 . S
C4596 H4590 0.950 . S
C4596 C4597 1.327 . S
C4597 H4591 0.950 . S
C4597 C4596 1.327 . S
C4597 C4601 1.429 . S
C4598 C4581 1.574 . S
C4598 H4592 0.949 . S
C4598 C4602 1.368 . S
C4599 C4580 1.429 . S
C4599 C4593 1.429 . S
C4599 C4600 1.523 . S
C4600 C4581 1.368 . S
C4600 C4594 1.368 . S
C4600 C4599 1.523 . S
C4601 C4585 1.429 . S
C4601 C4597 1.429 . S
C4601 C4602 1.523 . S
C4602 C4586 1.368 . S
C4602 C4598 1.368 . S
C4602 C4601 1.523 . S
H4603 C4578 0.950 . S
H4604 C4580 0.950 . S
H4605 C4581 0.949 . S
H4606 C4583 0.950 . S
H4607 C4585 0.950 . S
C4608 C4609 1.349 . S
C4608 C4610 1.327 . S
C4608 H4633 0.950 . S
C4609 C4608 1.349 . S
C4609 C4625 1.349 . S
C4610 C4608 1.327 . S
C4610 C4629 1.429 . S
C4610 H4634 0.950 . S
C4611 C4628 1.574 . S
C4611 C4630 1.368 . S
C4611 H4635 0.949 . S
H4612 C4616 0.949 . S
C4613 C4614 1.349 . S
C4613 C4615 1.327 . S
C4613 H4636 0.950 . S
C4614 C4613 1.349 . S
C4614 C4626 1.349 . S
C4615 C4613 1.327 . S
C4615 C4631 1.429 . S
C4615 H4637 0.950 . S
C4616 H4612 0.949 . S
C4616 C4624 1.574 . S
C4616 C4632 1.368 . S
H4617 C4625 0.950 . S
H4618 C4623 0.950 . S
H4619 C4624 0.949 . S
H4620 C4626 0.950 1_565 S
H4621 C4627 0.950 . S
H4622 C4628 0.949 . S
C4623 H4618 0.950 . S
C4623 C4625 1.327 . S
C4623 C4629 1.429 . S
C4624 C4616 1.574 . S
C4624 H4619 0.949 . S
C4624 C4630 1.368 . S
C4625 C4609 1.349 . S
C4625 H4617 0.950 . S
C4625 C4623 1.327 . S
C4626 C4614 1.349 . S
C4626 H4620 0.950 1_545 S
C4626 C4627 1.327 . S
C4627 H4621 0.950 . S
C4627 C4626 1.327 . S
C4627 C4631 1.429 . S
C4628 C4611 1.574 . S
C4628 H4622 0.949 . S
C4628 C4632 1.368 . S
C4629 C4610 1.429 . S
C4629 C4623 1.429 . S
C4629 C4630 1.523 . S
C4630 C4611 1.368 . S
C4630 C4624 1.368 . S
C4630 C4629 1.523 . S
C4631 C4615 1.429 . S
C4631 C4627 1.429 . S
C4631 C4632 1.523 . S
C4632 C4616 1.368 . S
C4632 C4628 1.368 . S
C4632 C4631 1.523 . S
H4633 C4608 0.950 . S
H4634 C4610 0.950 . S
H4635 C4611 0.949 . S
H4636 C4613 0.950 . S
H4637 C4615 0.950 . S
C4638 C4639 1.349 . S
C4638 C4640 1.327 . S
C4638 H4663 0.950 . S
C4639 C4638 1.349 . S
C4639 C4655 1.349 . S
C4640 C4638 1.327 . S
C4640 C4659 1.429 . S
C4640 H4664 0.950 . S
C4641 C4658 1.574 . S
C4641 C4660 1.368 . S
C4641 H4665 0.949 . S
H4642 C4646 0.949 . S
C4643 C4644 1.349 . S
C4643 C4645 1.327 . S
C4643 H4666 0.950 . S
C4644 C4643 1.349 . S
C4644 C4656 1.349 . S
C4645 C4643 1.327 . S
C4645 C4661 1.429 . S
C4645 H4667 0.950 . S
C4646 H4642 0.949 . S
C4646 C4654 1.574 . S
C4646 C4662 1.368 . S
H4647 C4655 0.950 . S
H4648 C4653 0.950 . S
H4649 C4654 0.949 . S
H4650 C4656 0.950 . S
H4651 C4657 0.950 . S
H4652 C4658 0.949 . S
C4653 H4648 0.950 . S
C4653 C4655 1.327 . S
C4653 C4659 1.429 . S
C4654 C4646 1.574 . S
C4654 H4649 0.949 . S
C4654 C4660 1.368 . S
C4655 C4639 1.349 . S
C4655 H4647 0.950 . S
C4655 C4653 1.327 . S
C4656 C4644 1.349 . S
C4656 H4650 0.950 . S
C4656 C4657 1.327 . S
C4657 H4651 0.950 . S
C4657 C4656 1.327 . S
C4657 C4661 1.429 . S
C4658 C4641 1.574 . S
C4658 H4652 0.949 . S
C4658 C4662 1.368 . S
C4659 C4640 1.429 . S
C4659 C4653 1.429 . S
C4659 C4660 1.523 . S
C4660 C4641 1.368 . S
C4660 C4654 1.368 . S
C4660 C4659 1.523 . S
C4661 C4645 1.429 . S
C4661 C4657 1.429 . S
C4661 C4662 1.523 . S
C4662 C4646 1.368 . S
C4662 C4658 1.368 . S
C4662 C4661 1.523 . S
H4663 C4638 0.950 . S
H4664 C4640 0.950 . S
H4665 C4641 0.949 . S
H4666 C4643 0.950 . S
H4667 C4645 0.950 . S
C4668 C4669 1.349 . S
C4668 C4670 1.327 . S
C4668 H4693 0.950 . S
C4669 C4668 1.349 . S
C4669 C4685 1.349 . S
C4670 C4668 1.327 . S
C4670 C4689 1.429 . S
C4670 H4694 0.950 . S
C4671 C4688 1.574 . S
C4671 C4690 1.368 . S
C4671 H4695 0.949 . S
H4672 C4676 0.949 . S
C4673 C4674 1.349 . S
C4673 C4675 1.327 . S
C4673 H4696 0.950 . S
C4674 C4673 1.349 . S
C4674 C4686 1.349 . S
C4675 C4673 1.327 . S
C4675 C4691 1.429 . S
C4675 H4697 0.950 . S
C4676 H4672 0.949 . S
C4676 C4684 1.574 . S
C4676 C4692 1.368 . S
H4677 C4685 0.950 . S
H4678 C4683 0.950 . S
H4679 C4684 0.949 . S
H4680 C4686 0.950 . S
H4681 C4687 0.950 . S
H4682 C4688 0.949 . S
C4683 H4678 0.950 . S
C4683 C4685 1.327 . S
C4683 C4689 1.429 . S
C4684 C4676 1.574 . S
C4684 H4679 0.949 . S
C4684 C4690 1.368 . S
C4685 C4669 1.349 . S
C4685 H4677 0.950 . S
C4685 C4683 1.327 . S
C4686 C4674 1.349 . S
C4686 H4680 0.950 . S
C4686 C4687 1.327 . S
C4687 H4681 0.950 . S
C4687 C4686 1.327 . S
C4687 C4691 1.429 . S
C4688 C4671 1.574 . S
C4688 H4682 0.949 . S
C4688 C4692 1.368 . S
C4689 C4670 1.429 . S
C4689 C4683 1.429 . S
C4689 C4690 1.523 . S
C4690 C4671 1.368 . S
C4690 C4684 1.368 . S
C4690 C4689 1.523 . S
C4691 C4675 1.429 . S
C4691 C4687 1.429 . S
C4691 C4692 1.523 . S
C4692 C4676 1.368 . S
C4692 C4688 1.368 . S
C4692 C4691 1.523 . S
H4693 C4668 0.950 . S
H4694 C4670 0.950 . S
H4695 C4671 0.949 . S
H4696 C4673 0.950 . S
H4697 C4675 0.950 . S
C4698 C4699 1.349 . S
C4698 C4700 1.327 . S
C4698 H4723 0.950 . S
C4699 C4698 1.349 . S
C4699 C4715 1.349 . S
C4700 C4698 1.327 . S
C4700 C4719 1.429 . S
C4700 H4724 0.950 . S
C4701 C4718 1.574 . S
C4701 C4720 1.368 . S
C4701 H4725 0.949 . S
H4702 C4706 0.949 . S
C4703 C4704 1.349 . S
C4703 C4705 1.327 . S
C4703 H4726 0.950 . S
C4704 C4703 1.349 . S
C4704 C4716 1.349 . S
C4705 C4703 1.327 . S
C4705 C4721 1.429 . S
C4705 H4727 0.950 . S
C4706 H4702 0.949 . S
C4706 C4714 1.574 . S
C4706 C4722 1.368 . S
H4707 C4715 0.950 . S
H4708 C4713 0.950 . S
H4709 C4714 0.949 . S
H4710 C4716 0.950 . S
H4711 C4717 0.950 . S
H4712 C4718 0.949 . S
C4713 H4708 0.950 . S
C4713 C4715 1.327 . S
C4713 C4719 1.429 . S
C4714 C4706 1.574 . S
C4714 H4709 0.949 . S
C4714 C4720 1.368 . S
C4715 C4699 1.349 . S
C4715 H4707 0.950 . S
C4715 C4713 1.327 . S
C4716 C4704 1.349 . S
C4716 H4710 0.950 . S
C4716 C4717 1.327 . S
C4717 H4711 0.950 . S
C4717 C4716 1.327 . S
C4717 C4721 1.429 . S
C4718 C4701 1.574 . S
C4718 H4712 0.949 . S
C4718 C4722 1.368 . S
C4719 C4700 1.429 . S
C4719 C4713 1.429 . S
C4719 C4720 1.523 . S
C4720 C4701 1.368 . S
C4720 C4714 1.368 . S
C4720 C4719 1.523 . S
C4721 C4705 1.429 . S
C4721 C4717 1.429 . S
C4721 C4722 1.523 . S
C4722 C4706 1.368 . S
C4722 C4718 1.368 . S
C4722 C4721 1.523 . S
H4723 C4698 0.950 . S
H4724 C4700 0.950 . S
H4725 C4701 0.949 . S
H4726 C4703 0.950 . S
H4727 C4705 0.950 . S
C4728 C4729 1.349 . S
C4728 C4730 1.327 . S
C4728 H4753 0.950 . S
C4729 C4728 1.349 . S
C4729 C4745 1.349 . S
C4730 C4728 1.327 . S
C4730 C4749 1.429 . S
C4730 H4754 0.950 . S
C4731 C4748 1.574 . S
C4731 C4750 1.368 . S
C4731 H4755 0.949 . S
H4732 C4736 0.949 . S
C4733 C4734 1.349 . S
C4733 C4735 1.327 . S
C4733 H4756 0.950 1_565 S
C4734 C4733 1.349 . S
C4734 C4746 1.349 . S
C4735 C4733 1.327 . S
C4735 C4751 1.429 . S
C4735 H4757 0.950 . S
C4736 H4732 0.949 . S
C4736 C4744 1.574 . S
C4736 C4752 1.368 . S
H4737 C4745 0.950 . S
H4738 C4743 0.950 . S
H4739 C4744 0.949 . S
H4740 C4746 0.950 . S
H4741 C4747 0.950 . S
H4742 C4748 0.949 . S
C4743 H4738 0.950 . S
C4743 C4745 1.327 . S
C4743 C4749 1.429 . S
C4744 C4736 1.574 . S
C4744 H4739 0.949 . S
C4744 C4750 1.368 . S
C4745 C4729 1.349 . S
C4745 H4737 0.950 . S
C4745 C4743 1.327 . S
C4746 C4734 1.349 . S
C4746 H4740 0.950 . S
C4746 C4747 1.327 . S
C4747 H4741 0.950 . S
C4747 C4746 1.327 . S
C4747 C4751 1.429 . S
C4748 C4731 1.574 . S
C4748 H4742 0.949 . S
C4748 C4752 1.368 . S
C4749 C4730 1.429 . S
C4749 C4743 1.429 . S
C4749 C4750 1.523 . S
C4750 C4731 1.368 . S
C4750 C4744 1.368 . S
C4750 C4749 1.523 . S
C4751 C4735 1.429 . S
C4751 C4747 1.429 . S
C4751 C4752 1.523 . S
C4752 C4736 1.368 . S
C4752 C4748 1.368 . S
C4752 C4751 1.523 . S
H4753 C4728 0.950 . S
H4754 C4730 0.950 . S
H4755 C4731 0.949 . S
H4756 C4733 0.950 1_545 S
H4757 C4735 0.950 . S
C4758 C4759 1.349 . S
C4758 C4760 1.327 . S
C4758 H4783 0.950 . S
C4759 C4758 1.349 . S
C4759 C4775 1.349 . S
C4760 C4758 1.327 . S
C4760 C4779 1.429 . S
C4760 H4784 0.950 . S
C4761 C4778 1.574 . S
C4761 C4780 1.368 . S
C4761 H4785 0.949 . S
H4762 C4766 0.949 . S
C4763 C4764 1.349 . S
C4763 C4765 1.327 . S
C4763 H4786 0.950 . S
C4764 C4763 1.349 . S
C4764 C4776 1.349 . S
C4765 C4763 1.327 . S
C4765 C4781 1.429 . S
C4765 H4787 0.950 . S
C4766 H4762 0.949 . S
C4766 C4774 1.574 . S
C4766 C4782 1.368 . S
H4767 C4775 0.950 . S
H4768 C4773 0.950 . S
H4769 C4774 0.949 . S
H4770 C4776 0.950 . S
H4771 C4777 0.950 . S
H4772 C4778 0.949 . S
C4773 H4768 0.950 . S
C4773 C4775 1.327 . S
C4773 C4779 1.429 . S
C4774 C4766 1.574 . S
C4774 H4769 0.949 . S
C4774 C4780 1.368 . S
C4775 C4759 1.349 . S
C4775 H4767 0.950 . S
C4775 C4773 1.327 . S
C4776 C4764 1.349 . S
C4776 H4770 0.950 . S
C4776 C4777 1.327 . S
C4777 H4771 0.950 . S
C4777 C4776 1.327 . S
C4777 C4781 1.429 . S
C4778 C4761 1.574 . S
C4778 H4772 0.949 . S
C4778 C4782 1.368 . S
C4779 C4760 1.429 . S
C4779 C4773 1.429 . S
C4779 C4780 1.523 . S
C4780 C4761 1.368 . S
C4780 C4774 1.368 . S
C4780 C4779 1.523 . S
C4781 C4765 1.429 . S
C4781 C4777 1.429 . S
C4781 C4782 1.523 . S
C4782 C4766 1.368 . S
C4782 C4778 1.368 . S
C4782 C4781 1.523 . S
H4783 C4758 0.950 . S
H4784 C4760 0.950 . S
H4785 C4761 0.949 . S
H4786 C4763 0.950 . S
H4787 C4765 0.950 . S
C4788 C4789 1.349 . S
C4788 C4790 1.327 . S
C4788 H4813 0.950 . S
C4789 C4788 1.349 . S
C4789 C4805 1.349 . S
C4790 C4788 1.327 . S
C4790 C4809 1.429 . S
C4790 H4814 0.950 . S
C4791 C4808 1.574 . S
C4791 C4810 1.368 . S
C4791 H4815 0.949 . S
H4792 C4796 0.949 . S
C4793 C4794 1.349 . S
C4793 C4795 1.327 . S
C4793 H4816 0.950 . S
C4794 C4793 1.349 . S
C4794 C4806 1.349 . S
C4795 C4793 1.327 . S
C4795 C4811 1.429 . S
C4795 H4817 0.950 . S
C4796 H4792 0.949 . S
C4796 C4804 1.574 . S
C4796 C4812 1.368 . S
H4797 C4805 0.950 . S
H4798 C4803 0.950 . S
H4799 C4804 0.949 . S
H4800 C4806 0.950 . S
H4801 C4807 0.950 . S
H4802 C4808 0.949 . S
C4803 H4798 0.950 . S
C4803 C4805 1.327 . S
C4803 C4809 1.429 . S
C4804 C4796 1.574 . S
C4804 H4799 0.949 . S
C4804 C4810 1.368 . S
C4805 C4789 1.349 . S
C4805 H4797 0.950 . S
C4805 C4803 1.327 . S
C4806 C4794 1.349 . S
C4806 H4800 0.950 . S
C4806 C4807 1.327 . S
C4807 H4801 0.950 . S
C4807 C4806 1.327 . S
C4807 C4811 1.429 . S
C4808 C4791 1.574 . S
C4808 H4802 0.949 . S
C4808 C4812 1.368 . S
C4809 C4790 1.429 . S
C4809 C4803 1.429 . S
C4809 C4810 1.523 . S
C4810 C4791 1.368 . S
C4810 C4804 1.368 . S
C4810 C4809 1.523 . S
C4811 C4795 1.429 . S
C4811 C4807 1.429 . S
C4811 C4812 1.523 . S
C4812 C4796 1.368 . S
C4812 C4808 1.368 . S
C4812 C4811 1.523 . S
H4813 C4788 0.950 . S
H4814 C4790 0.950 . S
H4815 C4791 0.949 . S
H4816 C4793 0.950 . S
H4817 C4795 0.950 . S
C4818 C4819 1.349 . S
C4818 C4820 1.327 . S
C4818 H4843 0.950 . S
C4819 C4818 1.349 . S
C4819 C4835 1.349 . S
C4820 C4818 1.327 . S
C4820 C4839 1.429 . S
C4820 H4844 0.950 . S
C4821 C4838 1.574 . S
C4821 C4840 1.368 . S
C4821 H4845 0.949 . S
H4822 C4826 0.949 . S
C4823 C4824 1.349 . S
C4823 C4825 1.327 . S
C4823 H4846 0.950 . S
C4824 C4823 1.349 . S
C4824 C4836 1.349 . S
C4825 C4823 1.327 . S
C4825 C4841 1.429 . S
C4825 H4847 0.950 . S
C4826 H4822 0.949 . S
C4826 C4834 1.574 . S
C4826 C4842 1.368 . S
H4827 C4835 0.950 . S
H4828 C4833 0.950 . S
H4829 C4834 0.949 . S
H4830 C4836 0.950 . S
H4831 C4837 0.950 . S
H4832 C4838 0.949 . S
C4833 H4828 0.950 . S
C4833 C4835 1.327 . S
C4833 C4839 1.429 . S
C4834 C4826 1.574 . S
C4834 H4829 0.949 . S
C4834 C4840 1.368 . S
C4835 C4819 1.349 . S
C4835 H4827 0.950 . S
C4835 C4833 1.327 . S
C4836 C4824 1.349 . S
C4836 H4830 0.950 . S
C4836 C4837 1.327 . S
C4837 H4831 0.950 . S
C4837 C4836 1.327 . S
C4837 C4841 1.429 . S
C4838 C4821 1.574 . S
C4838 H4832 0.949 . S
C4838 C4842 1.368 . S
C4839 C4820 1.429 . S
C4839 C4833 1.429 . S
C4839 C4840 1.523 . S
C4840 C4821 1.368 . S
C4840 C4834 1.368 . S
C4840 C4839 1.523 . S
C4841 C4825 1.429 . S
C4841 C4837 1.429 . S
C4841 C4842 1.523 . S
C4842 C4826 1.368 . S
C4842 C4838 1.368 . S
C4842 C4841 1.523 . S
H4843 C4818 0.950 . S
H4844 C4820 0.950 . S
H4845 C4821 0.949 . S
H4846 C4823 0.950 . S
H4847 C4825 0.950 . S
C4848 C4849 1.349 . S
C4848 C4850 1.327 . S
C4848 H4873 0.950 . S
C4849 C4848 1.349 . S
C4849 C4865 1.349 . S
C4850 C4848 1.327 . S
C4850 C4869 1.429 . S
C4850 H4874 0.950 . S
C4851 C4868 1.574 . S
C4851 C4870 1.368 . S
C4851 H4875 0.949 . S
H4852 C4856 0.949 . S
C4853 C4854 1.349 . S
C4853 C4855 1.327 . S
C4853 H4876 0.950 . S
C4854 C4853 1.349 . S
C4854 C4866 1.349 . S
C4855 C4853 1.327 . S
C4855 C4871 1.429 . S
C4855 H4877 0.950 . S
C4856 H4852 0.949 . S
C4856 C4864 1.574 . S
C4856 C4872 1.368 . S
H4857 C4865 0.950 . S
H4858 C4863 0.950 . S
H4859 C4864 0.949 . S
H4860 C4866 0.950 . S
H4861 C4867 0.950 . S
H4862 C4868 0.949 . S
C4863 H4858 0.950 . S
C4863 C4865 1.327 . S
C4863 C4869 1.429 . S
C4864 C4856 1.574 . S
C4864 H4859 0.949 . S
C4864 C4870 1.368 . S
C4865 C4849 1.349 . S
C4865 H4857 0.950 . S
C4865 C4863 1.327 . S
C4866 C4854 1.349 . S
C4866 H4860 0.950 . S
C4866 C4867 1.327 . S
C4867 H4861 0.950 . S
C4867 C4866 1.327 . S
C4867 C4871 1.429 . S
C4868 C4851 1.574 . S
C4868 H4862 0.949 . S
C4868 C4872 1.368 . S
C4869 C4850 1.429 . S
C4869 C4863 1.429 . S
C4869 C4870 1.523 . S
C4870 C4851 1.368 . S
C4870 C4864 1.368 . S
C4870 C4869 1.523 . S
C4871 C4855 1.429 . S
C4871 C4867 1.429 . S
C4871 C4872 1.523 . S
C4872 C4856 1.368 . S
C4872 C4868 1.368 . S
C4872 C4871 1.523 . S
H4873 C4848 0.950 . S
H4874 C4850 0.950 . S
H4875 C4851 0.949 . S
H4876 C4853 0.950 . S
H4877 C4855 0.950 . S
C4878 C4879 1.349 . S
C4878 C4880 1.327 . S
C4878 H4903 0.950 . S
C4879 C4878 1.349 . S
C4879 C4895 1.349 . S
C4880 C4878 1.327 . S
C4880 C4899 1.429 . S
C4880 H4904 0.950 . S
C4881 C4898 1.574 . S
C4881 C4900 1.368 . S
C4881 H4905 0.949 . S
H4882 C4886 0.949 . S
C4883 C4884 1.349 . S
C4883 C4885 1.327 . S
C4883 H4906 0.950 . S
C4884 C4883 1.349 . S
C4884 C4896 1.349 . S
C4885 C4883 1.327 . S
C4885 C4901 1.429 . S
C4885 H4907 0.950 . S
C4886 H4882 0.949 . S
C4886 C4894 1.574 . S
C4886 C4902 1.368 . S
H4887 C4895 0.950 . S
H4888 C4893 0.950 . S
H4889 C4894 0.949 . S
H4890 C4896 0.950 . S
H4891 C4897 0.950 . S
H4892 C4898 0.949 . S
C4893 H4888 0.950 . S
C4893 C4895 1.327 . S
C4893 C4899 1.429 . S
C4894 C4886 1.574 . S
C4894 H4889 0.949 . S
C4894 C4900 1.368 . S
C4895 C4879 1.349 . S
C4895 H4887 0.950 . S
C4895 C4893 1.327 . S
C4896 C4884 1.349 . S
C4896 H4890 0.950 . S
C4896 C4897 1.327 . S
C4897 H4891 0.950 . S
C4897 C4896 1.327 . S
C4897 C4901 1.429 . S
C4898 C4881 1.574 . S
C4898 H4892 0.949 . S
C4898 C4902 1.368 . S
C4899 C4880 1.429 . S
C4899 C4893 1.429 . S
C4899 C4900 1.523 . S
C4900 C4881 1.368 . S
C4900 C4894 1.368 . S
C4900 C4899 1.523 . S
C4901 C4885 1.429 . S
C4901 C4897 1.429 . S
C4901 C4902 1.523 . S
C4902 C4886 1.368 . S
C4902 C4898 1.368 . S
C4902 C4901 1.523 . S
H4903 C4878 0.950 . S
H4904 C4880 0.950 . S
H4905 C4881 0.949 . S
H4906 C4883 0.950 . S
H4907 C4885 0.950 . S
C4908 C4909 1.349 . S
C4908 C4910 1.327 . S
C4908 H4933 0.950 . S
C4909 C4908 1.349 . S
C4909 C4925 1.349 . S
C4910 C4908 1.327 . S
C4910 C4929 1.429 . S
C4910 H4934 0.950 . S
C4911 C4928 1.574 . S
C4911 C4930 1.368 . S
C4911 H4935 0.949 . S
H4912 C4916 0.949 . S
C4913 C4914 1.349 . S
C4913 C4915 1.327 . S
C4913 H4936 0.950 . S
C4914 C4913 1.349 . S
C4914 C4926 1.349 . S
C4915 C4913 1.327 . S
C4915 C4931 1.429 . S
C4915 H4937 0.950 . S
C4916 H4912 0.949 . S
C4916 C4924 1.574 . S
C4916 C4932 1.368 . S
H4917 C4925 0.950 . S
H4918 C4923 0.950 . S
H4919 C4924 0.949 . S
H4920 C4926 0.950 . S
H4921 C4927 0.950 . S
H4922 C4928 0.949 . S
C4923 H4918 0.950 . S
C4923 C4925 1.327 . S
C4923 C4929 1.429 . S
C4924 C4916 1.574 . S
C4924 H4919 0.949 . S
C4924 C4930 1.368 . S
C4925 C4909 1.349 . S
C4925 H4917 0.950 . S
C4925 C4923 1.327 . S
C4926 C4914 1.349 . S
C4926 H4920 0.950 . S
C4926 C4927 1.327 . S
C4927 H4921 0.950 . S
C4927 C4926 1.327 . S
C4927 C4931 1.429 . S
C4928 C4911 1.574 . S
C4928 H4922 0.949 . S
C4928 C4932 1.368 . S
C4929 C4910 1.429 . S
C4929 C4923 1.429 . S
C4929 C4930 1.523 . S
C4930 C4911 1.368 . S
C4930 C4924 1.368 . S
C4930 C4929 1.523 . S
C4931 C4915 1.429 . S
C4931 C4927 1.429 . S
C4931 C4932 1.523 . S
C4932 C4916 1.368 . S
C4932 C4928 1.368 . S
C4932 C4931 1.523 . S
H4933 C4908 0.950 . S
H4934 C4910 0.950 . S
H4935 C4911 0.949 . S
H4936 C4913 0.950 . S
H4937 C4915 0.950 . S
C4938 C4939 1.349 . S
C4938 C4940 1.327 . S
C4938 H4963 0.950 . S
C4939 C4938 1.349 . S
C4939 C4955 1.349 . S
C4940 C4938 1.327 . S
C4940 C4959 1.429 . S
C4940 H4964 0.950 . S
C4941 C4958 1.574 . S
C4941 C4960 1.368 . S
C4941 H4965 0.949 . S
H4942 C4946 0.949 . S
C4943 C4944 1.349 . S
C4943 C4945 1.327 . S
C4943 H4966 0.950 . S
C4944 C4943 1.349 . S
C4944 C4956 1.349 . S
C4945 C4943 1.327 . S
C4945 C4961 1.429 . S
C4945 H4967 0.950 . S
C4946 H4942 0.949 . S
C4946 C4954 1.574 . S
C4946 C4962 1.368 . S
H4947 C4955 0.950 . S
H4948 C4953 0.950 . S
H4949 C4954 0.949 . S
H4950 C4956 0.950 . S
H4951 C4957 0.950 . S
H4952 C4958 0.949 . S
C4953 H4948 0.950 . S
C4953 C4955 1.327 . S
C4953 C4959 1.429 . S
C4954 C4946 1.574 . S
C4954 H4949 0.949 . S
C4954 C4960 1.368 . S
C4955 C4939 1.349 . S
C4955 H4947 0.950 . S
C4955 C4953 1.327 . S
C4956 C4944 1.349 . S
C4956 H4950 0.950 . S
C4956 C4957 1.327 . S
C4957 H4951 0.950 . S
C4957 C4956 1.327 . S
C4957 C4961 1.429 . S
C4958 C4941 1.574 . S
C4958 H4952 0.949 . S
C4958 C4962 1.368 . S
C4959 C4940 1.429 . S
C4959 C4953 1.429 . S
C4959 C4960 1.523 . S
C4960 C4941 1.368 . S
C4960 C4954 1.368 . S
C4960 C4959 1.523 . S
C4961 C4945 1.429 . S
C4961 C4957 1.429 . S
C4961 C4962 1.523 . S
C4962 C4946 1.368 . S
C4962 C4958 1.368 . S
C4962 C4961 1.523 . S
H4963 C4938 0.950 . S
H4964 C4940 0.950 . S
H4965 C4941 0.949 . S
H4966 C4943 0.950 . S
H4967 C4945 0.950 . S
C4968 C4969 1.349 . S
C4968 C4970 1.327 . S
C4968 H4993 0.950 . S
C4969 C4968 1.349 . S
C4969 C4985 1.349 . S
C4970 C4968 1.327 . S
C4970 C4989 1.429 . S
C4970 H4994 0.950 . S
C4971 C4988 1.574 . S
C4971 C4990 1.368 . S
C4971 H4995 0.949 . S
H4972 C4976 0.949 . S
C4973 C4974 1.349 . S
C4973 C4975 1.327 . S
C4973 H4996 0.950 . S
C4974 C4973 1.349 . S
C4974 C4986 1.349 . S
C4975 C4973 1.327 . S
C4975 C4991 1.429 . S
C4975 H4997 0.950 . S
C4976 H4972 0.949 . S
C4976 C4984 1.574 . S
C4976 C4992 1.368 . S
H4977 C4985 0.950 . S
H4978 C4983 0.950 . S
H4979 C4984 0.949 . S
H4980 C4986 0.950 . S
H4981 C4987 0.950 . S
H4982 C4988 0.949 . S
C4983 H4978 0.950 . S
C4983 C4985 1.327 . S
C4983 C4989 1.429 . S
C4984 C4976 1.574 . S
C4984 H4979 0.949 . S
C4984 C4990 1.368 . S
C4985 C4969 1.349 . S
C4985 H4977 0.950 . S
C4985 C4983 1.327 . S
C4986 C4974 1.349 . S
C4986 H4980 0.950 . S
C4986 C4987 1.327 . S
C4987 H4981 0.950 . S
C4987 C4986 1.327 . S
C4987 C4991 1.429 . S
C4988 C4971 1.574 . S
C4988 H4982 0.949 . S
C4988 C4992 1.368 . S
C4989 C4970 1.429 . S
C4989 C4983 1.429 . S
C4989 C4990 1.523 . S
C4990 C4971 1.368 . S
C4990 C4984 1.368 . S
C4990 C4989 1.523 . S
C4991 C4975 1.429 . S
C4991 C4987 1.429 . S
C4991 C4992 1.523 . S
C4992 C4976 1.368 . S
C4992 C4988 1.368 . S
C4992 C4991 1.523 . S
H4993 C4968 0.950 . S
H4994 C4970 0.950 . S
H4995 C4971 0.949 . S
H4996 C4973 0.950 . S
H4997 C4975 0.950 . S
C4998 C4999 1.349 . S
C4998 C5000 1.327 . S
C4998 H5023 0.950 . S
C4999 C4998 1.349 . S
C4999 C5015 1.349 . S
C5000 C4998 1.327 . S
C5000 C5019 1.429 . S
C5000 H5024 0.950 . S
C5001 C5018 1.574 . S
C5001 C5020 1.368 . S
C5001 H5025 0.949 . S
H5002 C5006 0.949 . S
C5003 C5004 1.349 . S
C5003 C5005 1.327 . S
C5003 H5026 0.950 . S
C5004 C5003 1.349 . S
C5004 C5016 1.349 . S
C5005 C5003 1.327 . S
C5005 C5021 1.429 . S
C5005 H5027 0.950 . S
C5006 H5002 0.949 . S
C5006 C5014 1.574 . S
C5006 C5022 1.368 . S
H5007 C5015 0.950 . S
H5008 C5013 0.950 . S
H5009 C5014 0.949 . S
H5010 C5016 0.950 . S
H5011 C5017 0.950 . S
H5012 C5018 0.949 . S
C5013 H5008 0.950 . S
C5013 C5015 1.327 . S
C5013 C5019 1.429 . S
C5014 C5006 1.574 . S
C5014 H5009 0.949 . S
C5014 C5020 1.368 . S
C5015 C4999 1.349 . S
C5015 H5007 0.950 . S
C5015 C5013 1.327 . S
C5016 C5004 1.349 . S
C5016 H5010 0.950 . S
C5016 C5017 1.327 . S
C5017 H5011 0.950 . S
C5017 C5016 1.327 . S
C5017 C5021 1.429 . S
C5018 C5001 1.574 . S
C5018 H5012 0.949 . S
C5018 C5022 1.368 . S
C5019 C5000 1.429 . S
C5019 C5013 1.429 . S
C5019 C5020 1.523 . S
C5020 C5001 1.368 . S
C5020 C5014 1.368 . S
C5020 C5019 1.523 . S
C5021 C5005 1.429 . S
C5021 C5017 1.429 . S
C5021 C5022 1.523 . S
C5022 C5006 1.368 . S
C5022 C5018 1.368 . S
C5022 C5021 1.523 . S
H5023 C4998 0.950 . S
H5024 C5000 0.950 . S
H5025 C5001 0.949 . S
H5026 C5003 0.950 . S
H5027 C5005 0.950 . S
C5028 C5029 1.349 . S
C5028 C5030 1.327 . S
C5028 H5053 0.950 . S
C5029 C5028 1.349 . S
C5029 C5045 1.349 . S
C5030 C5028 1.327 . S
C5030 C5049 1.429 . S
C5030 H5054 0.950 . S
C5031 C5048 1.574 . S
C5031 C5050 1.368 . S
C5031 H5055 0.949 . S
H5032 C5036 0.949 . S
C5033 C5034 1.349 . S
C5033 C5035 1.327 . S
C5033 H5056 0.950 . S
C5034 C5033 1.349 . S
C5034 C5046 1.349 . S
C5035 C5033 1.327 . S
C5035 C5051 1.429 . S
C5035 H5057 0.950 . S
C5036 H5032 0.949 . S
C5036 C5044 1.574 . S
C5036 C5052 1.368 . S
H5037 C5045 0.950 . S
H5038 C5043 0.950 . S
H5039 C5044 0.949 . S
H5040 C5046 0.950 . S
H5041 C5047 0.950 . S
H5042 C5048 0.949 . S
C5043 H5038 0.950 . S
C5043 C5045 1.327 . S
C5043 C5049 1.429 . S
C5044 C5036 1.574 . S
C5044 H5039 0.949 . S
C5044 C5050 1.368 . S
C5045 C5029 1.349 . S
C5045 H5037 0.950 . S
C5045 C5043 1.327 . S
C5046 C5034 1.349 . S
C5046 H5040 0.950 . S
C5046 C5047 1.327 . S
C5047 H5041 0.950 . S
C5047 C5046 1.327 . S
C5047 C5051 1.429 . S
C5048 C5031 1.574 . S
C5048 H5042 0.949 . S
C5048 C5052 1.368 . S
C5049 C5030 1.429 . S
C5049 C5043 1.429 . S
C5049 C5050 1.523 . S
C5050 C5031 1.368 . S
C5050 C5044 1.368 . S
C5050 C5049 1.523 . S
C5051 C5035 1.429 . S
C5051 C5047 1.429 . S
C5051 C5052 1.523 . S
C5052 C5036 1.368 . S
C5052 C5048 1.368 . S
C5052 C5051 1.523 . S
H5053 C5028 0.950 . S
H5054 C5030 0.950 . S
H5055 C5031 0.949 . S
H5056 C5033 0.950 . S
H5057 C5035 0.950 . S
C5058 C5059 1.349 . S
C5058 C5060 1.327 . S
C5058 H5083 0.950 . S
C5059 C5058 1.349 . S
C5059 C5075 1.349 . S
C5060 C5058 1.327 . S
C5060 C5079 1.429 . S
C5060 H5084 0.950 . S
C5061 C5078 1.574 . S
C5061 C5080 1.368 . S
C5061 H5085 0.949 . S
H5062 C5066 0.949 . S
C5063 C5064 1.349 . S
C5063 C5065 1.327 . S
C5063 H5086 0.950 . S
C5064 C5063 1.349 . S
C5064 C5076 1.349 . S
C5065 C5063 1.327 . S
C5065 C5081 1.429 . S
C5065 H5087 0.950 . S
C5066 H5062 0.949 . S
C5066 C5074 1.574 . S
C5066 C5082 1.368 . S
H5067 C5075 0.950 . S
H5068 C5073 0.950 . S
H5069 C5074 0.949 . S
H5070 C5076 0.950 . S
H5071 C5077 0.950 . S
H5072 C5078 0.949 . S
C5073 H5068 0.950 . S
C5073 C5075 1.327 . S
C5073 C5079 1.429 . S
C5074 C5066 1.574 . S
C5074 H5069 0.949 . S
C5074 C5080 1.368 . S
C5075 C5059 1.349 . S
C5075 H5067 0.950 . S
C5075 C5073 1.327 . S
C5076 C5064 1.349 . S
C5076 H5070 0.950 . S
C5076 C5077 1.327 . S
C5077 H5071 0.950 . S
C5077 C5076 1.327 . S
C5077 C5081 1.429 . S
C5078 C5061 1.574 . S
C5078 H5072 0.949 . S
C5078 C5082 1.368 . S
C5079 C5060 1.429 . S
C5079 C5073 1.429 . S
C5079 C5080 1.523 . S
C5080 C5061 1.368 . S
C5080 C5074 1.368 . S
C5080 C5079 1.523 . S
C5081 C5065 1.429 . S
C5081 C5077 1.429 . S
C5081 C5082 1.523 . S
C5082 C5066 1.368 . S
C5082 C5078 1.368 . S
C5082 C5081 1.523 . S
H5083 C5058 0.950 . S
H5084 C5060 0.950 . S
H5085 C5061 0.949 . S
H5086 C5063 0.950 . S
H5087 C5065 0.950 . S
C5088 C5089 1.349 . S
C5088 C5090 1.327 . S
C5088 H5113 0.950 . S
C5089 C5088 1.349 . S
C5089 C5105 1.349 . S
C5090 C5088 1.327 . S
C5090 C5109 1.429 . S
C5090 H5114 0.950 . S
C5091 C5108 1.574 . S
C5091 C5110 1.368 1_565 S
C5091 H5115 0.949 . S
H5092 C5096 0.949 . S
C5093 C5094 1.349 . S
C5093 C5095 1.327 . S
C5093 H5116 0.950 . S
C5094 C5093 1.349 . S
C5094 C5106 1.349 . S
C5095 C5093 1.327 . S
C5095 C5111 1.429 . S
C5095 H5117 0.950 . S
C5096 H5092 0.949 . S
C5096 C5104 1.574 . S
C5096 C5112 1.368 1_545 S
H5097 C5105 0.950 . S
H5098 C5103 0.950 . S
H5099 C5104 0.949 . S
H5100 C5106 0.950 . S
H5101 C5107 0.950 . S
H5102 C5108 0.949 . S
C5103 H5098 0.950 . S
C5103 C5105 1.327 . S
C5103 C5109 1.429 . S
C5104 C5096 1.574 . S
C5104 H5099 0.949 . S
C5104 C5110 1.368 . S
C5105 C5089 1.349 . S
C5105 H5097 0.950 . S
C5105 C5103 1.327 . S
C5106 C5094 1.349 . S
C5106 H5100 0.950 . S
C5106 C5107 1.327 . S
C5107 H5101 0.950 . S
C5107 C5106 1.327 . S
C5107 C5111 1.429 . S
C5108 C5091 1.574 . S
C5108 H5102 0.949 . S
C5108 C5112 1.368 . S
C5109 C5090 1.429 . S
C5109 C5103 1.429 . S
C5109 C5110 1.523 . S
C5110 C5091 1.368 1_545 S
C5110 C5104 1.368 . S
C5110 C5109 1.523 . S
C5111 C5095 1.429 . S
C5111 C5107 1.429 . S
C5111 C5112 1.523 . S
C5112 C5096 1.368 1_565 S
C5112 C5108 1.368 . S
C5112 C5111 1.523 . S
H5113 C5088 0.950 . S
H5114 C5090 0.950 . S
H5115 C5091 0.949 . S
H5116 C5093 0.950 . S
H5117 C5095 0.950 . S
C5118 C5119 1.349 . S
C5118 C5120 1.327 . S
C5118 H5143 0.950 . S
C5119 C5118 1.349 . S
C5119 C5135 1.349 . S
C5120 C5118 1.327 . S
C5120 C5139 1.429 . S
C5120 H5144 0.963 . S
C5121 C5138 1.574 . S
C5121 C5140 1.368 . S
C5121 H5145 0.949 . S
H5122 C5126 0.954 . S
C5123 C5124 1.349 . S
C5123 C5125 1.327 . S
C5123 H5146 0.950 . S
C5124 C5123 1.349 . S
C5124 C5136 1.349 . S
C5125 C5123 1.327 . S
C5125 C5141 1.429 . S
C5125 H5147 0.950 . S
C5126 H5122 0.954 . S
C5126 C5134 1.574 . S
C5126 C5142 1.368 . S
H5127 C5135 0.950 . S
H5128 C5133 0.950 . S
H5129 C5134 0.954 . S
H5130 C5136 0.950 . S
H5131 C5137 0.963 . S
H5132 C5138 0.949 . S
C5133 H5128 0.950 . S
C5133 C5135 1.327 . S
C5133 C5139 1.429 . S
C5134 C5126 1.574 . S
C5134 H5129 0.954 . S
C5134 C5140 1.368 . S
C5135 C5119 1.349 . S
C5135 H5127 0.950 . S
C5135 C5133 1.327 . S
C5136 C5124 1.349 . S
C5136 H5130 0.950 . S
C5136 C5137 1.327 . S
C5137 H5131 0.963 . S
C5137 C5136 1.327 . S
C5137 C5141 1.429 . S
C5138 C5121 1.574 . S
C5138 H5132 0.949 . S
C5138 C5142 1.368 . S
C5139 C5120 1.429 . S
C5139 C5133 1.429 . S
C5139 C5140 1.523 . S
C5140 C5121 1.368 . S
C5140 C5134 1.368 . S
C5140 C5139 1.523 . S
C5141 C5125 1.429 . S
C5141 C5137 1.429 . S
C5141 C5142 1.523 . S
C5142 C5126 1.368 . S
C5142 C5138 1.368 . S
C5142 C5141 1.523 . S
H5143 C5118 0.950 . S
H5144 C5120 0.963 . S
H5145 C5121 0.949 . S
H5146 C5123 0.950 . S
H5147 C5125 0.950 . S
C5148 C5149 1.349 . S
C5148 C5150 1.327 . S
C5148 H5173 0.950 . S
C5149 C5148 1.349 . S
C5149 C5165 1.349 . S
C5150 C5148 1.327 . S
C5150 C5169 1.429 . S
C5150 H5174 0.950 . S
C5151 C5168 1.574 . S
C5151 C5170 1.368 1_565 S
C5151 H5175 0.949 . S
H5152 C5156 0.949 . S
C5153 C5154 1.349 . S
C5153 C5155 1.327 . S
C5153 H5176 0.950 . S
C5154 C5153 1.349 . S
C5154 C5166 1.349 . S
C5155 C5153 1.327 . S
C5155 C5171 1.429 . S
C5155 H5177 0.950 . S
C5156 H5152 0.949 . S
C5156 C5164 1.574 . S
C5156 C5172 1.368 1_545 S
H5157 C5165 0.950 . S
H5158 C5163 0.950 . S
H5159 C5164 0.949 . S
H5160 C5166 0.950 . S
H5161 C5167 0.950 . S
H5162 C5168 0.949 . S
C5163 H5158 0.950 . S
C5163 C5165 1.327 . S
C5163 C5169 1.429 . S
C5164 C5156 1.574 . S
C5164 H5159 0.949 . S
C5164 C5170 1.368 . S
C5165 C5149 1.349 . S
C5165 H5157 0.950 . S
C5165 C5163 1.327 . S
C5166 C5154 1.349 . S
C5166 H5160 0.950 . S
C5166 C5167 1.327 . S
C5167 H5161 0.950 . S
C5167 C5166 1.327 . S
C5167 C5171 1.429 . S
C5168 C5151 1.574 . S
C5168 H5162 0.949 . S
C5168 C5172 1.368 . S
C5169 C5150 1.429 . S
C5169 C5163 1.429 . S
C5169 C5170 1.523 . S
C5170 C5151 1.368 1_545 S
C5170 C5164 1.368 . S
C5170 C5169 1.523 . S
C5171 C5155 1.429 . S
C5171 C5167 1.429 . S
C5171 C5172 1.523 . S
C5172 C5156 1.368 1_565 S
C5172 C5168 1.368 . S
C5172 C5171 1.523 . S
H5173 C5148 0.950 . S
H5174 C5150 0.950 . S
H5175 C5151 0.949 . S
H5176 C5153 0.950 . S
H5177 C5155 0.950 . S
C5178 C5179 1.349 . S
C5178 C5180 1.327 . S
C5178 H5203 0.950 . S
C5179 C5178 1.349 . S
C5179 C5195 1.349 . S
C5180 C5178 1.327 . S
C5180 C5199 1.429 . S
C5180 H5204 0.950 . S
C5181 C5198 1.592 . S
C5181 C5200 1.368 . S
C5181 H5205 0.954 . S
H5182 C5186 0.949 . S
C5183 C5184 1.349 . S
C5183 C5185 1.327 . S
C5183 H5206 0.950 . S
C5184 C5183 1.349 . S
C5184 C5196 1.349 . S
C5185 C5183 1.327 . S
C5185 C5201 1.429 . S
C5185 H5207 0.963 . S
C5186 H5182 0.949 . S
C5186 C5194 1.592 . S
C5186 C5202 1.368 . S
H5187 C5195 0.950 . S
H5188 C5193 0.963 . S
H5189 C5194 0.949 . S
H5190 C5196 0.950 . S
H5191 C5197 0.950 . S
H5192 C5198 0.954 . S
C5193 H5188 0.963 . S
C5193 C5195 1.327 . S
C5193 C5199 1.429 . S
C5194 C5186 1.592 . S
C5194 H5189 0.949 . S
C5194 C5200 1.350 1_554 S
C5195 C5179 1.349 . S
C5195 H5187 0.950 . S
C5195 C5193 1.327 . S
C5196 C5184 1.349 . S
C5196 H5190 0.950 . S
C5196 C5197 1.327 . S
C5197 H5191 0.950 . S
C5197 C5196 1.327 . S
C5197 C5201 1.429 . S
C5198 C5181 1.592 . S
C5198 H5192 0.954 . S
C5198 C5202 1.350 1_556 S
C5199 C5180 1.429 . S
C5199 C5193 1.429 . S
C5199 C5200 1.523 . S
C5200 C5181 1.368 . S
C5200 C5194 1.350 1_556 S
C5200 C5199 1.523 . S
C5201 C5185 1.429 . S
C5201 C5197 1.429 . S
C5201 C5202 1.523 . S
C5202 C5186 1.368 . S
C5202 C5198 1.350 1_554 S
C5202 C5201 1.523 . S
H5203 C5178 0.950 . S
H5204 C5180 0.950 . S
H5205 C5181 0.954 . S
H5206 C5183 0.950 . S
H5207 C5185 0.963 . S
C5208 C5209 1.349 . S
C5208 C5210 1.327 . S
C5208 H5233 0.950 . S
C5209 C5208 1.349 . S
C5209 C5225 1.349 . S
C5210 C5208 1.327 . S
C5210 C5229 1.429 . S
C5210 H5234 0.950 . S
C5211 C5228 1.574 1_565 S
C5211 C5230 1.368 . S
C5211 H5235 0.949 . S
H5212 C5216 0.949 . S
C5213 C5214 1.349 . S
C5213 C5215 1.327 . S
C5213 H5236 0.950 . S
C5214 C5213 1.349 . S
C5214 C5226 1.349 . S
C5215 C5213 1.327 . S
C5215 C5231 1.429 . S
C5215 H5237 0.950 . S
C5216 H5212 0.949 . S
C5216 C5224 1.574 1_545 S
C5216 C5232 1.368 . S
H5217 C5225 0.950 . S
H5218 C5223 0.950 . S
H5219 C5224 0.949 . S
H5220 C5226 0.950 . S
H5221 C5227 0.950 . S
H5222 C5228 0.949 . S
C5223 H5218 0.950 . S
C5223 C5225 1.327 . S
C5223 C5229 1.429 . S
C5224 C5216 1.574 1_565 S
C5224 H5219 0.949 . S
C5224 C5230 1.368 . S
C5225 C5209 1.349 . S
C5225 H5217 0.950 . S
C5225 C5223 1.327 . S
C5226 C5214 1.349 . S
C5226 H5220 0.950 . S
C5226 C5227 1.327 . S
C5227 H5221 0.950 . S
C5227 C5226 1.327 . S
C5227 C5231 1.429 . S
C5228 C5211 1.574 1_545 S
C5228 H5222 0.949 . S
C5228 C5232 1.368 . S
C5229 C5210 1.429 . S
C5229 C5223 1.429 . S
C5229 C5230 1.523 . S
C5230 C5211 1.368 . S
C5230 C5224 1.368 . S
C5230 C5229 1.523 . S
C5231 C5215 1.429 . S
C5231 C5227 1.429 . S
C5231 C5232 1.523 . S
C5232 C5216 1.368 . S
C5232 C5228 1.368 . S
C5232 C5231 1.523 . S
H5233 C5208 0.950 . S
H5234 C5210 0.950 . S
H5235 C5211 0.949 . S
H5236 C5213 0.950 . S
H5237 C5215 0.950 . S
C5238 C5239 1.349 . S
C5238 C5240 1.327 . S
C5238 H5263 0.950 . S
C5239 C5238 1.349 . S
C5239 C5255 1.349 . S
C5240 C5238 1.327 . S
C5240 C5259 1.429 . S
C5240 H5264 0.950 . S
C5241 C5258 1.574 . S
C5241 C5260 1.368 . S
C5241 H5265 0.954 . S
H5242 C5246 0.949 . S
C5243 C5244 1.349 . S
C5243 C5245 1.327 . S
C5243 H5266 0.950 . S
C5244 C5243 1.349 . S
C5244 C5256 1.349 . S
C5245 C5243 1.327 . S
C5245 C5261 1.429 . S
C5245 H5267 0.963 . S
C5246 H5242 0.949 . S
C5246 C5254 1.574 . S
C5246 C5262 1.368 . S
H5247 C5255 0.950 . S
H5248 C5253 0.963 . S
H5249 C5254 0.949 . S
H5250 C5256 0.950 . S
H5251 C5257 0.950 . S
H5252 C5258 0.954 . S
C5253 H5248 0.963 . S
C5253 C5255 1.327 . S
C5253 C5259 1.429 . S
C5254 C5246 1.574 . S
C5254 H5249 0.949 . S
C5254 C5260 1.368 . S
C5255 C5239 1.349 . S
C5255 H5247 0.950 . S
C5255 C5253 1.327 . S
C5256 C5244 1.349 . S
C5256 H5250 0.950 . S
C5256 C5257 1.327 . S
C5257 H5251 0.950 . S
C5257 C5256 1.327 . S
C5257 C5261 1.429 . S
C5258 C5241 1.574 . S
C5258 H5252 0.954 . S
C5258 C5262 1.368 . S
C5259 C5240 1.429 . S
C5259 C5253 1.429 . S
C5259 C5260 1.523 . S
C5260 C5241 1.368 . S
C5260 C5254 1.368 . S
C5260 C5259 1.523 . S
C5261 C5245 1.429 . S
C5261 C5257 1.429 . S
C5261 C5262 1.523 . S
C5262 C5246 1.368 . S
C5262 C5258 1.368 . S
C5262 C5261 1.523 . S
H5263 C5238 0.950 . S
H5264 C5240 0.950 . S
H5265 C5241 0.954 . S
H5266 C5243 0.950 . S
H5267 C5245 0.963 . S
C5268 C5269 1.349 . S
C5268 C5270 1.327 . S
C5268 H5293 0.950 . S
C5269 C5268 1.349 . S
C5269 C5285 1.349 . S
C5270 C5268 1.327 . S
C5270 C5289 1.429 . S
C5270 H5294 0.950 . S
C5271 C5288 1.574 . S
C5271 C5290 1.368 . S
C5271 H5295 0.949 . S
H5272 C5276 0.949 . S
C5273 C5274 1.349 . S
C5273 C5275 1.327 . S
C5273 H5296 0.950 . S
C5274 C5273 1.349 . S
C5274 C5286 1.349 . S
C5275 C5273 1.327 . S
C5275 C5291 1.429 . S
C5275 H5297 0.950 . S
C5276 H5272 0.949 . S
C5276 C5284 1.574 . S
C5276 C5292 1.368 . S
H5277 C5285 0.950 . S
H5278 C5283 0.950 . S
H5279 C5284 0.949 . S
H5280 C5286 0.950 . S
H5281 C5287 0.950 . S
H5282 C5288 0.949 . S
C5283 H5278 0.950 . S
C5283 C5285 1.327 . S
C5283 C5289 1.429 . S
C5284 C5276 1.574 . S
C5284 H5279 0.949 . S
C5284 C5290 1.368 1_545 S
C5285 C5269 1.349 . S
C5285 H5277 0.950 . S
C5285 C5283 1.327 . S
C5286 C5274 1.349 . S
C5286 H5280 0.950 . S
C5286 C5287 1.327 . S
C5287 H5281 0.950 . S
C5287 C5286 1.327 . S
C5287 C5291 1.429 . S
C5288 C5271 1.574 . S
C5288 H5282 0.949 . S
C5288 C5292 1.368 1_565 S
C5289 C5270 1.429 . S
C5289 C5283 1.429 . S
C5289 C5290 1.523 . S
C5290 C5271 1.368 . S
C5290 C5284 1.368 1_565 S
C5290 C5289 1.523 . S
C5291 C5275 1.429 . S
C5291 C5287 1.429 . S
C5291 C5292 1.523 . S
C5292 C5276 1.368 . S
C5292 C5288 1.368 1_545 S
C5292 C5291 1.523 . S
H5293 C5268 0.950 . S
H5294 C5270 0.950 . S
H5295 C5271 0.949 . S
H5296 C5273 0.950 . S
H5297 C5275 0.950 . S
C5298 C5299 1.349 . S
C5298 C5300 1.327 . S
C5298 H5323 0.950 . S
C5299 C5298 1.349 . S
C5299 C5315 1.349 . S
C5300 C5298 1.327 . S
C5300 C5319 1.429 . S
C5300 H5324 0.963 . S
C5301 C5318 1.592 . S
C5301 C5320 1.368 . S
C5301 H5325 0.949 . S
H5302 C5306 0.954 . S
C5303 C5304 1.349 . S
C5303 C5305 1.327 . S
C5303 H5326 0.950 . S
C5304 C5303 1.349 . S
C5304 C5316 1.349 . S
C5305 C5303 1.327 . S
C5305 C5321 1.429 . S
C5305 H5327 0.950 . S
C5306 H5302 0.954 . S
C5306 C5314 1.593 . S
C5306 C5322 1.368 . S
H5307 C5315 0.950 . S
H5308 C5313 0.950 . S
H5309 C5314 0.954 . S
H5310 C5316 0.950 . S
H5311 C5317 0.963 . S
H5312 C5318 0.949 . S
C5313 H5308 0.950 . S
C5313 C5315 1.327 . S
C5313 C5319 1.429 . S
C5314 C5306 1.593 . S
C5314 H5309 0.954 . S
C5314 C5320 1.350 1_556 S
C5315 C5299 1.349 . S
C5315 H5307 0.950 . S
C5315 C5313 1.327 . S
C5316 C5304 1.349 . S
C5316 H5310 0.950 . S
C5316 C5317 1.327 . S
C5317 H5311 0.963 . S
C5317 C5316 1.327 . S
C5317 C5321 1.429 . S
C5318 C5301 1.592 . S
C5318 H5312 0.949 . S
C5318 C5322 1.350 1_554 S
C5319 C5300 1.429 . S
C5319 C5313 1.429 . S
C5319 C5320 1.523 . S
C5320 C5301 1.368 . S
C5320 C5314 1.350 1_554 S
C5320 C5319 1.523 . S
C5321 C5305 1.429 . S
C5321 C5317 1.429 . S
C5321 C5322 1.523 . S
C5322 C5306 1.368 . S
C5322 C5318 1.350 1_556 S
C5322 C5321 1.523 . S
H5323 C5298 0.950 . S
H5324 C5300 0.963 . S
H5325 C5301 0.949 . S
H5326 C5303 0.950 . S
H5327 C5305 0.950 . S
C5328 C5329 1.349 . S
C5328 C5330 1.327 . S
C5328 H5353 0.950 . S
C5329 C5328 1.349 . S
C5329 C5345 1.349 . S
C5330 C5328 1.327 . S
C5330 C5349 1.429 . S
C5330 H5354 0.950 . S
C5331 C5348 1.574 . S
C5331 C5350 1.368 . S
C5331 H5355 0.949 . S
H5332 C5336 0.949 . S
C5333 C5334 1.349 . S
C5333 C5335 1.327 . S
C5333 H5356 0.950 . S
C5334 C5333 1.349 . S
C5334 C5346 1.349 . S
C5335 C5333 1.327 . S
C5335 C5351 1.429 . S
C5335 H5357 0.950 . S
C5336 H5332 0.949 . S
C5336 C5344 1.574 . S
C5336 C5352 1.368 . S
H5337 C5345 0.950 . S
H5338 C5343 0.950 . S
H5339 C5344 0.949 . S
H5340 C5346 0.950 . S
H5341 C5347 0.950 . S
H5342 C5348 0.949 . S
C5343 H5338 0.950 . S
C5343 C5345 1.327 . S
C5343 C5349 1.429 . S
C5344 C5336 1.574 . S
C5344 H5339 0.949 . S
C5344 C5350 1.368 . S
C5345 C5329 1.349 . S
C5345 H5337 0.950 . S
C5345 C5343 1.327 . S
C5346 C5334 1.349 . S
C5346 H5340 0.950 . S
C5346 C5347 1.327 . S
C5347 H5341 0.950 . S
C5347 C5346 1.327 . S
C5347 C5351 1.429 . S
C5348 C5331 1.574 . S
C5348 H5342 0.949 . S
C5348 C5352 1.368 . S
C5349 C5330 1.429 . S
C5349 C5343 1.429 . S
C5349 C5350 1.523 . S
C5350 C5331 1.368 . S
C5350 C5344 1.368 . S
C5350 C5349 1.523 . S
C5351 C5335 1.429 . S
C5351 C5347 1.429 . S
C5351 C5352 1.523 . S
C5352 C5336 1.368 . S
C5352 C5348 1.368 . S
C5352 C5351 1.523 . S
H5353 C5328 0.950 . S
H5354 C5330 0.950 . S
H5355 C5331 0.949 . S
H5356 C5333 0.950 . S
H5357 C5335 0.950 . S
C5358 C5359 1.349 . S
C5358 C5360 1.327 . S
C5358 H5383 0.950 . S
C5359 C5358 1.349 . S
C5359 C5375 1.349 . S
C5360 C5358 1.327 . S
C5360 C5379 1.429 . S
C5360 H5384 0.950 . S
C5361 C5378 1.593 . S
C5361 C5380 1.350 1_554 S
C5361 H5385 0.949 . S
H5362 C5366 0.949 . S
C5363 C5364 1.349 . S
C5363 C5365 1.327 . S
C5363 H5386 0.950 . S
C5364 C5363 1.349 . S
C5364 C5376 1.349 . S
C5365 C5363 1.327 . S
C5365 C5381 1.429 . S
C5365 H5387 0.950 . S
C5366 H5362 0.949 . S
C5366 C5374 1.592 . S
C5366 C5382 1.350 1_556 S
H5367 C5375 0.950 . S
H5368 C5373 0.950 . S
H5369 C5374 0.949 . S
H5370 C5376 0.950 . S
H5371 C5377 0.950 . S
H5372 C5378 0.949 . S
C5373 H5368 0.950 . S
C5373 C5375 1.327 . S
C5373 C5379 1.429 . S
C5374 C5366 1.592 . S
C5374 H5369 0.949 . S
C5374 C5380 1.368 . S
C5375 C5359 1.349 . S
C5375 H5367 0.950 . S
C5375 C5373 1.327 . S
C5376 C5364 1.349 . S
C5376 H5370 0.950 . S
C5376 C5377 1.327 . S
C5377 H5371 0.950 . S
C5377 C5376 1.327 . S
C5377 C5381 1.429 . S
C5378 C5361 1.593 . S
C5378 H5372 0.949 . S
C5378 C5382 1.368 . S
C5379 C5360 1.429 . S
C5379 C5373 1.429 . S
C5379 C5380 1.523 . S
C5380 C5361 1.350 1_556 S
C5380 C5374 1.368 . S
C5380 C5379 1.523 . S
C5381 C5365 1.429 . S
C5381 C5377 1.429 . S
C5381 C5382 1.523 . S
C5382 C5366 1.350 1_554 S
C5382 C5378 1.368 . S
C5382 C5381 1.523 . S
H5383 C5358 0.950 . S
H5384 C5360 0.950 . S
H5385 C5361 0.949 . S
H5386 C5363 0.950 . S
H5387 C5365 0.950 . S
C5388 C5389 1.349 . S
C5388 C5390 1.327 . S
C5388 H5413 0.950 . S
C5389 C5388 1.349 . S
C5389 C5405 1.349 . S
C5390 C5388 1.327 . S
C5390 C5409 1.429 . S
C5390 H5414 0.950 . S
C5391 C5408 1.574 . S
C5391 C5410 1.368 . S
C5391 H5415 0.949 . S
H5392 C5396 0.949 . S
C5393 C5394 1.349 . S
C5393 C5395 1.327 . S
C5393 H5416 0.950 . S
C5394 C5393 1.349 . S
C5394 C5406 1.349 . S
C5395 C5393 1.327 . S
C5395 C5411 1.429 . S
C5395 H5417 0.950 . S
C5396 H5392 0.949 . S
C5396 C5404 1.574 . S
C5396 C5412 1.368 . S
H5397 C5405 0.950 . S
H5398 C5403 0.950 . S
H5399 C5404 0.949 . S
H5400 C5406 0.950 . S
H5401 C5407 0.950 . S
H5402 C5408 0.949 . S
C5403 H5398 0.950 . S
C5403 C5405 1.327 . S
C5403 C5409 1.429 . S
C5404 C5396 1.574 . S
C5404 H5399 0.949 . S
C5404 C5410 1.368 . S
C5405 C5389 1.349 . S
C5405 H5397 0.950 . S
C5405 C5403 1.327 . S
C5406 C5394 1.349 . S
C5406 H5400 0.950 . S
C5406 C5407 1.327 . S
C5407 H5401 0.950 . S
C5407 C5406 1.327 . S
C5407 C5411 1.429 . S
C5408 C5391 1.574 . S
C5408 H5402 0.949 . S
C5408 C5412 1.368 . S
C5409 C5390 1.429 . S
C5409 C5403 1.429 . S
C5409 C5410 1.523 . S
C5410 C5391 1.368 . S
C5410 C5404 1.368 . S
C5410 C5409 1.523 . S
C5411 C5395 1.429 . S
C5411 C5407 1.429 . S
C5411 C5412 1.523 . S
C5412 C5396 1.368 . S
C5412 C5408 1.368 . S
C5412 C5411 1.523 . S
H5413 C5388 0.950 . S
H5414 C5390 0.950 . S
H5415 C5391 0.949 . S
H5416 C5393 0.950 . S
H5417 C5395 0.950 . S
C5418 C5419 1.349 . S
C5418 C5420 1.327 . S
C5418 H5443 0.950 . S
C5419 C5418 1.349 . S
C5419 C5435 1.349 . S
C5420 C5418 1.327 . S
C5420 C5439 1.429 . S
C5420 H5444 0.950 . S
C5421 C5438 1.574 . S
C5421 C5440 1.368 . S
C5421 H5445 0.949 . S
H5422 C5426 0.949 . S
C5423 C5424 1.349 . S
C5423 C5425 1.327 . S
C5423 H5446 0.950 . S
C5424 C5423 1.349 . S
C5424 C5436 1.349 . S
C5425 C5423 1.327 . S
C5425 C5441 1.429 . S
C5425 H5447 0.950 . S
C5426 H5422 0.949 . S
C5426 C5434 1.574 . S
C5426 C5442 1.368 . S
H5427 C5435 0.950 . S
H5428 C5433 0.950 . S
H5429 C5434 0.949 . S
H5430 C5436 0.950 . S
H5431 C5437 0.950 . S
H5432 C5438 0.949 . S
C5433 H5428 0.950 . S
C5433 C5435 1.327 . S
C5433 C5439 1.429 . S
C5434 C5426 1.574 . S
C5434 H5429 0.949 . S
C5434 C5440 1.368 . S
C5435 C5419 1.349 . S
C5435 H5427 0.950 . S
C5435 C5433 1.327 . S
C5436 C5424 1.349 . S
C5436 H5430 0.950 . S
C5436 C5437 1.327 . S
C5437 H5431 0.950 . S
C5437 C5436 1.327 . S
C5437 C5441 1.429 . S
C5438 C5421 1.574 . S
C5438 H5432 0.949 . S
C5438 C5442 1.368 . S
C5439 C5420 1.429 . S
C5439 C5433 1.429 . S
C5439 C5440 1.523 . S
C5440 C5421 1.368 . S
C5440 C5434 1.368 . S
C5440 C5439 1.523 . S
C5441 C5425 1.429 . S
C5441 C5437 1.429 . S
C5441 C5442 1.523 . S
C5442 C5426 1.368 . S
C5442 C5438 1.368 . S
C5442 C5441 1.523 . S
H5443 C5418 0.950 . S
H5444 C5420 0.950 . S
H5445 C5421 0.949 . S
H5446 C5423 0.950 . S
H5447 C5425 0.950 . S
C5448 C5449 1.349 . S
C5448 C5450 1.327 . S
C5448 H5473 0.950 . S
C5449 C5448 1.349 . S
C5449 C5465 1.349 . S
C5450 C5448 1.327 . S
C5450 C5469 1.429 . S
C5450 H5474 0.950 . S
C5451 C5468 1.574 . S
C5451 C5470 1.368 . S
C5451 H5475 0.949 . S
H5452 C5456 0.949 . S
C5453 C5454 1.349 . S
C5453 C5455 1.327 . S
C5453 H5476 0.950 . S
C5454 C5453 1.349 . S
C5454 C5466 1.349 . S
C5455 C5453 1.327 . S
C5455 C5471 1.429 . S
C5455 H5477 0.950 . S
C5456 H5452 0.949 . S
C5456 C5464 1.574 . S
C5456 C5472 1.368 . S
H5457 C5465 0.950 . S
H5458 C5463 0.950 . S
H5459 C5464 0.949 . S
H5460 C5466 0.950 . S
H5461 C5467 0.950 . S
H5462 C5468 0.949 . S
C5463 H5458 0.950 . S
C5463 C5465 1.327 . S
C5463 C5469 1.429 . S
C5464 C5456 1.574 . S
C5464 H5459 0.949 . S
C5464 C5470 1.368 . S
C5465 C5449 1.349 . S
C5465 H5457 0.950 . S
C5465 C5463 1.327 . S
C5466 C5454 1.349 . S
C5466 H5460 0.950 . S
C5466 C5467 1.327 . S
C5467 H5461 0.950 . S
C5467 C5466 1.327 . S
C5467 C5471 1.429 . S
C5468 C5451 1.574 . S
C5468 H5462 0.949 . S
C5468 C5472 1.368 . S
C5469 C5450 1.429 . S
C5469 C5463 1.429 . S
C5469 C5470 1.523 . S
C5470 C5451 1.368 . S
C5470 C5464 1.368 . S
C5470 C5469 1.523 . S
C5471 C5455 1.429 . S
C5471 C5467 1.429 . S
C5471 C5472 1.523 . S
C5472 C5456 1.368 . S
C5472 C5468 1.368 . S
C5472 C5471 1.523 . S
H5473 C5448 0.950 . S
H5474 C5450 0.950 . S
H5475 C5451 0.949 . S
H5476 C5453 0.950 . S
H5477 C5455 0.950 . S
C5478 C5479 1.349 . S
C5478 C5480 1.327 . S
C5478 H5503 0.950 . S
C5479 C5478 1.349 . S
C5479 C5495 1.349 . S
C5480 C5478 1.327 . S
C5480 C5499 1.429 . S
C5480 H5504 0.950 . S
C5481 C5498 1.593 . S
C5481 C5500 1.368 . S
C5481 H5505 0.949 . S
H5482 C5486 0.949 . S
C5483 C5484 1.349 . S
C5483 C5485 1.327 . S
C5483 H5506 0.950 . S
C5484 C5483 1.349 . S
C5484 C5496 1.349 . S
C5485 C5483 1.327 . S
C5485 C5501 1.429 . S
C5485 H5507 0.950 . S
C5486 H5482 0.949 . S
C5486 C5494 1.592 . S
C5486 C5502 1.368 . S
H5487 C5495 0.950 . S
H5488 C5493 0.950 . S
H5489 C5494 0.949 . S
H5490 C5496 0.950 . S
H5491 C5497 0.950 . S
H5492 C5498 0.949 . S
C5493 H5488 0.950 . S
C5493 C5495 1.327 . S
C5493 C5499 1.429 . S
C5494 C5486 1.592 . S
C5494 H5489 0.949 . S
C5494 C5500 1.350 1_554 S
C5495 C5479 1.349 . S
C5495 H5487 0.950 . S
C5495 C5493 1.327 . S
C5496 C5484 1.349 . S
C5496 H5490 0.950 . S
C5496 C5497 1.327 . S
C5497 H5491 0.950 . S
C5497 C5496 1.327 . S
C5497 C5501 1.429 . S
C5498 C5481 1.593 . S
C5498 H5492 0.949 . S
C5498 C5502 1.350 1_556 S
C5499 C5480 1.429 . S
C5499 C5493 1.429 . S
C5499 C5500 1.523 . S
C5500 C5481 1.368 . S
C5500 C5494 1.350 1_556 S
C5500 C5499 1.523 . S
C5501 C5485 1.429 . S
C5501 C5497 1.429 . S
C5501 C5502 1.523 . S
C5502 C5486 1.368 . S
C5502 C5498 1.350 1_554 S
C5502 C5501 1.523 . S
H5503 C5478 0.950 . S
H5504 C5480 0.950 . S
H5505 C5481 0.949 . S
H5506 C5483 0.950 . S
H5507 C5485 0.950 . S
C5508 C5509 1.349 . S
C5508 C5510 1.327 . S
C5508 H5533 0.950 . S
C5509 C5508 1.349 . S
C5509 C5525 1.349 . S
C5510 C5508 1.327 . S
C5510 C5529 1.429 . S
C5510 H5534 0.950 . S
C5511 C5528 1.574 . S
C5511 C5530 1.368 . S
C5511 H5535 0.949 . S
H5512 C5516 0.949 . S
C5513 C5514 1.349 . S
C5513 C5515 1.327 . S
C5513 H5536 0.950 . S
C5514 C5513 1.349 . S
C5514 C5526 1.349 . S
C5515 C5513 1.327 . S
C5515 C5531 1.429 . S
C5515 H5537 0.950 . S
C5516 H5512 0.949 . S
C5516 C5524 1.574 . S
C5516 C5532 1.368 . S
H5517 C5525 0.950 . S
H5518 C5523 0.950 . S
H5519 C5524 0.949 . S
H5520 C5526 0.950 . S
H5521 C5527 0.950 . S
H5522 C5528 0.949 . S
C5523 H5518 0.950 . S
C5523 C5525 1.327 . S
C5523 C5529 1.429 . S
C5524 C5516 1.574 . S
C5524 H5519 0.949 . S
C5524 C5530 1.368 . S
C5525 C5509 1.349 . S
C5525 H5517 0.950 . S
C5525 C5523 1.327 . S
C5526 C5514 1.349 . S
C5526 H5520 0.950 . S
C5526 C5527 1.327 . S
C5527 H5521 0.950 . S
C5527 C5526 1.327 . S
C5527 C5531 1.429 . S
C5528 C5511 1.574 . S
C5528 H5522 0.949 . S
C5528 C5532 1.368 . S
C5529 C5510 1.429 . S
C5529 C5523 1.429 . S
C5529 C5530 1.523 . S
C5530 C5511 1.368 . S
C5530 C5524 1.368 . S
C5530 C5529 1.523 . S
C5531 C5515 1.429 . S
C5531 C5527 1.429 . S
C5531 C5532 1.523 . S
C5532 C5516 1.368 . S
C5532 C5528 1.368 . S
C5532 C5531 1.523 . S
H5533 C5508 0.950 . S
H5534 C5510 0.950 . S
H5535 C5511 0.949 . S
H5536 C5513 0.950 . S
H5537 C5515 0.950 . S
C5538 C5539 1.349 . S
C5538 C5540 1.327 . S
C5538 H5563 0.950 . S
C5539 C5538 1.349 . S
C5539 C5555 1.349 . S
C5540 C5538 1.327 . S
C5540 C5559 1.429 . S
C5540 H5564 0.950 . S
C5541 C5558 1.574 . S
C5541 C5560 1.368 . S
C5541 H5565 0.949 . S
H5542 C5546 0.949 . S
C5543 C5544 1.349 . S
C5543 C5545 1.327 . S
C5543 H5566 0.950 . S
C5544 C5543 1.349 . S
C5544 C5556 1.349 . S
C5545 C5543 1.327 . S
C5545 C5561 1.429 . S
C5545 H5567 0.950 . S
C5546 H5542 0.949 . S
C5546 C5554 1.574 . S
C5546 C5562 1.368 . S
H5547 C5555 0.950 . S
H5548 C5553 0.950 . S
H5549 C5554 0.949 . S
H5550 C5556 0.950 . S
H5551 C5557 0.950 . S
H5552 C5558 0.949 . S
C5553 H5548 0.950 . S
C5553 C5555 1.327 . S
C5553 C5559 1.429 . S
C5554 C5546 1.574 . S
C5554 H5549 0.949 . S
C5554 C5560 1.368 . S
C5555 C5539 1.349 . S
C5555 H5547 0.950 . S
C5555 C5553 1.327 . S
C5556 C5544 1.349 . S
C5556 H5550 0.950 . S
C5556 C5557 1.327 . S
C5557 H5551 0.950 . S
C5557 C5556 1.327 . S
C5557 C5561 1.429 . S
C5558 C5541 1.574 . S
C5558 H5552 0.949 . S
C5558 C5562 1.368 . S
C5559 C5540 1.429 . S
C5559 C5553 1.429 . S
C5559 C5560 1.523 . S
C5560 C5541 1.368 . S
C5560 C5554 1.368 . S
C5560 C5559 1.523 . S
C5561 C5545 1.429 . S
C5561 C5557 1.429 . S
C5561 C5562 1.523 . S
C5562 C5546 1.368 . S
C5562 C5558 1.368 . S
C5562 C5561 1.523 . S
H5563 C5538 0.950 . S
H5564 C5540 0.950 . S
H5565 C5541 0.949 . S
H5566 C5543 0.950 . S
H5567 C5545 0.950 . S
C2689 C69 0.699 . S
C2694 C2335 0.500 . S
C2719 C153 0.699 . S
C2724 C739 0.500 . S
C2749 C237 0.699 . S
C2754 C2167 0.500 . S
C2779 C907 0.500 . S
C2784 C321 0.699 . S
C2809 C405 0.699 . S
C2814 C2503 0.500 . S
C2839 C1243 0.500 . S
C2844 C489 0.699 . S
C2869 C2671 0.500 . S
C2874 C573 0.699 . S
C2899 C657 0.699 . S
C2904 C1075 0.500 . S
C2929 C730 0.699 . S
C2934 C1652 0.500 . S
C2959 C814 0.699 . S
C2964 C56 0.500 . S
C2989 C1484 0.500 . S
C2994 C898 0.699 . S
C3019 C224 0.500 . S
C3024 C982 0.699 . S
C3049 C1066 0.699 . S
C3054 C1820 0.500 . S
C3079 C1150 0.699 . S
C3084 C560 0.500 . S
C3109 C1234 0.699 . S
C3114 C1988 0.500 . S
C3139 C392 0.500 . S
C3144 C1318 0.699 . S
C3169 C991 0.500 . S
C3174 C1413 0.699 . S
C3199 C2083 0.500 . S
C3204 C1497 0.699 . S
C3229 C823 0.500 . S
C3234 C1581 0.699 . S
C3259 C1665 0.699 . S
C3264 C2251 0.500 . S
C3289 C1159 0.500 . S
C3294 C1749 0.699 . S
C3319 C2587 0.500 . S
C3324 C1833 0.699 . S
C3349 C1327 0.500 . S
C3354 C1917 0.699 . S
C3379 C2001 0.699 . S
C3384 C2419 0.500 . S
C3409 C2074 0.699 . S
C3414 C308 0.500 . S
C3439 C2158 0.699 . S
C3444 C1400 0.500 . S
C3469 C2242 0.699 . S
C3474 C140 0.500 . S
C3499 C2326 0.699 . S
C3504 C1568 0.500 . S
C3529 C476 0.500 . S
C3534 C2410 0.699 . S
C3559 C1904 0.500 . S
C3564 C2494 0.699 . S
C3589 C2578 0.699 . S
C3594 C644 0.500 . S
C3619 C2662 0.699 . S
C3624 C1736 0.500 . S
C3649 C74 3.046 . S
C3654 C1586 3.046 . S
C3679 C1670 3.047 . S
C3684 C158 3.047 . S
C3709 C242 3.046 . S
C3714 C1418 3.046 . S
C3739 C326 3.046 . S
C3744 C1502 3.046 . S
C3769 C1922 3.046 . S
C3774 C410 3.046 . S
C3799 C494 3.046 . S
C3804 C2006 3.046 . S
C3829 C1754 3.046 . S
C3834 C578 3.046 . S
C3859 C662 3.047 . S
C3864 C1838 3.047 . S
C3889 C2247 3.046 . S
C3894 C735 3.046 . S
C3919 C819 3.047 . S
C3924 C2331 3.047 . S
C3949 C903 3.046 . S
C3954 C2079 3.046 . S
C3979 C987 3.046 . S
C3984 C2163 3.046 . S
C4009 C2583 3.046 . S
C4014 C1071 3.046 . S
C4039 C2667 3.046 . S
C4044 C1155 3.046 . S
C4069 C1239 3.046 . S
C4074 C2415 3.046 . S
C4099 C1323 3.047 . S
C4104 C2499 3.047 . S
C4129 C67 2.651 . S
C4134 C2072 2.651 . S
C4159 C812 2.651 . S
C4164 C151 2.651 . S
C4189 C235 2.650 . S
C4194 C2240 2.650 . S
C4219 C319 2.651 . S
C4224 C980 2.651 . S
C4249 C2408 2.651 . S
C4254 C403 2.651 . S
C4279 C1148 2.651 . S
C4284 C487 2.651 . S
C4309 C571 2.650 . S
C4314 C2576 2.650 . S
C4339 C655 2.651 . S
C4344 C1316 2.651 . S
C4369 C1411 2.651 . S
C4374 C728 2.651 . S
C4399 C1579 2.650 . S
C4404 C896 2.650 . S
C4429 C1747 2.651 . S
C4434 C1064 2.651 . S
C4459 C1232 2.650 . S
C4464 C1915 2.650 . S
C4489 C1495 2.650 . S
C4494 C2156 2.650 . S
C4519 C1663 2.650 . S
C4524 C2324 2.650 . S
C4549 C2492 2.650 . S
C4554 C1831 2.650 . S
C4579 C2660 2.650 . S
C4584 C1999 2.650 . S
C4609 C63 4.320 . S
C4614 C483 4.320 1_545 S
C4639 C567 4.320 . S
C4644 C147 4.320 1_545 S
C4669 C651 4.320 1_565 S
C4674 C231 4.320 . S
C4699 C399 4.320 . S
C4704 C315 4.320 1_565 S
C4729 C746 4.320 . S
C4734 C1166 4.320 1_565 S
C4759 C830 4.320 1_565 S
C4764 C1250 4.320 . S
C4789 C1334 4.320 1_545 S
C4794 C914 4.320 . S
C4819 C998 4.320 1_545 S
C4824 C1082 4.320 . S
C4849 C1407 4.320 . S
C4854 C1827 4.320 . S
C4879 C1491 4.320 . S
C4884 C1911 4.320 . S
C4909 C1575 4.320 . S
C4914 C1995 4.320 . S
C4939 C1743 4.320 . S
C4944 C1659 4.320 . S
C4969 C2090 4.320 . S
C4974 C2510 4.320 . S
C4999 C2174 4.320 . S
C5004 C2594 4.320 . S
C5029 C2678 4.320 . S
C5034 C2258 4.320 . S
C5059 C2342 4.320 . S
C5064 C2426 4.320 . S
C5089 C58 1.091 . S
C5094 C394 1.091 . S
C5119 C142 1.090 . S
C5124 C478 1.090 . S
C5149 C562 1.091 . S
C5154 C226 1.091 . S
C5179 C646 1.090 . S
C5184 C310 1.090 . S
C5209 C741 1.091 . S
C5214 C1077 1.091 . S
C5239 C1161 1.090 . S
C5244 C825 1.090 . S
C5269 C1245 1.091 . S
C5274 C909 1.091 . S
C5299 C1329 1.090 . S
C5304 C993 1.090 . S
C5329 C1402 1.091 . S
C5334 C1738 1.091 . S
C5359 C1822 1.091 . S
C5364 C1486 1.091 . S
C5389 C1570 1.091 . S
C5394 C1906 1.091 . S
C5419 C1990 1.091 . S
C5424 C1654 1.091 . S
C5449 C2421 1.091 . S
C5454 C2085 1.091 . S
C5479 C2169 1.091 . S
C5484 C2505 1.091 . S
C5509 C2253 1.091 . S
C5514 C2589 1.091 . S
C5539 C2337 1.091 . S
C5544 C2673 1.091 . S
