# Generated by pormake.
# Topology whk, (6)-cn, num edge types: 1
# Building blocks:
#     Node 0, Type 0, BuildingBlock: IZENUY_clean_sbu_0, # of connection points: 6
#     Node 1, Type 0, BuildingBlock: IZENUY_clean_sbu_0, # of connection points: 6
#     Node 2, Type 0, BuildingBlock: IZENUY_clean_sbu_0, # of connection points: 6
#     Node 3, Type 0, BuildingBlock: IZENUY_clean_sbu_0, # of connection points: 6
#     Node 4, Type 0, BuildingBlock: IZENUY_clean_sbu_0, # of connection points: 6
#     Node 5, Type 0, BuildingBlock: IZENUY_clean_sbu_0, # of connection points: 6
#     Node 6, Type 0, BuildingBlock: IZENUY_clean_sbu_0, # of connection points: 6
#     Node 7, Type 0, BuildingBlock: IZENUY_clean_sbu_0, # of connection points: 6
#     Node 8, Type 0, BuildingBlock: IZENUY_clean_sbu_0, # of connection points: 6
#     Node 9, Type 0, BuildingBlock: IZENUY_clean_sbu_0, # of connection points: 6
#     Node 10, Type 0, BuildingBlock: IZENUY_clean_sbu_0, # of connection points: 6
#     Node 11, Type 0, BuildingBlock: IZENUY_clean_sbu_0, # of connection points: 6
#     Node 12, Type 0, BuildingBlock: IZENUY_clean_sbu_0, # of connection points: 6
#     Node 13, Type 0, BuildingBlock: IZENUY_clean_sbu_0, # of connection points: 6
#     Node 14, Type 0, BuildingBlock: IZENUY_clean_sbu_0, # of connection points: 6
#     Node 15, Type 0, BuildingBlock: IZENUY_clean_sbu_0, # of connection points: 6
#     Edge 16, Type (0, 0), BuildingBlock: XUDNAN_clean_linker_2, # of connection points: 2
#     Edge 17, Type (0, 0), BuildingBlock: XUDNAN_clean_linker_2, # of connection points: 2
#     Edge 18, Type (0, 0), BuildingBlock: XUDNAN_clean_linker_2, # of connection points: 2
#     Edge 19, Type (0, 0), BuildingBlock: XUDNAN_clean_linker_2, # of connection points: 2
#     Edge 20, Type (0, 0), BuildingBlock: XUDNAN_clean_linker_2, # of connection points: 2
#     Edge 21, Type (0, 0), BuildingBlock: XUDNAN_clean_linker_2, # of connection points: 2
#     Edge 22, Type (0, 0), BuildingBlock: XUDNAN_clean_linker_2, # of connection points: 2
#     Edge 23, Type (0, 0), BuildingBlock: XUDNAN_clean_linker_2, # of connection points: 2
#     Edge 24, Type (0, 0), BuildingBlock: XUDNAN_clean_linker_2, # of connection points: 2
#     Edge 25, Type (0, 0), BuildingBlock: XUDNAN_clean_linker_2, # of connection points: 2
#     Edge 26, Type (0, 0), BuildingBlock: XUDNAN_clean_linker_2, # of connection points: 2
#     Edge 27, Type (0, 0), BuildingBlock: XUDNAN_clean_linker_2, # of connection points: 2
#     Edge 28, Type (0, 0), BuildingBlock: XUDNAN_clean_linker_2, # of connection points: 2
#     Edge 29, Type (0, 0), BuildingBlock: XUDNAN_clean_linker_2, # of connection points: 2
#     Edge 30, Type (0, 0), BuildingBlock: XUDNAN_clean_linker_2, # of connection points: 2
#     Edge 31, Type (0, 0), BuildingBlock: XUDNAN_clean_linker_2, # of connection points: 2
#     Edge 32, Type (0, 0), BuildingBlock: XUDNAN_clean_linker_2, # of connection points: 2
#     Edge 33, Type (0, 0), BuildingBlock: XUDNAN_clean_linker_2, # of connection points: 2
#     Edge 34, Type (0, 0), BuildingBlock: XUDNAN_clean_linker_2, # of connection points: 2
#     Edge 35, Type (0, 0), BuildingBlock: XUDNAN_clean_linker_2, # of connection points: 2
#     Edge 36, Type (0, 0), BuildingBlock: XUDNAN_clean_linker_2, # of connection points: 2
#     Edge 37, Type (0, 0), BuildingBlock: XUDNAN_clean_linker_2, # of connection points: 2
#     Edge 38, Type (0, 0), BuildingBlock: XUDNAN_clean_linker_2, # of connection points: 2
#     Edge 39, Type (0, 0), BuildingBlock: XUDNAN_clean_linker_2, # of connection points: 2
#     Edge 40, Type (0, 0), BuildingBlock: XUDNAN_clean_linker_2, # of connection points: 2
#     Edge 41, Type (0, 0), BuildingBlock: XUDNAN_clean_linker_2, # of connection points: 2
#     Edge 42, Type (0, 0), BuildingBlock: XUDNAN_clean_linker_2, # of connection points: 2
#     Edge 43, Type (0, 0), BuildingBlock: XUDNAN_clean_linker_2, # of connection points: 2
#     Edge 44, Type (0, 0), BuildingBlock: XUDNAN_clean_linker_2, # of connection points: 2
#     Edge 45, Type (0, 0), BuildingBlock: XUDNAN_clean_linker_2, # of connection points: 2
#     Edge 46, Type (0, 0), BuildingBlock: XUDNAN_clean_linker_2, # of connection points: 2
#     Edge 47, Type (0, 0), BuildingBlock: XUDNAN_clean_linker_2, # of connection points: 2
#     Edge 48, Type (0, 0), BuildingBlock: XUDNAN_clean_linker_2, # of connection points: 2
#     Edge 49, Type (0, 0), BuildingBlock: XUDNAN_clean_linker_2, # of connection points: 2
#     Edge 50, Type (0, 0), BuildingBlock: XUDNAN_clean_linker_2, # of connection points: 2
#     Edge 51, Type (0, 0), BuildingBlock: XUDNAN_clean_linker_2, # of connection points: 2
#     Edge 52, Type (0, 0), BuildingBlock: XUDNAN_clean_linker_2, # of connection points: 2
#     Edge 53, Type (0, 0), BuildingBlock: XUDNAN_clean_linker_2, # of connection points: 2
#     Edge 54, Type (0, 0), BuildingBlock: XUDNAN_clean_linker_2, # of connection points: 2
#     Edge 55, Type (0, 0), BuildingBlock: XUDNAN_clean_linker_2, # of connection points: 2
#     Edge 56, Type (0, 0), BuildingBlock: XUDNAN_clean_linker_2, # of connection points: 2
#     Edge 57, Type (0, 0), BuildingBlock: XUDNAN_clean_linker_2, # of connection points: 2
#     Edge 58, Type (0, 0), BuildingBlock: XUDNAN_clean_linker_2, # of connection points: 2
#     Edge 59, Type (0, 0), BuildingBlock: XUDNAN_clean_linker_2, # of connection points: 2
#     Edge 60, Type (0, 0), BuildingBlock: XUDNAN_clean_linker_2, # of connection points: 2
#     Edge 61, Type (0, 0), BuildingBlock: XUDNAN_clean_linker_2, # of connection points: 2
#     Edge 62, Type (0, 0), BuildingBlock: XUDNAN_clean_linker_2, # of connection points: 2
#     Edge 63, Type (0, 0), BuildingBlock: XUDNAN_clean_linker_2, # of connection points: 2
# Relax obj value: 0.294
# Max RMSD: 0.220
# Mean RMSD: 0.220
data_MOF--net-whk--node1-IZENUY_clean_sbu_0--edge1-XUDNAN_clean_linker_2
_symmetry_space_group_name_H-M    P1
_symmetry_Int_Tables_number       1
_symmetry_cell_setting            triclinic
loop_
_symmetry_equiv_pos_as_xyz
'x, y, z'
_cell_length_a     35.435937
_cell_length_b     35.516984
_cell_length_c     51.100805
_cell_angle_alpha  89.936246
_cell_angle_beta   90.109934
_cell_angle_gamma 89.923469
loop_
_atom_site_label
_atom_site_type_symbol
_atom_site_fract_x
_atom_site_fract_y
_atom_site_fract_z
_atom_type_partial_charge
Fe0 Fe 0.58119 0.15321 0.40748 0.0
Fe1 Fe 0.53372 0.20841 0.43948 0.0
O2 O 0.56512 0.19992 0.41324 0.0
Fe3 Fe 0.58214 0.23723 0.39337 0.0
O4 O 0.62842 0.21565 0.38926 0.0
O5 O 0.62895 0.16727 0.41624 0.0
O6 O 0.5757 0.13623 0.44131 0.0
C7 C 0.57937 0.15482 0.46217 0.0
C8 C 0.57784 0.18313 0.35559 0.0
O9 O 0.56632 0.18768 0.46331 0.0
C10 C 0.50583 0.25942 0.40388 0.0
O11 O 0.53382 0.13867 0.39897 0.0
O12 O 0.50735 0.16404 0.43394 0.0
O13 O 0.56526 0.2148 0.36319 0.0
O14 O 0.59026 0.15979 0.37227 0.0
C15 C 0.58489 0.26993 0.4427 0.0
O16 O 0.49935 0.23119 0.41827 0.0
O17 O 0.53861 0.26548 0.39492 0.0
C18 C 0.50537 0.14339 0.41356 0.0
O19 O 0.55435 0.25376 0.44888 0.0
O20 O 0.60152 0.2624 0.42147 0.0
C21 C 0.64572 0.19404 0.40487 0.0
Fe22 Fe 0.2989 0.53094 0.44035 0.0
Fe23 Fe 0.28421 0.58347 0.39347 0.0
O24 O 0.31605 0.56263 0.41616 0.0
Fe25 Fe 0.3649 0.57432 0.4155 0.0
O26 O 0.3719 0.57093 0.45119 0.0
O27 O 0.31502 0.56125 0.46653 0.0
O28 O 0.253 0.55364 0.44415 0.0
C29 C 0.24317 0.58715 0.43956 0.0
C30 C 0.36677 0.49756 0.42373 0.0
O31 O 0.2564 0.60459 0.42002 0.0
C32 C 0.34485 0.57258 0.36104 0.0
O33 O 0.28034 0.49881 0.41589 0.0
O34 O 0.25302 0.54246 0.39184 0.0
O35 O 0.37789 0.52499 0.40995 0.0
O36 O 0.34189 0.50238 0.44113 0.0
C37 C 0.33275 0.64308 0.40643 0.0
O38 O 0.31018 0.56562 0.36504 0.0
O39 O 0.36677 0.58078 0.37983 0.0
C40 C 0.256 0.50843 0.39906 0.0
O41 O 0.30946 0.62755 0.39129 0.0
O42 O 0.35478 0.62421 0.42078 0.0
C43 C 0.3477 0.57446 0.46926 0.0
Fe44 Fe 0.93871 0.28139 0.40198 0.0
Fe45 Fe 0.94308 0.36568 0.4153 0.0
O46 O 0.9576 0.31856 0.42115 0.0
Fe47 Fe 0.99025 0.3081 0.44654 0.0
O48 O 0.95622 0.27834 0.46324 0.0
O49 O 0.94108 0.24575 0.42833 0.0
O50 O 0.89243 0.29179 0.41367 0.0
C51 C 0.87654 0.3234 0.41356 0.0
C52 C 0.01052 0.25646 0.40556 0.0
O53 O 0.89395 0.35321 0.40747 0.0
C54 C 0.02206 0.37041 0.42357 0.0
O55 O 0.93083 0.31013 0.3718 0.0
O56 O 0.95768 0.36377 0.38144 0.0
O57 O 0.01106 0.26752 0.42923 0.0
O58 O 0.98509 0.26802 0.39002 0.0
C59 C 0.94463 0.36498 0.4691 0.0
O60 O 0.98974 0.38575 0.42235 0.0
O61 O 0.02618 0.33695 0.43138 0.0
C62 C 0.94343 0.34203 0.36473 0.0
O63 O 0.92672 0.37168 0.44843 0.0
O64 O 0.97516 0.34641 0.4687 0.0
C65 C 0.94126 0.24969 0.453 0.0
Fe66 Fe 0.21009 0.98892 0.44473 0.0
Fe67 Fe 0.24183 0.9415 0.39985 0.0
O68 O 0.20297 0.95657 0.41883 0.0
Fe69 Fe 0.15735 0.93856 0.41235 0.0
O70 O 0.15352 0.91959 0.44507 0.0
O71 O 0.17227 0.97011 0.46587 0.0
O72 O 0.24206 0.95698 0.46145 0.0
C73 C 0.272 0.94437 0.45145 0.0
C74 C 0.14547 0.01647 0.42231 0.0
O75 O 0.2768 0.94541 0.42683 0.0
C76 C 0.18104 0.94401 0.36213 0.0
O77 O 0.24955 0.01328 0.42846 0.0
O78 O 0.25141 0.98919 0.38886 0.0
O79 O 0.13286 0.983 0.42078 0.0
O80 O 0.17888 0.02278 0.42959 0.0
C81 C 0.20542 0.87533 0.40787 0.0
O82 O 0.21385 0.93311 0.36911 0.0
O83 O 0.15818 0.95571 0.37909 0.0
C84 C 0.2609 0.01464 0.4049 0.0
O85 O 0.23514 0.89405 0.41057 0.0
O86 O 0.17428 0.89126 0.40251 0.0
C87 C 0.1579 0.93744 0.46609 0.0
Fe88 Fe 0.031 0.80607 0.11496 0.0
Fe89 Fe 0.07989 0.77825 0.16075 0.0
O90 O 0.0629 0.81575 0.14099 0.0
Fe91 Fe 0.07826 0.86255 0.14672 0.0
O92 O 0.09631 0.8669 0.11385 0.0
O93 O 0.04713 0.84448 0.09331 0.0
O94 O 0.06514 0.77595 0.09875 0.0
C95 C 0.07993 0.74725 0.1092 0.0
C96 C 0.9996 0.86899 0.13713 0.0
O97 O 0.079 0.74293 0.13394 0.0
C98 C 0.07519 0.83978 0.19749 0.0
O99 O 1.00927 0.76549 0.13142 0.0
O100 O 0.03252 0.76583 0.17138 0.0
O101 O 0.03225 0.88361 0.13846 0.0
O102 O 0.99506 0.83539 0.12974 0.0
C103 C 0.14384 0.8186 0.15179 0.0
O104 O 0.08633 0.807 0.19107 0.0
O105 O 0.06232 0.86177 0.18031 0.0
C106 C 1.00765 0.75535 0.15518 0.0
O107 O 0.12706 0.78757 0.15083 0.0
O108 O 0.12675 0.84931 0.15579 0.0
C109 C 0.07883 0.86086 0.0929 0.0
Fe110 Fe 0.70793 0.02388 0.11119 0.0
Fe111 Fe 0.74254 0.08074 0.14911 0.0
O112 O 0.70211 0.0607 0.13425 0.0
Fe113 Fe 0.6565 0.07892 0.14167 0.0
O114 O 0.64789 0.09047 0.10778 0.0
O115 O 0.6688 0.03868 0.08963 0.0
O116 O 0.73788 0.05226 0.09046 0.0
C117 C 0.76842 0.06705 0.09755 0.0
C118 C 0.64573 0.9993 0.13842 0.0
O119 O 0.7754 0.07172 0.12164 0.0
C120 C 0.68667 0.08661 0.19008 0.0
O121 O 0.74876 1.00321 0.12853 0.0
O122 O 0.75483 0.03653 0.1647 0.0
O123 O 0.63275 0.03267 0.13946 0.0
O124 O 0.67842 0.99266 0.12994 0.0
C125 C 0.70223 0.14257 0.13467 0.0
O126 O 0.71781 0.09569 0.17946 0.0
O127 O 0.66185 0.0701 0.17665 0.0
C128 C 0.76253 1.00747 0.15137 0.0
O129 O 0.73272 0.12462 0.13348 0.0
O130 O 0.67289 0.12817 0.14473 0.0
C131 C 0.65339 0.07079 0.08773 0.0
Fe132 Fe 0.44156 0.65287 0.14272 0.0
Fe133 Fe 0.49056 0.7109 0.11376 0.0
O134 O 0.45724 0.69999 0.13853 0.0
Fe135 Fe 0.43893 0.73658 0.15844 0.0
O136 O 0.39245 0.72745 0.14682 0.0
O137 O 0.39274 0.66566 0.15103 0.0
O138 O 0.42505 0.65024 0.10925 0.0
C139 C 0.44342 0.65801 0.08894 0.0
C140 C 0.44295 0.67354 0.19404 0.0
O141 O 0.47527 0.67396 0.0907 0.0
C142 C 0.51101 0.76072 0.15564 0.0
O143 O 0.48781 0.63215 0.13509 0.0
O144 O 0.52551 0.68073 0.12889 0.0
O145 O 0.43137 0.70635 0.18793 0.0
O146 O 0.45599 0.65197 0.17671 0.0
C147 C 0.4418 0.76989 0.10775 0.0
O148 O 0.51165 0.7505 0.13184 0.0
O149 O 0.48538 0.74894 0.17076 0.0
C150 C 0.52045 0.64681 0.13536 0.0
O151 O 0.45736 0.74174 0.0973 0.0
O152 O 0.44123 0.77322 0.13253 0.0
C153 C 0.3758 0.69633 0.14662 0.0
Fe154 Fe 0.86488 0.44178 0.14646 0.0
Fe155 Fe 0.8056 0.48677 0.11554 0.0
O156 O 0.81718 0.45516 0.14117 0.0
Fe157 Fe 0.78052 0.43669 0.16098 0.0
O158 O 0.79131 0.39022 0.15052 0.0
O159 O 0.85343 0.39253 0.15484 0.0
O160 O 0.86962 0.42462 0.11338 0.0
C161 C 0.86186 0.44182 0.09261 0.0
C162 C 0.84238 0.44287 0.19743 0.0
O163 O 0.84436 0.47285 0.0935 0.0
C164 C 0.75522 0.50806 0.15642 0.0
O165 O 0.88396 0.48919 0.13869 0.0
O166 O 0.8331 0.52331 0.13074 0.0
O167 O 0.81002 0.43053 0.19097 0.0
O168 O 0.86383 0.45672 0.18032 0.0
C169 C 0.74867 0.43612 0.10976 0.0
O170 O 0.76458 0.50683 0.13248 0.0
O171 O 0.76697 0.48324 0.17223 0.0
C172 C 0.86696 0.52079 0.13809 0.0
O173 O 0.77687 0.4515 0.09921 0.0
O174 O 0.74442 0.43749 0.13447 0.0
C175 C 0.82302 0.37447 0.1512 0.0
Fe176 Fe 0.4424 0.86622 0.64729 0.0
Fe177 Fe 0.4809 0.8055 0.61336 0.0
O178 O 0.45127 0.8181 0.63983 0.0
Fe179 Fe 0.42985 0.78211 0.65869 0.0
O180 O 0.3844 0.79781 0.64832 0.0
O181 O 0.39253 0.8581 0.65683 0.0
O182 O 0.42451 0.87579 0.6148 0.0
C183 C 0.43991 0.8677 0.59341 0.0
C184 C 0.44232 0.84025 0.69712 0.0
O185 O 0.46812 0.84586 0.59243 0.0
C186 C 0.49938 0.75152 0.65303 0.0
O187 O 0.49083 0.88212 0.63904 0.0
O188 O 0.52013 0.82975 0.62798 0.0
O189 O 0.42636 0.81009 0.68959 0.0
O190 O 0.459 0.86061 0.68062 0.0
C191 C 0.42634 0.75235 0.60709 0.0
O192 O 0.4989 0.76269 0.6294 0.0
O193 O 0.47527 0.76361 0.66929 0.0
C194 C 0.52102 0.86311 0.63627 0.0
O195 O 0.44344 0.77982 0.59699 0.0
O196 O 0.42704 0.74752 0.6317 0.0
C197 C 0.37133 0.8304 0.65133 0.0
Fe198 Fe 0.65297 0.43974 0.64151 0.0
Fe199 Fe 0.70734 0.49021 0.61049 0.0
O200 O 0.69911 0.45741 0.636 0.0
Fe201 Fe 0.73724 0.44165 0.65563 0.0
O202 O 0.73002 0.39439 0.6447 0.0
O203 O 0.66879 0.39239 0.65146 0.0
O204 O 0.65001 0.4212 0.60859 0.0
C205 C 0.65586 0.43911 0.58774 0.0
C206 C 0.67469 0.44276 0.69212 0.0
O207 O 0.6703 0.47176 0.58848 0.0
C208 C 0.75819 0.51426 0.65109 0.0
O209 O 0.62928 0.48422 0.63274 0.0
O210 O 0.6757 0.52402 0.62539 0.0
O211 O 0.70809 0.43313 0.6857 0.0
O212 O 0.653 0.45634 0.67497 0.0
C213 C 0.7692 0.44511 0.60456 0.0
O214 O 0.74648 0.51394 0.62756 0.0
O215 O 0.74754 0.48902 0.66696 0.0
C216 C 0.64208 0.51758 0.63213 0.0
O217 O 0.73984 0.45851 0.59409 0.0
O218 O 0.77306 0.44521 0.62928 0.0
C219 C 0.69989 0.37618 0.64698 0.0
Fe220 Fe 0.08058 0.65205 0.64205 0.0
Fe221 Fe 0.02949 0.70764 0.61237 0.0
O222 O 0.06214 0.69811 0.63786 0.0
Fe223 Fe 0.07706 0.73525 0.65855 0.0
O224 O 0.12457 0.72966 0.64779 0.0
O225 O 0.12827 0.66806 0.65207 0.0
O226 O 0.09886 0.65103 0.60891 0.0
C227 C 0.0808 0.65815 0.58826 0.0
C228 C 0.07765 0.6706 0.69328 0.0
O229 O 0.04791 0.67198 0.58952 0.0
C230 C 1.00399 0.7552 0.65417 0.0
O231 O 0.03561 0.62864 0.63318 0.0
O232 O 0.99564 0.67542 0.62616 0.0
O233 O 0.08607 0.70465 0.68795 0.0
O234 O 0.06448 0.64985 0.67555 0.0
C235 C 0.07498 0.76912 0.6082 0.0
O236 O 1.00528 0.74575 0.63022 0.0
O237 O 0.02929 0.74396 0.66987 0.0
C238 C 1.00207 0.64157 0.63218 0.0
O239 O 0.06177 0.74029 0.59716 0.0
O240 O 0.07335 0.77238 0.63296 0.0
C241 C 0.14367 0.69998 0.64898 0.0
Fe242 Fe 0.80897 0.02704 0.61333 0.0
Fe243 Fe 0.7778 0.07741 0.65707 0.0
O244 O 0.81665 0.05896 0.6394 0.0
Fe245 Fe 0.86306 0.07359 0.64739 0.0
O246 O 0.87027 0.09249 0.615 0.0
O247 O 0.84864 0.04401 0.59311 0.0
O248 O 0.77953 0.06052 0.59571 0.0
C249 C 0.74986 0.07516 0.6047 0.0
C250 C 0.87074 0.99544 0.63736 0.0
O251 O 0.74397 0.07535 0.62922 0.0
C252 C 0.83614 0.07125 0.69663 0.0
O253 O 0.76784 1.00496 0.62898 0.0
O254 O 0.76352 0.03098 0.66819 0.0
O255 O 0.88514 0.028 0.63944 0.0
O256 O 0.83753 0.99121 0.62903 0.0
C257 C 0.82021 0.14002 0.64993 0.0
O258 O 0.80469 0.08448 0.68853 0.0
O259 O 0.8584 0.05635 0.68048 0.0
C260 C 0.75572 1.00469 0.65236 0.0
O261 O 0.7892 0.12387 0.64606 0.0
O262 O 0.84919 0.12172 0.65688 0.0
C263 C 0.86499 0.07576 0.59364 0.0
Fe264 Fe 0.94346 0.15979 0.90427 0.0
Fe265 Fe 0.98127 0.21581 0.94221 0.0
O266 O 0.95395 0.20665 0.91393 0.0
Fe267 Fe 0.93628 0.24519 0.89522 0.0
O268 O 0.8894 0.23216 0.90398 0.0
O269 O 0.89448 0.17186 0.89395 0.0
O270 O 0.92318 0.14772 0.93544 0.0
C271 C 0.93608 0.15363 0.95797 0.0
C272 C 0.94702 0.18852 0.85558 0.0
O273 O 0.96356 0.17575 0.96164 0.0
C274 C 1.00767 0.26896 0.90419 0.0
O275 O 0.99053 0.14052 0.91312 0.0
O276 O 0.02049 0.18949 0.92952 0.0
O277 O 0.93203 0.219 0.86342 0.0
O278 O 0.9628 0.16752 0.87204 0.0
C279 C 0.93097 0.27316 0.9471 0.0
O280 O 1.00395 0.25747 0.92765 0.0
O281 O 0.98364 0.26075 0.88663 0.0
C282 C 0.02098 0.15736 0.91913 0.0
O283 O 0.94387 0.24334 0.95699 0.0
O284 O 0.93455 0.27907 0.92276 0.0
C285 C 0.87467 0.20047 0.90007 0.0
Fe286 Fe 0.27686 0.94221 0.89839 0.0
Fe287 Fe 0.36148 0.94253 0.91138 0.0
O288 O 0.31501 0.9586 0.91774 0.0
Fe289 Fe 0.30641 0.98983 0.94409 0.0
O290 O 0.27554 0.95619 0.96001 0.0
O291 O 0.24163 0.94385 0.9251 0.0
O292 O 0.28608 0.89487 0.90863 0.0
C293 C 0.31683 0.87774 0.906 0.0
C294 C 0.25575 0.01501 0.90404 0.0
O295 O 0.34698 0.89514 0.90075 0.0
C296 C 0.37007 0.02026 0.92246 0.0
O297 O 0.3054 0.93587 0.8678 0.0
O298 O 0.36007 0.9605 0.87824 0.0
O299 O 0.26655 0.01338 0.92772 0.0
O300 O 0.26439 0.98949 0.88784 0.0
C301 C 0.36023 0.93951 0.96517 0.0
O302 O 0.38391 0.98735 0.92068 0.0
O303 O 0.33653 0.02537 0.92981 0.0
C304 C 0.33785 0.94792 0.86108 0.0
O305 O 0.36586 0.92267 0.94389 0.0
O306 O 0.34457 0.97162 0.96531 0.0
C307 C 0.24618 0.94264 0.94974 0.0
Fe308 Fe 0.53811 0.30015 0.94258 0.0
Fe309 Fe 0.5884 0.28157 0.89516 0.0
O310 O 0.56849 0.31485 0.91696 0.0
Fe311 Fe 0.57976 0.36363 0.91378 0.0
O312 O 0.57422 0.37509 0.94871 0.0
O313 O 0.56977 0.31992 0.96721 0.0
O314 O 0.56157 0.25546 0.94877 0.0
C315 C 0.59353 0.24286 0.94242 0.0
C316 C 0.50316 0.36493 0.92152 0.0
O317 O 0.60987 0.25418 0.92188 0.0
C318 C 0.57933 0.33954 0.86041 0.0
O319 O 0.5049 0.27772 0.92023 0.0
O320 O 0.54712 0.25093 0.89466 0.0
O321 O 0.53026 0.37483 0.90687 0.0
O322 O 0.50873 0.34268 0.94061 0.0
C323 C 0.64847 0.33049 0.90718 0.0
O324 O 0.56967 0.30619 0.86622 0.0
O325 O 0.58846 0.36236 0.87831 0.0
C326 C 0.51378 0.25321 0.90337 0.0
O327 O 0.63282 0.30645 0.89256 0.0
O328 O 0.62964 0.35413 0.92034 0.0
C329 C 0.58006 0.35376 0.96809 0.0
Fe330 Fe 0.2406 0.57795 0.89507 0.0
Fe331 Fe 0.15822 0.57724 0.91443 0.0
O332 O 0.20592 0.56176 0.91742 0.0
Fe333 Fe 0.21859 0.53057 0.94309 0.0
O334 O 0.26546 0.55068 0.9485 0.0
O335 O 0.26868 0.59879 0.9215 0.0
O336 O 0.21873 0.6238 0.89093 0.0
C337 C 0.19615 0.64212 0.90515 0.0
C338 C 0.26381 0.50193 0.90478 0.0
O339 O 0.17207 0.62604 0.9195 0.0
C340 C 0.15051 0.50133 0.92339 0.0
O341 O 0.21437 0.55963 0.86663 0.0
O342 O 0.15973 0.5834 0.8787 0.0
O343 O 0.23701 0.49577 0.92044 0.0
O344 O 0.26944 0.53475 0.89588 0.0
C345 C 0.16966 0.57756 0.9691 0.0
O346 O 0.1423 0.52897 0.90881 0.0
O347 O 0.1737 0.50511 0.94211 0.0
C348 C 0.18151 0.57157 0.86087 0.0
O349 O 0.1474 0.5753 0.94975 0.0
O350 O 0.20206 0.56314 0.96788 0.0
C351 C 0.27916 0.58228 0.94224 0.0
H352 H 0.57086 0.11966 0.32463 0.0
H353 H 0.61598 0.233 0.32495 0.0
H354 H 0.64983 0.21971 0.28367 0.0
H355 H 0.65001 0.07252 0.29947 0.0
H356 H 0.62454 0.04079 0.27837 0.0
H357 H 0.60226 0.05921 0.30731 0.0
H358 H 0.54711 0.08548 0.27948 0.0
H359 H 0.56882 0.06645 0.25048 0.0
H360 H 0.55714 0.11581 0.25205 0.0
H361 H 0.686 0.19098 0.24577 0.0
H362 H 0.71058 0.1545 0.2085 0.0
H363 H 0.63606 0.06203 0.22834 0.0
C364 C 0.58696 0.14201 0.31554 0.0
C365 C 0.59026 0.17767 0.32791 0.0
C366 C 0.61222 0.20588 0.31563 0.0
C367 C 0.63198 0.19837 0.29231 0.0
C368 C 0.62893 0.16271 0.28099 0.0
C369 C 0.60592 0.13536 0.29169 0.0
C370 C 0.60688 0.09971 0.27508 0.0
C371 C 0.62181 0.06607 0.29102 0.0
C372 C 0.56766 0.09138 0.26359 0.0
C373 C 0.63466 0.11094 0.25374 0.0
C374 C 0.64758 0.14717 0.25791 0.0
C375 C 0.67536 0.16295 0.24203 0.0
C376 C 0.6894 0.14179 0.22092 0.0
C377 C 0.67513 0.10542 0.21513 0.0
C378 C 0.64743 0.08981 0.23202 0.0
H379 H 0.38464 0.68948 0.22887 0.0
H380 H 0.48283 0.61802 0.21831 0.0
H381 H 0.46627 0.5828 0.25828 0.0
H382 H 0.38792 0.69194 0.3011 0.0
H383 H 0.33734 0.69036 0.30446 0.0
H384 H 0.35815 0.71164 0.27591 0.0
H385 H 0.31906 0.66715 0.24638 0.0
H386 H 0.29861 0.64527 0.27484 0.0
H387 H 0.32279 0.61693 0.2509 0.0
H388 H 0.43913 0.55436 0.2991 0.0
H389 H 0.40473 0.53691 0.33939 0.0
H390 H 0.32192 0.62384 0.32354 0.0
C391 C 0.40315 0.66703 0.23536 0.0
C392 C 0.43546 0.65692 0.22048 0.0
C393 C 0.4582 0.62658 0.22935 0.0
C394 C 0.4489 0.60623 0.25202 0.0
C395 C 0.41644 0.61612 0.26579 0.0
C396 C 0.39399 0.64598 0.25799 0.0
C397 C 0.36017 0.64998 0.27621 0.0
C398 C 0.36095 0.68825 0.29025 0.0
C399 C 0.32295 0.64451 0.26118 0.0
C400 C 0.36713 0.6177 0.29533 0.0
C401 C 0.39986 0.59865 0.2889 0.0
C402 C 0.41325 0.56882 0.30413 0.0
C403 C 0.39335 0.55882 0.32688 0.0
C404 C 0.35995 0.57799 0.33413 0.0
C405 C 0.34648 0.6076 0.31791 0.0
H406 H 0.88586 0.32389 0.32946 0.0
H407 H 0.98213 0.39777 0.34018 0.0
H408 H 0.96486 0.4322 0.30007 0.0
H409 H 0.89049 0.32085 0.25705 0.0
H410 H 0.83993 0.32101 0.25312 0.0
H411 H 0.86088 0.30048 0.28197 0.0
H412 H 0.81995 0.34401 0.31093 0.0
H413 H 0.79931 0.3651 0.28218 0.0
H414 H 0.82218 0.39428 0.30628 0.0
H415 H 0.93623 0.46109 0.26032 0.0
H416 H 0.90132 0.47906 0.22053 0.0
H417 H 0.82245 0.3876 0.23383 0.0
C418 C 0.90381 0.3467 0.32298 0.0
C419 C 0.93568 0.35783 0.33806 0.0
C420 C 0.95777 0.38849 0.32909 0.0
C421 C 0.94807 0.40841 0.30632 0.0
C422 C 0.91601 0.3976 0.29242 0.0
C423 C 0.89439 0.36718 0.3001 0.0
C424 C 0.86102 0.36214 0.28149 0.0
C425 C 0.86322 0.32384 0.26758 0.0
C426 C 0.82339 0.36665 0.2961 0.0
C427 C 0.86731 0.39453 0.26233 0.0
C428 C 0.8992 0.41458 0.26921 0.0
C429 C 0.91129 0.44551 0.25469 0.0
C430 C 0.89108 0.45563 0.23209 0.0
C431 C 0.85886 0.43508 0.22393 0.0
C432 C 0.84652 0.4044 0.23966 0.0
H433 H 0.20057 0.88776 0.32607 0.0
H434 H 0.12392 0.98152 0.33815 0.0
H435 H 0.08812 0.96314 0.29892 0.0
H436 H 0.19919 0.8914 0.25333 0.0
H437 H 0.20038 0.84091 0.24989 0.0
H438 H 0.22206 0.86288 0.27791 0.0
H439 H 0.18158 0.82132 0.30851 0.0
H440 H 0.15932 0.79967 0.28059 0.0
H441 H 0.13091 0.82206 0.30533 0.0
H442 H 0.05768 0.93321 0.26034 0.0
H443 H 0.03833 0.89737 0.22136 0.0
H444 H 0.13303 0.82137 0.23262 0.0
C445 C 0.17682 0.90491 0.32008 0.0
C446 C 0.1653 0.93634 0.33538 0.0
C447 C 0.13356 0.95752 0.32691 0.0
C448 C 0.11281 0.94715 0.30465 0.0
C449 C 0.12385 0.91532 0.2907 0.0
C450 C 0.15542 0.89474 0.29773 0.0
C451 C 0.16032 0.86127 0.27926 0.0
C452 C 0.19771 0.86431 0.2642 0.0
C453 C 0.15789 0.82387 0.29433 0.0
C454 C 0.12649 0.8663 0.26099 0.0
C455 C 0.10591 0.89769 0.26817 0.0
C456 C 0.07366 0.90865 0.25448 0.0
C457 C 0.06273 0.8879 0.23237 0.0
C458 C 0.08374 0.85619 0.22387 0.0
C459 C 0.1158 0.84492 0.2388 0.0
H460 H 0.31742 0.8925 0.82478 0.0
H461 H 0.39706 0.98331 0.83791 0.0
H462 H 0.43281 0.96376 0.79896 0.0
H463 H 0.38514 0.82438 0.80459 0.0
H464 H 0.3563 0.80314 0.77956 0.0
H465 H 0.33444 0.82543 0.80734 0.0
H466 H 0.29573 0.86872 0.77657 0.0
H467 H 0.31688 0.84591 0.74873 0.0
H468 H 0.31984 0.89632 0.75215 0.0
H469 H 0.46265 0.93285 0.76038 0.0
H470 H 0.48104 0.89649 0.72144 0.0
H471 H 0.38376 0.82393 0.73203 0.0
C472 C 0.34187 0.90877 0.81911 0.0
C473 C 0.3542 0.9397 0.8346 0.0
C474 C 0.3868 0.95971 0.82653 0.0
C475 C 0.40752 0.94866 0.80443 0.0
C476 C 0.39557 0.91735 0.79026 0.0
C477 C 0.36323 0.89791 0.79695 0.0
C478 C 0.35737 0.86474 0.77837 0.0
C479 C 0.35837 0.8272 0.79337 0.0
C480 C 0.32025 0.8692 0.76304 0.0
C481 C 0.39151 0.86862 0.76038 0.0
C482 C 0.4131 0.89918 0.76778 0.0
C483 C 0.44584 0.90896 0.75433 0.0
C484 C 0.45621 0.8879 0.73223 0.0
C485 C 0.43412 0.8571 0.72346 0.0
C486 C 0.40163 0.84696 0.73822 0.0
H487 H 0.63691 0.38455 0.84294 0.0
H488 H 0.54203 0.31865 0.81522 0.0
H489 H 0.55636 0.33845 0.76968 0.0
H490 H 0.62965 0.46175 0.79808 0.0
H491 H 0.67983 0.46667 0.79356 0.0
H492 H 0.66171 0.44805 0.82383 0.0
H493 H 0.70266 0.38823 0.81821 0.0
H494 H 0.72107 0.40671 0.78797 0.0
H495 H 0.69886 0.36109 0.78854 0.0
H496 H 0.5789 0.36878 0.7276 0.0
H497 H 0.61112 0.4011 0.69137 0.0
H498 H 0.69598 0.44294 0.74523 0.0
C499 C 0.619 0.37436 0.82729 0.0
C500 C 0.58785 0.3504 0.83274 0.0
C501 C 0.56577 0.33711 0.81161 0.0
C502 C 0.57374 0.34831 0.78569 0.0
C503 C 0.60448 0.37213 0.78108 0.0
C504 C 0.62719 0.38446 0.80127 0.0
C505 C 0.65945 0.40862 0.79091 0.0
C506 C 0.65753 0.44865 0.80227 0.0
C507 C 0.69778 0.39005 0.79676 0.0
C508 C 0.65103 0.40867 0.76169 0.0
C509 C 0.61889 0.38773 0.7566 0.0
C510 C 0.60423 0.38487 0.73141 0.0
C511 C 0.62273 0.4036 0.71092 0.0
C512 C 0.65616 0.42472 0.7153 0.0
C513 C 0.67067 0.42694 0.74114 0.0
H514 H 0.08342 0.69381 0.7459 0.0
H515 H 0.11216 0.60265 0.69307 0.0
H516 H 0.14358 0.56883 0.72901 0.0
H517 H 0.16835 0.68973 0.7861 0.0
H518 H 0.14403 0.69796 0.81651 0.0
H519 H 0.12514 0.71659 0.78638 0.0
H520 H 0.06177 0.68259 0.79508 0.0
H521 H 0.08046 0.66406 0.82527 0.0
H522 H 0.06168 0.63252 0.80091 0.0
H523 H 0.17483 0.54503 0.77068 0.0
H524 H 0.19612 0.53056 0.81597 0.0
H525 H 0.14237 0.63304 0.84307 0.0
C526 C 0.09631 0.66676 0.74196 0.0
C527 C 0.095 0.65102 0.71646 0.0
C528 C 0.1122 0.61533 0.71234 0.0
C529 C 0.13049 0.59586 0.73267 0.0
C530 C 0.13117 0.61184 0.7575 0.0
C531 C 0.11404 0.6462 0.7624 0.0
C532 C 0.11724 0.65583 0.79135 0.0
C533 C 0.14004 0.69219 0.79531 0.0
C534 C 0.07795 0.65892 0.80389 0.0
C535 C 0.13871 0.62167 0.80173 0.0
C536 C 0.14714 0.59694 0.78181 0.0
C537 C 0.168 0.56406 0.7865 0.0
C538 C 0.18012 0.55602 0.81227 0.0
C539 C 0.17061 0.58025 0.83319 0.0
C540 C 0.14971 0.61356 0.82761 0.0
H541 H 0.81725 0.13064 0.73068 0.0
H542 H 0.89379 0.03599 0.72166 0.0
H543 H 0.93114 0.0584 0.75904 0.0
H544 H 0.88687 0.19868 0.74738 0.0
H545 H 0.85959 0.22287 0.77192 0.0
H546 H 0.83606 0.19889 0.74548 0.0
H547 H 0.79751 0.15928 0.77838 0.0
H548 H 0.82008 0.18391 0.80494 0.0
H549 H 0.8218 0.13323 0.80362 0.0
H550 H 0.96379 0.09267 0.79462 0.0
H551 H 0.98442 0.13135 0.83178 0.0
H552 H 0.88797 0.20513 0.82038 0.0
C553 C 0.84136 0.1142 0.73695 0.0
C554 C 0.85244 0.08138 0.72289 0.0
C555 C 0.8845 0.06108 0.73184 0.0
C556 C 0.90617 0.07376 0.75305 0.0
C557 C 0.89565 0.10691 0.76562 0.0
C558 C 0.86359 0.12656 0.75842 0.0
C559 C 0.85914 0.16148 0.77567 0.0
C560 C 0.8605 0.19762 0.75911 0.0
C561 C 0.82245 0.15934 0.7916 0.0
C562 C 0.89381 0.15831 0.79342 0.0
C563 C 0.91445 0.12666 0.78693 0.0
C564 C 0.94764 0.11731 0.80007 0.0
C565 C 0.9593 0.13976 0.82115 0.0
C566 C 0.93794 0.17142 0.82939 0.0
C567 C 0.90514 0.18132 0.81471 0.0
H568 H 0.44239 0.13371 0.44457 0.0
H569 H 0.48693 0.10926 0.36732 0.0
H570 H 0.42673 0.07913 0.3552 0.0
H571 H 0.39262 0.04637 0.45195 0.0
H572 H 0.35368 0.06728 0.46931 0.0
H573 H 0.39983 0.08819 0.47128 0.0
H574 H 0.37167 0.1517 0.45528 0.0
H575 H 0.32558 0.13059 0.45281 0.0
H576 H 0.34618 0.15336 0.42473 0.0
H577 H 0.36192 0.05027 0.35166 0.0
H578 H 0.30006 0.01987 0.35853 0.0
H579 H 0.29791 0.06292 0.43804 0.0
C580 C 0.43948 0.12211 0.42508 0.0
C581 C 0.46951 0.12393 0.40692 0.0
C582 C 0.46451 0.1081 0.38167 0.0
C583 C 0.43027 0.09113 0.3745 0.0
C584 C 0.4012 0.09003 0.39279 0.0
C585 C 0.40557 0.10474 0.41766 0.0
C586 C 0.37058 0.09816 0.43405 0.0
C587 C 0.37974 0.07353 0.45805 0.0
C588 C 0.35244 0.13569 0.44219 0.0
C589 C 0.34599 0.07729 0.41457 0.0
C590 C 0.36399 0.07318 0.39081 0.0
C591 C 0.34746 0.05349 0.37016 0.0
C592 C 0.31217 0.03644 0.37421 0.0
C593 C 0.29385 0.039 0.39878 0.0
C594 C 0.31075 0.06068 0.41889 0.0
H595 H 0.43571 0.47424 0.40277 0.0
H596 H 0.33068 0.43253 0.43538 0.0
H597 H 0.35241 0.36744 0.42925 0.0
H598 H 0.4495 0.39878 0.3545 0.0
H599 H 0.49978 0.39616 0.3596 0.0
H600 H 0.47525 0.44009 0.36451 0.0
H601 H 0.50169 0.44408 0.41174 0.0
H602 H 0.52653 0.4004 0.40685 0.0
H603 H 0.49435 0.40526 0.43391 0.0
H604 H 0.38563 0.30678 0.42158 0.0
H605 H 0.43079 0.2545 0.41622 0.0
H606 H 0.51561 0.33372 0.38939 0.0
C607 C 0.41725 0.45136 0.40839 0.0
C608 C 0.38144 0.45868 0.41961 0.0
C609 C 0.35833 0.42785 0.42696 0.0
C610 C 0.37028 0.39063 0.42337 0.0
C611 C 0.40565 0.38429 0.41247 0.0
C612 C 0.42905 0.41367 0.40529 0.0
C613 C 0.46679 0.39866 0.39572 0.0
C614 C 0.4732 0.40904 0.36687 0.0
C615 C 0.49925 0.41295 0.41309 0.0
C616 C 0.46095 0.35646 0.399 0.0
C617 C 0.42524 0.34889 0.40836 0.0
C618 C 0.41362 0.3123 0.41407 0.0
C619 C 0.43949 0.28271 0.41089 0.0
C620 C 0.47677 0.28972 0.40219 0.0
C621 C 0.48718 0.32715 0.3956 0.0
H622 H 0.095 0.3662 0.44197 0.0
H623 H 0.02409 0.42255 0.38472 0.0
H624 H 0.07965 0.45646 0.36771 0.0
H625 H 0.14968 0.44696 0.4571 0.0
H626 H 0.19308 0.42134 0.46197 0.0
H627 H 0.14855 0.39849 0.46759 0.0
H628 H 0.16748 0.34599 0.4349 0.0
H629 H 0.21186 0.36918 0.42886 0.0
H630 H 0.18069 0.35849 0.40197 0.0
H631 H 0.1416 0.48575 0.35785 0.0
H632 H 0.20359 0.51668 0.36038 0.0
H633 H 0.23459 0.44416 0.42546 0.0
C634 C 0.09135 0.38547 0.42572 0.0
C635 C 0.05535 0.39173 0.41456 0.0
C636 C 0.05142 0.41757 0.39363 0.0
C637 C 0.08286 0.4366 0.38364 0.0
C638 C 0.11801 0.42975 0.39495 0.0
C639 C 0.12239 0.40535 0.41583 0.0
C640 C 0.16257 0.40617 0.42614 0.0
C641 C 0.16351 0.41902 0.45489 0.0
C642 C 0.18178 0.36766 0.42276 0.0
C643 C 0.17984 0.4354 0.40811 0.0
C644 C 0.1538 0.44787 0.38988 0.0
C645 C 0.16231 0.47612 0.37195 0.0
C646 C 0.1977 0.49345 0.3735 0.0
C647 C 0.22403 0.48292 0.39312 0.0
C648 C 0.21541 0.45247 0.40996 0.0
H649 H 0.14968 0.08824 0.44168 0.0
H650 H 0.08636 0.0185 0.38761 0.0
H651 H 0.04918 0.07431 0.37386 0.0
H652 H 0.07047 0.14393 0.46238 0.0
H653 H 0.09782 0.1864 0.46578 0.0
H654 H 0.12006 0.14124 0.47013 0.0
H655 H 0.16923 0.15877 0.43465 0.0
H656 H 0.14664 0.20373 0.42986 0.0
H657 H 0.15328 0.17246 0.40249 0.0
H658 H 0.01962 0.13871 0.36559 0.0
H659 H 0.99337 0.20305 0.36854 0.0
H660 H 0.07432 0.22961 0.42958 0.0
C661 C 0.12796 0.08469 0.42694 0.0
C662 C 0.12095 0.04903 0.41565 0.0
C663 C 0.09201 0.04549 0.39665 0.0
C664 C 0.07104 0.07711 0.38854 0.0
C665 C 0.07906 0.112 0.39982 0.0
C666 C 0.10638 0.11575 0.41897 0.0
C667 C 0.10795 0.15574 0.42925 0.0
C668 C 0.0985 0.15688 0.45862 0.0
C669 C 0.14658 0.17372 0.42373 0.0
C670 C 0.07717 0.17398 0.41296 0.0
C671 C 0.06128 0.14851 0.39575 0.0
C672 C 0.0319 0.15885 0.379 0.0
C673 C 0.01739 0.19565 0.38064 0.0
C674 C 0.03185 0.22157 0.39921 0.0
C675 C 0.06282 0.21064 0.41503 0.0
H676 H 0.92728 0.86357 0.11802 0.0
H677 H 0.99678 0.92567 0.17297 0.0
H678 H 0.94091 0.96222 0.18691 0.0
H679 H 0.87332 0.94281 0.09739 0.0
H680 H 0.83013 0.91669 0.09337 0.0
H681 H 0.87487 0.89331 0.08965 0.0
H682 H 0.85516 0.84459 0.1249 0.0
H683 H 0.81056 0.8683 0.12899 0.0
H684 H 0.84096 0.86074 0.15684 0.0
H685 H 0.87781 0.99288 0.19424 0.0
H686 H 0.81499 0.02209 0.18966 0.0
H687 H 0.7871 0.94206 0.12844 0.0
C688 C 0.93062 0.88467 0.13312 0.0
C689 C 0.96628 0.89173 0.14451 0.0
C690 C 0.96972 0.91999 0.1639 0.0
C691 C 0.93809 0.9406 0.17213 0.0
C692 C 0.90327 0.93287 0.16061 0.0
C693 C 0.89946 0.90602 0.14122 0.0
C694 C 0.85964 0.90559 0.13034 0.0
C695 C 0.8595 0.91519 0.10096 0.0
C696 C 0.84046 0.86753 0.13559 0.0
C697 C 0.8418 0.93671 0.1464 0.0
C698 C 0.8672 0.95152 0.16414 0.0
C699 C 0.85762 0.98143 0.18048 0.0
C700 C 0.82169 0.99769 0.17784 0.0
C701 C 0.79596 0.98445 0.15867 0.0
C702 C 0.80592 0.95273 0.14341 0.0
H703 H 0.57605 0.78637 0.13321 0.0
H704 H 0.49333 0.81396 0.19264 0.0
H705 H 0.52022 0.87793 0.19622 0.0
H706 H 0.65478 0.84322 0.16167 0.0
H707 H 0.67161 0.85618 0.12964 0.0
H708 H 0.64871 0.81145 0.1345 0.0
H709 H 0.60103 0.82811 0.09776 0.0
H710 H 0.62313 0.87318 0.09317 0.0
H711 H 0.57341 0.87062 0.1003 0.0
H712 H 0.55026 0.94226 0.18805 0.0
H713 H 0.58699 0.99797 0.17363 0.0
H714 H 0.65123 0.92686 0.12102 0.0
C715 C 0.56437 0.80544 0.14761 0.0
C716 C 0.5327 0.79499 0.16274 0.0
C717 C 0.51793 0.82101 0.18111 0.0
C718 C 0.53283 0.8576 0.18311 0.0
C719 C 0.56293 0.86754 0.16696 0.0
C720 C 0.57915 0.84182 0.15006 0.0
C721 C 0.61025 0.85976 0.13406 0.0
C722 C 0.64861 0.84158 0.14035 0.0
C723 C 0.6014 0.8578 0.10459 0.0
C724 C 0.60833 0.89984 0.14402 0.0
C725 C 0.5808 0.90396 0.16291 0.0
C726 C 0.57237 0.93915 0.17364 0.0
C727 C 0.59312 0.97069 0.16518 0.0
C728 C 0.62214 0.96675 0.14636 0.0
C729 C 0.62959 0.93076 0.13572 0.0
H730 H 0.59362 0.65204 0.11846 0.0
H731 H 0.52082 0.59009 0.17128 0.0
H732 H 0.57581 0.55367 0.18721 0.0
H733 H 0.64851 0.57271 0.09984 0.0
H734 H 0.69185 0.59888 0.09696 0.0
H735 H 0.64733 0.62216 0.09185 0.0
H736 H 0.66514 0.6711 0.12745 0.0
H737 H 0.70945 0.64739 0.13298 0.0
H738 H 0.6775 0.65513 0.15985 0.0
H739 H 0.63859 0.52308 0.19668 0.0
H740 H 0.70161 0.49359 0.19371 0.0
H741 H 0.7326 0.57333 0.13311 0.0
C742 C 0.58938 0.63097 0.13351 0.0
C743 C 0.5531 0.6239 0.14374 0.0
C744 C 0.54842 0.59573 0.16309 0.0
C745 C 0.57952 0.57523 0.17246 0.0
C746 C 0.61502 0.58301 0.16209 0.0
C747 C 0.61997 0.60973 0.14269 0.0
C748 C 0.66031 0.61013 0.13301 0.0
C749 C 0.66209 0.60037 0.10368 0.0
C750 C 0.67921 0.64821 0.13867 0.0
C751 C 0.67716 0.57912 0.14971 0.0
C752 C 0.65084 0.56441 0.1668 0.0
C753 C 0.65951 0.53451 0.18348 0.0
C754 C 0.69552 0.51813 0.18183 0.0
C755 C 0.72204 0.53129 0.16326 0.0
C756 C 0.713 0.56293 0.14766 0.0
H757 H 0.0208 0.6848 0.13792 0.0
H758 H 0.9427 0.751 0.184 0.0
H759 H 0.90032 0.69555 0.18762 0.0
H760 H 0.95456 0.63659 0.10105 0.0
H761 H 0.97933 0.59223 0.10041 0.0
H762 H 1.00526 0.63543 0.10406 0.0
H763 H 0.03555 0.61048 0.14683 0.0
H764 H 1.00998 0.56694 0.14324 0.0
H765 H 1.00572 0.59393 0.17295 0.0
H766 H 0.86342 0.63598 0.18109 0.0
H767 H 0.83586 0.57515 0.16787 0.0
H768 H 0.93948 0.54578 0.12775 0.0
C769 C 0.99521 0.68716 0.14937 0.0
C770 C 0.98496 0.72175 0.16104 0.0
C771 C 0.95109 0.72444 0.17537 0.0
C772 C 0.92694 0.69316 0.17741 0.0
C773 C 0.93751 0.65952 0.16524 0.0
C774 C 0.97114 0.65617 0.15182 0.0
C775 C 0.97507 0.61755 0.1394 0.0
C776 C 0.97876 0.62066 0.10946 0.0
C777 C 1.00857 0.59595 0.15133 0.0
C778 C 0.93781 0.59992 0.14719 0.0
C779 C 0.91664 0.62468 0.16211 0.0
C780 C 0.88003 0.61614 0.1699 0.0
C781 C 0.86458 0.5816 0.16218 0.0
C782 C 0.88571 0.55569 0.14704 0.0
C783 C 0.92304 0.56475 0.13978 0.0
H784 H 0.68095 0.02115 0.65347 0.0
H785 H 0.76093 0.92953 0.66108 0.0
H786 H 0.7082 0.88381 0.66153 0.0
H787 H 0.60244 0.9788 0.69271 0.0
H788 H 0.56688 0.99664 0.67067 0.0
H789 H 0.61023 0.0223 0.67533 0.0
H790 H 0.62196 0.02084 0.62534 0.0
H791 H 0.579 0.99476 0.6205 0.0
H792 H 0.62312 0.97622 0.60859 0.0
H793 H 0.64851 0.84828 0.65613 0.0
H794 H 0.58525 0.824 0.64632 0.0
H795 H 0.54221 0.93835 0.64099 0.0
C796 C 0.68703 0.99154 0.6564 0.0
C797 C 0.72469 0.97865 0.65828 0.0
C798 C 0.73211 0.93974 0.66051 0.0
C799 C 0.70237 0.9137 0.66063 0.0
C800 C 0.66549 0.92714 0.65816 0.0
C801 C 0.65761 0.96515 0.65621 0.0
C802 C 0.61583 0.97179 0.65113 0.0
C803 C 0.59778 0.99368 0.67382 0.0
C804 C 0.60963 0.9921 0.62483 0.0
C805 C 0.60152 0.93154 0.65013 0.0
C806 C 0.63075 0.90638 0.65438 0.0
C807 C 0.62534 0.86769 0.65308 0.0
C808 C 0.58921 0.85421 0.64729 0.0
C809 C 0.55858 0.87922 0.64281 0.0
C810 C 0.56487 0.9185 0.64453 0.0
H811 H 0.64609 0.59109 0.61556 0.0
H812 H 0.58251 0.51614 0.66595 0.0
H813 H 0.54363 0.56988 0.68084 0.0
H814 H 0.64526 0.67331 0.65755 0.0
H815 H 0.63861 0.70595 0.63091 0.0
H816 H 0.66314 0.66218 0.62547 0.0
H817 H 0.61629 0.64508 0.58831 0.0
H818 H 0.5921 0.68904 0.59336 0.0
H819 H 0.56632 0.64538 0.59489 0.0
H820 H 0.51164 0.63224 0.6903 0.0
H821 H 0.48265 0.69556 0.68821 0.0
H822 H 0.56495 0.72884 0.62991 0.0
C823 C 0.62406 0.58604 0.6298 0.0
C824 C 0.61739 0.54947 0.63968 0.0
C825 C 0.58796 0.5439 0.65801 0.0
C826 C 0.56599 0.57431 0.66678 0.0
C827 C 0.57351 0.61009 0.65683 0.0
C828 C 0.60139 0.61594 0.63838 0.0
C829 C 0.60184 0.65654 0.62925 0.0
C830 C 0.63945 0.67561 0.63622 0.0
C831 C 0.59363 0.65915 0.59971 0.0
C832 C 0.56967 0.67256 0.64527 0.0
C833 C 0.55418 0.64555 0.66147 0.0
C834 C 0.5236 0.65363 0.67771 0.0
C835 C 0.50752 0.6898 0.67659 0.0
C836 C 0.52164 0.7172 0.65899 0.0
C837 C 0.55372 0.70857 0.64369 0.0
H838 H 0.93303 0.64055 0.60823 0.0
H839 H 0.99718 0.58867 0.67094 0.0
H840 H 0.93981 0.55456 0.68539 0.0
H841 H 0.84628 0.6531 0.64129 0.0
H842 H 0.81705 0.64029 0.6138 0.0
H843 H 0.86296 0.66051 0.60837 0.0
H844 H 0.88239 0.60295 0.58018 0.0
H845 H 0.8362 0.58309 0.585 0.0
H846 H 0.87758 0.5562 0.59353 0.0
H847 H 0.87385 0.52842 0.69402 0.0
H848 H 0.8087 0.50391 0.69156 0.0
H849 H 0.78896 0.57124 0.62191 0.0
C850 C 0.93504 0.62171 0.62485 0.0
C851 C 0.96946 0.6172 0.63852 0.0
C852 C 0.97113 0.59217 0.66007 0.0
C853 C 0.93861 0.57303 0.66856 0.0
C854 C 0.90484 0.57876 0.65499 0.0
C855 C 0.90314 0.60176 0.63317 0.0
C856 C 0.86404 0.60159 0.62112 0.0
C857 C 0.84657 0.64124 0.62117 0.0
C858 C 0.86513 0.58497 0.59332 0.0
C859 C 0.84367 0.57561 0.63989 0.0
C860 C 0.86752 0.56292 0.65942 0.0
C861 C 0.85501 0.5381 0.67873 0.0
C862 C 0.81774 0.52462 0.67733 0.0
C863 C 0.79343 0.53566 0.65659 0.0
C864 C 0.80653 0.5624 0.63816 0.0
H865 H 0.86612 0.92398 0.61702 0.0
H866 H 0.92555 0.99077 0.67488 0.0
H867 H 0.96037 0.93399 0.68939 0.0
H868 H 0.85891 0.83723 0.6545 0.0
H869 H 0.86789 0.80738 0.62669 0.0
H870 H 0.84551 0.85252 0.62213 0.0
H871 H 0.89737 0.87189 0.58904 0.0
H872 H 0.91944 0.82661 0.59317 0.0
H873 H 0.94628 0.86897 0.59864 0.0
H874 H 0.98891 0.86964 0.69748 0.0
H875 H 0.0166 0.80609 0.69363 0.0
H876 H 0.94117 0.78204 0.62879 0.0
C877 C 0.88634 0.92658 0.63283 0.0
C878 C 0.89305 0.96176 0.64492 0.0
C879 C 0.92014 0.96414 0.66526 0.0
C880 C 0.93975 0.93197 0.67381 0.0
C881 C 0.93229 0.89763 0.66162 0.0
C882 C 0.90674 0.8949 0.64124 0.0
C883 C 0.90623 0.85542 0.62997 0.0
C884 C 0.86732 0.83706 0.63354 0.0
C885 C 0.91805 0.85576 0.601 0.0
C886 C 0.93576 0.83644 0.647 0.0
C887 C 0.94984 0.86103 0.66553 0.0
C888 C 0.97803 0.85014 0.68307 0.0
C889 C 0.99337 0.81377 0.68089 0.0
C890 C 0.98102 0.78887 0.66097 0.0
C891 C 0.95102 0.8002 0.64437 0.0
H892 H 0.0415 0.08216 0.91044 0.0
H893 H 0.08636 0.19574 0.91402 0.0
H894 H 0.14974 0.17187 0.90487 0.0
H895 H 0.11915 0.03917 0.94323 0.0
H896 H 0.11918 0.99678 0.92388 0.0
H897 H 0.07606 0.02282 0.9283 0.0
H898 H 0.0681 0.02754 0.87799 0.0
H899 H 0.11146 1.00175 0.87346 0.0
H900 H 0.10555 0.04742 0.85857 0.0
H901 H 0.20912 0.13672 0.89935 0.0
H902 H 0.26161 0.0907 0.89941 0.0
H903 H 0.18102 0.99916 0.89843 0.0
C904 C 0.06462 0.10193 0.90897 0.0
C905 C 0.05867 0.14096 0.91301 0.0
C906 C 0.08992 0.16579 0.91122 0.0
C907 C 0.1262 0.15254 0.90581 0.0
C908 C 0.13127 0.11414 0.90218 0.0
C909 C 0.10154 0.08901 0.90377 0.0
C910 C 0.1158 0.04882 0.90088 0.0
C911 C 0.10703 0.02553 0.92554 0.0
C912 C 0.09923 0.03029 0.87625 0.0
C913 C 0.158 0.05553 0.89795 0.0
C914 C 0.16613 0.09353 0.8985 0.0
C915 C 0.20316 0.10688 0.89828 0.0
C916 C 0.2328 0.08068 0.89815 0.0
C917 C 0.22521 0.04169 0.89789 0.0
C918 C 0.18738 0.02896 0.89741 0.0
H919 H 0.36907 0.09148 0.94371 0.0
H920 H 0.42298 0.02322 0.88413 0.0
H921 H 0.45897 0.07869 0.86913 0.0
H922 H 0.36364 0.17942 0.90694 0.0
H923 H 0.37552 0.20849 0.93464 0.0
H924 H 0.35138 0.1644 0.93955 0.0
H925 H 0.40412 0.14221 0.97125 0.0
H926 H 0.42797 0.18644 0.96678 0.0
H927 H 0.45253 0.14292 0.96047 0.0
H928 H 0.48907 0.14068 0.86064 0.0
H929 H 0.52033 0.20224 0.86389 0.0
H930 H 0.45054 0.23039 0.93087 0.0
C931 C 0.38837 0.08836 0.92745 0.0
C932 C 0.39322 0.05314 0.91497 0.0
C933 C 0.41908 0.0499 0.89403 0.0
C934 C 0.43929 0.08133 0.8852 0.0
C935 C 0.43369 0.11572 0.89773 0.0
C936 C 0.40949 0.11933 0.91875 0.0
C937 C 0.41142 0.15873 0.93022 0.0
C938 C 0.37321 0.17895 0.92768 0.0
C939 C 0.42482 0.15749 0.95887 0.0
C940 C 0.44082 0.17653 0.91254 0.0
C941 C 0.45252 0.15137 0.89358 0.0
C942 C 0.48018 0.16062 0.87541 0.0
C943 C 0.4977 0.1958 0.87739 0.0
C944 C 0.48804 0.22126 0.89768 0.0
C945 C 0.45824 0.21189 0.91492 0.0
H946 H 0.4788 0.43296 0.90001 0.0
H947 H 0.43877 0.32768 0.93295 0.0
H948 H 0.3731 0.34859 0.92709 0.0
H949 H 0.41051 0.49027 0.93173 0.0
H950 H 0.40455 0.52272 0.90489 0.0
H951 H 0.44859 0.49811 0.90903 0.0
H952 H 0.4431 0.4723 0.86177 0.0
H953 H 0.39882 0.49665 0.8576 0.0
H954 H 0.40147 0.44657 0.85223 0.0
H955 H 0.31186 0.38159 0.92045 0.0
H956 H 0.25924 0.4268 0.91652 0.0
H957 H 0.33738 0.51189 0.88868 0.0
C958 C 0.45614 0.4142 0.90561 0.0
C959 C 0.46401 0.37861 0.9169 0.0
C960 C 0.43354 0.35513 0.92441 0.0
C961 C 0.39604 0.36663 0.92098 0.0
C962 C 0.38912 0.4019 0.9101 0.0
C963 C 0.41821 0.42555 0.90269 0.0
C964 C 0.4027 0.46326 0.89352 0.0
C965 C 0.41746 0.49548 0.91083 0.0
C966 C 0.41209 0.47008 0.86455 0.0
C967 C 0.36058 0.45717 0.89737 0.0
C968 C 0.35343 0.42135 0.9066 0.0
C969 C 0.31703 0.40963 0.91298 0.0
C970 C 0.28725 0.43552 0.91064 0.0
C971 C 0.29391 0.47288 0.90208 0.0
C972 C 0.33107 0.48338 0.89476 0.0
H973 H 0.08158 0.48063 0.90117 0.0
H974 H 0.18533 0.43542 0.93395 0.0
H975 H 0.16287 0.37115 0.92589 0.0
H976 H 0.02188 0.4122 0.93052 0.0
H977 H 0.98959 0.40876 0.90334 0.0
H978 H 0.0153 0.45171 0.9088 0.0
H979 H 0.04156 0.44823 0.86157 0.0
H980 H 0.01621 0.40494 0.85612 0.0
H981 H 0.06653 0.40663 0.85114 0.0
H982 H 0.12873 0.31235 0.91813 0.0
H983 H 0.08172 0.26166 0.91452 0.0
H984 H 0.99852 0.34179 0.8868 0.0
C985 C 0.09962 0.45713 0.90632 0.0
C986 C 0.13528 0.46314 0.91818 0.0
C987 C 0.15785 0.43164 0.92503 0.0
C988 C 0.1455 0.39492 0.92029 0.0
C989 C 0.11029 0.38982 0.9088 0.0
C990 C 0.08735 0.41987 0.90212 0.0
C991 C 0.04928 0.40591 0.89231 0.0
C992 C 0.01712 0.42051 0.90979 0.0
C993 C 0.04303 0.4171 0.86357 0.0
C994 C 0.05433 0.36351 0.89509 0.0
C995 C 0.09009 0.35507 0.90424 0.0
C996 C 0.1009 0.31843 0.91045 0.0
C997 C 0.07412 0.28972 0.90817 0.0
C998 C 0.03704 0.29757 0.89952 0.0
C999 C 0.02721 0.33483 0.89233 0.0
H1000 H 0.69899 0.21754 0.37162 0.0
H1001 H 0.67547 0.19972 0.4539 0.0
H1002 H 0.7285 0.24204 0.46557 0.0
H1003 H 0.80173 0.22446 0.37669 0.0
H1004 H 0.80308 0.25989 0.35141 0.0
H1005 H 0.76638 0.225 0.35127 0.0
H1006 H 0.71723 0.27935 0.35009 0.0
H1007 H 0.75395 0.31426 0.35205 0.0
H1008 H 0.71677 0.31362 0.37609 0.0
H1009 H 0.78193 0.2889 0.46753 0.0
H1010 H 0.84086 0.32433 0.45989 0.0
H1011 H 0.82455 0.31484 0.37627 0.0
C1012 C 0.70607 0.22138 0.3921 0.0
C1013 C 0.68389 0.20523 0.41192 0.0
C1014 C 0.69305 0.21125 0.43852 0.0
C1015 C 0.72242 0.2359 0.44526 0.0
C1016 C 0.74179 0.25392 0.42507 0.0
C1017 C 0.73464 0.24608 0.39905 0.0
C1018 C 0.75909 0.26896 0.38093 0.0
C1019 C 0.78407 0.24304 0.36411 0.0
C1020 C 0.73531 0.29562 0.36379 0.0
C1021 C 0.7818 0.29063 0.40079 0.0
C1022 C 0.77102 0.28211 0.42616 0.0
C1023 C 0.79026 0.29622 0.44781 0.0
C1024 C 0.82321 0.31693 0.44332 0.0
C1025 C 0.83612 0.32296 0.4175 0.0
C1026 C 0.81404 0.31186 0.39607 0.0
H1027 H 0.31064 0.68887 0.44603 0.0
H1028 H 0.34749 0.68719 0.36525 0.0
H1029 H 0.31041 0.74439 0.35628 0.0
H1030 H 0.22051 0.71385 0.43626 0.0
H1031 H 0.21488 0.74654 0.46291 0.0
H1032 H 0.24948 0.70952 0.46515 0.0
H1033 H 0.30352 0.75801 0.47296 0.0
H1034 H 0.26824 0.79458 0.47265 0.0
H1035 H 0.30805 0.79738 0.45087 0.0
H1036 H 0.25835 0.7906 0.3535 0.0
H1037 H 0.2148 0.84368 0.3609 0.0
H1038 H 0.21548 0.8203 0.44409 0.0
C1039 C 0.31305 0.70223 0.42703 0.0
C1040 C 0.33194 0.68406 0.40631 0.0
C1041 C 0.3336 0.70134 0.38139 0.0
C1042 C 0.3119 0.73323 0.37597 0.0
C1043 C 0.28996 0.74801 0.39601 0.0
C1044 C 0.29207 0.73469 0.42142 0.0
C1045 C 0.26538 0.75613 0.43918 0.0
C1046 C 0.23584 0.72992 0.4516 0.0
C1047 C 0.28762 0.77781 0.46017 0.0
C1048 C 0.24727 0.78258 0.41952 0.0
C1049 C 0.26112 0.77649 0.39464 0.0
C1050 C 0.24785 0.7963 0.37297 0.0
C1051 C 0.2224 0.82574 0.37723 0.0
C1052 C 0.21164 0.83551 0.40294 0.0
C1053 C 0.22265 0.8126 0.42419 0.0
H1054 H 0.32346 0.70472 0.1839 0.0
H1055 H 0.34074 0.69793 0.10023 0.0
H1056 H 0.28467 0.73787 0.09282 0.0
H1057 H 0.21604 0.70913 0.18128 0.0
H1058 H 0.21587 0.74085 0.2088 0.0
H1059 H 0.25212 0.70553 0.20609 0.0
H1060 H 0.30174 0.75874 0.21047 0.0
H1061 H 0.26573 0.79451 0.21102 0.0
H1062 H 0.30245 0.79628 0.18668 0.0
H1063 H 0.23515 0.78744 0.09508 0.0
H1064 H 0.17949 0.82617 0.10597 0.0
H1065 H 0.19556 0.8015 0.18821 0.0
C1066 C 0.31365 0.70944 0.16405 0.0
C1067 C 0.33549 0.69801 0.14256 0.0
C1068 C 0.32335 0.70582 0.11678 0.0
C1069 C 0.2922 0.72919 0.11246 0.0
C1070 C 0.27364 0.74362 0.13422 0.0
C1071 C 0.28268 0.7327 0.15947 0.0
C1072 C 0.25916 0.75337 0.17946 0.0
C1073 C 0.2343 0.72558 0.19479 0.0
C1074 C 0.28377 0.77712 0.19799 0.0
C1075 C 0.23607 0.77816 0.16152 0.0
C1076 C 0.24537 0.77261 0.13555 0.0
C1077 C 0.22738 0.79187 0.11532 0.0
C1078 C 0.19652 0.8146 0.12169 0.0
C1079 C 0.18416 0.8171 0.1479 0.0
C1080 C 0.20551 0.80083 0.16816 0.0
H1081 H 0.79925 0.32252 0.18521 0.0
H1082 H 0.83931 0.33925 0.10617 0.0
H1083 H 0.80408 0.28309 0.09164 0.0
H1084 H 0.79455 0.21599 0.18334 0.0
H1085 H 0.75257 0.21702 0.2032 0.0
H1086 H 0.78796 0.25287 0.20712 0.0
H1087 H 0.73545 0.30277 0.19955 0.0
H1088 H 0.70067 0.26693 0.19347 0.0
H1089 H 0.70947 0.30269 0.16917 0.0
H1090 H 0.7568 0.23189 0.08481 0.0
H1091 H 0.71554 0.17618 0.08851 0.0
H1092 H 0.70285 0.19641 0.17152 0.0
C1093 C 0.80267 0.31262 0.1653 0.0
C1094 C 0.82263 0.33419 0.14686 0.0
C1095 C 0.82527 0.32196 0.12064 0.0
C1096 C 0.8045 0.29078 0.11213 0.0
C1097 C 0.78172 0.27245 0.1303 0.0
C1098 C 0.7818 0.28194 0.15654 0.0
C1099 C 0.75335 0.25918 0.17181 0.0
C1100 C 0.77329 0.23479 0.19258 0.0
C1101 C 0.72296 0.28443 0.18422 0.0
C1102 C 0.73696 0.23562 0.15003 0.0
C1103 C 0.75334 0.24407 0.12618 0.0
C1104 C 0.74383 0.22494 0.10336 0.0
C1105 C 0.71971 0.19398 0.1055 0.0
C1106 C 0.70587 0.18273 0.13024 0.0
C1107 C 0.71232 0.20528 0.15236 0.0
H1108 H 0.19495 0.71926 0.61278 0.0
H1109 H 0.1788 0.70038 0.69569 0.0
H1110 H 0.2314 0.74386 0.70552 0.0
H1111 H 0.30078 0.72897 0.61591 0.0
H1112 H 0.29963 0.7637 0.59018 0.0
H1113 H 0.26478 0.72693 0.59098 0.0
H1114 H 0.21295 0.77872 0.58962 0.0
H1115 H 0.2477 0.81561 0.59087 0.0
H1116 H 0.21111 0.81344 0.61529 0.0
H1117 H 0.27925 0.79614 0.70613 0.0
H1118 H 0.3349 0.83597 0.69744 0.0
H1119 H 0.31889 0.82082 0.61419 0.0
C1120 C 0.20419 0.72246 0.63289 0.0
C1121 C 0.18368 0.70607 0.65351 0.0
C1122 C 0.1952 0.71191 0.67969 0.0
C1123 C 0.22428 0.73732 0.68543 0.0
C1124 C 0.24158 0.75594 0.66466 0.0
C1125 C 0.23321 0.7475 0.63889 0.0
C1126 C 0.25597 0.7713 0.62015 0.0
C1127 C 0.28184 0.74626 0.60333 0.0
C1128 C 0.23038 0.79623 0.60298 0.0
C1129 C 0.27822 0.79475 0.63943 0.0
C1130 C 0.26891 0.78607 0.66501 0.0
C1131 C 0.28692 0.80303 0.68621 0.0
C1132 C 0.31788 0.82643 0.68112 0.0
C1133 C 0.3307 0.83148 0.65519 0.0
C1134 C 0.30882 0.81813 0.63412 0.0
H1135 H 0.80616 0.1911 0.61259 0.0
H1136 H 0.82397 0.17697 0.69583 0.0
H1137 H 0.78743 0.23497 0.70438 0.0
H1138 H 0.80832 0.29837 0.61345 0.0
H1139 H 0.77346 0.29982 0.58776 0.0
H1140 H 0.80693 0.26168 0.58909 0.0
H1141 H 0.75049 0.21523 0.58857 0.0
H1142 H 0.71681 0.25316 0.58928 0.0
H1143 H 0.71585 0.21738 0.61432 0.0
H1144 H 0.73931 0.28642 0.70388 0.0
H1145 H 0.70044 0.34258 0.69405 0.0
H1146 H 0.71558 0.32346 0.61106 0.0
C1147 C 0.80432 0.20171 0.63244 0.0
C1148 C 0.81785 0.18033 0.65363 0.0
C1149 C 0.81421 0.19379 0.67948 0.0
C1150 C 0.79292 0.22616 0.68448 0.0
C1151 C 0.77656 0.24465 0.66324 0.0
C1152 C 0.78358 0.23408 0.63766 0.0
C1153 C 0.76198 0.25816 0.6184 0.0
C1154 C 0.7893 0.28086 0.60116 0.0
C1155 C 0.73468 0.23455 0.60168 0.0
C1156 C 0.74084 0.28318 0.63719 0.0
C1157 C 0.7491 0.2745 0.66296 0.0
C1158 C 0.73289 0.29381 0.68381 0.0
C1159 C 0.71018 0.32499 0.67809 0.0
C1160 C 0.70473 0.33637 0.65186 0.0
C1161 C 0.7186 0.31432 0.6312 0.0
H1162 H 0.82024 0.20283 0.93695 0.0
H1163 H 0.84041 0.20798 0.85355 0.0
H1164 H 0.7881 0.25318 0.8486 0.0
H1165 H 0.71225 0.21356 0.93082 0.0
H1166 H 0.711 0.23951 0.96109 0.0
H1167 H 0.74556 0.20292 0.95649 0.0
H1168 H 0.79752 0.25154 0.96799 0.0
H1169 H 0.76349 0.28902 0.97061 0.0
H1170 H 0.8025 0.2933 0.94822 0.0
H1171 H 0.74594 0.30861 0.85463 0.0
H1172 H 0.69232 0.34916 0.86658 0.0
H1173 H 0.69463 0.30434 0.94541 0.0
C1174 C 0.81168 0.21127 0.91743 0.0
C1175 C 0.83416 0.20215 0.89556 0.0
C1176 C 0.82307 0.21437 0.87038 0.0
C1177 C 0.7941 0.24086 0.86754 0.0
C1178 C 0.77566 0.25313 0.89001 0.0
C1179 C 0.78211 0.23696 0.91421 0.0
C1180 C 0.75772 0.25501 0.93511 0.0
C1181 C 0.72998 0.22605 0.94654 0.0
C1182 C 0.78177 0.27328 0.95675 0.0
C1183 C 0.73754 0.28462 0.91894 0.0
C1184 C 0.74937 0.28375 0.89318 0.0
C1185 C 0.73574 0.30896 0.87457 0.0
C1186 C 0.70606 0.33272 0.88175 0.0
C1187 C 0.68952 0.32967 0.90684 0.0
C1188 C 0.7073 0.30767 0.92627 0.0
H1189 H 0.30714 0.82387 0.94256 0.0
H1190 H 0.31347 0.84436 0.85914 0.0
H1191 H 0.27431 0.78825 0.8509 0.0
H1192 H 0.30819 0.71641 0.93641 0.0
H1193 H 0.27741 0.71215 0.96427 0.0
H1194 H 0.3107 0.75033 0.96256 0.0
H1195 H 0.25517 0.79684 0.96948 0.0
H1196 H 0.2213 0.75911 0.96937 0.0
H1197 H 0.21659 0.79743 0.94643 0.0
H1198 H 0.22465 0.73982 0.85246 0.0
H1199 H 0.18739 0.68286 0.86149 0.0
H1200 H 0.21626 0.69032 0.94376 0.0
C1201 C 0.30225 0.81494 0.92256 0.0
C1202 C 0.31335 0.83771 0.90137 0.0
C1203 C 0.30569 0.82646 0.87543 0.0
C1204 C 0.28284 0.79522 0.87066 0.0
C1205 C 0.26914 0.77537 0.89213 0.0
C1206 C 0.28024 0.78328 0.91747 0.0
C1207 C 0.26151 0.75713 0.93692 0.0
C1208 C 0.2912 0.73253 0.95085 0.0
C1209 C 0.23721 0.77896 0.95671 0.0
C1210 C 0.23717 0.73422 0.91855 0.0
C1211 C 0.24139 0.74602 0.89291 0.0
C1212 C 0.22159 0.72978 0.87234 0.0
C1213 C 0.1998 0.69807 0.87774 0.0
C1214 C 0.19896 0.68277 0.90329 0.0
C1215 C 0.21582 0.70223 0.92423 0.0
H1216 H 0.62295 0.18919 0.50029 0.0
H1217 H 0.58024 0.0805 0.47553 0.0
H1218 H 0.61531 0.04979 0.5115 0.0
H1219 H 0.71571 0.15696 0.51494 0.0
H1220 H 0.72256 0.18712 0.54289 0.0
H1221 H 0.69113 0.20132 0.51696 0.0
H1222 H 0.63723 0.2093 0.55045 0.0
H1223 H 0.66822 0.19477 0.57658 0.0
H1224 H 0.62435 0.17035 0.57124 0.0
H1225 H 0.65692 0.03004 0.54863 0.0
H1226 H 0.70537 0.02215 0.58312 0.0
H1227 H 0.72435 0.14264 0.58372 0.0
C1228 C 0.62038 0.15902 0.50285 0.0
C1229 C 0.59827 0.13728 0.48528 0.0
C1230 C 0.59666 0.09776 0.48879 0.0
C1231 C 0.61646 0.08006 0.50923 0.0
C1232 C 0.63831 0.1021 0.52598 0.0
C1233 C 0.64066 0.14071 0.52297 0.0
C1234 C 0.66847 0.1573 0.54261 0.0
C1235 C 0.70142 0.17682 0.5285 0.0
C1236 C 0.64836 0.18455 0.56133 0.0
C1237 C 0.6816 0.12194 0.5569 0.0
C1238 C 0.66338 0.09052 0.54711 0.0
C1239 C 0.67119 0.05445 0.55652 0.0
C1240 C 0.69869 0.0502 0.57612 0.0
C1241 C 0.71824 0.08172 0.58618 0.0
C1242 C 0.70935 0.11814 0.5766 0.0
H1243 H 0.43894 0.74022 0.55452 0.0
H1244 H 0.37509 0.69822 0.62079 0.0
H1245 H 0.34829 0.64809 0.59289 0.0
H1246 H 0.3677 0.72095 0.50476 0.0
H1247 H 0.40182 0.70711 0.4805 0.0
H1248 H 0.41446 0.74085 0.5053 0.0
H1249 H 0.47117 0.69917 0.51903 0.0
H1250 H 0.45873 0.66513 0.49439 0.0
H1251 H 0.46321 0.65076 0.5281 0.0
H1252 H 0.328 0.60262 0.55754 0.0
H1253 H 0.31717 0.56436 0.51785 0.0
H1254 H 0.39728 0.63327 0.47526 0.0
C1255 C 0.41911 0.72065 0.56314 0.0
C1256 C 0.40916 0.72318 0.58992 0.0
C1257 C 0.38331 0.69678 0.60041 0.0
C1258 C 0.36787 0.66823 0.58469 0.0
C1259 C 0.37875 0.66616 0.55851 0.0
C1260 C 0.40381 0.69164 0.5478 0.0
C1261 C 0.41163 0.68257 0.51929 0.0
C1262 C 0.39809 0.71478 0.50141 0.0
C1263 C 0.45369 0.67389 0.51496 0.0
C1264 C 0.38758 0.64763 0.51575 0.0
C1265 C 0.36839 0.63898 0.5385 0.0
C1266 C 0.34322 0.60889 0.53973 0.0
C1267 C 0.33735 0.58722 0.5171 0.0
C1268 C 0.35703 0.59524 0.49363 0.0
C1269 C 0.38265 0.62576 0.49311 0.0
H1270 H 0.9036 0.33041 0.50739 0.0
H1271 H 0.94951 0.43805 0.48374 0.0
H1272 H 0.91381 0.46949 0.51916 0.0
H1273 H 0.81323 0.36065 0.51898 0.0
H1274 H 0.804 0.33208 0.54742 0.0
H1275 H 0.83796 0.31672 0.52359 0.0
H1276 H 0.89004 0.31212 0.55924 0.0
H1277 H 0.85569 0.32602 0.58335 0.0
H1278 H 0.89902 0.35199 0.58005 0.0
H1279 H 0.86764 0.49013 0.55333 0.0
H1280 H 0.81484 0.49852 0.58445 0.0
H1281 H 0.7974 0.37782 0.58618 0.0
C1282 C 0.90724 0.36036 0.51048 0.0
C1283 C 0.9302 0.38182 0.4935 0.0
C1284 C 0.93293 0.42116 0.49712 0.0
C1285 C 0.91262 0.43919 0.51709 0.0
C1286 C 0.88948 0.41748 0.5332 0.0
C1287 C 0.88691 0.37884 0.53031 0.0
C1288 C 0.8577 0.36256 0.54889 0.0
C1289 C 0.82638 0.3418 0.53381 0.0
C1290 C 0.87673 0.33662 0.56908 0.0
C1291 C 0.84296 0.39822 0.56176 0.0
C1292 C 0.86222 0.42949 0.55272 0.0
C1293 C 0.85275 0.46581 0.5608 0.0
C1294 C 0.82274 0.47035 0.5784 0.0
C1295 C 0.80246 0.43884 0.58773 0.0
C1296 C 0.8129 0.40228 0.57952 0.0
H1297 H 0.08828 0.76729 0.55552 0.0
H1298 H 0.09463 0.84134 0.6229 0.0
H1299 H 0.11691 0.89298 0.59416 0.0
H1300 H 0.17152 0.80247 0.52291 0.0
H1301 H 0.15131 0.7973 0.49073 0.0
H1302 H 0.13683 0.76642 0.51681 0.0
H1303 H 0.06712 0.78538 0.50908 0.0
H1304 H 0.08122 0.81643 0.48302 0.0
H1305 H 0.05396 0.83442 0.51002 0.0
H1306 H 0.13745 0.93719 0.55696 0.0
H1307 H 0.15523 0.96881 0.51552 0.0
H1308 H 0.13447 0.86479 0.4734 0.0
C1309 C 0.09431 0.79433 0.56436 0.0
C1310 C 0.0894 0.80027 0.59152 0.0
C1311 C 0.09807 0.83607 0.60217 0.0
C1312 C 0.11072 0.86558 0.58598 0.0
C1313 C 0.1148 0.85878 0.55921 0.0
C1314 C 0.10702 0.82388 0.54858 0.0
C1315 C 0.11346 0.82351 0.51931 0.0
C1316 C 0.14516 0.79579 0.51202 0.0
C1317 C 0.07675 0.81441 0.5045 0.0
C1318 C 0.12546 0.8639 0.51493 0.0
C1319 C 0.12633 0.88387 0.53812 0.0
C1320 C 0.13682 0.92175 0.53872 0.0
C1321 C 0.14679 0.93953 0.51507 0.0
C1322 C 0.14596 0.9195 0.49108 0.0
C1323 C 0.13506 0.88118 0.49125 0.0
H1324 H 0.24771 0.93358 1.00312 0.0
H1325 H 0.17482 0.91972 0.93544 0.0
H1326 H 0.12353 0.89755 0.96438 0.0
H1327 H 0.2151 0.85169 0.03846 0.0
H1328 H 0.21866 0.87431 0.06992 0.0
H1329 H 0.24951 0.88828 0.04369 0.0
H1330 H 0.22713 0.95741 0.04876 0.0
H1331 H 0.19608 0.94361 0.07491 0.0
H1332 H 0.17745 0.96811 0.04679 0.0
H1333 H 0.07971 0.87672 1.00154 0.0
H1334 H 0.04818 0.85935 0.04311 0.0
H1335 H 0.1501 0.88849 0.08573 0.0
C1336 C 0.22101 0.92588 0.99429 0.0
C1337 C 0.21539 0.92851 0.96693 0.0
C1338 C 0.17994 0.91794 0.95631 0.0
C1339 C 0.15058 0.90533 0.97261 0.0
C1340 C 0.15705 0.90333 0.99953 0.0
C1341 C 0.19149 0.91325 1.01023 0.0
C1342 C 0.19139 0.90879 0.0397 0.0
C1343 C 0.22038 0.879 0.04845 0.0
C1344 C 0.19842 0.94674 0.05333 0.0
C1345 C 0.15139 0.89524 0.04401 0.0
C1346 C 0.13198 0.89199 1.02066 0.0
C1347 C 0.09468 0.87932 1.01993 0.0
C1348 C 0.07693 0.8696 0.04365 0.0
C1349 C 0.0964 0.87284 0.0678 0.0
C1350 C 0.1341 0.886 0.06774 0.0
H1351 H 0.61376 0.13536 0.07792 0.0
H1352 H 0.67622 0.04684 0.03868 0.0
H1353 H 0.67055 0.08194 0.99682 0.0
H1354 H 0.54877 0.15633 1.02565 0.0
H1355 H 0.54901 0.20611 0.03247 0.0
H1356 H 0.55734 0.17288 0.05847 0.0
H1357 H 0.62055 0.20641 0.06919 0.0
H1358 H 0.61271 0.23933 0.0429 0.0
H1359 H 0.65548 0.21184 0.04388 0.0
H1360 H 0.6602 0.13052 0.959 0.0
H1361 H 0.63988 0.18256 0.92944 0.0
H1362 H 0.58461 0.23706 0.99483 0.0
C1363 C 0.62579 0.12285 0.06051 0.0
C1364 C 0.64514 0.08801 0.06168 0.0
C1365 C 0.66074 0.07314 0.03831 0.0
C1366 C 0.65799 0.09312 1.01446 0.0
C1367 C 0.63955 0.12795 1.01426 0.0
C1368 C 0.62337 0.14231 0.03674 0.0
C1369 C 0.60517 0.1802 0.03181 0.0
C1370 C 0.56255 0.17878 0.03742 0.0
C1371 C 0.62464 0.21126 0.0479 0.0
C1372 C 0.61297 0.18487 1.00291 0.0
C1373 C 0.63331 0.15491 0.99301 0.0
C1374 C 0.64401 0.1539 0.96664 0.0
C1375 C 0.6326 0.18365 0.94999 0.0
C1376 C 0.61036 0.21365 0.95976 0.0
C1377 C 0.60121 0.2143 0.98666 0.0
H1378 H 0.29203 0.56494 0.99344 0.0
H1379 H 0.33125 0.63834 0.93133 0.0
H1380 H 0.37975 0.66443 0.96142 0.0
H1381 H 0.30238 0.63282 0.04506 0.0
H1382 H 0.31599 0.59792 0.06892 0.0
H1383 H 0.28558 0.58512 0.04211 0.0
H1384 H 0.33241 0.53225 0.029 0.0
H1385 H 0.36313 0.54513 0.05562 0.0
H1386 H 0.38104 0.54392 1.02264 0.0
H1387 H 0.42573 0.68091 0.99924 0.0
H1388 H 0.45966 0.6903 0.04122 0.0
H1389 H 0.38724 0.60747 0.07806 0.0
C1390 C 0.31098 0.58628 0.98598 0.0
C1391 C 0.30821 0.5991 0.95981 0.0
C1392 C 0.33302 0.6278 0.95119 0.0
C1393 C 0.3607 0.64271 0.96816 0.0
C1394 C 0.36289 0.62895 0.99378 0.0
C1395 C 0.33821 0.60171 1.00266 0.0
C1396 C 0.34495 0.59258 0.03124 0.0
C1397 C 0.31016 0.60272 0.0478 0.0
C1398 C 0.35605 0.551 0.03482 0.0
C1399 C 0.37776 0.61844 0.03715 0.0
C1400 C 0.388 0.63913 1.01535 0.0
C1401 C 0.41783 0.66478 1.01635 0.0
C1402 C 0.43717 0.66972 0.04025 0.0
C1403 C 0.42639 0.64942 0.06295 0.0
C1404 C 0.39639 0.62333 0.06111 0.0
H1405 H 0.89235 0.37187 0.08468 0.0
H1406 H 0.85304 0.4708 0.04274 0.0
H1407 H 0.86531 0.43833 1.0007 0.0
H1408 H 0.96622 0.34515 0.04061 0.0
H1409 H 0.95752 0.29544 0.04431 0.0
H1410 H 0.94671 0.3272 0.0707 0.0
H1411 H 0.87816 0.30238 0.07127 0.0
H1412 H 0.88824 0.27105 0.04453 0.0
H1413 H 0.85007 0.30444 0.04186 0.0
H1414 H 0.88203 0.39388 0.96294 0.0
H1415 H 0.90226 0.34256 0.93337 0.0
H1416 H 0.92775 0.27254 1.00083 0.0
C1417 C 0.88648 0.38697 0.06671 0.0
C1418 C 0.8719 0.42412 0.06712 0.0
C1419 C 0.86447 0.44252 0.04302 0.0
C1420 C 0.8712 0.4242 1.01903 0.0
C1421 C 0.88502 0.38734 1.01944 0.0
C1422 C 0.8925 0.36899 0.04273 0.0
C1423 C 0.90653 0.32924 0.03806 0.0
C1424 C 0.94663 0.32397 0.04907 0.0
C1425 C 0.8791 0.30007 0.04961 0.0
C1426 C 0.90631 0.32812 1.00845 0.0
C1427 C 0.89378 0.36181 0.99799 0.0
C1428 C 0.8918 0.3674 0.97098 0.0
C1429 C 0.90334 0.33804 0.95432 0.0
C1430 C 0.91667 0.30341 0.96467 0.0
C1431 C 0.91768 0.29852 0.99216 0.0
H1432 H 0.39942 0.83273 0.55507 0.0
H1433 H 0.44298 0.94124 0.57898 0.0
H1434 H 0.40959 0.97161 0.54186 0.0
H1435 H 0.39967 0.85016 0.48339 0.0
H1436 H 0.35579 0.82578 0.47825 0.0
H1437 H 0.38676 0.81151 0.50445 0.0
H1438 H 0.33304 0.81995 0.53795 0.0
H1439 H 0.30144 0.8339 0.51209 0.0
H1440 H 0.30856 0.8644 0.53984 0.0
H1441 H 0.36748 0.99084 0.50472 0.0
H1442 H 0.31742 0.99815 0.47124 0.0
H1443 H 0.29847 0.87768 0.47201 0.0
C1444 C 0.40277 0.8627 0.55187 0.0
C1445 C 0.42453 0.8847 0.56929 0.0
C1446 C 0.42709 0.924 0.56539 0.0
C1447 C 0.40819 0.94139 0.54442 0.0
C1448 C 0.38644 0.9191 0.52774 0.0
C1449 C 0.38351 0.88059 0.53125 0.0
C1450 C 0.35559 0.86366 0.51197 0.0
C1451 C 0.37566 0.83615 0.49342 0.0
C1452 C 0.32272 0.84436 0.52633 0.0
C1453 C 0.34251 0.89878 0.49753 0.0
C1454 C 0.3612 0.93035 0.50669 0.0
C1455 C 0.35298 0.9663 0.49723 0.0
C1456 C 0.32458 0.97022 0.47825 0.0
C1457 C 0.30461 0.93848 0.46899 0.0
C1458 C 0.3139 0.90226 0.47854 0.0
H1459 H 0.61317 0.37565 0.57936 0.0
H1460 H 0.67861 0.46039 0.53843 0.0
H1461 H 0.66851 0.4262 0.49681 0.0
H1462 H 0.64609 0.2961 0.54334 0.0
H1463 H 0.60104 0.27262 0.54326 0.0
H1464 H 0.61312 0.30407 0.56958 0.0
H1465 H 0.55233 0.34286 0.5606 0.0
H1466 H 0.54016 0.31133 0.53434 0.0
H1467 H 0.54377 0.36118 0.52821 0.0
H1468 H 0.65421 0.37976 0.45978 0.0
H1469 H 0.63147 0.32927 0.43026 0.0
H1470 H 0.57313 0.27712 0.49542 0.0
C1471 C 0.6251 0.38733 0.56163 0.0
C1472 C 0.64661 0.42092 0.56224 0.0
C1473 C 0.66174 0.43498 0.5385 0.0
C1474 C 0.65636 0.41559 0.51477 0.0
C1475 C 0.6355 0.38227 0.51497 0.0
C1476 C 0.61971 0.36856 0.53778 0.0
C1477 C 0.59818 0.33239 0.53283 0.0
C1478 C 0.61567 0.29936 0.54817 0.0
C1479 C 0.55612 0.33725 0.53938 0.0
C1480 C 0.60421 0.32782 0.50365 0.0
C1481 C 0.62622 0.35655 0.49371 0.0
C1482 C 0.63661 0.3574 0.46736 0.0
C1483 C 0.62368 0.32853 0.45074 0.0
C1484 C 0.60013 0.29948 0.46042 0.0
C1485 C 0.59058 0.29923 0.48729 0.0
H1486 H 0.23418 0.57126 0.49113 0.0
H1487 H 0.1908 0.64357 0.42963 0.0
H1488 H 0.14347 0.66947 0.4607 0.0
H1489 H 0.14785 0.54869 0.52175 0.0
H1490 H 0.1667 0.55035 0.55452 0.0
H1491 H 0.19702 0.53845 0.52753 0.0
H1492 H 0.2425 0.59264 0.54007 0.0
H1493 H 0.21256 0.60448 0.5673 0.0
H1494 H 0.22431 0.63981 0.54333 0.0
H1495 H 0.09791 0.68409 0.49898 0.0
H1496 H 0.06374 0.69105 0.54095 0.0
H1497 H 0.14022 0.611 0.57721 0.0
C1498 C 0.21466 0.5925 0.48409 0.0
C1499 C 0.21576 0.60497 0.45779 0.0
C1500 C 0.19032 0.63344 0.44962 0.0
C1501 C 0.1633 0.64818 0.46714 0.0
C1502 C 0.16257 0.63458 0.49286 0.0
C1503 C 0.18816 0.60781 0.50134 0.0
C1504 C 0.18258 0.59839 0.52999 0.0
C1505 C 0.17296 0.55649 0.53364 0.0
C1506 C 0.21756 0.6095 0.54612 0.0
C1507 C 0.14913 0.62328 0.53637 0.0
C1508 C 0.13778 0.64389 0.51475 0.0
C1509 C 0.10678 0.66814 0.51597 0.0
C1510 C 0.08731 0.67168 0.53988 0.0
C1511 C 0.09905 0.65139 0.56241 0.0
C1512 C 0.1304 0.62688 0.56041 0.0
H1513 H 0.88638 0.14919 0.58753 0.0
H1514 H 0.86953 0.04568 0.54396 0.0
H1515 H 0.88635 0.07908 0.50302 0.0
H1516 H 0.84613 0.20987 0.53914 0.0
H1517 H 0.87849 0.24803 0.54478 0.0
H1518 H 0.86668 0.21642 0.5711 0.0
H1519 H 0.93701 0.20036 0.57863 0.0
H1520 H 0.94966 0.23285 0.55306 0.0
H1521 H 0.96541 0.18462 0.55152 0.0
H1522 H 0.9047 0.12455 0.46673 0.0
H1523 H 0.92426 0.17736 0.43837 0.0
H1524 H 0.92833 0.25097 0.50609 0.0
C1525 C 0.88668 0.13327 0.56947 0.0
C1526 C 0.87709 0.09457 0.56906 0.0
C1527 C 0.87704 0.0752 0.54484 0.0
C1528 C 0.88647 0.09399 0.52148 0.0
C1529 C 0.89553 0.1322 0.52265 0.0
C1530 C 0.89565 0.15159 0.54606 0.0
C1531 C 0.90554 0.1927 0.54207 0.0
C1532 C 0.87223 0.21825 0.54974 0.0
C1533 C 0.94155 0.20323 0.55721 0.0
C1534 C 0.91203 0.19333 0.51279 0.0
C1535 C 0.90574 0.15827 0.50189 0.0
C1536 C 0.90974 0.15207 0.47511 0.0
C1537 C 0.9208 0.18232 0.45914 0.0
C1538 C 0.92806 0.21835 0.46997 0.0
C1539 C 0.92331 0.22377 0.49718 0.0
H1540 H 0.91412 0.18031 1.0065 0.0
H1541 H 0.91668 0.08019 0.95804 0.0
H1542 H 0.8789 0.04612 0.99081 0.0
H1543 H 0.91544 0.1311 0.07139 0.0
H1544 H 0.88262 0.16381 0.08585 0.0
H1545 H 0.91418 0.17936 0.06041 0.0
H1546 H 0.85717 0.20308 0.0333 0.0
H1547 H 0.82546 0.18752 0.05857 0.0
H1548 H 0.81945 0.17095 1.02549 0.0
H1549 H 0.83524 0.02499 1.02513 0.0
H1550 H 0.78919 0.01679 0.06077 0.0
H1551 H 0.81367 0.12934 0.08883 0.0
C1552 C 0.90774 0.15085 1.00335 0.0
C1553 C 0.91886 0.13259 0.97995 0.0
C1554 C 0.90878 0.09449 0.97593 0.0
C1555 C 0.88732 0.07492 0.99444 0.0
C1556 C 0.87586 0.09382 1.01692 0.0
C1557 C 0.88577 0.13085 1.02165 0.0
C1558 C 0.86692 0.14509 0.04653 0.0
C1559 C 0.89657 0.15544 0.06728 0.0
C1560 C 0.8407 0.17864 0.04061 0.0
C1561 C 0.84451 0.11045 0.05467 0.0
C1562 C 0.85032 0.0813 0.03722 0.0
C1563 C 0.83093 0.04733 0.0392 0.0
C1564 C 0.80473 0.04297 0.05943 0.0
C1565 C 0.79829 0.07219 0.07767 0.0
C1566 C 0.81878 0.10626 0.07546 0.0
H1567 H 0.38818 0.86797 0.97177 0.0
H1568 H 0.35784 0.96851 1.01519 0.0
H1569 H 0.37461 0.93612 0.05654 0.0
H1570 H 0.35154 0.80154 1.01824 0.0
H1571 H 0.38873 0.76774 1.01295 0.0
H1572 H 0.37476 0.79909 0.98694 0.0
H1573 H 0.44377 0.82247 0.9827 0.0
H1574 H 0.45788 0.7911 1.00864 0.0
H1575 H 0.46773 0.84075 1.01112 0.0
H1576 H 0.39462 0.89181 0.09349 0.0
H1577 H 0.41704 0.84038 0.12232 0.0
H1578 H 0.4337 0.76926 0.05426 0.0
C1579 C 0.38534 0.88344 0.98991 0.0
C1580 C 0.37199 0.92106 0.9901 0.0
C1581 C 0.36824 0.93985 1.01443 0.0
C1582 C 0.37761 0.92161 0.03805 0.0
C1583 C 0.39052 0.88448 0.0371 0.0
C1584 C 0.39436 0.86565 1.0136 0.0
C1585 C 0.40849 0.82578 1.01779 0.0
C1586 C 0.37913 0.79684 1.00843 0.0
C1587 C 0.44674 0.81969 1.00426 0.0
C1588 C 0.4125 0.82518 0.04732 0.0
C1589 C 0.40182 0.85918 0.05816 0.0
C1590 C 0.40309 0.86512 0.08515 0.0
C1591 C 0.41584 0.83569 0.1014 0.0
C1592 C 0.42737 0.80074 0.09065 0.0
C1593 C 0.42537 0.79562 0.0632 0.0
H1594 H 0.74089 0.37423 0.0778 0.0
H1595 H 0.68474 0.47652 0.10265 0.0
H1596 H 0.63367 0.46502 0.07048 0.0
H1597 H 0.7205 0.38059 1.01042 0.0
H1598 H 0.71159 0.33115 1.00551 0.0
H1599 H 0.74278 0.34615 0.03131 0.0
H1600 H 0.70251 0.31002 0.06529 0.0
H1601 H 0.67134 0.29469 0.03951 0.0
H1602 H 0.65259 0.31934 0.06742 0.0
H1603 H 0.59314 0.44659 0.03212 0.0
H1604 H 0.56159 0.41858 0.99349 0.0
H1605 H 0.63959 0.32457 0.99595 0.0
C1606 C 0.71739 0.39371 0.07671 0.0
C1607 C 0.71641 0.42616 0.09273 0.0
C1608 C 0.68561 0.45134 0.0907 0.0
C1609 C 0.65662 0.44507 0.07244 0.0
C1610 C 0.65846 0.41307 0.05666 0.0
C1611 C 0.68763 0.38733 0.05895 0.0
C1612 C 0.68273 0.35529 0.03949 0.0
C1613 C 0.7164 0.3532 1.02057 0.0
C1614 C 0.67695 0.31761 0.05378 0.0
C1615 C 0.64691 0.36765 1.02544 0.0
C1616 C 0.63359 0.40122 0.03555 0.0
C1617 C 0.60277 0.41988 1.02445 0.0
C1618 C 0.58507 0.40386 1.00249 0.0
C1619 C 0.59763 0.36912 0.99217 0.0
C1620 C 0.62877 0.35066 1.00397 0.0
H1621 H 0.07001 0.7372 0.05602 0.0
H1622 H 0.12606 0.68877 0.12376 0.0
H1623 H 0.15372 0.63939 0.09562 0.0
H1624 H 0.04701 0.64856 1.02487 0.0
H1625 H 0.05492 0.66599 0.99219 0.0
H1626 H 0.03974 0.69772 1.01758 0.0
H1627 H 0.0975 0.74047 1.00866 0.0
H1628 H 0.11281 0.70895 0.9832 0.0
H1629 H 0.14428 0.72049 1.00975 0.0
H1630 H 0.17818 0.59714 0.05949 0.0
H1631 H 0.19443 0.56318 1.01885 0.0
H1632 H 0.11942 0.63632 0.97486 0.0
C1633 C 0.08806 0.71619 0.06498 0.0
C1634 C 0.09586 0.71701 0.09221 0.0
C1635 C 0.1195 0.68877 0.10305 0.0
C1636 C 0.13543 0.66061 0.08718 0.0
C1637 C 0.12719 0.66066 0.06046 0.0
C1638 C 0.1038 0.68754 0.04947 0.0
C1639 C 0.09916 0.68104 1.02025 0.0
C1640 C 0.05774 0.67283 1.01332 0.0
C1641 C 0.11435 0.71474 1.00454 0.0
C1642 C 0.12371 0.64639 1.01647 0.0
C1643 C 0.1399 0.63532 0.03989 0.0
C1644 C 0.16522 0.60527 0.04114 0.0
C1645 C 0.17429 0.58612 1.01792 0.0
C1646 C 0.1577 0.59657 0.99371 0.0
C1647 C 0.13186 0.62703 0.99313 0.0
loop_
_geom_bond_atom_site_label_1
_geom_bond_atom_site_label_2
_geom_bond_distance
_geom_bond_site_symmetry_2
_ccdc_geom_bond_type
Fe0 O2 1.918 . S
Fe0 O5 1.997 . S
Fe0 O6 2.002 . S
Fe0 O11 1.976 . S
Fe0 O14 1.996 . S
Fe1 O2 1.918 . S
Fe1 O9 1.997 . S
Fe1 O12 1.996 . S
Fe1 O16 1.976 . S
Fe1 O19 2.002 . S
O2 Fe0 1.918 . S
O2 Fe1 1.918 . S
O2 Fe3 1.918 . S
Fe3 O2 1.918 . S
Fe3 O4 2.002 . S
Fe3 O13 1.976 . S
Fe3 O17 1.996 . S
Fe3 O20 1.997 . S
O4 Fe3 2.002 . S
O4 C21 1.295 . S
O5 Fe0 1.997 . S
O5 C21 1.235 . S
O6 Fe0 2.002 . S
O6 C7 1.295 . S
C7 O6 1.295 . S
C7 O9 1.235 . S
C8 O13 1.287 . S
C8 O14 1.255 . S
O9 Fe1 1.997 . S
O9 C7 1.235 . S
C10 O16 1.287 . S
C10 O17 1.255 . S
O11 Fe0 1.976 . S
O11 C18 1.287 . S
O12 Fe1 1.996 . S
O12 C18 1.255 . S
O13 Fe3 1.976 . S
O13 C8 1.287 . S
O14 Fe0 1.996 . S
O14 C8 1.255 . S
C15 O19 1.295 . S
C15 O20 1.235 . S
O16 Fe1 1.976 . S
O16 C10 1.287 . S
O17 Fe3 1.996 . S
O17 C10 1.255 . S
C18 O11 1.287 . S
C18 O12 1.255 . S
O19 Fe1 2.002 . S
O19 C15 1.295 . S
O20 Fe3 1.997 . S
O20 C15 1.235 . S
C21 O4 1.295 . S
C21 O5 1.235 . S
Fe22 O24 1.918 . S
Fe22 O27 1.997 . S
Fe22 O28 2.002 . S
Fe22 O33 1.976 . S
Fe22 O36 1.996 . S
Fe23 O24 1.918 . S
Fe23 O31 1.997 . S
Fe23 O34 1.996 . S
Fe23 O38 1.976 . S
Fe23 O41 2.002 . S
O24 Fe22 1.918 . S
O24 Fe23 1.918 . S
O24 Fe25 1.918 . S
Fe25 O24 1.918 . S
Fe25 O26 2.002 . S
Fe25 O35 1.976 . S
Fe25 O39 1.996 . S
Fe25 O42 1.997 . S
O26 Fe25 2.002 . S
O26 C43 1.295 . S
O27 Fe22 1.997 . S
O27 C43 1.235 . S
O28 Fe22 2.002 . S
O28 C29 1.295 . S
C29 O28 1.295 . S
C29 O31 1.235 . S
C30 O35 1.287 . S
C30 O36 1.255 . S
O31 Fe23 1.997 . S
O31 C29 1.235 . S
C32 O38 1.287 . S
C32 O39 1.255 . S
O33 Fe22 1.976 . S
O33 C40 1.287 . S
O34 Fe23 1.996 . S
O34 C40 1.255 . S
O35 Fe25 1.976 . S
O35 C30 1.287 . S
O36 Fe22 1.996 . S
O36 C30 1.255 . S
C37 O41 1.295 . S
C37 O42 1.235 . S
O38 Fe23 1.976 . S
O38 C32 1.287 . S
O39 Fe25 1.996 . S
O39 C32 1.255 . S
C40 O33 1.287 . S
C40 O34 1.255 . S
O41 Fe23 2.002 . S
O41 C37 1.295 . S
O42 Fe25 1.997 . S
O42 C37 1.235 . S
C43 O26 1.295 . S
C43 O27 1.235 . S
Fe44 O46 1.918 . S
Fe44 O49 1.997 . S
Fe44 O50 2.002 . S
Fe44 O55 1.976 . S
Fe44 O58 1.996 . S
Fe45 O46 1.918 . S
Fe45 O53 1.997 . S
Fe45 O56 1.996 . S
Fe45 O60 1.976 . S
Fe45 O63 2.002 . S
O46 Fe44 1.918 . S
O46 Fe45 1.918 . S
O46 Fe47 1.918 . S
Fe47 O46 1.918 . S
Fe47 O48 2.002 . S
Fe47 O57 1.976 . S
Fe47 O61 1.996 1_655 S
Fe47 O64 1.997 . S
O48 Fe47 2.002 . S
O48 C65 1.295 . S
O49 Fe44 1.997 . S
O49 C65 1.235 . S
O50 Fe44 2.002 . S
O50 C51 1.295 . S
C51 O50 1.295 . S
C51 O53 1.235 . S
C52 O57 1.287 . S
C52 O58 1.255 . S
O53 Fe45 1.997 . S
O53 C51 1.235 . S
C54 O60 1.287 . S
C54 O61 1.255 1_655 S
O55 Fe44 1.976 . S
O55 C62 1.287 . S
O56 Fe45 1.996 . S
O56 C62 1.255 . S
O57 Fe47 1.976 . S
O57 C52 1.287 . S
O58 Fe44 1.996 . S
O58 C52 1.255 . S
C59 O63 1.295 . S
C59 O64 1.235 . S
O60 Fe45 1.976 . S
O60 C54 1.287 . S
O61 Fe47 1.996 1_455 S
O61 C54 1.255 1_455 S
C62 O55 1.287 . S
C62 O56 1.255 . S
O63 Fe45 2.002 . S
O63 C59 1.295 . S
O64 Fe47 1.997 . S
O64 C59 1.235 . S
C65 O48 1.295 . S
C65 O49 1.235 . S
Fe66 O68 1.918 . S
Fe66 O71 1.997 . S
Fe66 O72 2.002 . S
Fe66 O77 1.976 . S
Fe66 O80 1.996 1_565 S
Fe67 O68 1.918 . S
Fe67 O75 1.997 . S
Fe67 O78 1.996 . S
Fe67 O82 1.976 . S
Fe67 O85 2.002 . S
O68 Fe66 1.918 . S
O68 Fe67 1.918 . S
O68 Fe69 1.918 . S
Fe69 O68 1.918 . S
Fe69 O70 2.002 . S
Fe69 O79 1.976 . S
Fe69 O83 1.996 . S
Fe69 O86 1.997 . S
O70 Fe69 2.002 . S
O70 C87 1.295 . S
O71 Fe66 1.997 . S
O71 C87 1.235 . S
O72 Fe66 2.002 . S
O72 C73 1.295 . S
C73 O72 1.295 . S
C73 O75 1.235 . S
C74 O79 1.287 . S
C74 O80 1.255 1_565 S
O75 Fe67 1.997 . S
O75 C73 1.235 . S
C76 O82 1.287 . S
C76 O83 1.255 . S
O77 Fe66 1.976 . S
O77 C84 1.287 . S
O78 Fe67 1.996 . S
O78 C84 1.255 . S
O79 Fe69 1.976 . S
O79 C74 1.287 . S
O80 Fe66 1.996 1_545 S
O80 C74 1.255 1_545 S
C81 O85 1.295 . S
C81 O86 1.235 . S
O82 Fe67 1.976 . S
O82 C76 1.287 . S
O83 Fe69 1.996 . S
O83 C76 1.255 . S
C84 O77 1.287 . S
C84 O78 1.255 . S
O85 Fe67 2.002 . S
O85 C81 1.295 . S
O86 Fe69 1.997 . S
O86 C81 1.235 . S
C87 O70 1.295 . S
C87 O71 1.235 . S
Fe88 O90 1.918 . S
Fe88 O93 1.997 . S
Fe88 O94 2.002 . S
Fe88 O99 1.976 . S
Fe88 O102 1.996 1_455 S
Fe89 O90 1.918 . S
Fe89 O97 1.997 . S
Fe89 O100 1.996 . S
Fe89 O104 1.976 . S
Fe89 O107 2.002 . S
O90 Fe88 1.918 . S
O90 Fe89 1.918 . S
O90 Fe91 1.918 . S
Fe91 O90 1.918 . S
Fe91 O92 2.002 . S
Fe91 O101 1.976 . S
Fe91 O105 1.996 . S
Fe91 O108 1.997 . S
O92 Fe91 2.002 . S
O92 C109 1.295 . S
O93 Fe88 1.997 . S
O93 C109 1.235 . S
O94 Fe88 2.002 . S
O94 C95 1.295 . S
C95 O94 1.295 . S
C95 O97 1.235 . S
C96 O101 1.287 . S
C96 O102 1.255 1_455 S
O97 Fe89 1.997 . S
O97 C95 1.235 . S
C98 O104 1.287 . S
C98 O105 1.255 . S
O99 Fe88 1.976 . S
O99 C106 1.287 . S
O100 Fe89 1.996 . S
O100 C106 1.255 . S
O101 Fe91 1.976 . S
O101 C96 1.287 . S
O102 Fe88 1.996 1_655 S
O102 C96 1.255 1_655 S
C103 O107 1.295 . S
C103 O108 1.235 . S
O104 Fe89 1.976 . S
O104 C98 1.287 . S
O105 Fe91 1.996 . S
O105 C98 1.255 . S
C106 O99 1.287 . S
C106 O100 1.255 . S
O107 Fe89 2.002 . S
O107 C103 1.295 . S
O108 Fe91 1.997 . S
O108 C103 1.235 . S
C109 O92 1.295 . S
C109 O93 1.235 . S
Fe110 O112 1.918 . S
Fe110 O115 1.997 . S
Fe110 O116 2.002 . S
Fe110 O121 1.976 . S
Fe110 O124 1.996 1_545 S
Fe111 O112 1.918 . S
Fe111 O119 1.997 . S
Fe111 O122 1.996 . S
Fe111 O126 1.976 . S
Fe111 O129 2.002 . S
O112 Fe110 1.918 . S
O112 Fe111 1.918 . S
O112 Fe113 1.918 . S
Fe113 O112 1.918 . S
Fe113 O114 2.002 . S
Fe113 O123 1.976 . S
Fe113 O127 1.996 . S
Fe113 O130 1.997 . S
O114 Fe113 2.002 . S
O114 C131 1.295 . S
O115 Fe110 1.997 . S
O115 C131 1.235 . S
O116 Fe110 2.002 . S
O116 C117 1.295 . S
C117 O116 1.295 . S
C117 O119 1.235 . S
C118 O123 1.287 . S
C118 O124 1.255 1_545 S
O119 Fe111 1.997 . S
O119 C117 1.235 . S
C120 O126 1.287 . S
C120 O127 1.255 . S
O121 Fe110 1.976 . S
O121 C128 1.287 . S
O122 Fe111 1.996 . S
O122 C128 1.255 . S
O123 Fe113 1.976 . S
O123 C118 1.287 . S
O124 Fe110 1.996 1_565 S
O124 C118 1.255 1_565 S
C125 O129 1.295 . S
C125 O130 1.235 . S
O126 Fe111 1.976 . S
O126 C120 1.287 . S
O127 Fe113 1.996 . S
O127 C120 1.255 . S
C128 O121 1.287 . S
C128 O122 1.255 . S
O129 Fe111 2.002 . S
O129 C125 1.295 . S
O130 Fe113 1.997 . S
O130 C125 1.235 . S
C131 O114 1.295 . S
C131 O115 1.235 . S
Fe132 O134 1.918 . S
Fe132 O137 1.997 . S
Fe132 O138 2.002 . S
Fe132 O143 1.976 . S
Fe132 O146 1.996 . S
Fe133 O134 1.918 . S
Fe133 O141 1.997 . S
Fe133 O144 1.996 . S
Fe133 O148 1.976 . S
Fe133 O151 2.002 . S
O134 Fe132 1.918 . S
O134 Fe133 1.918 . S
O134 Fe135 1.918 . S
Fe135 O134 1.918 . S
Fe135 O136 2.002 . S
Fe135 O145 1.976 . S
Fe135 O149 1.996 . S
Fe135 O152 1.997 . S
O136 Fe135 2.002 . S
O136 C153 1.295 . S
O137 Fe132 1.997 . S
O137 C153 1.235 . S
O138 Fe132 2.002 . S
O138 C139 1.295 . S
C139 O138 1.295 . S
C139 O141 1.235 . S
C140 O145 1.287 . S
C140 O146 1.255 . S
O141 Fe133 1.997 . S
O141 C139 1.235 . S
C142 O148 1.287 . S
C142 O149 1.255 . S
O143 Fe132 1.976 . S
O143 C150 1.287 . S
O144 Fe133 1.996 . S
O144 C150 1.255 . S
O145 Fe135 1.976 . S
O145 C140 1.287 . S
O146 Fe132 1.996 . S
O146 C140 1.255 . S
C147 O151 1.295 . S
C147 O152 1.235 . S
O148 Fe133 1.976 . S
O148 C142 1.287 . S
O149 Fe135 1.996 . S
O149 C142 1.255 . S
C150 O143 1.287 . S
C150 O144 1.255 . S
O151 Fe133 2.002 . S
O151 C147 1.295 . S
O152 Fe135 1.997 . S
O152 C147 1.235 . S
C153 O136 1.295 . S
C153 O137 1.235 . S
Fe154 O156 1.918 . S
Fe154 O159 1.997 . S
Fe154 O160 2.002 . S
Fe154 O165 1.976 . S
Fe154 O168 1.996 . S
Fe155 O156 1.918 . S
Fe155 O163 1.997 . S
Fe155 O166 1.996 . S
Fe155 O170 1.976 . S
Fe155 O173 2.002 . S
O156 Fe154 1.918 . S
O156 Fe155 1.918 . S
O156 Fe157 1.918 . S
Fe157 O156 1.918 . S
Fe157 O158 2.002 . S
Fe157 O167 1.976 . S
Fe157 O171 1.996 . S
Fe157 O174 1.997 . S
O158 Fe157 2.002 . S
O158 C175 1.295 . S
O159 Fe154 1.997 . S
O159 C175 1.235 . S
O160 Fe154 2.002 . S
O160 C161 1.295 . S
C161 O160 1.295 . S
C161 O163 1.235 . S
C162 O167 1.287 . S
C162 O168 1.255 . S
O163 Fe155 1.997 . S
O163 C161 1.235 . S
C164 O170 1.287 . S
C164 O171 1.255 . S
O165 Fe154 1.976 . S
O165 C172 1.287 . S
O166 Fe155 1.996 . S
O166 C172 1.255 . S
O167 Fe157 1.976 . S
O167 C162 1.287 . S
O168 Fe154 1.996 . S
O168 C162 1.255 . S
C169 O173 1.295 . S
C169 O174 1.235 . S
O170 Fe155 1.976 . S
O170 C164 1.287 . S
O171 Fe157 1.996 . S
O171 C164 1.255 . S
C172 O165 1.287 . S
C172 O166 1.255 . S
O173 Fe155 2.002 . S
O173 C169 1.295 . S
O174 Fe157 1.997 . S
O174 C169 1.235 . S
C175 O158 1.295 . S
C175 O159 1.235 . S
Fe176 O178 1.918 . S
Fe176 O181 1.997 . S
Fe176 O182 2.002 . S
Fe176 O187 1.976 . S
Fe176 O190 1.996 . S
Fe177 O178 1.918 . S
Fe177 O185 1.997 . S
Fe177 O188 1.996 . S
Fe177 O192 1.976 . S
Fe177 O195 2.002 . S
O178 Fe176 1.918 . S
O178 Fe177 1.918 . S
O178 Fe179 1.918 . S
Fe179 O178 1.918 . S
Fe179 O180 2.002 . S
Fe179 O189 1.976 . S
Fe179 O193 1.996 . S
Fe179 O196 1.997 . S
O180 Fe179 2.002 . S
O180 C197 1.295 . S
O181 Fe176 1.997 . S
O181 C197 1.235 . S
O182 Fe176 2.002 . S
O182 C183 1.295 . S
C183 O182 1.295 . S
C183 O185 1.235 . S
C184 O189 1.287 . S
C184 O190 1.255 . S
O185 Fe177 1.997 . S
O185 C183 1.235 . S
C186 O192 1.287 . S
C186 O193 1.255 . S
O187 Fe176 1.976 . S
O187 C194 1.287 . S
O188 Fe177 1.996 . S
O188 C194 1.255 . S
O189 Fe179 1.976 . S
O189 C184 1.287 . S
O190 Fe176 1.996 . S
O190 C184 1.255 . S
C191 O195 1.295 . S
C191 O196 1.235 . S
O192 Fe177 1.976 . S
O192 C186 1.287 . S
O193 Fe179 1.996 . S
O193 C186 1.255 . S
C194 O187 1.287 . S
C194 O188 1.255 . S
O195 Fe177 2.002 . S
O195 C191 1.295 . S
O196 Fe179 1.997 . S
O196 C191 1.235 . S
C197 O180 1.295 . S
C197 O181 1.235 . S
Fe198 O200 1.918 . S
Fe198 O203 1.997 . S
Fe198 O204 2.002 . S
Fe198 O209 1.976 . S
Fe198 O212 1.996 . S
Fe199 O200 1.918 . S
Fe199 O207 1.997 . S
Fe199 O210 1.996 . S
Fe199 O214 1.976 . S
Fe199 O217 2.002 . S
O200 Fe198 1.918 . S
O200 Fe199 1.918 . S
O200 Fe201 1.918 . S
Fe201 O200 1.918 . S
Fe201 O202 2.002 . S
Fe201 O211 1.976 . S
Fe201 O215 1.996 . S
Fe201 O218 1.997 . S
O202 Fe201 2.002 . S
O202 C219 1.295 . S
O203 Fe198 1.997 . S
O203 C219 1.235 . S
O204 Fe198 2.002 . S
O204 C205 1.295 . S
C205 O204 1.295 . S
C205 O207 1.235 . S
C206 O211 1.287 . S
C206 O212 1.255 . S
O207 Fe199 1.997 . S
O207 C205 1.235 . S
C208 O214 1.287 . S
C208 O215 1.255 . S
O209 Fe198 1.976 . S
O209 C216 1.287 . S
O210 Fe199 1.996 . S
O210 C216 1.255 . S
O211 Fe201 1.976 . S
O211 C206 1.287 . S
O212 Fe198 1.996 . S
O212 C206 1.255 . S
C213 O217 1.295 . S
C213 O218 1.235 . S
O214 Fe199 1.976 . S
O214 C208 1.287 . S
O215 Fe201 1.996 . S
O215 C208 1.255 . S
C216 O209 1.287 . S
C216 O210 1.255 . S
O217 Fe199 2.002 . S
O217 C213 1.295 . S
O218 Fe201 1.997 . S
O218 C213 1.235 . S
C219 O202 1.295 . S
C219 O203 1.235 . S
Fe220 O222 1.918 . S
Fe220 O225 1.997 . S
Fe220 O226 2.002 . S
Fe220 O231 1.976 . S
Fe220 O234 1.996 . S
Fe221 O222 1.918 . S
Fe221 O229 1.997 . S
Fe221 O232 1.996 1_455 S
Fe221 O236 1.976 . S
Fe221 O239 2.002 . S
O222 Fe220 1.918 . S
O222 Fe221 1.918 . S
O222 Fe223 1.918 . S
Fe223 O222 1.918 . S
Fe223 O224 2.002 . S
Fe223 O233 1.976 . S
Fe223 O237 1.996 . S
Fe223 O240 1.997 . S
O224 Fe223 2.002 . S
O224 C241 1.295 . S
O225 Fe220 1.997 . S
O225 C241 1.235 . S
O226 Fe220 2.002 . S
O226 C227 1.295 . S
C227 O226 1.295 . S
C227 O229 1.235 . S
C228 O233 1.287 . S
C228 O234 1.255 . S
O229 Fe221 1.997 . S
O229 C227 1.235 . S
C230 O236 1.287 . S
C230 O237 1.255 . S
O231 Fe220 1.976 . S
O231 C238 1.287 . S
O232 Fe221 1.996 1_655 S
O232 C238 1.255 1_655 S
O233 Fe223 1.976 . S
O233 C228 1.287 . S
O234 Fe220 1.996 . S
O234 C228 1.255 . S
C235 O239 1.295 . S
C235 O240 1.235 . S
O236 Fe221 1.976 . S
O236 C230 1.287 . S
O237 Fe223 1.996 . S
O237 C230 1.255 . S
C238 O231 1.287 . S
C238 O232 1.255 1_455 S
O239 Fe221 2.002 . S
O239 C235 1.295 . S
O240 Fe223 1.997 . S
O240 C235 1.235 . S
C241 O224 1.295 . S
C241 O225 1.235 . S
Fe242 O244 1.918 . S
Fe242 O247 1.997 . S
Fe242 O248 2.002 . S
Fe242 O253 1.976 . S
Fe242 O256 1.996 1_545 S
Fe243 O244 1.918 . S
Fe243 O251 1.997 . S
Fe243 O254 1.996 . S
Fe243 O258 1.976 . S
Fe243 O261 2.002 . S
O244 Fe242 1.918 . S
O244 Fe243 1.918 . S
O244 Fe245 1.918 . S
Fe245 O244 1.918 . S
Fe245 O246 2.002 . S
Fe245 O255 1.976 . S
Fe245 O259 1.996 . S
Fe245 O262 1.997 . S
O246 Fe245 2.002 . S
O246 C263 1.295 . S
O247 Fe242 1.997 . S
O247 C263 1.235 . S
O248 Fe242 2.002 . S
O248 C249 1.295 . S
C249 O248 1.295 . S
C249 O251 1.235 . S
C250 O255 1.287 . S
C250 O256 1.255 1_545 S
O251 Fe243 1.997 . S
O251 C249 1.235 . S
C252 O258 1.287 . S
C252 O259 1.255 . S
O253 Fe242 1.976 . S
O253 C260 1.287 . S
O254 Fe243 1.996 . S
O254 C260 1.255 . S
O255 Fe245 1.976 . S
O255 C250 1.287 . S
O256 Fe242 1.996 1_565 S
O256 C250 1.255 1_565 S
C257 O261 1.295 . S
C257 O262 1.235 . S
O258 Fe243 1.976 . S
O258 C252 1.287 . S
O259 Fe245 1.996 . S
O259 C252 1.255 . S
C260 O253 1.287 . S
C260 O254 1.255 . S
O261 Fe243 2.002 . S
O261 C257 1.295 . S
O262 Fe245 1.997 . S
O262 C257 1.235 . S
C263 O246 1.295 . S
C263 O247 1.235 . S
Fe264 O266 1.918 . S
Fe264 O269 1.997 . S
Fe264 O270 2.002 . S
Fe264 O275 1.976 . S
Fe264 O278 1.996 . S
Fe265 O266 1.918 . S
Fe265 O273 1.997 . S
Fe265 O276 1.996 1_655 S
Fe265 O280 1.976 . S
Fe265 O283 2.002 . S
O266 Fe264 1.918 . S
O266 Fe265 1.918 . S
O266 Fe267 1.918 . S
Fe267 O266 1.918 . S
Fe267 O268 2.002 . S
Fe267 O277 1.976 . S
Fe267 O281 1.996 . S
Fe267 O284 1.997 . S
O268 Fe267 2.002 . S
O268 C285 1.295 . S
O269 Fe264 1.997 . S
O269 C285 1.235 . S
O270 Fe264 2.002 . S
O270 C271 1.295 . S
C271 O270 1.295 . S
C271 O273 1.235 . S
C272 O277 1.287 . S
C272 O278 1.255 . S
O273 Fe265 1.997 . S
O273 C271 1.235 . S
C274 O280 1.287 . S
C274 O281 1.255 . S
O275 Fe264 1.976 . S
O275 C282 1.287 . S
O276 Fe265 1.996 1_455 S
O276 C282 1.255 1_455 S
O277 Fe267 1.976 . S
O277 C272 1.287 . S
O278 Fe264 1.996 . S
O278 C272 1.255 . S
C279 O283 1.295 . S
C279 O284 1.235 . S
O280 Fe265 1.976 . S
O280 C274 1.287 . S
O281 Fe267 1.996 . S
O281 C274 1.255 . S
C282 O275 1.287 . S
C282 O276 1.255 1_655 S
O283 Fe265 2.002 . S
O283 C279 1.295 . S
O284 Fe267 1.997 . S
O284 C279 1.235 . S
C285 O268 1.295 . S
C285 O269 1.235 . S
Fe286 O288 1.918 . S
Fe286 O291 1.997 . S
Fe286 O292 2.002 . S
Fe286 O297 1.976 . S
Fe286 O300 1.996 . S
Fe287 O288 1.918 . S
Fe287 O295 1.997 . S
Fe287 O298 1.996 . S
Fe287 O302 1.976 . S
Fe287 O305 2.002 . S
O288 Fe286 1.918 . S
O288 Fe287 1.918 . S
O288 Fe289 1.918 . S
Fe289 O288 1.918 . S
Fe289 O290 2.002 . S
Fe289 O299 1.976 . S
Fe289 O303 1.996 1_565 S
Fe289 O306 1.997 . S
O290 Fe289 2.002 . S
O290 C307 1.295 . S
O291 Fe286 1.997 . S
O291 C307 1.235 . S
O292 Fe286 2.002 . S
O292 C293 1.295 . S
C293 O292 1.295 . S
C293 O295 1.235 . S
C294 O299 1.287 . S
C294 O300 1.255 . S
O295 Fe287 1.997 . S
O295 C293 1.235 . S
C296 O302 1.287 . S
C296 O303 1.255 1_565 S
O297 Fe286 1.976 . S
O297 C304 1.287 . S
O298 Fe287 1.996 . S
O298 C304 1.255 . S
O299 Fe289 1.976 . S
O299 C294 1.287 . S
O300 Fe286 1.996 . S
O300 C294 1.255 . S
C301 O305 1.295 . S
C301 O306 1.235 . S
O302 Fe287 1.976 . S
O302 C296 1.287 . S
O303 Fe289 1.996 1_545 S
O303 C296 1.255 1_545 S
C304 O297 1.287 . S
C304 O298 1.255 . S
O305 Fe287 2.002 . S
O305 C301 1.295 . S
O306 Fe289 1.997 . S
O306 C301 1.235 . S
C307 O290 1.295 . S
C307 O291 1.235 . S
Fe308 O310 1.918 . S
Fe308 O313 1.997 . S
Fe308 O314 2.002 . S
Fe308 O319 1.976 . S
Fe308 O322 1.996 . S
Fe309 O310 1.918 . S
Fe309 O317 1.997 . S
Fe309 O320 1.996 . S
Fe309 O324 1.976 . S
Fe309 O327 2.002 . S
O310 Fe308 1.918 . S
O310 Fe309 1.918 . S
O310 Fe311 1.918 . S
Fe311 O310 1.918 . S
Fe311 O312 2.002 . S
Fe311 O321 1.976 . S
Fe311 O325 1.996 . S
Fe311 O328 1.997 . S
O312 Fe311 2.002 . S
O312 C329 1.295 . S
O313 Fe308 1.997 . S
O313 C329 1.235 . S
O314 Fe308 2.002 . S
O314 C315 1.295 . S
C315 O314 1.295 . S
C315 O317 1.235 . S
C316 O321 1.287 . S
C316 O322 1.255 . S
O317 Fe309 1.997 . S
O317 C315 1.235 . S
C318 O324 1.287 . S
C318 O325 1.255 . S
O319 Fe308 1.976 . S
O319 C326 1.287 . S
O320 Fe309 1.996 . S
O320 C326 1.255 . S
O321 Fe311 1.976 . S
O321 C316 1.287 . S
O322 Fe308 1.996 . S
O322 C316 1.255 . S
C323 O327 1.295 . S
C323 O328 1.235 . S
O324 Fe309 1.976 . S
O324 C318 1.287 . S
O325 Fe311 1.996 . S
O325 C318 1.255 . S
C326 O319 1.287 . S
C326 O320 1.255 . S
O327 Fe309 2.002 . S
O327 C323 1.295 . S
O328 Fe311 1.997 . S
O328 C323 1.235 . S
C329 O312 1.295 . S
C329 O313 1.235 . S
Fe330 O332 1.918 . S
Fe330 O335 1.997 . S
Fe330 O336 2.002 . S
Fe330 O341 1.976 . S
Fe330 O344 1.996 . S
Fe331 O332 1.918 . S
Fe331 O339 1.997 . S
Fe331 O342 1.996 . S
Fe331 O346 1.976 . S
Fe331 O349 2.002 . S
O332 Fe330 1.918 . S
O332 Fe331 1.918 . S
O332 Fe333 1.918 . S
Fe333 O332 1.918 . S
Fe333 O334 2.002 . S
Fe333 O343 1.976 . S
Fe333 O347 1.996 . S
Fe333 O350 1.997 . S
O334 Fe333 2.002 . S
O334 C351 1.295 . S
O335 Fe330 1.997 . S
O335 C351 1.235 . S
O336 Fe330 2.002 . S
O336 C337 1.295 . S
C337 O336 1.295 . S
C337 O339 1.235 . S
C338 O343 1.287 . S
C338 O344 1.255 . S
O339 Fe331 1.997 . S
O339 C337 1.235 . S
C340 O346 1.287 . S
C340 O347 1.255 . S
O341 Fe330 1.976 . S
O341 C348 1.287 . S
O342 Fe331 1.996 . S
O342 C348 1.255 . S
O343 Fe333 1.976 . S
O343 C338 1.287 . S
O344 Fe330 1.996 . S
O344 C338 1.255 . S
C345 O349 1.295 . S
C345 O350 1.235 . S
O346 Fe331 1.976 . S
O346 C340 1.287 . S
O347 Fe333 1.996 . S
O347 C340 1.255 . S
C348 O341 1.287 . S
C348 O342 1.255 . S
O349 Fe331 2.002 . S
O349 C345 1.295 . S
O350 Fe333 1.997 . S
O350 C345 1.235 . S
C351 O334 1.295 . S
C351 O335 1.235 . S
H352 C364 0.930 . S
H353 C366 0.930 . S
H354 C367 0.930 . S
H355 C371 0.959 . S
H356 C371 0.959 . S
H357 C371 0.961 . S
H358 C372 0.960 . S
H359 C372 0.961 . S
H360 C372 0.959 . S
H361 C375 0.929 . S
H362 C376 0.931 . S
H363 C378 0.930 . S
C364 H352 0.930 . S
C364 C365 1.399 . S
C364 C369 1.399 . S
C365 C364 1.399 . S
C365 C366 1.376 . S
C366 H353 0.930 . S
C366 C365 1.376 . S
C366 C367 1.388 . S
C367 H354 0.930 . S
C367 C366 1.388 . S
C367 C368 1.390 . S
C368 C367 1.390 . S
C368 C369 1.394 . S
C368 C374 1.465 . S
C369 C364 1.399 . S
C369 C368 1.394 . S
C369 C370 1.516 . S
C370 C369 1.516 . S
C370 C371 1.502 . S
C370 C372 1.561 . S
C370 C373 1.526 . S
C371 H355 0.959 . S
C371 H356 0.959 . S
C371 H357 0.961 . S
C371 C370 1.502 . S
C372 H358 0.960 . S
C372 H359 0.961 . S
C372 H360 0.959 . S
C372 C370 1.561 . S
C373 C370 1.526 . S
C373 C374 1.396 . S
C373 C378 1.390 . S
C374 C368 1.465 . S
C374 C373 1.396 . S
C374 C375 1.399 . S
C375 H361 0.929 . S
C375 C374 1.399 . S
C375 C376 1.385 . S
C376 H362 0.931 . S
C376 C375 1.385 . S
C376 C377 1.389 . S
C377 C376 1.389 . S
C377 C378 1.387 . S
C378 H363 0.930 . S
C378 C373 1.390 . S
C378 C377 1.387 . S
H379 C391 0.930 . S
H380 C393 0.930 . S
H381 C394 0.930 . S
H382 C398 0.959 . S
H383 C398 0.959 . S
H384 C398 0.961 . S
H385 C399 0.960 . S
H386 C399 0.961 . S
H387 C399 0.959 . S
H388 C402 0.929 . S
H389 C403 0.931 . S
H390 C405 0.930 . S
C391 H379 0.930 . S
C391 C392 1.399 . S
C391 C396 1.399 . S
C392 C391 1.399 . S
C392 C393 1.376 . S
C393 H380 0.930 . S
C393 C392 1.376 . S
C393 C394 1.388 . S
C394 H381 0.930 . S
C394 C393 1.388 . S
C394 C395 1.390 . S
C395 C394 1.390 . S
C395 C396 1.394 . S
C395 C401 1.465 . S
C396 C391 1.399 . S
C396 C395 1.394 . S
C396 C397 1.516 . S
C397 C396 1.516 . S
C397 C398 1.502 . S
C397 C399 1.561 . S
C397 C400 1.526 . S
C398 H382 0.959 . S
C398 H383 0.959 . S
C398 H384 0.961 . S
C398 C397 1.502 . S
C399 H385 0.960 . S
C399 H386 0.961 . S
C399 H387 0.959 . S
C399 C397 1.561 . S
C400 C397 1.526 . S
C400 C401 1.396 . S
C400 C405 1.390 . S
C401 C395 1.465 . S
C401 C400 1.396 . S
C401 C402 1.399 . S
C402 H388 0.929 . S
C402 C401 1.399 . S
C402 C403 1.385 . S
C403 H389 0.931 . S
C403 C402 1.385 . S
C403 C404 1.389 . S
C404 C403 1.389 . S
C404 C405 1.387 . S
C405 H390 0.930 . S
C405 C400 1.390 . S
C405 C404 1.387 . S
H406 C418 0.930 . S
H407 C420 0.930 . S
H408 C421 0.930 . S
H409 C425 0.959 . S
H410 C425 0.959 . S
H411 C425 0.961 . S
H412 C426 0.960 . S
H413 C426 0.961 . S
H414 C426 0.959 . S
H415 C429 0.929 . S
H416 C430 0.931 . S
H417 C432 0.930 . S
C418 H406 0.930 . S
C418 C419 1.399 . S
C418 C423 1.399 . S
C419 C418 1.399 . S
C419 C420 1.376 . S
C420 H407 0.930 . S
C420 C419 1.376 . S
C420 C421 1.388 . S
C421 H408 0.930 . S
C421 C420 1.388 . S
C421 C422 1.390 . S
C422 C421 1.390 . S
C422 C423 1.394 . S
C422 C428 1.465 . S
C423 C418 1.399 . S
C423 C422 1.394 . S
C423 C424 1.516 . S
C424 C423 1.516 . S
C424 C425 1.502 . S
C424 C426 1.561 . S
C424 C427 1.526 . S
C425 H409 0.959 . S
C425 H410 0.959 . S
C425 H411 0.961 . S
C425 C424 1.502 . S
C426 H412 0.960 . S
C426 H413 0.961 . S
C426 H414 0.959 . S
C426 C424 1.561 . S
C427 C424 1.526 . S
C427 C428 1.396 . S
C427 C432 1.390 . S
C428 C422 1.465 . S
C428 C427 1.396 . S
C428 C429 1.399 . S
C429 H415 0.929 . S
C429 C428 1.399 . S
C429 C430 1.385 . S
C430 H416 0.931 . S
C430 C429 1.385 . S
C430 C431 1.389 . S
C431 C430 1.389 . S
C431 C432 1.387 . S
C432 H417 0.930 . S
C432 C427 1.390 . S
C432 C431 1.387 . S
H433 C445 0.930 . S
H434 C447 0.930 . S
H435 C448 0.930 . S
H436 C452 0.959 . S
H437 C452 0.959 . S
H438 C452 0.961 . S
H439 C453 0.960 . S
H440 C453 0.961 . S
H441 C453 0.959 . S
H442 C456 0.929 . S
H443 C457 0.931 . S
H444 C459 0.930 . S
C445 H433 0.930 . S
C445 C446 1.399 . S
C445 C450 1.399 . S
C446 C445 1.399 . S
C446 C447 1.376 . S
C447 H434 0.930 . S
C447 C446 1.376 . S
C447 C448 1.388 . S
C448 H435 0.930 . S
C448 C447 1.388 . S
C448 C449 1.390 . S
C449 C448 1.390 . S
C449 C450 1.394 . S
C449 C455 1.465 . S
C450 C445 1.399 . S
C450 C449 1.394 . S
C450 C451 1.516 . S
C451 C450 1.516 . S
C451 C452 1.502 . S
C451 C453 1.561 . S
C451 C454 1.526 . S
C452 H436 0.959 . S
C452 H437 0.959 . S
C452 H438 0.961 . S
C452 C451 1.502 . S
C453 H439 0.960 . S
C453 H440 0.961 . S
C453 H441 0.959 . S
C453 C451 1.561 . S
C454 C451 1.526 . S
C454 C455 1.396 . S
C454 C459 1.390 . S
C455 C449 1.465 . S
C455 C454 1.396 . S
C455 C456 1.399 . S
C456 H442 0.929 . S
C456 C455 1.399 . S
C456 C457 1.385 . S
C457 H443 0.931 . S
C457 C456 1.385 . S
C457 C458 1.389 . S
C458 C457 1.389 . S
C458 C459 1.387 . S
C459 H444 0.930 . S
C459 C454 1.390 . S
C459 C458 1.387 . S
H460 C472 0.930 . S
H461 C474 0.930 . S
H462 C475 0.930 . S
H463 C479 0.959 . S
H464 C479 0.959 . S
H465 C479 0.961 . S
H466 C480 0.960 . S
H467 C480 0.961 . S
H468 C480 0.959 . S
H469 C483 0.929 . S
H470 C484 0.931 . S
H471 C486 0.930 . S
C472 H460 0.930 . S
C472 C473 1.399 . S
C472 C477 1.399 . S
C473 C472 1.399 . S
C473 C474 1.376 . S
C474 H461 0.930 . S
C474 C473 1.376 . S
C474 C475 1.388 . S
C475 H462 0.930 . S
C475 C474 1.388 . S
C475 C476 1.390 . S
C476 C475 1.390 . S
C476 C477 1.394 . S
C476 C482 1.465 . S
C477 C472 1.399 . S
C477 C476 1.394 . S
C477 C478 1.516 . S
C478 C477 1.516 . S
C478 C479 1.502 . S
C478 C480 1.561 . S
C478 C481 1.526 . S
C479 H463 0.959 . S
C479 H464 0.959 . S
C479 H465 0.961 . S
C479 C478 1.502 . S
C480 H466 0.960 . S
C480 H467 0.961 . S
C480 H468 0.959 . S
C480 C478 1.561 . S
C481 C478 1.526 . S
C481 C482 1.396 . S
C481 C486 1.390 . S
C482 C476 1.465 . S
C482 C481 1.396 . S
C482 C483 1.399 . S
C483 H469 0.929 . S
C483 C482 1.399 . S
C483 C484 1.385 . S
C484 H470 0.931 . S
C484 C483 1.385 . S
C484 C485 1.389 . S
C485 C484 1.389 . S
C485 C486 1.387 . S
C486 H471 0.930 . S
C486 C481 1.390 . S
C486 C485 1.387 . S
H487 C499 0.930 . S
H488 C501 0.930 . S
H489 C502 0.930 . S
H490 C506 0.959 . S
H491 C506 0.959 . S
H492 C506 0.961 . S
H493 C507 0.960 . S
H494 C507 0.961 . S
H495 C507 0.959 . S
H496 C510 0.929 . S
H497 C511 0.931 . S
H498 C513 0.930 . S
C499 H487 0.930 . S
C499 C500 1.399 . S
C499 C504 1.399 . S
C500 C499 1.399 . S
C500 C501 1.376 . S
C501 H488 0.930 . S
C501 C500 1.376 . S
C501 C502 1.388 . S
C502 H489 0.930 . S
C502 C501 1.388 . S
C502 C503 1.390 . S
C503 C502 1.390 . S
C503 C504 1.394 . S
C503 C509 1.465 . S
C504 C499 1.399 . S
C504 C503 1.394 . S
C504 C505 1.516 . S
C505 C504 1.516 . S
C505 C506 1.502 . S
C505 C507 1.561 . S
C505 C508 1.526 . S
C506 H490 0.959 . S
C506 H491 0.959 . S
C506 H492 0.961 . S
C506 C505 1.502 . S
C507 H493 0.960 . S
C507 H494 0.961 . S
C507 H495 0.959 . S
C507 C505 1.561 . S
C508 C505 1.526 . S
C508 C509 1.396 . S
C508 C513 1.390 . S
C509 C503 1.465 . S
C509 C508 1.396 . S
C509 C510 1.399 . S
C510 H496 0.929 . S
C510 C509 1.399 . S
C510 C511 1.385 . S
C511 H497 0.931 . S
C511 C510 1.385 . S
C511 C512 1.389 . S
C512 C511 1.389 . S
C512 C513 1.387 . S
C513 H498 0.930 . S
C513 C508 1.390 . S
C513 C512 1.387 . S
H514 C526 0.930 . S
H515 C528 0.930 . S
H516 C529 0.930 . S
H517 C533 0.959 . S
H518 C533 0.959 . S
H519 C533 0.961 . S
H520 C534 0.960 . S
H521 C534 0.961 . S
H522 C534 0.959 . S
H523 C537 0.929 . S
H524 C538 0.931 . S
H525 C540 0.930 . S
C526 H514 0.930 . S
C526 C527 1.399 . S
C526 C531 1.399 . S
C527 C526 1.399 . S
C527 C528 1.376 . S
C528 H515 0.930 . S
C528 C527 1.376 . S
C528 C529 1.388 . S
C529 H516 0.930 . S
C529 C528 1.388 . S
C529 C530 1.390 . S
C530 C529 1.390 . S
C530 C531 1.394 . S
C530 C536 1.465 . S
C531 C526 1.399 . S
C531 C530 1.394 . S
C531 C532 1.516 . S
C532 C531 1.516 . S
C532 C533 1.502 . S
C532 C534 1.561 . S
C532 C535 1.526 . S
C533 H517 0.959 . S
C533 H518 0.959 . S
C533 H519 0.961 . S
C533 C532 1.502 . S
C534 H520 0.960 . S
C534 H521 0.961 . S
C534 H522 0.959 . S
C534 C532 1.561 . S
C535 C532 1.526 . S
C535 C536 1.396 . S
C535 C540 1.390 . S
C536 C530 1.465 . S
C536 C535 1.396 . S
C536 C537 1.399 . S
C537 H523 0.929 . S
C537 C536 1.399 . S
C537 C538 1.385 . S
C538 H524 0.931 . S
C538 C537 1.385 . S
C538 C539 1.389 . S
C539 C538 1.389 . S
C539 C540 1.387 . S
C540 H525 0.930 . S
C540 C535 1.390 . S
C540 C539 1.387 . S
H541 C553 0.930 . S
H542 C555 0.930 . S
H543 C556 0.930 . S
H544 C560 0.959 . S
H545 C560 0.959 . S
H546 C560 0.961 . S
H547 C561 0.960 . S
H548 C561 0.961 . S
H549 C561 0.959 . S
H550 C564 0.929 . S
H551 C565 0.931 . S
H552 C567 0.930 . S
C553 H541 0.930 . S
C553 C554 1.399 . S
C553 C558 1.399 . S
C554 C553 1.399 . S
C554 C555 1.376 . S
C555 H542 0.930 . S
C555 C554 1.376 . S
C555 C556 1.388 . S
C556 H543 0.930 . S
C556 C555 1.388 . S
C556 C557 1.390 . S
C557 C556 1.390 . S
C557 C558 1.394 . S
C557 C563 1.465 . S
C558 C553 1.399 . S
C558 C557 1.394 . S
C558 C559 1.516 . S
C559 C558 1.516 . S
C559 C560 1.502 . S
C559 C561 1.561 . S
C559 C562 1.526 . S
C560 H544 0.959 . S
C560 H545 0.959 . S
C560 H546 0.961 . S
C560 C559 1.502 . S
C561 H547 0.960 . S
C561 H548 0.961 . S
C561 H549 0.959 . S
C561 C559 1.561 . S
C562 C559 1.526 . S
C562 C563 1.396 . S
C562 C567 1.390 . S
C563 C557 1.465 . S
C563 C562 1.396 . S
C563 C564 1.399 . S
C564 H550 0.929 . S
C564 C563 1.399 . S
C564 C565 1.385 . S
C565 H551 0.931 . S
C565 C564 1.385 . S
C565 C566 1.389 . S
C566 C565 1.389 . S
C566 C567 1.387 . S
C567 H552 0.930 . S
C567 C562 1.390 . S
C567 C566 1.387 . S
H568 C580 0.930 . S
H569 C582 0.930 . S
H570 C583 0.930 . S
H571 C587 0.959 . S
H572 C587 0.959 . S
H573 C587 0.961 . S
H574 C588 0.960 . S
H575 C588 0.961 . S
H576 C588 0.959 . S
H577 C591 0.929 . S
H578 C592 0.931 1_565 S
H579 C594 0.930 . S
C580 H568 0.930 . S
C580 C581 1.399 . S
C580 C585 1.399 . S
C581 C580 1.399 . S
C581 C582 1.376 . S
C582 H569 0.930 . S
C582 C581 1.376 . S
C582 C583 1.388 . S
C583 H570 0.930 . S
C583 C582 1.388 . S
C583 C584 1.390 . S
C584 C583 1.390 . S
C584 C585 1.394 . S
C584 C590 1.465 . S
C585 C580 1.399 . S
C585 C584 1.394 . S
C585 C586 1.516 . S
C586 C585 1.516 . S
C586 C587 1.502 . S
C586 C588 1.561 . S
C586 C589 1.526 . S
C587 H571 0.959 . S
C587 H572 0.959 . S
C587 H573 0.961 . S
C587 C586 1.502 . S
C588 H574 0.960 . S
C588 H575 0.961 . S
C588 H576 0.959 . S
C588 C586 1.561 . S
C589 C586 1.526 . S
C589 C590 1.396 . S
C589 C594 1.390 . S
C590 C584 1.465 . S
C590 C589 1.396 . S
C590 C591 1.399 . S
C591 H577 0.929 . S
C591 C590 1.399 . S
C591 C592 1.385 . S
C592 H578 0.931 1_545 S
C592 C591 1.385 . S
C592 C593 1.389 . S
C593 C592 1.389 . S
C593 C594 1.387 . S
C594 H579 0.930 . S
C594 C589 1.390 . S
C594 C593 1.387 . S
H595 C607 0.930 . S
H596 C609 0.930 . S
H597 C610 0.930 . S
H598 C614 0.959 . S
H599 C614 0.959 . S
H600 C614 0.961 . S
H601 C615 0.960 . S
H602 C615 0.961 . S
H603 C615 0.959 . S
H604 C618 0.929 . S
H605 C619 0.931 . S
H606 C621 0.930 . S
C607 H595 0.930 . S
C607 C608 1.399 . S
C607 C612 1.399 . S
C608 C607 1.399 . S
C608 C609 1.376 . S
C609 H596 0.930 . S
C609 C608 1.376 . S
C609 C610 1.388 . S
C610 H597 0.930 . S
C610 C609 1.388 . S
C610 C611 1.390 . S
C611 C610 1.390 . S
C611 C612 1.394 . S
C611 C617 1.465 . S
C612 C607 1.399 . S
C612 C611 1.394 . S
C612 C613 1.516 . S
C613 C612 1.516 . S
C613 C614 1.502 . S
C613 C615 1.561 . S
C613 C616 1.526 . S
C614 H598 0.959 . S
C614 H599 0.959 . S
C614 H600 0.961 . S
C614 C613 1.502 . S
C615 H601 0.960 . S
C615 H602 0.961 . S
C615 H603 0.959 . S
C615 C613 1.561 . S
C616 C613 1.526 . S
C616 C617 1.396 . S
C616 C621 1.390 . S
C617 C611 1.465 . S
C617 C616 1.396 . S
C617 C618 1.399 . S
C618 H604 0.929 . S
C618 C617 1.399 . S
C618 C619 1.385 . S
C619 H605 0.931 . S
C619 C618 1.385 . S
C619 C620 1.389 . S
C620 C619 1.389 . S
C620 C621 1.387 . S
C621 H606 0.930 . S
C621 C616 1.390 . S
C621 C620 1.387 . S
H622 C634 0.930 . S
H623 C636 0.930 . S
H624 C637 0.930 . S
H625 C641 0.959 . S
H626 C641 0.959 . S
H627 C641 0.961 . S
H628 C642 0.960 . S
H629 C642 0.961 . S
H630 C642 0.959 . S
H631 C645 0.929 . S
H632 C646 0.931 . S
H633 C648 0.930 . S
C634 H622 0.930 . S
C634 C635 1.399 . S
C634 C639 1.399 . S
C635 C634 1.399 . S
C635 C636 1.376 . S
C636 H623 0.930 . S
C636 C635 1.376 . S
C636 C637 1.388 . S
C637 H624 0.930 . S
C637 C636 1.388 . S
C637 C638 1.390 . S
C638 C637 1.390 . S
C638 C639 1.394 . S
C638 C644 1.465 . S
C639 C634 1.399 . S
C639 C638 1.394 . S
C639 C640 1.516 . S
C640 C639 1.516 . S
C640 C641 1.502 . S
C640 C642 1.561 . S
C640 C643 1.526 . S
C641 H625 0.959 . S
C641 H626 0.959 . S
C641 H627 0.961 . S
C641 C640 1.502 . S
C642 H628 0.960 . S
C642 H629 0.961 . S
C642 H630 0.959 . S
C642 C640 1.561 . S
C643 C640 1.526 . S
C643 C644 1.396 . S
C643 C648 1.390 . S
C644 C638 1.465 . S
C644 C643 1.396 . S
C644 C645 1.399 . S
C645 H631 0.929 . S
C645 C644 1.399 . S
C645 C646 1.385 . S
C646 H632 0.931 . S
C646 C645 1.385 . S
C646 C647 1.389 . S
C647 C646 1.389 . S
C647 C648 1.387 . S
C648 H633 0.930 . S
C648 C643 1.390 . S
C648 C647 1.387 . S
H649 C661 0.930 . S
H650 C663 0.930 . S
H651 C664 0.930 . S
H652 C668 0.959 . S
H653 C668 0.959 . S
H654 C668 0.961 . S
H655 C669 0.960 . S
H656 C669 0.961 . S
H657 C669 0.959 . S
H658 C672 0.929 . S
H659 C673 0.931 . S
H660 C675 0.930 . S
C661 H649 0.930 . S
C661 C662 1.399 . S
C661 C666 1.399 . S
C662 C661 1.399 . S
C662 C663 1.376 . S
C663 H650 0.930 . S
C663 C662 1.376 . S
C663 C664 1.388 . S
C664 H651 0.930 . S
C664 C663 1.388 . S
C664 C665 1.390 . S
C665 C664 1.390 . S
C665 C666 1.394 . S
C665 C671 1.465 . S
C666 C661 1.399 . S
C666 C665 1.394 . S
C666 C667 1.516 . S
C667 C666 1.516 . S
C667 C668 1.502 . S
C667 C669 1.561 . S
C667 C670 1.526 . S
C668 H652 0.959 . S
C668 H653 0.959 . S
C668 H654 0.961 . S
C668 C667 1.502 . S
C669 H655 0.960 . S
C669 H656 0.961 . S
C669 H657 0.959 . S
C669 C667 1.561 . S
C670 C667 1.526 . S
C670 C671 1.396 . S
C670 C675 1.390 . S
C671 C665 1.465 . S
C671 C670 1.396 . S
C671 C672 1.399 . S
C672 H658 0.929 . S
C672 C671 1.399 . S
C672 C673 1.385 . S
C673 H659 0.931 . S
C673 C672 1.385 . S
C673 C674 1.389 . S
C674 C673 1.389 . S
C674 C675 1.387 . S
C675 H660 0.930 . S
C675 C670 1.390 . S
C675 C674 1.387 . S
H676 C688 0.930 . S
H677 C690 0.930 1_455 S
H678 C691 0.930 . S
H679 C695 0.959 . S
H680 C695 0.959 . S
H681 C695 0.961 . S
H682 C696 0.960 . S
H683 C696 0.961 . S
H684 C696 0.959 . S
H685 C699 0.929 . S
H686 C700 0.931 1_545 S
H687 C702 0.930 . S
C688 H676 0.930 . S
C688 C689 1.399 . S
C688 C693 1.399 . S
C689 C688 1.399 . S
C689 C690 1.376 . S
C690 H677 0.930 1_655 S
C690 C689 1.376 . S
C690 C691 1.388 . S
C691 H678 0.930 . S
C691 C690 1.388 . S
C691 C692 1.390 . S
C692 C691 1.390 . S
C692 C693 1.394 . S
C692 C698 1.465 . S
C693 C688 1.399 . S
C693 C692 1.394 . S
C693 C694 1.516 . S
C694 C693 1.516 . S
C694 C695 1.502 . S
C694 C696 1.561 . S
C694 C697 1.526 . S
C695 H679 0.959 . S
C695 H680 0.959 . S
C695 H681 0.961 . S
C695 C694 1.502 . S
C696 H682 0.960 . S
C696 H683 0.961 . S
C696 H684 0.959 . S
C696 C694 1.561 . S
C697 C694 1.526 . S
C697 C698 1.396 . S
C697 C702 1.390 . S
C698 C692 1.465 . S
C698 C697 1.396 . S
C698 C699 1.399 . S
C699 H685 0.929 . S
C699 C698 1.399 . S
C699 C700 1.385 . S
C700 H686 0.931 1_565 S
C700 C699 1.385 . S
C700 C701 1.389 . S
C701 C700 1.389 . S
C701 C702 1.387 . S
C702 H687 0.930 . S
C702 C697 1.390 . S
C702 C701 1.387 . S
H703 C715 0.930 . S
H704 C717 0.930 . S
H705 C718 0.930 . S
H706 C722 0.959 . S
H707 C722 0.959 . S
H708 C722 0.961 . S
H709 C723 0.960 . S
H710 C723 0.961 . S
H711 C723 0.959 . S
H712 C726 0.929 . S
H713 C727 0.931 . S
H714 C729 0.930 . S
C715 H703 0.930 . S
C715 C716 1.399 . S
C715 C720 1.399 . S
C716 C715 1.399 . S
C716 C717 1.376 . S
C717 H704 0.930 . S
C717 C716 1.376 . S
C717 C718 1.388 . S
C718 H705 0.930 . S
C718 C717 1.388 . S
C718 C719 1.390 . S
C719 C718 1.390 . S
C719 C720 1.394 . S
C719 C725 1.465 . S
C720 C715 1.399 . S
C720 C719 1.394 . S
C720 C721 1.516 . S
C721 C720 1.516 . S
C721 C722 1.502 . S
C721 C723 1.561 . S
C721 C724 1.526 . S
C722 H706 0.959 . S
C722 H707 0.959 . S
C722 H708 0.961 . S
C722 C721 1.502 . S
C723 H709 0.960 . S
C723 H710 0.961 . S
C723 H711 0.959 . S
C723 C721 1.561 . S
C724 C721 1.526 . S
C724 C725 1.396 . S
C724 C729 1.390 . S
C725 C719 1.465 . S
C725 C724 1.396 . S
C725 C726 1.399 . S
C726 H712 0.929 . S
C726 C725 1.399 . S
C726 C727 1.385 . S
C727 H713 0.931 . S
C727 C726 1.385 . S
C727 C728 1.389 . S
C728 C727 1.389 . S
C728 C729 1.387 . S
C729 H714 0.930 . S
C729 C724 1.390 . S
C729 C728 1.387 . S
H730 C742 0.930 . S
H731 C744 0.930 . S
H732 C745 0.930 . S
H733 C749 0.959 . S
H734 C749 0.959 . S
H735 C749 0.961 . S
H736 C750 0.960 . S
H737 C750 0.961 . S
H738 C750 0.959 . S
H739 C753 0.929 . S
H740 C754 0.931 . S
H741 C756 0.930 . S
C742 H730 0.930 . S
C742 C743 1.399 . S
C742 C747 1.399 . S
C743 C742 1.399 . S
C743 C744 1.376 . S
C744 H731 0.930 . S
C744 C743 1.376 . S
C744 C745 1.388 . S
C745 H732 0.930 . S
C745 C744 1.388 . S
C745 C746 1.390 . S
C746 C745 1.390 . S
C746 C747 1.394 . S
C746 C752 1.465 . S
C747 C742 1.399 . S
C747 C746 1.394 . S
C747 C748 1.516 . S
C748 C747 1.516 . S
C748 C749 1.502 . S
C748 C750 1.561 . S
C748 C751 1.526 . S
C749 H733 0.959 . S
C749 H734 0.959 . S
C749 H735 0.961 . S
C749 C748 1.502 . S
C750 H736 0.960 . S
C750 H737 0.961 . S
C750 H738 0.959 . S
C750 C748 1.561 . S
C751 C748 1.526 . S
C751 C752 1.396 . S
C751 C756 1.390 . S
C752 C746 1.465 . S
C752 C751 1.396 . S
C752 C753 1.399 . S
C753 H739 0.929 . S
C753 C752 1.399 . S
C753 C754 1.385 . S
C754 H740 0.931 . S
C754 C753 1.385 . S
C754 C755 1.389 . S
C755 C754 1.389 . S
C755 C756 1.387 . S
C756 H741 0.930 . S
C756 C751 1.390 . S
C756 C755 1.387 . S
H757 C769 0.930 . S
H758 C771 0.930 . S
H759 C772 0.930 . S
H760 C776 0.959 . S
H761 C776 0.959 . S
H762 C776 0.961 . S
H763 C777 0.960 . S
H764 C777 0.961 . S
H765 C777 0.959 . S
H766 C780 0.929 . S
H767 C781 0.931 . S
H768 C783 0.930 . S
C769 H757 0.930 . S
C769 C770 1.399 . S
C769 C774 1.399 . S
C770 C769 1.399 . S
C770 C771 1.376 . S
C771 H758 0.930 . S
C771 C770 1.376 . S
C771 C772 1.388 . S
C772 H759 0.930 . S
C772 C771 1.388 . S
C772 C773 1.390 . S
C773 C772 1.390 . S
C773 C774 1.394 . S
C773 C779 1.465 . S
C774 C769 1.399 . S
C774 C773 1.394 . S
C774 C775 1.516 . S
C775 C774 1.516 . S
C775 C776 1.502 . S
C775 C777 1.561 . S
C775 C778 1.526 . S
C776 H760 0.959 . S
C776 H761 0.959 . S
C776 H762 0.961 . S
C776 C775 1.502 . S
C777 H763 0.960 . S
C777 H764 0.961 . S
C777 H765 0.959 . S
C777 C775 1.561 . S
C778 C775 1.526 . S
C778 C779 1.396 . S
C778 C783 1.390 . S
C779 C773 1.465 . S
C779 C778 1.396 . S
C779 C780 1.399 . S
C780 H766 0.929 . S
C780 C779 1.399 . S
C780 C781 1.385 . S
C781 H767 0.931 . S
C781 C780 1.385 . S
C781 C782 1.389 . S
C782 C781 1.389 . S
C782 C783 1.387 . S
C783 H768 0.930 . S
C783 C778 1.390 . S
C783 C782 1.387 . S
H784 C796 0.930 . S
H785 C798 0.930 . S
H786 C799 0.930 . S
H787 C803 0.959 . S
H788 C803 0.959 . S
H789 C803 0.961 . S
H790 C804 0.960 . S
H791 C804 0.961 . S
H792 C804 0.959 . S
H793 C807 0.929 . S
H794 C808 0.931 . S
H795 C810 0.930 . S
C796 H784 0.930 . S
C796 C797 1.399 . S
C796 C801 1.399 . S
C797 C796 1.399 . S
C797 C798 1.376 . S
C798 H785 0.930 . S
C798 C797 1.376 . S
C798 C799 1.388 . S
C799 H786 0.930 . S
C799 C798 1.388 . S
C799 C800 1.390 . S
C800 C799 1.390 . S
C800 C801 1.394 . S
C800 C806 1.465 . S
C801 C796 1.399 . S
C801 C800 1.394 . S
C801 C802 1.516 . S
C802 C801 1.516 . S
C802 C803 1.502 . S
C802 C804 1.561 . S
C802 C805 1.526 . S
C803 H787 0.959 . S
C803 H788 0.959 . S
C803 H789 0.961 . S
C803 C802 1.502 . S
C804 H790 0.960 . S
C804 H791 0.961 . S
C804 H792 0.959 . S
C804 C802 1.561 . S
C805 C802 1.526 . S
C805 C806 1.396 . S
C805 C810 1.390 . S
C806 C800 1.465 . S
C806 C805 1.396 . S
C806 C807 1.399 . S
C807 H793 0.929 . S
C807 C806 1.399 . S
C807 C808 1.385 . S
C808 H794 0.931 . S
C808 C807 1.385 . S
C808 C809 1.389 . S
C809 C808 1.389 . S
C809 C810 1.387 . S
C810 H795 0.930 . S
C810 C805 1.390 . S
C810 C809 1.387 . S
H811 C823 0.930 . S
H812 C825 0.930 . S
H813 C826 0.930 . S
H814 C830 0.959 . S
H815 C830 0.959 . S
H816 C830 0.961 . S
H817 C831 0.960 . S
H818 C831 0.961 . S
H819 C831 0.959 . S
H820 C834 0.929 . S
H821 C835 0.931 . S
H822 C837 0.930 . S
C823 H811 0.930 . S
C823 C824 1.399 . S
C823 C828 1.399 . S
C824 C823 1.399 . S
C824 C825 1.376 . S
C825 H812 0.930 . S
C825 C824 1.376 . S
C825 C826 1.388 . S
C826 H813 0.930 . S
C826 C825 1.388 . S
C826 C827 1.390 . S
C827 C826 1.390 . S
C827 C828 1.394 . S
C827 C833 1.465 . S
C828 C823 1.399 . S
C828 C827 1.394 . S
C828 C829 1.516 . S
C829 C828 1.516 . S
C829 C830 1.502 . S
C829 C831 1.561 . S
C829 C832 1.526 . S
C830 H814 0.959 . S
C830 H815 0.959 . S
C830 H816 0.961 . S
C830 C829 1.502 . S
C831 H817 0.960 . S
C831 H818 0.961 . S
C831 H819 0.959 . S
C831 C829 1.561 . S
C832 C829 1.526 . S
C832 C833 1.396 . S
C832 C837 1.390 . S
C833 C827 1.465 . S
C833 C832 1.396 . S
C833 C834 1.399 . S
C834 H820 0.929 . S
C834 C833 1.399 . S
C834 C835 1.385 . S
C835 H821 0.931 . S
C835 C834 1.385 . S
C835 C836 1.389 . S
C836 C835 1.389 . S
C836 C837 1.387 . S
C837 H822 0.930 . S
C837 C832 1.390 . S
C837 C836 1.387 . S
H838 C850 0.930 . S
H839 C852 0.930 . S
H840 C853 0.930 . S
H841 C857 0.959 . S
H842 C857 0.959 . S
H843 C857 0.961 . S
H844 C858 0.960 . S
H845 C858 0.961 . S
H846 C858 0.959 . S
H847 C861 0.929 . S
H848 C862 0.931 . S
H849 C864 0.930 . S
C850 H838 0.930 . S
C850 C851 1.399 . S
C850 C855 1.399 . S
C851 C850 1.399 . S
C851 C852 1.376 . S
C852 H839 0.930 . S
C852 C851 1.376 . S
C852 C853 1.388 . S
C853 H840 0.930 . S
C853 C852 1.388 . S
C853 C854 1.390 . S
C854 C853 1.390 . S
C854 C855 1.394 . S
C854 C860 1.465 . S
C855 C850 1.399 . S
C855 C854 1.394 . S
C855 C856 1.516 . S
C856 C855 1.516 . S
C856 C857 1.502 . S
C856 C858 1.561 . S
C856 C859 1.526 . S
C857 H841 0.959 . S
C857 H842 0.959 . S
C857 H843 0.961 . S
C857 C856 1.502 . S
C858 H844 0.960 . S
C858 H845 0.961 . S
C858 H846 0.959 . S
C858 C856 1.561 . S
C859 C856 1.526 . S
C859 C860 1.396 . S
C859 C864 1.390 . S
C860 C854 1.465 . S
C860 C859 1.396 . S
C860 C861 1.399 . S
C861 H847 0.929 . S
C861 C860 1.399 . S
C861 C862 1.385 . S
C862 H848 0.931 . S
C862 C861 1.385 . S
C862 C863 1.389 . S
C863 C862 1.389 . S
C863 C864 1.387 . S
C864 H849 0.930 . S
C864 C859 1.390 . S
C864 C863 1.387 . S
H865 C877 0.930 . S
H866 C879 0.930 . S
H867 C880 0.930 . S
H868 C884 0.959 . S
H869 C884 0.959 . S
H870 C884 0.961 . S
H871 C885 0.960 . S
H872 C885 0.961 . S
H873 C885 0.959 . S
H874 C888 0.929 . S
H875 C889 0.931 . S
H876 C891 0.930 . S
C877 H865 0.930 . S
C877 C878 1.399 . S
C877 C882 1.399 . S
C878 C877 1.399 . S
C878 C879 1.376 . S
C879 H866 0.930 . S
C879 C878 1.376 . S
C879 C880 1.388 . S
C880 H867 0.930 . S
C880 C879 1.388 . S
C880 C881 1.390 . S
C881 C880 1.390 . S
C881 C882 1.394 . S
C881 C887 1.465 . S
C882 C877 1.399 . S
C882 C881 1.394 . S
C882 C883 1.516 . S
C883 C882 1.516 . S
C883 C884 1.502 . S
C883 C885 1.561 . S
C883 C886 1.526 . S
C884 H868 0.959 . S
C884 H869 0.959 . S
C884 H870 0.961 . S
C884 C883 1.502 . S
C885 H871 0.960 . S
C885 H872 0.961 . S
C885 H873 0.959 . S
C885 C883 1.561 . S
C886 C883 1.526 . S
C886 C887 1.396 . S
C886 C891 1.390 . S
C887 C881 1.465 . S
C887 C886 1.396 . S
C887 C888 1.399 . S
C888 H874 0.929 . S
C888 C887 1.399 . S
C888 C889 1.385 . S
C889 H875 0.931 . S
C889 C888 1.385 . S
C889 C890 1.389 . S
C890 C889 1.389 . S
C890 C891 1.387 . S
C891 H876 0.930 . S
C891 C886 1.390 . S
C891 C890 1.387 . S
H892 C904 0.930 . S
H893 C906 0.930 . S
H894 C907 0.930 . S
H895 C911 0.959 . S
H896 C911 0.959 . S
H897 C911 0.961 . S
H898 C912 0.960 . S
H899 C912 0.961 . S
H900 C912 0.959 . S
H901 C915 0.929 . S
H902 C916 0.931 . S
H903 C918 0.930 . S
C904 H892 0.930 . S
C904 C905 1.399 . S
C904 C909 1.399 . S
C905 C904 1.399 . S
C905 C906 1.376 . S
C906 H893 0.930 . S
C906 C905 1.376 . S
C906 C907 1.388 . S
C907 H894 0.930 . S
C907 C906 1.388 . S
C907 C908 1.390 . S
C908 C907 1.390 . S
C908 C909 1.394 . S
C908 C914 1.465 . S
C909 C904 1.399 . S
C909 C908 1.394 . S
C909 C910 1.516 . S
C910 C909 1.516 . S
C910 C911 1.502 . S
C910 C912 1.561 . S
C910 C913 1.526 . S
C911 H895 0.959 . S
C911 H896 0.959 . S
C911 H897 0.961 . S
C911 C910 1.502 . S
C912 H898 0.960 . S
C912 H899 0.961 . S
C912 H900 0.959 . S
C912 C910 1.561 . S
C913 C910 1.526 . S
C913 C914 1.396 . S
C913 C918 1.390 . S
C914 C908 1.465 . S
C914 C913 1.396 . S
C914 C915 1.399 . S
C915 H901 0.929 . S
C915 C914 1.399 . S
C915 C916 1.385 . S
C916 H902 0.931 . S
C916 C915 1.385 . S
C916 C917 1.389 . S
C917 C916 1.389 . S
C917 C918 1.387 . S
C918 H903 0.930 . S
C918 C913 1.390 . S
C918 C917 1.387 . S
H919 C931 0.930 . S
H920 C933 0.930 1_565 S
H921 C934 0.930 . S
H922 C938 0.959 . S
H923 C938 0.959 . S
H924 C938 0.961 . S
H925 C939 0.960 . S
H926 C939 0.961 . S
H927 C939 0.959 . S
H928 C942 0.929 . S
H929 C943 0.931 . S
H930 C945 0.930 . S
C931 H919 0.930 . S
C931 C932 1.399 . S
C931 C936 1.399 . S
C932 C931 1.399 . S
C932 C933 1.376 . S
C933 H920 0.930 1_545 S
C933 C932 1.376 . S
C933 C934 1.388 . S
C934 H921 0.930 . S
C934 C933 1.388 . S
C934 C935 1.390 . S
C935 C934 1.390 . S
C935 C936 1.394 . S
C935 C941 1.465 . S
C936 C931 1.399 . S
C936 C935 1.394 . S
C936 C937 1.516 . S
C937 C936 1.516 . S
C937 C938 1.502 . S
C937 C939 1.561 . S
C937 C940 1.526 . S
C938 H922 0.959 . S
C938 H923 0.959 . S
C938 H924 0.961 . S
C938 C937 1.502 . S
C939 H925 0.960 . S
C939 H926 0.961 . S
C939 H927 0.959 . S
C939 C937 1.561 . S
C940 C937 1.526 . S
C940 C941 1.396 . S
C940 C945 1.390 . S
C941 C935 1.465 . S
C941 C940 1.396 . S
C941 C942 1.399 . S
C942 H928 0.929 . S
C942 C941 1.399 . S
C942 C943 1.385 . S
C943 H929 0.931 . S
C943 C942 1.385 . S
C943 C944 1.389 . S
C944 C943 1.389 . S
C944 C945 1.387 . S
C945 H930 0.930 . S
C945 C940 1.390 . S
C945 C944 1.387 . S
H946 C958 0.930 . S
H947 C960 0.930 . S
H948 C961 0.930 . S
H949 C965 0.959 . S
H950 C965 0.959 . S
H951 C965 0.961 . S
H952 C966 0.960 . S
H953 C966 0.961 . S
H954 C966 0.959 . S
H955 C969 0.929 . S
H956 C970 0.931 . S
H957 C972 0.930 . S
C958 H946 0.930 . S
C958 C959 1.399 . S
C958 C963 1.399 . S
C959 C958 1.399 . S
C959 C960 1.376 . S
C960 H947 0.930 . S
C960 C959 1.376 . S
C960 C961 1.388 . S
C961 H948 0.930 . S
C961 C960 1.388 . S
C961 C962 1.390 . S
C962 C961 1.390 . S
C962 C963 1.394 . S
C962 C968 1.465 . S
C963 C958 1.399 . S
C963 C962 1.394 . S
C963 C964 1.516 . S
C964 C963 1.516 . S
C964 C965 1.502 . S
C964 C966 1.561 . S
C964 C967 1.526 . S
C965 H949 0.959 . S
C965 H950 0.959 . S
C965 H951 0.961 . S
C965 C964 1.502 . S
C966 H952 0.960 . S
C966 H953 0.961 . S
C966 H954 0.959 . S
C966 C964 1.561 . S
C967 C964 1.526 . S
C967 C968 1.396 . S
C967 C972 1.390 . S
C968 C962 1.465 . S
C968 C967 1.396 . S
C968 C969 1.399 . S
C969 H955 0.929 . S
C969 C968 1.399 . S
C969 C970 1.385 . S
C970 H956 0.931 . S
C970 C969 1.385 . S
C970 C971 1.389 . S
C971 C970 1.389 . S
C971 C972 1.387 . S
C972 H957 0.930 . S
C972 C967 1.390 . S
C972 C971 1.387 . S
H973 C985 0.930 . S
H974 C987 0.930 . S
H975 C988 0.930 . S
H976 C992 0.959 . S
H977 C992 0.959 . S
H978 C992 0.961 . S
H979 C993 0.960 . S
H980 C993 0.961 . S
H981 C993 0.959 . S
H982 C996 0.929 . S
H983 C997 0.931 . S
H984 C999 0.930 . S
C985 H973 0.930 . S
C985 C986 1.399 . S
C985 C990 1.399 . S
C986 C985 1.399 . S
C986 C987 1.376 . S
C987 H974 0.930 . S
C987 C986 1.376 . S
C987 C988 1.388 . S
C988 H975 0.930 . S
C988 C987 1.388 . S
C988 C989 1.390 . S
C989 C988 1.390 . S
C989 C990 1.394 . S
C989 C995 1.465 . S
C990 C985 1.399 . S
C990 C989 1.394 . S
C990 C991 1.516 . S
C991 C990 1.516 . S
C991 C992 1.502 . S
C991 C993 1.561 . S
C991 C994 1.526 . S
C992 H976 0.959 . S
C992 H977 0.959 . S
C992 H978 0.961 . S
C992 C991 1.502 . S
C993 H979 0.960 . S
C993 H980 0.961 . S
C993 H981 0.959 . S
C993 C991 1.561 . S
C994 C991 1.526 . S
C994 C995 1.396 . S
C994 C999 1.390 . S
C995 C989 1.465 . S
C995 C994 1.396 . S
C995 C996 1.399 . S
C996 H982 0.929 . S
C996 C995 1.399 . S
C996 C997 1.385 . S
C997 H983 0.931 . S
C997 C996 1.385 . S
C997 C998 1.389 . S
C998 C997 1.389 . S
C998 C999 1.387 . S
C999 H984 0.930 . S
C999 C994 1.390 . S
C999 C998 1.387 . S
H1000 C1012 0.930 . S
H1001 C1014 0.930 . S
H1002 C1015 0.930 . S
H1003 C1019 0.959 . S
H1004 C1019 0.959 . S
H1005 C1019 0.961 . S
H1006 C1020 0.960 . S
H1007 C1020 0.961 . S
H1008 C1020 0.959 . S
H1009 C1023 0.929 . S
H1010 C1024 0.931 . S
H1011 C1026 0.930 . S
C1012 H1000 0.930 . S
C1012 C1013 1.399 . S
C1012 C1017 1.399 . S
C1013 C1012 1.399 . S
C1013 C1014 1.376 . S
C1014 H1001 0.930 . S
C1014 C1013 1.376 . S
C1014 C1015 1.388 . S
C1015 H1002 0.930 . S
C1015 C1014 1.388 . S
C1015 C1016 1.390 . S
C1016 C1015 1.390 . S
C1016 C1017 1.394 . S
C1016 C1022 1.465 . S
C1017 C1012 1.399 . S
C1017 C1016 1.394 . S
C1017 C1018 1.516 . S
C1018 C1017 1.516 . S
C1018 C1019 1.502 . S
C1018 C1020 1.561 . S
C1018 C1021 1.526 . S
C1019 H1003 0.959 . S
C1019 H1004 0.959 . S
C1019 H1005 0.961 . S
C1019 C1018 1.502 . S
C1020 H1006 0.960 . S
C1020 H1007 0.961 . S
C1020 H1008 0.959 . S
C1020 C1018 1.561 . S
C1021 C1018 1.526 . S
C1021 C1022 1.396 . S
C1021 C1026 1.390 . S
C1022 C1016 1.465 . S
C1022 C1021 1.396 . S
C1022 C1023 1.399 . S
C1023 H1009 0.929 . S
C1023 C1022 1.399 . S
C1023 C1024 1.385 . S
C1024 H1010 0.931 . S
C1024 C1023 1.385 . S
C1024 C1025 1.389 . S
C1025 C1024 1.389 . S
C1025 C1026 1.387 . S
C1026 H1011 0.930 . S
C1026 C1021 1.390 . S
C1026 C1025 1.387 . S
H1027 C1039 0.930 . S
H1028 C1041 0.930 . S
H1029 C1042 0.930 . S
H1030 C1046 0.959 . S
H1031 C1046 0.959 . S
H1032 C1046 0.961 . S
H1033 C1047 0.960 . S
H1034 C1047 0.961 . S
H1035 C1047 0.959 . S
H1036 C1050 0.929 . S
H1037 C1051 0.931 . S
H1038 C1053 0.930 . S
C1039 H1027 0.930 . S
C1039 C1040 1.399 . S
C1039 C1044 1.399 . S
C1040 C1039 1.399 . S
C1040 C1041 1.376 . S
C1041 H1028 0.930 . S
C1041 C1040 1.376 . S
C1041 C1042 1.388 . S
C1042 H1029 0.930 . S
C1042 C1041 1.388 . S
C1042 C1043 1.390 . S
C1043 C1042 1.390 . S
C1043 C1044 1.394 . S
C1043 C1049 1.465 . S
C1044 C1039 1.399 . S
C1044 C1043 1.394 . S
C1044 C1045 1.516 . S
C1045 C1044 1.516 . S
C1045 C1046 1.502 . S
C1045 C1047 1.561 . S
C1045 C1048 1.526 . S
C1046 H1030 0.959 . S
C1046 H1031 0.959 . S
C1046 H1032 0.961 . S
C1046 C1045 1.502 . S
C1047 H1033 0.960 . S
C1047 H1034 0.961 . S
C1047 H1035 0.959 . S
C1047 C1045 1.561 . S
C1048 C1045 1.526 . S
C1048 C1049 1.396 . S
C1048 C1053 1.390 . S
C1049 C1043 1.465 . S
C1049 C1048 1.396 . S
C1049 C1050 1.399 . S
C1050 H1036 0.929 . S
C1050 C1049 1.399 . S
C1050 C1051 1.385 . S
C1051 H1037 0.931 . S
C1051 C1050 1.385 . S
C1051 C1052 1.389 . S
C1052 C1051 1.389 . S
C1052 C1053 1.387 . S
C1053 H1038 0.930 . S
C1053 C1048 1.390 . S
C1053 C1052 1.387 . S
H1054 C1066 0.930 . S
H1055 C1068 0.930 . S
H1056 C1069 0.930 . S
H1057 C1073 0.959 . S
H1058 C1073 0.959 . S
H1059 C1073 0.961 . S
H1060 C1074 0.960 . S
H1061 C1074 0.961 . S
H1062 C1074 0.959 . S
H1063 C1077 0.929 . S
H1064 C1078 0.931 . S
H1065 C1080 0.930 . S
C1066 H1054 0.930 . S
C1066 C1067 1.399 . S
C1066 C1071 1.399 . S
C1067 C1066 1.399 . S
C1067 C1068 1.376 . S
C1068 H1055 0.930 . S
C1068 C1067 1.376 . S
C1068 C1069 1.388 . S
C1069 H1056 0.930 . S
C1069 C1068 1.388 . S
C1069 C1070 1.390 . S
C1070 C1069 1.390 . S
C1070 C1071 1.394 . S
C1070 C1076 1.465 . S
C1071 C1066 1.399 . S
C1071 C1070 1.394 . S
C1071 C1072 1.516 . S
C1072 C1071 1.516 . S
C1072 C1073 1.502 . S
C1072 C1074 1.561 . S
C1072 C1075 1.526 . S
C1073 H1057 0.959 . S
C1073 H1058 0.959 . S
C1073 H1059 0.961 . S
C1073 C1072 1.502 . S
C1074 H1060 0.960 . S
C1074 H1061 0.961 . S
C1074 H1062 0.959 . S
C1074 C1072 1.561 . S
C1075 C1072 1.526 . S
C1075 C1076 1.396 . S
C1075 C1080 1.390 . S
C1076 C1070 1.465 . S
C1076 C1075 1.396 . S
C1076 C1077 1.399 . S
C1077 H1063 0.929 . S
C1077 C1076 1.399 . S
C1077 C1078 1.385 . S
C1078 H1064 0.931 . S
C1078 C1077 1.385 . S
C1078 C1079 1.389 . S
C1079 C1078 1.389 . S
C1079 C1080 1.387 . S
C1080 H1065 0.930 . S
C1080 C1075 1.390 . S
C1080 C1079 1.387 . S
H1081 C1093 0.930 . S
H1082 C1095 0.930 . S
H1083 C1096 0.930 . S
H1084 C1100 0.959 . S
H1085 C1100 0.959 . S
H1086 C1100 0.961 . S
H1087 C1101 0.960 . S
H1088 C1101 0.961 . S
H1089 C1101 0.959 . S
H1090 C1104 0.929 . S
H1091 C1105 0.931 . S
H1092 C1107 0.930 . S
C1093 H1081 0.930 . S
C1093 C1094 1.399 . S
C1093 C1098 1.399 . S
C1094 C1093 1.399 . S
C1094 C1095 1.376 . S
C1095 H1082 0.930 . S
C1095 C1094 1.376 . S
C1095 C1096 1.388 . S
C1096 H1083 0.930 . S
C1096 C1095 1.388 . S
C1096 C1097 1.390 . S
C1097 C1096 1.390 . S
C1097 C1098 1.394 . S
C1097 C1103 1.465 . S
C1098 C1093 1.399 . S
C1098 C1097 1.394 . S
C1098 C1099 1.516 . S
C1099 C1098 1.516 . S
C1099 C1100 1.502 . S
C1099 C1101 1.561 . S
C1099 C1102 1.526 . S
C1100 H1084 0.959 . S
C1100 H1085 0.959 . S
C1100 H1086 0.961 . S
C1100 C1099 1.502 . S
C1101 H1087 0.960 . S
C1101 H1088 0.961 . S
C1101 H1089 0.959 . S
C1101 C1099 1.561 . S
C1102 C1099 1.526 . S
C1102 C1103 1.396 . S
C1102 C1107 1.390 . S
C1103 C1097 1.465 . S
C1103 C1102 1.396 . S
C1103 C1104 1.399 . S
C1104 H1090 0.929 . S
C1104 C1103 1.399 . S
C1104 C1105 1.385 . S
C1105 H1091 0.931 . S
C1105 C1104 1.385 . S
C1105 C1106 1.389 . S
C1106 C1105 1.389 . S
C1106 C1107 1.387 . S
C1107 H1092 0.930 . S
C1107 C1102 1.390 . S
C1107 C1106 1.387 . S
H1108 C1120 0.930 . S
H1109 C1122 0.930 . S
H1110 C1123 0.930 . S
H1111 C1127 0.959 . S
H1112 C1127 0.959 . S
H1113 C1127 0.961 . S
H1114 C1128 0.960 . S
H1115 C1128 0.961 . S
H1116 C1128 0.959 . S
H1117 C1131 0.929 . S
H1118 C1132 0.931 . S
H1119 C1134 0.930 . S
C1120 H1108 0.930 . S
C1120 C1121 1.399 . S
C1120 C1125 1.399 . S
C1121 C1120 1.399 . S
C1121 C1122 1.376 . S
C1122 H1109 0.930 . S
C1122 C1121 1.376 . S
C1122 C1123 1.388 . S
C1123 H1110 0.930 . S
C1123 C1122 1.388 . S
C1123 C1124 1.390 . S
C1124 C1123 1.390 . S
C1124 C1125 1.394 . S
C1124 C1130 1.465 . S
C1125 C1120 1.399 . S
C1125 C1124 1.394 . S
C1125 C1126 1.516 . S
C1126 C1125 1.516 . S
C1126 C1127 1.502 . S
C1126 C1128 1.561 . S
C1126 C1129 1.526 . S
C1127 H1111 0.959 . S
C1127 H1112 0.959 . S
C1127 H1113 0.961 . S
C1127 C1126 1.502 . S
C1128 H1114 0.960 . S
C1128 H1115 0.961 . S
C1128 H1116 0.959 . S
C1128 C1126 1.561 . S
C1129 C1126 1.526 . S
C1129 C1130 1.396 . S
C1129 C1134 1.390 . S
C1130 C1124 1.465 . S
C1130 C1129 1.396 . S
C1130 C1131 1.399 . S
C1131 H1117 0.929 . S
C1131 C1130 1.399 . S
C1131 C1132 1.385 . S
C1132 H1118 0.931 . S
C1132 C1131 1.385 . S
C1132 C1133 1.389 . S
C1133 C1132 1.389 . S
C1133 C1134 1.387 . S
C1134 H1119 0.930 . S
C1134 C1129 1.390 . S
C1134 C1133 1.387 . S
H1135 C1147 0.930 . S
H1136 C1149 0.930 . S
H1137 C1150 0.930 . S
H1138 C1154 0.959 . S
H1139 C1154 0.959 . S
H1140 C1154 0.961 . S
H1141 C1155 0.960 . S
H1142 C1155 0.961 . S
H1143 C1155 0.959 . S
H1144 C1158 0.929 . S
H1145 C1159 0.931 . S
H1146 C1161 0.930 . S
C1147 H1135 0.930 . S
C1147 C1148 1.399 . S
C1147 C1152 1.399 . S
C1148 C1147 1.399 . S
C1148 C1149 1.376 . S
C1149 H1136 0.930 . S
C1149 C1148 1.376 . S
C1149 C1150 1.388 . S
C1150 H1137 0.930 . S
C1150 C1149 1.388 . S
C1150 C1151 1.390 . S
C1151 C1150 1.390 . S
C1151 C1152 1.394 . S
C1151 C1157 1.465 . S
C1152 C1147 1.399 . S
C1152 C1151 1.394 . S
C1152 C1153 1.516 . S
C1153 C1152 1.516 . S
C1153 C1154 1.502 . S
C1153 C1155 1.561 . S
C1153 C1156 1.526 . S
C1154 H1138 0.959 . S
C1154 H1139 0.959 . S
C1154 H1140 0.961 . S
C1154 C1153 1.502 . S
C1155 H1141 0.960 . S
C1155 H1142 0.961 . S
C1155 H1143 0.959 . S
C1155 C1153 1.561 . S
C1156 C1153 1.526 . S
C1156 C1157 1.396 . S
C1156 C1161 1.390 . S
C1157 C1151 1.465 . S
C1157 C1156 1.396 . S
C1157 C1158 1.399 . S
C1158 H1144 0.929 . S
C1158 C1157 1.399 . S
C1158 C1159 1.385 . S
C1159 H1145 0.931 . S
C1159 C1158 1.385 . S
C1159 C1160 1.389 . S
C1160 C1159 1.389 . S
C1160 C1161 1.387 . S
C1161 H1146 0.930 . S
C1161 C1156 1.390 . S
C1161 C1160 1.387 . S
H1162 C1174 0.930 . S
H1163 C1176 0.930 . S
H1164 C1177 0.930 . S
H1165 C1181 0.959 . S
H1166 C1181 0.959 . S
H1167 C1181 0.961 . S
H1168 C1182 0.960 . S
H1169 C1182 0.961 . S
H1170 C1182 0.959 . S
H1171 C1185 0.929 . S
H1172 C1186 0.931 . S
H1173 C1188 0.930 . S
C1174 H1162 0.930 . S
C1174 C1175 1.399 . S
C1174 C1179 1.399 . S
C1175 C1174 1.399 . S
C1175 C1176 1.376 . S
C1176 H1163 0.930 . S
C1176 C1175 1.376 . S
C1176 C1177 1.388 . S
C1177 H1164 0.930 . S
C1177 C1176 1.388 . S
C1177 C1178 1.390 . S
C1178 C1177 1.390 . S
C1178 C1179 1.394 . S
C1178 C1184 1.465 . S
C1179 C1174 1.399 . S
C1179 C1178 1.394 . S
C1179 C1180 1.516 . S
C1180 C1179 1.516 . S
C1180 C1181 1.502 . S
C1180 C1182 1.561 . S
C1180 C1183 1.526 . S
C1181 H1165 0.959 . S
C1181 H1166 0.959 . S
C1181 H1167 0.961 . S
C1181 C1180 1.502 . S
C1182 H1168 0.960 . S
C1182 H1169 0.961 . S
C1182 H1170 0.959 . S
C1182 C1180 1.561 . S
C1183 C1180 1.526 . S
C1183 C1184 1.396 . S
C1183 C1188 1.390 . S
C1184 C1178 1.465 . S
C1184 C1183 1.396 . S
C1184 C1185 1.399 . S
C1185 H1171 0.929 . S
C1185 C1184 1.399 . S
C1185 C1186 1.385 . S
C1186 H1172 0.931 . S
C1186 C1185 1.385 . S
C1186 C1187 1.389 . S
C1187 C1186 1.389 . S
C1187 C1188 1.387 . S
C1188 H1173 0.930 . S
C1188 C1183 1.390 . S
C1188 C1187 1.387 . S
H1189 C1201 0.930 . S
H1190 C1203 0.930 . S
H1191 C1204 0.930 . S
H1192 C1208 0.959 . S
H1193 C1208 0.959 . S
H1194 C1208 0.961 . S
H1195 C1209 0.960 . S
H1196 C1209 0.961 . S
H1197 C1209 0.959 . S
H1198 C1212 0.929 . S
H1199 C1213 0.931 . S
H1200 C1215 0.930 . S
C1201 H1189 0.930 . S
C1201 C1202 1.399 . S
C1201 C1206 1.399 . S
C1202 C1201 1.399 . S
C1202 C1203 1.376 . S
C1203 H1190 0.930 . S
C1203 C1202 1.376 . S
C1203 C1204 1.388 . S
C1204 H1191 0.930 . S
C1204 C1203 1.388 . S
C1204 C1205 1.390 . S
C1205 C1204 1.390 . S
C1205 C1206 1.394 . S
C1205 C1211 1.465 . S
C1206 C1201 1.399 . S
C1206 C1205 1.394 . S
C1206 C1207 1.516 . S
C1207 C1206 1.516 . S
C1207 C1208 1.502 . S
C1207 C1209 1.561 . S
C1207 C1210 1.526 . S
C1208 H1192 0.959 . S
C1208 H1193 0.959 . S
C1208 H1194 0.961 . S
C1208 C1207 1.502 . S
C1209 H1195 0.960 . S
C1209 H1196 0.961 . S
C1209 H1197 0.959 . S
C1209 C1207 1.561 . S
C1210 C1207 1.526 . S
C1210 C1211 1.396 . S
C1210 C1215 1.390 . S
C1211 C1205 1.465 . S
C1211 C1210 1.396 . S
C1211 C1212 1.399 . S
C1212 H1198 0.929 . S
C1212 C1211 1.399 . S
C1212 C1213 1.385 . S
C1213 H1199 0.931 . S
C1213 C1212 1.385 . S
C1213 C1214 1.389 . S
C1214 C1213 1.389 . S
C1214 C1215 1.387 . S
C1215 H1200 0.930 . S
C1215 C1210 1.390 . S
C1215 C1214 1.387 . S
H1216 C1228 0.930 . S
H1217 C1230 0.930 . S
H1218 C1231 0.930 . S
H1219 C1235 0.959 . S
H1220 C1235 0.959 . S
H1221 C1235 0.961 . S
H1222 C1236 0.960 . S
H1223 C1236 0.961 . S
H1224 C1236 0.959 . S
H1225 C1239 0.929 . S
H1226 C1240 0.931 . S
H1227 C1242 0.930 . S
C1228 H1216 0.930 . S
C1228 C1229 1.399 . S
C1228 C1233 1.399 . S
C1229 C1228 1.399 . S
C1229 C1230 1.376 . S
C1230 H1217 0.930 . S
C1230 C1229 1.376 . S
C1230 C1231 1.388 . S
C1231 H1218 0.930 . S
C1231 C1230 1.388 . S
C1231 C1232 1.390 . S
C1232 C1231 1.390 . S
C1232 C1233 1.394 . S
C1232 C1238 1.465 . S
C1233 C1228 1.399 . S
C1233 C1232 1.394 . S
C1233 C1234 1.516 . S
C1234 C1233 1.516 . S
C1234 C1235 1.502 . S
C1234 C1236 1.561 . S
C1234 C1237 1.526 . S
C1235 H1219 0.959 . S
C1235 H1220 0.959 . S
C1235 H1221 0.961 . S
C1235 C1234 1.502 . S
C1236 H1222 0.960 . S
C1236 H1223 0.961 . S
C1236 H1224 0.959 . S
C1236 C1234 1.561 . S
C1237 C1234 1.526 . S
C1237 C1238 1.396 . S
C1237 C1242 1.390 . S
C1238 C1232 1.465 . S
C1238 C1237 1.396 . S
C1238 C1239 1.399 . S
C1239 H1225 0.929 . S
C1239 C1238 1.399 . S
C1239 C1240 1.385 . S
C1240 H1226 0.931 . S
C1240 C1239 1.385 . S
C1240 C1241 1.389 . S
C1241 C1240 1.389 . S
C1241 C1242 1.387 . S
C1242 H1227 0.930 . S
C1242 C1237 1.390 . S
C1242 C1241 1.387 . S
H1243 C1255 0.930 . S
H1244 C1257 0.930 . S
H1245 C1258 0.930 . S
H1246 C1262 0.959 . S
H1247 C1262 0.959 . S
H1248 C1262 0.961 . S
H1249 C1263 0.960 . S
H1250 C1263 0.961 . S
H1251 C1263 0.959 . S
H1252 C1266 0.929 . S
H1253 C1267 0.931 . S
H1254 C1269 0.930 . S
C1255 H1243 0.930 . S
C1255 C1256 1.399 . S
C1255 C1260 1.399 . S
C1256 C1255 1.399 . S
C1256 C1257 1.376 . S
C1257 H1244 0.930 . S
C1257 C1256 1.376 . S
C1257 C1258 1.388 . S
C1258 H1245 0.930 . S
C1258 C1257 1.388 . S
C1258 C1259 1.390 . S
C1259 C1258 1.390 . S
C1259 C1260 1.394 . S
C1259 C1265 1.465 . S
C1260 C1255 1.399 . S
C1260 C1259 1.394 . S
C1260 C1261 1.516 . S
C1261 C1260 1.516 . S
C1261 C1262 1.502 . S
C1261 C1263 1.561 . S
C1261 C1264 1.526 . S
C1262 H1246 0.959 . S
C1262 H1247 0.959 . S
C1262 H1248 0.961 . S
C1262 C1261 1.502 . S
C1263 H1249 0.960 . S
C1263 H1250 0.961 . S
C1263 H1251 0.959 . S
C1263 C1261 1.561 . S
C1264 C1261 1.526 . S
C1264 C1265 1.396 . S
C1264 C1269 1.390 . S
C1265 C1259 1.465 . S
C1265 C1264 1.396 . S
C1265 C1266 1.399 . S
C1266 H1252 0.929 . S
C1266 C1265 1.399 . S
C1266 C1267 1.385 . S
C1267 H1253 0.931 . S
C1267 C1266 1.385 . S
C1267 C1268 1.389 . S
C1268 C1267 1.389 . S
C1268 C1269 1.387 . S
C1269 H1254 0.930 . S
C1269 C1264 1.390 . S
C1269 C1268 1.387 . S
H1270 C1282 0.930 . S
H1271 C1284 0.930 . S
H1272 C1285 0.930 . S
H1273 C1289 0.959 . S
H1274 C1289 0.959 . S
H1275 C1289 0.961 . S
H1276 C1290 0.960 . S
H1277 C1290 0.961 . S
H1278 C1290 0.959 . S
H1279 C1293 0.929 . S
H1280 C1294 0.931 . S
H1281 C1296 0.930 . S
C1282 H1270 0.930 . S
C1282 C1283 1.399 . S
C1282 C1287 1.399 . S
C1283 C1282 1.399 . S
C1283 C1284 1.376 . S
C1284 H1271 0.930 . S
C1284 C1283 1.376 . S
C1284 C1285 1.388 . S
C1285 H1272 0.930 . S
C1285 C1284 1.388 . S
C1285 C1286 1.390 . S
C1286 C1285 1.390 . S
C1286 C1287 1.394 . S
C1286 C1292 1.465 . S
C1287 C1282 1.399 . S
C1287 C1286 1.394 . S
C1287 C1288 1.516 . S
C1288 C1287 1.516 . S
C1288 C1289 1.502 . S
C1288 C1290 1.561 . S
C1288 C1291 1.526 . S
C1289 H1273 0.959 . S
C1289 H1274 0.959 . S
C1289 H1275 0.961 . S
C1289 C1288 1.502 . S
C1290 H1276 0.960 . S
C1290 H1277 0.961 . S
C1290 H1278 0.959 . S
C1290 C1288 1.561 . S
C1291 C1288 1.526 . S
C1291 C1292 1.396 . S
C1291 C1296 1.390 . S
C1292 C1286 1.465 . S
C1292 C1291 1.396 . S
C1292 C1293 1.399 . S
C1293 H1279 0.929 . S
C1293 C1292 1.399 . S
C1293 C1294 1.385 . S
C1294 H1280 0.931 . S
C1294 C1293 1.385 . S
C1294 C1295 1.389 . S
C1295 C1294 1.389 . S
C1295 C1296 1.387 . S
C1296 H1281 0.930 . S
C1296 C1291 1.390 . S
C1296 C1295 1.387 . S
H1297 C1309 0.930 . S
H1298 C1311 0.930 . S
H1299 C1312 0.930 . S
H1300 C1316 0.959 . S
H1301 C1316 0.959 . S
H1302 C1316 0.961 . S
H1303 C1317 0.960 . S
H1304 C1317 0.961 . S
H1305 C1317 0.959 . S
H1306 C1320 0.929 . S
H1307 C1321 0.931 . S
H1308 C1323 0.930 . S
C1309 H1297 0.930 . S
C1309 C1310 1.399 . S
C1309 C1314 1.399 . S
C1310 C1309 1.399 . S
C1310 C1311 1.376 . S
C1311 H1298 0.930 . S
C1311 C1310 1.376 . S
C1311 C1312 1.388 . S
C1312 H1299 0.930 . S
C1312 C1311 1.388 . S
C1312 C1313 1.390 . S
C1313 C1312 1.390 . S
C1313 C1314 1.394 . S
C1313 C1319 1.465 . S
C1314 C1309 1.399 . S
C1314 C1313 1.394 . S
C1314 C1315 1.516 . S
C1315 C1314 1.516 . S
C1315 C1316 1.502 . S
C1315 C1317 1.561 . S
C1315 C1318 1.526 . S
C1316 H1300 0.959 . S
C1316 H1301 0.959 . S
C1316 H1302 0.961 . S
C1316 C1315 1.502 . S
C1317 H1303 0.960 . S
C1317 H1304 0.961 . S
C1317 H1305 0.959 . S
C1317 C1315 1.561 . S
C1318 C1315 1.526 . S
C1318 C1319 1.396 . S
C1318 C1323 1.390 . S
C1319 C1313 1.465 . S
C1319 C1318 1.396 . S
C1319 C1320 1.399 . S
C1320 H1306 0.929 . S
C1320 C1319 1.399 . S
C1320 C1321 1.385 . S
C1321 H1307 0.931 . S
C1321 C1320 1.385 . S
C1321 C1322 1.389 . S
C1322 C1321 1.389 . S
C1322 C1323 1.387 . S
C1323 H1308 0.930 . S
C1323 C1318 1.390 . S
C1323 C1322 1.387 . S
H1324 C1336 0.930 . S
H1325 C1338 0.930 . S
H1326 C1339 0.930 . S
H1327 C1343 0.959 . S
H1328 C1343 0.959 . S
H1329 C1343 0.961 . S
H1330 C1344 0.960 . S
H1331 C1344 0.961 . S
H1332 C1344 0.959 . S
H1333 C1347 0.929 1_556 S
H1334 C1348 0.931 . S
H1335 C1350 0.930 . S
C1336 H1324 0.930 . S
C1336 C1337 1.399 . S
C1336 C1341 1.399 . S
C1337 C1336 1.399 . S
C1337 C1338 1.376 . S
C1338 H1325 0.930 . S
C1338 C1337 1.376 . S
C1338 C1339 1.388 . S
C1339 H1326 0.930 . S
C1339 C1338 1.388 . S
C1339 C1340 1.390 . S
C1340 C1339 1.390 . S
C1340 C1341 1.394 . S
C1340 C1346 1.505 . S
C1341 C1336 1.399 . S
C1341 C1340 1.394 . S
C1341 C1342 1.516 1_556 S
C1342 C1341 1.516 1_554 S
C1342 C1343 1.502 . S
C1342 C1344 1.561 . S
C1342 C1345 1.526 . S
C1343 H1327 0.959 . S
C1343 H1328 0.959 . S
C1343 H1329 0.961 . S
C1343 C1342 1.502 . S
C1344 H1330 0.960 . S
C1344 H1331 0.961 . S
C1344 H1332 0.959 . S
C1344 C1342 1.561 . S
C1345 C1342 1.526 . S
C1345 C1346 1.360 1_554 S
C1345 C1350 1.390 . S
C1346 C1340 1.505 . S
C1346 C1345 1.360 1_556 S
C1346 C1347 1.393 1_556 S
C1347 H1333 0.929 1_554 S
C1347 C1346 1.393 1_554 S
C1347 C1348 1.385 . S
C1348 H1334 0.931 . S
C1348 C1347 1.385 . S
C1348 C1349 1.389 . S
C1349 C1348 1.389 . S
C1349 C1350 1.387 . S
C1350 H1335 0.930 . S
C1350 C1345 1.390 . S
C1350 C1349 1.387 . S
H1351 C1363 0.930 . S
H1352 C1365 0.930 . S
H1353 C1366 0.930 . S
H1354 C1370 0.959 . S
H1355 C1370 0.959 . S
H1356 C1370 0.961 . S
H1357 C1371 0.960 . S
H1358 C1371 0.961 . S
H1359 C1371 0.959 . S
H1360 C1374 0.929 . S
H1361 C1375 0.931 . S
H1362 C1377 0.930 . S
C1363 H1351 0.930 . S
C1363 C1364 1.399 . S
C1363 C1368 1.399 . S
C1364 C1363 1.399 . S
C1364 C1365 1.376 . S
C1365 H1352 0.930 . S
C1365 C1364 1.376 . S
C1365 C1366 1.388 . S
C1366 H1353 0.930 . S
C1366 C1365 1.388 . S
C1366 C1367 1.390 . S
C1367 C1366 1.390 . S
C1367 C1368 1.394 . S
C1367 C1373 1.465 1_554 S
C1368 C1363 1.399 . S
C1368 C1367 1.394 . S
C1368 C1369 1.516 1_554 S
C1369 C1368 1.516 1_556 S
C1369 C1370 1.502 . S
C1369 C1371 1.561 . S
C1369 C1372 1.526 . S
C1370 H1354 0.959 . S
C1370 H1355 0.959 . S
C1370 H1356 0.961 . S
C1370 C1369 1.502 . S
C1371 H1357 0.960 . S
C1371 H1358 0.961 . S
C1371 H1359 0.959 . S
C1371 C1369 1.561 . S
C1372 C1369 1.526 . S
C1372 C1373 1.396 . S
C1372 C1377 1.390 . S
C1373 C1367 1.465 1_556 S
C1373 C1372 1.396 . S
C1373 C1374 1.399 . S
C1374 H1360 0.929 . S
C1374 C1373 1.399 . S
C1374 C1375 1.385 . S
C1375 H1361 0.931 . S
C1375 C1374 1.385 . S
C1375 C1376 1.389 . S
C1376 C1375 1.389 . S
C1376 C1377 1.387 . S
C1377 H1362 0.930 . S
C1377 C1372 1.390 . S
C1377 C1376 1.387 . S
H1378 C1390 0.930 . S
H1379 C1392 0.930 . S
H1380 C1393 0.930 . S
H1381 C1397 0.959 . S
H1382 C1397 0.959 . S
H1383 C1397 0.961 . S
H1384 C1398 0.960 1_556 S
H1385 C1398 0.961 . S
H1386 C1398 0.959 1_556 S
H1387 C1401 0.929 1_556 S
H1388 C1402 0.931 . S
H1389 C1404 0.930 . S
C1390 H1378 0.930 . S
C1390 C1391 1.399 . S
C1390 C1395 1.399 . S
C1391 C1390 1.399 . S
C1391 C1392 1.376 . S
C1392 H1379 0.930 . S
C1392 C1391 1.376 . S
C1392 C1393 1.388 . S
C1393 H1380 0.930 . S
C1393 C1392 1.388 . S
C1393 C1394 1.390 . S
C1394 C1393 1.390 . S
C1394 C1395 1.394 . S
C1394 C1400 1.464 . S
C1395 C1390 1.399 . S
C1395 C1394 1.394 . S
C1395 C1396 1.516 1_556 S
C1396 C1395 1.516 1_554 S
C1396 C1397 1.502 . S
C1396 C1398 1.561 . S
C1396 C1399 1.526 . S
C1397 H1381 0.959 . S
C1397 H1382 0.959 . S
C1397 H1383 0.961 . S
C1397 C1396 1.502 . S
C1398 H1384 0.960 1_554 S
C1398 H1385 0.961 . S
C1398 H1386 0.959 1_554 S
C1398 C1396 1.561 . S
C1399 C1396 1.526 . S
C1399 C1400 1.397 1_554 S
C1399 C1404 1.390 . S
C1400 C1394 1.464 . S
C1400 C1399 1.397 1_556 S
C1400 C1401 1.399 1_556 S
C1401 H1387 0.929 1_554 S
C1401 C1400 1.399 1_554 S
C1401 C1402 1.385 . S
C1402 H1388 0.931 . S
C1402 C1401 1.385 . S
C1402 C1403 1.389 . S
C1403 C1402 1.389 . S
C1403 C1404 1.387 . S
C1404 H1389 0.930 . S
C1404 C1399 1.390 . S
C1404 C1403 1.387 . S
H1405 C1417 0.930 . S
H1406 C1419 0.930 . S
H1407 C1420 0.930 . S
H1408 C1424 0.959 . S
H1409 C1424 0.959 . S
H1410 C1424 0.961 . S
H1411 C1425 0.960 . S
H1412 C1425 0.961 . S
H1413 C1425 0.959 . S
H1414 C1428 0.929 . S
H1415 C1429 0.931 . S
H1416 C1431 0.930 . S
C1417 H1405 0.930 . S
C1417 C1418 1.399 . S
C1417 C1422 1.399 . S
C1418 C1417 1.399 . S
C1418 C1419 1.376 . S
C1419 H1406 0.930 . S
C1419 C1418 1.376 . S
C1419 C1420 1.388 . S
C1420 H1407 0.930 . S
C1420 C1419 1.388 . S
C1420 C1421 1.390 . S
C1421 C1420 1.390 . S
C1421 C1422 1.394 . S
C1421 C1427 1.465 1_554 S
C1422 C1417 1.399 . S
C1422 C1421 1.394 . S
C1422 C1423 1.516 1_554 S
C1423 C1422 1.516 1_556 S
C1423 C1424 1.502 . S
C1423 C1425 1.561 . S
C1423 C1426 1.526 . S
C1424 H1408 0.959 . S
C1424 H1409 0.959 . S
C1424 H1410 0.961 . S
C1424 C1423 1.502 . S
C1425 H1411 0.960 . S
C1425 H1412 0.961 . S
C1425 H1413 0.959 . S
C1425 C1423 1.561 . S
C1426 C1423 1.526 . S
C1426 C1427 1.396 . S
C1426 C1431 1.390 . S
C1427 C1421 1.465 1_556 S
C1427 C1426 1.396 . S
C1427 C1428 1.399 . S
C1428 H1414 0.929 . S
C1428 C1427 1.399 . S
C1428 C1429 1.385 . S
C1429 H1415 0.931 . S
C1429 C1428 1.385 . S
C1429 C1430 1.389 . S
C1430 C1429 1.389 . S
C1430 C1431 1.387 . S
C1431 H1416 0.930 . S
C1431 C1426 1.390 . S
C1431 C1430 1.387 . S
H1432 C1444 0.930 . S
H1433 C1446 0.930 . S
H1434 C1447 0.930 . S
H1435 C1451 0.959 . S
H1436 C1451 0.959 . S
H1437 C1451 0.961 . S
H1438 C1452 0.960 . S
H1439 C1452 0.961 . S
H1440 C1452 0.959 . S
H1441 C1455 0.929 . S
H1442 C1456 0.931 . S
H1443 C1458 0.930 . S
C1444 H1432 0.930 . S
C1444 C1445 1.399 . S
C1444 C1449 1.399 . S
C1445 C1444 1.399 . S
C1445 C1446 1.376 . S
C1446 H1433 0.930 . S
C1446 C1445 1.376 . S
C1446 C1447 1.388 . S
C1447 H1434 0.930 . S
C1447 C1446 1.388 . S
C1447 C1448 1.390 . S
C1448 C1447 1.390 . S
C1448 C1449 1.394 . S
C1448 C1454 1.465 . S
C1449 C1444 1.399 . S
C1449 C1448 1.394 . S
C1449 C1450 1.516 . S
C1450 C1449 1.516 . S
C1450 C1451 1.502 . S
C1450 C1452 1.561 . S
C1450 C1453 1.526 . S
C1451 H1435 0.959 . S
C1451 H1436 0.959 . S
C1451 H1437 0.961 . S
C1451 C1450 1.502 . S
C1452 H1438 0.960 . S
C1452 H1439 0.961 . S
C1452 H1440 0.959 . S
C1452 C1450 1.561 . S
C1453 C1450 1.526 . S
C1453 C1454 1.396 . S
C1453 C1458 1.390 . S
C1454 C1448 1.465 . S
C1454 C1453 1.396 . S
C1454 C1455 1.399 . S
C1455 H1441 0.929 . S
C1455 C1454 1.399 . S
C1455 C1456 1.385 . S
C1456 H1442 0.931 . S
C1456 C1455 1.385 . S
C1456 C1457 1.389 . S
C1457 C1456 1.389 . S
C1457 C1458 1.387 . S
C1458 H1443 0.930 . S
C1458 C1453 1.390 . S
C1458 C1457 1.387 . S
H1459 C1471 0.930 . S
H1460 C1473 0.930 . S
H1461 C1474 0.930 . S
H1462 C1478 0.959 . S
H1463 C1478 0.959 . S
H1464 C1478 0.961 . S
H1465 C1479 0.960 . S
H1466 C1479 0.961 . S
H1467 C1479 0.959 . S
H1468 C1482 0.929 . S
H1469 C1483 0.931 . S
H1470 C1485 0.930 . S
C1471 H1459 0.930 . S
C1471 C1472 1.399 . S
C1471 C1476 1.399 . S
C1472 C1471 1.399 . S
C1472 C1473 1.376 . S
C1473 H1460 0.930 . S
C1473 C1472 1.376 . S
C1473 C1474 1.388 . S
C1474 H1461 0.930 . S
C1474 C1473 1.388 . S
C1474 C1475 1.390 . S
C1475 C1474 1.390 . S
C1475 C1476 1.394 . S
C1475 C1481 1.465 . S
C1476 C1471 1.399 . S
C1476 C1475 1.394 . S
C1476 C1477 1.516 . S
C1477 C1476 1.516 . S
C1477 C1478 1.502 . S
C1477 C1479 1.561 . S
C1477 C1480 1.526 . S
C1478 H1462 0.959 . S
C1478 H1463 0.959 . S
C1478 H1464 0.961 . S
C1478 C1477 1.502 . S
C1479 H1465 0.960 . S
C1479 H1466 0.961 . S
C1479 H1467 0.959 . S
C1479 C1477 1.561 . S
C1480 C1477 1.526 . S
C1480 C1481 1.396 . S
C1480 C1485 1.390 . S
C1481 C1475 1.465 . S
C1481 C1480 1.396 . S
C1481 C1482 1.399 . S
C1482 H1468 0.929 . S
C1482 C1481 1.399 . S
C1482 C1483 1.385 . S
C1483 H1469 0.931 . S
C1483 C1482 1.385 . S
C1483 C1484 1.389 . S
C1484 C1483 1.389 . S
C1484 C1485 1.387 . S
C1485 H1470 0.930 . S
C1485 C1480 1.390 . S
C1485 C1484 1.387 . S
H1486 C1498 0.930 . S
H1487 C1500 0.930 . S
H1488 C1501 0.930 . S
H1489 C1505 0.959 . S
H1490 C1505 0.959 . S
H1491 C1505 0.961 . S
H1492 C1506 0.960 . S
H1493 C1506 0.961 . S
H1494 C1506 0.959 . S
H1495 C1509 0.929 . S
H1496 C1510 0.931 . S
H1497 C1512 0.930 . S
C1498 H1486 0.930 . S
C1498 C1499 1.399 . S
C1498 C1503 1.399 . S
C1499 C1498 1.399 . S
C1499 C1500 1.376 . S
C1500 H1487 0.930 . S
C1500 C1499 1.376 . S
C1500 C1501 1.388 . S
C1501 H1488 0.930 . S
C1501 C1500 1.388 . S
C1501 C1502 1.390 . S
C1502 C1501 1.390 . S
C1502 C1503 1.394 . S
C1502 C1508 1.465 . S
C1503 C1498 1.399 . S
C1503 C1502 1.394 . S
C1503 C1504 1.516 . S
C1504 C1503 1.516 . S
C1504 C1505 1.502 . S
C1504 C1506 1.561 . S
C1504 C1507 1.526 . S
C1505 H1489 0.959 . S
C1505 H1490 0.959 . S
C1505 H1491 0.961 . S
C1505 C1504 1.502 . S
C1506 H1492 0.960 . S
C1506 H1493 0.961 . S
C1506 H1494 0.959 . S
C1506 C1504 1.561 . S
C1507 C1504 1.526 . S
C1507 C1508 1.396 . S
C1507 C1512 1.390 . S
C1508 C1502 1.465 . S
C1508 C1507 1.396 . S
C1508 C1509 1.399 . S
C1509 H1495 0.929 . S
C1509 C1508 1.399 . S
C1509 C1510 1.385 . S
C1510 H1496 0.931 . S
C1510 C1509 1.385 . S
C1510 C1511 1.389 . S
C1511 C1510 1.389 . S
C1511 C1512 1.387 . S
C1512 H1497 0.930 . S
C1512 C1507 1.390 . S
C1512 C1511 1.387 . S
H1513 C1525 0.930 . S
H1514 C1527 0.930 . S
H1515 C1528 0.930 . S
H1516 C1532 0.959 . S
H1517 C1532 0.959 . S
H1518 C1532 0.961 . S
H1519 C1533 0.960 . S
H1520 C1533 0.961 . S
H1521 C1533 0.959 . S
H1522 C1536 0.929 . S
H1523 C1537 0.931 . S
H1524 C1539 0.930 . S
C1525 H1513 0.930 . S
C1525 C1526 1.399 . S
C1525 C1530 1.399 . S
C1526 C1525 1.399 . S
C1526 C1527 1.376 . S
C1527 H1514 0.930 . S
C1527 C1526 1.376 . S
C1527 C1528 1.388 . S
C1528 H1515 0.930 . S
C1528 C1527 1.388 . S
C1528 C1529 1.390 . S
C1529 C1528 1.390 . S
C1529 C1530 1.394 . S
C1529 C1535 1.465 . S
C1530 C1525 1.399 . S
C1530 C1529 1.394 . S
C1530 C1531 1.516 . S
C1531 C1530 1.516 . S
C1531 C1532 1.502 . S
C1531 C1533 1.561 . S
C1531 C1534 1.526 . S
C1532 H1516 0.959 . S
C1532 H1517 0.959 . S
C1532 H1518 0.961 . S
C1532 C1531 1.502 . S
C1533 H1519 0.960 . S
C1533 H1520 0.961 . S
C1533 H1521 0.959 . S
C1533 C1531 1.561 . S
C1534 C1531 1.526 . S
C1534 C1535 1.396 . S
C1534 C1539 1.390 . S
C1535 C1529 1.465 . S
C1535 C1534 1.396 . S
C1535 C1536 1.399 . S
C1536 H1522 0.929 . S
C1536 C1535 1.399 . S
C1536 C1537 1.385 . S
C1537 H1523 0.931 . S
C1537 C1536 1.385 . S
C1537 C1538 1.389 . S
C1538 C1537 1.389 . S
C1538 C1539 1.387 . S
C1539 H1524 0.930 . S
C1539 C1534 1.390 . S
C1539 C1538 1.387 . S
H1540 C1552 0.930 . S
H1541 C1554 0.930 . S
H1542 C1555 0.930 . S
H1543 C1559 0.959 . S
H1544 C1559 0.959 . S
H1545 C1559 0.961 . S
H1546 C1560 0.960 . S
H1547 C1560 0.961 . S
H1548 C1560 0.959 . S
H1549 C1563 0.929 1_556 S
H1550 C1564 0.931 . S
H1551 C1566 0.930 . S
C1552 H1540 0.930 . S
C1552 C1553 1.399 . S
C1552 C1557 1.399 . S
C1553 C1552 1.399 . S
C1553 C1554 1.376 . S
C1554 H1541 0.930 . S
C1554 C1553 1.376 . S
C1554 C1555 1.388 . S
C1555 H1542 0.930 . S
C1555 C1554 1.388 . S
C1555 C1556 1.390 . S
C1556 C1555 1.390 . S
C1556 C1557 1.394 . S
C1556 C1562 1.465 1_556 S
C1557 C1552 1.399 . S
C1557 C1556 1.394 . S
C1557 C1558 1.516 1_556 S
C1558 C1557 1.516 1_554 S
C1558 C1559 1.502 . S
C1558 C1560 1.561 . S
C1558 C1561 1.526 . S
C1559 H1543 0.959 . S
C1559 H1544 0.959 . S
C1559 H1545 0.961 . S
C1559 C1558 1.502 . S
C1560 H1546 0.960 . S
C1560 H1547 0.961 . S
C1560 H1548 0.959 . S
C1560 C1558 1.561 . S
C1561 C1558 1.526 . S
C1561 C1562 1.396 . S
C1561 C1566 1.390 . S
C1562 C1556 1.465 1_554 S
C1562 C1561 1.396 . S
C1562 C1563 1.399 . S
C1563 H1549 0.929 1_554 S
C1563 C1562 1.399 . S
C1563 C1564 1.385 . S
C1564 H1550 0.931 . S
C1564 C1563 1.385 . S
C1564 C1565 1.389 . S
C1565 C1564 1.389 . S
C1565 C1566 1.387 . S
C1566 H1551 0.930 . S
C1566 C1561 1.390 . S
C1566 C1565 1.387 . S
H1567 C1579 0.930 . S
H1568 C1581 0.930 . S
H1569 C1582 0.930 1_554 S
H1570 C1586 0.959 . S
H1571 C1586 0.959 . S
H1572 C1586 0.961 . S
H1573 C1587 0.960 . S
H1574 C1587 0.961 . S
H1575 C1587 0.959 1_554 S
H1576 C1590 0.929 . S
H1577 C1591 0.931 . S
H1578 C1593 0.930 . S
C1579 H1567 0.930 . S
C1579 C1580 1.399 . S
C1579 C1584 1.399 . S
C1580 C1579 1.399 . S
C1580 C1581 1.376 . S
C1581 H1568 0.930 . S
C1581 C1580 1.376 . S
C1581 C1582 1.388 . S
C1582 H1569 0.930 1_556 S
C1582 C1581 1.388 . S
C1582 C1583 1.385 1_556 S
C1583 C1582 1.385 1_554 S
C1583 C1584 1.371 1_554 S
C1583 C1589 1.490 . S
C1584 C1579 1.399 . S
C1584 C1583 1.371 1_556 S
C1584 C1585 1.516 . S
C1585 C1584 1.516 . S
C1585 C1586 1.502 . S
C1585 C1587 1.561 . S
C1585 C1588 1.526 1_556 S
C1586 H1570 0.959 . S
C1586 H1571 0.959 . S
C1586 H1572 0.961 . S
C1586 C1585 1.502 . S
C1587 H1573 0.960 . S
C1587 H1574 0.961 . S
C1587 H1575 0.959 1_556 S
C1587 C1585 1.561 . S
C1588 C1585 1.526 1_554 S
C1588 C1589 1.396 . S
C1588 C1593 1.390 . S
C1589 C1583 1.490 . S
C1589 C1588 1.396 . S
C1589 C1590 1.399 . S
C1590 H1576 0.929 . S
C1590 C1589 1.399 . S
C1590 C1591 1.385 . S
C1591 H1577 0.931 . S
C1591 C1590 1.385 . S
C1591 C1592 1.389 . S
C1592 C1591 1.389 . S
C1592 C1593 1.387 . S
C1593 H1578 0.930 . S
C1593 C1588 1.390 . S
C1593 C1592 1.387 . S
H1594 C1606 0.930 . S
H1595 C1608 0.930 . S
H1596 C1609 0.930 . S
H1597 C1613 0.946 1_556 S
H1598 C1613 0.959 . S
H1599 C1613 0.961 . S
H1600 C1614 0.960 . S
H1601 C1614 0.961 . S
H1602 C1614 0.959 . S
H1603 C1617 0.929 . S
H1604 C1618 0.931 . S
H1605 C1620 0.930 . S
C1606 H1594 0.930 . S
C1606 C1607 1.399 . S
C1606 C1611 1.399 . S
C1607 C1606 1.399 . S
C1607 C1608 1.376 . S
C1608 H1595 0.930 . S
C1608 C1607 1.376 . S
C1608 C1609 1.388 . S
C1609 H1596 0.930 . S
C1609 C1608 1.388 . S
C1609 C1610 1.390 . S
C1610 C1609 1.390 . S
C1610 C1611 1.394 . S
C1610 C1616 1.465 1_554 S
C1611 C1606 1.399 . S
C1611 C1610 1.394 . S
C1611 C1612 1.516 . S
C1612 C1611 1.516 . S
C1612 C1613 1.502 . S
C1612 C1614 1.561 . S
C1612 C1615 1.526 1_554 S
C1613 H1597 0.946 1_554 S
C1613 H1598 0.959 . S
C1613 H1599 0.961 . S
C1613 C1612 1.502 . S
C1614 H1600 0.960 . S
C1614 H1601 0.961 . S
C1614 H1602 0.959 . S
C1614 C1612 1.561 . S
C1615 C1612 1.526 1_556 S
C1615 C1616 1.396 . S
C1615 C1620 1.390 . S
C1616 C1610 1.465 1_556 S
C1616 C1615 1.396 . S
C1616 C1617 1.399 . S
C1617 H1603 0.929 . S
C1617 C1616 1.399 . S
C1617 C1618 1.385 . S
C1618 H1604 0.931 . S
C1618 C1617 1.385 . S
C1618 C1619 1.389 . S
C1619 C1618 1.389 . S
C1619 C1620 1.387 . S
C1620 H1605 0.930 . S
C1620 C1615 1.390 . S
C1620 C1619 1.387 . S
H1621 C1633 0.930 . S
H1622 C1635 0.930 . S
H1623 C1636 0.930 . S
H1624 C1640 0.959 . S
H1625 C1640 0.959 . S
H1626 C1640 0.961 . S
H1627 C1641 0.960 . S
H1628 C1641 0.961 . S
H1629 C1641 0.959 . S
H1630 C1644 0.929 1_554 S
H1631 C1645 0.931 . S
H1632 C1647 0.930 . S
C1633 H1621 0.930 . S
C1633 C1634 1.399 . S
C1633 C1638 1.399 . S
C1634 C1633 1.399 . S
C1634 C1635 1.376 . S
C1635 H1622 0.930 . S
C1635 C1634 1.376 . S
C1635 C1636 1.388 . S
C1636 H1623 0.930 . S
C1636 C1635 1.388 . S
C1636 C1637 1.390 . S
C1637 C1636 1.390 . S
C1637 C1638 1.394 . S
C1637 C1643 1.465 . S
C1638 C1633 1.399 . S
C1638 C1637 1.394 . S
C1638 C1639 1.516 1_554 S
C1639 C1638 1.516 1_556 S
C1639 C1640 1.502 . S
C1639 C1641 1.561 . S
C1639 C1642 1.526 . S
C1640 H1624 0.959 . S
C1640 H1625 0.959 . S
C1640 H1626 0.961 . S
C1640 C1639 1.502 . S
C1641 H1627 0.960 . S
C1641 H1628 0.961 . S
C1641 H1629 0.959 . S
C1641 C1639 1.561 . S
C1642 C1639 1.526 . S
C1642 C1643 1.396 1_556 S
C1642 C1647 1.390 . S
C1643 C1637 1.465 . S
C1643 C1642 1.396 1_554 S
C1643 C1644 1.399 1_554 S
C1644 H1630 0.929 1_556 S
C1644 C1643 1.399 1_556 S
C1644 C1645 1.385 . S
C1645 H1631 0.931 . S
C1645 C1644 1.385 . S
C1645 C1646 1.389 . S
C1646 C1645 1.389 . S
C1646 C1647 1.387 . S
C1647 H1632 0.930 . S
C1647 C1642 1.390 . S
C1647 C1646 1.387 . S
C365 C8 2.244 . S
C377 C120 2.191 . S
C392 C140 2.184 . S
C404 C32 2.247 . S
C419 C62 2.208 . S
C431 C162 2.222 . S
C446 C76 2.232 . S
C458 C98 2.199 . S
C473 C304 2.233 . S
C485 C184 2.217 . S
C500 C318 2.247 . S
C512 C206 2.184 . S
C527 C228 2.193 . S
C539 C348 2.248 . S
C554 C252 2.250 . S
C566 C272 2.188 . S
C581 C18 1.555 . S
C593 C84 1.508 1_545 S
C608 C30 1.551 . S
C620 C10 1.487 . S
C635 C54 1.552 1_455 S
C647 C40 1.486 . S
C662 C74 1.548 1_545 S
C674 C52 1.490 1_455 S
C689 C96 1.554 1_655 S
C701 C128 1.486 1_565 S
C716 C142 1.525 . S
C728 C118 1.551 1_565 S
C743 C150 1.542 . S
C755 C164 1.543 . S
C770 C106 1.525 1_655 S
C782 C172 1.536 . S
C797 C260 1.485 1_565 S
C809 C194 1.546 . S
C824 C216 1.547 . S
C836 C186 1.486 . S
C851 C238 1.536 1_655 S
C863 C208 1.504 . S
C878 C250 1.554 1_565 S
C890 C230 1.532 1_655 S
C905 C282 1.536 1_455 S
C917 C294 1.508 1_545 S
C932 C296 1.556 1_545 S
C944 C326 1.503 . S
C959 C316 1.538 . S
C971 C338 1.499 . S
C986 C340 1.535 . S
C998 C274 1.513 1_455 S
C1013 C21 0.160 . S
C1025 C51 0.383 . S
C1040 C37 0.359 . S
C1052 C81 0.206 . S
C1067 C153 0.290 . S
C1079 C103 0.302 . S
C1094 C175 0.215 . S
C1106 C125 0.358 . S
C1121 C241 0.162 . S
C1133 C197 0.337 . S
C1148 C257 0.188 . S
C1160 C219 0.314 . S
C1175 C285 0.189 . S
C1187 C323 0.313 . S
C1202 C293 0.193 . S
C1214 C337 0.309 . S
C1229 C7 1.169 . S
C1241 C249 1.155 . S
C1256 C191 1.146 . S
C1268 C43 1.146 . S
C1283 C59 1.169 . S
C1295 C213 1.147 . S
C1310 C235 1.161 . S
C1322 C87 1.168 . S
C1337 C307 1.173 . S
C1349 C109 1.155 . S
C1364 C131 1.169 . S
C1376 C315 1.147 . S
C1391 C351 1.171 . S
C1403 C139 1.151 . S
C1418 C161 1.168 . S
C1430 C279 1.143 . S
C1445 C183 1.151 . S
C1457 C73 1.132 . S
C1472 C205 1.169 . S
C1484 C15 1.166 . S
C1499 C29 1.149 . S
C1511 C227 1.146 . S
C1526 C263 1.168 . S
C1538 C65 1.157 . S
C1553 C271 1.155 . S
C1565 C117 1.133 . S
C1580 C301 1.156 . S
C1592 C147 1.170 . S
C1607 C169 1.154 . S
C1619 C329 1.168 . S
C1634 C95 1.172 . S
C1646 C345 1.160 . S
