# Generated by pormake.
# Topology rho, (4)-cn, num edge types: 1
# Building blocks:
#     Node 0, Type 0, BuildingBlock: CEKHIL_clean_sbu_0, # of connection points: 4
#     Node 1, Type 0, BuildingBlock: CEKHIL_clean_sbu_0, # of connection points: 4
#     Node 2, Type 0, BuildingBlock: CEKHIL_clean_sbu_0, # of connection points: 4
#     Node 3, Type 0, BuildingBlock: CEKHIL_clean_sbu_0, # of connection points: 4
#     Node 4, Type 0, BuildingBlock: CEKHIL_clean_sbu_0, # of connection points: 4
#     Node 5, Type 0, BuildingBlock: CEKHIL_clean_sbu_0, # of connection points: 4
#     Node 6, Type 0, BuildingBlock: CEKHIL_clean_sbu_0, # of connection points: 4
#     Node 7, Type 0, BuildingBlock: CEKHIL_clean_sbu_0, # of connection points: 4
#     Node 8, Type 0, BuildingBlock: CEKHIL_clean_sbu_0, # of connection points: 4
#     Node 9, Type 0, BuildingBlock: CEKHIL_clean_sbu_0, # of connection points: 4
#     Node 10, Type 0, BuildingBlock: CEKHIL_clean_sbu_0, # of connection points: 4
#     Node 11, Type 0, BuildingBlock: CEKHIL_clean_sbu_0, # of connection points: 4
#     Node 12, Type 0, BuildingBlock: CEKHIL_clean_sbu_0, # of connection points: 4
#     Node 13, Type 0, BuildingBlock: CEKHIL_clean_sbu_0, # of connection points: 4
#     Node 14, Type 0, BuildingBlock: CEKHIL_clean_sbu_0, # of connection points: 4
#     Node 15, Type 0, BuildingBlock: CEKHIL_clean_sbu_0, # of connection points: 4
#     Node 16, Type 0, BuildingBlock: CEKHIL_clean_sbu_0, # of connection points: 4
#     Node 17, Type 0, BuildingBlock: CEKHIL_clean_sbu_0, # of connection points: 4
#     Node 18, Type 0, BuildingBlock: CEKHIL_clean_sbu_0, # of connection points: 4
#     Node 19, Type 0, BuildingBlock: CEKHIL_clean_sbu_0, # of connection points: 4
#     Node 20, Type 0, BuildingBlock: CEKHIL_clean_sbu_0, # of connection points: 4
#     Node 21, Type 0, BuildingBlock: CEKHIL_clean_sbu_0, # of connection points: 4
#     Node 22, Type 0, BuildingBlock: CEKHIL_clean_sbu_0, # of connection points: 4
#     Node 23, Type 0, BuildingBlock: CEKHIL_clean_sbu_0, # of connection points: 4
#     Node 24, Type 0, BuildingBlock: CEKHIL_clean_sbu_0, # of connection points: 4
#     Node 25, Type 0, BuildingBlock: CEKHIL_clean_sbu_0, # of connection points: 4
#     Node 26, Type 0, BuildingBlock: CEKHIL_clean_sbu_0, # of connection points: 4
#     Node 27, Type 0, BuildingBlock: CEKHIL_clean_sbu_0, # of connection points: 4
#     Node 28, Type 0, BuildingBlock: CEKHIL_clean_sbu_0, # of connection points: 4
#     Node 29, Type 0, BuildingBlock: CEKHIL_clean_sbu_0, # of connection points: 4
#     Node 30, Type 0, BuildingBlock: CEKHIL_clean_sbu_0, # of connection points: 4
#     Node 31, Type 0, BuildingBlock: CEKHIL_clean_sbu_0, # of connection points: 4
#     Node 32, Type 0, BuildingBlock: CEKHIL_clean_sbu_0, # of connection points: 4
#     Node 33, Type 0, BuildingBlock: CEKHIL_clean_sbu_0, # of connection points: 4
#     Node 34, Type 0, BuildingBlock: CEKHIL_clean_sbu_0, # of connection points: 4
#     Node 35, Type 0, BuildingBlock: CEKHIL_clean_sbu_0, # of connection points: 4
#     Node 36, Type 0, BuildingBlock: CEKHIL_clean_sbu_0, # of connection points: 4
#     Node 37, Type 0, BuildingBlock: CEKHIL_clean_sbu_0, # of connection points: 4
#     Node 38, Type 0, BuildingBlock: CEKHIL_clean_sbu_0, # of connection points: 4
#     Node 39, Type 0, BuildingBlock: CEKHIL_clean_sbu_0, # of connection points: 4
#     Node 40, Type 0, BuildingBlock: CEKHIL_clean_sbu_0, # of connection points: 4
#     Node 41, Type 0, BuildingBlock: CEKHIL_clean_sbu_0, # of connection points: 4
#     Node 42, Type 0, BuildingBlock: CEKHIL_clean_sbu_0, # of connection points: 4
#     Node 43, Type 0, BuildingBlock: CEKHIL_clean_sbu_0, # of connection points: 4
#     Node 44, Type 0, BuildingBlock: CEKHIL_clean_sbu_0, # of connection points: 4
#     Node 45, Type 0, BuildingBlock: CEKHIL_clean_sbu_0, # of connection points: 4
#     Node 46, Type 0, BuildingBlock: CEKHIL_clean_sbu_0, # of connection points: 4
#     Node 47, Type 0, BuildingBlock: CEKHIL_clean_sbu_0, # of connection points: 4
#     Edge 48, Type (0, 0), BuildingBlock: KIFKEQ_clean_linker_1, # of connection points: 2
#     Edge 49, Type (0, 0), BuildingBlock: KIFKEQ_clean_linker_1, # of connection points: 2
#     Edge 50, Type (0, 0), BuildingBlock: KIFKEQ_clean_linker_1, # of connection points: 2
#     Edge 51, Type (0, 0), BuildingBlock: KIFKEQ_clean_linker_1, # of connection points: 2
#     Edge 52, Type (0, 0), BuildingBlock: KIFKEQ_clean_linker_1, # of connection points: 2
#     Edge 53, Type (0, 0), BuildingBlock: KIFKEQ_clean_linker_1, # of connection points: 2
#     Edge 54, Type (0, 0), BuildingBlock: KIFKEQ_clean_linker_1, # of connection points: 2
#     Edge 55, Type (0, 0), BuildingBlock: KIFKEQ_clean_linker_1, # of connection points: 2
#     Edge 56, Type (0, 0), BuildingBlock: KIFKEQ_clean_linker_1, # of connection points: 2
#     Edge 57, Type (0, 0), BuildingBlock: KIFKEQ_clean_linker_1, # of connection points: 2
#     Edge 58, Type (0, 0), BuildingBlock: KIFKEQ_clean_linker_1, # of connection points: 2
#     Edge 59, Type (0, 0), BuildingBlock: KIFKEQ_clean_linker_1, # of connection points: 2
#     Edge 60, Type (0, 0), BuildingBlock: KIFKEQ_clean_linker_1, # of connection points: 2
#     Edge 61, Type (0, 0), BuildingBlock: KIFKEQ_clean_linker_1, # of connection points: 2
#     Edge 62, Type (0, 0), BuildingBlock: KIFKEQ_clean_linker_1, # of connection points: 2
#     Edge 63, Type (0, 0), BuildingBlock: KIFKEQ_clean_linker_1, # of connection points: 2
#     Edge 64, Type (0, 0), BuildingBlock: KIFKEQ_clean_linker_1, # of connection points: 2
#     Edge 65, Type (0, 0), BuildingBlock: KIFKEQ_clean_linker_1, # of connection points: 2
#     Edge 66, Type (0, 0), BuildingBlock: KIFKEQ_clean_linker_1, # of connection points: 2
#     Edge 67, Type (0, 0), BuildingBlock: KIFKEQ_clean_linker_1, # of connection points: 2
#     Edge 68, Type (0, 0), BuildingBlock: KIFKEQ_clean_linker_1, # of connection points: 2
#     Edge 69, Type (0, 0), BuildingBlock: KIFKEQ_clean_linker_1, # of connection points: 2
#     Edge 70, Type (0, 0), BuildingBlock: KIFKEQ_clean_linker_1, # of connection points: 2
#     Edge 71, Type (0, 0), BuildingBlock: KIFKEQ_clean_linker_1, # of connection points: 2
#     Edge 72, Type (0, 0), BuildingBlock: KIFKEQ_clean_linker_1, # of connection points: 2
#     Edge 73, Type (0, 0), BuildingBlock: KIFKEQ_clean_linker_1, # of connection points: 2
#     Edge 74, Type (0, 0), BuildingBlock: KIFKEQ_clean_linker_1, # of connection points: 2
#     Edge 75, Type (0, 0), BuildingBlock: KIFKEQ_clean_linker_1, # of connection points: 2
#     Edge 76, Type (0, 0), BuildingBlock: KIFKEQ_clean_linker_1, # of connection points: 2
#     Edge 77, Type (0, 0), BuildingBlock: KIFKEQ_clean_linker_1, # of connection points: 2
#     Edge 78, Type (0, 0), BuildingBlock: KIFKEQ_clean_linker_1, # of connection points: 2
#     Edge 79, Type (0, 0), BuildingBlock: KIFKEQ_clean_linker_1, # of connection points: 2
#     Edge 80, Type (0, 0), BuildingBlock: KIFKEQ_clean_linker_1, # of connection points: 2
#     Edge 81, Type (0, 0), BuildingBlock: KIFKEQ_clean_linker_1, # of connection points: 2
#     Edge 82, Type (0, 0), BuildingBlock: KIFKEQ_clean_linker_1, # of connection points: 2
#     Edge 83, Type (0, 0), BuildingBlock: KIFKEQ_clean_linker_1, # of connection points: 2
#     Edge 84, Type (0, 0), BuildingBlock: KIFKEQ_clean_linker_1, # of connection points: 2
#     Edge 85, Type (0, 0), BuildingBlock: KIFKEQ_clean_linker_1, # of connection points: 2
#     Edge 86, Type (0, 0), BuildingBlock: KIFKEQ_clean_linker_1, # of connection points: 2
#     Edge 87, Type (0, 0), BuildingBlock: KIFKEQ_clean_linker_1, # of connection points: 2
#     Edge 88, Type (0, 0), BuildingBlock: KIFKEQ_clean_linker_1, # of connection points: 2
#     Edge 89, Type (0, 0), BuildingBlock: KIFKEQ_clean_linker_1, # of connection points: 2
#     Edge 90, Type (0, 0), BuildingBlock: KIFKEQ_clean_linker_1, # of connection points: 2
#     Edge 91, Type (0, 0), BuildingBlock: KIFKEQ_clean_linker_1, # of connection points: 2
#     Edge 92, Type (0, 0), BuildingBlock: KIFKEQ_clean_linker_1, # of connection points: 2
#     Edge 93, Type (0, 0), BuildingBlock: KIFKEQ_clean_linker_1, # of connection points: 2
#     Edge 94, Type (0, 0), BuildingBlock: KIFKEQ_clean_linker_1, # of connection points: 2
#     Edge 95, Type (0, 0), BuildingBlock: KIFKEQ_clean_linker_1, # of connection points: 2
#     Edge 96, Type (0, 0), BuildingBlock: KIFKEQ_clean_linker_1, # of connection points: 2
#     Edge 97, Type (0, 0), BuildingBlock: KIFKEQ_clean_linker_1, # of connection points: 2
#     Edge 98, Type (0, 0), BuildingBlock: KIFKEQ_clean_linker_1, # of connection points: 2
#     Edge 99, Type (0, 0), BuildingBlock: KIFKEQ_clean_linker_1, # of connection points: 2
#     Edge 100, Type (0, 0), BuildingBlock: KIFKEQ_clean_linker_1, # of connection points: 2
#     Edge 101, Type (0, 0), BuildingBlock: KIFKEQ_clean_linker_1, # of connection points: 2
#     Edge 102, Type (0, 0), BuildingBlock: KIFKEQ_clean_linker_1, # of connection points: 2
#     Edge 103, Type (0, 0), BuildingBlock: KIFKEQ_clean_linker_1, # of connection points: 2
#     Edge 104, Type (0, 0), BuildingBlock: KIFKEQ_clean_linker_1, # of connection points: 2
#     Edge 105, Type (0, 0), BuildingBlock: KIFKEQ_clean_linker_1, # of connection points: 2
#     Edge 106, Type (0, 0), BuildingBlock: KIFKEQ_clean_linker_1, # of connection points: 2
#     Edge 107, Type (0, 0), BuildingBlock: KIFKEQ_clean_linker_1, # of connection points: 2
#     Edge 108, Type (0, 0), BuildingBlock: KIFKEQ_clean_linker_1, # of connection points: 2
#     Edge 109, Type (0, 0), BuildingBlock: KIFKEQ_clean_linker_1, # of connection points: 2
#     Edge 110, Type (0, 0), BuildingBlock: KIFKEQ_clean_linker_1, # of connection points: 2
#     Edge 111, Type (0, 0), BuildingBlock: KIFKEQ_clean_linker_1, # of connection points: 2
#     Edge 112, Type (0, 0), BuildingBlock: KIFKEQ_clean_linker_1, # of connection points: 2
#     Edge 113, Type (0, 0), BuildingBlock: KIFKEQ_clean_linker_1, # of connection points: 2
#     Edge 114, Type (0, 0), BuildingBlock: KIFKEQ_clean_linker_1, # of connection points: 2
#     Edge 115, Type (0, 0), BuildingBlock: KIFKEQ_clean_linker_1, # of connection points: 2
#     Edge 116, Type (0, 0), BuildingBlock: KIFKEQ_clean_linker_1, # of connection points: 2
#     Edge 117, Type (0, 0), BuildingBlock: KIFKEQ_clean_linker_1, # of connection points: 2
#     Edge 118, Type (0, 0), BuildingBlock: KIFKEQ_clean_linker_1, # of connection points: 2
#     Edge 119, Type (0, 0), BuildingBlock: KIFKEQ_clean_linker_1, # of connection points: 2
#     Edge 120, Type (0, 0), BuildingBlock: KIFKEQ_clean_linker_1, # of connection points: 2
#     Edge 121, Type (0, 0), BuildingBlock: KIFKEQ_clean_linker_1, # of connection points: 2
#     Edge 122, Type (0, 0), BuildingBlock: KIFKEQ_clean_linker_1, # of connection points: 2
#     Edge 123, Type (0, 0), BuildingBlock: KIFKEQ_clean_linker_1, # of connection points: 2
#     Edge 124, Type (0, 0), BuildingBlock: KIFKEQ_clean_linker_1, # of connection points: 2
#     Edge 125, Type (0, 0), BuildingBlock: KIFKEQ_clean_linker_1, # of connection points: 2
#     Edge 126, Type (0, 0), BuildingBlock: KIFKEQ_clean_linker_1, # of connection points: 2
#     Edge 127, Type (0, 0), BuildingBlock: KIFKEQ_clean_linker_1, # of connection points: 2
#     Edge 128, Type (0, 0), BuildingBlock: KIFKEQ_clean_linker_1, # of connection points: 2
#     Edge 129, Type (0, 0), BuildingBlock: KIFKEQ_clean_linker_1, # of connection points: 2
#     Edge 130, Type (0, 0), BuildingBlock: KIFKEQ_clean_linker_1, # of connection points: 2
#     Edge 131, Type (0, 0), BuildingBlock: KIFKEQ_clean_linker_1, # of connection points: 2
#     Edge 132, Type (0, 0), BuildingBlock: KIFKEQ_clean_linker_1, # of connection points: 2
#     Edge 133, Type (0, 0), BuildingBlock: KIFKEQ_clean_linker_1, # of connection points: 2
#     Edge 134, Type (0, 0), BuildingBlock: KIFKEQ_clean_linker_1, # of connection points: 2
#     Edge 135, Type (0, 0), BuildingBlock: KIFKEQ_clean_linker_1, # of connection points: 2
#     Edge 136, Type (0, 0), BuildingBlock: KIFKEQ_clean_linker_1, # of connection points: 2
#     Edge 137, Type (0, 0), BuildingBlock: KIFKEQ_clean_linker_1, # of connection points: 2
#     Edge 138, Type (0, 0), BuildingBlock: KIFKEQ_clean_linker_1, # of connection points: 2
#     Edge 139, Type (0, 0), BuildingBlock: KIFKEQ_clean_linker_1, # of connection points: 2
#     Edge 140, Type (0, 0), BuildingBlock: KIFKEQ_clean_linker_1, # of connection points: 2
#     Edge 141, Type (0, 0), BuildingBlock: KIFKEQ_clean_linker_1, # of connection points: 2
#     Edge 142, Type (0, 0), BuildingBlock: KIFKEQ_clean_linker_1, # of connection points: 2
#     Edge 143, Type (0, 0), BuildingBlock: KIFKEQ_clean_linker_1, # of connection points: 2
# Relax obj value: 0.078
# Max RMSD: 0.092
# Mean RMSD: 0.084
data_MOF--net-rho--node1-CEKHIL_clean_sbu_0--edge1-KIFKEQ_clean_linker_1
_symmetry_space_group_name_H-M    P1
_symmetry_Int_Tables_number       1
_symmetry_cell_setting            triclinic
loop_
_symmetry_equiv_pos_as_xyz
'x, y, z'
_cell_length_a     72.925327
_cell_length_b     72.287118
_cell_length_c     72.243117
_cell_angle_alpha  90.188005
_cell_angle_beta   90.051422
_cell_angle_gamma 90.722244
loop_
_atom_site_label
_atom_site_type_symbol
_atom_site_fract_x
_atom_site_fract_y
_atom_site_fract_z
_atom_type_partial_charge
Co0 Co 0.11284 0.25337 0.39446 0.0
O1 O 0.13837 0.24701 0.39392 0.0
O2 O 0.11549 0.22677 0.39641 0.0
C3 C 0.11396 0.27347 0.37062 0.0
O4 O 0.08488 0.25463 0.39452 0.0
Co5 Co 0.10074 0.29374 0.40252 0.0
O6 O 0.07626 0.2844 0.39469 0.0
C7 C 0.11348 0.27013 0.43318 0.0
C8 C 0.13308 0.22987 0.39535 0.0
C9 C 0.0725 0.26717 0.39346 0.0
O10 O 0.11379 0.25596 0.42233 0.0
O11 O 0.11013 0.28651 0.42751 0.0
O12 O 0.11255 0.25578 0.36746 0.0
O13 O 0.11627 0.27814 0.3877 0.0
Co14 Co 0.75427 0.10589 0.39329 0.0
O15 O 0.74666 0.10645 0.36788 0.0
O16 O 0.72765 0.10529 0.39172 0.0
C17 C 0.77545 0.12876 0.39108 0.0
O18 O 0.7576 0.10601 0.42145 0.0
Co19 Co 0.79443 0.09478 0.40202 0.0
O20 O 0.7879 0.10405 0.427 0.0
C21 C 0.76768 0.06599 0.39134 0.0
C22 C 0.72991 0.10603 0.37385 0.0
C23 C 0.7715 0.10652 0.43254 0.0
O24 O 0.7548 0.07796 0.39254 0.0
O25 O 0.78469 0.07026 0.393 0.0
O26 O 0.75823 0.13268 0.39311 0.0
O27 O 0.77891 0.11147 0.38848 0.0
Co28 Co 0.89143 0.74999 0.39302 0.0
O29 O 0.86592 0.75621 0.39197 0.0
O30 O 0.88872 0.77662 0.39419 0.0
C31 C 0.89079 0.72909 0.3698 0.0
O32 O 0.91937 0.74865 0.3935 0.0
Co33 Co 0.90294 0.70988 0.40304 0.0
O34 O 0.92773 0.71887 0.39581 0.0
C35 C 0.88831 0.73449 0.43182 0.0
C36 C 0.87116 0.7734 0.39298 0.0
C37 C 0.93164 0.73596 0.39355 0.0
O38 O 0.89014 0.74843 0.42092 0.0
O39 O 0.89079 0.71775 0.42664 0.0
O40 O 0.89192 0.74666 0.36612 0.0
O41 O 0.88823 0.72501 0.38697 0.0
Co42 Co 0.25039 0.89582 0.39293 0.0
O43 O 0.2582 0.89483 0.36759 0.0
O44 O 0.27704 0.89676 0.39157 0.0
C45 C 0.22942 0.87267 0.39091 0.0
O46 O 0.24697 0.89617 0.42106 0.0
Co47 Co 0.21005 0.90654 0.4014 0.0
O48 O 0.21665 0.8979 0.42653 0.0
C49 C 0.2364 0.93548 0.39031 0.0
C50 C 0.27491 0.89563 0.37369 0.0
C51 C 0.23308 0.8957 0.43212 0.0
O52 O 0.24947 0.92375 0.39176 0.0
O53 O 0.21945 0.93096 0.39199 0.0
O54 O 0.24667 0.86894 0.39308 0.0
O55 O 0.22583 0.88987 0.38807 0.0
Co56 Co 0.10939 0.74791 0.60714 0.0
O57 O 0.13527 0.75352 0.60576 0.0
O58 O 0.11334 0.77441 0.60626 0.0
C59 C 0.11112 0.72694 0.6302 0.0
O60 O 0.08139 0.74756 0.60915 0.0
Co61 Co 0.09434 0.7087 0.59794 0.0
O62 O 0.07224 0.71779 0.61095 0.0
C63 C 0.10532 0.73349 0.56742 0.0
C64 C 0.13076 0.77083 0.60567 0.0
C65 C 0.0691 0.73503 0.61239 0.0
O66 O 0.10808 0.74661 0.57924 0.0
O67 O 0.10076 0.71699 0.57214 0.0
O68 O 0.11116 0.74454 0.63386 0.0
O69 O 0.11182 0.72266 0.61281 0.0
Co70 Co 0.25304 0.10908 0.60892 0.0
O71 O 0.24558 0.13445 0.61059 0.0
O72 O 0.22655 0.11056 0.60737 0.0
C73 C 0.27338 0.11036 0.63251 0.0
O74 O 0.2555 0.08105 0.60765 0.0
Co75 Co 0.2934 0.09871 0.60004 0.0
O76 O 0.28536 0.07364 0.60815 0.0
C77 C 0.26932 0.11297 0.57056 0.0
C78 C 0.22882 0.12836 0.60911 0.0
C79 C 0.26842 0.06913 0.60896 0.0
O80 O 0.25519 0.11116 0.58112 0.0
O81 O 0.28577 0.11043 0.57613 0.0
O82 O 0.25599 0.10798 0.6359 0.0
O83 O 0.27753 0.11337 0.61545 0.0
Co84 Co 0.8942 0.25294 0.60576 0.0
O85 O 0.86867 0.24636 0.60619 0.0
O86 O 0.89116 0.22619 0.6043 0.0
C87 C 0.89314 0.27327 0.62946 0.0
O88 O 0.92224 0.25524 0.60586 0.0
Co89 Co 0.90451 0.29348 0.59575 0.0
O90 O 0.92892 0.28572 0.60472 0.0
C91 C 0.89332 0.26795 0.56609 0.0
C92 C 0.87361 0.22924 0.60523 0.0
C93 C 0.93376 0.26893 0.60671 0.0
O94 O 0.8935 0.25463 0.57786 0.0
O95 O 0.89583 0.28491 0.5707 0.0
O96 O 0.89429 0.25566 0.63266 0.0
O97 O 0.89063 0.27771 0.61233 0.0
Co98 Co 0.75159 0.89202 0.60842 0.0
O99 O 0.75867 0.8665 0.60659 0.0
O100 O 0.77798 0.89039 0.60627 0.0
C101 C 0.73167 0.8884 0.6321 0.0
O102 O 0.74969 0.9201 0.6106 0.0
Co103 Co 0.7113 0.90448 0.60211 0.0
O104 O 0.7201 0.92819 0.61294 0.0
C105 C 0.73438 0.89367 0.57024 0.0
C106 C 0.7755 0.87256 0.60562 0.0
C107 C 0.73716 0.93216 0.61362 0.0
O108 O 0.74876 0.89311 0.5806 0.0
O109 O 0.71825 0.89645 0.57658 0.0
O110 O 0.74917 0.88986 0.63542 0.0
O111 O 0.72716 0.88758 0.61488 0.0
Co112 Co 0.39189 0.10825 0.24742 0.0
O113 O 0.36603 0.10806 0.25256 0.0
O114 O 0.38781 0.10537 0.27373 0.0
C115 C 0.39171 0.13283 0.2283 0.0
O116 O 0.41992 0.10876 0.24729 0.0
Co117 Co 0.40586 0.10157 0.20729 0.0
O118 O 0.4298 0.10949 0.2178 0.0
C119 C 0.39258 0.06995 0.22954 0.0
C120 C 0.37041 0.10631 0.26987 0.0
C121 C 0.43282 0.1103 0.23517 0.0
O122 O 0.39137 0.08047 0.2439 0.0
O123 O 0.39665 0.07609 0.21343 0.0
O124 O 0.39194 0.13529 0.24612 0.0
O125 O 0.3898 0.1159 0.22282 0.0
Co126 Co 0.89188 0.39318 0.25049 0.0
O127 O 0.86624 0.39213 0.24416 0.0
O128 O 0.88887 0.39416 0.22384 0.0
C129 C 0.89121 0.37007 0.27142 0.0
O130 O 0.91983 0.39365 0.25167 0.0
Co131 Co 0.90461 0.40342 0.29022 0.0
O132 O 0.92851 0.39368 0.28154 0.0
C133 C 0.89187 0.4328 0.26534 0.0
C134 C 0.87132 0.39307 0.22696 0.0
C135 C 0.93215 0.39219 0.26435 0.0
O136 O 0.89112 0.42103 0.25194 0.0
O137 O 0.89555 0.42827 0.28205 0.0
O138 O 0.8922 0.36638 0.25382 0.0
O139 O 0.88887 0.38727 0.27559 0.0
Co140 Co 0.60868 0.89585 0.24902 0.0
O141 O 0.63407 0.89507 0.25557 0.0
O142 O 0.61136 0.89667 0.27581 0.0
C143 C 0.6096 0.87267 0.22822 0.0
O144 O 0.58072 0.89595 0.24667 0.0
Co145 Co 0.59904 0.90679 0.2088 0.0
O146 O 0.57457 0.89706 0.21616 0.0
C147 C 0.61014 0.93585 0.23504 0.0
C148 C 0.62894 0.89568 0.2727 0.0
C149 C 0.56945 0.8949 0.23291 0.0
O150 O 0.60989 0.92372 0.24803 0.0
O151 O 0.60763 0.93171 0.21798 0.0
O152 O 0.60796 0.8691 0.24575 0.0
O153 O 0.61264 0.88983 0.22411 0.0
Co154 Co 0.11072 0.60678 0.25187 0.0
O155 O 0.13641 0.60771 0.24566 0.0
O156 O 0.11384 0.60561 0.22525 0.0
C157 C 0.11149 0.63007 0.27283 0.0
O158 O 0.08274 0.6064 0.25268 0.0
Co159 Co 0.09718 0.59721 0.29136 0.0
O160 O 0.0736 0.60729 0.28236 0.0
C161 C 0.10936 0.56716 0.26663 0.0
C162 C 0.13137 0.6067 0.22843 0.0
C163 C 0.07022 0.60832 0.26508 0.0
O164 O 0.11139 0.57889 0.25339 0.0
O165 O 0.10481 0.57186 0.2831 0.0
O166 O 0.11052 0.63362 0.25522 0.0
O167 O 0.11357 0.61287 0.27705 0.0
Co168 Co 0.39359 0.8939 0.7528 0.0
O169 O 0.36794 0.89532 0.74651 0.0
O170 O 0.3907 0.89653 0.72629 0.0
C171 C 0.39096 0.86959 0.77228 0.0
O172 O 0.4215 0.89219 0.75367 0.0
Co173 Co 0.40781 0.89938 0.79306 0.0
O174 O 0.43072 0.88867 0.78312 0.0
C175 C 0.39697 0.93191 0.77081 0.0
C176 C 0.37314 0.89664 0.72937 0.0
C177 C 0.43393 0.88865 0.76579 0.0
O178 O 0.39481 0.9217 0.75628 0.0
O179 O 0.40082 0.92535 0.78678 0.0
O180 O 0.39182 0.86687 0.75451 0.0
O181 O 0.3902 0.88664 0.77746 0.0
Co182 Co 0.10945 0.39608 0.74734 0.0
O183 O 0.13536 0.3965 0.7522 0.0
O184 O 0.11382 0.39806 0.77372 0.0
C185 C 0.10986 0.37216 0.72728 0.0
O186 O 0.08137 0.39512 0.74743 0.0
Co187 Co 0.09503 0.40465 0.7081 0.0
O188 O 0.07262 0.39214 0.71769 0.0
C189 C 0.10716 0.4355 0.732 0.0
C190 C 0.13119 0.3976 0.76961 0.0
C191 C 0.0692 0.39144 0.73497 0.0
O192 O 0.10959 0.42389 0.7452 0.0
O193 O 0.10223 0.43058 0.71567 0.0
O194 O 0.10976 0.36924 0.74501 0.0
O195 O 0.1115 0.3893 0.72231 0.0
Co196 Co 0.60998 0.10626 0.75234 0.0
O197 O 0.63542 0.10519 0.74543 0.0
O198 O 0.61231 0.10529 0.72557 0.0
C199 C 0.61284 0.12935 0.77334 0.0
O200 O 0.58202 0.10796 0.75446 0.0
Co201 Co 0.59846 0.09654 0.79262 0.0
O202 O 0.57503 0.10768 0.78479 0.0
C203 C 0.60776 0.06649 0.76685 0.0
C204 C 0.62994 0.10483 0.72833 0.0
C205 C 0.57052 0.10984 0.76788 0.0
O206 O 0.60885 0.07832 0.75358 0.0
O207 O 0.60494 0.07111 0.78372 0.0
O208 O 0.61187 0.13304 0.75578 0.0
O209 O 0.6141 0.11201 0.77738 0.0
Co210 Co 0.89201 0.6093 0.74937 0.0
O211 O 0.86639 0.60894 0.75549 0.0
O212 O 0.88905 0.60727 0.77588 0.0
C213 C 0.89103 0.63333 0.72969 0.0
O214 O 0.91994 0.60988 0.74802 0.0
Co215 Co 0.90401 0.60123 0.70888 0.0
O216 O 0.92867 0.60856 0.71816 0.0
C217 C 0.89014 0.57095 0.73232 0.0
C218 C 0.8715 0.60771 0.77263 0.0
C219 C 0.93237 0.61037 0.73534 0.0
O220 O 0.89143 0.58149 0.74665 0.0
O221 O 0.89266 0.57676 0.71578 0.0
O222 O 0.8919 0.63626 0.74742 0.0
O223 O 0.88888 0.61627 0.72471 0.0
Co224 Co 0.2502 0.39027 0.10711 0.0
O225 O 0.25785 0.36491 0.10642 0.0
O226 O 0.27663 0.38922 0.10549 0.0
C227 C 0.22996 0.3873 0.13055 0.0
O228 O 0.24763 0.41826 0.10817 0.0
Co229 Co 0.20982 0.40123 0.099 0.0
O230 O 0.21783 0.4259 0.10836 0.0
C231 C 0.23374 0.38842 0.06877 0.0
C232 C 0.27455 0.37134 0.10546 0.0
C233 C 0.23478 0.4302 0.10983 0.0
O234 O 0.24795 0.39025 0.07924 0.0
O235 O 0.2173 0.39031 0.07463 0.0
O236 O 0.24737 0.38915 0.13409 0.0
O237 O 0.22573 0.38557 0.1133 0.0
Co238 Co 0.25266 0.60705 0.89407 0.0
O239 O 0.24522 0.60647 0.86856 0.0
O240 O 0.22609 0.60653 0.89235 0.0
C241 C 0.2739 0.62978 0.89105 0.0
O242 O 0.25552 0.60818 0.92223 0.0
Co243 Co 0.29263 0.59702 0.90454 0.0
O244 O 0.28579 0.6088 0.9284 0.0
C245 C 0.26649 0.56743 0.8939 0.0
C246 C 0.22844 0.60626 0.87448 0.0
C247 C 0.26913 0.61055 0.93342 0.0
O248 O 0.25335 0.57916 0.89429 0.0
O249 O 0.28336 0.57206 0.89613 0.0
O250 O 0.25669 0.63382 0.89301 0.0
O251 O 0.27737 0.6124 0.88924 0.0
Co252 Co 0.39247 0.25239 0.89366 0.0
O253 O 0.36703 0.25887 0.89453 0.0
O254 O 0.3901 0.27899 0.89647 0.0
C255 C 0.39002 0.23306 0.86915 0.0
O256 O 0.42044 0.25069 0.89269 0.0
Co257 Co 0.40398 0.21152 0.8998 0.0
O258 O 0.42846 0.22073 0.89197 0.0
C259 C 0.3926 0.23438 0.93168 0.0
C260 C 0.37247 0.27593 0.89628 0.0
C261 C 0.43254 0.23791 0.89115 0.0
O262 O 0.39248 0.24895 0.92145 0.0
O263 O 0.39532 0.21812 0.92525 0.0
O264 O 0.39167 0.25078 0.86656 0.0
O265 O 0.38835 0.22794 0.88614 0.0
Co266 Co 0.7517 0.3959 0.89177 0.0
O267 O 0.76017 0.39672 0.86665 0.0
O268 O 0.77841 0.39704 0.89114 0.0
C269 C 0.73098 0.37276 0.88782 0.0
O270 O 0.7475 0.39462 0.91976 0.0
Co271 Co 0.71101 0.40563 0.89969 0.0
O272 O 0.71702 0.39575 0.92452 0.0
C273 C 0.73729 0.43539 0.8907 0.0
C274 C 0.77672 0.39743 0.87319 0.0
C275 C 0.73333 0.39344 0.93042 0.0
O276 O 0.75051 0.42382 0.89213 0.0
O277 O 0.72037 0.43054 0.8916 0.0
O278 O 0.74818 0.36903 0.8904 0.0
O279 O 0.72736 0.39006 0.88576 0.0
Co280 Co 0.61287 0.75285 0.89537 0.0
O281 O 0.6384 0.74664 0.89417 0.0
O282 O 0.61565 0.72628 0.89708 0.0
C283 C 0.61335 0.77314 0.87171 0.0
O284 O 0.58492 0.75398 0.89612 0.0
Co285 Co 0.60084 0.79304 0.90424 0.0
O286 O 0.57618 0.7837 0.89695 0.0
C287 C 0.61494 0.76931 0.93411 0.0
C288 C 0.6332 0.72947 0.89568 0.0
C289 C 0.57247 0.76647 0.89554 0.0
O290 O 0.61456 0.75521 0.92319 0.0
O291 O 0.61148 0.78576 0.92871 0.0
O292 O 0.61193 0.75548 0.86843 0.0
O293 O 0.61604 0.77769 0.88877 0.0
Co294 Co 0.74993 0.60833 0.11082 0.0
O295 O 0.74281 0.63385 0.11118 0.0
O296 O 0.72347 0.61003 0.10948 0.0
C297 C 0.77048 0.61033 0.13416 0.0
O298 O 0.75208 0.58023 0.11071 0.0
Co299 Co 0.79015 0.59719 0.10192 0.0
O300 O 0.78183 0.57232 0.11021 0.0
C301 C 0.76606 0.61137 0.07251 0.0
C302 C 0.72597 0.62788 0.11009 0.0
C303 C 0.76486 0.56811 0.11164 0.0
O304 O 0.75192 0.6092 0.08297 0.0
O305 O 0.78254 0.60921 0.07818 0.0
O306 O 0.75309 0.60858 0.13783 0.0
O307 O 0.77451 0.61246 0.11694 0.0
Co308 Co 0.39439 0.75197 0.10696 0.0
O309 O 0.36902 0.74461 0.10621 0.0
O310 O 0.3923 0.72522 0.10556 0.0
C311 C 0.39178 0.77229 0.13057 0.0
O312 O 0.42229 0.75468 0.10808 0.0
Co313 Co 0.40521 0.79251 0.09804 0.0
O314 O 0.42889 0.78514 0.10927 0.0
C315 C 0.39509 0.7673 0.06752 0.0
C316 C 0.37464 0.72768 0.10549 0.0
C317 C 0.43362 0.76827 0.11058 0.0
O318 O 0.39469 0.75377 0.07907 0.0
O319 O 0.39766 0.78416 0.0725 0.0
O320 O 0.39346 0.75473 0.13384 0.0
O321 O 0.38994 0.7767 0.11334 0.0
Co322 Co 0.61026 0.24406 0.10536 0.0
O323 O 0.63573 0.25118 0.10611 0.0
O324 O 0.61274 0.27081 0.10445 0.0
C325 C 0.61114 0.22348 0.12877 0.0
O326 O 0.58225 0.24166 0.105 0.0
Co327 Co 0.59973 0.20379 0.09483 0.0
O328 O 0.57517 0.21133 0.10351 0.0
C329 C 0.61087 0.22952 0.0654 0.0
C330 C 0.63035 0.26818 0.10522 0.0
C331 C 0.57052 0.22817 0.10552 0.0
O332 O 0.61144 0.24266 0.07745 0.0
O333 O 0.60755 0.21263 0.06966 0.0
O334 O 0.6097 0.24106 0.13214 0.0
O335 O 0.61404 0.21913 0.11164 0.0
Co336 Co 0.89397 0.75212 0.60811 0.0
O337 O 0.86888 0.75955 0.60828 0.0
O338 O 0.89243 0.7789 0.60546 0.0
C339 C 0.89125 0.73291 0.63253 0.0
O340 O 0.92191 0.74894 0.60838 0.0
Co341 Co 0.90272 0.7105 0.60134 0.0
O342 O 0.92711 0.7184 0.6107 0.0
C343 C 0.89184 0.7341 0.56997 0.0
C344 C 0.87473 0.77643 0.6066 0.0
C345 C 0.93272 0.73518 0.61106 0.0
O346 O 0.89288 0.74866 0.58029 0.0
O347 O 0.89382 0.71769 0.57622 0.0
O348 O 0.89393 0.75052 0.63525 0.0
O349 O 0.88883 0.72798 0.61556 0.0
Co350 Co 0.25116 0.89283 0.61007 0.0
O351 O 0.25793 0.89301 0.63581 0.0
O352 O 0.27768 0.89387 0.61259 0.0
C353 C 0.22999 0.8698 0.61203 0.0
O354 O 0.24909 0.89203 0.58183 0.0
Co355 Co 0.21136 0.90288 0.59868 0.0
O356 O 0.21896 0.89142 0.57492 0.0
C357 C 0.2372 0.93255 0.60966 0.0
C358 C 0.27487 0.89364 0.63038 0.0
C359 C 0.23574 0.88978 0.57029 0.0
O360 O 0.25027 0.92074 0.60999 0.0
O361 O 0.22039 0.92798 0.60693 0.0
O362 O 0.24732 0.86597 0.61084 0.0
O363 O 0.22632 0.88712 0.61391 0.0
Co364 Co 0.10958 0.24818 0.60957 0.0
O365 O 0.13486 0.24118 0.60951 0.0
O366 O 0.11149 0.22139 0.608 0.0
C367 C 0.11208 0.26871 0.63313 0.0
O368 O 0.08164 0.25062 0.6099 0.0
Co369 Co 0.09946 0.28912 0.60121 0.0
O370 O 0.07547 0.28105 0.6116 0.0
C371 C 0.11253 0.26469 0.5713 0.0
C372 C 0.12917 0.22416 0.60833 0.0
C373 C 0.07049 0.26409 0.61248 0.0
O374 O 0.11027 0.25039 0.58168 0.0
O375 O 0.1107 0.28132 0.57712 0.0
O376 O 0.10994 0.25118 0.63663 0.0
O377 O 0.11415 0.2728 0.61593 0.0
Co378 Co 0.75299 0.10785 0.61043 0.0
O379 O 0.74565 0.10876 0.63598 0.0
O380 O 0.7264 0.10688 0.61235 0.0
C381 C 0.77414 0.13088 0.61214 0.0
O382 O 0.75556 0.10753 0.58223 0.0
Co383 Co 0.79301 0.09775 0.59996 0.0
O384 O 0.78577 0.1088 0.57592 0.0
C385 C 0.76728 0.06839 0.61192 0.0
C386 C 0.72882 0.10787 0.63018 0.0
C387 C 0.76905 0.10997 0.57094 0.0
O388 O 0.75402 0.07998 0.61148 0.0
O389 O 0.78406 0.07307 0.60919 0.0
O390 O 0.75686 0.13471 0.6102 0.0
O391 O 0.77771 0.11366 0.61473 0.0
Co392 Co 0.89898 0.24704 0.38962 0.0
O393 O 0.89878 0.2528 0.36363 0.0
O394 O 0.90042 0.27358 0.38617 0.0
C395 C 0.87573 0.22626 0.3886 0.0
O396 O 0.89856 0.24653 0.41788 0.0
Co397 Co 0.90768 0.20774 0.40369 0.0
O398 O 0.89691 0.21692 0.42716 0.0
C399 C 0.93802 0.23224 0.39158 0.0
C400 C 0.89968 0.27009 0.3685 0.0
C401 C 0.89599 0.23421 0.4305 0.0
O402 O 0.92658 0.24548 0.38932 0.0
O403 O 0.9331 0.21584 0.39626 0.0
O404 O 0.87238 0.24386 0.38947 0.0
O405 O 0.89277 0.22192 0.3868 0.0
Co406 Co 0.74857 0.88988 0.39325 0.0
O407 O 0.75534 0.86427 0.39319 0.0
O408 O 0.77502 0.88784 0.39415 0.0
C409 C 0.72769 0.88784 0.37028 0.0
O410 O 0.74679 0.91799 0.3929 0.0
Co411 Co 0.70869 0.90166 0.40257 0.0
O412 O 0.71713 0.92619 0.39334 0.0
C413 C 0.73326 0.8883 0.43204 0.0
C414 C 0.77226 0.87002 0.39391 0.0
C415 C 0.73413 0.93019 0.39167 0.0
O416 O 0.74713 0.88954 0.42111 0.0
O417 O 0.7167 0.89074 0.42675 0.0
O418 O 0.74505 0.88944 0.36638 0.0
O419 O 0.72383 0.88585 0.38756 0.0
Co420 Co 0.10539 0.75462 0.39078 0.0
O421 O 0.10634 0.74835 0.36487 0.0
O422 O 0.1039 0.72799 0.38756 0.0
C423 C 0.12879 0.77532 0.39026 0.0
O424 O 0.1049 0.75577 0.41906 0.0
Co425 Co 0.09624 0.79441 0.4035 0.0
O426 O 0.10375 0.78546 0.42825 0.0
C427 C 0.06634 0.76964 0.39083 0.0
C428 C 0.10513 0.73116 0.36987 0.0
C429 C 0.10533 0.7683 0.43181 0.0
O430 O 0.07778 0.75627 0.38953 0.0
O431 O 0.0712 0.78623 0.395 0.0
O432 O 0.13203 0.75773 0.3915 0.0
O433 O 0.11184 0.77965 0.38776 0.0
Co434 Co 0.25445 0.11193 0.39386 0.0
O435 O 0.24792 0.13763 0.39491 0.0
O436 O 0.22809 0.11423 0.3962 0.0
C437 C 0.27402 0.1144 0.36977 0.0
O438 O 0.25591 0.08376 0.39254 0.0
Co439 Co 0.2946 0.09936 0.40031 0.0
O440 O 0.28543 0.07548 0.39007 0.0
C441 C 0.27175 0.11085 0.43213 0.0
C442 C 0.23099 0.13203 0.39624 0.0
C443 C 0.26835 0.07157 0.38963 0.0
O444 O 0.25746 0.11165 0.42167 0.0
O445 O 0.28784 0.10759 0.42591 0.0
O446 O 0.25646 0.11298 0.36684 0.0
O447 O 0.27888 0.1159 0.38688 0.0
Co448 Co 0.60718 0.89002 0.7477 0.0
O449 O 0.60806 0.86431 0.75406 0.0
O450 O 0.60562 0.8872 0.77433 0.0
C451 C 0.63066 0.88947 0.72752 0.0
O452 O 0.60672 0.9182 0.74611 0.0
Co453 Co 0.59755 0.90128 0.70767 0.0
O454 O 0.60478 0.92646 0.7162 0.0
C455 C 0.56805 0.88855 0.73233 0.0
C456 C 0.60681 0.8695 0.7712 0.0
C457 C 0.60677 0.93054 0.73327 0.0
O458 O 0.57961 0.88849 0.74578 0.0
O459 O 0.57271 0.89181 0.71556 0.0
O460 O 0.63376 0.89103 0.74517 0.0
O461 O 0.61374 0.88656 0.72283 0.0
Co462 Co 0.10587 0.61142 0.75648 0.0
O463 O 0.10566 0.63737 0.7502 0.0
O464 O 0.1055 0.61437 0.72989 0.0
C465 C 0.12832 0.6131 0.77797 0.0
O466 O 0.10668 0.58319 0.75729 0.0
Co467 Co 0.09558 0.59762 0.79579 0.0
O468 O 0.10425 0.57336 0.78667 0.0
C469 C 0.06636 0.6095 0.77042 0.0
C470 C 0.10551 0.6321 0.73299 0.0
C471 C 0.10686 0.57023 0.7695 0.0
O472 O 0.0782 0.611 0.75728 0.0
O473 O 0.07073 0.60556 0.78711 0.0
O474 O 0.13233 0.61251 0.76046 0.0
O475 O 0.11109 0.61447 0.78181 0.0
Co476 Co 0.39459 0.10897 0.7519 0.0
O477 O 0.36873 0.10784 0.7469 0.0
O478 O 0.39038 0.10584 0.72556 0.0
C479 C 0.39342 0.1336 0.77114 0.0
O480 O 0.42265 0.11043 0.7521 0.0
Co481 Co 0.40865 0.10302 0.79213 0.0
O482 O 0.43132 0.11441 0.7818 0.0
C483 C 0.39532 0.07112 0.77008 0.0
C484 C 0.37298 0.10615 0.72957 0.0
C485 C 0.4348 0.11443 0.76451 0.0
O486 O 0.39493 0.08124 0.75545 0.0
O487 O 0.39884 0.07759 0.78624 0.0
O488 O 0.39366 0.13606 0.75333 0.0
O489 O 0.39221 0.11662 0.77646 0.0
Co490 Co 0.89395 0.39433 0.75 0.0
O491 O 0.86886 0.39411 0.75797 0.0
O492 O 0.89263 0.39694 0.77682 0.0
C493 C 0.89092 0.36994 0.73052 0.0
O494 O 0.92186 0.39414 0.74664 0.0
Co495 Co 0.90337 0.40077 0.70837 0.0
O496 O 0.92765 0.39163 0.71615 0.0
C497 C 0.89282 0.43238 0.73207 0.0
C498 C 0.87491 0.39579 0.77477 0.0
C499 C 0.93293 0.39147 0.73299 0.0
O500 O 0.89324 0.42217 0.74668 0.0
O501 O 0.89502 0.42598 0.71568 0.0
O502 O 0.89357 0.36718 0.74809 0.0
O503 O 0.88878 0.38692 0.72578 0.0
Co504 Co 0.60542 0.11131 0.25786 0.0
O505 O 0.60642 0.1371 0.25101 0.0
O506 O 0.60437 0.11369 0.23125 0.0
C507 C 0.62838 0.1124 0.27879 0.0
O508 O 0.60506 0.08315 0.25911 0.0
Co509 Co 0.59577 0.09812 0.2974 0.0
O510 O 0.60582 0.07417 0.2888 0.0
C511 C 0.56615 0.11031 0.27257 0.0
C512 C 0.60546 0.13146 0.23393 0.0
C513 C 0.60696 0.07063 0.27156 0.0
O514 O 0.57784 0.11213 0.25933 0.0
O515 O 0.57067 0.1058 0.28907 0.0
O516 O 0.63196 0.11112 0.26121 0.0
O517 O 0.61133 0.11463 0.28301 0.0
Co518 Co 0.89655 0.60926 0.24821 0.0
O519 O 0.8975 0.63515 0.25424 0.0
O520 O 0.89817 0.61243 0.27476 0.0
C521 C 0.87306 0.61077 0.22807 0.0
O522 O 0.89524 0.5811 0.2471 0.0
Co523 Co 0.90504 0.59616 0.20842 0.0
O524 O 0.89451 0.57228 0.21724 0.0
C525 C 0.9355 0.60778 0.23272 0.0
C526 C 0.8983 0.63012 0.27144 0.0
C527 C 0.8931 0.56867 0.23445 0.0
O528 O 0.92409 0.60895 0.24623 0.0
O529 O 0.9305 0.60427 0.21606 0.0
O530 O 0.86999 0.60993 0.24575 0.0
O531 O 0.89009 0.61252 0.22326 0.0
Co532 Co 0.39354 0.89334 0.25176 0.0
O533 O 0.36814 0.89419 0.25875 0.0
O534 O 0.39138 0.89547 0.27846 0.0
C535 C 0.39072 0.86941 0.23162 0.0
O536 O 0.42149 0.89222 0.24965 0.0
Co537 Co 0.40515 0.90064 0.21085 0.0
O538 O 0.42853 0.88977 0.21939 0.0
C539 C 0.39253 0.93136 0.23443 0.0
C540 C 0.37373 0.89547 0.27577 0.0
C541 C 0.43294 0.8891 0.23645 0.0
O542 O 0.39396 0.9212 0.24897 0.0
O543 O 0.39467 0.92516 0.21795 0.0
O544 O 0.39207 0.86624 0.24928 0.0
O545 O 0.38942 0.88657 0.22714 0.0
Co546 Co 0.10612 0.39075 0.24693 0.0
O547 O 0.10652 0.36494 0.25306 0.0
O548 O 0.10496 0.3877 0.27356 0.0
C549 C 0.12927 0.38985 0.22635 0.0
O550 O 0.10634 0.41895 0.24563 0.0
Co551 Co 0.09622 0.40268 0.20716 0.0
O552 O 0.1044 0.42754 0.21581 0.0
C553 C 0.06679 0.39033 0.23213 0.0
C554 C 0.10574 0.37 0.27027 0.0
C555 C 0.10667 0.43141 0.2329 0.0
O556 O 0.07849 0.38992 0.24545 0.0
O557 O 0.07133 0.39359 0.21533 0.0
O558 O 0.13267 0.39115 0.24396 0.0
O559 O 0.11222 0.38738 0.22191 0.0
Co560 Co 0.75488 0.61204 0.89587 0.0
O561 O 0.74851 0.63776 0.89723 0.0
O562 O 0.72853 0.61444 0.89758 0.0
C563 C 0.77507 0.61472 0.87237 0.0
O564 O 0.75617 0.58387 0.89407 0.0
Co565 Co 0.79478 0.59902 0.9033 0.0
O566 O 0.7857 0.57534 0.89262 0.0
C567 C 0.77119 0.61047 0.9345 0.0
C568 C 0.73152 0.63222 0.89797 0.0
C569 C 0.76861 0.5716 0.89153 0.0
O570 O 0.75717 0.6112 0.92371 0.0
O571 O 0.78745 0.60734 0.92869 0.0
O572 O 0.75758 0.61373 0.86895 0.0
O573 O 0.77952 0.6158 0.88962 0.0
Co574 Co 0.74869 0.39203 0.10838 0.0
O575 O 0.75554 0.39334 0.13409 0.0
O576 O 0.7752 0.39291 0.11078 0.0
C577 C 0.7275 0.36915 0.11127 0.0
O578 O 0.74666 0.39019 0.08018 0.0
Co579 Co 0.70892 0.40153 0.0964 0.0
O580 O 0.71662 0.38955 0.07292 0.0
C581 C 0.73453 0.43151 0.10723 0.0
C582 C 0.77247 0.39359 0.12857 0.0
C583 C 0.73344 0.38773 0.06854 0.0
O584 O 0.74778 0.4199 0.10736 0.0
O585 O 0.71775 0.42669 0.10471 0.0
O586 O 0.74482 0.36527 0.1102 0.0
O587 O 0.72383 0.38654 0.11244 0.0
Co588 Co 0.60919 0.74963 0.10974 0.0
O589 O 0.63393 0.74151 0.11243 0.0
O590 O 0.61001 0.72273 0.10861 0.0
C591 C 0.61015 0.77039 0.13311 0.0
O592 O 0.58151 0.75361 0.10747 0.0
Co593 Co 0.60299 0.79093 0.09908 0.0
O594 O 0.57723 0.78435 0.10518 0.0
C595 C 0.61686 0.76483 0.07141 0.0
C596 C 0.62763 0.72473 0.11101 0.0
C597 C 0.57102 0.76787 0.10699 0.0
O598 O 0.61248 0.75117 0.08197 0.0
O599 O 0.61608 0.78175 0.07657 0.0
O600 O 0.60723 0.75298 0.13666 0.0
O601 O 0.61422 0.77411 0.11618 0.0
Co602 Co 0.25495 0.60587 0.11108 0.0
O603 O 0.24734 0.6055 0.13652 0.0
O604 O 0.2283 0.60562 0.11267 0.0
C605 C 0.2765 0.62837 0.11396 0.0
O606 O 0.25827 0.60679 0.08291 0.0
Co607 Co 0.29506 0.59448 0.10204 0.0
O608 O 0.28848 0.60398 0.07722 0.0
C609 C 0.26795 0.56592 0.11213 0.0
C610 C 0.23057 0.60534 0.13055 0.0
C611 C 0.27213 0.607 0.07179 0.0
O612 O 0.25516 0.57795 0.1108 0.0
O613 O 0.28502 0.57009 0.11088 0.0
O614 O 0.25931 0.6326 0.11226 0.0
O615 O 0.27969 0.61098 0.11601 0.0
Co616 Co 0.39521 0.25358 0.10854 0.0
O617 O 0.3701 0.26078 0.10953 0.0
O618 O 0.39346 0.28037 0.10647 0.0
C619 C 0.39324 0.23382 0.13259 0.0
O620 O 0.4231 0.2506 0.10794 0.0
Co621 Co 0.40402 0.21225 0.10043 0.0
O622 O 0.42831 0.22003 0.11038 0.0
C623 C 0.39133 0.23641 0.07031 0.0
C624 C 0.37581 0.27773 0.10799 0.0
C625 C 0.43385 0.23684 0.11074 0.0
O626 O 0.39351 0.25076 0.08073 0.0
O627 O 0.39315 0.21981 0.07612 0.0
O628 O 0.39586 0.25139 0.13563 0.0
O629 O 0.39045 0.22925 0.11557 0.0
Co630 Co 0.24864 0.39101 0.89217 0.0
O631 O 0.25568 0.36544 0.89185 0.0
O632 O 0.275 0.38914 0.89479 0.0
C633 C 0.22917 0.38909 0.86791 0.0
O634 O 0.24676 0.41913 0.89224 0.0
Co635 Co 0.20828 0.40288 0.89876 0.0
O636 O 0.21721 0.42725 0.8897 0.0
C637 C 0.23112 0.39071 0.93032 0.0
C638 C 0.27248 0.37132 0.89371 0.0
C639 C 0.23427 0.43132 0.88973 0.0
O640 O 0.24545 0.39014 0.91993 0.0
O641 O 0.21505 0.39412 0.92412 0.0
O642 O 0.2467 0.39104 0.86509 0.0
O643 O 0.22432 0.38693 0.88491 0.0
Co644 Co 0.60684 0.25477 0.89007 0.0
O645 O 0.60596 0.24835 0.86414 0.0
O646 O 0.60549 0.22819 0.88714 0.0
C647 C 0.63011 0.27554 0.88816 0.0
O648 O 0.60826 0.25582 0.91831 0.0
Co649 Co 0.59834 0.29441 0.90379 0.0
O650 O 0.60712 0.28533 0.92805 0.0
C651 C 0.56788 0.26979 0.89221 0.0
C652 C 0.60542 0.23119 0.86941 0.0
C653 C 0.60919 0.26815 0.93121 0.0
O654 O 0.57919 0.25633 0.8906 0.0
O655 O 0.57297 0.28636 0.89614 0.0
O656 O 0.63341 0.25794 0.88885 0.0
O657 O 0.61301 0.27989 0.88688 0.0
Co658 Co 0.39901 0.74648 0.89039 0.0
O659 O 0.39924 0.75158 0.86422 0.0
O660 O 0.40081 0.77288 0.88627 0.0
C661 C 0.37549 0.72598 0.88965 0.0
O662 O 0.39824 0.74664 0.9187 0.0
Co663 Co 0.40733 0.70737 0.90538 0.0
O664 O 0.39658 0.71721 0.92857 0.0
C665 C 0.43795 0.73142 0.89319 0.0
C666 C 0.40023 0.76897 0.86868 0.0
C667 C 0.39568 0.73456 0.93156 0.0
O668 O 0.42659 0.74465 0.89056 0.0
O669 O 0.4329 0.71512 0.89809 0.0
O670 O 0.37239 0.74364 0.88979 0.0
O671 O 0.39251 0.72136 0.88825 0.0
H672 H 0.11426 0.33368 0.26701 0.0
H673 H 0.09816 0.37477 0.30715 0.0
H674 H 0.11577 0.31057 0.29122 0.0
H675 H 0.09885 0.35135 0.33145 0.0
H676 H 0.12177 0.31025 0.37315 0.0
H677 H 0.11924 0.33358 0.34914 0.0
H678 H 0.09829 0.29195 0.31124 0.0
H679 H 0.10167 0.26846 0.33514 0.0
C680 C 0.11083 0.33773 0.28103 0.0
C681 C 0.10612 0.35606 0.28519 0.0
C682 C 0.11156 0.3244 0.29492 0.0
C683 C 0.10736 0.32898 0.31335 0.0
C684 C 0.10245 0.34734 0.31748 0.0
C685 C 0.10194 0.36077 0.30356 0.0
C686 C 0.11664 0.30609 0.35967 0.0
C687 C 0.11203 0.28751 0.35597 0.0
C688 C 0.11503 0.31951 0.34592 0.0
C689 C 0.10854 0.31473 0.32818 0.0
C690 C 0.10366 0.29613 0.32461 0.0
C691 C 0.1055 0.28265 0.33832 0.0
H692 H 0.73157 0.11515 0.33754 0.0
H693 H 0.69336 0.09845 0.38012 0.0
H694 H 0.70682 0.11633 0.31523 0.0
H695 H 0.66839 0.09883 0.35744 0.0
H696 H 0.62576 0.12022 0.31569 0.0
H697 H 0.64981 0.11836 0.33909 0.0
H698 H 0.68711 0.09749 0.29771 0.0
H699 H 0.66331 0.10019 0.27427 0.0
C700 C 0.71785 0.11154 0.34211 0.0
C701 C 0.71443 0.10665 0.3606 0.0
C702 C 0.70361 0.11207 0.32923 0.0
C703 C 0.68554 0.10746 0.33439 0.0
C704 C 0.68208 0.10264 0.35297 0.0
C705 C 0.69639 0.10233 0.36597 0.0
C706 C 0.63913 0.11524 0.31164 0.0
C707 C 0.64273 0.11054 0.29312 0.0
C708 C 0.65289 0.11404 0.32509 0.0
C709 C 0.67052 0.1079 0.32035 0.0
C710 C 0.67387 0.10271 0.30185 0.0
C711 C 0.66019 0.10415 0.28839 0.0
H712 H 0.88737 0.73272 0.33241 0.0
H713 H 0.89911 0.69286 0.37502 0.0
H714 H 0.8897 0.70856 0.30899 0.0
H715 H 0.9026 0.6689 0.35166 0.0
H716 H 0.88797 0.62591 0.30752 0.0
H717 H 0.88649 0.64985 0.33131 0.0
H718 H 0.90943 0.68959 0.2928 0.0
H719 H 0.9098 0.66588 0.26887 0.0
C720 C 0.89071 0.71882 0.33672 0.0
C721 C 0.893 0.71466 0.35552 0.0
C722 C 0.89219 0.70495 0.3233 0.0
C723 C 0.89637 0.68666 0.32834 0.0
C724 C 0.89899 0.68266 0.3472 0.0
C725 C 0.89714 0.69646 0.36063 0.0
C726 C 0.89276 0.63976 0.30425 0.0
C727 C 0.89888 0.64408 0.28636 0.0
C728 C 0.89202 0.65351 0.31789 0.0
C729 C 0.89774 0.6718 0.31403 0.0
C730 C 0.90445 0.67585 0.29623 0.0
C731 C 0.90483 0.66221 0.28252 0.0
H732 H 0.33795 0.90481 0.27335 0.0
H733 H 0.37933 0.88912 0.31286 0.0
H734 H 0.3152 0.90552 0.29778 0.0
H735 H 0.35621 0.88901 0.33748 0.0
H736 H 0.27397 0.88411 0.33805 0.0
H737 H 0.29855 0.88418 0.31556 0.0
H738 H 0.33577 0.9068 0.35665 0.0
H739 H 0.31098 0.90595 0.3796 0.0
C740 C 0.34216 0.9014 0.28729 0.0
C741 C 0.36039 0.89673 0.29114 0.0
C742 C 0.32907 0.90168 0.30134 0.0
C743 C 0.33371 0.89695 0.31962 0.0
C744 C 0.35212 0.89279 0.3236 0.0
C745 C 0.36536 0.89277 0.3095 0.0
C746 C 0.28739 0.88907 0.34235 0.0
C747 C 0.29048 0.89518 0.36057 0.0
C748 C 0.30152 0.88925 0.32938 0.0
C749 C 0.31914 0.89585 0.3341 0.0
C750 C 0.3224 0.90157 0.3525 0.0
C751 C 0.30821 0.90116 0.36565 0.0
H752 H 0.0966 0.66857 0.73471 0.0
H753 H 0.11446 0.62629 0.69672 0.0
H754 H 0.09692 0.6911 0.70976 0.0
H755 H 0.11582 0.64899 0.67187 0.0
H756 H 0.10191 0.69026 0.62682 0.0
H757 H 0.09946 0.66731 0.6514 0.0
H758 H 0.11619 0.70886 0.69143 0.0
H759 H 0.11758 0.73185 0.66699 0.0
C760 C 0.10075 0.66414 0.72102 0.0
C761 C 0.10554 0.64568 0.71769 0.0
C762 C 0.10108 0.6771 0.70668 0.0
C763 C 0.10655 0.67203 0.68868 0.0
C764 C 0.11125 0.65345 0.6854 0.0
C765 C 0.1106 0.64042 0.69969 0.0
C766 C 0.10499 0.69444 0.6409 0.0
C767 C 0.10988 0.71286 0.64499 0.0
C768 C 0.10371 0.68125 0.65503 0.0
C769 C 0.10761 0.6861 0.67355 0.0
C770 C 0.11267 0.70457 0.67749 0.0
C771 C 0.11362 0.71779 0.66343 0.0
H772 H 0.30941 0.1196 0.62922 0.0
H773 H 0.26993 0.09729 0.66793 0.0
H774 H 0.33336 0.11754 0.65248 0.0
H775 H 0.29412 0.09444 0.69114 0.0
H776 H 0.33662 0.1125 0.73423 0.0
H777 H 0.31268 0.11266 0.7109 0.0
H778 H 0.35226 0.09732 0.66922 0.0
H779 H 0.37646 0.09795 0.69263 0.0
C780 C 0.30589 0.11408 0.64269 0.0
C781 C 0.28777 0.1087 0.6468 0.0
C782 C 0.31969 0.11273 0.65601 0.0
C783 C 0.31577 0.10577 0.67374 0.0
C784 C 0.29762 0.10015 0.67775 0.0
C785 C 0.28375 0.1017 0.66444 0.0
C786 C 0.34023 0.10909 0.7201 0.0
C787 C 0.35846 0.10527 0.71526 0.0
C788 C 0.32643 0.10904 0.7067 0.0
C789 C 0.33044 0.10499 0.68811 0.0
C790 C 0.34868 0.10082 0.68333 0.0
C791 C 0.36256 0.10106 0.69675 0.0
H792 H 0.89855 0.31054 0.62635 0.0
H793 H 0.89005 0.2672 0.66652 0.0
H794 H 0.89934 0.33344 0.65114 0.0
H795 H 0.88987 0.29013 0.69131 0.0
H796 H 0.87823 0.37165 0.69541 0.0
H797 H 0.8794 0.34813 0.67148 0.0
H798 H 0.90698 0.31148 0.70933 0.0
H799 H 0.90494 0.33499 0.73369 0.0
C800 C 0.89674 0.30594 0.6405 0.0
C801 C 0.89414 0.28712 0.6445 0.0
C802 C 0.89706 0.31907 0.65474 0.0
C803 C 0.89445 0.31372 0.67331 0.0
C804 C 0.89215 0.29479 0.67727 0.0
C805 C 0.89212 0.28164 0.66303 0.0
C806 C 0.8845 0.35855 0.69865 0.0
C807 C 0.89149 0.35514 0.71641 0.0
C808 C 0.88534 0.34508 0.68484 0.0
C809 C 0.89349 0.32791 0.68831 0.0
C810 C 0.90042 0.32446 0.70618 0.0
C811 C 0.89933 0.33792 0.72014 0.0
H812 H 0.69544 0.89494 0.62738 0.0
H813 H 0.73578 0.88419 0.66966 0.0
H814 H 0.6717 0.89644 0.65058 0.0
H815 H 0.71158 0.88454 0.69313 0.0
H816 H 0.66571 0.90228 0.73248 0.0
H817 H 0.69055 0.90282 0.70984 0.0
H818 H 0.65434 0.87726 0.66947 0.0
H819 H 0.62944 0.87771 0.69177 0.0
C820 C 0.69925 0.89277 0.64168 0.0
C821 C 0.71751 0.88942 0.64668 0.0
C822 C 0.68552 0.89344 0.65504 0.0
C823 C 0.68957 0.89034 0.67378 0.0
C824 C 0.70794 0.88717 0.67886 0.0
C825 C 0.72181 0.88685 0.66543 0.0
C826 C 0.6631 0.8969 0.7187 0.0
C827 C 0.64563 0.89007 0.71381 0.0
C828 C 0.67737 0.89706 0.70576 0.0
C829 C 0.67453 0.89014 0.68775 0.0
C830 C 0.65701 0.88313 0.68303 0.0
C831 C 0.64271 0.88327 0.69585 0.0
H832 H 0.33437 0.11479 0.26601 0.0
H833 H 0.37419 0.09759 0.30653 0.0
H834 H 0.31105 0.11633 0.28994 0.0
H835 H 0.35062 0.09829 0.33047 0.0
H836 H 0.31047 0.12215 0.37207 0.0
H837 H 0.33351 0.11944 0.34797 0.0
H838 H 0.29194 0.09922 0.30997 0.0
H839 H 0.26873 0.10277 0.33402 0.0
C840 C 0.33808 0.11109 0.28002 0.0
C841 C 0.35614 0.10614 0.28441 0.0
C842 C 0.32465 0.11184 0.29376 0.0
C843 C 0.32888 0.10747 0.31221 0.0
C844 C 0.3469 0.10211 0.31649 0.0
C845 C 0.36041 0.10157 0.30276 0.0
C846 C 0.30625 0.11716 0.35855 0.0
C847 C 0.28779 0.11274 0.3549 0.0
C848 C 0.31951 0.11544 0.34474 0.0
C849 C 0.31468 0.10901 0.32697 0.0
C850 C 0.29616 0.10448 0.32338 0.0
C851 C 0.28284 0.10643 0.33717 0.0
H852 H 0.89124 0.26671 0.33196 0.0
H853 H 0.90733 0.30702 0.37331 0.0
H854 H 0.88963 0.29095 0.30886 0.0
H855 H 0.90656 0.33134 0.34995 0.0
H856 H 0.88391 0.37293 0.30832 0.0
H857 H 0.88648 0.34902 0.33184 0.0
H858 H 0.90698 0.31115 0.29049 0.0
H859 H 0.90354 0.33486 0.26691 0.0
C860 C 0.89466 0.28077 0.33607 0.0
C861 C 0.8994 0.28496 0.35447 0.0
C862 C 0.89387 0.2947 0.32276 0.0
C863 C 0.89803 0.3132 0.32742 0.0
C864 C 0.90297 0.31734 0.34585 0.0
C865 C 0.90354 0.30339 0.35925 0.0
C866 C 0.88896 0.35948 0.30429 0.0
C867 C 0.89339 0.35571 0.28575 0.0
C868 C 0.89058 0.34578 0.31781 0.0
C869 C 0.89689 0.32804 0.31315 0.0
C870 C 0.90169 0.32447 0.2946 0.0
C871 C 0.89983 0.3381 0.28105 0.0
H872 H 0.73105 0.89991 0.33463 0.0
H873 H 0.69134 0.88001 0.37438 0.0
H874 H 0.70676 0.90309 0.31169 0.0
H875 H 0.66715 0.88237 0.35129 0.0
H876 H 0.62487 0.90349 0.3098 0.0
H877 H 0.6487 0.90276 0.3337 0.0
H878 H 0.68785 0.88449 0.29283 0.0
H879 H 0.66446 0.88597 0.26913 0.0
C880 C 0.71715 0.89607 0.33839 0.0
C881 C 0.71311 0.88962 0.35623 0.0
C882 C 0.7032 0.8978 0.32524 0.0
C883 C 0.68494 0.89287 0.32956 0.0
C884 C 0.68095 0.88656 0.34751 0.0
C885 C 0.69486 0.88504 0.36072 0.0
C886 C 0.6386 0.89937 0.30601 0.0
C887 C 0.64281 0.89489 0.2876 0.0
C888 C 0.65225 0.89887 0.31969 0.0
C889 C 0.6703 0.8937 0.3152 0.0
C890 C 0.6743 0.88899 0.29677 0.0
C891 C 0.66079 0.8897 0.28317 0.0
H892 H 0.10031 0.6657 0.26829 0.0
H893 H 0.11851 0.62724 0.3098 0.0
H894 H 0.09758 0.68967 0.29189 0.0
H895 H 0.11664 0.65137 0.33332 0.0
H896 H 0.0968 0.69437 0.37472 0.0
H897 H 0.09715 0.66983 0.35139 0.0
H898 H 0.1154 0.70945 0.31042 0.0
H899 H 0.11422 0.73391 0.33347 0.0
C900 C 0.10385 0.66242 0.28246 0.0
C901 C 0.10969 0.64461 0.28717 0.0
C902 C 0.1024 0.6762 0.29601 0.0
C903 C 0.10701 0.67259 0.3146 0.0
C904 C 0.11271 0.65467 0.31927 0.0
C905 C 0.11393 0.64083 0.30575 0.0
C906 C 0.10082 0.69778 0.36069 0.0
C907 C 0.10543 0.71608 0.35593 0.0
C908 C 0.10114 0.6837 0.34731 0.0
C909 C 0.10628 0.68757 0.3289 0.0
C910 C 0.11098 0.70592 0.32428 0.0
C911 C 0.11044 0.71998 0.33757 0.0
H912 H 0.33719 0.90582 0.73201 0.0
H913 H 0.37836 0.88976 0.69242 0.0
H914 H 0.31426 0.90607 0.7076 0.0
H915 H 0.35518 0.88906 0.66797 0.0
H916 H 0.31097 0.90374 0.62508 0.0
H917 H 0.33522 0.90572 0.64849 0.0
H918 H 0.29707 0.8855 0.68975 0.0
H919 H 0.27292 0.88444 0.66669 0.0
C920 C 0.34131 0.90224 0.71806 0.0
C921 C 0.35955 0.89766 0.71417 0.0
C922 C 0.32811 0.90223 0.70403 0.0
C923 C 0.33269 0.89728 0.68575 0.0
C924 C 0.3511 0.8931 0.68179 0.0
C925 C 0.3644 0.89341 0.69583 0.0
C926 C 0.30785 0.89974 0.63918 0.0
C927 C 0.29001 0.89408 0.64407 0.0
C928 C 0.32176 0.90079 0.65261 0.0
C929 C 0.31815 0.89598 0.67117 0.0
C930 C 0.30035 0.88986 0.6758 0.0
C931 C 0.28647 0.88908 0.6625 0.0
H932 H 0.10271 0.37418 0.69025 0.0
H933 H 0.11433 0.33543 0.73392 0.0
H934 H 0.10172 0.34887 0.66791 0.0
H935 H 0.11429 0.31018 0.71153 0.0
H936 H 0.09911 0.26606 0.6687 0.0
H937 H 0.09689 0.29097 0.69157 0.0
H938 H 0.1216 0.32902 0.65251 0.0
H939 H 0.12295 0.30446 0.62963 0.0
C940 C 0.10514 0.36025 0.69504 0.0
C941 C 0.10868 0.35679 0.71379 0.0
C942 C 0.10471 0.34571 0.68223 0.0
C943 C 0.10812 0.32741 0.68781 0.0
C944 C 0.11136 0.32399 0.70669 0.0
C945 C 0.11151 0.3385 0.71954 0.0
C946 C 0.10403 0.27978 0.66509 0.0
C947 C 0.11117 0.28333 0.64741 0.0
C948 C 0.10284 0.29406 0.67819 0.0
C949 C 0.10897 0.31213 0.67391 0.0
C950 C 0.11631 0.31548 0.65623 0.0
C951 C 0.11725 0.30132 0.64312 0.0
H952 H 0.7302 0.11759 0.66644 0.0
H953 H 0.69264 0.09821 0.62421 0.0
H954 H 0.70571 0.11682 0.68909 0.0
H955 H 0.66799 0.09664 0.64723 0.0
H956 H 0.62462 0.11276 0.69151 0.0
H957 H 0.64785 0.11372 0.66702 0.0
H958 H 0.68857 0.09536 0.70617 0.0
H959 H 0.6657 0.09522 0.73052 0.0
C960 C 0.71668 0.11303 0.66201 0.0
C961 C 0.7134 0.10784 0.64355 0.0
C962 C 0.7026 0.11243 0.67507 0.0
C963 C 0.68485 0.10635 0.67016 0.0
C964 C 0.68144 0.10149 0.65154 0.0
C965 C 0.69557 0.10231 0.63835 0.0
C966 C 0.63855 0.10889 0.69479 0.0
C967 C 0.64339 0.10413 0.71298 0.0
C968 C 0.65186 0.10936 0.68075 0.0
C969 C 0.67023 0.1049 0.68461 0.0
C970 C 0.67476 0.09944 0.70271 0.0
C971 C 0.66158 0.09922 0.71671 0.0
H972 H 0.90446 0.73701 0.66792 0.0
H973 H 0.87886 0.69757 0.63072 0.0
H974 H 0.90591 0.71319 0.69189 0.0
H975 H 0.87948 0.67419 0.65464 0.0
H976 H 0.89834 0.63027 0.69293 0.0
H977 H 0.89983 0.65485 0.67012 0.0
H978 H 0.88792 0.69507 0.71276 0.0
H979 H 0.88737 0.6704 0.73579 0.0
C980 C 0.89901 0.72331 0.66495 0.0
C981 C 0.89165 0.71908 0.64746 0.0
C982 C 0.89976 0.70969 0.67868 0.0
C983 C 0.89298 0.69167 0.67517 0.0
C984 C 0.8853 0.68771 0.65773 0.0
C985 C 0.88479 0.70118 0.64402 0.0
C986 C 0.89615 0.64437 0.69745 0.0
C987 C 0.89261 0.64842 0.71609 0.0
C988 C 0.89688 0.65848 0.68435 0.0
C989 C 0.89371 0.67696 0.68951 0.0
C990 C 0.89058 0.68104 0.70829 0.0
C991 C 0.89015 0.66691 0.72148 0.0
H992 H 0.31098 0.37961 0.11105 0.0
H993 H 0.27375 0.33458 0.0977 0.0
H994 H 0.33655 0.35796 0.11166 0.0
H995 H 0.29915 0.31322 0.09758 0.0
H996 H 0.34126 0.27602 0.12116 0.0
H997 H 0.31793 0.29947 0.12023 0.0
H998 H 0.3561 0.33724 0.09387 0.0
H999 H 0.37998 0.31359 0.09546 0.0
C1000 C 0.30831 0.36514 0.10804 0.0
C1001 C 0.29033 0.35873 0.10459 0.0
C1002 C 0.32296 0.35276 0.10829 0.0
C1003 C 0.3199 0.33378 0.10496 0.0
C1004 C 0.30198 0.32763 0.10074 0.0
C1005 C 0.28739 0.3399 0.1007 0.0
C1006 C 0.34476 0.28933 0.11519 0.0
C1007 C 0.3624 0.2929 0.10819 0.0
C1008 C 0.3313 0.30277 0.11453 0.0
C1009 C 0.33496 0.32014 0.10659 0.0
C1010 C 0.35282 0.324 0.10008 0.0
C1011 C 0.36647 0.31048 0.10094 0.0
H1012 H 0.37834 0.68928 0.89767 0.0
H1013 H 0.33891 0.73135 0.88467 0.0
H1014 H 0.35375 0.66625 0.89932 0.0
H1015 H 0.31435 0.70822 0.88533 0.0
H1016 H 0.2717 0.66561 0.90291 0.0
H1017 H 0.29624 0.68883 0.90396 0.0
H1018 H 0.3337 0.64919 0.88052 0.0
H1019 H 0.30939 0.62586 0.88041 0.0
C1020 C 0.3644 0.69357 0.89505 0.0
C1021 C 0.36053 0.71209 0.89101 0.0
C1022 C 0.35028 0.68034 0.89586 0.0
C1023 C 0.33199 0.68526 0.89233 0.0
C1024 C 0.32818 0.7039 0.88843 0.0
C1025 C 0.34227 0.71717 0.88791 0.0
C1026 C 0.28521 0.66191 0.89804 0.0
C1027 C 0.28865 0.64395 0.89158 0.0
C1028 C 0.29928 0.67524 0.89853 0.0
C1029 C 0.31704 0.67098 0.89231 0.0
C1030 C 0.32036 0.65295 0.88578 0.0
C1031 C 0.30637 0.63958 0.88557 0.0
H1032 H 0.27153 0.33483 0.88473 0.0
H1033 H 0.30819 0.37807 0.90415 0.0
H1034 H 0.29631 0.31282 0.88587 0.0
H1035 H 0.33307 0.35573 0.9061 0.0
H1036 H 0.37732 0.31301 0.88917 0.0
H1037 H 0.35367 0.33679 0.88881 0.0
H1038 H 0.31364 0.29624 0.90719 0.0
H1039 H 0.33693 0.27259 0.90668 0.0
C1040 C 0.28489 0.3396 0.88942 0.0
C1041 C 0.28786 0.35817 0.89444 0.0
C1042 C 0.29913 0.32692 0.89022 0.0
C1043 C 0.31672 0.33236 0.89634 0.0
C1044 C 0.31977 0.35104 0.90119 0.0
C1045 C 0.30549 0.36383 0.90017 0.0
C1046 C 0.36346 0.3093 0.89321 0.0
C1047 C 0.35891 0.29092 0.89771 0.0
C1048 C 0.34991 0.32292 0.89308 0.0
C1049 C 0.33161 0.31843 0.89767 0.0
C1050 C 0.3274 0.30016 0.903 0.0
C1051 C 0.34081 0.28658 0.90285 0.0
H1052 H 0.66672 0.27035 0.88315 0.0
H1053 H 0.62697 0.31256 0.89477 0.0
H1054 H 0.69109 0.29369 0.88307 0.0
H1055 H 0.65138 0.33585 0.89566 0.0
H1056 H 0.69559 0.37604 0.87646 0.0
H1057 H 0.67147 0.3525 0.87669 0.0
H1058 H 0.70903 0.31376 0.90125 0.0
H1059 H 0.73339 0.33716 0.90009 0.0
C1060 C 0.66324 0.28462 0.88592 0.0
C1061 C 0.64494 0.28965 0.88888 0.0
C1062 C 0.67724 0.29802 0.886 0.0
C1063 C 0.6733 0.31676 0.88933 0.0
C1064 C 0.65496 0.32167 0.89265 0.0
C1065 C 0.64094 0.30829 0.89228 0.0
C1066 C 0.69868 0.36246 0.88187 0.0
C1067 C 0.71638 0.3584 0.88819 0.0
C1068 C 0.68479 0.34897 0.88215 0.0
C1069 C 0.68818 0.33114 0.88906 0.0
C1070 C 0.70593 0.32718 0.89553 0.0
C1071 C 0.7199 0.34062 0.89497 0.0
H1072 H 0.73404 0.6687 0.90688 0.0
H1073 H 0.69495 0.62616 0.8911 0.0
H1074 H 0.7098 0.69142 0.90711 0.0
H1075 H 0.67063 0.64912 0.89048 0.0
H1076 H 0.62833 0.69332 0.90638 0.0
H1077 H 0.65161 0.66928 0.90795 0.0
H1078 H 0.69186 0.70783 0.88613 0.0
H1079 H 0.66892 0.73182 0.88538 0.0
C1080 C 0.72024 0.66422 0.90336 0.0
C1081 C 0.71642 0.64567 0.89886 0.0
C1082 C 0.70631 0.67729 0.90335 0.0
C1083 C 0.68822 0.67224 0.89852 0.0
C1084 C 0.68433 0.65354 0.8944 0.0
C1085 C 0.69828 0.64037 0.89467 0.0
C1086 C 0.64217 0.69658 0.90193 0.0
C1087 C 0.64683 0.71448 0.8959 0.0
C1088 C 0.65551 0.68279 0.90275 0.0
C1089 C 0.67373 0.6866 0.89736 0.0
C1090 C 0.67815 0.70445 0.89089 0.0
C1091 C 0.66493 0.71822 0.89031 0.0
H1092 H 0.62289 0.68909 0.09792 0.0
H1093 H 0.66126 0.725 0.12663 0.0
H1094 H 0.64598 0.66462 0.09729 0.0
H1095 H 0.6838 0.7007 0.12667 0.0
H1096 H 0.72796 0.66491 0.10442 0.0
H1097 H 0.70322 0.687 0.10452 0.0
H1098 H 0.66417 0.64284 0.11521 0.0
H1099 H 0.68915 0.62046 0.11441 0.0
C1100 C 0.63613 0.69164 0.10432 0.0
C1101 C 0.64038 0.70902 0.11208 0.0
C1102 C 0.64933 0.67765 0.10401 0.0
C1103 C 0.66691 0.68081 0.1116 0.0
C1104 C 0.67067 0.69793 0.12015 0.0
C1105 C 0.65766 0.71186 0.12025 0.0
C1106 C 0.71411 0.65986 0.10676 0.0
C1107 C 0.71054 0.64097 0.10959 0.0
C1108 C 0.69988 0.67256 0.10693 0.0
C1109 C 0.68168 0.66679 0.11022 0.0
C1110 C 0.678 0.64778 0.11259 0.0
C1111 C 0.69231 0.63497 0.11222 0.0
H1112 H 0.33965 0.72858 0.093 0.0
H1113 H 0.37939 0.69198 0.11699 0.0
H1114 H 0.31657 0.70413 0.094 0.0
H1115 H 0.35596 0.66759 0.11908 0.0
H1116 H 0.3129 0.62269 0.10727 0.0
H1117 H 0.3371 0.646 0.10377 0.0
H1118 H 0.29778 0.68894 0.11494 0.0
H1119 H 0.27356 0.66568 0.11733 0.0
C1120 C 0.34341 0.71526 0.09858 0.0
C1121 C 0.36127 0.71219 0.10501 0.0
C1122 C 0.33011 0.70124 0.09933 0.0
C1123 C 0.33419 0.68388 0.10694 0.0
C1124 C 0.35228 0.68068 0.11296 0.0
C1125 C 0.36572 0.69466 0.11185 0.0
C1126 C 0.30947 0.63714 0.10892 0.0
C1127 C 0.29133 0.64239 0.11248 0.0
C1128 C 0.32338 0.65052 0.10703 0.0
C1129 C 0.31949 0.66946 0.10895 0.0
C1130 C 0.30131 0.67459 0.11286 0.0
C1131 C 0.2874 0.66123 0.11441 0.0
H1132 H 0.69116 0.37357 0.10336 0.0
H1133 H 0.73104 0.33216 0.11698 0.0
H1134 H 0.66744 0.34967 0.10091 0.0
H1135 H 0.70724 0.30834 0.11569 0.0
H1136 H 0.66608 0.26658 0.09512 0.0
H1137 H 0.68903 0.29117 0.09578 0.0
H1138 H 0.64849 0.329 0.11687 0.0
H1139 H 0.62524 0.30441 0.11509 0.0
C1140 C 0.69481 0.35935 0.10601 0.0
C1141 C 0.71298 0.35471 0.11025 0.0
C1142 C 0.68116 0.34561 0.10475 0.0
C1143 C 0.68529 0.32693 0.10803 0.0
C1144 C 0.7035 0.32244 0.11259 0.0
C1145 C 0.71719 0.33613 0.11349 0.0
C1146 C 0.66206 0.28019 0.09981 0.0
C1147 C 0.64389 0.28357 0.10512 0.0
C1148 C 0.67528 0.29431 0.10036 0.0
C1149 C 0.67081 0.31215 0.10664 0.0
C1150 C 0.65249 0.31556 0.11174 0.0
C1151 C 0.63914 0.30146 0.11082 0.0
H1152 H 0.59842 0.87446 0.80789 0.0
H1153 H 0.61566 0.83325 0.76836 0.0
H1154 H 0.59857 0.85113 0.83231 0.0
H1155 H 0.61658 0.81024 0.79269 0.0
H1156 H 0.60127 0.76827 0.83617 0.0
H1157 H 0.59826 0.79179 0.81226 0.0
H1158 H 0.61871 0.83334 0.8505 0.0
H1159 H 0.62092 0.80996 0.87452 0.0
C1160 C 0.60235 0.86046 0.80446 0.0
C1161 C 0.60699 0.85568 0.78622 0.0
C1162 C 0.60253 0.84709 0.81845 0.0
C1163 C 0.60755 0.82873 0.81451 0.0
C1164 C 0.61225 0.82408 0.79622 0.0
C1165 C 0.61187 0.83735 0.78226 0.0
C1166 C 0.60505 0.78245 0.83943 0.0
C1167 C 0.61138 0.78727 0.85716 0.0
C1168 C 0.60343 0.79594 0.82572 0.0
C1169 C 0.60833 0.81452 0.82938 0.0
C1170 C 0.61453 0.81928 0.84722 0.0
C1171 C 0.61594 0.80584 0.86097 0.0
H1172 H 0.22919 0.5948 0.83874 0.0
H1173 H 0.1929 0.61691 0.88021 0.0
H1174 H 0.20466 0.59543 0.81606 0.0
H1175 H 0.16838 0.61856 0.85718 0.0
H1176 H 0.12352 0.60532 0.8147 0.0
H1177 H 0.14712 0.60248 0.83846 0.0
H1178 H 0.18867 0.61603 0.79783 0.0
H1179 H 0.16517 0.61784 0.77407 0.0
C1180 C 0.21593 0.59992 0.84297 0.0
C1181 C 0.21298 0.6059 0.86122 0.0
C1182 C 0.20186 0.60044 0.8299 0.0
C1183 C 0.18451 0.60733 0.83459 0.0
C1184 C 0.18146 0.61299 0.85303 0.0
C1185 C 0.19552 0.61214 0.86624 0.0
C1186 C 0.13773 0.60762 0.81089 0.0
C1187 C 0.14252 0.6117 0.79251 0.0
C1188 C 0.15128 0.60612 0.82454 0.0
C1189 C 0.16991 0.60893 0.82016 0.0
C1190 C 0.17457 0.61329 0.80174 0.0
C1191 C 0.16107 0.61448 0.78808 0.0
H1192 H 0.38736 0.17041 0.7651 0.0
H1193 H 0.40236 0.13149 0.80753 0.0
H1194 H 0.38688 0.19521 0.78824 0.0
H1195 H 0.40283 0.15617 0.83034 0.0
H1196 H 0.38004 0.19694 0.87077 0.0
H1197 H 0.38146 0.17382 0.84647 0.0
H1198 H 0.40395 0.21473 0.809 0.0
H1199 H 0.40168 0.23823 0.83338 0.0
C1200 C 0.39083 0.16724 0.77931 0.0
C1201 C 0.39468 0.149 0.78457 0.0
C1202 C 0.39065 0.18144 0.79256 0.0
C1203 C 0.39455 0.17768 0.81126 0.0
C1204 C 0.39921 0.15953 0.81622 0.0
C1205 C 0.39909 0.14536 0.80309 0.0
C1206 C 0.38527 0.20103 0.85734 0.0
C1207 C 0.39082 0.21936 0.85398 0.0
C1208 C 0.38624 0.18771 0.8434 0.0
C1209 C 0.39309 0.19228 0.82578 0.0
C1210 C 0.39848 0.21073 0.82234 0.0
C1211 C 0.39726 0.22418 0.83631 0.0
H1212 H 0.83896 0.38619 0.77382 0.0
H1213 H 0.88128 0.40549 0.81129 0.0
H1214 H 0.81674 0.38695 0.79862 0.0
H1215 H 0.85857 0.4069 0.83638 0.0
H1216 H 0.81302 0.389 0.87961 0.0
H1217 H 0.83799 0.3888 0.85676 0.0
H1218 H 0.80082 0.40977 0.81543 0.0
H1219 H 0.77611 0.40925 0.83778 0.0
C1220 C 0.84352 0.39076 0.78738 0.0
C1221 C 0.86187 0.39599 0.79051 0.0
C1222 C 0.83069 0.39131 0.80164 0.0
C1223 C 0.83572 0.39736 0.81948 0.0
C1224 C 0.85422 0.40216 0.82282 0.0
C1225 C 0.8672 0.40144 0.80845 0.0
C1226 C 0.81032 0.39364 0.86564 0.0
C1227 C 0.79254 0.39883 0.86039 0.0
C1228 C 0.82461 0.3936 0.85257 0.0
C1229 C 0.82136 0.3989 0.83411 0.0
C1230 C 0.80376 0.40501 0.82931 0.0
C1231 C 0.78955 0.40482 0.84219 0.0
H1232 H 0.5987 0.22885 0.16384 0.0
H1233 H 0.61948 0.18666 0.12731 0.0
H1234 H 0.59638 0.20643 0.18875 0.0
H1235 H 0.61796 0.16425 0.15251 0.0
H1236 H 0.59808 0.12441 0.19741 0.0
H1237 H 0.59848 0.14629 0.17175 0.0
H1238 H 0.6148 0.19006 0.20948 0.0
H1239 H 0.61362 0.16836 0.23511 0.0
C1240 C 0.60288 0.21477 0.16117 0.0
C1241 C 0.60936 0.20954 0.14364 0.0
C1242 C 0.60168 0.2019 0.17552 0.0
C1243 C 0.60716 0.18349 0.1728 0.0
C1244 C 0.61341 0.17822 0.15512 0.0
C1245 C 0.6144 0.19108 0.14068 0.0
C1246 C 0.60169 0.13874 0.20019 0.0
C1247 C 0.60576 0.14467 0.21829 0.0
C1248 C 0.60204 0.15128 0.18545 0.0
C1249 C 0.60664 0.17003 0.18845 0.0
C1250 C 0.61082 0.17586 0.20661 0.0
C1251 C 0.61027 0.16337 0.22134 0.0
H1252 H 0.8741 0.62104 0.19186 0.0
H1253 H 0.83804 0.59845 0.23363 0.0
H1254 H 0.84896 0.62073 0.16971 0.0
H1255 H 0.81302 0.5971 0.21124 0.0
H1256 H 0.76732 0.61491 0.17168 0.0
H1257 H 0.79201 0.61481 0.19458 0.0
H1258 H 0.8308 0.60163 0.15138 0.0
H1259 H 0.80645 0.60287 0.12864 0.0
C1260 C 0.86083 0.61576 0.19621 0.0
C1261 C 0.858 0.6098 0.21444 0.0
C1262 C 0.84639 0.61545 0.18348 0.0
C1263 C 0.82886 0.6088 0.18858 0.0
C1264 C 0.82618 0.60262 0.20684 0.0
C1265 C 0.84055 0.60325 0.21966 0.0
C1266 C 0.78115 0.61197 0.16718 0.0
C1267 C 0.78497 0.60903 0.14838 0.0
C1268 C 0.79532 0.6118 0.18029 0.0
C1269 C 0.81354 0.60837 0.17488 0.0
C1270 C 0.81711 0.60484 0.15608 0.0
C1271 C 0.80307 0.60537 0.143 0.0
H1272 H 0.38075 0.80807 0.12876 0.0
H1273 H 0.4035 0.76799 0.16619 0.0
H1274 H 0.38042 0.83091 0.15352 0.0
H1275 H 0.40417 0.79112 0.19086 0.0
H1276 H 0.38623 0.83194 0.23598 0.0
H1277 H 0.38646 0.80821 0.21178 0.0
H1278 H 0.39901 0.85027 0.17109 0.0
H1279 H 0.39765 0.87378 0.19495 0.0
C1280 C 0.3859 0.80423 0.14227 0.0
C1281 C 0.39214 0.78626 0.14554 0.0
C1282 C 0.38585 0.81737 0.15649 0.0
C1283 C 0.39239 0.813 0.17429 0.0
C1284 C 0.39876 0.79498 0.17748 0.0
C1285 C 0.39851 0.78173 0.1633 0.0
C1286 C 0.38903 0.83602 0.22183 0.0
C1287 C 0.3918 0.85473 0.21736 0.0
C1288 C 0.38928 0.82242 0.20794 0.0
C1289 C 0.3926 0.82725 0.18933 0.0
C1290 C 0.39589 0.84597 0.18509 0.0
C1291 C 0.3953 0.85952 0.19887 0.0
H1292 H 0.19372 0.39389 0.12544 0.0
H1293 H 0.2338 0.38365 0.16809 0.0
H1294 H 0.16985 0.39586 0.14858 0.0
H1295 H 0.20957 0.38446 0.19143 0.0
H1296 H 0.16439 0.40253 0.2308 0.0
H1297 H 0.18894 0.40292 0.20789 0.0
H1298 H 0.15212 0.37759 0.16793 0.0
H1299 H 0.12747 0.37824 0.19053 0.0
C1300 C 0.19742 0.39191 0.1398 0.0
C1301 C 0.21565 0.38859 0.14494 0.0
C1302 C 0.18364 0.39287 0.15312 0.0
C1303 C 0.18763 0.39011 0.17195 0.0
C1304 C 0.20596 0.3869 0.17712 0.0
C1305 C 0.21986 0.38631 0.16375 0.0
C1306 C 0.16158 0.39718 0.21705 0.0
C1307 C 0.14402 0.39043 0.21239 0.0
C1308 C 0.17569 0.39724 0.20394 0.0
C1309 C 0.17261 0.39029 0.18597 0.0
C1310 C 0.15498 0.38346 0.18144 0.0
C1311 C 0.14083 0.3837 0.19444 0.0
H1312 H 0.81104 0.60613 0.87666 0.0
H1313 H 0.77078 0.61961 0.83516 0.0
H1314 H 0.83422 0.60298 0.85286 0.0
H1315 H 0.79428 0.61769 0.81127 0.0
H1316 H 0.83572 0.59721 0.77007 0.0
H1317 H 0.81251 0.59786 0.7942 0.0
H1318 H 0.85293 0.61941 0.83279 0.0
H1319 H 0.87632 0.61761 0.80881 0.0
C1320 C 0.80718 0.60859 0.86242 0.0
C1321 C 0.78908 0.61307 0.85776 0.0
C1322 C 0.82055 0.60694 0.84874 0.0
C1323 C 0.81626 0.61015 0.83005 0.0
C1324 C 0.79809 0.61475 0.82543 0.0
C1325 C 0.78461 0.61601 0.83912 0.0
C1326 C 0.83963 0.60193 0.78378 0.0
C1327 C 0.8578 0.60735 0.78761 0.0
C1328 C 0.82628 0.60249 0.7976 0.0
C1329 C 0.83069 0.60885 0.8155 0.0
C1330 C 0.849 0.61412 0.81931 0.0
C1331 C 0.86244 0.61319 0.80555 0.0
H1332 H 0.402 0.83392 0.76647 0.0
H1333 H 0.38358 0.87134 0.80906 0.0
H1334 H 0.40562 0.80966 0.7896 0.0
H1335 H 0.38631 0.84703 0.83199 0.0
H1336 H 0.40837 0.80581 0.87274 0.0
H1337 H 0.40719 0.82982 0.84916 0.0
H1338 H 0.38949 0.78903 0.8088 0.0
H1339 H 0.39155 0.76501 0.83218 0.0
C1340 C 0.39854 0.83688 0.78075 0.0
C1341 C 0.39252 0.85451 0.78596 0.0
C1342 C 0.40053 0.82296 0.79403 0.0
C1343 C 0.39632 0.82631 0.81278 0.0
C1344 C 0.3901 0.84397 0.81784 0.0
C1345 C 0.38835 0.8579 0.80463 0.0
C1346 C 0.40434 0.802 0.8588 0.0
C1347 C 0.40003 0.78354 0.85433 0.0
C1348 C 0.40352 0.81578 0.84526 0.0
C1349 C 0.39811 0.81147 0.827 0.0
C1350 C 0.39399 0.79291 0.82257 0.0
C1351 C 0.39505 0.77911 0.83604 0.0
H1352 H 0.19307 0.38006 0.87008 0.0
H1353 H 0.23384 0.40204 0.83255 0.0
H1354 H 0.1697 0.38293 0.84636 0.0
H1355 H 0.21021 0.40571 0.80885 0.0
H1356 H 0.16737 0.39022 0.76486 0.0
H1357 H 0.19117 0.38868 0.78833 0.0
H1358 H 0.15186 0.40439 0.83013 0.0
H1359 H 0.12783 0.40511 0.80662 0.0
C1360 C 0.197 0.38566 0.85675 0.0
C1361 C 0.21529 0.39079 0.85314 0.0
C1362 C 0.18354 0.38747 0.84317 0.0
C1363 C 0.18796 0.39469 0.82567 0.0
C1364 C 0.20632 0.39987 0.82207 0.0
C1365 C 0.21987 0.39784 0.83565 0.0
C1366 C 0.16381 0.39341 0.77906 0.0
C1367 C 0.14569 0.39769 0.78392 0.0
C1368 C 0.17752 0.39265 0.79253 0.0
C1369 C 0.17351 0.39636 0.81119 0.0
C1370 C 0.15542 0.40108 0.81596 0.0
C1371 C 0.14164 0.40162 0.80249 0.0
H1372 H 0.60455 0.12528 0.81003 0.0
H1373 H 0.61807 0.16641 0.76894 0.0
H1374 H 0.60143 0.1495 0.8333 0.0
H1375 H 0.6161 0.19059 0.7923 0.0
H1376 H 0.59562 0.2326 0.83305 0.0
H1377 H 0.5964 0.2078 0.81024 0.0
H1378 H 0.61699 0.17061 0.85199 0.0
H1379 H 0.6151 0.19526 0.87497 0.0
C1380 C 0.60705 0.13951 0.80603 0.0
C1381 C 0.6115 0.14396 0.78765 0.0
C1382 C 0.60538 0.15344 0.81941 0.0
C1383 C 0.60847 0.17216 0.81481 0.0
C1384 C 0.61317 0.17647 0.79639 0.0
C1385 C 0.61448 0.16258 0.78297 0.0
C1386 C 0.60019 0.21907 0.83735 0.0
C1387 C 0.60532 0.21587 0.85578 0.0
C1388 C 0.60081 0.20484 0.82422 0.0
C1389 C 0.60695 0.1871 0.82909 0.0
C1390 C 0.61191 0.18392 0.84766 0.0
C1391 C 0.61094 0.19809 0.86087 0.0
H1392 H 0.83528 0.38348 0.22936 0.0
H1393 H 0.87628 0.40226 0.19042 0.0
H1394 H 0.81227 0.38357 0.20509 0.0
H1395 H 0.85295 0.40319 0.16607 0.0
H1396 H 0.80885 0.38581 0.12304 0.0
H1397 H 0.83328 0.38548 0.14628 0.0
H1398 H 0.79483 0.40402 0.1877 0.0
H1399 H 0.77049 0.40349 0.16478 0.0
C1400 C 0.83934 0.38779 0.2156 0.0
C1401 C 0.85758 0.39295 0.21184 0.0
C1402 C 0.82609 0.38799 0.20165 0.0
C1403 C 0.8306 0.39365 0.18358 0.0
C1404 C 0.84896 0.3986 0.17975 0.0
C1405 C 0.86232 0.39817 0.19372 0.0
C1406 C 0.8057 0.38983 0.13712 0.0
C1407 C 0.78771 0.39448 0.14212 0.0
C1408 C 0.81971 0.38974 0.15045 0.0
C1409 C 0.81606 0.3945 0.16901 0.0
C1410 C 0.79814 0.39975 0.17373 0.0
C1411 C 0.78415 0.39959 0.16053 0.0
H1412 H 0.59459 0.83826 0.23208 0.0
H1413 H 0.62179 0.87391 0.19262 0.0
H1414 H 0.59311 0.81356 0.20909 0.0
H1415 H 0.62134 0.84898 0.16991 0.0
H1416 H 0.60494 0.80703 0.12713 0.0
H1417 H 0.60309 0.83164 0.14993 0.0
H1418 H 0.61088 0.79176 0.19369 0.0
H1419 H 0.61158 0.76696 0.17071 0.0
C1420 C 0.60035 0.84075 0.21848 0.0
C1421 C 0.6083 0.85797 0.21409 0.0
C1422 C 0.59965 0.82654 0.20533 0.0
C1423 C 0.60717 0.82915 0.18758 0.0
C1424 C 0.61507 0.84649 0.18326 0.0
C1425 C 0.61545 0.8608 0.19631 0.0
C1426 C 0.60612 0.8035 0.14163 0.0
C1427 C 0.60845 0.78509 0.14717 0.0
C1428 C 0.60522 0.81767 0.15474 0.0
C1429 C 0.60704 0.81383 0.17372 0.0
C1430 C 0.60916 0.79529 0.17924 0.0
C1431 C 0.60968 0.78105 0.16609 0.0
H1432 H 0.12635 0.5976 0.1918 0.0
H1433 H 0.16745 0.61624 0.23089 0.0
H1434 H 0.14962 0.5967 0.16742 0.0
H1435 H 0.1904 0.61616 0.20661 0.0
H1436 H 0.232 0.59545 0.16664 0.0
H1437 H 0.20755 0.5953 0.1893 0.0
H1438 H 0.16961 0.61426 0.14766 0.0
H1439 H 0.19424 0.61359 0.12458 0.0
C1440 C 0.14031 0.60166 0.19514 0.0
C1441 C 0.1451 0.60681 0.21331 0.0
C1442 C 0.15365 0.60125 0.18114 0.0
C1443 C 0.17202 0.60615 0.18501 0.0
C1444 C 0.17657 0.61179 0.20313 0.0
C1445 C 0.16334 0.61197 0.2171 0.0
C1446 C 0.21844 0.59955 0.16225 0.0
C1447 C 0.2151 0.60469 0.14384 0.0
C1448 C 0.20439 0.5996 0.17533 0.0
C1449 C 0.18658 0.60511 0.17049 0.0
C1450 C 0.1831 0.60985 0.15191 0.0
C1451 C 0.19722 0.60955 0.13869 0.0
H1452 H 0.3818 0.19818 0.13 0.0
H1453 H 0.40584 0.23761 0.16826 0.0
H1454 H 0.38232 0.17453 0.15366 0.0
H1455 H 0.40715 0.21353 0.19199 0.0
H1456 H 0.38763 0.16982 0.23488 0.0
H1457 H 0.38876 0.19485 0.21221 0.0
H1458 H 0.40263 0.15539 0.1695 0.0
H1459 H 0.40058 0.13049 0.19188 0.0
C1460 C 0.38739 0.20173 0.14347 0.0
C1461 C 0.39382 0.21972 0.14728 0.0
C1462 C 0.38783 0.1881 0.15704 0.0
C1463 C 0.395 0.192 0.17472 0.0
C1464 C 0.4014 0.21007 0.17858 0.0
C1465 C 0.40073 0.22384 0.16499 0.0
C1466 C 0.39098 0.16659 0.22063 0.0
C1467 C 0.3938 0.14821 0.21508 0.0
C1468 C 0.39174 0.18093 0.20766 0.0
C1469 C 0.39555 0.17715 0.18894 0.0
C1470 C 0.39914 0.15879 0.18366 0.0
C1471 C 0.3981 0.14449 0.19653 0.0
H1472 H 0.87985 0.81262 0.59525 0.0
H1473 H 0.83945 0.77479 0.6178 0.0
H1474 H 0.8565 0.8368 0.59371 0.0
H1475 H 0.81664 0.79872 0.61696 0.0
H1476 H 0.77385 0.83625 0.59597 0.0
H1477 H 0.79867 0.8142 0.59505 0.0
H1478 H 0.83706 0.8572 0.61163 0.0
H1479 H 0.8121 0.87956 0.61177 0.0
C1480 C 0.86607 0.80953 0.6 0.0
C1481 C 0.86143 0.79175 0.60641 0.0
C1482 C 0.85271 0.82337 0.59919 0.0
C1483 C 0.83455 0.81964 0.6049 0.0
C1484 C 0.83026 0.80199 0.61187 0.0
C1485 C 0.84344 0.78825 0.61248 0.0
C1486 C 0.78759 0.84105 0.59933 0.0
C1487 C 0.79098 0.85959 0.60414 0.0
C1488 C 0.80185 0.82837 0.59891 0.0
C1489 C 0.81988 0.8338 0.60362 0.0
C1490 C 0.82339 0.85253 0.60786 0.0
C1491 C 0.80908 0.86533 0.60803 0.0
H1492 H 0.87756 0.19016 0.37825 0.0
H1493 H 0.84095 0.23031 0.40181 0.0
H1494 H 0.8533 0.16682 0.3792 0.0
H1495 H 0.81684 0.20673 0.40385 0.0
H1496 H 0.7718 0.16591 0.38667 0.0
H1497 H 0.79597 0.18945 0.3864 0.0
H1498 H 0.83608 0.14742 0.39801 0.0
H1499 H 0.81196 0.12387 0.39711 0.0
C1500 C 0.86435 0.19391 0.38387 0.0
C1501 C 0.8611 0.21204 0.38988 0.0
C1502 C 0.85043 0.18048 0.38457 0.0
C1503 C 0.833 0.18477 0.39165 0.0
C1504 C 0.82992 0.20293 0.39796 0.0
C1505 C 0.84376 0.21645 0.39692 0.0
C1506 C 0.7858 0.16176 0.38917 0.0
C1507 C 0.79003 0.14307 0.3918 0.0
C1508 C 0.79969 0.17527 0.38916 0.0
C1509 C 0.8181 0.17044 0.39215 0.0
C1510 C 0.82218 0.1517 0.39522 0.0
C1511 C 0.80833 0.13816 0.39486 0.0
H1512 H 0.77007 0.83355 0.4024 0.0
H1513 H 0.80879 0.87643 0.38696 0.0
H1514 H 0.79451 0.81111 0.40275 0.0
H1515 H 0.83337 0.85368 0.38643 0.0
H1516 H 0.87585 0.80979 0.40328 0.0
H1517 H 0.85246 0.83379 0.40417 0.0
H1518 H 0.8127 0.79474 0.38198 0.0
H1519 H 0.8357 0.77082 0.38195 0.0
C1520 C 0.78384 0.83815 0.39893 0.0
C1521 C 0.78749 0.85672 0.39451 0.0
C1522 C 0.79788 0.82523 0.39899 0.0
C1523 C 0.81595 0.83044 0.39432 0.0
C1524 C 0.81968 0.84916 0.39023 0.0
C1525 C 0.80559 0.86219 0.39043 0.0
C1526 C 0.86208 0.80642 0.39861 0.0
C1527 C 0.85755 0.78839 0.39273 0.0
C1528 C 0.84869 0.82018 0.39902 0.0
C1529 C 0.83057 0.81621 0.39337 0.0
C1530 C 0.82632 0.79825 0.38697 0.0
C1531 C 0.83957 0.78452 0.38681 0.0
H1532 H 0.16354 0.77146 0.40377 0.0
H1533 H 0.1272 0.81118 0.37924 0.0
H1534 H 0.18779 0.79497 0.40538 0.0
H1535 H 0.15158 0.83437 0.37977 0.0
H1536 H 0.19292 0.87768 0.39677 0.0
H1537 H 0.1688 0.8542 0.39819 0.0
H1538 H 0.20887 0.81177 0.38779 0.0
H1539 H 0.23309 0.83531 0.38752 0.0
C1540 C 0.16081 0.78521 0.3986 0.0
C1541 C 0.1435 0.78951 0.39141 0.0
C1542 C 0.17474 0.79868 0.39939 0.0
C1543 C 0.17177 0.81668 0.39269 0.0
C1544 C 0.15437 0.82086 0.38545 0.0
C1545 C 0.14038 0.8075 0.385 0.0
C1546 C 0.19656 0.86332 0.39489 0.0
C1547 C 0.21486 0.85832 0.39199 0.0
C1548 C 0.1827 0.84981 0.39556 0.0
C1549 C 0.18674 0.83098 0.39294 0.0
C1550 C 0.20517 0.82604 0.39017 0.0
C1551 C 0.21908 0.83954 0.38987 0.0
H1552 H 0.19429 0.12615 0.38963 0.0
H1553 H 0.23364 0.16833 0.4057 0.0
H1554 H 0.17004 0.14924 0.3895 0.0
H1555 H 0.2095 0.19113 0.40648 0.0
H1556 H 0.16892 0.23213 0.38548 0.0
H1557 H 0.19167 0.20798 0.38597 0.0
H1558 H 0.15106 0.16936 0.407 0.0
H1559 H 0.12795 0.19359 0.40566 0.0
C1560 C 0.1977 0.14031 0.39338 0.0
C1561 C 0.21589 0.14548 0.39747 0.0
C1562 C 0.18379 0.15355 0.3934 0.0
C1563 C 0.18778 0.17219 0.39773 0.0
C1564 C 0.20592 0.17708 0.40252 0.0
C1565 C 0.2198 0.16396 0.40222 0.0
C1566 C 0.16481 0.21848 0.39021 0.0
C1567 C 0.14665 0.2148 0.39562 0.0
C1568 C 0.17793 0.20461 0.39063 0.0
C1569 C 0.17337 0.18668 0.39679 0.0
C1570 C 0.15509 0.18293 0.40204 0.0
C1571 C 0.14184 0.19683 0.40137 0.0
H1572 H 0.22951 0.16426 0.62011 0.0
H1573 H 0.19296 0.12173 0.59898 0.0
H1574 H 0.20465 0.1862 0.61998 0.0
H1575 H 0.16796 0.14407 0.5981 0.0
H1576 H 0.1238 0.18705 0.61549 0.0
H1577 H 0.14721 0.16295 0.61595 0.0
H1578 H 0.18788 0.20319 0.59833 0.0
H1579 H 0.16489 0.22706 0.59865 0.0
C1580 C 0.21614 0.15963 0.61529 0.0
C1581 C 0.21325 0.1413 0.6094 0.0
C1582 C 0.20186 0.17227 0.6151 0.0
C1583 C 0.1843 0.16706 0.60871 0.0
C1584 C 0.18126 0.14857 0.60318 0.0
C1585 C 0.19559 0.13579 0.6036 0.0
C1586 C 0.13776 0.19062 0.61167 0.0
C1587 C 0.14257 0.20898 0.60729 0.0
C1588 C 0.15116 0.17683 0.61187 0.0
C1589 C 0.16956 0.18115 0.6075 0.0
C1590 C 0.17403 0.1994 0.60235 0.0
C1591 C 0.16078 0.21312 0.6024 0.0
H1592 H 0.77129 0.16634 0.59959 0.0
H1593 H 0.81038 0.12707 0.62024 0.0
H1594 H 0.79571 0.18944 0.59653 0.0
H1595 H 0.83472 0.15035 0.61798 0.0
H1596 H 0.8777 0.19219 0.59749 0.0
H1597 H 0.85378 0.16808 0.59788 0.0
H1598 H 0.81419 0.20866 0.61517 0.0
H1599 H 0.8377 0.23256 0.61403 0.0
C1600 C 0.78509 0.1627 0.60361 0.0
C1601 C 0.7889 0.14495 0.61027 0.0
C1602 C 0.79912 0.17596 0.60195 0.0
C1603 C 0.81725 0.17187 0.60715 0.0
C1604 C 0.82103 0.15398 0.61361 0.0
C1605 C 0.80703 0.14066 0.61506 0.0
C1606 C 0.86385 0.19588 0.60131 0.0
C1607 C 0.85958 0.21427 0.60563 0.0
C1608 C 0.85015 0.18208 0.60162 0.0
C1609 C 0.83195 0.1864 0.60645 0.0
C1610 C 0.82787 0.20482 0.61094 0.0
C1611 C 0.84144 0.21855 0.61043 0.0
H1612 H 0.19371 0.87468 0.60442 0.0
H1613 H 0.2334 0.8325 0.61608 0.0
H1614 H 0.16978 0.8511 0.6015 0.0
H1615 H 0.20934 0.80891 0.61433 0.0
H1616 H 0.16634 0.76813 0.59465 0.0
H1617 H 0.19004 0.79211 0.59504 0.0
H1618 H 0.1511 0.83075 0.6177 0.0
H1619 H 0.12721 0.80694 0.61619 0.0
C1620 C 0.19728 0.86034 0.60652 0.0
C1621 C 0.21544 0.85543 0.61044 0.0
C1622 C 0.18351 0.84678 0.605 0.0
C1623 C 0.18747 0.82796 0.60772 0.0
C1624 C 0.20571 0.82314 0.61175 0.0
C1625 C 0.21954 0.83669 0.61291 0.0
C1626 C 0.16285 0.7818 0.59959 0.0
C1627 C 0.14493 0.78567 0.60539 0.0
C1628 C 0.17649 0.79557 0.59998 0.0
C1629 C 0.17267 0.81347 0.60655 0.0
C1630 C 0.15461 0.8173 0.61224 0.0
C1631 C 0.14088 0.8036 0.6115 0.0
H1632 H 0.11929 0.23774 0.45237 0.0
H1633 H 0.11384 0.29681 0.45986 0.0
H1634 H 0.12229 0.23409 0.48595 0.0
H1635 H 0.11629 0.2931 0.49292 0.0
H1636 H 0.10071 0.23707 0.54788 0.0
H1637 H 0.10357 0.23659 0.51407 0.0
H1638 H 0.13754 0.28598 0.51667 0.0
H1639 H 0.13396 0.28685 0.5501 0.0
C1640 C 0.11883 0.24993 0.4611 0.0
C1641 C 0.11633 0.26757 0.45335 0.0
C1642 C 0.12045 0.24782 0.48033 0.0
C1643 C 0.11969 0.26331 0.49214 0.0
C1644 C 0.11738 0.28089 0.48429 0.0
C1645 C 0.11581 0.283 0.46522 0.0
C1646 C 0.10902 0.2476 0.54117 0.0
C1647 C 0.1168 0.26221 0.5515 0.0
C1648 C 0.11072 0.24731 0.52183 0.0
C1649 C 0.12045 0.26149 0.51263 0.0
C1650 C 0.12948 0.27517 0.52325 0.0
C1651 C 0.1275 0.27563 0.54241 0.0
H1652 H 0.7422 0.09462 0.54885 0.0
H1653 H 0.788 0.13297 0.54835 0.0
H1654 H 0.74054 0.09611 0.51495 0.0
H1655 H 0.78587 0.13521 0.51484 0.0
H1656 H 0.798 0.11059 0.45878 0.0
H1657 H 0.79459 0.11383 0.49176 0.0
H1658 H 0.73562 0.11306 0.48588 0.0
H1659 H 0.73904 0.10922 0.45226 0.0
C1660 C 0.75155 0.10376 0.54151 0.0
C1661 C 0.76545 0.11341 0.55112 0.0
C1662 C 0.75058 0.10467 0.52212 0.0
C1663 C 0.76336 0.11545 0.51211 0.0
C1664 C 0.77618 0.1263 0.52202 0.0
C1665 C 0.77736 0.12512 0.54124 0.0
C1666 C 0.78422 0.11118 0.46433 0.0
C1667 C 0.76879 0.10958 0.45272 0.0
C1668 C 0.78228 0.11324 0.48338 0.0
C1669 C 0.76483 0.11395 0.49156 0.0
C1670 C 0.74927 0.11252 0.48003 0.0
C1671 C 0.75123 0.11041 0.46077 0.0
H1672 H 0.89963 0.76351 0.45363 0.0
H1673 H 0.86826 0.71249 0.45458 0.0
H1674 H 0.89798 0.76527 0.48745 0.0
H1675 H 0.86581 0.71464 0.48808 0.0
H1676 H 0.89198 0.7067 0.54409 0.0
H1677 H 0.88824 0.70919 0.51108 0.0
H1678 H 0.88066 0.76817 0.51632 0.0
H1679 H 0.88499 0.76577 0.54989 0.0
C1680 C 0.89194 0.75298 0.46105 0.0
C1681 C 0.88437 0.73767 0.45159 0.0
C1682 C 0.89093 0.75401 0.4804 0.0
C1683 C 0.88213 0.73986 0.49051 0.0
C1684 C 0.8732 0.72546 0.48078 0.0
C1685 C 0.87451 0.72426 0.46158 0.0
C1686 C 0.8894 0.72026 0.53837 0.0
C1687 C 0.88877 0.73605 0.54976 0.0
C1688 C 0.88708 0.72165 0.51933 0.0
C1689 C 0.88386 0.73884 0.511 0.0
C1690 C 0.88315 0.75472 0.52231 0.0
C1691 C 0.88557 0.75333 0.54153 0.0
H1692 H 0.20674 0.89382 0.45869 0.0
H1693 H 0.26552 0.89119 0.45154 0.0
H1694 H 0.2103 0.88985 0.49158 0.0
H1695 H 0.26906 0.88675 0.48506 0.0
H1696 H 0.21624 0.86777 0.54701 0.0
H1697 H 0.21824 0.86649 0.51343 0.0
H1698 H 0.26506 0.9037 0.51493 0.0
H1699 H 0.26344 0.90434 0.54887 0.0
C1700 C 0.22049 0.89223 0.46408 0.0
C1701 C 0.23585 0.8928 0.45232 0.0
C1702 C 0.22252 0.88977 0.48306 0.0
C1703 C 0.23995 0.88767 0.491 0.0
C1704 C 0.25543 0.88831 0.47936 0.0
C1705 C 0.25339 0.89079 0.46017 0.0
C1706 C 0.22721 0.87536 0.54019 0.0
C1707 C 0.23952 0.88635 0.55049 0.0
C1708 C 0.22831 0.87473 0.52094 0.0
C1709 C 0.2415 0.8854 0.51144 0.0
C1710 C 0.25472 0.89533 0.52181 0.0
C1711 C 0.25379 0.89572 0.54123 0.0
H1712 H 0.09375 0.7125 0.53784 0.0
H1713 H 0.12079 0.76429 0.55157 0.0
H1714 H 0.09494 0.72046 0.50513 0.0
H1715 H 0.12256 0.77196 0.51885 0.0
H1716 H 0.10184 0.79021 0.46245 0.0
H1717 H 0.10291 0.78125 0.49471 0.0
H1718 H 0.11391 0.72486 0.47854 0.0
H1719 H 0.11222 0.73376 0.446 0.0
C1720 C 0.10016 0.72549 0.53388 0.0
C1721 C 0.10703 0.73782 0.54739 0.0
C1722 C 0.10095 0.73002 0.51507 0.0
C1723 C 0.10875 0.74693 0.50927 0.0
C1724 C 0.11609 0.759 0.52278 0.0
C1725 C 0.11516 0.75455 0.54158 0.0
C1726 C 0.10458 0.77589 0.46569 0.0
C1727 C 0.10691 0.76271 0.45153 0.0
C1728 C 0.10532 0.77076 0.48429 0.0
C1729 C 0.10857 0.75232 0.48934 0.0
C1730 C 0.11114 0.73914 0.47519 0.0
C1731 C 0.11028 0.74427 0.45651 0.0
H1732 H 0.24067 0.11946 0.45204 0.0
H1733 H 0.29837 0.10783 0.45835 0.0
H1734 H 0.23805 0.12319 0.48567 0.0
H1735 H 0.29564 0.1111 0.49147 0.0
H1736 H 0.2926 0.13189 0.54812 0.0
H1737 H 0.2913 0.13429 0.5146 0.0
H1738 H 0.23938 0.1048 0.51434 0.0
H1739 H 0.24039 0.10305 0.54819 0.0
C1740 C 0.25277 0.11772 0.46053 0.0
C1741 C 0.26975 0.11342 0.45242 0.0
C1742 C 0.25124 0.1198 0.47979 0.0
C1743 C 0.26668 0.11768 0.49126 0.0
C1744 C 0.28356 0.11332 0.48307 0.0
C1745 C 0.28509 0.11129 0.46398 0.0
C1746 C 0.28075 0.1262 0.54094 0.0
C1747 C 0.26674 0.11702 0.55071 0.0
C1748 C 0.28003 0.12748 0.52172 0.0
C1749 C 0.26547 0.11931 0.51174 0.0
C1750 C 0.25079 0.11124 0.5216 0.0
C1751 C 0.25138 0.1102 0.54097 0.0
H1752 H 0.89613 0.234 0.54967 0.0
H1753 H 0.8858 0.29138 0.5373 0.0
H1754 H 0.89514 0.22663 0.51691 0.0
H1755 H 0.88399 0.28386 0.50443 0.0
H1756 H 0.90512 0.26743 0.44659 0.0
H1757 H 0.90277 0.27587 0.47919 0.0
H1758 H 0.87674 0.22306 0.49064 0.0
H1759 H 0.87991 0.21438 0.45827 0.0
C1760 C 0.89333 0.24502 0.53998 0.0
C1761 C 0.89114 0.26331 0.54616 0.0
C1762 C 0.89264 0.24076 0.52111 0.0
C1763 C 0.88949 0.25462 0.50789 0.0
C1764 C 0.88678 0.27286 0.51413 0.0
C1765 C 0.8877 0.27716 0.53302 0.0
C1766 C 0.89877 0.2577 0.45607 0.0
C1767 C 0.8929 0.24016 0.44988 0.0
C1768 C 0.89732 0.26257 0.47479 0.0
C1769 C 0.88972 0.25009 0.4877 0.0
C1770 C 0.88311 0.23286 0.48127 0.0
C1771 C 0.88482 0.22791 0.46265 0.0
H1772 H 0.71035 0.8706 0.45577 0.0
H1773 H 0.76303 0.89841 0.45313 0.0
H1774 H 0.71274 0.86914 0.48929 0.0
H1775 H 0.76516 0.89759 0.48698 0.0
H1776 H 0.76496 0.88396 0.54998 0.0
H1777 H 0.76681 0.87953 0.51633 0.0
H1778 H 0.7097 0.89392 0.51134 0.0
H1779 H 0.70771 0.89795 0.54439 0.0
C1780 C 0.72252 0.87628 0.46239 0.0
C1781 C 0.73634 0.88492 0.45192 0.0
C1782 C 0.72388 0.8755 0.48159 0.0
C1783 C 0.73892 0.88368 0.49081 0.0
C1784 C 0.7534 0.89118 0.48027 0.0
C1785 C 0.75216 0.8917 0.46092 0.0
C1786 C 0.75282 0.88612 0.54165 0.0
C1787 C 0.73616 0.89118 0.54995 0.0
C1788 C 0.7539 0.8836 0.5224 0.0
C1789 C 0.73833 0.88606 0.51122 0.0
C1790 C 0.72184 0.89138 0.51957 0.0
C1791 C 0.72075 0.89384 0.53861 0.0
H1792 H 0.44591 0.11693 0.27037 0.0
H1793 H 0.46364 0.10794 0.214 0.0
H1794 H 0.47792 0.11926 0.28022 0.0
H1795 H 0.49532 0.10957 0.22387 0.0
H1796 H 0.55114 0.12729 0.24247 0.0
H1797 H 0.51884 0.12956 0.23444 0.0
H1798 H 0.50423 0.10048 0.2846 0.0
H1799 H 0.5365 0.09887 0.29298 0.0
C1800 C 0.45659 0.11543 0.26009 0.0
C1801 C 0.45215 0.11227 0.24139 0.0
C1802 C 0.47496 0.11667 0.26575 0.0
C1803 C 0.48927 0.11465 0.25285 0.0
C1804 C 0.48475 0.11161 0.23416 0.0
C1805 C 0.46648 0.11053 0.22851 0.0
C1806 C 0.54103 0.12151 0.25186 0.0
C1807 C 0.54644 0.11278 0.2683 0.0
C1808 C 0.52248 0.12272 0.24721 0.0
C1809 C 0.50887 0.11501 0.25875 0.0
C1810 C 0.51427 0.10677 0.27547 0.0
C1811 C 0.53282 0.10574 0.28023 0.0
H1812 H 0.87732 0.54094 0.214 0.0
H1813 H 0.90203 0.55229 0.26725 0.0
H1814 H 0.87437 0.50837 0.22197 0.0
H1815 H 0.89997 0.51956 0.27493 0.0
H1816 H 0.88402 0.461 0.2894 0.0
H1817 H 0.88165 0.49385 0.28253 0.0
H1818 H 0.89275 0.48241 0.22484 0.0
H1819 H 0.89421 0.44961 0.23161 0.0
C1820 C 0.88215 0.53645 0.22742 0.0
C1821 C 0.89001 0.54917 0.23995 0.0
C1822 C 0.88058 0.51772 0.23196 0.0
C1823 C 0.88714 0.51116 0.24902 0.0
C1824 C 0.89453 0.52404 0.26176 0.0
C1825 C 0.89581 0.54284 0.25733 0.0
C1826 C 0.88578 0.46551 0.27523 0.0
C1827 C 0.88934 0.45266 0.26106 0.0
C1828 C 0.88455 0.48439 0.27128 0.0
C1829 C 0.8871 0.49093 0.25312 0.0
C1830 C 0.89036 0.47798 0.23894 0.0
C1831 C 0.89132 0.45909 0.24284 0.0
H1832 H 0.55048 0.89374 0.26611 0.0
H1833 H 0.54321 0.88825 0.20693 0.0
H1834 H 0.51732 0.88912 0.27037 0.0
H1835 H 0.51067 0.88418 0.21111 0.0
H1836 H 0.45511 0.86451 0.21972 0.0
H1837 H 0.48832 0.86273 0.22207 0.0
H1838 H 0.48823 0.90524 0.26428 0.0
H1839 H 0.45466 0.9063 0.26247 0.0
C1840 C 0.5419 0.89147 0.25406 0.0
C1841 C 0.54958 0.89141 0.23618 0.0
C1842 C 0.52291 0.8889 0.25649 0.0
C1843 C 0.51131 0.88608 0.2411 0.0
C1844 C 0.51913 0.88586 0.22334 0.0
C1845 C 0.53791 0.88842 0.22093 0.0
C1846 C 0.46217 0.87316 0.22981 0.0
C1847 C 0.4524 0.88571 0.24074 0.0
C1848 C 0.48121 0.87224 0.23109 0.0
C1849 C 0.49102 0.88422 0.24299 0.0
C1850 C 0.48112 0.89582 0.25497 0.0
C1851 C 0.46191 0.89647 0.25392 0.0
H1852 H 0.09948 0.53767 0.2883 0.0
H1853 H 0.12389 0.55126 0.23549 0.0
H1854 H 0.10044 0.50498 0.28047 0.0
H1855 H 0.12545 0.51847 0.22792 0.0
H1856 H 0.10277 0.46174 0.21083 0.0
H1857 H 0.10513 0.4941 0.21948 0.0
H1858 H 0.11894 0.47856 0.27546 0.0
H1859 H 0.11594 0.44597 0.26691 0.0
C1860 C 0.10533 0.53369 0.27512 0.0
C1861 C 0.11147 0.54716 0.26247 0.0
C1862 C 0.10598 0.51487 0.27067 0.0
C1863 C 0.11292 0.509 0.2535 0.0
C1864 C 0.11966 0.52246 0.24111 0.0
C1865 C 0.11886 0.5413 0.2455 0.0
C1866 C 0.10641 0.46515 0.22499 0.0
C1867 C 0.10908 0.45117 0.23819 0.0
C1868 C 0.1079 0.4838 0.22992 0.0
C1869 C 0.11227 0.48904 0.24818 0.0
C1870 C 0.11529 0.47507 0.26133 0.0
C1871 C 0.11366 0.45635 0.25641 0.0
H1872 H 0.46123 0.87119 0.78445 0.0
H1873 H 0.44986 0.89945 0.73321 0.0
H1874 H 0.49326 0.86848 0.77559 0.0
H1875 H 0.48209 0.89753 0.72466 0.0
H1876 H 0.53958 0.88177 0.70822 0.0
H1877 H 0.507 0.87913 0.71545 0.0
H1878 H 0.5193 0.88754 0.77346 0.0
H1879 H 0.55174 0.88935 0.76633 0.0
C1880 C 0.46559 0.87684 0.77128 0.0
C1881 C 0.45303 0.88566 0.7596 0.0
C1882 C 0.48401 0.87539 0.76623 0.0
C1883 C 0.49042 0.883 0.7495 0.0
C1884 C 0.47769 0.89131 0.73754 0.0
C1885 C 0.45919 0.8925 0.74248 0.0
C1886 C 0.53532 0.88287 0.72254 0.0
C1887 C 0.54831 0.8858 0.73668 0.0
C1888 C 0.5166 0.88148 0.72668 0.0
C1889 C 0.51041 0.88318 0.74505 0.0
C1890 C 0.52348 0.8858 0.75919 0.0
C1891 C 0.54217 0.88697 0.75508 0.0
H1892 H 0.09566 0.46516 0.71157 0.0
H1893 H 0.12408 0.45121 0.76206 0.0
H1894 H 0.09728 0.49782 0.72005 0.0
H1895 H 0.12624 0.48382 0.77021 0.0
H1896 H 0.10464 0.53906 0.79073 0.0
H1897 H 0.10625 0.50709 0.78082 0.0
H1898 H 0.11629 0.52481 0.72462 0.0
H1899 H 0.11408 0.55705 0.73449 0.0
C1900 C 0.1025 0.46907 0.72434 0.0
C1901 C 0.10956 0.45551 0.73622 0.0
C1902 C 0.10352 0.48783 0.72916 0.0
C1903 C 0.11174 0.49351 0.74592 0.0
C1904 C 0.11943 0.47997 0.75741 0.0
C1905 C 0.11827 0.46123 0.75268 0.0
C1906 C 0.10732 0.53624 0.77626 0.0
C1907 C 0.10918 0.55073 0.76342 0.0
C1908 C 0.10837 0.51781 0.77057 0.0
C1909 C 0.11146 0.51328 0.7519 0.0
C1910 C 0.11366 0.52776 0.73907 0.0
C1911 C 0.11251 0.54627 0.74476 0.0
H1912 H 0.45604 0.09498 0.74021 0.0
H1913 H 0.4569 0.14184 0.77731 0.0
H1914 H 0.48957 0.0967 0.73783 0.0
H1915 H 0.49009 0.14425 0.77428 0.0
H1916 H 0.54488 0.12115 0.79253 0.0
H1917 H 0.51245 0.12505 0.78778 0.0
H1918 H 0.51873 0.11214 0.7297 0.0
H1919 H 0.55172 0.10767 0.73463 0.0
C1920 C 0.46337 0.10606 0.74728 0.0
C1921 C 0.45401 0.11813 0.75914 0.0
C1922 C 0.48256 0.10708 0.74592 0.0
C1923 C 0.49259 0.12034 0.75624 0.0
C1924 C 0.48289 0.13351 0.7666 0.0
C1925 C 0.46386 0.13225 0.76823 0.0
C1926 C 0.53951 0.11924 0.77866 0.0
C1927 C 0.55098 0.11395 0.76399 0.0
C1928 C 0.52081 0.1217 0.77588 0.0
C1929 C 0.5129 0.11907 0.7583 0.0
C1930 C 0.52437 0.1142 0.74343 0.0
C1931 C 0.54327 0.11176 0.74623 0.0
H1932 H 0.87278 0.54748 0.70851 0.0
H1933 H 0.89954 0.54928 0.76183 0.0
H1934 H 0.87044 0.51398 0.71043 0.0
H1935 H 0.89799 0.51547 0.76342 0.0
H1936 H 0.88403 0.45286 0.7632 0.0
H1937 H 0.88028 0.48651 0.76515 0.0
H1938 H 0.89303 0.49105 0.70693 0.0
H1939 H 0.89621 0.45802 0.70484 0.0
C1940 C 0.8781 0.54068 0.7207 0.0
C1941 C 0.88661 0.55095 0.73487 0.0
C1942 C 0.87684 0.52146 0.72178 0.0
C1943 C 0.88445 0.51197 0.73686 0.0
C1944 C 0.89197 0.52233 0.75162 0.0
C1945 C 0.89293 0.54168 0.75068 0.0
C1946 C 0.88589 0.4611 0.75083 0.0
C1947 C 0.89029 0.45265 0.73385 0.0
C1948 C 0.8838 0.48036 0.75196 0.0
C1949 C 0.88608 0.49148 0.73614 0.0
C1950 C 0.89062 0.48295 0.71929 0.0
C1951 C 0.8926 0.46389 0.71815 0.0
H1952 H 0.28953 0.53755 0.12376 0.0
H1953 H 0.23456 0.54961 0.10543 0.0
H1954 H 0.28147 0.50485 0.12565 0.0
H1955 H 0.2267 0.51685 0.10653 0.0
H1956 H 0.21303 0.45815 0.12232 0.0
H1957 H 0.22097 0.49084 0.12533 0.0
H1958 H 0.27575 0.47958 0.10579 0.0
H1959 H 0.26802 0.44685 0.10356 0.0
C1960 C 0.27573 0.53322 0.12009 0.0
C1961 C 0.26272 0.54619 0.11434 0.0
C1962 C 0.27112 0.51443 0.12107 0.0
C1963 C 0.25347 0.50811 0.11609 0.0
C1964 C 0.24035 0.52117 0.11073 0.0
C1965 C 0.24489 0.53999 0.10999 0.0
C1966 C 0.22681 0.46265 0.1188 0.0
C1967 C 0.23987 0.4499 0.11263 0.0
C1968 C 0.23134 0.48143 0.12042 0.0
C1969 C 0.24898 0.48795 0.11569 0.0
C1970 C 0.26212 0.47509 0.10985 0.0
C1971 C 0.25766 0.45629 0.10846 0.0
H1972 H 0.23292 0.55048 0.89738 0.0
H1973 H 0.28961 0.53934 0.88461 0.0
H1974 H 0.22567 0.51765 0.89494 0.0
H1975 H 0.28223 0.50656 0.88139 0.0
H1976 H 0.26682 0.44768 0.8998 0.0
H1977 H 0.27467 0.4805 0.89951 0.0
H1978 H 0.22215 0.49231 0.87465 0.0
H1979 H 0.21404 0.45958 0.8757 0.0
C1980 C 0.2438 0.54105 0.8938 0.0
C1981 C 0.26187 0.54755 0.89132 0.0
C1982 C 0.23962 0.52219 0.89227 0.0
C1983 C 0.25336 0.50936 0.88798 0.0
C1984 C 0.27135 0.51595 0.88506 0.0
C1985 C 0.27558 0.53479 0.88681 0.0
C1986 C 0.25701 0.45728 0.89414 0.0
C1987 C 0.23975 0.45103 0.88793 0.0
C1988 C 0.26154 0.47613 0.89388 0.0
C1989 C 0.249 0.48916 0.88717 0.0
C1990 C 0.232 0.48277 0.88032 0.0
C1991 C 0.22738 0.46397 0.88081 0.0
H1992 H 0.44777 0.27224 0.88417 0.0
H1993 H 0.46205 0.21527 0.89415 0.0
H1994 H 0.48032 0.28045 0.8823 0.0
H1995 H 0.49427 0.22353 0.89302 0.0
H1996 H 0.55141 0.2394 0.87632 0.0
H1997 H 0.51874 0.23248 0.87383 0.0
H1998 H 0.50662 0.28409 0.90135 0.0
H1999 H 0.53922 0.29132 0.90314 0.0
C2000 C 0.45781 0.26148 0.88598 0.0
C2001 C 0.45223 0.2431 0.8893 0.0
C2002 C 0.4765 0.26619 0.88502 0.0
C2003 C 0.49002 0.25266 0.8875 0.0
C2004 C 0.48435 0.23429 0.89065 0.0
C2005 C 0.46576 0.22956 0.89143 0.0
C2006 C 0.54177 0.24931 0.88175 0.0
C2007 C 0.54797 0.26586 0.89002 0.0
C2008 C 0.523 0.24531 0.8804 0.0
C2009 C 0.50994 0.25764 0.88753 0.0
C2010 C 0.51618 0.27436 0.89547 0.0
C2011 C 0.53494 0.27846 0.89661 0.0
H2012 H 0.78918 0.54393 0.87684 0.0
H2013 H 0.73562 0.55498 0.89952 0.0
H2014 H 0.7813 0.51122 0.87447 0.0
H2015 H 0.72794 0.52211 0.89784 0.0
H2016 H 0.71425 0.46331 0.88084 0.0
H2017 H 0.72133 0.49622 0.87863 0.0
H2018 H 0.77742 0.48563 0.89438 0.0
H2019 H 0.77051 0.4527 0.89589 0.0
C2020 C 0.7757 0.53937 0.88131 0.0
C2021 C 0.76307 0.55205 0.88849 0.0
C2022 C 0.77122 0.52057 0.88007 0.0
C2023 C 0.75407 0.51391 0.88618 0.0
C2024 C 0.74121 0.52671 0.8928 0.0
C2025 C 0.74562 0.54558 0.89384 0.0
C2026 C 0.72813 0.46799 0.88372 0.0
C2027 C 0.7418 0.45533 0.8886 0.0
C2028 C 0.73216 0.48691 0.88255 0.0
C2029 C 0.74993 0.49367 0.88639 0.0
C2030 C 0.76365 0.48095 0.89102 0.0
C2031 C 0.75966 0.46202 0.892 0.0
H2032 H 0.46674 0.71032 0.90468 0.0
H2033 H 0.45429 0.76182 0.87747 0.0
H2034 H 0.49926 0.71829 0.90398 0.0
H2035 H 0.48685 0.7695 0.8762 0.0
H2036 H 0.54228 0.78818 0.89905 0.0
H2037 H 0.51026 0.77901 0.89706 0.0
H2038 H 0.52602 0.72275 0.8853 0.0
H2039 H 0.55827 0.73185 0.8879 0.0
C2040 C 0.47095 0.72322 0.89829 0.0
C2041 C 0.45785 0.7355 0.89128 0.0
C2042 C 0.48964 0.72775 0.8978 0.0
C2043 C 0.49573 0.74462 0.89017 0.0
C2044 C 0.48266 0.75658 0.88256 0.0
C2045 C 0.46396 0.75212 0.88318 0.0
C2046 C 0.53899 0.77384 0.89597 0.0
C2047 C 0.55292 0.76075 0.89368 0.0
C2048 C 0.52055 0.7686 0.89469 0.0
C2049 C 0.51548 0.75014 0.89093 0.0
C2050 C 0.5294 0.73704 0.88844 0.0
C2051 C 0.54791 0.74228 0.88985 0.0
H2052 H 0.73213 0.55146 0.10279 0.0
H2053 H 0.78611 0.53994 0.12416 0.0
H2054 H 0.72479 0.51852 0.10274 0.0
H2055 H 0.77854 0.50709 0.12498 0.0
H2056 H 0.76769 0.44895 0.10263 0.0
H2057 H 0.77455 0.48188 0.10493 0.0
H2058 H 0.71827 0.49208 0.12033 0.0
H2059 H 0.71126 0.45922 0.11714 0.0
C2060 C 0.74231 0.54191 0.10781 0.0
C2061 C 0.75974 0.5483 0.11335 0.0
C2062 C 0.73808 0.52298 0.10787 0.0
C2063 C 0.7511 0.51001 0.11375 0.0
C2064 C 0.7683 0.51655 0.11994 0.0
C2065 C 0.77261 0.53544 0.1196 0.0
C2066 C 0.7568 0.45822 0.10657 0.0
C2067 C 0.73891 0.45145 0.10959 0.0
C2068 C 0.76075 0.47714 0.10803 0.0
C2069 C 0.74698 0.48976 0.11283 0.0
C2070 C 0.72916 0.48289 0.11625 0.0
C2071 C 0.72516 0.464 0.11453 0.0
H2072 H 0.54544 0.79471 0.10379 0.0
H2073 H 0.5505 0.736 0.11362 0.0
H2074 H 0.51264 0.79213 0.10693 0.0
H2075 H 0.51701 0.73351 0.11709 0.0
H2076 H 0.45409 0.73906 0.09814 0.0
H2077 H 0.48764 0.73677 0.09884 0.0
H2078 H 0.49076 0.78686 0.13152 0.0
H2079 H 0.45759 0.78943 0.13029 0.0
C2080 C 0.53961 0.78119 0.10674 0.0
C2081 C 0.55077 0.76557 0.10858 0.0
C2082 C 0.52067 0.77975 0.10869 0.0
C2083 C 0.51218 0.76269 0.11263 0.0
C2084 C 0.52317 0.74688 0.11411 0.0
C2085 C 0.54233 0.74832 0.11216 0.0
C2086 C 0.46198 0.74935 0.10576 0.0
C2087 C 0.45328 0.76463 0.11386 0.0
C2088 C 0.48118 0.74802 0.10619 0.0
C2089 C 0.49189 0.76187 0.11486 0.0
C2090 C 0.48296 0.77624 0.12425 0.0
C2091 C 0.46394 0.77769 0.12362 0.0
H2092 H 0.5427 0.20284 0.10752 0.0
H2093 H 0.55312 0.26186 0.10906 0.0
H2094 H 0.51029 0.20805 0.11089 0.0
H2095 H 0.52008 0.26707 0.11284 0.0
H2096 H 0.45596 0.21764 0.13342 0.0
H2097 H 0.48927 0.21831 0.13448 0.0
H2098 H 0.49025 0.26324 0.0952 0.0
H2099 H 0.45654 0.26293 0.09465 0.0
C2100 C 0.53814 0.217 0.10874 0.0
C2101 C 0.55067 0.23193 0.10808 0.0
C2102 C 0.51944 0.21997 0.11082 0.0
C2103 C 0.51257 0.23797 0.11243 0.0
C2104 C 0.52497 0.25303 0.11165 0.0
C2105 C 0.54387 0.25003 0.10957 0.0
C2106 C 0.46326 0.22791 0.12528 0.0
C2107 C 0.4537 0.24003 0.11373 0.0
C2108 C 0.48236 0.22825 0.12581 0.0
C2109 C 0.49244 0.24049 0.11454 0.0
C2110 C 0.48288 0.25361 0.10401 0.0
C2111 C 0.46361 0.25343 0.10367 0.0
H2112 H 0.64075 0.78442 0.05023 0.0
H2113 H 0.6034 0.73764 0.0485 0.0
H2114 H 0.64416 0.78292 0.01677 0.0
H2115 H 0.60617 0.73657 0.01475 0.0
H2116 H 0.61963 0.73656 0.95292 0.0
H2117 H 0.62406 0.7326 0.98627 0.0
H2118 H 0.62281 0.79193 0.99356 0.0
H2119 H 0.61888 0.79591 0.96065 0.0
C2120 C 0.63345 0.77365 0.04267 0.0
C2121 C 0.62159 0.76134 0.05187 0.0
C2122 C 0.63532 0.77284 0.02349 0.0
C2123 C 0.62506 0.75995 0.01303 0.0
C2124 C 0.61429 0.74667 0.02239 0.0
C2125 C 0.61265 0.74729 0.0417 0.0
C2126 C 0.62054 0.74875 0.96165 0.0
C2127 C 0.61883 0.76656 0.95406 0.0
C2128 C 0.62299 0.74646 0.98076 0.0
C2129 C 0.6239 0.76194 0.99259 0.0
C2130 C 0.62257 0.77969 0.98488 0.0
C2131 C 0.62012 0.78197 0.96592 0.0
H2132 H 0.28933 0.63263 0.95609 0.0
H2133 H 0.24156 0.59681 0.9555 0.0
H2134 H 0.28748 0.63497 0.98961 0.0
H2135 H 0.24014 0.5984 0.9894 0.0
H2136 H 0.23974 0.6115 0.05223 0.0
H2137 H 0.23632 0.61556 0.01866 0.0
H2138 H 0.29516 0.61308 0.01249 0.0
H2139 H 0.29859 0.60964 0.04541 0.0
C2140 C 0.27831 0.62538 0.96318 0.0
C2141 C 0.26575 0.61433 0.95325 0.0
C2142 C 0.2773 0.62662 0.98241 0.0
C2143 C 0.26396 0.61647 0.9923 0.0
C2144 C 0.25058 0.60641 0.98226 0.0
C2145 C 0.25141 0.60545 0.96285 0.0
C2146 C 0.25191 0.61204 0.04367 0.0
C2147 C 0.26943 0.61026 0.05163 0.0
C2148 C 0.24995 0.61427 0.02443 0.0
C2149 C 0.26547 0.61486 0.01283 0.0
C2150 C 0.28289 0.61318 0.02092 0.0
C2151 C 0.28485 0.61101 0.03995 0.0
H2152 H 0.37245 0.21296 0.04771 0.0
H2153 H 0.40163 0.26531 0.04793 0.0
H2154 H 0.36983 0.21432 0.01421 0.0
H2155 H 0.39969 0.26635 0.01411 0.0
H2156 H 0.38478 0.26573 0.95202 0.0
H2157 H 0.3814 0.26816 0.98569 0.0
H2158 H 0.39205 0.20972 0.99068 0.0
H2159 H 0.39491 0.20718 0.95752 0.0
C2160 C 0.37822 0.22483 0.04056 0.0
C2161 C 0.38751 0.23888 0.05039 0.0
C2162 C 0.3768 0.22558 0.02135 0.0
C2163 C 0.38495 0.24022 0.01142 0.0
C2164 C 0.39324 0.2549 0.02133 0.0
C2165 C 0.39441 0.25428 0.04069 0.0
C2166 C 0.38626 0.2534 0.96034 0.0
C2167 C 0.39005 0.23625 0.95199 0.0
C2168 C 0.38439 0.25482 0.97962 0.0
C2169 C 0.38625 0.2391 0.99089 0.0
C2170 C 0.39005 0.22203 0.98246 0.0
C2171 C 0.39184 0.22061 0.96334 0.0
H2172 H 0.7612 0.40227 0.0473 0.0
H2173 H 0.71451 0.36508 0.04532 0.0
H2174 H 0.76336 0.40115 0.01346 0.0
H2175 H 0.71712 0.36317 0.0118 0.0
H2176 H 0.70635 0.38914 0.95609 0.0
H2177 H 0.7092 0.38497 0.98901 0.0
H2178 H 0.76824 0.38489 0.9841 0.0
H2179 H 0.76539 0.38968 0.9506 0.0
C2180 C 0.75179 0.3934 0.03965 0.0
C2181 C 0.7375 0.384 0.04885 0.0
C2182 C 0.75303 0.39271 0.02027 0.0
C2183 C 0.74013 0.38242 0.00983 0.0
C2184 C 0.72692 0.37172 0.01931 0.0
C2185 C 0.72548 0.37269 0.03854 0.0
C2186 C 0.72002 0.38816 0.96185 0.0
C2187 C 0.73565 0.38981 0.95056 0.0
C2188 C 0.72164 0.38555 0.98086 0.0
C2189 C 0.73896 0.38434 0.9893 0.0
C2190 C 0.75469 0.38581 0.97807 0.0
C2191 C 0.75305 0.38847 0.95887 0.0
H2192 H 0.61863 0.23382 0.94415 0.0
H2193 H 0.60547 0.28904 0.96254 0.0
H2194 H 0.62151 0.22406 0.97632 0.0
H2195 H 0.60764 0.27918 0.99447 0.0
H2196 H 0.62537 0.26142 0.05087 0.0
H2197 H 0.62741 0.27018 0.01843 0.0
H2198 H 0.60314 0.21759 0.00262 0.0
H2199 H 0.60179 0.20857 0.035 0.0
C2200 C 0.61634 0.24388 0.95502 0.0
C2201 C 0.6118 0.26221 0.9507 0.0
C2202 C 0.61789 0.23826 0.9735 0.0
C2203 C 0.61478 0.2508 0.98809 0.0
C2204 C 0.61049 0.26918 0.98369 0.0
C2205 C 0.60911 0.27483 0.96529 0.0
C2206 C 0.6206 0.25166 0.04046 0.0
C2207 C 0.6133 0.23433 0.04558 0.0
C2208 C 0.62167 0.25673 0.02183 0.0
C2209 C 0.61526 0.2447 0.00781 0.0
C2210 C 0.60843 0.22716 0.01294 0.0
C2211 C 0.60755 0.222 0.03157 0.0
H2212 H 0.73804 0.60022 0.04958 0.0
H2213 H 0.78858 0.63195 0.05086 0.0
H2214 H 0.7375 0.60244 0.01574 0.0
H2215 H 0.78771 0.63482 0.01735 0.0
H2216 H 0.79739 0.60871 0.96127 0.0
H2217 H 0.79378 0.6118 0.99431 0.0
H2218 H 0.73582 0.62128 0.98722 0.0
H2219 H 0.73934 0.61774 0.95366 0.0
C2220 C 0.74873 0.60809 0.04265 0.0
C2221 C 0.76356 0.61559 0.05273 0.0
C2222 C 0.74841 0.60942 0.02331 0.0
C2223 C 0.7628 0.61845 0.01385 0.0
C2224 C 0.77671 0.6273 0.02418 0.0
C2225 C 0.77718 0.62573 0.04337 0.0
C2226 C 0.78384 0.61155 0.9666 0.0
C2227 C 0.76866 0.61298 0.95471 0.0
C2228 C 0.7818 0.61348 0.98564 0.0
C2229 C 0.76455 0.61704 0.99342 0.0
C2230 C 0.74928 0.61851 0.98163 0.0
C2231 C 0.75133 0.61654 0.96242 0.0
H2232 H 0.406 0.76757 0.94748 0.0
H2233 H 0.379 0.71547 0.95942 0.0
H2234 H 0.40453 0.77596 0.98019 0.0
H2235 H 0.37675 0.72411 0.99187 0.0
H2236 H 0.39731 0.73356 0.05053 0.0
H2237 H 0.39596 0.72667 0.01768 0.0
H2238 H 0.38661 0.78442 0.00603 0.0
H2239 H 0.38875 0.79143 0.039 0.0
C2240 C 0.39942 0.75808 0.95704 0.0
C2241 C 0.39281 0.74077 0.9509 0.0
C2242 C 0.39851 0.7629 0.97582 0.0
C2243 C 0.39073 0.75062 0.98883 0.0
C2244 C 0.38331 0.73372 0.98242 0.0
C2245 C 0.38447 0.7288 0.96375 0.0
C2246 C 0.39487 0.74481 0.04101 0.0
C2247 C 0.39319 0.76307 0.04746 0.0
C2248 C 0.39396 0.74083 0.02208 0.0
C2249 C 0.3911 0.75496 0.00906 0.0
C2250 C 0.38911 0.77321 0.01556 0.0
C2251 C 0.39022 0.77722 0.03451 0.0
H2252 H 0.26231 0.39911 0.04636 0.0
H2253 H 0.21051 0.36952 0.04616 0.0
H2254 H 0.26325 0.39735 0.0125 0.0
H2255 H 0.21176 0.36709 0.01264 0.0
H2256 H 0.20434 0.39309 0.95641 0.0
H2257 H 0.20709 0.39001 0.98952 0.0
H2258 H 0.26487 0.37874 0.98388 0.0
H2259 H 0.26225 0.38233 0.95025 0.0
C2260 C 0.25138 0.39185 0.0391 0.0
C2261 C 0.23616 0.38478 0.04881 0.0
C2262 C 0.25194 0.39077 0.01973 0.0
C2263 C 0.23737 0.38243 0.00985 0.0
C2264 C 0.22292 0.3741 0.01978 0.0
C2265 C 0.22224 0.37542 0.039 0.0
C2266 C 0.21767 0.38983 0.96207 0.0
C2267 C 0.23307 0.38792 0.95056 0.0
C2268 C 0.21921 0.38792 0.98115 0.0
C2269 C 0.23615 0.38388 0.98937 0.0
C2270 C 0.25163 0.3819 0.97795 0.0
C2271 C 0.2501 0.38388 0.9587 0.0
H2272 H 0.05142 0.62458 0.73921 0.0
H2273 H 0.03669 0.59957 0.79147 0.0
H2274 H 0.01908 0.62704 0.73132 0.0
H2275 H 0.00442 0.60139 0.7833 0.0
H2276 H 0.94664 0.61899 0.76957 0.0
H2277 H 0.97891 0.62098 0.77842 0.0
H2278 H 0.99451 0.60736 0.72235 0.0
H2279 H 0.9625 0.60603 0.71341 0.0
C2280 C 0.04129 0.61957 0.74901 0.0
C2281 C 0.04668 0.61179 0.76593 0.0
C2282 C 0.02272 0.6209 0.74445 0.0
C2283 C 0.00908 0.61429 0.7566 0.0
C2284 C 0.01449 0.60687 0.7737 0.0
C2285 C 0.03304 0.60571 0.77834 0.0
C2286 C 0.95697 0.61655 0.75912 0.0
C2287 C 0.95193 0.61233 0.74079 0.0
C2288 C 0.97549 0.6176 0.76421 0.0
C2289 C 0.98938 0.61431 0.75112 0.0
C2290 C 0.98427 0.61032 0.73275 0.0
C2291 C 0.96582 0.60943 0.72764 0.0
H2292 H 0.40614 0.95764 0.79688 0.0
H2293 H 0.38443 0.95254 0.74135 0.0
H2294 H 0.40384 0.99086 0.79517 0.0
H2295 H 0.38165 0.98629 0.73984 0.0
H2296 H 0.40101 0.04892 0.73972 0.0
H2297 H 0.39991 0.01505 0.73866 0.0
H2298 H 0.38107 0.01406 0.79535 0.0
H2299 H 0.38284 0.04759 0.79658 0.0
C2300 C 0.40067 0.96357 0.78432 0.0
C2301 C 0.39535 0.95231 0.7693 0.0
C2302 C 0.39924 0.98273 0.78339 0.0
C2303 C 0.39227 0.99129 0.76748 0.0
C2304 C 0.38711 0.98013 0.75229 0.0
C2305 C 0.38864 0.9608 0.75318 0.0
C2306 C 0.39644 0.04142 0.75185 0.0
C2307 C 0.39234 0.05089 0.76835 0.0
C2308 C 0.39574 0.02202 0.75123 0.0
C2309 C 0.39076 0.01181 0.76704 0.0
C2310 C 0.38551 0.02144 0.78309 0.0
C2311 C 0.38644 0.04069 0.78378 0.0
H2312 H 0.04754 0.36391 0.72176 0.0
H2313 H 0.0477 0.41016 0.7596 0.0
H2314 H 0.01442 0.36078 0.72494 0.0
H2315 H 0.01421 0.40775 0.76213 0.0
H2316 H 0.95227 0.3947 0.76589 0.0
H2317 H 0.98549 0.39159 0.77029 0.0
H2318 H 0.99146 0.37955 0.71199 0.0
H2319 H 0.95885 0.38209 0.70774 0.0
C2320 C 0.04044 0.37322 0.73101 0.0
C2321 C 0.05007 0.38736 0.7403 0.0
C2322 C 0.02145 0.37156 0.73274 0.0
C2323 C 0.01154 0.38435 0.74337 0.0
C2324 C 0.02137 0.39765 0.75383 0.0
C2325 C 0.04054 0.39907 0.75239 0.0
C2326 C 0.96071 0.39117 0.7541 0.0
C2327 C 0.95282 0.3887 0.73645 0.0
C2328 C 0.97974 0.38947 0.75661 0.0
C2329 C 0.99119 0.38514 0.74154 0.0
C2330 C 0.98314 0.38245 0.72404 0.0
C2331 C 0.96431 0.38412 0.72156 0.0
H2332 H 0.60104 0.96052 0.7112 0.0
H2333 H 0.6163 0.94562 0.76697 0.0
H2334 H 0.60241 0.993 0.71962 0.0
H2335 H 0.61834 0.97833 0.77527 0.0
H2336 H 0.59846 0.03693 0.78864 0.0
H2337 H 0.5994 0.00424 0.78074 0.0
H2338 H 0.62215 0.01799 0.72722 0.0
H2339 H 0.62055 0.05076 0.73488 0.0
C2340 C 0.60493 0.96416 0.72523 0.0
C2341 C 0.6085 0.95039 0.73842 0.0
C2342 C 0.60584 0.98287 0.73004 0.0
C2343 C 0.61053 0.98839 0.74813 0.0
C2344 C 0.61441 0.97462 0.76127 0.0
C2345 C 0.61334 0.95584 0.75649 0.0
C2346 C 0.60375 0.033 0.77521 0.0
C2347 C 0.60931 0.04652 0.76235 0.0
C2348 C 0.6044 0.01419 0.77071 0.0
C2349 C 0.6108 0.00839 0.7533 0.0
C2350 C 0.6168 0.02192 0.74062 0.0
C2351 C 0.61597 0.04074 0.74505 0.0
H2352 H 0.94845 0.401 0.23137 0.0
H2353 H 0.95964 0.37737 0.28496 0.0
H2354 H 0.98081 0.399 0.22342 0.0
H2355 H 0.9918 0.37444 0.27675 0.0
H2356 H 0.05052 0.3936 0.26598 0.0
H2357 H 0.01804 0.39265 0.27316 0.0
H2358 H 0.00572 0.38034 0.21582 0.0
H2359 H 0.03831 0.38222 0.20851 0.0
C2360 C 0.95778 0.39508 0.24133 0.0
C2361 C 0.95151 0.38952 0.25886 0.0
C2362 C 0.97637 0.39381 0.23675 0.0
C2363 C 0.98909 0.38666 0.24947 0.0
C2364 C 0.98259 0.38045 0.26674 0.0
C2365 C 0.96409 0.38202 0.27143 0.0
C2366 C 0.04091 0.39054 0.25491 0.0
C2367 C 0.04704 0.38807 0.23664 0.0
C2368 C 0.0222 0.38988 0.25905 0.0
C2369 C 0.0091 0.38643 0.24509 0.0
C2370 C 0.01531 0.3834 0.22689 0.0
C2371 C 0.03404 0.38434 0.2227 0.0
H2372 H 0.5986 0.05491 0.23809 0.0
H2373 H 0.62153 0.04246 0.29169 0.0
H2374 H 0.60103 0.02254 0.22917 0.0
H2375 H 0.62485 0.01025 0.28252 0.0
H2376 H 0.60628 0.95121 0.26936 0.0
H2377 H 0.60696 0.98373 0.27769 0.0
H2378 H 0.62014 0.99795 0.2211 0.0
H2379 H 0.61857 0.96531 0.2126 0.0
C2380 C 0.60444 0.0453 0.24787 0.0
C2381 C 0.60971 0.05122 0.26566 0.0
C2382 C 0.60597 0.02671 0.24271 0.0
C2383 C 0.61306 0.01363 0.25513 0.0
C2384 C 0.61892 0.01977 0.27271 0.0
C2385 C 0.61711 0.03828 0.27796 0.0
C2386 C 0.60947 0.96124 0.2587 0.0
C2387 C 0.61227 0.95562 0.24028 0.0
C2388 C 0.60998 0.97997 0.26351 0.0
C2389 C 0.61358 0.99361 0.25009 0.0
C2390 C 0.61696 0.98792 0.23176 0.0
C2391 C 0.61619 0.96917 0.22689 0.0
H2392 H 0.0543 0.59792 0.23228 0.0
H2393 H 0.04254 0.62408 0.28468 0.0
H2394 H 0.02193 0.59908 0.22402 0.0
H2395 H 0.01038 0.62616 0.27612 0.0
H2396 H 0.95216 0.60558 0.26644 0.0
H2397 H 0.98465 0.60706 0.27339 0.0
H2398 H 0.99649 0.61677 0.21556 0.0
H2399 H 0.96383 0.61437 0.20849 0.0
C2400 C 0.04484 0.60424 0.24189 0.0
C2401 C 0.05094 0.61072 0.25921 0.0
C2402 C 0.02625 0.605 0.23712 0.0
C2403 C 0.01337 0.61254 0.24946 0.0
C2404 C 0.01972 0.61978 0.26645 0.0
C2405 C 0.03822 0.61871 0.27133 0.0
C2406 C 0.96166 0.60813 0.25519 0.0
C2407 C 0.95535 0.60981 0.23689 0.0
C2408 C 0.98038 0.60912 0.2592 0.0
C2409 C 0.99335 0.61211 0.24507 0.0
C2410 C 0.987 0.61415 0.22678 0.0
C2411 C 0.96823 0.61289 0.22273 0.0
H2412 H 0.38445 0.05017 0.26117 0.0
H2413 H 0.39508 0.0436 0.20264 0.0
H2414 H 0.38162 0.01652 0.26423 0.0
H2415 H 0.39277 0.01042 0.20581 0.0
H2416 H 0.37389 0.95288 0.21051 0.0
H2417 H 0.37099 0.9863 0.21105 0.0
H2418 H 0.40051 0.98867 0.26293 0.0
H2419 H 0.40275 0.95486 0.2627 0.0
C2420 C 0.38611 0.04162 0.24896 0.0
C2421 C 0.38995 0.04966 0.23165 0.0
C2422 C 0.38459 0.02234 0.25075 0.0
C2423 C 0.38682 0.01075 0.23525 0.0
C2424 C 0.39054 0.01888 0.21799 0.0
C2425 C 0.39201 0.03801 0.21619 0.0
C2426 C 0.37956 0.96051 0.22216 0.0
C2427 C 0.38881 0.95131 0.23641 0.0
C2428 C 0.37798 0.97968 0.22244 0.0
C2429 C 0.38591 0.99024 0.2368 0.0
C2430 C 0.39423 0.98097 0.25167 0.0
C2431 C 0.39557 0.96162 0.25152 0.0
H2432 H 0.7339 0.05092 0.60901 0.0
H2433 H 0.79087 0.04088 0.6215 0.0
H2434 H 0.72726 0.01798 0.61143 0.0
H2435 H 0.78411 0.008 0.62469 0.0
H2436 H 0.76965 0.94913 0.60458 0.0
H2437 H 0.77702 0.98203 0.60603 0.0
H2438 H 0.7244 0.99236 0.63133 0.0
H2439 H 0.71677 0.95955 0.62914 0.0
C2440 C 0.74496 0.04172 0.61258 0.0
C2441 C 0.76294 0.04854 0.61492 0.0
C2442 C 0.74114 0.02279 0.61409 0.0
C2443 C 0.75516 0.01023 0.61821 0.0
C2444 C 0.77303 0.01717 0.62114 0.0
C2445 C 0.7769 0.03607 0.61941 0.0
C2446 C 0.75975 0.95841 0.61064 0.0
C2447 C 0.74256 0.95175 0.61658 0.0
C2448 C 0.764 0.9773 0.61155 0.0
C2449 C 0.75125 0.98996 0.61865 0.0
C2450 C 0.73439 0.98312 0.62537 0.0
C2451 C 0.73006 0.96428 0.62423 0.0
H2452 H 0.78963 0.0376 0.38024 0.0
H2453 H 0.73419 0.04959 0.39707 0.0
H2454 H 0.78166 0.00486 0.37797 0.0
H2455 H 0.72641 0.01684 0.39561 0.0
H2456 H 0.71286 0.95835 0.37906 0.0
H2457 H 0.72103 0.99099 0.37659 0.0
H2458 H 0.77541 0.97929 0.39703 0.0
H2459 H 0.76743 0.94656 0.39867 0.0
C2460 C 0.77574 0.03324 0.38349 0.0
C2461 C 0.76257 0.04622 0.3889 0.0
C2462 C 0.77119 0.01443 0.3823 0.0
C2463 C 0.75341 0.00808 0.38673 0.0
C2464 C 0.74016 0.02116 0.3918 0.0
C2465 C 0.74465 0.03999 0.39275 0.0
C2466 C 0.7266 0.96274 0.38289 0.0
C2467 C 0.73947 0.94986 0.38914 0.0
C2468 C 0.73127 0.98151 0.38159 0.0
C2469 C 0.74885 0.98791 0.38676 0.0
C2470 C 0.76183 0.97492 0.39265 0.0
C2471 C 0.75723 0.95611 0.3937 0.0
H2472 H 0.96157 0.71427 0.39886 0.0
H2473 H 0.9462 0.76965 0.38328 0.0
H2474 H 0.99369 0.7229 0.39635 0.0
H2475 H 0.97855 0.77815 0.38013 0.0
H2476 H 0.03744 0.7918 0.3996 0.0
H2477 H 0.00497 0.78397 0.39871 0.0
H2478 H 0.01759 0.73047 0.37544 0.0
H2479 H 0.0502 0.73806 0.37696 0.0
C2480 C 0.96502 0.72827 0.39468 0.0
C2481 C 0.95124 0.74129 0.39135 0.0
C2482 C 0.98352 0.73318 0.39309 0.0
C2483 C 0.98879 0.75122 0.38796 0.0
C2484 C 0.97501 0.7642 0.38436 0.0
C2485 C 0.95645 0.75931 0.38609 0.0
C2486 C 0.03332 0.77842 0.39413 0.0
C2487 C 0.04649 0.7655 0.3885 0.0
C2488 C 0.01463 0.77396 0.39352 0.0
C2489 C 0.00859 0.75653 0.38713 0.0
C2490 C 0.02174 0.74388 0.38082 0.0
C2491 C 0.04046 0.74827 0.38158 0.0
H2492 H 0.2355 0.0549 0.39817 0.0
H2493 H 0.2888 0.04378 0.3749 0.0
H2494 H 0.22776 0.02207 0.39655 0.0
H2495 H 0.28084 0.01108 0.37259 0.0
H2496 H 0.26993 0.9525 0.39428 0.0
H2497 H 0.27708 0.98536 0.39231 0.0
H2498 H 0.22081 0.99625 0.37746 0.0
H2499 H 0.21351 0.96343 0.38013 0.0
C2500 C 0.24545 0.04549 0.39239 0.0
C2501 C 0.26283 0.05195 0.38684 0.0
C2502 C 0.24098 0.02663 0.39138 0.0
C2503 C 0.25373 0.01381 0.38457 0.0
C2504 C 0.27083 0.02044 0.37831 0.0
C2505 C 0.27536 0.03924 0.37953 0.0
C2506 C 0.2591 0.96187 0.39045 0.0
C2507 C 0.24111 0.9553 0.38751 0.0
C2508 C 0.26322 0.98077 0.38921 0.0
C2509 C 0.24951 0.99357 0.38478 0.0
C2510 C 0.23164 0.98689 0.38126 0.0
C2511 C 0.22748 0.96802 0.38269 0.0
H2512 H 0.05826 0.23257 0.38582 0.0
H2513 H 0.04238 0.28902 0.3965 0.0
H2514 H 0.02599 0.22354 0.38315 0.0
H2515 H 0.01035 0.27993 0.3945 0.0
H2516 H 0.95417 0.26268 0.37569 0.0
H2517 H 0.98672 0.27035 0.37407 0.0
H2518 H 0.99939 0.21921 0.40185 0.0
H2519 H 0.96691 0.21123 0.40286 0.0
C2520 C 0.04792 0.24305 0.38764 0.0
C2521 C 0.05296 0.26152 0.39138 0.0
C2522 C 0.0294 0.23786 0.38619 0.0
C2523 C 0.0155 0.251 0.38858 0.0
C2524 C 0.02061 0.26948 0.3922 0.0
C2525 C 0.03906 0.27468 0.39349 0.0
C2526 C 0.9639 0.253 0.38133 0.0
C2527 C 0.95788 0.23639 0.3895 0.0
C2528 C 0.98259 0.25745 0.38049 0.0
C2529 C 0.99574 0.2455 0.38799 0.0
C2530 C 0.98973 0.22865 0.39572 0.0
C2531 C 0.97104 0.22412 0.3964 0.0
H2532 H 0.23588 0.05205 0.60013 0.0
H2533 H 0.28984 0.04129 0.62198 0.0
H2534 H 0.22846 0.01917 0.60144 0.0
H2535 H 0.28218 0.00852 0.62416 0.0
H2536 H 0.27066 0.94932 0.60487 0.0
H2537 H 0.2779 0.98222 0.60568 0.0
H2538 H 0.22174 0.9938 0.62044 0.0
H2539 H 0.21434 0.96091 0.61875 0.0
C2540 C 0.24607 0.04268 0.60548 0.0
C2541 C 0.26349 0.04928 0.61083 0.0
C2542 C 0.24178 0.02379 0.60635 0.0
C2543 C 0.25472 0.01105 0.61287 0.0
C2544 C 0.27198 0.01778 0.61868 0.0
C2545 C 0.27636 0.03663 0.61754 0.0
C2546 C 0.25988 0.95888 0.60841 0.0
C2547 C 0.2419 0.95247 0.61164 0.0
C2548 C 0.26405 0.9778 0.60897 0.0
C2549 C 0.25041 0.99081 0.61307 0.0
C2550 C 0.23253 0.9843 0.61684 0.0
C2551 C 0.2283 0.96539 0.616 0.0
H2552 H 0.95202 0.2356 0.60964 0.0
H2553 H 0.96082 0.29488 0.61036 0.0
H2554 H 0.98514 0.23124 0.61392 0.0
H2555 H 0.99326 0.29053 0.61412 0.0
H2556 H 0.04803 0.28252 0.6356 0.0
H2557 H 0.01474 0.28071 0.63696 0.0
H2558 H 0.01484 0.23603 0.59709 0.0
H2559 H 0.04851 0.2374 0.59637 0.0
C2560 C 0.96092 0.24766 0.61076 0.0
C2561 C 0.95364 0.26559 0.60971 0.0
C2562 C 0.97988 0.24516 0.61313 0.0
C2563 C 0.99185 0.26054 0.61463 0.0
C2564 C 0.98448 0.27835 0.61353 0.0
C2565 C 0.96574 0.28083 0.61118 0.0
C2566 C 0.04096 0.27204 0.62742 0.0
C2567 C 0.05079 0.26029 0.61568 0.0
C2568 C 0.02188 0.27105 0.62811 0.0
C2569 C 0.01207 0.25856 0.61674 0.0
C2570 C 0.02196 0.24582 0.606 0.0
C2571 C 0.04122 0.24661 0.60555 0.0
H2572 H 0.04712 0.72097 0.63908 0.0
H2573 H 0.04817 0.76065 0.59466 0.0
H2574 H 0.01413 0.72472 0.64217 0.0
H2575 H 0.01479 0.76368 0.59689 0.0
H2576 H 0.95298 0.76787 0.6089 0.0
H2577 H 0.98632 0.77163 0.6126 0.0
H2578 H 0.99063 0.71303 0.62315 0.0
H2579 H 0.95797 0.70943 0.62014 0.0
C2580 C 0.04025 0.73071 0.63015 0.0
C2581 C 0.05008 0.74039 0.61654 0.0
C2582 C 0.02132 0.73276 0.63177 0.0
C2583 C 0.01166 0.74408 0.6194 0.0
C2584 C 0.02174 0.75485 0.60666 0.0
C2585 C 0.04085 0.75311 0.60534 0.0
C2586 C 0.9611 0.75588 0.61225 0.0
C2587 C 0.9527 0.73834 0.61415 0.0
C2588 C 0.9802 0.75802 0.61428 0.0
C2589 C 0.99123 0.74268 0.61836 0.0
C2590 C 0.98268 0.7253 0.62049 0.0
C2591 C 0.9638 0.72318 0.61852 0.0
loop_
_geom_bond_atom_site_label_1
_geom_bond_atom_site_label_2
_geom_bond_distance
_geom_bond_site_symmetry_2
_ccdc_geom_bond_type
Co0 O1 2.216 . S
Co0 O2 2.091 . S
Co0 O4 2.004 . S
Co0 O10 2.021 . S
Co0 O12 2.137 . S
Co0 O13 2.244 . S
O1 Co0 2.216 . S
O1 C8 1.247 . S
O2 Co0 2.091 . S
O2 C8 1.261 . S
C3 O12 1.247 . S
C3 O13 1.272 . S
O4 Co0 2.004 . S
O4 C9 1.259 . S
Co5 O6 2.061 . S
Co5 O11 2.052 . S
Co5 O13 2.135 . S
O6 Co5 2.061 . S
O6 C9 1.235 . S
C7 O10 1.238 . S
C7 O11 1.241 . S
C8 O1 1.247 . S
C8 O2 1.261 . S
C9 O4 1.259 . S
C9 O6 1.235 . S
O10 Co0 2.021 . S
O10 C7 1.238 . S
O11 Co5 2.052 . S
O11 C7 1.241 . S
O12 Co0 2.137 . S
O12 C3 1.247 . S
O13 Co0 2.244 . S
O13 C3 1.272 . S
O13 Co5 2.135 . S
Co14 O15 2.216 . S
Co14 O16 2.091 . S
Co14 O18 2.004 . S
Co14 O24 2.021 . S
Co14 O26 2.137 . S
Co14 O27 2.244 . S
O15 Co14 2.216 . S
O15 C22 1.247 . S
O16 Co14 2.091 . S
O16 C22 1.261 . S
C17 O26 1.247 . S
C17 O27 1.272 . S
O18 Co14 2.004 . S
O18 C23 1.259 . S
Co19 O20 2.061 . S
Co19 O25 2.052 . S
Co19 O27 2.135 . S
O20 Co19 2.061 . S
O20 C23 1.235 . S
C21 O24 1.238 . S
C21 O25 1.241 . S
C22 O15 1.247 . S
C22 O16 1.261 . S
C23 O18 1.259 . S
C23 O20 1.235 . S
O24 Co14 2.021 . S
O24 C21 1.238 . S
O25 Co19 2.052 . S
O25 C21 1.241 . S
O26 Co14 2.137 . S
O26 C17 1.247 . S
O27 Co14 2.244 . S
O27 C17 1.272 . S
O27 Co19 2.135 . S
Co28 O29 2.216 . S
Co28 O30 2.091 . S
Co28 O32 2.004 . S
Co28 O38 2.021 . S
Co28 O40 2.137 . S
Co28 O41 2.244 . S
O29 Co28 2.216 . S
O29 C36 1.247 . S
O30 Co28 2.091 . S
O30 C36 1.261 . S
C31 O40 1.247 . S
C31 O41 1.272 . S
O32 Co28 2.004 . S
O32 C37 1.259 . S
Co33 O34 2.061 . S
Co33 O39 2.052 . S
Co33 O41 2.135 . S
O34 Co33 2.061 . S
O34 C37 1.235 . S
C35 O38 1.238 . S
C35 O39 1.241 . S
C36 O29 1.247 . S
C36 O30 1.261 . S
C37 O32 1.259 . S
C37 O34 1.235 . S
O38 Co28 2.021 . S
O38 C35 1.238 . S
O39 Co33 2.052 . S
O39 C35 1.241 . S
O40 Co28 2.137 . S
O40 C31 1.247 . S
O41 Co28 2.244 . S
O41 C31 1.272 . S
O41 Co33 2.135 . S
Co42 O43 2.216 . S
Co42 O44 2.091 . S
Co42 O46 2.004 . S
Co42 O52 2.021 . S
Co42 O54 2.137 . S
Co42 O55 2.244 . S
O43 Co42 2.216 . S
O43 C50 1.247 . S
O44 Co42 2.091 . S
O44 C50 1.261 . S
C45 O54 1.247 . S
C45 O55 1.272 . S
O46 Co42 2.004 . S
O46 C51 1.259 . S
Co47 O48 2.061 . S
Co47 O53 2.052 . S
Co47 O55 2.135 . S
O48 Co47 2.061 . S
O48 C51 1.235 . S
C49 O52 1.238 . S
C49 O53 1.241 . S
C50 O43 1.247 . S
C50 O44 1.261 . S
C51 O46 1.259 . S
C51 O48 1.235 . S
O52 Co42 2.021 . S
O52 C49 1.238 . S
O53 Co47 2.052 . S
O53 C49 1.241 . S
O54 Co42 2.137 . S
O54 C45 1.247 . S
O55 Co42 2.244 . S
O55 C45 1.272 . S
O55 Co47 2.135 . S
Co56 O57 2.216 . S
Co56 O58 2.091 . S
Co56 O60 2.004 . S
Co56 O66 2.021 . S
Co56 O68 2.137 . S
Co56 O69 2.244 . S
O57 Co56 2.216 . S
O57 C64 1.247 . S
O58 Co56 2.091 . S
O58 C64 1.261 . S
C59 O68 1.247 . S
C59 O69 1.272 . S
O60 Co56 2.004 . S
O60 C65 1.259 . S
Co61 O62 2.061 . S
Co61 O67 2.052 . S
Co61 O69 2.135 . S
O62 Co61 2.061 . S
O62 C65 1.235 . S
C63 O66 1.238 . S
C63 O67 1.241 . S
C64 O57 1.247 . S
C64 O58 1.261 . S
C65 O60 1.259 . S
C65 O62 1.235 . S
O66 Co56 2.021 . S
O66 C63 1.238 . S
O67 Co61 2.052 . S
O67 C63 1.241 . S
O68 Co56 2.137 . S
O68 C59 1.247 . S
O69 Co56 2.244 . S
O69 C59 1.272 . S
O69 Co61 2.135 . S
Co70 O71 2.216 . S
Co70 O72 2.091 . S
Co70 O74 2.004 . S
Co70 O80 2.021 . S
Co70 O82 2.137 . S
Co70 O83 2.244 . S
O71 Co70 2.216 . S
O71 C78 1.247 . S
O72 Co70 2.091 . S
O72 C78 1.261 . S
C73 O82 1.247 . S
C73 O83 1.272 . S
O74 Co70 2.004 . S
O74 C79 1.259 . S
Co75 O76 2.061 . S
Co75 O81 2.052 . S
Co75 O83 2.135 . S
O76 Co75 2.061 . S
O76 C79 1.235 . S
C77 O80 1.238 . S
C77 O81 1.241 . S
C78 O71 1.247 . S
C78 O72 1.261 . S
C79 O74 1.259 . S
C79 O76 1.235 . S
O80 Co70 2.021 . S
O80 C77 1.238 . S
O81 Co75 2.052 . S
O81 C77 1.241 . S
O82 Co70 2.137 . S
O82 C73 1.247 . S
O83 Co70 2.244 . S
O83 C73 1.272 . S
O83 Co75 2.135 . S
Co84 O85 2.216 . S
Co84 O86 2.091 . S
Co84 O88 2.004 . S
Co84 O94 2.021 . S
Co84 O96 2.137 . S
Co84 O97 2.244 . S
O85 Co84 2.216 . S
O85 C92 1.247 . S
O86 Co84 2.091 . S
O86 C92 1.261 . S
C87 O96 1.247 . S
C87 O97 1.272 . S
O88 Co84 2.004 . S
O88 C93 1.259 . S
Co89 O90 2.061 . S
Co89 O95 2.052 . S
Co89 O97 2.135 . S
O90 Co89 2.061 . S
O90 C93 1.235 . S
C91 O94 1.238 . S
C91 O95 1.241 . S
C92 O85 1.247 . S
C92 O86 1.261 . S
C93 O88 1.259 . S
C93 O90 1.235 . S
O94 Co84 2.021 . S
O94 C91 1.238 . S
O95 Co89 2.052 . S
O95 C91 1.241 . S
O96 Co84 2.137 . S
O96 C87 1.247 . S
O97 Co84 2.244 . S
O97 C87 1.272 . S
O97 Co89 2.135 . S
Co98 O99 2.216 . S
Co98 O100 2.091 . S
Co98 O102 2.004 . S
Co98 O108 2.021 . S
Co98 O110 2.137 . S
Co98 O111 2.244 . S
O99 Co98 2.216 . S
O99 C106 1.247 . S
O100 Co98 2.091 . S
O100 C106 1.261 . S
C101 O110 1.247 . S
C101 O111 1.272 . S
O102 Co98 2.004 . S
O102 C107 1.259 . S
Co103 O104 2.061 . S
Co103 O109 2.052 . S
Co103 O111 2.135 . S
O104 Co103 2.061 . S
O104 C107 1.235 . S
C105 O108 1.238 . S
C105 O109 1.241 . S
C106 O99 1.247 . S
C106 O100 1.261 . S
C107 O102 1.259 . S
C107 O104 1.235 . S
O108 Co98 2.021 . S
O108 C105 1.238 . S
O109 Co103 2.052 . S
O109 C105 1.241 . S
O110 Co98 2.137 . S
O110 C101 1.247 . S
O111 Co98 2.244 . S
O111 C101 1.272 . S
O111 Co103 2.135 . S
Co112 O113 2.216 . S
Co112 O114 2.091 . S
Co112 O116 2.004 . S
Co112 O122 2.021 . S
Co112 O124 2.137 . S
Co112 O125 2.244 . S
O113 Co112 2.216 . S
O113 C120 1.247 . S
O114 Co112 2.091 . S
O114 C120 1.261 . S
C115 O124 1.247 . S
C115 O125 1.272 . S
O116 Co112 2.004 . S
O116 C121 1.259 . S
Co117 O118 2.061 . S
Co117 O123 2.052 . S
Co117 O125 2.135 . S
O118 Co117 2.061 . S
O118 C121 1.235 . S
C119 O122 1.238 . S
C119 O123 1.241 . S
C120 O113 1.247 . S
C120 O114 1.261 . S
C121 O116 1.259 . S
C121 O118 1.235 . S
O122 Co112 2.021 . S
O122 C119 1.238 . S
O123 Co117 2.052 . S
O123 C119 1.241 . S
O124 Co112 2.137 . S
O124 C115 1.247 . S
O125 Co112 2.244 . S
O125 C115 1.272 . S
O125 Co117 2.135 . S
Co126 O127 2.216 . S
Co126 O128 2.091 . S
Co126 O130 2.004 . S
Co126 O136 2.021 . S
Co126 O138 2.137 . S
Co126 O139 2.244 . S
O127 Co126 2.216 . S
O127 C134 1.247 . S
O128 Co126 2.091 . S
O128 C134 1.261 . S
C129 O138 1.247 . S
C129 O139 1.272 . S
O130 Co126 2.004 . S
O130 C135 1.259 . S
Co131 O132 2.061 . S
Co131 O137 2.052 . S
Co131 O139 2.135 . S
O132 Co131 2.061 . S
O132 C135 1.235 . S
C133 O136 1.238 . S
C133 O137 1.241 . S
C134 O127 1.247 . S
C134 O128 1.261 . S
C135 O130 1.259 . S
C135 O132 1.235 . S
O136 Co126 2.021 . S
O136 C133 1.238 . S
O137 Co131 2.052 . S
O137 C133 1.241 . S
O138 Co126 2.137 . S
O138 C129 1.247 . S
O139 Co126 2.244 . S
O139 C129 1.272 . S
O139 Co131 2.135 . S
Co140 O141 2.216 . S
Co140 O142 2.091 . S
Co140 O144 2.004 . S
Co140 O150 2.021 . S
Co140 O152 2.137 . S
Co140 O153 2.244 . S
O141 Co140 2.216 . S
O141 C148 1.247 . S
O142 Co140 2.091 . S
O142 C148 1.261 . S
C143 O152 1.247 . S
C143 O153 1.272 . S
O144 Co140 2.004 . S
O144 C149 1.259 . S
Co145 O146 2.061 . S
Co145 O151 2.052 . S
Co145 O153 2.135 . S
O146 Co145 2.061 . S
O146 C149 1.235 . S
C147 O150 1.238 . S
C147 O151 1.241 . S
C148 O141 1.247 . S
C148 O142 1.261 . S
C149 O144 1.259 . S
C149 O146 1.235 . S
O150 Co140 2.021 . S
O150 C147 1.238 . S
O151 Co145 2.052 . S
O151 C147 1.241 . S
O152 Co140 2.137 . S
O152 C143 1.247 . S
O153 Co140 2.244 . S
O153 C143 1.272 . S
O153 Co145 2.135 . S
Co154 O155 2.216 . S
Co154 O156 2.091 . S
Co154 O158 2.004 . S
Co154 O164 2.021 . S
Co154 O166 2.137 . S
Co154 O167 2.244 . S
O155 Co154 2.216 . S
O155 C162 1.247 . S
O156 Co154 2.091 . S
O156 C162 1.261 . S
C157 O166 1.247 . S
C157 O167 1.272 . S
O158 Co154 2.004 . S
O158 C163 1.259 . S
Co159 O160 2.061 . S
Co159 O165 2.052 . S
Co159 O167 2.135 . S
O160 Co159 2.061 . S
O160 C163 1.235 . S
C161 O164 1.238 . S
C161 O165 1.241 . S
C162 O155 1.247 . S
C162 O156 1.261 . S
C163 O158 1.259 . S
C163 O160 1.235 . S
O164 Co154 2.021 . S
O164 C161 1.238 . S
O165 Co159 2.052 . S
O165 C161 1.241 . S
O166 Co154 2.137 . S
O166 C157 1.247 . S
O167 Co154 2.244 . S
O167 C157 1.272 . S
O167 Co159 2.135 . S
Co168 O169 2.216 . S
Co168 O170 2.091 . S
Co168 O172 2.004 . S
Co168 O178 2.021 . S
Co168 O180 2.137 . S
Co168 O181 2.244 . S
O169 Co168 2.216 . S
O169 C176 1.247 . S
O170 Co168 2.091 . S
O170 C176 1.261 . S
C171 O180 1.247 . S
C171 O181 1.272 . S
O172 Co168 2.004 . S
O172 C177 1.259 . S
Co173 O174 2.061 . S
Co173 O179 2.052 . S
Co173 O181 2.135 . S
O174 Co173 2.061 . S
O174 C177 1.235 . S
C175 O178 1.238 . S
C175 O179 1.241 . S
C176 O169 1.247 . S
C176 O170 1.261 . S
C177 O172 1.259 . S
C177 O174 1.235 . S
O178 Co168 2.021 . S
O178 C175 1.238 . S
O179 Co173 2.052 . S
O179 C175 1.241 . S
O180 Co168 2.137 . S
O180 C171 1.247 . S
O181 Co168 2.244 . S
O181 C171 1.272 . S
O181 Co173 2.135 . S
Co182 O183 2.216 . S
Co182 O184 2.091 . S
Co182 O186 2.004 . S
Co182 O192 2.021 . S
Co182 O194 2.137 . S
Co182 O195 2.244 . S
O183 Co182 2.216 . S
O183 C190 1.247 . S
O184 Co182 2.091 . S
O184 C190 1.261 . S
C185 O194 1.247 . S
C185 O195 1.272 . S
O186 Co182 2.004 . S
O186 C191 1.259 . S
Co187 O188 2.061 . S
Co187 O193 2.052 . S
Co187 O195 2.135 . S
O188 Co187 2.061 . S
O188 C191 1.235 . S
C189 O192 1.238 . S
C189 O193 1.241 . S
C190 O183 1.247 . S
C190 O184 1.261 . S
C191 O186 1.259 . S
C191 O188 1.235 . S
O192 Co182 2.021 . S
O192 C189 1.238 . S
O193 Co187 2.052 . S
O193 C189 1.241 . S
O194 Co182 2.137 . S
O194 C185 1.247 . S
O195 Co182 2.244 . S
O195 C185 1.272 . S
O195 Co187 2.135 . S
Co196 O197 2.216 . S
Co196 O198 2.091 . S
Co196 O200 2.004 . S
Co196 O206 2.021 . S
Co196 O208 2.137 . S
Co196 O209 2.244 . S
O197 Co196 2.216 . S
O197 C204 1.247 . S
O198 Co196 2.091 . S
O198 C204 1.261 . S
C199 O208 1.247 . S
C199 O209 1.272 . S
O200 Co196 2.004 . S
O200 C205 1.259 . S
Co201 O202 2.061 . S
Co201 O207 2.052 . S
Co201 O209 2.135 . S
O202 Co201 2.061 . S
O202 C205 1.235 . S
C203 O206 1.238 . S
C203 O207 1.241 . S
C204 O197 1.247 . S
C204 O198 1.261 . S
C205 O200 1.259 . S
C205 O202 1.235 . S
O206 Co196 2.021 . S
O206 C203 1.238 . S
O207 Co201 2.052 . S
O207 C203 1.241 . S
O208 Co196 2.137 . S
O208 C199 1.247 . S
O209 Co196 2.244 . S
O209 C199 1.272 . S
O209 Co201 2.135 . S
Co210 O211 2.216 . S
Co210 O212 2.091 . S
Co210 O214 2.004 . S
Co210 O220 2.021 . S
Co210 O222 2.137 . S
Co210 O223 2.244 . S
O211 Co210 2.216 . S
O211 C218 1.247 . S
O212 Co210 2.091 . S
O212 C218 1.261 . S
C213 O222 1.247 . S
C213 O223 1.272 . S
O214 Co210 2.004 . S
O214 C219 1.259 . S
Co215 O216 2.061 . S
Co215 O221 2.052 . S
Co215 O223 2.135 . S
O216 Co215 2.061 . S
O216 C219 1.235 . S
C217 O220 1.238 . S
C217 O221 1.241 . S
C218 O211 1.247 . S
C218 O212 1.261 . S
C219 O214 1.259 . S
C219 O216 1.235 . S
O220 Co210 2.021 . S
O220 C217 1.238 . S
O221 Co215 2.052 . S
O221 C217 1.241 . S
O222 Co210 2.137 . S
O222 C213 1.247 . S
O223 Co210 2.244 . S
O223 C213 1.272 . S
O223 Co215 2.135 . S
Co224 O225 2.216 . S
Co224 O226 2.091 . S
Co224 O228 2.004 . S
Co224 O234 2.021 . S
Co224 O236 2.137 . S
Co224 O237 2.244 . S
O225 Co224 2.216 . S
O225 C232 1.247 . S
O226 Co224 2.091 . S
O226 C232 1.261 . S
C227 O236 1.247 . S
C227 O237 1.272 . S
O228 Co224 2.004 . S
O228 C233 1.259 . S
Co229 O230 2.061 . S
Co229 O235 2.052 . S
Co229 O237 2.135 . S
O230 Co229 2.061 . S
O230 C233 1.235 . S
C231 O234 1.238 . S
C231 O235 1.241 . S
C232 O225 1.247 . S
C232 O226 1.261 . S
C233 O228 1.259 . S
C233 O230 1.235 . S
O234 Co224 2.021 . S
O234 C231 1.238 . S
O235 Co229 2.052 . S
O235 C231 1.241 . S
O236 Co224 2.137 . S
O236 C227 1.247 . S
O237 Co224 2.244 . S
O237 C227 1.272 . S
O237 Co229 2.135 . S
Co238 O239 2.216 . S
Co238 O240 2.091 . S
Co238 O242 2.004 . S
Co238 O248 2.021 . S
Co238 O250 2.137 . S
Co238 O251 2.244 . S
O239 Co238 2.216 . S
O239 C246 1.247 . S
O240 Co238 2.091 . S
O240 C246 1.261 . S
C241 O250 1.247 . S
C241 O251 1.272 . S
O242 Co238 2.004 . S
O242 C247 1.259 . S
Co243 O244 2.061 . S
Co243 O249 2.052 . S
Co243 O251 2.135 . S
O244 Co243 2.061 . S
O244 C247 1.235 . S
C245 O248 1.238 . S
C245 O249 1.241 . S
C246 O239 1.247 . S
C246 O240 1.261 . S
C247 O242 1.259 . S
C247 O244 1.235 . S
O248 Co238 2.021 . S
O248 C245 1.238 . S
O249 Co243 2.052 . S
O249 C245 1.241 . S
O250 Co238 2.137 . S
O250 C241 1.247 . S
O251 Co238 2.244 . S
O251 C241 1.272 . S
O251 Co243 2.135 . S
Co252 O253 2.216 . S
Co252 O254 2.091 . S
Co252 O256 2.004 . S
Co252 O262 2.021 . S
Co252 O264 2.137 . S
Co252 O265 2.244 . S
O253 Co252 2.216 . S
O253 C260 1.247 . S
O254 Co252 2.091 . S
O254 C260 1.261 . S
C255 O264 1.247 . S
C255 O265 1.272 . S
O256 Co252 2.004 . S
O256 C261 1.259 . S
Co257 O258 2.061 . S
Co257 O263 2.052 . S
Co257 O265 2.135 . S
O258 Co257 2.061 . S
O258 C261 1.235 . S
C259 O262 1.238 . S
C259 O263 1.241 . S
C260 O253 1.247 . S
C260 O254 1.261 . S
C261 O256 1.259 . S
C261 O258 1.235 . S
O262 Co252 2.021 . S
O262 C259 1.238 . S
O263 Co257 2.052 . S
O263 C259 1.241 . S
O264 Co252 2.137 . S
O264 C255 1.247 . S
O265 Co252 2.244 . S
O265 C255 1.272 . S
O265 Co257 2.135 . S
Co266 O267 2.216 . S
Co266 O268 2.091 . S
Co266 O270 2.004 . S
Co266 O276 2.021 . S
Co266 O278 2.137 . S
Co266 O279 2.244 . S
O267 Co266 2.216 . S
O267 C274 1.247 . S
O268 Co266 2.091 . S
O268 C274 1.261 . S
C269 O278 1.247 . S
C269 O279 1.272 . S
O270 Co266 2.004 . S
O270 C275 1.259 . S
Co271 O272 2.061 . S
Co271 O277 2.052 . S
Co271 O279 2.135 . S
O272 Co271 2.061 . S
O272 C275 1.235 . S
C273 O276 1.238 . S
C273 O277 1.241 . S
C274 O267 1.247 . S
C274 O268 1.261 . S
C275 O270 1.259 . S
C275 O272 1.235 . S
O276 Co266 2.021 . S
O276 C273 1.238 . S
O277 Co271 2.052 . S
O277 C273 1.241 . S
O278 Co266 2.137 . S
O278 C269 1.247 . S
O279 Co266 2.244 . S
O279 C269 1.272 . S
O279 Co271 2.135 . S
Co280 O281 2.216 . S
Co280 O282 2.091 . S
Co280 O284 2.004 . S
Co280 O290 2.021 . S
Co280 O292 2.137 . S
Co280 O293 2.244 . S
O281 Co280 2.216 . S
O281 C288 1.247 . S
O282 Co280 2.091 . S
O282 C288 1.261 . S
C283 O292 1.247 . S
C283 O293 1.272 . S
O284 Co280 2.004 . S
O284 C289 1.259 . S
Co285 O286 2.061 . S
Co285 O291 2.052 . S
Co285 O293 2.135 . S
O286 Co285 2.061 . S
O286 C289 1.235 . S
C287 O290 1.238 . S
C287 O291 1.241 . S
C288 O281 1.247 . S
C288 O282 1.261 . S
C289 O284 1.259 . S
C289 O286 1.235 . S
O290 Co280 2.021 . S
O290 C287 1.238 . S
O291 Co285 2.052 . S
O291 C287 1.241 . S
O292 Co280 2.137 . S
O292 C283 1.247 . S
O293 Co280 2.244 . S
O293 C283 1.272 . S
O293 Co285 2.135 . S
Co294 O295 2.216 . S
Co294 O296 2.091 . S
Co294 O298 2.004 . S
Co294 O304 2.021 . S
Co294 O306 2.137 . S
Co294 O307 2.244 . S
O295 Co294 2.216 . S
O295 C302 1.247 . S
O296 Co294 2.091 . S
O296 C302 1.261 . S
C297 O306 1.247 . S
C297 O307 1.272 . S
O298 Co294 2.004 . S
O298 C303 1.259 . S
Co299 O300 2.061 . S
Co299 O305 2.052 . S
Co299 O307 2.135 . S
O300 Co299 2.061 . S
O300 C303 1.235 . S
C301 O304 1.238 . S
C301 O305 1.241 . S
C302 O295 1.247 . S
C302 O296 1.261 . S
C303 O298 1.259 . S
C303 O300 1.235 . S
O304 Co294 2.021 . S
O304 C301 1.238 . S
O305 Co299 2.052 . S
O305 C301 1.241 . S
O306 Co294 2.137 . S
O306 C297 1.247 . S
O307 Co294 2.244 . S
O307 C297 1.272 . S
O307 Co299 2.135 . S
Co308 O309 2.216 . S
Co308 O310 2.091 . S
Co308 O312 2.004 . S
Co308 O318 2.021 . S
Co308 O320 2.137 . S
Co308 O321 2.244 . S
O309 Co308 2.216 . S
O309 C316 1.247 . S
O310 Co308 2.091 . S
O310 C316 1.261 . S
C311 O320 1.247 . S
C311 O321 1.272 . S
O312 Co308 2.004 . S
O312 C317 1.259 . S
Co313 O314 2.061 . S
Co313 O319 2.052 . S
Co313 O321 2.135 . S
O314 Co313 2.061 . S
O314 C317 1.235 . S
C315 O318 1.238 . S
C315 O319 1.241 . S
C316 O309 1.247 . S
C316 O310 1.261 . S
C317 O312 1.259 . S
C317 O314 1.235 . S
O318 Co308 2.021 . S
O318 C315 1.238 . S
O319 Co313 2.052 . S
O319 C315 1.241 . S
O320 Co308 2.137 . S
O320 C311 1.247 . S
O321 Co308 2.244 . S
O321 C311 1.272 . S
O321 Co313 2.135 . S
Co322 O323 2.216 . S
Co322 O324 2.091 . S
Co322 O326 2.004 . S
Co322 O332 2.021 . S
Co322 O334 2.137 . S
Co322 O335 2.244 . S
O323 Co322 2.216 . S
O323 C330 1.247 . S
O324 Co322 2.091 . S
O324 C330 1.261 . S
C325 O334 1.247 . S
C325 O335 1.272 . S
O326 Co322 2.004 . S
O326 C331 1.259 . S
Co327 O328 2.061 . S
Co327 O333 2.052 . S
Co327 O335 2.135 . S
O328 Co327 2.061 . S
O328 C331 1.235 . S
C329 O332 1.238 . S
C329 O333 1.241 . S
C330 O323 1.247 . S
C330 O324 1.261 . S
C331 O326 1.259 . S
C331 O328 1.235 . S
O332 Co322 2.021 . S
O332 C329 1.238 . S
O333 Co327 2.052 . S
O333 C329 1.241 . S
O334 Co322 2.137 . S
O334 C325 1.247 . S
O335 Co322 2.244 . S
O335 C325 1.272 . S
O335 Co327 2.135 . S
Co336 O337 2.216 . S
Co336 O338 2.091 . S
Co336 O340 2.004 . S
Co336 O346 2.021 . S
Co336 O348 2.137 . S
Co336 O349 2.244 . S
O337 Co336 2.216 . S
O337 C344 1.247 . S
O338 Co336 2.091 . S
O338 C344 1.261 . S
C339 O348 1.247 . S
C339 O349 1.272 . S
O340 Co336 2.004 . S
O340 C345 1.259 . S
Co341 O342 2.061 . S
Co341 O347 2.052 . S
Co341 O349 2.135 . S
O342 Co341 2.061 . S
O342 C345 1.235 . S
C343 O346 1.238 . S
C343 O347 1.241 . S
C344 O337 1.247 . S
C344 O338 1.261 . S
C345 O340 1.259 . S
C345 O342 1.235 . S
O346 Co336 2.021 . S
O346 C343 1.238 . S
O347 Co341 2.052 . S
O347 C343 1.241 . S
O348 Co336 2.137 . S
O348 C339 1.247 . S
O349 Co336 2.244 . S
O349 C339 1.272 . S
O349 Co341 2.135 . S
Co350 O351 2.216 . S
Co350 O352 2.091 . S
Co350 O354 2.004 . S
Co350 O360 2.021 . S
Co350 O362 2.137 . S
Co350 O363 2.244 . S
O351 Co350 2.216 . S
O351 C358 1.247 . S
O352 Co350 2.091 . S
O352 C358 1.261 . S
C353 O362 1.247 . S
C353 O363 1.272 . S
O354 Co350 2.004 . S
O354 C359 1.259 . S
Co355 O356 2.061 . S
Co355 O361 2.052 . S
Co355 O363 2.135 . S
O356 Co355 2.061 . S
O356 C359 1.235 . S
C357 O360 1.238 . S
C357 O361 1.241 . S
C358 O351 1.247 . S
C358 O352 1.261 . S
C359 O354 1.259 . S
C359 O356 1.235 . S
O360 Co350 2.021 . S
O360 C357 1.238 . S
O361 Co355 2.052 . S
O361 C357 1.241 . S
O362 Co350 2.137 . S
O362 C353 1.247 . S
O363 Co350 2.244 . S
O363 C353 1.272 . S
O363 Co355 2.135 . S
Co364 O365 2.216 . S
Co364 O366 2.091 . S
Co364 O368 2.004 . S
Co364 O374 2.021 . S
Co364 O376 2.137 . S
Co364 O377 2.244 . S
O365 Co364 2.216 . S
O365 C372 1.247 . S
O366 Co364 2.091 . S
O366 C372 1.261 . S
C367 O376 1.247 . S
C367 O377 1.272 . S
O368 Co364 2.004 . S
O368 C373 1.259 . S
Co369 O370 2.061 . S
Co369 O375 2.052 . S
Co369 O377 2.135 . S
O370 Co369 2.061 . S
O370 C373 1.235 . S
C371 O374 1.238 . S
C371 O375 1.241 . S
C372 O365 1.247 . S
C372 O366 1.261 . S
C373 O368 1.259 . S
C373 O370 1.235 . S
O374 Co364 2.021 . S
O374 C371 1.238 . S
O375 Co369 2.052 . S
O375 C371 1.241 . S
O376 Co364 2.137 . S
O376 C367 1.247 . S
O377 Co364 2.244 . S
O377 C367 1.272 . S
O377 Co369 2.135 . S
Co378 O379 2.216 . S
Co378 O380 2.091 . S
Co378 O382 2.004 . S
Co378 O388 2.021 . S
Co378 O390 2.137 . S
Co378 O391 2.244 . S
O379 Co378 2.216 . S
O379 C386 1.247 . S
O380 Co378 2.091 . S
O380 C386 1.261 . S
C381 O390 1.247 . S
C381 O391 1.272 . S
O382 Co378 2.004 . S
O382 C387 1.259 . S
Co383 O384 2.061 . S
Co383 O389 2.052 . S
Co383 O391 2.135 . S
O384 Co383 2.061 . S
O384 C387 1.235 . S
C385 O388 1.238 . S
C385 O389 1.241 . S
C386 O379 1.247 . S
C386 O380 1.261 . S
C387 O382 1.259 . S
C387 O384 1.235 . S
O388 Co378 2.021 . S
O388 C385 1.238 . S
O389 Co383 2.052 . S
O389 C385 1.241 . S
O390 Co378 2.137 . S
O390 C381 1.247 . S
O391 Co378 2.244 . S
O391 C381 1.272 . S
O391 Co383 2.135 . S
Co392 O393 2.216 . S
Co392 O394 2.091 . S
Co392 O396 2.004 . S
Co392 O402 2.021 . S
Co392 O404 2.137 . S
Co392 O405 2.244 . S
O393 Co392 2.216 . S
O393 C400 1.247 . S
O394 Co392 2.091 . S
O394 C400 1.261 . S
C395 O404 1.247 . S
C395 O405 1.272 . S
O396 Co392 2.004 . S
O396 C401 1.259 . S
Co397 O398 2.061 . S
Co397 O403 2.052 . S
Co397 O405 2.135 . S
O398 Co397 2.061 . S
O398 C401 1.235 . S
C399 O402 1.238 . S
C399 O403 1.241 . S
C400 O393 1.247 . S
C400 O394 1.261 . S
C401 O396 1.259 . S
C401 O398 1.235 . S
O402 Co392 2.021 . S
O402 C399 1.238 . S
O403 Co397 2.052 . S
O403 C399 1.241 . S
O404 Co392 2.137 . S
O404 C395 1.247 . S
O405 Co392 2.244 . S
O405 C395 1.272 . S
O405 Co397 2.135 . S
Co406 O407 2.216 . S
Co406 O408 2.091 . S
Co406 O410 2.004 . S
Co406 O416 2.021 . S
Co406 O418 2.137 . S
Co406 O419 2.244 . S
O407 Co406 2.216 . S
O407 C414 1.247 . S
O408 Co406 2.091 . S
O408 C414 1.261 . S
C409 O418 1.247 . S
C409 O419 1.272 . S
O410 Co406 2.004 . S
O410 C415 1.259 . S
Co411 O412 2.061 . S
Co411 O417 2.052 . S
Co411 O419 2.135 . S
O412 Co411 2.061 . S
O412 C415 1.235 . S
C413 O416 1.238 . S
C413 O417 1.241 . S
C414 O407 1.247 . S
C414 O408 1.261 . S
C415 O410 1.259 . S
C415 O412 1.235 . S
O416 Co406 2.021 . S
O416 C413 1.238 . S
O417 Co411 2.052 . S
O417 C413 1.241 . S
O418 Co406 2.137 . S
O418 C409 1.247 . S
O419 Co406 2.244 . S
O419 C409 1.272 . S
O419 Co411 2.135 . S
Co420 O421 2.216 . S
Co420 O422 2.091 . S
Co420 O424 2.004 . S
Co420 O430 2.021 . S
Co420 O432 2.137 . S
Co420 O433 2.244 . S
O421 Co420 2.216 . S
O421 C428 1.247 . S
O422 Co420 2.091 . S
O422 C428 1.261 . S
C423 O432 1.247 . S
C423 O433 1.272 . S
O424 Co420 2.004 . S
O424 C429 1.259 . S
Co425 O426 2.061 . S
Co425 O431 2.052 . S
Co425 O433 2.135 . S
O426 Co425 2.061 . S
O426 C429 1.235 . S
C427 O430 1.238 . S
C427 O431 1.241 . S
C428 O421 1.247 . S
C428 O422 1.261 . S
C429 O424 1.259 . S
C429 O426 1.235 . S
O430 Co420 2.021 . S
O430 C427 1.238 . S
O431 Co425 2.052 . S
O431 C427 1.241 . S
O432 Co420 2.137 . S
O432 C423 1.247 . S
O433 Co420 2.244 . S
O433 C423 1.272 . S
O433 Co425 2.135 . S
Co434 O435 2.216 . S
Co434 O436 2.091 . S
Co434 O438 2.004 . S
Co434 O444 2.021 . S
Co434 O446 2.137 . S
Co434 O447 2.244 . S
O435 Co434 2.216 . S
O435 C442 1.247 . S
O436 Co434 2.091 . S
O436 C442 1.261 . S
C437 O446 1.247 . S
C437 O447 1.272 . S
O438 Co434 2.004 . S
O438 C443 1.259 . S
Co439 O440 2.061 . S
Co439 O445 2.052 . S
Co439 O447 2.135 . S
O440 Co439 2.061 . S
O440 C443 1.235 . S
C441 O444 1.238 . S
C441 O445 1.241 . S
C442 O435 1.247 . S
C442 O436 1.261 . S
C443 O438 1.259 . S
C443 O440 1.235 . S
O444 Co434 2.021 . S
O444 C441 1.238 . S
O445 Co439 2.052 . S
O445 C441 1.241 . S
O446 Co434 2.137 . S
O446 C437 1.247 . S
O447 Co434 2.244 . S
O447 C437 1.272 . S
O447 Co439 2.135 . S
Co448 O449 2.216 . S
Co448 O450 2.091 . S
Co448 O452 2.004 . S
Co448 O458 2.021 . S
Co448 O460 2.137 . S
Co448 O461 2.244 . S
O449 Co448 2.216 . S
O449 C456 1.247 . S
O450 Co448 2.091 . S
O450 C456 1.261 . S
C451 O460 1.247 . S
C451 O461 1.272 . S
O452 Co448 2.004 . S
O452 C457 1.259 . S
Co453 O454 2.061 . S
Co453 O459 2.052 . S
Co453 O461 2.135 . S
O454 Co453 2.061 . S
O454 C457 1.235 . S
C455 O458 1.238 . S
C455 O459 1.241 . S
C456 O449 1.247 . S
C456 O450 1.261 . S
C457 O452 1.259 . S
C457 O454 1.235 . S
O458 Co448 2.021 . S
O458 C455 1.238 . S
O459 Co453 2.052 . S
O459 C455 1.241 . S
O460 Co448 2.137 . S
O460 C451 1.247 . S
O461 Co448 2.244 . S
O461 C451 1.272 . S
O461 Co453 2.135 . S
Co462 O463 2.216 . S
Co462 O464 2.091 . S
Co462 O466 2.004 . S
Co462 O472 2.021 . S
Co462 O474 2.137 . S
Co462 O475 2.244 . S
O463 Co462 2.216 . S
O463 C470 1.247 . S
O464 Co462 2.091 . S
O464 C470 1.261 . S
C465 O474 1.247 . S
C465 O475 1.272 . S
O466 Co462 2.004 . S
O466 C471 1.259 . S
Co467 O468 2.061 . S
Co467 O473 2.052 . S
Co467 O475 2.135 . S
O468 Co467 2.061 . S
O468 C471 1.235 . S
C469 O472 1.238 . S
C469 O473 1.241 . S
C470 O463 1.247 . S
C470 O464 1.261 . S
C471 O466 1.259 . S
C471 O468 1.235 . S
O472 Co462 2.021 . S
O472 C469 1.238 . S
O473 Co467 2.052 . S
O473 C469 1.241 . S
O474 Co462 2.137 . S
O474 C465 1.247 . S
O475 Co462 2.244 . S
O475 C465 1.272 . S
O475 Co467 2.135 . S
Co476 O477 2.216 . S
Co476 O478 2.091 . S
Co476 O480 2.004 . S
Co476 O486 2.021 . S
Co476 O488 2.137 . S
Co476 O489 2.244 . S
O477 Co476 2.216 . S
O477 C484 1.247 . S
O478 Co476 2.091 . S
O478 C484 1.261 . S
C479 O488 1.247 . S
C479 O489 1.272 . S
O480 Co476 2.004 . S
O480 C485 1.259 . S
Co481 O482 2.061 . S
Co481 O487 2.052 . S
Co481 O489 2.135 . S
O482 Co481 2.061 . S
O482 C485 1.235 . S
C483 O486 1.238 . S
C483 O487 1.241 . S
C484 O477 1.247 . S
C484 O478 1.261 . S
C485 O480 1.259 . S
C485 O482 1.235 . S
O486 Co476 2.021 . S
O486 C483 1.238 . S
O487 Co481 2.052 . S
O487 C483 1.241 . S
O488 Co476 2.137 . S
O488 C479 1.247 . S
O489 Co476 2.244 . S
O489 C479 1.272 . S
O489 Co481 2.135 . S
Co490 O491 2.216 . S
Co490 O492 2.091 . S
Co490 O494 2.004 . S
Co490 O500 2.021 . S
Co490 O502 2.137 . S
Co490 O503 2.244 . S
O491 Co490 2.216 . S
O491 C498 1.247 . S
O492 Co490 2.091 . S
O492 C498 1.261 . S
C493 O502 1.247 . S
C493 O503 1.272 . S
O494 Co490 2.004 . S
O494 C499 1.259 . S
Co495 O496 2.061 . S
Co495 O501 2.052 . S
Co495 O503 2.135 . S
O496 Co495 2.061 . S
O496 C499 1.235 . S
C497 O500 1.238 . S
C497 O501 1.241 . S
C498 O491 1.247 . S
C498 O492 1.261 . S
C499 O494 1.259 . S
C499 O496 1.235 . S
O500 Co490 2.021 . S
O500 C497 1.238 . S
O501 Co495 2.052 . S
O501 C497 1.241 . S
O502 Co490 2.137 . S
O502 C493 1.247 . S
O503 Co490 2.244 . S
O503 C493 1.272 . S
O503 Co495 2.135 . S
Co504 O505 2.216 . S
Co504 O506 2.091 . S
Co504 O508 2.004 . S
Co504 O514 2.021 . S
Co504 O516 2.137 . S
Co504 O517 2.244 . S
O505 Co504 2.216 . S
O505 C512 1.247 . S
O506 Co504 2.091 . S
O506 C512 1.261 . S
C507 O516 1.247 . S
C507 O517 1.272 . S
O508 Co504 2.004 . S
O508 C513 1.259 . S
Co509 O510 2.061 . S
Co509 O515 2.052 . S
Co509 O517 2.135 . S
O510 Co509 2.061 . S
O510 C513 1.235 . S
C511 O514 1.238 . S
C511 O515 1.241 . S
C512 O505 1.247 . S
C512 O506 1.261 . S
C513 O508 1.259 . S
C513 O510 1.235 . S
O514 Co504 2.021 . S
O514 C511 1.238 . S
O515 Co509 2.052 . S
O515 C511 1.241 . S
O516 Co504 2.137 . S
O516 C507 1.247 . S
O517 Co504 2.244 . S
O517 C507 1.272 . S
O517 Co509 2.135 . S
Co518 O519 2.216 . S
Co518 O520 2.091 . S
Co518 O522 2.004 . S
Co518 O528 2.021 . S
Co518 O530 2.137 . S
Co518 O531 2.244 . S
O519 Co518 2.216 . S
O519 C526 1.247 . S
O520 Co518 2.091 . S
O520 C526 1.261 . S
C521 O530 1.247 . S
C521 O531 1.272 . S
O522 Co518 2.004 . S
O522 C527 1.259 . S
Co523 O524 2.061 . S
Co523 O529 2.052 . S
Co523 O531 2.135 . S
O524 Co523 2.061 . S
O524 C527 1.235 . S
C525 O528 1.238 . S
C525 O529 1.241 . S
C526 O519 1.247 . S
C526 O520 1.261 . S
C527 O522 1.259 . S
C527 O524 1.235 . S
O528 Co518 2.021 . S
O528 C525 1.238 . S
O529 Co523 2.052 . S
O529 C525 1.241 . S
O530 Co518 2.137 . S
O530 C521 1.247 . S
O531 Co518 2.244 . S
O531 C521 1.272 . S
O531 Co523 2.135 . S
Co532 O533 2.216 . S
Co532 O534 2.091 . S
Co532 O536 2.004 . S
Co532 O542 2.021 . S
Co532 O544 2.137 . S
Co532 O545 2.244 . S
O533 Co532 2.216 . S
O533 C540 1.247 . S
O534 Co532 2.091 . S
O534 C540 1.261 . S
C535 O544 1.247 . S
C535 O545 1.272 . S
O536 Co532 2.004 . S
O536 C541 1.259 . S
Co537 O538 2.061 . S
Co537 O543 2.052 . S
Co537 O545 2.135 . S
O538 Co537 2.061 . S
O538 C541 1.235 . S
C539 O542 1.238 . S
C539 O543 1.241 . S
C540 O533 1.247 . S
C540 O534 1.261 . S
C541 O536 1.259 . S
C541 O538 1.235 . S
O542 Co532 2.021 . S
O542 C539 1.238 . S
O543 Co537 2.052 . S
O543 C539 1.241 . S
O544 Co532 2.137 . S
O544 C535 1.247 . S
O545 Co532 2.244 . S
O545 C535 1.272 . S
O545 Co537 2.135 . S
Co546 O547 2.216 . S
Co546 O548 2.091 . S
Co546 O550 2.004 . S
Co546 O556 2.021 . S
Co546 O558 2.137 . S
Co546 O559 2.244 . S
O547 Co546 2.216 . S
O547 C554 1.247 . S
O548 Co546 2.091 . S
O548 C554 1.261 . S
C549 O558 1.247 . S
C549 O559 1.272 . S
O550 Co546 2.004 . S
O550 C555 1.259 . S
Co551 O552 2.061 . S
Co551 O557 2.052 . S
Co551 O559 2.135 . S
O552 Co551 2.061 . S
O552 C555 1.235 . S
C553 O556 1.238 . S
C553 O557 1.241 . S
C554 O547 1.247 . S
C554 O548 1.261 . S
C555 O550 1.259 . S
C555 O552 1.235 . S
O556 Co546 2.021 . S
O556 C553 1.238 . S
O557 Co551 2.052 . S
O557 C553 1.241 . S
O558 Co546 2.137 . S
O558 C549 1.247 . S
O559 Co546 2.244 . S
O559 C549 1.272 . S
O559 Co551 2.135 . S
Co560 O561 2.216 . S
Co560 O562 2.091 . S
Co560 O564 2.004 . S
Co560 O570 2.021 . S
Co560 O572 2.137 . S
Co560 O573 2.244 . S
O561 Co560 2.216 . S
O561 C568 1.247 . S
O562 Co560 2.091 . S
O562 C568 1.261 . S
C563 O572 1.247 . S
C563 O573 1.272 . S
O564 Co560 2.004 . S
O564 C569 1.259 . S
Co565 O566 2.061 . S
Co565 O571 2.052 . S
Co565 O573 2.135 . S
O566 Co565 2.061 . S
O566 C569 1.235 . S
C567 O570 1.238 . S
C567 O571 1.241 . S
C568 O561 1.247 . S
C568 O562 1.261 . S
C569 O564 1.259 . S
C569 O566 1.235 . S
O570 Co560 2.021 . S
O570 C567 1.238 . S
O571 Co565 2.052 . S
O571 C567 1.241 . S
O572 Co560 2.137 . S
O572 C563 1.247 . S
O573 Co560 2.244 . S
O573 C563 1.272 . S
O573 Co565 2.135 . S
Co574 O575 2.216 . S
Co574 O576 2.091 . S
Co574 O578 2.004 . S
Co574 O584 2.021 . S
Co574 O586 2.137 . S
Co574 O587 2.244 . S
O575 Co574 2.216 . S
O575 C582 1.247 . S
O576 Co574 2.091 . S
O576 C582 1.261 . S
C577 O586 1.247 . S
C577 O587 1.272 . S
O578 Co574 2.004 . S
O578 C583 1.259 . S
Co579 O580 2.061 . S
Co579 O585 2.052 . S
Co579 O587 2.135 . S
O580 Co579 2.061 . S
O580 C583 1.235 . S
C581 O584 1.238 . S
C581 O585 1.241 . S
C582 O575 1.247 . S
C582 O576 1.261 . S
C583 O578 1.259 . S
C583 O580 1.235 . S
O584 Co574 2.021 . S
O584 C581 1.238 . S
O585 Co579 2.052 . S
O585 C581 1.241 . S
O586 Co574 2.137 . S
O586 C577 1.247 . S
O587 Co574 2.244 . S
O587 C577 1.272 . S
O587 Co579 2.135 . S
Co588 O589 2.216 . S
Co588 O590 2.091 . S
Co588 O592 2.004 . S
Co588 O598 2.021 . S
Co588 O600 2.137 . S
Co588 O601 2.244 . S
O589 Co588 2.216 . S
O589 C596 1.247 . S
O590 Co588 2.091 . S
O590 C596 1.261 . S
C591 O600 1.247 . S
C591 O601 1.272 . S
O592 Co588 2.004 . S
O592 C597 1.259 . S
Co593 O594 2.061 . S
Co593 O599 2.052 . S
Co593 O601 2.135 . S
O594 Co593 2.061 . S
O594 C597 1.235 . S
C595 O598 1.238 . S
C595 O599 1.241 . S
C596 O589 1.247 . S
C596 O590 1.261 . S
C597 O592 1.259 . S
C597 O594 1.235 . S
O598 Co588 2.021 . S
O598 C595 1.238 . S
O599 Co593 2.052 . S
O599 C595 1.241 . S
O600 Co588 2.137 . S
O600 C591 1.247 . S
O601 Co588 2.244 . S
O601 C591 1.272 . S
O601 Co593 2.135 . S
Co602 O603 2.216 . S
Co602 O604 2.091 . S
Co602 O606 2.004 . S
Co602 O612 2.021 . S
Co602 O614 2.137 . S
Co602 O615 2.244 . S
O603 Co602 2.216 . S
O603 C610 1.247 . S
O604 Co602 2.091 . S
O604 C610 1.261 . S
C605 O614 1.247 . S
C605 O615 1.272 . S
O606 Co602 2.004 . S
O606 C611 1.259 . S
Co607 O608 2.061 . S
Co607 O613 2.052 . S
Co607 O615 2.135 . S
O608 Co607 2.061 . S
O608 C611 1.235 . S
C609 O612 1.238 . S
C609 O613 1.241 . S
C610 O603 1.247 . S
C610 O604 1.261 . S
C611 O606 1.259 . S
C611 O608 1.235 . S
O612 Co602 2.021 . S
O612 C609 1.238 . S
O613 Co607 2.052 . S
O613 C609 1.241 . S
O614 Co602 2.137 . S
O614 C605 1.247 . S
O615 Co602 2.244 . S
O615 C605 1.272 . S
O615 Co607 2.135 . S
Co616 O617 2.216 . S
Co616 O618 2.091 . S
Co616 O620 2.004 . S
Co616 O626 2.021 . S
Co616 O628 2.137 . S
Co616 O629 2.244 . S
O617 Co616 2.216 . S
O617 C624 1.247 . S
O618 Co616 2.091 . S
O618 C624 1.261 . S
C619 O628 1.247 . S
C619 O629 1.272 . S
O620 Co616 2.004 . S
O620 C625 1.259 . S
Co621 O622 2.061 . S
Co621 O627 2.052 . S
Co621 O629 2.135 . S
O622 Co621 2.061 . S
O622 C625 1.235 . S
C623 O626 1.238 . S
C623 O627 1.241 . S
C624 O617 1.247 . S
C624 O618 1.261 . S
C625 O620 1.259 . S
C625 O622 1.235 . S
O626 Co616 2.021 . S
O626 C623 1.238 . S
O627 Co621 2.052 . S
O627 C623 1.241 . S
O628 Co616 2.137 . S
O628 C619 1.247 . S
O629 Co616 2.244 . S
O629 C619 1.272 . S
O629 Co621 2.135 . S
Co630 O631 2.216 . S
Co630 O632 2.091 . S
Co630 O634 2.004 . S
Co630 O640 2.021 . S
Co630 O642 2.137 . S
Co630 O643 2.244 . S
O631 Co630 2.216 . S
O631 C638 1.247 . S
O632 Co630 2.091 . S
O632 C638 1.261 . S
C633 O642 1.247 . S
C633 O643 1.272 . S
O634 Co630 2.004 . S
O634 C639 1.259 . S
Co635 O636 2.061 . S
Co635 O641 2.052 . S
Co635 O643 2.135 . S
O636 Co635 2.061 . S
O636 C639 1.235 . S
C637 O640 1.238 . S
C637 O641 1.241 . S
C638 O631 1.247 . S
C638 O632 1.261 . S
C639 O634 1.259 . S
C639 O636 1.235 . S
O640 Co630 2.021 . S
O640 C637 1.238 . S
O641 Co635 2.052 . S
O641 C637 1.241 . S
O642 Co630 2.137 . S
O642 C633 1.247 . S
O643 Co630 2.244 . S
O643 C633 1.272 . S
O643 Co635 2.135 . S
Co644 O645 2.216 . S
Co644 O646 2.091 . S
Co644 O648 2.004 . S
Co644 O654 2.021 . S
Co644 O656 2.137 . S
Co644 O657 2.244 . S
O645 Co644 2.216 . S
O645 C652 1.247 . S
O646 Co644 2.091 . S
O646 C652 1.261 . S
C647 O656 1.247 . S
C647 O657 1.272 . S
O648 Co644 2.004 . S
O648 C653 1.259 . S
Co649 O650 2.061 . S
Co649 O655 2.052 . S
Co649 O657 2.135 . S
O650 Co649 2.061 . S
O650 C653 1.235 . S
C651 O654 1.238 . S
C651 O655 1.241 . S
C652 O645 1.247 . S
C652 O646 1.261 . S
C653 O648 1.259 . S
C653 O650 1.235 . S
O654 Co644 2.021 . S
O654 C651 1.238 . S
O655 Co649 2.052 . S
O655 C651 1.241 . S
O656 Co644 2.137 . S
O656 C647 1.247 . S
O657 Co644 2.244 . S
O657 C647 1.272 . S
O657 Co649 2.135 . S
Co658 O659 2.216 . S
Co658 O660 2.091 . S
Co658 O662 2.004 . S
Co658 O668 2.021 . S
Co658 O670 2.137 . S
Co658 O671 2.244 . S
O659 Co658 2.216 . S
O659 C666 1.247 . S
O660 Co658 2.091 . S
O660 C666 1.261 . S
C661 O670 1.247 . S
C661 O671 1.272 . S
O662 Co658 2.004 . S
O662 C667 1.259 . S
Co663 O664 2.061 . S
Co663 O669 2.052 . S
Co663 O671 2.135 . S
O664 Co663 2.061 . S
O664 C667 1.235 . S
C665 O668 1.238 . S
C665 O669 1.241 . S
C666 O659 1.247 . S
C666 O660 1.261 . S
C667 O662 1.259 . S
C667 O664 1.235 . S
O668 Co658 2.021 . S
O668 C665 1.238 . S
O669 Co663 2.052 . S
O669 C665 1.241 . S
O670 Co658 2.137 . S
O670 C661 1.247 . S
O671 Co658 2.244 . S
O671 C661 1.272 . S
O671 Co663 2.135 . S
H672 C680 0.950 . S
H673 C685 0.950 . S
H674 C682 0.950 . S
H675 C684 0.950 . S
H676 C686 0.950 . S
H677 C688 0.950 . S
H678 C690 0.950 . S
H679 C691 0.950 . S
C680 H672 0.950 . S
C680 C681 1.386 . S
C680 C682 1.391 . S
C681 C680 1.386 . S
C681 C685 1.393 . S
C682 H674 0.950 . S
C682 C680 1.391 . S
C682 C683 1.400 . S
C683 C682 1.400 . S
C683 C684 1.398 . S
C683 C689 1.491 . S
C684 H675 0.950 . S
C684 C683 1.398 . S
C684 C685 1.391 . S
C685 H673 0.950 . S
C685 C681 1.393 . S
C685 C684 1.391 . S
C686 H676 0.950 . S
C686 C687 1.386 . S
C686 C688 1.391 . S
C687 C686 1.386 . S
C687 C691 1.393 . S
C688 H677 0.950 . S
C688 C686 1.391 . S
C688 C689 1.400 . S
C689 C683 1.491 . S
C689 C688 1.400 . S
C689 C690 1.398 . S
C690 H678 0.950 . S
C690 C689 1.398 . S
C690 C691 1.391 . S
C691 H679 0.950 . S
C691 C687 1.393 . S
C691 C690 1.391 . S
H692 C700 0.950 . S
H693 C705 0.950 . S
H694 C702 0.950 . S
H695 C704 0.950 . S
H696 C706 0.950 . S
H697 C708 0.950 . S
H698 C710 0.950 . S
H699 C711 0.950 . S
C700 H692 0.950 . S
C700 C701 1.386 . S
C700 C702 1.391 . S
C701 C700 1.386 . S
C701 C705 1.393 . S
C702 H694 0.950 . S
C702 C700 1.391 . S
C702 C703 1.400 . S
C703 C702 1.400 . S
C703 C704 1.398 . S
C703 C709 1.491 . S
C704 H695 0.950 . S
C704 C703 1.398 . S
C704 C705 1.391 . S
C705 H693 0.950 . S
C705 C701 1.393 . S
C705 C704 1.391 . S
C706 H696 0.950 . S
C706 C707 1.386 . S
C706 C708 1.391 . S
C707 C706 1.386 . S
C707 C711 1.393 . S
C708 H697 0.950 . S
C708 C706 1.391 . S
C708 C709 1.400 . S
C709 C703 1.491 . S
C709 C708 1.400 . S
C709 C710 1.398 . S
C710 H698 0.950 . S
C710 C709 1.398 . S
C710 C711 1.391 . S
C711 H699 0.950 . S
C711 C707 1.393 . S
C711 C710 1.391 . S
H712 C720 0.950 . S
H713 C725 0.950 . S
H714 C722 0.950 . S
H715 C724 0.950 . S
H716 C726 0.950 . S
H717 C728 0.950 . S
H718 C730 0.950 . S
H719 C731 0.950 . S
C720 H712 0.950 . S
C720 C721 1.386 . S
C720 C722 1.391 . S
C721 C720 1.386 . S
C721 C725 1.393 . S
C722 H714 0.950 . S
C722 C720 1.391 . S
C722 C723 1.400 . S
C723 C722 1.400 . S
C723 C724 1.398 . S
C723 C729 1.491 . S
C724 H715 0.950 . S
C724 C723 1.398 . S
C724 C725 1.391 . S
C725 H713 0.950 . S
C725 C721 1.393 . S
C725 C724 1.391 . S
C726 H716 0.950 . S
C726 C727 1.386 . S
C726 C728 1.391 . S
C727 C726 1.386 . S
C727 C731 1.393 . S
C728 H717 0.950 . S
C728 C726 1.391 . S
C728 C729 1.400 . S
C729 C723 1.491 . S
C729 C728 1.400 . S
C729 C730 1.398 . S
C730 H718 0.950 . S
C730 C729 1.398 . S
C730 C731 1.391 . S
C731 H719 0.950 . S
C731 C727 1.393 . S
C731 C730 1.391 . S
H732 C740 0.950 . S
H733 C745 0.950 . S
H734 C742 0.950 . S
H735 C744 0.950 . S
H736 C746 0.950 . S
H737 C748 0.950 . S
H738 C750 0.950 . S
H739 C751 0.950 . S
C740 H732 0.950 . S
C740 C741 1.386 . S
C740 C742 1.391 . S
C741 C740 1.386 . S
C741 C745 1.393 . S
C742 H734 0.950 . S
C742 C740 1.391 . S
C742 C743 1.400 . S
C743 C742 1.400 . S
C743 C744 1.398 . S
C743 C749 1.491 . S
C744 H735 0.950 . S
C744 C743 1.398 . S
C744 C745 1.391 . S
C745 H733 0.950 . S
C745 C741 1.393 . S
C745 C744 1.391 . S
C746 H736 0.950 . S
C746 C747 1.386 . S
C746 C748 1.391 . S
C747 C746 1.386 . S
C747 C751 1.393 . S
C748 H737 0.950 . S
C748 C746 1.391 . S
C748 C749 1.400 . S
C749 C743 1.491 . S
C749 C748 1.400 . S
C749 C750 1.398 . S
C750 H738 0.950 . S
C750 C749 1.398 . S
C750 C751 1.391 . S
C751 H739 0.950 . S
C751 C747 1.393 . S
C751 C750 1.391 . S
H752 C760 0.950 . S
H753 C765 0.950 . S
H754 C762 0.950 . S
H755 C764 0.950 . S
H756 C766 0.950 . S
H757 C768 0.950 . S
H758 C770 0.950 . S
H759 C771 0.950 . S
C760 H752 0.950 . S
C760 C761 1.386 . S
C760 C762 1.391 . S
C761 C760 1.386 . S
C761 C765 1.393 . S
C762 H754 0.950 . S
C762 C760 1.391 . S
C762 C763 1.400 . S
C763 C762 1.400 . S
C763 C764 1.398 . S
C763 C769 1.491 . S
C764 H755 0.950 . S
C764 C763 1.398 . S
C764 C765 1.391 . S
C765 H753 0.950 . S
C765 C761 1.393 . S
C765 C764 1.391 . S
C766 H756 0.950 . S
C766 C767 1.386 . S
C766 C768 1.391 . S
C767 C766 1.386 . S
C767 C771 1.393 . S
C768 H757 0.950 . S
C768 C766 1.391 . S
C768 C769 1.400 . S
C769 C763 1.491 . S
C769 C768 1.400 . S
C769 C770 1.398 . S
C770 H758 0.950 . S
C770 C769 1.398 . S
C770 C771 1.391 . S
C771 H759 0.950 . S
C771 C767 1.393 . S
C771 C770 1.391 . S
H772 C780 0.950 . S
H773 C785 0.950 . S
H774 C782 0.950 . S
H775 C784 0.950 . S
H776 C786 0.950 . S
H777 C788 0.950 . S
H778 C790 0.950 . S
H779 C791 0.950 . S
C780 H772 0.950 . S
C780 C781 1.386 . S
C780 C782 1.391 . S
C781 C780 1.386 . S
C781 C785 1.393 . S
C782 H774 0.950 . S
C782 C780 1.391 . S
C782 C783 1.400 . S
C783 C782 1.400 . S
C783 C784 1.398 . S
C783 C789 1.491 . S
C784 H775 0.950 . S
C784 C783 1.398 . S
C784 C785 1.391 . S
C785 H773 0.950 . S
C785 C781 1.393 . S
C785 C784 1.391 . S
C786 H776 0.950 . S
C786 C787 1.386 . S
C786 C788 1.391 . S
C787 C786 1.386 . S
C787 C791 1.393 . S
C788 H777 0.950 . S
C788 C786 1.391 . S
C788 C789 1.400 . S
C789 C783 1.491 . S
C789 C788 1.400 . S
C789 C790 1.398 . S
C790 H778 0.950 . S
C790 C789 1.398 . S
C790 C791 1.391 . S
C791 H779 0.950 . S
C791 C787 1.393 . S
C791 C790 1.391 . S
H792 C800 0.950 . S
H793 C805 0.950 . S
H794 C802 0.950 . S
H795 C804 0.950 . S
H796 C806 0.950 . S
H797 C808 0.950 . S
H798 C810 0.950 . S
H799 C811 0.950 . S
C800 H792 0.950 . S
C800 C801 1.386 . S
C800 C802 1.391 . S
C801 C800 1.386 . S
C801 C805 1.393 . S
C802 H794 0.950 . S
C802 C800 1.391 . S
C802 C803 1.400 . S
C803 C802 1.400 . S
C803 C804 1.398 . S
C803 C809 1.491 . S
C804 H795 0.950 . S
C804 C803 1.398 . S
C804 C805 1.391 . S
C805 H793 0.950 . S
C805 C801 1.393 . S
C805 C804 1.391 . S
C806 H796 0.950 . S
C806 C807 1.386 . S
C806 C808 1.391 . S
C807 C806 1.386 . S
C807 C811 1.393 . S
C808 H797 0.950 . S
C808 C806 1.391 . S
C808 C809 1.400 . S
C809 C803 1.491 . S
C809 C808 1.400 . S
C809 C810 1.398 . S
C810 H798 0.950 . S
C810 C809 1.398 . S
C810 C811 1.391 . S
C811 H799 0.950 . S
C811 C807 1.393 . S
C811 C810 1.391 . S
H812 C820 0.950 . S
H813 C825 0.950 . S
H814 C822 0.950 . S
H815 C824 0.950 . S
H816 C826 0.950 . S
H817 C828 0.950 . S
H818 C830 0.950 . S
H819 C831 0.950 . S
C820 H812 0.950 . S
C820 C821 1.386 . S
C820 C822 1.391 . S
C821 C820 1.386 . S
C821 C825 1.393 . S
C822 H814 0.950 . S
C822 C820 1.391 . S
C822 C823 1.400 . S
C823 C822 1.400 . S
C823 C824 1.398 . S
C823 C829 1.491 . S
C824 H815 0.950 . S
C824 C823 1.398 . S
C824 C825 1.391 . S
C825 H813 0.950 . S
C825 C821 1.393 . S
C825 C824 1.391 . S
C826 H816 0.950 . S
C826 C827 1.386 . S
C826 C828 1.391 . S
C827 C826 1.386 . S
C827 C831 1.393 . S
C828 H817 0.950 . S
C828 C826 1.391 . S
C828 C829 1.400 . S
C829 C823 1.491 . S
C829 C828 1.400 . S
C829 C830 1.398 . S
C830 H818 0.950 . S
C830 C829 1.398 . S
C830 C831 1.391 . S
C831 H819 0.950 . S
C831 C827 1.393 . S
C831 C830 1.391 . S
H832 C840 0.950 . S
H833 C845 0.950 . S
H834 C842 0.950 . S
H835 C844 0.950 . S
H836 C846 0.950 . S
H837 C848 0.950 . S
H838 C850 0.950 . S
H839 C851 0.950 . S
C840 H832 0.950 . S
C840 C841 1.386 . S
C840 C842 1.391 . S
C841 C840 1.386 . S
C841 C845 1.393 . S
C842 H834 0.950 . S
C842 C840 1.391 . S
C842 C843 1.400 . S
C843 C842 1.400 . S
C843 C844 1.398 . S
C843 C849 1.491 . S
C844 H835 0.950 . S
C844 C843 1.398 . S
C844 C845 1.391 . S
C845 H833 0.950 . S
C845 C841 1.393 . S
C845 C844 1.391 . S
C846 H836 0.950 . S
C846 C847 1.386 . S
C846 C848 1.391 . S
C847 C846 1.386 . S
C847 C851 1.393 . S
C848 H837 0.950 . S
C848 C846 1.391 . S
C848 C849 1.400 . S
C849 C843 1.491 . S
C849 C848 1.400 . S
C849 C850 1.398 . S
C850 H838 0.950 . S
C850 C849 1.398 . S
C850 C851 1.391 . S
C851 H839 0.950 . S
C851 C847 1.393 . S
C851 C850 1.391 . S
H852 C860 0.950 . S
H853 C865 0.950 . S
H854 C862 0.950 . S
H855 C864 0.950 . S
H856 C866 0.950 . S
H857 C868 0.950 . S
H858 C870 0.950 . S
H859 C871 0.950 . S
C860 H852 0.950 . S
C860 C861 1.386 . S
C860 C862 1.391 . S
C861 C860 1.386 . S
C861 C865 1.393 . S
C862 H854 0.950 . S
C862 C860 1.391 . S
C862 C863 1.400 . S
C863 C862 1.400 . S
C863 C864 1.398 . S
C863 C869 1.491 . S
C864 H855 0.950 . S
C864 C863 1.398 . S
C864 C865 1.391 . S
C865 H853 0.950 . S
C865 C861 1.393 . S
C865 C864 1.391 . S
C866 H856 0.950 . S
C866 C867 1.386 . S
C866 C868 1.391 . S
C867 C866 1.386 . S
C867 C871 1.393 . S
C868 H857 0.950 . S
C868 C866 1.391 . S
C868 C869 1.400 . S
C869 C863 1.491 . S
C869 C868 1.400 . S
C869 C870 1.398 . S
C870 H858 0.950 . S
C870 C869 1.398 . S
C870 C871 1.391 . S
C871 H859 0.950 . S
C871 C867 1.393 . S
C871 C870 1.391 . S
H872 C880 0.950 . S
H873 C885 0.950 . S
H874 C882 0.950 . S
H875 C884 0.950 . S
H876 C886 0.950 . S
H877 C888 0.950 . S
H878 C890 0.950 . S
H879 C891 0.950 . S
C880 H872 0.950 . S
C880 C881 1.386 . S
C880 C882 1.391 . S
C881 C880 1.386 . S
C881 C885 1.393 . S
C882 H874 0.950 . S
C882 C880 1.391 . S
C882 C883 1.400 . S
C883 C882 1.400 . S
C883 C884 1.398 . S
C883 C889 1.491 . S
C884 H875 0.950 . S
C884 C883 1.398 . S
C884 C885 1.391 . S
C885 H873 0.950 . S
C885 C881 1.393 . S
C885 C884 1.391 . S
C886 H876 0.950 . S
C886 C887 1.386 . S
C886 C888 1.391 . S
C887 C886 1.386 . S
C887 C891 1.393 . S
C888 H877 0.950 . S
C888 C886 1.391 . S
C888 C889 1.400 . S
C889 C883 1.491 . S
C889 C888 1.400 . S
C889 C890 1.398 . S
C890 H878 0.950 . S
C890 C889 1.398 . S
C890 C891 1.391 . S
C891 H879 0.950 . S
C891 C887 1.393 . S
C891 C890 1.391 . S
H892 C900 0.950 . S
H893 C905 0.950 . S
H894 C902 0.950 . S
H895 C904 0.950 . S
H896 C906 0.950 . S
H897 C908 0.950 . S
H898 C910 0.950 . S
H899 C911 0.950 . S
C900 H892 0.950 . S
C900 C901 1.386 . S
C900 C902 1.391 . S
C901 C900 1.386 . S
C901 C905 1.393 . S
C902 H894 0.950 . S
C902 C900 1.391 . S
C902 C903 1.400 . S
C903 C902 1.400 . S
C903 C904 1.398 . S
C903 C909 1.491 . S
C904 H895 0.950 . S
C904 C903 1.398 . S
C904 C905 1.391 . S
C905 H893 0.950 . S
C905 C901 1.393 . S
C905 C904 1.391 . S
C906 H896 0.950 . S
C906 C907 1.386 . S
C906 C908 1.391 . S
C907 C906 1.386 . S
C907 C911 1.393 . S
C908 H897 0.950 . S
C908 C906 1.391 . S
C908 C909 1.400 . S
C909 C903 1.491 . S
C909 C908 1.400 . S
C909 C910 1.398 . S
C910 H898 0.950 . S
C910 C909 1.398 . S
C910 C911 1.391 . S
C911 H899 0.950 . S
C911 C907 1.393 . S
C911 C910 1.391 . S
H912 C920 0.950 . S
H913 C925 0.950 . S
H914 C922 0.950 . S
H915 C924 0.950 . S
H916 C926 0.950 . S
H917 C928 0.950 . S
H918 C930 0.950 . S
H919 C931 0.950 . S
C920 H912 0.950 . S
C920 C921 1.386 . S
C920 C922 1.391 . S
C921 C920 1.386 . S
C921 C925 1.393 . S
C922 H914 0.950 . S
C922 C920 1.391 . S
C922 C923 1.400 . S
C923 C922 1.400 . S
C923 C924 1.398 . S
C923 C929 1.491 . S
C924 H915 0.950 . S
C924 C923 1.398 . S
C924 C925 1.391 . S
C925 H913 0.950 . S
C925 C921 1.393 . S
C925 C924 1.391 . S
C926 H916 0.950 . S
C926 C927 1.386 . S
C926 C928 1.391 . S
C927 C926 1.386 . S
C927 C931 1.393 . S
C928 H917 0.950 . S
C928 C926 1.391 . S
C928 C929 1.400 . S
C929 C923 1.491 . S
C929 C928 1.400 . S
C929 C930 1.398 . S
C930 H918 0.950 . S
C930 C929 1.398 . S
C930 C931 1.391 . S
C931 H919 0.950 . S
C931 C927 1.393 . S
C931 C930 1.391 . S
H932 C940 0.950 . S
H933 C945 0.950 . S
H934 C942 0.950 . S
H935 C944 0.950 . S
H936 C946 0.950 . S
H937 C948 0.950 . S
H938 C950 0.950 . S
H939 C951 0.950 . S
C940 H932 0.950 . S
C940 C941 1.386 . S
C940 C942 1.391 . S
C941 C940 1.386 . S
C941 C945 1.393 . S
C942 H934 0.950 . S
C942 C940 1.391 . S
C942 C943 1.400 . S
C943 C942 1.400 . S
C943 C944 1.398 . S
C943 C949 1.491 . S
C944 H935 0.950 . S
C944 C943 1.398 . S
C944 C945 1.391 . S
C945 H933 0.950 . S
C945 C941 1.393 . S
C945 C944 1.391 . S
C946 H936 0.950 . S
C946 C947 1.386 . S
C946 C948 1.391 . S
C947 C946 1.386 . S
C947 C951 1.393 . S
C948 H937 0.950 . S
C948 C946 1.391 . S
C948 C949 1.400 . S
C949 C943 1.491 . S
C949 C948 1.400 . S
C949 C950 1.398 . S
C950 H938 0.950 . S
C950 C949 1.398 . S
C950 C951 1.391 . S
C951 H939 0.950 . S
C951 C947 1.393 . S
C951 C950 1.391 . S
H952 C960 0.950 . S
H953 C965 0.950 . S
H954 C962 0.950 . S
H955 C964 0.950 . S
H956 C966 0.950 . S
H957 C968 0.950 . S
H958 C970 0.950 . S
H959 C971 0.950 . S
C960 H952 0.950 . S
C960 C961 1.386 . S
C960 C962 1.391 . S
C961 C960 1.386 . S
C961 C965 1.393 . S
C962 H954 0.950 . S
C962 C960 1.391 . S
C962 C963 1.400 . S
C963 C962 1.400 . S
C963 C964 1.398 . S
C963 C969 1.491 . S
C964 H955 0.950 . S
C964 C963 1.398 . S
C964 C965 1.391 . S
C965 H953 0.950 . S
C965 C961 1.393 . S
C965 C964 1.391 . S
C966 H956 0.950 . S
C966 C967 1.386 . S
C966 C968 1.391 . S
C967 C966 1.386 . S
C967 C971 1.393 . S
C968 H957 0.950 . S
C968 C966 1.391 . S
C968 C969 1.400 . S
C969 C963 1.491 . S
C969 C968 1.400 . S
C969 C970 1.398 . S
C970 H958 0.950 . S
C970 C969 1.398 . S
C970 C971 1.391 . S
C971 H959 0.950 . S
C971 C967 1.393 . S
C971 C970 1.391 . S
H972 C980 0.950 . S
H973 C985 0.950 . S
H974 C982 0.950 . S
H975 C984 0.950 . S
H976 C986 0.950 . S
H977 C988 0.950 . S
H978 C990 0.950 . S
H979 C991 0.950 . S
C980 H972 0.950 . S
C980 C981 1.386 . S
C980 C982 1.391 . S
C981 C980 1.386 . S
C981 C985 1.393 . S
C982 H974 0.950 . S
C982 C980 1.391 . S
C982 C983 1.400 . S
C983 C982 1.400 . S
C983 C984 1.398 . S
C983 C989 1.491 . S
C984 H975 0.950 . S
C984 C983 1.398 . S
C984 C985 1.391 . S
C985 H973 0.950 . S
C985 C981 1.393 . S
C985 C984 1.391 . S
C986 H976 0.950 . S
C986 C987 1.386 . S
C986 C988 1.391 . S
C987 C986 1.386 . S
C987 C991 1.393 . S
C988 H977 0.950 . S
C988 C986 1.391 . S
C988 C989 1.400 . S
C989 C983 1.491 . S
C989 C988 1.400 . S
C989 C990 1.398 . S
C990 H978 0.950 . S
C990 C989 1.398 . S
C990 C991 1.391 . S
C991 H979 0.950 . S
C991 C987 1.393 . S
C991 C990 1.391 . S
H992 C1000 0.950 . S
H993 C1005 0.950 . S
H994 C1002 0.950 . S
H995 C1004 0.950 . S
H996 C1006 0.950 . S
H997 C1008 0.950 . S
H998 C1010 0.950 . S
H999 C1011 0.950 . S
C1000 H992 0.950 . S
C1000 C1001 1.386 . S
C1000 C1002 1.391 . S
C1001 C1000 1.386 . S
C1001 C1005 1.393 . S
C1002 H994 0.950 . S
C1002 C1000 1.391 . S
C1002 C1003 1.400 . S
C1003 C1002 1.400 . S
C1003 C1004 1.398 . S
C1003 C1009 1.491 . S
C1004 H995 0.950 . S
C1004 C1003 1.398 . S
C1004 C1005 1.391 . S
C1005 H993 0.950 . S
C1005 C1001 1.393 . S
C1005 C1004 1.391 . S
C1006 H996 0.950 . S
C1006 C1007 1.386 . S
C1006 C1008 1.391 . S
C1007 C1006 1.386 . S
C1007 C1011 1.393 . S
C1008 H997 0.950 . S
C1008 C1006 1.391 . S
C1008 C1009 1.400 . S
C1009 C1003 1.491 . S
C1009 C1008 1.400 . S
C1009 C1010 1.398 . S
C1010 H998 0.950 . S
C1010 C1009 1.398 . S
C1010 C1011 1.391 . S
C1011 H999 0.950 . S
C1011 C1007 1.393 . S
C1011 C1010 1.391 . S
H1012 C1020 0.950 . S
H1013 C1025 0.950 . S
H1014 C1022 0.950 . S
H1015 C1024 0.950 . S
H1016 C1026 0.950 . S
H1017 C1028 0.950 . S
H1018 C1030 0.950 . S
H1019 C1031 0.950 . S
C1020 H1012 0.950 . S
C1020 C1021 1.386 . S
C1020 C1022 1.391 . S
C1021 C1020 1.386 . S
C1021 C1025 1.393 . S
C1022 H1014 0.950 . S
C1022 C1020 1.391 . S
C1022 C1023 1.400 . S
C1023 C1022 1.400 . S
C1023 C1024 1.398 . S
C1023 C1029 1.491 . S
C1024 H1015 0.950 . S
C1024 C1023 1.398 . S
C1024 C1025 1.391 . S
C1025 H1013 0.950 . S
C1025 C1021 1.393 . S
C1025 C1024 1.391 . S
C1026 H1016 0.950 . S
C1026 C1027 1.386 . S
C1026 C1028 1.391 . S
C1027 C1026 1.386 . S
C1027 C1031 1.393 . S
C1028 H1017 0.950 . S
C1028 C1026 1.391 . S
C1028 C1029 1.400 . S
C1029 C1023 1.491 . S
C1029 C1028 1.400 . S
C1029 C1030 1.398 . S
C1030 H1018 0.950 . S
C1030 C1029 1.398 . S
C1030 C1031 1.391 . S
C1031 H1019 0.950 . S
C1031 C1027 1.393 . S
C1031 C1030 1.391 . S
H1032 C1040 0.950 . S
H1033 C1045 0.950 . S
H1034 C1042 0.950 . S
H1035 C1044 0.950 . S
H1036 C1046 0.950 . S
H1037 C1048 0.950 . S
H1038 C1050 0.950 . S
H1039 C1051 0.950 . S
C1040 H1032 0.950 . S
C1040 C1041 1.386 . S
C1040 C1042 1.391 . S
C1041 C1040 1.386 . S
C1041 C1045 1.393 . S
C1042 H1034 0.950 . S
C1042 C1040 1.391 . S
C1042 C1043 1.400 . S
C1043 C1042 1.400 . S
C1043 C1044 1.398 . S
C1043 C1049 1.491 . S
C1044 H1035 0.950 . S
C1044 C1043 1.398 . S
C1044 C1045 1.391 . S
C1045 H1033 0.950 . S
C1045 C1041 1.393 . S
C1045 C1044 1.391 . S
C1046 H1036 0.950 . S
C1046 C1047 1.386 . S
C1046 C1048 1.391 . S
C1047 C1046 1.386 . S
C1047 C1051 1.393 . S
C1048 H1037 0.950 . S
C1048 C1046 1.391 . S
C1048 C1049 1.400 . S
C1049 C1043 1.491 . S
C1049 C1048 1.400 . S
C1049 C1050 1.398 . S
C1050 H1038 0.950 . S
C1050 C1049 1.398 . S
C1050 C1051 1.391 . S
C1051 H1039 0.950 . S
C1051 C1047 1.393 . S
C1051 C1050 1.391 . S
H1052 C1060 0.950 . S
H1053 C1065 0.950 . S
H1054 C1062 0.950 . S
H1055 C1064 0.950 . S
H1056 C1066 0.950 . S
H1057 C1068 0.950 . S
H1058 C1070 0.950 . S
H1059 C1071 0.950 . S
C1060 H1052 0.950 . S
C1060 C1061 1.386 . S
C1060 C1062 1.391 . S
C1061 C1060 1.386 . S
C1061 C1065 1.393 . S
C1062 H1054 0.950 . S
C1062 C1060 1.391 . S
C1062 C1063 1.400 . S
C1063 C1062 1.400 . S
C1063 C1064 1.398 . S
C1063 C1069 1.491 . S
C1064 H1055 0.950 . S
C1064 C1063 1.398 . S
C1064 C1065 1.391 . S
C1065 H1053 0.950 . S
C1065 C1061 1.393 . S
C1065 C1064 1.391 . S
C1066 H1056 0.950 . S
C1066 C1067 1.386 . S
C1066 C1068 1.391 . S
C1067 C1066 1.386 . S
C1067 C1071 1.393 . S
C1068 H1057 0.950 . S
C1068 C1066 1.391 . S
C1068 C1069 1.400 . S
C1069 C1063 1.491 . S
C1069 C1068 1.400 . S
C1069 C1070 1.398 . S
C1070 H1058 0.950 . S
C1070 C1069 1.398 . S
C1070 C1071 1.391 . S
C1071 H1059 0.950 . S
C1071 C1067 1.393 . S
C1071 C1070 1.391 . S
H1072 C1080 0.950 . S
H1073 C1085 0.950 . S
H1074 C1082 0.950 . S
H1075 C1084 0.950 . S
H1076 C1086 0.950 . S
H1077 C1088 0.950 . S
H1078 C1090 0.950 . S
H1079 C1091 0.950 . S
C1080 H1072 0.950 . S
C1080 C1081 1.386 . S
C1080 C1082 1.391 . S
C1081 C1080 1.386 . S
C1081 C1085 1.393 . S
C1082 H1074 0.950 . S
C1082 C1080 1.391 . S
C1082 C1083 1.400 . S
C1083 C1082 1.400 . S
C1083 C1084 1.398 . S
C1083 C1089 1.491 . S
C1084 H1075 0.950 . S
C1084 C1083 1.398 . S
C1084 C1085 1.391 . S
C1085 H1073 0.950 . S
C1085 C1081 1.393 . S
C1085 C1084 1.391 . S
C1086 H1076 0.950 . S
C1086 C1087 1.386 . S
C1086 C1088 1.391 . S
C1087 C1086 1.386 . S
C1087 C1091 1.393 . S
C1088 H1077 0.950 . S
C1088 C1086 1.391 . S
C1088 C1089 1.400 . S
C1089 C1083 1.491 . S
C1089 C1088 1.400 . S
C1089 C1090 1.398 . S
C1090 H1078 0.950 . S
C1090 C1089 1.398 . S
C1090 C1091 1.391 . S
C1091 H1079 0.950 . S
C1091 C1087 1.393 . S
C1091 C1090 1.391 . S
H1092 C1100 0.950 . S
H1093 C1105 0.950 . S
H1094 C1102 0.950 . S
H1095 C1104 0.950 . S
H1096 C1106 0.950 . S
H1097 C1108 0.950 . S
H1098 C1110 0.950 . S
H1099 C1111 0.950 . S
C1100 H1092 0.950 . S
C1100 C1101 1.386 . S
C1100 C1102 1.391 . S
C1101 C1100 1.386 . S
C1101 C1105 1.393 . S
C1102 H1094 0.950 . S
C1102 C1100 1.391 . S
C1102 C1103 1.400 . S
C1103 C1102 1.400 . S
C1103 C1104 1.398 . S
C1103 C1109 1.491 . S
C1104 H1095 0.950 . S
C1104 C1103 1.398 . S
C1104 C1105 1.391 . S
C1105 H1093 0.950 . S
C1105 C1101 1.393 . S
C1105 C1104 1.391 . S
C1106 H1096 0.950 . S
C1106 C1107 1.386 . S
C1106 C1108 1.391 . S
C1107 C1106 1.386 . S
C1107 C1111 1.393 . S
C1108 H1097 0.950 . S
C1108 C1106 1.391 . S
C1108 C1109 1.400 . S
C1109 C1103 1.491 . S
C1109 C1108 1.400 . S
C1109 C1110 1.398 . S
C1110 H1098 0.950 . S
C1110 C1109 1.398 . S
C1110 C1111 1.391 . S
C1111 H1099 0.950 . S
C1111 C1107 1.393 . S
C1111 C1110 1.391 . S
H1112 C1120 0.950 . S
H1113 C1125 0.950 . S
H1114 C1122 0.950 . S
H1115 C1124 0.950 . S
H1116 C1126 0.950 . S
H1117 C1128 0.950 . S
H1118 C1130 0.950 . S
H1119 C1131 0.950 . S
C1120 H1112 0.950 . S
C1120 C1121 1.386 . S
C1120 C1122 1.391 . S
C1121 C1120 1.386 . S
C1121 C1125 1.393 . S
C1122 H1114 0.950 . S
C1122 C1120 1.391 . S
C1122 C1123 1.400 . S
C1123 C1122 1.400 . S
C1123 C1124 1.398 . S
C1123 C1129 1.491 . S
C1124 H1115 0.950 . S
C1124 C1123 1.398 . S
C1124 C1125 1.391 . S
C1125 H1113 0.950 . S
C1125 C1121 1.393 . S
C1125 C1124 1.391 . S
C1126 H1116 0.950 . S
C1126 C1127 1.386 . S
C1126 C1128 1.391 . S
C1127 C1126 1.386 . S
C1127 C1131 1.393 . S
C1128 H1117 0.950 . S
C1128 C1126 1.391 . S
C1128 C1129 1.400 . S
C1129 C1123 1.491 . S
C1129 C1128 1.400 . S
C1129 C1130 1.398 . S
C1130 H1118 0.950 . S
C1130 C1129 1.398 . S
C1130 C1131 1.391 . S
C1131 H1119 0.950 . S
C1131 C1127 1.393 . S
C1131 C1130 1.391 . S
H1132 C1140 0.950 . S
H1133 C1145 0.950 . S
H1134 C1142 0.950 . S
H1135 C1144 0.950 . S
H1136 C1146 0.950 . S
H1137 C1148 0.950 . S
H1138 C1150 0.950 . S
H1139 C1151 0.950 . S
C1140 H1132 0.950 . S
C1140 C1141 1.386 . S
C1140 C1142 1.391 . S
C1141 C1140 1.386 . S
C1141 C1145 1.393 . S
C1142 H1134 0.950 . S
C1142 C1140 1.391 . S
C1142 C1143 1.400 . S
C1143 C1142 1.400 . S
C1143 C1144 1.398 . S
C1143 C1149 1.491 . S
C1144 H1135 0.950 . S
C1144 C1143 1.398 . S
C1144 C1145 1.391 . S
C1145 H1133 0.950 . S
C1145 C1141 1.393 . S
C1145 C1144 1.391 . S
C1146 H1136 0.950 . S
C1146 C1147 1.386 . S
C1146 C1148 1.391 . S
C1147 C1146 1.386 . S
C1147 C1151 1.393 . S
C1148 H1137 0.950 . S
C1148 C1146 1.391 . S
C1148 C1149 1.400 . S
C1149 C1143 1.491 . S
C1149 C1148 1.400 . S
C1149 C1150 1.398 . S
C1150 H1138 0.950 . S
C1150 C1149 1.398 . S
C1150 C1151 1.391 . S
C1151 H1139 0.950 . S
C1151 C1147 1.393 . S
C1151 C1150 1.391 . S
H1152 C1160 0.950 . S
H1153 C1165 0.950 . S
H1154 C1162 0.950 . S
H1155 C1164 0.950 . S
H1156 C1166 0.950 . S
H1157 C1168 0.950 . S
H1158 C1170 0.950 . S
H1159 C1171 0.950 . S
C1160 H1152 0.950 . S
C1160 C1161 1.386 . S
C1160 C1162 1.391 . S
C1161 C1160 1.386 . S
C1161 C1165 1.393 . S
C1162 H1154 0.950 . S
C1162 C1160 1.391 . S
C1162 C1163 1.400 . S
C1163 C1162 1.400 . S
C1163 C1164 1.398 . S
C1163 C1169 1.491 . S
C1164 H1155 0.950 . S
C1164 C1163 1.398 . S
C1164 C1165 1.391 . S
C1165 H1153 0.950 . S
C1165 C1161 1.393 . S
C1165 C1164 1.391 . S
C1166 H1156 0.950 . S
C1166 C1167 1.386 . S
C1166 C1168 1.391 . S
C1167 C1166 1.386 . S
C1167 C1171 1.393 . S
C1168 H1157 0.950 . S
C1168 C1166 1.391 . S
C1168 C1169 1.400 . S
C1169 C1163 1.491 . S
C1169 C1168 1.400 . S
C1169 C1170 1.398 . S
C1170 H1158 0.950 . S
C1170 C1169 1.398 . S
C1170 C1171 1.391 . S
C1171 H1159 0.950 . S
C1171 C1167 1.393 . S
C1171 C1170 1.391 . S
H1172 C1180 0.950 . S
H1173 C1185 0.950 . S
H1174 C1182 0.950 . S
H1175 C1184 0.950 . S
H1176 C1186 0.950 . S
H1177 C1188 0.950 . S
H1178 C1190 0.950 . S
H1179 C1191 0.950 . S
C1180 H1172 0.950 . S
C1180 C1181 1.386 . S
C1180 C1182 1.391 . S
C1181 C1180 1.386 . S
C1181 C1185 1.393 . S
C1182 H1174 0.950 . S
C1182 C1180 1.391 . S
C1182 C1183 1.400 . S
C1183 C1182 1.400 . S
C1183 C1184 1.398 . S
C1183 C1189 1.491 . S
C1184 H1175 0.950 . S
C1184 C1183 1.398 . S
C1184 C1185 1.391 . S
C1185 H1173 0.950 . S
C1185 C1181 1.393 . S
C1185 C1184 1.391 . S
C1186 H1176 0.950 . S
C1186 C1187 1.386 . S
C1186 C1188 1.391 . S
C1187 C1186 1.386 . S
C1187 C1191 1.393 . S
C1188 H1177 0.950 . S
C1188 C1186 1.391 . S
C1188 C1189 1.400 . S
C1189 C1183 1.491 . S
C1189 C1188 1.400 . S
C1189 C1190 1.398 . S
C1190 H1178 0.950 . S
C1190 C1189 1.398 . S
C1190 C1191 1.391 . S
C1191 H1179 0.950 . S
C1191 C1187 1.393 . S
C1191 C1190 1.391 . S
H1192 C1200 0.950 . S
H1193 C1205 0.950 . S
H1194 C1202 0.950 . S
H1195 C1204 0.950 . S
H1196 C1206 0.950 . S
H1197 C1208 0.950 . S
H1198 C1210 0.950 . S
H1199 C1211 0.950 . S
C1200 H1192 0.950 . S
C1200 C1201 1.386 . S
C1200 C1202 1.391 . S
C1201 C1200 1.386 . S
C1201 C1205 1.393 . S
C1202 H1194 0.950 . S
C1202 C1200 1.391 . S
C1202 C1203 1.400 . S
C1203 C1202 1.400 . S
C1203 C1204 1.398 . S
C1203 C1209 1.491 . S
C1204 H1195 0.950 . S
C1204 C1203 1.398 . S
C1204 C1205 1.391 . S
C1205 H1193 0.950 . S
C1205 C1201 1.393 . S
C1205 C1204 1.391 . S
C1206 H1196 0.950 . S
C1206 C1207 1.386 . S
C1206 C1208 1.391 . S
C1207 C1206 1.386 . S
C1207 C1211 1.393 . S
C1208 H1197 0.950 . S
C1208 C1206 1.391 . S
C1208 C1209 1.400 . S
C1209 C1203 1.491 . S
C1209 C1208 1.400 . S
C1209 C1210 1.398 . S
C1210 H1198 0.950 . S
C1210 C1209 1.398 . S
C1210 C1211 1.391 . S
C1211 H1199 0.950 . S
C1211 C1207 1.393 . S
C1211 C1210 1.391 . S
H1212 C1220 0.950 . S
H1213 C1225 0.950 . S
H1214 C1222 0.950 . S
H1215 C1224 0.950 . S
H1216 C1226 0.950 . S
H1217 C1228 0.950 . S
H1218 C1230 0.950 . S
H1219 C1231 0.950 . S
C1220 H1212 0.950 . S
C1220 C1221 1.386 . S
C1220 C1222 1.391 . S
C1221 C1220 1.386 . S
C1221 C1225 1.393 . S
C1222 H1214 0.950 . S
C1222 C1220 1.391 . S
C1222 C1223 1.400 . S
C1223 C1222 1.400 . S
C1223 C1224 1.398 . S
C1223 C1229 1.491 . S
C1224 H1215 0.950 . S
C1224 C1223 1.398 . S
C1224 C1225 1.391 . S
C1225 H1213 0.950 . S
C1225 C1221 1.393 . S
C1225 C1224 1.391 . S
C1226 H1216 0.950 . S
C1226 C1227 1.386 . S
C1226 C1228 1.391 . S
C1227 C1226 1.386 . S
C1227 C1231 1.393 . S
C1228 H1217 0.950 . S
C1228 C1226 1.391 . S
C1228 C1229 1.400 . S
C1229 C1223 1.491 . S
C1229 C1228 1.400 . S
C1229 C1230 1.398 . S
C1230 H1218 0.950 . S
C1230 C1229 1.398 . S
C1230 C1231 1.391 . S
C1231 H1219 0.950 . S
C1231 C1227 1.393 . S
C1231 C1230 1.391 . S
H1232 C1240 0.950 . S
H1233 C1245 0.950 . S
H1234 C1242 0.950 . S
H1235 C1244 0.950 . S
H1236 C1246 0.950 . S
H1237 C1248 0.950 . S
H1238 C1250 0.950 . S
H1239 C1251 0.950 . S
C1240 H1232 0.950 . S
C1240 C1241 1.386 . S
C1240 C1242 1.391 . S
C1241 C1240 1.386 . S
C1241 C1245 1.393 . S
C1242 H1234 0.950 . S
C1242 C1240 1.391 . S
C1242 C1243 1.400 . S
C1243 C1242 1.400 . S
C1243 C1244 1.398 . S
C1243 C1249 1.491 . S
C1244 H1235 0.950 . S
C1244 C1243 1.398 . S
C1244 C1245 1.391 . S
C1245 H1233 0.950 . S
C1245 C1241 1.393 . S
C1245 C1244 1.391 . S
C1246 H1236 0.950 . S
C1246 C1247 1.386 . S
C1246 C1248 1.391 . S
C1247 C1246 1.386 . S
C1247 C1251 1.393 . S
C1248 H1237 0.950 . S
C1248 C1246 1.391 . S
C1248 C1249 1.400 . S
C1249 C1243 1.491 . S
C1249 C1248 1.400 . S
C1249 C1250 1.398 . S
C1250 H1238 0.950 . S
C1250 C1249 1.398 . S
C1250 C1251 1.391 . S
C1251 H1239 0.950 . S
C1251 C1247 1.393 . S
C1251 C1250 1.391 . S
H1252 C1260 0.950 . S
H1253 C1265 0.950 . S
H1254 C1262 0.950 . S
H1255 C1264 0.950 . S
H1256 C1266 0.950 . S
H1257 C1268 0.950 . S
H1258 C1270 0.950 . S
H1259 C1271 0.950 . S
C1260 H1252 0.950 . S
C1260 C1261 1.386 . S
C1260 C1262 1.391 . S
C1261 C1260 1.386 . S
C1261 C1265 1.393 . S
C1262 H1254 0.950 . S
C1262 C1260 1.391 . S
C1262 C1263 1.400 . S
C1263 C1262 1.400 . S
C1263 C1264 1.398 . S
C1263 C1269 1.491 . S
C1264 H1255 0.950 . S
C1264 C1263 1.398 . S
C1264 C1265 1.391 . S
C1265 H1253 0.950 . S
C1265 C1261 1.393 . S
C1265 C1264 1.391 . S
C1266 H1256 0.950 . S
C1266 C1267 1.386 . S
C1266 C1268 1.391 . S
C1267 C1266 1.386 . S
C1267 C1271 1.393 . S
C1268 H1257 0.950 . S
C1268 C1266 1.391 . S
C1268 C1269 1.400 . S
C1269 C1263 1.491 . S
C1269 C1268 1.400 . S
C1269 C1270 1.398 . S
C1270 H1258 0.950 . S
C1270 C1269 1.398 . S
C1270 C1271 1.391 . S
C1271 H1259 0.950 . S
C1271 C1267 1.393 . S
C1271 C1270 1.391 . S
H1272 C1280 0.950 . S
H1273 C1285 0.950 . S
H1274 C1282 0.950 . S
H1275 C1284 0.950 . S
H1276 C1286 0.950 . S
H1277 C1288 0.950 . S
H1278 C1290 0.950 . S
H1279 C1291 0.950 . S
C1280 H1272 0.950 . S
C1280 C1281 1.386 . S
C1280 C1282 1.391 . S
C1281 C1280 1.386 . S
C1281 C1285 1.393 . S
C1282 H1274 0.950 . S
C1282 C1280 1.391 . S
C1282 C1283 1.400 . S
C1283 C1282 1.400 . S
C1283 C1284 1.398 . S
C1283 C1289 1.491 . S
C1284 H1275 0.950 . S
C1284 C1283 1.398 . S
C1284 C1285 1.391 . S
C1285 H1273 0.950 . S
C1285 C1281 1.393 . S
C1285 C1284 1.391 . S
C1286 H1276 0.950 . S
C1286 C1287 1.386 . S
C1286 C1288 1.391 . S
C1287 C1286 1.386 . S
C1287 C1291 1.393 . S
C1288 H1277 0.950 . S
C1288 C1286 1.391 . S
C1288 C1289 1.400 . S
C1289 C1283 1.491 . S
C1289 C1288 1.400 . S
C1289 C1290 1.398 . S
C1290 H1278 0.950 . S
C1290 C1289 1.398 . S
C1290 C1291 1.391 . S
C1291 H1279 0.950 . S
C1291 C1287 1.393 . S
C1291 C1290 1.391 . S
H1292 C1300 0.950 . S
H1293 C1305 0.950 . S
H1294 C1302 0.950 . S
H1295 C1304 0.950 . S
H1296 C1306 0.950 . S
H1297 C1308 0.950 . S
H1298 C1310 0.950 . S
H1299 C1311 0.950 . S
C1300 H1292 0.950 . S
C1300 C1301 1.386 . S
C1300 C1302 1.391 . S
C1301 C1300 1.386 . S
C1301 C1305 1.393 . S
C1302 H1294 0.950 . S
C1302 C1300 1.391 . S
C1302 C1303 1.400 . S
C1303 C1302 1.400 . S
C1303 C1304 1.398 . S
C1303 C1309 1.491 . S
C1304 H1295 0.950 . S
C1304 C1303 1.398 . S
C1304 C1305 1.391 . S
C1305 H1293 0.950 . S
C1305 C1301 1.393 . S
C1305 C1304 1.391 . S
C1306 H1296 0.950 . S
C1306 C1307 1.386 . S
C1306 C1308 1.391 . S
C1307 C1306 1.386 . S
C1307 C1311 1.393 . S
C1308 H1297 0.950 . S
C1308 C1306 1.391 . S
C1308 C1309 1.400 . S
C1309 C1303 1.491 . S
C1309 C1308 1.400 . S
C1309 C1310 1.398 . S
C1310 H1298 0.950 . S
C1310 C1309 1.398 . S
C1310 C1311 1.391 . S
C1311 H1299 0.950 . S
C1311 C1307 1.393 . S
C1311 C1310 1.391 . S
H1312 C1320 0.950 . S
H1313 C1325 0.950 . S
H1314 C1322 0.950 . S
H1315 C1324 0.950 . S
H1316 C1326 0.950 . S
H1317 C1328 0.950 . S
H1318 C1330 0.950 . S
H1319 C1331 0.950 . S
C1320 H1312 0.950 . S
C1320 C1321 1.386 . S
C1320 C1322 1.391 . S
C1321 C1320 1.386 . S
C1321 C1325 1.393 . S
C1322 H1314 0.950 . S
C1322 C1320 1.391 . S
C1322 C1323 1.400 . S
C1323 C1322 1.400 . S
C1323 C1324 1.398 . S
C1323 C1329 1.491 . S
C1324 H1315 0.950 . S
C1324 C1323 1.398 . S
C1324 C1325 1.391 . S
C1325 H1313 0.950 . S
C1325 C1321 1.393 . S
C1325 C1324 1.391 . S
C1326 H1316 0.950 . S
C1326 C1327 1.386 . S
C1326 C1328 1.391 . S
C1327 C1326 1.386 . S
C1327 C1331 1.393 . S
C1328 H1317 0.950 . S
C1328 C1326 1.391 . S
C1328 C1329 1.400 . S
C1329 C1323 1.491 . S
C1329 C1328 1.400 . S
C1329 C1330 1.398 . S
C1330 H1318 0.950 . S
C1330 C1329 1.398 . S
C1330 C1331 1.391 . S
C1331 H1319 0.950 . S
C1331 C1327 1.393 . S
C1331 C1330 1.391 . S
H1332 C1340 0.950 . S
H1333 C1345 0.950 . S
H1334 C1342 0.950 . S
H1335 C1344 0.950 . S
H1336 C1346 0.950 . S
H1337 C1348 0.950 . S
H1338 C1350 0.950 . S
H1339 C1351 0.950 . S
C1340 H1332 0.950 . S
C1340 C1341 1.386 . S
C1340 C1342 1.391 . S
C1341 C1340 1.386 . S
C1341 C1345 1.393 . S
C1342 H1334 0.950 . S
C1342 C1340 1.391 . S
C1342 C1343 1.400 . S
C1343 C1342 1.400 . S
C1343 C1344 1.398 . S
C1343 C1349 1.491 . S
C1344 H1335 0.950 . S
C1344 C1343 1.398 . S
C1344 C1345 1.391 . S
C1345 H1333 0.950 . S
C1345 C1341 1.393 . S
C1345 C1344 1.391 . S
C1346 H1336 0.950 . S
C1346 C1347 1.386 . S
C1346 C1348 1.391 . S
C1347 C1346 1.386 . S
C1347 C1351 1.393 . S
C1348 H1337 0.950 . S
C1348 C1346 1.391 . S
C1348 C1349 1.400 . S
C1349 C1343 1.491 . S
C1349 C1348 1.400 . S
C1349 C1350 1.398 . S
C1350 H1338 0.950 . S
C1350 C1349 1.398 . S
C1350 C1351 1.391 . S
C1351 H1339 0.950 . S
C1351 C1347 1.393 . S
C1351 C1350 1.391 . S
H1352 C1360 0.950 . S
H1353 C1365 0.950 . S
H1354 C1362 0.950 . S
H1355 C1364 0.950 . S
H1356 C1366 0.950 . S
H1357 C1368 0.950 . S
H1358 C1370 0.950 . S
H1359 C1371 0.950 . S
C1360 H1352 0.950 . S
C1360 C1361 1.386 . S
C1360 C1362 1.391 . S
C1361 C1360 1.386 . S
C1361 C1365 1.393 . S
C1362 H1354 0.950 . S
C1362 C1360 1.391 . S
C1362 C1363 1.400 . S
C1363 C1362 1.400 . S
C1363 C1364 1.398 . S
C1363 C1369 1.491 . S
C1364 H1355 0.950 . S
C1364 C1363 1.398 . S
C1364 C1365 1.391 . S
C1365 H1353 0.950 . S
C1365 C1361 1.393 . S
C1365 C1364 1.391 . S
C1366 H1356 0.950 . S
C1366 C1367 1.386 . S
C1366 C1368 1.391 . S
C1367 C1366 1.386 . S
C1367 C1371 1.393 . S
C1368 H1357 0.950 . S
C1368 C1366 1.391 . S
C1368 C1369 1.400 . S
C1369 C1363 1.491 . S
C1369 C1368 1.400 . S
C1369 C1370 1.398 . S
C1370 H1358 0.950 . S
C1370 C1369 1.398 . S
C1370 C1371 1.391 . S
C1371 H1359 0.950 . S
C1371 C1367 1.393 . S
C1371 C1370 1.391 . S
H1372 C1380 0.950 . S
H1373 C1385 0.950 . S
H1374 C1382 0.950 . S
H1375 C1384 0.950 . S
H1376 C1386 0.950 . S
H1377 C1388 0.950 . S
H1378 C1390 0.950 . S
H1379 C1391 0.950 . S
C1380 H1372 0.950 . S
C1380 C1381 1.386 . S
C1380 C1382 1.391 . S
C1381 C1380 1.386 . S
C1381 C1385 1.393 . S
C1382 H1374 0.950 . S
C1382 C1380 1.391 . S
C1382 C1383 1.400 . S
C1383 C1382 1.400 . S
C1383 C1384 1.398 . S
C1383 C1389 1.491 . S
C1384 H1375 0.950 . S
C1384 C1383 1.398 . S
C1384 C1385 1.391 . S
C1385 H1373 0.950 . S
C1385 C1381 1.393 . S
C1385 C1384 1.391 . S
C1386 H1376 0.950 . S
C1386 C1387 1.386 . S
C1386 C1388 1.391 . S
C1387 C1386 1.386 . S
C1387 C1391 1.393 . S
C1388 H1377 0.950 . S
C1388 C1386 1.391 . S
C1388 C1389 1.400 . S
C1389 C1383 1.491 . S
C1389 C1388 1.400 . S
C1389 C1390 1.398 . S
C1390 H1378 0.950 . S
C1390 C1389 1.398 . S
C1390 C1391 1.391 . S
C1391 H1379 0.950 . S
C1391 C1387 1.393 . S
C1391 C1390 1.391 . S
H1392 C1400 0.950 . S
H1393 C1405 0.950 . S
H1394 C1402 0.950 . S
H1395 C1404 0.950 . S
H1396 C1406 0.950 . S
H1397 C1408 0.950 . S
H1398 C1410 0.950 . S
H1399 C1411 0.950 . S
C1400 H1392 0.950 . S
C1400 C1401 1.386 . S
C1400 C1402 1.391 . S
C1401 C1400 1.386 . S
C1401 C1405 1.393 . S
C1402 H1394 0.950 . S
C1402 C1400 1.391 . S
C1402 C1403 1.400 . S
C1403 C1402 1.400 . S
C1403 C1404 1.398 . S
C1403 C1409 1.491 . S
C1404 H1395 0.950 . S
C1404 C1403 1.398 . S
C1404 C1405 1.391 . S
C1405 H1393 0.950 . S
C1405 C1401 1.393 . S
C1405 C1404 1.391 . S
C1406 H1396 0.950 . S
C1406 C1407 1.386 . S
C1406 C1408 1.391 . S
C1407 C1406 1.386 . S
C1407 C1411 1.393 . S
C1408 H1397 0.950 . S
C1408 C1406 1.391 . S
C1408 C1409 1.400 . S
C1409 C1403 1.491 . S
C1409 C1408 1.400 . S
C1409 C1410 1.398 . S
C1410 H1398 0.950 . S
C1410 C1409 1.398 . S
C1410 C1411 1.391 . S
C1411 H1399 0.950 . S
C1411 C1407 1.393 . S
C1411 C1410 1.391 . S
H1412 C1420 0.950 . S
H1413 C1425 0.950 . S
H1414 C1422 0.950 . S
H1415 C1424 0.950 . S
H1416 C1426 0.950 . S
H1417 C1428 0.950 . S
H1418 C1430 0.950 . S
H1419 C1431 0.950 . S
C1420 H1412 0.950 . S
C1420 C1421 1.386 . S
C1420 C1422 1.391 . S
C1421 C1420 1.386 . S
C1421 C1425 1.393 . S
C1422 H1414 0.950 . S
C1422 C1420 1.391 . S
C1422 C1423 1.400 . S
C1423 C1422 1.400 . S
C1423 C1424 1.398 . S
C1423 C1429 1.491 . S
C1424 H1415 0.950 . S
C1424 C1423 1.398 . S
C1424 C1425 1.391 . S
C1425 H1413 0.950 . S
C1425 C1421 1.393 . S
C1425 C1424 1.391 . S
C1426 H1416 0.950 . S
C1426 C1427 1.386 . S
C1426 C1428 1.391 . S
C1427 C1426 1.386 . S
C1427 C1431 1.393 . S
C1428 H1417 0.950 . S
C1428 C1426 1.391 . S
C1428 C1429 1.400 . S
C1429 C1423 1.491 . S
C1429 C1428 1.400 . S
C1429 C1430 1.398 . S
C1430 H1418 0.950 . S
C1430 C1429 1.398 . S
C1430 C1431 1.391 . S
C1431 H1419 0.950 . S
C1431 C1427 1.393 . S
C1431 C1430 1.391 . S
H1432 C1440 0.950 . S
H1433 C1445 0.950 . S
H1434 C1442 0.950 . S
H1435 C1444 0.950 . S
H1436 C1446 0.950 . S
H1437 C1448 0.950 . S
H1438 C1450 0.950 . S
H1439 C1451 0.950 . S
C1440 H1432 0.950 . S
C1440 C1441 1.386 . S
C1440 C1442 1.391 . S
C1441 C1440 1.386 . S
C1441 C1445 1.393 . S
C1442 H1434 0.950 . S
C1442 C1440 1.391 . S
C1442 C1443 1.400 . S
C1443 C1442 1.400 . S
C1443 C1444 1.398 . S
C1443 C1449 1.491 . S
C1444 H1435 0.950 . S
C1444 C1443 1.398 . S
C1444 C1445 1.391 . S
C1445 H1433 0.950 . S
C1445 C1441 1.393 . S
C1445 C1444 1.391 . S
C1446 H1436 0.950 . S
C1446 C1447 1.386 . S
C1446 C1448 1.391 . S
C1447 C1446 1.386 . S
C1447 C1451 1.393 . S
C1448 H1437 0.950 . S
C1448 C1446 1.391 . S
C1448 C1449 1.400 . S
C1449 C1443 1.491 . S
C1449 C1448 1.400 . S
C1449 C1450 1.398 . S
C1450 H1438 0.950 . S
C1450 C1449 1.398 . S
C1450 C1451 1.391 . S
C1451 H1439 0.950 . S
C1451 C1447 1.393 . S
C1451 C1450 1.391 . S
H1452 C1460 0.950 . S
H1453 C1465 0.950 . S
H1454 C1462 0.950 . S
H1455 C1464 0.950 . S
H1456 C1466 0.950 . S
H1457 C1468 0.950 . S
H1458 C1470 0.950 . S
H1459 C1471 0.950 . S
C1460 H1452 0.950 . S
C1460 C1461 1.386 . S
C1460 C1462 1.391 . S
C1461 C1460 1.386 . S
C1461 C1465 1.393 . S
C1462 H1454 0.950 . S
C1462 C1460 1.391 . S
C1462 C1463 1.400 . S
C1463 C1462 1.400 . S
C1463 C1464 1.398 . S
C1463 C1469 1.491 . S
C1464 H1455 0.950 . S
C1464 C1463 1.398 . S
C1464 C1465 1.391 . S
C1465 H1453 0.950 . S
C1465 C1461 1.393 . S
C1465 C1464 1.391 . S
C1466 H1456 0.950 . S
C1466 C1467 1.386 . S
C1466 C1468 1.391 . S
C1467 C1466 1.386 . S
C1467 C1471 1.393 . S
C1468 H1457 0.950 . S
C1468 C1466 1.391 . S
C1468 C1469 1.400 . S
C1469 C1463 1.491 . S
C1469 C1468 1.400 . S
C1469 C1470 1.398 . S
C1470 H1458 0.950 . S
C1470 C1469 1.398 . S
C1470 C1471 1.391 . S
C1471 H1459 0.950 . S
C1471 C1467 1.393 . S
C1471 C1470 1.391 . S
H1472 C1480 0.950 . S
H1473 C1485 0.950 . S
H1474 C1482 0.950 . S
H1475 C1484 0.950 . S
H1476 C1486 0.950 . S
H1477 C1488 0.950 . S
H1478 C1490 0.950 . S
H1479 C1491 0.950 . S
C1480 H1472 0.950 . S
C1480 C1481 1.386 . S
C1480 C1482 1.391 . S
C1481 C1480 1.386 . S
C1481 C1485 1.393 . S
C1482 H1474 0.950 . S
C1482 C1480 1.391 . S
C1482 C1483 1.400 . S
C1483 C1482 1.400 . S
C1483 C1484 1.398 . S
C1483 C1489 1.491 . S
C1484 H1475 0.950 . S
C1484 C1483 1.398 . S
C1484 C1485 1.391 . S
C1485 H1473 0.950 . S
C1485 C1481 1.393 . S
C1485 C1484 1.391 . S
C1486 H1476 0.950 . S
C1486 C1487 1.386 . S
C1486 C1488 1.391 . S
C1487 C1486 1.386 . S
C1487 C1491 1.393 . S
C1488 H1477 0.950 . S
C1488 C1486 1.391 . S
C1488 C1489 1.400 . S
C1489 C1483 1.491 . S
C1489 C1488 1.400 . S
C1489 C1490 1.398 . S
C1490 H1478 0.950 . S
C1490 C1489 1.398 . S
C1490 C1491 1.391 . S
C1491 H1479 0.950 . S
C1491 C1487 1.393 . S
C1491 C1490 1.391 . S
H1492 C1500 0.950 . S
H1493 C1505 0.950 . S
H1494 C1502 0.950 . S
H1495 C1504 0.950 . S
H1496 C1506 0.950 . S
H1497 C1508 0.950 . S
H1498 C1510 0.950 . S
H1499 C1511 0.950 . S
C1500 H1492 0.950 . S
C1500 C1501 1.386 . S
C1500 C1502 1.391 . S
C1501 C1500 1.386 . S
C1501 C1505 1.393 . S
C1502 H1494 0.950 . S
C1502 C1500 1.391 . S
C1502 C1503 1.400 . S
C1503 C1502 1.400 . S
C1503 C1504 1.398 . S
C1503 C1509 1.491 . S
C1504 H1495 0.950 . S
C1504 C1503 1.398 . S
C1504 C1505 1.391 . S
C1505 H1493 0.950 . S
C1505 C1501 1.393 . S
C1505 C1504 1.391 . S
C1506 H1496 0.950 . S
C1506 C1507 1.386 . S
C1506 C1508 1.391 . S
C1507 C1506 1.386 . S
C1507 C1511 1.393 . S
C1508 H1497 0.950 . S
C1508 C1506 1.391 . S
C1508 C1509 1.400 . S
C1509 C1503 1.491 . S
C1509 C1508 1.400 . S
C1509 C1510 1.398 . S
C1510 H1498 0.950 . S
C1510 C1509 1.398 . S
C1510 C1511 1.391 . S
C1511 H1499 0.950 . S
C1511 C1507 1.393 . S
C1511 C1510 1.391 . S
H1512 C1520 0.950 . S
H1513 C1525 0.950 . S
H1514 C1522 0.950 . S
H1515 C1524 0.950 . S
H1516 C1526 0.950 . S
H1517 C1528 0.950 . S
H1518 C1530 0.950 . S
H1519 C1531 0.950 . S
C1520 H1512 0.950 . S
C1520 C1521 1.386 . S
C1520 C1522 1.391 . S
C1521 C1520 1.386 . S
C1521 C1525 1.393 . S
C1522 H1514 0.950 . S
C1522 C1520 1.391 . S
C1522 C1523 1.400 . S
C1523 C1522 1.400 . S
C1523 C1524 1.398 . S
C1523 C1529 1.491 . S
C1524 H1515 0.950 . S
C1524 C1523 1.398 . S
C1524 C1525 1.391 . S
C1525 H1513 0.950 . S
C1525 C1521 1.393 . S
C1525 C1524 1.391 . S
C1526 H1516 0.950 . S
C1526 C1527 1.386 . S
C1526 C1528 1.391 . S
C1527 C1526 1.386 . S
C1527 C1531 1.393 . S
C1528 H1517 0.950 . S
C1528 C1526 1.391 . S
C1528 C1529 1.400 . S
C1529 C1523 1.491 . S
C1529 C1528 1.400 . S
C1529 C1530 1.398 . S
C1530 H1518 0.950 . S
C1530 C1529 1.398 . S
C1530 C1531 1.391 . S
C1531 H1519 0.950 . S
C1531 C1527 1.393 . S
C1531 C1530 1.391 . S
H1532 C1540 0.950 . S
H1533 C1545 0.950 . S
H1534 C1542 0.950 . S
H1535 C1544 0.950 . S
H1536 C1546 0.950 . S
H1537 C1548 0.950 . S
H1538 C1550 0.950 . S
H1539 C1551 0.950 . S
C1540 H1532 0.950 . S
C1540 C1541 1.386 . S
C1540 C1542 1.391 . S
C1541 C1540 1.386 . S
C1541 C1545 1.393 . S
C1542 H1534 0.950 . S
C1542 C1540 1.391 . S
C1542 C1543 1.400 . S
C1543 C1542 1.400 . S
C1543 C1544 1.398 . S
C1543 C1549 1.491 . S
C1544 H1535 0.950 . S
C1544 C1543 1.398 . S
C1544 C1545 1.391 . S
C1545 H1533 0.950 . S
C1545 C1541 1.393 . S
C1545 C1544 1.391 . S
C1546 H1536 0.950 . S
C1546 C1547 1.386 . S
C1546 C1548 1.391 . S
C1547 C1546 1.386 . S
C1547 C1551 1.393 . S
C1548 H1537 0.950 . S
C1548 C1546 1.391 . S
C1548 C1549 1.400 . S
C1549 C1543 1.491 . S
C1549 C1548 1.400 . S
C1549 C1550 1.398 . S
C1550 H1538 0.950 . S
C1550 C1549 1.398 . S
C1550 C1551 1.391 . S
C1551 H1539 0.950 . S
C1551 C1547 1.393 . S
C1551 C1550 1.391 . S
H1552 C1560 0.950 . S
H1553 C1565 0.950 . S
H1554 C1562 0.950 . S
H1555 C1564 0.950 . S
H1556 C1566 0.950 . S
H1557 C1568 0.950 . S
H1558 C1570 0.950 . S
H1559 C1571 0.950 . S
C1560 H1552 0.950 . S
C1560 C1561 1.386 . S
C1560 C1562 1.391 . S
C1561 C1560 1.386 . S
C1561 C1565 1.393 . S
C1562 H1554 0.950 . S
C1562 C1560 1.391 . S
C1562 C1563 1.400 . S
C1563 C1562 1.400 . S
C1563 C1564 1.398 . S
C1563 C1569 1.491 . S
C1564 H1555 0.950 . S
C1564 C1563 1.398 . S
C1564 C1565 1.391 . S
C1565 H1553 0.950 . S
C1565 C1561 1.393 . S
C1565 C1564 1.391 . S
C1566 H1556 0.950 . S
C1566 C1567 1.386 . S
C1566 C1568 1.391 . S
C1567 C1566 1.386 . S
C1567 C1571 1.393 . S
C1568 H1557 0.950 . S
C1568 C1566 1.391 . S
C1568 C1569 1.400 . S
C1569 C1563 1.491 . S
C1569 C1568 1.400 . S
C1569 C1570 1.398 . S
C1570 H1558 0.950 . S
C1570 C1569 1.398 . S
C1570 C1571 1.391 . S
C1571 H1559 0.950 . S
C1571 C1567 1.393 . S
C1571 C1570 1.391 . S
H1572 C1580 0.950 . S
H1573 C1585 0.950 . S
H1574 C1582 0.950 . S
H1575 C1584 0.950 . S
H1576 C1586 0.950 . S
H1577 C1588 0.950 . S
H1578 C1590 0.950 . S
H1579 C1591 0.950 . S
C1580 H1572 0.950 . S
C1580 C1581 1.386 . S
C1580 C1582 1.391 . S
C1581 C1580 1.386 . S
C1581 C1585 1.393 . S
C1582 H1574 0.950 . S
C1582 C1580 1.391 . S
C1582 C1583 1.400 . S
C1583 C1582 1.400 . S
C1583 C1584 1.398 . S
C1583 C1589 1.491 . S
C1584 H1575 0.950 . S
C1584 C1583 1.398 . S
C1584 C1585 1.391 . S
C1585 H1573 0.950 . S
C1585 C1581 1.393 . S
C1585 C1584 1.391 . S
C1586 H1576 0.950 . S
C1586 C1587 1.386 . S
C1586 C1588 1.391 . S
C1587 C1586 1.386 . S
C1587 C1591 1.393 . S
C1588 H1577 0.950 . S
C1588 C1586 1.391 . S
C1588 C1589 1.400 . S
C1589 C1583 1.491 . S
C1589 C1588 1.400 . S
C1589 C1590 1.398 . S
C1590 H1578 0.950 . S
C1590 C1589 1.398 . S
C1590 C1591 1.391 . S
C1591 H1579 0.950 . S
C1591 C1587 1.393 . S
C1591 C1590 1.391 . S
H1592 C1600 0.950 . S
H1593 C1605 0.950 . S
H1594 C1602 0.950 . S
H1595 C1604 0.950 . S
H1596 C1606 0.950 . S
H1597 C1608 0.950 . S
H1598 C1610 0.950 . S
H1599 C1611 0.950 . S
C1600 H1592 0.950 . S
C1600 C1601 1.386 . S
C1600 C1602 1.391 . S
C1601 C1600 1.386 . S
C1601 C1605 1.393 . S
C1602 H1594 0.950 . S
C1602 C1600 1.391 . S
C1602 C1603 1.400 . S
C1603 C1602 1.400 . S
C1603 C1604 1.398 . S
C1603 C1609 1.491 . S
C1604 H1595 0.950 . S
C1604 C1603 1.398 . S
C1604 C1605 1.391 . S
C1605 H1593 0.950 . S
C1605 C1601 1.393 . S
C1605 C1604 1.391 . S
C1606 H1596 0.950 . S
C1606 C1607 1.386 . S
C1606 C1608 1.391 . S
C1607 C1606 1.386 . S
C1607 C1611 1.393 . S
C1608 H1597 0.950 . S
C1608 C1606 1.391 . S
C1608 C1609 1.400 . S
C1609 C1603 1.491 . S
C1609 C1608 1.400 . S
C1609 C1610 1.398 . S
C1610 H1598 0.950 . S
C1610 C1609 1.398 . S
C1610 C1611 1.391 . S
C1611 H1599 0.950 . S
C1611 C1607 1.393 . S
C1611 C1610 1.391 . S
H1612 C1620 0.950 . S
H1613 C1625 0.950 . S
H1614 C1622 0.950 . S
H1615 C1624 0.950 . S
H1616 C1626 0.950 . S
H1617 C1628 0.950 . S
H1618 C1630 0.950 . S
H1619 C1631 0.950 . S
C1620 H1612 0.950 . S
C1620 C1621 1.386 . S
C1620 C1622 1.391 . S
C1621 C1620 1.386 . S
C1621 C1625 1.393 . S
C1622 H1614 0.950 . S
C1622 C1620 1.391 . S
C1622 C1623 1.400 . S
C1623 C1622 1.400 . S
C1623 C1624 1.398 . S
C1623 C1629 1.491 . S
C1624 H1615 0.950 . S
C1624 C1623 1.398 . S
C1624 C1625 1.391 . S
C1625 H1613 0.950 . S
C1625 C1621 1.393 . S
C1625 C1624 1.391 . S
C1626 H1616 0.950 . S
C1626 C1627 1.386 . S
C1626 C1628 1.391 . S
C1627 C1626 1.386 . S
C1627 C1631 1.393 . S
C1628 H1617 0.950 . S
C1628 C1626 1.391 . S
C1628 C1629 1.400 . S
C1629 C1623 1.491 . S
C1629 C1628 1.400 . S
C1629 C1630 1.398 . S
C1630 H1618 0.950 . S
C1630 C1629 1.398 . S
C1630 C1631 1.391 . S
C1631 H1619 0.950 . S
C1631 C1627 1.393 . S
C1631 C1630 1.391 . S
H1632 C1640 0.950 . S
H1633 C1645 0.950 . S
H1634 C1642 0.950 . S
H1635 C1644 0.950 . S
H1636 C1646 0.950 . S
H1637 C1648 0.950 . S
H1638 C1650 0.950 . S
H1639 C1651 0.950 . S
C1640 H1632 0.950 . S
C1640 C1641 1.386 . S
C1640 C1642 1.391 . S
C1641 C1640 1.386 . S
C1641 C1645 1.393 . S
C1642 H1634 0.950 . S
C1642 C1640 1.391 . S
C1642 C1643 1.400 . S
C1643 C1642 1.400 . S
C1643 C1644 1.398 . S
C1643 C1649 1.491 . S
C1644 H1635 0.950 . S
C1644 C1643 1.398 . S
C1644 C1645 1.391 . S
C1645 H1633 0.950 . S
C1645 C1641 1.393 . S
C1645 C1644 1.391 . S
C1646 H1636 0.950 . S
C1646 C1647 1.386 . S
C1646 C1648 1.391 . S
C1647 C1646 1.386 . S
C1647 C1651 1.393 . S
C1648 H1637 0.950 . S
C1648 C1646 1.391 . S
C1648 C1649 1.400 . S
C1649 C1643 1.491 . S
C1649 C1648 1.400 . S
C1649 C1650 1.398 . S
C1650 H1638 0.950 . S
C1650 C1649 1.398 . S
C1650 C1651 1.391 . S
C1651 H1639 0.950 . S
C1651 C1647 1.393 . S
C1651 C1650 1.391 . S
H1652 C1660 0.950 . S
H1653 C1665 0.950 . S
H1654 C1662 0.950 . S
H1655 C1664 0.950 . S
H1656 C1666 0.950 . S
H1657 C1668 0.950 . S
H1658 C1670 0.950 . S
H1659 C1671 0.950 . S
C1660 H1652 0.950 . S
C1660 C1661 1.386 . S
C1660 C1662 1.391 . S
C1661 C1660 1.386 . S
C1661 C1665 1.393 . S
C1662 H1654 0.950 . S
C1662 C1660 1.391 . S
C1662 C1663 1.400 . S
C1663 C1662 1.400 . S
C1663 C1664 1.398 . S
C1663 C1669 1.491 . S
C1664 H1655 0.950 . S
C1664 C1663 1.398 . S
C1664 C1665 1.391 . S
C1665 H1653 0.950 . S
C1665 C1661 1.393 . S
C1665 C1664 1.391 . S
C1666 H1656 0.950 . S
C1666 C1667 1.386 . S
C1666 C1668 1.391 . S
C1667 C1666 1.386 . S
C1667 C1671 1.393 . S
C1668 H1657 0.950 . S
C1668 C1666 1.391 . S
C1668 C1669 1.400 . S
C1669 C1663 1.491 . S
C1669 C1668 1.400 . S
C1669 C1670 1.398 . S
C1670 H1658 0.950 . S
C1670 C1669 1.398 . S
C1670 C1671 1.391 . S
C1671 H1659 0.950 . S
C1671 C1667 1.393 . S
C1671 C1670 1.391 . S
H1672 C1680 0.950 . S
H1673 C1685 0.950 . S
H1674 C1682 0.950 . S
H1675 C1684 0.950 . S
H1676 C1686 0.950 . S
H1677 C1688 0.950 . S
H1678 C1690 0.950 . S
H1679 C1691 0.950 . S
C1680 H1672 0.950 . S
C1680 C1681 1.386 . S
C1680 C1682 1.391 . S
C1681 C1680 1.386 . S
C1681 C1685 1.393 . S
C1682 H1674 0.950 . S
C1682 C1680 1.391 . S
C1682 C1683 1.400 . S
C1683 C1682 1.400 . S
C1683 C1684 1.398 . S
C1683 C1689 1.491 . S
C1684 H1675 0.950 . S
C1684 C1683 1.398 . S
C1684 C1685 1.391 . S
C1685 H1673 0.950 . S
C1685 C1681 1.393 . S
C1685 C1684 1.391 . S
C1686 H1676 0.950 . S
C1686 C1687 1.386 . S
C1686 C1688 1.391 . S
C1687 C1686 1.386 . S
C1687 C1691 1.393 . S
C1688 H1677 0.950 . S
C1688 C1686 1.391 . S
C1688 C1689 1.400 . S
C1689 C1683 1.491 . S
C1689 C1688 1.400 . S
C1689 C1690 1.398 . S
C1690 H1678 0.950 . S
C1690 C1689 1.398 . S
C1690 C1691 1.391 . S
C1691 H1679 0.950 . S
C1691 C1687 1.393 . S
C1691 C1690 1.391 . S
H1692 C1700 0.950 . S
H1693 C1705 0.950 . S
H1694 C1702 0.950 . S
H1695 C1704 0.950 . S
H1696 C1706 0.950 . S
H1697 C1708 0.950 . S
H1698 C1710 0.950 . S
H1699 C1711 0.950 . S
C1700 H1692 0.950 . S
C1700 C1701 1.386 . S
C1700 C1702 1.391 . S
C1701 C1700 1.386 . S
C1701 C1705 1.393 . S
C1702 H1694 0.950 . S
C1702 C1700 1.391 . S
C1702 C1703 1.400 . S
C1703 C1702 1.400 . S
C1703 C1704 1.398 . S
C1703 C1709 1.491 . S
C1704 H1695 0.950 . S
C1704 C1703 1.398 . S
C1704 C1705 1.391 . S
C1705 H1693 0.950 . S
C1705 C1701 1.393 . S
C1705 C1704 1.391 . S
C1706 H1696 0.950 . S
C1706 C1707 1.386 . S
C1706 C1708 1.391 . S
C1707 C1706 1.386 . S
C1707 C1711 1.393 . S
C1708 H1697 0.950 . S
C1708 C1706 1.391 . S
C1708 C1709 1.400 . S
C1709 C1703 1.491 . S
C1709 C1708 1.400 . S
C1709 C1710 1.398 . S
C1710 H1698 0.950 . S
C1710 C1709 1.398 . S
C1710 C1711 1.391 . S
C1711 H1699 0.950 . S
C1711 C1707 1.393 . S
C1711 C1710 1.391 . S
H1712 C1720 0.950 . S
H1713 C1725 0.950 . S
H1714 C1722 0.950 . S
H1715 C1724 0.950 . S
H1716 C1726 0.950 . S
H1717 C1728 0.950 . S
H1718 C1730 0.950 . S
H1719 C1731 0.950 . S
C1720 H1712 0.950 . S
C1720 C1721 1.386 . S
C1720 C1722 1.391 . S
C1721 C1720 1.386 . S
C1721 C1725 1.393 . S
C1722 H1714 0.950 . S
C1722 C1720 1.391 . S
C1722 C1723 1.400 . S
C1723 C1722 1.400 . S
C1723 C1724 1.398 . S
C1723 C1729 1.491 . S
C1724 H1715 0.950 . S
C1724 C1723 1.398 . S
C1724 C1725 1.391 . S
C1725 H1713 0.950 . S
C1725 C1721 1.393 . S
C1725 C1724 1.391 . S
C1726 H1716 0.950 . S
C1726 C1727 1.386 . S
C1726 C1728 1.391 . S
C1727 C1726 1.386 . S
C1727 C1731 1.393 . S
C1728 H1717 0.950 . S
C1728 C1726 1.391 . S
C1728 C1729 1.400 . S
C1729 C1723 1.491 . S
C1729 C1728 1.400 . S
C1729 C1730 1.398 . S
C1730 H1718 0.950 . S
C1730 C1729 1.398 . S
C1730 C1731 1.391 . S
C1731 H1719 0.950 . S
C1731 C1727 1.393 . S
C1731 C1730 1.391 . S
H1732 C1740 0.950 . S
H1733 C1745 0.950 . S
H1734 C1742 0.950 . S
H1735 C1744 0.950 . S
H1736 C1746 0.950 . S
H1737 C1748 0.950 . S
H1738 C1750 0.950 . S
H1739 C1751 0.950 . S
C1740 H1732 0.950 . S
C1740 C1741 1.386 . S
C1740 C1742 1.391 . S
C1741 C1740 1.386 . S
C1741 C1745 1.393 . S
C1742 H1734 0.950 . S
C1742 C1740 1.391 . S
C1742 C1743 1.400 . S
C1743 C1742 1.400 . S
C1743 C1744 1.398 . S
C1743 C1749 1.491 . S
C1744 H1735 0.950 . S
C1744 C1743 1.398 . S
C1744 C1745 1.391 . S
C1745 H1733 0.950 . S
C1745 C1741 1.393 . S
C1745 C1744 1.391 . S
C1746 H1736 0.950 . S
C1746 C1747 1.386 . S
C1746 C1748 1.391 . S
C1747 C1746 1.386 . S
C1747 C1751 1.393 . S
C1748 H1737 0.950 . S
C1748 C1746 1.391 . S
C1748 C1749 1.400 . S
C1749 C1743 1.491 . S
C1749 C1748 1.400 . S
C1749 C1750 1.398 . S
C1750 H1738 0.950 . S
C1750 C1749 1.398 . S
C1750 C1751 1.391 . S
C1751 H1739 0.950 . S
C1751 C1747 1.393 . S
C1751 C1750 1.391 . S
H1752 C1760 0.950 . S
H1753 C1765 0.950 . S
H1754 C1762 0.950 . S
H1755 C1764 0.950 . S
H1756 C1766 0.950 . S
H1757 C1768 0.950 . S
H1758 C1770 0.950 . S
H1759 C1771 0.950 . S
C1760 H1752 0.950 . S
C1760 C1761 1.386 . S
C1760 C1762 1.391 . S
C1761 C1760 1.386 . S
C1761 C1765 1.393 . S
C1762 H1754 0.950 . S
C1762 C1760 1.391 . S
C1762 C1763 1.400 . S
C1763 C1762 1.400 . S
C1763 C1764 1.398 . S
C1763 C1769 1.491 . S
C1764 H1755 0.950 . S
C1764 C1763 1.398 . S
C1764 C1765 1.391 . S
C1765 H1753 0.950 . S
C1765 C1761 1.393 . S
C1765 C1764 1.391 . S
C1766 H1756 0.950 . S
C1766 C1767 1.386 . S
C1766 C1768 1.391 . S
C1767 C1766 1.386 . S
C1767 C1771 1.393 . S
C1768 H1757 0.950 . S
C1768 C1766 1.391 . S
C1768 C1769 1.400 . S
C1769 C1763 1.491 . S
C1769 C1768 1.400 . S
C1769 C1770 1.398 . S
C1770 H1758 0.950 . S
C1770 C1769 1.398 . S
C1770 C1771 1.391 . S
C1771 H1759 0.950 . S
C1771 C1767 1.393 . S
C1771 C1770 1.391 . S
H1772 C1780 0.950 . S
H1773 C1785 0.950 . S
H1774 C1782 0.950 . S
H1775 C1784 0.950 . S
H1776 C1786 0.950 . S
H1777 C1788 0.950 . S
H1778 C1790 0.950 . S
H1779 C1791 0.950 . S
C1780 H1772 0.950 . S
C1780 C1781 1.386 . S
C1780 C1782 1.391 . S
C1781 C1780 1.386 . S
C1781 C1785 1.393 . S
C1782 H1774 0.950 . S
C1782 C1780 1.391 . S
C1782 C1783 1.400 . S
C1783 C1782 1.400 . S
C1783 C1784 1.398 . S
C1783 C1789 1.491 . S
C1784 H1775 0.950 . S
C1784 C1783 1.398 . S
C1784 C1785 1.391 . S
C1785 H1773 0.950 . S
C1785 C1781 1.393 . S
C1785 C1784 1.391 . S
C1786 H1776 0.950 . S
C1786 C1787 1.386 . S
C1786 C1788 1.391 . S
C1787 C1786 1.386 . S
C1787 C1791 1.393 . S
C1788 H1777 0.950 . S
C1788 C1786 1.391 . S
C1788 C1789 1.400 . S
C1789 C1783 1.491 . S
C1789 C1788 1.400 . S
C1789 C1790 1.398 . S
C1790 H1778 0.950 . S
C1790 C1789 1.398 . S
C1790 C1791 1.391 . S
C1791 H1779 0.950 . S
C1791 C1787 1.393 . S
C1791 C1790 1.391 . S
H1792 C1800 0.950 . S
H1793 C1805 0.950 . S
H1794 C1802 0.950 . S
H1795 C1804 0.950 . S
H1796 C1806 0.950 . S
H1797 C1808 0.950 . S
H1798 C1810 0.950 . S
H1799 C1811 0.950 . S
C1800 H1792 0.950 . S
C1800 C1801 1.386 . S
C1800 C1802 1.391 . S
C1801 C1800 1.386 . S
C1801 C1805 1.393 . S
C1802 H1794 0.950 . S
C1802 C1800 1.391 . S
C1802 C1803 1.400 . S
C1803 C1802 1.400 . S
C1803 C1804 1.398 . S
C1803 C1809 1.491 . S
C1804 H1795 0.950 . S
C1804 C1803 1.398 . S
C1804 C1805 1.391 . S
C1805 H1793 0.950 . S
C1805 C1801 1.393 . S
C1805 C1804 1.391 . S
C1806 H1796 0.950 . S
C1806 C1807 1.386 . S
C1806 C1808 1.391 . S
C1807 C1806 1.386 . S
C1807 C1811 1.393 . S
C1808 H1797 0.950 . S
C1808 C1806 1.391 . S
C1808 C1809 1.400 . S
C1809 C1803 1.491 . S
C1809 C1808 1.400 . S
C1809 C1810 1.398 . S
C1810 H1798 0.950 . S
C1810 C1809 1.398 . S
C1810 C1811 1.391 . S
C1811 H1799 0.950 . S
C1811 C1807 1.393 . S
C1811 C1810 1.391 . S
H1812 C1820 0.950 . S
H1813 C1825 0.950 . S
H1814 C1822 0.950 . S
H1815 C1824 0.950 . S
H1816 C1826 0.950 . S
H1817 C1828 0.950 . S
H1818 C1830 0.950 . S
H1819 C1831 0.950 . S
C1820 H1812 0.950 . S
C1820 C1821 1.386 . S
C1820 C1822 1.391 . S
C1821 C1820 1.386 . S
C1821 C1825 1.393 . S
C1822 H1814 0.950 . S
C1822 C1820 1.391 . S
C1822 C1823 1.400 . S
C1823 C1822 1.400 . S
C1823 C1824 1.398 . S
C1823 C1829 1.491 . S
C1824 H1815 0.950 . S
C1824 C1823 1.398 . S
C1824 C1825 1.391 . S
C1825 H1813 0.950 . S
C1825 C1821 1.393 . S
C1825 C1824 1.391 . S
C1826 H1816 0.950 . S
C1826 C1827 1.386 . S
C1826 C1828 1.391 . S
C1827 C1826 1.386 . S
C1827 C1831 1.393 . S
C1828 H1817 0.950 . S
C1828 C1826 1.391 . S
C1828 C1829 1.400 . S
C1829 C1823 1.491 . S
C1829 C1828 1.400 . S
C1829 C1830 1.398 . S
C1830 H1818 0.950 . S
C1830 C1829 1.398 . S
C1830 C1831 1.391 . S
C1831 H1819 0.950 . S
C1831 C1827 1.393 . S
C1831 C1830 1.391 . S
H1832 C1840 0.950 . S
H1833 C1845 0.950 . S
H1834 C1842 0.950 . S
H1835 C1844 0.950 . S
H1836 C1846 0.950 . S
H1837 C1848 0.950 . S
H1838 C1850 0.950 . S
H1839 C1851 0.950 . S
C1840 H1832 0.950 . S
C1840 C1841 1.386 . S
C1840 C1842 1.391 . S
C1841 C1840 1.386 . S
C1841 C1845 1.393 . S
C1842 H1834 0.950 . S
C1842 C1840 1.391 . S
C1842 C1843 1.400 . S
C1843 C1842 1.400 . S
C1843 C1844 1.398 . S
C1843 C1849 1.491 . S
C1844 H1835 0.950 . S
C1844 C1843 1.398 . S
C1844 C1845 1.391 . S
C1845 H1833 0.950 . S
C1845 C1841 1.393 . S
C1845 C1844 1.391 . S
C1846 H1836 0.950 . S
C1846 C1847 1.386 . S
C1846 C1848 1.391 . S
C1847 C1846 1.386 . S
C1847 C1851 1.393 . S
C1848 H1837 0.950 . S
C1848 C1846 1.391 . S
C1848 C1849 1.400 . S
C1849 C1843 1.491 . S
C1849 C1848 1.400 . S
C1849 C1850 1.398 . S
C1850 H1838 0.950 . S
C1850 C1849 1.398 . S
C1850 C1851 1.391 . S
C1851 H1839 0.950 . S
C1851 C1847 1.393 . S
C1851 C1850 1.391 . S
H1852 C1860 0.950 . S
H1853 C1865 0.950 . S
H1854 C1862 0.950 . S
H1855 C1864 0.950 . S
H1856 C1866 0.950 . S
H1857 C1868 0.950 . S
H1858 C1870 0.950 . S
H1859 C1871 0.950 . S
C1860 H1852 0.950 . S
C1860 C1861 1.386 . S
C1860 C1862 1.391 . S
C1861 C1860 1.386 . S
C1861 C1865 1.393 . S
C1862 H1854 0.950 . S
C1862 C1860 1.391 . S
C1862 C1863 1.400 . S
C1863 C1862 1.400 . S
C1863 C1864 1.398 . S
C1863 C1869 1.491 . S
C1864 H1855 0.950 . S
C1864 C1863 1.398 . S
C1864 C1865 1.391 . S
C1865 H1853 0.950 . S
C1865 C1861 1.393 . S
C1865 C1864 1.391 . S
C1866 H1856 0.950 . S
C1866 C1867 1.386 . S
C1866 C1868 1.391 . S
C1867 C1866 1.386 . S
C1867 C1871 1.393 . S
C1868 H1857 0.950 . S
C1868 C1866 1.391 . S
C1868 C1869 1.400 . S
C1869 C1863 1.491 . S
C1869 C1868 1.400 . S
C1869 C1870 1.398 . S
C1870 H1858 0.950 . S
C1870 C1869 1.398 . S
C1870 C1871 1.391 . S
C1871 H1859 0.950 . S
C1871 C1867 1.393 . S
C1871 C1870 1.391 . S
H1872 C1880 0.950 . S
H1873 C1885 0.950 . S
H1874 C1882 0.950 . S
H1875 C1884 0.950 . S
H1876 C1886 0.950 . S
H1877 C1888 0.950 . S
H1878 C1890 0.950 . S
H1879 C1891 0.950 . S
C1880 H1872 0.950 . S
C1880 C1881 1.386 . S
C1880 C1882 1.391 . S
C1881 C1880 1.386 . S
C1881 C1885 1.393 . S
C1882 H1874 0.950 . S
C1882 C1880 1.391 . S
C1882 C1883 1.400 . S
C1883 C1882 1.400 . S
C1883 C1884 1.398 . S
C1883 C1889 1.491 . S
C1884 H1875 0.950 . S
C1884 C1883 1.398 . S
C1884 C1885 1.391 . S
C1885 H1873 0.950 . S
C1885 C1881 1.393 . S
C1885 C1884 1.391 . S
C1886 H1876 0.950 . S
C1886 C1887 1.386 . S
C1886 C1888 1.391 . S
C1887 C1886 1.386 . S
C1887 C1891 1.393 . S
C1888 H1877 0.950 . S
C1888 C1886 1.391 . S
C1888 C1889 1.400 . S
C1889 C1883 1.491 . S
C1889 C1888 1.400 . S
C1889 C1890 1.398 . S
C1890 H1878 0.950 . S
C1890 C1889 1.398 . S
C1890 C1891 1.391 . S
C1891 H1879 0.950 . S
C1891 C1887 1.393 . S
C1891 C1890 1.391 . S
H1892 C1900 0.950 . S
H1893 C1905 0.950 . S
H1894 C1902 0.950 . S
H1895 C1904 0.950 . S
H1896 C1906 0.950 . S
H1897 C1908 0.950 . S
H1898 C1910 0.950 . S
H1899 C1911 0.950 . S
C1900 H1892 0.950 . S
C1900 C1901 1.386 . S
C1900 C1902 1.391 . S
C1901 C1900 1.386 . S
C1901 C1905 1.393 . S
C1902 H1894 0.950 . S
C1902 C1900 1.391 . S
C1902 C1903 1.400 . S
C1903 C1902 1.400 . S
C1903 C1904 1.398 . S
C1903 C1909 1.491 . S
C1904 H1895 0.950 . S
C1904 C1903 1.398 . S
C1904 C1905 1.391 . S
C1905 H1893 0.950 . S
C1905 C1901 1.393 . S
C1905 C1904 1.391 . S
C1906 H1896 0.950 . S
C1906 C1907 1.386 . S
C1906 C1908 1.391 . S
C1907 C1906 1.386 . S
C1907 C1911 1.393 . S
C1908 H1897 0.950 . S
C1908 C1906 1.391 . S
C1908 C1909 1.400 . S
C1909 C1903 1.491 . S
C1909 C1908 1.400 . S
C1909 C1910 1.398 . S
C1910 H1898 0.950 . S
C1910 C1909 1.398 . S
C1910 C1911 1.391 . S
C1911 H1899 0.950 . S
C1911 C1907 1.393 . S
C1911 C1910 1.391 . S
H1912 C1920 0.950 . S
H1913 C1925 0.950 . S
H1914 C1922 0.950 . S
H1915 C1924 0.950 . S
H1916 C1926 0.950 . S
H1917 C1928 0.950 . S
H1918 C1930 0.950 . S
H1919 C1931 0.950 . S
C1920 H1912 0.950 . S
C1920 C1921 1.386 . S
C1920 C1922 1.391 . S
C1921 C1920 1.386 . S
C1921 C1925 1.393 . S
C1922 H1914 0.950 . S
C1922 C1920 1.391 . S
C1922 C1923 1.400 . S
C1923 C1922 1.400 . S
C1923 C1924 1.398 . S
C1923 C1929 1.491 . S
C1924 H1915 0.950 . S
C1924 C1923 1.398 . S
C1924 C1925 1.391 . S
C1925 H1913 0.950 . S
C1925 C1921 1.393 . S
C1925 C1924 1.391 . S
C1926 H1916 0.950 . S
C1926 C1927 1.386 . S
C1926 C1928 1.391 . S
C1927 C1926 1.386 . S
C1927 C1931 1.393 . S
C1928 H1917 0.950 . S
C1928 C1926 1.391 . S
C1928 C1929 1.400 . S
C1929 C1923 1.491 . S
C1929 C1928 1.400 . S
C1929 C1930 1.398 . S
C1930 H1918 0.950 . S
C1930 C1929 1.398 . S
C1930 C1931 1.391 . S
C1931 H1919 0.950 . S
C1931 C1927 1.393 . S
C1931 C1930 1.391 . S
H1932 C1940 0.950 . S
H1933 C1945 0.950 . S
H1934 C1942 0.950 . S
H1935 C1944 0.950 . S
H1936 C1946 0.950 . S
H1937 C1948 0.950 . S
H1938 C1950 0.950 . S
H1939 C1951 0.950 . S
C1940 H1932 0.950 . S
C1940 C1941 1.386 . S
C1940 C1942 1.391 . S
C1941 C1940 1.386 . S
C1941 C1945 1.393 . S
C1942 H1934 0.950 . S
C1942 C1940 1.391 . S
C1942 C1943 1.400 . S
C1943 C1942 1.400 . S
C1943 C1944 1.398 . S
C1943 C1949 1.491 . S
C1944 H1935 0.950 . S
C1944 C1943 1.398 . S
C1944 C1945 1.391 . S
C1945 H1933 0.950 . S
C1945 C1941 1.393 . S
C1945 C1944 1.391 . S
C1946 H1936 0.950 . S
C1946 C1947 1.386 . S
C1946 C1948 1.391 . S
C1947 C1946 1.386 . S
C1947 C1951 1.393 . S
C1948 H1937 0.950 . S
C1948 C1946 1.391 . S
C1948 C1949 1.400 . S
C1949 C1943 1.491 . S
C1949 C1948 1.400 . S
C1949 C1950 1.398 . S
C1950 H1938 0.950 . S
C1950 C1949 1.398 . S
C1950 C1951 1.391 . S
C1951 H1939 0.950 . S
C1951 C1947 1.393 . S
C1951 C1950 1.391 . S
H1952 C1960 0.950 . S
H1953 C1965 0.950 . S
H1954 C1962 0.950 . S
H1955 C1964 0.950 . S
H1956 C1966 0.950 . S
H1957 C1968 0.950 . S
H1958 C1970 0.950 . S
H1959 C1971 0.950 . S
C1960 H1952 0.950 . S
C1960 C1961 1.386 . S
C1960 C1962 1.391 . S
C1961 C1960 1.386 . S
C1961 C1965 1.393 . S
C1962 H1954 0.950 . S
C1962 C1960 1.391 . S
C1962 C1963 1.400 . S
C1963 C1962 1.400 . S
C1963 C1964 1.398 . S
C1963 C1969 1.491 . S
C1964 H1955 0.950 . S
C1964 C1963 1.398 . S
C1964 C1965 1.391 . S
C1965 H1953 0.950 . S
C1965 C1961 1.393 . S
C1965 C1964 1.391 . S
C1966 H1956 0.950 . S
C1966 C1967 1.386 . S
C1966 C1968 1.391 . S
C1967 C1966 1.386 . S
C1967 C1971 1.393 . S
C1968 H1957 0.950 . S
C1968 C1966 1.391 . S
C1968 C1969 1.400 . S
C1969 C1963 1.491 . S
C1969 C1968 1.400 . S
C1969 C1970 1.398 . S
C1970 H1958 0.950 . S
C1970 C1969 1.398 . S
C1970 C1971 1.391 . S
C1971 H1959 0.950 . S
C1971 C1967 1.393 . S
C1971 C1970 1.391 . S
H1972 C1980 0.950 . S
H1973 C1985 0.950 . S
H1974 C1982 0.950 . S
H1975 C1984 0.950 . S
H1976 C1986 0.950 . S
H1977 C1988 0.950 . S
H1978 C1990 0.950 . S
H1979 C1991 0.950 . S
C1980 H1972 0.950 . S
C1980 C1981 1.386 . S
C1980 C1982 1.391 . S
C1981 C1980 1.386 . S
C1981 C1985 1.393 . S
C1982 H1974 0.950 . S
C1982 C1980 1.391 . S
C1982 C1983 1.400 . S
C1983 C1982 1.400 . S
C1983 C1984 1.398 . S
C1983 C1989 1.491 . S
C1984 H1975 0.950 . S
C1984 C1983 1.398 . S
C1984 C1985 1.391 . S
C1985 H1973 0.950 . S
C1985 C1981 1.393 . S
C1985 C1984 1.391 . S
C1986 H1976 0.950 . S
C1986 C1987 1.386 . S
C1986 C1988 1.391 . S
C1987 C1986 1.386 . S
C1987 C1991 1.393 . S
C1988 H1977 0.950 . S
C1988 C1986 1.391 . S
C1988 C1989 1.400 . S
C1989 C1983 1.491 . S
C1989 C1988 1.400 . S
C1989 C1990 1.398 . S
C1990 H1978 0.950 . S
C1990 C1989 1.398 . S
C1990 C1991 1.391 . S
C1991 H1979 0.950 . S
C1991 C1987 1.393 . S
C1991 C1990 1.391 . S
H1992 C2000 0.950 . S
H1993 C2005 0.950 . S
H1994 C2002 0.950 . S
H1995 C2004 0.950 . S
H1996 C2006 0.950 . S
H1997 C2008 0.950 . S
H1998 C2010 0.950 . S
H1999 C2011 0.950 . S
C2000 H1992 0.950 . S
C2000 C2001 1.386 . S
C2000 C2002 1.391 . S
C2001 C2000 1.386 . S
C2001 C2005 1.393 . S
C2002 H1994 0.950 . S
C2002 C2000 1.391 . S
C2002 C2003 1.400 . S
C2003 C2002 1.400 . S
C2003 C2004 1.398 . S
C2003 C2009 1.491 . S
C2004 H1995 0.950 . S
C2004 C2003 1.398 . S
C2004 C2005 1.391 . S
C2005 H1993 0.950 . S
C2005 C2001 1.393 . S
C2005 C2004 1.391 . S
C2006 H1996 0.950 . S
C2006 C2007 1.386 . S
C2006 C2008 1.391 . S
C2007 C2006 1.386 . S
C2007 C2011 1.393 . S
C2008 H1997 0.950 . S
C2008 C2006 1.391 . S
C2008 C2009 1.400 . S
C2009 C2003 1.491 . S
C2009 C2008 1.400 . S
C2009 C2010 1.398 . S
C2010 H1998 0.950 . S
C2010 C2009 1.398 . S
C2010 C2011 1.391 . S
C2011 H1999 0.950 . S
C2011 C2007 1.393 . S
C2011 C2010 1.391 . S
H2012 C2020 0.950 . S
H2013 C2025 0.950 . S
H2014 C2022 0.950 . S
H2015 C2024 0.950 . S
H2016 C2026 0.950 . S
H2017 C2028 0.950 . S
H2018 C2030 0.950 . S
H2019 C2031 0.950 . S
C2020 H2012 0.950 . S
C2020 C2021 1.386 . S
C2020 C2022 1.391 . S
C2021 C2020 1.386 . S
C2021 C2025 1.393 . S
C2022 H2014 0.950 . S
C2022 C2020 1.391 . S
C2022 C2023 1.400 . S
C2023 C2022 1.400 . S
C2023 C2024 1.398 . S
C2023 C2029 1.491 . S
C2024 H2015 0.950 . S
C2024 C2023 1.398 . S
C2024 C2025 1.391 . S
C2025 H2013 0.950 . S
C2025 C2021 1.393 . S
C2025 C2024 1.391 . S
C2026 H2016 0.950 . S
C2026 C2027 1.386 . S
C2026 C2028 1.391 . S
C2027 C2026 1.386 . S
C2027 C2031 1.393 . S
C2028 H2017 0.950 . S
C2028 C2026 1.391 . S
C2028 C2029 1.400 . S
C2029 C2023 1.491 . S
C2029 C2028 1.400 . S
C2029 C2030 1.398 . S
C2030 H2018 0.950 . S
C2030 C2029 1.398 . S
C2030 C2031 1.391 . S
C2031 H2019 0.950 . S
C2031 C2027 1.393 . S
C2031 C2030 1.391 . S
H2032 C2040 0.950 . S
H2033 C2045 0.950 . S
H2034 C2042 0.950 . S
H2035 C2044 0.950 . S
H2036 C2046 0.950 . S
H2037 C2048 0.950 . S
H2038 C2050 0.950 . S
H2039 C2051 0.950 . S
C2040 H2032 0.950 . S
C2040 C2041 1.386 . S
C2040 C2042 1.391 . S
C2041 C2040 1.386 . S
C2041 C2045 1.393 . S
C2042 H2034 0.950 . S
C2042 C2040 1.391 . S
C2042 C2043 1.400 . S
C2043 C2042 1.400 . S
C2043 C2044 1.398 . S
C2043 C2049 1.491 . S
C2044 H2035 0.950 . S
C2044 C2043 1.398 . S
C2044 C2045 1.391 . S
C2045 H2033 0.950 . S
C2045 C2041 1.393 . S
C2045 C2044 1.391 . S
C2046 H2036 0.950 . S
C2046 C2047 1.386 . S
C2046 C2048 1.391 . S
C2047 C2046 1.386 . S
C2047 C2051 1.393 . S
C2048 H2037 0.950 . S
C2048 C2046 1.391 . S
C2048 C2049 1.400 . S
C2049 C2043 1.491 . S
C2049 C2048 1.400 . S
C2049 C2050 1.398 . S
C2050 H2038 0.950 . S
C2050 C2049 1.398 . S
C2050 C2051 1.391 . S
C2051 H2039 0.950 . S
C2051 C2047 1.393 . S
C2051 C2050 1.391 . S
H2052 C2060 0.950 . S
H2053 C2065 0.950 . S
H2054 C2062 0.950 . S
H2055 C2064 0.950 . S
H2056 C2066 0.950 . S
H2057 C2068 0.950 . S
H2058 C2070 0.950 . S
H2059 C2071 0.950 . S
C2060 H2052 0.950 . S
C2060 C2061 1.386 . S
C2060 C2062 1.391 . S
C2061 C2060 1.386 . S
C2061 C2065 1.393 . S
C2062 H2054 0.950 . S
C2062 C2060 1.391 . S
C2062 C2063 1.400 . S
C2063 C2062 1.400 . S
C2063 C2064 1.398 . S
C2063 C2069 1.491 . S
C2064 H2055 0.950 . S
C2064 C2063 1.398 . S
C2064 C2065 1.391 . S
C2065 H2053 0.950 . S
C2065 C2061 1.393 . S
C2065 C2064 1.391 . S
C2066 H2056 0.950 . S
C2066 C2067 1.386 . S
C2066 C2068 1.391 . S
C2067 C2066 1.386 . S
C2067 C2071 1.393 . S
C2068 H2057 0.950 . S
C2068 C2066 1.391 . S
C2068 C2069 1.400 . S
C2069 C2063 1.491 . S
C2069 C2068 1.400 . S
C2069 C2070 1.398 . S
C2070 H2058 0.950 . S
C2070 C2069 1.398 . S
C2070 C2071 1.391 . S
C2071 H2059 0.950 . S
C2071 C2067 1.393 . S
C2071 C2070 1.391 . S
H2072 C2080 0.950 . S
H2073 C2085 0.950 . S
H2074 C2082 0.950 . S
H2075 C2084 0.950 . S
H2076 C2086 0.950 . S
H2077 C2088 0.950 . S
H2078 C2090 0.950 . S
H2079 C2091 0.950 . S
C2080 H2072 0.950 . S
C2080 C2081 1.386 . S
C2080 C2082 1.391 . S
C2081 C2080 1.386 . S
C2081 C2085 1.393 . S
C2082 H2074 0.950 . S
C2082 C2080 1.391 . S
C2082 C2083 1.400 . S
C2083 C2082 1.400 . S
C2083 C2084 1.398 . S
C2083 C2089 1.491 . S
C2084 H2075 0.950 . S
C2084 C2083 1.398 . S
C2084 C2085 1.391 . S
C2085 H2073 0.950 . S
C2085 C2081 1.393 . S
C2085 C2084 1.391 . S
C2086 H2076 0.950 . S
C2086 C2087 1.386 . S
C2086 C2088 1.391 . S
C2087 C2086 1.386 . S
C2087 C2091 1.393 . S
C2088 H2077 0.950 . S
C2088 C2086 1.391 . S
C2088 C2089 1.400 . S
C2089 C2083 1.491 . S
C2089 C2088 1.400 . S
C2089 C2090 1.398 . S
C2090 H2078 0.950 . S
C2090 C2089 1.398 . S
C2090 C2091 1.391 . S
C2091 H2079 0.950 . S
C2091 C2087 1.393 . S
C2091 C2090 1.391 . S
H2092 C2100 0.950 . S
H2093 C2105 0.950 . S
H2094 C2102 0.950 . S
H2095 C2104 0.950 . S
H2096 C2106 0.950 . S
H2097 C2108 0.950 . S
H2098 C2110 0.950 . S
H2099 C2111 0.950 . S
C2100 H2092 0.950 . S
C2100 C2101 1.386 . S
C2100 C2102 1.391 . S
C2101 C2100 1.386 . S
C2101 C2105 1.393 . S
C2102 H2094 0.950 . S
C2102 C2100 1.391 . S
C2102 C2103 1.400 . S
C2103 C2102 1.400 . S
C2103 C2104 1.398 . S
C2103 C2109 1.491 . S
C2104 H2095 0.950 . S
C2104 C2103 1.398 . S
C2104 C2105 1.391 . S
C2105 H2093 0.950 . S
C2105 C2101 1.393 . S
C2105 C2104 1.391 . S
C2106 H2096 0.950 . S
C2106 C2107 1.386 . S
C2106 C2108 1.391 . S
C2107 C2106 1.386 . S
C2107 C2111 1.393 . S
C2108 H2097 0.950 . S
C2108 C2106 1.391 . S
C2108 C2109 1.400 . S
C2109 C2103 1.491 . S
C2109 C2108 1.400 . S
C2109 C2110 1.398 . S
C2110 H2098 0.950 . S
C2110 C2109 1.398 . S
C2110 C2111 1.391 . S
C2111 H2099 0.950 . S
C2111 C2107 1.393 . S
C2111 C2110 1.391 . S
H2112 C2120 0.950 . S
H2113 C2125 0.950 . S
H2114 C2122 0.950 . S
H2115 C2124 0.950 . S
H2116 C2126 0.950 . S
H2117 C2128 0.950 . S
H2118 C2130 0.950 . S
H2119 C2131 0.950 . S
C2120 H2112 0.950 . S
C2120 C2121 1.386 . S
C2120 C2122 1.391 . S
C2121 C2120 1.386 . S
C2121 C2125 1.393 . S
C2122 H2114 0.950 . S
C2122 C2120 1.391 . S
C2122 C2123 1.400 . S
C2123 C2122 1.400 . S
C2123 C2124 1.398 . S
C2123 C2129 1.491 1_554 S
C2124 H2115 0.950 . S
C2124 C2123 1.398 . S
C2124 C2125 1.391 . S
C2125 H2113 0.950 . S
C2125 C2121 1.393 . S
C2125 C2124 1.391 . S
C2126 H2116 0.950 . S
C2126 C2127 1.386 . S
C2126 C2128 1.391 . S
C2127 C2126 1.386 . S
C2127 C2131 1.393 . S
C2128 H2117 0.950 . S
C2128 C2126 1.391 . S
C2128 C2129 1.400 . S
C2129 C2123 1.491 1_556 S
C2129 C2128 1.400 . S
C2129 C2130 1.398 . S
C2130 H2118 0.950 . S
C2130 C2129 1.398 . S
C2130 C2131 1.391 . S
C2131 H2119 0.950 . S
C2131 C2127 1.393 . S
C2131 C2130 1.391 . S
H2132 C2140 0.950 . S
H2133 C2145 0.950 . S
H2134 C2142 0.950 . S
H2135 C2144 0.950 . S
H2136 C2146 0.950 . S
H2137 C2148 0.950 . S
H2138 C2150 0.950 . S
H2139 C2151 0.950 . S
C2140 H2132 0.950 . S
C2140 C2141 1.386 . S
C2140 C2142 1.391 . S
C2141 C2140 1.386 . S
C2141 C2145 1.393 . S
C2142 H2134 0.950 . S
C2142 C2140 1.391 . S
C2142 C2143 1.400 . S
C2143 C2142 1.400 . S
C2143 C2144 1.398 . S
C2143 C2149 1.491 1_556 S
C2144 H2135 0.950 . S
C2144 C2143 1.398 . S
C2144 C2145 1.391 . S
C2145 H2133 0.950 . S
C2145 C2141 1.393 . S
C2145 C2144 1.391 . S
C2146 H2136 0.950 . S
C2146 C2147 1.386 . S
C2146 C2148 1.391 . S
C2147 C2146 1.386 . S
C2147 C2151 1.393 . S
C2148 H2137 0.950 . S
C2148 C2146 1.391 . S
C2148 C2149 1.400 . S
C2149 C2143 1.491 1_554 S
C2149 C2148 1.400 . S
C2149 C2150 1.398 . S
C2150 H2138 0.950 . S
C2150 C2149 1.398 . S
C2150 C2151 1.391 . S
C2151 H2139 0.950 . S
C2151 C2147 1.393 . S
C2151 C2150 1.391 . S
H2152 C2160 0.950 . S
H2153 C2165 0.950 . S
H2154 C2162 0.950 . S
H2155 C2164 0.950 . S
H2156 C2166 0.950 . S
H2157 C2168 0.950 . S
H2158 C2170 0.950 . S
H2159 C2171 0.950 . S
C2160 H2152 0.950 . S
C2160 C2161 1.386 . S
C2160 C2162 1.391 . S
C2161 C2160 1.386 . S
C2161 C2165 1.393 . S
C2162 H2154 0.950 . S
C2162 C2160 1.391 . S
C2162 C2163 1.400 . S
C2163 C2162 1.400 . S
C2163 C2164 1.398 . S
C2163 C2169 1.491 1_554 S
C2164 H2155 0.950 . S
C2164 C2163 1.398 . S
C2164 C2165 1.391 . S
C2165 H2153 0.950 . S
C2165 C2161 1.393 . S
C2165 C2164 1.391 . S
C2166 H2156 0.950 . S
C2166 C2167 1.386 . S
C2166 C2168 1.391 . S
C2167 C2166 1.386 . S
C2167 C2171 1.393 . S
C2168 H2157 0.950 . S
C2168 C2166 1.391 . S
C2168 C2169 1.400 . S
C2169 C2163 1.491 1_556 S
C2169 C2168 1.400 . S
C2169 C2170 1.398 . S
C2170 H2158 0.950 . S
C2170 C2169 1.398 . S
C2170 C2171 1.391 . S
C2171 H2159 0.950 . S
C2171 C2167 1.393 . S
C2171 C2170 1.391 . S
H2172 C2180 0.950 . S
H2173 C2185 0.950 . S
H2174 C2182 0.950 . S
H2175 C2184 0.950 . S
H2176 C2186 0.950 . S
H2177 C2188 0.950 . S
H2178 C2190 0.950 . S
H2179 C2191 0.950 . S
C2180 H2172 0.950 . S
C2180 C2181 1.386 . S
C2180 C2182 1.391 . S
C2181 C2180 1.386 . S
C2181 C2185 1.393 . S
C2182 H2174 0.950 . S
C2182 C2180 1.391 . S
C2182 C2183 1.400 . S
C2183 C2182 1.400 . S
C2183 C2184 1.398 . S
C2183 C2189 1.491 1_554 S
C2184 H2175 0.950 . S
C2184 C2183 1.398 . S
C2184 C2185 1.391 . S
C2185 H2173 0.950 . S
C2185 C2181 1.393 . S
C2185 C2184 1.391 . S
C2186 H2176 0.950 . S
C2186 C2187 1.386 . S
C2186 C2188 1.391 . S
C2187 C2186 1.386 . S
C2187 C2191 1.393 . S
C2188 H2177 0.950 . S
C2188 C2186 1.391 . S
C2188 C2189 1.400 . S
C2189 C2183 1.491 1_556 S
C2189 C2188 1.400 . S
C2189 C2190 1.398 . S
C2190 H2178 0.950 . S
C2190 C2189 1.398 . S
C2190 C2191 1.391 . S
C2191 H2179 0.950 . S
C2191 C2187 1.393 . S
C2191 C2190 1.391 . S
H2192 C2200 0.950 . S
H2193 C2205 0.950 . S
H2194 C2202 0.950 . S
H2195 C2204 0.950 . S
H2196 C2206 0.950 . S
H2197 C2208 0.950 . S
H2198 C2210 0.950 . S
H2199 C2211 0.950 . S
C2200 H2192 0.950 . S
C2200 C2201 1.386 . S
C2200 C2202 1.391 . S
C2201 C2200 1.386 . S
C2201 C2205 1.393 . S
C2202 H2194 0.950 . S
C2202 C2200 1.391 . S
C2202 C2203 1.400 . S
C2203 C2202 1.400 . S
C2203 C2204 1.398 . S
C2203 C2209 1.491 1_556 S
C2204 H2195 0.950 . S
C2204 C2203 1.398 . S
C2204 C2205 1.391 . S
C2205 H2193 0.950 . S
C2205 C2201 1.393 . S
C2205 C2204 1.391 . S
C2206 H2196 0.950 . S
C2206 C2207 1.386 . S
C2206 C2208 1.391 . S
C2207 C2206 1.386 . S
C2207 C2211 1.393 . S
C2208 H2197 0.950 . S
C2208 C2206 1.391 . S
C2208 C2209 1.400 . S
C2209 C2203 1.491 1_554 S
C2209 C2208 1.400 . S
C2209 C2210 1.398 . S
C2210 H2198 0.950 . S
C2210 C2209 1.398 . S
C2210 C2211 1.391 . S
C2211 H2199 0.950 . S
C2211 C2207 1.393 . S
C2211 C2210 1.391 . S
H2212 C2220 0.950 . S
H2213 C2225 0.950 . S
H2214 C2222 0.950 . S
H2215 C2224 0.950 . S
H2216 C2226 0.950 . S
H2217 C2228 0.950 . S
H2218 C2230 0.950 . S
H2219 C2231 0.950 . S
C2220 H2212 0.950 . S
C2220 C2221 1.386 . S
C2220 C2222 1.391 . S
C2221 C2220 1.386 . S
C2221 C2225 1.393 . S
C2222 H2214 0.950 . S
C2222 C2220 1.391 . S
C2222 C2223 1.400 . S
C2223 C2222 1.400 . S
C2223 C2224 1.398 . S
C2223 C2229 1.491 1_554 S
C2224 H2215 0.950 . S
C2224 C2223 1.398 . S
C2224 C2225 1.391 . S
C2225 H2213 0.950 . S
C2225 C2221 1.393 . S
C2225 C2224 1.391 . S
C2226 H2216 0.950 . S
C2226 C2227 1.386 . S
C2226 C2228 1.391 . S
C2227 C2226 1.386 . S
C2227 C2231 1.393 . S
C2228 H2217 0.950 . S
C2228 C2226 1.391 . S
C2228 C2229 1.400 . S
C2229 C2223 1.491 1_556 S
C2229 C2228 1.400 . S
C2229 C2230 1.398 . S
C2230 H2218 0.950 . S
C2230 C2229 1.398 . S
C2230 C2231 1.391 . S
C2231 H2219 0.950 . S
C2231 C2227 1.393 . S
C2231 C2230 1.391 . S
H2232 C2240 0.950 . S
H2233 C2245 0.950 . S
H2234 C2242 0.950 . S
H2235 C2244 0.950 . S
H2236 C2246 0.950 . S
H2237 C2248 0.950 . S
H2238 C2250 0.950 . S
H2239 C2251 0.950 . S
C2240 H2232 0.950 . S
C2240 C2241 1.386 . S
C2240 C2242 1.391 . S
C2241 C2240 1.386 . S
C2241 C2245 1.393 . S
C2242 H2234 0.950 . S
C2242 C2240 1.391 . S
C2242 C2243 1.400 . S
C2243 C2242 1.400 . S
C2243 C2244 1.398 . S
C2243 C2249 1.491 1_556 S
C2244 H2235 0.950 . S
C2244 C2243 1.398 . S
C2244 C2245 1.391 . S
C2245 H2233 0.950 . S
C2245 C2241 1.393 . S
C2245 C2244 1.391 . S
C2246 H2236 0.950 . S
C2246 C2247 1.386 . S
C2246 C2248 1.391 . S
C2247 C2246 1.386 . S
C2247 C2251 1.393 . S
C2248 H2237 0.950 . S
C2248 C2246 1.391 . S
C2248 C2249 1.400 . S
C2249 C2243 1.491 1_554 S
C2249 C2248 1.400 . S
C2249 C2250 1.398 . S
C2250 H2238 0.950 . S
C2250 C2249 1.398 . S
C2250 C2251 1.391 . S
C2251 H2239 0.950 . S
C2251 C2247 1.393 . S
C2251 C2250 1.391 . S
H2252 C2260 0.950 . S
H2253 C2265 0.950 . S
H2254 C2262 0.950 . S
H2255 C2264 0.950 . S
H2256 C2266 0.950 . S
H2257 C2268 0.950 . S
H2258 C2270 0.950 . S
H2259 C2271 0.950 . S
C2260 H2252 0.950 . S
C2260 C2261 1.386 . S
C2260 C2262 1.391 . S
C2261 C2260 1.386 . S
C2261 C2265 1.393 . S
C2262 H2254 0.950 . S
C2262 C2260 1.391 . S
C2262 C2263 1.400 . S
C2263 C2262 1.400 . S
C2263 C2264 1.398 . S
C2263 C2269 1.491 1_554 S
C2264 H2255 0.950 . S
C2264 C2263 1.398 . S
C2264 C2265 1.391 . S
C2265 H2253 0.950 . S
C2265 C2261 1.393 . S
C2265 C2264 1.391 . S
C2266 H2256 0.950 . S
C2266 C2267 1.386 . S
C2266 C2268 1.391 . S
C2267 C2266 1.386 . S
C2267 C2271 1.393 . S
C2268 H2257 0.950 . S
C2268 C2266 1.391 . S
C2268 C2269 1.400 . S
C2269 C2263 1.491 1_556 S
C2269 C2268 1.400 . S
C2269 C2270 1.398 . S
C2270 H2258 0.950 . S
C2270 C2269 1.398 . S
C2270 C2271 1.391 . S
C2271 H2259 0.950 . S
C2271 C2267 1.393 . S
C2271 C2270 1.391 . S
H2272 C2280 0.950 . S
H2273 C2285 0.950 . S
H2274 C2282 0.950 . S
H2275 C2284 0.950 . S
H2276 C2286 0.950 . S
H2277 C2288 0.950 . S
H2278 C2290 0.950 . S
H2279 C2291 0.950 . S
C2280 H2272 0.950 . S
C2280 C2281 1.386 . S
C2280 C2282 1.391 . S
C2281 C2280 1.386 . S
C2281 C2285 1.393 . S
C2282 H2274 0.950 . S
C2282 C2280 1.391 . S
C2282 C2283 1.400 . S
C2283 C2282 1.400 . S
C2283 C2284 1.398 . S
C2283 C2289 1.491 1_455 S
C2284 H2275 0.950 . S
C2284 C2283 1.398 . S
C2284 C2285 1.391 . S
C2285 H2273 0.950 . S
C2285 C2281 1.393 . S
C2285 C2284 1.391 . S
C2286 H2276 0.950 . S
C2286 C2287 1.386 . S
C2286 C2288 1.391 . S
C2287 C2286 1.386 . S
C2287 C2291 1.393 . S
C2288 H2277 0.950 . S
C2288 C2286 1.391 . S
C2288 C2289 1.400 . S
C2289 C2283 1.491 1_655 S
C2289 C2288 1.400 . S
C2289 C2290 1.398 . S
C2290 H2278 0.950 . S
C2290 C2289 1.398 . S
C2290 C2291 1.391 . S
C2291 H2279 0.950 . S
C2291 C2287 1.393 . S
C2291 C2290 1.391 . S
H2292 C2300 0.950 . S
H2293 C2305 0.950 . S
H2294 C2302 0.950 . S
H2295 C2304 0.950 . S
H2296 C2306 0.950 . S
H2297 C2308 0.950 . S
H2298 C2310 0.950 . S
H2299 C2311 0.950 . S
C2300 H2292 0.950 . S
C2300 C2301 1.386 . S
C2300 C2302 1.391 . S
C2301 C2300 1.386 . S
C2301 C2305 1.393 . S
C2302 H2294 0.950 . S
C2302 C2300 1.391 . S
C2302 C2303 1.400 . S
C2303 C2302 1.400 . S
C2303 C2304 1.398 . S
C2303 C2309 1.491 1_565 S
C2304 H2295 0.950 . S
C2304 C2303 1.398 . S
C2304 C2305 1.391 . S
C2305 H2293 0.950 . S
C2305 C2301 1.393 . S
C2305 C2304 1.391 . S
C2306 H2296 0.950 . S
C2306 C2307 1.386 . S
C2306 C2308 1.391 . S
C2307 C2306 1.386 . S
C2307 C2311 1.393 . S
C2308 H2297 0.950 . S
C2308 C2306 1.391 . S
C2308 C2309 1.400 . S
C2309 C2303 1.491 1_545 S
C2309 C2308 1.400 . S
C2309 C2310 1.398 . S
C2310 H2298 0.950 . S
C2310 C2309 1.398 . S
C2310 C2311 1.391 . S
C2311 H2299 0.950 . S
C2311 C2307 1.393 . S
C2311 C2310 1.391 . S
H2312 C2320 0.950 . S
H2313 C2325 0.950 . S
H2314 C2322 0.950 . S
H2315 C2324 0.950 . S
H2316 C2326 0.950 . S
H2317 C2328 0.950 . S
H2318 C2330 0.950 . S
H2319 C2331 0.950 . S
C2320 H2312 0.950 . S
C2320 C2321 1.386 . S
C2320 C2322 1.391 . S
C2321 C2320 1.386 . S
C2321 C2325 1.393 . S
C2322 H2314 0.950 . S
C2322 C2320 1.391 . S
C2322 C2323 1.400 . S
C2323 C2322 1.400 . S
C2323 C2324 1.398 . S
C2323 C2329 1.491 1_455 S
C2324 H2315 0.950 . S
C2324 C2323 1.398 . S
C2324 C2325 1.391 . S
C2325 H2313 0.950 . S
C2325 C2321 1.393 . S
C2325 C2324 1.391 . S
C2326 H2316 0.950 . S
C2326 C2327 1.386 . S
C2326 C2328 1.391 . S
C2327 C2326 1.386 . S
C2327 C2331 1.393 . S
C2328 H2317 0.950 . S
C2328 C2326 1.391 . S
C2328 C2329 1.400 . S
C2329 C2323 1.491 1_655 S
C2329 C2328 1.400 . S
C2329 C2330 1.398 . S
C2330 H2318 0.950 . S
C2330 C2329 1.398 . S
C2330 C2331 1.391 . S
C2331 H2319 0.950 . S
C2331 C2327 1.393 . S
C2331 C2330 1.391 . S
H2332 C2340 0.950 . S
H2333 C2345 0.950 . S
H2334 C2342 0.950 . S
H2335 C2344 0.950 . S
H2336 C2346 0.950 . S
H2337 C2348 0.950 . S
H2338 C2350 0.950 . S
H2339 C2351 0.950 . S
C2340 H2332 0.950 . S
C2340 C2341 1.386 . S
C2340 C2342 1.391 . S
C2341 C2340 1.386 . S
C2341 C2345 1.393 . S
C2342 H2334 0.950 . S
C2342 C2340 1.391 . S
C2342 C2343 1.400 . S
C2343 C2342 1.400 . S
C2343 C2344 1.398 . S
C2343 C2349 1.491 1_565 S
C2344 H2335 0.950 . S
C2344 C2343 1.398 . S
C2344 C2345 1.391 . S
C2345 H2333 0.950 . S
C2345 C2341 1.393 . S
C2345 C2344 1.391 . S
C2346 H2336 0.950 . S
C2346 C2347 1.386 . S
C2346 C2348 1.391 . S
C2347 C2346 1.386 . S
C2347 C2351 1.393 . S
C2348 H2337 0.950 . S
C2348 C2346 1.391 . S
C2348 C2349 1.400 . S
C2349 C2343 1.491 1_545 S
C2349 C2348 1.400 . S
C2349 C2350 1.398 . S
C2350 H2338 0.950 . S
C2350 C2349 1.398 . S
C2350 C2351 1.391 . S
C2351 H2339 0.950 . S
C2351 C2347 1.393 . S
C2351 C2350 1.391 . S
H2352 C2360 0.950 . S
H2353 C2365 0.950 . S
H2354 C2362 0.950 . S
H2355 C2364 0.950 . S
H2356 C2366 0.950 . S
H2357 C2368 0.950 . S
H2358 C2370 0.950 . S
H2359 C2371 0.950 . S
C2360 H2352 0.950 . S
C2360 C2361 1.386 . S
C2360 C2362 1.391 . S
C2361 C2360 1.386 . S
C2361 C2365 1.393 . S
C2362 H2354 0.950 . S
C2362 C2360 1.391 . S
C2362 C2363 1.400 . S
C2363 C2362 1.400 . S
C2363 C2364 1.398 . S
C2363 C2369 1.491 1_655 S
C2364 H2355 0.950 . S
C2364 C2363 1.398 . S
C2364 C2365 1.391 . S
C2365 H2353 0.950 . S
C2365 C2361 1.393 . S
C2365 C2364 1.391 . S
C2366 H2356 0.950 . S
C2366 C2367 1.386 . S
C2366 C2368 1.391 . S
C2367 C2366 1.386 . S
C2367 C2371 1.393 . S
C2368 H2357 0.950 . S
C2368 C2366 1.391 . S
C2368 C2369 1.400 . S
C2369 C2363 1.491 1_455 S
C2369 C2368 1.400 . S
C2369 C2370 1.398 . S
C2370 H2358 0.950 . S
C2370 C2369 1.398 . S
C2370 C2371 1.391 . S
C2371 H2359 0.950 . S
C2371 C2367 1.393 . S
C2371 C2370 1.391 . S
H2372 C2380 0.950 . S
H2373 C2385 0.950 . S
H2374 C2382 0.950 . S
H2375 C2384 0.950 . S
H2376 C2386 0.950 . S
H2377 C2388 0.950 . S
H2378 C2390 0.950 . S
H2379 C2391 0.950 . S
C2380 H2372 0.950 . S
C2380 C2381 1.386 . S
C2380 C2382 1.391 . S
C2381 C2380 1.386 . S
C2381 C2385 1.393 . S
C2382 H2374 0.950 . S
C2382 C2380 1.391 . S
C2382 C2383 1.400 . S
C2383 C2382 1.400 . S
C2383 C2384 1.398 . S
C2383 C2389 1.491 1_545 S
C2384 H2375 0.950 . S
C2384 C2383 1.398 . S
C2384 C2385 1.391 . S
C2385 H2373 0.950 . S
C2385 C2381 1.393 . S
C2385 C2384 1.391 . S
C2386 H2376 0.950 . S
C2386 C2387 1.386 . S
C2386 C2388 1.391 . S
C2387 C2386 1.386 . S
C2387 C2391 1.393 . S
C2388 H2377 0.950 . S
C2388 C2386 1.391 . S
C2388 C2389 1.400 . S
C2389 C2383 1.491 1_565 S
C2389 C2388 1.400 . S
C2389 C2390 1.398 . S
C2390 H2378 0.950 . S
C2390 C2389 1.398 . S
C2390 C2391 1.391 . S
C2391 H2379 0.950 . S
C2391 C2387 1.393 . S
C2391 C2390 1.391 . S
H2392 C2400 0.950 . S
H2393 C2405 0.950 . S
H2394 C2402 0.950 . S
H2395 C2404 0.950 . S
H2396 C2406 0.950 . S
H2397 C2408 0.950 . S
H2398 C2410 0.950 . S
H2399 C2411 0.950 . S
C2400 H2392 0.950 . S
C2400 C2401 1.386 . S
C2400 C2402 1.391 . S
C2401 C2400 1.386 . S
C2401 C2405 1.393 . S
C2402 H2394 0.950 . S
C2402 C2400 1.391 . S
C2402 C2403 1.400 . S
C2403 C2402 1.400 . S
C2403 C2404 1.398 . S
C2403 C2409 1.491 1_455 S
C2404 H2395 0.950 . S
C2404 C2403 1.398 . S
C2404 C2405 1.391 . S
C2405 H2393 0.950 . S
C2405 C2401 1.393 . S
C2405 C2404 1.391 . S
C2406 H2396 0.950 . S
C2406 C2407 1.386 . S
C2406 C2408 1.391 . S
C2407 C2406 1.386 . S
C2407 C2411 1.393 . S
C2408 H2397 0.950 . S
C2408 C2406 1.391 . S
C2408 C2409 1.400 . S
C2409 C2403 1.491 1_655 S
C2409 C2408 1.400 . S
C2409 C2410 1.398 . S
C2410 H2398 0.950 . S
C2410 C2409 1.398 . S
C2410 C2411 1.391 . S
C2411 H2399 0.950 . S
C2411 C2407 1.393 . S
C2411 C2410 1.391 . S
H2412 C2420 0.950 . S
H2413 C2425 0.950 . S
H2414 C2422 0.950 . S
H2415 C2424 0.950 . S
H2416 C2426 0.950 . S
H2417 C2428 0.950 . S
H2418 C2430 0.950 . S
H2419 C2431 0.950 . S
C2420 H2412 0.950 . S
C2420 C2421 1.386 . S
C2420 C2422 1.391 . S
C2421 C2420 1.386 . S
C2421 C2425 1.393 . S
C2422 H2414 0.950 . S
C2422 C2420 1.391 . S
C2422 C2423 1.400 . S
C2423 C2422 1.400 . S
C2423 C2424 1.398 . S
C2423 C2429 1.491 1_545 S
C2424 H2415 0.950 . S
C2424 C2423 1.398 . S
C2424 C2425 1.391 . S
C2425 H2413 0.950 . S
C2425 C2421 1.393 . S
C2425 C2424 1.391 . S
C2426 H2416 0.950 . S
C2426 C2427 1.386 . S
C2426 C2428 1.391 . S
C2427 C2426 1.386 . S
C2427 C2431 1.393 . S
C2428 H2417 0.950 . S
C2428 C2426 1.391 . S
C2428 C2429 1.400 . S
C2429 C2423 1.491 1_565 S
C2429 C2428 1.400 . S
C2429 C2430 1.398 . S
C2430 H2418 0.950 . S
C2430 C2429 1.398 . S
C2430 C2431 1.391 . S
C2431 H2419 0.950 . S
C2431 C2427 1.393 . S
C2431 C2430 1.391 . S
H2432 C2440 0.950 . S
H2433 C2445 0.950 . S
H2434 C2442 0.950 . S
H2435 C2444 0.950 . S
H2436 C2446 0.950 . S
H2437 C2448 0.950 . S
H2438 C2450 0.950 . S
H2439 C2451 0.950 . S
C2440 H2432 0.950 . S
C2440 C2441 1.386 . S
C2440 C2442 1.391 . S
C2441 C2440 1.386 . S
C2441 C2445 1.393 . S
C2442 H2434 0.950 . S
C2442 C2440 1.391 . S
C2442 C2443 1.400 . S
C2443 C2442 1.400 . S
C2443 C2444 1.398 . S
C2443 C2449 1.491 1_545 S
C2444 H2435 0.950 . S
C2444 C2443 1.398 . S
C2444 C2445 1.391 . S
C2445 H2433 0.950 . S
C2445 C2441 1.393 . S
C2445 C2444 1.391 . S
C2446 H2436 0.950 . S
C2446 C2447 1.386 . S
C2446 C2448 1.391 . S
C2447 C2446 1.386 . S
C2447 C2451 1.393 . S
C2448 H2437 0.950 . S
C2448 C2446 1.391 . S
C2448 C2449 1.400 . S
C2449 C2443 1.491 1_565 S
C2449 C2448 1.400 . S
C2449 C2450 1.398 . S
C2450 H2438 0.950 . S
C2450 C2449 1.398 . S
C2450 C2451 1.391 . S
C2451 H2439 0.950 . S
C2451 C2447 1.393 . S
C2451 C2450 1.391 . S
H2452 C2460 0.950 . S
H2453 C2465 0.950 . S
H2454 C2462 0.950 . S
H2455 C2464 0.950 . S
H2456 C2466 0.950 . S
H2457 C2468 0.950 . S
H2458 C2470 0.950 . S
H2459 C2471 0.950 . S
C2460 H2452 0.950 . S
C2460 C2461 1.386 . S
C2460 C2462 1.391 . S
C2461 C2460 1.386 . S
C2461 C2465 1.393 . S
C2462 H2454 0.950 . S
C2462 C2460 1.391 . S
C2462 C2463 1.400 . S
C2463 C2462 1.400 . S
C2463 C2464 1.398 . S
C2463 C2469 1.491 1_545 S
C2464 H2455 0.950 . S
C2464 C2463 1.398 . S
C2464 C2465 1.391 . S
C2465 H2453 0.950 . S
C2465 C2461 1.393 . S
C2465 C2464 1.391 . S
C2466 H2456 0.950 . S
C2466 C2467 1.386 . S
C2466 C2468 1.391 . S
C2467 C2466 1.386 . S
C2467 C2471 1.393 . S
C2468 H2457 0.950 . S
C2468 C2466 1.391 . S
C2468 C2469 1.400 . S
C2469 C2463 1.491 1_565 S
C2469 C2468 1.400 . S
C2469 C2470 1.398 . S
C2470 H2458 0.950 . S
C2470 C2469 1.398 . S
C2470 C2471 1.391 . S
C2471 H2459 0.950 . S
C2471 C2467 1.393 . S
C2471 C2470 1.391 . S
H2472 C2480 0.950 . S
H2473 C2485 0.950 . S
H2474 C2482 0.950 . S
H2475 C2484 0.950 . S
H2476 C2486 0.950 . S
H2477 C2488 0.950 . S
H2478 C2490 0.950 . S
H2479 C2491 0.950 . S
C2480 H2472 0.950 . S
C2480 C2481 1.386 . S
C2480 C2482 1.391 . S
C2481 C2480 1.386 . S
C2481 C2485 1.393 . S
C2482 H2474 0.950 . S
C2482 C2480 1.391 . S
C2482 C2483 1.400 . S
C2483 C2482 1.400 . S
C2483 C2484 1.398 . S
C2483 C2489 1.491 1_655 S
C2484 H2475 0.950 . S
C2484 C2483 1.398 . S
C2484 C2485 1.391 . S
C2485 H2473 0.950 . S
C2485 C2481 1.393 . S
C2485 C2484 1.391 . S
C2486 H2476 0.950 . S
C2486 C2487 1.386 . S
C2486 C2488 1.391 . S
C2487 C2486 1.386 . S
C2487 C2491 1.393 . S
C2488 H2477 0.950 . S
C2488 C2486 1.391 . S
C2488 C2489 1.400 . S
C2489 C2483 1.491 1_455 S
C2489 C2488 1.400 . S
C2489 C2490 1.398 . S
C2490 H2478 0.950 . S
C2490 C2489 1.398 . S
C2490 C2491 1.391 . S
C2491 H2479 0.950 . S
C2491 C2487 1.393 . S
C2491 C2490 1.391 . S
H2492 C2500 0.950 . S
H2493 C2505 0.950 . S
H2494 C2502 0.950 . S
H2495 C2504 0.950 . S
H2496 C2506 0.950 . S
H2497 C2508 0.950 . S
H2498 C2510 0.950 . S
H2499 C2511 0.950 . S
C2500 H2492 0.950 . S
C2500 C2501 1.386 . S
C2500 C2502 1.391 . S
C2501 C2500 1.386 . S
C2501 C2505 1.393 . S
C2502 H2494 0.950 . S
C2502 C2500 1.391 . S
C2502 C2503 1.400 . S
C2503 C2502 1.400 . S
C2503 C2504 1.398 . S
C2503 C2509 1.491 1_545 S
C2504 H2495 0.950 . S
C2504 C2503 1.398 . S
C2504 C2505 1.391 . S
C2505 H2493 0.950 . S
C2505 C2501 1.393 . S
C2505 C2504 1.391 . S
C2506 H2496 0.950 . S
C2506 C2507 1.386 . S
C2506 C2508 1.391 . S
C2507 C2506 1.386 . S
C2507 C2511 1.393 . S
C2508 H2497 0.950 . S
C2508 C2506 1.391 . S
C2508 C2509 1.400 . S
C2509 C2503 1.491 1_565 S
C2509 C2508 1.400 . S
C2509 C2510 1.398 . S
C2510 H2498 0.950 . S
C2510 C2509 1.398 . S
C2510 C2511 1.391 . S
C2511 H2499 0.950 . S
C2511 C2507 1.393 . S
C2511 C2510 1.391 . S
H2512 C2520 0.950 . S
H2513 C2525 0.950 . S
H2514 C2522 0.950 . S
H2515 C2524 0.950 . S
H2516 C2526 0.950 . S
H2517 C2528 0.950 . S
H2518 C2530 0.950 . S
H2519 C2531 0.950 . S
C2520 H2512 0.950 . S
C2520 C2521 1.386 . S
C2520 C2522 1.391 . S
C2521 C2520 1.386 . S
C2521 C2525 1.393 . S
C2522 H2514 0.950 . S
C2522 C2520 1.391 . S
C2522 C2523 1.400 . S
C2523 C2522 1.400 . S
C2523 C2524 1.398 . S
C2523 C2529 1.491 1_455 S
C2524 H2515 0.950 . S
C2524 C2523 1.398 . S
C2524 C2525 1.391 . S
C2525 H2513 0.950 . S
C2525 C2521 1.393 . S
C2525 C2524 1.391 . S
C2526 H2516 0.950 . S
C2526 C2527 1.386 . S
C2526 C2528 1.391 . S
C2527 C2526 1.386 . S
C2527 C2531 1.393 . S
C2528 H2517 0.950 . S
C2528 C2526 1.391 . S
C2528 C2529 1.400 . S
C2529 C2523 1.491 1_655 S
C2529 C2528 1.400 . S
C2529 C2530 1.398 . S
C2530 H2518 0.950 . S
C2530 C2529 1.398 . S
C2530 C2531 1.391 . S
C2531 H2519 0.950 . S
C2531 C2527 1.393 . S
C2531 C2530 1.391 . S
H2532 C2540 0.950 . S
H2533 C2545 0.950 . S
H2534 C2542 0.950 . S
H2535 C2544 0.950 . S
H2536 C2546 0.950 . S
H2537 C2548 0.950 . S
H2538 C2550 0.950 . S
H2539 C2551 0.950 . S
C2540 H2532 0.950 . S
C2540 C2541 1.386 . S
C2540 C2542 1.391 . S
C2541 C2540 1.386 . S
C2541 C2545 1.393 . S
C2542 H2534 0.950 . S
C2542 C2540 1.391 . S
C2542 C2543 1.400 . S
C2543 C2542 1.400 . S
C2543 C2544 1.398 . S
C2543 C2549 1.491 1_545 S
C2544 H2535 0.950 . S
C2544 C2543 1.398 . S
C2544 C2545 1.391 . S
C2545 H2533 0.950 . S
C2545 C2541 1.393 . S
C2545 C2544 1.391 . S
C2546 H2536 0.950 . S
C2546 C2547 1.386 . S
C2546 C2548 1.391 . S
C2547 C2546 1.386 . S
C2547 C2551 1.393 . S
C2548 H2537 0.950 . S
C2548 C2546 1.391 . S
C2548 C2549 1.400 . S
C2549 C2543 1.491 1_565 S
C2549 C2548 1.400 . S
C2549 C2550 1.398 . S
C2550 H2538 0.950 . S
C2550 C2549 1.398 . S
C2550 C2551 1.391 . S
C2551 H2539 0.950 . S
C2551 C2547 1.393 . S
C2551 C2550 1.391 . S
H2552 C2560 0.950 . S
H2553 C2565 0.950 . S
H2554 C2562 0.950 . S
H2555 C2564 0.950 . S
H2556 C2566 0.950 . S
H2557 C2568 0.950 . S
H2558 C2570 0.950 . S
H2559 C2571 0.950 . S
C2560 H2552 0.950 . S
C2560 C2561 1.386 . S
C2560 C2562 1.391 . S
C2561 C2560 1.386 . S
C2561 C2565 1.393 . S
C2562 H2554 0.950 . S
C2562 C2560 1.391 . S
C2562 C2563 1.400 . S
C2563 C2562 1.400 . S
C2563 C2564 1.398 . S
C2563 C2569 1.491 1_655 S
C2564 H2555 0.950 . S
C2564 C2563 1.398 . S
C2564 C2565 1.391 . S
C2565 H2553 0.950 . S
C2565 C2561 1.393 . S
C2565 C2564 1.391 . S
C2566 H2556 0.950 . S
C2566 C2567 1.386 . S
C2566 C2568 1.391 . S
C2567 C2566 1.386 . S
C2567 C2571 1.393 . S
C2568 H2557 0.950 . S
C2568 C2566 1.391 . S
C2568 C2569 1.400 . S
C2569 C2563 1.491 1_455 S
C2569 C2568 1.400 . S
C2569 C2570 1.398 . S
C2570 H2558 0.950 . S
C2570 C2569 1.398 . S
C2570 C2571 1.391 . S
C2571 H2559 0.950 . S
C2571 C2567 1.393 . S
C2571 C2570 1.391 . S
H2572 C2580 0.950 . S
H2573 C2585 0.950 . S
H2574 C2582 0.950 . S
H2575 C2584 0.950 . S
H2576 C2586 0.950 . S
H2577 C2588 0.950 . S
H2578 C2590 0.950 . S
H2579 C2591 0.950 . S
C2580 H2572 0.950 . S
C2580 C2581 1.386 . S
C2580 C2582 1.391 . S
C2581 C2580 1.386 . S
C2581 C2585 1.393 . S
C2582 H2574 0.950 . S
C2582 C2580 1.391 . S
C2582 C2583 1.400 . S
C2583 C2582 1.400 . S
C2583 C2584 1.398 . S
C2583 C2589 1.491 1_455 S
C2584 H2575 0.950 . S
C2584 C2583 1.398 . S
C2584 C2585 1.391 . S
C2585 H2573 0.950 . S
C2585 C2581 1.393 . S
C2585 C2584 1.391 . S
C2586 H2576 0.950 . S
C2586 C2587 1.386 . S
C2586 C2588 1.391 . S
C2587 C2586 1.386 . S
C2587 C2591 1.393 . S
C2588 H2577 0.950 . S
C2588 C2586 1.391 . S
C2588 C2589 1.400 . S
C2589 C2583 1.491 1_655 S
C2589 C2588 1.400 . S
C2589 C2590 1.398 . S
C2590 H2578 0.950 . S
C2590 C2589 1.398 . S
C2590 C2591 1.391 . S
C2591 H2579 0.950 . S
C2591 C2587 1.393 . S
C2591 C2590 1.391 . S
C681 C554 1.284 . S
C687 C3 1.276 . S
C701 C22 1.298 . S
C707 C507 1.299 . S
C721 C31 1.269 . S
C727 C526 1.276 . S
C741 C540 1.268 . S
C747 C50 1.260 . S
C761 C470 1.186 . S
C767 C59 1.180 . S
C781 C73 1.311 . S
C787 C484 1.312 . S
C801 C87 1.214 . S
C807 C493 1.204 . S
C821 C101 1.351 . S
C827 C451 1.349 . S
C841 C120 1.351 . S
C847 C437 1.348 . S
C861 C400 1.234 . S
C867 C129 1.231 . S
C881 C409 1.300 . S
C887 C148 1.298 . S
C901 C157 1.227 . S
C907 C428 1.231 . S
C921 C176 1.191 . S
C927 C358 1.196 . S
C941 C185 1.241 . S
C947 C367 1.246 . S
C961 C386 1.139 . S
C967 C204 1.130 . S
C981 C339 1.319 . S
C987 C213 1.313 . S
C1001 C232 1.359 . S
C1007 C624 1.354 . S
C1021 C661 1.326 . S
C1027 C241 1.331 . S
C1041 C638 1.323 . S
C1047 C260 1.316 . S
C1061 C647 1.258 . S
C1067 C269 1.245 . S
C1081 C568 1.290 . S
C1087 C288 1.296 . S
C1101 C596 1.330 . S
C1107 C302 1.326 . S
C1121 C316 1.209 . S
C1127 C605 1.212 . S
C1141 C577 1.148 . S
C1147 C330 1.156 . S
C1161 C456 1.276 . S
C1167 C283 1.277 . S
C1181 C246 1.299 . S
C1187 C465 1.303 . S
C1201 C479 1.292 . S
C1207 C255 1.295 . S
C1221 C498 1.277 . S
C1227 C274 1.269 . S
C1241 C325 1.191 . S
C1247 C512 1.200 . S
C1261 C521 1.333 . S
C1267 C297 1.339 . S
C1281 C311 1.218 . S
C1287 C535 1.204 . S
C1301 C227 1.346 . S
C1307 C549 1.351 . S
C1321 C563 1.344 . S
C1327 C218 1.353 . S
C1341 C171 1.242 . S
C1347 C666 1.246 . S
C1361 C633 1.302 . S
C1367 C190 1.304 . S
C1381 C199 1.161 . S
C1387 C652 1.160 . S
C1401 C134 1.129 . S
C1407 C582 1.136 . S
C1421 C143 1.246 . S
C1427 C591 1.248 . S
C1441 C162 1.155 . S
C1447 C610 1.147 . S
C1461 C619 1.311 . S
C1467 C115 1.319 . S
C1481 C344 1.350 . S
C1487 C106 1.355 . S
C1501 C395 1.314 . S
C1507 C17 1.322 . S
C1521 C414 1.287 . S
C1527 C36 1.288 . S
C1541 C423 1.262 . S
C1547 C45 1.252 . S
C1561 C442 1.285 . S
C1567 C8 1.294 . S
C1581 C78 1.294 . S
C1587 C372 1.297 . S
C1601 C381 1.204 . S
C1607 C92 1.205 . S
C1621 C353 1.154 . S
C1627 C64 1.158 . S
C1641 C7 1.485 . S
C1647 C371 1.497 . S
C1661 C387 1.403 . S
C1667 C23 1.396 . S
C1681 C35 1.501 . S
C1687 C343 1.485 . S
C1701 C51 1.391 . S
C1707 C359 1.396 . S
C1721 C63 1.432 . S
C1727 C429 1.435 . S
C1741 C441 1.492 . S
C1747 C77 1.505 . S
C1761 C91 1.446 . S
C1767 C401 1.439 . S
C1781 C413 1.517 . S
C1787 C105 1.502 . S
C1801 C121 1.524 . S
C1807 C511 1.529 . S
C1821 C527 1.448 . S
C1827 C133 1.461 . S
C1841 C149 1.473 . S
C1847 C541 1.492 . S
C1861 C161 1.469 . S
C1867 C555 1.472 . S
C1881 C177 1.498 . S
C1887 C455 1.483 . S
C1901 C189 1.436 . S
C1907 C471 1.444 . S
C1921 C485 1.438 . S
C1927 C205 1.431 . S
C1941 C217 1.487 . S
C1947 C497 1.506 . S
C1961 C609 1.480 . S
C1967 C233 1.474 . S
C1981 C245 1.484 . S
C1987 C639 1.480 . S
C2001 C261 1.495 . S
C2007 C651 1.493 . S
C2021 C569 1.444 . S
C2027 C273 1.444 . S
C2041 C665 1.508 . S
C2047 C289 1.505 . S
C2061 C303 1.453 . S
C2067 C581 1.459 . S
C2081 C597 1.465 . S
C2087 C317 1.467 . S
C2101 C331 1.443 . S
C2107 C625 1.460 . S
C2121 C595 1.506 . S
C2127 C287 1.489 . S
C2141 C247 1.405 . S
C2147 C611 1.406 . S
C2161 C623 1.507 . S
C2167 C259 1.494 . S
C2181 C583 1.390 . S
C2187 C275 1.387 . S
C2201 C653 1.431 . S
C2207 C329 1.428 . S
C2221 C301 1.513 . S
C2227 C567 1.495 . S
C2241 C667 1.454 . S
C2247 C315 1.443 . S
C2261 C231 1.518 . S
C2267 C637 1.513 . S
C2281 C469 1.534 . S
C2287 C219 1.541 . S
C2301 C175 1.474 . S
C2307 C483 1.485 . S
C2321 C191 1.488 . S
C2327 C499 1.476 . S
C2341 C457 1.424 . S
C2347 C203 1.433 . S
C2361 C135 1.451 . S
C2367 C553 1.456 . S
C2381 C513 1.446 . S
C2387 C147 1.436 . S
C2401 C163 1.450 . S
C2407 C525 1.457 . S
C2421 C119 1.503 . S
C2427 C539 1.493 . S
C2441 C385 1.472 . S
C2447 C107 1.484 . S
C2461 C21 1.465 . S
C2467 C415 1.483 . S
C2481 C37 1.482 . S
C2487 C427 1.470 . S
C2501 C443 1.456 . S
C2507 C49 1.440 . S
C2521 C9 1.490 . S
C2527 C399 1.494 . S
C2541 C79 1.432 . S
C2547 C357 1.439 . S
C2561 C93 1.457 . S
C2567 C373 1.461 . S
C2581 C65 1.457 . S
C2587 C345 1.445 . S
