# Generated by pormake.
# Topology smt, (6)-cn, num edge types: 1
# Building blocks:
#     Node 0, Type 0, BuildingBlock: UKALOJ_clean_sbu_0, # of connection points: 6
#     Node 1, Type 0, BuildingBlock: UKALOJ_clean_sbu_0, # of connection points: 6
#     Node 2, Type 0, BuildingBlock: UKALOJ_clean_sbu_0, # of connection points: 6
#     Node 3, Type 0, BuildingBlock: UKALOJ_clean_sbu_0, # of connection points: 6
#     Node 4, Type 0, BuildingBlock: UKALOJ_clean_sbu_0, # of connection points: 6
#     Node 5, Type 0, BuildingBlock: UKALOJ_clean_sbu_0, # of connection points: 6
#     Edge 6, Type (0, 0), BuildingBlock: UVAHIK_clean_linker_0, # of connection points: 2
#     Edge 7, Type (0, 0), BuildingBlock: UVAHIK_clean_linker_0, # of connection points: 2
#     Edge 8, Type (0, 0), BuildingBlock: UVAHIK_clean_linker_0, # of connection points: 2
#     Edge 9, Type (0, 0), BuildingBlock: UVAHIK_clean_linker_0, # of connection points: 2
#     Edge 10, Type (0, 0), BuildingBlock: UVAHIK_clean_linker_0, # of connection points: 2
#     Edge 11, Type (0, 0), BuildingBlock: UVAHIK_clean_linker_0, # of connection points: 2
#     Edge 12, Type (0, 0), BuildingBlock: UVAHIK_clean_linker_0, # of connection points: 2
#     Edge 13, Type (0, 0), BuildingBlock: UVAHIK_clean_linker_0, # of connection points: 2
#     Edge 14, Type (0, 0), BuildingBlock: UVAHIK_clean_linker_0, # of connection points: 2
#     Edge 15, Type (0, 0), BuildingBlock: UVAHIK_clean_linker_0, # of connection points: 2
#     Edge 16, Type (0, 0), BuildingBlock: UVAHIK_clean_linker_0, # of connection points: 2
#     Edge 17, Type (0, 0), BuildingBlock: UVAHIK_clean_linker_0, # of connection points: 2
#     Edge 18, Type (0, 0), BuildingBlock: UVAHIK_clean_linker_0, # of connection points: 2
#     Edge 19, Type (0, 0), BuildingBlock: UVAHIK_clean_linker_0, # of connection points: 2
#     Edge 20, Type (0, 0), BuildingBlock: UVAHIK_clean_linker_0, # of connection points: 2
#     Edge 21, Type (0, 0), BuildingBlock: UVAHIK_clean_linker_0, # of connection points: 2
#     Edge 22, Type (0, 0), BuildingBlock: UVAHIK_clean_linker_0, # of connection points: 2
#     Edge 23, Type (0, 0), BuildingBlock: UVAHIK_clean_linker_0, # of connection points: 2
# Relax obj value: 0.347
# Max RMSD: 0.282
# Mean RMSD: 0.282
data_MOF--net-smt--node1-UKALOJ_clean_sbu_0--edge1-UVAHIK_clean_linker_0
_symmetry_space_group_name_H-M    P1
_symmetry_Int_Tables_number       1
_symmetry_cell_setting            triclinic
loop_
_symmetry_equiv_pos_as_xyz
'x, y, z'
_cell_length_a     48.157718
_cell_length_b     48.173451
_cell_length_c     31.672202
_cell_angle_alpha  90.090491
_cell_angle_beta   89.856603
_cell_angle_gamma 119.9181
loop_
_atom_site_label
_atom_site_type_symbol
_atom_site_fract_x
_atom_site_fract_y
_atom_site_fract_z
_atom_type_partial_charge
Zn0 Zn 0.47615 0.12468 -0.00325 0.0
O1 O 0.46714 0.08678 0.03841 0.0
C2 C 0.40937 0.09154 0.97026 0.0
Zn3 Zn 0.44781 0.13805 0.039 0.0
C4 C 0.44929 0.08119 0.07063 0.0
O5 O 0.43698 0.0987 0.07797 0.0
C6 C 0.47628 0.18209 0.96555 0.0
O7 O 0.48746 0.16694 0.07825 0.0
O8 O 0.51566 0.15586 0.0337 0.0
N9 N 0.41768 0.1475 0.07357 0.0
C10 C 0.41658 0.17473 0.07785 0.0
C11 C 0.37208 0.13665 0.10031 0.0
N12 N 0.39015 0.12389 0.08802 0.0
N13 N 0.38808 0.16852 0.09391 0.0
C14 C 0.50083 0.09095 0.93583 0.0
C15 C 0.54987 0.12687 0.92867 0.0
N16 N 0.50595 0.11564 0.96091 0.0
N17 N 0.5365 0.13784 0.95663 0.0
N18 N 0.52792 0.09754 0.91508 0.0
H19 H 0.4571 0.0542 0.96393 0.0
H20 H 0.47413 0.04009 0.92408 0.0
H21 H 0.45447 0.06192 0.90882 0.0
C22 C 0.46985 0.0599 0.93319 0.0
C23 C 0.44367 0.20751 0.06754 0.0
H24 H 0.46702 0.2084 0.07074 0.0
H25 H 0.44312 0.2256 0.08874 0.0
H26 H 0.44119 0.21373 0.03463 0.0
O27 O 0.45998 0.17785 -0.00108 0.0
O28 O 0.48538 0.16232 0.95602 0.0
C29 C 0.51418 0.17013 0.06663 0.0
O30 O 0.43604 0.0939 0.96052 0.0
O31 O 0.40811 0.10814 0.00057 0.0
Zn32 Zn 0.34409 0.47441 0.16777 0.0
O33 O 0.37343 0.4648 0.20772 0.0
C34 C 0.308 0.40707 0.14373 0.0
Zn35 Zn 0.30392 0.44777 0.21287 0.0
C36 C 0.36224 0.44785 0.24084 0.0
O37 O 0.33291 0.43658 0.25041 0.0
C38 C 0.28684 0.47581 0.14014 0.0
O39 O 0.31716 0.48867 0.25089 0.0
O40 O 0.35507 0.5152 0.20406 0.0
N41 N 0.26506 0.41946 0.24974 0.0
C42 C 0.2377 0.4201 0.25569 0.0
C43 C 0.22942 0.37475 0.27731 0.0
N44 N 0.26 0.39139 0.26369 0.0
N45 N 0.21482 0.39217 0.27227 0.0
C46 C 0.40053 0.49589 0.10411 0.0
C47 C 0.41496 0.54517 0.09565 0.0
N48 N 0.38201 0.50236 0.12953 0.0
N49 N 0.39114 0.53303 0.12437 0.0
N50 N 0.4212 0.52229 0.08234 0.0
H51 H 0.39278 0.45231 0.13354 0.0
H52 H 0.42317 0.46759 0.09273 0.0
H53 H 0.38146 0.44873 0.07877 0.0
C54 C 0.39955 0.46432 0.10235 0.0
C55 C 0.23355 0.44832 0.24643 0.0
H56 H 0.25676 0.47096 0.24855 0.0
H57 H 0.21621 0.44907 0.26891 0.0
H58 H 0.22389 0.44613 0.21415 0.0
O59 O 0.27583 0.46021 0.1742 0.0
O60 O 0.31516 0.48415 0.12871 0.0
C61 C 0.34063 0.51485 0.23784 0.0
O62 O 0.33216 0.43321 0.13225 0.0
O63 O 0.29171 0.40685 0.17542 0.0
Zn64 Zn 0.858 0.34255 0.33711 0.0
O65 O 0.89535 0.37176 0.37909 0.0
C66 C 0.89192 0.30892 0.31316 0.0
Zn67 Zn 0.84421 0.30136 0.38027 0.0
C68 C 0.90057 0.35998 0.41199 0.0
O69 O 0.88298 0.33032 0.41982 0.0
C70 C 0.80093 0.28497 0.30584 0.0
O71 O 0.81463 0.31245 0.41803 0.0
O72 O 0.82635 0.35132 0.37272 0.0
N73 N 0.8347 0.26233 0.41584 0.0
C74 C 0.80778 0.23383 0.42047 0.0
C75 C 0.84625 0.22901 0.44527 0.0
N76 N 0.85854 0.25939 0.43167 0.0
N77 N 0.81445 0.21232 0.43821 0.0
C78 C 0.89341 0.40092 0.27695 0.0
C79 C 0.85792 0.41439 0.26722 0.0
N80 N 0.86778 0.38118 0.30052 0.0
N81 N 0.84584 0.38973 0.29464 0.0
N82 N 0.88773 0.42178 0.25564 0.0
H83 H 0.92908 0.39335 0.30731 0.0
H84 H 0.94464 0.42486 0.26814 0.0
H85 H 0.92317 0.38362 0.25188 0.0
C86 C 0.92445 0.40078 0.27622 0.0
C87 C 0.7749 0.22763 0.4096 0.0
H88 H 0.77366 0.24993 0.41251 0.0
H89 H 0.75672 0.20897 0.43063 0.0
H90 H 0.76919 0.21904 0.37658 0.0
O91 O 0.80491 0.27323 0.33964 0.0
O92 O 0.82076 0.31373 0.29608 0.0
C93 C 0.81163 0.3359 0.4056 0.0
O94 O 0.88933 0.33287 0.30229 0.0
O95 O 0.87494 0.29136 0.34342 0.0
Zn96 Zn 0.51063 0.86791 0.50115 0.0
O97 O 0.52218 0.90756 0.54089 0.0
C98 C 0.57766 0.89511 0.47831 0.0
Zn99 Zn 0.53384 0.85045 0.54602 0.0
C100 C 0.53812 0.91125 0.57442 0.0
O101 O 0.54658 0.89092 0.58382 0.0
C102 C 0.50508 0.80666 0.47312 0.0
O103 O 0.49202 0.82401 0.5831 0.0
O104 O 0.46918 0.84035 0.53718 0.0
N105 N 0.56066 0.83865 0.58362 0.0
C106 C 0.56022 0.81076 0.58928 0.0
C107 C 0.60438 0.84772 0.61409 0.0
N108 N 0.58795 0.86155 0.59952 0.0
N109 N 0.58767 0.81584 0.60766 0.0
C110 C 0.49195 0.90495 0.43736 0.0
C111 C 0.44221 0.87184 0.42878 0.0
N112 N 0.48435 0.8797 0.46263 0.0
N113 N 0.4534 0.85924 0.4574 0.0
N114 N 0.46597 0.90046 0.41562 0.0
H115 H 0.53635 0.93912 0.4667 0.0
H116 H 0.5221 0.95564 0.42652 0.0
H117 H 0.53916 0.93124 0.41171 0.0
C118 C 0.52425 0.93456 0.43566 0.0
C119 C 0.53226 0.77856 0.57885 0.0
H120 H 0.50954 0.77907 0.58135 0.0
H121 H 0.53142 0.76001 0.6004 0.0
H122 H 0.53465 0.772 0.54606 0.0
O123 O 0.5201 0.80983 0.50729 0.0
O124 O 0.49878 0.82822 0.4621 0.0
C125 C 0.4673 0.82455 0.57016 0.0
O126 O 0.55274 0.89543 0.46608 0.0
O127 O 0.57567 0.87767 0.50948 0.0
Zn128 Zn 0.63982 0.51436 0.66621 0.0
O129 O 0.61017 0.52303 0.70713 0.0
C130 C 0.67538 0.58171 0.64206 0.0
Zn131 Zn 0.68072 0.54092 0.70984 0.0
C132 C 0.62202 0.54032 0.73981 0.0
O133 O 0.65161 0.55193 0.74791 0.0
C134 C 0.6974 0.51317 0.63681 0.0
O135 O 0.66835 0.50062 0.74809 0.0
O136 O 0.62996 0.47374 0.70214 0.0
N137 N 0.71926 0.56998 0.74623 0.0
C138 C 0.74734 0.57085 0.75209 0.0
C139 C 0.7528 0.6148 0.77544 0.0
N140 N 0.72257 0.59716 0.76118 0.0
N141 N 0.76899 0.59898 0.7697 0.0
C142 C 0.58305 0.49185 0.60332 0.0
C143 C 0.56965 0.44287 0.59431 0.0
N144 N 0.60185 0.48579 0.62857 0.0
N145 N 0.59331 0.45528 0.62315 0.0
N146 N 0.56288 0.4654 0.58133 0.0
H147 H 0.59026 0.53536 0.63253 0.0
H148 H 0.55962 0.51934 0.59219 0.0
H149 H 0.60118 0.53863 0.57748 0.0
C150 C 0.58346 0.52311 0.60149 0.0
C151 C 0.75296 0.54356 0.7425 0.0
H152 H 0.73034 0.52037 0.74538 0.0
H153 H 0.77112 0.54384 0.76427 0.0
H154 H 0.76196 0.54581 0.70975 0.0
O155 O 0.7089 0.52859 0.67088 0.0
O156 O 0.66906 0.50533 0.62617 0.0
C157 C 0.64488 0.47433 0.73544 0.0
O158 O 0.6507 0.55576 0.6312 0.0
O159 O 0.6924 0.58139 0.67235 0.0
Zn160 Zn 0.11428 0.63672 0.83993 0.0
O161 O 0.0765 0.61048 0.88243 0.0
C162 C 0.08531 0.6751 0.81582 0.0
Zn163 Zn 0.13208 0.67925 0.88163 0.0
C164 C 0.0733 0.62347 0.91564 0.0
O165 O 0.09309 0.6528 0.92307 0.0
C166 C 0.17354 0.69099 0.80592 0.0
O167 O 0.15999 0.6658 0.91842 0.0
O168 O 0.14365 0.62483 0.87529 0.0
N169 N 0.14537 0.71951 0.91639 0.0
C170 C 0.17411 0.74611 0.92086 0.0
C171 C 0.13892 0.75725 0.94266 0.0
N172 N 0.12353 0.72633 0.93047 0.0
N173 N 0.17069 0.7703 0.93657 0.0
C174 C 0.07533 0.57878 0.78019 0.0
C175 C 0.10821 0.56187 0.77068 0.0
N176 N 0.10127 0.59705 0.80402 0.0
N177 N 0.12157 0.58634 0.79831 0.0
N178 N 0.07923 0.55673 0.75877 0.0
H179 H 0.04188 0.58985 0.81034 0.0
H180 H 0.02442 0.55815 0.77141 0.0
H181 H 0.04844 0.59912 0.75483 0.0
C182 C 0.04571 0.58154 0.77934 0.0
C183 C 0.20557 0.74805 0.91159 0.0
H184 H 0.2037 0.72432 0.91523 0.0
H185 H 0.22442 0.76558 0.93296 0.0
H186 H 0.21289 0.7562 0.87877 0.0
O187 O 0.17129 0.70483 0.83891 0.0
O188 O 0.15203 0.66239 0.79835 0.0
C189 C 0.16011 0.64057 0.90695 0.0
O190 O 0.08517 0.64962 0.80509 0.0
O191 O 0.10334 0.69191 0.84576 0.0
C192 C 0.35075 0.05355 0.97497 0.0
C193 C 0.3795 0.06559 0.9521 0.0
C194 C 0.3245 0.02392 0.9646 0.0
C195 C 0.31134 0.94913 0.91637 0.0
H196 H 0.22252 0.91979 0.94451 0.0
C197 C 0.21277 0.81767 0.89983 0.0
C198 C 0.19318 0.80404 0.93544 0.0
C199 C 0.23342 0.85059 0.89741 0.0
C200 C 0.24728 0.92775 0.93668 0.0
H201 H 0.402 0.05833 0.89714 0.0
H202 H 0.35572 0.0071 0.87794 0.0
H203 H 0.26107 0.97724 0.94273 0.0
H204 H 0.17825 0.81411 0.99519 0.0
H205 H 0.21464 0.87231 0.99107 0.0
H206 H 0.29757 0.89971 0.91041 0.0
C207 C 0.3539 0.01982 0.90506 0.0
C208 C 0.26934 0.96058 0.93557 0.0
C209 C 0.38035 0.04925 0.91585 0.0
C210 C 0.19369 0.82413 0.96791 0.0
C211 C 0.21422 0.85726 0.96535 0.0
C212 C 0.28927 0.91646 0.91699 0.0
C213 C 0.32634 0.00599 0.93075 0.0
C214 C 0.30177 0.97164 0.9261 0.0
C215 C 0.23442 0.87068 0.93015 0.0
C216 C 0.25719 0.90545 0.9278 0.0
H217 H 0.34932 0.06566 0.00305 0.0
H218 H 0.30379 0.01409 0.98522 0.0
H219 H 0.33619 0.95658 0.91 0.0
H220 H 0.21147 0.80304 0.87317 0.0
H221 H 0.24824 0.86043 0.86953 0.0
C222 C 0.31678 0.37635 0.0868 0.0
C223 C 0.30239 0.37661 0.12526 0.0
C224 C 0.31813 0.34922 0.07448 0.0
C225 C 0.2932 0.26471 0.10505 0.0
H226 H 0.37943 0.29039 0.06759 0.0
C227 C 0.35592 0.18936 0.12746 0.0
C228 C 0.37399 0.18864 0.09313 0.0
C229 C 0.34216 0.20898 0.12624 0.0
C230 C 0.35511 0.28275 0.07752 0.0
H231 H 0.27551 0.34784 0.17906 0.0
H232 H 0.27891 0.30113 0.15854 0.0
H233 H 0.36243 0.32991 0.07142 0.0
H234 H 0.38907 0.205 0.02907 0.0
H235 H 0.36617 0.24005 0.02739 0.0
H236 H 0.28688 0.21766 0.11317 0.0
C237 C 0.2887 0.32145 0.13733 0.0
C238 C 0.3452 0.30536 0.07939 0.0
C239 C 0.28685 0.34837 0.14924 0.0
C240 C 0.37678 0.20653 0.05682 0.0
C241 C 0.36329 0.2262 0.05564 0.0
C242 C 0.30333 0.24209 0.10365 0.0
C243 C 0.30569 0.3221 0.10082 0.0
C244 C 0.31425 0.29679 0.09366 0.0
C245 C 0.34624 0.22798 0.09053 0.0
C246 C 0.3345 0.25106 0.09027 0.0
H247 H 0.32842 0.39763 0.06732 0.0
H248 H 0.33047 0.35016 0.04542 0.0
H249 H 0.26908 0.25717 0.11571 0.0
H250 H 0.353 0.17519 0.15537 0.0
H251 H 0.32916 0.21001 0.15359 0.0
C252 C 0.93503 0.32171 0.25996 0.0
C253 C 0.91849 0.30522 0.29645 0.0
C254 C 0.96471 0.3248 0.25011 0.0
C255 C 0.0241 0.30023 0.28303 0.0
H256 H 0.08485 0.38785 0.25172 0.0
C257 C 0.1621 0.3615 0.30694 0.0
C258 C 0.18081 0.37962 0.27264 0.0
C259 C 0.12883 0.3487 0.30647 0.0
C260 C 0.06813 0.36321 0.26009 0.0
H261 H 0.9186 0.27654 0.34915 0.0
H262 H 0.97062 0.28276 0.33288 0.0
H263 H 0.02809 0.37027 0.25345 0.0
H264 H 0.17929 0.39581 0.20935 0.0
H265 H 0.1217 0.37481 0.20918 0.0
H266 H 0.06488 0.29398 0.2914 0.0
C267 C 0.9607 0.29297 0.31135 0.0
C268 C 0.0355 0.35297 0.26071 0.0
C269 C 0.9308 0.28946 0.32079 0.0
C270 C 0.16568 0.38361 0.23722 0.0
C271 C 0.13267 0.37117 0.23686 0.0
C272 C 0.05691 0.31066 0.2829 0.0
C273 C 0.97867 0.31191 0.27698 0.0
C274 C 0.01302 0.3214 0.27239 0.0
C275 C 0.11395 0.35386 0.27159 0.0
C276 C 0.07917 0.34229 0.27157 0.0
H277 H 0.92581 0.33361 0.2402 0.0
H278 H 0.97743 0.33866 0.22257 0.0
H279 H 0.00747 0.27567 0.29176 0.0
H280 H 0.1733 0.3576 0.33414 0.0
H281 H 0.11485 0.3354 0.33365 0.0
C282 C 0.77414 0.16076 0.40743 0.0
C283 C 0.79492 0.17806 0.4406 0.0
C284 C 0.75644 0.12744 0.40858 0.0
C285 C 0.72671 0.05939 0.48256 0.0
H286 H 0.70242 0.01047 0.37833 0.0
C287 C 0.63712 0.92592 0.48529 0.0
C288 C 0.60952 0.91916 0.46222 0.0
C289 C 0.66598 0.95407 0.47781 0.0
C290 C 0.7093 0.02383 0.40765 0.0
H291 H 0.81509 0.17407 0.49964 0.0
H292 H 0.78472 0.11548 0.5014 0.0
H293 H 0.74181 0.06759 0.37663 0.0
H294 H 0.59154 0.93443 0.40974 0.0
H295 H 0.64207 0.9835 0.39646 0.0
H296 H 0.69395 0.01566 0.51342 0.0
C297 C 0.78117 0.12776 0.47518 0.0
C298 C 0.7316 0.05656 0.40674 0.0
C299 C 0.79861 0.16124 0.47422 0.0
C300 C 0.61226 0.93922 0.42841 0.0
C301 C 0.64125 0.96723 0.42065 0.0
C302 C 0.70482 0.02662 0.48351 0.0
C303 C 0.75971 0.11045 0.44241 0.0
C304 C 0.73975 0.07496 0.44403 0.0
C305 C 0.66785 0.97566 0.44674 0.0
C306 C 0.69523 0.00874 0.44595 0.0
H307 H 0.77205 0.17283 0.37995 0.0
H308 H 0.73996 0.11508 0.38297 0.0
H309 H 0.73205 0.07274 0.51181 0.0
H310 H 0.63591 0.91083 0.51137 0.0
H311 H 0.68632 0.9599 0.49797 0.0
C312 C 0.62166 0.79822 0.64317 0.0
C313 C 0.60089 0.79493 0.61011 0.0
C314 C 0.63711 0.78016 0.64346 0.0
C315 C 0.65725 0.73043 0.57293 0.0
H316 H 0.66466 0.69428 0.67863 0.0
C317 C 0.66152 0.61377 0.59326 0.0
C318 C 0.6808 0.61271 0.62571 0.0
C319 C 0.66047 0.6418 0.58581 0.0
C320 C 0.66333 0.70471 0.64895 0.0
H321 H 0.58185 0.77169 0.54995 0.0
H322 H 0.60633 0.73848 0.55202 0.0
H323 H 0.64409 0.73121 0.6788 0.0
H324 H 0.71689 0.64121 0.67246 0.0
H325 H 0.71466 0.68988 0.65964 0.0
H326 H 0.67465 0.70202 0.54306 0.0
C327 C 0.61118 0.7552 0.57762 0.0
C328 C 0.65155 0.72592 0.64902 0.0
C329 C 0.5962 0.77355 0.57708 0.0
C330 C 0.70148 0.64109 0.6475 0.0
C331 C 0.70018 0.66897 0.64035 0.0
C332 C 0.66855 0.70877 0.57283 0.0
C333 C 0.63204 0.75841 0.6106 0.0
C334 C 0.64771 0.73853 0.61093 0.0
C335 C 0.67857 0.66908 0.61085 0.0
C336 C 0.67119 0.69536 0.61079 0.0
H337 H 0.62624 0.81511 0.66847 0.0
H338 H 0.6534 0.78366 0.66906 0.0
H339 H 0.65542 0.74032 0.54308 0.0
H340 H 0.64569 0.59245 0.57553 0.0
H341 H 0.64363 0.64133 0.56281 0.0
C342 C 0.05445 0.70386 0.82086 0.0
C343 C 0.06094 0.68221 0.79917 0.0
C344 C 0.02648 0.70475 0.81257 0.0
C345 C 0.95736 0.67811 0.74177 0.0
H346 H 0.90766 0.65452 0.84542 0.0
C347 C 0.82046 0.60873 0.74008 0.0
C348 C 0.80317 0.61309 0.77263 0.0
C349 C 0.85373 0.62374 0.74166 0.0
C350 C 0.92125 0.66184 0.81628 0.0
H351 H 0.04536 0.6475 0.74831 0.0
H352 H -0.00348 0.64922 0.73366 0.0
H353 H 0.96452 0.67231 0.84802 0.0
H354 H 0.80714 0.63817 0.83094 0.0
H355 H 0.8657 0.66539 0.83342 0.0
H356 H 0.9141 0.66745 0.70988 0.0
C357 C 0.01289 0.66518 0.75738 0.0
C358 C 0.95388 0.67201 0.8178 0.0
C359 C 0.04073 0.66403 0.76597 0.0
C360 C 0.81996 0.63386 0.80603 0.0
C361 C 0.85342 0.64931 0.8074 0.0
C362 C 0.92479 0.66844 0.74028 0.0
C363 C 0.00481 0.68439 0.78206 0.0
C364 C 0.97198 0.67934 0.78047 0.0
C365 C 0.8707 0.64427 0.77528 0.0
C366 C 0.90611 0.65913 0.77739 0.0
H367 H 0.06968 0.71843 0.84642 0.0
H368 H 0.02087 0.72 0.83166 0.0
H369 H 0.97094 0.68387 0.71262 0.0
H370 H 0.80845 0.59438 0.71271 0.0
H371 H 0.86607 0.61894 0.71657 0.0
C372 C 0.46574 0.04367 0.10075 0.0
C373 C 0.44524 0.05656 0.10152 0.0
C374 C 0.46492 0.02384 0.1334 0.0
C375 C 0.44143 0.00703 0.24536 0.0
H376 H 0.4595 0.93781 0.22886 0.0
C377 C 0.43761 0.92432 0.3801 0.0
C378 C 0.46366 0.91897 0.38185 0.0
C379 C 0.43388 0.94019 0.34564 0.0
C380 C 0.45461 0.95722 0.23387 0.0
H381 H 0.40634 0.0571 0.13548 0.0
H382 H 0.40425 0.02173 0.19177 0.0
H383 H 0.45351 0.96503 0.16759 0.0
H384 H 0.50557 0.92477 0.34867 0.0
H385 H 0.49935 0.95289 0.28844 0.0
H386 H 0.44238 -0.00099 0.31167 0.0
C387 C 0.42165 0.02773 0.16669 0.0
C388 C 0.4512 0.97282 0.19884 0.0
C389 C 0.42269 0.04781 0.13428 0.0
C390 C 0.48583 0.92949 0.34852 0.0
C391 C 0.48197 0.94508 0.31386 0.0
C392 C 0.44456 0.99124 0.28033 0.0
C393 C 0.44335 0.01624 0.16725 0.0
C394 C 0.44487 -0.00188 0.20419 0.0
C395 C 0.45588 0.95044 0.31202 0.0
C396 C 0.45151 0.96643 0.27491 0.0
H397 H 0.48344 0.05005 0.07596 0.0
H398 H 0.48218 0.01566 0.13299 0.0
H399 H 0.4372 0.02683 0.2507 0.0
H400 H 0.42007 0.91598 0.40535 0.0
H401 H 0.41341 0.94379 0.3448 0.0
C402 C 0.37115 0.42297 0.30481 0.0
C403 C 0.38374 0.44378 0.27008 0.0
C404 C 0.39151 0.42237 0.33564 0.0
C405 C 0.46781 0.47595 0.38384 0.0
H406 H 0.46034 0.39971 0.4359 0.0
C407 C 0.55508 0.4843 0.51288 0.0
C408 C 0.54276 0.46246 0.5464 0.0
C409 C 0.53618 0.48061 0.47774 0.0
C410 C 0.46244 0.42121 0.42206 0.0
H411 H 0.42758 0.47898 0.2392 0.0
H412 H 0.46307 0.47811 0.2934 0.0
H413 H 0.42658 0.39454 0.37549 0.0
H414 H 0.50167 0.41944 0.56969 0.0
H415 H 0.46778 0.4134 0.50883 0.0
H416 H 0.50264 0.50271 0.43093 0.0
C417 C 0.43745 0.46242 0.29674 0.0
C418 C 0.44328 0.41822 0.38734 0.0
C419 C 0.41714 0.46278 0.26568 0.0
C420 C 0.51137 0.43665 0.54417 0.0
C421 C 0.49222 0.43312 0.50922 0.0
C422 C 0.48665 0.47895 0.41878 0.0
C423 C 0.42476 0.44278 0.33246 0.0
C424 C 0.44587 0.44558 0.36793 0.0
C425 C 0.50444 0.45508 0.47554 0.0
C426 C 0.48425 0.45164 0.43833 0.0
H427 H 0.34552 0.40792 0.30894 0.0
H428 H 0.38115 0.40711 0.36299 0.0
H429 H 0.46981 0.4974 0.36993 0.0
H430 H 0.57964 0.50374 0.51342 0.0
H431 H 0.54668 0.4975 0.45199 0.0
C432 C 0.05415 0.50461 0.7228 0.0
C433 C 0.0605 0.53631 0.72486 0.0
C434 C 0.03796 0.4854 0.68813 0.0
C435 C 0.9872 0.48037 0.59727 0.0
H436 H 0.01339 0.4219 0.55256 0.0
C437 C 0.9383 0.41439 0.44048 0.0
C438 C 0.92481 0.38099 0.44297 0.0
C439 C 0.95762 0.43399 0.47304 0.0
C440 C 0.00585 0.4381 0.56484 0.0
H441 H 0.05654 0.57347 0.69191 0.0
H442 H 0.0286 0.54029 0.63115 0.0
H443 H 0.04056 0.45451 0.6144 0.0
H444 H 0.92258 0.3421 0.48011 0.0
H445 H 0.95667 0.3765 0.53678 0.0
H446 H 0.95279 0.46421 0.54736 0.0
C447 C 0.03493 0.52969 0.65682 0.0
C448 C 0.0212 0.45661 0.60037 0.0
C449 C 0.0508 0.5487 0.69164 0.0
C450 C 0.93251 0.36775 0.47743 0.0
C451 C 0.95212 0.38741 0.50977 0.0
C452 C 0.97213 0.46215 0.56155 0.0
C453 C 0.02836 0.49782 0.65458 0.0
C454 C 0.01198 0.4779 0.61705 0.0
C455 C 0.96409 0.42059 0.50839 0.0
C456 C 0.98127 0.44082 0.54508 0.0
H457 H 0.06179 0.49483 0.74806 0.0
H458 H 0.03294 0.46085 0.68767 0.0
H459 H 0.97907 0.49605 0.60972 0.0
H460 H 0.93287 0.42531 0.41427 0.0
H461 H 0.96693 0.45959 0.47108 0.0
C462 C 0.52667 0.95295 0.6027 0.0
C463 C 0.54474 0.93741 0.60412 0.0
C464 C 0.52988 0.97452 0.6344 0.0
C465 C 0.55525 0.99249 0.74563 0.0
H466 H 0.54119 0.06409 0.72725 0.0
C467 C 0.55878 0.0762 0.87961 0.0
C468 C 0.53214 0.08062 0.88071 0.0
C469 C 0.56377 0.06115 0.84503 0.0
C470 C 0.54513 0.04413 0.73275 0.0
H471 H 0.58199 0.93393 0.63793 0.0
H472 H 0.58841 0.97238 0.69241 0.0
H473 H 0.54568 0.03515 0.6667 0.0
H474 H 0.49068 0.07442 0.84625 0.0
H475 H 0.4992 0.04794 0.78575 0.0
H476 H 0.55471 0.00162 0.81173 0.0
C477 C 0.57095 0.96713 0.66772 0.0
C478 C 0.54762 0.0275 0.69815 0.0
C479 C 0.56743 0.94525 0.63636 0.0
C480 C 0.51087 0.07039 0.84649 0.0
C481 C 0.51604 0.05575 0.81172 0.0
C482 C 0.55314 0.00936 0.78016 0.0
C483 C 0.55154 0.9813 0.66785 0.0
C484 C 0.55212 0.0011 0.7042 0.0
C485 C 0.54252 0.05099 0.81068 0.0
C486 C 0.54748 0.03493 0.77404 0.0
H487 H 0.50893 0.94729 0.57826 0.0
H488 H 0.51428 0.98469 0.63367 0.0
H489 H 0.55814 0.97195 0.75159 0.0
H490 H 0.57562 0.08436 0.90558 0.0
H491 H 0.58447 0.0579 0.8448 0.0
C492 C 0.43144 0.50345 0.01498 0.0
C493 C 0.44235 0.52554 0.04838 0.0
C494 C 0.45124 0.50793 0.98038 0.0
C495 C 0.53498 0.54652 0.94778 0.0
H496 H 0.5008 0.53673 0.83451 0.0
C497 C 0.61476 0.56718 0.80297 0.0
C498 C 0.60123 0.5446 0.77028 0.0
C499 C 0.59546 0.56851 0.83494 0.0
C500 C 0.51064 0.53928 0.86591 0.0
H501 H 0.48195 0.56966 0.07195 0.0
H502 H 0.51709 0.57736 0.01153 0.0
H503 H 0.46694 0.53075 0.89523 0.0
H504 H 0.55675 0.50659 0.74442 0.0
H505 H 0.52317 0.50828 0.80073 0.0
H506 H 0.57827 0.55396 0.91891 0.0
C507 C 0.49331 0.55652 0.01227 0.0
C508 C 0.49126 0.5359 0.90063 0.0
C509 C 0.47333 0.5522 0.04667 0.0
C510 C 0.56786 0.52433 0.76915 0.0
C511 C 0.54859 0.5254 0.80139 0.0
C512 C 0.55426 0.54958 0.91313 0.0
C513 C 0.48233 0.53453 0.97867 0.0
C514 C 0.5032 0.53926 0.94186 0.0
C515 C 0.56225 0.54703 0.83518 0.0
C516 C 0.54227 0.54578 0.87176 0.0
H517 H 0.4073 0.48322 0.01513 0.0
H518 H 0.44226 0.49054 0.95498 0.0
H519 H 0.54465 0.54891 0.97927 0.0
H520 H 0.64039 0.58336 0.80442 0.0
H521 H 0.60668 0.58598 0.85992 0.0
C522 C 0.03252 0.57022 0.94404 0.0
C523 C 0.04882 0.60378 0.94733 0.0
C524 C 0.01289 0.55127 0.97683 0.0
C525 C 0.9669 0.54846 0.06975 0.0
H526 H 0.99052 0.48743 0.11154 0.0
C527 C 0.91201 0.47489 0.22228 0.0
C528 C 0.90618 0.44334 0.22246 0.0
C529 C 0.92911 0.49552 0.18906 0.0
C530 C 0.9832 0.50394 0.09995 0.0
H531 H 0.05567 0.64381 0.98628 0.0
H532 H 0.02072 0.61042 0.04346 0.0
H533 H 0.01857 0.52076 0.05102 0.0
H534 H 0.91173 0.40779 0.18764 0.0
H535 H 0.94083 0.44324 0.12912 0.0
H536 H 0.9309 0.53107 0.11794 0.0
C537 C 0.02351 0.59897 0.01558 0.0
C538 C -0.00062 0.52309 0.06538 0.0
C539 C 0.04354 0.61801 0.98296 0.0
C540 C 0.91694 0.43239 0.18865 0.0
C541 C 0.93359 0.45276 0.15522 0.0
C542 C 0.95029 0.52888 0.10406 0.0
C543 C 0.00881 0.56549 0.01325 0.0
C544 C 0.99129 0.54539 0.04986 0.0
C545 C 0.9401 0.48467 0.15508 0.0
C546 C 0.95817 0.50626 0.11944 0.0
H547 H 0.03597 0.5585 0.91696 0.0
H548 H 0.00148 0.52545 0.97421 0.0
H549 H 0.96027 0.56551 0.0582 0.0
H550 H 0.90357 0.48355 0.24806 0.0
H551 H 0.93395 0.52 0.19025 0.0
C552 C 0.49643 0.24065 0.96086 0.0
C553 C 0.48819 0.2116 0.94071 0.0
C554 C 0.51338 0.26955 0.93903 0.0
C555 C 0.56643 0.30297 0.8457 0.0
H556 H 0.55732 0.37723 0.86783 0.0
C557 C 0.61639 0.41501 0.74009 0.0
C558 C 0.63307 0.44485 0.76032 0.0
C559 C 0.6013 0.3869 0.7637 0.0
C560 C 0.56029 0.35671 0.86182 0.0
H561 H 0.48917 0.1895 0.88157 0.0
H562 H 0.51723 0.23972 0.84271 0.0
H563 H 0.52226 0.32684 0.90393 0.0
H564 H 0.6479 0.46891 0.82081 0.0
H565 H 0.62061 0.41941 0.86241 0.0
H566 H 0.60361 0.33274 0.80223 0.0
C567 C 0.51184 0.24048 0.87576 0.0
C568 C 0.54026 0.32787 0.88242 0.0
C569 C 0.49544 0.21168 0.8978 0.0
C570 C 0.63535 0.44613 0.80454 0.0
C571 C 0.61962 0.41796 0.82826 0.0
C572 C 0.58605 0.33164 0.82464 0.0
C573 C 0.52201 0.26985 0.89648 0.0
C574 C 0.54298 0.30058 0.87444 0.0
C575 C 0.60213 0.38823 0.80794 0.0
C576 C 0.58306 0.35867 0.83247 0.0
H577 H 0.49166 0.24127 0.99416 0.0
H578 H 0.52107 0.29166 0.95618 0.0
H579 H 0.56986 0.28276 0.83959 0.0
H580 H 0.61435 0.41345 0.70599 0.0
H581 H 0.58781 0.36421 0.74743 0.0
C582 C 0.17996 0.63155 0.97537 0.0
C583 C 0.17713 0.62782 0.9314 0.0
C584 C 0.19139 0.61488 -0.00097 0.0
C585 C 0.20159 0.54358 0.99018 0.0
H586 H 0.25114 0.57719 0.0927 0.0
C587 C 0.27301 0.49212 0.07252 0.0
C588 C 0.26847 0.48728 0.11624 0.0
C589 C 0.259 0.50707 0.0506 0.0
C590 C 0.23703 0.56749 0.06431 0.0
H591 H 0.18599 0.60585 0.87717 0.0
H592 H 0.20755 0.57823 0.91795 0.0
H593 H 0.23524 0.61026 0.05264 0.0
H594 H 0.24584 0.4941 0.17145 0.0
H595 H 0.22164 0.52073 0.13305 0.0
H596 H 0.20467 0.50132 0.00119 0.0
C597 C 0.19964 0.5927 0.93462 0.0
C598 C 0.22787 0.58634 0.0414 0.0
C599 C 0.18764 0.6088 0.91117 0.0
C600 C 0.24911 0.49694 0.1376 0.0
C601 C 0.23562 0.51247 0.11581 0.0
C602 C 0.21123 0.52501 0.01269 0.0
C603 C 0.20067 0.59466 0.97894 0.0
C604 C 0.21021 0.57469 0.00387 0.0
C605 C 0.24085 0.51802 0.07229 0.0
C606 C 0.22909 0.53687 0.04981 0.0
H607 H 0.17172 0.64592 0.99165 0.0
H608 H 0.19164 0.61681 0.0331 0.0
H609 H 0.18726 0.53343 0.96209 0.0
H610 H 0.28801 0.48501 0.05549 0.0
H611 H 0.26346 0.51131 0.01703 0.0
C612 C 0.54092 0.18593 0.1369 0.0
C613 C 0.54305 0.18739 0.0927 0.0
C614 C 0.56857 0.19638 0.16125 0.0
C615 C 0.65107 0.20992 0.14995 0.0
H616 H 0.66343 0.2482 0.26102 0.0
C617 C 0.77183 0.27434 0.23766 0.0
C618 C 0.77165 0.26712 0.2806 0.0
C619 C 0.7432 0.26149 0.21515 0.0
C620 C 0.66002 0.23716 0.23022 0.0
H621 H 0.57548 0.20318 0.03924 0.0
H622 H 0.62377 0.22302 0.08156 0.0
H623 H 0.61522 0.2355 0.22099 0.0
H624 H 0.74164 0.24043 0.3336 0.0
H625 H 0.69138 0.21818 0.29418 0.0
H626 H 0.69649 0.21274 0.15875 0.0
C627 C 0.60086 0.21252 0.09759 0.0
C628 C 0.63246 0.22989 0.20728 0.0
C629 C 0.57326 0.20155 0.07333 0.0
C630 C 0.74248 0.24593 0.30034 0.0
C631 C 0.71375 0.23353 0.278 0.0
C632 C 0.67877 0.21761 0.17262 0.0
C633 C 0.59877 0.20888 0.14172 0.0
C634 C 0.6278 0.21645 0.16668 0.0
C635 C 0.71388 0.2417 0.23545 0.0
C636 C 0.68355 0.23143 0.2128 0.0
H637 H 0.51779 0.1748 0.15248 0.0
H638 H 0.56603 0.19309 0.19513 0.0
H639 H 0.64789 0.19872 0.11933 0.0
H640 H 0.79402 0.29074 0.22182 0.0
H641 H 0.74385 0.26824 0.18239 0.0
C642 C 0.48306 0.74766 0.46872 0.0
C643 C 0.49216 0.77689 0.44843 0.0
C644 C 0.46698 0.71888 0.44642 0.0
C645 C 0.4527 0.68358 0.34172 0.0
H646 H 0.37027 0.61896 0.3858 0.0
C647 C 0.36988 0.57422 0.24216 0.0
C648 C 0.35295 0.54452 0.2626 0.0
C649 C 0.38543 0.60245 0.26549 0.0
C650 C 0.39343 0.63649 0.37332 0.0
H651 H 0.49263 0.79919 0.38886 0.0
H652 H 0.46531 0.74881 0.34951 0.0
H653 H 0.40268 0.66817 0.4257 0.0
H654 H 0.33805 0.52089 0.32327 0.0
H655 H 0.36622 0.57019 0.3644 0.0
H656 H 0.44425 0.65191 0.29005 0.0
C657 C 0.47041 0.74823 0.38269 0.0
C658 C 0.4119 0.66466 0.39615 0.0
C659 C 0.48596 0.77697 0.40515 0.0
C660 C 0.35078 0.54357 0.3068 0.0
C661 C 0.36691 0.57185 0.33029 0.0
C662 C 0.43452 0.65524 0.31924 0.0
C663 C 0.46025 0.71895 0.40336 0.0
C664 C 0.44152 0.68852 0.3803 0.0
C665 C 0.38501 0.60159 0.30988 0.0
C666 C 0.40446 0.63147 0.33447 0.0
H667 H 0.48701 0.74687 0.50221 0.0
H668 H 0.45944 0.69654 0.46291 0.0
H669 H 0.47564 0.70155 0.32914 0.0
H670 H 0.3716 0.57559 0.20802 0.0
H671 H 0.39824 0.62493 0.24863 0.0
C672 C 0.78029 0.36387 0.41044 0.0
C673 C 0.79409 0.34785 0.43074 0.0
C674 C 0.76914 0.38084 0.43383 0.0
C675 C 0.75069 0.39639 0.54257 0.0
H676 H 0.76893 0.4772 0.49223 0.0
C677 C 0.73542 0.49228 0.63278 0.0
C678 C 0.71488 0.50076 0.61231 0.0
C679 C 0.74745 0.4752 0.61117 0.0
C680 C 0.76373 0.45471 0.50659 0.0
H681 H 0.80583 0.33562 0.49131 0.0
H682 H 0.78722 0.36617 0.53245 0.0
H683 H 0.7829 0.4419 0.45417 0.0
H684 H 0.69202 0.49956 0.55295 0.0
H685 H 0.71386 0.47055 0.51482 0.0
H686 H 0.73215 0.40991 0.59547 0.0
C687 C 0.78435 0.36513 0.49849 0.0
C688 C 0.7714 0.43428 0.4847 0.0
C689 C 0.79498 0.34758 0.475 0.0
C690 C 0.70792 0.49339 0.56937 0.0
C691 C 0.7204 0.47685 0.5476 0.0
C692 C 0.74344 0.4171 0.56473 0.0
C693 C 0.77223 0.38279 0.47803 0.0
C694 C 0.76453 0.40463 0.5021 0.0
C695 C 0.73956 0.46688 0.56862 0.0
C696 C 0.74957 0.44623 0.54667 0.0
H697 H 0.7791 0.36416 0.37629 0.0
H698 H 0.75895 0.39323 0.41707 0.0
H699 H 0.74481 0.37368 0.55679 0.0
H700 H 0.74073 0.49718 0.66605 0.0
H701 H 0.76233 0.46788 0.62792 0.0
C702 C 0.43437 0.79442 0.63332 0.0
C703 C 0.43672 0.8084 0.59362 0.0
C704 C 0.40561 0.78115 0.65609 0.0
C705 C 0.34848 0.77477 0.70676 0.0
H706 H 0.26784 0.72545 0.64766 0.0
C707 C 0.22639 0.73826 0.78497 0.0
C708 C 0.20221 0.70637 0.77852 0.0
C709 C 0.25487 0.75124 0.7617 0.0
C710 C 0.29014 0.73904 0.66468 0.0
H711 H 0.41062 0.81891 0.54635 0.0
H712 H 0.36099 0.79613 0.58596 0.0
H713 H 0.31802 0.74467 0.60944 0.0
H714 H 0.18853 0.66345 0.7415 0.0
H715 H 0.23794 0.68597 0.7013 0.0
H716 H 0.32044 0.76854 0.76225 0.0
C717 C 0.38109 0.79507 0.59945 0.0
C718 C 0.31889 0.75026 0.64272 0.0
C719 C 0.40967 0.8083 0.57684 0.0
C720 C 0.2066 0.68814 0.74728 0.0
C721 C 0.23495 0.70107 0.72409 0.0
C722 C 0.31966 0.76351 0.72879 0.0
C723 C 0.37875 0.78151 0.63939 0.0
C724 C 0.34836 0.76834 0.66345 0.0
C725 C 0.25957 0.73259 0.73141 0.0
C726 C 0.29019 0.74552 0.70794 0.0
H727 H 0.45482 0.79417 0.64706 0.0
H728 H 0.40436 0.77056 0.68668 0.0
H729 H 0.37083 0.78894 0.72346 0.0
H730 H 0.22353 0.75309 0.80824 0.0
H731 H 0.27323 0.77582 0.76748 0.0
loop_
_geom_bond_atom_site_label_1
_geom_bond_atom_site_label_2
_geom_bond_distance
_geom_bond_site_symmetry_2
_ccdc_geom_bond_type
Zn0 O1 2.055 1_556 S
Zn0 O8 2.046 1_556 S
Zn0 N16 2.036 . S
Zn0 O28 2.053 . S
Zn0 O30 2.066 . S
O1 Zn0 2.055 1_554 S
O1 C4 1.259 . S
C2 O30 1.256 . S
C2 O31 1.244 1_556 S
Zn3 O5 2.046 . S
Zn3 O7 2.055 . S
Zn3 N9 2.036 . S
Zn3 O27 2.065 . S
Zn3 O31 2.053 . S
C4 O1 1.259 . S
C4 O5 1.254 . S
O5 Zn3 2.046 . S
O5 C4 1.254 . S
C6 O27 1.258 1_556 S
C6 O28 1.244 . S
O7 Zn3 2.055 . S
O7 C29 1.259 . S
O8 Zn0 2.046 1_554 S
O8 C29 1.254 . S
N9 Zn3 2.036 . S
N9 C10 1.298 . S
N9 N12 1.398 . S
C10 N9 1.298 . S
C10 N13 1.367 . S
C10 C23 1.481 . S
C11 N12 1.299 . S
C11 N13 1.379 . S
N12 N9 1.398 . S
N12 C11 1.299 . S
N13 C10 1.367 . S
N13 C11 1.379 . S
C14 N16 1.298 . S
C14 N18 1.367 . S
C14 C22 1.481 . S
C15 N17 1.299 . S
C15 N18 1.379 . S
N16 Zn0 2.036 . S
N16 C14 1.298 . S
N16 N17 1.398 . S
N17 C15 1.299 . S
N17 N16 1.398 . S
N18 C14 1.367 . S
N18 C15 1.379 . S
H19 C22 0.980 1_554 S
H20 C22 0.981 . S
H21 C22 0.981 . S
C22 C14 1.481 . S
C22 H19 0.980 1_556 S
C22 H20 0.981 . S
C22 H21 0.981 . S
C23 C10 1.481 . S
C23 H24 0.980 . S
C23 H25 0.981 . S
C23 H26 0.981 . S
H24 C23 0.980 . S
H25 C23 0.981 . S
H26 C23 0.981 . S
O27 Zn3 2.065 . S
O27 C6 1.258 1_554 S
O28 Zn0 2.053 . S
O28 C6 1.244 . S
C29 O7 1.259 . S
C29 O8 1.254 . S
O30 Zn0 2.066 . S
O30 C2 1.256 . S
O31 C2 1.244 1_554 S
O31 Zn3 2.053 . S
Zn32 O33 2.055 . S
Zn32 O40 2.046 . S
Zn32 N48 2.036 . S
Zn32 O60 2.053 . S
Zn32 O62 2.066 . S
O33 Zn32 2.055 . S
O33 C36 1.259 . S
C34 O62 1.256 . S
C34 O63 1.244 . S
Zn35 O37 2.046 . S
Zn35 O39 2.055 . S
Zn35 N41 2.036 . S
Zn35 O59 2.066 . S
Zn35 O63 2.053 . S
C36 O33 1.259 . S
C36 O37 1.254 . S
O37 Zn35 2.046 . S
O37 C36 1.254 . S
C38 O59 1.256 . S
C38 O60 1.244 . S
O39 Zn35 2.055 . S
O39 C61 1.259 . S
O40 Zn32 2.046 . S
O40 C61 1.254 . S
N41 Zn35 2.036 . S
N41 C42 1.298 . S
N41 N44 1.398 . S
C42 N41 1.298 . S
C42 N45 1.367 . S
C42 C55 1.481 . S
C43 N44 1.299 . S
C43 N45 1.379 . S
N44 N41 1.398 . S
N44 C43 1.299 . S
N45 C42 1.367 . S
N45 C43 1.379 . S
C46 N48 1.298 . S
C46 N50 1.367 . S
C46 C54 1.481 . S
C47 N49 1.299 . S
C47 N50 1.379 . S
N48 Zn32 2.036 . S
N48 C46 1.298 . S
N48 N49 1.398 . S
N49 C47 1.299 . S
N49 N48 1.398 . S
N50 C46 1.367 . S
N50 C47 1.379 . S
H51 C54 0.980 . S
H52 C54 0.981 . S
H53 C54 0.981 . S
C54 C46 1.481 . S
C54 H51 0.980 . S
C54 H52 0.981 . S
C54 H53 0.981 . S
C55 C42 1.481 . S
C55 H56 0.980 . S
C55 H57 0.981 . S
C55 H58 0.981 . S
H56 C55 0.980 . S
H57 C55 0.981 . S
H58 C55 0.981 . S
O59 Zn35 2.066 . S
O59 C38 1.256 . S
O60 Zn32 2.053 . S
O60 C38 1.244 . S
C61 O39 1.259 . S
C61 O40 1.254 . S
O62 Zn32 2.066 . S
O62 C34 1.256 . S
O63 C34 1.244 . S
O63 Zn35 2.053 . S
Zn64 O65 2.055 . S
Zn64 O72 2.046 . S
Zn64 N80 2.036 . S
Zn64 O92 2.053 . S
Zn64 O94 2.066 . S
O65 Zn64 2.055 . S
O65 C68 1.259 . S
C66 O94 1.256 . S
C66 O95 1.244 . S
Zn67 O69 2.046 . S
Zn67 O71 2.055 . S
Zn67 N73 2.036 . S
Zn67 O91 2.066 . S
Zn67 O95 2.053 . S
C68 O65 1.259 . S
C68 O69 1.254 . S
O69 Zn67 2.046 . S
O69 C68 1.254 . S
C70 O91 1.256 . S
C70 O92 1.244 . S
O71 Zn67 2.055 . S
O71 C93 1.259 . S
O72 Zn64 2.046 . S
O72 C93 1.254 . S
N73 Zn67 2.036 . S
N73 C74 1.298 . S
N73 N76 1.398 . S
C74 N73 1.298 . S
C74 N77 1.367 . S
C74 C87 1.481 . S
C75 N76 1.299 . S
C75 N77 1.379 . S
N76 N73 1.398 . S
N76 C75 1.299 . S
N77 C74 1.367 . S
N77 C75 1.379 . S
C78 N80 1.298 . S
C78 N82 1.367 . S
C78 C86 1.481 . S
C79 N81 1.299 . S
C79 N82 1.379 . S
N80 Zn64 2.036 . S
N80 C78 1.298 . S
N80 N81 1.398 . S
N81 C79 1.299 . S
N81 N80 1.398 . S
N82 C78 1.367 . S
N82 C79 1.379 . S
H83 C86 0.980 . S
H84 C86 0.981 . S
H85 C86 0.981 . S
C86 C78 1.481 . S
C86 H83 0.980 . S
C86 H84 0.981 . S
C86 H85 0.981 . S
C87 C74 1.481 . S
C87 H88 0.980 . S
C87 H89 0.981 . S
C87 H90 0.981 . S
H88 C87 0.980 . S
H89 C87 0.981 . S
H90 C87 0.981 . S
O91 Zn67 2.066 . S
O91 C70 1.256 . S
O92 Zn64 2.053 . S
O92 C70 1.244 . S
C93 O71 1.259 . S
C93 O72 1.254 . S
O94 Zn64 2.066 . S
O94 C66 1.256 . S
O95 C66 1.244 . S
O95 Zn67 2.053 . S
Zn96 O97 2.055 . S
Zn96 O104 2.046 . S
Zn96 N112 2.036 . S
Zn96 O124 2.053 . S
Zn96 O126 2.066 . S
O97 Zn96 2.055 . S
O97 C100 1.259 . S
C98 O126 1.256 . S
C98 O127 1.244 . S
Zn99 O101 2.046 . S
Zn99 O103 2.055 . S
Zn99 N105 2.036 . S
Zn99 O123 2.066 . S
Zn99 O127 2.053 . S
C100 O97 1.259 . S
C100 O101 1.254 . S
O101 Zn99 2.046 . S
O101 C100 1.254 . S
C102 O123 1.256 . S
C102 O124 1.244 . S
O103 Zn99 2.055 . S
O103 C125 1.259 . S
O104 Zn96 2.046 . S
O104 C125 1.254 . S
N105 Zn99 2.036 . S
N105 C106 1.298 . S
N105 N108 1.398 . S
C106 N105 1.298 . S
C106 N109 1.367 . S
C106 C119 1.481 . S
C107 N108 1.299 . S
C107 N109 1.379 . S
N108 N105 1.398 . S
N108 C107 1.299 . S
N109 C106 1.367 . S
N109 C107 1.379 . S
C110 N112 1.298 . S
C110 N114 1.367 . S
C110 C118 1.481 . S
C111 N113 1.299 . S
C111 N114 1.379 . S
N112 Zn96 2.036 . S
N112 C110 1.298 . S
N112 N113 1.398 . S
N113 C111 1.299 . S
N113 N112 1.398 . S
N114 C110 1.367 . S
N114 C111 1.379 . S
H115 C118 0.980 . S
H116 C118 0.981 . S
H117 C118 0.981 . S
C118 C110 1.481 . S
C118 H115 0.980 . S
C118 H116 0.981 . S
C118 H117 0.981 . S
C119 C106 1.481 . S
C119 H120 0.980 . S
C119 H121 0.981 . S
C119 H122 0.981 . S
H120 C119 0.980 . S
H121 C119 0.981 . S
H122 C119 0.981 . S
O123 Zn99 2.066 . S
O123 C102 1.256 . S
O124 Zn96 2.053 . S
O124 C102 1.244 . S
C125 O103 1.259 . S
C125 O104 1.254 . S
O126 Zn96 2.066 . S
O126 C98 1.256 . S
O127 C98 1.244 . S
O127 Zn99 2.053 . S
Zn128 O129 2.055 . S
Zn128 O136 2.046 . S
Zn128 N144 2.036 . S
Zn128 O156 2.053 . S
Zn128 O158 2.066 . S
O129 Zn128 2.055 . S
O129 C132 1.259 . S
C130 O158 1.256 . S
C130 O159 1.244 . S
Zn131 O133 2.046 . S
Zn131 O135 2.055 . S
Zn131 N137 2.036 . S
Zn131 O155 2.066 . S
Zn131 O159 2.053 . S
C132 O129 1.259 . S
C132 O133 1.254 . S
O133 Zn131 2.046 . S
O133 C132 1.254 . S
C134 O155 1.256 . S
C134 O156 1.244 . S
O135 Zn131 2.055 . S
O135 C157 1.259 . S
O136 Zn128 2.046 . S
O136 C157 1.254 . S
N137 Zn131 2.036 . S
N137 C138 1.298 . S
N137 N140 1.398 . S
C138 N137 1.298 . S
C138 N141 1.367 . S
C138 C151 1.481 . S
C139 N140 1.299 . S
C139 N141 1.379 . S
N140 N137 1.398 . S
N140 C139 1.299 . S
N141 C138 1.367 . S
N141 C139 1.379 . S
C142 N144 1.298 . S
C142 N146 1.367 . S
C142 C150 1.481 . S
C143 N145 1.299 . S
C143 N146 1.379 . S
N144 Zn128 2.036 . S
N144 C142 1.298 . S
N144 N145 1.398 . S
N145 C143 1.299 . S
N145 N144 1.398 . S
N146 C142 1.367 . S
N146 C143 1.379 . S
H147 C150 0.980 . S
H148 C150 0.981 . S
H149 C150 0.981 . S
C150 C142 1.481 . S
C150 H147 0.980 . S
C150 H148 0.981 . S
C150 H149 0.981 . S
C151 C138 1.481 . S
C151 H152 0.980 . S
C151 H153 0.981 . S
C151 H154 0.981 . S
H152 C151 0.980 . S
H153 C151 0.981 . S
H154 C151 0.981 . S
O155 Zn131 2.066 . S
O155 C134 1.256 . S
O156 Zn128 2.053 . S
O156 C134 1.244 . S
C157 O135 1.259 . S
C157 O136 1.254 . S
O158 Zn128 2.066 . S
O158 C130 1.256 . S
O159 C130 1.244 . S
O159 Zn131 2.053 . S
Zn160 O161 2.055 . S
Zn160 O168 2.046 . S
Zn160 N176 2.036 . S
Zn160 O188 2.053 . S
Zn160 O190 2.066 . S
O161 Zn160 2.055 . S
O161 C164 1.259 . S
C162 O190 1.256 . S
C162 O191 1.244 . S
Zn163 O165 2.046 . S
Zn163 O167 2.055 . S
Zn163 N169 2.036 . S
Zn163 O187 2.066 . S
Zn163 O191 2.053 . S
C164 O161 1.259 . S
C164 O165 1.254 . S
O165 Zn163 2.046 . S
O165 C164 1.254 . S
C166 O187 1.256 . S
C166 O188 1.244 . S
O167 Zn163 2.055 . S
O167 C189 1.259 . S
O168 Zn160 2.046 . S
O168 C189 1.254 . S
N169 Zn163 2.036 . S
N169 C170 1.298 . S
N169 N172 1.398 . S
C170 N169 1.298 . S
C170 N173 1.367 . S
C170 C183 1.481 . S
C171 N172 1.299 . S
C171 N173 1.379 . S
N172 N169 1.398 . S
N172 C171 1.299 . S
N173 C170 1.367 . S
N173 C171 1.379 . S
C174 N176 1.298 . S
C174 N178 1.367 . S
C174 C182 1.481 . S
C175 N177 1.299 . S
C175 N178 1.379 . S
N176 Zn160 2.036 . S
N176 C174 1.298 . S
N176 N177 1.398 . S
N177 C175 1.299 . S
N177 N176 1.398 . S
N178 C174 1.367 . S
N178 C175 1.379 . S
H179 C182 0.980 . S
H180 C182 0.981 . S
H181 C182 0.981 . S
C182 C174 1.481 . S
C182 H179 0.980 . S
C182 H180 0.981 . S
C182 H181 0.981 . S
C183 C170 1.481 . S
C183 H184 0.980 . S
C183 H185 0.981 . S
C183 H186 0.981 . S
H184 C183 0.980 . S
H185 C183 0.981 . S
H186 C183 0.981 . S
O187 Zn163 2.066 . S
O187 C166 1.256 . S
O188 Zn160 2.053 . S
O188 C166 1.244 . S
C189 O167 1.259 . S
C189 O168 1.254 . S
O190 Zn160 2.066 . S
O190 C162 1.256 . S
O191 C162 1.244 . S
O191 Zn163 2.053 . S
C192 C193 1.349 1_554 S
C192 C194 1.327 . S
C192 H217 0.950 . S
C193 C192 1.349 1_556 S
C193 C209 1.349 . S
C194 C192 1.327 . S
C194 C213 1.448 1_554 S
C194 H218 0.950 . S
C195 C212 1.574 . S
C195 C214 1.368 . S
C195 H219 0.949 . S
H196 C200 0.949 1_554 S
C197 C198 1.349 . S
C197 C199 1.327 . S
C197 H220 0.950 . S
C198 C197 1.349 . S
C198 C210 1.349 . S
C199 C197 1.327 . S
C199 C215 1.429 . S
C199 H221 0.950 . S
C200 H196 0.949 1_556 S
C200 C208 1.574 1_556 S
C200 C216 1.368 . S
H201 C209 0.950 . S
H202 C207 0.950 . S
H203 C208 0.949 . S
H204 C210 0.950 1_554 S
H205 C211 0.950 1_554 S
H206 C212 0.949 . S
C207 H202 0.950 . S
C207 C209 1.327 . S
C207 C213 1.433 . S
C208 C200 1.574 1_554 S
C208 H203 0.949 . S
C208 C214 1.368 1_554 S
C209 C193 1.349 . S
C209 H201 0.950 . S
C209 C207 1.327 . S
C210 C198 1.349 . S
C210 H204 0.950 1_556 S
C210 C211 1.327 . S
C211 H205 0.950 1_556 S
C211 C210 1.327 . S
C211 C215 1.429 . S
C212 C195 1.574 . S
C212 H206 0.949 . S
C212 C216 1.368 . S
C213 C194 1.448 1_556 S
C213 C207 1.433 . S
C213 C214 1.501 1_545 S
C214 C195 1.368 . S
C214 C208 1.368 1_556 S
C214 C213 1.501 1_565 S
C215 C199 1.429 . S
C215 C211 1.429 . S
C215 C216 1.523 . S
C216 C200 1.368 . S
C216 C212 1.368 . S
C216 C215 1.523 . S
H217 C192 0.950 . S
H218 C194 0.950 . S
H219 C195 0.949 . S
H220 C197 0.950 . S
H221 C199 0.950 . S
C222 C223 1.349 . S
C222 C224 1.327 . S
C222 H247 0.950 . S
C223 C222 1.349 . S
C223 C239 1.349 . S
C224 C222 1.327 . S
C224 C243 1.429 . S
C224 H248 0.950 . S
C225 C242 1.574 . S
C225 C244 1.368 . S
C225 H249 0.949 . S
H226 C230 0.949 . S
C227 C228 1.349 . S
C227 C229 1.327 . S
C227 H250 0.950 . S
C228 C227 1.349 . S
C228 C240 1.349 . S
C229 C227 1.327 . S
C229 C245 1.429 . S
C229 H251 0.950 . S
C230 H226 0.949 . S
C230 C238 1.574 . S
C230 C246 1.368 . S
H231 C239 0.950 . S
H232 C237 0.950 . S
H233 C238 0.949 . S
H234 C240 0.950 . S
H235 C241 0.950 . S
H236 C242 0.949 . S
C237 H232 0.950 . S
C237 C239 1.327 . S
C237 C243 1.429 . S
C238 C230 1.574 . S
C238 H233 0.949 . S
C238 C244 1.368 . S
C239 C223 1.349 . S
C239 H231 0.950 . S
C239 C237 1.327 . S
C240 C228 1.349 . S
C240 H234 0.950 . S
C240 C241 1.327 . S
C241 H235 0.950 . S
C241 C240 1.327 . S
C241 C245 1.429 . S
C242 C225 1.574 . S
C242 H236 0.949 . S
C242 C246 1.368 . S
C243 C224 1.429 . S
C243 C237 1.429 . S
C243 C244 1.523 . S
C244 C225 1.368 . S
C244 C238 1.368 . S
C244 C243 1.523 . S
C245 C229 1.429 . S
C245 C241 1.429 . S
C245 C246 1.523 . S
C246 C230 1.368 . S
C246 C242 1.368 . S
C246 C245 1.523 . S
H247 C222 0.950 . S
H248 C224 0.950 . S
H249 C225 0.949 . S
H250 C227 0.950 . S
H251 C229 0.950 . S
C252 C253 1.349 . S
C252 C254 1.327 . S
C252 H277 0.950 . S
C253 C252 1.349 . S
C253 C269 1.349 . S
C254 C252 1.327 . S
C254 C273 1.452 . S
C254 H278 0.950 . S
C255 C272 1.574 . S
C255 C274 1.368 . S
C255 H279 0.949 . S
H256 C260 0.949 . S
C257 C258 1.349 . S
C257 C259 1.327 . S
C257 H280 0.950 . S
C258 C257 1.349 . S
C258 C270 1.349 . S
C259 C257 1.327 . S
C259 C275 1.429 . S
C259 H281 0.950 . S
C260 H256 0.949 . S
C260 C268 1.574 . S
C260 C276 1.368 . S
H261 C269 0.950 . S
H262 C267 0.950 . S
H263 C268 0.949 . S
H264 C270 0.950 . S
H265 C271 0.950 . S
H266 C272 0.949 . S
C267 H262 0.950 . S
C267 C269 1.327 . S
C267 C273 1.436 . S
C268 C260 1.574 . S
C268 H263 0.949 . S
C268 C274 1.368 . S
C269 C253 1.349 . S
C269 H261 0.950 . S
C269 C267 1.327 . S
C270 C258 1.349 . S
C270 H264 0.950 . S
C270 C271 1.327 . S
C271 H265 0.950 . S
C271 C270 1.327 . S
C271 C275 1.429 . S
C272 C255 1.574 . S
C272 H266 0.949 . S
C272 C276 1.368 . S
C273 C254 1.452 . S
C273 C267 1.436 . S
C273 C274 1.495 1_655 S
C274 C255 1.368 . S
C274 C268 1.368 . S
C274 C273 1.495 1_455 S
C275 C259 1.429 . S
C275 C271 1.429 . S
C275 C276 1.523 . S
C276 C260 1.368 . S
C276 C272 1.368 . S
C276 C275 1.523 . S
H277 C252 0.950 . S
H278 C254 0.950 . S
H279 C255 0.949 . S
H280 C257 0.950 . S
H281 C259 0.950 . S
C282 C283 1.349 . S
C282 C284 1.327 . S
C282 H307 0.950 . S
C283 C282 1.349 . S
C283 C299 1.349 . S
C284 C282 1.327 . S
C284 C303 1.429 . S
C284 H308 0.950 . S
C285 C302 1.574 . S
C285 C304 1.368 . S
C285 H309 0.949 . S
H286 C290 0.949 . S
C287 C288 1.349 . S
C287 C289 1.327 . S
C287 H310 0.950 . S
C288 C287 1.349 . S
C288 C300 1.349 . S
C289 C287 1.327 . S
C289 C305 1.430 . S
C289 H311 0.950 1_565 S
C290 H286 0.949 . S
C290 C298 1.574 . S
C290 C306 1.368 . S
H291 C299 0.950 . S
H292 C297 0.950 . S
H293 C298 0.949 . S
H294 C300 0.950 . S
H295 C301 0.950 . S
H296 C302 0.949 . S
C297 H292 0.950 . S
C297 C299 1.327 . S
C297 C303 1.429 . S
C298 C290 1.574 . S
C298 H293 0.949 . S
C298 C304 1.368 . S
C299 C283 1.349 . S
C299 H291 0.950 . S
C299 C297 1.327 . S
C300 C288 1.349 . S
C300 H294 0.950 . S
C300 C301 1.327 . S
C301 H295 0.950 . S
C301 C300 1.327 . S
C301 C305 1.452 . S
C302 C285 1.574 . S
C302 H296 0.949 . S
C302 C306 1.368 . S
C303 C284 1.429 . S
C303 C297 1.429 . S
C303 C304 1.523 . S
C304 C285 1.368 . S
C304 C298 1.368 . S
C304 C303 1.523 . S
C305 C289 1.430 . S
C305 C301 1.452 . S
C305 C306 1.501 1_565 S
C306 C290 1.368 . S
C306 C302 1.368 . S
C306 C305 1.501 1_545 S
H307 C282 0.950 . S
H308 C284 0.950 . S
H309 C285 0.949 . S
H310 C287 0.950 . S
H311 C289 0.950 1_545 S
C312 C313 1.349 . S
C312 C314 1.327 . S
C312 H337 0.950 . S
C313 C312 1.349 . S
C313 C329 1.349 . S
C314 C312 1.327 . S
C314 C333 1.429 . S
C314 H338 0.950 . S
C315 C332 1.574 . S
C315 C334 1.368 . S
C315 H339 0.949 . S
H316 C320 0.949 . S
C317 C318 1.349 . S
C317 C319 1.327 . S
C317 H340 0.950 . S
C318 C317 1.349 . S
C318 C330 1.349 . S
C319 C317 1.327 . S
C319 C335 1.429 . S
C319 H341 0.950 . S
C320 H316 0.949 . S
C320 C328 1.574 . S
C320 C336 1.368 . S
H321 C329 0.950 . S
H322 C327 0.950 . S
H323 C328 0.949 . S
H324 C330 0.950 . S
H325 C331 0.950 . S
H326 C332 0.949 . S
C327 H322 0.950 . S
C327 C329 1.327 . S
C327 C333 1.429 . S
C328 C320 1.574 . S
C328 H323 0.949 . S
C328 C334 1.368 . S
C329 C313 1.349 . S
C329 H321 0.950 . S
C329 C327 1.327 . S
C330 C318 1.349 . S
C330 H324 0.950 . S
C330 C331 1.327 . S
C331 H325 0.950 . S
C331 C330 1.327 . S
C331 C335 1.429 . S
C332 C315 1.574 . S
C332 H326 0.949 . S
C332 C336 1.368 . S
C333 C314 1.429 . S
C333 C327 1.429 . S
C333 C334 1.523 . S
C334 C315 1.368 . S
C334 C328 1.368 . S
C334 C333 1.523 . S
C335 C319 1.429 . S
C335 C331 1.429 . S
C335 C336 1.523 . S
C336 C320 1.368 . S
C336 C332 1.368 . S
C336 C335 1.523 . S
H337 C312 0.950 . S
H338 C314 0.950 . S
H339 C315 0.949 . S
H340 C317 0.950 . S
H341 C319 0.950 . S
C342 C343 1.349 . S
C342 C344 1.327 . S
C342 H367 0.950 . S
C343 C342 1.349 . S
C343 C359 1.349 . S
C344 C342 1.327 . S
C344 C363 1.441 . S
C344 H368 0.950 . S
C345 C362 1.574 . S
C345 C364 1.368 . S
C345 H369 0.949 . S
H346 C350 0.949 . S
C347 C348 1.349 . S
C347 C349 1.327 . S
C347 H370 0.950 . S
C348 C347 1.349 . S
C348 C360 1.349 . S
C349 C347 1.327 . S
C349 C365 1.429 . S
C349 H371 0.950 . S
C350 H346 0.949 . S
C350 C358 1.574 . S
C350 C366 1.368 . S
H351 C359 0.950 . S
H352 C357 0.950 . S
H353 C358 0.949 . S
H354 C360 0.950 . S
H355 C361 0.950 . S
H356 C362 0.949 . S
C357 H352 0.950 . S
C357 C359 1.327 . S
C357 C363 1.447 . S
C358 C350 1.574 . S
C358 H353 0.949 . S
C358 C364 1.368 . S
C359 C343 1.349 . S
C359 H351 0.950 . S
C359 C357 1.327 . S
C360 C348 1.349 . S
C360 H354 0.950 . S
C360 C361 1.327 . S
C361 H355 0.950 . S
C361 C360 1.327 . S
C361 C365 1.429 . S
C362 C345 1.574 . S
C362 H356 0.949 . S
C362 C366 1.368 . S
C363 C344 1.441 . S
C363 C357 1.447 . S
C363 C364 1.495 1_455 S
C364 C345 1.368 . S
C364 C358 1.368 . S
C364 C363 1.495 1_655 S
C365 C349 1.429 . S
C365 C361 1.429 . S
C365 C366 1.523 . S
C366 C350 1.368 . S
C366 C362 1.368 . S
C366 C365 1.523 . S
H367 C342 0.950 . S
H368 C344 0.950 . S
H369 C345 0.949 . S
H370 C347 0.950 . S
H371 C349 0.950 . S
C372 C373 1.349 . S
C372 C374 1.327 . S
C372 H397 0.950 . S
C373 C372 1.349 . S
C373 C389 1.349 . S
C374 C372 1.327 . S
C374 C393 1.429 . S
C374 H398 0.950 . S
C375 C392 1.574 . S
C375 C394 1.368 . S
C375 H399 0.949 . S
H376 C380 0.949 . S
C377 C378 1.349 . S
C377 C379 1.327 . S
C377 H400 0.950 . S
C378 C377 1.349 . S
C378 C390 1.349 . S
C379 C377 1.327 . S
C379 C395 1.429 . S
C379 H401 0.950 . S
C380 H376 0.949 . S
C380 C388 1.574 1_565 S
C380 C396 1.368 . S
H381 C389 0.950 . S
H382 C387 0.950 . S
H383 C388 0.949 . S
H384 C390 0.950 . S
H385 C391 0.950 . S
H386 C392 0.949 . S
C387 H382 0.950 . S
C387 C389 1.327 . S
C387 C393 1.429 . S
C388 C380 1.574 1_545 S
C388 H383 0.949 . S
C388 C394 1.368 . S
C389 C373 1.349 . S
C389 H381 0.950 . S
C389 C387 1.327 . S
C390 C378 1.349 . S
C390 H384 0.950 . S
C390 C391 1.327 . S
C391 H385 0.950 . S
C391 C390 1.327 . S
C391 C395 1.429 . S
C392 C375 1.574 . S
C392 H386 0.949 . S
C392 C396 1.368 1_545 S
C393 C374 1.429 . S
C393 C387 1.429 . S
C393 C394 1.523 . S
C394 C375 1.368 . S
C394 C388 1.368 . S
C394 C393 1.523 . S
C395 C379 1.429 . S
C395 C391 1.429 . S
C395 C396 1.523 . S
C396 C380 1.368 . S
C396 C392 1.368 1_565 S
C396 C395 1.523 . S
H397 C372 0.950 . S
H398 C374 0.950 . S
H399 C375 0.949 . S
H400 C377 0.950 . S
H401 C379 0.950 . S
C402 C403 1.349 . S
C402 C404 1.327 . S
C402 H427 0.950 . S
C403 C402 1.349 . S
C403 C419 1.349 . S
C404 C402 1.327 . S
C404 C423 1.429 . S
C404 H428 0.950 . S
C405 C422 1.574 . S
C405 C424 1.368 . S
C405 H429 0.949 . S
H406 C410 0.949 . S
C407 C408 1.349 . S
C407 C409 1.327 . S
C407 H430 0.950 . S
C408 C407 1.349 . S
C408 C420 1.349 . S
C409 C407 1.327 . S
C409 C425 1.429 . S
C409 H431 0.950 . S
C410 H406 0.949 . S
C410 C418 1.574 . S
C410 C426 1.368 . S
H411 C419 0.950 . S
H412 C417 0.950 . S
H413 C418 0.949 . S
H414 C420 0.950 . S
H415 C421 0.950 . S
H416 C422 0.949 . S
C417 H412 0.950 . S
C417 C419 1.327 . S
C417 C423 1.429 . S
C418 C410 1.574 . S
C418 H413 0.949 . S
C418 C424 1.368 . S
C419 C403 1.349 . S
C419 H411 0.950 . S
C419 C417 1.327 . S
C420 C408 1.349 . S
C420 H414 0.950 . S
C420 C421 1.327 . S
C421 H415 0.950 . S
C421 C420 1.327 . S
C421 C425 1.429 . S
C422 C405 1.574 . S
C422 H416 0.949 . S
C422 C426 1.368 . S
C423 C404 1.429 . S
C423 C417 1.429 . S
C423 C424 1.523 . S
C424 C405 1.368 . S
C424 C418 1.368 . S
C424 C423 1.523 . S
C425 C409 1.429 . S
C425 C421 1.429 . S
C425 C426 1.523 . S
C426 C410 1.368 . S
C426 C422 1.368 . S
C426 C425 1.523 . S
H427 C402 0.950 . S
H428 C404 0.950 . S
H429 C405 0.949 . S
H430 C407 0.950 . S
H431 C409 0.950 . S
C432 C433 1.349 . S
C432 C434 1.327 . S
C432 H457 0.950 . S
C433 C432 1.349 . S
C433 C449 1.349 . S
C434 C432 1.327 . S
C434 C453 1.429 . S
C434 H458 0.950 . S
C435 C452 1.574 . S
C435 C454 1.368 1_655 S
C435 H459 0.949 . S
H436 C440 0.949 . S
C437 C438 1.349 . S
C437 C439 1.327 . S
C437 H460 0.950 . S
C438 C437 1.349 . S
C438 C450 1.349 . S
C439 C437 1.327 . S
C439 C455 1.429 . S
C439 H461 0.950 . S
C440 H436 0.949 . S
C440 C448 1.574 1_655 S
C440 C456 1.368 . S
H441 C449 0.950 . S
H442 C447 0.950 . S
H443 C448 0.949 . S
H444 C450 0.950 . S
H445 C451 0.950 . S
H446 C452 0.949 . S
C447 H442 0.950 . S
C447 C449 1.327 . S
C447 C453 1.429 . S
C448 C440 1.574 1_455 S
C448 H443 0.949 . S
C448 C454 1.368 . S
C449 C433 1.349 . S
C449 H441 0.950 . S
C449 C447 1.327 . S
C450 C438 1.349 . S
C450 H444 0.950 . S
C450 C451 1.327 . S
C451 H445 0.950 . S
C451 C450 1.327 . S
C451 C455 1.429 . S
C452 C435 1.574 . S
C452 H446 0.949 . S
C452 C456 1.368 . S
C453 C434 1.429 . S
C453 C447 1.429 . S
C453 C454 1.523 . S
C454 C435 1.368 1_455 S
C454 C448 1.368 . S
C454 C453 1.523 . S
C455 C439 1.429 . S
C455 C451 1.429 . S
C455 C456 1.523 . S
C456 C440 1.368 . S
C456 C452 1.368 . S
C456 C455 1.523 . S
H457 C432 0.950 . S
H458 C434 0.950 . S
H459 C435 0.949 . S
H460 C437 0.950 . S
H461 C439 0.950 . S
C462 C463 1.349 . S
C462 C464 1.327 . S
C462 H487 0.950 . S
C463 C462 1.349 . S
C463 C479 1.349 . S
C464 C462 1.327 . S
C464 C483 1.429 . S
C464 H488 0.950 . S
C465 C482 1.574 . S
C465 C484 1.368 . S
C465 H489 0.949 . S
H466 C470 0.949 . S
C467 C468 1.349 . S
C467 C469 1.327 . S
C467 H490 0.950 . S
C468 C467 1.349 . S
C468 C480 1.349 . S
C469 C467 1.327 . S
C469 C485 1.429 . S
C469 H491 0.950 1_545 S
C470 H466 0.949 . S
C470 C478 1.592 . S
C470 C486 1.368 . S
H471 C479 0.950 . S
H472 C477 0.950 . S
H473 C478 0.961 . S
H474 C480 0.950 . S
H475 C481 0.950 . S
H476 C482 0.949 . S
C477 H472 0.950 . S
C477 C479 1.327 . S
C477 C483 1.429 . S
C478 C470 1.592 . S
C478 H473 0.961 . S
C478 C484 1.338 1_545 S
C479 C463 1.349 . S
C479 H471 0.950 . S
C479 C477 1.327 . S
C480 C468 1.349 . S
C480 H474 0.950 . S
C480 C481 1.327 . S
C481 H475 0.950 . S
C481 C480 1.327 . S
C481 C485 1.429 . S
C482 C465 1.574 . S
C482 H476 0.949 . S
C482 C486 1.368 1_565 S
C483 C464 1.429 . S
C483 C477 1.429 . S
C483 C484 1.523 . S
C484 C465 1.368 . S
C484 C478 1.338 1_565 S
C484 C483 1.523 . S
C485 C469 1.429 . S
C485 C481 1.429 . S
C485 C486 1.523 . S
C486 C470 1.368 . S
C486 C482 1.368 1_545 S
C486 C485 1.523 . S
H487 C462 0.950 . S
H488 C464 0.950 . S
H489 C465 0.949 . S
H490 C467 0.950 . S
H491 C469 0.950 1_565 S
C492 C493 1.349 . S
C492 C494 1.327 1_554 S
C492 H517 0.950 . S
C493 C492 1.349 . S
C493 C509 1.349 . S
C494 C492 1.327 1_556 S
C494 C513 1.429 . S
C494 H518 0.950 . S
C495 C512 1.574 . S
C495 C514 1.368 . S
C495 H519 0.949 . S
H496 C500 0.949 . S
C497 C498 1.349 . S
C497 C499 1.327 . S
C497 H520 0.950 . S
C498 C497 1.349 . S
C498 C510 1.349 . S
C499 C497 1.327 . S
C499 C515 1.429 . S
C499 H521 0.950 . S
C500 H496 0.949 . S
C500 C508 1.574 . S
C500 C516 1.368 . S
H501 C509 0.950 . S
H502 C507 0.950 . S
H503 C508 0.949 . S
H504 C510 0.950 . S
H505 C511 0.950 . S
H506 C512 0.949 . S
C507 H502 0.950 . S
C507 C509 1.327 . S
C507 C513 1.429 1_554 S
C508 C500 1.574 . S
C508 H503 0.949 . S
C508 C514 1.368 . S
C509 C493 1.349 . S
C509 H501 0.950 . S
C509 C507 1.327 . S
C510 C498 1.349 . S
C510 H504 0.950 . S
C510 C511 1.327 . S
C511 H505 0.950 . S
C511 C510 1.327 . S
C511 C515 1.429 . S
C512 C495 1.574 . S
C512 H506 0.949 . S
C512 C516 1.368 . S
C513 C494 1.429 . S
C513 C507 1.429 1_556 S
C513 C514 1.523 . S
C514 C495 1.368 . S
C514 C508 1.368 . S
C514 C513 1.523 . S
C515 C499 1.429 . S
C515 C511 1.429 . S
C515 C516 1.523 . S
C516 C500 1.368 . S
C516 C512 1.368 . S
C516 C515 1.523 . S
H517 C492 0.950 . S
H518 C494 0.950 . S
H519 C495 0.949 . S
H520 C497 0.950 . S
H521 C499 0.950 . S
C522 C523 1.349 . S
C522 C524 1.327 1_556 S
C522 H547 0.950 . S
C523 C522 1.349 . S
C523 C539 1.349 . S
C524 C522 1.327 1_554 S
C524 C543 1.429 . S
C524 H548 0.950 . S
C525 C542 1.574 . S
C525 C544 1.368 1_655 S
C525 H549 0.949 . S
H526 C530 0.949 . S
C527 C528 1.349 . S
C527 C529 1.327 . S
C527 H550 0.950 . S
C528 C527 1.349 . S
C528 C540 1.349 . S
C529 C527 1.327 . S
C529 C545 1.429 . S
C529 H551 0.950 . S
C530 H526 0.949 . S
C530 C538 1.574 . S
C530 C546 1.368 1_455 S
H531 C539 0.950 . S
H532 C537 0.950 . S
H533 C538 0.949 . S
H534 C540 0.950 . S
H535 C541 0.950 1_455 S
H536 C542 0.949 . S
C537 H532 0.950 . S
C537 C539 1.327 . S
C537 C543 1.429 1_556 S
C538 C530 1.574 . S
C538 H533 0.949 . S
C538 C544 1.368 . S
C539 C523 1.349 . S
C539 H531 0.950 . S
C539 C537 1.327 . S
C540 C528 1.349 . S
C540 H534 0.950 . S
C540 C541 1.327 . S
C541 H535 0.950 1_655 S
C541 C540 1.327 . S
C541 C545 1.429 . S
C542 C525 1.574 . S
C542 H536 0.949 . S
C542 C546 1.368 . S
C543 C524 1.429 . S
C543 C537 1.429 1_554 S
C543 C544 1.523 . S
C544 C525 1.368 1_455 S
C544 C538 1.368 . S
C544 C543 1.523 . S
C545 C529 1.429 . S
C545 C541 1.429 . S
C545 C546 1.523 . S
C546 C530 1.368 1_655 S
C546 C542 1.368 . S
C546 C545 1.523 . S
H547 C522 0.950 . S
H548 C524 0.950 . S
H549 C525 0.949 . S
H550 C527 0.950 . S
H551 C529 0.950 . S
C552 C553 1.349 . S
C552 C554 1.327 . S
C552 H577 0.950 . S
C553 C552 1.349 . S
C553 C569 1.349 . S
C554 C552 1.327 . S
C554 C573 1.429 . S
C554 H578 0.950 . S
C555 C572 1.574 . S
C555 C574 1.368 . S
C555 H579 0.949 . S
H556 C560 0.949 . S
C557 C558 1.349 . S
C557 C559 1.327 . S
C557 H580 0.950 . S
C558 C557 1.349 . S
C558 C570 1.349 . S
C559 C557 1.327 . S
C559 C575 1.429 . S
C559 H581 0.950 . S
C560 H556 0.949 . S
C560 C568 1.574 . S
C560 C576 1.368 . S
H561 C569 0.950 . S
H562 C567 0.950 . S
H563 C568 0.949 . S
H564 C570 0.950 . S
H565 C571 0.950 . S
H566 C572 0.949 . S
C567 H562 0.950 . S
C567 C569 1.327 . S
C567 C573 1.429 . S
C568 C560 1.574 . S
C568 H563 0.949 . S
C568 C574 1.368 . S
C569 C553 1.349 . S
C569 H561 0.950 . S
C569 C567 1.327 . S
C570 C558 1.349 . S
C570 H564 0.950 . S
C570 C571 1.327 . S
C571 H565 0.950 . S
C571 C570 1.327 . S
C571 C575 1.429 . S
C572 C555 1.574 . S
C572 H566 0.949 . S
C572 C576 1.368 . S
C573 C554 1.429 . S
C573 C567 1.429 . S
C573 C574 1.523 . S
C574 C555 1.368 . S
C574 C568 1.368 . S
C574 C573 1.523 . S
C575 C559 1.429 . S
C575 C571 1.429 . S
C575 C576 1.523 . S
C576 C560 1.368 . S
C576 C572 1.368 . S
C576 C575 1.523 . S
H577 C552 0.950 . S
H578 C554 0.950 . S
H579 C555 0.949 . S
H580 C557 0.950 . S
H581 C559 0.950 . S
C582 C583 1.349 . S
C582 C584 1.327 . S
C582 H607 0.950 . S
C583 C582 1.349 . S
C583 C599 1.349 . S
C584 C582 1.327 . S
C584 C603 1.429 . S
C584 H608 0.950 . S
C585 C602 1.574 . S
C585 C604 1.368 . S
C585 H609 0.949 . S
H586 C590 0.949 . S
C587 C588 1.349 . S
C587 C589 1.327 . S
C587 H610 0.950 . S
C588 C587 1.349 . S
C588 C600 1.349 . S
C589 C587 1.327 . S
C589 C605 1.429 . S
C589 H611 0.950 . S
C590 H586 0.949 . S
C590 C598 1.574 . S
C590 C606 1.368 . S
H591 C599 0.950 . S
H592 C597 0.950 . S
H593 C598 0.949 . S
H594 C600 0.950 . S
H595 C601 0.950 . S
H596 C602 0.949 . S
C597 H592 0.950 . S
C597 C599 1.327 . S
C597 C603 1.429 . S
C598 C590 1.574 . S
C598 H593 0.949 . S
C598 C604 1.368 1_554 S
C599 C583 1.349 . S
C599 H591 0.950 . S
C599 C597 1.327 . S
C600 C588 1.349 . S
C600 H594 0.950 . S
C600 C601 1.327 . S
C601 H595 0.950 . S
C601 C600 1.327 . S
C601 C605 1.429 . S
C602 C585 1.574 . S
C602 H596 0.949 . S
C602 C606 1.368 1_556 S
C603 C584 1.429 . S
C603 C597 1.429 . S
C603 C604 1.523 . S
C604 C585 1.368 . S
C604 C598 1.368 1_556 S
C604 C603 1.523 . S
C605 C589 1.429 . S
C605 C601 1.429 . S
C605 C606 1.523 . S
C606 C590 1.368 . S
C606 C602 1.368 1_554 S
C606 C605 1.523 . S
H607 C582 0.950 . S
H608 C584 0.950 . S
H609 C585 0.949 . S
H610 C587 0.950 . S
H611 C589 0.950 . S
C612 C613 1.349 . S
C612 C614 1.327 . S
C612 H637 0.950 . S
C613 C612 1.349 . S
C613 C629 1.349 . S
C614 C612 1.327 . S
C614 C633 1.429 . S
C614 H638 0.950 . S
C615 C632 1.574 . S
C615 C634 1.368 . S
C615 H639 0.949 . S
H616 C620 0.949 . S
C617 C618 1.349 . S
C617 C619 1.327 . S
C617 H640 0.950 . S
C618 C617 1.349 . S
C618 C630 1.349 . S
C619 C617 1.327 . S
C619 C635 1.429 . S
C619 H641 0.950 . S
C620 H616 0.949 . S
C620 C628 1.574 . S
C620 C636 1.368 . S
H621 C629 0.950 . S
H622 C627 0.950 . S
H623 C628 0.949 . S
H624 C630 0.950 . S
H625 C631 0.950 . S
H626 C632 0.949 . S
C627 H622 0.950 . S
C627 C629 1.327 . S
C627 C633 1.429 . S
C628 C620 1.574 . S
C628 H623 0.949 . S
C628 C634 1.368 . S
C629 C613 1.349 . S
C629 H621 0.950 . S
C629 C627 1.327 . S
C630 C618 1.349 . S
C630 H624 0.950 . S
C630 C631 1.327 . S
C631 H625 0.950 . S
C631 C630 1.327 . S
C631 C635 1.429 . S
C632 C615 1.574 . S
C632 H626 0.949 . S
C632 C636 1.368 . S
C633 C614 1.429 . S
C633 C627 1.429 . S
C633 C634 1.523 . S
C634 C615 1.368 . S
C634 C628 1.368 . S
C634 C633 1.523 . S
C635 C619 1.429 . S
C635 C631 1.429 . S
C635 C636 1.523 . S
C636 C620 1.368 . S
C636 C632 1.368 . S
C636 C635 1.523 . S
H637 C612 0.950 . S
H638 C614 0.950 . S
H639 C615 0.949 . S
H640 C617 0.950 . S
H641 C619 0.950 . S
C642 C643 1.349 . S
C642 C644 1.327 . S
C642 H667 0.950 . S
C643 C642 1.349 . S
C643 C659 1.349 . S
C644 C642 1.327 . S
C644 C663 1.429 . S
C644 H668 0.950 . S
C645 C662 1.574 . S
C645 C664 1.368 . S
C645 H669 0.949 . S
H646 C650 0.949 . S
C647 C648 1.349 . S
C647 C649 1.327 . S
C647 H670 0.950 . S
C648 C647 1.349 . S
C648 C660 1.349 . S
C649 C647 1.327 . S
C649 C665 1.429 . S
C649 H671 0.950 . S
C650 H646 0.949 . S
C650 C658 1.574 . S
C650 C666 1.368 . S
H651 C659 0.950 . S
H652 C657 0.950 . S
H653 C658 0.949 . S
H654 C660 0.950 . S
H655 C661 0.950 . S
H656 C662 0.949 . S
C657 H652 0.950 . S
C657 C659 1.327 . S
C657 C663 1.429 . S
C658 C650 1.574 . S
C658 H653 0.949 . S
C658 C664 1.368 . S
C659 C643 1.349 . S
C659 H651 0.950 . S
C659 C657 1.327 . S
C660 C648 1.349 . S
C660 H654 0.950 . S
C660 C661 1.327 . S
C661 H655 0.950 . S
C661 C660 1.327 . S
C661 C665 1.429 . S
C662 C645 1.574 . S
C662 H656 0.949 . S
C662 C666 1.368 . S
C663 C644 1.429 . S
C663 C657 1.429 . S
C663 C664 1.523 . S
C664 C645 1.368 . S
C664 C658 1.368 . S
C664 C663 1.523 . S
C665 C649 1.429 . S
C665 C661 1.429 . S
C665 C666 1.523 . S
C666 C650 1.368 . S
C666 C662 1.368 . S
C666 C665 1.523 . S
H667 C642 0.950 . S
H668 C644 0.950 . S
H669 C645 0.949 . S
H670 C647 0.950 . S
H671 C649 0.950 . S
C672 C673 1.349 . S
C672 C674 1.327 . S
C672 H697 0.950 . S
C673 C672 1.349 . S
C673 C689 1.349 . S
C674 C672 1.327 . S
C674 C693 1.429 . S
C674 H698 0.950 . S
C675 C692 1.574 . S
C675 C694 1.368 . S
C675 H699 0.949 . S
H676 C680 0.949 . S
C677 C678 1.349 . S
C677 C679 1.327 . S
C677 H700 0.950 . S
C678 C677 1.349 . S
C678 C690 1.349 . S
C679 C677 1.327 . S
C679 C695 1.429 . S
C679 H701 0.950 . S
C680 H676 0.949 . S
C680 C688 1.574 . S
C680 C696 1.368 . S
H681 C689 0.950 . S
H682 C687 0.950 . S
H683 C688 0.949 . S
H684 C690 0.950 . S
H685 C691 0.950 . S
H686 C692 0.949 . S
C687 H682 0.950 . S
C687 C689 1.327 . S
C687 C693 1.429 . S
C688 C680 1.574 . S
C688 H683 0.949 . S
C688 C694 1.368 . S
C689 C673 1.349 . S
C689 H681 0.950 . S
C689 C687 1.327 . S
C690 C678 1.349 . S
C690 H684 0.950 . S
C690 C691 1.327 . S
C691 H685 0.950 . S
C691 C690 1.327 . S
C691 C695 1.429 . S
C692 C675 1.574 . S
C692 H686 0.949 . S
C692 C696 1.368 . S
C693 C674 1.429 . S
C693 C687 1.429 . S
C693 C694 1.523 . S
C694 C675 1.368 . S
C694 C688 1.368 . S
C694 C693 1.523 . S
C695 C679 1.429 . S
C695 C691 1.429 . S
C695 C696 1.523 . S
C696 C680 1.368 . S
C696 C692 1.368 . S
C696 C695 1.523 . S
H697 C672 0.950 . S
H698 C674 0.950 . S
H699 C675 0.949 . S
H700 C677 0.950 . S
H701 C679 0.950 . S
C702 C703 1.349 . S
C702 C704 1.327 . S
C702 H727 0.950 . S
C703 C702 1.349 . S
C703 C719 1.349 . S
C704 C702 1.327 . S
C704 C723 1.429 . S
C704 H728 0.950 . S
C705 C722 1.574 . S
C705 C724 1.368 . S
C705 H729 0.949 . S
H706 C710 0.949 . S
C707 C708 1.349 . S
C707 C709 1.327 . S
C707 H730 0.950 . S
C708 C707 1.349 . S
C708 C720 1.349 . S
C709 C707 1.327 . S
C709 C725 1.429 . S
C709 H731 0.950 . S
C710 H706 0.949 . S
C710 C718 1.574 . S
C710 C726 1.368 . S
H711 C719 0.950 . S
H712 C717 0.950 . S
H713 C718 0.949 . S
H714 C720 0.950 . S
H715 C721 0.950 . S
H716 C722 0.949 . S
C717 H712 0.950 . S
C717 C719 1.327 . S
C717 C723 1.429 . S
C718 C710 1.574 . S
C718 H713 0.949 . S
C718 C724 1.368 . S
C719 C703 1.349 . S
C719 H711 0.950 . S
C719 C717 1.327 . S
C720 C708 1.349 . S
C720 H714 0.950 . S
C720 C721 1.327 . S
C721 H715 0.950 . S
C721 C720 1.327 . S
C721 C725 1.429 . S
C722 C705 1.574 . S
C722 H716 0.949 . S
C722 C726 1.368 . S
C723 C704 1.429 . S
C723 C717 1.429 . S
C723 C724 1.523 . S
C724 C705 1.368 . S
C724 C718 1.368 . S
C724 C723 1.523 . S
C725 C709 1.429 . S
C725 C721 1.429 . S
C725 C726 1.523 . S
C726 C710 1.368 . S
C726 C722 1.368 . S
C726 C725 1.523 . S
H727 C702 0.950 . S
H728 C704 0.950 . S
H729 C705 0.949 . S
H730 C707 0.950 . S
H731 C709 0.950 . S
C193 C2 1.231 . S
C198 N173 1.255 . S
C223 C34 1.231 . S
C228 N13 1.255 . S
C253 C66 1.231 . S
C258 N45 1.255 . S
C283 N77 1.255 . S
C288 C98 1.231 . S
C313 N109 1.255 . S
C318 C130 1.231 . S
C343 C162 1.231 . S
C348 N141 1.255 . S
C373 C4 0.958 . S
C378 N114 0.949 . S
C403 C36 0.958 . S
C408 N146 0.949 . S
C433 N178 0.949 . S
C438 C68 0.958 . S
C463 C100 0.958 . S
C468 N18 0.949 . S
C493 N50 0.949 . S
C498 C132 0.958 . S
C523 C164 0.958 . S
C528 N82 0.949 . S
C553 C6 1.495 . S
C558 C157 1.441 . S
C583 C189 1.441 . S
C588 C38 1.495 . S
C613 C29 1.441 . S
C618 C70 1.495 . S
C643 C102 1.495 . S
C648 C61 1.441 . S
C673 C93 1.441 . S
C678 C134 1.495 . S
C703 C125 1.441 . S
C708 C166 1.495 . S
