# Generated by pormake.
# Topology zft, (5)-cn, num edge types: 1
# Building blocks:
#     Node 0, Type 0, BuildingBlock: XOMCOT_clean_sbu_1, # of connection points: 5
#     Node 1, Type 0, BuildingBlock: XOMCOT_clean_sbu_1, # of connection points: 5
#     Node 2, Type 0, BuildingBlock: XOMCOT_clean_sbu_1, # of connection points: 5
#     Node 3, Type 0, BuildingBlock: XOMCOT_clean_sbu_1, # of connection points: 5
#     Node 4, Type 0, BuildingBlock: XOMCOT_clean_sbu_1, # of connection points: 5
#     Node 5, Type 0, BuildingBlock: XOMCOT_clean_sbu_1, # of connection points: 5
#     Node 6, Type 0, BuildingBlock: XOMCOT_clean_sbu_1, # of connection points: 5
#     Node 7, Type 0, BuildingBlock: XOMCOT_clean_sbu_1, # of connection points: 5
#     Edge 8, Type (0, 0), BuildingBlock: UVAHIK_clean_linker_0, # of connection points: 2
#     Edge 9, Type (0, 0), BuildingBlock: UVAHIK_clean_linker_0, # of connection points: 2
#     Edge 10, Type (0, 0), BuildingBlock: UVAHIK_clean_linker_0, # of connection points: 2
#     Edge 11, Type (0, 0), BuildingBlock: UVAHIK_clean_linker_0, # of connection points: 2
#     Edge 12, Type (0, 0), BuildingBlock: UVAHIK_clean_linker_0, # of connection points: 2
#     Edge 13, Type (0, 0), BuildingBlock: UVAHIK_clean_linker_0, # of connection points: 2
#     Edge 14, Type (0, 0), BuildingBlock: UVAHIK_clean_linker_0, # of connection points: 2
#     Edge 15, Type (0, 0), BuildingBlock: UVAHIK_clean_linker_0, # of connection points: 2
#     Edge 16, Type (0, 0), BuildingBlock: UVAHIK_clean_linker_0, # of connection points: 2
#     Edge 17, Type (0, 0), BuildingBlock: UVAHIK_clean_linker_0, # of connection points: 2
#     Edge 18, Type (0, 0), BuildingBlock: UVAHIK_clean_linker_0, # of connection points: 2
#     Edge 19, Type (0, 0), BuildingBlock: UVAHIK_clean_linker_0, # of connection points: 2
#     Edge 20, Type (0, 0), BuildingBlock: UVAHIK_clean_linker_0, # of connection points: 2
#     Edge 21, Type (0, 0), BuildingBlock: UVAHIK_clean_linker_0, # of connection points: 2
#     Edge 22, Type (0, 0), BuildingBlock: UVAHIK_clean_linker_0, # of connection points: 2
#     Edge 23, Type (0, 0), BuildingBlock: UVAHIK_clean_linker_0, # of connection points: 2
#     Edge 24, Type (0, 0), BuildingBlock: UVAHIK_clean_linker_0, # of connection points: 2
#     Edge 25, Type (0, 0), BuildingBlock: UVAHIK_clean_linker_0, # of connection points: 2
#     Edge 26, Type (0, 0), BuildingBlock: UVAHIK_clean_linker_0, # of connection points: 2
#     Edge 27, Type (0, 0), BuildingBlock: UVAHIK_clean_linker_0, # of connection points: 2
# Relax obj value: 0.085
# Max RMSD: 0.118
# Mean RMSD: 0.118
data_MOF--net-zft--node1-XOMCOT_clean_sbu_1--edge1-UVAHIK_clean_linker_0
_symmetry_space_group_name_H-M    P1
_symmetry_Int_Tables_number       1
_symmetry_cell_setting            triclinic
loop_
_symmetry_equiv_pos_as_xyz
'x, y, z'
_cell_length_a     37.006931
_cell_length_b     36.873091
_cell_length_c     59.270789
_cell_angle_alpha  89.87495
_cell_angle_beta   89.954507
_cell_angle_gamma 89.928925
loop_
_atom_site_label
_atom_site_type_symbol
_atom_site_fract_x
_atom_site_fract_y
_atom_site_fract_z
_atom_type_partial_charge
C0 C 0.09452 0.2592 0.25689 0.0
C1 C 0.06582 0.24006 0.26523 0.0
N2 N 0.04048 0.2375 0.24899 0.0
N3 N 0.08772 0.26915 0.23545 0.0
C4 C 0.05458 0.25531 0.23093 0.0
H5 H 0.11949 0.26448 0.26572 0.0
Co6 Co 0.12341 0.29297 0.21901 0.0
C7 C 0.09115 0.32296 0.17715 0.0
O8 O 0.1218 0.31605 0.16682 0.0
N9 N 0.16135 0.31724 0.20354 0.0
C10 C 0.21358 0.33136 0.18704 0.0
C11 C 0.19268 0.30364 0.19539 0.0
C12 C 0.1643 0.35352 0.20013 0.0
N13 N 0.19575 0.36281 0.19005 0.0
O14 O 0.11858 0.33428 0.23877 0.0
H15 H 0.20061 0.27553 0.19562 0.0
H16 H 0.14386 0.37282 0.20527 0.0
O17 O 0.08699 0.3138 0.19792 0.0
C18 C 0.14398 0.33599 0.25329 0.0
O19 O 0.16978 0.31149 0.2524 0.0
N20 N 0.12959 0.2506 0.2016 0.0
C21 C 0.14643 0.18435 0.18124 0.0
C22 C 0.1183 0.20608 0.17287 0.0
C23 C 0.10966 0.23874 0.18364 0.0
C24 C 0.15531 0.22862 0.21079 0.0
C25 C 0.16455 0.19571 0.20074 0.0
H26 H 0.08653 0.25365 0.17769 0.0
H27 H 0.16946 0.23733 0.2258 0.0
H28 H 0.04147 0.25764 0.21468 0.0
H29 H 0.06457 0.22755 0.28174 0.0
H30 H 0.2399 0.32843 0.17929 0.0
H31 H 0.10261 0.19754 0.15841 0.0
H32 H 0.18621 0.1797 0.20796 0.0
C33 C 0.24391 0.59052 0.51117 0.0
C34 C 0.2634 0.56216 0.51974 0.0
N35 N 0.27707 0.54296 0.50243 0.0
N36 N 0.24444 0.58938 0.48844 0.0
C37 C 0.26483 0.55979 0.48353 0.0
H38 H 0.2316 0.61167 0.52111 0.0
Co39 Co 0.22533 0.62794 0.47159 0.0
C40 C 0.20534 0.60073 0.42628 0.0
O41 O 0.21644 0.63185 0.41796 0.0
N42 N 0.20568 0.66836 0.45588 0.0
C43 C 0.19604 0.7234 0.44152 0.0
C44 C 0.22109 0.70075 0.45121 0.0
C45 C 0.17093 0.67244 0.44904 0.0
N46 N 0.16439 0.70564 0.4402 0.0
O47 O 0.17979 0.62215 0.48708 0.0
H48 H 0.24848 0.70843 0.45495 0.0
H49 H 0.15058 0.65163 0.45101 0.0
O50 O 0.20855 0.59452 0.44752 0.0
C51 C 0.17444 0.64536 0.50265 0.0
O52 O 0.19872 0.6709 0.50568 0.0
N53 N 0.2713 0.63479 0.45818 0.0
C54 C 0.33911 0.65508 0.44159 0.0
C55 C 0.31981 0.62648 0.43172 0.0
C56 C 0.28628 0.61624 0.44054 0.0
C57 C 0.29143 0.65982 0.46945 0.0
C58 C 0.32502 0.67097 0.46121 0.0
H59 H 0.27292 0.59324 0.43316 0.0
H60 H 0.28035 0.67265 0.48433 0.0
H61 H 0.27227 0.55195 0.46658 0.0
H62 H 0.26801 0.55676 0.53746 0.0
H63 H 0.20085 0.75096 0.43597 0.0
H64 H 0.33053 0.61203 0.41729 0.0
H65 H 0.33908 0.69276 0.4697 0.0
C66 C 0.96063 0.7089 0.7241 0.0
C67 C 0.98808 0.72975 0.73267 0.0
N68 N 0.9744 0.76232 0.73842 0.0
N69 N 0.92961 0.72813 0.72429 0.0
C70 C 0.93883 0.76062 0.73318 0.0
H71 H 0.96308 0.68119 0.71835 0.0
Co72 Co 0.88464 0.70994 0.7155 0.0
C73 C 0.8988 0.6763 0.67013 0.0
O74 O 0.86621 0.68452 0.66295 0.0
N75 N 0.83934 0.69039 0.70718 0.0
C76 C 0.78146 0.68018 0.69909 0.0
C77 C 0.80631 0.70586 0.70562 0.0
C78 C 0.8334 0.65504 0.70225 0.0
N79 N 0.79863 0.6482 0.69679 0.0
O80 O 0.8919 0.66873 0.73481 0.0
H81 H 0.8001 0.73391 0.70891 0.0
H82 H 0.85453 0.63472 0.70232 0.0
O83 O 0.90847 0.68504 0.69014 0.0
C84 C 0.88218 0.67577 0.75497 0.0
O85 O 0.87065 0.7087 0.7595 0.0
N86 N 0.87639 0.75243 0.69837 0.0
C87 C 0.85778 0.8187 0.67853 0.0
C88 C 0.88108 0.79452 0.66746 0.0
C89 C 0.89087 0.76186 0.67796 0.0
C90 C 0.85567 0.77672 0.7099 0.0
C91 C 0.84571 0.80977 0.70025 0.0
H92 H 0.91051 0.74488 0.66971 0.0
H93 H 0.84629 0.76998 0.72668 0.0
H94 H 0.91973 0.7823 0.73619 0.0
H95 H 0.01607 0.72161 0.73431 0.0
H96 H 0.75311 0.685 0.69574 0.0
H97 H 0.89217 0.80111 0.65104 0.0
H98 H 0.82809 0.82784 0.70955 0.0
C99 C 0.74956 0.42836 1.00663 0.0
C100 C 0.72701 0.45695 1.01111 0.0
N101 N 0.71917 0.47368 0.99153 0.0
N102 N 0.75627 0.42682 0.98429 0.0
C103 C 0.73748 0.45513 0.97546 0.0
H104 H 0.75859 0.40864 0.01887 0.0
Co105 Co 0.77951 0.3868 0.97134 0.0
C106 C 0.80882 0.41009 0.92692 0.0
O107 O 0.80119 0.37775 0.91898 0.0
N108 N 0.80301 0.34527 0.95939 0.0
C109 C 0.81604 0.28907 0.94834 0.0
C110 C 0.78928 0.31179 0.95595 0.0
C111 C 0.83858 0.34172 0.95426 0.0
N112 N 0.8471 0.30792 0.9472 0.0
O113 O 0.82101 0.39497 0.99039 0.0
H114 H 0.76175 0.30365 0.95896 0.0
H115 H 0.85786 0.36363 0.95572 0.0
O116 O 0.80054 0.41801 0.94736 0.0
C117 C 0.82106 0.3732 1.00718 0.0
O118 O 0.7949 0.34921 1.00863 0.0
N119 N 0.7371 0.37715 0.95469 0.0
C120 C 0.67262 0.35316 0.93532 0.0
C121 C 0.69362 0.37984 0.92463 0.0
C122 C 0.7255 0.39197 0.9348 0.0
C123 C 0.71524 0.35391 0.96623 0.0
C124 C 0.68329 0.34102 0.95673 0.0
H125 H 0.74019 0.41346 0.92663 0.0
H126 H 0.72351 0.34422 0.98269 0.0
H127 H 0.73511 0.46046 0.95756 0.0
H128 H 0.71577 0.4639 0.02741 0.0
H129 H 0.81268 0.26089 0.94374 0.0
H130 H 0.68589 0.39081 0.90837 0.0
H131 H 0.6672 0.32157 0.96605 0.0
C132 C 0.58978 0.23474 0.52371 0.0
C133 C 0.5596 0.25269 0.51636 0.0
N134 N 0.54014 0.2628 0.53447 0.0
N135 N 0.58949 0.23282 0.54644 0.0
C136 C 0.55894 0.2506 0.5526 0.0
H137 H 0.61125 0.22494 0.51301 0.0
Co138 Co 0.62773 0.21255 0.56284 0.0
C139 C 0.59761 0.18201 0.60586 0.0
O140 O 0.62913 0.18633 0.61562 0.0
N141 N 0.66776 0.19203 0.57837 0.0
C142 C 0.71965 0.18396 0.59677 0.0
C143 C 0.69653 0.2091 0.58755 0.0
C144 C 0.67471 0.15629 0.58184 0.0
N145 N 0.70588 0.15073 0.59321 0.0
O146 O 0.6243 0.16904 0.54469 0.0
H147 H 0.70094 0.23799 0.58771 0.0
H148 H 0.65665 0.13476 0.57676 0.0
O149 O 0.59302 0.1923 0.58533 0.0
C150 C 0.64855 0.16827 0.52933 0.0
O151 O 0.67238 0.19468 0.52881 0.0
N152 N 0.63281 0.25674 0.57851 0.0
C153 C 0.65264 0.32339 0.5972 0.0
C154 C 0.62763 0.30078 0.60819 0.0
C155 C 0.61772 0.26767 0.59843 0.0
C156 C 0.65477 0.27968 0.56679 0.0
C157 C 0.66535 0.31287 0.57589 0.0
H158 H 0.5981 0.25126 0.60709 0.0
H159 H 0.66544 0.27127 0.55062 0.0
H160 H 0.55103 0.2551 0.56995 0.0
H161 H 0.55336 0.25939 0.499 0.0
H162 H 0.74491 0.18973 0.60522 0.0
H163 H 0.61655 0.30807 0.62447 0.0
H164 H 0.68374 0.32991 0.56641 0.0
C165 C 0.25158 0.09312 0.77518 0.0
C166 C 0.22811 0.06599 0.76949 0.0
N167 N 0.21858 0.04833 0.78842 0.0
N168 N 0.25712 0.0928 0.79767 0.0
C169 C 0.23667 0.06485 0.80536 0.0
H170 H 0.26186 0.11339 0.7637 0.0
Co171 Co 0.28039 0.13151 0.81184 0.0
C172 C 0.30742 0.10588 0.85638 0.0
O173 O 0.29942 0.13811 0.8644 0.0
N174 N 0.30384 0.17199 0.82486 0.0
C175 C 0.31735 0.22759 0.83671 0.0
C176 C 0.29039 0.20547 0.82883 0.0
C177 C 0.33939 0.17488 0.83007 0.0
N178 N 0.34821 0.20833 0.83752 0.0
O179 O 0.32268 0.12352 0.79314 0.0
H180 H 0.26299 0.21409 0.82586 0.0
H181 H 0.35851 0.15286 0.82819 0.0
O182 O 0.30022 0.09861 0.83566 0.0
C183 C 0.3244 0.14619 0.77683 0.0
O184 O 0.29926 0.17133 0.77546 0.0
N185 N 0.23729 0.14102 0.82812 0.0
C186 C 0.17201 0.16434 0.84711 0.0
C187 C 0.19249 0.13685 0.85742 0.0
C188 C 0.22472 0.12507 0.84744 0.0
C189 C 0.21605 0.16525 0.81687 0.0
C190 C 0.18374 0.1778 0.8262 0.0
H191 H 0.23886 0.10286 0.85526 0.0
H192 H 0.22503 0.17589 0.80079 0.0
H193 H 0.23287 0.05853 0.82303 0.0
H194 H 0.21722 0.06086 0.75284 0.0
H195 H 0.31433 0.25571 0.84158 0.0
H196 H 0.18405 0.12485 0.87326 0.0
H197 H 0.16813 0.19793 0.81711 0.0
C198 C 0.38358 0.73748 0.03273 0.0
C199 C 0.4055 0.71716 0.01899 0.0
N200 N 0.4394 0.73007 0.0205 0.0
N201 N 0.40339 0.7629 0.04342 0.0
C202 C 0.43714 0.75851 0.03486 0.0
H203 H 0.35488 0.7336 0.03471 0.0
Co204 Co 0.38436 0.79669 0.06435 0.0
C205 C 0.4584 0.78306 0.08523 0.0
O206 O 0.45888 0.74857 0.07965 0.0
N207 N 0.36489 0.83029 0.08478 0.0
C208 C 0.35452 0.86057 0.11652 0.0
C209 C 0.37554 0.83471 0.10639 0.0
C210 C 0.33719 0.854 0.08219 0.0
N211 N 0.33031 0.87271 0.10135 0.0
O212 O 0.39545 0.83531 0.04345 0.0
H213 H 0.39712 0.81994 0.11453 0.0
H214 H 0.32189 0.85701 0.06676 0.0
O215 O 0.43149 0.80284 0.07947 0.0
C216 C 0.3695 0.83828 0.02937 0.0
O217 O 0.34213 0.81579 0.03132 0.0
N218 N 0.36936 0.75859 0.08385 0.0
C219 C 0.3371 0.70086 0.10719 0.0
C220 C 0.37011 0.71552 0.11441 0.0
C221 C 0.38548 0.74476 0.10277 0.0
C222 C 0.33601 0.74645 0.07772 0.0
C223 C 0.31968 0.71733 0.08883 0.0
H224 H 0.40966 0.75638 0.1096 0.0
H225 H 0.3221 0.75927 0.06378 0.0
H226 H 0.45982 0.77559 0.03919 0.0
H227 H 0.39725 0.69372 1.00932 0.0
H228 H 0.35714 0.87001 0.13372 0.0
H229 H 0.38375 0.70484 0.12916 0.0
H230 H 0.29396 0.70742 0.08273 0.0
C231 C 0.75243 0.9079 0.2709 0.0
C232 C 0.76957 0.93771 0.26225 0.0
N233 N 0.77483 0.96173 0.27903 0.0
N234 N 0.74642 0.91272 0.29309 0.0
C235 C 0.76064 0.94576 0.29771 0.0
H236 H 0.74588 0.88357 0.26166 0.0
Co237 Co 0.72632 0.87547 0.31023 0.0
C238 C 0.70014 0.90609 0.35367 0.0
O239 O 0.70905 0.87544 0.36355 0.0
N240 N 0.70581 0.83608 0.32653 0.0
C241 C 0.69645 0.78276 0.34325 0.0
C242 C 0.72172 0.80492 0.33336 0.0
C243 C 0.67055 0.8317 0.3322 0.0
N244 N 0.66422 0.79962 0.34255 0.0
O245 O 0.68266 0.8787 0.29237 0.0
H246 H 0.74978 0.79794 0.3312 0.0
H247 H 0.64986 0.85167 0.32863 0.0
O248 O 0.70684 0.91082 0.33259 0.0
C249 C 0.68121 0.85253 0.27831 0.0
O250 O 0.70724 0.82823 0.27873 0.0
N251 N 0.7707 0.8704 0.32544 0.0
C252 C 0.83734 0.85026 0.34367 0.0
C253 C 0.8169 0.87825 0.35346 0.0
C254 C 0.78382 0.88843 0.34381 0.0
C255 C 0.79198 0.84598 0.31446 0.0
C256 C 0.82505 0.83506 0.32343 0.0
H257 H 0.76919 0.91064 0.35126 0.0
H258 H 0.78221 0.83353 0.29912 0.0
H259 H 0.76119 0.95745 0.31444 0.0
H260 H 0.77892 0.94062 0.24504 0.0
H261 H 0.70159 0.75633 0.35055 0.0
H262 H 0.82585 0.89156 0.36873 0.0
H263 H 0.84059 0.81448 0.31472 0.0
C264 C 0.17483 0.36536 0.28587 0.0
C265 C 0.14472 0.36364 0.27146 0.0
C266 C 0.17588 0.38994 0.30371 0.0
C267 C 0.16489 0.4296 0.34755 0.0
H268 H 0.13236 0.52853 0.33897 0.0
C269 C 0.18066 0.53826 0.41777 0.0
C270 C 0.19234 0.57254 0.41035 0.0
C271 C 0.16935 0.51201 0.40214 0.0
C272 C 0.14169 0.50101 0.34166 0.0
H273 H 0.09209 0.38685 0.26445 0.0
H274 H 0.09378 0.42997 0.2959 0.0
H275 H 0.12382 0.48442 0.30891 0.0
H276 H 0.20092 0.60605 0.38063 0.0
H277 H 0.1823 0.56059 0.35377 0.0
H278 H 0.18443 0.44656 0.37981 0.0
C279 C 0.11674 0.41227 0.29321 0.0
C280 C 0.13634 0.47557 0.32448 0.0
C281 C 0.11572 0.38755 0.27521 0.0
C282 C 0.19204 0.58003 0.38707 0.0
C283 C 0.18095 0.55394 0.37155 0.0
C284 C 0.1704 0.45507 0.36467 0.0
C285 C 0.14678 0.41354 0.30781 0.0
C286 C 0.14867 0.43971 0.32698 0.0
C287 C 0.16952 0.5195 0.37879 0.0
C288 C 0.15966 0.49136 0.36176 0.0
H289 H 0.19784 0.34761 0.28344 0.0
H290 H 0.19987 0.39068 0.31415 0.0
H291 H 0.17405 0.40204 0.35029 0.0
H292 H 0.18041 0.53165 0.43558 0.0
H293 H 0.16043 0.48589 0.40836 0.0
C294 C 0.91503 0.6485 0.6329 0.0
C295 C 0.92598 0.66295 0.65373 0.0
C296 C 0.94055 0.63944 0.6164 0.0
C297 C 0.03991 0.62645 0.60714 0.0
H298 H 0.01635 0.65166 0.54529 0.0
C299 C 0.14701 0.65855 0.54012 0.0
C300 C 0.14422 0.64184 0.5189 0.0
C301 C 0.11937 0.65531 0.55598 0.0
C302 C 0.02311 0.64397 0.56243 0.0
H303 H 0.97245 0.67847 0.67373 0.0
H304 H 0.01678 0.66373 0.6449 0.0
H305 H 0.9701 0.65655 0.57451 0.0
H306 H 0.10999 0.60883 0.49759 0.0
H307 H 0.06067 0.60408 0.52537 0.0
H308 H 0.0935 0.61583 0.59509 0.0
C309 C 0.98858 0.65846 0.64137 0.0
C310 C 0.9966 0.64665 0.57923 0.0
C311 C 0.96309 0.6671 0.65795 0.0
C312 C 0.11288 0.62194 0.51382 0.0
C313 C 0.08472 0.61929 0.52965 0.0
C314 C 0.06647 0.62428 0.59041 0.0
C315 C 0.97768 0.64498 0.62021 0.0
C316 C 0.00482 0.63861 0.60193 0.0
C317 C 0.08791 0.63576 0.55095 0.0
C318 C 0.05852 0.63366 0.56797 0.0
H319 H 0.88663 0.64469 0.62919 0.0
H320 H 0.93108 0.62844 0.60055 0.0
H321 H 0.04713 0.61911 0.62425 0.0
H322 H 0.17084 0.67393 0.54464 0.0
H323 H 0.12238 0.66863 0.57215 0.0
C324 C 0.83684 0.42658 0.89001 0.0
C325 C 0.82312 0.43772 0.91103 0.0
C326 C 0.84746 0.45197 0.87384 0.0
C327 C 0.87194 0.54833 0.86496 0.0
H328 H 0.84146 0.52893 0.80355 0.0
C329 C 0.87296 0.65777 0.79521 0.0
C330 C 0.8816 0.64773 0.77297 0.0
C331 C 0.8697 0.6317 0.8122 0.0
C332 C 0.85075 0.53454 0.82051 0.0
H333 H 0.81097 0.48446 0.9318 0.0
H334 H 0.82937 0.52914 0.90333 0.0
H335 H 0.8282 0.48517 0.8332 0.0
H336 H 0.89452 0.6023 0.75128 0.0
H337 H 0.88912 0.5565 0.7811 0.0
H338 H 0.89417 0.59794 0.85224 0.0
C339 C 0.8321 0.50057 0.89949 0.0
C340 C 0.84307 0.50944 0.83757 0.0
C341 C 0.82149 0.47501 0.91579 0.0
C342 C 0.8878 0.61092 0.76823 0.0
C343 C 0.88445 0.58469 0.7853 0.0
C344 C 0.87968 0.57345 0.84787 0.0
C345 C 0.84459 0.4893 0.87814 0.0
C346 C 0.85341 0.51605 0.86004 0.0
C347 C 0.87498 0.59476 0.80746 0.0
C348 C 0.86896 0.56699 0.82543 0.0
H349 H 0.83897 0.39806 0.88586 0.0
H350 H 0.85772 0.44226 0.85783 0.0
H351 H 0.88076 0.55406 0.882 0.0
H352 H 0.86801 0.68588 0.79952 0.0
H353 H 0.8619 0.64048 0.82894 0.0
C354 C 0.8805 0.39495 0.02321 0.0
C355 C 0.84839 0.37496 0.02546 0.0
C356 C 0.90626 0.39489 0.04061 0.0
C357 C 0.91756 0.37507 0.10179 0.0
H358 H 0.01751 0.35693 0.086 0.0
C359 C 0.02516 0.32692 0.16693 0.0
C360 C 0.06113 0.33757 0.16338 0.0
C361 C 0.9983 0.33635 0.15123 0.0
C362 C 0.98986 0.36268 0.0908 0.0
H363 H 0.81785 0.33996 0.04799 0.0
H364 H 0.86234 0.33998 0.07799 0.0
H365 H 0.97305 0.36558 0.05626 0.0
H366 H 0.09677 0.36854 0.14166 0.0
H367 H 0.05011 0.386 0.11493 0.0
H368 H 0.93431 0.37189 0.13635 0.0
C369 C 0.86774 0.35583 0.06295 0.0
C370 C 0.96434 0.36763 0.07367 0.0
C371 C 0.84232 0.3556 0.04559 0.0
C372 C 0.06931 0.35954 0.14467 0.0
C373 C 0.04257 0.3693 0.12922 0.0
C374 C 0.94315 0.37034 0.11896 0.0
C375 C 0.90014 0.37523 0.06069 0.0
C376 C 0.92779 0.37341 0.07893 0.0
C377 C 0.00691 0.35689 0.13183 0.0
C378 C 0.97963 0.36371 0.11371 0.0
H379 H 0.88594 0.41014 1.00792 0.0
H380 H 0.93093 0.41027 0.0384 0.0
H381 H 0.88966 0.37991 0.10643 0.0
H382 H 0.01818 0.30974 0.18112 0.0
H383 H 0.9712 0.32611 0.15378 0.0
C384 C 0.62743 0.10937 0.51191 0.0
C385 C 0.64864 0.14094 0.51094 0.0
C386 C 0.62822 0.08425 0.49409 0.0
C387 C 0.65096 0.07592 0.43336 0.0
H388 H 0.66552 0.97412 0.44674 0.0
C389 C 0.69653 0.97161 0.36544 0.0
C390 C 0.68572 0.93539 0.36813 0.0
C391 C 0.68755 0.99756 0.38186 0.0
C392 C 0.66073 1.00231 0.44256 0.0
H393 H 0.68692 0.17098 0.49034 0.0
H394 H 0.68797 0.1277 0.45958 0.0
H395 H 0.65712 0.0169 0.4775 0.0
H396 H 0.655 0.89839 0.38908 0.0
H397 H 0.63798 0.94355 0.41695 0.0
H398 H 0.6545 0.06147 0.39844 0.0
C399 C 0.67068 0.12224 0.47395 0.0
C400 C 0.65599 0.02687 0.46031 0.0
C401 C 0.67027 0.14694 0.49176 0.0
C402 C 0.66403 0.92609 0.38671 0.0
C403 C 0.6546 0.95197 0.40284 0.0
C404 C 0.65534 0.05131 0.41558 0.0
C405 C 0.64976 0.09057 0.47486 0.0
C406 C 0.65153 0.06403 0.45594 0.0
C407 C 0.6672 0.98784 0.40111 0.0
C408 C 0.66069 0.01415 0.41991 0.0
H409 H 0.61048 0.10398 0.52643 0.0
H410 H 0.61171 0.06009 0.49525 0.0
H411 H 0.64718 0.10437 0.42943 0.0
H412 H 0.71357 0.9794 0.35138 0.0
H413 H 0.698 0.0248 0.37993 0.0
C414 C 0.34759 0.16443 0.73891 0.0
C415 C 0.35221 0.14394 0.75877 0.0
C416 C 0.37323 0.1634 0.72164 0.0
C417 C 0.46909 0.14612 0.71066 0.0
H418 H 0.43877 0.14422 0.64801 0.0
C419 C 0.57428 0.14809 0.63918 0.0
C420 C 0.56708 0.16984 0.62021 0.0
C421 C 0.54724 0.14037 0.65492 0.0
C422 C 0.44775 0.14515 0.66538 0.0
H423 H 0.38761 0.1061 0.77594 0.0
H424 H 0.43306 0.10463 0.74566 0.0
H425 H 0.39381 0.13876 0.67798 0.0
H426 H 0.52542 0.19958 0.60243 0.0
H427 H 0.47803 0.18682 0.63022 0.0
H428 H 0.5228 0.15369 0.69827 0.0
C429 C 0.40929 0.12147 0.74358 0.0
C430 C 0.42195 0.14185 0.68259 0.0
C431 C 0.38325 0.12218 0.76087 0.0
C432 C 0.53169 0.1825 0.61679 0.0
C433 C 0.50456 0.17513 0.63277 0.0
C434 C 0.49486 0.1497 0.69348 0.0
C435 C 0.40449 0.14208 0.72373 0.0
C436 C 0.43225 0.14262 0.70545 0.0
C437 C 0.51222 0.15463 0.65235 0.0
C438 C 0.48459 0.14949 0.67057 0.0
H439 H 0.324 0.18146 0.73661 0.0
H440 H 0.36887 0.18001 0.7068 0.0
H441 H 0.47792 0.1474 0.72806 0.0
H442 H 0.60122 0.13758 0.64216 0.0
H443 H 0.55405 0.12364 0.66934 0.0
C444 C 0.3992 0.88436 1.0035 0.0
C445 C 0.36807 0.86679 1.01164 0.0
C446 C 0.39657 0.91002 0.98593 0.0
C447 C 0.33235 0.97407 0.96071 0.0
H448 H 0.38939 0.96886 0.90586 0.0
C449 C 0.32766 0.08777 0.89497 0.0
C450 C 0.32062 0.07779 0.87249 0.0
C451 C 0.33715 0.06188 0.9111 0.0
C452 C 0.37326 0.97053 0.92108 0.0
H453 H 0.30985 0.86286 1.00794 0.0
H454 H 0.30535 0.90764 0.97803 0.0
H455 H 0.39974 0.92466 0.93642 0.0
H456 H 0.31981 0.03255 0.8492 0.0
H457 H 0.33686 0.98689 0.87768 0.0
H458 H 0.30581 0.01962 0.94566 0.0
C459 C 0.33177 0.90156 0.98495 0.0
C460 C 0.37943 0.94553 0.93862 0.0
C461 C 0.33443 0.87575 1.00209 0.0
C462 C 0.32491 0.04116 0.86636 0.0
C463 C 0.33477 0.01507 0.88263 0.0
C464 C 0.32658 0.99921 0.94343 0.0
C465 C 0.3627 0.91899 0.9766 0.0
C466 C 0.35874 0.94687 0.95854 0.0
C467 C 0.34019 0.02514 0.9053 0.0
C468 C 0.34679 0.99772 0.92336 0.0
H469 H 0.4255 0.8779 1.01043 0.0
H470 H 0.42085 0.9232 0.97986 0.0
H471 H 0.31603 0.97587 0.97585 0.0
H472 H 0.32514 0.1157 0.90038 0.0
H473 H 0.34168 0.07062 0.92831 0.0
C474 C 0.63129 0.8789 0.25407 0.0
C475 C 0.65258 0.84924 0.26093 0.0
C476 C 0.60717 0.87542 0.23585 0.0
C477 C 0.56015 0.8055 0.20129 0.0
H478 H 0.55943 0.87838 0.15403 0.0
C479 C 0.50834 0.77192 0.11292 0.0
C480 C 0.48349 0.79607 0.10306 0.0
C481 C 0.5278 0.78178 0.13215 0.0
C482 C 0.5591 0.85797 0.16719 0.0
H483 H 0.66431 0.79251 0.25454 0.0
H484 H 0.62295 0.78657 0.22323 0.0
H485 H 0.59304 0.88955 0.18898 0.0
H486 H 0.46145 0.85056 0.10499 0.0
H487 H 0.49587 0.86785 0.13855 0.0
H488 H 0.52714 0.77353 0.17943 0.0
C489 C 0.62439 0.81246 0.23178 0.0
C490 C 0.57819 0.86442 0.18726 0.0
C491 C 0.64842 0.81597 0.24972 0.0
C492 C 0.48025 0.83119 0.11217 0.0
C493 C 0.49997 0.84115 0.1314 0.0
C494 C 0.54139 0.79899 0.18128 0.0
C495 C 0.60364 0.84212 0.2244 0.0
C496 C 0.57963 0.83786 0.20435 0.0
C497 C 0.52316 0.81613 0.14199 0.0
C498 C 0.54127 0.82475 0.16377 0.0
H499 H 0.63405 0.90494 0.2623 0.0
H500 H 0.59142 0.89877 0.23067 0.0
H501 H 0.5599 0.78478 0.21427 0.0
H502 H 0.51183 0.74476 0.10634 0.0
H503 H 0.54604 0.76214 0.13962 0.0
C504 C 0.29313 0.92472 0.0883 0.0
C505 C 0.30333 0.90022 0.10535 0.0
C506 C 0.26981 0.95373 0.09317 0.0
C507 C 0.20489 0.98767 0.13648 0.0
H508 H 0.23486 0.08292 0.11598 0.0
C509 C 0.16491 0.11883 0.18254 0.0
C510 C 0.15706 0.15006 0.16982 0.0
C511 C 0.17728 0.08729 0.17202 0.0
C512 C 0.22571 0.05648 0.12155 0.0
H513 H 0.29543 0.88566 0.14044 0.0
H514 H 0.25544 0.93601 0.14898 0.0
H515 H 0.26581 0.02909 0.10181 0.0
H516 H 0.15545 0.17242 0.13598 0.0
H517 H 0.17709 0.11714 0.11755 0.0
H518 H 0.16562 0.01512 0.15679 0.0
C519 C 0.26517 0.93306 0.13184 0.0
C520 C 0.24342 0.02559 0.11339 0.0
C521 C 0.2885 0.90437 0.12702 0.0
C522 C 0.16107 0.14873 0.14623 0.0
C523 C 0.17376 0.11719 0.1357 0.0
C524 C 0.18729 0.01851 0.14468 0.0
C525 C 0.25596 0.9585 0.11511 0.0
C526 C 0.23384 0.99085 0.1212 0.0
C527 C 0.18231 0.0862 0.14851 0.0
C528 C 0.19806 0.05334 0.13774 0.0
H529 H 0.30423 0.92226 0.07147 0.0
H530 H 0.263 0.97267 0.07984 0.0
H531 H 0.19631 0.9613 0.1425 0.0
H532 H 0.16175 0.11886 0.20071 0.0
H533 H 0.18396 0.06405 0.18243 0.0
C534 C 0.60336 0.80967 0.35893 0.0
C535 C 0.6304 0.78592 0.3512 0.0
C536 C 0.57126 0.79609 0.3682 0.0
C537 C 0.51707 0.75916 0.39973 0.0
H538 H 0.47119 0.67514 0.37294 0.0
C539 C 0.40223 0.68039 0.44451 0.0
C540 C 0.37304 0.66894 0.43112 0.0
C541 C 0.43335 0.69489 0.43455 0.0
C542 C 0.48349 0.69876 0.38055 0.0
H543 H 0.64438 0.72929 0.34662 0.0
H544 H 0.58891 0.70569 0.36299 0.0
H545 H 0.5248 0.70105 0.35531 0.0
H546 H 0.35373 0.66417 0.3967 0.0
H547 H 0.40795 0.68917 0.3794 0.0
H548 H 0.47543 0.75711 0.42482 0.0
C549 C 0.59231 0.7348 0.3618 0.0
C550 C 0.51446 0.71341 0.37057 0.0
C551 C 0.62435 0.74835 0.35264 0.0
C552 C 0.37592 0.67206 0.40753 0.0
C553 C 0.40701 0.6865 0.39759 0.0
C554 C 0.48611 0.74444 0.40976 0.0
C555 C 0.56542 0.75846 0.36982 0.0
C556 C 0.53173 0.74371 0.38007 0.0
C557 C 0.43607 0.69825 0.41097 0.0
C558 C 0.46899 0.714 0.40032 0.0
H559 H 0.6073 0.83873 0.35825 0.0
H560 H 0.55095 0.81506 0.37403 0.0
H561 H 0.52988 0.78228 0.40761 0.0
H562 H 0.40118 0.67794 0.46271 0.0
H563 H 0.45547 0.70312 0.44534 0.0
C564 C 0.74177 0.11499 0.62043 0.0
C565 C 0.72119 0.1167 0.60055 0.0
C566 C 0.75748 0.0824 0.62742 0.0
C567 C 0.7533 0.98249 0.61933 0.0
H568 H 0.84687 0.98584 0.64869 0.0
C569 C 0.83275 0.85306 0.64537 0.0
C570 C 0.84586 0.85301 0.66763 0.0
C571 C 0.81899 0.88492 0.63573 0.0
C572 C 0.82067 0.98449 0.64059 0.0
H573 H 0.70095 0.08545 0.57239 0.0
H574 H 0.72896 0.02845 0.58432 0.0
H575 H 0.81982 0.0416 0.63442 0.0
H576 H 0.85602 0.88652 0.69693 0.0
H577 H 0.83239 0.94217 0.68004 0.0
H578 H 0.75457 0.92514 0.6254 0.0
C579 C 0.73243 0.05223 0.59478 0.0
C580 C 0.80502 0.01648 0.63249 0.0
C581 C 0.71639 0.08489 0.58789 0.0
C582 C 0.84587 0.88568 0.67981 0.0
C583 C 0.83257 0.91758 0.67008 0.0
C584 C 0.76917 0.9504 0.62725 0.0
C585 C 0.75338 0.0506 0.6146 0.0
C586 C 0.77085 0.01605 0.62205 0.0
C587 C 0.81857 0.91748 0.64803 0.0
C588 C 0.8028 0.95113 0.63825 0.0
H589 H 0.74539 0.13886 0.63078 0.0
H590 H 0.77255 0.08213 0.64307 0.0
H591 H 0.72681 0.98105 0.61165 0.0
H592 H 0.8322 0.82823 0.63565 0.0
H593 H 0.80863 0.88409 0.61865 0.0
C594 C 0.40788 0.19723 0.85514 0.0
C595 C 0.38297 0.22108 0.84509 0.0
C596 C 0.44065 0.21022 0.8637 0.0
C597 C 0.50341 0.28849 0.86108 0.0
H598 H 0.5337 0.25483 0.92013 0.0
C599 C 0.61598 0.35971 0.9121 0.0
C600 C 0.64014 0.33759 0.9242 0.0
C601 C 0.58551 0.34473 0.90172 0.0
C602 C 0.52591 0.2642 0.9035 0.0
H603 H 0.37361 0.27703 0.83537 0.0
H604 H 0.43031 0.29971 0.85051 0.0
H605 H 0.47972 0.22933 0.90283 0.0
H606 H 0.65168 0.28222 0.93435 0.0
H607 H 0.59871 0.25617 0.91627 0.0
H608 H 0.54949 0.32352 0.86181 0.0
C609 C 0.42469 0.27096 0.85173 0.0
C610 C 0.49497 0.24953 0.89357 0.0
C611 C 0.39196 0.25801 0.84328 0.0
C612 C 0.63325 0.30014 0.92553 0.0
C613 C 0.60287 0.28519 0.91515 0.0
C614 C 0.53439 0.30314 0.871 0.0
C615 C 0.44928 0.24731 0.86226 0.0
C616 C 0.48321 0.26165 0.8723 0.0
C617 C 0.57855 0.30728 0.90316 0.0
C618 C 0.54592 0.29131 0.89239 0.0
H619 H 0.40167 0.16869 0.85693 0.0
H620 H 0.45918 0.19123 0.87151 0.0
H621 H 0.49537 0.29807 0.84454 0.0
H622 H 0.62027 0.3887 0.91096 0.0
H623 H 0.56706 0.36262 0.89289 0.0
C624 C 0.64343 0.38016 0.62032 0.0
C625 C 0.66646 0.35706 0.60806 0.0
C626 C 0.65687 0.41173 0.63042 0.0
C627 C 0.7343 0.47556 0.62763 0.0
H628 H 0.7023 0.50462 0.68722 0.0
C629 C 0.80557 0.58957 0.6769 0.0
C630 C 0.78365 0.61466 0.6884 0.0
C631 C 0.79074 0.55803 0.6677 0.0
C632 C 0.71125 0.49708 0.67047 0.0
H633 H 0.72197 0.34859 0.59752 0.0
H634 H 0.74529 0.40329 0.61506 0.0
H635 H 0.67703 0.45023 0.66988 0.0
H636 H 0.72898 0.62557 0.69969 0.0
H637 H 0.70301 0.57073 0.68341 0.0
H638 H 0.76856 0.52224 0.6282 0.0
C639 C 0.71668 0.39756 0.61647 0.0
C640 C 0.69673 0.46591 0.66051 0.0
C641 C 0.70327 0.36613 0.60638 0.0
C642 C 0.74659 0.60704 0.69078 0.0
C643 C 0.73176 0.5754 0.68163 0.0
C644 C 0.74884 0.50662 0.63758 0.0
C645 C 0.69368 0.4209 0.62853 0.0
C646 C 0.70823 0.45463 0.639 0.0
C647 C 0.75359 0.55067 0.66977 0.0
C648 C 0.73767 0.5177 0.65918 0.0
H649 H 0.61488 0.37417 0.6218 0.0
H650 H 0.6383 0.42927 0.63938 0.0
H651 H 0.74329 0.46815 0.61087 0.0
H652 H 0.8341 0.59468 0.6745 0.0
H653 H 0.80844 0.53937 0.65892 0.0
C654 C 0.11454 0.15631 0.86947 0.0
C655 C 0.13887 0.17917 0.85805 0.0
C656 C 0.08359 0.17053 0.8798 0.0
C657 C 0.04433 0.25626 0.9016 0.0
H658 H 0.9537 0.20433 0.89661 0.0
C659 C 0.90649 0.31799 0.92881 0.0
C660 C 0.88154 0.29461 0.93925 0.0
C661 C 0.93871 0.30438 0.91969 0.0
C662 C 0.97887 0.21899 0.89842 0.0
H663 H 0.14988 0.2351 0.84893 0.0
H664 H 0.09567 0.25971 0.86652 0.0
H665 H 0.00792 0.17949 0.87917 0.0
H666 H 0.87182 0.23886 0.94922 0.0
H667 H 0.9278 0.21523 0.93348 0.0
H668 H 0.01513 0.29585 0.92079 0.0
C669 C 0.10064 0.23081 0.86767 0.0
C670 C 0.01 0.20471 0.88841 0.0
C671 C 0.13152 0.21661 0.85731 0.0
C672 C 0.89004 0.25752 0.9409 0.0
C673 C 0.92217 0.24395 0.93183 0.0
C674 C 0.01315 0.27056 0.91162 0.0
C675 C 0.07624 0.20797 0.87903 0.0
C676 C 0.04315 0.22313 0.88987 0.0
C677 C 0.94671 0.26708 0.92083 0.0
C678 C 0.98002 0.25207 0.91019 0.0
H679 H 0.11916 0.12733 0.87022 0.0
H680 H 0.06559 0.15217 0.8886 0.0
H681 H 0.0695 0.27094 0.90334 0.0
H682 H 0.9006 0.34661 0.92703 0.0
H683 H 0.95683 0.32293 0.91116 0.0
C684 C 0.34336 0.63958 0.12554 0.0
C685 C 0.32115 0.66844 0.1185 0.0
C686 C 0.32837 0.60833 0.13512 0.0
C687 C 0.24341 0.55607 0.13766 0.0
H688 H 0.29097 0.50662 0.18723 0.0
C689 C 0.18358 0.42674 0.17923 0.0
C690 C 0.20821 0.39868 0.18402 0.0
C691 C 0.19591 0.46113 0.17272 0.0
C692 C 0.27748 0.51992 0.17326 0.0
H693 H 0.26567 0.68735 0.11679 0.0
H694 H 0.23955 0.63278 0.13342 0.0
H695 H 0.31524 0.56388 0.17329 0.0
H696 H 0.26518 0.38529 0.1863 0.0
H697 H 0.28656 0.44468 0.17459 0.0
H698 H 0.20594 0.51185 0.13743 0.0
C699 C 0.26857 0.63413 0.13119 0.0
C700 C 0.29142 0.55277 0.16527 0.0
C701 C 0.28357 0.66544 0.12164 0.0
C702 C 0.24541 0.40603 0.18246 0.0
C703 C 0.25771 0.44033 0.17602 0.0
C704 C 0.22949 0.52316 0.14564 0.0
C705 C 0.29075 0.60507 0.1379 0.0
C706 C 0.27479 0.57108 0.14721 0.0
C707 C 0.23316 0.46831 0.17095 0.0
C708 C 0.24659 0.50445 0.16338 0.0
H709 H 0.37234 0.64067 0.12308 0.0
H710 H 0.34624 0.58627 0.13979 0.0
H711 H 0.23017 0.56919 0.12354 0.0
H712 H 0.15477 0.42196 0.18008 0.0
H713 H 0.17625 0.48213 0.16914 0.0
C714 C 0.8958 0.85948 0.36478 0.0
C715 C 0.87069 0.83606 0.35463 0.0
C716 C 0.92717 0.84566 0.37485 0.0
C717 C 0.96661 0.76104 0.39829 0.0
H718 H 0.05795 0.80987 0.38831 0.0
C719 C 0.10427 0.69674 0.42263 0.0
C720 C 0.13063 0.71987 0.43176 0.0
C721 C 0.07207 0.7109 0.41385 0.0
C722 C 0.03261 0.79611 0.39151 0.0
H723 H 0.85849 0.77963 0.34768 0.0
H724 H 0.9133 0.75572 0.36479 0.0
H725 H 0.00279 0.83508 0.37219 0.0
H726 H 0.14305 0.77594 0.43955 0.0
H727 H 0.08714 0.8005 0.42435 0.0
H728 H 0.99648 0.722 0.41755 0.0
C729 C 0.90874 0.78473 0.36512 0.0
C730 C 1.00096 0.81061 0.38226 0.0
C731 C 0.8775 0.79852 0.35503 0.0
C732 C 0.12375 0.75738 0.43222 0.0
C733 C 0.09162 0.7715 0.42349 0.0
C734 C 0.99827 0.74655 0.40754 0.0
C735 C 0.93403 0.80809 0.37511 0.0
C736 C 0.96757 0.79321 0.38548 0.0
C737 C 0.06547 0.74851 0.41404 0.0
C738 C 0.03168 0.76387 0.40424 0.0
H739 H 0.89148 0.88853 0.36467 0.0
H740 H 0.94594 0.86439 0.38259 0.0
H741 H 0.94128 0.74722 0.40138 0.0
H742 H 0.10887 0.66778 0.4218 0.0
H743 H 0.05268 0.69243 0.40647 0.0
C744 C 0.81336 0.01045 0.29529 0.0
C745 C 0.79449 0.99549 0.27693 0.0
C746 C 0.83586 0.04074 0.2922 0.0
C747 C 0.89106 0.08368 0.24851 0.0
H748 H 0.89289 0.16759 0.28768 0.0
C749 C 0.99086 0.20143 0.23175 0.0
C750 C 0.00728 0.21697 0.2508 0.0
C751 C 0.96122 0.17798 0.2342 0.0
C752 C 0.89315 0.14419 0.27669 0.0
H753 H 0.78243 1.00269 0.24135 0.0
H754 H 0.82209 0.05445 0.23598 0.0
H755 H 0.84906 0.11937 0.29455 0.0
H756 H 0.00345 0.22193 0.2872 0.0
H757 H 0.95363 0.18029 0.29154 0.0
H758 H 0.93591 0.10728 0.23117 0.0
C759 C 0.81997 0.04249 0.25264 0.0
C760 C 0.86787 0.11661 0.28064 0.0
C761 C 0.79731 0.01267 0.25576 0.0
C762 C 0.99218 0.20986 0.27216 0.0
C763 C 0.96299 0.18625 0.27463 0.0
C764 C 0.9167 0.1109 0.24476 0.0
C765 C 0.84009 0.05642 0.27068 0.0
C766 C 0.86661 0.08603 0.26661 0.0
C767 C 0.94739 0.16936 0.25576 0.0
C768 C 0.91831 0.14154 0.25886 0.0
H769 H 0.81196 0.99794 0.3118 0.0
H770 H 0.85109 0.05094 0.30643 0.0
H771 H 0.89099 0.06022 0.23753 0.0
H772 H 1.00164 0.2063 0.21505 0.0
H773 H 0.94953 0.1662 0.21918 0.0
C774 C 0.48448 0.28282 0.51529 0.0
C775 C 0.50827 0.28536 0.53371 0.0
C776 C 0.45661 0.30795 0.51238 0.0
C777 C 0.40377 0.38011 0.541 0.0
H778 H 0.39186 0.4173 0.48014 0.0
C779 C 0.32576 0.51172 0.52327 0.0
C780 C 0.30255 0.5134 0.5045 0.0
C781 C 0.34902 0.48238 0.52642 0.0
C782 C 0.39442 0.40688 0.49716 0.0
H783 H 0.52042 0.31539 0.56409 0.0
H784 H 0.47161 0.35961 0.55906 0.0
H785 H 0.43485 0.36847 0.48734 0.0
H786 H 0.28651 0.48587 0.47391 0.0
H787 H 0.32749 0.4341 0.47936 0.0
H788 H 0.36365 0.41881 0.55085 0.0
C789 C 0.47442 0.33793 0.54689 0.0
C790 C 0.4191 0.37884 0.50133 0.0
C791 C 0.50236 0.31258 0.54984 0.0
C792 C 0.30407 0.48537 0.4885 0.0
C793 C 0.32751 0.45576 0.49167 0.0
C794 C 0.3791 0.40813 0.53683 0.0
C795 C 0.45177 0.33644 0.52779 0.0
C796 C 0.42434 0.36529 0.52334 0.0
C797 C 0.3499 0.45371 0.51088 0.0
C798 C 0.37441 0.42219 0.5149 0.0
H799 H 0.48797 0.26173 0.5028 0.0
H800 H 0.43917 0.30536 0.49781 0.0
H801 H 0.40663 0.36998 0.55807 0.0
H802 H 0.32617 0.53329 0.53561 0.0
H803 H 0.36658 0.48233 0.54103 0.0
C804 C 0.98389 0.8284 0.74327 0.0
C805 C 0.9943 0.79243 0.74776 0.0
C806 C 0.00507 0.85742 0.7508 0.0
C807 C 0.07858 0.88264 0.79061 0.0
H808 H 0.09832 0.95759 0.7464 0.0
C809 C 0.1953 0.98797 0.79939 0.0
C810 C 0.18973 0.02237 0.78987 0.0
C811 C 0.16894 0.96084 0.79708 0.0
C812 C 0.09269 0.93733 0.75918 0.0
H813 H 0.03412 0.75893 0.76473 0.0
H814 H 0.07114 0.80935 0.77761 0.0
H815 H 0.05634 0.9093 0.73729 0.0
H816 H 0.15169 0.0565 0.77208 0.0
H817 H 0.10524 0.01006 0.76878 0.0
H818 H 0.11531 0.9107 0.81244 0.0
C819 C 0.04664 0.81522 0.7683 0.0
C820 C 0.06854 0.90954 0.75389 0.0
C821 C 0.02561 0.78626 0.76068 0.0
C822 C 0.15664 0.02996 0.77932 0.0
C823 C 0.13024 1.00322 0.77727 0.0
C824 C 0.1027 0.91064 0.79596 0.0
C825 C 0.03701 0.85115 0.76313 0.0
C826 C 0.06127 0.88173 0.76947 0.0
C827 C 0.13647 0.96789 0.78539 0.0
C828 C 0.11014 0.93835 0.78028 0.0
H829 H 0.96004 0.83409 0.73332 0.0
H830 H 0.99665 0.88481 0.74674 0.0
H831 H 0.07337 0.86177 0.80307 0.0
H832 H 0.22077 0.98158 0.80746 0.0
H833 H 0.17477 0.93395 0.8035 0.0
C834 C 0.65917 0.4983 1.00067 0.0
C835 C 0.69178 0.50112 0.98867 0.0
C836 C 0.63331 0.52579 0.99958 0.0
C837 C 0.62228 0.62292 0.99116 0.0
H838 H 0.52086 0.59782 0.98631 0.0
C839 C 0.50432 0.7137 0.02333 0.0
C840 C 0.47142 0.71289 1.01146 0.0
C841 C 0.53346 0.69188 0.01658 0.0
C842 C 0.54903 0.60553 0.98738 0.0
H843 H 0.72278 0.53465 0.96582 0.0
H844 H 0.67738 0.58371 0.96415 0.0
H845 H 0.56667 0.55116 0.9811 0.0
H846 H 0.44455 0.69086 0.98207 0.0
H847 H 0.49517 0.65301 0.97029 0.0
H848 H 0.60441 0.67724 0.99807 0.0
C849 C 0.67197 0.55991 0.97434 0.0
C850 C 0.5753 0.57866 0.98457 0.0
C851 C 0.69776 0.53187 0.97513 0.0
C852 C 0.46921 0.69158 0.99186 0.0
C853 C 0.49824 0.66983 0.98512 0.0
C854 C 0.59589 0.64987 0.9942 0.0
C855 C 0.63949 0.55713 0.98664 0.0
C856 C 0.61219 0.58684 0.98681 0.0
C857 C 0.53034 0.66879 0.99779 0.0
C858 C 0.55889 0.64136 0.99265 0.0
H859 H 0.65379 0.47476 1.01109 0.0
H860 H 0.60878 0.52292 1.00941 0.0
H861 H 0.6505 0.63001 0.99313 0.0
H862 H 0.5069 0.72955 0.03859 0.0
H863 H 0.55768 0.69161 0.02681 0.0
loop_
_geom_bond_atom_site_label_1
_geom_bond_atom_site_label_2
_geom_bond_distance
_geom_bond_site_symmetry_2
_ccdc_geom_bond_type
C0 C1 1.351 . S
C0 N3 1.368 . S
C0 H5 0.931 . S
C1 C0 1.351 . S
C1 N2 1.373 . S
C1 H29 0.930 . S
N2 C1 1.373 . S
N2 C4 1.340 . S
N3 C0 1.368 . S
N3 C4 1.321 . S
N3 Co6 2.135 . S
C4 N2 1.340 . S
C4 N3 1.321 . S
C4 H28 0.930 . S
H5 C0 0.931 . S
Co6 N3 2.135 . S
Co6 N9 2.121 . S
Co6 O14 2.055 . S
Co6 O17 2.039 . S
Co6 N20 2.140 . S
C7 O8 1.227 . S
C7 O17 1.265 . S
O8 C7 1.227 . S
N9 Co6 2.121 . S
N9 C11 1.375 . S
N9 C12 1.313 . S
C10 C11 1.338 . S
C10 N13 1.377 . S
C10 H30 0.930 . S
C11 N9 1.375 . S
C11 C10 1.338 . S
C11 H15 0.931 . S
C12 N9 1.313 . S
C12 N13 1.344 . S
C12 H16 0.930 . S
N13 C10 1.377 . S
N13 C12 1.344 . S
O14 Co6 2.055 . S
O14 C18 1.253 . S
H15 C11 0.931 . S
H16 C12 0.930 . S
O17 Co6 2.039 . S
O17 C7 1.265 . S
C18 O14 1.253 . S
C18 O19 1.227 . S
O19 C18 1.227 . S
N20 Co6 2.140 . S
N20 C23 1.346 . S
N20 C24 1.345 . S
C21 C22 1.387 . S
C21 C25 1.391 . S
C22 C21 1.387 . S
C22 C23 1.369 . S
C22 H31 0.929 . S
C23 N20 1.346 . S
C23 C22 1.369 . S
C23 H26 0.928 . S
C24 N20 1.345 . S
C24 C25 1.371 . S
C24 H27 0.931 . S
C25 C21 1.391 . S
C25 C24 1.371 . S
C25 H32 0.930 . S
H26 C23 0.928 . S
H27 C24 0.931 . S
H28 C4 0.930 . S
H29 C1 0.930 . S
H30 C10 0.930 . S
H31 C22 0.929 . S
H32 C25 0.930 . S
C33 C34 1.351 . S
C33 N36 1.368 . S
C33 H38 0.931 . S
C34 C33 1.351 . S
C34 N35 1.373 . S
C34 H62 0.930 . S
N35 C34 1.373 . S
N35 C37 1.340 . S
N36 C33 1.368 . S
N36 C37 1.321 . S
N36 Co39 2.135 . S
C37 N35 1.340 . S
C37 N36 1.321 . S
C37 H61 0.930 . S
H38 C33 0.931 . S
Co39 N36 2.135 . S
Co39 N42 2.121 . S
Co39 O47 2.055 . S
Co39 O50 2.039 . S
Co39 N53 2.140 . S
C40 O41 1.227 . S
C40 O50 1.265 . S
O41 C40 1.227 . S
N42 Co39 2.121 . S
N42 C44 1.375 . S
N42 C45 1.313 . S
C43 C44 1.338 . S
C43 N46 1.377 . S
C43 H63 0.930 . S
C44 N42 1.375 . S
C44 C43 1.338 . S
C44 H48 0.931 . S
C45 N42 1.313 . S
C45 N46 1.344 . S
C45 H49 0.930 . S
N46 C43 1.377 . S
N46 C45 1.344 . S
O47 Co39 2.055 . S
O47 C51 1.253 . S
H48 C44 0.931 . S
H49 C45 0.930 . S
O50 Co39 2.039 . S
O50 C40 1.265 . S
C51 O47 1.253 . S
C51 O52 1.227 . S
O52 C51 1.227 . S
N53 Co39 2.140 . S
N53 C56 1.346 . S
N53 C57 1.345 . S
C54 C55 1.387 . S
C54 C58 1.391 . S
C55 C54 1.387 . S
C55 C56 1.369 . S
C55 H64 0.929 . S
C56 N53 1.346 . S
C56 C55 1.369 . S
C56 H59 0.928 . S
C57 N53 1.345 . S
C57 C58 1.371 . S
C57 H60 0.931 . S
C58 C54 1.391 . S
C58 C57 1.371 . S
C58 H65 0.930 . S
H59 C56 0.928 . S
H60 C57 0.931 . S
H61 C37 0.930 . S
H62 C34 0.930 . S
H63 C43 0.930 . S
H64 C55 0.929 . S
H65 C58 0.930 . S
C66 C67 1.351 . S
C66 N69 1.368 . S
C66 H71 0.931 . S
C67 C66 1.351 . S
C67 N68 1.373 . S
C67 H95 0.930 . S
N68 C67 1.373 . S
N68 C70 1.340 . S
N69 C66 1.368 . S
N69 C70 1.321 . S
N69 Co72 2.135 . S
C70 N68 1.340 . S
C70 N69 1.321 . S
C70 H94 0.930 . S
H71 C66 0.931 . S
Co72 N69 2.135 . S
Co72 N75 2.121 . S
Co72 O80 2.055 . S
Co72 O83 2.039 . S
Co72 N86 2.140 . S
C73 O74 1.227 . S
C73 O83 1.265 . S
O74 C73 1.227 . S
N75 Co72 2.121 . S
N75 C77 1.375 . S
N75 C78 1.313 . S
C76 C77 1.338 . S
C76 N79 1.377 . S
C76 H96 0.930 . S
C77 N75 1.375 . S
C77 C76 1.338 . S
C77 H81 0.931 . S
C78 N75 1.313 . S
C78 N79 1.344 . S
C78 H82 0.930 . S
N79 C76 1.377 . S
N79 C78 1.344 . S
O80 Co72 2.055 . S
O80 C84 1.253 . S
H81 C77 0.931 . S
H82 C78 0.930 . S
O83 Co72 2.039 . S
O83 C73 1.265 . S
C84 O80 1.253 . S
C84 O85 1.227 . S
O85 C84 1.227 . S
N86 Co72 2.140 . S
N86 C89 1.346 . S
N86 C90 1.345 . S
C87 C88 1.387 . S
C87 C91 1.391 . S
C88 C87 1.387 . S
C88 C89 1.369 . S
C88 H97 0.929 . S
C89 N86 1.346 . S
C89 C88 1.369 . S
C89 H92 0.928 . S
C90 N86 1.345 . S
C90 C91 1.371 . S
C90 H93 0.931 . S
C91 C87 1.391 . S
C91 C90 1.371 . S
C91 H98 0.930 . S
H92 C89 0.928 . S
H93 C90 0.931 . S
H94 C70 0.930 . S
H95 C67 0.930 . S
H96 C76 0.930 . S
H97 C88 0.929 . S
H98 C91 0.930 . S
C99 C100 1.351 . S
C99 N102 1.368 . S
C99 H104 0.931 . S
C100 C99 1.351 . S
C100 N101 1.373 . S
C100 H128 0.930 . S
N101 C100 1.373 . S
N101 C103 1.340 . S
N102 C99 1.368 . S
N102 C103 1.321 . S
N102 Co105 2.135 . S
C103 N101 1.340 . S
C103 N102 1.321 . S
C103 H127 0.930 . S
H104 C99 0.931 . S
Co105 N102 2.135 . S
Co105 N108 2.121 . S
Co105 O113 2.055 . S
Co105 O116 2.039 . S
Co105 N119 2.140 . S
C106 O107 1.227 . S
C106 O116 1.265 . S
O107 C106 1.227 . S
N108 Co105 2.121 . S
N108 C110 1.375 . S
N108 C111 1.313 . S
C109 C110 1.338 . S
C109 N112 1.377 . S
C109 H129 0.930 . S
C110 N108 1.375 . S
C110 C109 1.338 . S
C110 H114 0.931 . S
C111 N108 1.313 . S
C111 N112 1.344 . S
C111 H115 0.930 . S
N112 C109 1.377 . S
N112 C111 1.344 . S
O113 Co105 2.055 . S
O113 C117 1.253 . S
H114 C110 0.931 . S
H115 C111 0.930 . S
O116 Co105 2.039 . S
O116 C106 1.265 . S
C117 O113 1.253 . S
C117 O118 1.227 . S
O118 C117 1.227 . S
N119 Co105 2.140 . S
N119 C122 1.346 . S
N119 C123 1.345 . S
C120 C121 1.387 . S
C120 C124 1.391 . S
C121 C120 1.387 . S
C121 C122 1.369 . S
C121 H130 0.929 . S
C122 N119 1.346 . S
C122 C121 1.369 . S
C122 H125 0.928 . S
C123 N119 1.345 . S
C123 C124 1.371 . S
C123 H126 0.931 . S
C124 C120 1.391 . S
C124 C123 1.371 . S
C124 H131 0.930 . S
H125 C122 0.928 . S
H126 C123 0.931 . S
H127 C103 0.930 . S
H128 C100 0.930 . S
H129 C109 0.930 . S
H130 C121 0.929 . S
H131 C124 0.930 . S
C132 C133 1.351 . S
C132 N135 1.368 . S
C132 H137 0.931 . S
C133 C132 1.351 . S
C133 N134 1.373 . S
C133 H161 0.930 . S
N134 C133 1.373 . S
N134 C136 1.340 . S
N135 C132 1.368 . S
N135 C136 1.321 . S
N135 Co138 2.135 . S
C136 N134 1.340 . S
C136 N135 1.321 . S
C136 H160 0.930 . S
H137 C132 0.931 . S
Co138 N135 2.135 . S
Co138 N141 2.121 . S
Co138 O146 2.055 . S
Co138 O149 2.039 . S
Co138 N152 2.140 . S
C139 O140 1.227 . S
C139 O149 1.265 . S
O140 C139 1.227 . S
N141 Co138 2.121 . S
N141 C143 1.375 . S
N141 C144 1.313 . S
C142 C143 1.338 . S
C142 N145 1.377 . S
C142 H162 0.930 . S
C143 N141 1.375 . S
C143 C142 1.338 . S
C143 H147 0.931 . S
C144 N141 1.313 . S
C144 N145 1.344 . S
C144 H148 0.930 . S
N145 C142 1.377 . S
N145 C144 1.344 . S
O146 Co138 2.055 . S
O146 C150 1.253 . S
H147 C143 0.931 . S
H148 C144 0.930 . S
O149 Co138 2.039 . S
O149 C139 1.265 . S
C150 O146 1.253 . S
C150 O151 1.227 . S
O151 C150 1.227 . S
N152 Co138 2.140 . S
N152 C155 1.346 . S
N152 C156 1.345 . S
C153 C154 1.387 . S
C153 C157 1.391 . S
C154 C153 1.387 . S
C154 C155 1.369 . S
C154 H163 0.929 . S
C155 N152 1.346 . S
C155 C154 1.369 . S
C155 H158 0.928 . S
C156 N152 1.345 . S
C156 C157 1.371 . S
C156 H159 0.931 . S
C157 C153 1.391 . S
C157 C156 1.371 . S
C157 H164 0.930 . S
H158 C155 0.928 . S
H159 C156 0.931 . S
H160 C136 0.930 . S
H161 C133 0.930 . S
H162 C142 0.930 . S
H163 C154 0.929 . S
H164 C157 0.930 . S
C165 C166 1.351 . S
C165 N168 1.368 . S
C165 H170 0.931 . S
C166 C165 1.351 . S
C166 N167 1.373 . S
C166 H194 0.930 . S
N167 C166 1.373 . S
N167 C169 1.340 . S
N168 C165 1.368 . S
N168 C169 1.321 . S
N168 Co171 2.135 . S
C169 N167 1.340 . S
C169 N168 1.321 . S
C169 H193 0.930 . S
H170 C165 0.931 . S
Co171 N168 2.135 . S
Co171 N174 2.121 . S
Co171 O179 2.055 . S
Co171 O182 2.039 . S
Co171 N185 2.140 . S
C172 O173 1.227 . S
C172 O182 1.265 . S
O173 C172 1.227 . S
N174 Co171 2.121 . S
N174 C176 1.375 . S
N174 C177 1.313 . S
C175 C176 1.338 . S
C175 N178 1.377 . S
C175 H195 0.930 . S
C176 N174 1.375 . S
C176 C175 1.338 . S
C176 H180 0.931 . S
C177 N174 1.313 . S
C177 N178 1.344 . S
C177 H181 0.930 . S
N178 C175 1.377 . S
N178 C177 1.344 . S
O179 Co171 2.055 . S
O179 C183 1.253 . S
H180 C176 0.931 . S
H181 C177 0.930 . S
O182 Co171 2.039 . S
O182 C172 1.265 . S
C183 O179 1.253 . S
C183 O184 1.227 . S
O184 C183 1.227 . S
N185 Co171 2.140 . S
N185 C188 1.346 . S
N185 C189 1.345 . S
C186 C187 1.387 . S
C186 C190 1.391 . S
C187 C186 1.387 . S
C187 C188 1.369 . S
C187 H196 0.929 . S
C188 N185 1.346 . S
C188 C187 1.369 . S
C188 H191 0.928 . S
C189 N185 1.345 . S
C189 C190 1.371 . S
C189 H192 0.931 . S
C190 C186 1.391 . S
C190 C189 1.371 . S
C190 H197 0.930 . S
H191 C188 0.928 . S
H192 C189 0.931 . S
H193 C169 0.930 . S
H194 C166 0.930 . S
H195 C175 0.930 . S
H196 C187 0.929 . S
H197 C190 0.930 . S
C198 C199 1.351 . S
C198 N201 1.368 . S
C198 H203 0.931 . S
C199 C198 1.351 . S
C199 N200 1.373 . S
C199 H227 0.930 . S
N200 C199 1.373 . S
N200 C202 1.340 . S
N201 C198 1.368 . S
N201 C202 1.321 . S
N201 Co204 2.135 . S
C202 N200 1.340 . S
C202 N201 1.321 . S
C202 H226 0.930 . S
H203 C198 0.931 . S
Co204 N201 2.135 . S
Co204 N207 2.121 . S
Co204 O212 2.055 . S
Co204 O215 2.039 . S
Co204 N218 2.140 . S
C205 O206 1.227 . S
C205 O215 1.265 . S
O206 C205 1.227 . S
N207 Co204 2.121 . S
N207 C209 1.375 . S
N207 C210 1.313 . S
C208 C209 1.338 . S
C208 N211 1.377 . S
C208 H228 0.930 . S
C209 N207 1.375 . S
C209 C208 1.338 . S
C209 H213 0.931 . S
C210 N207 1.313 . S
C210 N211 1.344 . S
C210 H214 0.930 . S
N211 C208 1.377 . S
N211 C210 1.344 . S
O212 Co204 2.055 . S
O212 C216 1.253 . S
H213 C209 0.931 . S
H214 C210 0.930 . S
O215 Co204 2.039 . S
O215 C205 1.265 . S
C216 O212 1.253 . S
C216 O217 1.227 . S
O217 C216 1.227 . S
N218 Co204 2.140 . S
N218 C221 1.346 . S
N218 C222 1.345 . S
C219 C220 1.387 . S
C219 C223 1.391 . S
C220 C219 1.387 . S
C220 C221 1.369 . S
C220 H229 0.929 . S
C221 N218 1.346 . S
C221 C220 1.369 . S
C221 H224 0.928 . S
C222 N218 1.345 . S
C222 C223 1.371 . S
C222 H225 0.931 . S
C223 C219 1.391 . S
C223 C222 1.371 . S
C223 H230 0.930 . S
H224 C221 0.928 . S
H225 C222 0.931 . S
H226 C202 0.930 . S
H227 C199 0.930 . S
H228 C208 0.930 . S
H229 C220 0.929 . S
H230 C223 0.930 . S
C231 C232 1.351 . S
C231 N234 1.368 . S
C231 H236 0.931 . S
C232 C231 1.351 . S
C232 N233 1.373 . S
C232 H260 0.930 . S
N233 C232 1.373 . S
N233 C235 1.340 . S
N234 C231 1.368 . S
N234 C235 1.321 . S
N234 Co237 2.135 . S
C235 N233 1.340 . S
C235 N234 1.321 . S
C235 H259 0.930 . S
H236 C231 0.931 . S
Co237 N234 2.135 . S
Co237 N240 2.121 . S
Co237 O245 2.055 . S
Co237 O248 2.039 . S
Co237 N251 2.140 . S
C238 O239 1.227 . S
C238 O248 1.265 . S
O239 C238 1.227 . S
N240 Co237 2.121 . S
N240 C242 1.375 . S
N240 C243 1.313 . S
C241 C242 1.338 . S
C241 N244 1.377 . S
C241 H261 0.930 . S
C242 N240 1.375 . S
C242 C241 1.338 . S
C242 H246 0.931 . S
C243 N240 1.313 . S
C243 N244 1.344 . S
C243 H247 0.930 . S
N244 C241 1.377 . S
N244 C243 1.344 . S
O245 Co237 2.055 . S
O245 C249 1.253 . S
H246 C242 0.931 . S
H247 C243 0.930 . S
O248 Co237 2.039 . S
O248 C238 1.265 . S
C249 O245 1.253 . S
C249 O250 1.227 . S
O250 C249 1.227 . S
N251 Co237 2.140 . S
N251 C254 1.346 . S
N251 C255 1.345 . S
C252 C253 1.387 . S
C252 C256 1.391 . S
C253 C252 1.387 . S
C253 C254 1.369 . S
C253 H262 0.929 . S
C254 N251 1.346 . S
C254 C253 1.369 . S
C254 H257 0.928 . S
C255 N251 1.345 . S
C255 C256 1.371 . S
C255 H258 0.931 . S
C256 C252 1.391 . S
C256 C255 1.371 . S
C256 H263 0.930 . S
H257 C254 0.928 . S
H258 C255 0.931 . S
H259 C235 0.930 . S
H260 C232 0.930 . S
H261 C241 0.930 . S
H262 C253 0.929 . S
H263 C256 0.930 . S
C264 C265 1.349 . S
C264 C266 1.327 . S
C264 H289 0.950 . S
C265 C264 1.349 . S
C265 C281 1.349 . S
C266 C264 1.327 . S
C266 C285 1.429 . S
C266 H290 0.950 . S
C267 C284 1.574 . S
C267 C286 1.368 . S
C267 H291 0.949 . S
H268 C272 0.949 . S
C269 C270 1.349 . S
C269 C271 1.327 . S
C269 H292 0.950 . S
C270 C269 1.349 . S
C270 C282 1.349 . S
C271 C269 1.327 . S
C271 C287 1.429 . S
C271 H293 0.950 . S
C272 H268 0.949 . S
C272 C280 1.574 . S
C272 C288 1.368 . S
H273 C281 0.950 . S
H274 C279 0.950 . S
H275 C280 0.949 . S
H276 C282 0.950 . S
H277 C283 0.950 . S
H278 C284 0.949 . S
C279 H274 0.950 . S
C279 C281 1.327 . S
C279 C285 1.429 . S
C280 C272 1.574 . S
C280 H275 0.949 . S
C280 C286 1.368 . S
C281 C265 1.349 . S
C281 H273 0.950 . S
C281 C279 1.327 . S
C282 C270 1.349 . S
C282 H276 0.950 . S
C282 C283 1.327 . S
C283 H277 0.950 . S
C283 C282 1.327 . S
C283 C287 1.429 . S
C284 C267 1.574 . S
C284 H278 0.949 . S
C284 C288 1.368 . S
C285 C266 1.429 . S
C285 C279 1.429 . S
C285 C286 1.523 . S
C286 C267 1.368 . S
C286 C280 1.368 . S
C286 C285 1.523 . S
C287 C271 1.429 . S
C287 C283 1.429 . S
C287 C288 1.523 . S
C288 C272 1.368 . S
C288 C284 1.368 . S
C288 C287 1.523 . S
H289 C264 0.950 . S
H290 C266 0.950 . S
H291 C267 0.949 . S
H292 C269 0.950 . S
H293 C271 0.950 . S
C294 C295 1.349 . S
C294 C296 1.327 . S
C294 H319 0.950 . S
C295 C294 1.349 . S
C295 C311 1.349 1_655 S
C296 C294 1.327 . S
C296 C315 1.429 1_655 S
C296 H320 0.950 . S
C297 C314 1.574 . S
C297 C316 1.368 . S
C297 H321 0.949 . S
H298 C302 0.949 . S
C299 C300 1.349 . S
C299 C301 1.327 . S
C299 H322 0.950 . S
C300 C299 1.349 . S
C300 C312 1.349 . S
C301 C299 1.327 . S
C301 C317 1.429 . S
C301 H323 0.950 . S
C302 H298 0.949 . S
C302 C310 1.574 . S
C302 C318 1.368 . S
H303 C311 0.950 . S
H304 C309 0.950 . S
H305 C310 0.949 . S
H306 C312 0.950 . S
H307 C313 0.950 . S
H308 C314 0.949 . S
C309 H304 0.950 . S
C309 C311 1.327 . S
C309 C315 1.429 . S
C310 C302 1.574 . S
C310 H305 0.949 . S
C310 C316 1.368 . S
C311 C295 1.349 1_455 S
C311 H303 0.950 . S
C311 C309 1.327 . S
C312 C300 1.349 . S
C312 H306 0.950 . S
C312 C313 1.327 . S
C313 H307 0.950 . S
C313 C312 1.327 . S
C313 C317 1.429 . S
C314 C297 1.574 . S
C314 H308 0.949 . S
C314 C318 1.368 . S
C315 C296 1.429 1_455 S
C315 C309 1.429 . S
C315 C316 1.523 . S
C316 C297 1.368 . S
C316 C310 1.368 . S
C316 C315 1.523 . S
C317 C301 1.429 . S
C317 C313 1.429 . S
C317 C318 1.523 . S
C318 C302 1.368 . S
C318 C314 1.368 . S
C318 C317 1.523 . S
H319 C294 0.950 . S
H320 C296 0.950 . S
H321 C297 0.949 . S
H322 C299 0.950 . S
H323 C301 0.950 . S
C324 C325 1.349 . S
C324 C326 1.327 . S
C324 H349 0.950 . S
C325 C324 1.349 . S
C325 C341 1.349 . S
C326 C324 1.327 . S
C326 C345 1.429 . S
C326 H350 0.950 . S
C327 C344 1.574 . S
C327 C346 1.368 . S
C327 H351 0.949 . S
H328 C332 0.949 . S
C329 C330 1.349 . S
C329 C331 1.327 . S
C329 H352 0.950 . S
C330 C329 1.349 . S
C330 C342 1.349 . S
C331 C329 1.327 . S
C331 C347 1.429 . S
C331 H353 0.950 . S
C332 H328 0.949 . S
C332 C340 1.574 . S
C332 C348 1.368 . S
H333 C341 0.950 . S
H334 C339 0.950 . S
H335 C340 0.949 . S
H336 C342 0.950 . S
H337 C343 0.950 . S
H338 C344 0.949 . S
C339 H334 0.950 . S
C339 C341 1.327 . S
C339 C345 1.429 . S
C340 C332 1.574 . S
C340 H335 0.949 . S
C340 C346 1.368 . S
C341 C325 1.349 . S
C341 H333 0.950 . S
C341 C339 1.327 . S
C342 C330 1.349 . S
C342 H336 0.950 . S
C342 C343 1.327 . S
C343 H337 0.950 . S
C343 C342 1.327 . S
C343 C347 1.429 . S
C344 C327 1.574 . S
C344 H338 0.949 . S
C344 C348 1.368 . S
C345 C326 1.429 . S
C345 C339 1.429 . S
C345 C346 1.523 . S
C346 C327 1.368 . S
C346 C340 1.368 . S
C346 C345 1.523 . S
C347 C331 1.429 . S
C347 C343 1.429 . S
C347 C348 1.523 . S
C348 C332 1.368 . S
C348 C344 1.368 . S
C348 C347 1.523 . S
H349 C324 0.950 . S
H350 C326 0.950 . S
H351 C327 0.949 . S
H352 C329 0.950 . S
H353 C331 0.950 . S
C354 C355 1.349 1_554 S
C354 C356 1.327 . S
C354 H379 0.950 . S
C355 C354 1.349 1_556 S
C355 C371 1.349 . S
C356 C354 1.327 . S
C356 C375 1.429 . S
C356 H380 0.950 . S
C357 C374 1.574 . S
C357 C376 1.368 . S
C357 H381 0.949 . S
H358 C362 0.949 . S
C359 C360 1.349 . S
C359 C361 1.329 1_455 S
C359 H382 0.950 . S
C360 C359 1.349 . S
C360 C372 1.349 1_455 S
C361 C359 1.329 1_655 S
C361 C377 1.426 . S
C361 H383 0.950 1_655 S
C362 H358 0.949 . S
C362 C370 1.574 . S
C362 C378 1.368 . S
H363 C371 0.950 . S
H364 C369 0.950 . S
H365 C370 0.949 . S
H366 C372 0.950 . S
H367 C373 0.950 . S
H368 C374 0.949 . S
C369 H364 0.950 . S
C369 C371 1.327 . S
C369 C375 1.429 1_556 S
C370 C362 1.574 . S
C370 H365 0.949 . S
C370 C376 1.368 . S
C371 C355 1.349 . S
C371 H363 0.950 . S
C371 C369 1.327 . S
C372 C360 1.349 1_655 S
C372 H366 0.950 . S
C372 C373 1.327 . S
C373 H367 0.950 . S
C373 C372 1.327 . S
C373 C377 1.429 . S
C374 C357 1.574 . S
C374 H368 0.949 . S
C374 C378 1.368 . S
C375 C356 1.429 . S
C375 C369 1.429 1_554 S
C375 C376 1.523 . S
C376 C357 1.368 . S
C376 C370 1.368 . S
C376 C375 1.523 . S
C377 C361 1.426 . S
C377 C373 1.429 . S
C377 C378 1.523 . S
C378 C362 1.368 . S
C378 C374 1.368 . S
C378 C377 1.523 . S
H379 C354 0.950 . S
H380 C356 0.950 . S
H381 C357 0.949 . S
H382 C359 0.950 . S
H383 C361 0.950 1_455 S
C384 C385 1.349 . S
C384 C386 1.327 . S
C384 H409 0.950 . S
C385 C384 1.349 . S
C385 C401 1.349 . S
C386 C384 1.327 . S
C386 C405 1.429 . S
C386 H410 0.950 . S
C387 C404 1.574 . S
C387 C406 1.368 . S
C387 H411 0.949 . S
H388 C392 0.949 . S
C389 C390 1.349 1_545 S
C389 C391 1.327 . S
C389 H412 0.950 . S
C390 C389 1.349 1_565 S
C390 C402 1.349 . S
C391 C389 1.327 . S
C391 C407 1.429 . S
C391 H413 0.950 . S
C392 H388 0.949 . S
C392 C400 1.574 . S
C392 C408 1.368 . S
H393 C401 0.950 . S
H394 C399 0.950 . S
H395 C400 0.949 . S
H396 C402 0.950 . S
H397 C403 0.953 . S
H398 C404 0.949 . S
C399 H394 0.950 . S
C399 C401 1.327 . S
C399 C405 1.429 . S
C400 C392 1.574 . S
C400 H395 0.949 . S
C400 C406 1.368 . S
C401 C385 1.349 . S
C401 H393 0.950 . S
C401 C399 1.327 . S
C402 C390 1.349 . S
C402 H396 0.950 . S
C402 C403 1.335 . S
C403 H397 0.953 . S
C403 C402 1.335 . S
C403 C407 1.418 1_565 S
C404 C387 1.574 . S
C404 H398 0.949 . S
C404 C408 1.368 . S
C405 C386 1.429 . S
C405 C399 1.429 . S
C405 C406 1.523 . S
C406 C387 1.368 . S
C406 C400 1.368 . S
C406 C405 1.523 . S
C407 C391 1.429 . S
C407 C403 1.418 1_545 S
C407 C408 1.523 . S
C408 C392 1.368 . S
C408 C404 1.368 . S
C408 C407 1.523 . S
H409 C384 0.950 . S
H410 C386 0.950 . S
H411 C387 0.949 . S
H412 C389 0.950 . S
H413 C391 0.950 . S
C414 C415 1.349 . S
C414 C416 1.327 . S
C414 H439 0.950 . S
C415 C414 1.349 . S
C415 C431 1.349 . S
C416 C414 1.327 . S
C416 C435 1.429 . S
C416 H440 0.950 . S
C417 C434 1.574 . S
C417 C436 1.368 . S
C417 H441 0.949 . S
H418 C422 0.949 . S
C419 C420 1.349 . S
C419 C421 1.327 . S
C419 H442 0.950 . S
C420 C419 1.349 . S
C420 C432 1.349 . S
C421 C419 1.327 . S
C421 C437 1.429 . S
C421 H443 0.950 . S
C422 H418 0.949 . S
C422 C430 1.574 . S
C422 C438 1.368 . S
H423 C431 0.950 . S
H424 C429 0.950 . S
H425 C430 0.949 . S
H426 C432 0.950 . S
H427 C433 0.950 . S
H428 C434 0.949 . S
C429 H424 0.950 . S
C429 C431 1.327 . S
C429 C435 1.429 . S
C430 C422 1.574 . S
C430 H425 0.949 . S
C430 C436 1.368 . S
C431 C415 1.349 . S
C431 H423 0.950 . S
C431 C429 1.327 . S
C432 C420 1.349 . S
C432 H426 0.950 . S
C432 C433 1.327 . S
C433 H427 0.950 . S
C433 C432 1.327 . S
C433 C437 1.429 . S
C434 C417 1.574 . S
C434 H428 0.949 . S
C434 C438 1.368 . S
C435 C416 1.429 . S
C435 C429 1.429 . S
C435 C436 1.523 . S
C436 C417 1.368 . S
C436 C430 1.368 . S
C436 C435 1.523 . S
C437 C421 1.429 . S
C437 C433 1.429 . S
C437 C438 1.523 . S
C438 C422 1.368 . S
C438 C434 1.368 . S
C438 C437 1.523 . S
H439 C414 0.950 . S
H440 C416 0.950 . S
H441 C417 0.949 . S
H442 C419 0.950 . S
H443 C421 0.950 . S
C444 C445 1.349 . S
C444 C446 1.327 1_554 S
C444 H469 0.950 . S
C445 C444 1.349 . S
C445 C461 1.349 . S
C446 C444 1.327 1_556 S
C446 C465 1.429 . S
C446 H470 0.950 . S
C447 C464 1.574 . S
C447 C466 1.368 . S
C447 H471 0.949 . S
H448 C452 0.949 . S
C449 C450 1.349 1_565 S
C449 C451 1.327 . S
C449 H472 0.950 . S
C450 C449 1.349 1_545 S
C450 C462 1.349 . S
C451 C449 1.327 . S
C451 C467 1.429 . S
C451 H473 0.950 . S
C452 H448 0.949 . S
C452 C460 1.574 . S
C452 C468 1.368 . S
H453 C461 0.950 . S
H454 C459 0.950 . S
H455 C460 0.949 . S
H456 C462 0.950 . S
H457 C463 0.950 . S
H458 C464 0.949 . S
C459 H454 0.950 . S
C459 C461 1.327 1_556 S
C459 C465 1.429 . S
C460 C452 1.574 . S
C460 H455 0.949 . S
C460 C466 1.368 . S
C461 C445 1.349 . S
C461 H453 0.950 . S
C461 C459 1.327 1_554 S
C462 C450 1.349 . S
C462 H456 0.950 . S
C462 C463 1.327 . S
C463 H457 0.950 . S
C463 C462 1.327 . S
C463 C467 1.429 1_545 S
C464 C447 1.574 . S
C464 H458 0.949 . S
C464 C468 1.368 . S
C465 C446 1.429 . S
C465 C459 1.429 . S
C465 C466 1.523 . S
C466 C447 1.368 . S
C466 C460 1.368 . S
C466 C465 1.523 . S
C467 C451 1.429 . S
C467 C463 1.429 1_565 S
C467 C468 1.523 . S
C468 C452 1.368 . S
C468 C464 1.368 . S
C468 C467 1.523 . S
H469 C444 0.950 . S
H470 C446 0.950 . S
H471 C447 0.949 . S
H472 C449 0.950 . S
H473 C451 0.950 . S
C474 C475 1.349 . S
C474 C476 1.327 . S
C474 H499 0.950 . S
C475 C474 1.349 . S
C475 C491 1.349 . S
C476 C474 1.327 . S
C476 C495 1.429 . S
C476 H500 0.950 . S
C477 C494 1.574 . S
C477 C496 1.368 . S
C477 H501 0.949 . S
H478 C482 0.949 . S
C479 C480 1.349 . S
C479 C481 1.327 . S
C479 H502 0.950 . S
C480 C479 1.349 . S
C480 C492 1.349 . S
C481 C479 1.327 . S
C481 C497 1.429 . S
C481 H503 0.950 . S
C482 H478 0.949 . S
C482 C490 1.574 . S
C482 C498 1.368 . S
H483 C491 0.950 . S
H484 C489 0.950 . S
H485 C490 0.949 . S
H486 C492 0.950 . S
H487 C493 0.950 . S
H488 C494 0.949 . S
C489 H484 0.950 . S
C489 C491 1.327 . S
C489 C495 1.429 . S
C490 C482 1.574 . S
C490 H485 0.949 . S
C490 C496 1.368 . S
C491 C475 1.349 . S
C491 H483 0.950 . S
C491 C489 1.327 . S
C492 C480 1.349 . S
C492 H486 0.950 . S
C492 C493 1.327 . S
C493 H487 0.950 . S
C493 C492 1.327 . S
C493 C497 1.429 . S
C494 C477 1.574 . S
C494 H488 0.949 . S
C494 C498 1.368 . S
C495 C476 1.429 . S
C495 C489 1.429 . S
C495 C496 1.523 . S
C496 C477 1.368 . S
C496 C490 1.368 . S
C496 C495 1.523 . S
C497 C481 1.429 . S
C497 C493 1.429 . S
C497 C498 1.523 . S
C498 C482 1.368 . S
C498 C494 1.368 . S
C498 C497 1.523 . S
H499 C474 0.950 . S
H500 C476 0.950 . S
H501 C477 0.949 . S
H502 C479 0.950 . S
H503 C481 0.950 . S
C504 C505 1.349 . S
C504 C506 1.327 . S
C504 H529 0.950 . S
C505 C504 1.349 . S
C505 C521 1.349 . S
C506 C504 1.327 . S
C506 C525 1.429 . S
C506 H530 0.950 1_565 S
C507 C524 1.574 . S
C507 C526 1.368 . S
C507 H531 0.949 1_545 S
H508 C512 0.949 . S
C509 C510 1.349 . S
C509 C511 1.327 . S
C509 H532 0.950 . S
C510 C509 1.349 . S
C510 C522 1.349 . S
C511 C509 1.327 . S
C511 C527 1.429 . S
C511 H533 0.950 . S
C512 H508 0.949 . S
C512 C520 1.574 . S
C512 C528 1.368 . S
H513 C521 0.950 . S
H514 C519 0.950 . S
H515 C520 0.949 . S
H516 C522 0.950 . S
H517 C523 0.950 . S
H518 C524 0.949 . S
C519 H514 0.950 . S
C519 C521 1.327 . S
C519 C525 1.429 . S
C520 C512 1.574 . S
C520 H515 0.949 . S
C520 C526 1.368 . S
C521 C505 1.349 . S
C521 H513 0.950 . S
C521 C519 1.327 . S
C522 C510 1.349 . S
C522 H516 0.950 . S
C522 C523 1.327 . S
C523 H517 0.950 . S
C523 C522 1.327 . S
C523 C527 1.429 . S
C524 C507 1.574 . S
C524 H518 0.949 . S
C524 C528 1.368 . S
C525 C506 1.429 . S
C525 C519 1.429 . S
C525 C526 1.523 1_565 S
C526 C507 1.368 . S
C526 C520 1.368 . S
C526 C525 1.523 1_545 S
C527 C511 1.429 . S
C527 C523 1.429 . S
C527 C528 1.523 . S
C528 C512 1.368 . S
C528 C524 1.368 . S
C528 C527 1.523 . S
H529 C504 0.950 . S
H530 C506 0.950 1_545 S
H531 C507 0.949 1_565 S
H532 C509 0.950 . S
H533 C511 0.950 . S
C534 C535 1.349 . S
C534 C536 1.327 . S
C534 H559 0.950 . S
C535 C534 1.349 . S
C535 C551 1.349 . S
C536 C534 1.327 . S
C536 C555 1.429 . S
C536 H560 0.950 . S
C537 C554 1.574 . S
C537 C556 1.368 . S
C537 H561 0.949 . S
H538 C542 0.949 . S
C539 C540 1.349 . S
C539 C541 1.327 . S
C539 H562 0.950 . S
C540 C539 1.349 . S
C540 C552 1.349 . S
C541 C539 1.327 . S
C541 C557 1.429 . S
C541 H563 0.950 . S
C542 H538 0.949 . S
C542 C550 1.574 . S
C542 C558 1.368 . S
H543 C551 0.950 . S
H544 C549 0.950 . S
H545 C550 0.949 . S
H546 C552 0.950 . S
H547 C553 0.950 . S
H548 C554 0.949 . S
C549 H544 0.950 . S
C549 C551 1.327 . S
C549 C555 1.429 . S
C550 C542 1.574 . S
C550 H545 0.949 . S
C550 C556 1.368 . S
C551 C535 1.349 . S
C551 H543 0.950 . S
C551 C549 1.327 . S
C552 C540 1.349 . S
C552 H546 0.950 . S
C552 C553 1.327 . S
C553 H547 0.950 . S
C553 C552 1.327 . S
C553 C557 1.429 . S
C554 C537 1.574 . S
C554 H548 0.949 . S
C554 C558 1.368 . S
C555 C536 1.429 . S
C555 C549 1.429 . S
C555 C556 1.523 . S
C556 C537 1.368 . S
C556 C550 1.368 . S
C556 C555 1.523 . S
C557 C541 1.429 . S
C557 C553 1.429 . S
C557 C558 1.523 . S
C558 C542 1.368 . S
C558 C554 1.368 . S
C558 C557 1.523 . S
H559 C534 0.950 . S
H560 C536 0.950 . S
H561 C537 0.949 . S
H562 C539 0.950 . S
H563 C541 0.950 . S
C564 C565 1.349 . S
C564 C566 1.327 . S
C564 H589 0.950 . S
C565 C564 1.349 . S
C565 C581 1.349 . S
C566 C564 1.327 . S
C566 C585 1.429 . S
C566 H590 0.950 . S
C567 C584 1.574 . S
C567 C586 1.368 . S
C567 H591 0.949 . S
H568 C572 0.949 . S
C569 C570 1.349 . S
C569 C571 1.327 . S
C569 H592 0.950 . S
C570 C569 1.349 . S
C570 C582 1.349 . S
C571 C569 1.327 . S
C571 C587 1.429 . S
C571 H593 0.950 . S
C572 H568 0.949 . S
C572 C580 1.574 . S
C572 C588 1.368 . S
H573 C581 0.950 . S
H574 C579 0.950 1_565 S
H575 C580 0.949 1_545 S
H576 C582 0.950 . S
H577 C583 0.950 . S
H578 C584 0.949 . S
C579 H574 0.950 1_545 S
C579 C581 1.327 . S
C579 C585 1.429 . S
C580 C572 1.574 . S
C580 H575 0.949 1_565 S
C580 C586 1.368 . S
C581 C565 1.349 . S
C581 H573 0.950 . S
C581 C579 1.327 . S
C582 C570 1.349 . S
C582 H576 0.950 . S
C582 C583 1.327 . S
C583 H577 0.950 . S
C583 C582 1.327 . S
C583 C587 1.429 . S
C584 C567 1.574 . S
C584 H578 0.949 . S
C584 C588 1.368 . S
C585 C566 1.429 . S
C585 C579 1.429 . S
C585 C586 1.523 1_545 S
C586 C567 1.368 . S
C586 C580 1.368 . S
C586 C585 1.523 1_565 S
C587 C571 1.429 . S
C587 C583 1.429 . S
C587 C588 1.523 . S
C588 C572 1.368 . S
C588 C584 1.368 . S
C588 C587 1.523 . S
H589 C564 0.950 . S
H590 C566 0.950 . S
H591 C567 0.949 . S
H592 C569 0.950 . S
H593 C571 0.950 . S
C594 C595 1.349 . S
C594 C596 1.327 . S
C594 H619 0.950 . S
C595 C594 1.349 . S
C595 C611 1.349 . S
C596 C594 1.327 . S
C596 C615 1.429 . S
C596 H620 0.950 . S
C597 C614 1.574 . S
C597 C616 1.368 . S
C597 H621 0.949 . S
H598 C602 0.949 . S
C599 C600 1.349 . S
C599 C601 1.327 . S
C599 H622 0.950 . S
C600 C599 1.349 . S
C600 C612 1.349 . S
C601 C599 1.327 . S
C601 C617 1.429 . S
C601 H623 0.950 . S
C602 H598 0.949 . S
C602 C610 1.574 . S
C602 C618 1.368 . S
H603 C611 0.950 . S
H604 C609 0.950 . S
H605 C610 0.949 . S
H606 C612 0.950 . S
H607 C613 0.950 . S
H608 C614 0.949 . S
C609 H604 0.950 . S
C609 C611 1.327 . S
C609 C615 1.429 . S
C610 C602 1.574 . S
C610 H605 0.949 . S
C610 C616 1.368 . S
C611 C595 1.349 . S
C611 H603 0.950 . S
C611 C609 1.327 . S
C612 C600 1.349 . S
C612 H606 0.950 . S
C612 C613 1.327 . S
C613 H607 0.950 . S
C613 C612 1.327 . S
C613 C617 1.429 . S
C614 C597 1.574 . S
C614 H608 0.949 . S
C614 C618 1.368 . S
C615 C596 1.429 . S
C615 C609 1.429 . S
C615 C616 1.523 . S
C616 C597 1.368 . S
C616 C610 1.368 . S
C616 C615 1.523 . S
C617 C601 1.429 . S
C617 C613 1.429 . S
C617 C618 1.523 . S
C618 C602 1.368 . S
C618 C614 1.368 . S
C618 C617 1.523 . S
H619 C594 0.950 . S
H620 C596 0.950 . S
H621 C597 0.949 . S
H622 C599 0.950 . S
H623 C601 0.950 . S
C624 C625 1.349 . S
C624 C626 1.327 . S
C624 H649 0.950 . S
C625 C624 1.349 . S
C625 C641 1.349 . S
C626 C624 1.327 . S
C626 C645 1.429 . S
C626 H650 0.950 . S
C627 C644 1.574 . S
C627 C646 1.368 . S
C627 H651 0.949 . S
H628 C632 0.949 . S
C629 C630 1.349 . S
C629 C631 1.327 . S
C629 H652 0.950 . S
C630 C629 1.349 . S
C630 C642 1.349 . S
C631 C629 1.327 . S
C631 C647 1.429 . S
C631 H653 0.950 . S
C632 H628 0.949 . S
C632 C640 1.574 . S
C632 C648 1.368 . S
H633 C641 0.950 . S
H634 C639 0.950 . S
H635 C640 0.949 . S
H636 C642 0.950 . S
H637 C643 0.950 . S
H638 C644 0.949 . S
C639 H634 0.950 . S
C639 C641 1.327 . S
C639 C645 1.429 . S
C640 C632 1.574 . S
C640 H635 0.949 . S
C640 C646 1.368 . S
C641 C625 1.349 . S
C641 H633 0.950 . S
C641 C639 1.327 . S
C642 C630 1.349 . S
C642 H636 0.950 . S
C642 C643 1.327 . S
C643 H637 0.950 . S
C643 C642 1.327 . S
C643 C647 1.429 . S
C644 C627 1.574 . S
C644 H638 0.949 . S
C644 C648 1.368 . S
C645 C626 1.429 . S
C645 C639 1.429 . S
C645 C646 1.523 . S
C646 C627 1.368 . S
C646 C640 1.368 . S
C646 C645 1.523 . S
C647 C631 1.429 . S
C647 C643 1.429 . S
C647 C648 1.523 . S
C648 C632 1.368 . S
C648 C644 1.368 . S
C648 C647 1.523 . S
H649 C624 0.950 . S
H650 C626 0.950 . S
H651 C627 0.949 . S
H652 C629 0.950 . S
H653 C631 0.950 . S
C654 C655 1.349 . S
C654 C656 1.327 . S
C654 H679 0.950 . S
C655 C654 1.349 . S
C655 C671 1.349 . S
C656 C654 1.327 . S
C656 C675 1.429 . S
C656 H680 0.950 . S
C657 C674 1.574 . S
C657 C676 1.368 . S
C657 H681 0.949 . S
H658 C662 0.949 1_655 S
C659 C660 1.349 . S
C659 C661 1.327 . S
C659 H682 0.950 . S
C660 C659 1.349 . S
C660 C672 1.349 . S
C661 C659 1.327 . S
C661 C677 1.429 . S
C661 H683 0.950 . S
C662 H658 0.949 1_455 S
C662 C670 1.574 . S
C662 C678 1.368 . S
H663 C671 0.950 . S
H664 C669 0.950 . S
H665 C670 0.949 . S
H666 C672 0.950 . S
H667 C673 0.950 . S
H668 C674 0.949 . S
C669 H664 0.950 . S
C669 C671 1.327 . S
C669 C675 1.429 . S
C670 C662 1.574 . S
C670 H665 0.949 . S
C670 C676 1.368 . S
C671 C655 1.349 . S
C671 H663 0.950 . S
C671 C669 1.327 . S
C672 C660 1.349 . S
C672 H666 0.950 . S
C672 C673 1.327 . S
C673 H667 0.950 . S
C673 C672 1.327 . S
C673 C677 1.429 . S
C674 C657 1.574 . S
C674 H668 0.949 . S
C674 C678 1.368 . S
C675 C656 1.429 . S
C675 C669 1.429 . S
C675 C676 1.523 . S
C676 C657 1.368 . S
C676 C670 1.368 . S
C676 C675 1.523 . S
C677 C661 1.429 . S
C677 C673 1.429 . S
C677 C678 1.523 1_655 S
C678 C662 1.368 . S
C678 C674 1.368 . S
C678 C677 1.523 1_455 S
H679 C654 0.950 . S
H680 C656 0.950 . S
H681 C657 0.949 . S
H682 C659 0.950 . S
H683 C661 0.950 . S
C684 C685 1.349 . S
C684 C686 1.327 . S
C684 H709 0.950 . S
C685 C684 1.349 . S
C685 C701 1.349 . S
C686 C684 1.327 . S
C686 C705 1.429 . S
C686 H710 0.950 . S
C687 C704 1.574 . S
C687 C706 1.368 . S
C687 H711 0.949 . S
H688 C692 0.949 . S
C689 C690 1.349 . S
C689 C691 1.327 . S
C689 H712 0.950 . S
C690 C689 1.349 . S
C690 C702 1.349 . S
C691 C689 1.327 . S
C691 C707 1.429 . S
C691 H713 0.950 . S
C692 H688 0.949 . S
C692 C700 1.574 . S
C692 C708 1.368 . S
H693 C701 0.950 . S
H694 C699 0.950 . S
H695 C700 0.949 . S
H696 C702 0.950 . S
H697 C703 0.950 . S
H698 C704 0.949 . S
C699 H694 0.950 . S
C699 C701 1.327 . S
C699 C705 1.429 . S
C700 C692 1.574 . S
C700 H695 0.949 . S
C700 C706 1.368 . S
C701 C685 1.349 . S
C701 H693 0.950 . S
C701 C699 1.327 . S
C702 C690 1.349 . S
C702 H696 0.950 . S
C702 C703 1.327 . S
C703 H697 0.950 . S
C703 C702 1.327 . S
C703 C707 1.429 . S
C704 C687 1.574 . S
C704 H698 0.949 . S
C704 C708 1.368 . S
C705 C686 1.429 . S
C705 C699 1.429 . S
C705 C706 1.523 . S
C706 C687 1.368 . S
C706 C700 1.368 . S
C706 C705 1.523 . S
C707 C691 1.429 . S
C707 C703 1.429 . S
C707 C708 1.523 . S
C708 C692 1.368 . S
C708 C704 1.368 . S
C708 C707 1.523 . S
H709 C684 0.950 . S
H710 C686 0.950 . S
H711 C687 0.949 . S
H712 C689 0.950 . S
H713 C691 0.950 . S
C714 C715 1.349 . S
C714 C716 1.327 . S
C714 H739 0.950 . S
C715 C714 1.349 . S
C715 C731 1.349 . S
C716 C714 1.327 . S
C716 C735 1.429 . S
C716 H740 0.950 . S
C717 C734 1.574 . S
C717 C736 1.368 . S
C717 H741 0.949 . S
H718 C722 0.949 1_455 S
C719 C720 1.349 . S
C719 C721 1.327 . S
C719 H742 0.950 . S
C720 C719 1.349 . S
C720 C732 1.349 . S
C721 C719 1.327 . S
C721 C737 1.429 . S
C721 H743 0.950 . S
C722 H718 0.949 1_655 S
C722 C730 1.574 . S
C722 C738 1.368 . S
H723 C731 0.950 . S
H724 C729 0.950 . S
H725 C730 0.949 . S
H726 C732 0.950 . S
H727 C733 0.950 . S
H728 C734 0.949 . S
C729 H724 0.950 . S
C729 C731 1.327 . S
C729 C735 1.429 . S
C730 C722 1.574 . S
C730 H725 0.949 . S
C730 C736 1.368 . S
C731 C715 1.349 . S
C731 H723 0.950 . S
C731 C729 1.327 . S
C732 C720 1.349 . S
C732 H726 0.950 . S
C732 C733 1.327 . S
C733 H727 0.950 . S
C733 C732 1.327 . S
C733 C737 1.429 . S
C734 C717 1.574 . S
C734 H728 0.949 . S
C734 C738 1.368 . S
C735 C716 1.429 . S
C735 C729 1.429 . S
C735 C736 1.523 . S
C736 C717 1.368 . S
C736 C730 1.368 . S
C736 C735 1.523 . S
C737 C721 1.429 . S
C737 C733 1.429 . S
C737 C738 1.523 1_455 S
C738 C722 1.368 . S
C738 C734 1.368 . S
C738 C737 1.523 1_655 S
H739 C714 0.950 . S
H740 C716 0.950 . S
H741 C717 0.949 . S
H742 C719 0.950 . S
H743 C721 0.950 . S
C744 C745 1.349 . S
C744 C746 1.327 . S
C744 H769 0.950 . S
C745 C744 1.349 . S
C745 C761 1.349 . S
C746 C744 1.327 . S
C746 C765 1.429 . S
C746 H770 0.950 . S
C747 C764 1.574 . S
C747 C766 1.368 . S
C747 H771 0.949 . S
H748 C752 0.949 . S
C749 C750 1.349 . S
C749 C751 1.327 . S
C749 H772 0.950 . S
C750 C749 1.349 . S
C750 C762 1.349 . S
C751 C749 1.327 . S
C751 C767 1.429 . S
C751 H773 0.950 . S
C752 H748 0.949 . S
C752 C760 1.574 . S
C752 C768 1.368 . S
H753 C761 0.950 . S
H754 C759 0.950 . S
H755 C760 0.949 . S
H756 C762 0.950 1_455 S
H757 C763 0.950 . S
H758 C764 0.949 . S
C759 H754 0.950 . S
C759 C761 1.327 . S
C759 C765 1.429 . S
C760 C752 1.574 . S
C760 H755 0.949 . S
C760 C766 1.368 . S
C761 C745 1.349 . S
C761 H753 0.950 . S
C761 C759 1.327 . S
C762 C750 1.349 . S
C762 H756 0.950 1_655 S
C762 C763 1.327 . S
C763 H757 0.950 . S
C763 C762 1.327 . S
C763 C767 1.429 . S
C764 C747 1.574 . S
C764 H758 0.949 . S
C764 C768 1.368 . S
C765 C746 1.429 . S
C765 C759 1.429 . S
C765 C766 1.523 . S
C766 C747 1.368 . S
C766 C760 1.368 . S
C766 C765 1.523 . S
C767 C751 1.429 . S
C767 C763 1.429 . S
C767 C768 1.523 . S
C768 C752 1.368 . S
C768 C764 1.368 . S
C768 C767 1.523 . S
H769 C744 0.950 . S
H770 C746 0.950 . S
H771 C747 0.949 . S
H772 C749 0.950 . S
H773 C751 0.950 . S
C774 C775 1.349 . S
C774 C776 1.327 . S
C774 H799 0.950 . S
C775 C774 1.349 . S
C775 C791 1.349 . S
C776 C774 1.327 . S
C776 C795 1.429 . S
C776 H800 0.950 . S
C777 C794 1.574 . S
C777 C796 1.368 . S
C777 H801 0.949 . S
H778 C782 0.949 . S
C779 C780 1.349 . S
C779 C781 1.327 . S
C779 H802 0.950 . S
C780 C779 1.349 . S
C780 C792 1.349 . S
C781 C779 1.327 . S
C781 C797 1.429 . S
C781 H803 0.950 . S
C782 H778 0.949 . S
C782 C790 1.574 . S
C782 C798 1.368 . S
H783 C791 0.950 . S
H784 C789 0.950 . S
H785 C790 0.949 . S
H786 C792 0.950 . S
H787 C793 0.950 . S
H788 C794 0.949 . S
C789 H784 0.950 . S
C789 C791 1.327 . S
C789 C795 1.429 . S
C790 C782 1.574 . S
C790 H785 0.949 . S
C790 C796 1.368 . S
C791 C775 1.349 . S
C791 H783 0.950 . S
C791 C789 1.327 . S
C792 C780 1.349 . S
C792 H786 0.950 . S
C792 C793 1.327 . S
C793 H787 0.950 . S
C793 C792 1.327 . S
C793 C797 1.429 . S
C794 C777 1.574 . S
C794 H788 0.949 . S
C794 C798 1.368 . S
C795 C776 1.429 . S
C795 C789 1.429 . S
C795 C796 1.523 . S
C796 C777 1.368 . S
C796 C790 1.368 . S
C796 C795 1.523 . S
C797 C781 1.429 . S
C797 C793 1.429 . S
C797 C798 1.523 . S
C798 C782 1.368 . S
C798 C794 1.368 . S
C798 C797 1.523 . S
H799 C774 0.950 . S
H800 C776 0.950 . S
H801 C777 0.949 . S
H802 C779 0.950 . S
H803 C781 0.950 . S
C804 C805 1.349 . S
C804 C806 1.327 . S
C804 H829 0.950 1_455 S
C805 C804 1.349 . S
C805 C821 1.349 . S
C806 C804 1.327 . S
C806 C825 1.429 . S
C806 H830 0.950 . S
C807 C824 1.574 . S
C807 C826 1.368 . S
C807 H831 0.949 . S
H808 C812 0.949 . S
C809 C810 1.349 . S
C809 C811 1.327 . S
C809 H832 0.950 . S
C810 C809 1.349 . S
C810 C822 1.349 . S
C811 C809 1.327 . S
C811 C827 1.429 . S
C811 H833 0.950 . S
C812 H808 0.949 . S
C812 C820 1.574 . S
C812 C828 1.368 . S
H813 C821 0.950 . S
H814 C819 0.950 . S
H815 C820 0.949 . S
H816 C822 0.950 1_545 S
H817 C823 0.950 . S
H818 C824 0.949 . S
C819 H814 0.950 . S
C819 C821 1.327 . S
C819 C825 1.429 . S
C820 C812 1.574 . S
C820 H815 0.949 . S
C820 C826 1.368 . S
C821 C805 1.349 . S
C821 H813 0.950 . S
C821 C819 1.327 . S
C822 C810 1.349 . S
C822 H816 0.950 1_565 S
C822 C823 1.327 . S
C823 H817 0.950 . S
C823 C822 1.327 . S
C823 C827 1.429 . S
C824 C807 1.574 . S
C824 H818 0.949 . S
C824 C828 1.368 . S
C825 C806 1.429 . S
C825 C819 1.429 . S
C825 C826 1.523 . S
C826 C807 1.368 . S
C826 C820 1.368 . S
C826 C825 1.523 . S
C827 C811 1.429 . S
C827 C823 1.429 . S
C827 C828 1.523 . S
C828 C812 1.368 . S
C828 C824 1.368 . S
C828 C827 1.523 . S
H829 C804 0.950 1_655 S
H830 C806 0.950 . S
H831 C807 0.949 . S
H832 C809 0.950 . S
H833 C811 0.950 . S
C834 C835 1.349 . S
C834 C836 1.327 . S
C834 H859 0.950 . S
C835 C834 1.349 . S
C835 C851 1.349 . S
C836 C834 1.327 . S
C836 C855 1.429 . S
C836 H860 0.950 . S
C837 C854 1.574 . S
C837 C856 1.368 1_554 S
C837 H861 0.949 . S
H838 C842 0.949 . S
C839 C840 1.349 . S
C839 C841 1.327 . S
C839 H862 0.950 . S
C840 C839 1.349 . S
C840 C852 1.349 . S
C841 C839 1.327 . S
C841 C857 1.429 . S
C841 H863 0.950 . S
C842 H838 0.949 . S
C842 C850 1.574 . S
C842 C858 1.368 1_556 S
H843 C851 0.950 . S
H844 C849 0.950 1_554 S
H845 C850 0.949 . S
H846 C852 0.950 . S
H847 C853 0.950 1_556 S
H848 C854 0.949 . S
C849 H844 0.950 1_556 S
C849 C851 1.327 . S
C849 C855 1.429 . S
C850 C842 1.574 . S
C850 H845 0.949 . S
C850 C856 1.368 . S
C851 C835 1.349 . S
C851 H843 0.950 . S
C851 C849 1.327 . S
C852 C840 1.349 . S
C852 H846 0.950 . S
C852 C853 1.327 . S
C853 H847 0.950 1_554 S
C853 C852 1.327 . S
C853 C857 1.429 . S
C854 C837 1.574 . S
C854 H848 0.949 . S
C854 C858 1.368 . S
C855 C836 1.429 . S
C855 C849 1.429 . S
C855 C856 1.523 . S
C856 C837 1.368 1_556 S
C856 C850 1.368 . S
C856 C855 1.523 . S
C857 C841 1.429 . S
C857 C853 1.429 . S
C857 C858 1.523 . S
C858 C842 1.368 1_554 S
C858 C854 1.368 . S
C858 C857 1.523 . S
H859 C834 0.950 . S
H860 C836 0.950 . S
H861 C837 0.949 . S
H862 C839 0.950 . S
H863 C841 0.950 . S
C265 C18 1.087 . S
C270 C40 1.086 . S
C295 C73 1.086 . S
C300 C51 1.087 . S
C325 C106 1.086 . S
C330 C84 1.087 . S
C355 C117 1.087 . S
C360 C7 1.086 . S
C385 C150 1.087 . S
C390 C238 1.086 . S
C415 C183 1.087 . S
C420 C139 1.086 . S
C445 C216 1.087 . S
C450 C172 1.086 . S
C475 C249 1.087 . S
C480 C205 1.086 . S
C505 N211 1.646 . S
C510 C21 1.686 . S
C535 N244 1.646 . S
C540 C54 1.686 . S
C565 N145 1.646 . S
C570 C87 1.686 . S
C595 N178 1.646 . S
C600 C120 1.686 . S
C625 C153 1.686 . S
C630 N79 1.646 . S
C655 C186 1.686 . S
C660 N112 1.646 . S
C685 C219 1.686 . S
C690 N13 1.646 . S
C715 C252 1.686 . S
C720 N46 1.646 . S
C745 N233 1.164 1_545 S
C750 N2 1.164 1_655 S
C775 N134 1.164 . S
C780 N35 1.164 . S
C805 N68 1.164 1_455 S
C810 N167 1.164 1_565 S
C835 N101 1.164 . S
C840 N200 1.164 . S
