# Generated by pormake.
# Topology bcg, (8)-cn, num edge types: 1
# Building blocks:
#     Node 0, Type 0, BuildingBlock: LIZSOE_clean_sbu_0, # of connection points: 8
#     Node 1, Type 0, BuildingBlock: LIZSOE_clean_sbu_0, # of connection points: 8
#     Node 2, Type 0, BuildingBlock: LIZSOE_clean_sbu_0, # of connection points: 8
#     Node 3, Type 0, BuildingBlock: LIZSOE_clean_sbu_0, # of connection points: 8
#     Edge 4, Type (0, 0), BuildingBlock: KIFKEQ_clean_linker_1, # of connection points: 2
#     Edge 5, Type (0, 0), BuildingBlock: KIFKEQ_clean_linker_1, # of connection points: 2
#     Edge 6, Type (0, 0), BuildingBlock: KIFKEQ_clean_linker_1, # of connection points: 2
#     Edge 7, Type (0, 0), BuildingBlock: KIFKEQ_clean_linker_1, # of connection points: 2
#     Edge 8, Type (0, 0), BuildingBlock: KIFKEQ_clean_linker_1, # of connection points: 2
#     Edge 9, Type (0, 0), BuildingBlock: KIFKEQ_clean_linker_1, # of connection points: 2
#     Edge 10, Type (0, 0), BuildingBlock: KIFKEQ_clean_linker_1, # of connection points: 2
#     Edge 11, Type (0, 0), BuildingBlock: KIFKEQ_clean_linker_1, # of connection points: 2
#     Edge 12, Type (0, 0), BuildingBlock: KIFKEQ_clean_linker_1, # of connection points: 2
#     Edge 13, Type (0, 0), BuildingBlock: KIFKEQ_clean_linker_1, # of connection points: 2
#     Edge 14, Type (0, 0), BuildingBlock: KIFKEQ_clean_linker_1, # of connection points: 2
#     Edge 15, Type (0, 0), BuildingBlock: KIFKEQ_clean_linker_1, # of connection points: 2
#     Edge 16, Type (0, 0), BuildingBlock: KIFKEQ_clean_linker_1, # of connection points: 2
#     Edge 17, Type (0, 0), BuildingBlock: KIFKEQ_clean_linker_1, # of connection points: 2
#     Edge 18, Type (0, 0), BuildingBlock: KIFKEQ_clean_linker_1, # of connection points: 2
#     Edge 19, Type (0, 0), BuildingBlock: KIFKEQ_clean_linker_1, # of connection points: 2
# Relax obj value: 0.238
# Max RMSD: 0.309
# Mean RMSD: 0.309
data_MOF--net-bcg--node1-LIZSOE_clean_sbu_0--edge1-KIFKEQ_clean_linker_1
_symmetry_space_group_name_H-M    P1
_symmetry_Int_Tables_number       1
_symmetry_cell_setting            triclinic
loop_
_symmetry_equiv_pos_as_xyz
'x, y, z'
_cell_length_a     21.959993
_cell_length_b     22.280821
_cell_length_c     22.289326
_cell_angle_alpha  90.087319
_cell_angle_beta   90.042034
_cell_angle_gamma 90.974064
loop_
_atom_site_label
_atom_site_type_symbol
_atom_site_fract_x
_atom_site_fract_y
_atom_site_fract_z
_atom_type_partial_charge
Co0 Co 0.11478 0.27752 0.02398 0.0
N1 N 0.04761 0.25368 0.06675 0.0
C2 C 0.04187 0.22999 0.12241 0.0
N3 N 0.9504 0.23071 0.08404 0.0
C4 C 0.991 0.25351 0.04461 0.0
C5 C 0.98165 0.21673 0.13356 0.0
Co6 Co 0.40295 0.28525 0.99989 0.0
N7 N 0.46785 0.30524 0.94776 0.0
N8 N 0.56021 0.30961 0.90413 0.0
C9 C 0.52925 0.35795 0.8871 0.0
C10 C 0.47291 0.3548 0.91282 0.0
C11 C 0.5209 0.2769 0.93807 0.0
Co12 Co 0.25854 0.27776 1.01609 0.0
C13 C 0.39485 0.24379 0.07793 0.0
H14 H 0.43924 0.38869 0.90729 0.0
O15 O 0.17672 0.29885 0.97604 0.0
O16 O 0.29084 0.25699 0.92915 0.0
O17 O 0.23078 0.18897 1.01693 0.0
O18 O 0.22442 0.29726 0.10349 0.0
O19 O 0.13395 0.33462 0.08032 0.0
O20 O 0.3817 0.22101 0.95125 0.0
O21 O 0.342 0.25728 0.05271 0.0
O22 O 0.35611 0.33913 0.9563 0.0
O23 O 0.15527 0.21759 0.06914 0.0
O24 O 0.1025 0.22653 0.96697 0.0
O25 O 0.28794 0.36621 1.01708 0.0
O26 O 0.44386 0.24114 0.04586 0.0
C27 C 0.1833 0.1749 0.04661 0.0
C28 C 0.53719 0.21757 0.9652 0.0
H29 H 0.49718 0.18657 0.96547 0.0
H30 H 0.57406 0.19615 0.93927 0.0
H31 H 0.55368 0.22471 1.0118 0.0
C32 C 0.33857 0.2264 0.91438 0.0
C33 C 0.17569 0.32674 0.11848 0.0
H34 H 0.07891 0.22139 0.1526 0.0
H35 H 0.01051 0.31002 0.96841 0.0
H36 H 0.93015 0.29646 0.98159 0.0
H37 H 0.97609 0.23809 0.95106 0.0
C38 C 0.97591 0.2763 0.98306 0.0
C39 C 0.13973 0.26496 0.94205 0.0
C40 C 0.33541 0.38072 0.98746 0.0
H41 H 0.96216 0.19949 0.17481 0.0
H42 H 0.54866 0.39655 0.86411 0.0
Co43 Co 0.60491 0.77258 1.01013 0.0
N44 N 0.53598 0.74257 0.04427 0.0
C45 C 0.52936 0.7161 0.09859 0.0
N46 N 0.44661 0.69413 0.04783 0.0
C47 C 0.48558 0.72716 1.01408 0.0
C48 C 0.47377 0.6877 0.10128 0.0
Co49 Co 0.89669 0.79268 1.00036 0.0
N50 N 0.95853 0.80107 0.94457 0.0
N51 N 0.04621 0.79235 0.89411 0.0
C52 C 0.02637 0.84865 0.88738 0.0
C53 C 0.97379 0.85415 0.91913 0.0
C54 C 1.00209 0.76347 0.92578 0.0
Co55 Co 0.75404 0.78821 1.01742 0.0
C56 C 0.88406 0.74627 0.07722 0.0
H57 H 0.95165 0.89597 0.92721 0.0
O58 O 0.66978 0.8023 0.97563 0.0
O59 O 0.78284 0.77111 0.92957 0.0
O60 O 0.73277 0.69607 0.02713 0.0
O61 O 0.7257 0.8051 0.10304 0.0
O62 O 0.62894 0.79093 0.08567 0.0
O63 O 0.86432 0.72688 0.95749 0.0
O64 O 0.8401 0.78196 0.05817 0.0
O65 O 0.85334 0.8517 0.95683 0.0
O66 O 0.6325 0.69922 1.01398 0.0
O67 O 0.5828 0.84731 1.00469 0.0
O68 O 0.77728 0.87731 1.01177 0.0
O69 O 0.93158 0.73971 0.04345 0.0
C70 C 0.67966 0.66977 0.02196 0.0
C71 C 0.00856 0.70008 0.94772 0.0
H72 H 0.96381 0.67697 0.95193 0.0
H73 H 0.03723 0.67417 0.9163 0.0
H74 H 0.03123 0.70061 0.99224 0.0
C75 C 0.8281 0.73809 0.91621 0.0
C76 C 0.67093 0.80332 0.12135 0.0
H77 H 0.56313 0.71567 0.1337 0.0
H78 H 0.474 0.79544 0.94776 0.0
H79 H 0.43164 0.72663 0.93214 0.0
H80 H 0.51328 0.73043 0.92237 0.0
C81 C 0.4748 0.74572 0.95037 0.0
C82 C 0.62931 0.84554 0.96848 0.0
C83 C 0.82603 0.89272 0.98399 0.0
H84 H 0.45317 0.66717 0.1405 0.0
H85 H 0.05374 0.8859 0.8706 0.0
Co86 Co 0.39854 0.7706 0.56879 0.0
N87 N 0.46616 0.72249 0.55922 0.0
C88 C 0.50343 0.72761 0.51129 0.0
N89 N 0.54645 0.66259 0.57133 0.0
C90 C 0.49359 0.6819 0.59514 0.0
C91 C 0.55171 0.69063 0.51816 0.0
Co92 Co 0.11395 0.79573 0.51655 0.0
N93 N 0.03864 0.80345 0.55402 0.0
N94 N 0.94287 0.78637 0.58457 0.0
C95 C 0.95961 0.84143 0.60318 0.0
C96 C 0.01813 0.85198 0.58395 0.0
C97 C 0.99139 0.76357 0.55603 0.0
Co98 Co 0.26029 0.79678 0.52855 0.0
C99 C 0.13722 0.76963 0.43841 0.0
H100 H 0.04365 0.8927 0.59199 0.0
O101 O 0.33593 0.81941 0.58333 0.0
O102 O 0.21367 0.76615 0.60532 0.0
O103 O 0.288 0.71002 0.50725 0.0
O104 O 0.30862 0.824 0.45566 0.0
O105 O 0.39169 0.77544 0.48346 0.0
O106 O 0.13142 0.72772 0.56213 0.0
O107 O 0.18524 0.78023 0.47388 0.0
O108 O 0.14756 0.84785 0.57552 0.0
O109 O 0.35092 0.70153 0.5801 0.0
O110 O 0.40072 0.77007 0.64419 0.0
O111 O 0.23125 0.88271 0.53821 0.0
O112 O 0.08502 0.75459 0.46089 0.0
C113 C 0.32413 0.67733 0.53736 0.0
C114 C 0.99249 0.70045 0.53152 0.0
H115 H 0.03836 0.68114 0.53219 0.0
H116 H 0.96216 0.67012 0.55782 0.0
H117 H 0.97604 0.70072 0.48444 0.0
C118 C 0.16357 0.73464 0.60864 0.0
C119 C 0.36154 0.80331 0.44403 0.0
H120 H 0.49859 0.75929 0.47502 0.0
H121 H 0.47888 0.69789 0.689 0.0
H122 H 0.49277 0.62057 0.67022 0.0
H123 H 0.42026 0.65331 0.65368 0.0
C124 C 0.46997 0.66208 0.65533 0.0
C125 C 0.35766 0.8085 0.63824 0.0
C126 C 0.17889 0.89275 0.55998 0.0
H127 H 0.59151 0.68999 0.48949 0.0
H128 H 0.93133 0.87183 0.62833 0.0
Co129 Co 0.6292 0.29033 0.48654 0.0
N130 N 0.55736 0.32968 0.51044 0.0
C131 C 0.51608 0.34603 0.46872 0.0
N132 N 0.46749 0.34758 0.55485 0.0
C133 C 0.52667 0.33432 0.56282 0.0
C134 C 0.46126 0.35639 0.49562 0.0
Co135 Co 0.8842 0.29698 0.56964 0.0
N136 N 0.96861 0.28482 0.56101 0.0
N137 N 0.06561 0.25563 0.5678 0.0
C138 C 0.06159 0.295 0.52249 0.0
C139 C 1.00246 0.31304 0.51865 0.0
C140 C 0.00895 0.25022 0.59083 0.0
Co141 Co 0.74858 0.28286 0.51718 0.0
C142 C 0.85948 0.34387 0.59294 0.0
H143 H 0.98537 0.34569 0.48734 0.0
O144 O 0.69237 0.24743 0.45108 0.0
O145 O 0.79664 0.2023 0.51482 0.0
O146 O 0.69527 0.24767 0.5866 0.0
O147 O 0.70126 0.36467 0.52074 0.0
O148 O 0.64997 0.35457 0.4372 0.0
O149 O 0.87041 0.21606 0.58364 0.0
O150 O 0.80704 0.31361 0.58264 0.0
O151 O 0.88365 0.28049 0.4854 0.0
O152 O 0.61024 0.2272 0.53766 0.0
O153 O 0.59107 0.25456 0.43188 0.0
O154 O 0.80063 0.31724 0.4483 0.0
O155 O 0.88758 0.37543 0.55181 0.0
C156 C 0.64192 0.22239 0.58466 0.0
C157 C 0.9933 0.20806 0.64104 0.0
H158 H 0.9474 0.215 0.65923 0.0
H159 H 0.99662 0.16141 0.62431 0.0
H160 H 0.02694 0.21282 0.67767 0.0
C161 C 0.83991 0.18188 0.54879 0.0
C162 C 0.66894 0.38872 0.47854 0.0
H163 H 0.52368 0.3449 0.42079 0.0
H164 H 0.53227 0.30267 0.65196 0.0
H165 H 0.54659 0.38026 0.64412 0.0
H166 H 0.60538 0.3303 0.62055 0.0
C167 C 0.55551 0.33607 0.62317 0.0
C168 C 0.64326 0.23384 0.41859 0.0
C169 C 0.85584 0.30174 0.4414 0.0
H170 H 0.41829 0.36194 0.47257 0.0
H171 H 0.09959 0.31204 0.49626 0.0
H172 H 0.60473 0.37551 0.99262 0.0
H173 H 0.65299 0.24923 0.85497 0.0
H174 H 0.69551 0.35235 0.04813 0.0
H175 H 0.74879 0.22999 0.90672 0.0
H176 H 0.87415 0.14946 0.03593 0.0
H177 H 0.77746 0.17523 0.98911 0.0
H178 H 0.79576 0.35487 0.06317 0.0
H179 H 0.88768 0.32561 0.11428 0.0
C180 C 0.63731 0.34538 0.97272 0.0
C181 C 0.62267 0.3137 0.92023 0.0
C182 C 0.68922 0.33162 1.00459 0.0
C183 C 0.7288 0.28781 0.9829 0.0
C184 C 0.71778 0.26191 0.92608 0.0
C185 C 0.66422 0.2741 0.89533 0.0
C186 C 0.85462 0.19293 0.04472 0.0
C187 C 0.88663 0.23576 0.07856 0.0
C188 C 0.80075 0.20862 1.01647 0.0
C189 C 0.77997 0.26795 0.02036 0.0
C190 C 0.80972 0.30872 0.05918 0.0
C191 C 0.862 0.29207 0.08915 0.0
H192 H 0.09536 0.83482 0.99265 0.0
H193 H 0.13045 0.72623 0.83671 0.0
H194 H 0.18562 0.79934 0.04021 0.0
H195 H 0.22794 0.6962 0.88068 0.0
H196 H 0.37282 0.61349 0.9935 0.0
H197 H 0.27107 0.63644 0.95502 0.0
H198 H 0.28592 0.81206 0.03903 0.0
H199 H 0.38191 0.78512 0.08196 0.0
C200 C 0.12502 0.8057 0.96742 0.0
C201 C 0.10758 0.78382 0.91103 0.0
C202 C 0.17667 0.78514 0.99453 0.0
C203 C 0.2145 0.74535 0.96407 0.0
C204 C 0.19894 0.72601 0.9057 0.0
C205 C 0.14461 0.74433 0.87968 0.0
C206 C 0.35165 0.6552 1.00588 0.0
C207 C 0.38304 0.69757 0.04082 0.0
C208 C 0.29476 0.66918 0.98282 0.0
C209 C 0.27066 0.72634 0.99334 0.0
C210 C 0.30174 0.76698 0.03119 0.0
C211 C 0.35661 0.75185 0.05608 0.0
H212 H 0.58745 0.70284 0.6783 0.0
H213 H 0.62782 0.58429 0.53128 0.0
H214 H 0.69418 0.71433 0.69901 0.0
H215 H 0.73446 0.58867 0.5571 0.0
H216 H 0.86889 0.73777 0.50135 0.0
H217 H 0.77726 0.67833 0.5198 0.0
H218 H 0.79905 0.70736 0.71105 0.0
H219 H 0.88773 0.77177 0.68927 0.0
C220 C 0.61841 0.67451 0.65397 0.0
C221 C 0.59898 0.64244 0.60295 0.0
C222 C 0.68032 0.68132 0.6658 0.0
C223 C 0.72282 0.65498 0.62724 0.0
C224 C 0.70251 0.61157 0.58581 0.0
C225 C 0.64095 0.60721 0.5721 0.0
C226 C 0.85376 0.7309 0.5471 0.0
C227 C 0.88577 0.75685 0.59489 0.0
C228 C 0.80219 0.69582 0.55811 0.0
C229 C 0.78211 0.68556 0.6174 0.0
C230 C 0.81378 0.71312 0.66503 0.0
C231 C 0.8644 0.74958 0.65328 0.0
H232 H 0.10768 0.28656 0.6766 0.0
H233 H 0.15147 0.18983 0.51534 0.0
H234 H 0.21527 0.29083 0.70416 0.0
H235 H 0.25932 0.19472 0.54184 0.0
H236 H 0.44903 0.23132 0.57832 0.0
H237 H 0.35268 0.18481 0.61026 0.0
H238 H 0.27846 0.36122 0.63693 0.0
H239 H 0.3749 0.4069 0.60464 0.0
C240 C 0.14011 0.26303 0.649 0.0
C241 C 0.12202 0.23797 0.59389 0.0
C242 C 0.20162 0.2659 0.66446 0.0
C243 C 0.24555 0.24424 0.62459 0.0
C244 C 0.22645 0.21168 0.57359 0.0
C245 C 0.16492 0.20901 0.55813 0.0
C246 C 0.41294 0.25971 0.59428 0.0
C247 C 0.41889 0.32247 0.58994 0.0
C248 C 0.35791 0.23322 0.61211 0.0
C249 C 0.3082 0.26936 0.62605 0.0
C250 C 0.31634 0.33221 0.62739 0.0
C251 C 0.37119 0.35858 0.60874 0.0
H252 H 0.64595 0.6076 0.1223 0.0
H253 H 0.66297 0.58996 0.93097 0.0
H254 H 0.55798 0.53856 0.12099 0.0
H255 H 0.57454 0.52193 0.9293 0.0
H256 H 0.36611 0.48816 0.93461 0.0
H257 H 0.46191 0.54515 0.94651 0.0
H258 H 0.51031 0.43326 0.09601 0.0
H259 H 0.4149 0.37543 0.08282 0.0
C260 C 0.63398 0.5858 0.08032 0.0
C261 C 0.66369 0.60428 0.0269 0.0
C262 C 0.58185 0.54728 0.07933 0.0
C263 C 0.55714 0.52573 0.02476 0.0
C264 C 0.59076 0.53852 0.97223 0.0
C265 C 0.64333 0.57616 0.97345 0.0
C266 C 0.39591 0.47708 0.97157 0.0
C267 C 0.38122 0.42771 1.00867 0.0
C268 C 0.45191 0.50899 0.97758 0.0
C269 C 0.49523 0.49361 0.02165 0.0
C270 C 0.47873 0.44684 0.06146 0.0
C271 C 0.42319 0.41409 0.05457 0.0
H272 H 0.62436 0.43958 0.58397 0.0
H273 H 0.62055 0.45937 0.39201 0.0
H274 H 0.53262 0.5001 0.59189 0.0
H275 H 0.53015 0.51953 0.39902 0.0
H276 H 0.38679 0.66426 0.43167 0.0
H277 H 0.47534 0.60168 0.41844 0.0
H278 H 0.42935 0.50667 0.5815 0.0
H279 H 0.34273 0.572 0.59538 0.0
C280 C 0.60503 0.45807 0.5435 0.0
C281 C 0.63024 0.4436 0.48735 0.0
C282 C 0.55096 0.4918 0.54769 0.0
C283 C 0.52149 0.51451 0.49594 0.0
C284 C 0.55022 0.50406 0.44039 0.0
C285 C 0.60324 0.46965 0.43629 0.0
C286 C 0.39377 0.62817 0.46302 0.0
C287 C 0.35624 0.62308 0.51392 0.0
C288 C 0.44573 0.59216 0.45609 0.0
C289 C 0.46191 0.5489 0.49962 0.0
C290 C 0.42081 0.54021 0.54764 0.0
C291 C 0.36942 0.5767 0.55475 0.0
H292 H 0.15123 0.11234 0.94324 0.0
H293 H 0.12508 0.1141 0.13463 0.0
H294 H 0.05975 0.04833 0.93201 0.0
H295 H 0.03386 0.05174 0.12394 0.0
H296 H 0.89268 0.90002 0.08616 0.0
H297 H 0.98587 0.95914 0.10127 0.0
H298 H 0.95024 0.05607 0.93775 0.0
H299 H 0.85756 0.99496 0.92237 0.0
C300 C 0.12767 0.09694 0.98317 0.0
C301 C 0.1465 0.11791 0.03999 0.0
C302 C 0.07393 0.06151 0.97672 0.0
C303 C 0.03776 0.04541 0.02693 0.0
C304 C 0.05973 0.0625 0.08395 0.0
C305 C 0.11293 0.09794 0.09025 0.0
C306 C 0.90315 0.93586 0.05501 0.0
C307 C 0.8661 0.94385 1.00421 0.0
C308 C 0.95751 0.96943 0.06303 0.0
C309 C 0.97707 1.01233 0.02031 0.0
C310 C 0.93799 0.02281 0.97117 0.0
C311 C 0.88361 0.98893 0.96314 0.0
H312 H 0.86389 0.09347 0.62849 0.0
H313 H 0.8957 0.1465 0.44558 0.0
H314 H 0.95235 0.02873 0.62481 0.0
H315 H 0.98574 0.08312 0.44191 0.0
H316 H 0.12128 0.9193 0.45577 0.0
H317 H 0.03196 0.98288 0.44593 0.0
H318 H 0.06181 0.04914 0.62579 0.0
H319 H 0.1503 0.98447 0.63558 0.0
C320 C 0.88804 0.08903 0.58638 0.0
C321 C 0.87149 0.12439 0.53686 0.0
C322 C 0.94008 0.05318 0.58475 0.0
C323 C 0.97794 0.05198 0.53372 0.0
C324 C 0.95832 0.08301 0.48226 0.0
C325 C 0.90581 0.11867 0.48388 0.0
C326 C 0.11055 0.94976 0.49204 0.0
C327 C 0.14408 0.94783 0.54593 0.0
C328 C 0.05855 0.98561 0.4868 0.0
C329 C 0.0382 1.02024 0.53558 0.0
C330 C 0.07481 0.02197 0.58772 0.0
C331 C 0.12672 0.98606 0.59292 0.0
H332 H 0.67434 0.28525 0.31331 0.0
H333 H 0.60015 0.12241 0.38928 0.0
H334 H 0.59717 0.28123 0.23461 0.0
H335 H 0.52332 0.11753 0.30997 0.0
H336 H 0.4053 0.31699 0.17434 0.0
H337 H 0.48285 0.30072 0.25088 0.0
H338 H 0.49337 0.11499 0.19808 0.0
H339 H 0.41665 0.13193 0.12045 0.0
C340 C 0.64446 0.24608 0.31092 0.0
C341 C 0.64273 0.20513 0.35891 0.0
C342 C 0.59852 0.24502 0.26694 0.0
C343 C 0.55189 0.2008 0.26783 0.0
C344 C 0.55746 0.15316 0.30871 0.0
C345 C 0.60302 0.15493 0.35324 0.0
C346 C 0.42146 0.27185 0.18114 0.0
C347 C 0.40407 0.22579 0.14117 0.0
C348 C 0.46747 0.26288 0.22395 0.0
C349 C 0.49628 0.20707 0.22906 0.0
C350 C 0.47299 0.15879 0.19486 0.0
C351 C 0.42762 0.16814 0.15133 0.0
H352 H 0.6587 0.7246 0.21365 0.0
H353 H 0.6261 0.90765 0.16346 0.0
H354 H 0.57827 0.7301 0.28923 0.0
H355 H 0.54575 0.91369 0.23899 0.0
H356 H 0.38035 0.72769 0.34976 0.0
H357 H 0.46634 0.73291 0.28026 0.0
H358 H 0.51188 0.91066 0.34511 0.0
H359 H 0.42613 0.90453 0.41541 0.0
C360 C 0.63699 0.76725 0.22126 0.0
C361 C 0.65042 0.8162 0.18347 0.0
C362 C 0.58937 0.76994 0.2634 0.0
C363 C 0.55404 0.82192 0.26944 0.0
C364 C 0.57155 0.87282 0.23583 0.0
C365 C 0.61873 0.86981 0.19323 0.0
C366 C 0.4076 0.76856 0.34798 0.0
C367 C 0.39541 0.81609 0.3875 0.0
C368 C 0.45775 0.77122 0.30881 0.0
C369 C 0.49744 0.82165 0.30784 0.0
C370 C 0.48271 0.87099 0.34445 0.0
C371 C 0.43276 0.86797 0.38411 0.0
H372 H 0.32555 0.79992 0.75528 0.0
H373 H 0.4233 0.91368 0.63123 0.0
H374 H 0.40471 0.81762 0.83061 0.0
H375 H 0.5018 0.93291 0.70757 0.0
H376 H 0.58222 0.95182 0.93024 0.0
H377 H 0.50589 0.96285 0.85056 0.0
H378 H 0.53927 0.78227 0.79188 0.0
H379 H 0.6166 0.77159 0.87039 0.0
C380 C 0.36133 0.83248 0.7453 0.0
C381 C 0.36772 0.85439 0.68611 0.0
C382 C 0.40802 0.84105 0.78814 0.0
C383 C 0.46084 0.87494 0.77447 0.0
C384 C 0.4623 0.90564 0.7193 0.0
C385 C 0.41591 0.89613 0.67599 0.0
C386 C 0.57594 0.9156 0.89823 0.0
C387 C 0.60709 0.86116 0.90661 0.0
C388 C 0.53119 0.92162 0.85315 0.0
C389 C 0.5156 0.87316 0.81537 0.0
C390 C 0.54992 0.82046 0.82039 0.0
C391 C 0.5954 0.81477 0.8648 0.0
H392 H 0.36528 0.12101 0.85964 0.0
H393 H 0.37134 0.31232 0.83286 0.0
H394 H 0.44567 0.10903 0.78446 0.0
H395 H 0.45387 0.30063 0.75975 0.0
H396 H 0.65527 0.25738 0.70422 0.0
H397 H 0.57297 0.25455 0.7793 0.0
H398 H 0.46657 0.1378 0.66462 0.0
H399 H 0.54674 0.14233 0.58898 0.0
C400 C 0.38147 0.16032 0.83551 0.0
C401 C 0.36009 0.21753 0.8515 0.0
C402 C 0.42888 0.15356 0.79353 0.0
C403 C 0.45771 0.20398 0.76744 0.0
C404 C 0.43364 0.26087 0.77998 0.0
C405 C 0.385 0.26744 0.82072 0.0
C406 C 0.61564 0.22897 0.69598 0.0
C407 C 0.60761 0.20112 0.63954 0.0
C408 C 0.56791 0.22814 0.73877 0.0
C409 C 0.51232 0.19739 0.72717 0.0
C410 C 0.50807 0.16287 0.67458 0.0
C411 C 0.55465 0.16505 0.63135 0.0
H412 H 0.13069 0.66693 0.37402 0.0
H413 H 0.13056 0.85884 0.35555 0.0
H414 H 0.05695 0.65702 0.29429 0.0
H415 H 0.05981 0.84978 0.27175 0.0
H416 H 0.88465 0.83225 0.16717 0.0
H417 H 0.9602 0.83706 0.24748 0.0
H418 H 0.01169 0.65506 0.20633 0.0
H419 H 0.9341 0.65001 0.12983 0.0
C420 C 0.1185 0.70708 0.34971 0.0
C421 C 0.13717 0.76369 0.37204 0.0
C422 C 0.07425 0.70163 0.30416 0.0
C423 C 0.04888 0.75271 0.27677 0.0
C424 C 0.07491 0.809 0.29292 0.0
C425 C 0.11816 0.8143 0.33968 0.0
C426 C 0.90999 0.79234 0.17744 0.0
C427 C 0.90247 0.7406 0.14168 0.0
C428 C 0.95532 0.79557 0.22257 0.0
C429 C 0.99524 0.74733 0.2332 0.0
C430 C 0.98323 0.69377 0.201 0.0
C431 C 0.93733 0.69031 0.15704 0.0
H432 H 0.9022 0.40774 0.39595 0.0
H433 H 0.90343 0.21694 0.36748 0.0
H434 H 0.99046 0.41962 0.32972 0.0
H435 H 0.99063 0.22804 0.30038 0.0
H436 H 0.11473 0.42255 0.16072 0.0
H437 H 0.03459 0.41894 0.23531 0.0
H438 H 0.09661 0.24577 0.29365 0.0
H439 H 0.17628 0.24899 0.2165 0.0
C440 C 0.91946 0.36848 0.37333 0.0
C441 C 0.89375 0.31152 0.38588 0.0
C442 C 0.97121 0.37503 0.33577 0.0
C443 C 0.99967 0.32474 0.3095 0.0
C444 C 0.97208 0.26808 0.32036 0.0
C445 C 0.92067 0.26168 0.35801 0.0
C446 C 0.11337 0.38473 0.19124 0.0
C447 C 0.1527 0.336 0.18166 0.0
C448 C 0.06621 0.38224 0.23404 0.0
C449 C 0.05656 0.33114 0.27021 0.0
C450 C 0.1005 0.28532 0.26571 0.0
C451 C 0.14801 0.2879 0.22248 0.0
H452 H 0.09417 0.19449 0.85355 0.0
H453 H 0.12072 0.3809 0.90001 0.0
H454 H 0.01708 0.22122 0.78082 0.0
H455 H 0.04564 0.40847 0.82316 0.0
H456 H 0.83981 0.2731 0.69518 0.0
H457 H 0.91166 0.25977 0.77844 0.0
H458 H 0.02024 0.40915 0.71404 0.0
H459 H 0.94865 0.42331 0.63254 0.0
C460 C 0.08572 0.24171 0.8462 0.0
C461 C 0.11485 0.28538 0.88273 0.0
C462 C 0.04035 0.25704 0.80483 0.0
C463 C 0.02376 0.31708 0.79605 0.0
C464 C 0.05664 0.36161 0.82862 0.0
C465 C 0.10098 0.34596 0.87191 0.0
C466 C 0.87742 0.30477 0.70014 0.0
C467 C 0.88799 0.34882 0.65594 0.0
C468 C 0.91959 0.29645 0.74745 0.0
C469 C 0.97331 0.33224 0.75235 0.0
C470 C 0.9802 0.38017 0.71193 0.0
C471 C 0.9384 0.38838 0.66489 0.0
H472 H 0.0935 0.63942 0.64166 0.0
H473 H 0.14255 0.81882 0.69737 0.0
H474 H 1.00515 0.64042 0.70649 0.0
H475 H 0.05437 0.82 0.76422 0.0
H476 H 0.86059 0.83014 0.83915 0.0
H477 H 0.94941 0.8281 0.77321 0.0
H478 H 0.95817 0.63596 0.79622 0.0
H479 H 0.87071 0.63894 0.86216 0.0
C480 C 0.08718 0.67814 0.67033 0.0
C481 C 0.12685 0.72824 0.66516 0.0
C482 C 0.03552 0.67912 0.70753 0.0
C483 C 0.02107 0.73032 0.74172 0.0
C484 C 0.06254 0.77964 0.73873 0.0
C485 C 0.1146 0.77851 0.70135 0.0
C486 C 0.87974 0.78713 0.82785 0.0
C487 C 0.85722 0.73454 0.8556 0.0
C488 C 0.93253 0.78608 0.79152 0.0
C489 C 0.96297 0.73191 0.77911 0.0
C490 C 0.93672 0.67878 0.80289 0.0
C491 C 0.88516 0.68017 0.84026 0.0
loop_
_geom_bond_atom_site_label_1
_geom_bond_atom_site_label_2
_geom_bond_distance
_geom_bond_site_symmetry_2
_ccdc_geom_bond_type
Co0 N1 2.047 . S
Co0 O15 2.262 1_554 S
Co0 O19 1.958 . S
Co0 O23 1.950 1_554 S
Co0 O24 2.057 1_554 S
N1 Co0 2.047 . S
N1 C2 1.359 1_455 S
N1 C4 1.323 1_454 S
C2 N1 1.359 1_655 S
C2 C5 1.377 . S
C2 H34 0.931 . S
N3 C4 1.347 1_554 S
N3 C5 1.335 . S
C4 N1 1.323 1_656 S
C4 N3 1.347 1_556 S
C4 C38 1.361 . S
C5 C2 1.377 . S
C5 N3 1.335 . S
C5 H41 0.930 . S
Co6 N7 2.034 1_554 S
Co6 O20 1.950 1_554 S
Co6 O21 2.262 . S
Co6 O22 1.958 . S
Co6 O26 2.057 . S
N7 Co6 2.034 1_556 S
N7 C10 1.366 . S
N7 C11 1.332 . S
N8 C9 1.337 . S
N8 C11 1.346 . S
C9 N8 1.337 . S
C9 C10 1.377 . S
C9 H42 0.930 . S
C10 N7 1.366 . S
C10 C9 1.377 . S
C10 H14 0.931 . S
C11 N7 1.332 . S
C11 N8 1.346 . S
C11 C28 1.361 . S
Co12 O15 2.097 1_554 S
Co12 O16 2.065 1_554 S
Co12 O17 2.065 . S
Co12 O18 2.042 . S
Co12 O21 2.097 . S
Co12 O25 2.042 1_554 S
C13 O21 1.253 . S
C13 O26 1.263 . S
H14 C10 0.931 . S
O15 Co0 2.262 1_556 S
O15 Co12 2.097 1_556 S
O15 C39 1.253 . S
O16 Co12 2.065 1_556 S
O16 C32 1.221 . S
O17 Co12 2.065 . S
O17 C27 1.221 . S
O18 Co12 2.042 . S
O18 C33 1.237 . S
O19 Co0 1.958 . S
O19 C33 1.278 . S
O20 Co6 1.950 1_556 S
O20 C32 1.277 . S
O21 Co6 2.262 . S
O21 Co12 2.097 . S
O21 C13 1.253 . S
O22 Co6 1.958 . S
O22 C40 1.278 . S
O23 Co0 1.950 1_556 S
O23 C27 1.277 1_556 S
O24 Co0 2.057 1_556 S
O24 C39 1.263 . S
O25 Co12 2.042 1_556 S
O25 C40 1.237 1_556 S
O26 Co6 2.057 . S
O26 C13 1.263 . S
C27 O17 1.221 . S
C27 O23 1.277 1_554 S
C28 C11 1.361 . S
C28 H29 0.960 . S
C28 H30 0.961 . S
C28 H31 0.961 1_556 S
H29 C28 0.960 . S
H30 C28 0.961 . S
H31 C28 0.961 1_554 S
C32 O16 1.221 . S
C32 O20 1.277 . S
C33 O18 1.237 . S
C33 O19 1.278 . S
H34 C2 0.931 . S
H35 C38 0.961 . S
H36 C38 0.961 . S
H37 C38 0.960 1_455 S
C38 C4 1.361 . S
C38 H35 0.961 . S
C38 H36 0.961 . S
C38 H37 0.960 1_655 S
C39 O15 1.253 . S
C39 O24 1.263 . S
C40 O22 1.278 . S
C40 O25 1.237 1_554 S
H41 C5 0.930 . S
H42 C9 0.930 . S
Co43 N44 2.034 . S
Co43 O58 2.262 1_554 S
Co43 O62 1.958 . S
Co43 O66 1.950 1_554 S
Co43 O67 2.057 1_554 S
N44 Co43 2.034 . S
N44 C45 1.366 . S
N44 C47 1.332 1_554 S
C45 N44 1.366 . S
C45 C48 1.377 . S
C45 H77 0.931 . S
N46 C47 1.347 1_554 S
N46 C48 1.335 . S
C47 N44 1.332 1_556 S
C47 N46 1.347 1_556 S
C47 C81 1.361 . S
C48 C45 1.377 . S
C48 N46 1.335 . S
C48 H84 0.930 . S
Co49 N50 2.034 1_554 S
Co49 O63 1.950 1_554 S
Co49 O64 2.262 . S
Co49 O65 1.958 . S
Co49 O69 2.057 . S
N50 Co49 2.034 1_556 S
N50 C53 1.366 1_655 S
N50 C54 1.332 1_655 S
N51 C52 1.337 . S
N51 C54 1.346 . S
C52 N51 1.337 . S
C52 C53 1.377 . S
C52 H85 0.930 . S
C53 N50 1.366 1_455 S
C53 C52 1.377 . S
C53 H57 0.931 1_455 S
C54 N50 1.332 1_455 S
C54 N51 1.346 . S
C54 C71 1.361 . S
Co55 O58 2.097 1_554 S
Co55 O59 2.065 1_554 S
Co55 O60 2.065 . S
Co55 O61 2.042 . S
Co55 O64 2.097 . S
Co55 O68 2.042 1_554 S
C56 O64 1.253 . S
C56 O69 1.263 . S
H57 C53 0.931 1_655 S
O58 Co43 2.262 1_556 S
O58 Co55 2.097 1_556 S
O58 C82 1.253 . S
O59 Co55 2.065 1_556 S
O59 C75 1.221 . S
O60 Co55 2.065 . S
O60 C70 1.221 . S
O61 Co55 2.042 . S
O61 C76 1.237 . S
O62 Co43 1.958 . S
O62 C76 1.278 . S
O63 Co49 1.950 1_556 S
O63 C75 1.277 . S
O64 Co49 2.262 . S
O64 Co55 2.097 . S
O64 C56 1.253 . S
O65 Co49 1.958 . S
O65 C83 1.278 . S
O66 Co43 1.950 1_556 S
O66 C70 1.277 1_556 S
O67 Co43 2.057 1_556 S
O67 C82 1.263 . S
O68 Co55 2.042 1_556 S
O68 C83 1.237 1_556 S
O69 Co49 2.057 . S
O69 C56 1.263 . S
C70 O60 1.221 . S
C70 O66 1.277 1_554 S
C71 C54 1.361 . S
C71 H72 0.960 1_455 S
C71 H73 0.961 . S
C71 H74 0.961 1_556 S
H72 C71 0.960 1_655 S
H73 C71 0.961 . S
H74 C71 0.961 1_554 S
C75 O59 1.221 . S
C75 O63 1.277 . S
C76 O61 1.237 . S
C76 O62 1.278 . S
H77 C45 0.931 . S
H78 C81 0.961 . S
H79 C81 0.961 . S
H80 C81 0.960 . S
C81 C47 1.361 . S
C81 H78 0.961 . S
C81 H79 0.961 . S
C81 H80 0.960 . S
C82 O58 1.253 . S
C82 O67 1.263 . S
C83 O65 1.278 . S
C83 O68 1.237 1_554 S
H84 C48 0.930 . S
H85 C52 0.930 . S
Co86 N87 2.034 . S
Co86 O101 2.262 . S
Co86 O105 1.958 . S
Co86 O109 1.950 . S
Co86 O110 2.057 . S
N87 Co86 2.034 . S
N87 C88 1.366 . S
N87 C90 1.332 . S
C88 N87 1.366 . S
C88 C91 1.377 . S
C88 H120 0.931 . S
N89 C90 1.346 . S
N89 C91 1.337 . S
C90 N87 1.332 . S
C90 N89 1.346 . S
C90 C124 1.361 . S
C91 C88 1.377 . S
C91 N89 1.337 . S
C91 H127 0.930 . S
Co92 N93 2.034 . S
Co92 O106 1.950 . S
Co92 O107 2.262 . S
Co92 O108 1.958 . S
Co92 O112 2.057 . S
N93 Co92 2.034 . S
N93 C96 1.366 1_455 S
N93 C97 1.332 1_455 S
N94 C95 1.337 . S
N94 C97 1.346 . S
C95 N94 1.337 . S
C95 C96 1.377 . S
C95 H128 0.930 . S
C96 N93 1.366 1_655 S
C96 C95 1.377 . S
C96 H100 0.931 1_655 S
C97 N93 1.332 1_655 S
C97 N94 1.346 . S
C97 C114 1.361 . S
Co98 O101 2.097 . S
Co98 O102 2.065 . S
Co98 O103 2.065 . S
Co98 O104 2.042 . S
Co98 O107 2.097 . S
Co98 O111 2.042 . S
C99 O107 1.253 . S
C99 O112 1.263 . S
H100 C96 0.931 1_455 S
O101 Co86 2.262 . S
O101 Co98 2.097 . S
O101 C125 1.253 . S
O102 Co98 2.065 . S
O102 C118 1.221 . S
O103 Co98 2.065 . S
O103 C113 1.221 . S
O104 Co98 2.042 . S
O104 C119 1.237 . S
O105 Co86 1.958 . S
O105 C119 1.278 . S
O106 Co92 1.950 . S
O106 C118 1.277 . S
O107 Co92 2.262 . S
O107 Co98 2.097 . S
O107 C99 1.253 . S
O108 Co92 1.958 . S
O108 C126 1.278 . S
O109 Co86 1.950 . S
O109 C113 1.277 . S
O110 Co86 2.057 . S
O110 C125 1.263 . S
O111 Co98 2.042 . S
O111 C126 1.237 . S
O112 Co92 2.057 . S
O112 C99 1.263 . S
C113 O103 1.221 . S
C113 O109 1.277 . S
C114 C97 1.361 . S
C114 H115 0.960 1_655 S
C114 H116 0.961 . S
C114 H117 0.961 . S
H115 C114 0.960 1_455 S
H116 C114 0.961 . S
H117 C114 0.961 . S
C118 O102 1.221 . S
C118 O106 1.277 . S
C119 O104 1.237 . S
C119 O105 1.278 . S
H120 C88 0.931 . S
H121 C124 0.961 . S
H122 C124 0.961 . S
H123 C124 0.960 . S
C124 C90 1.361 . S
C124 H121 0.961 . S
C124 H122 0.961 . S
C124 H123 0.960 . S
C125 O101 1.253 . S
C125 O110 1.263 . S
C126 O108 1.278 . S
C126 O111 1.237 . S
H127 C91 0.930 . S
H128 C95 0.930 . S
Co129 N130 2.034 . S
Co129 O144 2.262 . S
Co129 O148 1.958 . S
Co129 O152 1.950 . S
Co129 O153 2.057 . S
N130 Co129 2.034 . S
N130 C131 1.366 . S
N130 C133 1.332 . S
C131 N130 1.366 . S
C131 C134 1.377 . S
C131 H163 0.931 . S
N132 C133 1.346 . S
N132 C134 1.337 . S
C133 N130 1.332 . S
C133 N132 1.346 . S
C133 C167 1.361 . S
C134 C131 1.377 . S
C134 N132 1.337 . S
C134 H170 0.930 . S
Co135 N136 2.047 . S
Co135 O149 1.950 . S
Co135 O150 2.262 . S
Co135 O151 1.958 . S
Co135 O155 2.057 . S
N136 Co135 2.047 . S
N136 C139 1.359 1_655 S
N136 C140 1.323 1_655 S
N137 C138 1.337 . S
N137 C140 1.346 . S
C138 N137 1.337 . S
C138 C139 1.377 . S
C138 H171 0.930 . S
C139 N136 1.359 1_455 S
C139 C138 1.377 . S
C139 H143 0.931 . S
C140 N136 1.323 1_455 S
C140 N137 1.346 . S
C140 C157 1.361 . S
Co141 O144 2.097 . S
Co141 O145 2.065 . S
Co141 O146 2.065 . S
Co141 O147 2.042 . S
Co141 O150 2.097 . S
Co141 O154 2.042 . S
C142 O150 1.253 . S
C142 O155 1.263 . S
H143 C139 0.931 . S
O144 Co129 2.262 . S
O144 Co141 2.097 . S
O144 C168 1.253 . S
O145 Co141 2.065 . S
O145 C161 1.221 . S
O146 Co141 2.065 . S
O146 C156 1.221 . S
O147 Co141 2.042 . S
O147 C162 1.237 . S
O148 Co129 1.958 . S
O148 C162 1.278 . S
O149 Co135 1.950 . S
O149 C161 1.277 . S
O150 Co135 2.262 . S
O150 Co141 2.097 . S
O150 C142 1.253 . S
O151 Co135 1.958 . S
O151 C169 1.278 . S
O152 Co129 1.950 . S
O152 C156 1.277 . S
O153 Co129 2.057 . S
O153 C168 1.263 . S
O154 Co141 2.042 . S
O154 C169 1.237 . S
O155 Co135 2.057 . S
O155 C142 1.263 . S
C156 O146 1.221 . S
C156 O152 1.277 . S
C157 C140 1.361 . S
C157 H158 0.960 1_455 S
C157 H159 0.961 . S
C157 H160 0.961 . S
H158 C157 0.960 1_655 S
H159 C157 0.961 . S
H160 C157 0.961 . S
C161 O145 1.221 . S
C161 O149 1.277 . S
C162 O147 1.237 . S
C162 O148 1.278 . S
H163 C131 0.931 . S
H164 C167 0.961 . S
H165 C167 0.961 . S
H166 C167 0.960 . S
C167 C133 1.361 . S
C167 H164 0.961 . S
C167 H165 0.961 . S
C167 H166 0.960 . S
C168 O144 1.253 . S
C168 O153 1.263 . S
C169 O151 1.278 . S
C169 O154 1.237 . S
H170 C134 0.930 . S
H171 C138 0.930 . S
H172 C180 0.950 . S
H173 C185 0.950 . S
H174 C182 0.950 . S
H175 C184 0.950 . S
H176 C186 0.950 . S
H177 C188 0.950 . S
H178 C190 0.950 . S
H179 C191 0.950 . S
C180 H172 0.950 . S
C180 C181 1.386 . S
C180 C182 1.391 . S
C181 C180 1.386 . S
C181 C185 1.393 1_554 S
C182 H174 0.950 . S
C182 C180 1.391 . S
C182 C183 1.400 1_554 S
C183 C182 1.400 1_556 S
C183 C184 1.398 . S
C183 C189 1.491 . S
C184 H175 0.950 . S
C184 C183 1.398 . S
C184 C185 1.391 . S
C185 H173 0.950 . S
C185 C181 1.393 1_556 S
C185 C184 1.391 . S
C186 H176 0.950 . S
C186 C187 1.386 . S
C186 C188 1.391 . S
C187 C186 1.386 . S
C187 C191 1.393 1_556 S
C188 H177 0.950 . S
C188 C186 1.391 . S
C188 C189 1.400 . S
C189 C183 1.491 . S
C189 C188 1.400 . S
C189 C190 1.398 1_556 S
C190 H178 0.950 . S
C190 C189 1.398 1_554 S
C190 C191 1.391 . S
C191 H179 0.950 . S
C191 C187 1.393 1_554 S
C191 C190 1.391 . S
H192 C200 0.950 . S
H193 C205 0.950 . S
H194 C202 0.950 . S
H195 C204 0.950 . S
H196 C206 0.950 . S
H197 C208 0.950 . S
H198 C210 0.950 . S
H199 C211 0.950 . S
C200 H192 0.950 . S
C200 C201 1.386 . S
C200 C202 1.391 . S
C201 C200 1.386 . S
C201 C205 1.393 1_554 S
C202 H194 0.950 . S
C202 C200 1.391 . S
C202 C203 1.400 1_554 S
C203 C202 1.400 1_556 S
C203 C204 1.398 . S
C203 C209 1.491 . S
C204 H195 0.950 . S
C204 C203 1.398 . S
C204 C205 1.391 . S
C205 H193 0.950 . S
C205 C201 1.393 1_556 S
C205 C204 1.391 . S
C206 H196 0.950 . S
C206 C207 1.386 . S
C206 C208 1.391 . S
C207 C206 1.386 . S
C207 C211 1.393 1_556 S
C208 H197 0.950 . S
C208 C206 1.391 . S
C208 C209 1.400 . S
C209 C203 1.491 . S
C209 C208 1.400 . S
C209 C210 1.398 1_556 S
C210 H198 0.950 . S
C210 C209 1.398 1_554 S
C210 C211 1.391 . S
C211 H199 0.950 . S
C211 C207 1.393 1_554 S
C211 C210 1.391 . S
H212 C220 0.950 . S
H213 C225 0.950 . S
H214 C222 0.950 . S
H215 C224 0.950 . S
H216 C226 0.950 . S
H217 C228 0.950 . S
H218 C230 0.950 . S
H219 C231 0.950 . S
C220 H212 0.950 . S
C220 C221 1.386 . S
C220 C222 1.391 . S
C221 C220 1.386 . S
C221 C225 1.393 . S
C222 H214 0.950 . S
C222 C220 1.391 . S
C222 C223 1.400 . S
C223 C222 1.400 . S
C223 C224 1.398 . S
C223 C229 1.491 . S
C224 H215 0.950 . S
C224 C223 1.398 . S
C224 C225 1.391 . S
C225 H213 0.950 . S
C225 C221 1.393 . S
C225 C224 1.391 . S
C226 H216 0.950 . S
C226 C227 1.386 . S
C226 C228 1.391 . S
C227 C226 1.386 . S
C227 C231 1.393 . S
C228 H217 0.950 . S
C228 C226 1.391 . S
C228 C229 1.400 . S
C229 C223 1.491 . S
C229 C228 1.400 . S
C229 C230 1.398 . S
C230 H218 0.950 . S
C230 C229 1.398 . S
C230 C231 1.391 . S
C231 H219 0.950 . S
C231 C227 1.393 . S
C231 C230 1.391 . S
H232 C240 0.950 . S
H233 C245 0.950 . S
H234 C242 0.950 . S
H235 C244 0.950 . S
H236 C246 0.950 . S
H237 C248 0.950 . S
H238 C250 0.950 . S
H239 C251 0.950 . S
C240 H232 0.950 . S
C240 C241 1.386 . S
C240 C242 1.391 . S
C241 C240 1.386 . S
C241 C245 1.393 . S
C242 H234 0.950 . S
C242 C240 1.391 . S
C242 C243 1.400 . S
C243 C242 1.400 . S
C243 C244 1.398 . S
C243 C249 1.491 . S
C244 H235 0.950 . S
C244 C243 1.398 . S
C244 C245 1.391 . S
C245 H233 0.950 . S
C245 C241 1.393 . S
C245 C244 1.391 . S
C246 H236 0.950 . S
C246 C247 1.386 . S
C246 C248 1.391 . S
C247 C246 1.386 . S
C247 C251 1.393 . S
C248 H237 0.950 . S
C248 C246 1.391 . S
C248 C249 1.400 . S
C249 C243 1.491 . S
C249 C248 1.400 . S
C249 C250 1.398 . S
C250 H238 0.950 . S
C250 C249 1.398 . S
C250 C251 1.391 . S
C251 H239 0.950 . S
C251 C247 1.393 . S
C251 C250 1.391 . S
H252 C260 0.950 . S
H253 C265 0.950 . S
H254 C262 0.950 . S
H255 C264 0.950 . S
H256 C266 0.950 . S
H257 C268 0.950 . S
H258 C270 0.950 . S
H259 C271 0.950 . S
C260 H252 0.950 . S
C260 C261 1.391 . S
C260 C262 1.391 . S
C261 C260 1.391 . S
C261 C265 1.387 1_554 S
C262 H254 0.950 . S
C262 C260 1.391 . S
C262 C263 1.407 . S
C263 C262 1.407 . S
C263 C264 1.392 1_554 S
C263 C269 1.490 1_554 S
C264 H255 0.950 . S
C264 C263 1.392 1_556 S
C264 C265 1.391 . S
C265 H253 0.950 . S
C265 C261 1.387 1_556 S
C265 C264 1.391 . S
C266 H256 0.950 . S
C266 C267 1.388 . S
C266 C268 1.391 . S
C267 C266 1.388 . S
C267 C271 1.390 1_556 S
C268 H257 0.950 . S
C268 C266 1.391 . S
C268 C269 1.405 . S
C269 C263 1.490 1_556 S
C269 C268 1.405 . S
C269 C270 1.394 1_556 S
C270 H258 0.950 . S
C270 C269 1.394 1_554 S
C270 C271 1.391 . S
C271 H259 0.950 . S
C271 C267 1.390 1_554 S
C271 C270 1.391 . S
H272 C280 0.950 . S
H273 C285 0.950 . S
H274 C282 0.950 . S
H275 C284 0.950 . S
H276 C286 0.950 . S
H277 C288 0.950 . S
H278 C290 0.950 . S
H279 C291 0.950 . S
C280 H272 0.950 . S
C280 C281 1.386 . S
C280 C282 1.391 . S
C281 C280 1.386 . S
C281 C285 1.393 . S
C282 H274 0.950 . S
C282 C280 1.391 . S
C282 C283 1.400 . S
C283 C282 1.400 . S
C283 C284 1.398 . S
C283 C289 1.491 . S
C284 H275 0.950 . S
C284 C283 1.398 . S
C284 C285 1.391 . S
C285 H273 0.950 . S
C285 C281 1.393 . S
C285 C284 1.391 . S
C286 H276 0.950 . S
C286 C287 1.386 . S
C286 C288 1.391 . S
C287 C286 1.386 . S
C287 C291 1.393 . S
C288 H277 0.950 . S
C288 C286 1.391 . S
C288 C289 1.400 . S
C289 C283 1.491 . S
C289 C288 1.400 . S
C289 C290 1.398 . S
C290 H278 0.950 . S
C290 C289 1.398 . S
C290 C291 1.391 . S
C291 H279 0.950 . S
C291 C287 1.393 . S
C291 C290 1.391 . S
H292 C300 0.950 . S
H293 C305 0.950 . S
H294 C302 0.950 1_655 S
H295 C304 0.954 . S
H296 C306 0.950 . S
H297 C308 0.950 . S
H298 C310 0.950 . S
H299 C311 0.950 1_545 S
C300 H292 0.950 . S
C300 C301 1.386 . S
C300 C302 1.391 . S
C301 C300 1.386 . S
C301 C305 1.393 1_556 S
C302 H294 0.950 1_455 S
C302 C300 1.391 . S
C302 C303 1.409 . S
C303 C302 1.409 . S
C303 C304 1.389 1_546 S
C303 C309 1.491 1_446 S
C304 H295 0.954 . S
C304 C303 1.389 1_564 S
C304 C305 1.389 1_565 S
C305 H293 0.950 . S
C305 C301 1.393 1_554 S
C305 C304 1.389 1_545 S
C306 H296 0.950 . S
C306 C307 1.386 . S
C306 C308 1.391 . S
C307 C306 1.386 . S
C307 C311 1.393 1_554 S
C308 H297 0.950 . S
C308 C306 1.391 . S
C308 C309 1.400 . S
C309 C303 1.491 1_664 S
C309 C308 1.400 . S
C309 C310 1.398 1_564 S
C310 H298 0.950 . S
C310 C309 1.398 1_546 S
C310 C311 1.391 1_545 S
C311 H299 0.950 1_565 S
C311 C307 1.393 1_556 S
C311 C310 1.391 1_565 S
H312 C320 0.950 . S
H313 C325 0.950 . S
H314 C322 0.950 . S
H315 C324 0.950 1_565 S
H316 C326 0.950 . S
H317 C328 0.950 . S
H318 C330 0.950 . S
H319 C331 0.950 . S
C320 H312 0.950 . S
C320 C321 1.386 . S
C320 C322 1.391 . S
C321 C320 1.386 . S
C321 C325 1.393 . S
C322 H314 0.950 . S
C322 C320 1.391 . S
C322 C323 1.400 . S
C323 C322 1.400 . S
C323 C324 1.398 . S
C323 C329 1.491 1_645 S
C324 H315 0.950 1_545 S
C324 C323 1.398 . S
C324 C325 1.391 . S
C325 H313 0.950 . S
C325 C321 1.393 . S
C325 C324 1.391 . S
C326 H316 0.950 . S
C326 C327 1.386 . S
C326 C328 1.391 . S
C327 C326 1.386 . S
C327 C331 1.393 . S
C328 H317 0.950 . S
C328 C326 1.391 . S
C328 C329 1.400 . S
C329 C323 1.491 1_465 S
C329 C328 1.400 . S
C329 C330 1.398 1_565 S
C330 H318 0.950 . S
C330 C329 1.398 1_545 S
C330 C331 1.391 1_545 S
C331 H319 0.950 . S
C331 C327 1.393 . S
C331 C330 1.391 1_565 S
H332 C340 0.950 . S
H333 C345 0.950 . S
H334 C342 0.950 . S
H335 C344 0.950 . S
H336 C346 0.950 . S
H337 C348 0.950 . S
H338 C350 0.950 . S
H339 C351 0.950 . S
C340 H332 0.950 . S
C340 C341 1.386 . S
C340 C342 1.391 . S
C341 C340 1.386 . S
C341 C345 1.393 . S
C342 H334 0.950 . S
C342 C340 1.391 . S
C342 C343 1.400 . S
C343 C342 1.400 . S
C343 C344 1.398 . S
C343 C349 1.491 . S
C344 H335 0.950 . S
C344 C343 1.398 . S
C344 C345 1.391 . S
C345 H333 0.950 . S
C345 C341 1.393 . S
C345 C344 1.391 . S
C346 H336 0.950 . S
C346 C347 1.386 . S
C346 C348 1.391 . S
C347 C346 1.386 . S
C347 C351 1.393 . S
C348 H337 0.950 . S
C348 C346 1.391 . S
C348 C349 1.400 . S
C349 C343 1.491 . S
C349 C348 1.400 . S
C349 C350 1.398 . S
C350 H338 0.950 . S
C350 C349 1.398 . S
C350 C351 1.391 . S
C351 H339 0.950 . S
C351 C347 1.393 . S
C351 C350 1.391 . S
H352 C360 0.950 . S
H353 C365 0.950 . S
H354 C362 0.950 . S
H355 C364 0.950 . S
H356 C366 0.950 . S
H357 C368 0.950 . S
H358 C370 0.950 . S
H359 C371 0.950 . S
C360 H352 0.950 . S
C360 C361 1.386 . S
C360 C362 1.391 . S
C361 C360 1.386 . S
C361 C365 1.393 . S
C362 H354 0.950 . S
C362 C360 1.391 . S
C362 C363 1.400 . S
C363 C362 1.400 . S
C363 C364 1.398 . S
C363 C369 1.491 . S
C364 H355 0.950 . S
C364 C363 1.398 . S
C364 C365 1.391 . S
C365 H353 0.950 . S
C365 C361 1.393 . S
C365 C364 1.391 . S
C366 H356 0.950 . S
C366 C367 1.386 . S
C366 C368 1.391 . S
C367 C366 1.386 . S
C367 C371 1.393 . S
C368 H357 0.950 . S
C368 C366 1.391 . S
C368 C369 1.400 . S
C369 C363 1.491 . S
C369 C368 1.400 . S
C369 C370 1.398 . S
C370 H358 0.950 . S
C370 C369 1.398 . S
C370 C371 1.391 . S
C371 H359 0.950 . S
C371 C367 1.393 . S
C371 C370 1.391 . S
H372 C380 0.950 . S
H373 C385 0.950 . S
H374 C382 0.950 . S
H375 C384 0.950 . S
H376 C386 0.950 . S
H377 C388 0.950 . S
H378 C390 0.950 . S
H379 C391 0.950 . S
C380 H372 0.950 . S
C380 C381 1.386 . S
C380 C382 1.391 . S
C381 C380 1.386 . S
C381 C385 1.393 . S
C382 H374 0.950 . S
C382 C380 1.391 . S
C382 C383 1.400 . S
C383 C382 1.400 . S
C383 C384 1.398 . S
C383 C389 1.491 . S
C384 H375 0.950 . S
C384 C383 1.398 . S
C384 C385 1.391 . S
C385 H373 0.950 . S
C385 C381 1.393 . S
C385 C384 1.391 . S
C386 H376 0.950 . S
C386 C387 1.386 . S
C386 C388 1.391 . S
C387 C386 1.386 . S
C387 C391 1.393 . S
C388 H377 0.950 . S
C388 C386 1.391 . S
C388 C389 1.400 . S
C389 C383 1.491 . S
C389 C388 1.400 . S
C389 C390 1.398 . S
C390 H378 0.950 . S
C390 C389 1.398 . S
C390 C391 1.391 . S
C391 H379 0.950 . S
C391 C387 1.393 . S
C391 C390 1.391 . S
H392 C400 0.950 . S
H393 C405 0.950 . S
H394 C402 0.950 . S
H395 C404 0.950 . S
H396 C406 0.950 . S
H397 C408 0.950 . S
H398 C410 0.950 . S
H399 C411 0.950 . S
C400 H392 0.950 . S
C400 C401 1.386 . S
C400 C402 1.391 . S
C401 C400 1.386 . S
C401 C405 1.393 . S
C402 H394 0.950 . S
C402 C400 1.391 . S
C402 C403 1.400 . S
C403 C402 1.400 . S
C403 C404 1.398 . S
C403 C409 1.491 . S
C404 H395 0.950 . S
C404 C403 1.398 . S
C404 C405 1.391 . S
C405 H393 0.950 . S
C405 C401 1.393 . S
C405 C404 1.391 . S
C406 H396 0.950 . S
C406 C407 1.386 . S
C406 C408 1.391 . S
C407 C406 1.386 . S
C407 C411 1.393 . S
C408 H397 0.950 . S
C408 C406 1.391 . S
C408 C409 1.400 . S
C409 C403 1.491 . S
C409 C408 1.400 . S
C409 C410 1.398 . S
C410 H398 0.950 . S
C410 C409 1.398 . S
C410 C411 1.391 . S
C411 H399 0.950 . S
C411 C407 1.393 . S
C411 C410 1.391 . S
H412 C420 0.950 . S
H413 C425 0.950 . S
H414 C422 0.950 1_655 S
H415 C424 0.950 . S
H416 C426 0.950 . S
H417 C428 0.950 1_455 S
H418 C430 0.950 . S
H419 C431 0.950 . S
C420 H412 0.950 . S
C420 C421 1.386 . S
C420 C422 1.391 . S
C421 C420 1.386 . S
C421 C425 1.393 . S
C422 H414 0.950 1_455 S
C422 C420 1.391 . S
C422 C423 1.400 . S
C423 C422 1.400 . S
C423 C424 1.398 . S
C423 C429 1.491 1_455 S
C424 H415 0.950 . S
C424 C423 1.398 . S
C424 C425 1.391 . S
C425 H413 0.950 . S
C425 C421 1.393 . S
C425 C424 1.391 . S
C426 H416 0.950 . S
C426 C427 1.386 . S
C426 C428 1.391 . S
C427 C426 1.386 . S
C427 C431 1.393 . S
C428 H417 0.950 1_655 S
C428 C426 1.391 . S
C428 C429 1.400 . S
C429 C423 1.491 1_655 S
C429 C428 1.400 . S
C429 C430 1.398 . S
C430 H418 0.950 . S
C430 C429 1.398 . S
C430 C431 1.391 . S
C431 H419 0.950 . S
C431 C427 1.393 . S
C431 C430 1.391 . S
H432 C440 0.950 . S
H433 C445 0.950 . S
H434 C442 0.950 1_455 S
H435 C444 0.950 . S
H436 C446 0.950 . S
H437 C448 0.950 1_655 S
H438 C450 0.950 . S
H439 C451 0.950 . S
C440 H432 0.950 . S
C440 C441 1.386 . S
C440 C442 1.391 . S
C441 C440 1.386 . S
C441 C445 1.393 . S
C442 H434 0.950 1_655 S
C442 C440 1.391 . S
C442 C443 1.400 . S
C443 C442 1.400 . S
C443 C444 1.398 . S
C443 C449 1.491 1_655 S
C444 H435 0.950 . S
C444 C443 1.398 . S
C444 C445 1.391 . S
C445 H433 0.950 . S
C445 C441 1.393 . S
C445 C444 1.391 . S
C446 H436 0.950 . S
C446 C447 1.386 . S
C446 C448 1.391 . S
C447 C446 1.386 . S
C447 C451 1.393 . S
C448 H437 0.950 1_455 S
C448 C446 1.391 . S
C448 C449 1.400 . S
C449 C443 1.491 1_455 S
C449 C448 1.400 . S
C449 C450 1.398 . S
C450 H438 0.950 . S
C450 C449 1.398 . S
C450 C451 1.391 . S
C451 H439 0.950 . S
C451 C447 1.393 . S
C451 C450 1.391 . S
H452 C460 0.950 . S
H453 C465 0.950 . S
H454 C462 0.950 . S
H455 C464 0.950 1_655 S
H456 C466 0.950 . S
H457 C468 0.950 . S
H458 C470 0.950 1_455 S
H459 C471 0.950 . S
C460 H452 0.950 . S
C460 C461 1.386 . S
C460 C462 1.391 . S
C461 C460 1.386 . S
C461 C465 1.393 . S
C462 H454 0.950 . S
C462 C460 1.391 . S
C462 C463 1.400 . S
C463 C462 1.400 . S
C463 C464 1.398 . S
C463 C469 1.491 1_455 S
C464 H455 0.950 1_455 S
C464 C463 1.398 . S
C464 C465 1.391 . S
C465 H453 0.950 . S
C465 C461 1.393 . S
C465 C464 1.391 . S
C466 H456 0.950 . S
C466 C467 1.386 . S
C466 C468 1.391 . S
C467 C466 1.386 . S
C467 C471 1.393 . S
C468 H457 0.950 . S
C468 C466 1.391 . S
C468 C469 1.400 . S
C469 C463 1.491 1_655 S
C469 C468 1.400 . S
C469 C470 1.398 . S
C470 H458 0.950 1_655 S
C470 C469 1.398 . S
C470 C471 1.391 . S
C471 H459 0.950 . S
C471 C467 1.393 . S
C471 C470 1.391 . S
H472 C480 0.950 . S
H473 C485 0.950 . S
H474 C482 0.950 . S
H475 C484 0.950 . S
H476 C486 0.950 . S
H477 C488 0.950 . S
H478 C490 0.950 . S
H479 C491 0.950 . S
C480 H472 0.950 . S
C480 C481 1.386 . S
C480 C482 1.391 . S
C481 C480 1.386 . S
C481 C485 1.393 . S
C482 H474 0.950 . S
C482 C480 1.391 . S
C482 C483 1.400 . S
C483 C482 1.400 . S
C483 C484 1.398 . S
C483 C489 1.491 1_455 S
C484 H475 0.950 . S
C484 C483 1.398 . S
C484 C485 1.391 . S
C485 H473 0.950 . S
C485 C481 1.393 . S
C485 C484 1.391 . S
C486 H476 0.950 . S
C486 C487 1.386 . S
C486 C488 1.391 . S
C487 C486 1.386 . S
C487 C491 1.393 . S
C488 H477 0.950 . S
C488 C486 1.391 . S
C488 C489 1.400 . S
C489 C483 1.491 1_655 S
C489 C488 1.400 . S
C489 C490 1.398 . S
C490 H478 0.950 . S
C490 C489 1.398 . S
C490 C491 1.391 . S
C491 H479 0.950 . S
C491 C487 1.393 . S
C491 C490 1.391 . S
C181 N8 0.299 1_554 S
C187 N3 0.504 1_556 S
C201 N51 0.294 1_554 S
C207 N46 0.497 1_556 S
C221 N89 0.543 . S
C227 N94 0.303 . S
C241 N137 0.535 . S
C247 N132 0.293 . S
C261 C70 1.569 . S
C267 C40 1.567 1_556 S
C281 C162 1.598 . S
C287 C113 1.598 . S
C301 C27 1.602 1_556 S
C307 C83 1.597 . S
C321 C161 1.605 . S
C327 C126 1.600 . S
C341 C168 1.625 . S
C347 C13 1.601 . S
C361 C76 1.433 . S
C367 C119 1.412 . S
C381 C125 1.436 . S
C387 C82 1.446 . S
C401 C32 1.523 . S
C407 C156 1.528 . S
C421 C99 1.602 . S
C427 C56 1.626 . S
C441 C169 1.417 . S
C447 C33 1.439 . S
C461 C39 1.437 . S
C467 C142 1.457 . S
C481 C118 1.530 . S
C487 C75 1.519 . S
