# Generated by pormake.
# Topology wmg, (6)-cn, num edge types: 1
# Building blocks:
#     Node 0, Type 0, BuildingBlock: VOLQOD_clean_sbu_1, # of connection points: 6
#     Node 1, Type 0, BuildingBlock: VOLQOD_clean_sbu_1, # of connection points: 6
#     Node 2, Type 0, BuildingBlock: VOLQOD_clean_sbu_1, # of connection points: 6
#     Node 3, Type 0, BuildingBlock: VOLQOD_clean_sbu_1, # of connection points: 6
#     Node 4, Type 0, BuildingBlock: VOLQOD_clean_sbu_1, # of connection points: 6
#     Node 5, Type 0, BuildingBlock: VOLQOD_clean_sbu_1, # of connection points: 6
#     Node 6, Type 0, BuildingBlock: VOLQOD_clean_sbu_1, # of connection points: 6
#     Node 7, Type 0, BuildingBlock: VOLQOD_clean_sbu_1, # of connection points: 6
#     Node 8, Type 0, BuildingBlock: VOLQOD_clean_sbu_1, # of connection points: 6
#     Node 9, Type 0, BuildingBlock: VOLQOD_clean_sbu_1, # of connection points: 6
#     Node 10, Type 0, BuildingBlock: VOLQOD_clean_sbu_1, # of connection points: 6
#     Node 11, Type 0, BuildingBlock: VOLQOD_clean_sbu_1, # of connection points: 6
#     Node 12, Type 0, BuildingBlock: VOLQOD_clean_sbu_1, # of connection points: 6
#     Node 13, Type 0, BuildingBlock: VOLQOD_clean_sbu_1, # of connection points: 6
#     Node 14, Type 0, BuildingBlock: VOLQOD_clean_sbu_1, # of connection points: 6
#     Node 15, Type 0, BuildingBlock: VOLQOD_clean_sbu_1, # of connection points: 6
#     Node 16, Type 0, BuildingBlock: VOLQOD_clean_sbu_1, # of connection points: 6
#     Node 17, Type 0, BuildingBlock: VOLQOD_clean_sbu_1, # of connection points: 6
#     Edge 18, Type (0, 0), BuildingBlock: KIFKEQ_clean_linker_1, # of connection points: 2
#     Edge 19, Type (0, 0), BuildingBlock: KIFKEQ_clean_linker_1, # of connection points: 2
#     Edge 20, Type (0, 0), BuildingBlock: KIFKEQ_clean_linker_1, # of connection points: 2
#     Edge 21, Type (0, 0), BuildingBlock: KIFKEQ_clean_linker_1, # of connection points: 2
#     Edge 22, Type (0, 0), BuildingBlock: KIFKEQ_clean_linker_1, # of connection points: 2
#     Edge 23, Type (0, 0), BuildingBlock: KIFKEQ_clean_linker_1, # of connection points: 2
#     Edge 24, Type (0, 0), BuildingBlock: KIFKEQ_clean_linker_1, # of connection points: 2
#     Edge 25, Type (0, 0), BuildingBlock: KIFKEQ_clean_linker_1, # of connection points: 2
#     Edge 26, Type (0, 0), BuildingBlock: KIFKEQ_clean_linker_1, # of connection points: 2
#     Edge 27, Type (0, 0), BuildingBlock: KIFKEQ_clean_linker_1, # of connection points: 2
#     Edge 28, Type (0, 0), BuildingBlock: KIFKEQ_clean_linker_1, # of connection points: 2
#     Edge 29, Type (0, 0), BuildingBlock: KIFKEQ_clean_linker_1, # of connection points: 2
#     Edge 30, Type (0, 0), BuildingBlock: KIFKEQ_clean_linker_1, # of connection points: 2
#     Edge 31, Type (0, 0), BuildingBlock: KIFKEQ_clean_linker_1, # of connection points: 2
#     Edge 32, Type (0, 0), BuildingBlock: KIFKEQ_clean_linker_1, # of connection points: 2
#     Edge 33, Type (0, 0), BuildingBlock: KIFKEQ_clean_linker_1, # of connection points: 2
#     Edge 34, Type (0, 0), BuildingBlock: KIFKEQ_clean_linker_1, # of connection points: 2
#     Edge 35, Type (0, 0), BuildingBlock: KIFKEQ_clean_linker_1, # of connection points: 2
#     Edge 36, Type (0, 0), BuildingBlock: KIFKEQ_clean_linker_1, # of connection points: 2
#     Edge 37, Type (0, 0), BuildingBlock: KIFKEQ_clean_linker_1, # of connection points: 2
#     Edge 38, Type (0, 0), BuildingBlock: KIFKEQ_clean_linker_1, # of connection points: 2
#     Edge 39, Type (0, 0), BuildingBlock: KIFKEQ_clean_linker_1, # of connection points: 2
#     Edge 40, Type (0, 0), BuildingBlock: KIFKEQ_clean_linker_1, # of connection points: 2
#     Edge 41, Type (0, 0), BuildingBlock: KIFKEQ_clean_linker_1, # of connection points: 2
#     Edge 42, Type (0, 0), BuildingBlock: KIFKEQ_clean_linker_1, # of connection points: 2
#     Edge 43, Type (0, 0), BuildingBlock: KIFKEQ_clean_linker_1, # of connection points: 2
#     Edge 44, Type (0, 0), BuildingBlock: KIFKEQ_clean_linker_1, # of connection points: 2
#     Edge 45, Type (0, 0), BuildingBlock: KIFKEQ_clean_linker_1, # of connection points: 2
#     Edge 46, Type (0, 0), BuildingBlock: KIFKEQ_clean_linker_1, # of connection points: 2
#     Edge 47, Type (0, 0), BuildingBlock: KIFKEQ_clean_linker_1, # of connection points: 2
#     Edge 48, Type (0, 0), BuildingBlock: KIFKEQ_clean_linker_1, # of connection points: 2
#     Edge 49, Type (0, 0), BuildingBlock: KIFKEQ_clean_linker_1, # of connection points: 2
#     Edge 50, Type (0, 0), BuildingBlock: KIFKEQ_clean_linker_1, # of connection points: 2
#     Edge 51, Type (0, 0), BuildingBlock: KIFKEQ_clean_linker_1, # of connection points: 2
#     Edge 52, Type (0, 0), BuildingBlock: KIFKEQ_clean_linker_1, # of connection points: 2
#     Edge 53, Type (0, 0), BuildingBlock: KIFKEQ_clean_linker_1, # of connection points: 2
#     Edge 54, Type (0, 0), BuildingBlock: KIFKEQ_clean_linker_1, # of connection points: 2
#     Edge 55, Type (0, 0), BuildingBlock: KIFKEQ_clean_linker_1, # of connection points: 2
#     Edge 56, Type (0, 0), BuildingBlock: KIFKEQ_clean_linker_1, # of connection points: 2
#     Edge 57, Type (0, 0), BuildingBlock: KIFKEQ_clean_linker_1, # of connection points: 2
#     Edge 58, Type (0, 0), BuildingBlock: KIFKEQ_clean_linker_1, # of connection points: 2
#     Edge 59, Type (0, 0), BuildingBlock: KIFKEQ_clean_linker_1, # of connection points: 2
#     Edge 60, Type (0, 0), BuildingBlock: KIFKEQ_clean_linker_1, # of connection points: 2
#     Edge 61, Type (0, 0), BuildingBlock: KIFKEQ_clean_linker_1, # of connection points: 2
#     Edge 62, Type (0, 0), BuildingBlock: KIFKEQ_clean_linker_1, # of connection points: 2
#     Edge 63, Type (0, 0), BuildingBlock: KIFKEQ_clean_linker_1, # of connection points: 2
#     Edge 64, Type (0, 0), BuildingBlock: KIFKEQ_clean_linker_1, # of connection points: 2
#     Edge 65, Type (0, 0), BuildingBlock: KIFKEQ_clean_linker_1, # of connection points: 2
#     Edge 66, Type (0, 0), BuildingBlock: KIFKEQ_clean_linker_1, # of connection points: 2
#     Edge 67, Type (0, 0), BuildingBlock: KIFKEQ_clean_linker_1, # of connection points: 2
#     Edge 68, Type (0, 0), BuildingBlock: KIFKEQ_clean_linker_1, # of connection points: 2
#     Edge 69, Type (0, 0), BuildingBlock: KIFKEQ_clean_linker_1, # of connection points: 2
#     Edge 70, Type (0, 0), BuildingBlock: KIFKEQ_clean_linker_1, # of connection points: 2
#     Edge 71, Type (0, 0), BuildingBlock: KIFKEQ_clean_linker_1, # of connection points: 2
# Relax obj value: 0.414
# Max RMSD: 0.275
# Mean RMSD: 0.275
data_MOF--net-wmg--node1-VOLQOD_clean_sbu_1--edge1-KIFKEQ_clean_linker_1
_symmetry_space_group_name_H-M    P1
_symmetry_Int_Tables_number       1
_symmetry_cell_setting            triclinic
loop_
_symmetry_equiv_pos_as_xyz
'x, y, z'
_cell_length_a     64.243704
_cell_length_b     64.234896
_cell_length_c     26.972837
_cell_angle_alpha  89.995556
_cell_angle_beta   89.984251
_cell_angle_gamma 120.00103
loop_
_atom_site_label
_atom_site_type_symbol
_atom_site_fract_x
_atom_site_fract_y
_atom_site_fract_z
_atom_type_partial_charge
O0 O 0.16294 0.29174 0.01707 0.0
Zn1 Zn 0.18105 0.28754 0.07269 0.0
O2 O 0.1756 0.25495 0.07397 0.0
Zn3 Zn 0.16503 0.24153 0.1402 0.0
Zn4 Zn 0.15161 0.23575 0.02581 0.0
Zn5 Zn 0.20466 0.25546 0.05368 0.0
O6 O 0.18952 0.23407 0.17127 0.0
O7 O 0.2183 0.24886 0.11373 0.0
O8 O 0.17343 0.29765 0.13712 0.0
O9 O 0.16423 0.26612 0.18499 0.0
O10 O 0.13006 0.21443 0.13923 0.0
O11 O 0.12059 0.21556 0.06013 0.0
O12 O 0.15945 0.2135 0.98908 0.0
O13 O 0.21518 0.31115 0.0559 0.0
O14 O 0.19846 0.22958 0.00323 0.0
O15 O 0.22911 0.28811 0.02703 0.0
C16 C 0.15305 0.27887 0.97896 0.0
C17 C 0.21068 0.23989 0.15656 0.0
C18 C 0.11467 0.20767 0.10417 0.0
C19 C 0.16743 0.28717 0.17898 0.0
C20 C 0.17919 0.21385 0.98223 0.0
C21 C 0.23144 0.30879 0.03416 0.0
O22 O 0.14873 0.25728 0.97605 0.0
O23 O 0.69212 0.87267 0.01603 0.0
Zn24 Zn 0.69967 0.89576 0.07129 0.0
O25 O 0.73301 0.92083 0.06768 0.0
Zn26 Zn 0.74793 0.92361 0.13225 0.0
Zn27 Zn 0.74955 0.91363 0.01674 0.0
Zn28 Zn 0.73374 0.95 0.04777 0.0
O29 O 0.7574 0.95614 0.16295 0.0
O30 O 0.74217 0.9707 0.10764 0.0
O31 O 0.69069 0.87855 0.13622 0.0
O32 O 0.72407 0.89926 0.18001 0.0
O33 O 0.77397 0.91435 0.12751 0.0
O34 O 0.76979 0.90216 0.04884 0.0
O35 O 0.77192 0.94291 0.97705 0.0
O36 O 0.67728 0.9082 0.05835 0.0
O37 O 0.75917 0.96825 -0.00403 0.0
O38 O 0.70126 0.94332 0.02265 0.0
C39 C 0.7033 0.87291 0.97692 0.0
C40 C 0.75197 0.97192 0.14943 0.0
C41 C 0.779 0.90458 0.09173 0.0
C42 C 0.70233 0.88243 0.1765 0.0
C43 C 0.77318 0.9632 0.97206 0.0
C44 C 0.68026 0.92636 0.03369 0.0
O45 O 0.72546 0.88832 0.97071 0.0
O46 O 0.1215 0.82933 0.01156 0.0
Zn47 Zn 0.09935 0.8102 0.06665 0.0
O48 O 0.07137 0.81425 0.06855 0.0
Zn49 Zn 0.06796 0.82391 0.1351 0.0
Zn50 Zn 0.07553 0.83838 0.02135 0.0
Zn51 Zn 0.04327 0.78494 0.04783 0.0
O52 O 0.03549 0.79978 0.16426 0.0
O53 O 0.02266 0.77078 0.10741 0.0
O54 O 0.11695 0.81775 0.13143 0.0
O55 O 0.09218 0.8229 0.18051 0.0
O56 O 0.07686 0.8592 0.13602 0.0
O57 O 0.08629 0.86914 0.05664 0.0
O58 O 0.04515 0.83018 0.98558 0.0
O59 O 0.08986 0.77642 0.04829 0.0
O60 O 0.0234 0.79084 -0.00272 0.0
O61 O 0.05238 0.76117 0.02125 0.0
C62 C 0.11782 0.8387 0.97341 0.0
C63 C 0.02061 0.77847 0.14964 0.0
C64 C 0.08501 0.87481 0.10128 0.0
C65 C 0.11096 0.8213 0.17419 0.0
C66 C 0.02625 0.81015 0.97766 0.0
C67 C 0.07129 0.75968 0.02727 0.0
O68 O 0.0999 0.842 0.9707 0.0
O69 O 0.81333 0.69313 0.965 0.0
Zn70 Zn 0.79806 0.70094 0.90943 0.0
O71 O 0.80647 0.73435 0.91323 0.0
Zn72 Zn 0.81868 0.74954 0.84891 0.0
Zn73 Zn 0.83015 0.75069 0.96419 0.0
Zn74 Zn 0.77816 0.73521 0.93334 0.0
O75 O 0.79562 0.75909 0.81829 0.0
O76 O 0.76589 0.74376 0.87374 0.0
O77 O 0.80655 0.69223 0.84435 0.0
O78 O 0.81931 0.72583 0.80117 0.0
O79 O 0.85403 0.77555 0.85388 0.0
O80 O 0.86185 0.7708 0.93234 0.0
O81 O 0.82349 0.77316 0.00395 0.0
O82 O 0.76315 0.67863 0.92222 0.0
O83 O 0.78544 0.76059 0.9852 0.0
O84 O 0.75247 0.70281 0.95865 0.0
C85 C 0.82433 0.70435 0.00403 0.0
C86 C 0.77443 0.75367 0.832 0.0
C87 C 0.86874 0.78026 0.88969 0.0
C88 C 0.81447 0.7041 0.80432 0.0
C89 C 0.80453 0.77452 0.00905 0.0
C90 C 0.74823 0.68176 0.94751 0.0
O91 O 0.83124 0.72655 0.01004 0.0
O92 O 0.29346 0.11908 0.96621 0.0
Zn93 Zn 0.28619 0.09607 0.91103 0.0
O94 O 0.25313 0.07036 0.9148 0.0
Zn95 Zn 0.23815 0.06676 0.85004 0.0
Zn96 Zn 0.23638 0.0775 0.96528 0.0
Zn97 Zn 0.25297 0.04162 0.93556 0.0
O98 O 0.2291 0.03412 0.82047 0.0
O99 O 0.24501 0.02053 0.87633 0.0
O100 O 0.29453 0.11344 0.84631 0.0
O101 O 0.26196 0.09058 0.80164 0.0
O102 O 0.21201 0.07602 0.85379 0.0
O103 O 0.21578 0.08819 0.93245 0.0
O104 O 0.21464 0.04854 0.00599 0.0
O105 O 0.30919 0.08431 0.92377 0.0
O106 O 0.22785 0.02347 0.98808 0.0
O107 O 0.28567 0.04938 0.96071 0.0
C108 C 0.28211 0.11884 0.005 0.0
C109 C 0.23509 0.01881 0.83446 0.0
C110 C 0.20669 0.08566 0.88942 0.0
C111 C 0.28317 0.1084 0.80547 0.0
C112 C 0.21379 0.02849 0.01189 0.0
C113 C 0.30653 0.0665 0.9493 0.0
O114 O 0.26 0.10328 0.01102 0.0
O115 O 0.87027 0.1713 0.9688 0.0
Zn116 Zn 0.89377 0.18799 0.91482 0.0
O117 O 0.91936 0.1804 0.91773 0.0
Zn118 Zn 0.92295 0.16941 0.85243 0.0
Zn119 Zn 0.91198 0.15595 0.96721 0.0
Zn120 Zn 0.9483 0.20875 0.93892 0.0
O121 O 0.95579 0.19273 0.82339 0.0
O122 O 0.96969 0.22188 0.88003 0.0
O123 O 0.87688 0.18013 0.84954 0.0
O124 O 0.89953 0.17031 0.80436 0.0
O125 O 0.91317 0.13385 0.85458 0.0
O126 O 0.90124 0.12483 0.93321 0.0
O127 O 0.9408 0.16281 0.00809 0.0
O128 O 0.90562 0.22259 0.93011 0.0
O129 O 0.96598 0.20123 0.99146 0.0
O130 O 0.94116 0.23413 0.96422 0.0
C131 C 0.87031 0.15978 0.00706 0.0
C132 C 0.97136 0.21382 0.83794 0.0
C133 C 0.90357 0.11859 0.88971 0.0
C134 C 0.88196 0.17408 0.8084 0.0
C135 C 0.96083 0.18195 0.01465 0.0
C136 C 0.92389 0.23786 0.95436 0.0
O137 O 0.88597 0.15334 0.01291 0.0
O138 O 0.83129 0.62578 0.34495 0.0
Zn139 Zn 0.85003 0.62235 0.40034 0.0
O140 O 0.84541 0.59004 0.40234 0.0
Zn141 Zn 0.83535 0.57697 0.46889 0.0
Zn142 Zn 0.82127 0.57035 0.35477 0.0
Zn143 Zn 0.87457 0.59067 0.38239 0.0
O144 O 0.85942 0.56886 0.49938 0.0
O145 O 0.88842 0.5841 0.44241 0.0
O146 O 0.84222 0.63247 0.46488 0.0
O147 O 0.83595 0.60212 0.51378 0.0
O148 O 0.80004 0.55061 0.46937 0.0
O149 O 0.79052 0.55023 0.3898 0.0
O150 O 0.8294 0.54843 0.31789 0.0
O151 O 0.88403 0.64621 0.38248 0.0
O152 O 0.86851 0.56497 0.33146 0.0
O153 O 0.89878 0.62343 0.35616 0.0
C154 C 0.82111 0.61255 0.30742 0.0
C155 C 0.88065 0.57486 0.485 0.0
C156 C 0.78461 0.54324 0.43433 0.0
C157 C 0.83794 0.62265 0.50746 0.0
C158 C 0.84926 0.54911 0.31057 0.0
C159 C 0.90064 0.644 0.36191 0.0
O160 O 0.81728 0.59113 0.30487 0.0
O161 O 0.3623 0.20333 0.34589 0.0
Zn162 Zn 0.36679 0.22537 0.4023 0.0
O163 O 0.39957 0.25218 0.40395 0.0
Zn164 Zn 0.41297 0.25435 0.4699 0.0
Zn165 Zn 0.41859 0.24732 0.35534 0.0
Zn166 Zn 0.39958 0.2812 0.38517 0.0
O167 O 0.42049 0.2859 0.50272 0.0
O168 O 0.40634 0.30096 0.44618 0.0
O169 O 0.35649 0.20713 0.46621 0.0
O170 O 0.38831 0.2287 0.51384 0.0
O171 O 0.43984 0.24619 0.4683 0.0
O172 O 0.43866 0.23611 0.38887 0.0
O173 O 0.4408 0.27741 0.31875 0.0
O174 O 0.3436 0.23655 0.38661 0.0
O175 O 0.42551 0.30089 0.33476 0.0
O176 O 0.36703 0.27374 0.35917 0.0
C177 C 0.37529 0.20606 0.30811 0.0
C178 C 0.415 0.30161 0.48902 0.0
C179 C 0.44649 0.23768 0.43282 0.0
C180 C 0.36712 0.21113 0.50781 0.0
C181 C 0.44085 0.29706 0.31282 0.0
C182 C 0.34622 0.25551 0.36596 0.0
O183 O 0.39702 0.22303 0.30555 0.0
O184 O 0.78633 0.15646 0.3488 0.0
Zn185 Zn 0.76464 0.1388 0.40576 0.0
O186 O 0.73739 0.14398 0.40776 0.0
Zn187 Zn 0.73528 0.15606 0.47267 0.0
Zn188 Zn 0.74112 0.16666 0.35766 0.0
Zn189 Zn 0.70871 0.1143 0.39189 0.0
O190 O 0.70396 0.1323 0.50697 0.0
O191 O 0.69152 0.10096 0.4557 0.0
O192 O 0.78293 0.14734 0.46957 0.0
O193 O 0.76128 0.15778 0.51662 0.0
O194 O 0.74334 0.19099 0.46871 0.0
O195 O 0.75276 0.19854 0.38868 0.0
O196 O 0.71022 0.15772 0.32383 0.0
O197 O 0.75422 0.10457 0.39005 0.0
O198 O 0.68695 0.1195 0.34492 0.0
O199 O 0.71697 0.09038 0.36261 0.0
C200 C 0.78233 0.16502 0.30973 0.0
C201 C 0.69027 0.11006 0.49677 0.0
C202 C 0.75159 0.20555 0.43218 0.0
C203 C 0.77896 0.15429 0.51084 0.0
C204 C 0.6903 0.13816 0.32138 0.0
C205 C 0.73551 0.08826 0.36865 0.0
O206 O 0.76455 0.16854 0.30667 0.0
O207 O 0.48009 0.02698 0.30231 0.0
Zn208 Zn 0.46541 0.03459 0.24557 0.0
O209 O 0.47311 0.06775 0.24902 0.0
Zn210 Zn 0.48503 0.08263 0.18446 0.0
Zn211 Zn 0.49669 0.08433 0.29996 0.0
Zn212 Zn 0.44463 0.06829 0.2689 0.0
O213 O 0.46216 0.09238 0.15415 0.0
O214 O 0.43221 0.07662 0.2091 0.0
O215 O 0.47511 0.02615 0.18162 0.0
O216 O 0.48487 0.05861 0.13647 0.0
O217 O 0.52057 0.1082 0.18889 0.0
O218 O 0.5283 0.10417 0.26789 0.0
O219 O 0.48984 0.10672 0.33915 0.0
O220 O 0.43041 0.01195 0.25641 0.0
O221 O 0.45159 0.09357 0.32109 0.0
O222 O 0.41928 0.03562 0.29368 0.0
C223 C 0.4909 0.03832 0.34134 0.0
C224 C 0.44085 0.08666 0.1675 0.0
C225 C 0.53524 0.11316 0.2249 0.0
C226 C 0.48155 0.03743 0.14067 0.0
C227 C 0.47072 0.10775 0.34464 0.0
C228 C 0.4153 0.01471 0.28185 0.0
O229 O 0.49784 0.06055 0.34681 0.0
O230 O 0.95793 0.45629 0.30913 0.0
Zn231 Zn 0.95462 0.43443 0.25319 0.0
O232 O 0.92244 0.40667 0.25091 0.0
Zn233 Zn 0.90945 0.40362 0.18439 0.0
Zn234 Zn 0.90266 0.41099 0.29829 0.0
Zn235 Zn 0.92322 0.37828 0.27112 0.0
O236 O 0.90157 0.37148 0.154 0.0
O237 O 0.9171 0.35804 0.21099 0.0
O238 O 0.96471 0.45258 0.18896 0.0
O239 O 0.93461 0.42833 0.13972 0.0
O240 O 0.88295 0.4124 0.1839 0.0
O241 O 0.88292 0.42206 0.26328 0.0
O242 O 0.88027 0.38068 0.3337 0.0
O243 O 0.9786 0.42443 0.2708 0.0
O244 O 0.89712 0.35831 0.32114 0.0
O245 O 0.95589 0.38709 0.29834 0.0
C246 C 0.94477 0.45274 0.34703 0.0
C247 C 0.90782 0.35643 0.16841 0.0
C248 C 0.87578 0.42074 0.21881 0.0
C249 C 0.95502 0.44702 0.14628 0.0
C250 C 0.88093 0.36149 0.34109 0.0
C251 C 0.97644 0.4058 0.29219 0.0
O252 O 0.92338 0.43508 0.34929 0.0
O253 O 0.53495 0.49911 0.30968 0.0
Zn254 Zn 0.55669 0.51724 0.25326 0.0
O255 O 0.58434 0.5126 0.25126 0.0
Zn256 Zn 0.58704 0.50209 0.18498 0.0
Zn257 Zn 0.58012 0.48876 0.29942 0.0
Zn258 Zn 0.61295 0.54192 0.27029 0.0
O259 O 0.61894 0.52604 0.15345 0.0
O260 O 0.63299 0.5554 0.20963 0.0
O261 O 0.53831 0.50878 0.18927 0.0
O262 O 0.5622 0.50224 0.14035 0.0
O263 O 0.57831 0.46686 0.18546 0.0
O264 O 0.56934 0.45777 0.26525 0.0
O265 O 0.61037 0.49716 0.33569 0.0
O266 O 0.56694 0.55143 0.2694 0.0
O267 O 0.6329 0.5362 0.32109 0.0
O268 O 0.60447 0.56632 0.29586 0.0
C269 C 0.53814 0.48912 0.34736 0.0
C270 C 0.6342 0.54739 0.16715 0.0
C271 C 0.57035 0.45162 0.22088 0.0
C272 C 0.54364 0.5042 0.14678 0.0
C273 C 0.62961 0.51705 0.34236 0.0
C274 C 0.58579 0.56818 0.28958 0.0
O275 O 0.55564 0.48515 0.34973 0.0
O276 O 0.49747 0.95894 0.68191 0.0
Zn277 Zn 0.51552 0.95434 0.73717 0.0
O278 O 0.50903 0.92132 0.73835 0.0
Zn279 Zn 0.49813 0.90786 0.80452 0.0
Zn280 Zn 0.48483 0.90237 0.69012 0.0
Zn281 Zn 0.53775 0.92102 0.71849 0.0
O282 O 0.5224 0.90032 0.83644 0.0
O283 O 0.55112 0.91421 0.7788 0.0
O284 O 0.50822 0.96471 0.80185 0.0
O285 O 0.4975 0.93259 0.84889 0.0
O286 O 0.46298 0.88101 0.80358 0.0
O287 O 0.45381 0.88209 0.7243 0.0
O288 O 0.49244 0.88032 0.65183 0.0
O289 O 0.54989 0.97737 0.72007 0.0
O290 O 0.53115 0.89523 0.66778 0.0
O291 O 0.56275 0.95334 0.69175 0.0
C292 C 0.48652 0.9459 0.64462 0.0
C293 C 0.54345 0.90567 0.82189 0.0
C294 C 0.44769 0.87428 0.76832 0.0
C295 C 0.5015 0.95394 0.84333 0.0
C296 C 0.51197 0.88017 0.64551 0.0
C297 C 0.56576 0.97431 0.69849 0.0
O298 O 0.48154 0.9241 0.64173 0.0
O299 O 0.02726 0.53868 0.68926 0.0
Zn300 Zn 0.03469 0.56273 0.74259 0.0
O301 O 0.06803 0.58786 0.73853 0.0
Zn302 Zn 0.08315 0.59154 0.80325 0.0
Zn303 Zn 0.08455 0.5801 0.68857 0.0
Zn304 Zn 0.06874 0.61677 0.71683 0.0
O305 O 0.09267 0.62449 0.8321 0.0
O306 O 0.07728 0.63825 0.7754 0.0
O307 O 0.02579 0.54664 0.80873 0.0
O308 O 0.05936 0.56777 0.85181 0.0
O309 O 0.10921 0.58219 0.79982 0.0
O310 O 0.10487 0.56909 0.72182 0.0
O311 O 0.10683 0.60885 0.64756 0.0
O312 O 0.01218 0.57478 0.72681 0.0
O313 O 0.09401 0.63433 0.66453 0.0
O314 O 0.03635 0.60983 0.69107 0.0
C315 C 0.03842 0.53866 0.65034 0.0
C316 C 0.0872 0.64007 0.81732 0.0
C317 C 0.11418 0.57202 0.76472 0.0
C318 C 0.03757 0.55099 0.84896 0.0
C319 C 0.10799 0.62902 0.64127 0.0
C320 C 0.0153 0.59282 0.70151 0.0
O321 O 0.06049 0.55423 0.64362 0.0
O322 O 0.44975 0.4817 0.68949 0.0
Zn323 Zn 0.42634 0.46633 0.74454 0.0
O324 O 0.40154 0.475 0.74051 0.0
Zn325 Zn 0.39859 0.48724 0.80489 0.0
Zn326 Zn 0.40921 0.49881 0.68959 0.0
Zn327 Zn 0.37226 0.44685 0.72015 0.0
O328 O 0.36586 0.46431 0.83526 0.0
O329 O 0.35122 0.43473 0.77947 0.0
O330 O 0.44324 0.47441 0.80987 0.0
O331 O 0.42265 0.48749 0.85292 0.0
O332 O 0.40821 0.52268 0.80004 0.0
O333 O 0.42069 0.53046 0.7215 0.0
O334 O 0.38037 0.4923 0.64897 0.0
O335 O 0.41352 0.43142 0.73155 0.0
O336 O 0.35454 0.45432 0.66772 0.0
O337 O 0.37862 0.42083 0.69546 0.0
C338 C 0.44986 0.49297 0.65063 0.0
C339 C 0.34993 0.44324 0.8213 0.0
C340 C 0.41819 0.53738 0.76416 0.0
C341 C 0.43933 0.48233 0.8499 0.0
C342 C 0.35999 0.47343 0.64362 0.0
C343 C 0.39534 0.41647 0.70666 0.0
O344 O 0.43469 0.50002 0.64442 0.0
O345 O 0.15359 0.36365 0.6376 0.0
Zn346 Zn 0.13703 0.3703 0.58326 0.0
O347 O 0.14401 0.40322 0.58657 0.0
Zn348 Zn 0.15497 0.41791 0.52145 0.0
Zn349 Zn 0.16807 0.42036 0.63654 0.0
Zn350 Zn 0.11537 0.40314 0.6078 0.0
O351 O 0.13162 0.42753 0.49308 0.0
O352 O 0.10208 0.41109 0.54884 0.0
O353 O 0.14537 0.36162 0.51816 0.0
O354 O 0.15426 0.39378 0.47275 0.0
O355 O 0.19045 0.44377 0.52424 0.0
O356 O 0.19934 0.44059 0.60287 0.0
O357 O 0.16102 0.44265 0.67597 0.0
O358 O 0.1025 0.34705 0.59796 0.0
O359 O 0.12243 0.42854 0.65967 0.0
O360 O 0.09059 0.37044 0.63364 0.0
C361 C 0.16409 0.3749 0.67691 0.0
C362 C 0.11032 0.42141 0.50728 0.0
C363 C 0.20564 0.44929 0.55945 0.0
C364 C 0.15105 0.37264 0.47689 0.0
C365 C 0.14168 0.4432 0.68225 0.0
C366 C 0.08719 0.34961 0.62314 0.0
O367 O 0.17003 0.39685 0.68328 0.0
O368 O 0.62183 0.78915 0.63673 0.0
Zn369 Zn 0.61828 0.76706 0.58111 0.0
O370 O 0.58608 0.73927 0.5797 0.0
Zn371 Zn 0.5727 0.73605 0.51338 0.0
Zn372 Zn 0.56649 0.74353 0.6278 0.0
Zn373 Zn 0.58712 0.71101 0.59991 0.0
O374 O 0.56431 0.70363 0.48353 0.0
O375 O 0.58017 0.69042 0.5403 0.0
O376 O 0.628 0.78487 0.5165 0.0
O377 O 0.5977 0.76049 0.4678 0.0
O378 O 0.54621 0.74486 0.51376 0.0
O379 O 0.54622 0.75414 0.59342 0.0
O380 O 0.54453 0.71328 0.66422 0.0
O381 O 0.64248 0.75724 0.59807 0.0
O382 O 0.56168 0.69123 0.65113 0.0
O383 O 0.62006 0.71981 0.6253 0.0
C384 C 0.60888 0.78579 0.67489 0.0
C385 C 0.57049 0.68854 0.49808 0.0
C386 C 0.53894 0.7529 0.54908 0.0
C387 C 0.61817 0.77916 0.47396 0.0
C388 C 0.54552 0.69426 0.67166 0.0
C389 C 0.64053 0.73856 0.61882 0.0
O390 O 0.58753 0.76808 0.67784 0.0
O391 O 0.2025 0.83857 0.63215 0.0
Zn392 Zn 0.22598 0.85463 0.57783 0.0
O393 O 0.25119 0.84657 0.58173 0.0
Zn394 Zn 0.25425 0.83465 0.51713 0.0
Zn395 Zn 0.24396 0.82281 0.63261 0.0
Zn396 Zn 0.2802 0.8751 0.60193 0.0
O397 O 0.2865 0.85831 0.48629 0.0
O398 O 0.30077 0.88797 0.54192 0.0
O399 O 0.20917 0.84674 0.51258 0.0
O400 O 0.2297 0.83368 0.46931 0.0
O401 O 0.2458 0.79958 0.52185 0.0
O402 O 0.23318 0.79126 0.60026 0.0
O403 O 0.27308 0.82999 0.67312 0.0
O404 O 0.23803 0.88928 0.59202 0.0
O405 O 0.29857 0.86795 0.65347 0.0
O406 O 0.27299 0.90033 0.62827 0.0
C407 C 0.2027 0.82773 0.67142 0.0
C408 C 0.30201 0.87962 0.49985 0.0
C409 C 0.23606 0.78468 0.55749 0.0
C410 C 0.21298 0.83877 0.47252 0.0
C411 C 0.29341 0.849 0.6779 0.0
C412 C 0.25593 0.90426 0.6175 0.0
O413 O 0.21828 0.82123 0.6781 0.0
H414 H 0.16915 0.08145 0.94263 0.0
H415 H 0.21545 0.11926 0.81921 0.0
H416 H 0.15796 0.11242 0.94977 0.0
H417 H 0.20467 0.15072 0.82694 0.0
H418 H 0.21809 0.21286 0.94376 0.0
H419 H 0.2185 0.17918 0.90299 0.0
H420 H 0.1411 0.13768 0.91185 0.0
H421 H 0.14056 0.17143 0.95226 0.0
C422 C 0.17597 0.09581 0.91547 0.0
C423 C 0.19306 0.09802 0.88033 0.0
C424 C 0.16965 0.1136 0.91961 0.0
C425 C 0.18075 0.13413 0.88935 0.0
C426 C 0.19599 0.13512 0.85088 0.0
C427 C 0.20193 0.11701 0.84608 0.0
C428 C 0.20113 0.19674 0.93619 0.0
C429 C 0.17934 0.19472 0.95186 0.0
C430 C 0.20134 0.17754 0.91233 0.0
C431 C 0.1798 0.15584 0.9042 0.0
C432 C 0.15793 0.15422 0.91764 0.0
C433 C 0.15768 0.17355 0.94085 0.0
H434 H 0.81526 0.96588 0.94313 0.0
H435 H 0.7751 0.0032 0.93229 0.0
H436 H 0.84998 0.00025 0.9049 0.0
H437 H 0.80962 0.03726 0.89356 0.0
H438 H 0.8715 0.09485 0.81616 0.0
H439 H 0.83978 0.05256 0.81995 0.0
H440 H 0.87465 0.04197 0.94638 0.0
H441 H 0.90586 0.08418 0.9432 0.0
C442 C 0.81361 0.98112 0.93139 0.0
C443 C 0.79256 0.982 0.94134 0.0
C444 C 0.83348 0.00074 0.90949 0.0
C445 C 0.83247 0.02136 0.89623 0.0
C446 C 0.81082 0.02148 0.90282 0.0
C447 C 0.79113 0.00207 0.92548 0.0
C448 C 0.87298 0.08314 0.8431 0.0
C449 C 0.89101 0.09265 0.87947 0.0
C450 C 0.85473 0.05904 0.84557 0.0
C451 C 0.85465 0.04411 0.8838 0.0
C452 C 0.87432 0.053 0.91635 0.0
C453 C 0.89222 0.07715 0.91452 0.0
H454 H 0.90188 0.81695 0.94492 0.0
H455 H 0.89387 0.77242 0.81855 0.0
H456 H 0.94422 0.82871 0.95097 0.0
H457 H 0.93632 0.78375 0.82518 0.0
H458 H 0.98686 0.77093 0.93851 0.0
H459 H 0.95206 0.76982 0.89951 0.0
H460 H 0.98617 0.84702 0.9113 0.0
H461 H 0.02115 0.84829 0.94994 0.0
C462 C 0.90954 0.81061 0.91703 0.0
C463 C 0.89478 0.7939 0.88121 0.0
C464 C 0.93374 0.81726 0.92051 0.0
C465 C 0.94342 0.80688 0.8889 0.0
C466 C 0.92921 0.7919 0.85011 0.0
C467 C 0.90505 0.78564 0.84597 0.0
C468 C 0.98716 0.78772 0.93192 0.0
C469 C 0.00662 0.80964 0.94797 0.0
C470 C 0.96734 0.7871 0.90909 0.0
C471 C 0.96647 0.80836 0.90239 0.0
C472 C 0.98642 0.8304 0.91604 0.0
C473 C 0.0064 0.83106 0.93824 0.0
H474 H 0.76669 0.77626 0.05048 0.0
H475 H 0.84401 0.81689 0.03603 0.0
H476 H 0.76725 0.81091 0.08886 0.0
H477 H 0.84444 0.85174 0.07379 0.0
H478 H 0.81452 0.90627 0.03492 0.0
H479 H 0.82596 0.87538 0.03157 0.0
H480 H 0.78325 0.84189 0.16207 0.0
H481 H 0.77228 0.87333 0.16607 0.0
C482 C 0.78384 0.79242 0.05645 0.0
C483 C 0.80526 0.79396 0.03969 0.0
C484 C 0.78419 0.81218 0.07889 0.0
C485 C 0.80591 0.83398 0.08429 0.0
C486 C 0.82749 0.83511 0.07015 0.0
C487 C 0.8272 0.81517 0.04852 0.0
C488 C 0.80861 0.89301 0.06431 0.0
C489 C 0.79256 0.89209 0.1007 0.0
C490 C 0.81512 0.87532 0.06243 0.0
C491 C 0.80523 0.85612 0.09625 0.0
C492 C 0.79103 0.85649 0.13552 0.0
C493 C 0.78494 0.87456 0.13805 0.0
H494 H 0.17279 0.02675 0.04558 0.0
H495 H 0.21207 0.98838 0.05062 0.0
H496 H 0.13883 0.99312 0.08729 0.0
H497 H 0.17827 0.95501 0.09262 0.0
H498 H 0.11832 0.89805 0.17302 0.0
H499 H 0.15005 0.94028 0.16849 0.0
H500 H 0.11246 0.95159 0.0482 0.0
H501 H 0.08119 0.90947 0.05219 0.0
C502 C 0.17443 0.01142 0.05667 0.0
C503 C 0.19496 0.01003 0.0441 0.0
C504 C 0.155 0.99223 0.08062 0.0
C505 C 0.15594 0.97151 0.09323 0.0
C506 C 0.17716 0.97089 0.08395 0.0
C507 C 0.19641 0.98989 0.05935 0.0
C508 C 0.11626 0.90992 0.14747 0.0
C509 C 0.09747 0.90062 0.11275 0.0
C510 C 0.13451 0.93399 0.14454 0.0
C511 C 0.13386 0.94906 0.10751 0.0
C512 C 0.1134 0.94044 0.07724 0.0
C513 C 0.09546 0.91633 0.07953 0.0
H514 H 0.09065 0.2161 0.17695 0.0
H515 H 0.08066 0.16986 0.05246 0.0
H516 H 0.04827 0.20503 0.17228 0.0
H517 H 0.03839 0.15843 0.04833 0.0
H518 H 0.00033 0.22001 0.05586 0.0
H519 H 0.03367 0.21944 0.09755 0.0
H520 H -0.00349 0.14202 0.08708 0.0
H521 H 0.96288 0.14249 0.04571 0.0
C522 C 0.07907 0.20253 0.15048 0.0
C523 C 0.0888 0.19387 0.11488 0.0
C524 C 0.05492 0.1964 0.1475 0.0
C525 C 0.04019 0.18117 0.1095 0.0
C526 C 0.04927 0.17012 0.07813 0.0
C527 C 0.07346 0.17662 0.08049 0.0
C528 C -0.00099 0.20282 0.06343 0.0
C529 C 0.97915 0.18134 0.04683 0.0
C530 C 0.01799 0.20247 0.08784 0.0
C531 C 0.01765 0.18066 0.09555 0.0
C532 C -0.00282 0.15905 0.08163 0.0
C533 C 0.97799 0.15937 0.05789 0.0
H534 H 0.88842 0.54786 0.27428 0.0
H535 H 0.81073 0.50754 0.2768 0.0
H536 H 0.88884 0.51442 0.2325 0.0
H537 H 0.81128 0.47408 0.23521 0.0
H538 H 0.83685 0.4162 0.26704 0.0
H539 H 0.82618 0.44754 0.27301 0.0
H540 H 0.8764 0.48699 0.15577 0.0
H541 H 0.88674 0.45518 0.14928 0.0
C542 C 0.87144 0.53206 0.26518 0.0
C543 C 0.84958 0.53024 0.27957 0.0
C544 C 0.87167 0.513 0.2407 0.0
C545 C 0.85007 0.49167 0.23057 0.0
C546 C 0.82817 0.49033 0.24259 0.0
C547 C 0.82792 0.50949 0.26652 0.0
C548 C 0.84459 0.43092 0.24073 0.0
C549 C 0.86257 0.43336 0.20776 0.0
C550 C 0.83857 0.44893 0.2442 0.0
C551 C 0.85079 0.46988 0.2154 0.0
C552 C 0.86688 0.47108 0.17864 0.0
C553 C 0.87257 0.45277 0.17451 0.0
H554 H 0.53613 0.4279 0.15112 0.0
H555 H 0.57436 0.41728 0.27084 0.0
H556 H 0.50413 0.38588 0.1581 0.0
H557 H 0.54281 0.37534 0.27723 0.0
H558 H 0.44271 0.33776 0.27672 0.0
H559 H 0.47649 0.3715 0.23534 0.0
H560 H 0.5162 0.33365 0.23883 0.0
H561 H 0.48235 0.29972 0.27988 0.0
C562 C 0.53834 0.41622 0.17694 0.0
C563 C 0.55759 0.4257 0.21057 0.0
C564 C 0.51992 0.39229 0.18132 0.0
C565 C 0.52085 0.37752 0.21869 0.0
C566 C 0.54164 0.38627 0.24797 0.0
C567 C 0.55977 0.41026 0.24425 0.0
C568 C 0.45845 0.33643 0.26786 0.0
C569 C 0.45996 0.31621 0.28222 0.0
C570 C 0.47769 0.35563 0.24363 0.0
C571 C 0.49893 0.35513 0.2338 0.0
C572 C 0.50001 0.33445 0.24593 0.0
C573 C 0.48064 0.31508 0.26953 0.0
H574 H 0.56903 0.15108 0.27648 0.0
H575 H 0.55952 0.10209 0.15784 0.0
H576 H 0.61074 0.16092 0.28584 0.0
H577 H 0.60123 0.11144 0.168 0.0
H578 H 0.68712 0.17649 0.28731 0.0
H579 H 0.6529 0.17594 0.2467 0.0
H580 H 0.61466 0.09837 0.24865 0.0
H581 H 0.64872 0.09878 0.28986 0.0
C582 C 0.5763 0.14338 0.25076 0.0
C583 C 0.56126 0.12598 0.2163 0.0
C584 C 0.60011 0.14888 0.25625 0.0
C585 C 0.60902 0.13665 0.2281 0.0
C586 C 0.59467 0.121 0.19028 0.0
C587 C 0.57096 0.11589 0.18405 0.0
C588 C 0.67157 0.15928 0.27842 0.0
C589 C 0.6705 0.13764 0.29235 0.0
C590 C 0.65205 0.15903 0.25505 0.0
C591 C 0.63126 0.13715 0.24433 0.0
C592 C 0.63064 0.1155 0.25586 0.0
C593 C 0.65002 0.11574 0.27996 0.0
H594 H 0.43256 0.10979 0.38372 0.0
H595 H 0.51014 0.14924 0.37576 0.0
H596 H 0.43322 0.14401 0.42438 0.0
H597 H 0.51069 0.18362 0.41597 0.0
H598 H 0.43753 0.20489 0.50512 0.0
H599 H 0.44786 0.17304 0.49998 0.0
H600 H 0.49453 0.20932 0.37582 0.0
H601 H 0.48379 0.24068 0.38034 0.0
C602 C 0.44976 0.12559 0.3915 0.0
C603 C 0.47126 0.12693 0.37592 0.0
C604 C 0.45016 0.14509 0.4153 0.0
C605 C 0.47204 0.16644 0.42336 0.0
C606 C 0.49362 0.16733 0.41027 0.0
C607 C 0.49325 0.14766 0.38719 0.0
C608 C 0.45094 0.20664 0.47846 0.0
C609 C 0.45985 0.2251 0.44298 0.0
C610 C 0.45665 0.18832 0.47521 0.0
C611 C 0.47172 0.1886 0.4371 0.0
C612 C 0.48296 0.2087 0.40571 0.0
C613 C 0.47686 0.22669 0.4083 0.0
H614 H 0.74826 0.23904 0.37746 0.0
H615 H 0.78508 0.23042 0.5026 0.0
H616 H 0.77947 0.28112 0.37051 0.0
H617 H 0.81677 0.27257 0.49501 0.0
H618 H 0.83837 0.35758 0.3701 0.0
H619 H 0.8044 0.32318 0.40962 0.0
H620 H 0.84575 0.28716 0.41913 0.0
H621 H 0.87971 0.32139 0.3792 0.0
C622 C 0.76248 0.24652 0.40491 0.0
C623 C 0.76434 0.23163 0.44052 0.0
C624 C 0.78038 0.27058 0.4009 0.0
C625 C 0.80068 0.27994 0.4318 0.0
C626 C 0.80134 0.26568 0.4706 0.0
C627 C 0.7831 0.24169 0.47528 0.0
C628 C 0.84041 0.34253 0.38143 0.0
C629 C 0.86164 0.34206 0.37085 0.0
C630 C 0.82096 0.32289 0.40415 0.0
C631 C 0.82249 0.30259 0.41749 0.0
C632 C 0.8442 0.30273 0.40981 0.0
C633 C 0.86355 0.32222 0.38644 0.0
H634 H 0.63266 0.47864 0.37682 0.0
H635 H 0.67033 0.55635 0.37727 0.0
H636 H 0.66675 0.47926 0.41813 0.0
H637 H 0.70428 0.55684 0.41884 0.0
H638 H 0.76119 0.55457 0.50326 0.0
H639 H 0.71917 0.54454 0.49629 0.0
H640 H 0.70818 0.49389 0.3799 0.0
H641 H 0.75011 0.50428 0.38628 0.0
C642 C 0.64799 0.49585 0.38657 0.0
C643 C 0.64894 0.51749 0.37306 0.0
C644 C 0.66746 0.49615 0.41034 0.0
C645 C 0.6881 0.51806 0.42176 0.0
C646 C 0.68845 0.53966 0.4111 0.0
C647 C 0.66911 0.53939 0.38676 0.0
C648 C 0.74941 0.54038 0.47811 0.0
C649 C 0.75876 0.53017 0.44521 0.0
C650 C 0.72548 0.53487 0.4737 0.0
C651 C 0.71058 0.51874 0.43704 0.0
C652 C 0.71921 0.50632 0.4086 0.0
C653 C 0.74318 0.51218 0.41234 0.0
H654 H 0.50008 0.74777 0.59862 0.0
H655 H 0.54895 0.78724 0.47974 0.0
H656 H 0.48893 0.77873 0.6057 0.0
H657 H 0.53812 0.81864 0.48732 0.0
H658 H 0.55082 0.87905 0.60742 0.0
H659 H 0.55103 0.84579 0.56446 0.0
H660 H 0.4735 0.80526 0.56955 0.0
H661 H 0.47318 0.83864 0.6123 0.0
C662 C 0.50748 0.7625 0.57231 0.0
C663 C 0.52536 0.76522 0.53875 0.0
C664 C 0.50117 0.78029 0.57641 0.0
C665 C 0.51299 0.80128 0.54762 0.0
C666 C 0.5289 0.8027 0.5102 0.0
C667 C 0.53489 0.78462 0.50547 0.0
C668 C 0.53379 0.86325 0.59859 0.0
C669 C 0.51202 0.86136 0.61392 0.0
C670 C 0.5339 0.8443 0.57343 0.0
C671 C 0.51225 0.82296 0.56358 0.0
C672 C 0.49042 0.82153 0.57663 0.0
C673 C 0.49028 0.84062 0.60121 0.0
H674 H 0.10909 0.66775 0.59718 0.0
H675 H 0.15064 0.63222 0.61541 0.0
H676 H 0.14352 0.70177 0.55813 0.0
H677 H 0.18528 0.66657 0.57691 0.0
H678 H 0.23841 0.75137 0.61478 0.0
H679 H 0.20821 0.70881 0.6179 0.0
H680 H 0.17483 0.71701 0.48613 0.0
H681 H 0.20558 0.75967 0.48242 0.0
C682 C 0.12541 0.66699 0.59186 0.0
C683 C 0.12727 0.64749 0.60994 0.0
C684 C 0.14505 0.68636 0.56902 0.0
C685 C 0.16705 0.68677 0.56453 0.0
C686 C 0.16849 0.66663 0.57984 0.0
C687 C 0.14868 0.64703 0.6019 0.0
C688 C 0.22535 0.74377 0.58507 0.0
C689 C 0.22421 0.75867 0.54844 0.0
C690 C 0.20805 0.71941 0.58681 0.0
C691 C 0.18904 0.70974 0.55258 0.0
C692 C 0.1893 0.72411 0.51301 0.0
C693 C 0.20697 0.74843 0.51066 0.0
H694 H 0.23993 0.4858 0.61347 0.0
H695 H 0.22947 0.44135 0.4855 0.0
H696 H 0.28214 0.49684 0.61659 0.0
H697 H 0.27177 0.45196 0.48924 0.0
H698 H 0.35796 0.51313 0.61441 0.0
H699 H 0.32401 0.51392 0.57531 0.0
H700 H 0.28654 0.43657 0.56304 0.0
H701 H 0.32018 0.43567 0.60266 0.0
C702 C 0.24701 0.47934 0.58459 0.0
C703 C 0.23158 0.46275 0.54931 0.0
C704 C 0.27116 0.48562 0.58636 0.0
C705 C 0.2801 0.47498 0.55353 0.0
C706 C 0.26524 0.46031 0.51506 0.0
C707 C 0.24114 0.45443 0.51264 0.0
C708 C 0.34272 0.49634 0.60225 0.0
C709 C 0.34156 0.47429 0.61224 0.0
C710 C 0.32334 0.49684 0.57984 0.0
C711 C 0.30271 0.47534 0.56612 0.0
C712 C 0.30235 0.45346 0.57266 0.0
C713 C 0.32151 0.45292 0.59583 0.0
H714 H 0.1506 0.57462 0.70981 0.0
H715 H 0.10692 0.54041 0.83861 0.0
H716 H 0.16236 0.54398 0.70653 0.0
H717 H 0.11825 0.50922 0.83474 0.0
H718 H 0.18074 0.48587 0.70965 0.0
H719 H 0.18055 0.52033 0.74773 0.0
H720 H 0.10336 0.4786 0.76199 0.0
H721 H 0.10342 0.44431 0.72346 0.0
C722 C 0.14445 0.56114 0.7388 0.0
C723 C 0.12793 0.5598 0.77446 0.0
C724 C 0.15114 0.54357 0.73693 0.0
C725 C 0.14096 0.52407 0.77003 0.0
C726 C 0.12626 0.52404 0.80871 0.0
C727 C 0.11997 0.54197 0.81121 0.0
C728 C 0.16378 0.48387 0.72199 0.0
C729 C 0.14203 0.46248 0.7129 0.0
C730 C 0.16372 0.50359 0.74382 0.0
C731 C 0.14197 0.50212 0.75782 0.0
C732 C 0.12043 0.48016 0.75213 0.0
C733 C 0.12044 0.4606 0.72957 0.0
H734 H 0.5027 0.68956 0.70143 0.0
H735 H 0.54535 0.65475 0.71012 0.0
H736 H 0.46923 0.65482 0.74134 0.0
H737 H 0.51191 0.62018 0.7504 0.0
H738 H 0.41413 0.57047 0.7098 0.0
H739 H 0.44483 0.61272 0.70259 0.0
H740 H 0.48311 0.60492 0.82617 0.0
H741 H 0.45188 0.56256 0.83399 0.0
C742 C 0.50514 0.67474 0.71278 0.0
C743 C 0.52658 0.67475 0.70195 0.0
C744 C 0.48597 0.6549 0.73571 0.0
C745 C 0.488 0.63487 0.74901 0.0
C746 C 0.50996 0.63553 0.74112 0.0
C747 C 0.52901 0.65521 0.71756 0.0
C748 C 0.42844 0.57815 0.73703 0.0
C749 C 0.43068 0.56344 0.77253 0.0
C750 C 0.44606 0.6023 0.73287 0.0
C751 C 0.46649 0.61197 0.76345 0.0
C752 C 0.46757 0.59782 0.80203 0.0
C753 C 0.44961 0.57371 0.80686 0.0
H754 H 0.41358 0.83644 0.71679 0.0
H755 H 0.42365 0.88343 0.83987 0.0
H756 H 0.37144 0.82546 0.71162 0.0
H757 H 0.38142 0.87283 0.83411 0.0
H758 H 0.3334 0.88728 0.71705 0.0
H759 H 0.36696 0.8869 0.75829 0.0
H760 H 0.32947 0.8094 0.75048 0.0
H761 H 0.29561 0.80969 0.70964 0.0
C762 C 0.40641 0.84347 0.74431 0.0
C763 C 0.42176 0.86076 0.77865 0.0
C764 C 0.3823 0.83724 0.74133 0.0
C765 C 0.37329 0.8486 0.77199 0.0
C766 C 0.388 0.86394 0.80987 0.0
C767 C 0.41207 0.86981 0.81351 0.0
C768 C 0.33207 0.87013 0.72508 0.0
C769 C 0.31201 0.84855 0.70951 0.0
C770 C 0.35118 0.86989 0.74921 0.0
C771 C 0.35078 0.8481 0.75764 0.0
C772 C 0.33018 0.82643 0.7445 0.0
C773 C 0.31086 0.82664 0.72109 0.0
H774 H 0.15154 0.26495 0.88332 0.0
H775 H 0.15091 0.32021 0.97358 0.0
H776 H 0.15651 0.28851 0.80951 0.0
H777 H 0.15459 0.34336 0.89921 0.0
H778 H 0.18728 0.39132 0.76604 0.0
H779 H 0.18363 0.36713 0.83883 0.0
H780 H 0.13804 0.30242 0.75568 0.0
H781 H 0.14277 0.32627 0.68299 0.0
C782 C 0.15171 0.28181 0.88723 0.0
C783 C 0.15085 0.29075 0.93422 0.0
C784 C 0.15463 0.2954 0.84484 0.0
C785 C 0.15627 0.31801 0.84839 0.0
C786 C 0.15408 0.32634 0.89525 0.0
C787 C 0.15159 0.31292 0.93779 0.0
C788 C 0.17692 0.37191 0.76319 0.0
C789 C 0.16535 0.36077 0.71875 0.0
C790 C 0.17452 0.35804 0.80503 0.0
C791 C 0.16023 0.33281 0.80336 0.0
C792 C 0.14941 0.32174 0.75834 0.0
C793 C 0.15213 0.33552 0.71648 0.0
H794 H 0.71974 0.86483 0.88926 0.0
H795 H 0.65459 0.84679 0.96963 0.0
H796 H 0.6958 0.84394 0.81655 0.0
H797 H 0.63095 0.82713 0.89682 0.0
H798 H 0.65014 0.82933 0.68002 0.0
H799 H 0.67268 0.84949 0.75447 0.0
H800 H 0.61709 0.7937 0.84466 0.0
H801 H 0.59415 0.77427 0.77059 0.0
C802 C 0.70035 0.85627 0.89154 0.0
C803 C 0.68911 0.85748 0.9352 0.0
C804 C 0.68663 0.84458 0.84972 0.0
C805 C 0.66146 0.83416 0.85061 0.0
C806 C 0.65024 0.83471 0.89487 0.0
C807 C 0.66388 0.84606 0.93674 0.0
C808 C 0.64255 0.82168 0.71587 0.0
C809 C 0.62039 0.80024 0.71949 0.0
C810 C 0.65561 0.83302 0.75848 0.0
C811 C 0.64691 0.82298 0.80552 0.0
C812 C 0.62426 0.80206 0.80912 0.0
C813 C 0.61105 0.79093 0.76658 0.0
H814 H 0.17563 0.84937 0.6768 0.0
H815 H 0.19547 0.80451 0.76057 0.0
H816 H 0.15651 0.85437 0.74938 0.0
H817 H 0.17508 0.80854 0.83312 0.0
H818 H 0.1617 0.84179 0.96738 0.0
H819 H 0.18112 0.83833 0.89277 0.0
H820 H 0.12393 0.83582 0.80372 0.0
H821 H 0.10524 0.84044 0.87785 0.0
C822 C 0.17538 0.84002 0.71041 0.0
C823 C 0.18722 0.82662 0.71295 0.0
C824 C 0.16435 0.8429 0.75217 0.0
C825 C 0.16451 0.83212 0.79732 0.0
C826 C 0.1752 0.81763 0.79922 0.0
C827 C 0.18659 0.81502 0.75749 0.0
C828 C 0.1536 0.84103 0.9317 0.0
C829 C 0.13197 0.84139 0.92845 0.0
C830 C 0.16452 0.83867 0.88902 0.0
C831 C 0.15384 0.8363 0.84232 0.0
C832 C 0.13277 0.83777 0.83899 0.0
C833 C 0.12206 0.84049 0.88156 0.0
H834 H 0.85061 0.72113 0.08944 0.0
H835 H 0.80018 0.65568 0.01393 0.0
H836 H 0.84822 0.69774 0.16261 0.0
H837 H 0.79696 0.63258 0.08736 0.0
H838 H 0.81517 0.59643 0.21224 0.0
H839 H 0.81716 0.61851 0.1377 0.0
H840 H 0.82058 0.67595 0.22739 0.0
H841 H 0.81966 0.65425 0.30214 0.0
C842 C 0.83916 0.70177 0.08835 0.0
C843 C 0.82564 0.69028 0.0459 0.0
C844 C 0.83754 0.68839 0.13045 0.0
C845 C 0.82212 0.6633 0.13109 0.0
C846 C 0.80919 0.6518 0.08805 0.0
C847 C 0.81106 0.66511 0.04585 0.0
C848 C 0.81591 0.61357 0.21609 0.0
C849 C 0.8174 0.62367 0.26305 0.0
C850 C 0.81709 0.62628 0.17329 0.0
C851 C 0.81941 0.64919 0.17654 0.0
C852 C 0.81949 0.65865 0.22358 0.0
C853 C 0.81864 0.64608 0.26642 0.0
H854 H 0.26517 0.12766 0.09114 0.0
H855 H 0.33075 0.1445 0.01382 0.0
H856 H 0.28865 0.14875 0.1642 0.0
H857 H 0.3539 0.16431 0.087 0.0
H858 H 0.39053 0.21718 0.21269 0.0
H859 H 0.36784 0.19791 0.1383 0.0
H860 H 0.31092 0.14318 0.22794 0.0
H861 H 0.33323 0.16325 0.30268 0.0
C862 C 0.28456 0.13601 0.08961 0.0
C863 C 0.29606 0.13442 0.04672 0.0
C864 C 0.29801 0.14781 0.13163 0.0
C865 C 0.32315 0.15794 0.13171 0.0
C866 C 0.33463 0.15699 0.08818 0.0
C867 C 0.32128 0.14557 0.04609 0.0
C868 C 0.37336 0.20079 0.21652 0.0
C869 C 0.36363 0.19173 0.2635 0.0
C870 C 0.3603 0.18975 0.1738 0.0
C871 C 0.3374 0.16915 0.17711 0.0
C872 C 0.32822 0.15939 0.22411 0.0
C873 C 0.34113 0.17068 0.2669 0.0
H874 H 0.82586 0.1673 0.30374 0.0
H875 H 0.76966 0.16642 0.21411 0.0
H876 H 0.84572 0.16466 0.229 0.0
H877 H 0.78878 0.16263 0.13982 0.0
H878 H 0.8424 0.18044 0.01457 0.0
H879 H 0.82196 0.18308 0.08742 0.0
H880 H 0.8409 0.13635 0.16661 0.0
H881 H 0.86257 0.13466 0.09384 0.0
C882 C 0.81786 0.16672 0.26804 0.0
C883 C 0.79626 0.16714 0.26476 0.0
C884 C 0.82904 0.16486 0.22527 0.0
C885 C 0.81866 0.16306 0.17844 0.0
C886 C 0.79742 0.16422 0.17519 0.0
C887 C 0.78646 0.16645 0.21785 0.0
C888 C 0.84196 0.1704 0.0472 0.0
C889 C 0.85427 0.15744 0.04848 0.0
C890 C 0.83016 0.1719 0.0891 0.0
C891 C 0.83001 0.16016 0.1331 0.0
C892 C 0.84121 0.14612 0.13364 0.0
C893 C 0.85336 0.14488 0.09179 0.0
H894 H 0.4869 0.98857 0.64029 0.0
H895 H 0.47961 0.92984 0.54945 0.0
H896 H 0.48805 0.01064 0.56589 0.0
H897 H 0.48193 0.95225 0.47534 0.0
H898 H 0.4656 0.98983 0.35264 0.0
H899 H 0.46212 0.9669 0.42635 0.0
H900 H 0.51497 0.03185 0.49992 0.0
H901 H 0.51753 0.05516 0.42638 0.0
C902 C 0.48532 0.9803 0.60444 0.0
C903 C 0.48316 0.9575 0.60067 0.0
C904 C 0.48632 0.99306 0.56181 0.0
C905 C 0.48549 0.98339 0.51461 0.0
C906 C 0.48238 0.96017 0.51104 0.0
C907 C 0.48102 0.94728 0.55361 0.0
C908 C 0.47676 -0.00074 0.38424 0.0
C909 C 0.49189 0.02435 0.38368 0.0
C910 C 0.47475 0.98604 0.42662 0.0
C911 C 0.48814 -0.00248 0.46923 0.0
C912 C 0.50398 0.02252 0.46808 0.0
C913 C 0.50571 0.03585 0.4258 0.0
H914 H 0.9897 0.51198 0.64342 0.0
H915 H 0.05496 0.53025 0.56322 0.0
H916 H 0.96614 0.49232 0.57048 0.0
H917 H 0.03112 0.5094 0.49043 0.0
H918 H 0.98602 0.49618 0.35367 0.0
H919 H 0.00831 0.51567 0.42878 0.0
H920 H 0.95228 0.45925 0.51708 0.0
H921 H 0.9296 0.44048 0.44232 0.0
C922 C -0.00097 0.51127 0.61057 0.0
C923 C 0.02427 0.52284 0.60904 0.0
C924 C 0.98544 0.49993 0.56862 0.0
C925 C -0.00327 0.49956 0.52433 0.0
C926 C 0.0219 0.50995 0.5236 0.0
C927 C 0.03556 0.52161 0.56547 0.0
C928 C 0.97828 0.48825 0.38924 0.0
C929 C 0.95608 0.46682 0.39212 0.0
C930 C 0.9912 0.4992 0.43223 0.0
C931 C 0.98231 0.48877 0.47891 0.0
C932 C 0.95961 0.46788 0.48182 0.0
C933 C 0.94655 0.45714 0.43889 0.0
H934 H 0.45959 0.51939 0.56536 0.0
H935 H 0.47477 0.46918 0.64135 0.0
H936 H 0.48077 0.51711 0.49241 0.0
H937 H 0.49486 0.46607 0.56812 0.0
H938 H 0.54883 0.48385 0.44258 0.0
H939 H 0.52907 0.48625 0.51731 0.0
H940 H 0.47465 0.48914 0.42807 0.0
H941 H 0.49508 0.48779 0.35314 0.0
C942 C 0.46759 0.50803 0.56662 0.0
C943 C 0.46549 0.49449 0.60909 0.0
C944 C 0.47945 0.50647 0.52465 0.0
C945 C 0.48918 0.49111 0.52416 0.0
C946 C 0.48778 0.47824 0.5673 0.0
C947 C 0.47623 0.48004 0.60938 0.0
C948 C 0.53241 0.48457 0.43889 0.0
C949 C 0.52357 0.48576 0.392 0.0
C950 C 0.52109 0.48599 0.48179 0.0
C951 C 0.50048 0.48827 0.47868 0.0
C952 C 0.49088 0.4881 0.43174 0.0
C953 C 0.5024 0.48699 0.38882 0.0
H954 H 0.20632 0.23143 0.25728 0.0
H955 H 0.25481 0.24659 0.13373 0.0
H956 H 0.23819 0.23627 0.31436 0.0
H957 H 0.28621 0.25151 0.19039 0.0
H958 H 0.29898 0.22167 0.38042 0.0
H959 H 0.26439 0.21698 0.33356 0.0
H960 H 0.31027 0.2831 0.25554 0.0
H961 H 0.34492 0.28786 0.30202 0.0
C962 C 0.22356 0.23541 0.24224 0.0
C963 C 0.22808 0.23887 0.19099 0.0
C964 C 0.24179 0.23829 0.2749 0.0
C965 C 0.26478 0.24484 0.25674 0.0
C966 C 0.26885 0.24711 0.20546 0.0
C967 C 0.25073 0.24408 0.17299 0.0
C968 C 0.30165 0.23545 0.35388 0.0
C969 C 0.3248 0.25498 0.34441 0.0
C970 C 0.2818 0.23276 0.32725 0.0
C971 C 0.28478 0.24945 0.29047 0.0
C972 C 0.3076 0.26975 0.2832 0.0
C973 C 0.32741 0.27255 0.31004 0.0
H974 H 0.76996 0.07552 0.38126 0.0
H975 H 0.70417 0.05576 0.30181 0.0
H976 H 0.77577 0.0471 0.33134 0.0
H977 H 0.71009 0.02742 0.25222 0.0
H978 H 0.74729 0.01078 0.12882 0.0
H979 H 0.74281 0.03693 0.18742 0.0
H980 H 0.75644 0.00158 0.3088 0.0
H981 H 0.7608 0.97492 0.24983 0.0
C982 C 0.75652 0.06483 0.3538 0.0
C983 C 0.73674 0.06812 0.34506 0.0
C984 C 0.75986 0.04854 0.32539 0.0
C985 C 0.7436 0.03545 0.2875 0.0
C986 C 0.7231 0.03766 0.28074 0.0
C987 C 0.71963 0.05375 0.30938 0.0
C988 C 0.74962 0.00865 0.16791 0.0
C989 C 0.75409 0.99052 0.18468 0.0
C990 C 0.74686 0.02354 0.20146 0.0
C991 C 0.74868 0.02081 0.25257 0.0
C992 C 0.75476 0.00385 0.26948 0.0
C993 C 0.75738 0.98872 0.23574 0.0
H994 H 0.93547 0.64571 0.30104 0.0
H995 H 0.9119 0.69096 0.3711 0.0
H996 H 0.96498 0.68007 0.25337 0.0
H997 H 0.94147 0.72529 0.323 0.0
H998 H 0.0145 0.78385 0.24901 0.0
H999 H 0.98706 0.75239 0.30634 0.0
H1000 H 0.9576 0.70246 0.18434 0.0
H1001 H 0.98455 0.73346 0.12738 0.0
C1002 C 0.93682 0.66303 0.30693 0.0
C1003 C 0.9211 0.6655 0.33939 0.0
C1004 C 0.95363 0.68266 0.2794 0.0
C1005 C 0.95517 0.70518 0.284 0.0
C1006 C 0.9406 0.7081 0.31877 0.0
C1007 C 0.92364 0.6884 0.34612 0.0
C1008 C 0.0019 0.76627 0.23439 0.0
C1009 C 0.00191 0.76112 0.18369 0.0
C1010 C 0.98629 0.74829 0.26721 0.0
C1011 C 0.97067 0.72492 0.24979 0.0
C1012 C 0.96992 0.72017 0.1989 0.0
C1013 C 0.98527 0.73804 0.16624 0.0
H1014 H 0.78002 0.76295 0.73162 0.0
H1015 H 0.73113 0.74924 0.85373 0.0
H1016 H 0.7489 0.7592 0.67349 0.0
H1017 H 0.70043 0.74528 0.79598 0.0
H1018 H 0.64269 0.70656 0.68224 0.0
H1019 H 0.67739 0.71228 0.72979 0.0
H1020 H 0.72224 0.77938 0.65413 0.0
H1021 H 0.68749 0.77383 0.60627 0.0
C1022 C 0.76289 0.7596 0.74613 0.0
C1023 C 0.75795 0.75608 0.79724 0.0
C1024 C 0.7451 0.75734 0.71288 0.0
C1025 C 0.72217 0.75134 0.73037 0.0
C1026 C 0.71779 0.7493 0.78153 0.0
C1027 C 0.73548 0.75173 0.81458 0.0
C1028 C 0.65998 0.72232 0.67495 0.0
C1029 C 0.66223 0.73989 0.64095 0.0
C1030 C 0.67981 0.72564 0.70239 0.0
C1031 C 0.70231 0.74646 0.69606 0.0
C1032 C 0.70503 0.76322 0.65968 0.0
C1033 C 0.68512 0.76003 0.63249 0.0
H1034 H 0.22344 0.91911 0.59954 0.0
H1035 H 0.28542 0.93489 0.68925 0.0
H1036 H 0.21672 0.94693 0.64923 0.0
H1037 H 0.27872 0.96283 0.73844 0.0
H1038 H 0.23964 0.97997 0.85627 0.0
H1039 H 0.2456 0.95441 0.79858 0.0
H1040 H 0.23432 0.99058 0.67542 0.0
H1041 H 0.2283 0.01645 0.73347 0.0
C1042 C 0.23593 0.92885 0.62919 0.0
C1043 C 0.25481 0.92453 0.64084 0.0
C1044 C 0.23205 0.94481 0.65755 0.0
C1045 C 0.2469 0.95663 0.69822 0.0
C1046 C 0.26669 0.95352 0.70786 0.0
C1047 C 0.27065 0.93769 0.67939 0.0
C1048 C 0.23811 0.98235 0.81693 0.0
C1049 C 0.23375 0.00045 0.79947 0.0
C1050 C 0.24176 0.96784 0.7839 0.0
C1051 C 0.24106 0.97097 0.73257 0.0
C1052 C 0.23514 0.98795 0.71488 0.0
C1053 C 0.23155 0.00263 0.7481 0.0
H1054 H 0.01018 0.25711 0.86056 0.0
H1055 H 0.97449 0.20947 0.73707 0.0
H1056 H 0.03627 0.28862 0.80339 0.0
H1057 H 0.00095 0.24137 0.67956 0.0
H1058 H 0.07335 0.3024 0.60608 0.0
H1059 H 0.04532 0.26766 0.65523 0.0
H1060 H 0.02772 0.31317 0.74219 0.0
H1061 H 0.05576 0.34795 0.6935 0.0
C1062 C 0.00809 0.25322 0.82121 0.0
C1063 C 0.99003 0.23083 0.80338 0.0
C1064 C 0.02292 0.27139 0.78846 0.0
C1065 C 0.02019 0.26761 0.73709 0.0
C1066 C 0.00328 0.24477 0.71907 0.0
C1067 C 0.98825 0.2265 0.752 0.0
C1068 C 0.0632 0.30495 0.63512 0.0
C1069 C 0.06703 0.32804 0.64627 0.0
C1070 C 0.04713 0.28502 0.66315 0.0
C1071 C 0.03474 0.28785 0.70303 0.0
C1072 C 0.03745 0.31061 0.71221 0.0
C1073 C 0.05336 0.33049 0.68404 0.0
H1074 H 0.87603 0.56694 0.58574 0.0
H1075 H 0.92484 0.58134 0.46322 0.0
H1076 H 0.90773 0.57236 0.64373 0.0
H1077 H 0.95613 0.58668 0.52081 0.0
H1078 H 0.01466 0.62377 0.6327 0.0
H1079 H 0.98039 0.61825 0.58378 0.0
H1080 H 0.93363 0.5543 0.66739 0.0
H1081 H 0.96782 0.55984 0.71685 0.0
C1082 C 0.89331 0.57083 0.57112 0.0
C1083 C 0.89796 0.57394 0.51988 0.0
C1084 C 0.91146 0.57404 0.60431 0.0
C1085 C 0.93452 0.58052 0.58676 0.0
C1086 C 0.93872 0.58237 0.53547 0.0
C1087 C 0.92067 0.57907 0.50246 0.0
C1088 C -0.00297 0.60879 0.64139 0.0
C1089 C -0.00593 0.5921 0.67829 0.0
C1090 C 0.97744 0.60552 0.61308 0.0
C1091 C 0.95446 0.58558 0.62122 0.0
C1092 C 0.95114 0.56979 0.66028 0.0
C1093 C 0.97077 0.57299 0.68849 0.0
H1094 H 0.40997 0.34032 0.4689 0.0
H1095 H 0.42085 0.30278 0.5903 0.0
H1096 H 0.40375 0.36533 0.5275 0.0
H1097 H 0.41461 0.3282 0.64933 0.0
H1098 H 0.42724 0.40087 0.72484 0.0
H1099 H 0.43299 0.37226 0.67569 0.0
H1100 H 0.37053 0.35656 0.58831 0.0
H1101 H 0.36477 0.38525 0.63696 0.0
C1102 C 0.41129 0.33754 0.50813 0.0
C1103 C 0.41567 0.31935 0.5249 0.0
C1104 C 0.40749 0.35175 0.54169 0.0
C1105 C 0.40808 0.34825 0.59288 0.0
C1106 C 0.41387 0.33109 0.60996 0.0
C1107 C 0.41758 0.31668 0.57619 0.0
C1108 C 0.41443 0.39098 0.69578 0.0
C1109 C 0.39574 0.39563 0.68431 0.0
C1110 C 0.41774 0.37457 0.66776 0.0
C1111 C 0.40251 0.36262 0.62766 0.0
C1112 C 0.38283 0.36596 0.61847 0.0
C1113 C 0.37942 0.38224 0.6466 0.0
H1114 H 0.69344 0.0729 0.53234 0.0
H1115 H 0.65291 0.10949 0.54712 0.0
H1116 H 0.66622 0.04177 0.58917 0.0
H1117 H 0.62441 0.07742 0.60205 0.0
H1118 H 0.58316 0.0218 0.72026 0.0
H1119 H 0.6157 0.05662 0.67874 0.0
H1120 H 0.62746 0.00907 0.58418 0.0
H1121 H 0.59587 0.97456 0.62708 0.0
C1122 C 0.67862 0.07421 0.54812 0.0
C1123 C 0.67504 0.09334 0.53544 0.0
C1124 C 0.66288 0.05628 0.5803 0.0
C1125 C 0.64276 0.05672 0.59948 0.0
C1126 C 0.63979 0.07655 0.58831 0.0
C1127 C 0.65597 0.09487 0.55676 0.0
C1128 C 0.59299 0.01886 0.69106 0.0
C1129 C 0.58697 0.99542 0.67697 0.0
C1130 C 0.61151 0.03882 0.66699 0.0
C1131 C 0.62423 0.03576 0.62795 0.0
C1132 C 0.61847 0.01226 0.61473 0.0
C1133 C 0.60022 0.99237 0.63921 0.0
H1134 H 0.30807 0.03662 0.01948 0.0
H1135 H 0.35378 0.09966 0.93185 0.0
H1136 H 0.34272 0.04348 0.06866 0.0
H1137 H 0.38841 0.10648 0.98152 0.0
H1138 H 0.44608 0.09377 0.06663 0.0
H1139 H 0.41465 0.08823 0.00768 0.0
H1140 H 0.36668 0.07735 0.12955 0.0
H1141 H 0.39772 0.08292 0.18813 0.0
C1142 C 0.32554 0.05165 0.01003 0.0
C1143 C 0.32807 0.06776 0.97217 0.0
C1144 C 0.34534 0.05569 0.03847 0.0
C1145 C 0.36809 0.0758 0.02945 0.0
C1146 C 0.37103 0.09091 0.98932 0.0
C1147 C 0.35117 0.08698 0.96099 0.0
C1148 C 0.429 0.09075 0.08078 0.0
C1149 C 0.42429 0.08849 0.13203 0.0
C1150 C 0.41102 0.08743 0.04705 0.0
C1151 C 0.3881 0.08171 0.06418 0.0
C1152 C 0.38398 0.08106 0.11537 0.0
C1153 C 0.40187 0.08446 0.1489 0.0
H1154 H 0.95589 0.27067 0.02007 0.0
H1155 H 0.89034 0.25175 0.94045 0.0
H1156 H 0.95099 0.30005 0.06808 0.0
H1157 H 0.88545 0.28107 0.98899 0.0
H1158 H 0.89888 0.35228 0.06797 0.0
H1159 H 0.90382 0.32558 0.01023 0.0
H1160 H 0.92018 0.29306 0.13305 0.0
H1161 H 0.91529 0.31937 0.19037 0.0
C1162 C 0.94067 0.27303 0.01216 0.0
C1163 C 0.92335 0.25861 0.97687 0.0
C1164 C 0.93777 0.28974 0.03993 0.0
C1165 C 0.91759 0.29247 0.03284 0.0
C1166 C 0.90114 0.27929 -0.00475 0.0
C1167 C 0.90396 0.26246 0.96759 0.0
C1168 C 0.90315 0.33916 0.08264 0.0
C1169 C 0.90691 0.33813 0.13375 0.0
C1170 C 0.90607 0.32398 0.04958 0.0
C1171 C 0.91295 0.30769 0.06715 0.0
C1172 C 0.91554 0.30591 0.11835 0.0
C1173 C 0.91251 0.32088 0.15123 0.0
H1174 H 0.71688 0.68101 0.01707 0.0
H1175 H 0.73338 0.63429 0.93093 0.0
H1176 H 0.68861 0.6467 0.06655 0.0
H1177 H 0.70522 0.60006 0.98095 0.0
H1178 H 0.63623 0.54238 0.06622 0.0
H1179 H 0.66156 0.57396 0.00706 0.0
H1180 H 0.69716 0.62283 0.12851 0.0
H1181 H 0.67215 0.59165 0.18727 0.0
C1182 C 0.71417 0.6634 0.00801 0.0
C1183 C 0.72766 0.66049 0.97048 0.0
C1184 C 0.69813 0.64378 0.03665 0.0
C1185 C 0.69514 0.62084 0.0282 0.0
C1186 C 0.70723 0.61755 0.98835 0.0
C1187 C 0.72339 0.6372 0.9598 0.0
C1188 C 0.64977 0.55973 0.08025 0.0
C1189 C 0.652 0.56456 0.13145 0.0
C1190 C 0.66415 0.57782 0.04639 0.0
C1191 C 0.68086 0.60098 0.06325 0.0
C1192 C 0.68394 0.60534 0.11443 0.0
C1193 C 0.66973 0.58736 0.1481 0.0
H1194 H 0.58661 0.9098 0.79957 0.0
H1195 H 0.54005 0.90071 0.92348 0.0
H1196 H 0.61849 0.9162 0.85647 0.0
H1197 H 0.57236 0.9071 0.98082 0.0
H1198 H 0.67899 0.95608 0.96265 0.0
H1199 H 0.64405 0.94997 0.91536 0.0
H1200 H 0.59808 0.88861 0.00635 0.0
H1201 H 0.63295 0.89472 0.0541 0.0
C1202 C 0.58305 0.9089 0.839 0.0
C1203 C 0.56082 0.90499 0.85695 0.0
C1204 C 0.60144 0.91279 0.87158 0.0
C1205 C 0.59808 0.91277 0.92297 0.0
C1206 C 0.57544 0.9074 0.94127 0.0
C1207 C 0.55694 0.90361 0.90848 0.0
C1208 C 0.66141 0.9416 0.97335 0.0
C1209 C 0.65884 0.92571 0.01172 0.0
C1210 C 0.64143 0.93798 0.94599 0.0
C1211 C 0.61846 0.91852 0.95665 0.0
C1212 C 0.61558 0.9037 -0.00271 0.0
C1213 C 0.6356 0.90721 0.0245 0.0
H1214 H 0.08246 0.67858 0.79344 0.0
H1215 H 0.09663 0.64486 0.91763 0.0
H1216 H 0.07844 0.70583 0.84967 0.0
H1217 H 0.09278 0.67269 0.97421 0.0
H1218 H 0.10659 0.74811 0.04021 0.0
H1219 H 0.11244 0.71904 0.99262 0.0
H1220 H 0.04587 0.69706 0.91506 0.0
H1221 H 0.03988 0.72596 0.96235 0.0
C1222 C 0.08504 0.67715 0.83272 0.0
C1223 C 0.08954 0.65929 0.85109 0.0
C1224 C 0.08256 0.69269 0.86491 0.0
C1225 C 0.08472 0.69092 0.91623 0.0
C1226 C 0.09085 0.67423 0.93469 0.0
C1227 C 0.09316 0.65843 0.90232 0.0
C1228 C 0.09299 0.7368 0.01357 0.0
C1229 C 0.07289 0.73955 0.00464 0.0
C1230 C 0.09635 0.72014 0.98651 0.0
C1231 C 0.0798 0.70616 0.94976 0.0
C1232 C 0.05909 0.70796 0.94273 0.0
C1233 C 0.0556 0.7244 0.97004 0.0
H1234 H 0.24482 0.35597 0.04983 0.0
H1235 H 0.26391 0.31036 0.96669 0.0
H1236 H 0.2738 0.39072 0.00177 0.0
H1237 H 0.29276 0.34512 0.91894 0.0
H1238 H 0.31024 0.40068 0.79889 0.0
H1239 H 0.28355 0.36962 0.85616 0.0
H1240 H 0.31978 0.41657 0.97982 0.0
H1241 H 0.34702 0.44803 0.92217 0.0
C1242 C 0.25547 0.35341 0.02195 0.0
C1243 C 0.25184 0.33032 0.01162 0.0
C1244 C 0.27208 0.37333 -0.00539 0.0
C1245 C 0.28513 0.37045 0.95623 0.0
C1246 C 0.28257 0.34768 0.9479 0.0
C1247 C 0.26617 0.32783 0.97547 0.0
C1248 C 0.31245 0.40462 0.83822 0.0
C1249 C 0.33101 0.42675 0.85599 0.0
C1250 C 0.29724 0.38672 0.87099 0.0
C1251 C 0.30006 0.39054 0.9223 0.0
C1252 C 0.31744 0.41319 0.94031 0.0
C1253 C 0.33289 0.43119 0.90733 0.0
H1254 H 0.02342 0.44119 0.2813 0.0
H1255 H 0.97814 0.37381 0.35646 0.0
H1256 H 0.05779 0.44678 0.33043 0.0
H1257 H 0.01252 0.3795 0.4052 0.0
H1258 H 0.06617 0.41485 0.52952 0.0
H1259 H 0.0353 0.41079 0.4721 0.0
H1260 H 0.08462 0.42806 0.34981 0.0
H1261 H 0.1159 0.43206 0.40756 0.0
C1262 C 0.02086 0.42738 0.30765 0.0
C1263 C -0.00205 0.40717 0.31542 0.0
C1264 C 0.04057 0.4306 0.33561 0.0
C1265 C 0.03765 0.41379 0.37207 0.0
C1266 C 0.01511 0.39294 0.37785 0.0
C1267 C -0.00453 0.38961 0.34968 0.0
C1268 C 0.07065 0.41806 0.49049 0.0
C1269 C 0.09345 0.42349 0.47307 0.0
C1270 C 0.05286 0.41554 0.4576 0.0
C1271 C 0.05744 0.41853 0.40651 0.0
C1272 C 0.08064 0.42549 0.38909 0.0
C1273 C 0.09853 0.42788 0.42215 0.0
H1274 H 0.56061 0.68341 0.39792 0.0
H1275 H 0.57752 0.65136 0.52123 0.0
H1276 H 0.56487 0.65593 0.34104 0.0
H1277 H 0.58189 0.62446 0.46474 0.0
H1278 H 0.55065 0.58001 0.27716 0.0
H1279 H 0.54565 0.60981 0.32386 0.0
H1280 H 0.61326 0.63258 0.39771 0.0
H1281 H 0.61838 0.60288 0.35138 0.0
C1282 C 0.56483 0.67033 0.41297 0.0
C1283 C 0.56899 0.66978 0.46405 0.0
C1284 C 0.56738 0.65473 0.38042 0.0
C1285 C 0.57429 0.63856 0.39853 0.0
C1286 C 0.57718 0.63721 0.44972 0.0
C1287 C 0.57448 0.65254 0.48208 0.0
C1288 C 0.56467 0.59165 0.30275 0.0
C1289 C 0.58477 0.58884 0.31109 0.0
C1290 C 0.5618 0.60874 0.32927 0.0
C1291 C 0.57887 0.62314 0.36484 0.0
C1292 C 0.59965 0.62136 0.37099 0.0
C1293 C 0.60263 0.60445 0.34424 0.0
H1294 H 0.38405 0.01319 0.35248 0.0
H1295 H 0.40069 0.96745 0.26327 0.0
H1296 H 0.35624 0.97846 0.40151 0.0
H1297 H 0.37292 0.93276 0.31281 0.0
H1298 H 0.3035 0.87475 0.39877 0.0
H1299 H 0.32888 0.90644 0.33979 0.0
H1300 H 0.36604 0.95436 0.46165 0.0
H1301 H 0.34104 0.92307 0.52025 0.0
C1302 C 0.38144 -0.0043 0.34263 0.0
C1303 C 0.39487 0.99319 0.3044 0.0
C1304 C 0.36567 0.97585 0.371 0.0
C1305 C 0.36288 0.95307 0.36153 0.0
C1306 C 0.37484 0.95015 0.32097 0.0
C1307 C 0.39075 0.97005 0.29271 0.0
C1308 C 0.31744 0.89189 0.4129 0.0
C1309 C 0.32006 0.89648 0.46419 0.0
C1310 C 0.33183 0.91003 0.37916 0.0
C1311 C 0.34891 0.93299 0.39627 0.0
C1312 C 0.35251 0.93703 0.44747 0.0
C1313 C 0.33831 0.91899 0.48101 0.0
H1314 H 0.14364 0.26749 0.26539 0.0
H1315 H 0.18455 0.33533 0.18913 0.0
H1316 H 0.13919 0.28824 0.33645 0.0
H1317 H 0.18104 0.35627 0.26105 0.0
H1318 H 0.1507 0.38416 0.37953 0.0
H1319 H 0.15381 0.36332 0.30697 0.0
H1320 H 0.16158 0.31356 0.40255 0.0
H1321 H 0.15739 0.33375 0.47487 0.0
C1322 C 0.15184 0.28687 0.26398 0.0
C1323 C 0.16447 0.29979 0.22173 0.0
C1324 C 0.14943 0.29881 0.30485 0.0
C1325 C 0.15989 0.32398 0.30469 0.0
C1326 C 0.17244 0.33686 0.26223 0.0
C1327 C 0.17456 0.32487 0.22107 0.0
C1328 C 0.1531 0.36877 0.38497 0.0
C1329 C 0.15372 0.36053 0.43287 0.0
C1330 C 0.155 0.35689 0.34337 0.0
C1331 C 0.1579 0.3367 0.34883 0.0
C1332 C 0.15886 0.32872 0.39688 0.0
C1333 C 0.15662 0.34039 0.4384 0.0
H1334 H 0.65431 0.85186 0.18958 0.0
H1335 H 0.72301 0.87881 0.26224 0.0
H1336 H 0.63421 0.82743 0.2619 0.0
H1337 H 0.70297 0.85365 0.33401 0.0
H1338 H 0.65717 0.82461 0.47373 0.0
H1339 H 0.6775 0.84973 0.40206 0.0
H1340 H 0.62854 0.79271 0.30467 0.0
H1341 H 0.60772 0.76801 0.3762 0.0
C1342 C 0.66515 0.8524 0.22084 0.0
C1343 C 0.69025 0.86727 0.22018 0.0
C1344 C 0.65363 0.83828 0.26224 0.0
C1345 C 0.66697 0.8385 0.30376 0.0
C1346 C 0.69211 0.85332 0.30299 0.0
C1347 C 0.70362 0.86764 0.26173 0.0
C1348 C 0.65076 0.81747 0.43699 0.0
C1349 C 0.63078 0.79437 0.43065 0.0
C1350 C 0.6625 0.83181 0.39589 0.0
C1351 C 0.65464 0.82326 0.34757 0.0
C1352 C 0.63479 0.80005 0.34134 0.0
C1353 C 0.62292 0.78583 0.38239 0.0
H1354 H 0.09927 0.81963 0.27186 0.0
H1355 H 0.1564 0.82774 0.17472 0.0
H1356 H 0.12362 0.82295 0.34355 0.0
H1357 H 0.18118 0.83196 0.24664 0.0
H1358 H 0.2097 0.81476 0.38648 0.0
H1359 H 0.1848 0.8099 0.3144 0.0
H1360 H 0.15819 0.85204 0.38687 0.0
H1361 H 0.18237 0.85615 0.4594 0.0
C1362 C 0.11712 0.82232 0.2658 0.0
C1363 C 0.12593 0.82348 0.21759 0.0
C1364 C 0.13115 0.82435 0.30695 0.0
C1365 C 0.15441 0.82784 0.30089 0.0
C1366 C 0.16321 0.82894 0.25264 0.0
C1367 C 0.14907 0.82668 0.21141 0.0
C1368 C 0.19849 0.82294 0.387 0.0
C1369 C 0.19794 0.83577 0.4287 0.0
C1370 C 0.18432 0.82028 0.34558 0.0
C1371 C 0.16947 0.83056 0.34484 0.0
C1372 C 0.16907 0.8435 0.38651 0.0
C1373 C 0.18304 0.84596 0.42804 0.0
H1374 H 0.83826 0.61209 0.60521 0.0
H1375 H 0.83118 0.66147 0.50732 0.0
H1376 H 0.83325 0.63226 0.67652 0.0
H1377 H 0.82526 0.68117 0.57879 0.0
H1378 H 0.83941 0.72557 0.7197 0.0
H1379 H 0.84571 0.70632 0.64803 0.0
H1380 H 0.80315 0.6369 0.71771 0.0
H1381 H 0.79761 0.65622 0.79002 0.0
C1382 C 0.83546 0.62716 0.59889 0.0
C1383 C 0.83507 0.63516 0.5506 0.0
C1384 C 0.83244 0.63865 0.63981 0.0
C1385 C 0.8287 0.65825 0.63342 0.0
C1386 C 0.82842 0.66632 0.58508 0.0
C1387 C 0.83169 0.65496 0.54409 0.0
C1388 C 0.83141 0.7062 0.71969 0.0
C1389 C 0.81807 0.69242 0.76059 0.0
C1390 C 0.83491 0.69515 0.67848 0.0
C1391 C 0.82496 0.67006 0.67709 0.0
C1392 C 0.81145 0.6563 0.71789 0.0
C1393 C 0.80816 0.66736 0.75928 0.0
H1394 H 0.32231 0.15348 0.80331 0.0
H1395 H 0.27067 0.09709 0.70835 0.0
H1396 H 0.34203 0.17808 0.73092 0.0
H1397 H 0.29101 0.12125 0.63569 0.0
H1398 H 0.31888 0.18066 0.51905 0.0
H1399 H 0.2982 0.156 0.59101 0.0
H1400 H 0.36663 0.1806 0.66353 0.0
H1401 H 0.38713 0.20597 0.59256 0.0
C1402 C 0.31529 0.14627 0.7669 0.0
C1403 C 0.29496 0.12336 0.7615 0.0
C1404 C 0.32668 0.1603 0.72534 0.0
C1405 C 0.31821 0.1516 0.67739 0.0
C1406 C 0.29781 0.12867 0.67206 0.0
C1407 C 0.28622 0.11476 0.7137 0.0
C1408 C 0.32947 0.18072 0.55037 0.0
C1409 C 0.3546 0.19533 0.55031 0.0
C1410 C 0.31764 0.16651 0.59153 0.0
C1411 C 0.33073 0.16638 0.63321 0.0
C1412 C 0.35592 0.18066 0.63258 0.0
C1413 C 0.36771 0.19509 0.59174 0.0
H1414 H 0.80973 0.13696 0.52286 0.0
H1415 H 0.78418 0.1801 0.59469 0.0
H1416 H 0.83464 0.14167 0.59472 0.0
H1417 H 0.80983 0.18571 0.66561 0.0
H1418 H 0.83717 0.1689 0.80618 0.0
H1419 H 0.81266 0.16417 0.73375 0.0
H1420 H 0.8694 0.16965 0.6386 0.0
H1421 H 0.89347 0.17333 0.71127 0.0
C1422 C 0.80967 0.1477 0.55378 0.0
C1423 C 0.79492 0.15806 0.55329 0.0
C1424 C 0.82404 0.15051 0.59489 0.0
C1425 C 0.8242 0.16401 0.63608 0.0
C1426 C 0.80978 0.17477 0.63502 0.0
C1427 C 0.79518 0.17168 0.59423 0.0
C1428 C 0.8444 0.16909 0.76978 0.0
C1429 C 0.86722 0.17145 0.76439 0.0
C1430 C 0.83041 0.16653 0.7282 0.0
C1431 C 0.83908 0.16662 0.68026 0.0
C1432 C 0.86199 0.16911 0.67495 0.0
C1433 C 0.87585 0.17134 0.7166 0.0
H1434 H 0.48748 -0.00176 0.13921 0.0
H1435 H 0.48334 0.04999 0.04344 0.0
H1436 H 0.49293 0.97867 0.0672 0.0
H1437 H 0.48773 0.02981 0.9712 0.0
H1438 H 0.51959 0.00222 0.85528 0.0
H1439 H 0.51553 0.02276 0.92737 0.0
H1440 H 0.47147 0.95418 -0.00073 0.0
H1441 H 0.47642 0.93381 0.92818 0.0
C1442 C 0.48755 0.00532 0.10271 0.0
C1443 C 0.48498 0.02564 0.09698 0.0
C1444 C 0.49052 0.99401 0.06136 0.0
C1445 C 0.49065 0.00257 0.01329 0.0
C1446 C 0.4881 0.02295 0.00765 0.0
C1447 C 0.48545 0.03445 0.04907 0.0
C1448 C 0.50902 0.99156 0.88651 0.0
C1449 C 0.4984 0.96642 0.88617 0.0
C1450 C 0.50659 0.00332 0.92776 0.0
C1451 C 0.49322 0.99015 0.96927 0.0
C1452 C 0.48232 0.96495 0.96846 0.0
C1453 C 0.48502 0.95324 0.92754 0.0
H1454 H 0.9447 0.43624 0.04846 0.0
H1455 H -0.0063 0.49269 0.14682 0.0
H1456 H 0.96509 0.46148 0.97735 0.0
H1457 H 0.01362 0.51836 0.07551 0.0
H1458 H 0.9896 0.52064 0.86332 0.0
H1459 H 0.96993 0.49626 0.93597 0.0
H1460 H 0.03907 0.52293 0.00669 0.0
H1461 H 0.05868 0.54803 0.93461 0.0
C1462 C 0.95972 0.45413 0.05493 0.0
C1463 C 0.96756 0.46249 0.10329 0.0
C1464 C 0.97134 0.46867 0.01412 0.0
C1465 C 0.99091 0.49201 0.02069 0.0
C1466 C -0.0012 0.50036 0.0691 0.0
C1467 C 0.98731 0.4857 0.10999 0.0
C1468 C 0.00061 0.52132 0.89438 0.0
C1469 C 0.02569 0.53623 0.89319 0.0
C1470 C 0.98934 0.50724 0.93596 0.0
C1471 C 0.00293 0.50752 0.97709 0.0
C1472 C 0.02803 0.52253 0.97595 0.0
C1473 C 0.03929 0.53681 0.93451 0.0
H1474 H 0.44303 0.50721 0.93477 0.0
H1475 H 0.46949 0.46449 0.86437 0.0
H1476 H 0.46826 0.51282 0.00665 0.0
H1477 H 0.494 0.46934 0.93684 0.0
H1478 H 0.55416 0.50388 0.04902 0.0
H1479 H 0.52898 0.49905 0.97788 0.0
H1480 H 0.47255 0.49203 0.07589 0.0
H1481 H 0.49819 0.49777 0.14722 0.0
C1482 C 0.45409 0.49886 0.93481 0.0
C1483 C 0.45435 0.48549 0.89381 0.0
C1484 C 0.46845 0.50195 0.97614 0.0
C1485 C 0.48319 0.49156 0.97752 0.0
C1486 C 0.48321 0.47798 0.93666 0.0
C1487 C 0.46906 0.47509 0.89517 0.0
C1488 C 0.53638 0.5013 0.05545 0.0
C1489 C 0.52815 0.50117 0.10378 0.0
C1490 C 0.52187 0.49839 0.01462 0.0
C1491 C 0.49868 0.49501 0.02114 0.0
C1492 C 0.49045 0.49491 0.06952 0.0
C1493 C 0.50508 0.49807 0.11042 0.0
loop_
_geom_bond_atom_site_label_1
_geom_bond_atom_site_label_2
_geom_bond_distance
_geom_bond_site_symmetry_2
_ccdc_geom_bond_type
O0 Zn1 1.953 . S
O0 C16 1.225 1_554 S
Zn1 O0 1.953 . S
Zn1 O2 1.949 . S
Zn1 O8 1.919 . S
Zn1 O13 1.924 . S
O2 Zn1 1.949 . S
O2 Zn3 1.923 . S
O2 Zn4 1.950 . S
O2 Zn5 1.945 . S
Zn3 O2 1.923 . S
Zn3 O6 1.933 . S
Zn3 O9 1.941 . S
Zn3 O10 1.965 . S
Zn4 O2 1.950 . S
Zn4 O11 1.938 . S
Zn4 O12 1.910 . S
Zn4 O22 1.953 1_554 S
Zn5 O2 1.945 . S
Zn5 O7 1.932 . S
Zn5 O14 1.977 . S
Zn5 O15 1.910 . S
O6 Zn3 1.933 . S
O6 C17 1.226 . S
O7 Zn5 1.932 . S
O7 C17 1.307 . S
O8 Zn1 1.919 . S
O8 C19 1.253 . S
O9 Zn3 1.941 . S
O9 C19 1.283 . S
O10 Zn3 1.965 . S
O10 C18 1.303 . S
O11 Zn4 1.938 . S
O11 C18 1.247 . S
O12 Zn4 1.910 . S
O12 C20 1.308 . S
O13 Zn1 1.924 . S
O13 C21 1.311 . S
O14 Zn5 1.977 . S
O14 C20 1.272 . S
O15 Zn5 1.910 . S
O15 C21 1.231 . S
C16 O0 1.225 1_556 S
C16 O22 1.298 . S
C17 O6 1.226 . S
C17 O7 1.307 . S
C18 O10 1.303 . S
C18 O11 1.247 . S
C19 O8 1.253 . S
C19 O9 1.283 . S
C20 O12 1.308 . S
C20 O14 1.272 . S
C21 O13 1.311 . S
C21 O15 1.231 . S
O22 Zn4 1.953 1_556 S
O22 C16 1.298 . S
O23 Zn24 1.953 . S
O23 C39 1.225 1_554 S
Zn24 O23 1.953 . S
Zn24 O25 1.949 . S
Zn24 O31 1.919 . S
Zn24 O36 1.924 . S
O25 Zn24 1.949 . S
O25 Zn26 1.923 . S
O25 Zn27 1.950 . S
O25 Zn28 1.945 . S
Zn26 O25 1.923 . S
Zn26 O29 1.933 . S
Zn26 O32 1.941 . S
Zn26 O33 1.965 . S
Zn27 O25 1.950 . S
Zn27 O34 1.938 . S
Zn27 O35 1.911 . S
Zn27 O45 1.953 1_554 S
Zn28 O25 1.945 . S
Zn28 O30 1.932 . S
Zn28 O37 1.977 . S
Zn28 O38 1.910 . S
O29 Zn26 1.933 . S
O29 C40 1.226 . S
O30 Zn28 1.932 . S
O30 C40 1.307 . S
O31 Zn24 1.919 . S
O31 C42 1.253 . S
O32 Zn26 1.941 . S
O32 C42 1.283 . S
O33 Zn26 1.965 . S
O33 C41 1.303 . S
O34 Zn27 1.938 . S
O34 C41 1.247 . S
O35 Zn27 1.911 . S
O35 C43 1.308 . S
O36 Zn24 1.924 . S
O36 C44 1.311 . S
O37 Zn28 1.977 . S
O37 C43 1.272 . S
O38 Zn28 1.910 . S
O38 C44 1.231 . S
C39 O23 1.225 1_556 S
C39 O45 1.298 . S
C40 O29 1.226 . S
C40 O30 1.307 . S
C41 O33 1.303 . S
C41 O34 1.247 . S
C42 O31 1.253 . S
C42 O32 1.283 . S
C43 O35 1.308 . S
C43 O37 1.272 . S
C44 O36 1.311 . S
C44 O38 1.231 . S
O45 Zn27 1.953 1_556 S
O45 C39 1.298 . S
O46 Zn47 1.953 . S
O46 C62 1.225 1_554 S
Zn47 O46 1.953 . S
Zn47 O48 1.949 . S
Zn47 O54 1.919 . S
Zn47 O59 1.924 . S
O48 Zn47 1.949 . S
O48 Zn49 1.923 . S
O48 Zn50 1.950 . S
O48 Zn51 1.945 . S
Zn49 O48 1.923 . S
Zn49 O52 1.933 . S
Zn49 O55 1.941 . S
Zn49 O56 1.965 . S
Zn50 O48 1.950 . S
Zn50 O57 1.938 . S
Zn50 O58 1.910 . S
Zn50 O68 1.953 1_554 S
Zn51 O48 1.945 . S
Zn51 O53 1.932 . S
Zn51 O60 1.977 . S
Zn51 O61 1.910 . S
O52 Zn49 1.933 . S
O52 C63 1.226 . S
O53 Zn51 1.932 . S
O53 C63 1.307 . S
O54 Zn47 1.919 . S
O54 C65 1.253 . S
O55 Zn49 1.941 . S
O55 C65 1.283 . S
O56 Zn49 1.965 . S
O56 C64 1.303 . S
O57 Zn50 1.938 . S
O57 C64 1.247 . S
O58 Zn50 1.910 . S
O58 C66 1.308 . S
O59 Zn47 1.924 . S
O59 C67 1.311 . S
O60 Zn51 1.977 . S
O60 C66 1.272 . S
O61 Zn51 1.910 . S
O61 C67 1.231 . S
C62 O46 1.225 1_556 S
C62 O68 1.298 . S
C63 O52 1.226 . S
C63 O53 1.307 . S
C64 O56 1.303 . S
C64 O57 1.247 . S
C65 O54 1.253 . S
C65 O55 1.283 . S
C66 O58 1.308 . S
C66 O60 1.272 . S
C67 O59 1.311 . S
C67 O61 1.231 . S
O68 Zn50 1.953 1_556 S
O68 C62 1.298 . S
O69 Zn70 1.953 . S
O69 C85 1.225 1_556 S
Zn70 O69 1.953 . S
Zn70 O71 1.949 . S
Zn70 O77 1.919 . S
Zn70 O82 1.924 . S
O71 Zn70 1.949 . S
O71 Zn72 1.923 . S
O71 Zn73 1.950 . S
O71 Zn74 1.945 . S
Zn72 O71 1.923 . S
Zn72 O75 1.933 . S
Zn72 O78 1.941 . S
Zn72 O79 1.965 . S
Zn73 O71 1.950 . S
Zn73 O80 1.938 . S
Zn73 O81 1.910 . S
Zn73 O91 1.953 1_556 S
Zn74 O71 1.945 . S
Zn74 O76 1.932 . S
Zn74 O83 1.977 . S
Zn74 O84 1.910 . S
O75 Zn72 1.933 . S
O75 C86 1.226 . S
O76 Zn74 1.932 . S
O76 C86 1.307 . S
O77 Zn70 1.919 . S
O77 C88 1.253 . S
O78 Zn72 1.941 . S
O78 C88 1.283 . S
O79 Zn72 1.965 . S
O79 C87 1.303 . S
O80 Zn73 1.938 . S
O80 C87 1.247 . S
O81 Zn73 1.910 . S
O81 C89 1.308 . S
O82 Zn70 1.924 . S
O82 C90 1.311 . S
O83 Zn74 1.977 . S
O83 C89 1.272 . S
O84 Zn74 1.910 . S
O84 C90 1.231 . S
C85 O69 1.225 1_554 S
C85 O91 1.298 . S
C86 O75 1.226 . S
C86 O76 1.307 . S
C87 O79 1.303 . S
C87 O80 1.247 . S
C88 O77 1.253 . S
C88 O78 1.283 . S
C89 O81 1.308 . S
C89 O83 1.272 . S
C90 O82 1.311 . S
C90 O84 1.231 . S
O91 Zn73 1.953 1_554 S
O91 C85 1.298 . S
O92 Zn93 1.953 . S
O92 C108 1.225 1_556 S
Zn93 O92 1.953 . S
Zn93 O94 1.949 . S
Zn93 O100 1.919 . S
Zn93 O105 1.924 . S
O94 Zn93 1.949 . S
O94 Zn95 1.923 . S
O94 Zn96 1.950 . S
O94 Zn97 1.945 . S
Zn95 O94 1.923 . S
Zn95 O98 1.933 . S
Zn95 O101 1.941 . S
Zn95 O102 1.965 . S
Zn96 O94 1.950 . S
Zn96 O103 1.938 . S
Zn96 O104 1.911 . S
Zn96 O114 1.953 1_556 S
Zn97 O94 1.945 . S
Zn97 O99 1.932 . S
Zn97 O106 1.977 . S
Zn97 O107 1.910 . S
O98 Zn95 1.933 . S
O98 C109 1.226 . S
O99 Zn97 1.932 . S
O99 C109 1.307 . S
O100 Zn93 1.919 . S
O100 C111 1.253 . S
O101 Zn95 1.941 . S
O101 C111 1.283 . S
O102 Zn95 1.965 . S
O102 C110 1.303 . S
O103 Zn96 1.938 . S
O103 C110 1.247 . S
O104 Zn96 1.911 . S
O104 C112 1.308 . S
O105 Zn93 1.924 . S
O105 C113 1.311 . S
O106 Zn97 1.977 . S
O106 C112 1.272 . S
O107 Zn97 1.910 . S
O107 C113 1.231 . S
C108 O92 1.225 1_554 S
C108 O114 1.298 . S
C109 O98 1.226 . S
C109 O99 1.307 . S
C110 O102 1.303 . S
C110 O103 1.247 . S
C111 O100 1.253 . S
C111 O101 1.283 . S
C112 O104 1.308 . S
C112 O106 1.272 . S
C113 O105 1.311 . S
C113 O107 1.231 . S
O114 Zn96 1.953 1_554 S
O114 C108 1.298 . S
O115 Zn116 1.953 . S
O115 C131 1.225 1_556 S
Zn116 O115 1.953 . S
Zn116 O117 1.949 . S
Zn116 O123 1.919 . S
Zn116 O128 1.924 . S
O117 Zn116 1.949 . S
O117 Zn118 1.923 . S
O117 Zn119 1.950 . S
O117 Zn120 1.945 . S
Zn118 O117 1.923 . S
Zn118 O121 1.933 . S
Zn118 O124 1.941 . S
Zn118 O125 1.965 . S
Zn119 O117 1.950 . S
Zn119 O126 1.938 . S
Zn119 O127 1.910 . S
Zn119 O137 1.953 1_556 S
Zn120 O117 1.945 . S
Zn120 O122 1.932 . S
Zn120 O129 1.977 . S
Zn120 O130 1.910 . S
O121 Zn118 1.933 . S
O121 C132 1.226 . S
O122 Zn120 1.932 . S
O122 C132 1.307 . S
O123 Zn116 1.919 . S
O123 C134 1.253 . S
O124 Zn118 1.941 . S
O124 C134 1.283 . S
O125 Zn118 1.965 . S
O125 C133 1.303 . S
O126 Zn119 1.938 . S
O126 C133 1.247 . S
O127 Zn119 1.910 . S
O127 C135 1.308 . S
O128 Zn116 1.924 . S
O128 C136 1.311 . S
O129 Zn120 1.977 . S
O129 C135 1.272 . S
O130 Zn120 1.910 . S
O130 C136 1.231 . S
C131 O115 1.225 1_554 S
C131 O137 1.298 . S
C132 O121 1.226 . S
C132 O122 1.307 . S
C133 O125 1.303 . S
C133 O126 1.247 . S
C134 O123 1.253 . S
C134 O124 1.283 . S
C135 O127 1.308 . S
C135 O129 1.272 . S
C136 O128 1.311 . S
C136 O130 1.231 . S
O137 Zn119 1.953 1_554 S
O137 C131 1.298 . S
O138 Zn139 1.953 . S
O138 C154 1.225 . S
Zn139 O138 1.953 . S
Zn139 O140 1.949 . S
Zn139 O146 1.919 . S
Zn139 O151 1.924 . S
O140 Zn139 1.949 . S
O140 Zn141 1.923 . S
O140 Zn142 1.950 . S
O140 Zn143 1.945 . S
Zn141 O140 1.923 . S
Zn141 O144 1.933 . S
Zn141 O147 1.941 . S
Zn141 O148 1.965 . S
Zn142 O140 1.950 . S
Zn142 O149 1.938 . S
Zn142 O150 1.906 . S
Zn142 O160 1.953 . S
Zn143 O140 1.945 . S
Zn143 O145 1.932 . S
Zn143 O152 1.977 . S
Zn143 O153 1.910 . S
O144 Zn141 1.933 . S
O144 C155 1.226 . S
O145 Zn143 1.932 . S
O145 C155 1.307 . S
O146 Zn139 1.919 . S
O146 C157 1.253 . S
O147 Zn141 1.941 . S
O147 C157 1.283 . S
O148 Zn141 1.965 . S
O148 C156 1.303 . S
O149 Zn142 1.938 . S
O149 C156 1.247 . S
O150 Zn142 1.906 . S
O150 C158 1.304 . S
O151 Zn139 1.924 . S
O151 C159 1.311 . S
O152 Zn143 1.977 . S
O152 C158 1.272 . S
O153 Zn143 1.910 . S
O153 C159 1.231 . S
C154 O138 1.225 . S
C154 O160 1.298 . S
C155 O144 1.226 . S
C155 O145 1.307 . S
C156 O148 1.303 . S
C156 O149 1.247 . S
C157 O146 1.253 . S
C157 O147 1.283 . S
C158 O150 1.304 . S
C158 O152 1.272 . S
C159 O151 1.311 . S
C159 O153 1.231 . S
O160 Zn142 1.953 . S
O160 C154 1.298 . S
O161 Zn162 1.953 . S
O161 C177 1.225 . S
Zn162 O161 1.953 . S
Zn162 O163 1.949 . S
Zn162 O169 1.919 . S
Zn162 O174 1.924 . S
O163 Zn162 1.949 . S
O163 Zn164 1.923 . S
O163 Zn165 1.950 . S
O163 Zn166 1.945 . S
Zn164 O163 1.923 . S
Zn164 O167 1.933 . S
Zn164 O170 1.941 . S
Zn164 O171 1.965 . S
Zn165 O163 1.950 . S
Zn165 O172 1.938 . S
Zn165 O173 1.906 . S
Zn165 O183 1.953 . S
Zn166 O163 1.945 . S
Zn166 O168 1.932 . S
Zn166 O175 1.977 . S
Zn166 O176 1.910 . S
O167 Zn164 1.933 . S
O167 C178 1.226 . S
O168 Zn166 1.932 . S
O168 C178 1.307 . S
O169 Zn162 1.919 . S
O169 C180 1.253 . S
O170 Zn164 1.941 . S
O170 C180 1.283 . S
O171 Zn164 1.965 . S
O171 C179 1.303 . S
O172 Zn165 1.938 . S
O172 C179 1.247 . S
O173 Zn165 1.906 . S
O173 C181 1.304 . S
O174 Zn162 1.924 . S
O174 C182 1.311 . S
O175 Zn166 1.977 . S
O175 C181 1.272 . S
O176 Zn166 1.910 . S
O176 C182 1.231 . S
C177 O161 1.225 . S
C177 O183 1.298 . S
C178 O167 1.226 . S
C178 O168 1.307 . S
C179 O171 1.303 . S
C179 O172 1.247 . S
C180 O169 1.253 . S
C180 O170 1.283 . S
C181 O173 1.304 . S
C181 O175 1.272 . S
C182 O174 1.311 . S
C182 O176 1.231 . S
O183 Zn165 1.953 . S
O183 C177 1.298 . S
O184 Zn185 1.953 . S
O184 C200 1.225 . S
Zn185 O184 1.953 . S
Zn185 O186 1.949 . S
Zn185 O192 1.919 . S
Zn185 O197 1.924 . S
O186 Zn185 1.949 . S
O186 Zn187 1.923 . S
O186 Zn188 1.950 . S
O186 Zn189 1.945 . S
Zn187 O186 1.923 . S
Zn187 O190 1.933 . S
Zn187 O193 1.941 . S
Zn187 O194 1.965 . S
Zn188 O186 1.950 . S
Zn188 O195 1.938 . S
Zn188 O196 1.906 . S
Zn188 O206 1.953 . S
Zn189 O186 1.945 . S
Zn189 O191 1.932 . S
Zn189 O198 1.977 . S
Zn189 O199 1.910 . S
O190 Zn187 1.933 . S
O190 C201 1.226 . S
O191 Zn189 1.932 . S
O191 C201 1.307 . S
O192 Zn185 1.919 . S
O192 C203 1.253 . S
O193 Zn187 1.941 . S
O193 C203 1.283 . S
O194 Zn187 1.965 . S
O194 C202 1.303 . S
O195 Zn188 1.938 . S
O195 C202 1.247 . S
O196 Zn188 1.906 . S
O196 C204 1.304 . S
O197 Zn185 1.924 . S
O197 C205 1.311 . S
O198 Zn189 1.977 . S
O198 C204 1.272 . S
O199 Zn189 1.910 . S
O199 C205 1.231 . S
C200 O184 1.225 . S
C200 O206 1.298 . S
C201 O190 1.226 . S
C201 O191 1.307 . S
C202 O194 1.303 . S
C202 O195 1.247 . S
C203 O192 1.253 . S
C203 O193 1.283 . S
C204 O196 1.304 . S
C204 O198 1.272 . S
C205 O197 1.311 . S
C205 O199 1.231 . S
O206 Zn188 1.953 . S
O206 C200 1.298 . S
O207 Zn208 1.953 . S
O207 C223 1.225 . S
Zn208 O207 1.953 . S
Zn208 O209 1.949 . S
Zn208 O215 1.919 . S
Zn208 O220 1.924 . S
O209 Zn208 1.949 . S
O209 Zn210 1.923 . S
O209 Zn211 1.950 . S
O209 Zn212 1.945 . S
Zn210 O209 1.923 . S
Zn210 O213 1.933 . S
Zn210 O216 1.941 . S
Zn210 O217 1.965 . S
Zn211 O209 1.950 . S
Zn211 O218 1.938 . S
Zn211 O219 1.906 . S
Zn211 O229 1.953 . S
Zn212 O209 1.945 . S
Zn212 O214 1.932 . S
Zn212 O221 1.977 . S
Zn212 O222 1.910 . S
O213 Zn210 1.933 . S
O213 C224 1.226 . S
O214 Zn212 1.932 . S
O214 C224 1.307 . S
O215 Zn208 1.919 . S
O215 C226 1.253 . S
O216 Zn210 1.941 . S
O216 C226 1.283 . S
O217 Zn210 1.965 . S
O217 C225 1.303 . S
O218 Zn211 1.938 . S
O218 C225 1.247 . S
O219 Zn211 1.906 . S
O219 C227 1.304 . S
O220 Zn208 1.924 . S
O220 C228 1.311 . S
O221 Zn212 1.977 . S
O221 C227 1.272 . S
O222 Zn212 1.910 . S
O222 C228 1.231 . S
C223 O207 1.225 . S
C223 O229 1.298 . S
C224 O213 1.226 . S
C224 O214 1.307 . S
C225 O217 1.303 . S
C225 O218 1.247 . S
C226 O215 1.253 . S
C226 O216 1.283 . S
C227 O219 1.304 . S
C227 O221 1.272 . S
C228 O220 1.311 . S
C228 O222 1.231 . S
O229 Zn211 1.953 . S
O229 C223 1.298 . S
O230 Zn231 1.953 . S
O230 C246 1.225 . S
Zn231 O230 1.953 . S
Zn231 O232 1.949 . S
Zn231 O238 1.919 . S
Zn231 O243 1.924 . S
O232 Zn231 1.949 . S
O232 Zn233 1.923 . S
O232 Zn234 1.950 . S
O232 Zn235 1.945 . S
Zn233 O232 1.923 . S
Zn233 O236 1.933 . S
Zn233 O239 1.941 . S
Zn233 O240 1.965 . S
Zn234 O232 1.950 . S
Zn234 O241 1.938 . S
Zn234 O242 1.906 . S
Zn234 O252 1.953 . S
Zn235 O232 1.945 . S
Zn235 O237 1.932 . S
Zn235 O244 1.977 . S
Zn235 O245 1.910 . S
O236 Zn233 1.933 . S
O236 C247 1.226 . S
O237 Zn235 1.932 . S
O237 C247 1.307 . S
O238 Zn231 1.919 . S
O238 C249 1.253 . S
O239 Zn233 1.941 . S
O239 C249 1.283 . S
O240 Zn233 1.965 . S
O240 C248 1.303 . S
O241 Zn234 1.938 . S
O241 C248 1.247 . S
O242 Zn234 1.906 . S
O242 C250 1.304 . S
O243 Zn231 1.924 . S
O243 C251 1.311 . S
O244 Zn235 1.977 . S
O244 C250 1.272 . S
O245 Zn235 1.910 . S
O245 C251 1.231 . S
C246 O230 1.225 . S
C246 O252 1.298 . S
C247 O236 1.226 . S
C247 O237 1.307 . S
C248 O240 1.303 . S
C248 O241 1.247 . S
C249 O238 1.253 . S
C249 O239 1.283 . S
C250 O242 1.304 . S
C250 O244 1.272 . S
C251 O243 1.311 . S
C251 O245 1.231 . S
O252 Zn234 1.953 . S
O252 C246 1.298 . S
O253 Zn254 1.953 . S
O253 C269 1.225 . S
Zn254 O253 1.953 . S
Zn254 O255 1.949 . S
Zn254 O261 1.919 . S
Zn254 O266 1.924 . S
O255 Zn254 1.949 . S
O255 Zn256 1.923 . S
O255 Zn257 1.950 . S
O255 Zn258 1.945 . S
Zn256 O255 1.923 . S
Zn256 O259 1.933 . S
Zn256 O262 1.941 . S
Zn256 O263 1.965 . S
Zn257 O255 1.950 . S
Zn257 O264 1.938 . S
Zn257 O265 1.906 . S
Zn257 O275 1.953 . S
Zn258 O255 1.945 . S
Zn258 O260 1.932 . S
Zn258 O267 1.977 . S
Zn258 O268 1.910 . S
O259 Zn256 1.933 . S
O259 C270 1.226 . S
O260 Zn258 1.932 . S
O260 C270 1.307 . S
O261 Zn254 1.919 . S
O261 C272 1.253 . S
O262 Zn256 1.941 . S
O262 C272 1.283 . S
O263 Zn256 1.965 . S
O263 C271 1.303 . S
O264 Zn257 1.938 . S
O264 C271 1.247 . S
O265 Zn257 1.906 . S
O265 C273 1.304 . S
O266 Zn254 1.924 . S
O266 C274 1.311 . S
O267 Zn258 1.977 . S
O267 C273 1.272 . S
O268 Zn258 1.910 . S
O268 C274 1.231 . S
C269 O253 1.225 . S
C269 O275 1.298 . S
C270 O259 1.226 . S
C270 O260 1.307 . S
C271 O263 1.303 . S
C271 O264 1.247 . S
C272 O261 1.253 . S
C272 O262 1.283 . S
C273 O265 1.304 . S
C273 O267 1.272 . S
C274 O266 1.311 . S
C274 O268 1.231 . S
O275 Zn257 1.953 . S
O275 C269 1.298 . S
O276 Zn277 1.953 . S
O276 C292 1.225 . S
Zn277 O276 1.953 . S
Zn277 O278 1.949 . S
Zn277 O284 1.919 . S
Zn277 O289 1.924 . S
O278 Zn277 1.949 . S
O278 Zn279 1.923 . S
O278 Zn280 1.950 . S
O278 Zn281 1.945 . S
Zn279 O278 1.923 . S
Zn279 O282 1.933 . S
Zn279 O285 1.941 . S
Zn279 O286 1.965 . S
Zn280 O278 1.950 . S
Zn280 O287 1.938 . S
Zn280 O288 1.906 . S
Zn280 O298 1.953 . S
Zn281 O278 1.945 . S
Zn281 O283 1.932 . S
Zn281 O290 1.977 . S
Zn281 O291 1.910 . S
O282 Zn279 1.933 . S
O282 C293 1.226 . S
O283 Zn281 1.932 . S
O283 C293 1.307 . S
O284 Zn277 1.919 . S
O284 C295 1.253 . S
O285 Zn279 1.941 . S
O285 C295 1.283 . S
O286 Zn279 1.965 . S
O286 C294 1.303 . S
O287 Zn280 1.938 . S
O287 C294 1.247 . S
O288 Zn280 1.906 . S
O288 C296 1.304 . S
O289 Zn277 1.924 . S
O289 C297 1.311 . S
O290 Zn281 1.977 . S
O290 C296 1.272 . S
O291 Zn281 1.910 . S
O291 C297 1.231 . S
C292 O276 1.225 . S
C292 O298 1.298 . S
C293 O282 1.226 . S
C293 O283 1.307 . S
C294 O286 1.303 . S
C294 O287 1.247 . S
C295 O284 1.253 . S
C295 O285 1.283 . S
C296 O288 1.304 . S
C296 O290 1.272 . S
C297 O289 1.311 . S
C297 O291 1.231 . S
O298 Zn280 1.953 . S
O298 C292 1.298 . S
O299 Zn300 1.953 . S
O299 C315 1.225 . S
Zn300 O299 1.953 . S
Zn300 O301 1.949 . S
Zn300 O307 1.919 . S
Zn300 O312 1.924 . S
O301 Zn300 1.949 . S
O301 Zn302 1.923 . S
O301 Zn303 1.950 . S
O301 Zn304 1.945 . S
Zn302 O301 1.923 . S
Zn302 O305 1.933 . S
Zn302 O308 1.941 . S
Zn302 O309 1.965 . S
Zn303 O301 1.950 . S
Zn303 O310 1.938 . S
Zn303 O311 1.906 . S
Zn303 O321 1.953 . S
Zn304 O301 1.945 . S
Zn304 O306 1.932 . S
Zn304 O313 1.977 . S
Zn304 O314 1.910 . S
O305 Zn302 1.933 . S
O305 C316 1.226 . S
O306 Zn304 1.932 . S
O306 C316 1.307 . S
O307 Zn300 1.919 . S
O307 C318 1.253 . S
O308 Zn302 1.941 . S
O308 C318 1.283 . S
O309 Zn302 1.965 . S
O309 C317 1.303 . S
O310 Zn303 1.938 . S
O310 C317 1.247 . S
O311 Zn303 1.906 . S
O311 C319 1.304 . S
O312 Zn300 1.924 . S
O312 C320 1.311 . S
O313 Zn304 1.977 . S
O313 C319 1.272 . S
O314 Zn304 1.910 . S
O314 C320 1.231 . S
C315 O299 1.225 . S
C315 O321 1.298 . S
C316 O305 1.226 . S
C316 O306 1.307 . S
C317 O309 1.303 . S
C317 O310 1.247 . S
C318 O307 1.253 . S
C318 O308 1.283 . S
C319 O311 1.304 . S
C319 O313 1.272 . S
C320 O312 1.311 . S
C320 O314 1.231 . S
O321 Zn303 1.953 . S
O321 C315 1.298 . S
O322 Zn323 1.953 . S
O322 C338 1.225 . S
Zn323 O322 1.953 . S
Zn323 O324 1.949 . S
Zn323 O330 1.919 . S
Zn323 O335 1.924 . S
O324 Zn323 1.949 . S
O324 Zn325 1.923 . S
O324 Zn326 1.950 . S
O324 Zn327 1.945 . S
Zn325 O324 1.923 . S
Zn325 O328 1.933 . S
Zn325 O331 1.941 . S
Zn325 O332 1.965 . S
Zn326 O324 1.950 . S
Zn326 O333 1.938 . S
Zn326 O334 1.906 . S
Zn326 O344 1.953 . S
Zn327 O324 1.945 . S
Zn327 O329 1.932 . S
Zn327 O336 1.977 . S
Zn327 O337 1.910 . S
O328 Zn325 1.933 . S
O328 C339 1.226 . S
O329 Zn327 1.932 . S
O329 C339 1.307 . S
O330 Zn323 1.919 . S
O330 C341 1.253 . S
O331 Zn325 1.941 . S
O331 C341 1.283 . S
O332 Zn325 1.965 . S
O332 C340 1.303 . S
O333 Zn326 1.938 . S
O333 C340 1.247 . S
O334 Zn326 1.906 . S
O334 C342 1.304 . S
O335 Zn323 1.924 . S
O335 C343 1.311 . S
O336 Zn327 1.977 . S
O336 C342 1.272 . S
O337 Zn327 1.910 . S
O337 C343 1.231 . S
C338 O322 1.225 . S
C338 O344 1.298 . S
C339 O328 1.226 . S
C339 O329 1.307 . S
C340 O332 1.303 . S
C340 O333 1.247 . S
C341 O330 1.253 . S
C341 O331 1.283 . S
C342 O334 1.304 . S
C342 O336 1.272 . S
C343 O335 1.311 . S
C343 O337 1.231 . S
O344 Zn326 1.953 . S
O344 C338 1.298 . S
O345 Zn346 1.953 . S
O345 C361 1.225 . S
Zn346 O345 1.953 . S
Zn346 O347 1.949 . S
Zn346 O353 1.919 . S
Zn346 O358 1.924 . S
O347 Zn346 1.949 . S
O347 Zn348 1.923 . S
O347 Zn349 1.950 . S
O347 Zn350 1.945 . S
Zn348 O347 1.923 . S
Zn348 O351 1.933 . S
Zn348 O354 1.941 . S
Zn348 O355 1.965 . S
Zn349 O347 1.950 . S
Zn349 O356 1.938 . S
Zn349 O357 1.906 . S
Zn349 O367 1.953 . S
Zn350 O347 1.945 . S
Zn350 O352 1.932 . S
Zn350 O359 1.977 . S
Zn350 O360 1.910 . S
O351 Zn348 1.933 . S
O351 C362 1.226 . S
O352 Zn350 1.932 . S
O352 C362 1.307 . S
O353 Zn346 1.919 . S
O353 C364 1.253 . S
O354 Zn348 1.941 . S
O354 C364 1.283 . S
O355 Zn348 1.965 . S
O355 C363 1.303 . S
O356 Zn349 1.938 . S
O356 C363 1.247 . S
O357 Zn349 1.906 . S
O357 C365 1.304 . S
O358 Zn346 1.924 . S
O358 C366 1.311 . S
O359 Zn350 1.977 . S
O359 C365 1.272 . S
O360 Zn350 1.910 . S
O360 C366 1.231 . S
C361 O345 1.225 . S
C361 O367 1.298 . S
C362 O351 1.226 . S
C362 O352 1.307 . S
C363 O355 1.303 . S
C363 O356 1.247 . S
C364 O353 1.253 . S
C364 O354 1.283 . S
C365 O357 1.304 . S
C365 O359 1.272 . S
C366 O358 1.311 . S
C366 O360 1.231 . S
O367 Zn349 1.953 . S
O367 C361 1.298 . S
O368 Zn369 1.953 . S
O368 C384 1.225 . S
Zn369 O368 1.953 . S
Zn369 O370 1.949 . S
Zn369 O376 1.919 . S
Zn369 O381 1.924 . S
O370 Zn369 1.949 . S
O370 Zn371 1.923 . S
O370 Zn372 1.950 . S
O370 Zn373 1.945 . S
Zn371 O370 1.923 . S
Zn371 O374 1.933 . S
Zn371 O377 1.941 . S
Zn371 O378 1.965 . S
Zn372 O370 1.950 . S
Zn372 O379 1.938 . S
Zn372 O380 1.906 . S
Zn372 O390 1.953 . S
Zn373 O370 1.945 . S
Zn373 O375 1.932 . S
Zn373 O382 1.977 . S
Zn373 O383 1.910 . S
O374 Zn371 1.933 . S
O374 C385 1.226 . S
O375 Zn373 1.932 . S
O375 C385 1.307 . S
O376 Zn369 1.919 . S
O376 C387 1.253 . S
O377 Zn371 1.941 . S
O377 C387 1.283 . S
O378 Zn371 1.965 . S
O378 C386 1.303 . S
O379 Zn372 1.938 . S
O379 C386 1.247 . S
O380 Zn372 1.906 . S
O380 C388 1.304 . S
O381 Zn369 1.924 . S
O381 C389 1.311 . S
O382 Zn373 1.977 . S
O382 C388 1.272 . S
O383 Zn373 1.910 . S
O383 C389 1.231 . S
C384 O368 1.225 . S
C384 O390 1.298 . S
C385 O374 1.226 . S
C385 O375 1.307 . S
C386 O378 1.303 . S
C386 O379 1.247 . S
C387 O376 1.253 . S
C387 O377 1.283 . S
C388 O380 1.304 . S
C388 O382 1.272 . S
C389 O381 1.311 . S
C389 O383 1.231 . S
O390 Zn372 1.953 . S
O390 C384 1.298 . S
O391 Zn392 1.953 . S
O391 C407 1.225 . S
Zn392 O391 1.953 . S
Zn392 O393 1.949 . S
Zn392 O399 1.919 . S
Zn392 O404 1.924 . S
O393 Zn392 1.949 . S
O393 Zn394 1.923 . S
O393 Zn395 1.950 . S
O393 Zn396 1.945 . S
Zn394 O393 1.923 . S
Zn394 O397 1.933 . S
Zn394 O400 1.941 . S
Zn394 O401 1.965 . S
Zn395 O393 1.950 . S
Zn395 O402 1.938 . S
Zn395 O403 1.906 . S
Zn395 O413 1.953 . S
Zn396 O393 1.945 . S
Zn396 O398 1.932 . S
Zn396 O405 1.977 . S
Zn396 O406 1.910 . S
O397 Zn394 1.933 . S
O397 C408 1.226 . S
O398 Zn396 1.932 . S
O398 C408 1.307 . S
O399 Zn392 1.919 . S
O399 C410 1.253 . S
O400 Zn394 1.941 . S
O400 C410 1.283 . S
O401 Zn394 1.965 . S
O401 C409 1.303 . S
O402 Zn395 1.938 . S
O402 C409 1.247 . S
O403 Zn395 1.906 . S
O403 C411 1.304 . S
O404 Zn392 1.924 . S
O404 C412 1.311 . S
O405 Zn396 1.977 . S
O405 C411 1.272 . S
O406 Zn396 1.910 . S
O406 C412 1.231 . S
C407 O391 1.225 . S
C407 O413 1.298 . S
C408 O397 1.226 . S
C408 O398 1.307 . S
C409 O401 1.303 . S
C409 O402 1.247 . S
C410 O399 1.253 . S
C410 O400 1.283 . S
C411 O403 1.304 . S
C411 O405 1.272 . S
C412 O404 1.311 . S
C412 O406 1.231 . S
O413 Zn395 1.953 . S
O413 C407 1.298 . S
H414 C422 0.950 . S
H415 C427 0.950 . S
H416 C424 0.950 . S
H417 C426 0.950 1_554 S
H418 C428 0.950 . S
H419 C430 0.950 . S
H420 C432 0.950 . S
H421 C433 0.950 . S
C422 H414 0.950 . S
C422 C423 1.386 . S
C422 C424 1.391 . S
C423 C422 1.386 . S
C423 C427 1.393 . S
C424 H416 0.950 . S
C424 C422 1.391 . S
C424 C425 1.400 . S
C425 C424 1.400 . S
C425 C426 1.398 . S
C425 C431 1.491 . S
C426 H417 0.950 1_556 S
C426 C425 1.398 . S
C426 C427 1.391 . S
C427 H415 0.950 . S
C427 C423 1.393 . S
C427 C426 1.391 . S
C428 H418 0.950 . S
C428 C429 1.379 1_554 S
C428 C430 1.391 . S
C429 C428 1.379 1_556 S
C429 C433 1.404 . S
C430 H419 0.950 . S
C430 C428 1.391 . S
C430 C431 1.400 1_554 S
C431 C425 1.491 . S
C431 C430 1.400 1_556 S
C431 C432 1.398 . S
C432 H420 0.950 . S
C432 C431 1.398 . S
C432 C433 1.391 . S
C433 H421 0.950 . S
C433 C429 1.404 . S
C433 C432 1.391 . S
H434 C442 0.950 . S
H435 C447 0.950 . S
H436 C444 0.950 . S
H437 C446 0.950 . S
H438 C448 0.950 . S
H439 C450 0.950 1_554 S
H440 C452 0.950 . S
H441 C453 0.950 . S
C442 H434 0.950 . S
C442 C443 1.389 . S
C442 C444 1.391 1_565 S
C443 C442 1.389 . S
C443 C447 1.391 1_566 S
C444 H436 0.950 . S
C444 C442 1.391 1_545 S
C444 C445 1.400 . S
C445 C444 1.400 . S
C445 C446 1.398 1_556 S
C445 C451 1.491 . S
C446 H437 0.950 . S
C446 C445 1.398 1_554 S
C446 C447 1.391 . S
C447 H435 0.950 . S
C447 C443 1.391 1_544 S
C447 C446 1.391 . S
C448 H438 0.950 . S
C448 C449 1.386 . S
C448 C450 1.391 . S
C449 C448 1.386 . S
C449 C453 1.393 . S
C450 H439 0.950 1_556 S
C450 C448 1.391 . S
C450 C451 1.400 . S
C451 C445 1.491 . S
C451 C450 1.400 . S
C451 C452 1.398 . S
C452 H440 0.950 . S
C452 C451 1.398 . S
C452 C453 1.391 . S
C453 H441 0.950 . S
C453 C449 1.393 . S
C453 C452 1.391 . S
H454 C462 0.950 . S
H455 C467 0.950 . S
H456 C464 0.950 . S
H457 C466 0.950 . S
H458 C468 0.950 . S
H459 C470 0.950 . S
H460 C472 0.950 . S
H461 C473 0.950 . S
C462 H454 0.950 . S
C462 C463 1.386 . S
C462 C464 1.391 . S
C463 C462 1.386 . S
C463 C467 1.393 . S
C464 H456 0.950 . S
C464 C462 1.391 . S
C464 C465 1.400 . S
C465 C464 1.400 . S
C465 C466 1.398 . S
C465 C471 1.491 . S
C466 H457 0.950 . S
C466 C465 1.398 . S
C466 C467 1.391 . S
C467 H455 0.950 . S
C467 C463 1.393 . S
C467 C466 1.391 . S
C468 H458 0.950 . S
C468 C469 1.396 1_655 S
C468 C470 1.391 . S
C469 C468 1.396 1_455 S
C469 C473 1.390 1_556 S
C470 H459 0.950 . S
C470 C468 1.391 . S
C470 C471 1.400 . S
C471 C465 1.491 . S
C471 C470 1.400 . S
C471 C472 1.398 . S
C472 H460 0.950 . S
C472 C471 1.398 . S
C472 C473 1.391 1_656 S
C473 H461 0.950 . S
C473 C469 1.390 1_554 S
C473 C472 1.391 1_454 S
H474 C482 0.950 . S
H475 C487 0.950 . S
H476 C484 0.950 . S
H477 C486 0.950 . S
H478 C488 0.950 . S
H479 C490 0.950 . S
H480 C492 0.950 . S
H481 C493 0.950 . S
C482 H474 0.950 . S
C482 C483 1.397 . S
C482 C484 1.391 . S
C483 C482 1.397 . S
C483 C487 1.389 1_554 S
C484 H476 0.950 . S
C484 C482 1.391 . S
C484 C485 1.400 . S
C485 C484 1.400 . S
C485 C486 1.398 . S
C485 C491 1.491 . S
C486 H477 0.950 . S
C486 C485 1.398 . S
C486 C487 1.391 1_554 S
C487 H475 0.950 . S
C487 C483 1.389 1_556 S
C487 C486 1.391 1_556 S
C488 H478 0.950 . S
C488 C489 1.386 . S
C488 C490 1.391 . S
C489 C488 1.386 . S
C489 C493 1.393 . S
C490 H479 0.950 . S
C490 C488 1.391 . S
C490 C491 1.400 . S
C491 C485 1.491 . S
C491 C490 1.400 . S
C491 C492 1.398 . S
C492 H480 0.950 . S
C492 C491 1.398 . S
C492 C493 1.391 . S
C493 H481 0.950 . S
C493 C489 1.393 . S
C493 C492 1.391 . S
H494 C502 0.950 . S
H495 C507 0.950 . S
H496 C504 0.950 . S
H497 C506 0.950 . S
H498 C508 0.950 . S
H499 C510 0.950 1_556 S
H500 C512 0.950 . S
H501 C513 0.950 . S
C502 H494 0.950 . S
C502 C503 1.386 1_554 S
C502 C504 1.391 1_545 S
C503 C502 1.386 1_556 S
C503 C507 1.393 1_545 S
C504 H496 0.950 . S
C504 C502 1.391 1_565 S
C504 C505 1.400 . S
C505 C504 1.400 . S
C505 C506 1.398 1_554 S
C505 C511 1.491 . S
C506 H497 0.950 . S
C506 C505 1.398 1_556 S
C506 C507 1.391 . S
C507 H495 0.950 . S
C507 C503 1.393 1_565 S
C507 C506 1.391 . S
C508 H498 0.950 . S
C508 C509 1.386 . S
C508 C510 1.391 . S
C509 C508 1.386 . S
C509 C513 1.393 . S
C510 H499 0.950 1_554 S
C510 C508 1.391 . S
C510 C511 1.400 . S
C511 C505 1.491 . S
C511 C510 1.400 . S
C511 C512 1.398 . S
C512 H500 0.950 . S
C512 C511 1.398 . S
C512 C513 1.391 . S
C513 H501 0.950 . S
C513 C509 1.393 . S
C513 C512 1.391 . S
H514 C522 0.950 . S
H515 C527 0.950 . S
H516 C524 0.950 . S
H517 C526 0.950 1_556 S
H518 C528 0.950 1_655 S
H519 C530 0.950 . S
H520 C532 0.950 . S
H521 C533 0.950 1_655 S
C522 H514 0.950 . S
C522 C523 1.386 . S
C522 C524 1.391 . S
C523 C522 1.386 . S
C523 C527 1.393 . S
C524 H516 0.950 . S
C524 C522 1.391 . S
C524 C525 1.400 . S
C525 C524 1.400 . S
C525 C526 1.398 . S
C525 C531 1.491 . S
C526 H517 0.950 1_554 S
C526 C525 1.398 . S
C526 C527 1.391 . S
C527 H515 0.950 . S
C527 C523 1.393 . S
C527 C526 1.391 . S
C528 H518 0.950 1_455 S
C528 C529 1.378 1_456 S
C528 C530 1.391 . S
C529 C528 1.378 1_654 S
C529 C533 1.406 1_655 S
C530 H519 0.950 . S
C530 C528 1.391 . S
C530 C531 1.400 1_556 S
C531 C525 1.491 . S
C531 C530 1.400 1_554 S
C531 C532 1.398 . S
C532 H520 0.950 . S
C532 C531 1.398 . S
C532 C533 1.391 . S
C533 H521 0.950 1_455 S
C533 C529 1.406 1_455 S
C533 C532 1.391 . S
H534 C542 0.950 . S
H535 C547 0.950 . S
H536 C544 0.950 . S
H537 C546 0.950 . S
H538 C548 0.950 . S
H539 C550 0.950 . S
H540 C552 0.950 . S
H541 C553 0.950 . S
C542 H534 0.950 . S
C542 C543 1.386 . S
C542 C544 1.391 . S
C543 C542 1.386 . S
C543 C547 1.393 . S
C544 H536 0.950 . S
C544 C542 1.391 . S
C544 C545 1.400 . S
C545 C544 1.400 . S
C545 C546 1.398 . S
C545 C551 1.491 . S
C546 H537 0.950 . S
C546 C545 1.398 . S
C546 C547 1.391 . S
C547 H535 0.950 . S
C547 C543 1.393 . S
C547 C546 1.391 . S
C548 H538 0.950 . S
C548 C549 1.386 . S
C548 C550 1.391 . S
C549 C548 1.386 . S
C549 C553 1.393 . S
C550 H539 0.950 . S
C550 C548 1.391 . S
C550 C551 1.400 . S
C551 C545 1.491 . S
C551 C550 1.400 . S
C551 C552 1.398 . S
C552 H540 0.950 . S
C552 C551 1.398 . S
C552 C553 1.391 . S
C553 H541 0.950 . S
C553 C549 1.393 . S
C553 C552 1.391 . S
H554 C562 0.950 . S
H555 C567 0.950 . S
H556 C564 0.950 . S
H557 C566 0.950 . S
H558 C568 0.950 . S
H559 C570 0.950 . S
H560 C572 0.950 . S
H561 C573 0.950 . S
C562 H554 0.950 . S
C562 C563 1.386 . S
C562 C564 1.391 . S
C563 C562 1.386 . S
C563 C567 1.393 . S
C564 H556 0.950 . S
C564 C562 1.391 . S
C564 C565 1.400 . S
C565 C564 1.400 . S
C565 C566 1.398 . S
C565 C571 1.491 . S
C566 H557 0.950 . S
C566 C565 1.398 . S
C566 C567 1.391 . S
C567 H555 0.950 . S
C567 C563 1.393 . S
C567 C566 1.391 . S
C568 H558 0.950 . S
C568 C569 1.386 . S
C568 C570 1.391 . S
C569 C568 1.386 . S
C569 C573 1.393 . S
C570 H559 0.950 . S
C570 C568 1.391 . S
C570 C571 1.400 . S
C571 C565 1.491 . S
C571 C570 1.400 . S
C571 C572 1.398 . S
C572 H560 0.950 . S
C572 C571 1.398 . S
C572 C573 1.391 . S
C573 H561 0.950 . S
C573 C569 1.393 . S
C573 C572 1.391 . S
H574 C582 0.950 . S
H575 C587 0.950 . S
H576 C584 0.950 . S
H577 C586 0.950 . S
H578 C588 0.950 . S
H579 C590 0.950 . S
H580 C592 0.950 . S
H581 C593 0.950 . S
C582 H574 0.950 . S
C582 C583 1.386 . S
C582 C584 1.391 . S
C583 C582 1.386 . S
C583 C587 1.393 . S
C584 H576 0.950 . S
C584 C582 1.391 . S
C584 C585 1.400 . S
C585 C584 1.400 . S
C585 C586 1.398 . S
C585 C591 1.491 . S
C586 H577 0.950 . S
C586 C585 1.398 . S
C586 C587 1.391 . S
C587 H575 0.950 . S
C587 C583 1.393 . S
C587 C586 1.391 . S
C588 H578 0.950 . S
C588 C589 1.386 . S
C588 C590 1.391 . S
C589 C588 1.386 . S
C589 C593 1.393 . S
C590 H579 0.950 . S
C590 C588 1.391 . S
C590 C591 1.400 . S
C591 C585 1.491 . S
C591 C590 1.400 . S
C591 C592 1.398 . S
C592 H580 0.950 . S
C592 C591 1.398 . S
C592 C593 1.391 . S
C593 H581 0.950 . S
C593 C589 1.393 . S
C593 C592 1.391 . S
H594 C602 0.950 . S
H595 C607 0.950 . S
H596 C604 0.950 . S
H597 C606 0.950 . S
H598 C608 0.950 . S
H599 C610 0.950 . S
H600 C612 0.950 . S
H601 C613 0.950 . S
C602 H594 0.950 . S
C602 C603 1.386 . S
C602 C604 1.391 . S
C603 C602 1.386 . S
C603 C607 1.393 . S
C604 H596 0.950 . S
C604 C602 1.391 . S
C604 C605 1.400 . S
C605 C604 1.400 . S
C605 C606 1.398 . S
C605 C611 1.491 . S
C606 H597 0.950 . S
C606 C605 1.398 . S
C606 C607 1.391 . S
C607 H595 0.950 . S
C607 C603 1.393 . S
C607 C606 1.391 . S
C608 H598 0.950 . S
C608 C609 1.386 . S
C608 C610 1.391 . S
C609 C608 1.386 . S
C609 C613 1.393 . S
C610 H599 0.950 . S
C610 C608 1.391 . S
C610 C611 1.400 . S
C611 C605 1.491 . S
C611 C610 1.400 . S
C611 C612 1.398 . S
C612 H600 0.950 . S
C612 C611 1.398 . S
C612 C613 1.391 . S
C613 H601 0.950 . S
C613 C609 1.393 . S
C613 C612 1.391 . S
H614 C622 0.950 . S
H615 C627 0.950 . S
H616 C624 0.950 . S
H617 C626 0.950 . S
H618 C628 0.950 . S
H619 C630 0.950 . S
H620 C632 0.950 . S
H621 C633 0.950 . S
C622 H614 0.950 . S
C622 C623 1.386 . S
C622 C624 1.391 . S
C623 C622 1.386 . S
C623 C627 1.393 . S
C624 H616 0.950 . S
C624 C622 1.391 . S
C624 C625 1.400 . S
C625 C624 1.400 . S
C625 C626 1.398 . S
C625 C631 1.491 . S
C626 H617 0.950 . S
C626 C625 1.398 . S
C626 C627 1.391 . S
C627 H615 0.950 . S
C627 C623 1.393 . S
C627 C626 1.391 . S
C628 H618 0.950 . S
C628 C629 1.386 . S
C628 C630 1.391 . S
C629 C628 1.386 . S
C629 C633 1.393 . S
C630 H619 0.950 . S
C630 C628 1.391 . S
C630 C631 1.400 . S
C631 C625 1.491 . S
C631 C630 1.400 . S
C631 C632 1.398 . S
C632 H620 0.950 . S
C632 C631 1.398 . S
C632 C633 1.391 . S
C633 H621 0.950 . S
C633 C629 1.393 . S
C633 C632 1.391 . S
H634 C642 0.950 . S
H635 C647 0.950 . S
H636 C644 0.950 . S
H637 C646 0.950 . S
H638 C648 0.950 . S
H639 C650 0.950 . S
H640 C652 0.950 . S
H641 C653 0.950 . S
C642 H634 0.950 . S
C642 C643 1.386 . S
C642 C644 1.391 . S
C643 C642 1.386 . S
C643 C647 1.393 . S
C644 H636 0.950 . S
C644 C642 1.391 . S
C644 C645 1.400 . S
C645 C644 1.400 . S
C645 C646 1.398 . S
C645 C651 1.491 . S
C646 H637 0.950 . S
C646 C645 1.398 . S
C646 C647 1.391 . S
C647 H635 0.950 . S
C647 C643 1.393 . S
C647 C646 1.391 . S
C648 H638 0.950 . S
C648 C649 1.386 . S
C648 C650 1.391 . S
C649 C648 1.386 . S
C649 C653 1.393 . S
C650 H639 0.950 . S
C650 C648 1.391 . S
C650 C651 1.400 . S
C651 C645 1.491 . S
C651 C650 1.400 . S
C651 C652 1.398 . S
C652 H640 0.950 . S
C652 C651 1.398 . S
C652 C653 1.391 . S
C653 H641 0.950 . S
C653 C649 1.393 . S
C653 C652 1.391 . S
H654 C662 0.950 . S
H655 C667 0.950 . S
H656 C664 0.950 . S
H657 C666 0.950 . S
H658 C668 0.950 . S
H659 C670 0.950 . S
H660 C672 0.950 . S
H661 C673 0.950 . S
C662 H654 0.950 . S
C662 C663 1.386 . S
C662 C664 1.391 . S
C663 C662 1.386 . S
C663 C667 1.393 . S
C664 H656 0.950 . S
C664 C662 1.391 . S
C664 C665 1.400 . S
C665 C664 1.400 . S
C665 C666 1.398 . S
C665 C671 1.491 . S
C666 H657 0.950 . S
C666 C665 1.398 . S
C666 C667 1.391 . S
C667 H655 0.950 . S
C667 C663 1.393 . S
C667 C666 1.391 . S
C668 H658 0.950 . S
C668 C669 1.386 . S
C668 C670 1.391 . S
C669 C668 1.386 . S
C669 C673 1.393 . S
C670 H659 0.950 . S
C670 C668 1.391 . S
C670 C671 1.400 . S
C671 C665 1.491 . S
C671 C670 1.400 . S
C671 C672 1.398 . S
C672 H660 0.950 . S
C672 C671 1.398 . S
C672 C673 1.391 . S
C673 H661 0.950 . S
C673 C669 1.393 . S
C673 C672 1.391 . S
H674 C682 0.950 . S
H675 C687 0.950 . S
H676 C684 0.950 . S
H677 C686 0.950 . S
H678 C688 0.950 . S
H679 C690 0.950 . S
H680 C692 0.950 . S
H681 C693 0.950 . S
C682 H674 0.950 . S
C682 C683 1.386 . S
C682 C684 1.391 . S
C683 C682 1.386 . S
C683 C687 1.393 . S
C684 H676 0.950 . S
C684 C682 1.391 . S
C684 C685 1.400 . S
C685 C684 1.400 . S
C685 C686 1.398 . S
C685 C691 1.491 . S
C686 H677 0.950 . S
C686 C685 1.398 . S
C686 C687 1.391 . S
C687 H675 0.950 . S
C687 C683 1.393 . S
C687 C686 1.391 . S
C688 H678 0.950 . S
C688 C689 1.386 . S
C688 C690 1.391 . S
C689 C688 1.386 . S
C689 C693 1.393 . S
C690 H679 0.950 . S
C690 C688 1.391 . S
C690 C691 1.400 . S
C691 C685 1.491 . S
C691 C690 1.400 . S
C691 C692 1.398 . S
C692 H680 0.950 . S
C692 C691 1.398 . S
C692 C693 1.391 . S
C693 H681 0.950 . S
C693 C689 1.393 . S
C693 C692 1.391 . S
H694 C702 0.950 . S
H695 C707 0.950 . S
H696 C704 0.950 . S
H697 C706 0.950 . S
H698 C708 0.950 . S
H699 C710 0.950 . S
H700 C712 0.950 . S
H701 C713 0.950 . S
C702 H694 0.950 . S
C702 C703 1.386 . S
C702 C704 1.391 . S
C703 C702 1.386 . S
C703 C707 1.393 . S
C704 H696 0.950 . S
C704 C702 1.391 . S
C704 C705 1.400 . S
C705 C704 1.400 . S
C705 C706 1.398 . S
C705 C711 1.491 . S
C706 H697 0.950 . S
C706 C705 1.398 . S
C706 C707 1.391 . S
C707 H695 0.950 . S
C707 C703 1.393 . S
C707 C706 1.391 . S
C708 H698 0.950 . S
C708 C709 1.386 . S
C708 C710 1.391 . S
C709 C708 1.386 . S
C709 C713 1.393 . S
C710 H699 0.950 . S
C710 C708 1.391 . S
C710 C711 1.400 . S
C711 C705 1.491 . S
C711 C710 1.400 . S
C711 C712 1.398 . S
C712 H700 0.950 . S
C712 C711 1.398 . S
C712 C713 1.391 . S
C713 H701 0.950 . S
C713 C709 1.393 . S
C713 C712 1.391 . S
H714 C722 0.950 . S
H715 C727 0.950 . S
H716 C724 0.950 . S
H717 C726 0.950 . S
H718 C728 0.950 . S
H719 C730 0.950 . S
H720 C732 0.950 . S
H721 C733 0.950 . S
C722 H714 0.950 . S
C722 C723 1.386 . S
C722 C724 1.391 . S
C723 C722 1.386 . S
C723 C727 1.393 . S
C724 H716 0.950 . S
C724 C722 1.391 . S
C724 C725 1.400 . S
C725 C724 1.400 . S
C725 C726 1.398 . S
C725 C731 1.491 . S
C726 H717 0.950 . S
C726 C725 1.398 . S
C726 C727 1.391 . S
C727 H715 0.950 . S
C727 C723 1.393 . S
C727 C726 1.391 . S
C728 H718 0.950 . S
C728 C729 1.386 . S
C728 C730 1.391 . S
C729 C728 1.386 . S
C729 C733 1.393 . S
C730 H719 0.950 . S
C730 C728 1.391 . S
C730 C731 1.400 . S
C731 C725 1.491 . S
C731 C730 1.400 . S
C731 C732 1.398 . S
C732 H720 0.950 . S
C732 C731 1.398 . S
C732 C733 1.391 . S
C733 H721 0.950 . S
C733 C729 1.393 . S
C733 C732 1.391 . S
H734 C742 0.950 . S
H735 C747 0.950 . S
H736 C744 0.950 . S
H737 C746 0.950 . S
H738 C748 0.950 . S
H739 C750 0.950 . S
H740 C752 0.950 . S
H741 C753 0.950 . S
C742 H734 0.950 . S
C742 C743 1.386 . S
C742 C744 1.391 . S
C743 C742 1.386 . S
C743 C747 1.393 . S
C744 H736 0.950 . S
C744 C742 1.391 . S
C744 C745 1.400 . S
C745 C744 1.400 . S
C745 C746 1.398 . S
C745 C751 1.491 . S
C746 H737 0.950 . S
C746 C745 1.398 . S
C746 C747 1.391 . S
C747 H735 0.950 . S
C747 C743 1.393 . S
C747 C746 1.391 . S
C748 H738 0.950 . S
C748 C749 1.386 . S
C748 C750 1.391 . S
C749 C748 1.386 . S
C749 C753 1.393 . S
C750 H739 0.950 . S
C750 C748 1.391 . S
C750 C751 1.400 . S
C751 C745 1.491 . S
C751 C750 1.400 . S
C751 C752 1.398 . S
C752 H740 0.950 . S
C752 C751 1.398 . S
C752 C753 1.391 . S
C753 H741 0.950 . S
C753 C749 1.393 . S
C753 C752 1.391 . S
H754 C762 0.950 . S
H755 C767 0.950 . S
H756 C764 0.950 . S
H757 C766 0.950 . S
H758 C768 0.950 . S
H759 C770 0.950 . S
H760 C772 0.950 . S
H761 C773 0.950 . S
C762 H754 0.950 . S
C762 C763 1.386 . S
C762 C764 1.391 . S
C763 C762 1.386 . S
C763 C767 1.393 . S
C764 H756 0.950 . S
C764 C762 1.391 . S
C764 C765 1.400 . S
C765 C764 1.400 . S
C765 C766 1.398 . S
C765 C771 1.491 . S
C766 H757 0.950 . S
C766 C765 1.398 . S
C766 C767 1.391 . S
C767 H755 0.950 . S
C767 C763 1.393 . S
C767 C766 1.391 . S
C768 H758 0.950 . S
C768 C769 1.386 . S
C768 C770 1.391 . S
C769 C768 1.386 . S
C769 C773 1.393 . S
C770 H759 0.950 . S
C770 C768 1.391 . S
C770 C771 1.400 . S
C771 C765 1.491 . S
C771 C770 1.400 . S
C771 C772 1.398 . S
C772 H760 0.950 . S
C772 C771 1.398 . S
C772 C773 1.391 . S
C773 H761 0.950 . S
C773 C769 1.393 . S
C773 C772 1.391 . S
H774 C782 0.950 . S
H775 C787 0.950 . S
H776 C784 0.950 . S
H777 C786 0.950 . S
H778 C788 0.950 . S
H779 C790 0.950 . S
H780 C792 0.950 . S
H781 C793 0.950 . S
C782 H774 0.950 . S
C782 C783 1.386 . S
C782 C784 1.391 . S
C783 C782 1.386 . S
C783 C787 1.393 . S
C784 H776 0.950 . S
C784 C782 1.391 . S
C784 C785 1.400 . S
C785 C784 1.400 . S
C785 C786 1.398 . S
C785 C791 1.491 . S
C786 H777 0.950 . S
C786 C785 1.398 . S
C786 C787 1.391 . S
C787 H775 0.950 . S
C787 C783 1.393 . S
C787 C786 1.391 . S
C788 H778 0.950 . S
C788 C789 1.386 . S
C788 C790 1.391 . S
C789 C788 1.386 . S
C789 C793 1.393 . S
C790 H779 0.950 . S
C790 C788 1.391 . S
C790 C791 1.400 . S
C791 C785 1.491 . S
C791 C790 1.400 . S
C791 C792 1.398 . S
C792 H780 0.950 . S
C792 C791 1.398 . S
C792 C793 1.391 . S
C793 H781 0.950 . S
C793 C789 1.393 . S
C793 C792 1.391 . S
H794 C802 0.950 . S
H795 C807 0.950 . S
H796 C804 0.950 . S
H797 C806 0.950 . S
H798 C808 0.950 . S
H799 C810 0.950 . S
H800 C812 0.950 . S
H801 C813 0.950 . S
C802 H794 0.950 . S
C802 C803 1.386 . S
C802 C804 1.391 . S
C803 C802 1.386 . S
C803 C807 1.393 . S
C804 H796 0.950 . S
C804 C802 1.391 . S
C804 C805 1.400 . S
C805 C804 1.400 . S
C805 C806 1.398 . S
C805 C811 1.491 . S
C806 H797 0.950 . S
C806 C805 1.398 . S
C806 C807 1.391 . S
C807 H795 0.950 . S
C807 C803 1.393 . S
C807 C806 1.391 . S
C808 H798 0.950 . S
C808 C809 1.386 . S
C808 C810 1.391 . S
C809 C808 1.386 . S
C809 C813 1.393 . S
C810 H799 0.950 . S
C810 C808 1.391 . S
C810 C811 1.400 . S
C811 C805 1.491 . S
C811 C810 1.400 . S
C811 C812 1.398 . S
C812 H800 0.950 . S
C812 C811 1.398 . S
C812 C813 1.391 . S
C813 H801 0.950 . S
C813 C809 1.393 . S
C813 C812 1.391 . S
H814 C822 0.950 . S
H815 C827 0.950 . S
H816 C824 0.950 . S
H817 C826 0.950 . S
H818 C828 0.950 . S
H819 C830 0.950 . S
H820 C832 0.950 . S
H821 C833 0.950 . S
C822 H814 0.950 . S
C822 C823 1.386 . S
C822 C824 1.391 . S
C823 C822 1.386 . S
C823 C827 1.393 . S
C824 H816 0.950 . S
C824 C822 1.391 . S
C824 C825 1.400 . S
C825 C824 1.400 . S
C825 C826 1.398 . S
C825 C831 1.491 . S
C826 H817 0.950 . S
C826 C825 1.398 . S
C826 C827 1.391 . S
C827 H815 0.950 . S
C827 C823 1.393 . S
C827 C826 1.391 . S
C828 H818 0.950 . S
C828 C829 1.386 . S
C828 C830 1.391 . S
C829 C828 1.386 . S
C829 C833 1.393 . S
C830 H819 0.950 . S
C830 C828 1.391 . S
C830 C831 1.400 . S
C831 C825 1.491 . S
C831 C830 1.400 . S
C831 C832 1.398 . S
C832 H820 0.950 . S
C832 C831 1.398 . S
C832 C833 1.391 . S
C833 H821 0.950 . S
C833 C829 1.393 . S
C833 C832 1.391 . S
H834 C842 0.950 . S
H835 C847 0.950 . S
H836 C844 0.950 . S
H837 C846 0.950 . S
H838 C848 0.950 . S
H839 C850 0.950 . S
H840 C852 0.950 . S
H841 C853 0.950 . S
C842 H834 0.950 . S
C842 C843 1.386 . S
C842 C844 1.391 . S
C843 C842 1.386 . S
C843 C847 1.393 . S
C844 H836 0.950 . S
C844 C842 1.391 . S
C844 C845 1.400 . S
C845 C844 1.400 . S
C845 C846 1.398 . S
C845 C851 1.491 . S
C846 H837 0.950 . S
C846 C845 1.398 . S
C846 C847 1.391 . S
C847 H835 0.950 . S
C847 C843 1.393 . S
C847 C846 1.391 . S
C848 H838 0.950 . S
C848 C849 1.386 . S
C848 C850 1.391 . S
C849 C848 1.386 . S
C849 C853 1.393 . S
C850 H839 0.950 . S
C850 C848 1.391 . S
C850 C851 1.400 . S
C851 C845 1.491 . S
C851 C850 1.400 . S
C851 C852 1.398 . S
C852 H840 0.950 . S
C852 C851 1.398 . S
C852 C853 1.391 . S
C853 H841 0.950 . S
C853 C849 1.393 . S
C853 C852 1.391 . S
H854 C862 0.950 . S
H855 C867 0.950 . S
H856 C864 0.950 . S
H857 C866 0.950 . S
H858 C868 0.950 . S
H859 C870 0.950 . S
H860 C872 0.950 . S
H861 C873 0.950 . S
C862 H854 0.950 . S
C862 C863 1.386 . S
C862 C864 1.391 . S
C863 C862 1.386 . S
C863 C867 1.393 . S
C864 H856 0.950 . S
C864 C862 1.391 . S
C864 C865 1.400 . S
C865 C864 1.400 . S
C865 C866 1.398 . S
C865 C871 1.491 . S
C866 H857 0.950 . S
C866 C865 1.398 . S
C866 C867 1.391 . S
C867 H855 0.950 . S
C867 C863 1.393 . S
C867 C866 1.391 . S
C868 H858 0.950 . S
C868 C869 1.386 . S
C868 C870 1.391 . S
C869 C868 1.386 . S
C869 C873 1.393 . S
C870 H859 0.950 . S
C870 C868 1.391 . S
C870 C871 1.400 . S
C871 C865 1.491 . S
C871 C870 1.400 . S
C871 C872 1.398 . S
C872 H860 0.950 . S
C872 C871 1.398 . S
C872 C873 1.391 . S
C873 H861 0.950 . S
C873 C869 1.393 . S
C873 C872 1.391 . S
H874 C882 0.950 . S
H875 C887 0.950 . S
H876 C884 0.950 . S
H877 C886 0.950 . S
H878 C888 0.950 . S
H879 C890 0.950 . S
H880 C892 0.950 . S
H881 C893 0.950 . S
C882 H874 0.950 . S
C882 C883 1.386 . S
C882 C884 1.391 . S
C883 C882 1.386 . S
C883 C887 1.393 . S
C884 H876 0.950 . S
C884 C882 1.391 . S
C884 C885 1.400 . S
C885 C884 1.400 . S
C885 C886 1.398 . S
C885 C891 1.491 . S
C886 H877 0.950 . S
C886 C885 1.398 . S
C886 C887 1.391 . S
C887 H875 0.950 . S
C887 C883 1.393 . S
C887 C886 1.391 . S
C888 H878 0.950 . S
C888 C889 1.386 . S
C888 C890 1.391 . S
C889 C888 1.386 . S
C889 C893 1.393 . S
C890 H879 0.950 . S
C890 C888 1.391 . S
C890 C891 1.400 . S
C891 C885 1.491 . S
C891 C890 1.400 . S
C891 C892 1.398 . S
C892 H880 0.950 . S
C892 C891 1.398 . S
C892 C893 1.391 . S
C893 H881 0.950 . S
C893 C889 1.393 . S
C893 C892 1.391 . S
H894 C902 0.953 . S
H895 C907 0.950 . S
H896 C904 0.950 . S
H897 C906 0.950 . S
H898 C908 0.953 . S
H899 C910 0.950 . S
H900 C912 0.950 . S
H901 C913 0.950 . S
C902 H894 0.953 . S
C902 C903 1.386 . S
C902 C904 1.391 1_565 S
C903 C902 1.386 . S
C903 C907 1.393 . S
C904 H896 0.950 . S
C904 C902 1.391 1_545 S
C904 C905 1.400 1_545 S
C905 C904 1.400 1_565 S
C905 C906 1.398 . S
C905 C911 1.491 1_565 S
C906 H897 0.950 . S
C906 C905 1.398 . S
C906 C907 1.391 . S
C907 H895 0.950 . S
C907 C903 1.393 . S
C907 C906 1.391 . S
C908 H898 0.953 . S
C908 C909 1.386 . S
C908 C910 1.391 1_545 S
C909 C908 1.386 . S
C909 C913 1.393 . S
C910 H899 0.950 . S
C910 C908 1.391 1_565 S
C910 C911 1.400 1_565 S
C911 C905 1.491 1_545 S
C911 C910 1.400 1_545 S
C911 C912 1.398 . S
C912 H900 0.950 . S
C912 C911 1.398 . S
C912 C913 1.391 . S
C913 H901 0.950 . S
C913 C909 1.393 . S
C913 C912 1.391 . S
H914 C922 0.950 . S
H915 C927 0.950 . S
H916 C924 0.950 1_655 S
H917 C926 0.950 . S
H918 C928 0.950 . S
H919 C930 0.950 1_455 S
H920 C932 0.950 . S
H921 C933 0.950 . S
C922 H914 0.950 . S
C922 C923 1.386 . S
C922 C924 1.391 . S
C923 C922 1.386 . S
C923 C927 1.393 . S
C924 H916 0.950 1_455 S
C924 C922 1.391 . S
C924 C925 1.400 . S
C925 C924 1.400 . S
C925 C926 1.398 . S
C925 C931 1.491 1_455 S
C926 H917 0.950 . S
C926 C925 1.398 . S
C926 C927 1.391 . S
C927 H915 0.950 . S
C927 C923 1.393 . S
C927 C926 1.391 . S
C928 H918 0.950 . S
C928 C929 1.386 . S
C928 C930 1.391 . S
C929 C928 1.386 . S
C929 C933 1.393 . S
C930 H919 0.950 1_655 S
C930 C928 1.391 . S
C930 C931 1.400 . S
C931 C925 1.491 1_655 S
C931 C930 1.400 . S
C931 C932 1.398 . S
C932 H920 0.950 . S
C932 C931 1.398 . S
C932 C933 1.391 . S
C933 H921 0.950 . S
C933 C929 1.393 . S
C933 C932 1.391 . S
H934 C942 0.950 . S
H935 C947 0.950 . S
H936 C944 0.950 . S
H937 C946 0.950 . S
H938 C948 0.950 . S
H939 C950 0.950 . S
H940 C952 0.950 . S
H941 C953 0.950 . S
C942 H934 0.950 . S
C942 C943 1.386 . S
C942 C944 1.391 . S
C943 C942 1.386 . S
C943 C947 1.393 . S
C944 H936 0.950 . S
C944 C942 1.391 . S
C944 C945 1.400 . S
C945 C944 1.400 . S
C945 C946 1.398 . S
C945 C951 1.491 . S
C946 H937 0.950 . S
C946 C945 1.398 . S
C946 C947 1.391 . S
C947 H935 0.950 . S
C947 C943 1.393 . S
C947 C946 1.391 . S
C948 H938 0.950 . S
C948 C949 1.386 . S
C948 C950 1.391 . S
C949 C948 1.386 . S
C949 C953 1.393 . S
C950 H939 0.950 . S
C950 C948 1.391 . S
C950 C951 1.400 . S
C951 C945 1.491 . S
C951 C950 1.400 . S
C951 C952 1.398 . S
C952 H940 0.950 . S
C952 C951 1.398 . S
C952 C953 1.391 . S
C953 H941 0.950 . S
C953 C949 1.393 . S
C953 C952 1.391 . S
H954 C962 0.950 . S
H955 C967 0.950 . S
H956 C964 0.950 . S
H957 C966 0.950 . S
H958 C968 0.950 . S
H959 C970 0.950 . S
H960 C972 0.950 . S
H961 C973 0.950 . S
C962 H954 0.950 . S
C962 C963 1.386 . S
C962 C964 1.391 . S
C963 C962 1.386 . S
C963 C967 1.393 . S
C964 H956 0.950 . S
C964 C962 1.391 . S
C964 C965 1.400 . S
C965 C964 1.400 . S
C965 C966 1.398 . S
C965 C971 1.491 . S
C966 H957 0.950 . S
C966 C965 1.398 . S
C966 C967 1.391 . S
C967 H955 0.950 . S
C967 C963 1.393 . S
C967 C966 1.391 . S
C968 H958 0.950 . S
C968 C969 1.386 . S
C968 C970 1.391 . S
C969 C968 1.386 . S
C969 C973 1.393 . S
C970 H959 0.950 . S
C970 C968 1.391 . S
C970 C971 1.400 . S
C971 C965 1.491 . S
C971 C970 1.400 . S
C971 C972 1.398 . S
C972 H960 0.950 . S
C972 C971 1.398 . S
C972 C973 1.391 . S
C973 H961 0.950 . S
C973 C969 1.393 . S
C973 C972 1.391 . S
H974 C982 0.950 . S
H975 C987 0.950 . S
H976 C984 0.950 . S
H977 C986 0.950 . S
H978 C988 0.950 1_545 S
H979 C990 0.950 . S
H980 C992 0.950 . S
H981 C993 0.950 . S
C982 H974 0.950 . S
C982 C983 1.386 . S
C982 C984 1.391 . S
C983 C982 1.386 . S
C983 C987 1.393 . S
C984 H976 0.950 . S
C984 C982 1.391 . S
C984 C985 1.400 . S
C985 C984 1.400 . S
C985 C986 1.398 . S
C985 C991 1.491 . S
C986 H977 0.950 . S
C986 C985 1.398 . S
C986 C987 1.391 . S
C987 H975 0.950 . S
C987 C983 1.393 . S
C987 C986 1.391 . S
C988 H978 0.950 1_565 S
C988 C989 1.386 . S
C988 C990 1.391 1_565 S
C989 C988 1.386 . S
C989 C993 1.393 . S
C990 H979 0.950 . S
C990 C988 1.391 1_545 S
C990 C991 1.400 . S
C991 C985 1.491 . S
C991 C990 1.400 . S
C991 C992 1.398 1_545 S
C992 H980 0.950 . S
C992 C991 1.398 1_565 S
C992 C993 1.391 . S
C993 H981 0.950 . S
C993 C989 1.393 . S
C993 C992 1.391 . S
H994 C1002 0.950 . S
H995 C1007 0.950 . S
H996 C1004 0.950 . S
H997 C1006 0.950 . S
H998 C1008 0.950 . S
H999 C1010 0.950 . S
H1000 C1012 0.950 . S
H1001 C1013 0.950 . S
C1002 H994 0.950 . S
C1002 C1003 1.386 . S
C1002 C1004 1.391 . S
C1003 C1002 1.386 . S
C1003 C1007 1.393 . S
C1004 H996 0.950 . S
C1004 C1002 1.391 . S
C1004 C1005 1.400 . S
C1005 C1004 1.400 . S
C1005 C1006 1.398 . S
C1005 C1011 1.491 . S
C1006 H997 0.950 . S
C1006 C1005 1.398 . S
C1006 C1007 1.391 . S
C1007 H995 0.950 . S
C1007 C1003 1.393 . S
C1007 C1006 1.391 . S
C1008 H998 0.950 . S
C1008 C1009 1.386 . S
C1008 C1010 1.391 . S
C1009 C1008 1.386 . S
C1009 C1013 1.393 . S
C1010 H999 0.950 . S
C1010 C1008 1.391 . S
C1010 C1011 1.400 1_455 S
C1011 C1005 1.491 . S
C1011 C1010 1.400 1_655 S
C1011 C1012 1.398 . S
C1012 H1000 0.950 . S
C1012 C1011 1.398 . S
C1012 C1013 1.391 1_655 S
C1013 H1001 0.950 . S
C1013 C1009 1.393 . S
C1013 C1012 1.391 1_455 S
H1014 C1022 0.950 . S
H1015 C1027 0.950 . S
H1016 C1024 0.950 . S
H1017 C1026 0.950 . S
H1018 C1028 0.950 . S
H1019 C1030 0.950 . S
H1020 C1032 0.950 . S
H1021 C1033 0.950 . S
C1022 H1014 0.950 . S
C1022 C1023 1.386 . S
C1022 C1024 1.391 . S
C1023 C1022 1.386 . S
C1023 C1027 1.393 . S
C1024 H1016 0.950 . S
C1024 C1022 1.391 . S
C1024 C1025 1.400 . S
C1025 C1024 1.400 . S
C1025 C1026 1.398 . S
C1025 C1031 1.491 . S
C1026 H1017 0.950 . S
C1026 C1025 1.398 . S
C1026 C1027 1.391 . S
C1027 H1015 0.950 . S
C1027 C1023 1.393 . S
C1027 C1026 1.391 . S
C1028 H1018 0.950 . S
C1028 C1029 1.386 . S
C1028 C1030 1.391 . S
C1029 C1028 1.386 . S
C1029 C1033 1.393 . S
C1030 H1019 0.950 . S
C1030 C1028 1.391 . S
C1030 C1031 1.400 . S
C1031 C1025 1.491 . S
C1031 C1030 1.400 . S
C1031 C1032 1.398 . S
C1032 H1020 0.950 . S
C1032 C1031 1.398 . S
C1032 C1033 1.391 . S
C1033 H1021 0.950 . S
C1033 C1029 1.393 . S
C1033 C1032 1.391 . S
H1034 C1042 0.950 . S
H1035 C1047 0.950 . S
H1036 C1044 0.950 . S
H1037 C1046 0.950 . S
H1038 C1048 0.950 . S
H1039 C1050 0.950 . S
H1040 C1052 0.950 . S
H1041 C1053 0.951 1_565 S
C1042 H1034 0.950 . S
C1042 C1043 1.386 . S
C1042 C1044 1.391 . S
C1043 C1042 1.386 . S
C1043 C1047 1.393 . S
C1044 H1036 0.950 . S
C1044 C1042 1.391 . S
C1044 C1045 1.400 . S
C1045 C1044 1.400 . S
C1045 C1046 1.398 . S
C1045 C1051 1.491 . S
C1046 H1037 0.950 . S
C1046 C1045 1.398 . S
C1046 C1047 1.391 . S
C1047 H1035 0.950 . S
C1047 C1043 1.393 . S
C1047 C1046 1.391 . S
C1048 H1038 0.950 . S
C1048 C1049 1.386 . S
C1048 C1050 1.391 . S
C1049 C1048 1.386 . S
C1049 C1053 1.399 . S
C1050 H1039 0.950 . S
C1050 C1048 1.391 . S
C1050 C1051 1.400 1_545 S
C1051 C1045 1.491 . S
C1051 C1050 1.400 1_565 S
C1051 C1052 1.398 . S
C1052 H1040 0.950 . S
C1052 C1051 1.398 . S
C1052 C1053 1.383 1_565 S
C1053 H1041 0.951 1_545 S
C1053 C1049 1.399 . S
C1053 C1052 1.383 1_545 S
H1054 C1062 0.950 . S
H1055 C1067 0.943 1_455 S
H1056 C1064 0.950 . S
H1057 C1066 0.950 . S
H1058 C1068 0.950 . S
H1059 C1070 0.950 . S
H1060 C1072 0.950 . S
H1061 C1073 0.950 . S
C1062 H1054 0.950 . S
C1062 C1063 1.386 . S
C1062 C1064 1.391 . S
C1063 C1062 1.386 . S
C1063 C1067 1.404 . S
C1064 H1056 0.950 . S
C1064 C1062 1.391 . S
C1064 C1065 1.400 1_655 S
C1065 C1064 1.400 1_455 S
C1065 C1066 1.398 . S
C1065 C1071 1.491 . S
C1066 H1057 0.950 . S
C1066 C1065 1.398 . S
C1066 C1067 1.387 1_455 S
C1067 H1055 0.943 1_655 S
C1067 C1063 1.404 . S
C1067 C1066 1.387 1_655 S
C1068 H1058 0.950 . S
C1068 C1069 1.386 . S
C1068 C1070 1.391 . S
C1069 C1068 1.386 . S
C1069 C1073 1.393 . S
C1070 H1059 0.950 . S
C1070 C1068 1.391 . S
C1070 C1071 1.400 . S
C1071 C1065 1.491 . S
C1071 C1070 1.400 . S
C1071 C1072 1.398 . S
C1072 H1060 0.950 . S
C1072 C1071 1.398 . S
C1072 C1073 1.391 . S
C1073 H1061 0.950 . S
C1073 C1069 1.393 . S
C1073 C1072 1.391 . S
H1074 C1082 0.950 . S
H1075 C1087 0.950 . S
H1076 C1084 0.950 . S
H1077 C1086 0.950 . S
H1078 C1088 0.950 . S
H1079 C1090 0.950 . S
H1080 C1092 0.950 . S
H1081 C1093 0.950 . S
C1082 H1074 0.950 . S
C1082 C1083 1.386 . S
C1082 C1084 1.391 . S
C1083 C1082 1.386 . S
C1083 C1087 1.393 . S
C1084 H1076 0.950 . S
C1084 C1082 1.391 . S
C1084 C1085 1.400 . S
C1085 C1084 1.400 . S
C1085 C1086 1.398 . S
C1085 C1091 1.491 . S
C1086 H1077 0.950 . S
C1086 C1085 1.398 . S
C1086 C1087 1.391 . S
C1087 H1075 0.950 . S
C1087 C1083 1.393 . S
C1087 C1086 1.391 . S
C1088 H1078 0.950 . S
C1088 C1089 1.386 . S
C1088 C1090 1.391 . S
C1089 C1088 1.386 . S
C1089 C1093 1.393 . S
C1090 H1079 0.950 . S
C1090 C1088 1.391 . S
C1090 C1091 1.400 . S
C1091 C1085 1.491 . S
C1091 C1090 1.400 . S
C1091 C1092 1.398 . S
C1092 H1080 0.950 . S
C1092 C1091 1.398 . S
C1092 C1093 1.391 . S
C1093 H1081 0.950 . S
C1093 C1089 1.393 . S
C1093 C1092 1.391 . S
H1094 C1102 0.950 . S
H1095 C1107 0.950 . S
H1096 C1104 0.950 . S
H1097 C1106 0.950 . S
H1098 C1108 0.950 . S
H1099 C1110 0.950 . S
H1100 C1112 0.950 . S
H1101 C1113 0.950 . S
C1102 H1094 0.950 . S
C1102 C1103 1.386 . S
C1102 C1104 1.391 . S
C1103 C1102 1.386 . S
C1103 C1107 1.393 . S
C1104 H1096 0.950 . S
C1104 C1102 1.391 . S
C1104 C1105 1.400 . S
C1105 C1104 1.400 . S
C1105 C1106 1.398 . S
C1105 C1111 1.491 . S
C1106 H1097 0.950 . S
C1106 C1105 1.398 . S
C1106 C1107 1.391 . S
C1107 H1095 0.950 . S
C1107 C1103 1.393 . S
C1107 C1106 1.391 . S
C1108 H1098 0.950 . S
C1108 C1109 1.386 . S
C1108 C1110 1.391 . S
C1109 C1108 1.386 . S
C1109 C1113 1.393 . S
C1110 H1099 0.950 . S
C1110 C1108 1.391 . S
C1110 C1111 1.400 . S
C1111 C1105 1.491 . S
C1111 C1110 1.400 . S
C1111 C1112 1.398 . S
C1112 H1100 0.950 . S
C1112 C1111 1.398 . S
C1112 C1113 1.391 . S
C1113 H1101 0.950 . S
C1113 C1109 1.393 . S
C1113 C1112 1.391 . S
H1114 C1122 0.950 . S
H1115 C1127 0.950 . S
H1116 C1124 0.950 . S
H1117 C1126 0.950 . S
H1118 C1128 0.950 . S
H1119 C1130 0.950 . S
H1120 C1132 0.950 . S
H1121 C1133 0.950 1_565 S
C1122 H1114 0.950 . S
C1122 C1123 1.386 . S
C1122 C1124 1.391 . S
C1123 C1122 1.386 . S
C1123 C1127 1.393 . S
C1124 H1116 0.950 . S
C1124 C1122 1.391 . S
C1124 C1125 1.400 . S
C1125 C1124 1.400 . S
C1125 C1126 1.398 . S
C1125 C1131 1.491 . S
C1126 H1117 0.950 . S
C1126 C1125 1.398 . S
C1126 C1127 1.391 . S
C1127 H1115 0.950 . S
C1127 C1123 1.393 . S
C1127 C1126 1.391 . S
C1128 H1118 0.950 . S
C1128 C1129 1.386 . S
C1128 C1130 1.391 . S
C1129 C1128 1.386 . S
C1129 C1133 1.393 . S
C1130 H1119 0.950 . S
C1130 C1128 1.391 . S
C1130 C1131 1.400 . S
C1131 C1125 1.491 . S
C1131 C1130 1.400 . S
C1131 C1132 1.398 . S
C1132 H1120 0.950 . S
C1132 C1131 1.398 . S
C1132 C1133 1.391 . S
C1133 H1121 0.950 1_545 S
C1133 C1129 1.393 . S
C1133 C1132 1.391 . S
H1134 C1142 0.950 . S
H1135 C1147 0.950 . S
H1136 C1144 0.950 . S
H1137 C1146 0.950 . S
H1138 C1148 0.950 . S
H1139 C1150 0.950 . S
H1140 C1152 0.950 . S
H1141 C1153 0.950 . S
C1142 H1134 0.950 . S
C1142 C1143 1.386 . S
C1142 C1144 1.391 . S
C1143 C1142 1.386 . S
C1143 C1147 1.393 1_556 S
C1144 H1136 0.950 . S
C1144 C1142 1.391 . S
C1144 C1145 1.400 1_556 S
C1145 C1144 1.400 1_554 S
C1145 C1146 1.398 . S
C1145 C1151 1.491 . S
C1146 H1137 0.950 . S
C1146 C1145 1.398 . S
C1146 C1147 1.391 . S
C1147 H1135 0.950 . S
C1147 C1143 1.393 1_554 S
C1147 C1146 1.391 . S
C1148 H1138 0.950 . S
C1148 C1149 1.386 . S
C1148 C1150 1.391 . S
C1149 C1148 1.386 . S
C1149 C1153 1.393 . S
C1150 H1139 0.950 . S
C1150 C1148 1.391 . S
C1150 C1151 1.400 . S
C1151 C1145 1.491 . S
C1151 C1150 1.400 . S
C1151 C1152 1.398 . S
C1152 H1140 0.950 . S
C1152 C1151 1.398 . S
C1152 C1153 1.391 . S
C1153 H1141 0.950 . S
C1153 C1149 1.393 . S
C1153 C1152 1.391 . S
H1154 C1162 0.950 . S
H1155 C1167 0.950 . S
H1156 C1164 0.950 . S
H1157 C1166 0.950 . S
H1158 C1168 0.950 . S
H1159 C1170 0.950 . S
H1160 C1172 0.950 . S
H1161 C1173 0.950 . S
C1162 H1154 0.950 . S
C1162 C1163 1.386 . S
C1162 C1164 1.391 . S
C1163 C1162 1.386 . S
C1163 C1167 1.393 1_556 S
C1164 H1156 0.950 . S
C1164 C1162 1.391 . S
C1164 C1165 1.400 1_556 S
C1165 C1164 1.400 1_554 S
C1165 C1166 1.398 . S
C1165 C1171 1.491 . S
C1166 H1157 0.950 . S
C1166 C1165 1.398 . S
C1166 C1167 1.391 . S
C1167 H1155 0.950 . S
C1167 C1163 1.393 1_554 S
C1167 C1166 1.391 . S
C1168 H1158 0.950 . S
C1168 C1169 1.386 . S
C1168 C1170 1.391 . S
C1169 C1168 1.386 . S
C1169 C1173 1.393 . S
C1170 H1159 0.950 . S
C1170 C1168 1.391 . S
C1170 C1171 1.400 . S
C1171 C1165 1.491 . S
C1171 C1170 1.400 . S
C1171 C1172 1.398 . S
C1172 H1160 0.950 . S
C1172 C1171 1.398 . S
C1172 C1173 1.391 . S
C1173 H1161 0.950 . S
C1173 C1169 1.393 . S
C1173 C1172 1.391 . S
H1174 C1182 0.950 . S
H1175 C1187 0.950 . S
H1176 C1184 0.950 . S
H1177 C1186 0.950 . S
H1178 C1188 0.950 . S
H1179 C1190 0.950 . S
H1180 C1192 0.950 . S
H1181 C1193 0.950 . S
C1182 H1174 0.950 . S
C1182 C1183 1.386 1_554 S
C1182 C1184 1.391 . S
C1183 C1182 1.386 1_556 S
C1183 C1187 1.393 . S
C1184 H1176 0.950 . S
C1184 C1182 1.391 . S
C1184 C1185 1.400 . S
C1185 C1184 1.400 . S
C1185 C1186 1.398 1_554 S
C1185 C1191 1.491 . S
C1186 H1177 0.950 . S
C1186 C1185 1.398 1_556 S
C1186 C1187 1.391 . S
C1187 H1175 0.950 . S
C1187 C1183 1.393 . S
C1187 C1186 1.391 . S
C1188 H1178 0.950 . S
C1188 C1189 1.386 . S
C1188 C1190 1.391 . S
C1189 C1188 1.386 . S
C1189 C1193 1.393 . S
C1190 H1179 0.950 . S
C1190 C1188 1.391 . S
C1190 C1191 1.400 . S
C1191 C1185 1.491 . S
C1191 C1190 1.400 . S
C1191 C1192 1.398 . S
C1192 H1180 0.950 . S
C1192 C1191 1.398 . S
C1192 C1193 1.391 . S
C1193 H1181 0.950 . S
C1193 C1189 1.393 . S
C1193 C1192 1.391 . S
H1194 C1202 0.950 . S
H1195 C1207 0.950 . S
H1196 C1204 0.950 . S
H1197 C1206 0.950 . S
H1198 C1208 0.950 . S
H1199 C1210 0.950 . S
H1200 C1212 0.950 . S
H1201 C1213 0.950 . S
C1202 H1194 0.950 . S
C1202 C1203 1.386 . S
C1202 C1204 1.391 . S
C1203 C1202 1.386 . S
C1203 C1207 1.393 . S
C1204 H1196 0.950 . S
C1204 C1202 1.391 . S
C1204 C1205 1.400 . S
C1205 C1204 1.400 . S
C1205 C1206 1.398 . S
C1205 C1211 1.491 . S
C1206 H1197 0.950 . S
C1206 C1205 1.398 . S
C1206 C1207 1.391 . S
C1207 H1195 0.950 . S
C1207 C1203 1.393 . S
C1207 C1206 1.391 . S
C1208 H1198 0.950 . S
C1208 C1209 1.386 1_556 S
C1208 C1210 1.391 . S
C1209 C1208 1.386 1_554 S
C1209 C1213 1.393 . S
C1210 H1199 0.950 . S
C1210 C1208 1.391 . S
C1210 C1211 1.400 . S
C1211 C1205 1.491 . S
C1211 C1210 1.400 . S
C1211 C1212 1.398 . S
C1212 H1200 0.950 . S
C1212 C1211 1.398 . S
C1212 C1213 1.391 1_556 S
C1213 H1201 0.950 . S
C1213 C1209 1.393 . S
C1213 C1212 1.391 1_554 S
H1214 C1222 0.950 . S
H1215 C1227 0.950 . S
H1216 C1224 0.950 . S
H1217 C1226 0.950 . S
H1218 C1228 0.950 . S
H1219 C1230 0.950 . S
H1220 C1232 0.950 . S
H1221 C1233 0.950 . S
C1222 H1214 0.950 . S
C1222 C1223 1.386 . S
C1222 C1224 1.391 . S
C1223 C1222 1.386 . S
C1223 C1227 1.393 . S
C1224 H1216 0.950 . S
C1224 C1222 1.391 . S
C1224 C1225 1.400 . S
C1225 C1224 1.400 . S
C1225 C1226 1.398 . S
C1225 C1231 1.491 . S
C1226 H1217 0.950 . S
C1226 C1225 1.398 . S
C1226 C1227 1.391 . S
C1227 H1215 0.950 . S
C1227 C1223 1.393 . S
C1227 C1226 1.391 . S
C1228 H1218 0.950 . S
C1228 C1229 1.386 1_556 S
C1228 C1230 1.391 . S
C1229 C1228 1.386 1_554 S
C1229 C1233 1.393 . S
C1230 H1219 0.950 . S
C1230 C1228 1.391 . S
C1230 C1231 1.400 . S
C1231 C1225 1.491 . S
C1231 C1230 1.400 . S
C1231 C1232 1.398 . S
C1232 H1220 0.950 . S
C1232 C1231 1.398 . S
C1232 C1233 1.391 1_556 S
C1233 H1221 0.950 . S
C1233 C1229 1.393 . S
C1233 C1232 1.391 1_554 S
H1234 C1242 0.950 . S
H1235 C1247 0.950 . S
H1236 C1244 0.950 . S
H1237 C1246 0.950 . S
H1238 C1248 0.950 . S
H1239 C1250 0.950 . S
H1240 C1252 0.950 . S
H1241 C1253 0.950 . S
C1242 H1234 0.950 . S
C1242 C1243 1.386 . S
C1242 C1244 1.391 . S
C1243 C1242 1.386 . S
C1243 C1247 1.393 1_554 S
C1244 H1236 0.950 . S
C1244 C1242 1.391 . S
C1244 C1245 1.400 1_554 S
C1245 C1244 1.400 1_556 S
C1245 C1246 1.398 . S
C1245 C1251 1.491 . S
C1246 H1237 0.950 . S
C1246 C1245 1.398 . S
C1246 C1247 1.391 . S
C1247 H1235 0.950 . S
C1247 C1243 1.393 1_556 S
C1247 C1246 1.391 . S
C1248 H1238 0.950 . S
C1248 C1249 1.386 . S
C1248 C1250 1.391 . S
C1249 C1248 1.386 . S
C1249 C1253 1.393 . S
C1250 H1239 0.950 . S
C1250 C1248 1.391 . S
C1250 C1251 1.400 . S
C1251 C1245 1.491 . S
C1251 C1250 1.400 . S
C1251 C1252 1.398 . S
C1252 H1240 0.950 . S
C1252 C1251 1.398 . S
C1252 C1253 1.391 . S
C1253 H1241 0.950 . S
C1253 C1249 1.393 . S
C1253 C1252 1.391 . S
H1254 C1262 0.950 . S
H1255 C1267 0.950 1_655 S
H1256 C1264 0.950 . S
H1257 C1266 0.950 . S
H1258 C1268 0.950 . S
H1259 C1270 0.950 . S
H1260 C1272 0.950 . S
H1261 C1273 0.950 . S
C1262 H1254 0.950 . S
C1262 C1263 1.386 . S
C1262 C1264 1.391 . S
C1263 C1262 1.386 . S
C1263 C1267 1.393 . S
C1264 H1256 0.950 . S
C1264 C1262 1.391 . S
C1264 C1265 1.400 . S
C1265 C1264 1.400 . S
C1265 C1266 1.398 . S
C1265 C1271 1.491 . S
C1266 H1257 0.950 . S
C1266 C1265 1.398 . S
C1266 C1267 1.391 . S
C1267 H1255 0.950 1_455 S
C1267 C1263 1.393 . S
C1267 C1266 1.391 . S
C1268 H1258 0.950 . S
C1268 C1269 1.386 . S
C1268 C1270 1.391 . S
C1269 C1268 1.386 . S
C1269 C1273 1.393 . S
C1270 H1259 0.950 . S
C1270 C1268 1.391 . S
C1270 C1271 1.400 . S
C1271 C1265 1.491 . S
C1271 C1270 1.400 . S
C1271 C1272 1.398 . S
C1272 H1260 0.950 . S
C1272 C1271 1.398 . S
C1272 C1273 1.391 . S
C1273 H1261 0.950 . S
C1273 C1269 1.393 . S
C1273 C1272 1.391 . S
H1274 C1282 0.950 . S
H1275 C1287 0.950 . S
H1276 C1284 0.950 . S
H1277 C1286 0.950 . S
H1278 C1288 0.950 . S
H1279 C1290 0.950 . S
H1280 C1292 0.950 . S
H1281 C1293 0.950 . S
C1282 H1274 0.950 . S
C1282 C1283 1.386 . S
C1282 C1284 1.391 . S
C1283 C1282 1.386 . S
C1283 C1287 1.393 . S
C1284 H1276 0.950 . S
C1284 C1282 1.391 . S
C1284 C1285 1.400 . S
C1285 C1284 1.400 . S
C1285 C1286 1.398 . S
C1285 C1291 1.491 . S
C1286 H1277 0.950 . S
C1286 C1285 1.398 . S
C1286 C1287 1.391 . S
C1287 H1275 0.950 . S
C1287 C1283 1.393 . S
C1287 C1286 1.391 . S
C1288 H1278 0.950 . S
C1288 C1289 1.386 . S
C1288 C1290 1.391 . S
C1289 C1288 1.386 . S
C1289 C1293 1.393 . S
C1290 H1279 0.950 . S
C1290 C1288 1.391 . S
C1290 C1291 1.400 . S
C1291 C1285 1.491 . S
C1291 C1290 1.400 . S
C1291 C1292 1.398 . S
C1292 H1280 0.950 . S
C1292 C1291 1.398 . S
C1292 C1293 1.391 . S
C1293 H1281 0.950 . S
C1293 C1289 1.393 . S
C1293 C1292 1.391 . S
H1294 C1302 0.950 1_545 S
H1295 C1307 0.950 . S
H1296 C1304 0.950 . S
H1297 C1306 0.950 . S
H1298 C1308 0.950 . S
H1299 C1310 0.950 . S
H1300 C1312 0.950 . S
H1301 C1313 0.950 . S
C1302 H1294 0.950 1_565 S
C1302 C1303 1.386 . S
C1302 C1304 1.391 . S
C1303 C1302 1.386 . S
C1303 C1307 1.393 . S
C1304 H1296 0.950 . S
C1304 C1302 1.391 . S
C1304 C1305 1.400 . S
C1305 C1304 1.400 . S
C1305 C1306 1.398 . S
C1305 C1311 1.491 . S
C1306 H1297 0.950 . S
C1306 C1305 1.398 . S
C1306 C1307 1.391 . S
C1307 H1295 0.950 . S
C1307 C1303 1.393 . S
C1307 C1306 1.391 . S
C1308 H1298 0.950 . S
C1308 C1309 1.386 . S
C1308 C1310 1.391 . S
C1309 C1308 1.386 . S
C1309 C1313 1.393 . S
C1310 H1299 0.950 . S
C1310 C1308 1.391 . S
C1310 C1311 1.400 . S
C1311 C1305 1.491 . S
C1311 C1310 1.400 . S
C1311 C1312 1.398 . S
C1312 H1300 0.950 . S
C1312 C1311 1.398 . S
C1312 C1313 1.391 . S
C1313 H1301 0.950 . S
C1313 C1309 1.393 . S
C1313 C1312 1.391 . S
H1314 C1322 0.950 . S
H1315 C1327 0.950 . S
H1316 C1324 0.950 . S
H1317 C1326 0.950 . S
H1318 C1328 0.950 . S
H1319 C1330 0.950 . S
H1320 C1332 0.950 . S
H1321 C1333 0.950 . S
C1322 H1314 0.950 . S
C1322 C1323 1.386 . S
C1322 C1324 1.391 . S
C1323 C1322 1.386 . S
C1323 C1327 1.393 . S
C1324 H1316 0.950 . S
C1324 C1322 1.391 . S
C1324 C1325 1.400 . S
C1325 C1324 1.400 . S
C1325 C1326 1.398 . S
C1325 C1331 1.491 . S
C1326 H1317 0.950 . S
C1326 C1325 1.398 . S
C1326 C1327 1.391 . S
C1327 H1315 0.950 . S
C1327 C1323 1.393 . S
C1327 C1326 1.391 . S
C1328 H1318 0.950 . S
C1328 C1329 1.386 . S
C1328 C1330 1.391 . S
C1329 C1328 1.386 . S
C1329 C1333 1.393 . S
C1330 H1319 0.950 . S
C1330 C1328 1.391 . S
C1330 C1331 1.400 . S
C1331 C1325 1.491 . S
C1331 C1330 1.400 . S
C1331 C1332 1.398 . S
C1332 H1320 0.950 . S
C1332 C1331 1.398 . S
C1332 C1333 1.391 . S
C1333 H1321 0.950 . S
C1333 C1329 1.393 . S
C1333 C1332 1.391 . S
H1334 C1342 0.950 . S
H1335 C1347 0.950 . S
H1336 C1344 0.950 . S
H1337 C1346 0.950 . S
H1338 C1348 0.950 . S
H1339 C1350 0.950 . S
H1340 C1352 0.950 . S
H1341 C1353 0.950 . S
C1342 H1334 0.950 . S
C1342 C1343 1.386 . S
C1342 C1344 1.391 . S
C1343 C1342 1.386 . S
C1343 C1347 1.393 . S
C1344 H1336 0.950 . S
C1344 C1342 1.391 . S
C1344 C1345 1.400 . S
C1345 C1344 1.400 . S
C1345 C1346 1.398 . S
C1345 C1351 1.491 . S
C1346 H1337 0.950 . S
C1346 C1345 1.398 . S
C1346 C1347 1.391 . S
C1347 H1335 0.950 . S
C1347 C1343 1.393 . S
C1347 C1346 1.391 . S
C1348 H1338 0.950 . S
C1348 C1349 1.386 . S
C1348 C1350 1.391 . S
C1349 C1348 1.386 . S
C1349 C1353 1.393 . S
C1350 H1339 0.950 . S
C1350 C1348 1.391 . S
C1350 C1351 1.400 . S
C1351 C1345 1.491 . S
C1351 C1350 1.400 . S
C1351 C1352 1.398 . S
C1352 H1340 0.950 . S
C1352 C1351 1.398 . S
C1352 C1353 1.391 . S
C1353 H1341 0.950 . S
C1353 C1349 1.393 . S
C1353 C1352 1.391 . S
H1354 C1362 0.950 . S
H1355 C1367 0.950 . S
H1356 C1364 0.950 . S
H1357 C1366 0.950 . S
H1358 C1368 0.950 . S
H1359 C1370 0.950 . S
H1360 C1372 0.950 . S
H1361 C1373 0.950 . S
C1362 H1354 0.950 . S
C1362 C1363 1.386 . S
C1362 C1364 1.391 . S
C1363 C1362 1.386 . S
C1363 C1367 1.393 . S
C1364 H1356 0.950 . S
C1364 C1362 1.391 . S
C1364 C1365 1.400 . S
C1365 C1364 1.400 . S
C1365 C1366 1.398 . S
C1365 C1371 1.491 . S
C1366 H1357 0.950 . S
C1366 C1365 1.398 . S
C1366 C1367 1.391 . S
C1367 H1355 0.950 . S
C1367 C1363 1.393 . S
C1367 C1366 1.391 . S
C1368 H1358 0.950 . S
C1368 C1369 1.386 . S
C1368 C1370 1.391 . S
C1369 C1368 1.386 . S
C1369 C1373 1.393 . S
C1370 H1359 0.950 . S
C1370 C1368 1.391 . S
C1370 C1371 1.400 . S
C1371 C1365 1.491 . S
C1371 C1370 1.400 . S
C1371 C1372 1.398 . S
C1372 H1360 0.950 . S
C1372 C1371 1.398 . S
C1372 C1373 1.391 . S
C1373 H1361 0.950 . S
C1373 C1369 1.393 . S
C1373 C1372 1.391 . S
H1374 C1382 0.950 . S
H1375 C1387 0.950 . S
H1376 C1384 0.950 . S
H1377 C1386 0.950 . S
H1378 C1388 0.950 . S
H1379 C1390 0.950 . S
H1380 C1392 0.950 . S
H1381 C1393 0.950 . S
C1382 H1374 0.950 . S
C1382 C1383 1.386 . S
C1382 C1384 1.391 . S
C1383 C1382 1.386 . S
C1383 C1387 1.393 . S
C1384 H1376 0.950 . S
C1384 C1382 1.391 . S
C1384 C1385 1.400 . S
C1385 C1384 1.400 . S
C1385 C1386 1.398 . S
C1385 C1391 1.491 . S
C1386 H1377 0.950 . S
C1386 C1385 1.398 . S
C1386 C1387 1.391 . S
C1387 H1375 0.950 . S
C1387 C1383 1.393 . S
C1387 C1386 1.391 . S
C1388 H1378 0.950 . S
C1388 C1389 1.386 . S
C1388 C1390 1.391 . S
C1389 C1388 1.386 . S
C1389 C1393 1.393 . S
C1390 H1379 0.950 . S
C1390 C1388 1.391 . S
C1390 C1391 1.400 . S
C1391 C1385 1.491 . S
C1391 C1390 1.400 . S
C1391 C1392 1.398 . S
C1392 H1380 0.950 . S
C1392 C1391 1.398 . S
C1392 C1393 1.391 . S
C1393 H1381 0.950 . S
C1393 C1389 1.393 . S
C1393 C1392 1.391 . S
H1394 C1402 0.950 . S
H1395 C1407 0.950 . S
H1396 C1404 0.950 . S
H1397 C1406 0.950 . S
H1398 C1408 0.950 . S
H1399 C1410 0.950 . S
H1400 C1412 0.950 . S
H1401 C1413 0.950 . S
C1402 H1394 0.950 . S
C1402 C1403 1.386 . S
C1402 C1404 1.391 . S
C1403 C1402 1.386 . S
C1403 C1407 1.393 . S
C1404 H1396 0.950 . S
C1404 C1402 1.391 . S
C1404 C1405 1.400 . S
C1405 C1404 1.400 . S
C1405 C1406 1.398 . S
C1405 C1411 1.491 . S
C1406 H1397 0.950 . S
C1406 C1405 1.398 . S
C1406 C1407 1.391 . S
C1407 H1395 0.950 . S
C1407 C1403 1.393 . S
C1407 C1406 1.391 . S
C1408 H1398 0.950 . S
C1408 C1409 1.386 . S
C1408 C1410 1.391 . S
C1409 C1408 1.386 . S
C1409 C1413 1.393 . S
C1410 H1399 0.950 . S
C1410 C1408 1.391 . S
C1410 C1411 1.400 . S
C1411 C1405 1.491 . S
C1411 C1410 1.400 . S
C1411 C1412 1.398 . S
C1412 H1400 0.950 . S
C1412 C1411 1.398 . S
C1412 C1413 1.391 . S
C1413 H1401 0.950 . S
C1413 C1409 1.393 . S
C1413 C1412 1.391 . S
H1414 C1422 0.950 . S
H1415 C1427 0.950 . S
H1416 C1424 0.950 . S
H1417 C1426 0.950 . S
H1418 C1428 0.950 . S
H1419 C1430 0.950 . S
H1420 C1432 0.950 . S
H1421 C1433 0.950 . S
C1422 H1414 0.950 . S
C1422 C1423 1.386 . S
C1422 C1424 1.391 . S
C1423 C1422 1.386 . S
C1423 C1427 1.393 . S
C1424 H1416 0.950 . S
C1424 C1422 1.391 . S
C1424 C1425 1.400 . S
C1425 C1424 1.400 . S
C1425 C1426 1.398 . S
C1425 C1431 1.491 . S
C1426 H1417 0.950 . S
C1426 C1425 1.398 . S
C1426 C1427 1.391 . S
C1427 H1415 0.950 . S
C1427 C1423 1.393 . S
C1427 C1426 1.391 . S
C1428 H1418 0.950 . S
C1428 C1429 1.386 . S
C1428 C1430 1.391 . S
C1429 C1428 1.386 . S
C1429 C1433 1.393 . S
C1430 H1419 0.950 . S
C1430 C1428 1.391 . S
C1430 C1431 1.400 . S
C1431 C1425 1.491 . S
C1431 C1430 1.400 . S
C1431 C1432 1.398 . S
C1432 H1420 0.950 . S
C1432 C1431 1.398 . S
C1432 C1433 1.391 . S
C1433 H1421 0.950 . S
C1433 C1429 1.393 . S
C1433 C1432 1.391 . S
H1434 C1442 0.950 . S
H1435 C1447 0.950 . S
H1436 C1444 0.983 . S
H1437 C1446 0.950 1_556 S
H1438 C1448 0.950 . S
H1439 C1450 0.983 . S
H1440 C1452 0.950 1_554 S
H1441 C1453 0.950 . S
C1442 H1434 0.950 . S
C1442 C1443 1.386 . S
C1442 C1444 1.375 1_545 S
C1443 C1442 1.386 . S
C1443 C1447 1.393 . S
C1444 H1436 0.983 . S
C1444 C1442 1.375 1_565 S
C1444 C1445 1.385 1_565 S
C1445 C1444 1.385 1_545 S
C1445 C1446 1.398 . S
C1445 C1451 1.491 1_544 S
C1446 H1437 0.950 1_554 S
C1446 C1445 1.398 . S
C1446 C1447 1.391 . S
C1447 H1435 0.950 . S
C1447 C1443 1.393 . S
C1447 C1446 1.391 . S
C1448 H1438 0.950 . S
C1448 C1449 1.386 . S
C1448 C1450 1.375 1_565 S
C1449 C1448 1.386 . S
C1449 C1453 1.393 . S
C1450 H1439 0.983 . S
C1450 C1448 1.375 1_545 S
C1450 C1451 1.385 1_545 S
C1451 C1445 1.491 1_566 S
C1451 C1450 1.385 1_565 S
C1451 C1452 1.398 . S
C1452 H1440 0.950 1_556 S
C1452 C1451 1.398 . S
C1452 C1453 1.391 . S
C1453 H1441 0.950 . S
C1453 C1449 1.393 . S
C1453 C1452 1.391 . S
H1454 C1462 0.950 . S
H1455 C1467 0.950 . S
H1456 C1464 0.950 1_455 S
H1457 C1466 0.950 . S
H1458 C1468 0.950 . S
H1459 C1470 0.950 1_655 S
H1460 C1472 0.950 . S
H1461 C1473 0.950 . S
C1462 H1454 0.950 . S
C1462 C1463 1.386 . S
C1462 C1464 1.391 . S
C1463 C1462 1.386 . S
C1463 C1467 1.393 . S
C1464 H1456 0.950 1_655 S
C1464 C1462 1.391 . S
C1464 C1465 1.400 . S
C1465 C1464 1.400 . S
C1465 C1466 1.398 . S
C1465 C1471 1.491 1_654 S
C1466 H1457 0.950 . S
C1466 C1465 1.398 . S
C1466 C1467 1.391 . S
C1467 H1455 0.950 . S
C1467 C1463 1.393 . S
C1467 C1466 1.391 . S
C1468 H1458 0.950 . S
C1468 C1469 1.386 . S
C1468 C1470 1.391 . S
C1469 C1468 1.386 . S
C1469 C1473 1.393 . S
C1470 H1459 0.950 1_455 S
C1470 C1468 1.391 . S
C1470 C1471 1.400 . S
C1471 C1465 1.491 1_456 S
C1471 C1470 1.400 . S
C1471 C1472 1.398 . S
C1472 H1460 0.950 . S
C1472 C1471 1.398 . S
C1472 C1473 1.391 . S
C1473 H1461 0.950 . S
C1473 C1469 1.393 . S
C1473 C1472 1.391 . S
H1474 C1482 0.950 . S
H1475 C1487 0.950 . S
H1476 C1484 0.950 . S
H1477 C1486 0.950 . S
H1478 C1488 0.950 . S
H1479 C1490 0.950 . S
H1480 C1492 0.950 . S
H1481 C1493 0.950 . S
C1482 H1474 0.950 . S
C1482 C1483 1.386 . S
C1482 C1484 1.391 . S
C1483 C1482 1.386 . S
C1483 C1487 1.393 . S
C1484 H1476 0.950 . S
C1484 C1482 1.391 . S
C1484 C1485 1.400 . S
C1485 C1484 1.400 . S
C1485 C1486 1.398 . S
C1485 C1491 1.491 1_556 S
C1486 H1477 0.950 . S
C1486 C1485 1.398 . S
C1486 C1487 1.391 . S
C1487 H1475 0.950 . S
C1487 C1483 1.393 . S
C1487 C1486 1.391 . S
C1488 H1478 0.950 . S
C1488 C1489 1.386 . S
C1488 C1490 1.391 . S
C1489 C1488 1.386 . S
C1489 C1493 1.393 . S
C1490 H1479 0.950 . S
C1490 C1488 1.391 . S
C1490 C1491 1.400 . S
C1491 C1485 1.491 1_554 S
C1491 C1490 1.400 . S
C1491 C1492 1.398 . S
C1492 H1480 0.950 . S
C1492 C1491 1.398 . S
C1492 C1493 1.391 . S
C1493 H1481 0.950 . S
C1493 C1489 1.393 . S
C1493 C1492 1.391 . S
C423 C110 1.233 . S
C429 C20 1.253 1_556 S
C443 C43 1.256 1_556 S
C449 C133 1.237 . S
C463 C87 1.226 . S
C469 C66 1.255 1_556 S
C483 C89 1.256 1_554 S
C489 C41 1.226 . S
C503 C112 1.267 . S
C509 C64 1.244 . S
C523 C18 1.227 . S
C529 C135 1.258 1_554 S
C543 C158 1.262 . S
C549 C248 1.251 . S
C563 C271 1.240 . S
C569 C181 1.258 . S
C583 C225 1.237 . S
C589 C204 1.267 . S
C603 C227 1.258 . S
C609 C179 1.244 . S
C623 C202 1.250 . S
C629 C250 1.261 . S
C643 C273 1.266 . S
C649 C156 1.245 . S
C663 C386 1.228 . S
C669 C296 1.263 . S
C683 C319 1.265 . S
C689 C409 1.250 . S
C703 C363 1.235 . S
C709 C342 1.266 . S
C723 C317 1.242 . S
C729 C365 1.258 . S
C743 C388 1.265 . S
C749 C340 1.230 . S
C763 C294 1.250 . S
C769 C411 1.265 . S
C783 C16 1.144 . S
C789 C361 1.144 . S
C803 C39 1.136 . S
C809 C384 1.136 . S
C823 C407 1.151 . S
C829 C62 1.151 . S
C843 C85 1.128 . S
C849 C154 1.128 . S
C863 C108 1.128 . S
C869 C177 1.128 . S
C883 C200 1.131 . S
C889 C131 1.131 . S
C903 C292 1.130 . S
C909 C223 1.130 . S
C923 C315 1.128 . S
C929 C246 1.128 . S
C943 C338 1.146 . S
C949 C269 1.146 . S
C963 C17 1.367 . S
C969 C182 1.410 . S
C983 C205 1.416 . S
C989 C40 1.378 . S
C1003 C159 1.406 . S
C1009 C63 1.354 . S
C1023 C86 1.379 . S
C1029 C389 1.416 . S
C1043 C412 1.416 . S
C1049 C109 1.379 . S
C1063 C132 1.352 . S
C1069 C366 1.407 . S
C1083 C155 1.352 . S
C1089 C320 1.405 1_655 S
C1103 C178 1.376 . S
C1109 C343 1.415 . S
C1123 C201 1.368 . S
C1129 C297 1.411 1_545 S
C1143 C113 1.406 . S
C1149 C224 1.355 . S
C1163 C136 1.406 . S
C1169 C247 1.351 . S
C1183 C90 1.414 . S
C1189 C270 1.370 . S
C1203 C293 1.354 . S
C1209 C44 1.408 . S
C1223 C316 1.379 . S
C1229 C67 1.415 . S
C1243 C21 1.414 . S
C1249 C339 1.372 . S
C1263 C251 1.409 1_455 S
C1269 C362 1.363 . S
C1283 C385 1.356 . S
C1289 C274 1.408 . S
C1303 C228 1.406 1_565 S
C1309 C408 1.351 . S
C1323 C19 1.406 . S
C1329 C364 1.406 . S
C1343 C42 1.398 . S
C1349 C387 1.398 . S
C1363 C65 1.409 . S
C1369 C410 1.409 . S
C1383 C157 1.410 . S
C1389 C88 1.410 . S
C1403 C111 1.409 . S
C1409 C180 1.409 . S
C1423 C203 1.393 . S
C1429 C134 1.393 . S
C1443 C226 1.410 . S
C1449 C295 1.410 . S
C1463 C249 1.392 . S
C1469 C318 1.392 . S
C1483 C341 1.410 . S
C1489 C272 1.410 . S
