# Generated by pormake.
# Topology una, (4)-cn, num edge types: 1
# Building blocks:
#     Node 0, Type 0, BuildingBlock: KUFVIS_clean_sbu_0, # of connection points: 4
#     Node 1, Type 0, BuildingBlock: KUFVIS_clean_sbu_0, # of connection points: 4
#     Node 2, Type 0, BuildingBlock: KUFVIS_clean_sbu_0, # of connection points: 4
#     Node 3, Type 0, BuildingBlock: KUFVIS_clean_sbu_0, # of connection points: 4
#     Node 4, Type 0, BuildingBlock: KUFVIS_clean_sbu_0, # of connection points: 4
#     Node 5, Type 0, BuildingBlock: KUFVIS_clean_sbu_0, # of connection points: 4
#     Node 6, Type 0, BuildingBlock: KUFVIS_clean_sbu_0, # of connection points: 4
#     Node 7, Type 0, BuildingBlock: KUFVIS_clean_sbu_0, # of connection points: 4
#     Node 8, Type 0, BuildingBlock: KUFVIS_clean_sbu_0, # of connection points: 4
#     Node 9, Type 0, BuildingBlock: KUFVIS_clean_sbu_0, # of connection points: 4
#     Node 10, Type 0, BuildingBlock: KUFVIS_clean_sbu_0, # of connection points: 4
#     Node 11, Type 0, BuildingBlock: KUFVIS_clean_sbu_0, # of connection points: 4
#     Edge 12, Type (0, 0), BuildingBlock: CIFDUS_clean_linker_0, # of connection points: 2
#     Edge 13, Type (0, 0), BuildingBlock: CIFDUS_clean_linker_0, # of connection points: 2
#     Edge 14, Type (0, 0), BuildingBlock: CIFDUS_clean_linker_0, # of connection points: 2
#     Edge 15, Type (0, 0), BuildingBlock: CIFDUS_clean_linker_0, # of connection points: 2
#     Edge 16, Type (0, 0), BuildingBlock: CIFDUS_clean_linker_0, # of connection points: 2
#     Edge 17, Type (0, 0), BuildingBlock: CIFDUS_clean_linker_0, # of connection points: 2
#     Edge 18, Type (0, 0), BuildingBlock: CIFDUS_clean_linker_0, # of connection points: 2
#     Edge 19, Type (0, 0), BuildingBlock: CIFDUS_clean_linker_0, # of connection points: 2
#     Edge 20, Type (0, 0), BuildingBlock: CIFDUS_clean_linker_0, # of connection points: 2
#     Edge 21, Type (0, 0), BuildingBlock: CIFDUS_clean_linker_0, # of connection points: 2
#     Edge 22, Type (0, 0), BuildingBlock: CIFDUS_clean_linker_0, # of connection points: 2
#     Edge 23, Type (0, 0), BuildingBlock: CIFDUS_clean_linker_0, # of connection points: 2
#     Edge 24, Type (0, 0), BuildingBlock: CIFDUS_clean_linker_0, # of connection points: 2
#     Edge 25, Type (0, 0), BuildingBlock: CIFDUS_clean_linker_0, # of connection points: 2
#     Edge 26, Type (0, 0), BuildingBlock: CIFDUS_clean_linker_0, # of connection points: 2
#     Edge 27, Type (0, 0), BuildingBlock: CIFDUS_clean_linker_0, # of connection points: 2
#     Edge 28, Type (0, 0), BuildingBlock: CIFDUS_clean_linker_0, # of connection points: 2
#     Edge 29, Type (0, 0), BuildingBlock: CIFDUS_clean_linker_0, # of connection points: 2
#     Edge 30, Type (0, 0), BuildingBlock: CIFDUS_clean_linker_0, # of connection points: 2
#     Edge 31, Type (0, 0), BuildingBlock: CIFDUS_clean_linker_0, # of connection points: 2
#     Edge 32, Type (0, 0), BuildingBlock: CIFDUS_clean_linker_0, # of connection points: 2
#     Edge 33, Type (0, 0), BuildingBlock: CIFDUS_clean_linker_0, # of connection points: 2
#     Edge 34, Type (0, 0), BuildingBlock: CIFDUS_clean_linker_0, # of connection points: 2
#     Edge 35, Type (0, 0), BuildingBlock: CIFDUS_clean_linker_0, # of connection points: 2
# Relax obj value: 0.032
# Max RMSD: 0.075
# Mean RMSD: 0.075
data_MOF--net-una--node1-KUFVIS_clean_sbu_0--edge1-CIFDUS_clean_linker_0
_symmetry_space_group_name_H-M    P1
_symmetry_Int_Tables_number       1
_symmetry_cell_setting            triclinic
loop_
_symmetry_equiv_pos_as_xyz
'x, y, z'
_cell_length_a     50.417847
_cell_length_b     50.411006
_cell_length_c     19.278672
_cell_angle_alpha  90.130464
_cell_angle_beta   90.07159
_cell_angle_gamma 119.93067
loop_
_atom_site_label
_atom_site_type_symbol
_atom_site_fract_x
_atom_site_fract_y
_atom_site_fract_z
_atom_type_partial_charge
Mn0 Mn 0.14727 0.43774 0.04529 0.0
Mn1 Mn 0.14595 0.47417 0.89888 0.0
C2 C 0.1656 0.42917 0.94338 0.0
C3 C 0.1732 0.43832 0.14766 0.0
C4 C 0.09049 0.41687 0.95135 0.0
O5 O 0.1404 0.4714 0.08229 0.0
O6 O 0.13899 0.49342 0.98236 0.0
C7 C 0.20198 0.53363 0.92637 0.0
N8 N 0.18514 0.50942 0.88349 0.0
C9 C 0.22043 0.53365 0.78946 0.0
C10 C 0.23814 0.5589 0.83254 0.0
C11 C 0.22899 0.55878 0.90145 0.0
C12 C 0.19399 0.50909 0.81748 0.0
H13 H 0.19477 0.5338 0.97902 0.0
C14 C 0.13758 0.49154 0.04864 0.0
O15 O 0.14366 0.42105 0.14196 0.0
O16 O 0.18732 0.45526 0.09488 0.0
N17 N 0.15262 0.45944 0.81285 0.0
C18 C 0.13543 0.43169 0.78166 0.0
C19 C 0.14278 0.42705 0.71415 0.0
C20 C 0.1674 0.45113 0.67902 0.0
C21 C 0.1848 0.47949 0.71222 0.0
C22 C 0.17661 0.48264 0.77982 0.0
H23 H 0.11658 0.41316 0.8086 0.0
O24 O 0.15721 0.40975 0.99401 0.0
O25 O 0.1637 0.4538 0.95402 0.0
O26 O 0.10245 0.41401 0.00775 0.0
O27 O 0.105 0.43838 0.90796 0.0
C28 C 0.21049 0.50449 0.6817 0.0
C29 C 0.2283 0.53156 0.72031 0.0
H30 H 0.25896 0.57835 0.8135 0.0
H31 H 0.2426 0.57814 0.93508 0.0
H32 H 0.12944 0.405 0.68915 0.0
H33 H 0.17302 0.44744 0.62699 0.0
H34 H 0.2173 0.50279 0.62936 0.0
H35 H 0.24852 0.55027 0.69704 0.0
Mn36 Mn 0.70116 0.14585 0.18559 0.0
Mn37 Mn 0.66899 0.15079 0.0349 0.0
C38 C 0.73132 0.1701 0.09078 0.0
C39 C 0.72467 0.16744 0.29307 0.0
C40 C 0.66939 0.09336 0.07832 0.0
O41 O 0.65902 0.13737 0.21713 0.0
O42 O 0.63988 0.13988 0.11326 0.0
C43 C 0.66356 0.20503 0.0713 0.0
N44 N 0.673 0.19041 0.02678 0.0
C45 C 0.69084 0.2317 0.94469 0.0
C46 C 0.68114 0.24711 0.98949 0.0
C47 C 0.66754 0.23376 0.05315 0.0
C48 C 0.68612 0.20305 0.96537 0.0
H49 H 0.65311 0.19486 0.12027 0.0
C50 C 0.63751 0.13579 0.17902 0.0
O51 O 0.71213 0.13819 0.28147 0.0
O52 O 0.72218 0.18358 0.24423 0.0
N53 N 0.69418 0.16166 0.9539 0.0
C54 C 0.70647 0.14616 0.92196 0.0
C55 C 0.72233 0.15725 0.85927 0.0
C56 C 0.72533 0.18409 0.82997 0.0
C57 C 0.71278 0.19986 0.86414 0.0
C58 C 0.697 0.18758 0.92625 0.0
H59 H 0.70471 0.12588 0.94495 0.0
O60 O 0.74103 0.15896 0.13863 0.0
O61 O 0.70403 0.16629 0.09882 0.0
O62 O 0.68179 0.10281 0.13825 0.0
O63 O 0.66414 0.10974 0.03643 0.0
C64 C 0.7167 0.22808 0.84096 0.0
C65 C 0.70584 0.24405 0.88134 0.0
H66 H 0.6844 0.26939 0.97597 0.0
H67 H 0.66016 0.24561 0.08817 0.0
H68 H 0.73243 0.14526 0.83386 0.0
H69 H 0.738 0.19283 0.78218 0.0
H70 H 0.72893 0.23821 0.79333 0.0
H71 H 0.7098 0.26616 0.86401 0.0
Mn72 Mn 0.56608 0.7059 0.37835 0.0
Mn73 Mn 0.54018 0.67354 0.22012 0.0
C74 C 0.57777 0.73616 0.28095 0.0
C75 C 0.56008 0.72782 0.48053 0.0
C76 C 0.59458 0.67525 0.29118 0.0
O77 O 0.53182 0.66307 0.40295 0.0
O78 O 0.51661 0.64419 0.29505 0.0
C79 C 0.47798 0.66586 0.22507 0.0
N80 N 0.5054 0.67661 0.19253 0.0
C81 C 0.48736 0.69147 0.09246 0.0
C82 C 0.45889 0.68051 0.12483 0.0
C83 C 0.45427 0.66785 0.19162 0.0
C84 C 0.51022 0.6892 0.12868 0.0
H85 H 0.4742 0.6557 0.27595 0.0
C86 C 0.51435 0.64164 0.36119 0.0
O87 O 0.57868 0.71702 0.47802 0.0
O88 O 0.54424 0.72484 0.42525 0.0
N89 N 0.56021 0.69908 0.14202 0.0
C90 C 0.58994 0.7117 0.12174 0.0
C91 C 0.59911 0.72742 0.05842 0.0
C92 C 0.57752 0.72954 0.01611 0.0
C93 C 0.54701 0.71621 0.03791 0.0
C94 C 0.53931 0.70116 0.10191 0.0
H95 H 0.60655 0.71001 0.154 0.0
O96 O 0.59476 0.74614 0.33607 0.0
O97 O 0.55429 0.70858 0.28387 0.0
O98 O 0.5936 0.68826 0.34749 0.0
O99 O 0.57587 0.66918 0.24113 0.0
C100 C 0.52407 0.71779 0.99937 0.0
C101 C 0.49421 0.70531 0.0265 0.0
H102 H 0.44055 0.68202 0.09923 0.0
H103 H 0.4324 0.65945 0.21703 0.0
H104 H 0.62273 0.73778 0.0421 0.0
H105 H 0.58469 0.74168 0.96731 0.0
H106 H 0.5293 0.72916 0.94954 0.0
H107 H 0.47697 0.70734 0.99716 0.0
Mn108 Mn 0.87328 0.56904 0.57518 0.0
Mn109 Mn 0.87304 0.5345 0.42388 0.0
C110 C 0.85396 0.57853 0.47583 0.0
C111 C 0.84806 0.56869 0.67846 0.0
C112 C 0.92943 0.59026 0.48 0.0
O113 O 0.87997 0.53453 0.60772 0.0
O114 O 0.87986 0.51382 0.50413 0.0
C115 C 0.81681 0.47481 0.44686 0.0
N116 N 0.83352 0.4999 0.40661 0.0
C117 C 0.7974 0.47804 0.31263 0.0
C118 C 0.77983 0.45193 0.353 0.0
C119 C 0.78947 0.45041 0.42058 0.0
C120 C 0.82423 0.50178 0.34191 0.0
H121 H 0.82439 0.47338 0.49842 0.0
C122 C 0.88186 0.51459 0.57045 0.0
O123 O 0.87756 0.58586 0.67205 0.0
O124 O 0.83366 0.55118 0.62631 0.0
N125 N 0.86624 0.55107 0.34095 0.0
C126 C 0.88365 0.57931 0.31257 0.0
C127 C 0.87591 0.58553 0.24699 0.0
C128 C 0.85064 0.56251 0.21082 0.0
C129 C 0.83304 0.5336 0.2411 0.0
C130 C 0.84166 0.52888 0.30694 0.0
H131 H 0.90294 0.59706 0.34039 0.0
O132 O 0.86315 0.59769 0.52728 0.0
O133 O 0.85596 0.55391 0.48378 0.0
O134 O 0.91786 0.59272 0.53728 0.0
O135 O 0.91438 0.56964 0.43473 0.0
C136 C 0.80682 0.50955 0.20936 0.0
C137 C 0.78903 0.48176 0.24508 0.0
H138 H 0.75874 0.43304 0.33291 0.0
H139 H 0.77598 0.43037 0.45213 0.0
H140 H 0.88941 0.608 0.2243 0.0
H141 H 0.84471 0.56741 0.16029 0.0
H142 H 0.79966 0.51248 0.15832 0.0
H143 H 0.76847 0.46374 0.22092 0.0
Mn144 Mn 0.30206 0.8664 0.71031 0.0
Mn145 Mn 0.33946 0.86707 0.5639 0.0
C146 C 0.27507 0.84749 0.60871 0.0
C147 C 0.27667 0.84158 0.81257 0.0
C148 C 0.33842 0.92294 0.61741 0.0
O149 O 0.34246 0.87303 0.74716 0.0
O150 O 0.3658 0.87404 0.64718 0.0
C151 C 0.34298 0.811 0.59004 0.0
N152 N 0.33518 0.8277 0.54797 0.0
C153 C 0.32267 0.79172 0.45424 0.0
C154 C 0.33061 0.77414 0.49651 0.0
C155 C 0.34061 0.78372 0.56486 0.0
C156 C 0.32514 0.81847 0.48246 0.0
H157 H 0.35108 0.81853 0.64224 0.0
C158 C 0.36536 0.8757 0.71348 0.0
O159 O 0.28938 0.87111 0.80629 0.0
O160 O 0.2792 0.82676 0.76051 0.0
N161 N 0.3176 0.86036 0.47852 0.0
C162 C 0.30734 0.87788 0.44782 0.0
C163 C 0.29448 0.87016 0.38105 0.0
C164 C 0.29282 0.84488 0.3461 0.0
C165 C 0.30367 0.82728 0.37864 0.0
C166 C 0.3159 0.83585 0.44554 0.0
H167 H 0.3087 0.89739 0.47442 0.0
O168 O 0.26425 0.85654 0.65875 0.0
O169 O 0.30159 0.84948 0.61949 0.0
O170 O 0.32342 0.91096 0.67323 0.0
O171 O 0.34513 0.90831 0.57343 0.0
C172 C 0.30219 0.80115 0.34801 0.0
C173 C 0.31174 0.7834 0.38575 0.0
H174 H 0.32883 0.75309 0.47729 0.0
H175 H 0.34668 0.77022 0.59786 0.0
H176 H 0.286 0.88376 0.35643 0.0
H177 H 0.28288 0.83901 0.29461 0.0
H178 H 0.29298 0.79403 0.29619 0.0
H179 H 0.30971 0.7629 0.36238 0.0
Mn180 Mn 0.45844 0.31253 0.87652 0.0
Mn181 Mn 0.48906 0.34625 0.72222 0.0
C182 C 0.45071 0.28327 0.77811 0.0
C183 C 0.46099 0.28977 0.9811 0.0
C184 C 0.43293 0.34435 0.78348 0.0
O185 O 0.49201 0.3552 0.90557 0.0
O186 O 0.51047 0.37501 0.79995 0.0
C187 C 0.5506 0.35304 0.73848 0.0
N188 N 0.52427 0.34281 0.7013 0.0
C189 C 0.54355 0.32476 0.60933 0.0
C190 C 0.57092 0.33523 0.64651 0.0
C191 C 0.57442 0.34935 0.71144 0.0
C192 C 0.52067 0.32923 0.63869 0.0
H193 H 0.55337 0.3639 0.78839 0.0
C194 C 0.51067 0.37698 0.86627 0.0
O195 O 0.44321 0.30139 0.9744 0.0
O196 O 0.47811 0.29247 0.9285 0.0
N197 N 0.47096 0.32091 0.64228 0.0
C198 C 0.44183 0.3086 0.6176 0.0
C199 C 0.43386 0.29204 0.55505 0.0
C200 C 0.45594 0.28847 0.51835 0.0
C201 C 0.48577 0.30133 0.54481 0.0
C202 C 0.49242 0.31771 0.60726 0.0
H203 H 0.42474 0.31108 0.64589 0.0
O204 O 0.43148 0.2724 0.82921 0.0
O205 O 0.47328 0.31107 0.78523 0.0
O206 O 0.43212 0.33061 0.8399 0.0
O207 O 0.45306 0.35087 0.73667 0.0
C208 C 0.50882 0.2975 0.51311 0.0
C209 C 0.53768 0.30919 0.54537 0.0
H210 H 0.58924 0.33218 0.62614 0.0
H211 H 0.59541 0.35733 0.74061 0.0
H212 H 0.41071 0.28192 0.53531 0.0
H213 H 0.4496 0.27536 0.47056 0.0
H214 H 0.50432 0.28487 0.46489 0.0
H215 H 0.55494 0.30539 0.52143 0.0
Mn216 Mn 0.56213 0.86241 0.88729 0.0
Mn217 Mn 0.51995 0.85895 0.02735 0.0
C218 C 0.56342 0.83741 0.98599 0.0
C219 C 0.5657 0.83982 0.78288 0.0
C220 C 0.58061 0.91511 0.9926 0.0
O221 O 0.53179 0.87342 0.84614 0.0
O222 O 0.50538 0.8704 0.94266 0.0
C223 C 0.46099 0.8059 0.98281 0.0
N224 N 0.48345 0.81991 0.03138 0.0
C225 C 0.45619 0.77874 0.1121 0.0
C226 C 0.43265 0.76397 0.06312 0.0
C227 C 0.43511 0.77757 0.99814 0.0
C228 C 0.48129 0.80707 0.09415 0.0
H229 H 0.46281 0.81625 0.93277 0.0
C230 C 0.51038 0.87507 0.87743 0.0
O231 O 0.584 0.86873 0.79586 0.0
O232 O 0.54501 0.82473 0.82893 0.0
N233 N 0.53057 0.8476 0.11327 0.0
C234 C 0.55715 0.86239 0.15013 0.0
C235 C 0.55926 0.85089 0.21491 0.0
C236 C 0.53403 0.82432 0.24115 0.0
C237 C 0.50701 0.80926 0.20192 0.0
C238 C 0.50616 0.82195 0.13794 0.0
H239 H 0.57679 0.88234 0.12943 0.0
O240 O 0.58556 0.84745 0.94149 0.0
O241 O 0.5409 0.84223 0.97177 0.0
O242 O 0.58584 0.90516 0.93576 0.0
O243 O 0.55688 0.89948 0.02966 0.0
C244 C 0.48149 0.78133 0.22214 0.0
C245 C 0.45614 0.76604 0.17718 0.0
H246 H 0.41278 0.74199 0.07449 0.0
H247 H 0.41713 0.76622 0.95991 0.0
H248 H 0.58039 0.86231 0.24425 0.0
H249 H 0.53592 0.81525 0.29064 0.0
H250 H 0.48153 0.77092 0.27122 0.0
H251 H 0.43702 0.74417 0.1925 0.0
Mn252 Mn 0.70989 0.55892 0.08218 0.0
Mn253 Mn 0.6746 0.52983 0.23592 0.0
C254 C 0.73826 0.56484 0.18091 0.0
C255 C 0.73195 0.55414 0.97894 0.0
C256 C 0.68071 0.58768 0.17323 0.0
O257 O 0.66635 0.52771 0.05248 0.0
O258 O 0.64594 0.50913 0.15766 0.0
C259 C 0.66441 0.46687 0.22261 0.0
N260 N 0.67575 0.49357 0.25888 0.0
C261 C 0.69184 0.47331 0.35258 0.0
C262 C 0.68019 0.44554 0.31637 0.0
C263 C 0.6665 0.44234 0.25104 0.0
C264 C 0.68889 0.49687 0.32191 0.0
H265 H 0.65389 0.46433 0.17237 0.0
C266 C 0.64415 0.5094 0.09134 0.0
O267 O 0.72327 0.57434 0.98514 0.0
O268 O 0.72665 0.53599 0.03097 0.0
N269 N 0.69983 0.54745 0.31617 0.0
C270 C 0.71336 0.57682 0.33991 0.0
C271 C 0.7297 0.58447 0.40272 0.0
C272 C 0.73179 0.56182 0.44064 0.0
C273 C 0.71768 0.53174 0.41517 0.0
C274 C 0.70157 0.52543 0.35242 0.0
H275 H 0.71198 0.59434 0.31071 0.0
O276 O 0.75027 0.5836 0.12941 0.0
O277 O 0.70988 0.54346 0.17387 0.0
O278 O 0.69497 0.58798 0.11805 0.0
O279 O 0.67225 0.56699 0.21941 0.0
C280 C 0.71999 0.50805 0.44815 0.0
C281 C 0.7071 0.47886 0.41685 0.0
H282 H 0.68202 0.42667 0.3378 0.0
H283 H 0.65762 0.42104 0.22262 0.0
H284 H 0.74076 0.6078 0.42172 0.0
H285 H 0.74473 0.56789 0.48863 0.0
H286 H 0.73236 0.51226 0.49664 0.0
H287 H 0.70973 0.46108 0.4418 0.0
Mn288 Mn 0.15022 0.70262 0.21575 0.0
Mn289 Mn 0.152 0.66481 0.35935 0.0
C290 C 0.17363 0.72953 0.3153 0.0
C291 C 0.17232 0.728 0.11163 0.0
C292 C 0.09599 0.66804 0.31595 0.0
O293 O 0.14101 0.66143 0.17679 0.0
O294 O 0.14239 0.63829 0.27541 0.0
C295 C 0.20636 0.65956 0.32382 0.0
N296 N 0.19123 0.66804 0.36918 0.0
C297 C 0.23123 0.68342 0.45444 0.0
C298 C 0.24714 0.67467 0.40879 0.0
C299 C 0.23468 0.66276 0.34315 0.0
C300 C 0.20294 0.67941 0.43262 0.0
H301 H 0.1969 0.65047 0.27327 0.0
C302 C 0.13902 0.63852 0.20948 0.0
O303 O 0.14314 0.71593 0.12278 0.0
O304 O 0.1883 0.72443 0.15945 0.0
N305 N 0.1615 0.68735 0.44453 0.0
C306 C 0.14554 0.69876 0.47797 0.0
C307 C 0.15587 0.71313 0.54271 0.0
C308 C 0.18242 0.71552 0.57252 0.0
C309 C 0.19856 0.70374 0.53699 0.0
C310 C 0.18704 0.68943 0.47284 0.0
H311 H 0.12535 0.69732 0.45489 0.0
O312 O 0.16352 0.74102 0.2691 0.0
O313 O 0.16938 0.70227 0.30261 0.0
O314 O 0.10701 0.68298 0.25967 0.0
O315 O 0.111 0.66034 0.35638 0.0
C316 C 0.22642 0.70695 0.56112 0.0
C317 C 0.24278 0.69687 0.51979 0.0
H318 H 0.26915 0.6774 0.42319 0.0
H319 H 0.24692 0.65614 0.30748 0.0
H320 H 0.14351 0.72252 0.5694 0.0
H321 H 0.19055 0.72701 0.622 0.0
H322 H 0.23594 0.718 0.61041 0.0
H323 H 0.2646 0.70027 0.53802 0.0
Mn324 Mn 0.4527 0.15112 0.38446 0.0
Mn325 Mn 0.48163 0.14822 0.54152 0.0
C326 C 0.4401 0.16902 0.48208 0.0
C327 C 0.45647 0.1774 0.28059 0.0
C328 C 0.42756 0.09341 0.47591 0.0
O329 O 0.48815 0.14463 0.35838 0.0
O330 O 0.50457 0.14201 0.46534 0.0
C331 C 0.54248 0.20407 0.52879 0.0
N332 N 0.51605 0.18707 0.56467 0.0
C333 C 0.53554 0.2211 0.6629 0.0
C334 C 0.56301 0.23896 0.62707 0.0
C335 C 0.56639 0.23053 0.55952 0.0
C336 C 0.51237 0.19526 0.6292 0.0
H337 H 0.54533 0.19736 0.47734 0.0
C338 C 0.50622 0.14128 0.39916 0.0
O339 O 0.4397 0.14779 0.2845 0.0
O340 O 0.47167 0.19146 0.33579 0.0
N341 N 0.46269 0.15412 0.62144 0.0
C342 C 0.43356 0.1366 0.64516 0.0
C343 C 0.42554 0.14334 0.7099 0.0
C344 C 0.44769 0.1676 0.75013 0.0
C345 C 0.47757 0.18523 0.72475 0.0
C346 C 0.48409 0.17772 0.65944 0.0
H347 H 0.41654 0.11792 0.61445 0.0
O348 O 0.42264 0.16076 0.42756 0.0
O349 O 0.46474 0.1668 0.47826 0.0
O350 O 0.42762 0.10603 0.41818 0.0
O351 O 0.44647 0.10744 0.52489 0.0
C352 C 0.50095 0.21039 0.76093 0.0
C353 C 0.52995 0.2283 0.73006 0.0
H354 H 0.58153 0.25934 0.65063 0.0
H355 H 0.58749 0.24425 0.53146 0.0
H356 H 0.40238 0.12976 0.72891 0.0
H357 H 0.44141 0.1727 0.80005 0.0
H358 H 0.49664 0.21667 0.8117 0.0
H359 H 0.54748 0.24807 0.75758 0.0
Mn360 Mn 0.31267 0.45251 0.55398 0.0
Mn361 Mn 0.34385 0.48335 0.71055 0.0
C362 C 0.28193 0.44386 0.64974 0.0
C363 C 0.29012 0.45351 0.44784 0.0
C364 C 0.34468 0.42834 0.65046 0.0
O365 O 0.35523 0.4872 0.52763 0.0
O366 O 0.37337 0.50529 0.63488 0.0
C367 C 0.34919 0.54422 0.69312 0.0
N368 N 0.33909 0.51793 0.73008 0.0
C369 C 0.31892 0.53626 0.81955 0.0
C370 C 0.32921 0.56357 0.78254 0.0
C371 C 0.34434 0.56752 0.71898 0.0
C372 C 0.32455 0.51391 0.79139 0.0
H373 H 0.36083 0.54734 0.64425 0.0
C374 C 0.37629 0.50593 0.56875 0.0
O375 O 0.30291 0.43686 0.45601 0.0
O376 O 0.29183 0.47071 0.49964 0.0
N377 N 0.31763 0.46469 0.78854 0.0
C378 C 0.30574 0.43563 0.813 0.0
C379 C 0.28831 0.4272 0.8741 0.0
C380 C 0.2835 0.44879 0.90967 0.0
C381 C 0.296 0.47859 0.88355 0.0
C382 C 0.31327 0.48569 0.82254 0.0
H383 H 0.30927 0.41893 0.78567 0.0
O384 O 0.27231 0.42449 0.59854 0.0
O385 O 0.3095 0.46698 0.64462 0.0
O386 O 0.33169 0.42745 0.59276 0.0
O387 O 0.3498 0.44802 0.69778 0.0
C388 C 0.29099 0.50113 0.9141 0.0
C389 C 0.30241 0.52994 0.88208 0.0
H390 H 0.32525 0.58148 0.80195 0.0
H391 H 0.35219 0.58846 0.68994 0.0
H392 H 0.27853 0.4041 0.89363 0.0
H393 H 0.26974 0.4421 0.95633 0.0
H394 H 0.27764 0.49626 0.96115 0.0
H395 H 0.29767 0.54677 0.90502 0.0
Mn396 Mn 0.86593 0.29775 0.69605 0.0
Mn397 Mn 0.86779 0.33367 0.84662 0.0
C398 C 0.84752 0.26985 0.79654 0.0
C399 C 0.84 0.27269 0.59302 0.0
C400 C 0.92284 0.33206 0.79082 0.0
O401 O 0.87252 0.33872 0.66235 0.0
O402 O 0.87552 0.36088 0.7655 0.0
C403 C 0.81267 0.3391 0.82151 0.0
N404 N 0.82901 0.33064 0.86307 0.0
C405 C 0.7942 0.32007 0.95799 0.0
C406 C 0.77698 0.3287 0.91626 0.0
C407 C 0.78612 0.33802 0.84754 0.0
C408 C 0.82012 0.32113 0.92881 0.0
H409 H 0.81994 0.34678 0.7691 0.0
C410 C 0.87637 0.36141 0.69914 0.0
O411 O 0.86959 0.28543 0.59842 0.0
O412 O 0.82579 0.27522 0.64616 0.0
N413 N 0.8605 0.31121 0.93101 0.0
C414 C 0.87722 0.29983 0.96086 0.0
C415 C 0.86975 0.28746 0.02792 0.0
C416 C 0.84558 0.28749 0.06409 0.0
C417 C 0.82873 0.29941 0.03235 0.0
C418 C 0.83695 0.31101 0.96506 0.0
H419 H 0.89583 0.29986 0.93326 0.0
O420 O 0.85614 0.25939 0.74499 0.0
O421 O 0.84956 0.2965 0.78808 0.0
O422 O 0.91091 0.31869 0.73294 0.0
O423 O 0.90833 0.33796 0.83667 0.0
C424 C 0.80358 0.2995 0.06406 0.0
C425 C 0.78631 0.30981 0.02688 0.0
H426 H 0.75654 0.32796 0.93618 0.0
H427 H 0.7729 0.34461 0.81495 0.0
H428 H 0.88269 0.27808 0.05184 0.0
H429 H 0.83989 0.27794 0.1158 0.0
H430 H 0.79676 0.29081 0.11621 0.0
H431 H 0.76648 0.3089 0.05102 0.0
H432 H 0.23018 0.44558 0.15402 0.0
H433 H 0.15501 0.43299 0.28291 0.0
H434 H 0.1852 0.4382 0.38723 0.0
H435 H 0.23353 0.44715 0.44179 0.0
H436 H 0.3063 0.45378 0.31282 0.0
H437 H 0.27674 0.45022 0.20846 0.0
C438 C 0.2204 0.44386 0.20504 0.0
C439 C 0.19047 0.43913 0.21085 0.0
C440 C 0.2376 0.44599 0.26463 0.0
C441 C 0.17792 0.43653 0.27714 0.0
C442 C 0.19525 0.43965 0.33673 0.0
C443 C 0.24288 0.44792 0.39071 0.0
C444 C 0.27225 0.45124 0.38474 0.0
C445 C 0.2252 0.44459 0.33113 0.0
C446 C 0.28386 0.45145 0.31852 0.0
C447 C 0.26694 0.4494 0.25897 0.0
H448 H 0.7851 0.21997 0.58718 0.0
H449 H 0.85647 0.28721 0.45759 0.0
H450 H 0.82666 0.26102 0.35363 0.0
H451 H 0.77962 0.2195 0.29962 0.0
H452 H 0.71092 0.14895 0.42815 0.0
H453 H 0.74021 0.17567 0.53251 0.0
C454 C 0.79412 0.22878 0.53607 0.0
C455 C 0.82284 0.25569 0.53 0.0
C456 C 0.77726 0.21297 0.4765 0.0
C457 C 0.83449 0.26658 0.46357 0.0
C458 C 0.81738 0.25164 0.40418 0.0
C459 C 0.77113 0.20998 0.35058 0.0
C460 C 0.74295 0.18248 0.35637 0.0
C461 C 0.78865 0.22494 0.41001 0.0
C462 C 0.73247 0.17008 0.42247 0.0
C463 C 0.74921 0.18541 0.48205 0.0
H464 H 0.601 0.78518 0.52447 0.0
H465 H 0.51302 0.70735 0.5712 0.0
H466 H 0.50679 0.73532 0.6682 0.0
H467 H 0.52612 0.78201 0.73877 0.0
H468 H 0.613 0.86117 0.68932 0.0
H469 H 0.61981 0.8329 0.59387 0.0
C470 C 0.58069 0.77436 0.55663 0.0
C471 C 0.55772 0.74409 0.542 0.0
C472 C 0.57694 0.79097 0.6111 0.0
C473 C 0.53112 0.73045 0.58247 0.0
C474 C 0.52752 0.74651 0.63756 0.0
C475 C 0.54653 0.7932 0.707 0.0
C476 C 0.56904 0.82375 0.72139 0.0
C477 C 0.5502 0.77682 0.65216 0.0
C478 C 0.59524 0.8378 0.67933 0.0
C479 C 0.59922 0.82155 0.62493 0.0
H480 H 0.79179 0.52526 0.72296 0.0
H481 H 0.86555 0.61598 0.77053 0.0
H482 H 0.83521 0.62046 0.86426 0.0
H483 H 0.78721 0.59856 0.9326 0.0
H484 H 0.71568 0.50615 0.89166 0.0
H485 H 0.74529 0.50235 0.79515 0.0
C486 C 0.8013 0.54595 0.75412 0.0
C487 C 0.83092 0.57029 0.73963 0.0
C488 C 0.78388 0.54814 0.80864 0.0
C489 C 0.84295 0.59684 0.78086 0.0
C490 C 0.8255 0.59948 0.83417 0.0
C491 C 0.77806 0.57778 0.90182 0.0
C492 C 0.74904 0.55288 0.91784 0.0
C493 C 0.79583 0.57537 0.84827 0.0
C494 C 0.73775 0.52572 0.87932 0.0
C495 C 0.75475 0.52352 0.82447 0.0
H496 H 0.22372 0.78741 0.81847 0.0
H497 H 0.29193 0.85886 0.94754 0.0
H498 H 0.26601 0.82953 0.05176 0.0
H499 H 0.22454 0.78271 0.10583 0.0
H500 H 0.15323 0.71405 0.97736 0.0
H501 H 0.17957 0.74301 0.87301 0.0
C502 C 0.23276 0.79657 0.86954 0.0
C503 C 0.25981 0.82509 0.87558 0.0
C504 C 0.21719 0.78 0.92906 0.0
C505 C 0.27111 0.83699 0.94181 0.0
C506 C 0.25637 0.82016 1.00127 0.0
C507 C 0.21481 0.77421 0.05486 0.0
C508 C 0.18723 0.74616 0.04888 0.0
C509 C 0.22953 0.79153 0.9955 0.0
C510 C 0.17446 0.73556 0.98295 0.0
C511 C 0.18955 0.75208 0.92343 0.0
H512 H 0.45851 0.23215 0.27467 0.0
H513 H 0.45618 0.16127 0.14506 0.0
H514 H 0.45913 0.19061 0.04107 0.0
H515 H 0.46222 0.23659 0.98693 0.0
H516 H 0.45818 0.30429 0.11625 0.0
H517 H 0.4579 0.27625 0.22037 0.0
C518 C 0.45871 0.2232 0.22357 0.0
C519 C 0.45747 0.19473 0.21747 0.0
C520 C 0.45928 0.2397 0.16406 0.0
C521 C 0.45715 0.18311 0.15103 0.0
C522 C 0.4589 0.19993 0.09163 0.0
C523 C 0.4614 0.2452 0.03802 0.0
C524 C 0.46064 0.27269 0.04408 0.0
C525 C 0.46 0.22828 0.09748 0.0
C526 C 0.4589 0.28328 0.11038 0.0
C527 C 0.45875 0.26725 0.16984 0.0
H528 H 0.13389 0.54019 0.9978 0.0
H529 H 0.13395 0.49594 0.18948 0.0
H530 H 0.13249 0.53644 0.25546 0.0
H531 H 0.13414 0.58572 0.25935 0.0
H532 H 0.13472 0.63055 0.06816 0.0
H533 H 0.1327 0.5883 1.00177 0.0
C534 C 0.13331 0.53919 0.054 0.0
C535 C 0.1342 0.51499 0.08836 0.0
C536 C 0.13267 0.56272 0.09192 0.0
C537 C 0.1334 0.51423 0.16134 0.0
C538 C 0.13259 0.53744 0.19929 0.0
C539 C 0.13355 0.58623 0.20316 0.0
C540 C 0.13475 0.61151 0.16906 0.0
C541 C 0.13267 0.56201 0.16517 0.0
C542 C 0.13387 0.61152 0.09607 0.0
C543 C 0.1328 0.58737 0.05793 0.0
H544 H 0.62594 0.13806 0.31705 0.0
H545 H 0.58473 0.12435 0.11391 0.0
H546 H 0.54022 0.12374 0.16403 0.0
H547 H 0.51416 0.13033 0.26415 0.0
H548 H 0.5552 0.14421 0.46746 0.0
H549 H 0.59822 0.14137 0.41854 0.0
C550 C 0.60706 0.1345 0.28383 0.0
C551 C 0.60897 0.1315 0.2117 0.0
C552 C 0.58144 0.13446 0.31287 0.0
C553 C 0.58416 0.12696 0.16958 0.0
C554 C 0.55861 0.12666 0.19813 0.0
C555 C 0.53242 0.13259 0.29789 0.0
C556 C 0.53139 0.13767 0.36932 0.0
C557 C 0.55724 0.13098 0.2695 0.0
C558 C 0.55524 0.14028 0.41221 0.0
C559 C 0.57998 0.13872 0.3843 0.0
H560 H 0.39326 0.51842 0.4323 0.0
H561 H 0.42486 0.55051 0.64071 0.0
H562 H 0.47072 0.59417 0.5954 0.0
H563 H 0.50092 0.62505 0.49708 0.0
H564 H 0.46959 0.59328 0.28846 0.0
H565 H 0.42506 0.54795 0.33365 0.0
C566 C 0.41026 0.5348 0.46786 0.0
C567 C 0.40528 0.53106 0.53983 0.0
C568 C 0.4368 0.56017 0.44155 0.0
C569 C 0.42779 0.55263 0.58497 0.0
C570 C 0.45415 0.57777 0.55919 0.0
C571 C 0.48452 0.60814 0.4614 0.0
C572 C 0.48872 0.61285 0.38948 0.0
C573 C 0.45873 0.58203 0.48759 0.0
C574 C 0.46713 0.59046 0.34419 0.0
C575 C 0.44149 0.56444 0.36991 0.0
H576 H 0.88286 0.4663 0.50935 0.0
H577 H 0.88649 0.50658 0.70977 0.0
H578 H 0.88668 0.46347 0.76661 0.0
H579 H 0.8831 0.41331 0.75976 0.0
H580 H 0.8785 0.37257 0.55941 0.0
H581 H 0.88156 0.41718 0.50238 0.0
C582 C 0.88397 0.46591 0.5655 0.0
C583 C 0.88455 0.48975 0.60509 0.0
C584 C 0.88376 0.44091 0.59795 0.0
C585 C 0.88597 0.48863 0.67782 0.0
C586 C 0.88602 0.46392 0.71045 0.0
C587 C 0.88299 0.41416 0.70356 0.0
C588 C 0.88043 0.3894 0.66408 0.0
C589 C 0.8845 0.43976 0.67104 0.0
C590 C 0.88038 0.39115 0.59128 0.0
C591 C 0.88209 0.41667 0.55856 0.0
H592 H 0.41774 0.87921 0.66321 0.0
H593 H 0.37362 0.88073 0.85409 0.0
H594 H 0.41578 0.88314 0.92072 0.0
H595 H 0.46327 0.88154 0.92564 0.0
H596 H 0.50742 0.87909 0.73576 0.0
H597 H 0.46728 0.8808 0.66819 0.0
C598 C 0.41741 0.88033 0.71936 0.0
C599 C 0.39229 0.87954 0.75335 0.0
C600 C 0.44173 0.88153 0.75772 0.0
C601 C 0.39246 0.88111 0.82626 0.0
C602 C 0.4166 0.8825 0.86459 0.0
C603 C 0.4644 0.88168 0.86945 0.0
C604 C 0.48833 0.87996 0.83604 0.0
C605 C 0.44108 0.88223 0.83093 0.0
C606 C 0.48933 0.88036 0.76309 0.0
C607 C 0.46628 0.8812 0.72431 0.0
H608 H 0.52018 0.39266 1.00368 0.0
H609 H 0.55723 0.42581 0.79973 0.0
H610 H 0.60059 0.47058 0.85076 0.0
H611 H 0.63005 0.4988 0.95328 0.0
H612 H 0.59305 0.46559 0.15724 0.0
H613 H 0.54784 0.42284 0.10593 0.0
C614 C 0.53756 0.40978 0.97029 0.0
C615 C 0.53538 0.40555 0.89798 0.0
C616 C 0.56271 0.43559 0.99989 0.0
C617 C 0.55817 0.42821 0.85566 0.0
C618 C 0.58314 0.45392 0.88474 0.0
C619 C 0.61199 0.48244 0.98658 0.0
C620 C 0.61528 0.48546 0.05905 0.0
C621 C 0.58594 0.45761 0.95684 0.0
C622 C 0.59141 0.46395 0.10121 0.0
C623 C 0.56545 0.43933 0.07198 0.0
H624 H 0.23331 0.39563 0.71359 0.0
H625 H 0.27944 0.49353 0.68888 0.0
H626 H 0.25057 0.49786 0.78471 0.0
H627 H 0.21399 0.47418 0.87858 0.0
H628 H 0.15707 0.37626 0.88414 0.0
H629 H 0.18848 0.37111 0.79362 0.0
C630 C 0.23654 0.41778 0.72876 0.0
C631 C 0.26019 0.44456 0.69903 0.0
C632 C 0.21778 0.41997 0.77974 0.0
C633 C 0.26299 0.47292 0.71537 0.0
C634 C 0.24604 0.47539 0.76894 0.0
C635 C 0.20736 0.45183 0.85727 0.0
C636 C 0.18244 0.42586 0.88507 0.0
C637 C 0.2238 0.44918 0.80221 0.0
C638 C 0.17579 0.39672 0.8617 0.0
C639 C 0.19363 0.39377 0.81 0.0
H640 H 0.77831 0.16859 0.02415 0.0
H641 H 0.73514 0.22303 0.05327 0.0
H642 H 0.76349 0.25525 0.95583 0.0
H643 H 0.79946 0.26716 0.86116 0.0
H644 H 0.85437 0.22386 0.85248 0.0
H645 H 0.82252 0.18753 0.9427 0.0
C646 C 0.77563 0.18789 0.00958 0.0
C647 C 0.75278 0.19203 0.04074 0.0
C648 C 0.79437 0.20837 0.95821 0.0
C649 C 0.7508 0.21808 0.02539 0.0
C650 C 0.76752 0.23696 0.97109 0.0
C651 C 0.80551 0.25088 0.88154 0.0
C652 C 0.83004 0.24917 0.85323 0.0
C653 C 0.789 0.23206 0.93659 0.0
C654 C 0.83597 0.22608 0.8754 0.0
C655 C 0.81791 0.20546 0.92694 0.0
H656 H 0.5323 0.73894 0.21623 0.0
H657 H 0.63049 0.78374 0.23015 0.0
H658 H 0.63508 0.82102 0.14226 0.0
H659 H 0.61035 0.83969 0.05954 0.0
H660 H 0.51318 0.78547 0.02587 0.0
H661 H 0.50845 0.75302 0.12414 0.0
C662 C 0.55469 0.75612 0.19803 0.0
C663 C 0.58098 0.75783 0.22662 0.0
C664 C 0.55709 0.77597 0.14504 0.0
C665 C 0.60994 0.78161 0.20691 0.0
C666 C 0.61254 0.80279 0.15681 0.0
C667 C 0.58823 0.82056 0.07367 0.0
C668 C 0.56161 0.81637 0.04038 0.0
C669 C 0.58619 0.79996 0.12503 0.0
C670 C 0.53342 0.79056 0.05546 0.0
C671 C 0.53088 0.77152 0.11011 0.0
H672 H 0.80313 0.53375 0.41736 0.0
H673 H 0.86335 0.63131 0.41519 0.0
H674 H 0.8318 0.63649 0.32493 0.0
H675 H 0.78704 0.61226 0.24507 0.0
H676 H 0.73611 0.51396 0.22947 0.0
H677 H 0.76391 0.50966 0.32816 0.0
C678 C 0.81002 0.55598 0.39514 0.0
C679 C 0.83616 0.58188 0.41992 0.0
C680 C 0.79312 0.55851 0.34086 0.0
C681 C 0.84365 0.61094 0.39494 0.0
C682 C 0.82572 0.61388 0.34345 0.0
C683 C 0.78238 0.58999 0.26319 0.0
C684 C 0.75795 0.56332 0.23469 0.0
C685 C 0.8005 0.5877 0.31555 0.0
C686 C 0.75319 0.53464 0.255 0.0
C687 C 0.76952 0.53217 0.31015 0.0
H688 H 0.17304 0.77671 0.38247 0.0
H689 H 0.22505 0.73079 0.35881 0.0
H690 H 0.25724 0.75904 0.45734 0.0
H691 H 0.27115 0.79764 0.54836 0.0
H692 H 0.23048 0.85505 0.54822 0.0
H693 H 0.19332 0.8221 0.46019 0.0
C694 C 0.19165 0.77318 0.39877 0.0
C695 C 0.19493 0.74954 0.36893 0.0
C696 C 0.21252 0.79227 0.44947 0.0
C697 C 0.22031 0.74666 0.3864 0.0
C698 C 0.23934 0.76352 0.44096 0.0
C699 C 0.25523 0.80386 0.52651 0.0
C700 C 0.25453 0.82949 0.55179 0.0
C701 C 0.23563 0.78634 0.47289 0.0
C702 C 0.23195 0.83581 0.52766 0.0
C703 C 0.21077 0.81705 0.47749 0.0
H704 H 0.40327 0.23546 0.70921 0.0
H705 H 0.5011 0.28276 0.73752 0.0
H706 H 0.50652 0.25541 0.63974 0.0
H707 H 0.48387 0.21817 0.54691 0.0
H708 H 0.38608 0.16082 0.53465 0.0
H709 H 0.37977 0.19179 0.62503 0.0
C710 C 0.42564 0.23929 0.69427 0.0
C711 C 0.45206 0.26271 0.72623 0.0
C712 C 0.42845 0.22139 0.64183 0.0
C713 C 0.48074 0.26641 0.70974 0.0
C714 C 0.48383 0.25036 0.65493 0.0
C715 C 0.46122 0.21168 0.56598 0.0
C716 C 0.43561 0.18653 0.53713 0.0
C717 C 0.45794 0.22801 0.62042 0.0
C718 C 0.4062 0.17973 0.55804 0.0
C719 C 0.40262 0.1973 0.60969 0.0
H720 H 0.06593 0.40107 0.82226 0.0
H721 H 0.04207 0.38322 0.03876 0.0
H722 H 0.98782 0.35279 0.00675 0.0
H723 H 0.94751 0.33605 0.91807 0.0
H724 H 0.97152 0.35259 0.70149 0.0
H725 H 0.02596 0.37853 0.73286 0.0
C726 C 0.04902 0.39015 0.86266 0.0
C727 C 0.05813 0.39473 0.9331 0.0
C728 C 0.01806 0.37262 0.84376 0.0
C729 C 0.03577 0.38013 0.98438 0.0
C730 C 1.00476 0.36286 0.96601 0.0
C731 C 0.96457 0.3448 0.87745 0.0
C732 C 0.9554 0.3426 0.80735 0.0
C733 C 0.99566 0.35963 0.89598 0.0
C734 C 0.9779 0.35389 0.75559 0.0
C735 C 0.009 0.36891 0.77366 0.0
H736 H 0.61622 0.96743 0.91834 0.0
H737 H 0.59258 0.93343 0.1273 0.0
H738 H 0.62145 0.98503 0.17342 0.0
H739 H 0.64864 0.04079 0.15468 0.0
H740 H 0.66782 0.07485 0.94507 0.0
H741 H 0.64618 0.02317 0.89998 0.0
C742 C 0.61799 0.97131 0.97393 0.0
C743 C 0.60229 0.9464 0.01894 0.0
C744 C 0.63374 1.00147 1.00051 0.0
C745 C 0.60445 0.95199 0.09104 0.0
C746 C 0.6209 0.98167 0.11777 0.0
C747 C 0.64864 0.0369 0.09932 0.0
C748 C 0.65999 0.06186 0.05371 0.0
C749 C 0.63495 0.00673 0.07303 0.0
C750 C 0.65935 0.05625 0.98182 0.0
C751 C 0.64681 0.02654 0.95564 0.0
H752 H 0.67083 0.60766 0.29613 0.0
H753 H 0.6692 0.61982 0.07493 0.0
H754 H 0.64496 0.65096 0.09312 0.0
H755 H 0.61884 0.66919 0.17085 0.0
H756 H 0.62087 0.65757 0.39212 0.0
H757 H 0.65083 0.63195 0.37492 0.0
C758 C 0.66564 0.61753 0.25185 0.0
C759 C 0.67147 0.61108 0.18409 0.0
C760 C 0.65161 0.63525 0.26275 0.0
C761 C 0.66497 0.6244 0.12748 0.0
C762 C 0.65092 0.64203 0.1379 0.0
C763 C 0.62624 0.66152 0.21552 0.0
C764 C 0.61728 0.66494 0.28274 0.0
C765 C 0.64331 0.64677 0.20514 0.0
C766 C 0.62743 0.65522 0.33997 0.0
C767 C 0.64438 0.6404 0.33005 0.0
H768 H 0.07252 0.65814 0.44653 0.0
H769 H 0.04754 0.65602 0.2315 0.0
H770 H 0.99382 0.63423 0.26485 0.0
H771 H 0.95394 0.61146 0.35355 0.0
H772 H 0.97858 0.61525 0.5691 0.0
H773 H 0.03292 0.64141 0.53711 0.0
C774 C 0.05543 0.65331 0.40691 0.0
C775 C 0.06404 0.65839 0.33634 0.0
C776 C 0.02468 0.64113 0.4266 0.0
C777 C 0.04157 0.6523 0.28597 0.0
C778 C 0.01085 0.63975 0.30505 0.0
C779 C 0.97114 0.61851 0.39385 0.0
C780 C 0.96217 0.61122 0.46371 0.0
C781 C 1.00213 0.63347 0.37499 0.0
C782 C 0.98485 0.62071 0.51514 0.0
C783 C 0.01588 0.63541 0.4967 0.0
H784 H 0.40464 0.06646 0.5997 0.0
H785 H 0.40079 0.04656 0.38091 0.0
H786 H 0.37057 0.99162 0.40575 0.0
H787 H 0.34999 0.94971 0.49061 0.0
H788 H 0.35285 0.96989 0.70912 0.0
H789 H 0.37862 0.02471 0.68318 0.0
C790 C 0.39684 0.05021 0.55716 0.0
C791 C 0.40527 0.06063 0.48845 0.0
C792 C 0.37953 0.01884 0.57191 0.0
C793 C 0.39464 0.03918 0.4341 0.0
C794 C 0.37753 0.00779 0.44841 0.0
C795 C 0.35586 0.96603 0.53265 0.0
C796 C 0.34981 0.9557 0.60196 0.0
C797 C 0.37056 0.99741 0.51726 0.0
C798 C 0.35724 0.97719 0.65552 0.0
C799 C 0.37211 0.00852 0.64066 0.0
H800 H 0.3534 0.40878 0.77521 0.0
H801 H 0.36196 0.39964 0.5549 0.0
H802 H 0.38793 0.37045 0.57728 0.0
H803 H 0.41262 0.35228 0.65921 0.0
H804 H 0.40318 0.36026 0.87954 0.0
H805 H 0.37272 0.38497 0.85729 0.0
C806 C 0.3606 0.40008 0.73198 0.0
C807 C 0.35607 0.40673 0.66335 0.0
C808 C 0.37546 0.38331 0.74529 0.0
C809 C 0.36515 0.39489 0.60809 0.0
C810 C 0.38015 0.37835 0.62091 0.0
C811 C 0.40356 0.35901 0.7025 0.0
C812 C 0.41049 0.35473 0.77106 0.0
C813 C 0.38611 0.37313 0.68926 0.0
C814 C 0.39821 0.36327 0.8264 0.0
C815 C 0.38096 0.37757 0.81363 0.0
loop_
_geom_bond_atom_site_label_1
_geom_bond_atom_site_label_2
_geom_bond_distance
_geom_bond_site_symmetry_2
_ccdc_geom_bond_type
Mn0 O5 2.095 . S
Mn0 O15 2.162 . S
Mn0 O16 2.297 . S
Mn0 O24 2.385 1_554 S
Mn0 O25 2.209 1_554 S
Mn0 O26 2.094 . S
Mn1 O6 2.121 . S
Mn1 N8 2.257 . S
Mn1 N17 2.282 . S
Mn1 O25 2.215 . S
Mn1 O27 2.117 . S
C2 O24 1.234 . S
C2 O25 1.283 . S
C3 O15 1.281 . S
C3 O16 1.236 . S
C4 O26 1.240 1_556 S
C4 O27 1.264 . S
O5 Mn0 2.095 . S
O5 C14 1.250 . S
O6 Mn1 2.121 . S
O6 C14 1.258 1_556 S
C7 N8 1.326 . S
C7 C11 1.460 . S
C7 H13 0.929 . S
N8 Mn1 2.257 . S
N8 C7 1.326 . S
N8 C12 1.362 . S
C9 C10 1.258 . S
C9 C12 1.431 . S
C9 C29 1.449 . S
C10 C9 1.258 . S
C10 C11 1.477 . S
C10 H30 0.931 . S
C11 C7 1.460 . S
C11 C10 1.477 . S
C11 H31 0.930 . S
C12 N8 1.362 . S
C12 C9 1.431 . S
C12 C22 1.476 . S
H13 C7 0.929 . S
C14 O5 1.250 . S
C14 O6 1.258 1_554 S
O15 Mn0 2.162 . S
O15 C3 1.281 . S
O16 Mn0 2.297 . S
O16 C3 1.236 . S
N17 Mn1 2.282 . S
N17 C18 1.328 . S
N17 C22 1.318 . S
C18 N17 1.328 . S
C18 C19 1.457 . S
C18 H23 0.929 . S
C19 C18 1.457 . S
C19 C20 1.291 . S
C19 H32 0.931 . S
C20 C19 1.291 . S
C20 C21 1.373 . S
C20 H33 0.929 . S
C21 C20 1.373 . S
C21 C22 1.396 . S
C21 C28 1.403 . S
C22 C12 1.476 . S
C22 N17 1.318 . S
C22 C21 1.396 . S
H23 C18 0.929 . S
O24 Mn0 2.385 1_556 S
O24 C2 1.234 . S
O25 Mn0 2.209 1_556 S
O25 Mn1 2.215 . S
O25 C2 1.283 . S
O26 Mn0 2.094 . S
O26 C4 1.240 1_554 S
O27 Mn1 2.117 . S
O27 C4 1.264 . S
C28 C21 1.403 . S
C28 C29 1.399 . S
C28 H34 0.929 . S
C29 C9 1.449 . S
C29 C28 1.399 . S
C29 H35 0.930 . S
H30 C10 0.931 . S
H31 C11 0.930 . S
H32 C19 0.931 . S
H33 C20 0.929 . S
H34 C28 0.929 . S
H35 C29 0.930 . S
Mn36 O41 2.095 . S
Mn36 O51 2.162 . S
Mn36 O52 2.297 . S
Mn36 O60 2.385 . S
Mn36 O61 2.209 . S
Mn36 O62 2.094 . S
Mn37 O42 2.121 . S
Mn37 N44 2.257 . S
Mn37 N53 2.282 1_554 S
Mn37 O61 2.215 . S
Mn37 O63 2.117 . S
C38 O60 1.234 . S
C38 O61 1.283 . S
C39 O51 1.281 . S
C39 O52 1.236 . S
C40 O62 1.240 . S
C40 O63 1.264 . S
O41 Mn36 2.095 . S
O41 C50 1.250 . S
O42 Mn37 2.121 . S
O42 C50 1.258 . S
C43 N44 1.326 . S
C43 C47 1.460 1_554 S
C43 H49 0.929 . S
N44 Mn37 2.257 . S
N44 C43 1.326 . S
N44 C48 1.362 1_554 S
C45 C46 1.258 . S
C45 C48 1.431 . S
C45 C65 1.449 . S
C46 C45 1.258 . S
C46 C47 1.477 . S
C46 H66 0.931 . S
C47 C43 1.460 1_556 S
C47 C46 1.477 . S
C47 H67 0.930 . S
C48 N44 1.362 1_556 S
C48 C45 1.431 . S
C48 C58 1.476 . S
H49 C43 0.929 . S
C50 O41 1.250 . S
C50 O42 1.258 . S
O51 Mn36 2.162 . S
O51 C39 1.281 . S
O52 Mn36 2.297 . S
O52 C39 1.236 . S
N53 Mn37 2.282 1_556 S
N53 C54 1.328 . S
N53 C58 1.318 . S
C54 N53 1.328 . S
C54 C55 1.457 . S
C54 H59 0.929 . S
C55 C54 1.457 . S
C55 C56 1.291 . S
C55 H68 0.931 . S
C56 C55 1.291 . S
C56 C57 1.373 . S
C56 H69 0.929 . S
C57 C56 1.373 . S
C57 C58 1.396 . S
C57 C64 1.403 . S
C58 C48 1.476 . S
C58 N53 1.318 . S
C58 C57 1.396 . S
H59 C54 0.929 . S
O60 Mn36 2.385 . S
O60 C38 1.234 . S
O61 Mn36 2.209 . S
O61 Mn37 2.215 . S
O61 C38 1.283 . S
O62 Mn36 2.094 . S
O62 C40 1.240 . S
O63 Mn37 2.117 . S
O63 C40 1.264 . S
C64 C57 1.403 . S
C64 C65 1.399 . S
C64 H70 0.929 . S
C65 C45 1.449 . S
C65 C64 1.399 . S
C65 H71 0.930 . S
H66 C46 0.931 . S
H67 C47 0.930 . S
H68 C55 0.931 . S
H69 C56 0.929 . S
H70 C64 0.929 . S
H71 C65 0.930 . S
Mn72 O77 2.095 . S
Mn72 O87 2.162 . S
Mn72 O88 2.297 . S
Mn72 O96 2.385 . S
Mn72 O97 2.209 . S
Mn72 O98 2.094 . S
Mn73 O78 2.121 . S
Mn73 N80 2.257 . S
Mn73 N89 2.282 . S
Mn73 O97 2.215 . S
Mn73 O99 2.117 . S
C74 O96 1.234 . S
C74 O97 1.283 . S
C75 O87 1.281 . S
C75 O88 1.236 . S
C76 O98 1.240 . S
C76 O99 1.264 . S
O77 Mn72 2.095 . S
O77 C86 1.250 . S
O78 Mn73 2.121 . S
O78 C86 1.258 . S
C79 N80 1.326 . S
C79 C83 1.460 . S
C79 H85 0.929 . S
N80 Mn73 2.257 . S
N80 C79 1.326 . S
N80 C84 1.362 . S
C81 C82 1.258 . S
C81 C84 1.431 . S
C81 C101 1.449 . S
C82 C81 1.258 . S
C82 C83 1.477 . S
C82 H102 0.931 . S
C83 C79 1.460 . S
C83 C82 1.477 . S
C83 H103 0.930 . S
C84 N80 1.362 . S
C84 C81 1.431 . S
C84 C94 1.476 . S
H85 C79 0.929 . S
C86 O77 1.250 . S
C86 O78 1.258 . S
O87 Mn72 2.162 . S
O87 C75 1.281 . S
O88 Mn72 2.297 . S
O88 C75 1.236 . S
N89 Mn73 2.282 . S
N89 C90 1.328 . S
N89 C94 1.318 . S
C90 N89 1.328 . S
C90 C91 1.457 . S
C90 H95 0.929 . S
C91 C90 1.457 . S
C91 C92 1.291 . S
C91 H104 0.931 . S
C92 C91 1.291 . S
C92 C93 1.373 . S
C92 H105 0.929 1_554 S
C93 C92 1.373 . S
C93 C94 1.396 . S
C93 C100 1.403 1_554 S
C94 C84 1.476 . S
C94 N89 1.318 . S
C94 C93 1.396 . S
H95 C90 0.929 . S
O96 Mn72 2.385 . S
O96 C74 1.234 . S
O97 Mn72 2.209 . S
O97 Mn73 2.215 . S
O97 C74 1.283 . S
O98 Mn72 2.094 . S
O98 C76 1.240 . S
O99 Mn73 2.117 . S
O99 C76 1.264 . S
C100 C93 1.403 1_556 S
C100 C101 1.399 1_556 S
C100 H106 0.929 . S
C101 C81 1.449 . S
C101 C100 1.399 1_554 S
C101 H107 0.930 1_554 S
H102 C82 0.931 . S
H103 C83 0.930 . S
H104 C91 0.931 . S
H105 C92 0.929 1_556 S
H106 C100 0.929 . S
H107 C101 0.930 1_556 S
Mn108 O113 2.095 . S
Mn108 O123 2.162 . S
Mn108 O124 2.297 . S
Mn108 O132 2.385 . S
Mn108 O133 2.209 . S
Mn108 O134 2.094 . S
Mn109 O114 2.121 . S
Mn109 N116 2.257 . S
Mn109 N125 2.282 . S
Mn109 O133 2.215 . S
Mn109 O135 2.117 . S
C110 O132 1.234 . S
C110 O133 1.283 . S
C111 O123 1.281 . S
C111 O124 1.236 . S
C112 O134 1.240 . S
C112 O135 1.264 . S
O113 Mn108 2.095 . S
O113 C122 1.250 . S
O114 Mn109 2.121 . S
O114 C122 1.258 . S
C115 N116 1.326 . S
C115 C119 1.460 . S
C115 H121 0.929 . S
N116 Mn109 2.257 . S
N116 C115 1.326 . S
N116 C120 1.362 . S
C117 C118 1.258 . S
C117 C120 1.431 . S
C117 C137 1.449 . S
C118 C117 1.258 . S
C118 C119 1.477 . S
C118 H138 0.931 . S
C119 C115 1.460 . S
C119 C118 1.477 . S
C119 H139 0.930 . S
C120 N116 1.362 . S
C120 C117 1.431 . S
C120 C130 1.476 . S
H121 C115 0.929 . S
C122 O113 1.250 . S
C122 O114 1.258 . S
O123 Mn108 2.162 . S
O123 C111 1.281 . S
O124 Mn108 2.297 . S
O124 C111 1.236 . S
N125 Mn109 2.282 . S
N125 C126 1.328 . S
N125 C130 1.318 . S
C126 N125 1.328 . S
C126 C127 1.457 . S
C126 H131 0.929 . S
C127 C126 1.457 . S
C127 C128 1.291 . S
C127 H140 0.931 . S
C128 C127 1.291 . S
C128 C129 1.373 . S
C128 H141 0.929 . S
C129 C128 1.373 . S
C129 C130 1.396 . S
C129 C136 1.403 . S
C130 C120 1.476 . S
C130 N125 1.318 . S
C130 C129 1.396 . S
H131 C126 0.929 . S
O132 Mn108 2.385 . S
O132 C110 1.234 . S
O133 Mn108 2.209 . S
O133 Mn109 2.215 . S
O133 C110 1.283 . S
O134 Mn108 2.094 . S
O134 C112 1.240 . S
O135 Mn109 2.117 . S
O135 C112 1.264 . S
C136 C129 1.403 . S
C136 C137 1.399 . S
C136 H142 0.929 . S
C137 C117 1.449 . S
C137 C136 1.399 . S
C137 H143 0.930 . S
H138 C118 0.931 . S
H139 C119 0.930 . S
H140 C127 0.931 . S
H141 C128 0.929 . S
H142 C136 0.929 . S
H143 C137 0.930 . S
Mn144 O149 2.095 . S
Mn144 O159 2.162 . S
Mn144 O160 2.297 . S
Mn144 O168 2.385 . S
Mn144 O169 2.209 . S
Mn144 O170 2.094 . S
Mn145 O150 2.121 . S
Mn145 N152 2.257 . S
Mn145 N161 2.282 . S
Mn145 O169 2.215 . S
Mn145 O171 2.117 . S
C146 O168 1.234 . S
C146 O169 1.283 . S
C147 O159 1.281 . S
C147 O160 1.236 . S
C148 O170 1.240 . S
C148 O171 1.264 . S
O149 Mn144 2.095 . S
O149 C158 1.250 . S
O150 Mn145 2.121 . S
O150 C158 1.258 . S
C151 N152 1.326 . S
C151 C155 1.460 . S
C151 H157 0.929 . S
N152 Mn145 2.257 . S
N152 C151 1.326 . S
N152 C156 1.362 . S
C153 C154 1.258 . S
C153 C156 1.431 . S
C153 C173 1.449 . S
C154 C153 1.258 . S
C154 C155 1.477 . S
C154 H174 0.931 . S
C155 C151 1.460 . S
C155 C154 1.477 . S
C155 H175 0.930 . S
C156 N152 1.362 . S
C156 C153 1.431 . S
C156 C166 1.476 . S
H157 C151 0.929 . S
C158 O149 1.250 . S
C158 O150 1.258 . S
O159 Mn144 2.162 . S
O159 C147 1.281 . S
O160 Mn144 2.297 . S
O160 C147 1.236 . S
N161 Mn145 2.282 . S
N161 C162 1.328 . S
N161 C166 1.318 . S
C162 N161 1.328 . S
C162 C163 1.457 . S
C162 H167 0.929 . S
C163 C162 1.457 . S
C163 C164 1.291 . S
C163 H176 0.931 . S
C164 C163 1.291 . S
C164 C165 1.373 . S
C164 H177 0.929 . S
C165 C164 1.373 . S
C165 C166 1.396 . S
C165 C172 1.403 . S
C166 C156 1.476 . S
C166 N161 1.318 . S
C166 C165 1.396 . S
H167 C162 0.929 . S
O168 Mn144 2.385 . S
O168 C146 1.234 . S
O169 Mn144 2.209 . S
O169 Mn145 2.215 . S
O169 C146 1.283 . S
O170 Mn144 2.094 . S
O170 C148 1.240 . S
O171 Mn145 2.117 . S
O171 C148 1.264 . S
C172 C165 1.403 . S
C172 C173 1.399 . S
C172 H178 0.929 . S
C173 C153 1.449 . S
C173 C172 1.399 . S
C173 H179 0.930 . S
H174 C154 0.931 . S
H175 C155 0.930 . S
H176 C163 0.931 . S
H177 C164 0.929 . S
H178 C172 0.929 . S
H179 C173 0.930 . S
Mn180 O185 2.095 . S
Mn180 O195 2.162 . S
Mn180 O196 2.297 . S
Mn180 O204 2.385 . S
Mn180 O205 2.209 . S
Mn180 O206 2.094 . S
Mn181 O186 2.121 . S
Mn181 N188 2.257 . S
Mn181 N197 2.282 . S
Mn181 O205 2.215 . S
Mn181 O207 2.117 . S
C182 O204 1.234 . S
C182 O205 1.283 . S
C183 O195 1.281 . S
C183 O196 1.236 . S
C184 O206 1.240 . S
C184 O207 1.264 . S
O185 Mn180 2.095 . S
O185 C194 1.250 . S
O186 Mn181 2.121 . S
O186 C194 1.258 . S
C187 N188 1.326 . S
C187 C191 1.460 . S
C187 H193 0.929 . S
N188 Mn181 2.257 . S
N188 C187 1.326 . S
N188 C192 1.362 . S
C189 C190 1.258 . S
C189 C192 1.431 . S
C189 C209 1.449 . S
C190 C189 1.258 . S
C190 C191 1.477 . S
C190 H210 0.931 . S
C191 C187 1.460 . S
C191 C190 1.477 . S
C191 H211 0.930 . S
C192 N188 1.362 . S
C192 C189 1.431 . S
C192 C202 1.476 . S
H193 C187 0.929 . S
C194 O185 1.250 . S
C194 O186 1.258 . S
O195 Mn180 2.162 . S
O195 C183 1.281 . S
O196 Mn180 2.297 . S
O196 C183 1.236 . S
N197 Mn181 2.282 . S
N197 C198 1.328 . S
N197 C202 1.318 . S
C198 N197 1.328 . S
C198 C199 1.457 . S
C198 H203 0.929 . S
C199 C198 1.457 . S
C199 C200 1.291 . S
C199 H212 0.931 . S
C200 C199 1.291 . S
C200 C201 1.373 . S
C200 H213 0.929 . S
C201 C200 1.373 . S
C201 C202 1.396 . S
C201 C208 1.403 . S
C202 C192 1.476 . S
C202 N197 1.318 . S
C202 C201 1.396 . S
H203 C198 0.929 . S
O204 Mn180 2.385 . S
O204 C182 1.234 . S
O205 Mn180 2.209 . S
O205 Mn181 2.215 . S
O205 C182 1.283 . S
O206 Mn180 2.094 . S
O206 C184 1.240 . S
O207 Mn181 2.117 . S
O207 C184 1.264 . S
C208 C201 1.403 . S
C208 C209 1.399 . S
C208 H214 0.929 . S
C209 C189 1.449 . S
C209 C208 1.399 . S
C209 H215 0.930 . S
H210 C190 0.931 . S
H211 C191 0.930 . S
H212 C199 0.931 . S
H213 C200 0.929 . S
H214 C208 0.929 . S
H215 C209 0.930 . S
Mn216 O221 2.095 . S
Mn216 O231 2.162 . S
Mn216 O232 2.297 . S
Mn216 O240 2.385 . S
Mn216 O241 2.209 . S
Mn216 O242 2.094 . S
Mn217 O222 2.121 1_554 S
Mn217 N224 2.257 . S
Mn217 N233 2.282 . S
Mn217 O241 2.215 1_554 S
Mn217 O243 2.117 1_554 S
C218 O240 1.234 . S
C218 O241 1.283 . S
C219 O231 1.281 . S
C219 O232 1.236 . S
C220 O242 1.240 . S
C220 O243 1.264 . S
O221 Mn216 2.095 . S
O221 C230 1.250 . S
O222 Mn217 2.121 1_556 S
O222 C230 1.258 . S
C223 N224 1.326 . S
C223 C227 1.460 . S
C223 H229 0.929 . S
N224 Mn217 2.257 . S
N224 C223 1.326 . S
N224 C228 1.362 . S
C225 C226 1.258 . S
C225 C228 1.431 . S
C225 C245 1.449 . S
C226 C225 1.258 . S
C226 C227 1.477 . S
C226 H246 0.931 . S
C227 C223 1.460 . S
C227 C226 1.477 . S
C227 H247 0.930 . S
C228 N224 1.362 . S
C228 C225 1.431 . S
C228 C238 1.476 . S
H229 C223 0.929 . S
C230 O221 1.250 . S
C230 O222 1.258 . S
O231 Mn216 2.162 . S
O231 C219 1.281 . S
O232 Mn216 2.297 . S
O232 C219 1.236 . S
N233 Mn217 2.282 . S
N233 C234 1.328 . S
N233 C238 1.318 . S
C234 N233 1.328 . S
C234 C235 1.457 . S
C234 H239 0.929 . S
C235 C234 1.457 . S
C235 C236 1.291 . S
C235 H248 0.931 . S
C236 C235 1.291 . S
C236 C237 1.373 . S
C236 H249 0.929 . S
C237 C236 1.373 . S
C237 C238 1.396 . S
C237 C244 1.403 . S
C238 C228 1.476 . S
C238 N233 1.318 . S
C238 C237 1.396 . S
H239 C234 0.929 . S
O240 Mn216 2.385 . S
O240 C218 1.234 . S
O241 Mn216 2.209 . S
O241 Mn217 2.215 1_556 S
O241 C218 1.283 . S
O242 Mn216 2.094 . S
O242 C220 1.240 . S
O243 Mn217 2.117 1_556 S
O243 C220 1.264 . S
C244 C237 1.403 . S
C244 C245 1.399 . S
C244 H250 0.929 . S
C245 C225 1.449 . S
C245 C244 1.399 . S
C245 H251 0.930 . S
H246 C226 0.931 . S
H247 C227 0.930 . S
H248 C235 0.931 . S
H249 C236 0.929 . S
H250 C244 0.929 . S
H251 C245 0.930 . S
Mn252 O257 2.095 . S
Mn252 O267 2.162 1_554 S
Mn252 O268 2.297 1_554 S
Mn252 O276 2.385 . S
Mn252 O277 2.209 . S
Mn252 O278 2.094 . S
Mn253 O258 2.121 . S
Mn253 N260 2.257 . S
Mn253 N269 2.282 . S
Mn253 O277 2.215 . S
Mn253 O279 2.117 . S
C254 O276 1.234 . S
C254 O277 1.283 . S
C255 O267 1.281 . S
C255 O268 1.236 . S
C256 O278 1.240 . S
C256 O279 1.264 . S
O257 Mn252 2.095 . S
O257 C266 1.250 . S
O258 Mn253 2.121 . S
O258 C266 1.258 . S
C259 N260 1.326 . S
C259 C263 1.460 . S
C259 H265 0.929 . S
N260 Mn253 2.257 . S
N260 C259 1.326 . S
N260 C264 1.362 . S
C261 C262 1.258 . S
C261 C264 1.431 . S
C261 C281 1.449 . S
C262 C261 1.258 . S
C262 C263 1.477 . S
C262 H282 0.931 . S
C263 C259 1.460 . S
C263 C262 1.477 . S
C263 H283 0.930 . S
C264 N260 1.362 . S
C264 C261 1.431 . S
C264 C274 1.476 . S
H265 C259 0.929 . S
C266 O257 1.250 . S
C266 O258 1.258 . S
O267 Mn252 2.162 1_556 S
O267 C255 1.281 . S
O268 Mn252 2.297 1_556 S
O268 C255 1.236 . S
N269 Mn253 2.282 . S
N269 C270 1.328 . S
N269 C274 1.318 . S
C270 N269 1.328 . S
C270 C271 1.457 . S
C270 H275 0.929 . S
C271 C270 1.457 . S
C271 C272 1.291 . S
C271 H284 0.931 . S
C272 C271 1.291 . S
C272 C273 1.373 . S
C272 H285 0.929 . S
C273 C272 1.373 . S
C273 C274 1.396 . S
C273 C280 1.403 . S
C274 C264 1.476 . S
C274 N269 1.318 . S
C274 C273 1.396 . S
H275 C270 0.929 . S
O276 Mn252 2.385 . S
O276 C254 1.234 . S
O277 Mn252 2.209 . S
O277 Mn253 2.215 . S
O277 C254 1.283 . S
O278 Mn252 2.094 . S
O278 C256 1.240 . S
O279 Mn253 2.117 . S
O279 C256 1.264 . S
C280 C273 1.403 . S
C280 C281 1.399 . S
C280 H286 0.929 . S
C281 C261 1.449 . S
C281 C280 1.399 . S
C281 H287 0.930 . S
H282 C262 0.931 . S
H283 C263 0.930 . S
H284 C271 0.931 . S
H285 C272 0.929 . S
H286 C280 0.929 . S
H287 C281 0.930 . S
Mn288 O293 2.095 . S
Mn288 O303 2.162 . S
Mn288 O304 2.297 . S
Mn288 O312 2.385 . S
Mn288 O313 2.209 . S
Mn288 O314 2.094 . S
Mn289 O294 2.121 . S
Mn289 N296 2.257 . S
Mn289 N305 2.282 . S
Mn289 O313 2.215 . S
Mn289 O315 2.117 . S
C290 O312 1.234 . S
C290 O313 1.283 . S
C291 O303 1.281 . S
C291 O304 1.236 . S
C292 O314 1.240 . S
C292 O315 1.264 . S
O293 Mn288 2.095 . S
O293 C302 1.250 . S
O294 Mn289 2.121 . S
O294 C302 1.258 . S
C295 N296 1.326 . S
C295 C299 1.460 . S
C295 H301 0.929 . S
N296 Mn289 2.257 . S
N296 C295 1.326 . S
N296 C300 1.362 . S
C297 C298 1.258 . S
C297 C300 1.431 . S
C297 C317 1.449 . S
C298 C297 1.258 . S
C298 C299 1.477 . S
C298 H318 0.931 . S
C299 C295 1.460 . S
C299 C298 1.477 . S
C299 H319 0.930 . S
C300 N296 1.362 . S
C300 C297 1.431 . S
C300 C310 1.476 . S
H301 C295 0.929 . S
C302 O293 1.250 . S
C302 O294 1.258 . S
O303 Mn288 2.162 . S
O303 C291 1.281 . S
O304 Mn288 2.297 . S
O304 C291 1.236 . S
N305 Mn289 2.282 . S
N305 C306 1.328 . S
N305 C310 1.318 . S
C306 N305 1.328 . S
C306 C307 1.457 . S
C306 H311 0.929 . S
C307 C306 1.457 . S
C307 C308 1.291 . S
C307 H320 0.931 . S
C308 C307 1.291 . S
C308 C309 1.373 . S
C308 H321 0.929 . S
C309 C308 1.373 . S
C309 C310 1.396 . S
C309 C316 1.403 . S
C310 C300 1.476 . S
C310 N305 1.318 . S
C310 C309 1.396 . S
H311 C306 0.929 . S
O312 Mn288 2.385 . S
O312 C290 1.234 . S
O313 Mn288 2.209 . S
O313 Mn289 2.215 . S
O313 C290 1.283 . S
O314 Mn288 2.094 . S
O314 C292 1.240 . S
O315 Mn289 2.117 . S
O315 C292 1.264 . S
C316 C309 1.403 . S
C316 C317 1.399 . S
C316 H322 0.929 . S
C317 C297 1.449 . S
C317 C316 1.399 . S
C317 H323 0.930 . S
H318 C298 0.931 . S
H319 C299 0.930 . S
H320 C307 0.931 . S
H321 C308 0.929 . S
H322 C316 0.929 . S
H323 C317 0.930 . S
Mn324 O329 2.095 . S
Mn324 O339 2.162 . S
Mn324 O340 2.297 . S
Mn324 O348 2.385 . S
Mn324 O349 2.209 . S
Mn324 O350 2.094 . S
Mn325 O330 2.121 . S
Mn325 N332 2.257 . S
Mn325 N341 2.282 . S
Mn325 O349 2.215 . S
Mn325 O351 2.117 . S
C326 O348 1.234 . S
C326 O349 1.283 . S
C327 O339 1.281 . S
C327 O340 1.236 . S
C328 O350 1.240 . S
C328 O351 1.264 . S
O329 Mn324 2.095 . S
O329 C338 1.250 . S
O330 Mn325 2.121 . S
O330 C338 1.258 . S
C331 N332 1.326 . S
C331 C335 1.460 . S
C331 H337 0.929 . S
N332 Mn325 2.257 . S
N332 C331 1.326 . S
N332 C336 1.362 . S
C333 C334 1.258 . S
C333 C336 1.431 . S
C333 C353 1.449 . S
C334 C333 1.258 . S
C334 C335 1.477 . S
C334 H354 0.931 . S
C335 C331 1.460 . S
C335 C334 1.477 . S
C335 H355 0.930 . S
C336 N332 1.362 . S
C336 C333 1.431 . S
C336 C346 1.476 . S
H337 C331 0.929 . S
C338 O329 1.250 . S
C338 O330 1.258 . S
O339 Mn324 2.162 . S
O339 C327 1.281 . S
O340 Mn324 2.297 . S
O340 C327 1.236 . S
N341 Mn325 2.282 . S
N341 C342 1.328 . S
N341 C346 1.318 . S
C342 N341 1.328 . S
C342 C343 1.457 . S
C342 H347 0.929 . S
C343 C342 1.457 . S
C343 C344 1.291 . S
C343 H356 0.931 . S
C344 C343 1.291 . S
C344 C345 1.373 . S
C344 H357 0.929 . S
C345 C344 1.373 . S
C345 C346 1.396 . S
C345 C352 1.403 . S
C346 C336 1.476 . S
C346 N341 1.318 . S
C346 C345 1.396 . S
H347 C342 0.929 . S
O348 Mn324 2.385 . S
O348 C326 1.234 . S
O349 Mn324 2.209 . S
O349 Mn325 2.215 . S
O349 C326 1.283 . S
O350 Mn324 2.094 . S
O350 C328 1.240 . S
O351 Mn325 2.117 . S
O351 C328 1.264 . S
C352 C345 1.403 . S
C352 C353 1.399 . S
C352 H358 0.929 . S
C353 C333 1.449 . S
C353 C352 1.399 . S
C353 H359 0.930 . S
H354 C334 0.931 . S
H355 C335 0.930 . S
H356 C343 0.931 . S
H357 C344 0.929 . S
H358 C352 0.929 . S
H359 C353 0.930 . S
Mn360 O365 2.095 . S
Mn360 O375 2.162 . S
Mn360 O376 2.297 . S
Mn360 O384 2.385 . S
Mn360 O385 2.209 . S
Mn360 O386 2.094 . S
Mn361 O366 2.121 . S
Mn361 N368 2.257 . S
Mn361 N377 2.282 . S
Mn361 O385 2.215 . S
Mn361 O387 2.117 . S
C362 O384 1.234 . S
C362 O385 1.283 . S
C363 O375 1.281 . S
C363 O376 1.236 . S
C364 O386 1.240 . S
C364 O387 1.264 . S
O365 Mn360 2.095 . S
O365 C374 1.250 . S
O366 Mn361 2.121 . S
O366 C374 1.258 . S
C367 N368 1.326 . S
C367 C371 1.460 . S
C367 H373 0.929 . S
N368 Mn361 2.257 . S
N368 C367 1.326 . S
N368 C372 1.362 . S
C369 C370 1.258 . S
C369 C372 1.431 . S
C369 C389 1.449 . S
C370 C369 1.258 . S
C370 C371 1.477 . S
C370 H390 0.931 . S
C371 C367 1.460 . S
C371 C370 1.477 . S
C371 H391 0.930 . S
C372 N368 1.362 . S
C372 C369 1.431 . S
C372 C382 1.476 . S
H373 C367 0.929 . S
C374 O365 1.250 . S
C374 O366 1.258 . S
O375 Mn360 2.162 . S
O375 C363 1.281 . S
O376 Mn360 2.297 . S
O376 C363 1.236 . S
N377 Mn361 2.282 . S
N377 C378 1.328 . S
N377 C382 1.318 . S
C378 N377 1.328 . S
C378 C379 1.457 . S
C378 H383 0.929 . S
C379 C378 1.457 . S
C379 C380 1.291 . S
C379 H392 0.931 . S
C380 C379 1.291 . S
C380 C381 1.373 . S
C380 H393 0.929 . S
C381 C380 1.373 . S
C381 C382 1.396 . S
C381 C388 1.403 . S
C382 C372 1.476 . S
C382 N377 1.318 . S
C382 C381 1.396 . S
H383 C378 0.929 . S
O384 Mn360 2.385 . S
O384 C362 1.234 . S
O385 Mn360 2.209 . S
O385 Mn361 2.215 . S
O385 C362 1.283 . S
O386 Mn360 2.094 . S
O386 C364 1.240 . S
O387 Mn361 2.117 . S
O387 C364 1.264 . S
C388 C381 1.403 . S
C388 C389 1.399 . S
C388 H394 0.929 . S
C389 C369 1.449 . S
C389 C388 1.399 . S
C389 H395 0.930 . S
H390 C370 0.931 . S
H391 C371 0.930 . S
H392 C379 0.931 . S
H393 C380 0.929 . S
H394 C388 0.929 . S
H395 C389 0.930 . S
Mn396 O401 2.095 . S
Mn396 O411 2.162 . S
Mn396 O412 2.297 . S
Mn396 O420 2.385 . S
Mn396 O421 2.209 . S
Mn396 O422 2.094 . S
Mn397 O402 2.121 . S
Mn397 N404 2.257 . S
Mn397 N413 2.282 . S
Mn397 O421 2.215 . S
Mn397 O423 2.117 . S
C398 O420 1.234 . S
C398 O421 1.283 . S
C399 O411 1.281 . S
C399 O412 1.236 . S
C400 O422 1.240 . S
C400 O423 1.264 . S
O401 Mn396 2.095 . S
O401 C410 1.250 . S
O402 Mn397 2.121 . S
O402 C410 1.258 . S
C403 N404 1.326 . S
C403 C407 1.460 . S
C403 H409 0.929 . S
N404 Mn397 2.257 . S
N404 C403 1.326 . S
N404 C408 1.362 . S
C405 C406 1.258 . S
C405 C408 1.431 1_554 S
C405 C425 1.449 . S
C406 C405 1.258 . S
C406 C407 1.477 1_554 S
C406 H426 0.931 . S
C407 C403 1.460 . S
C407 C406 1.477 1_556 S
C407 H427 0.930 . S
C408 N404 1.362 . S
C408 C405 1.431 1_556 S
C408 C418 1.476 . S
H409 C403 0.929 . S
C410 O401 1.250 . S
C410 O402 1.258 . S
O411 Mn396 2.162 . S
O411 C399 1.281 . S
O412 Mn396 2.297 . S
O412 C399 1.236 . S
N413 Mn397 2.282 . S
N413 C414 1.328 . S
N413 C418 1.318 . S
C414 N413 1.328 . S
C414 C415 1.457 1_556 S
C414 H419 0.929 . S
C415 C414 1.457 1_554 S
C415 C416 1.291 . S
C415 H428 0.931 . S
C416 C415 1.291 . S
C416 C417 1.373 . S
C416 H429 0.929 . S
C417 C416 1.373 . S
C417 C418 1.396 1_554 S
C417 C424 1.403 . S
C418 C408 1.476 . S
C418 N413 1.318 . S
C418 C417 1.396 1_556 S
H419 C414 0.929 . S
O420 Mn396 2.385 . S
O420 C398 1.234 . S
O421 Mn396 2.209 . S
O421 Mn397 2.215 . S
O421 C398 1.283 . S
O422 Mn396 2.094 . S
O422 C400 1.240 . S
O423 Mn397 2.117 . S
O423 C400 1.264 . S
C424 C417 1.403 . S
C424 C425 1.399 . S
C424 H430 0.929 . S
C425 C405 1.449 . S
C425 C424 1.399 . S
C425 H431 0.930 . S
H426 C406 0.931 . S
H427 C407 0.930 . S
H428 C415 0.931 . S
H429 C416 0.929 . S
H430 C424 0.929 . S
H431 C425 0.930 . S
H432 C438 0.930 . S
H433 C441 0.930 . S
H434 C442 0.930 . S
H435 C443 0.930 . S
H436 C446 0.930 . S
H437 C447 0.930 . S
C438 H432 0.930 . S
C438 C439 1.355 . S
C438 C440 1.415 . S
C439 C438 1.355 . S
C439 C441 1.419 . S
C440 C438 1.415 . S
C440 C445 1.425 . S
C440 C447 1.409 . S
C441 H433 0.930 . S
C441 C439 1.419 . S
C441 C442 1.362 . S
C442 H434 0.930 . S
C442 C441 1.362 . S
C442 C445 1.409 . S
C443 H435 0.930 . S
C443 C444 1.355 . S
C443 C445 1.415 . S
C444 C443 1.355 . S
C444 C446 1.419 . S
C445 C440 1.425 . S
C445 C442 1.409 . S
C445 C443 1.415 . S
C446 H436 0.930 . S
C446 C444 1.419 . S
C446 C447 1.362 . S
C447 H437 0.930 . S
C447 C440 1.409 . S
C447 C446 1.362 . S
H448 C454 0.930 . S
H449 C457 0.930 . S
H450 C458 0.930 . S
H451 C459 0.930 . S
H452 C462 0.930 . S
H453 C463 0.930 . S
C454 H448 0.930 . S
C454 C455 1.355 . S
C454 C456 1.415 . S
C455 C454 1.355 . S
C455 C457 1.419 . S
C456 C454 1.415 . S
C456 C461 1.425 . S
C456 C463 1.409 . S
C457 H449 0.930 . S
C457 C455 1.419 . S
C457 C458 1.362 . S
C458 H450 0.930 . S
C458 C457 1.362 . S
C458 C461 1.409 . S
C459 H451 0.930 . S
C459 C460 1.355 . S
C459 C461 1.415 . S
C460 C459 1.355 . S
C460 C462 1.419 . S
C461 C456 1.425 . S
C461 C458 1.409 . S
C461 C459 1.415 . S
C462 H452 0.930 . S
C462 C460 1.419 . S
C462 C463 1.362 . S
C463 H453 0.930 . S
C463 C456 1.409 . S
C463 C462 1.362 . S
H464 C470 0.930 . S
H465 C473 0.930 . S
H466 C474 0.930 . S
H467 C475 0.930 . S
H468 C478 0.930 . S
H469 C479 0.930 . S
C470 H464 0.930 . S
C470 C471 1.355 . S
C470 C472 1.415 . S
C471 C470 1.355 . S
C471 C473 1.419 . S
C472 C470 1.415 . S
C472 C477 1.425 . S
C472 C479 1.409 . S
C473 H465 0.930 . S
C473 C471 1.419 . S
C473 C474 1.362 . S
C474 H466 0.930 . S
C474 C473 1.362 . S
C474 C477 1.409 . S
C475 H467 0.930 . S
C475 C476 1.355 . S
C475 C477 1.415 . S
C476 C475 1.355 . S
C476 C478 1.419 . S
C477 C472 1.425 . S
C477 C474 1.409 . S
C477 C475 1.415 . S
C478 H468 0.930 . S
C478 C476 1.419 . S
C478 C479 1.362 . S
C479 H469 0.930 . S
C479 C472 1.409 . S
C479 C478 1.362 . S
H480 C486 0.930 . S
H481 C489 0.930 . S
H482 C490 0.930 . S
H483 C491 0.930 . S
H484 C494 0.930 . S
H485 C495 0.930 . S
C486 H480 0.930 . S
C486 C487 1.355 . S
C486 C488 1.415 . S
C487 C486 1.355 . S
C487 C489 1.419 . S
C488 C486 1.415 . S
C488 C493 1.425 . S
C488 C495 1.409 . S
C489 H481 0.930 . S
C489 C487 1.419 . S
C489 C490 1.362 . S
C490 H482 0.930 . S
C490 C489 1.362 . S
C490 C493 1.409 . S
C491 H483 0.930 . S
C491 C492 1.355 . S
C491 C493 1.415 . S
C492 C491 1.355 . S
C492 C494 1.419 . S
C493 C488 1.425 . S
C493 C490 1.409 . S
C493 C491 1.415 . S
C494 H484 0.930 . S
C494 C492 1.419 . S
C494 C495 1.362 . S
C495 H485 0.930 . S
C495 C488 1.409 . S
C495 C494 1.362 . S
H496 C502 0.930 . S
H497 C505 0.930 . S
H498 C506 0.930 1_554 S
H499 C507 0.930 . S
H500 C510 0.930 . S
H501 C511 0.930 . S
C502 H496 0.930 . S
C502 C503 1.355 . S
C502 C504 1.415 . S
C503 C502 1.355 . S
C503 C505 1.419 . S
C504 C502 1.415 . S
C504 C509 1.425 . S
C504 C511 1.409 . S
C505 H497 0.930 . S
C505 C503 1.419 . S
C505 C506 1.362 . S
C506 H498 0.930 1_556 S
C506 C505 1.362 . S
C506 C509 1.409 . S
C507 H499 0.930 . S
C507 C508 1.355 . S
C507 C509 1.415 1_554 S
C508 C507 1.355 . S
C508 C510 1.419 1_554 S
C509 C504 1.425 . S
C509 C506 1.409 . S
C509 C507 1.415 1_556 S
C510 H500 0.930 . S
C510 C508 1.419 1_556 S
C510 C511 1.362 . S
C511 H501 0.930 . S
C511 C504 1.409 . S
C511 C510 1.362 . S
H512 C518 0.930 . S
H513 C521 0.930 . S
H514 C522 0.930 . S
H515 C523 0.917 1_556 S
H516 C526 0.930 . S
H517 C527 0.930 . S
C518 H512 0.930 . S
C518 C519 1.355 . S
C518 C520 1.415 . S
C519 C518 1.355 . S
C519 C521 1.419 . S
C520 C518 1.415 . S
C520 C525 1.425 . S
C520 C527 1.409 . S
C521 H513 0.930 . S
C521 C519 1.419 . S
C521 C522 1.362 . S
C522 H514 0.930 . S
C522 C521 1.362 . S
C522 C525 1.409 . S
C523 H515 0.917 1_554 S
C523 C524 1.355 . S
C523 C525 1.415 . S
C524 C523 1.355 . S
C524 C526 1.419 . S
C525 C520 1.425 . S
C525 C522 1.409 . S
C525 C523 1.415 . S
C526 H516 0.930 . S
C526 C524 1.419 . S
C526 C527 1.362 . S
C527 H517 0.930 . S
C527 C520 1.409 . S
C527 C526 1.362 . S
H528 C534 0.930 . S
H529 C537 0.930 . S
H530 C538 0.930 . S
H531 C539 0.930 . S
H532 C542 0.930 . S
H533 C543 0.930 . S
C534 H528 0.930 . S
C534 C535 1.355 . S
C534 C536 1.415 . S
C535 C534 1.355 . S
C535 C537 1.419 . S
C536 C534 1.415 . S
C536 C541 1.425 . S
C536 C543 1.409 . S
C537 H529 0.930 . S
C537 C535 1.419 . S
C537 C538 1.362 . S
C538 H530 0.930 . S
C538 C537 1.362 . S
C538 C541 1.409 . S
C539 H531 0.930 . S
C539 C540 1.355 . S
C539 C541 1.415 . S
C540 C539 1.355 . S
C540 C542 1.419 . S
C541 C536 1.425 . S
C541 C538 1.409 . S
C541 C539 1.415 . S
C542 H532 0.930 . S
C542 C540 1.419 . S
C542 C543 1.362 . S
C543 H533 0.930 . S
C543 C536 1.409 . S
C543 C542 1.362 . S
H544 C550 0.930 . S
H545 C553 0.930 . S
H546 C554 0.930 . S
H547 C555 0.930 . S
H548 C558 0.930 . S
H549 C559 0.930 . S
C550 H544 0.930 . S
C550 C551 1.355 . S
C550 C552 1.415 . S
C551 C550 1.355 . S
C551 C553 1.419 . S
C552 C550 1.415 . S
C552 C557 1.425 . S
C552 C559 1.409 . S
C553 H545 0.930 . S
C553 C551 1.419 . S
C553 C554 1.362 . S
C554 H546 0.930 . S
C554 C553 1.362 . S
C554 C557 1.409 . S
C555 H547 0.930 . S
C555 C556 1.355 . S
C555 C557 1.415 . S
C556 C555 1.355 . S
C556 C558 1.419 . S
C557 C552 1.425 . S
C557 C554 1.409 . S
C557 C555 1.415 . S
C558 H548 0.930 . S
C558 C556 1.419 . S
C558 C559 1.362 . S
C559 H549 0.930 . S
C559 C552 1.409 . S
C559 C558 1.362 . S
H560 C566 0.930 . S
H561 C569 0.930 . S
H562 C570 0.930 . S
H563 C571 0.930 . S
H564 C574 0.930 . S
H565 C575 0.930 . S
C566 H560 0.930 . S
C566 C567 1.355 . S
C566 C568 1.415 . S
C567 C566 1.355 . S
C567 C569 1.419 . S
C568 C566 1.415 . S
C568 C573 1.425 . S
C568 C575 1.409 . S
C569 H561 0.930 . S
C569 C567 1.419 . S
C569 C570 1.362 . S
C570 H562 0.930 . S
C570 C569 1.362 . S
C570 C573 1.409 . S
C571 H563 0.930 . S
C571 C572 1.355 . S
C571 C573 1.415 . S
C572 C571 1.355 . S
C572 C574 1.419 . S
C573 C568 1.425 . S
C573 C570 1.409 . S
C573 C571 1.415 . S
C574 H564 0.930 . S
C574 C572 1.419 . S
C574 C575 1.362 . S
C575 H565 0.930 . S
C575 C568 1.409 . S
C575 C574 1.362 . S
H576 C582 0.930 . S
H577 C585 0.930 . S
H578 C586 0.930 . S
H579 C587 0.930 . S
H580 C590 0.930 . S
H581 C591 0.930 . S
C582 H576 0.930 . S
C582 C583 1.355 . S
C582 C584 1.415 . S
C583 C582 1.355 . S
C583 C585 1.419 . S
C584 C582 1.415 . S
C584 C589 1.425 . S
C584 C591 1.409 . S
C585 H577 0.930 . S
C585 C583 1.419 . S
C585 C586 1.362 . S
C586 H578 0.930 . S
C586 C585 1.362 . S
C586 C589 1.409 . S
C587 H579 0.930 . S
C587 C588 1.355 . S
C587 C589 1.415 . S
C588 C587 1.355 . S
C588 C590 1.419 . S
C589 C584 1.425 . S
C589 C586 1.409 . S
C589 C587 1.415 . S
C590 H580 0.930 . S
C590 C588 1.419 . S
C590 C591 1.362 . S
C591 H581 0.930 . S
C591 C584 1.409 . S
C591 C590 1.362 . S
H592 C598 0.930 . S
H593 C601 0.930 . S
H594 C602 0.930 . S
H595 C603 0.930 . S
H596 C606 0.930 . S
H597 C607 0.930 . S
C598 H592 0.930 . S
C598 C599 1.355 . S
C598 C600 1.415 . S
C599 C598 1.355 . S
C599 C601 1.419 . S
C600 C598 1.415 . S
C600 C605 1.425 . S
C600 C607 1.409 . S
C601 H593 0.930 . S
C601 C599 1.419 . S
C601 C602 1.362 . S
C602 H594 0.930 . S
C602 C601 1.362 . S
C602 C605 1.409 . S
C603 H595 0.930 . S
C603 C604 1.355 . S
C603 C605 1.415 . S
C604 C603 1.355 . S
C604 C606 1.419 . S
C605 C600 1.425 . S
C605 C602 1.409 . S
C605 C603 1.415 . S
C606 H596 0.930 . S
C606 C604 1.419 . S
C606 C607 1.362 . S
C607 H597 0.930 . S
C607 C600 1.409 . S
C607 C606 1.362 . S
H608 C614 0.930 . S
H609 C617 0.930 . S
H610 C618 0.930 . S
H611 C619 0.930 . S
H612 C622 0.930 . S
H613 C623 0.930 . S
C614 H608 0.930 . S
C614 C615 1.355 . S
C614 C616 1.415 . S
C615 C614 1.355 . S
C615 C617 1.419 . S
C616 C614 1.415 . S
C616 C621 1.425 . S
C616 C623 1.409 1_556 S
C617 H609 0.930 . S
C617 C615 1.419 . S
C617 C618 1.362 . S
C618 H610 0.930 . S
C618 C617 1.362 . S
C618 C621 1.409 . S
C619 H611 0.930 . S
C619 C620 1.355 1_556 S
C619 C621 1.415 . S
C620 C619 1.355 1_554 S
C620 C622 1.419 . S
C621 C616 1.425 . S
C621 C618 1.409 . S
C621 C619 1.415 . S
C622 H612 0.930 . S
C622 C620 1.419 . S
C622 C623 1.362 . S
C623 H613 0.930 . S
C623 C616 1.409 1_554 S
C623 C622 1.362 . S
H624 C630 0.930 . S
H625 C633 0.930 . S
H626 C634 0.930 . S
H627 C635 0.930 . S
H628 C638 0.930 . S
H629 C639 0.930 . S
C630 H624 0.930 . S
C630 C631 1.355 . S
C630 C632 1.415 . S
C631 C630 1.355 . S
C631 C633 1.419 . S
C632 C630 1.415 . S
C632 C637 1.425 . S
C632 C639 1.409 . S
C633 H625 0.930 . S
C633 C631 1.419 . S
C633 C634 1.362 . S
C634 H626 0.930 . S
C634 C633 1.362 . S
C634 C637 1.409 . S
C635 H627 0.930 . S
C635 C636 1.355 . S
C635 C637 1.415 . S
C636 C635 1.355 . S
C636 C638 1.419 . S
C637 C632 1.425 . S
C637 C634 1.409 . S
C637 C635 1.415 . S
C638 H628 0.930 . S
C638 C636 1.419 . S
C638 C639 1.362 . S
C639 H629 0.930 . S
C639 C632 1.409 . S
C639 C638 1.362 . S
H640 C646 0.930 . S
H641 C649 0.930 . S
H642 C650 0.930 . S
H643 C651 0.930 . S
H644 C654 0.930 . S
H645 C655 0.930 1_554 S
C646 H640 0.930 . S
C646 C647 1.355 . S
C646 C648 1.415 1_554 S
C647 C646 1.355 . S
C647 C649 1.419 1_554 S
C648 C646 1.415 1_556 S
C648 C653 1.425 . S
C648 C655 1.409 . S
C649 H641 0.930 . S
C649 C647 1.419 1_556 S
C649 C650 1.362 . S
C650 H642 0.930 . S
C650 C649 1.362 . S
C650 C653 1.409 . S
C651 H643 0.930 . S
C651 C652 1.355 . S
C651 C653 1.415 . S
C652 C651 1.355 . S
C652 C654 1.419 . S
C653 C648 1.425 . S
C653 C650 1.409 . S
C653 C651 1.415 . S
C654 H644 0.930 . S
C654 C652 1.419 . S
C654 C655 1.362 . S
C655 H645 0.930 1_556 S
C655 C648 1.409 . S
C655 C654 1.362 . S
H656 C662 0.930 . S
H657 C665 0.930 . S
H658 C666 0.930 . S
H659 C667 0.930 . S
H660 C670 0.930 . S
H661 C671 0.930 . S
C662 H656 0.930 . S
C662 C663 1.355 . S
C662 C664 1.415 . S
C663 C662 1.355 . S
C663 C665 1.419 . S
C664 C662 1.415 . S
C664 C669 1.425 . S
C664 C671 1.409 . S
C665 H657 0.930 . S
C665 C663 1.419 . S
C665 C666 1.362 . S
C666 H658 0.930 . S
C666 C665 1.362 . S
C666 C669 1.409 . S
C667 H659 0.930 . S
C667 C668 1.355 . S
C667 C669 1.415 . S
C668 C667 1.355 . S
C668 C670 1.419 . S
C669 C664 1.425 . S
C669 C666 1.409 . S
C669 C667 1.415 . S
C670 H660 0.930 . S
C670 C668 1.419 . S
C670 C671 1.362 . S
C671 H661 0.930 . S
C671 C664 1.409 . S
C671 C670 1.362 . S
H672 C678 0.930 . S
H673 C681 0.930 . S
H674 C682 0.930 . S
H675 C683 0.930 . S
H676 C686 0.930 . S
H677 C687 0.930 . S
C678 H672 0.930 . S
C678 C679 1.355 . S
C678 C680 1.415 . S
C679 C678 1.355 . S
C679 C681 1.419 . S
C680 C678 1.415 . S
C680 C685 1.425 . S
C680 C687 1.409 . S
C681 H673 0.930 . S
C681 C679 1.419 . S
C681 C682 1.362 . S
C682 H674 0.930 . S
C682 C681 1.362 . S
C682 C685 1.409 . S
C683 H675 0.930 . S
C683 C684 1.355 . S
C683 C685 1.415 . S
C684 C683 1.355 . S
C684 C686 1.419 . S
C685 C680 1.425 . S
C685 C682 1.409 . S
C685 C683 1.415 . S
C686 H676 0.930 . S
C686 C684 1.419 . S
C686 C687 1.362 . S
C687 H677 0.930 . S
C687 C680 1.409 . S
C687 C686 1.362 . S
H688 C694 0.930 . S
H689 C697 0.930 . S
H690 C698 0.930 . S
H691 C699 0.930 . S
H692 C702 0.930 . S
H693 C703 0.930 . S
C694 H688 0.930 . S
C694 C695 1.355 . S
C694 C696 1.415 . S
C695 C694 1.355 . S
C695 C697 1.419 . S
C696 C694 1.415 . S
C696 C701 1.425 . S
C696 C703 1.409 . S
C697 H689 0.930 . S
C697 C695 1.419 . S
C697 C698 1.362 . S
C698 H690 0.930 . S
C698 C697 1.362 . S
C698 C701 1.409 . S
C699 H691 0.930 . S
C699 C700 1.355 . S
C699 C701 1.415 . S
C700 C699 1.355 . S
C700 C702 1.419 . S
C701 C696 1.425 . S
C701 C698 1.409 . S
C701 C699 1.415 . S
C702 H692 0.930 . S
C702 C700 1.419 . S
C702 C703 1.362 . S
C703 H693 0.930 . S
C703 C696 1.409 . S
C703 C702 1.362 . S
H704 C710 0.930 . S
H705 C713 0.930 . S
H706 C714 0.930 . S
H707 C715 0.930 . S
H708 C718 0.930 . S
H709 C719 0.930 . S
C710 H704 0.930 . S
C710 C711 1.355 . S
C710 C712 1.415 . S
C711 C710 1.355 . S
C711 C713 1.419 . S
C712 C710 1.415 . S
C712 C717 1.425 . S
C712 C719 1.409 . S
C713 H705 0.930 . S
C713 C711 1.419 . S
C713 C714 1.362 . S
C714 H706 0.930 . S
C714 C713 1.362 . S
C714 C717 1.409 . S
C715 H707 0.930 . S
C715 C716 1.355 . S
C715 C717 1.415 . S
C716 C715 1.355 . S
C716 C718 1.419 . S
C717 C712 1.425 . S
C717 C714 1.409 . S
C717 C715 1.415 . S
C718 H708 0.930 . S
C718 C716 1.419 . S
C718 C719 1.362 . S
C719 H709 0.930 . S
C719 C712 1.409 . S
C719 C718 1.362 . S
H720 C726 0.930 . S
H721 C729 0.930 . S
H722 C730 0.930 . S
H723 C731 0.930 . S
H724 C734 0.930 . S
H725 C735 0.930 . S
C726 H720 0.930 . S
C726 C727 1.355 . S
C726 C728 1.415 . S
C727 C726 1.355 . S
C727 C729 1.419 . S
C728 C726 1.415 . S
C728 C733 1.425 1_455 S
C728 C735 1.409 1_455 S
C729 H721 0.930 . S
C729 C727 1.419 . S
C729 C730 1.362 . S
C730 H722 0.930 . S
C730 C729 1.362 . S
C730 C733 1.409 1_455 S
C731 H723 0.930 . S
C731 C732 1.355 . S
C731 C733 1.415 . S
C732 C731 1.355 . S
C732 C734 1.419 . S
C733 C728 1.425 1_655 S
C733 C730 1.409 1_655 S
C733 C731 1.415 . S
C734 H724 0.930 . S
C734 C732 1.419 . S
C734 C735 1.362 . S
C735 H725 0.930 . S
C735 C728 1.409 1_655 S
C735 C734 1.362 . S
H736 C742 0.930 . S
H737 C745 0.930 . S
H738 C746 0.930 . S
H739 C747 0.930 . S
H740 C750 0.930 . S
H741 C751 0.930 . S
C742 H736 0.930 . S
C742 C743 1.355 . S
C742 C744 1.415 1_566 S
C743 C742 1.355 . S
C743 C745 1.419 1_556 S
C744 C742 1.415 1_544 S
C744 C749 1.425 1_545 S
C744 C751 1.409 1_554 S
C745 H737 0.930 . S
C745 C743 1.419 1_554 S
C745 C746 1.362 . S
C746 H738 0.930 . S
C746 C745 1.362 . S
C746 C749 1.409 . S
C747 H739 0.930 . S
C747 C748 1.355 . S
C747 C749 1.415 1_545 S
C748 C747 1.355 . S
C748 C750 1.419 . S
C749 C744 1.425 1_565 S
C749 C746 1.409 . S
C749 C747 1.415 1_565 S
C750 H740 0.930 . S
C750 C748 1.419 . S
C750 C751 1.362 1_554 S
C751 H741 0.930 . S
C751 C744 1.409 1_556 S
C751 C750 1.362 1_556 S
H752 C758 0.930 . S
H753 C761 0.930 . S
H754 C762 0.930 . S
H755 C763 0.930 . S
H756 C766 0.930 . S
H757 C767 0.930 . S
C758 H752 0.930 . S
C758 C759 1.355 . S
C758 C760 1.415 . S
C759 C758 1.355 . S
C759 C761 1.419 . S
C760 C758 1.415 . S
C760 C765 1.425 . S
C760 C767 1.409 . S
C761 H753 0.930 . S
C761 C759 1.419 . S
C761 C762 1.362 . S
C762 H754 0.930 . S
C762 C761 1.362 . S
C762 C765 1.409 . S
C763 H755 0.930 . S
C763 C764 1.355 . S
C763 C765 1.415 . S
C764 C763 1.355 . S
C764 C766 1.419 . S
C765 C760 1.425 . S
C765 C762 1.409 . S
C765 C763 1.415 . S
C766 H756 0.930 . S
C766 C764 1.419 . S
C766 C767 1.362 . S
C767 H757 0.930 . S
C767 C760 1.409 . S
C767 C766 1.362 . S
H768 C774 0.930 . S
H769 C777 0.930 . S
H770 C778 0.930 . S
H771 C779 0.930 . S
H772 C782 0.930 . S
H773 C783 0.930 . S
C774 H768 0.930 . S
C774 C775 1.355 . S
C774 C776 1.415 1_455 S
C775 C774 1.355 . S
C775 C777 1.419 . S
C776 C774 1.415 1_655 S
C776 C781 1.425 1_655 S
C776 C783 1.409 . S
C777 H769 0.930 . S
C777 C775 1.419 . S
C777 C778 1.362 . S
C778 H770 0.930 . S
C778 C777 1.362 . S
C778 C781 1.409 . S
C779 H771 0.930 . S
C779 C780 1.355 . S
C779 C781 1.415 1_655 S
C780 C779 1.355 . S
C780 C782 1.419 . S
C781 C776 1.425 1_455 S
C781 C778 1.409 . S
C781 C779 1.415 1_455 S
C782 H772 0.930 . S
C782 C780 1.419 . S
C782 C783 1.362 . S
C783 H773 0.930 . S
C783 C776 1.409 . S
C783 C782 1.362 . S
H784 C790 0.930 . S
H785 C793 0.930 . S
H786 C794 0.930 . S
H787 C795 0.930 . S
H788 C798 0.930 . S
H789 C799 0.930 . S
C790 H784 0.930 . S
C790 C791 1.355 . S
C790 C792 1.415 1_545 S
C791 C790 1.355 . S
C791 C793 1.419 . S
C792 C790 1.415 1_565 S
C792 C797 1.425 1_565 S
C792 C799 1.409 . S
C793 H785 0.930 . S
C793 C791 1.419 . S
C793 C794 1.362 . S
C794 H786 0.930 . S
C794 C793 1.362 . S
C794 C797 1.409 . S
C795 H787 0.930 . S
C795 C796 1.355 . S
C795 C797 1.415 1_565 S
C796 C795 1.355 . S
C796 C798 1.419 . S
C797 C792 1.425 1_545 S
C797 C794 1.409 . S
C797 C795 1.415 1_545 S
C798 H788 0.930 . S
C798 C796 1.419 . S
C798 C799 1.362 . S
C799 H789 0.930 . S
C799 C792 1.409 . S
C799 C798 1.362 . S
H800 C806 0.930 . S
H801 C809 0.930 . S
H802 C810 0.930 . S
H803 C811 0.930 . S
H804 C814 0.930 . S
H805 C815 0.930 . S
C806 H800 0.930 . S
C806 C807 1.355 . S
C806 C808 1.415 . S
C807 C806 1.355 . S
C807 C809 1.419 . S
C808 C806 1.415 . S
C808 C813 1.425 . S
C808 C815 1.409 . S
C809 H801 0.930 . S
C809 C807 1.419 . S
C809 C810 1.362 . S
C810 H802 0.930 . S
C810 C809 1.362 . S
C810 C813 1.409 . S
C811 H803 0.930 . S
C811 C812 1.355 . S
C811 C813 1.415 . S
C812 C811 1.355 . S
C812 C814 1.419 . S
C813 C808 1.425 . S
C813 C810 1.409 . S
C813 C811 1.415 . S
C814 H804 0.930 . S
C814 C812 1.419 . S
C814 C815 1.362 . S
C815 H805 0.930 . S
C815 C808 1.409 . S
C815 C814 1.362 . S
C439 C3 1.317 . S
C444 C363 1.305 . S
C455 C399 1.296 . S
C460 C39 1.318 . S
C471 C75 1.301 . S
C476 C219 1.310 . S
C487 C111 1.299 . S
C492 C255 1.313 . S
C503 C147 1.307 . S
C508 C291 1.316 . S
C519 C327 1.319 . S
C524 C183 1.301 1_554 S
C535 C14 1.546 . S
C540 C302 1.523 . S
C551 C50 1.510 . S
C556 C338 1.509 . S
C567 C374 1.518 . S
C572 C86 1.508 . S
C583 C122 1.528 . S
C588 C410 1.550 . S
C599 C158 1.568 . S
C604 C230 1.562 . S
C615 C194 1.515 . S
C620 C266 1.508 . S
C631 C362 1.467 . S
C636 C2 1.440 . S
C647 C38 1.466 . S
C652 C398 1.446 . S
C663 C74 1.446 . S
C668 C218 1.466 1_554 S
C679 C110 1.445 . S
C684 C254 1.455 . S
C695 C290 1.465 . S
C700 C146 1.440 . S
C711 C182 1.464 . S
C716 C326 1.440 . S
C727 C4 1.350 . S
C732 C400 1.377 . S
C743 C220 1.354 . S
C748 C40 1.342 . S
C759 C256 1.346 . S
C764 C76 1.371 . S
C775 C292 1.343 . S
C780 C112 1.351 . S
C791 C328 1.359 . S
C796 C148 1.342 . S
C807 C364 1.402 . S
C812 C184 1.382 . S
