# Generated by pormake.
# Topology uma, (4)-cn, num edge types: 1
# Building blocks:
#     Node 0, Type 0, BuildingBlock: NAWXER_clean_sbu_0, # of connection points: 4
#     Node 1, Type 0, BuildingBlock: NAWXER_clean_sbu_0, # of connection points: 4
#     Node 2, Type 0, BuildingBlock: NAWXER_clean_sbu_0, # of connection points: 4
#     Node 3, Type 0, BuildingBlock: NAWXER_clean_sbu_0, # of connection points: 4
#     Node 4, Type 0, BuildingBlock: NAWXER_clean_sbu_0, # of connection points: 4
#     Node 5, Type 0, BuildingBlock: NAWXER_clean_sbu_0, # of connection points: 4
#     Node 6, Type 0, BuildingBlock: NAWXER_clean_sbu_0, # of connection points: 4
#     Node 7, Type 0, BuildingBlock: NAWXER_clean_sbu_0, # of connection points: 4
#     Node 8, Type 0, BuildingBlock: NAWXER_clean_sbu_0, # of connection points: 4
#     Node 9, Type 0, BuildingBlock: NAWXER_clean_sbu_0, # of connection points: 4
#     Node 10, Type 0, BuildingBlock: NAWXER_clean_sbu_0, # of connection points: 4
#     Node 11, Type 0, BuildingBlock: NAWXER_clean_sbu_0, # of connection points: 4
#     Node 12, Type 0, BuildingBlock: NAWXER_clean_sbu_0, # of connection points: 4
#     Node 13, Type 0, BuildingBlock: NAWXER_clean_sbu_0, # of connection points: 4
#     Node 14, Type 0, BuildingBlock: NAWXER_clean_sbu_0, # of connection points: 4
#     Node 15, Type 0, BuildingBlock: NAWXER_clean_sbu_0, # of connection points: 4
#     Node 16, Type 0, BuildingBlock: NAWXER_clean_sbu_0, # of connection points: 4
#     Node 17, Type 0, BuildingBlock: NAWXER_clean_sbu_0, # of connection points: 4
#     Node 18, Type 0, BuildingBlock: NAWXER_clean_sbu_0, # of connection points: 4
#     Node 19, Type 0, BuildingBlock: NAWXER_clean_sbu_0, # of connection points: 4
#     Node 20, Type 0, BuildingBlock: NAWXER_clean_sbu_0, # of connection points: 4
#     Node 21, Type 0, BuildingBlock: NAWXER_clean_sbu_0, # of connection points: 4
#     Node 22, Type 0, BuildingBlock: NAWXER_clean_sbu_0, # of connection points: 4
#     Node 23, Type 0, BuildingBlock: NAWXER_clean_sbu_0, # of connection points: 4
#     Node 24, Type 0, BuildingBlock: NAWXER_clean_sbu_0, # of connection points: 4
#     Node 25, Type 0, BuildingBlock: NAWXER_clean_sbu_0, # of connection points: 4
#     Node 26, Type 0, BuildingBlock: NAWXER_clean_sbu_0, # of connection points: 4
#     Node 27, Type 0, BuildingBlock: NAWXER_clean_sbu_0, # of connection points: 4
#     Node 28, Type 0, BuildingBlock: NAWXER_clean_sbu_0, # of connection points: 4
#     Node 29, Type 0, BuildingBlock: NAWXER_clean_sbu_0, # of connection points: 4
#     Node 30, Type 0, BuildingBlock: NAWXER_clean_sbu_0, # of connection points: 4
#     Node 31, Type 0, BuildingBlock: NAWXER_clean_sbu_0, # of connection points: 4
#     Node 32, Type 0, BuildingBlock: NAWXER_clean_sbu_0, # of connection points: 4
#     Node 33, Type 0, BuildingBlock: NAWXER_clean_sbu_0, # of connection points: 4
#     Node 34, Type 0, BuildingBlock: NAWXER_clean_sbu_0, # of connection points: 4
#     Node 35, Type 0, BuildingBlock: NAWXER_clean_sbu_0, # of connection points: 4
#     Edge 36, Type (0, 0), BuildingBlock: OJICUG_clean_linker_0, # of connection points: 2
#     Edge 37, Type (0, 0), BuildingBlock: OJICUG_clean_linker_0, # of connection points: 2
#     Edge 38, Type (0, 0), BuildingBlock: OJICUG_clean_linker_0, # of connection points: 2
#     Edge 39, Type (0, 0), BuildingBlock: OJICUG_clean_linker_0, # of connection points: 2
#     Edge 40, Type (0, 0), BuildingBlock: OJICUG_clean_linker_0, # of connection points: 2
#     Edge 41, Type (0, 0), BuildingBlock: OJICUG_clean_linker_0, # of connection points: 2
#     Edge 42, Type (0, 0), BuildingBlock: OJICUG_clean_linker_0, # of connection points: 2
#     Edge 43, Type (0, 0), BuildingBlock: OJICUG_clean_linker_0, # of connection points: 2
#     Edge 44, Type (0, 0), BuildingBlock: OJICUG_clean_linker_0, # of connection points: 2
#     Edge 45, Type (0, 0), BuildingBlock: OJICUG_clean_linker_0, # of connection points: 2
#     Edge 46, Type (0, 0), BuildingBlock: OJICUG_clean_linker_0, # of connection points: 2
#     Edge 47, Type (0, 0), BuildingBlock: OJICUG_clean_linker_0, # of connection points: 2
#     Edge 48, Type (0, 0), BuildingBlock: OJICUG_clean_linker_0, # of connection points: 2
#     Edge 49, Type (0, 0), BuildingBlock: OJICUG_clean_linker_0, # of connection points: 2
#     Edge 50, Type (0, 0), BuildingBlock: OJICUG_clean_linker_0, # of connection points: 2
#     Edge 51, Type (0, 0), BuildingBlock: OJICUG_clean_linker_0, # of connection points: 2
#     Edge 52, Type (0, 0), BuildingBlock: OJICUG_clean_linker_0, # of connection points: 2
#     Edge 53, Type (0, 0), BuildingBlock: OJICUG_clean_linker_0, # of connection points: 2
#     Edge 54, Type (0, 0), BuildingBlock: OJICUG_clean_linker_0, # of connection points: 2
#     Edge 55, Type (0, 0), BuildingBlock: OJICUG_clean_linker_0, # of connection points: 2
#     Edge 56, Type (0, 0), BuildingBlock: OJICUG_clean_linker_0, # of connection points: 2
#     Edge 57, Type (0, 0), BuildingBlock: OJICUG_clean_linker_0, # of connection points: 2
#     Edge 58, Type (0, 0), BuildingBlock: OJICUG_clean_linker_0, # of connection points: 2
#     Edge 59, Type (0, 0), BuildingBlock: OJICUG_clean_linker_0, # of connection points: 2
#     Edge 60, Type (0, 0), BuildingBlock: OJICUG_clean_linker_0, # of connection points: 2
#     Edge 61, Type (0, 0), BuildingBlock: OJICUG_clean_linker_0, # of connection points: 2
#     Edge 62, Type (0, 0), BuildingBlock: OJICUG_clean_linker_0, # of connection points: 2
#     Edge 63, Type (0, 0), BuildingBlock: OJICUG_clean_linker_0, # of connection points: 2
#     Edge 64, Type (0, 0), BuildingBlock: OJICUG_clean_linker_0, # of connection points: 2
#     Edge 65, Type (0, 0), BuildingBlock: OJICUG_clean_linker_0, # of connection points: 2
#     Edge 66, Type (0, 0), BuildingBlock: OJICUG_clean_linker_0, # of connection points: 2
#     Edge 67, Type (0, 0), BuildingBlock: OJICUG_clean_linker_0, # of connection points: 2
#     Edge 68, Type (0, 0), BuildingBlock: OJICUG_clean_linker_0, # of connection points: 2
#     Edge 69, Type (0, 0), BuildingBlock: OJICUG_clean_linker_0, # of connection points: 2
#     Edge 70, Type (0, 0), BuildingBlock: OJICUG_clean_linker_0, # of connection points: 2
#     Edge 71, Type (0, 0), BuildingBlock: OJICUG_clean_linker_0, # of connection points: 2
#     Edge 72, Type (0, 0), BuildingBlock: OJICUG_clean_linker_0, # of connection points: 2
#     Edge 73, Type (0, 0), BuildingBlock: OJICUG_clean_linker_0, # of connection points: 2
#     Edge 74, Type (0, 0), BuildingBlock: OJICUG_clean_linker_0, # of connection points: 2
#     Edge 75, Type (0, 0), BuildingBlock: OJICUG_clean_linker_0, # of connection points: 2
#     Edge 76, Type (0, 0), BuildingBlock: OJICUG_clean_linker_0, # of connection points: 2
#     Edge 77, Type (0, 0), BuildingBlock: OJICUG_clean_linker_0, # of connection points: 2
#     Edge 78, Type (0, 0), BuildingBlock: OJICUG_clean_linker_0, # of connection points: 2
#     Edge 79, Type (0, 0), BuildingBlock: OJICUG_clean_linker_0, # of connection points: 2
#     Edge 80, Type (0, 0), BuildingBlock: OJICUG_clean_linker_0, # of connection points: 2
#     Edge 81, Type (0, 0), BuildingBlock: OJICUG_clean_linker_0, # of connection points: 2
#     Edge 82, Type (0, 0), BuildingBlock: OJICUG_clean_linker_0, # of connection points: 2
#     Edge 83, Type (0, 0), BuildingBlock: OJICUG_clean_linker_0, # of connection points: 2
#     Edge 84, Type (0, 0), BuildingBlock: OJICUG_clean_linker_0, # of connection points: 2
#     Edge 85, Type (0, 0), BuildingBlock: OJICUG_clean_linker_0, # of connection points: 2
#     Edge 86, Type (0, 0), BuildingBlock: OJICUG_clean_linker_0, # of connection points: 2
#     Edge 87, Type (0, 0), BuildingBlock: OJICUG_clean_linker_0, # of connection points: 2
#     Edge 88, Type (0, 0), BuildingBlock: OJICUG_clean_linker_0, # of connection points: 2
#     Edge 89, Type (0, 0), BuildingBlock: OJICUG_clean_linker_0, # of connection points: 2
#     Edge 90, Type (0, 0), BuildingBlock: OJICUG_clean_linker_0, # of connection points: 2
#     Edge 91, Type (0, 0), BuildingBlock: OJICUG_clean_linker_0, # of connection points: 2
#     Edge 92, Type (0, 0), BuildingBlock: OJICUG_clean_linker_0, # of connection points: 2
#     Edge 93, Type (0, 0), BuildingBlock: OJICUG_clean_linker_0, # of connection points: 2
#     Edge 94, Type (0, 0), BuildingBlock: OJICUG_clean_linker_0, # of connection points: 2
#     Edge 95, Type (0, 0), BuildingBlock: OJICUG_clean_linker_0, # of connection points: 2
#     Edge 96, Type (0, 0), BuildingBlock: OJICUG_clean_linker_0, # of connection points: 2
#     Edge 97, Type (0, 0), BuildingBlock: OJICUG_clean_linker_0, # of connection points: 2
#     Edge 98, Type (0, 0), BuildingBlock: OJICUG_clean_linker_0, # of connection points: 2
#     Edge 99, Type (0, 0), BuildingBlock: OJICUG_clean_linker_0, # of connection points: 2
#     Edge 100, Type (0, 0), BuildingBlock: OJICUG_clean_linker_0, # of connection points: 2
#     Edge 101, Type (0, 0), BuildingBlock: OJICUG_clean_linker_0, # of connection points: 2
#     Edge 102, Type (0, 0), BuildingBlock: OJICUG_clean_linker_0, # of connection points: 2
#     Edge 103, Type (0, 0), BuildingBlock: OJICUG_clean_linker_0, # of connection points: 2
#     Edge 104, Type (0, 0), BuildingBlock: OJICUG_clean_linker_0, # of connection points: 2
#     Edge 105, Type (0, 0), BuildingBlock: OJICUG_clean_linker_0, # of connection points: 2
#     Edge 106, Type (0, 0), BuildingBlock: OJICUG_clean_linker_0, # of connection points: 2
#     Edge 107, Type (0, 0), BuildingBlock: OJICUG_clean_linker_0, # of connection points: 2
# Relax obj value: 0.097
# Max RMSD: 0.105
# Mean RMSD: 0.098
data_MOF--net-uma--node1-NAWXER_clean_sbu_0--edge1-OJICUG_clean_linker_0
_symmetry_space_group_name_H-M    P1
_symmetry_Int_Tables_number       1
_symmetry_cell_setting            triclinic
loop_
_symmetry_equiv_pos_as_xyz
'x, y, z'
_cell_length_a     54.761111
_cell_length_b     54.763218
_cell_length_c     29.242576
_cell_angle_alpha  90.049103
_cell_angle_beta   89.948539
_cell_angle_gamma 120.02958
loop_
_atom_site_label
_atom_site_type_symbol
_atom_site_fract_x
_atom_site_fract_y
_atom_site_fract_z
_atom_type_partial_charge
C0 C 0.12781 0.41379 0.0872 0.0
C1 C 0.12436 0.38422 0.92796 0.0
O2 O 0.14029 0.43403 0.05859 0.0
Zn3 Zn 0.14856 0.44085 0.9875 0.0
O4 O 0.1185 0.38839 0.07429 0.0
Zn5 Zn 0.12825 0.39694 0.00983 0.0
O6 O 0.17309 0.41706 0.00789 0.0
O7 O 0.19098 0.46073 0.98383 0.0
O8 O 0.11642 0.36807 0.96276 0.0
O9 O 0.13625 0.41094 0.93364 0.0
O10 O 0.12282 0.45674 0.97658 0.0
O11 O 0.10026 0.41216 0.99804 0.0
C12 C 0.19478 0.4407 0.9973 0.0
C13 C 0.09977 0.43444 0.98716 0.0
C14 C 0.6843 0.75415 0.92954 0.0
C15 C 0.65483 0.72812 0.08884 0.0
O16 O 0.65758 0.73939 0.93536 0.0
Zn17 Zn 0.62773 0.72188 0.98926 0.0
O18 O 0.70052 0.76233 0.96426 0.0
Zn19 Zn 0.67169 0.74541 0.01144 0.0
O20 O 0.65629 0.70214 0.99957 0.0
O21 O 0.61169 0.68021 0.97826 0.0
O22 O 0.68024 0.74418 0.07591 0.0
O23 O 0.6346 0.72043 0.06028 0.0
O24 O 0.608 0.74454 0.98567 0.0
O25 O 0.65174 0.77029 0.00944 0.0
C26 C 0.63395 0.67939 0.98871 0.0
C27 C 0.62813 0.76839 0.99892 0.0
C28 C 0.29972 0.87287 0.99557 0.0
C29 C 0.38847 0.9679 0.98457 0.0
O30 O 0.29776 0.89457 0.00602 0.0
Zn31 Zn 0.32248 0.93941 0.00761 0.0
O32 O 0.32355 0.87667 0.98204 0.0
Zn33 Zn 0.3461 0.9191 0.98536 0.0
O34 O 0.34769 0.92763 0.05637 0.0
O35 O 0.32384 0.94942 0.07201 0.0
O36 O 0.38774 0.94483 0.97423 0.0
O37 O 0.3657 0.96741 0.99547 0.0
O38 O 0.30539 0.95109 0.9605 0.0
O39 O 0.32847 0.93126 0.93145 0.0
C40 C 0.34001 0.94022 0.08492 0.0
C41 C 0.31362 0.94312 0.92573 0.0
C42 C 0.44507 0.08206 0.01334 0.0
C43 C 0.45074 0.17681 0.00358 0.0
O44 O 0.42265 0.08238 0.00288 0.0
Zn45 Zn 0.40713 0.11019 0.99146 0.0
O46 O 0.46735 0.10519 0.02362 0.0
Zn47 Zn 0.45119 0.13074 0.01316 0.0
O48 O 0.4216 0.11844 0.06743 0.0
O49 O 0.37853 0.09831 0.03901 0.0
O50 O 0.47092 0.17313 0.01653 0.0
O51 O 0.42706 0.15506 0.99335 0.0
O52 O 0.39829 0.10027 0.92703 0.0
O53 O 0.44399 0.12235 0.94225 0.0
C54 C 0.3949 0.10644 0.07355 0.0
C55 C 0.42367 0.10973 0.91385 0.0
C56 C 0.96096 0.30263 0.07565 0.0
C57 C 0.95769 0.32817 0.91606 0.0
O58 O 0.94903 0.31739 0.06966 0.0
Zn59 Zn 0.93677 0.33474 0.01547 0.0
O60 O 0.96897 0.29432 0.04103 0.0
Zn61 Zn 0.95717 0.31112 0.9936 0.0
O62 O 0.98511 0.35443 0.00515 0.0
O63 O 0.96245 0.37645 0.02605 0.0
O64 O 0.96707 0.31219 0.92917 0.0
O65 O 0.94514 0.33594 0.94451 0.0
O66 O 0.89436 0.31216 0.01881 0.0
O67 O 0.9123 0.2863 0.99536 0.0
C68 C 0.98554 0.37722 0.01573 0.0
C69 C 0.89059 0.28827 0.00564 0.0
C70 C 0.7397 0.64334 0.91698 0.0
C71 C 0.76535 0.67193 0.07666 0.0
O72 O 0.73196 0.62299 0.94531 0.0
Zn73 Zn 0.73321 0.61572 0.01615 0.0
O74 O 0.75571 0.6687 0.93018 0.0
Zn75 Zn 0.75686 0.6598 0.99454 0.0
O76 O 0.78166 0.63976 0.99598 0.0
O77 O 0.7558 0.5959 0.01916 0.0
O78 O 0.77368 0.68833 0.04216 0.0
O79 O 0.75057 0.64524 0.07049 0.0
O80 O 0.69151 0.59967 0.02684 0.0
O81 O 0.71357 0.64441 0.00628 0.0
C82 C 0.77969 0.61605 0.00605 0.0
C83 C 0.69077 0.62203 0.01678 0.0
C84 C 0.98183 0.62199 0.01518 0.0
C85 C 0.88697 0.6161 0.00522 0.0
O86 O 0.95869 0.59967 0.0253 0.0
Zn87 Zn 0.93313 0.6158 0.01483 0.0
O88 O 0.98149 0.64442 0.0048 0.0
Zn89 Zn 0.95359 0.65985 0.99337 0.0
O90 O 0.96537 0.68839 0.04096 0.0
O91 O 0.94535 0.64531 0.06929 0.0
O92 O 0.9087 0.63982 0.99509 0.0
O93 O 0.89073 0.59595 0.01811 0.0
O94 O 0.94167 0.62314 0.94392 0.0
O95 O 0.96362 0.66888 0.92905 0.0
C96 C 0.9573 0.672 0.07547 0.0
C97 C 0.95432 0.64356 0.91569 0.0
C98 C 0.39475 0.29844 0.07533 0.0
C99 C 0.42319 0.32411 0.91565 0.0
O100 O 0.37836 0.29017 0.04083 0.0
Zn101 Zn 0.40689 0.30696 0.99324 0.0
O102 O 0.42145 0.31315 0.06918 0.0
Zn103 Zn 0.45094 0.33045 0.0147 0.0
O104 O 0.46722 0.37216 0.02536 0.0
O105 O 0.42246 0.35032 0.00495 0.0
O106 O 0.4436 0.33178 0.94386 0.0
O107 O 0.39785 0.30811 0.92897 0.0
O108 O 0.42683 0.28202 0.99453 0.0
O109 O 0.47072 0.30785 0.01759 0.0
C110 C 0.44495 0.37306 0.01536 0.0
C111 C 0.45054 0.28398 0.00452 0.0
C112 C 0.76916 0.11071 0.07543 0.0
C113 C 0.74322 0.11355 0.91592 0.0
O114 O 0.77743 0.10267 0.0408 0.0
Zn115 Zn 0.76051 0.11437 0.99342 0.0
O116 O 0.75435 0.12259 0.06947 0.0
Zn117 Zn 0.73689 0.13474 0.01526 0.0
O118 O 0.69521 0.10909 0.02605 0.0
O119 O 0.71721 0.0864 0.00522 0.0
O120 O 0.7355 0.12617 0.94432 0.0
O121 O 0.75933 0.10432 0.92904 0.0
O122 O 0.78532 0.15925 0.99506 0.0
O123 O 0.75941 0.17715 0.01848 0.0
C124 C 0.69443 0.08598 0.01583 0.0
C125 C 0.78331 0.18095 0.00533 0.0
C126 C 0.65739 0.94347 0.08636 0.0
C127 C 0.68599 0.94622 0.92675 0.0
O128 O 0.68272 0.95258 0.07317 0.0
Zn129 Zn 0.67374 0.94265 0.00882 0.0
O130 O 0.63702 0.93108 0.05798 0.0
Zn131 Zn 0.62974 0.92268 0.98705 0.0
O132 O 0.60943 0.88024 0.9839 0.0
O133 O 0.65316 0.89776 0.00739 0.0
O134 O 0.65931 0.93459 0.93276 0.0
O135 O 0.70229 0.95405 0.96135 0.0
O136 O 0.65887 0.97097 0.99728 0.0
O137 O 0.61416 0.94872 0.97655 0.0
C138 C 0.62933 0.8762 0.99723 0.0
C139 C 0.63665 0.97168 0.98677 0.0
C140 C 0.12526 0.72736 0.08602 0.0
C141 C 0.12185 0.75302 0.92659 0.0
O142 O 0.1162 0.74363 0.073 0.0
Zn143 Zn 0.1257 0.74436 0.00852 0.0
O144 O 0.13737 0.71917 0.05743 0.0
Zn145 Zn 0.14537 0.72013 0.9863 0.0
O146 O 0.18781 0.74212 0.98246 0.0
O147 O 0.17058 0.76851 0.00641 0.0
O148 O 0.13338 0.73788 0.93235 0.0
O149 O 0.11422 0.76158 0.96136 0.0
O150 O 0.09715 0.70119 0.99713 0.0
O151 O 0.11907 0.67852 0.97575 0.0
C152 C 0.19202 0.76613 0.99585 0.0
C153 C 0.09623 0.67819 0.98637 0.0
C154 C 0.31418 0.38235 0.92706 0.0
C155 C 0.34017 0.41146 0.08645 0.0
O156 O 0.30562 0.36617 0.96181 0.0
Zn157 Zn 0.32297 0.39489 0.009 0.0
O158 O 0.32939 0.40904 0.93283 0.0
Zn159 Zn 0.34727 0.43879 0.98681 0.0
O160 O 0.38885 0.45405 0.97611 0.0
O161 O 0.3661 0.40944 0.9974 0.0
O162 O 0.34834 0.43177 0.05789 0.0
O163 O 0.3238 0.38613 0.07344 0.0
O164 O 0.29893 0.41571 0.0072 0.0
O165 O 0.32537 0.45932 0.98324 0.0
C166 C 0.38912 0.43151 0.98663 0.0
C167 C 0.30137 0.43956 0.99673 0.0
C168 C 0.85683 0.77054 0.33252 0.0
C169 C 0.76203 0.76477 0.32268 0.0
O170 O 0.83508 0.74685 0.3427 0.0
Zn171 Zn 0.79021 0.72687 0.34451 0.0
O172 O 0.85313 0.79072 0.31957 0.0
Zn173 Zn 0.81073 0.77095 0.32288 0.0
O174 O 0.80232 0.7637 0.39376 0.0
O175 O 0.78027 0.71799 0.40893 0.0
O176 O 0.78516 0.78707 0.31245 0.0
O177 O 0.76237 0.74235 0.33311 0.0
O178 O 0.77838 0.69832 0.29692 0.0
O179 O 0.79847 0.74139 0.26856 0.0
C180 C 0.7897 0.74336 0.42214 0.0
C181 C 0.78649 0.7147 0.26241 0.0
C182 C 0.32349 0.0597 0.41895 0.0
C183 C 0.35204 0.08535 0.25925 0.0
O184 O 0.30313 0.05192 0.39063 0.0
Zn185 Zn 0.29583 0.05315 0.31978 0.0
O186 O 0.34884 0.07575 0.40572 0.0
Zn187 Zn 0.33991 0.07686 0.34137 0.0
O188 O 0.31978 0.10159 0.33999 0.0
O189 O 0.27594 0.07566 0.31678 0.0
O190 O 0.36843 0.09372 0.29376 0.0
O191 O 0.32535 0.07053 0.26541 0.0
O192 O 0.27986 1.01145 0.30912 0.0
O193 O 0.3246 0.03359 0.32967 0.0
C194 C 0.29605 0.09955 0.32993 0.0
C195 C 0.30224 1.01076 0.31918 0.0
C196 C 0.98261 0.28118 0.26112 0.0
C197 C 1.00807 0.27789 0.42074 0.0
O198 O 0.99739 0.26928 0.26711 0.0
Zn199 Zn 1.01474 0.25705 0.32133 0.0
O200 O 0.97427 0.28918 0.29573 0.0
Zn201 Zn 0.99108 0.27739 0.34317 0.0
O202 O 1.0344 0.30537 0.33172 0.0
O203 O 0.05646 0.28276 0.31083 0.0
O204 O 0.99208 0.28725 0.40761 0.0
O205 O 1.01588 0.26537 0.39229 0.0
O206 O 0.99222 0.21464 0.31792 0.0
O207 O 0.9663 0.23252 0.34134 0.0
C208 C 0.05721 0.30583 0.32118 0.0
C209 C 0.96831 0.21083 0.33105 0.0
C210 C 0.11455 0.42005 0.3501 0.0
C211 C 0.12108 0.51516 0.33971 0.0
O212 O 0.0923 0.42059 0.33921 0.0
Zn213 Zn 0.07717 0.44867 0.32734 0.0
O214 O 0.13688 0.44308 0.36062 0.0
Zn215 Zn 0.12107 0.46888 0.34966 0.0
O216 O 0.09117 0.45665 0.40353 0.0
O217 O 0.04831 0.43694 0.37437 0.0
O218 O 0.14106 0.51131 0.35325 0.0
O219 O 0.09741 0.49351 0.32914 0.0
O220 O 0.06859 0.43885 0.26291 0.0
O221 O 0.11423 0.46054 0.27857 0.0
C222 C 0.06444 0.44483 0.40919 0.0
C223 C 0.09397 0.44806 0.24999 0.0
C224 C 0.62308 0.63319 0.41023 0.0
C225 C 0.62019 0.65957 0.25103 0.0
O226 O 0.61121 0.64803 0.40449 0.0
Zn227 Zn 0.59904 0.66564 0.35057 0.0
O228 O 0.63106 0.62497 0.37547 0.0
Zn229 Zn 0.61938 0.64204 0.32834 0.0
O230 O 0.64736 0.68526 0.34048 0.0
O231 O 0.62477 0.70728 0.3617 0.0
O232 O 0.62939 0.6434 0.26394 0.0
O233 O 0.60759 0.66724 0.27957 0.0
O234 O 0.55661 0.64309 0.35389 0.0
O235 O 0.57452 0.6173 0.32996 0.0
C236 C 0.64784 0.70803 0.35138 0.0
C237 C 0.55283 0.61925 0.34041 0.0
C238 C 0.4085 0.97486 0.24716 0.0
C239 C 0.43447 1.00434 0.40647 0.0
O240 O 0.40078 0.95463 0.27574 0.0
Zn241 Zn 0.40219 0.94777 0.34678 0.0
O242 O 0.42456 1.00027 0.2601 0.0
Zn243 Zn 0.42575 0.99172 0.32458 0.0
O244 O 0.4506 0.97175 0.32662 0.0
O245 O 0.42481 0.92801 0.35041 0.0
O246 O 0.44267 1.02056 0.37175 0.0
O247 O 0.4197 0.97762 0.40067 0.0
O248 O 0.36052 0.93175 0.35774 0.0
O249 O 0.38246 0.97635 0.33638 0.0
C250 C 0.44868 0.94813 0.33716 0.0
C251 C 0.35971 0.95401 0.34724 0.0
C252 C 0.62649 1.00592 0.40927 0.0
C253 C 0.62369 0.97727 0.24967 0.0
O254 O 0.63432 1.02222 0.37466 0.0
Zn255 Zn 0.6229 0.99366 0.3272 0.0
O256 O 0.61485 0.97923 0.40327 0.0
Zn257 Zn 0.60293 0.94966 0.34901 0.0
O258 O 0.62897 0.93408 0.35952 0.0
O259 O 0.65122 0.97878 0.33873 0.0
O260 O 0.61131 0.95691 0.27807 0.0
O261 O 0.63281 1.0026 0.26283 0.0
O262 O 0.57801 0.97308 0.32866 0.0
O263 O 0.56048 0.92935 0.35219 0.0
C264 C 0.65193 0.95657 0.34926 0.0
C265 C 0.55645 0.94925 0.33884 0.0
C266 C 0.11195 0.70951 0.35004 0.0
C267 C 0.12011 0.62182 0.33996 0.0
O268 O 0.13449 0.70926 0.36063 0.0
Zn269 Zn 0.1193 0.6677 0.34983 0.0
O270 O 0.08992 0.68649 0.33917 0.0
Zn271 Zn 0.07543 0.64338 0.3275 0.0
O272 O 0.04664 0.62598 0.37458 0.0
O273 O 0.08947 0.64977 0.4037 0.0
O274 O 0.09628 0.61938 0.32939 0.0
O275 O 0.13985 0.64582 0.35352 0.0
O276 O 0.11237 0.66883 0.27872 0.0
O277 O 0.06676 0.64424 0.26303 0.0
C278 C 0.06277 0.63453 0.40938 0.0
C279 C 0.0921 0.66064 0.25009 0.0
C280 C 0.35796 0.41589 0.34996 0.0
C281 C 0.44602 0.51158 0.34032 0.0
O282 O 0.35834 0.43876 0.36053 0.0
Zn283 Zn 0.39996 0.46499 0.34997 0.0
O284 O 0.38093 0.41675 0.33923 0.0
Zn285 Zn 0.42413 0.44523 0.3278 0.0
O286 O 0.4413 0.43373 0.37501 0.0
O287 O 0.41767 0.45299 0.40395 0.0
O288 O 0.44835 0.49011 0.32981 0.0
O289 O 0.42203 0.50743 0.35369 0.0
O290 O 0.39896 0.45692 0.27888 0.0
O291 O 0.42333 0.43565 0.26332 0.0
C292 C 0.43278 0.44142 0.40974 0.0
C293 C 0.40709 0.44474 0.2503 0.0
C294 C 0.35177 0.27704 0.26098 0.0
C295 C 0.32317 0.27405 0.42068 0.0
O296 O 0.36814 0.28512 0.29552 0.0
Zn297 Zn 0.33955 0.27332 0.34304 0.0
O298 O 0.32507 0.26508 0.2671 0.0
Zn299 Zn 0.29552 0.25285 0.32148 0.0
O300 O 0.27938 0.2784 0.31092 0.0
O301 O 0.32411 0.3012 0.33152 0.0
O302 O 0.30278 0.26139 0.39241 0.0
O303 O 0.34851 0.28335 0.40739 0.0
O304 O 0.31955 0.22844 0.34129 0.0
O305 O 0.27569 0.21045 0.31817 0.0
C306 C 0.30169 0.30154 0.32108 0.0
C307 C 0.29585 0.20671 0.3311 0.0
C308 C 0.86108 0.10346 0.33103 0.0
C309 C 0.76622 1.01445 0.3203 0.0
O310 O 0.85734 0.07959 0.31784 0.0
Zn311 Zn 0.81493 0.05698 0.32099 0.0
O312 O 0.83934 0.1054 0.34128 0.0
Zn313 Zn 0.79446 0.0805 0.34284 0.0
O314 O 0.78434 0.07923 0.40721 0.0
O315 O 0.8063 0.05552 0.39191 0.0
O316 O 0.76657 0.0372 0.33095 0.0
O317 O 0.78936 1.0153 0.31012 0.0
O318 O 0.80275 0.07441 0.26679 0.0
O319 O 0.78272 0.09739 0.29546 0.0
C320 C 0.79361 0.06316 0.4203 0.0
C321 C 0.79081 0.08917 0.26083 0.0
C322 C 0.0533 0.76513 0.32132 0.0
C323 C 0.9641 0.77053 0.33193 0.0
O324 O 0.05236 0.78738 0.3113 0.0
Zn325 Zn 1.01063 0.77103 0.32188 0.0
O326 O 1.03058 0.74262 0.33169 0.0
Zn327 Zn 0.98719 0.72697 0.34329 0.0
O328 O 0.97048 0.69845 0.29567 0.0
O329 O 0.99341 0.74155 0.26737 0.0
O330 O 0.96218 0.74684 0.34192 0.0
O331 O 0.98798 0.79074 0.31894 0.0
O332 O 1.01191 0.76366 0.39272 0.0
O333 O 0.98829 0.71791 0.40756 0.0
C334 C 0.97873 0.71485 0.26118 0.0
C335 C 1.00425 0.74325 0.42091 0.0
C336 C 0.45861 0.07639 0.75132 0.0
C337 C 0.45627 0.04787 0.59176 0.0
O338 O 0.47124 0.09679 0.72305 0.0
Zn339 Zn 0.47996 0.10411 0.65217 0.0
O340 O 0.44951 0.05108 0.73809 0.0
Zn341 Zn 0.45974 0.06011 0.67382 0.0
O342 O 0.50464 0.08047 0.67267 0.0
O343 O 0.52236 0.12426 0.64932 0.0
O344 O 0.4483 0.03156 0.62636 0.0
O345 O 0.46802 0.07457 0.59778 0.0
O346 O 0.45426 0.12002 0.64147 0.0
O347 O 0.43166 0.07526 0.66196 0.0
C348 C 0.52628 0.10428 0.66262 0.0
C349 C 0.43118 0.0976 0.65149 0.0
C350 C 0.9911 0.39618 0.75335 0.0
C351 C 1.02025 0.42243 0.59407 0.0
O352 O 0.97078 0.38832 0.72489 0.0
Zn353 Zn 0.96375 0.38969 0.65387 0.0
O354 O 1.01644 0.41244 0.7403 0.0
Zn355 Zn 1.00764 0.41353 0.67595 0.0
O356 O 0.98723 0.438 0.67434 0.0
O357 O 0.94353 0.41182 0.65058 0.0
O358 O 1.03641 0.43073 0.62884 0.0
O359 O 0.99353 0.40743 0.59979 0.0
O360 O 0.9479 0.34809 0.64302 0.0
O361 O 0.99255 0.37028 0.66411 0.0
C362 C 0.96345 0.43576 0.66396 0.0
C363 C 0.97026 0.34744 0.65341 0.0
C364 C 0.63164 0.54152 0.66515 0.0
C365 C 0.72016 0.63665 0.65472 0.0
O366 O 0.62948 0.56312 0.67552 0.0
Zn367 Zn 0.65407 0.60801 0.6772 0.0
O368 O 0.65557 0.54548 0.65185 0.0
Zn369 Zn 0.67784 0.58786 0.65515 0.0
O370 O 0.67919 0.59632 0.72613 0.0
O371 O 0.65519 0.61797 0.74159 0.0
O372 O 0.71947 0.61361 0.64434 0.0
O373 O 0.69734 0.63613 0.6654 0.0
O374 O 0.63697 0.61961 0.63001 0.0
O375 O 0.66019 0.5999 0.60108 0.0
C376 C 0.67139 0.60883 0.75461 0.0
C377 C 0.64525 0.61166 0.59528 0.0
C378 C 0.7278 0.7759 0.74423 0.0
C379 C 0.7563 0.77822 0.58468 0.0
O380 O 0.75449 0.78764 0.73821 0.0
Zn381 Zn 0.78402 0.79956 0.68382 0.0
O382 O 0.71148 0.76793 0.70964 0.0
Zn383 Zn 0.74002 0.77935 0.66217 0.0
O384 O 0.75515 0.75126 0.67403 0.0
O385 O 0.79991 0.77382 0.69452 0.0
O386 O 0.73099 0.76913 0.5979 0.0
O387 O 0.7767 0.79084 0.61295 0.0
O388 O 0.80419 0.84196 0.68666 0.0
O389 O 0.76041 0.82426 0.66332 0.0
C390 C 0.77748 0.75076 0.68451 0.0
C391 C 0.78422 0.84588 0.67337 0.0
C392 C 0.29208 0.96538 0.74074 0.0
C393 C 0.28916 0.99152 0.58145 0.0
O394 O 0.28033 0.98033 0.73499 0.0
Zn395 Zn 0.26828 0.998 0.68097 0.0
O396 O 0.30001 0.9571 0.70598 0.0
Zn397 Zn 0.2884 0.97421 0.65885 0.0
O398 O 0.31655 1.01748 0.67062 0.0
O399 O 0.29405 0.03963 0.69177 0.0
O400 O 0.2983 0.97532 0.59443 0.0
O401 O 0.27668 0.99934 0.60997 0.0
O402 O 0.22591 0.97577 0.68435 0.0
O403 O 0.2435 0.94965 0.66061 0.0
C404 C 0.31708 0.04031 0.68134 0.0
C405 C 0.22193 0.95183 0.67104 0.0
C406 C 0.11543 0.28345 0.67285 0.0
C407 C 1.02714 0.29033 0.68345 0.0
O408 O 0.11769 0.30725 0.66255 0.0
Zn409 Zn 0.09325 0.32769 0.66104 0.0
O410 O 0.09148 0.26354 0.6862 0.0
Zn411 Zn 0.06937 0.28378 0.683 0.0
O412 O 0.06805 0.29089 0.612 0.0
O413 O 0.09219 0.33657 0.5967 0.0
O414 O 1.02776 0.26795 0.69375 0.0
O415 O 0.05 0.31263 0.67282 0.0
O416 O 0.11042 0.35639 0.70825 0.0
O417 O 0.08707 0.31348 0.73717 0.0
C418 C 0.07594 0.31124 0.58359 0.0
C419 C 0.10208 0.34019 0.74297 0.0
C420 C 0.29241 0.33839 0.74204 0.0
C421 C 0.28925 0.3088 0.58286 0.0
O422 O 0.30058 0.35456 0.70726 0.0
Zn423 Zn 0.28866 0.3257 0.66017 0.0
O424 O 0.28035 0.31165 0.73633 0.0
Zn425 Zn 0.26799 0.28177 0.68242 0.0
O426 O 0.29334 0.26548 0.69349 0.0
O427 O 0.31631 0.3101 0.67225 0.0
O428 O 0.27652 0.28859 0.61143 0.0
O429 O 0.29868 0.33423 0.59573 0.0
O430 O 0.24382 0.30589 0.66187 0.0
O431 O 0.22562 0.26214 0.68573 0.0
C432 C 0.31652 0.28767 0.6831 0.0
C433 C 0.22202 0.2823 0.67233 0.0
C434 C 0.72943 0.96811 0.74141 0.0
C435 C 0.75883 0.99427 0.58212 0.0
O436 O 0.71319 0.96001 0.70672 0.0
Zn437 Zn 0.74199 0.97686 0.6595 0.0
O438 O 0.75615 0.98279 0.73556 0.0
Zn439 Zn 0.78597 1.00023 0.68159 0.0
O440 O 0.80223 0.0419 0.69264 0.0
O441 O 0.75759 1.02015 0.67152 0.0
O442 O 0.77906 1.00181 0.61064 0.0
O443 O 0.73341 0.97825 0.59505 0.0
O444 O 0.76178 0.95183 0.66132 0.0
O445 O 0.80557 0.97748 0.68496 0.0
C446 C 0.78001 0.04284 0.68232 0.0
C447 C 0.78538 0.95366 0.67175 0.0
C448 C 1.02493 0.75067 0.68274 0.0
C449 C 0.11422 0.84507 0.67149 0.0
O450 O 1.02599 0.77389 0.69301 0.0
Zn451 Zn 0.06767 0.79915 0.6819 0.0
O452 O 0.04756 0.75081 0.67194 0.0
Zn453 Zn 0.09086 0.7784 0.65972 0.0
O454 O 0.10774 0.76651 0.70683 0.0
O455 O 0.08511 0.7868 0.73587 0.0
O456 O 0.11598 0.82325 0.66115 0.0
O457 O 0.09046 0.8415 0.68495 0.0
O458 O 0.06592 0.79045 0.61098 0.0
O459 O 0.08931 0.7682 0.59533 0.0
C460 C 0.09974 0.77471 0.74159 0.0
C461 C 0.07332 0.77762 0.58246 0.0
C462 C 0.98898 0.60968 0.7534 0.0
C463 C 1.01862 0.61276 0.59428 0.0
O464 O 1.01442 0.61908 0.74056 0.0
Zn465 Zn 1.00589 0.60904 0.67613 0.0
O466 O 0.96878 0.59695 0.72482 0.0
Zn467 Zn 0.96197 0.58839 0.65383 0.0
O468 O 0.9423 0.54603 0.65058 0.0
O469 O 0.98604 0.5642 0.67451 0.0
O470 O 0.99187 0.60072 0.59994 0.0
O471 O 1.03476 0.62091 0.62908 0.0
O472 O 0.99031 0.63671 0.66398 0.0
O473 O 0.9457 0.61376 0.64273 0.0
C474 C 0.96244 0.54241 0.66406 0.0
C475 C 0.9679 0.63693 0.65311 0.0
C476 C 0.45741 0.39308 0.75399 0.0
C477 C 0.45447 0.41943 0.59481 0.0
O478 O 0.448 0.40908 0.74111 0.0
Zn479 Zn 0.45816 0.41059 0.67671 0.0
O480 O 0.4702 0.38564 0.72547 0.0
Zn481 Zn 0.47885 0.38733 0.65454 0.0
O482 O 0.52122 0.41009 0.65144 0.0
O483 O 0.50301 0.43565 0.67522 0.0
O484 O 0.46653 0.40477 0.60057 0.0
O485 O 0.44629 0.42747 0.62956 0.0
O486 O 0.43052 0.36729 0.66455 0.0
O487 O 0.45353 0.34565 0.64348 0.0
C488 C 0.52482 0.43386 0.66487 0.0
C489 C 0.43033 0.34464 0.65375 0.0
C490 C 0.64839 0.04935 0.5946 0.0
C491 C 0.67452 0.07876 0.75391 0.0
O492 O 0.64028 0.03311 0.6293 0.0
Zn493 Zn 0.65714 0.06191 0.67652 0.0
O494 O 0.6631 0.07608 0.60045 0.0
Zn495 Zn 0.68056 0.10589 0.6544 0.0
O496 O 0.72223 0.1221 0.64338 0.0
O497 O 0.70043 0.07746 0.66453 0.0
O498 O 0.6821 0.09899 0.72537 0.0
O499 O 0.6585 0.05334 0.74098 0.0
O500 O 0.63216 0.08175 0.67466 0.0
O501 O 0.65785 0.12553 0.651 0.0
C502 C 0.72313 0.09987 0.65373 0.0
C503 C 0.63401 0.10536 0.66422 0.0
C504 C 1.03201 0.41448 0.04609 0.0
C505 C 1.01303 0.40356 0.00938 0.0
H506 H 0.07531 0.43449 0.06722 0.0
C507 C 1.024 0.41039 0.96458 0.0
H508 H 1.02441 0.40875 0.08085 0.0
C509 C 0.05327 0.42496 0.95662 0.0
C510 C 0.07225 0.43323 0.99336 0.0
H511 H 1.00997 0.40144 0.93553 0.0
H512 H 0.06087 0.42671 0.92188 0.0
C513 C 0.06128 0.42924 0.03814 0.0
C514 C 0.65756 0.62732 0.96591 0.0
C515 C 0.66446 0.62324 0.01066 0.0
H516 H 0.64131 0.64794 0.92334 0.0
C517 C 0.65374 0.63147 0.04745 0.0
H518 H 0.66636 0.62211 0.93679 0.0
C519 C 0.6391 0.6461 0.03961 0.0
C520 C 0.63504 0.65302 0.99486 0.0
H521 H 0.65954 0.62965 0.08217 0.0
H522 H 0.63401 0.655 0.06873 0.0
C523 C 0.64311 0.64214 0.95807 0.0
C524 C 0.43621 0.03566 0.04344 0.0
C525 C 0.44405 0.05465 0.00678 0.0
H526 H 0.4132 0.99234 0.0645 0.0
C527 C 0.43986 0.04373 0.96194 0.0
H528 H 0.43812 0.04322 0.07824 0.0
C529 C 0.42529 1.01447 0.95393 0.0
C530 C 0.41477 0.99545 0.99064 0.0
H531 H 0.44478 0.05776 0.93295 0.0
H532 H 0.41936 1.00688 0.91921 0.0
C533 C 0.42184 1.0064 0.03542 0.0
C534 C 0.05753 0.64537 0.03749 0.0
C535 C 0.06849 0.65214 0.99268 0.0
H536 H 1.02072 0.62936 0.08026 0.0
C537 C 0.04946 0.6415 0.95598 0.0
H538 H 0.0716 0.65412 0.06652 0.0
C539 C 1.02019 0.62705 0.96399 0.0
C540 C 1.00928 0.62306 0.00881 0.0
H541 H 0.05707 0.64721 0.92122 0.0
H542 H 1.00617 0.622 0.93496 0.0
C543 C 1.02827 0.63109 0.04549 0.0
C544 C 0.43607 0.41055 0.04569 0.0
C545 C 0.44401 0.39949 0.00899 0.0
H546 H 0.4132 0.43101 0.06676 0.0
C547 C 0.44007 0.40643 0.96418 0.0
H548 H 0.43779 0.40474 0.08045 0.0
C549 C 0.4257 0.42131 0.9562 0.0
C550 C 0.41514 0.42979 0.99291 0.0
H551 H 0.44505 0.39738 0.93514 0.0
H552 H 0.42 0.42318 0.92144 0.0
C553 C 0.4219 0.42562 0.03771 0.0
C554 C 0.64644 1.01836 0.95658 0.0
C555 C 0.63814 0.99931 0.99322 0.0
H556 H 0.67006 0.06168 0.93564 0.0
C557 C 0.64229 1.01022 0.03807 0.0
H558 H 0.64458 1.0108 0.92179 0.0
C559 C 0.65718 0.03948 0.04614 0.0
C560 C 0.66807 0.05851 0.00949 0.0
H561 H 0.63703 0.99613 0.06706 0.0
H562 H 0.66299 0.04701 0.08091 0.0
C563 C 0.66114 0.04762 0.96465 0.0
C564 C 0.71561 0.7558 0.29252 0.0
C565 C 0.7346 0.7637 0.3292 0.0
H566 H 0.6723 0.73272 0.27144 0.0
C567 C 0.72366 0.75952 0.37402 0.0
H568 H 0.72318 0.75772 0.25773 0.0
C569 C 0.69439 0.7449 0.38201 0.0
C570 C 0.67539 0.73434 0.34529 0.0
H571 H 0.73769 0.76448 0.40303 0.0
H572 H 0.6868 0.73899 0.41674 0.0
C573 C 0.68634 0.7414 0.30051 0.0
C574 C 0.32245 0.96315 0.37787 0.0
C575 C 0.33334 0.95512 0.34106 0.0
H576 H 0.30237 0.98635 0.39918 0.0
C577 C 0.32642 0.95918 0.29632 0.0
H578 H 0.32825 0.96134 0.41259 0.0
C579 C 0.31176 0.97379 0.2885 0.0
C580 C 0.3035 0.98448 0.32531 0.0
H581 H 0.33534 0.95411 0.2672 0.0
H582 H 0.30994 0.9796 0.25378 0.0
C583 C 0.3076 0.97757 0.37005 0.0
C584 C 0.09455 0.35233 0.29101 0.0
C585 C 0.08353 0.33331 0.32767 0.0
H586 H 0.11467 0.39565 0.27002 0.0
C587 C 0.09029 0.34422 0.37251 0.0
H588 H 0.08888 0.34477 0.25622 0.0
C589 C 0.1049 0.37348 0.38055 0.0
C590 C 0.11328 0.39251 0.34387 0.0
H591 H 0.08128 0.33016 0.4015 0.0
H592 H 0.1066 0.38104 0.4153 0.0
C593 C 0.10935 0.38159 0.29906 0.0
C594 C 0.69049 0.96224 0.298 0.0
C595 C 0.67957 0.95807 0.34284 0.0
H596 H 0.72728 0.983 0.25517 0.0
C597 C 0.69862 0.96637 0.37949 0.0
H598 H 0.6764 0.95698 0.26901 0.0
C599 C 0.72788 0.9811 0.37142 0.0
C600 C 0.73877 0.98806 0.32659 0.0
H601 H 0.69105 0.96449 0.41428 0.0
H602 H 0.74193 0.99003 0.40044 0.0
C603 C 0.71975 0.97716 0.28994 0.0
C604 C 0.08663 0.76025 0.37257 0.0
C605 C 0.07976 0.76425 0.32775 0.0
H606 H 0.1034 0.74019 0.41531 0.0
C607 C 0.09094 0.75643 0.29106 0.0
H608 H 0.07749 0.76514 0.40159 0.0
C609 C 0.10607 0.74232 0.29906 0.0
C610 C 0.11018 0.73551 0.34385 0.0
H611 H 0.08519 0.7582 0.25629 0.0
H612 H 0.11156 0.73372 0.27 0.0
C613 C 0.10158 0.74595 0.38056 0.0
C614 C 0.32511 0.37724 0.29881 0.0
C615 C 0.33187 0.38818 0.34363 0.0
H616 H 0.30909 0.34045 0.256 0.0
C617 C 0.3212 0.36915 0.3803 0.0
H618 H 0.33389 0.39133 0.26979 0.0
C619 C 0.30672 0.33988 0.37227 0.0
C620 C 0.30275 0.32898 0.32744 0.0
H621 H 0.3269 0.37674 0.41507 0.0
H622 H 0.30164 0.32585 0.40129 0.0
C623 C 0.31081 0.34798 0.29078 0.0
C624 C 0.36368 0.07765 0.71119 0.0
C625 C 0.34455 0.06661 0.67469 0.0
H626 H 0.40707 0.09783 0.73181 0.0
C627 C 0.35531 0.07334 0.62976 0.0
H628 H 0.35624 0.072 0.74604 0.0
C629 C 0.38454 0.08794 0.62147 0.0
C630 C 0.40368 0.09636 0.65798 0.0
H631 H 0.34116 0.0643 0.60088 0.0
H632 H 0.39199 0.08961 0.58664 0.0
C633 C 0.39291 0.09247 0.7029 0.0
C634 C 0.97968 0.31024 0.62355 0.0
C635 C 0.97144 0.32117 0.66003 0.0
H636 H 1.00306 0.29022 0.60302 0.0
C637 C 0.97534 0.31439 0.70497 0.0
H638 H 0.97799 0.31593 0.5887 0.0
C639 C 0.99001 0.29986 0.71331 0.0
C640 C 1.00089 0.29156 0.67684 0.0
H641 H 0.9701 0.32335 0.73383 0.0
H642 H 0.99569 0.29816 0.74816 0.0
C643 C 0.99414 0.29549 0.6319 0.0
C644 C 0.76783 0.70411 0.71452 0.0
C645 C 0.77622 0.72325 0.678 0.0
H646 H 0.74422 0.66074 0.73514 0.0
C647 C 0.7723 0.71247 0.63309 0.0
H648 H 0.76953 0.71157 0.74934 0.0
C649 C 0.75748 0.68324 0.62481 0.0
C650 C 0.74647 0.66412 0.66132 0.0
H651 H 0.77764 0.72663 0.60418 0.0
H652 H 0.75181 0.67579 0.58996 0.0
C653 C 0.75323 0.67488 0.70624 0.0
C654 C 0.38392 0.30723 0.6236 0.0
C655 C 0.403 0.31816 0.66018 0.0
H656 H 0.34057 0.28725 0.60285 0.0
C657 C 0.39218 0.31129 0.70506 0.0
H658 H 0.3914 0.31298 0.5888 0.0
C659 C 0.36294 0.29677 0.71326 0.0
C660 C 0.34386 0.28856 0.67668 0.0
H661 H 0.4063 0.32023 0.734 0.0
H662 H 0.35546 0.29506 0.74807 0.0
C663 C 0.35468 0.29247 0.6318 0.0
C664 C 0.77093 0.08013 0.71278 0.0
C665 C 0.77907 0.06927 0.67607 0.0
H666 H 0.74756 0.10006 0.73384 0.0
C667 C 0.7751 0.07619 0.63126 0.0
H668 H 0.77268 0.07434 0.74753 0.0
C669 C 0.76039 0.09073 0.62328 0.0
C670 C 0.74954 0.09888 0.65999 0.0
H671 H 0.78027 0.0673 0.60222 0.0
H672 H 0.75462 0.0925 0.58852 0.0
C673 C 0.75644 0.09489 0.70479 0.0
C674 C 0.99155 0.71262 0.63136 0.0
C675 C 0.99842 0.72338 0.67628 0.0
H676 H 0.97532 0.67596 0.58823 0.0
C677 C 0.98746 0.70425 0.71279 0.0
H678 H 1.00052 0.72677 0.60246 0.0
C679 C 0.97268 0.67503 0.7045 0.0
C680 C 0.96878 0.66427 0.65958 0.0
H681 H 0.99321 0.71169 0.74762 0.0
H682 H 0.96744 0.66088 0.7334 0.0
C683 C 0.97702 0.68339 0.62307 0.0
C684 C 0.2513 0.42131 0.02152 0.0
C685 C 0.27553 0.44259 0.99957 0.0
H686 H 0.20789 0.40433 0.03845 0.0
C687 C 0.27361 0.46491 0.97903 0.0
H688 H 0.25169 0.40385 0.03819 0.0
C689 C 0.24783 0.46519 0.97918 0.0
C690 C 0.22341 0.44315 0.99988 0.0
H691 H 0.29174 0.48169 0.96173 0.0
H692 H 0.24684 0.48217 0.96198 0.0
C693 C 0.2259 0.42158 0.02167 0.0
C694 C 0.60351 0.79684 0.98117 0.0
C695 C 0.62583 0.79468 1.00114 0.0
H696 H 0.58675 0.82404 0.96408 0.0
C697 C 0.64777 0.81901 0.02184 0.0
H698 H 0.58624 0.77865 0.96482 0.0
C699 C 0.64807 0.8447 0.0214 0.0
C700 C 0.62644 0.84739 1.00025 0.0
H701 H 0.66528 0.81846 0.03799 0.0
H702 H 0.66579 0.86275 0.03724 0.0
C703 C 0.60381 0.82291 0.98074 0.0
C704 C 0.22378 0.81633 0.02009 0.0
C705 C 0.22087 0.79204 0.99844 0.0
H706 H 0.25016 0.85981 0.0366 0.0
C707 C 0.24515 0.79394 0.97797 0.0
H708 H 0.2059 0.81595 0.03669 0.0
C709 C 0.27119 0.81975 0.97791 0.0
C710 C 0.27354 0.84423 0.99834 0.0
H711 H 0.24384 0.77577 0.96089 0.0
H712 H 0.2892 0.82072 0.9608 0.0
C713 C 0.24945 0.84177 0.02004 0.0
C714 C 0.47585 0.25597 0.02029 0.0
C715 C 0.45298 0.25779 0.00181 0.0
H716 H 0.49342 0.22924 0.03552 0.0
C717 C 0.43079 0.23326 0.98199 0.0
H718 H 0.49334 0.27431 0.03592 0.0
C719 C 0.43085 0.20773 0.98175 0.0
C720 C 0.45309 0.20542 1.00133 0.0
H721 H 0.41285 0.23354 0.96702 0.0
H722 H 0.41294 0.18953 0.96662 0.0
C723 C 0.4759 0.23008 0.02006 0.0
C724 C 0.83731 0.26014 0.02212 0.0
C725 C 0.86193 0.26208 0.00305 0.0
H726 H 0.79308 0.23325 0.03798 0.0
C727 C 0.85954 0.23764 0.98276 0.0
H728 H 0.83821 0.27841 0.03812 0.0
C729 C 0.83398 0.21207 0.98267 0.0
C730 C 0.8095 0.20962 0.00287 0.0
H731 H 0.87771 0.23802 0.96731 0.0
H732 H 0.83364 0.19394 0.96717 0.0
C733 C 0.81138 0.2342 0.02203 0.0
C734 C 0.85592 0.63577 0.98309 0.0
C735 C 0.85832 0.61364 0.00291 0.0
H736 H 0.83002 0.65363 0.96815 0.0
C737 C 0.83371 0.59086 0.02183 0.0
H738 H 0.87408 0.65365 0.96779 0.0
C739 C 0.80778 0.59085 0.02204 0.0
C740 C 0.80589 0.61362 0.00334 0.0
H741 H 0.83461 0.57342 0.03747 0.0
H742 H 0.78948 0.5734 0.03783 0.0
C743 C 0.83036 0.63576 0.9833 0.0
C744 C 0.91013 0.79579 0.31625 0.0
C745 C 0.88546 0.77292 0.33483 0.0
H746 H 0.95441 0.81331 0.30059 0.0
C747 C 0.88777 0.75067 0.35436 0.0
H748 H 0.90929 0.81332 0.30083 0.0
C749 C 0.91333 0.75067 0.35421 0.0
C750 C 0.93787 0.77291 0.33454 0.0
H751 H 0.86955 0.73272 0.36939 0.0
H752 H 0.91361 0.73271 0.36914 0.0
C753 C 0.93605 0.79578 0.31611 0.0
C754 C 0.27072 0.15347 0.31427 0.0
C755 C 0.29343 0.17807 0.33335 0.0
H756 H 0.25338 0.10929 0.29805 0.0
C757 C 0.31555 0.17569 0.35324 0.0
H758 H 0.25329 0.15437 0.29856 0.0
C759 C 0.3156 0.15016 0.35294 0.0
C760 C 0.29354 0.1257 0.33274 0.0
H761 H 0.33338 0.19384 0.36866 0.0
H762 H 0.33347 0.14983 0.36816 0.0
C763 C 0.27077 0.12758 0.31397 0.0
C764 C 0.8921 0.15413 0.35374 0.0
C765 C 0.88972 0.12967 0.33356 0.0
H766 H 0.91797 0.19786 0.36916 0.0
C767 C 0.91435 0.13161 0.3145 0.0
H768 H 0.87393 0.15376 0.36917 0.0
C769 C 0.94026 0.15756 0.31449 0.0
C770 C 0.94213 0.18216 0.33355 0.0
H771 H 0.91346 0.11333 0.29858 0.0
H772 H 0.95857 0.1585 0.29857 0.0
C773 C 0.91765 0.17971 0.35373 0.0
C774 C 0.1022 0.54639 0.31486 0.0
C775 C 0.12363 0.54383 0.337 0.0
H776 H 0.08462 0.57228 0.29799 0.0
C777 C 0.14558 0.5682 0.35796 0.0
H778 H 0.08502 0.52843 0.29787 0.0
C779 C 0.14535 0.594 0.35803 0.0
C780 C 0.12315 0.59599 0.33715 0.0
H781 H 0.16245 0.56714 0.37542 0.0
H782 H 0.16204 0.61208 0.37554 0.0
C783 C 0.10197 0.57182 0.31494 0.0
C784 C 0.52173 0.56891 0.31624 0.0
C785 C 0.52418 0.59306 0.33771 0.0
H786 H 0.49591 0.52533 0.29981 0.0
C787 C 0.49969 0.59077 0.35796 0.0
H788 H 0.53979 0.56958 0.29982 0.0
C789 C 0.47386 0.56474 0.35796 0.0
C790 C 0.47196 0.54041 0.3377 0.0
H791 H 0.50065 0.60882 0.3749 0.0
H792 H 0.45567 0.56348 0.37489 0.0
C793 C 0.49628 0.54325 0.31623 0.0
C794 C 0.49928 0.96771 0.31418 0.0
C795 C 0.47495 0.9458 0.33494 0.0
H796 H 0.54301 0.98569 0.29874 0.0
C797 C 0.47711 0.92349 0.35495 0.0
H798 H 0.49873 0.98522 0.29799 0.0
C799 C 0.50316 0.92377 0.35539 0.0
C800 C 0.52764 0.94638 0.33583 0.0
H801 H 0.45892 0.90624 0.37135 0.0
H802 H 0.50429 0.90672 0.37208 0.0
C803 C 0.52497 0.96799 0.31462 0.0
C804 C 0.60563 0.13007 0.6469 0.0
C805 C 0.60771 0.1076 0.66645 0.0
H806 H 0.57853 0.147 0.63018 0.0
C807 C 0.5833 0.08552 0.68672 0.0
H808 H 0.62388 0.14746 0.63088 0.0
C809 C 0.55762 0.08525 0.68631 0.0
C810 C 0.55503 0.10705 0.66561 0.0
H811 H 0.58378 0.06788 0.70252 0.0
H812 H 0.5395 0.06742 0.70181 0.0
C813 C 0.57959 0.12981 0.64649 0.0
C814 C 0.98231 0.48615 0.68753 0.0
C815 C 0.96064 0.46173 0.66662 0.0
H816 H 0.9996 0.52973 0.70354 0.0
C817 C 0.93802 0.46349 0.64693 0.0
H818 H 1.00002 0.48588 0.70348 0.0
C819 C 0.93778 0.48927 0.64696 0.0
C820 C 0.96014 0.51386 0.66669 0.0
H821 H 0.92094 0.44521 0.63044 0.0
H822 H 0.92051 0.49011 0.63049 0.0
C823 C 0.98206 0.51157 0.68757 0.0
C824 C 0.58111 0.51011 0.68818 0.0
C825 C 0.6056 0.51277 0.66768 0.0
H826 H 0.53745 0.4839 0.70378 0.0
C827 C 0.60385 0.48831 0.64827 0.0
H828 H 0.58135 0.52815 0.70389 0.0
C829 C 0.57803 0.46229 0.6482 0.0
C830 C 0.55338 0.46014 0.66754 0.0
H831 H 0.62218 0.48943 0.6321 0.0
H832 H 0.57722 0.44412 0.63198 0.0
C833 C 0.55565 0.48445 0.68811 0.0
C834 C 0.76549 0.90293 0.64928 0.0
C835 C 0.7876 0.92734 0.66952 0.0
H836 H 0.74736 0.85913 0.63422 0.0
C837 C 0.81007 0.92525 0.68903 0.0
H838 H 0.74786 0.90343 0.63351 0.0
C839 C 0.80978 0.8992 0.68945 0.0
C840 C 0.78701 0.87465 0.67037 0.0
H841 H 0.82747 0.9435 0.70502 0.0
H842 H 0.82698 0.89813 0.70573 0.0
C843 C 0.7652 0.87724 0.6497 0.0
C844 C 0.14269 0.89828 0.68811 0.0
C845 C 0.14051 0.87362 0.66877 0.0
H846 H 0.16987 0.94242 0.70417 0.0
C847 C 0.1648 0.87585 0.64816 0.0
H848 H 0.12454 0.89749 0.70436 0.0
C849 C 0.19047 0.9013 0.64806 0.0
C850 C 0.19316 0.92581 0.66855 0.0
H851 H 0.16422 0.85764 0.6325 0.0
H852 H 0.2085 0.90153 0.63232 0.0
C853 C 0.16873 0.92408 0.688 0.0
C854 C 0.19122 0.30202 0.64909 0.0
C855 C 0.19348 0.28004 0.66982 0.0
H856 H 0.16557 0.32006 0.63339 0.0
C857 C 0.16888 0.25767 0.68952 0.0
H858 H 0.20938 0.31957 0.63315 0.0
C859 C 0.14312 0.25796 0.68965 0.0
C860 C 0.14138 0.28062 0.6701 0.0
H861 H 0.1697 0.24037 0.70587 0.0
H862 H 0.12483 0.24086 0.7061 0.0
C863 C 0.16581 0.30231 0.64923 0.0
C864 C 0.08337 0.41302 0.187 0.0
C865 C 0.10086 0.43995 0.20576 0.0
H866 H 0.07877 0.38291 0.13557 0.0
C867 C 0.12781 0.45704 0.18705 0.0
H868 H 0.06281 0.39908 0.20163 0.0
C869 C 0.13707 0.44766 0.15021 0.0
C870 C 0.11981 0.42075 0.13147 0.0
H871 H 0.14195 0.47766 0.20136 0.0
H872 H 0.15773 0.46168 0.1359 0.0
C873 C 0.09284 0.40343 0.15022 0.0
C874 C 0.61142 0.68465 0.18834 0.0
C875 C 0.62843 0.67469 0.20693 0.0
H876 H 0.60694 0.71014 0.1375 0.0
C877 C 0.65539 0.68417 0.18826 0.0
H878 H 0.59078 0.67815 0.20258 0.0
C879 C 0.66508 0.70335 0.15167 0.0
C880 C 0.64784 0.7131 0.13303 0.0
H881 H 0.66927 0.67748 0.20281 0.0
H882 H 0.68561 0.70981 0.13704 0.0
C883 C 0.62091 0.70343 0.15172 0.0
C884 C 0.36511 0.93147 0.14761 0.0
C885 C 0.35513 0.94846 0.12901 0.0
H886 H 0.39059 0.927 0.19847 0.0
C887 C 0.36458 0.97541 0.14771 0.0
H888 H 0.35863 0.91083 0.13335 0.0
C889 C 0.38375 0.9851 0.18431 0.0
C890 C 0.3935 0.96787 0.20295 0.0
H891 H 0.35788 0.98929 0.13315 0.0
H892 H 0.39019 1.00562 0.19895 0.0
C893 C 0.38387 0.94096 0.18425 0.0
C894 C 0.45749 0.11926 0.85078 0.0
C895 C 0.43062 0.10181 0.8695 0.0
H896 H 0.48771 0.12438 0.79993 0.0
C897 C 0.41353 0.07477 0.85083 0.0
H898 H 0.47135 0.13998 0.86502 0.0
C899 C 0.42333 0.06543 0.81415 0.0
C900 C 0.45025 0.08309 0.79548 0.0
H901 H 0.39305 0.06056 0.8655 0.0
H902 H 0.40956 0.04481 0.79955 0.0
C903 C 0.4671 0.1101 0.81415 0.0
C904 C 0.94813 0.35229 0.85284 0.0
C905 C 0.96561 0.34298 0.8717 0.0
H906 H 0.94299 0.37721 0.80175 0.0
C907 C 0.99267 0.35295 0.85311 0.0
H908 H 0.92739 0.3454 0.86703 0.0
C909 C 1.00202 0.37202 0.81637 0.0
C910 C 0.98433 0.38117 0.79753 0.0
H911 H 1.0069 0.34677 0.86789 0.0
H912 H 1.02266 0.37891 0.80185 0.0
C913 C 0.95729 0.37097 0.8161 0.0
C914 C 0.71489 0.65363 0.85426 0.0
C915 C 0.72478 0.63647 0.87271 0.0
H916 H 0.68893 0.65776 0.80319 0.0
C917 C 0.7153 0.60963 0.85383 0.0
H918 H 0.72121 0.67409 0.86906 0.0
C919 C 0.69652 0.60012 0.81723 0.0
C920 C 0.68642 0.61705 0.79878 0.0
H921 H 0.72212 0.59572 0.86791 0.0
H922 H 0.69015 0.57954 0.80287 0.0
C923 C 0.69573 0.64394 0.81763 0.0
C924 C 0.98964 0.65417 0.85313 0.0
C925 C 0.96253 0.63685 0.87141 0.0
H926 H 1.01998 0.65859 0.80224 0.0
C927 C 0.94533 0.61003 0.85234 0.0
H928 H 1.00367 0.67462 0.86806 0.0
C929 C 0.9548 0.6007 0.81573 0.0
C930 C 0.9819 0.61778 0.79749 0.0
H931 H 0.92456 0.59601 0.86627 0.0
H932 H 0.94071 0.58012 0.80124 0.0
C933 C 0.99931 0.64465 0.81651 0.0
C934 C 0.41268 0.34897 0.85328 0.0
C935 C 0.42998 0.33917 0.87152 0.0
H936 H 0.40837 0.375 0.80258 0.0
C937 C 0.45686 0.3489 0.85261 0.0
H938 H 0.39219 0.34246 0.8681 0.0
C939 C 0.46628 0.36784 0.81623 0.0
C940 C 0.44922 0.37785 0.798 0.0
H941 H 0.47086 0.34215 0.8665 0.0
H942 H 0.48691 0.37441 0.80186 0.0
C943 C 0.42229 0.36828 0.81685 0.0
C944 C 0.71855 0.07825 0.85328 0.0
C945 C 0.72816 0.10527 0.87178 0.0
H946 H 0.69276 0.04794 0.80227 0.0
C947 C 0.71829 0.12233 0.85304 0.0
H948 H 0.72517 0.06434 0.86796 0.0
C949 C 0.69944 0.1128 0.81651 0.0
C950 C 0.68964 0.0858 0.79802 0.0
H951 H 0.72488 0.14302 0.86713 0.0
H952 H 0.69279 0.12679 0.80223 0.0
C953 C 0.69932 0.06853 0.81675 0.0
C954 C 0.62376 0.93431 0.14958 0.0
C955 C 0.65067 0.95151 0.13077 0.0
H956 H 0.59386 0.92952 0.20081 0.0
C957 C 0.6681 0.97844 0.14954 0.0
H958 H 0.60965 0.91369 0.13526 0.0
C959 C 0.65863 0.98794 0.18646 0.0
C960 C 0.6317 0.97052 0.20526 0.0
H961 H 0.68862 0.99246 0.13481 0.0
H962 H 0.67266 1.00845 0.20117 0.0
C963 C 0.61448 0.94362 0.18647 0.0
C964 C 0.08119 0.68441 0.18652 0.0
C965 C 0.09885 0.67532 0.20563 0.0
H966 H 0.07629 0.70933 0.13444 0.0
C967 C 0.1258 0.68522 0.1869 0.0
H968 H 0.06061 0.67775 0.20115 0.0
C969 C 0.13489 0.70354 0.14967 0.0
C970 C 0.11744 0.71283 0.1306 0.0
H971 H 0.14007 0.67901 0.20147 0.0
H972 H 0.15554 0.7102 0.13533 0.0
C973 C 0.09048 0.70316 0.14937 0.0
C974 C 0.38304 0.45424 0.18686 0.0
C975 C 0.39248 0.43688 0.20579 0.0
H976 H 0.35833 0.45931 0.13526 0.0
C977 C 0.38289 0.40995 0.18694 0.0
H978 H 0.38963 0.47486 0.20125 0.0
C979 C 0.36409 0.40061 0.14986 0.0
C980 C 0.35485 0.41819 0.1309 0.0
H981 H 0.38918 0.39582 0.20176 0.0
H982 H 0.35751 0.38007 0.13515 0.0
C983 C 0.36465 0.4451 0.14972 0.0
C984 C 0.79003 0.78674 0.52187 0.0
C985 C 0.76301 0.76988 0.5405 0.0
H986 H 0.81994 0.79101 0.47103 0.0
C987 C 0.74536 0.74297 0.52181 0.0
H988 H 0.80431 0.80735 0.53611 0.0
C989 C 0.75472 0.73318 0.48512 0.0
C990 C 0.78177 0.75029 0.46649 0.0
H991 H 0.72473 0.72919 0.53639 0.0
H992 H 0.74052 0.71272 0.47043 0.0
C993 C 0.79921 0.77715 0.48524 0.0
C994 C 0.33386 0.03496 0.48166 0.0
C995 C 0.31666 0.04481 0.46323 0.0
H996 H 0.33806 1.00906 0.53277 0.0
C997 C 0.28983 0.03532 0.48216 0.0
H998 H 0.35431 0.04128 0.46683 0.0
C999 C 0.28037 1.01657 0.51881 0.0
C1000 C 0.29733 1.00652 0.53725 0.0
H1001 H 0.27589 0.04211 0.46809 0.0
H1002 H 0.25979 1.0102 0.53322 0.0
C1003 C 0.3242 1.01583 0.51834 0.0
C1004 C 0.05085 0.27749 0.52074 0.0
C1005 C 0.06098 0.3045 0.53937 0.0
H1006 H 1.02536 0.24762 0.46973 0.0
C1007 C 0.05179 0.32216 0.52056 0.0
H1008 H 0.05712 0.26321 0.53506 0.0
C1009 C 1.03275 0.31282 0.48378 0.0
C1010 C 1.02284 0.28579 0.46513 0.0
H1011 H 0.05862 0.34278 0.53514 0.0
H1012 H 1.02654 0.32703 0.46903 0.0
C1013 C 1.03219 0.26833 0.48397 0.0
C1014 C 0.28955 0.26515 0.48387 0.0
C1015 C 0.31642 0.2823 0.46491 0.0
H1016 H 0.25961 0.2606 0.53486 0.0
C1017 C 0.33378 0.30937 0.48326 0.0
H1018 H 0.27549 0.24441 0.46988 0.0
C1019 C 0.32426 0.31907 0.51984 0.0
C1020 C 0.29735 0.30171 0.53877 0.0
H1021 H 0.35427 0.32336 0.46841 0.0
H1022 H 0.33824 0.33971 0.53418 0.0
C1023 C 0.28022 0.27466 0.52044 0.0
C1024 C 0.79288 1.0193 0.51958 0.0
C1025 C 0.76587 1.00944 0.53805 0.0
H1026 H 0.82312 0.04483 0.46903 0.0
C1027 C 0.74858 1.01911 0.51936 0.0
H1028 H 0.80689 1.01265 0.53382 0.0
C1029 C 0.7583 0.03839 0.48289 0.0
C1030 C 0.78534 0.04805 0.46441 0.0
H1031 H 0.72798 1.0125 0.53382 0.0
H1032 H 0.74437 0.04499 0.46824 0.0
C1033 C 0.80241 0.03819 0.48312 0.0
C1034 C 0.04853 0.74248 0.51961 0.0
C1035 C 0.05802 0.76938 0.53851 0.0
H1036 H 1.02277 0.71236 0.46835 0.0
C1037 C 0.04788 0.78636 0.52036 0.0
H1038 H 0.05536 0.72862 0.53382 0.0
C1039 C 1.02892 0.77688 0.48402 0.0
C1040 C 1.01928 0.75003 0.46506 0.0
H1041 H 0.05438 0.80696 0.53476 0.0
H1042 H 1.02208 0.79083 0.47018 0.0
C1043 C 1.0292 0.73282 0.48322 0.0
C1044 C 0.10495 0.34359 0.87271 0.0
C1045 C 0.11952 0.37277 0.88076 0.0
H1046 H 0.0881 0.31048 0.82307 0.0
C1047 C 0.129 0.39122 0.84298 0.0
H1048 H 0.09737 0.3288 0.90093 0.0
C1049 C 0.12371 0.38076 0.79825 0.0
C1050 C 0.10879 0.35159 0.7902 0.0
H1051 H 0.14035 0.41387 0.84787 0.0
H1052 H 0.13107 0.39555 0.77004 0.0
C1053 C 0.09963 0.33313 0.82797 0.0
C1054 C 0.67707 0.75179 0.84464 0.0
C1055 C 0.69564 0.76075 0.88227 0.0
H1056 H 0.67252 0.74954 0.77174 0.0
C1057 C 0.72479 0.77536 0.87401 0.0
H1058 H 0.65444 0.7405 0.84969 0.0
C1059 C 0.73512 0.78052 0.82918 0.0
C1060 C 0.71655 0.77123 0.79155 0.0
H1061 H 0.73965 0.78256 0.90212 0.0
H1062 H 0.75775 0.79163 0.8241 0.0
C1063 C 0.6874 0.75698 0.79983 0.0
C1064 C 0.31612 0.9385 0.84075 0.0
C1065 C 0.30704 0.94791 0.87852 0.0
H1066 H 0.31852 0.93649 0.7678 0.0
C1067 C 0.29238 0.96241 0.87045 0.0
H1068 H 0.32745 0.9272 0.84565 0.0
C1069 C 0.2873 0.96773 0.82571 0.0
C1070 C 0.29672 0.95865 0.78795 0.0
H1071 H 0.2851 0.96994 0.89866 0.0
H1072 H 0.27615 0.97921 0.82081 0.0
C1073 C 0.311 0.94379 0.79601 0.0
C1074 C 0.40245 0.11142 0.1584 0.0
C1075 C 0.38375 0.10181 0.12093 0.0
H1076 H 0.40725 0.1139 0.23127 0.0
C1077 C 0.35463 0.08741 0.12947 0.0
H1078 H 0.42507 0.12264 0.15313 0.0
C1079 C 0.34446 0.08241 0.17438 0.0
C1080 C 0.36316 0.09172 0.21185 0.0
H1081 H 0.33967 0.07974 0.1015 0.0
H1082 H 0.32185 0.07101 0.17966 0.0
C1083 C 0.39228 0.10645 0.20331 0.0
C1084 C 0.96137 0.30026 0.20542 0.0
C1085 C 0.97613 0.2859 0.21378 0.0
H1086 H 0.94499 0.31672 0.15544 0.0
C1087 C 0.98531 0.27644 0.1762 0.0
H1088 H 0.95401 0.30782 0.23348 0.0
C1089 C 0.98015 0.28151 0.13135 0.0
C1090 C 0.96571 0.29619 0.12299 0.0
H1091 H 0.99674 0.26525 0.18133 0.0
H1092 H 0.98774 0.27417 0.10329 0.0
C1093 C 0.95624 0.30536 0.16057 0.0
C1094 C 0.76748 0.67447 0.20643 0.0
C1095 C 0.78186 0.70359 0.215 0.0
H1096 H 0.75108 0.64171 0.15622 0.0
C1097 C 0.79142 0.7223 0.17756 0.0
H1098 H 0.75984 0.65949 0.23439 0.0
C1099 C 0.78643 0.71216 0.13264 0.0
C1100 C 0.77173 0.68304 0.12407 0.0
H1101 H 0.80263 0.74492 0.18285 0.0
H1102 H 0.79385 0.72714 0.10469 0.0
C1103 C 0.76247 0.66432 0.16151 0.0
C1104 C 0.9576 0.67461 0.20524 0.0
C1105 C 0.97229 0.70373 0.21378 0.0
H1106 H 0.94133 0.64182 0.15507 0.0
C1107 C 0.98146 0.72243 0.17631 0.0
H1108 H 0.95025 0.65964 0.23321 0.0
C1109 C 0.97636 0.71225 0.1314 0.0
C1110 C 0.96199 0.68313 0.12287 0.0
H1111 H 0.99283 0.74504 0.18158 0.0
H1112 H 0.98392 0.72722 0.10343 0.0
C1113 C 0.95252 0.66443 0.16033 0.0
C1114 C 0.34426 0.27222 0.17611 0.0
C1115 C 0.36294 0.28171 0.2136 0.0
H1116 H 0.33951 0.26991 0.10323 0.0
C1117 C 0.39206 0.29609 0.20511 0.0
H1118 H 0.32165 0.26101 0.18134 0.0
C1119 C 0.40227 0.30117 0.16022 0.0
C1120 C 0.38359 0.29199 0.12272 0.0
H1121 H 0.40702 0.30367 0.2331 0.0
H1122 H 0.42489 0.31256 0.15498 0.0
C1123 C 0.35447 0.27728 0.13122 0.0
C1124 C 0.77168 0.11039 0.20519 0.0
C1125 C 0.78611 0.09569 0.21351 0.0
H1126 H 0.7551 0.12667 0.15526 0.0
C1127 C 0.79561 0.08657 0.17591 0.0
H1128 H 0.7641 0.11771 0.23328 0.0
C1129 C 0.79048 0.0917 0.13107 0.0
C1130 C 0.7757 0.10604 0.12275 0.0
H1131 H 0.80686 0.07521 0.181 0.0
H1132 H 0.79784 0.08415 0.10299 0.0
C1133 C 0.76653 0.11549 0.16036 0.0
C1134 C 0.73669 0.97033 0.8263 0.0
C1135 C 0.71811 0.96149 0.78869 0.0
H1136 H 0.74126 0.97245 0.8992 0.0
C1137 C 0.68896 0.94696 0.79698 0.0
H1138 H 0.75932 0.98155 0.82123 0.0
C1139 C 0.67865 0.94176 0.84181 0.0
C1140 C 0.69723 0.95094 0.87942 0.0
H1141 H 0.67409 0.93986 0.76888 0.0
H1142 H 0.65602 0.93073 0.8469 0.0
C1143 C 0.72637 0.96511 0.87112 0.0
C1144 C 0.12086 0.75529 0.79686 0.0
C1145 C 0.10641 0.76999 0.7888 0.0
H1146 H 0.13708 0.73848 0.84651 0.0
C1147 C 0.09769 0.77976 0.82655 0.0
H1148 H 0.12786 0.74749 0.76866 0.0
C1149 C 0.10296 0.77464 0.8713 0.0
C1150 C 0.11706 0.75958 0.87937 0.0
H1151 H 0.08652 0.79123 0.82165 0.0
H1152 H 0.09573 0.78221 0.8995 0.0
C1153 C 0.1261 0.75013 0.8416 0.0
C1154 C 0.28737 0.33135 0.827 0.0
C1155 C 0.29713 0.34982 0.78924 0.0
H1156 H 0.28494 0.32699 0.89994 0.0
C1157 C 0.31182 0.37899 0.79732 0.0
H1158 H 0.2759 0.30871 0.82209 0.0
C1159 C 0.31699 0.38943 0.84207 0.0
C1160 C 0.30756 0.37096 0.87982 0.0
H1161 H 0.31962 0.39378 0.76912 0.0
H1162 H 0.32864 0.41207 0.84698 0.0
C1163 C 0.2925 0.34179 0.87174 0.0
C1164 C 1.02378 0.42548 0.46435 0.0
C1165 C 0.05296 0.43999 0.45637 0.0
H1166 H 0.99062 0.40864 0.51391 0.0
C1167 C 0.07138 0.44938 0.49419 0.0
H1168 H 1.00902 0.41797 0.4361 0.0
C1169 C 0.06088 0.44407 0.5389 0.0
C1170 C 1.0317 0.42919 0.54688 0.0
H1171 H 0.09404 0.46069 0.48936 0.0
H1172 H 0.07565 0.45135 0.56715 0.0
C1173 C 1.01327 0.42013 0.50907 0.0
C1174 C 0.64766 0.60688 0.51031 0.0
C1175 C 0.63855 0.61629 0.54805 0.0
H1176 H 0.64991 0.60469 0.43737 0.0
C1177 C 0.62368 0.63057 0.53995 0.0
H1178 H 0.65914 0.59574 0.51525 0.0
C1179 C 0.61842 0.63568 0.4952 0.0
C1180 C 0.62786 0.62661 0.45746 0.0
H1181 H 0.61637 0.63808 0.56814 0.0
H1182 H 0.60711 0.64701 0.49027 0.0
C1183 C 0.64236 0.61197 0.46556 0.0
C1184 C 0.46088 0.05518 0.5068 0.0
C1185 C 0.45158 0.03662 0.54445 0.0
H1186 H 0.46291 0.0597 0.43387 0.0
C1187 C 0.43731 1.00747 0.53618 0.0
H1188 H 0.472 0.07781 0.51187 0.0
C1189 C 0.43211 0.99713 0.49138 0.0
C1190 C 0.44108 1.01569 0.45374 0.0
H1191 H 0.42987 0.9926 0.56429 0.0
H1192 H 0.42081 0.9745 0.48634 0.0
C1193 C 0.45571 0.04484 0.46198 0.0
C1194 C 0.6454 0.0463 0.46489 0.0
C1195 C 0.63121 1.01716 0.45659 0.0
H1196 H 0.66187 0.07924 0.51478 0.0
C1197 C 0.62202 0.99858 0.49421 0.0
H1198 H 0.65275 0.06119 0.43681 0.0
C1199 C 0.62723 1.00889 0.53904 0.0
C1200 C 0.64177 0.03804 0.54733 0.0
H1201 H 0.61097 0.97595 0.48912 0.0
H1202 H 0.62011 0.99402 0.56713 0.0
C1203 C 0.65063 0.05661 0.50971 0.0
C1204 C 1.01166 0.60773 0.5093 0.0
C1205 C 1.03009 0.61747 0.54711 0.0
H1206 H 1.00738 0.60533 0.43634 0.0
C1207 C 0.05927 0.63213 0.53911 0.0
H1208 H 0.98901 0.59629 0.51416 0.0
C1209 C 0.06976 0.6373 0.49439 0.0
C1210 C 0.05132 0.62789 0.45658 0.0
H1211 H 0.07403 0.6399 0.56735 0.0
H1212 H 0.09241 0.64892 0.48953 0.0
C1213 C 1.02215 0.61287 0.46459 0.0
C1214 C 0.45434 0.42252 0.4651 0.0
C1215 C 0.43934 0.43665 0.45699 0.0
H1216 H 0.47091 0.40608 0.5148 0.0
C1217 C 0.42993 0.44576 0.49472 0.0
H1218 H 0.46189 0.41523 0.43692 0.0
C1219 C 0.43509 0.44055 0.53948 0.0
C1220 C 0.44975 0.42606 0.54759 0.0
H1221 H 0.41831 0.45677 0.48978 0.0
H1222 H 0.42732 0.44761 0.56766 0.0
C1223 C 0.45947 0.41727 0.50986 0.0
loop_
_geom_bond_atom_site_label_1
_geom_bond_atom_site_label_2
_geom_bond_distance
_geom_bond_site_symmetry_2
_ccdc_geom_bond_type
C0 O2 1.247 . S
C0 O4 1.258 . S
C1 O8 1.247 . S
C1 O9 1.258 . S
O2 C0 1.247 . S
O2 Zn3 2.028 1_554 S
Zn3 O2 2.028 1_556 S
Zn3 O7 2.035 . S
Zn3 O9 2.035 . S
Zn3 O10 2.028 . S
O4 C0 1.258 . S
O4 Zn5 2.035 . S
Zn5 O4 2.035 . S
Zn5 O6 2.028 . S
Zn5 O8 2.028 1_554 S
Zn5 O11 2.035 . S
O6 Zn5 2.028 . S
O6 C12 1.247 1_554 S
O7 Zn3 2.035 . S
O7 C12 1.258 . S
O8 C1 1.247 . S
O8 Zn5 2.028 1_556 S
O9 C1 1.258 . S
O9 Zn3 2.035 . S
O10 Zn3 2.028 . S
O10 C13 1.247 1_556 S
O11 Zn5 2.035 . S
O11 C13 1.258 . S
C12 O6 1.247 1_556 S
C12 O7 1.258 . S
C13 O10 1.247 1_554 S
C13 O11 1.258 . S
C14 O16 1.247 . S
C14 O18 1.258 . S
C15 O22 1.247 . S
C15 O23 1.258 . S
O16 C14 1.247 . S
O16 Zn17 2.028 . S
Zn17 O16 2.028 . S
Zn17 O21 2.035 . S
Zn17 O23 2.035 1_556 S
Zn17 O24 2.028 . S
O18 C14 1.258 . S
O18 Zn19 2.035 1_556 S
Zn19 O18 2.035 1_554 S
Zn19 O20 2.028 . S
Zn19 O22 2.028 . S
Zn19 O25 2.035 . S
O20 Zn19 2.028 . S
O20 C26 1.247 . S
O21 Zn17 2.035 . S
O21 C26 1.258 1_556 S
O22 C15 1.247 . S
O22 Zn19 2.028 . S
O23 C15 1.258 . S
O23 Zn17 2.035 1_554 S
O24 Zn17 2.028 . S
O24 C27 1.247 . S
O25 Zn19 2.035 . S
O25 C27 1.258 1_554 S
C26 O20 1.247 . S
C26 O21 1.258 1_554 S
C27 O24 1.247 . S
C27 O25 1.258 1_556 S
C28 O30 1.247 1_556 S
C28 O32 1.258 . S
C29 O36 1.247 1_554 S
C29 O37 1.258 . S
O30 C28 1.247 1_554 S
O30 Zn31 2.028 . S
Zn31 O30 2.028 . S
Zn31 O35 2.035 . S
Zn31 O37 2.035 . S
Zn31 O38 2.028 1_554 S
O32 C28 1.258 . S
O32 Zn33 2.035 . S
Zn33 O32 2.035 . S
Zn33 O34 2.028 1_556 S
Zn33 O36 2.028 . S
Zn33 O39 2.035 . S
O34 Zn33 2.028 1_554 S
O34 C40 1.247 . S
O35 Zn31 2.035 . S
O35 C40 1.258 . S
O36 C29 1.247 1_556 S
O36 Zn33 2.028 . S
O37 C29 1.258 . S
O37 Zn31 2.035 . S
O38 Zn31 2.028 1_556 S
O38 C41 1.247 . S
O39 Zn33 2.035 . S
O39 C41 1.258 . S
C40 O34 1.247 . S
C40 O35 1.258 . S
C41 O38 1.247 . S
C41 O39 1.258 . S
C42 O44 1.247 . S
C42 O46 1.258 1_556 S
C43 O50 1.247 . S
C43 O51 1.258 1_554 S
O44 C42 1.247 . S
O44 Zn45 2.028 . S
Zn45 O44 2.028 . S
Zn45 O49 2.035 1_556 S
Zn45 O51 2.035 . S
Zn45 O52 2.028 . S
O46 C42 1.258 1_554 S
O46 Zn47 2.035 . S
Zn47 O46 2.035 . S
Zn47 O48 2.028 . S
Zn47 O50 2.028 . S
Zn47 O53 2.035 1_554 S
O48 Zn47 2.028 . S
O48 C54 1.247 . S
O49 Zn45 2.035 1_554 S
O49 C54 1.258 . S
O50 C43 1.247 . S
O50 Zn47 2.028 . S
O51 C43 1.258 1_556 S
O51 Zn45 2.035 . S
O52 Zn45 2.028 . S
O52 C55 1.247 . S
O53 Zn47 2.035 1_556 S
O53 C55 1.258 . S
C54 O48 1.247 . S
C54 O49 1.258 . S
C55 O52 1.247 . S
C55 O53 1.258 . S
C56 O58 1.247 . S
C56 O60 1.258 . S
C57 O64 1.247 . S
C57 O65 1.258 . S
O58 C56 1.247 . S
O58 Zn59 2.028 . S
Zn59 O58 2.028 . S
Zn59 O63 2.035 . S
Zn59 O65 2.035 1_554 S
Zn59 O66 2.028 . S
O60 C56 1.258 . S
O60 Zn61 2.035 1_554 S
Zn61 O60 2.035 1_556 S
Zn61 O62 2.028 . S
Zn61 O64 2.028 . S
Zn61 O67 2.035 . S
O62 Zn61 2.028 . S
O62 C68 1.247 . S
O63 Zn59 2.035 . S
O63 C68 1.258 1_554 S
O64 C57 1.247 . S
O64 Zn61 2.028 . S
O65 C57 1.258 . S
O65 Zn59 2.035 1_556 S
O66 Zn59 2.028 . S
O66 C69 1.247 . S
O67 Zn61 2.035 . S
O67 C69 1.258 1_556 S
C68 O62 1.247 . S
C68 O63 1.258 1_556 S
C69 O66 1.247 . S
C69 O67 1.258 1_554 S
C70 O72 1.247 . S
C70 O74 1.258 . S
C71 O78 1.247 . S
C71 O79 1.258 . S
O72 C70 1.247 . S
O72 Zn73 2.028 1_556 S
Zn73 O72 2.028 1_554 S
Zn73 O77 2.035 . S
Zn73 O79 2.035 . S
Zn73 O80 2.028 . S
O74 C70 1.258 . S
O74 Zn75 2.035 . S
Zn75 O74 2.035 . S
Zn75 O76 2.028 . S
Zn75 O78 2.028 1_556 S
Zn75 O81 2.035 . S
O76 Zn75 2.028 . S
O76 C82 1.247 1_556 S
O77 Zn73 2.035 . S
O77 C82 1.258 . S
O78 C71 1.247 . S
O78 Zn75 2.028 1_554 S
O79 C71 1.258 . S
O79 Zn73 2.035 . S
O80 Zn73 2.028 . S
O80 C83 1.247 1_554 S
O81 Zn75 2.035 . S
O81 C83 1.258 . S
C82 O76 1.247 1_554 S
C82 O77 1.258 . S
C83 O80 1.247 1_556 S
C83 O81 1.258 . S
C84 O86 1.247 1_556 S
C84 O88 1.258 . S
C85 O92 1.247 1_554 S
C85 O93 1.258 . S
O86 C84 1.247 1_554 S
O86 Zn87 2.028 . S
Zn87 O86 2.028 . S
Zn87 O91 2.035 . S
Zn87 O93 2.035 . S
Zn87 O94 2.028 1_554 S
O88 C84 1.258 . S
O88 Zn89 2.035 . S
Zn89 O88 2.035 . S
Zn89 O90 2.028 1_556 S
Zn89 O92 2.028 . S
Zn89 O95 2.035 . S
O90 Zn89 2.028 1_554 S
O90 C96 1.247 . S
O91 Zn87 2.035 . S
O91 C96 1.258 . S
O92 C85 1.247 1_556 S
O92 Zn89 2.028 . S
O93 C85 1.258 . S
O93 Zn87 2.035 . S
O94 Zn87 2.028 1_556 S
O94 C97 1.247 . S
O95 Zn89 2.035 . S
O95 C97 1.258 . S
C96 O90 1.247 . S
C96 O91 1.258 . S
C97 O94 1.247 . S
C97 O95 1.258 . S
C98 O100 1.247 . S
C98 O102 1.258 . S
C99 O106 1.247 . S
C99 O107 1.258 . S
O100 C98 1.247 . S
O100 Zn101 2.028 1_554 S
Zn101 O100 2.028 1_556 S
Zn101 O105 2.035 . S
Zn101 O107 2.035 . S
Zn101 O108 2.028 . S
O102 C98 1.258 . S
O102 Zn103 2.035 . S
Zn103 O102 2.035 . S
Zn103 O104 2.028 . S
Zn103 O106 2.028 1_554 S
Zn103 O109 2.035 . S
O104 Zn103 2.028 . S
O104 C110 1.247 1_554 S
O105 Zn101 2.035 . S
O105 C110 1.258 . S
O106 C99 1.247 . S
O106 Zn103 2.028 1_556 S
O107 C99 1.258 . S
O107 Zn101 2.035 . S
O108 Zn101 2.028 . S
O108 C111 1.247 1_556 S
O109 Zn103 2.035 . S
O109 C111 1.258 . S
C110 O104 1.247 1_556 S
C110 O105 1.258 . S
C111 O108 1.247 1_554 S
C111 O109 1.258 . S
C112 O114 1.247 . S
C112 O116 1.258 . S
C113 O120 1.247 . S
C113 O121 1.258 . S
O114 C112 1.247 . S
O114 Zn115 2.028 1_554 S
Zn115 O114 2.028 1_556 S
Zn115 O119 2.035 . S
Zn115 O121 2.035 . S
Zn115 O122 2.028 . S
O116 C112 1.258 . S
O116 Zn117 2.035 . S
Zn117 O116 2.035 . S
Zn117 O118 2.028 . S
Zn117 O120 2.028 1_554 S
Zn117 O123 2.035 . S
O118 Zn117 2.028 . S
O118 C124 1.247 1_554 S
O119 Zn115 2.035 . S
O119 C124 1.258 . S
O120 C113 1.247 . S
O120 Zn117 2.028 1_556 S
O121 C113 1.258 . S
O121 Zn115 2.035 . S
O122 Zn115 2.028 . S
O122 C125 1.247 1_556 S
O123 Zn117 2.035 . S
O123 C125 1.258 . S
C124 O118 1.247 1_556 S
C124 O119 1.258 . S
C125 O122 1.247 1_554 S
C125 O123 1.258 . S
C126 O128 1.247 . S
C126 O130 1.258 . S
C127 O134 1.247 . S
C127 O135 1.258 . S
O128 C126 1.247 . S
O128 Zn129 2.028 . S
Zn129 O128 2.028 . S
Zn129 O133 2.035 . S
Zn129 O135 2.035 1_554 S
Zn129 O136 2.028 . S
O130 C126 1.258 . S
O130 Zn131 2.035 1_554 S
Zn131 O130 2.035 1_556 S
Zn131 O132 2.028 . S
Zn131 O134 2.028 . S
Zn131 O137 2.035 . S
O132 Zn131 2.028 . S
O132 C138 1.247 . S
O133 Zn129 2.035 . S
O133 C138 1.258 1_554 S
O134 C127 1.247 . S
O134 Zn131 2.028 . S
O135 C127 1.258 . S
O135 Zn129 2.035 1_556 S
O136 Zn129 2.028 . S
O136 C139 1.247 . S
O137 Zn131 2.035 . S
O137 C139 1.258 1_556 S
C138 O132 1.247 . S
C138 O133 1.258 1_556 S
C139 O136 1.247 . S
C139 O137 1.258 1_554 S
C140 O142 1.247 . S
C140 O144 1.258 . S
C141 O148 1.247 . S
C141 O149 1.258 . S
O142 C140 1.247 . S
O142 Zn143 2.028 . S
Zn143 O142 2.028 . S
Zn143 O147 2.035 . S
Zn143 O149 2.035 1_554 S
Zn143 O150 2.028 . S
O144 C140 1.258 . S
O144 Zn145 2.035 1_554 S
Zn145 O144 2.035 1_556 S
Zn145 O146 2.028 . S
Zn145 O148 2.028 . S
Zn145 O151 2.035 . S
O146 Zn145 2.028 . S
O146 C152 1.247 . S
O147 Zn143 2.035 . S
O147 C152 1.258 1_554 S
O148 C141 1.247 . S
O148 Zn145 2.028 . S
O149 C141 1.258 . S
O149 Zn143 2.035 1_556 S
O150 Zn143 2.028 . S
O150 C153 1.247 . S
O151 Zn145 2.035 . S
O151 C153 1.258 1_556 S
C152 O146 1.247 . S
C152 O147 1.258 1_556 S
C153 O150 1.247 . S
C153 O151 1.258 1_554 S
C154 O156 1.247 . S
C154 O158 1.258 . S
C155 O162 1.247 . S
C155 O163 1.258 . S
O156 C154 1.247 . S
O156 Zn157 2.028 1_556 S
Zn157 O156 2.028 1_554 S
Zn157 O161 2.035 . S
Zn157 O163 2.035 . S
Zn157 O164 2.028 . S
O158 C154 1.258 . S
O158 Zn159 2.035 . S
Zn159 O158 2.035 . S
Zn159 O160 2.028 . S
Zn159 O162 2.028 1_556 S
Zn159 O165 2.035 . S
O160 Zn159 2.028 . S
O160 C166 1.247 1_556 S
O161 Zn157 2.035 . S
O161 C166 1.258 . S
O162 C155 1.247 . S
O162 Zn159 2.028 1_554 S
O163 C155 1.258 . S
O163 Zn157 2.035 . S
O164 Zn157 2.028 . S
O164 C167 1.247 1_554 S
O165 Zn159 2.035 . S
O165 C167 1.258 . S
C166 O160 1.247 1_554 S
C166 O161 1.258 . S
C167 O164 1.247 1_556 S
C167 O165 1.258 . S
C168 O170 1.247 . S
C168 O172 1.258 . S
C169 O176 1.247 . S
C169 O177 1.258 . S
O170 C168 1.247 . S
O170 Zn171 2.028 . S
Zn171 O170 2.028 . S
Zn171 O175 2.035 . S
Zn171 O177 2.035 . S
Zn171 O178 2.028 . S
O172 C168 1.258 . S
O172 Zn173 2.035 . S
Zn173 O172 2.035 . S
Zn173 O174 2.028 . S
Zn173 O176 2.028 . S
Zn173 O179 2.035 . S
O174 Zn173 2.028 . S
O174 C180 1.247 . S
O175 Zn171 2.035 . S
O175 C180 1.258 . S
O176 C169 1.247 . S
O176 Zn173 2.028 . S
O177 C169 1.258 . S
O177 Zn171 2.035 . S
O178 Zn171 2.028 . S
O178 C181 1.247 . S
O179 Zn173 2.035 . S
O179 C181 1.258 . S
C180 O174 1.247 . S
C180 O175 1.258 . S
C181 O178 1.247 . S
C181 O179 1.258 . S
C182 O184 1.247 . S
C182 O186 1.258 . S
C183 O190 1.247 . S
C183 O191 1.258 . S
O184 C182 1.247 . S
O184 Zn185 2.028 . S
Zn185 O184 2.028 . S
Zn185 O189 2.035 . S
Zn185 O191 2.035 . S
Zn185 O192 2.028 1_545 S
O186 C182 1.258 . S
O186 Zn187 2.035 . S
Zn187 O186 2.035 . S
Zn187 O188 2.028 . S
Zn187 O190 2.028 . S
Zn187 O193 2.035 . S
O188 Zn187 2.028 . S
O188 C194 1.247 . S
O189 Zn185 2.035 . S
O189 C194 1.258 . S
O190 C183 1.247 . S
O190 Zn187 2.028 . S
O191 C183 1.258 . S
O191 Zn185 2.035 . S
O192 Zn185 2.028 1_565 S
O192 C195 1.257 1_565 S
O193 Zn187 2.035 . S
O193 C195 1.289 . S
C194 O188 1.247 . S
C194 O189 1.258 . S
C195 O192 1.257 1_545 S
C195 O193 1.289 . S
C196 O198 1.247 . S
C196 O200 1.258 . S
C197 O204 1.247 . S
C197 O205 1.258 . S
O198 C196 1.247 . S
O198 Zn199 2.028 . S
Zn199 O198 2.028 . S
Zn199 O203 2.035 1_655 S
Zn199 O205 2.035 . S
Zn199 O206 2.028 . S
O200 C196 1.258 . S
O200 Zn201 2.035 . S
Zn201 O200 2.035 . S
Zn201 O202 2.028 . S
Zn201 O204 2.028 . S
Zn201 O207 2.035 . S
O202 Zn201 2.028 . S
O202 C208 1.247 . S
O203 Zn199 2.035 1_455 S
O203 C208 1.258 1_455 S
O204 C197 1.247 . S
O204 Zn201 2.028 . S
O205 C197 1.258 . S
O205 Zn199 2.035 . S
O206 Zn199 2.028 . S
O206 C209 1.247 . S
O207 Zn201 2.035 . S
O207 C209 1.258 . S
C208 O202 1.247 . S
C208 O203 1.258 1_655 S
C209 O206 1.247 . S
C209 O207 1.258 . S
C210 O212 1.247 . S
C210 O214 1.258 . S
C211 O218 1.247 . S
C211 O219 1.258 . S
O212 C210 1.247 . S
O212 Zn213 2.028 . S
Zn213 O212 2.028 . S
Zn213 O217 2.035 . S
Zn213 O219 2.035 . S
Zn213 O220 2.028 . S
O214 C210 1.258 . S
O214 Zn215 2.035 . S
Zn215 O214 2.035 . S
Zn215 O216 2.028 . S
Zn215 O218 2.028 . S
Zn215 O221 2.035 . S
O216 Zn215 2.028 . S
O216 C222 1.247 . S
O217 Zn213 2.035 . S
O217 C222 1.258 . S
O218 C211 1.247 . S
O218 Zn215 2.028 . S
O219 C211 1.258 . S
O219 Zn213 2.035 . S
O220 Zn213 2.028 . S
O220 C223 1.247 . S
O221 Zn215 2.035 . S
O221 C223 1.258 . S
C222 O216 1.247 . S
C222 O217 1.258 . S
C223 O220 1.247 . S
C223 O221 1.258 . S
C224 O226 1.247 . S
C224 O228 1.258 . S
C225 O232 1.247 . S
C225 O233 1.258 . S
O226 C224 1.247 . S
O226 Zn227 2.028 . S
Zn227 O226 2.028 . S
Zn227 O231 2.035 . S
Zn227 O233 2.035 . S
Zn227 O234 2.028 . S
O228 C224 1.258 . S
O228 Zn229 2.035 . S
Zn229 O228 2.035 . S
Zn229 O230 2.028 . S
Zn229 O232 2.028 . S
Zn229 O235 2.035 . S
O230 Zn229 2.028 . S
O230 C236 1.247 . S
O231 Zn227 2.035 . S
O231 C236 1.258 . S
O232 C225 1.247 . S
O232 Zn229 2.028 . S
O233 C225 1.258 . S
O233 Zn227 2.035 . S
O234 Zn227 2.028 . S
O234 C237 1.247 . S
O235 Zn229 2.035 . S
O235 C237 1.258 . S
C236 O230 1.247 . S
C236 O231 1.258 . S
C237 O234 1.247 . S
C237 O235 1.258 . S
C238 O240 1.247 . S
C238 O242 1.258 . S
C239 O246 1.247 . S
C239 O247 1.258 . S
O240 C238 1.247 . S
O240 Zn241 2.028 . S
Zn241 O240 2.028 . S
Zn241 O245 2.035 . S
Zn241 O247 2.035 . S
Zn241 O248 2.028 . S
O242 C238 1.258 . S
O242 Zn243 2.035 . S
Zn243 O242 2.035 . S
Zn243 O244 2.028 . S
Zn243 O246 2.028 . S
Zn243 O249 2.035 . S
O244 Zn243 2.028 . S
O244 C250 1.247 . S
O245 Zn241 2.035 . S
O245 C250 1.258 . S
O246 C239 1.247 . S
O246 Zn243 2.028 . S
O247 C239 1.258 . S
O247 Zn241 2.035 . S
O248 Zn241 2.028 . S
O248 C251 1.247 . S
O249 Zn243 2.035 . S
O249 C251 1.258 . S
C250 O244 1.247 . S
C250 O245 1.258 . S
C251 O248 1.247 . S
C251 O249 1.258 . S
C252 O254 1.247 . S
C252 O256 1.258 . S
C253 O260 1.247 . S
C253 O261 1.258 . S
O254 C252 1.247 . S
O254 Zn255 2.028 . S
Zn255 O254 2.028 . S
Zn255 O259 2.035 . S
Zn255 O261 2.035 . S
Zn255 O262 2.028 . S
O256 C252 1.258 . S
O256 Zn257 2.035 . S
Zn257 O256 2.035 . S
Zn257 O258 2.028 . S
Zn257 O260 2.028 . S
Zn257 O263 2.035 . S
O258 Zn257 2.028 . S
O258 C264 1.247 . S
O259 Zn255 2.035 . S
O259 C264 1.258 . S
O260 C253 1.247 . S
O260 Zn257 2.028 . S
O261 C253 1.258 . S
O261 Zn255 2.035 . S
O262 Zn255 2.028 . S
O262 C265 1.247 . S
O263 Zn257 2.035 . S
O263 C265 1.258 . S
C264 O258 1.247 . S
C264 O259 1.258 . S
C265 O262 1.247 . S
C265 O263 1.258 . S
C266 O268 1.247 . S
C266 O270 1.258 . S
C267 O274 1.247 . S
C267 O275 1.258 . S
O268 C266 1.247 . S
O268 Zn269 2.028 . S
Zn269 O268 2.028 . S
Zn269 O273 2.035 . S
Zn269 O275 2.035 . S
Zn269 O276 2.028 . S
O270 C266 1.258 . S
O270 Zn271 2.035 . S
Zn271 O270 2.035 . S
Zn271 O272 2.028 . S
Zn271 O274 2.028 . S
Zn271 O277 2.035 . S
O272 Zn271 2.028 . S
O272 C278 1.247 . S
O273 Zn269 2.035 . S
O273 C278 1.258 . S
O274 C267 1.247 . S
O274 Zn271 2.028 . S
O275 C267 1.258 . S
O275 Zn269 2.035 . S
O276 Zn269 2.028 . S
O276 C279 1.247 . S
O277 Zn271 2.035 . S
O277 C279 1.258 . S
C278 O272 1.247 . S
C278 O273 1.258 . S
C279 O276 1.247 . S
C279 O277 1.258 . S
C280 O282 1.247 . S
C280 O284 1.258 . S
C281 O288 1.247 . S
C281 O289 1.258 . S
O282 C280 1.247 . S
O282 Zn283 2.028 . S
Zn283 O282 2.028 . S
Zn283 O287 2.035 . S
Zn283 O289 2.035 . S
Zn283 O290 2.028 . S
O284 C280 1.258 . S
O284 Zn285 2.035 . S
Zn285 O284 2.035 . S
Zn285 O286 2.028 . S
Zn285 O288 2.028 . S
Zn285 O291 2.035 . S
O286 Zn285 2.028 . S
O286 C292 1.247 . S
O287 Zn283 2.035 . S
O287 C292 1.258 . S
O288 C281 1.247 . S
O288 Zn285 2.028 . S
O289 C281 1.258 . S
O289 Zn283 2.035 . S
O290 Zn283 2.028 . S
O290 C293 1.247 . S
O291 Zn285 2.035 . S
O291 C293 1.258 . S
C292 O286 1.247 . S
C292 O287 1.258 . S
C293 O290 1.247 . S
C293 O291 1.258 . S
C294 O296 1.247 . S
C294 O298 1.258 . S
C295 O302 1.247 . S
C295 O303 1.258 . S
O296 C294 1.247 . S
O296 Zn297 2.028 . S
Zn297 O296 2.028 . S
Zn297 O301 2.035 . S
Zn297 O303 2.035 . S
Zn297 O304 2.028 . S
O298 C294 1.258 . S
O298 Zn299 2.035 . S
Zn299 O298 2.035 . S
Zn299 O300 2.028 . S
Zn299 O302 2.028 . S
Zn299 O305 2.035 . S
O300 Zn299 2.028 . S
O300 C306 1.247 . S
O301 Zn297 2.035 . S
O301 C306 1.258 . S
O302 C295 1.247 . S
O302 Zn299 2.028 . S
O303 C295 1.258 . S
O303 Zn297 2.035 . S
O304 Zn297 2.028 . S
O304 C307 1.247 . S
O305 Zn299 2.035 . S
O305 C307 1.258 . S
C306 O300 1.247 . S
C306 O301 1.258 . S
C307 O304 1.247 . S
C307 O305 1.258 . S
C308 O310 1.247 . S
C308 O312 1.258 . S
C309 O316 1.247 . S
C309 O317 1.258 1_545 S
O310 C308 1.247 . S
O310 Zn311 2.028 . S
Zn311 O310 2.028 . S
Zn311 O315 2.035 . S
Zn311 O317 2.035 1_545 S
Zn311 O318 2.028 . S
O312 C308 1.258 . S
O312 Zn313 2.035 . S
Zn313 O312 2.035 . S
Zn313 O314 2.028 . S
Zn313 O316 2.028 . S
Zn313 O319 2.035 . S
O314 Zn313 2.028 . S
O314 C320 1.247 . S
O315 Zn311 2.035 . S
O315 C320 1.258 . S
O316 C309 1.247 . S
O316 Zn313 2.028 . S
O317 C309 1.258 1_565 S
O317 Zn311 2.035 1_565 S
O318 Zn311 2.028 . S
O318 C321 1.247 . S
O319 Zn313 2.035 . S
O319 C321 1.258 . S
C320 O314 1.247 . S
C320 O315 1.258 . S
C321 O318 1.247 . S
C321 O319 1.258 . S
C322 O324 1.257 1_655 S
C322 O326 1.289 . S
C323 O330 1.247 . S
C323 O331 1.258 . S
O324 C322 1.257 1_455 S
O324 Zn325 2.028 1_455 S
Zn325 O324 2.028 1_655 S
Zn325 O329 2.035 . S
Zn325 O331 2.035 . S
Zn325 O332 2.028 . S
O326 C322 1.289 . S
O326 Zn327 2.035 . S
Zn327 O326 2.035 . S
Zn327 O328 2.028 . S
Zn327 O330 2.028 . S
Zn327 O333 2.035 . S
O328 Zn327 2.028 . S
O328 C334 1.247 . S
O329 Zn325 2.035 . S
O329 C334 1.258 . S
O330 C323 1.247 . S
O330 Zn327 2.028 . S
O331 C323 1.258 . S
O331 Zn325 2.035 . S
O332 Zn325 2.028 . S
O332 C335 1.247 . S
O333 Zn327 2.035 . S
O333 C335 1.258 . S
C334 O328 1.247 . S
C334 O329 1.258 . S
C335 O332 1.247 . S
C335 O333 1.258 . S
C336 O338 1.247 . S
C336 O340 1.258 . S
C337 O344 1.247 . S
C337 O345 1.258 . S
O338 C336 1.247 . S
O338 Zn339 2.028 . S
Zn339 O338 2.028 . S
Zn339 O343 2.035 . S
Zn339 O345 2.035 . S
Zn339 O346 2.028 . S
O340 C336 1.258 . S
O340 Zn341 2.035 . S
Zn341 O340 2.035 . S
Zn341 O342 2.028 . S
Zn341 O344 2.028 . S
Zn341 O347 2.035 . S
O342 Zn341 2.028 . S
O342 C348 1.247 . S
O343 Zn339 2.035 . S
O343 C348 1.258 . S
O344 C337 1.247 . S
O344 Zn341 2.028 . S
O345 C337 1.258 . S
O345 Zn339 2.035 . S
O346 Zn339 2.028 . S
O346 C349 1.247 . S
O347 Zn341 2.035 . S
O347 C349 1.258 . S
C348 O342 1.247 . S
C348 O343 1.258 . S
C349 O346 1.247 . S
C349 O347 1.258 . S
C350 O352 1.247 . S
C350 O354 1.258 . S
C351 O358 1.247 . S
C351 O359 1.258 . S
O352 C350 1.247 . S
O352 Zn353 2.028 . S
Zn353 O352 2.028 . S
Zn353 O357 2.035 . S
Zn353 O359 2.035 . S
Zn353 O360 2.028 . S
O354 C350 1.258 . S
O354 Zn355 2.035 . S
Zn355 O354 2.035 . S
Zn355 O356 2.028 . S
Zn355 O358 2.028 . S
Zn355 O361 2.035 . S
O356 Zn355 2.028 . S
O356 C362 1.247 . S
O357 Zn353 2.035 . S
O357 C362 1.258 . S
O358 C351 1.247 . S
O358 Zn355 2.028 . S
O359 C351 1.258 . S
O359 Zn353 2.035 . S
O360 Zn353 2.028 . S
O360 C363 1.247 . S
O361 Zn355 2.035 . S
O361 C363 1.258 . S
C362 O356 1.247 . S
C362 O357 1.258 . S
C363 O360 1.247 . S
C363 O361 1.258 . S
C364 O366 1.247 . S
C364 O368 1.258 . S
C365 O372 1.247 . S
C365 O373 1.258 . S
O366 C364 1.247 . S
O366 Zn367 2.028 . S
Zn367 O366 2.028 . S
Zn367 O371 2.035 . S
Zn367 O373 2.035 . S
Zn367 O374 2.028 . S
O368 C364 1.258 . S
O368 Zn369 2.035 . S
Zn369 O368 2.035 . S
Zn369 O370 2.028 . S
Zn369 O372 2.028 . S
Zn369 O375 2.035 . S
O370 Zn369 2.028 . S
O370 C376 1.247 . S
O371 Zn367 2.035 . S
O371 C376 1.258 . S
O372 C365 1.247 . S
O372 Zn369 2.028 . S
O373 C365 1.258 . S
O373 Zn367 2.035 . S
O374 Zn367 2.028 . S
O374 C377 1.247 . S
O375 Zn369 2.035 . S
O375 C377 1.258 . S
C376 O370 1.247 . S
C376 O371 1.258 . S
C377 O374 1.247 . S
C377 O375 1.258 . S
C378 O380 1.247 . S
C378 O382 1.258 . S
C379 O386 1.247 . S
C379 O387 1.258 . S
O380 C378 1.247 . S
O380 Zn381 2.028 . S
Zn381 O380 2.028 . S
Zn381 O385 2.035 . S
Zn381 O387 2.035 . S
Zn381 O388 2.028 . S
O382 C378 1.258 . S
O382 Zn383 2.035 . S
Zn383 O382 2.035 . S
Zn383 O384 2.028 . S
Zn383 O386 2.028 . S
Zn383 O389 2.035 . S
O384 Zn383 2.028 . S
O384 C390 1.247 . S
O385 Zn381 2.035 . S
O385 C390 1.258 . S
O386 C379 1.247 . S
O386 Zn383 2.028 . S
O387 C379 1.258 . S
O387 Zn381 2.035 . S
O388 Zn381 2.028 . S
O388 C391 1.247 . S
O389 Zn383 2.035 . S
O389 C391 1.258 . S
C390 O384 1.247 . S
C390 O385 1.258 . S
C391 O388 1.247 . S
C391 O389 1.258 . S
C392 O394 1.247 . S
C392 O396 1.258 . S
C393 O400 1.247 . S
C393 O401 1.258 . S
O394 C392 1.247 . S
O394 Zn395 2.028 . S
Zn395 O394 2.028 . S
Zn395 O399 2.035 1_565 S
Zn395 O401 2.035 . S
Zn395 O402 2.028 . S
O396 C392 1.258 . S
O396 Zn397 2.035 . S
Zn397 O396 2.035 . S
Zn397 O398 2.028 . S
Zn397 O400 2.028 . S
Zn397 O403 2.035 . S
O398 Zn397 2.028 . S
O398 C404 1.247 . S
O399 Zn395 2.035 1_545 S
O399 C404 1.258 1_545 S
O400 C393 1.247 . S
O400 Zn397 2.028 . S
O401 C393 1.258 . S
O401 Zn395 2.035 . S
O402 Zn395 2.028 . S
O402 C405 1.247 . S
O403 Zn397 2.035 . S
O403 C405 1.258 . S
C404 O398 1.247 . S
C404 O399 1.258 1_565 S
C405 O402 1.247 . S
C405 O403 1.258 . S
C406 O408 1.247 . S
C406 O410 1.258 . S
C407 O414 1.257 1_455 S
C407 O415 1.289 . S
O408 C406 1.247 . S
O408 Zn409 2.028 . S
Zn409 O408 2.028 . S
Zn409 O413 2.035 . S
Zn409 O415 2.035 . S
Zn409 O416 2.028 . S
O410 C406 1.258 . S
O410 Zn411 2.035 . S
Zn411 O410 2.035 . S
Zn411 O412 2.028 . S
Zn411 O414 2.028 1_455 S
Zn411 O417 2.035 . S
O412 Zn411 2.028 . S
O412 C418 1.247 . S
O413 Zn409 2.035 . S
O413 C418 1.258 . S
O414 C407 1.257 1_655 S
O414 Zn411 2.028 1_655 S
O415 C407 1.289 . S
O415 Zn409 2.035 . S
O416 Zn409 2.028 . S
O416 C419 1.247 . S
O417 Zn411 2.035 . S
O417 C419 1.258 . S
C418 O412 1.247 . S
C418 O413 1.258 . S
C419 O416 1.247 . S
C419 O417 1.258 . S
C420 O422 1.247 . S
C420 O424 1.258 . S
C421 O428 1.247 . S
C421 O429 1.258 . S
O422 C420 1.247 . S
O422 Zn423 2.028 . S
Zn423 O422 2.028 . S
Zn423 O427 2.035 . S
Zn423 O429 2.035 . S
Zn423 O430 2.028 . S
O424 C420 1.258 . S
O424 Zn425 2.035 . S
Zn425 O424 2.035 . S
Zn425 O426 2.028 . S
Zn425 O428 2.028 . S
Zn425 O431 2.035 . S
O426 Zn425 2.028 . S
O426 C432 1.247 . S
O427 Zn423 2.035 . S
O427 C432 1.258 . S
O428 C421 1.247 . S
O428 Zn425 2.028 . S
O429 C421 1.258 . S
O429 Zn423 2.035 . S
O430 Zn423 2.028 . S
O430 C433 1.247 . S
O431 Zn425 2.035 . S
O431 C433 1.258 . S
C432 O426 1.247 . S
C432 O427 1.258 . S
C433 O430 1.247 . S
C433 O431 1.258 . S
C434 O436 1.247 . S
C434 O438 1.258 . S
C435 O442 1.247 . S
C435 O443 1.258 . S
O436 C434 1.247 . S
O436 Zn437 2.028 . S
Zn437 O436 2.028 . S
Zn437 O441 2.035 . S
Zn437 O443 2.035 . S
Zn437 O444 2.028 . S
O438 C434 1.258 . S
O438 Zn439 2.035 . S
Zn439 O438 2.035 . S
Zn439 O440 2.028 1_565 S
Zn439 O442 2.028 . S
Zn439 O445 2.035 . S
O440 Zn439 2.028 1_545 S
O440 C446 1.257 1_545 S
O441 Zn437 2.035 . S
O441 C446 1.289 . S
O442 C435 1.247 . S
O442 Zn439 2.028 . S
O443 C435 1.258 . S
O443 Zn437 2.035 . S
O444 Zn437 2.028 . S
O444 C447 1.247 . S
O445 Zn439 2.035 . S
O445 C447 1.258 . S
C446 O440 1.257 1_565 S
C446 O441 1.289 . S
C447 O444 1.247 . S
C447 O445 1.258 . S
C448 O450 1.216 1_455 S
C448 O452 1.302 . S
C449 O456 1.247 . S
C449 O457 1.258 . S
O450 C448 1.216 1_655 S
O450 Zn451 2.028 1_655 S
Zn451 O450 2.028 1_455 S
Zn451 O455 2.035 . S
Zn451 O457 2.035 . S
Zn451 O458 2.028 . S
O452 C448 1.302 . S
O452 Zn453 2.035 . S
Zn453 O452 2.035 . S
Zn453 O454 2.028 . S
Zn453 O456 2.028 . S
Zn453 O459 2.035 . S
O454 Zn453 2.028 . S
O454 C460 1.247 . S
O455 Zn451 2.035 . S
O455 C460 1.258 . S
O456 C449 1.247 . S
O456 Zn453 2.028 . S
O457 C449 1.258 . S
O457 Zn451 2.035 . S
O458 Zn451 2.028 . S
O458 C461 1.247 . S
O459 Zn453 2.035 . S
O459 C461 1.258 . S
C460 O454 1.247 . S
C460 O455 1.258 . S
C461 O458 1.247 . S
C461 O459 1.258 . S
C462 O464 1.247 . S
C462 O466 1.258 . S
C463 O470 1.247 . S
C463 O471 1.258 . S
O464 C462 1.247 . S
O464 Zn465 2.028 . S
Zn465 O464 2.028 . S
Zn465 O469 2.035 . S
Zn465 O471 2.035 . S
Zn465 O472 2.028 . S
O466 C462 1.258 . S
O466 Zn467 2.035 . S
Zn467 O466 2.035 . S
Zn467 O468 2.028 . S
Zn467 O470 2.028 . S
Zn467 O473 2.035 . S
O468 Zn467 2.028 . S
O468 C474 1.247 . S
O469 Zn465 2.035 . S
O469 C474 1.258 . S
O470 C463 1.247 . S
O470 Zn467 2.028 . S
O471 C463 1.258 . S
O471 Zn465 2.035 . S
O472 Zn465 2.028 . S
O472 C475 1.247 . S
O473 Zn467 2.035 . S
O473 C475 1.258 . S
C474 O468 1.247 . S
C474 O469 1.258 . S
C475 O472 1.247 . S
C475 O473 1.258 . S
C476 O478 1.247 . S
C476 O480 1.258 . S
C477 O484 1.247 . S
C477 O485 1.258 . S
O478 C476 1.247 . S
O478 Zn479 2.028 . S
Zn479 O478 2.028 . S
Zn479 O483 2.035 . S
Zn479 O485 2.035 . S
Zn479 O486 2.028 . S
O480 C476 1.258 . S
O480 Zn481 2.035 . S
Zn481 O480 2.035 . S
Zn481 O482 2.028 . S
Zn481 O484 2.028 . S
Zn481 O487 2.035 . S
O482 Zn481 2.028 . S
O482 C488 1.247 . S
O483 Zn479 2.035 . S
O483 C488 1.258 . S
O484 C477 1.247 . S
O484 Zn481 2.028 . S
O485 C477 1.258 . S
O485 Zn479 2.035 . S
O486 Zn479 2.028 . S
O486 C489 1.247 . S
O487 Zn481 2.035 . S
O487 C489 1.258 . S
C488 O482 1.247 . S
C488 O483 1.258 . S
C489 O486 1.247 . S
C489 O487 1.258 . S
C490 O492 1.247 . S
C490 O494 1.258 . S
C491 O498 1.247 . S
C491 O499 1.258 . S
O492 C490 1.247 . S
O492 Zn493 2.028 . S
Zn493 O492 2.028 . S
Zn493 O497 2.035 . S
Zn493 O499 2.035 . S
Zn493 O500 2.028 . S
O494 C490 1.258 . S
O494 Zn495 2.035 . S
Zn495 O494 2.035 . S
Zn495 O496 2.028 . S
Zn495 O498 2.028 . S
Zn495 O501 2.035 . S
O496 Zn495 2.028 . S
O496 C502 1.247 . S
O497 Zn493 2.035 . S
O497 C502 1.258 . S
O498 C491 1.247 . S
O498 Zn495 2.028 . S
O499 C491 1.258 . S
O499 Zn493 2.035 . S
O500 Zn493 2.028 . S
O500 C503 1.247 . S
O501 Zn495 2.035 . S
O501 C503 1.258 . S
C502 O496 1.247 . S
C502 O497 1.258 . S
C503 O500 1.247 . S
C503 O501 1.258 . S
C504 C505 1.387 1_554 S
C504 H508 0.950 . S
C504 C513 1.390 1_655 S
C505 C504 1.387 1_556 S
C505 C507 1.387 . S
H506 C513 0.950 . S
C507 C505 1.387 . S
C507 C509 1.390 1_655 S
C507 H511 0.950 . S
H508 C504 0.950 . S
C509 C507 1.390 1_455 S
C509 C510 1.387 1_556 S
C509 H512 0.950 . S
C510 C509 1.387 1_554 S
C510 C513 1.387 . S
H511 C507 0.950 . S
H512 C509 0.950 . S
C513 C504 1.390 1_455 S
C513 H506 0.950 . S
C513 C510 1.387 . S
C514 C515 1.387 . S
C514 H518 0.950 . S
C514 C523 1.390 . S
C515 C514 1.387 . S
C515 C517 1.387 1_556 S
H516 C523 0.950 . S
C517 C515 1.387 1_554 S
C517 C519 1.390 . S
C517 H521 0.950 . S
H518 C514 0.950 . S
C519 C517 1.390 . S
C519 C520 1.387 . S
C519 H522 0.950 . S
C520 C519 1.387 . S
C520 C523 1.387 1_554 S
H521 C517 0.950 . S
H522 C519 0.950 . S
C523 C514 1.390 . S
C523 H516 0.950 . S
C523 C520 1.387 1_556 S
C524 C525 1.387 . S
C524 H528 0.950 . S
C524 C533 1.390 1_546 S
C525 C524 1.387 . S
C525 C527 1.387 . S
H526 C533 0.950 . S
C527 C525 1.387 . S
C527 C529 1.390 1_546 S
C527 H531 0.950 . S
H528 C524 0.950 . S
C529 C527 1.390 1_564 S
C529 C530 1.387 . S
C529 H532 0.950 . S
C530 C529 1.387 . S
C530 C533 1.387 . S
H531 C527 0.950 . S
H532 C529 0.950 . S
C533 C524 1.390 1_564 S
C533 H526 0.950 . S
C533 C530 1.387 . S
C534 C535 1.387 . S
C534 H538 0.950 . S
C534 C543 1.390 1_455 S
C535 C534 1.387 . S
C535 C537 1.387 1_554 S
H536 C543 0.950 . S
C537 C535 1.387 1_556 S
C537 C539 1.390 1_455 S
C537 H541 0.950 . S
H538 C534 0.950 . S
C539 C537 1.390 1_655 S
C539 C540 1.387 . S
C539 H542 0.950 . S
C540 C539 1.387 . S
C540 C543 1.387 1_556 S
H541 C537 0.950 . S
H542 C539 0.950 . S
C543 C534 1.390 1_655 S
C543 H536 0.950 . S
C543 C540 1.387 1_554 S
C544 C545 1.387 1_554 S
C544 H548 0.950 . S
C544 C553 1.390 . S
C545 C544 1.387 1_556 S
C545 C547 1.387 . S
H546 C553 0.950 . S
C547 C545 1.387 . S
C547 C549 1.390 . S
C547 H551 0.950 . S
H548 C544 0.950 . S
C549 C547 1.390 . S
C549 C550 1.387 1_556 S
C549 H552 0.950 . S
C550 C549 1.387 1_554 S
C550 C553 1.387 . S
H551 C547 0.950 . S
H552 C549 0.950 . S
C553 C544 1.390 . S
C553 H546 0.950 . S
C553 C550 1.387 . S
C554 C555 1.387 . S
C554 H558 0.950 . S
C554 C563 1.390 1_564 S
C555 C554 1.387 . S
C555 C557 1.387 . S
H556 C563 0.950 . S
C557 C555 1.387 . S
C557 C559 1.390 1_564 S
C557 H561 0.950 . S
H558 C554 0.950 . S
C559 C557 1.390 1_546 S
C559 C560 1.387 . S
C559 H562 0.950 . S
C560 C559 1.387 . S
C560 C563 1.387 . S
H561 C557 0.950 . S
H562 C559 0.950 . S
C563 C554 1.390 1_546 S
C563 H556 0.950 . S
C563 C560 1.387 . S
C564 C565 1.387 . S
C564 H568 0.950 . S
C564 C573 1.390 . S
C565 C564 1.387 . S
C565 C567 1.387 . S
H566 C573 0.950 . S
C567 C565 1.387 . S
C567 C569 1.390 . S
C567 H571 0.950 . S
H568 C564 0.950 . S
C569 C567 1.390 . S
C569 C570 1.387 . S
C569 H572 0.950 . S
C570 C569 1.387 . S
C570 C573 1.387 . S
H571 C567 0.950 . S
H572 C569 0.950 . S
C573 C564 1.390 . S
C573 H566 0.950 . S
C573 C570 1.387 . S
C574 C575 1.387 . S
C574 H578 0.950 . S
C574 C583 1.390 . S
C575 C574 1.387 . S
C575 C577 1.387 . S
H576 C583 0.950 . S
C577 C575 1.387 . S
C577 C579 1.390 . S
C577 H581 0.950 . S
H578 C574 0.950 . S
C579 C577 1.390 . S
C579 C580 1.387 . S
C579 H582 0.950 . S
C580 C579 1.387 . S
C580 C583 1.387 . S
H581 C577 0.950 . S
H582 C579 0.950 . S
C583 C574 1.390 . S
C583 H576 0.950 . S
C583 C580 1.387 . S
C584 C585 1.387 . S
C584 H588 0.950 . S
C584 C593 1.390 . S
C585 C584 1.387 . S
C585 C587 1.387 . S
H586 C593 0.950 . S
C587 C585 1.387 . S
C587 C589 1.390 . S
C587 H591 0.950 1_455 S
H588 C584 0.950 . S
C589 C587 1.390 . S
C589 C590 1.387 . S
C589 H592 0.950 . S
C590 C589 1.387 . S
C590 C593 1.387 . S
H591 C587 0.950 1_655 S
H592 C589 0.950 . S
C593 C584 1.390 . S
C593 H586 0.950 . S
C593 C590 1.387 . S
C594 C595 1.387 . S
C594 H598 0.950 . S
C594 C603 1.390 . S
C595 C594 1.387 . S
C595 C597 1.387 . S
H596 C603 0.950 . S
C597 C595 1.387 . S
C597 C599 1.390 . S
C597 H601 0.950 . S
H598 C594 0.950 . S
C599 C597 1.390 . S
C599 C600 1.387 . S
C599 H602 0.950 . S
C600 C599 1.387 . S
C600 C603 1.387 . S
H601 C597 0.950 . S
H602 C599 0.950 . S
C603 C594 1.390 . S
C603 H596 0.950 . S
C603 C600 1.387 . S
C604 C605 1.387 . S
C604 H608 0.950 . S
C604 C613 1.390 . S
C605 C604 1.387 . S
C605 C607 1.387 . S
H606 C613 0.950 . S
C607 C605 1.387 . S
C607 C609 1.390 . S
C607 H611 0.950 . S
H608 C604 0.950 . S
C609 C607 1.390 . S
C609 C610 1.387 . S
C609 H612 0.950 . S
C610 C609 1.387 . S
C610 C613 1.387 . S
H611 C607 0.950 . S
H612 C609 0.950 . S
C613 C604 1.390 . S
C613 H606 0.950 . S
C613 C610 1.387 . S
C614 C615 1.387 . S
C614 H618 0.950 . S
C614 C623 1.390 . S
C615 C614 1.387 . S
C615 C617 1.387 . S
H616 C623 0.950 . S
C617 C615 1.387 . S
C617 C619 1.390 . S
C617 H621 0.950 . S
H618 C614 0.950 . S
C619 C617 1.390 . S
C619 C620 1.387 . S
C619 H622 0.950 . S
C620 C619 1.387 . S
C620 C623 1.387 . S
H621 C617 0.950 . S
H622 C619 0.950 . S
C623 C614 1.390 . S
C623 H616 0.950 . S
C623 C620 1.387 . S
C624 C625 1.387 . S
C624 H628 0.950 . S
C624 C633 1.390 . S
C625 C624 1.387 . S
C625 C627 1.387 . S
H626 C633 0.950 . S
C627 C625 1.387 . S
C627 C629 1.390 . S
C627 H631 0.950 . S
H628 C624 0.950 . S
C629 C627 1.390 . S
C629 C630 1.387 . S
C629 H632 0.950 . S
C630 C629 1.387 . S
C630 C633 1.387 . S
H631 C627 0.950 . S
H632 C629 0.950 . S
C633 C624 1.390 . S
C633 H626 0.950 . S
C633 C630 1.387 . S
C634 C635 1.387 . S
C634 H638 0.950 . S
C634 C643 1.390 . S
C635 C634 1.387 . S
C635 C637 1.387 . S
H636 C643 0.950 . S
C637 C635 1.387 . S
C637 C639 1.390 . S
C637 H641 0.950 . S
H638 C634 0.950 . S
C639 C637 1.390 . S
C639 C640 1.387 . S
C639 H642 0.950 . S
C640 C639 1.387 . S
C640 C643 1.387 . S
H641 C637 0.950 . S
H642 C639 0.950 . S
C643 C634 1.390 . S
C643 H636 0.950 . S
C643 C640 1.387 . S
C644 C645 1.387 . S
C644 H648 0.950 . S
C644 C653 1.390 . S
C645 C644 1.387 . S
C645 C647 1.387 . S
H646 C653 0.950 . S
C647 C645 1.387 . S
C647 C649 1.390 . S
C647 H651 0.950 . S
H648 C644 0.950 . S
C649 C647 1.390 . S
C649 C650 1.387 . S
C649 H652 0.950 . S
C650 C649 1.387 . S
C650 C653 1.387 . S
H651 C647 0.950 . S
H652 C649 0.950 . S
C653 C644 1.390 . S
C653 H646 0.950 . S
C653 C650 1.387 . S
C654 C655 1.387 . S
C654 H658 0.950 . S
C654 C663 1.390 . S
C655 C654 1.387 . S
C655 C657 1.387 . S
H656 C663 0.950 . S
C657 C655 1.387 . S
C657 C659 1.390 . S
C657 H661 0.950 . S
H658 C654 0.950 . S
C659 C657 1.390 . S
C659 C660 1.387 . S
C659 H662 0.950 . S
C660 C659 1.387 . S
C660 C663 1.387 . S
H661 C657 0.950 . S
H662 C659 0.950 . S
C663 C654 1.390 . S
C663 H656 0.950 . S
C663 C660 1.387 . S
C664 C665 1.387 . S
C664 H668 0.950 . S
C664 C673 1.390 . S
C665 C664 1.387 . S
C665 C667 1.387 . S
H666 C673 0.950 . S
C667 C665 1.387 . S
C667 C669 1.390 . S
C667 H671 0.950 . S
H668 C664 0.950 . S
C669 C667 1.390 . S
C669 C670 1.387 . S
C669 H672 0.950 . S
C670 C669 1.387 . S
C670 C673 1.387 . S
H671 C667 0.950 . S
H672 C669 0.950 . S
C673 C664 1.390 . S
C673 H666 0.950 . S
C673 C670 1.387 . S
C674 C675 1.387 . S
C674 H678 0.950 . S
C674 C683 1.390 . S
C675 C674 1.387 . S
C675 C677 1.387 . S
H676 C683 0.950 . S
C677 C675 1.387 . S
C677 C679 1.390 . S
C677 H681 0.950 1_655 S
H678 C674 0.950 . S
C679 C677 1.390 . S
C679 C680 1.387 . S
C679 H682 0.950 . S
C680 C679 1.387 . S
C680 C683 1.387 . S
H681 C677 0.950 1_455 S
H682 C679 0.950 . S
C683 C674 1.390 . S
C683 H676 0.950 . S
C683 C680 1.387 . S
C684 C685 1.387 . S
C684 H688 0.950 . S
C684 C693 1.390 . S
C685 C684 1.387 . S
C685 C687 1.387 1_556 S
H686 C693 0.950 . S
C687 C685 1.387 1_554 S
C687 C689 1.390 . S
C687 H691 0.950 . S
H688 C684 0.950 . S
C689 C687 1.390 . S
C689 C690 1.387 1_554 S
C689 H692 0.950 . S
C690 C689 1.387 1_556 S
C690 C693 1.387 . S
H691 C687 0.950 . S
H692 C689 0.950 . S
C693 C684 1.390 . S
C693 H686 0.950 . S
C693 C690 1.387 . S
C694 C695 1.387 . S
C694 H698 0.950 . S
C694 C703 1.390 . S
C695 C694 1.387 . S
C695 C697 1.387 1_556 S
H696 C703 0.950 . S
C697 C695 1.387 1_554 S
C697 C699 1.390 . S
C697 H701 0.950 . S
H698 C694 0.950 . S
C699 C697 1.390 . S
C699 C700 1.387 1_554 S
C699 H702 0.950 . S
C700 C699 1.387 1_556 S
C700 C703 1.387 . S
H701 C697 0.950 . S
H702 C699 0.950 . S
C703 C694 1.390 . S
C703 H696 0.950 . S
C703 C700 1.387 . S
C704 C705 1.387 1_554 S
C704 H708 0.950 . S
C704 C713 1.390 . S
C705 C704 1.387 1_556 S
C705 C707 1.387 . S
H706 C713 0.950 . S
C707 C705 1.387 . S
C707 C709 1.390 . S
C707 H711 0.950 . S
H708 C704 0.950 . S
C709 C707 1.390 . S
C709 C710 1.387 . S
C709 H712 0.950 . S
C710 C709 1.387 . S
C710 C713 1.387 1_556 S
H711 C707 0.950 . S
H712 C709 0.950 . S
C713 C704 1.390 . S
C713 H706 0.950 . S
C713 C710 1.387 1_554 S
C714 C715 1.387 . S
C714 H718 0.950 . S
C714 C723 1.390 . S
C715 C714 1.387 . S
C715 C717 1.387 1_554 S
H716 C723 0.950 . S
C717 C715 1.387 1_556 S
C717 C719 1.390 . S
C717 H721 0.950 . S
H718 C714 0.950 . S
C719 C717 1.390 . S
C719 C720 1.387 1_556 S
C719 H722 0.950 . S
C720 C719 1.387 1_554 S
C720 C723 1.387 . S
H721 C717 0.950 . S
H722 C719 0.950 . S
C723 C714 1.390 . S
C723 H716 0.950 . S
C723 C720 1.387 . S
C724 C725 1.387 . S
C724 H728 0.950 . S
C724 C733 1.390 . S
C725 C724 1.387 . S
C725 C727 1.387 1_554 S
H726 C733 0.950 . S
C727 C725 1.387 1_556 S
C727 C729 1.390 . S
C727 H731 0.950 . S
H728 C724 0.950 . S
C729 C727 1.390 . S
C729 C730 1.387 1_556 S
C729 H732 0.950 . S
C730 C729 1.387 1_554 S
C730 C733 1.387 . S
H731 C727 0.950 . S
H732 C729 0.950 . S
C733 C724 1.390 . S
C733 H726 0.950 . S
C733 C730 1.387 . S
C734 C735 1.387 . S
C734 H738 0.950 . S
C734 C743 1.390 . S
C735 C734 1.387 . S
C735 C737 1.387 1_554 S
H736 C743 0.950 . S
C737 C735 1.387 1_556 S
C737 C739 1.390 . S
C737 H741 0.950 . S
H738 C734 0.950 . S
C739 C737 1.390 . S
C739 C740 1.387 1_556 S
C739 H742 0.950 . S
C740 C739 1.387 1_554 S
C740 C743 1.387 . S
H741 C737 0.950 . S
H742 C739 0.950 . S
C743 C734 1.390 . S
C743 H736 0.950 . S
C743 C740 1.387 . S
C744 C745 1.387 . S
C744 H748 0.950 . S
C744 C753 1.390 . S
C745 C744 1.387 . S
C745 C747 1.387 . S
H746 C753 0.950 . S
C747 C745 1.387 . S
C747 C749 1.390 . S
C747 H751 0.950 . S
H748 C744 0.950 . S
C749 C747 1.390 . S
C749 C750 1.387 . S
C749 H752 0.950 . S
C750 C749 1.387 . S
C750 C753 1.387 . S
H751 C747 0.950 . S
H752 C749 0.950 . S
C753 C744 1.390 . S
C753 H746 0.950 . S
C753 C750 1.387 . S
C754 C755 1.387 . S
C754 H758 0.950 . S
C754 C763 1.390 . S
C755 C754 1.387 . S
C755 C757 1.387 . S
H756 C763 0.950 . S
C757 C755 1.387 . S
C757 C759 1.390 . S
C757 H761 0.950 . S
H758 C754 0.950 . S
C759 C757 1.390 . S
C759 C760 1.387 . S
C759 H762 0.950 . S
C760 C759 1.387 . S
C760 C763 1.387 . S
H761 C757 0.950 . S
H762 C759 0.950 . S
C763 C754 1.390 . S
C763 H756 0.950 . S
C763 C760 1.387 . S
C764 C765 1.387 . S
C764 H768 0.950 . S
C764 C773 1.390 . S
C765 C764 1.387 . S
C765 C767 1.387 . S
H766 C773 0.950 . S
C767 C765 1.387 . S
C767 C769 1.390 . S
C767 H771 0.950 . S
H768 C764 0.950 . S
C769 C767 1.390 . S
C769 C770 1.387 . S
C769 H772 0.950 . S
C770 C769 1.387 . S
C770 C773 1.387 . S
H771 C767 0.950 . S
H772 C769 0.950 . S
C773 C764 1.390 . S
C773 H766 0.950 . S
C773 C770 1.387 . S
C774 C775 1.387 . S
C774 H778 0.950 . S
C774 C783 1.390 . S
C775 C774 1.387 . S
C775 C777 1.387 . S
H776 C783 0.950 . S
C777 C775 1.387 . S
C777 C779 1.390 . S
C777 H781 0.950 . S
H778 C774 0.950 . S
C779 C777 1.390 . S
C779 C780 1.387 . S
C779 H782 0.950 . S
C780 C779 1.387 . S
C780 C783 1.387 . S
H781 C777 0.950 . S
H782 C779 0.950 . S
C783 C774 1.390 . S
C783 H776 0.950 . S
C783 C780 1.387 . S
C784 C785 1.387 . S
C784 H788 0.950 . S
C784 C793 1.390 . S
C785 C784 1.387 . S
C785 C787 1.387 . S
H786 C793 0.950 . S
C787 C785 1.387 . S
C787 C789 1.390 . S
C787 H791 0.950 . S
H788 C784 0.950 . S
C789 C787 1.390 . S
C789 C790 1.387 . S
C789 H792 0.950 . S
C790 C789 1.387 . S
C790 C793 1.387 . S
H791 C787 0.950 . S
H792 C789 0.950 . S
C793 C784 1.390 . S
C793 H786 0.950 . S
C793 C790 1.387 . S
C794 C795 1.387 . S
C794 H798 0.950 . S
C794 C803 1.390 . S
C795 C794 1.387 . S
C795 C797 1.387 . S
H796 C803 0.950 . S
C797 C795 1.387 . S
C797 C799 1.390 . S
C797 H801 0.950 . S
H798 C794 0.950 . S
C799 C797 1.390 . S
C799 C800 1.387 . S
C799 H802 0.950 . S
C800 C799 1.387 . S
C800 C803 1.387 . S
H801 C797 0.950 . S
H802 C799 0.950 . S
C803 C794 1.390 . S
C803 H796 0.950 . S
C803 C800 1.387 . S
C804 C805 1.387 . S
C804 H808 0.950 . S
C804 C813 1.390 . S
C805 C804 1.387 . S
C805 C807 1.387 . S
H806 C813 0.950 . S
C807 C805 1.387 . S
C807 C809 1.390 . S
C807 H811 0.950 . S
H808 C804 0.950 . S
C809 C807 1.390 . S
C809 C810 1.387 . S
C809 H812 0.950 . S
C810 C809 1.387 . S
C810 C813 1.387 . S
H811 C807 0.950 . S
H812 C809 0.950 . S
C813 C804 1.390 . S
C813 H806 0.950 . S
C813 C810 1.387 . S
C814 C815 1.387 . S
C814 H818 0.950 . S
C814 C823 1.390 . S
C815 C814 1.387 . S
C815 C817 1.387 . S
H816 C823 0.950 . S
C817 C815 1.387 . S
C817 C819 1.390 . S
C817 H821 0.950 . S
H818 C814 0.950 . S
C819 C817 1.390 . S
C819 C820 1.387 . S
C819 H822 0.950 . S
C820 C819 1.387 . S
C820 C823 1.387 . S
H821 C817 0.950 . S
H822 C819 0.950 . S
C823 C814 1.390 . S
C823 H816 0.950 . S
C823 C820 1.387 . S
C824 C825 1.387 . S
C824 H828 0.950 . S
C824 C833 1.390 . S
C825 C824 1.387 . S
C825 C827 1.387 . S
H826 C833 0.950 . S
C827 C825 1.387 . S
C827 C829 1.390 . S
C827 H831 0.950 . S
H828 C824 0.950 . S
C829 C827 1.390 . S
C829 C830 1.387 . S
C829 H832 0.950 . S
C830 C829 1.387 . S
C830 C833 1.387 . S
H831 C827 0.950 . S
H832 C829 0.950 . S
C833 C824 1.390 . S
C833 H826 0.950 . S
C833 C830 1.387 . S
C834 C835 1.387 . S
C834 H838 0.950 . S
C834 C843 1.390 . S
C835 C834 1.387 . S
C835 C837 1.387 . S
H836 C843 0.950 . S
C837 C835 1.387 . S
C837 C839 1.390 . S
C837 H841 0.950 . S
H838 C834 0.950 . S
C839 C837 1.390 . S
C839 C840 1.387 . S
C839 H842 0.950 . S
C840 C839 1.387 . S
C840 C843 1.387 . S
H841 C837 0.950 . S
H842 C839 0.950 . S
C843 C834 1.390 . S
C843 H836 0.950 . S
C843 C840 1.387 . S
C844 C845 1.387 . S
C844 H848 0.950 . S
C844 C853 1.390 . S
C845 C844 1.387 . S
C845 C847 1.387 . S
H846 C853 0.950 . S
C847 C845 1.387 . S
C847 C849 1.390 . S
C847 H851 0.950 . S
H848 C844 0.950 . S
C849 C847 1.390 . S
C849 C850 1.387 . S
C849 H852 0.950 . S
C850 C849 1.387 . S
C850 C853 1.387 . S
H851 C847 0.950 . S
H852 C849 0.950 . S
C853 C844 1.390 . S
C853 H846 0.950 . S
C853 C850 1.387 . S
C854 C855 1.387 . S
C854 H858 0.950 . S
C854 C863 1.390 . S
C855 C854 1.387 . S
C855 C857 1.387 . S
H856 C863 0.950 . S
C857 C855 1.387 . S
C857 C859 1.390 . S
C857 H861 0.950 . S
H858 C854 0.950 . S
C859 C857 1.390 . S
C859 C860 1.387 . S
C859 H862 0.950 . S
C860 C859 1.387 . S
C860 C863 1.387 . S
H861 C857 0.950 . S
H862 C859 0.950 . S
C863 C854 1.390 . S
C863 H856 0.950 . S
C863 C860 1.387 . S
C864 C865 1.387 . S
C864 H868 0.950 . S
C864 C873 1.390 . S
C865 C864 1.387 . S
C865 C867 1.387 . S
H866 C873 0.950 . S
C867 C865 1.387 . S
C867 C869 1.390 . S
C867 H871 0.950 . S
H868 C864 0.950 . S
C869 C867 1.390 . S
C869 C870 1.387 . S
C869 H872 0.950 . S
C870 C869 1.387 . S
C870 C873 1.387 . S
H871 C867 0.950 . S
H872 C869 0.950 . S
C873 C864 1.390 . S
C873 H866 0.950 . S
C873 C870 1.387 . S
C874 C875 1.387 . S
C874 H878 0.950 . S
C874 C883 1.390 . S
C875 C874 1.387 . S
C875 C877 1.387 . S
H876 C883 0.950 . S
C877 C875 1.387 . S
C877 C879 1.390 . S
C877 H881 0.950 . S
H878 C874 0.950 . S
C879 C877 1.390 . S
C879 C880 1.387 . S
C879 H882 0.950 . S
C880 C879 1.387 . S
C880 C883 1.387 . S
H881 C877 0.950 . S
H882 C879 0.950 . S
C883 C874 1.390 . S
C883 H876 0.950 . S
C883 C880 1.387 . S
C884 C885 1.387 . S
C884 H888 0.950 . S
C884 C893 1.390 . S
C885 C884 1.387 . S
C885 C887 1.387 . S
H886 C893 0.950 . S
C887 C885 1.387 . S
C887 C889 1.390 . S
C887 H891 0.950 . S
H888 C884 0.950 . S
C889 C887 1.390 . S
C889 C890 1.387 . S
C889 H892 0.950 . S
C890 C889 1.387 . S
C890 C893 1.387 . S
H891 C887 0.950 . S
H892 C889 0.950 . S
C893 C884 1.390 . S
C893 H886 0.950 . S
C893 C890 1.387 . S
C894 C895 1.387 . S
C894 H898 0.950 . S
C894 C903 1.390 . S
C895 C894 1.387 . S
C895 C897 1.387 . S
H896 C903 0.950 . S
C897 C895 1.387 . S
C897 C899 1.390 . S
C897 H901 0.950 . S
H898 C894 0.950 . S
C899 C897 1.390 . S
C899 C900 1.387 . S
C899 H902 0.950 . S
C900 C899 1.387 . S
C900 C903 1.387 . S
H901 C897 0.950 . S
H902 C899 0.950 . S
C903 C894 1.390 . S
C903 H896 0.950 . S
C903 C900 1.387 . S
C904 C905 1.387 . S
C904 H908 0.950 . S
C904 C913 1.390 . S
C905 C904 1.387 . S
C905 C907 1.387 . S
H906 C913 0.950 . S
C907 C905 1.387 . S
C907 C909 1.390 . S
C907 H911 0.950 . S
H908 C904 0.950 . S
C909 C907 1.390 . S
C909 C910 1.387 . S
C909 H912 0.950 . S
C910 C909 1.387 . S
C910 C913 1.387 . S
H911 C907 0.950 . S
H912 C909 0.950 . S
C913 C904 1.390 . S
C913 H906 0.950 . S
C913 C910 1.387 . S
C914 C915 1.387 . S
C914 H918 0.950 . S
C914 C923 1.390 . S
C915 C914 1.387 . S
C915 C917 1.387 . S
H916 C923 0.950 . S
C917 C915 1.387 . S
C917 C919 1.390 . S
C917 H921 0.950 . S
H918 C914 0.950 . S
C919 C917 1.390 . S
C919 C920 1.387 . S
C919 H922 0.950 . S
C920 C919 1.387 . S
C920 C923 1.387 . S
H921 C917 0.950 . S
H922 C919 0.950 . S
C923 C914 1.390 . S
C923 H916 0.950 . S
C923 C920 1.387 . S
C924 C925 1.387 . S
C924 H928 0.950 . S
C924 C933 1.390 . S
C925 C924 1.387 . S
C925 C927 1.387 . S
H926 C933 0.950 . S
C927 C925 1.387 . S
C927 C929 1.390 . S
C927 H931 0.950 . S
H928 C924 0.950 . S
C929 C927 1.390 . S
C929 C930 1.387 . S
C929 H932 0.950 . S
C930 C929 1.387 . S
C930 C933 1.387 . S
H931 C927 0.950 . S
H932 C929 0.950 . S
C933 C924 1.390 . S
C933 H926 0.950 . S
C933 C930 1.387 . S
C934 C935 1.387 . S
C934 H938 0.950 . S
C934 C943 1.390 . S
C935 C934 1.387 . S
C935 C937 1.387 . S
H936 C943 0.950 . S
C937 C935 1.387 . S
C937 C939 1.390 . S
C937 H941 0.950 . S
H938 C934 0.950 . S
C939 C937 1.390 . S
C939 C940 1.387 . S
C939 H942 0.950 . S
C940 C939 1.387 . S
C940 C943 1.387 . S
H941 C937 0.950 . S
H942 C939 0.950 . S
C943 C934 1.390 . S
C943 H936 0.950 . S
C943 C940 1.387 . S
C944 C945 1.387 . S
C944 H948 0.950 . S
C944 C953 1.390 . S
C945 C944 1.387 . S
C945 C947 1.387 . S
H946 C953 0.950 . S
C947 C945 1.387 . S
C947 C949 1.390 . S
C947 H951 0.950 . S
H948 C944 0.950 . S
C949 C947 1.390 . S
C949 C950 1.387 . S
C949 H952 0.950 . S
C950 C949 1.387 . S
C950 C953 1.387 . S
H951 C947 0.950 . S
H952 C949 0.950 . S
C953 C944 1.390 . S
C953 H946 0.950 . S
C953 C950 1.387 . S
C954 C955 1.387 . S
C954 H958 0.950 . S
C954 C963 1.390 . S
C955 C954 1.387 . S
C955 C957 1.387 . S
H956 C963 0.950 . S
C957 C955 1.387 . S
C957 C959 1.390 . S
C957 H961 0.950 . S
H958 C954 0.950 . S
C959 C957 1.390 . S
C959 C960 1.387 . S
C959 H962 0.950 . S
C960 C959 1.387 . S
C960 C963 1.387 . S
H961 C957 0.950 . S
H962 C959 0.950 . S
C963 C954 1.390 . S
C963 H956 0.950 . S
C963 C960 1.387 . S
C964 C965 1.387 . S
C964 H968 0.950 . S
C964 C973 1.390 . S
C965 C964 1.387 . S
C965 C967 1.387 . S
H966 C973 0.950 . S
C967 C965 1.387 . S
C967 C969 1.390 . S
C967 H971 0.950 . S
H968 C964 0.950 . S
C969 C967 1.390 . S
C969 C970 1.387 . S
C969 H972 0.950 . S
C970 C969 1.387 . S
C970 C973 1.387 . S
H971 C967 0.950 . S
H972 C969 0.950 . S
C973 C964 1.390 . S
C973 H966 0.950 . S
C973 C970 1.387 . S
C974 C975 1.387 . S
C974 H978 0.950 . S
C974 C983 1.390 . S
C975 C974 1.387 . S
C975 C977 1.387 . S
H976 C983 0.950 . S
C977 C975 1.387 . S
C977 C979 1.390 . S
C977 H981 0.950 . S
H978 C974 0.950 . S
C979 C977 1.390 . S
C979 C980 1.387 . S
C979 H982 0.950 . S
C980 C979 1.387 . S
C980 C983 1.387 . S
H981 C977 0.950 . S
H982 C979 0.950 . S
C983 C974 1.390 . S
C983 H976 0.950 . S
C983 C980 1.387 . S
C984 C985 1.387 . S
C984 H988 0.950 . S
C984 C993 1.390 . S
C985 C984 1.387 . S
C985 C987 1.387 . S
H986 C993 0.950 . S
C987 C985 1.387 . S
C987 C989 1.390 . S
C987 H991 0.950 . S
H988 C984 0.950 . S
C989 C987 1.390 . S
C989 C990 1.387 . S
C989 H992 0.950 . S
C990 C989 1.387 . S
C990 C993 1.387 . S
H991 C987 0.950 . S
H992 C989 0.950 . S
C993 C984 1.390 . S
C993 H986 0.950 . S
C993 C990 1.387 . S
C994 C995 1.387 . S
C994 H998 0.950 . S
C994 C1003 1.390 1_545 S
C995 C994 1.387 . S
C995 C997 1.387 . S
H996 C1003 0.950 . S
C997 C995 1.387 . S
C997 C999 1.390 1_545 S
C997 H1001 0.950 . S
H998 C994 0.950 . S
C999 C997 1.390 1_565 S
C999 C1000 1.387 . S
C999 H1002 0.950 . S
C1000 C999 1.387 . S
C1000 C1003 1.387 . S
H1001 C997 0.950 . S
H1002 C999 0.950 . S
C1003 C994 1.390 1_565 S
C1003 H996 0.950 . S
C1003 C1000 1.387 . S
C1004 C1005 1.387 1_655 S
C1004 H1008 0.950 . S
C1004 C1013 1.390 . S
C1005 C1004 1.387 1_455 S
C1005 C1007 1.387 . S
H1006 C1013 0.950 . S
C1007 C1005 1.387 . S
C1007 C1009 1.390 . S
C1007 H1011 0.950 . S
H1008 C1004 0.950 . S
C1009 C1007 1.390 . S
C1009 C1010 1.387 1_455 S
C1009 H1012 0.950 . S
C1010 C1009 1.387 1_655 S
C1010 C1013 1.387 . S
H1011 C1007 0.950 . S
H1012 C1009 0.950 . S
C1013 C1004 1.390 . S
C1013 H1006 0.950 . S
C1013 C1010 1.387 . S
C1014 C1015 1.387 . S
C1014 H1018 0.950 . S
C1014 C1023 1.390 . S
C1015 C1014 1.387 . S
C1015 C1017 1.387 . S
H1016 C1023 0.950 . S
C1017 C1015 1.387 . S
C1017 C1019 1.390 . S
C1017 H1021 0.950 . S
H1018 C1014 0.950 . S
C1019 C1017 1.390 . S
C1019 C1020 1.387 . S
C1019 H1022 0.950 . S
C1020 C1019 1.387 . S
C1020 C1023 1.387 . S
H1021 C1017 0.950 . S
H1022 C1019 0.950 . S
C1023 C1014 1.390 . S
C1023 H1016 0.950 . S
C1023 C1020 1.387 . S
C1024 C1025 1.387 . S
C1024 H1028 0.950 . S
C1024 C1033 1.390 1_565 S
C1025 C1024 1.387 . S
C1025 C1027 1.387 . S
H1026 C1033 0.950 . S
C1027 C1025 1.387 . S
C1027 C1029 1.390 1_565 S
C1027 H1031 0.950 . S
H1028 C1024 0.950 . S
C1029 C1027 1.390 1_545 S
C1029 C1030 1.387 . S
C1029 H1032 0.950 . S
C1030 C1029 1.387 . S
C1030 C1033 1.387 . S
H1031 C1027 0.950 . S
H1032 C1029 0.950 . S
C1033 C1024 1.390 1_545 S
C1033 H1026 0.950 . S
C1033 C1030 1.387 . S
C1034 C1035 1.387 1_655 S
C1034 H1038 0.950 . S
C1034 C1043 1.390 . S
C1035 C1034 1.387 1_455 S
C1035 C1037 1.387 . S
H1036 C1043 0.950 . S
C1037 C1035 1.387 . S
C1037 C1039 1.390 . S
C1037 H1041 0.950 . S
H1038 C1034 0.950 . S
C1039 C1037 1.390 . S
C1039 C1040 1.387 1_455 S
C1039 H1042 0.950 . S
C1040 C1039 1.387 1_655 S
C1040 C1043 1.387 . S
H1041 C1037 0.950 . S
H1042 C1039 0.950 . S
C1043 C1034 1.390 . S
C1043 H1036 0.950 . S
C1043 C1040 1.387 . S
C1044 C1045 1.387 . S
C1044 H1048 0.950 . S
C1044 C1053 1.390 . S
C1045 C1044 1.387 . S
C1045 C1047 1.387 . S
H1046 C1053 0.950 . S
C1047 C1045 1.387 . S
C1047 C1049 1.390 . S
C1047 H1051 0.950 . S
H1048 C1044 0.950 . S
C1049 C1047 1.390 . S
C1049 C1050 1.387 . S
C1049 H1052 0.950 . S
C1050 C1049 1.387 . S
C1050 C1053 1.387 . S
H1051 C1047 0.950 . S
H1052 C1049 0.950 . S
C1053 C1044 1.390 . S
C1053 H1046 0.950 . S
C1053 C1050 1.387 . S
C1054 C1055 1.387 . S
C1054 H1058 0.950 . S
C1054 C1063 1.390 . S
C1055 C1054 1.387 . S
C1055 C1057 1.387 . S
H1056 C1063 0.950 . S
C1057 C1055 1.387 . S
C1057 C1059 1.390 . S
C1057 H1061 0.950 . S
H1058 C1054 0.950 . S
C1059 C1057 1.390 . S
C1059 C1060 1.387 . S
C1059 H1062 0.950 . S
C1060 C1059 1.387 . S
C1060 C1063 1.387 . S
H1061 C1057 0.950 . S
H1062 C1059 0.950 . S
C1063 C1054 1.390 . S
C1063 H1056 0.950 . S
C1063 C1060 1.387 . S
C1064 C1065 1.387 . S
C1064 H1068 0.950 . S
C1064 C1073 1.390 . S
C1065 C1064 1.387 . S
C1065 C1067 1.387 . S
H1066 C1073 0.950 . S
C1067 C1065 1.387 . S
C1067 C1069 1.390 . S
C1067 H1071 0.950 . S
H1068 C1064 0.950 . S
C1069 C1067 1.390 . S
C1069 C1070 1.387 . S
C1069 H1072 0.950 . S
C1070 C1069 1.387 . S
C1070 C1073 1.387 . S
H1071 C1067 0.950 . S
H1072 C1069 0.950 . S
C1073 C1064 1.390 . S
C1073 H1066 0.950 . S
C1073 C1070 1.387 . S
C1074 C1075 1.387 . S
C1074 H1078 0.950 . S
C1074 C1083 1.390 . S
C1075 C1074 1.387 . S
C1075 C1077 1.387 . S
H1076 C1083 0.950 . S
C1077 C1075 1.387 . S
C1077 C1079 1.390 . S
C1077 H1081 0.950 . S
H1078 C1074 0.950 . S
C1079 C1077 1.390 . S
C1079 C1080 1.387 . S
C1079 H1082 0.950 . S
C1080 C1079 1.387 . S
C1080 C1083 1.387 . S
H1081 C1077 0.950 . S
H1082 C1079 0.950 . S
C1083 C1074 1.390 . S
C1083 H1076 0.950 . S
C1083 C1080 1.387 . S
C1084 C1085 1.387 . S
C1084 H1088 0.950 . S
C1084 C1093 1.390 . S
C1085 C1084 1.387 . S
C1085 C1087 1.387 . S
H1086 C1093 0.950 . S
C1087 C1085 1.387 . S
C1087 C1089 1.390 . S
C1087 H1091 0.950 . S
H1088 C1084 0.950 . S
C1089 C1087 1.390 . S
C1089 C1090 1.387 . S
C1089 H1092 0.950 . S
C1090 C1089 1.387 . S
C1090 C1093 1.387 . S
H1091 C1087 0.950 . S
H1092 C1089 0.950 . S
C1093 C1084 1.390 . S
C1093 H1086 0.950 . S
C1093 C1090 1.387 . S
C1094 C1095 1.387 . S
C1094 H1098 0.950 . S
C1094 C1103 1.390 . S
C1095 C1094 1.387 . S
C1095 C1097 1.387 . S
H1096 C1103 0.950 . S
C1097 C1095 1.387 . S
C1097 C1099 1.390 . S
C1097 H1101 0.950 . S
H1098 C1094 0.950 . S
C1099 C1097 1.390 . S
C1099 C1100 1.387 . S
C1099 H1102 0.950 . S
C1100 C1099 1.387 . S
C1100 C1103 1.387 . S
H1101 C1097 0.950 . S
H1102 C1099 0.950 . S
C1103 C1094 1.390 . S
C1103 H1096 0.950 . S
C1103 C1100 1.387 . S
C1104 C1105 1.387 . S
C1104 H1108 0.950 . S
C1104 C1113 1.390 . S
C1105 C1104 1.387 . S
C1105 C1107 1.387 . S
H1106 C1113 0.950 . S
C1107 C1105 1.387 . S
C1107 C1109 1.390 . S
C1107 H1111 0.950 . S
H1108 C1104 0.950 . S
C1109 C1107 1.390 . S
C1109 C1110 1.387 . S
C1109 H1112 0.950 . S
C1110 C1109 1.387 . S
C1110 C1113 1.387 . S
H1111 C1107 0.950 . S
H1112 C1109 0.950 . S
C1113 C1104 1.390 . S
C1113 H1106 0.950 . S
C1113 C1110 1.387 . S
C1114 C1115 1.387 . S
C1114 H1118 0.950 . S
C1114 C1123 1.390 . S
C1115 C1114 1.387 . S
C1115 C1117 1.387 . S
H1116 C1123 0.950 . S
C1117 C1115 1.387 . S
C1117 C1119 1.390 . S
C1117 H1121 0.950 . S
H1118 C1114 0.950 . S
C1119 C1117 1.390 . S
C1119 C1120 1.387 . S
C1119 H1122 0.950 . S
C1120 C1119 1.387 . S
C1120 C1123 1.387 . S
H1121 C1117 0.950 . S
H1122 C1119 0.950 . S
C1123 C1114 1.390 . S
C1123 H1116 0.950 . S
C1123 C1120 1.387 . S
C1124 C1125 1.387 . S
C1124 H1128 0.950 . S
C1124 C1133 1.390 . S
C1125 C1124 1.387 . S
C1125 C1127 1.387 . S
H1126 C1133 0.950 . S
C1127 C1125 1.387 . S
C1127 C1129 1.390 . S
C1127 H1131 0.950 . S
H1128 C1124 0.950 . S
C1129 C1127 1.390 . S
C1129 C1130 1.387 . S
C1129 H1132 0.950 . S
C1130 C1129 1.387 . S
C1130 C1133 1.387 . S
H1131 C1127 0.950 . S
H1132 C1129 0.950 . S
C1133 C1124 1.390 . S
C1133 H1126 0.950 . S
C1133 C1130 1.387 . S
C1134 C1135 1.387 . S
C1134 H1138 0.950 . S
C1134 C1143 1.390 . S
C1135 C1134 1.387 . S
C1135 C1137 1.387 . S
H1136 C1143 0.950 . S
C1137 C1135 1.387 . S
C1137 C1139 1.390 . S
C1137 H1141 0.950 . S
H1138 C1134 0.950 . S
C1139 C1137 1.390 . S
C1139 C1140 1.387 . S
C1139 H1142 0.950 . S
C1140 C1139 1.387 . S
C1140 C1143 1.387 . S
H1141 C1137 0.950 . S
H1142 C1139 0.950 . S
C1143 C1134 1.390 . S
C1143 H1136 0.950 . S
C1143 C1140 1.387 . S
C1144 C1145 1.387 . S
C1144 H1148 0.950 . S
C1144 C1153 1.390 . S
C1145 C1144 1.387 . S
C1145 C1147 1.387 . S
H1146 C1153 0.950 . S
C1147 C1145 1.387 . S
C1147 C1149 1.390 . S
C1147 H1151 0.950 . S
H1148 C1144 0.950 . S
C1149 C1147 1.390 . S
C1149 C1150 1.387 . S
C1149 H1152 0.950 . S
C1150 C1149 1.387 . S
C1150 C1153 1.387 . S
H1151 C1147 0.950 . S
H1152 C1149 0.950 . S
C1153 C1144 1.390 . S
C1153 H1146 0.950 . S
C1153 C1150 1.387 . S
C1154 C1155 1.387 . S
C1154 H1158 0.950 . S
C1154 C1163 1.390 . S
C1155 C1154 1.387 . S
C1155 C1157 1.387 . S
H1156 C1163 0.950 . S
C1157 C1155 1.387 . S
C1157 C1159 1.390 . S
C1157 H1161 0.950 . S
H1158 C1154 0.950 . S
C1159 C1157 1.390 . S
C1159 C1160 1.387 . S
C1159 H1162 0.950 . S
C1160 C1159 1.387 . S
C1160 C1163 1.387 . S
H1161 C1157 0.950 . S
H1162 C1159 0.950 . S
C1163 C1154 1.390 . S
C1163 H1156 0.950 . S
C1163 C1160 1.387 . S
C1164 C1165 1.387 . S
C1164 H1168 0.950 . S
C1164 C1173 1.390 1_455 S
C1165 C1164 1.387 . S
C1165 C1167 1.387 . S
H1166 C1173 0.950 . S
C1167 C1165 1.387 . S
C1167 C1169 1.390 1_455 S
C1167 H1171 0.950 . S
H1168 C1164 0.950 . S
C1169 C1167 1.390 1_655 S
C1169 C1170 1.387 . S
C1169 H1172 0.950 . S
C1170 C1169 1.387 . S
C1170 C1173 1.387 . S
H1171 C1167 0.950 . S
H1172 C1169 0.950 . S
C1173 C1164 1.390 1_655 S
C1173 H1166 0.950 . S
C1173 C1170 1.387 . S
C1174 C1175 1.387 . S
C1174 H1178 0.950 . S
C1174 C1183 1.390 . S
C1175 C1174 1.387 . S
C1175 C1177 1.387 . S
H1176 C1183 0.950 . S
C1177 C1175 1.387 . S
C1177 C1179 1.390 . S
C1177 H1181 0.950 . S
H1178 C1174 0.950 . S
C1179 C1177 1.390 . S
C1179 C1180 1.387 . S
C1179 H1182 0.950 . S
C1180 C1179 1.387 . S
C1180 C1183 1.387 . S
H1181 C1177 0.950 . S
H1182 C1179 0.950 . S
C1183 C1174 1.390 . S
C1183 H1176 0.950 . S
C1183 C1180 1.387 . S
C1184 C1185 1.387 . S
C1184 H1188 0.950 . S
C1184 C1193 1.390 1_545 S
C1185 C1184 1.387 . S
C1185 C1187 1.387 . S
H1186 C1193 0.950 . S
C1187 C1185 1.387 . S
C1187 C1189 1.390 1_545 S
C1187 H1191 0.950 . S
H1188 C1184 0.950 . S
C1189 C1187 1.390 1_565 S
C1189 C1190 1.387 . S
C1189 H1192 0.950 . S
C1190 C1189 1.387 . S
C1190 C1193 1.387 . S
H1191 C1187 0.950 . S
H1192 C1189 0.950 . S
C1193 C1184 1.390 1_565 S
C1193 H1186 0.950 . S
C1193 C1190 1.387 . S
C1194 C1195 1.387 . S
C1194 H1198 0.950 . S
C1194 C1203 1.390 1_565 S
C1195 C1194 1.387 . S
C1195 C1197 1.387 . S
H1196 C1203 0.950 . S
C1197 C1195 1.387 . S
C1197 C1199 1.390 1_565 S
C1197 H1201 0.950 . S
H1198 C1194 0.950 . S
C1199 C1197 1.390 1_545 S
C1199 C1200 1.387 . S
C1199 H1202 0.950 . S
C1200 C1199 1.387 . S
C1200 C1203 1.387 . S
H1201 C1197 0.950 . S
H1202 C1199 0.950 . S
C1203 C1194 1.390 1_545 S
C1203 H1196 0.950 . S
C1203 C1200 1.387 . S
C1204 C1205 1.387 . S
C1204 H1208 0.950 . S
C1204 C1213 1.390 1_655 S
C1205 C1204 1.387 . S
C1205 C1207 1.387 . S
H1206 C1213 0.950 . S
C1207 C1205 1.387 . S
C1207 C1209 1.390 1_655 S
C1207 H1211 0.950 . S
H1208 C1204 0.950 . S
C1209 C1207 1.390 1_455 S
C1209 C1210 1.387 . S
C1209 H1212 0.950 . S
C1210 C1209 1.387 . S
C1210 C1213 1.387 . S
H1211 C1207 0.950 . S
H1212 C1209 0.950 . S
C1213 C1204 1.390 1_455 S
C1213 H1206 0.950 . S
C1213 C1210 1.387 . S
C1214 C1215 1.387 . S
C1214 H1218 0.950 . S
C1214 C1223 1.390 . S
C1215 C1214 1.387 . S
C1215 C1217 1.387 . S
H1216 C1223 0.950 . S
C1217 C1215 1.387 . S
C1217 C1219 1.390 . S
C1217 H1221 0.950 . S
H1218 C1214 0.950 . S
C1219 C1217 1.390 . S
C1219 C1220 1.387 . S
C1219 H1222 0.950 . S
C1220 C1219 1.387 . S
C1220 C1223 1.387 . S
H1221 C1217 0.950 . S
H1222 C1219 0.950 . S
C1223 C1214 1.390 . S
C1223 H1216 0.950 . S
C1223 C1220 1.387 . S
C505 C68 1.326 . S
C510 C13 1.324 . S
C515 C83 1.324 . S
C520 C26 1.325 . S
C525 C42 1.324 . S
C530 C29 1.325 . S
C535 C153 1.325 . S
C540 C84 1.324 . S
C545 C110 1.324 . S
C550 C166 1.326 . S
C555 C139 1.325 . S
C560 C124 1.326 . S
C565 C169 1.349 . S
C570 C236 1.344 . S
C575 C251 1.347 . S
C580 C195 1.305 1_565 S
C585 C208 1.347 1_455 S
C590 C210 1.345 . S
C595 C264 1.347 . S
C600 C309 1.346 1_565 S
C605 C322 1.306 1_455 S
C610 C266 1.345 . S
C615 C280 1.346 . S
C620 C306 1.348 . S
C625 C404 1.348 1_545 S
C630 C349 1.345 . S
C635 C363 1.347 . S
C640 C407 1.305 1_655 S
C645 C390 1.348 . S
C650 C365 1.345 . S
C655 C489 1.344 . S
C660 C432 1.349 . S
C665 C446 1.305 1_545 S
C670 C502 1.347 . S
C675 C448 1.341 1_655 S
C680 C475 1.345 . S
C685 C167 1.673 . S
C690 C12 1.672 . S
C695 C27 1.674 . S
C700 C138 1.675 . S
C705 C152 1.674 . S
C710 C28 1.674 . S
C715 C111 1.673 . S
C720 C43 1.674 . S
C725 C69 1.674 . S
C730 C125 1.674 . S
C735 C85 1.673 . S
C740 C82 1.672 . S
C745 C168 1.726 . S
C750 C323 1.725 . S
C755 C307 1.726 . S
C760 C194 1.725 . S
C765 C308 1.726 . S
C770 C209 1.727 . S
C775 C211 1.710 . S
C780 C267 1.707 . S
C785 C237 1.710 . S
C790 C281 1.708 . S
C795 C250 1.707 . S
C800 C265 1.709 . S
C805 C503 1.707 . S
C810 C348 1.709 . S
C815 C362 1.709 . S
C820 C474 1.709 . S
C825 C364 1.709 . S
C830 C488 1.709 . S
C835 C447 1.725 . S
C840 C391 1.727 . S
C845 C449 1.726 . S
C850 C405 1.726 . S
C855 C433 1.726 . S
C860 C406 1.725 . S
C865 C223 1.664 . S
C870 C0 1.669 . S
C875 C225 1.664 . S
C880 C15 1.667 . S
C885 C40 1.671 . S
C890 C238 1.663 . S
C895 C55 1.670 . S
C900 C336 1.662 . S
C905 C57 1.670 . S
C910 C350 1.662 . S
C915 C70 1.671 . S
C920 C376 1.663 . S
C925 C97 1.671 . S
C930 C462 1.661 . S
C935 C99 1.671 . S
C940 C476 1.661 . S
C945 C113 1.671 . S
C950 C491 1.663 . S
C955 C126 1.671 . S
C960 C253 1.662 . S
C965 C279 1.666 . S
C970 C140 1.668 . S
C975 C293 1.665 . S
C980 C155 1.668 . S
C985 C379 1.888 . S
C990 C180 1.890 . S
C995 C182 1.890 . S
C1000 C393 1.889 . S
C1005 C418 1.890 . S
C1010 C197 1.888 . S
C1015 C295 1.890 . S
C1020 C421 1.890 . S
C1025 C435 1.890 . S
C1030 C320 1.889 . S
C1035 C461 1.890 . S
C1040 C335 1.890 . S
C1045 C1 1.847 . S
C1050 C419 1.857 . S
C1055 C14 1.847 . S
C1060 C378 1.858 . S
C1065 C41 1.846 . S
C1070 C392 1.860 . S
C1075 C54 1.849 . S
C1080 C183 1.857 . S
C1085 C196 1.857 . S
C1090 C56 1.850 . S
C1095 C181 1.855 . S
C1100 C71 1.849 . S
C1105 C334 1.852 . S
C1110 C96 1.847 . S
C1115 C294 1.853 . S
C1120 C98 1.847 . S
C1125 C321 1.855 . S
C1130 C112 1.848 . S
C1135 C434 1.855 . S
C1140 C127 1.851 . S
C1145 C460 1.854 . S
C1150 C141 1.852 . S
C1155 C420 1.852 . S
C1160 C154 1.847 . S
C1165 C222 1.665 . S
C1170 C351 1.661 . S
C1175 C377 1.660 . S
C1180 C224 1.664 . S
C1185 C337 1.659 . S
C1190 C239 1.659 . S
C1195 C252 1.662 . S
C1200 C490 1.662 . S
C1205 C463 1.663 . S
C1210 C278 1.659 . S
C1215 C292 1.660 . S
C1220 C477 1.664 . S
