# Generated by pormake.
# Topology bcu-g, (3)-cn, num edge types: 1
# Building blocks:
#     Node 0, Type 0, BuildingBlock: OLANEW_clean_sbu_2, # of connection points: 3
#     Node 1, Type 0, BuildingBlock: OLANEW_clean_sbu_2, # of connection points: 3
#     Node 2, Type 0, BuildingBlock: OLANEW_clean_sbu_2, # of connection points: 3
#     Node 3, Type 0, BuildingBlock: OLANEW_clean_sbu_2, # of connection points: 3
#     Node 4, Type 0, BuildingBlock: OLANEW_clean_sbu_2, # of connection points: 3
#     Node 5, Type 0, BuildingBlock: OLANEW_clean_sbu_2, # of connection points: 3
#     Node 6, Type 0, BuildingBlock: OLANEW_clean_sbu_2, # of connection points: 3
#     Node 7, Type 0, BuildingBlock: OLANEW_clean_sbu_2, # of connection points: 3
#     Node 8, Type 0, BuildingBlock: OLANEW_clean_sbu_2, # of connection points: 3
#     Node 9, Type 0, BuildingBlock: OLANEW_clean_sbu_2, # of connection points: 3
#     Node 10, Type 0, BuildingBlock: OLANEW_clean_sbu_2, # of connection points: 3
#     Node 11, Type 0, BuildingBlock: OLANEW_clean_sbu_2, # of connection points: 3
#     Node 12, Type 0, BuildingBlock: OLANEW_clean_sbu_2, # of connection points: 3
#     Node 13, Type 0, BuildingBlock: OLANEW_clean_sbu_2, # of connection points: 3
#     Node 14, Type 0, BuildingBlock: OLANEW_clean_sbu_2, # of connection points: 3
#     Node 15, Type 0, BuildingBlock: OLANEW_clean_sbu_2, # of connection points: 3
#     Edge 16, Type (0, 0), BuildingBlock: KIFKEQ_clean_linker_1, # of connection points: 2
#     Edge 17, Type (0, 0), BuildingBlock: KIFKEQ_clean_linker_1, # of connection points: 2
#     Edge 18, Type (0, 0), BuildingBlock: KIFKEQ_clean_linker_1, # of connection points: 2
#     Edge 19, Type (0, 0), BuildingBlock: KIFKEQ_clean_linker_1, # of connection points: 2
#     Edge 20, Type (0, 0), BuildingBlock: KIFKEQ_clean_linker_1, # of connection points: 2
#     Edge 21, Type (0, 0), BuildingBlock: KIFKEQ_clean_linker_1, # of connection points: 2
#     Edge 22, Type (0, 0), BuildingBlock: KIFKEQ_clean_linker_1, # of connection points: 2
#     Edge 23, Type (0, 0), BuildingBlock: KIFKEQ_clean_linker_1, # of connection points: 2
#     Edge 24, Type (0, 0), BuildingBlock: KIFKEQ_clean_linker_1, # of connection points: 2
#     Edge 25, Type (0, 0), BuildingBlock: KIFKEQ_clean_linker_1, # of connection points: 2
#     Edge 26, Type (0, 0), BuildingBlock: KIFKEQ_clean_linker_1, # of connection points: 2
#     Edge 27, Type (0, 0), BuildingBlock: KIFKEQ_clean_linker_1, # of connection points: 2
#     Edge 28, Type (0, 0), BuildingBlock: KIFKEQ_clean_linker_1, # of connection points: 2
#     Edge 29, Type (0, 0), BuildingBlock: KIFKEQ_clean_linker_1, # of connection points: 2
#     Edge 30, Type (0, 0), BuildingBlock: KIFKEQ_clean_linker_1, # of connection points: 2
#     Edge 31, Type (0, 0), BuildingBlock: KIFKEQ_clean_linker_1, # of connection points: 2
#     Edge 32, Type (0, 0), BuildingBlock: KIFKEQ_clean_linker_1, # of connection points: 2
#     Edge 33, Type (0, 0), BuildingBlock: KIFKEQ_clean_linker_1, # of connection points: 2
#     Edge 34, Type (0, 0), BuildingBlock: KIFKEQ_clean_linker_1, # of connection points: 2
#     Edge 35, Type (0, 0), BuildingBlock: KIFKEQ_clean_linker_1, # of connection points: 2
#     Edge 36, Type (0, 0), BuildingBlock: KIFKEQ_clean_linker_1, # of connection points: 2
#     Edge 37, Type (0, 0), BuildingBlock: KIFKEQ_clean_linker_1, # of connection points: 2
#     Edge 38, Type (0, 0), BuildingBlock: KIFKEQ_clean_linker_1, # of connection points: 2
#     Edge 39, Type (0, 0), BuildingBlock: KIFKEQ_clean_linker_1, # of connection points: 2
# Relax obj value: 0.057
# Max RMSD: 0.020
# Mean RMSD: 0.020
data_MOF--net-bcu-g--node1-OLANEW_clean_sbu_2--edge1-KIFKEQ_clean_linker_1
_symmetry_space_group_name_H-M    P1
_symmetry_Int_Tables_number       1
_symmetry_cell_setting            triclinic
loop_
_symmetry_equiv_pos_as_xyz
'x, y, z'
_cell_length_a     48.94724
_cell_length_b     48.946071
_cell_length_c     41.343635
_cell_angle_alpha  90.011088
_cell_angle_beta   90.025947
_cell_angle_gamma 89.967353
loop_
_atom_site_label
_atom_site_type_symbol
_atom_site_fract_x
_atom_site_fract_y
_atom_site_fract_z
_atom_type_partial_charge
O0 O 0.56042 0.10551 0.23351 0.0
Cd1 Cd 0.59067 0.1414 0.21342 0.0
O2 O 0.56882 0.0816 0.18976 0.0
Cd3 Cd 0.55924 0.04796 0.1569 0.0
O4 O 0.5439 0.01554 0.12564 0.0
C5 C 0.51979 0.00637 0.12925 0.0
O6 O 0.50435 0.01647 0.15234 0.0
C7 C 0.55636 0.08425 0.21655 0.0
C8 C 0.64632 0.13125 0.22172 0.0
O9 O 0.63244 0.14373 0.24349 0.0
O10 O 0.63373 0.12308 0.1963 0.0
O11 O 0.39612 0.56343 0.2054 0.0
Cd12 Cd 0.36645 0.59463 0.1754 0.0
O13 O 0.42666 0.57238 0.16819 0.0
Cd14 Cd 0.4647 0.56304 0.14292 0.0
O15 O 0.49981 0.54541 0.11822 0.0
C16 C 0.50679 0.52086 0.12393 0.0
O17 O 0.49289 0.50665 0.14526 0.0
C18 C 0.41978 0.55955 0.19366 0.0
C19 C 0.36948 0.6488 0.19586 0.0
O20 O 0.35087 0.63278 0.20663 0.0
O21 O 0.38689 0.63909 0.17576 0.0
O22 O 0.93493 0.42307 0.22625 0.0
Cd23 Cd 0.90254 0.39168 0.20063 0.0
O24 O 0.93813 0.43916 0.17706 0.0
Cd25 Cd 0.95329 0.4672 0.13997 0.0
O26 O 0.97073 0.49264 0.10192 0.0
C27 C 0.99645 0.49361 0.09783 0.0
O28 O 0.01238 0.47941 0.11711 0.0
C29 C 0.94601 0.43947 0.20639 0.0
C30 C 0.84889 0.39259 0.22317 0.0
O31 O 0.86623 0.37529 0.2342 0.0
O32 O 0.85716 0.41 0.20219 0.0
O33 O 0.10787 0.94867 0.27868 0.0
Cd34 Cd 0.14888 0.92054 0.27335 0.0
O35 O 0.0941 0.934 0.23129 0.0
Cd36 Cd 0.06765 0.93734 0.18888 0.0
O37 O 0.04078 0.94773 0.14866 0.0
C38 C 0.03105 0.97174 0.14642 0.0
O39 O 0.03728 0.98986 0.16868 0.0
C40 C 0.09038 0.94903 0.25599 0.0
C41 C 0.13924 0.86441 0.27169 0.0
O42 O 0.1439 0.87678 0.29847 0.0
O43 O 0.13862 0.87871 0.24572 0.0
O44 O 0.56193 0.40038 0.25993 0.0
Cd45 Cd 0.59292 0.36843 0.2869 0.0
O46 O 0.55392 0.41526 0.30896 0.0
Cd47 Cd 0.53614 0.44461 0.34276 0.0
O48 O 0.5203 0.47684 0.37391 0.0
C49 C 0.49549 0.48442 0.37251 0.0
O50 O 0.47892 0.47238 0.35198 0.0
C51 C 0.5492 0.41646 0.27875 0.0
C52 C 0.64797 0.37623 0.27221 0.0
O53 O 0.63359 0.35857 0.25689 0.0
O54 O 0.63622 0.3905 0.29417 0.0
O55 O 0.11551 0.57394 0.25098 0.0
Cd56 Cd 0.15383 0.60293 0.26688 0.0
O57 O 0.09659 0.58207 0.29802 0.0
Cd58 Cd 0.06723 0.57408 0.33664 0.0
O59 O 0.04205 0.56101 0.37726 0.0
C60 C 0.05333 0.5469 0.39934 0.0
O61 O 0.07945 0.54105 0.3968 0.0
C62 C 0.09605 0.57004 0.27076 0.0
C63 C 0.14273 0.65878 0.26493 0.0
O64 O 0.15288 0.64643 0.24037 0.0
O65 O 0.1374 0.6446 0.29022 0.0
O66 O 0.9382 0.10702 0.23331 0.0
Cd67 Cd 0.90708 0.1458 0.23905 0.0
O68 O 0.92215 0.08891 0.27799 0.0
Cd69 Cd 0.92617 0.05972 0.31769 0.0
O70 O 0.94033 0.03027 0.35352 0.0
C71 C 0.96588 0.02709 0.35766 0.0
O72 O 0.98294 0.04156 0.34013 0.0
C73 C 0.93874 0.08812 0.25435 0.0
C74 C 0.8516 0.13333 0.23507 0.0
O75 O 0.86538 0.13948 0.20974 0.0
O76 O 0.86423 0.13245 0.26222 0.0
O77 O 0.40014 0.93277 0.25963 0.0
Cd78 Cd 0.36652 0.90108 0.28211 0.0
O79 O 0.41072 0.93937 0.31043 0.0
Cd80 Cd 0.435 0.95685 0.34968 0.0
O81 O 0.45768 0.97825 0.38728 0.0
C82 C 0.48024 0.99005 0.3813 0.0
O83 O 0.49025 0.98907 0.35184 0.0
C84 C 0.41434 0.94516 0.28074 0.0
C85 C 0.37041 0.84753 0.25971 0.0
O86 O 0.35386 0.86456 0.24661 0.0
O87 O 0.38551 0.85597 0.28299 0.0
O88 O 0.41946 0.9384 0.81564 0.0
Cd89 Cd 0.38358 0.91572 0.8467 0.0
O90 O 0.45355 0.91563 0.83748 0.0
Cd91 Cd 0.42879 0.89914 0.87671 0.0
O92 O 0.42944 0.90527 0.92895 0.0
C93 C 0.45005 0.89595 0.94407 0.0
O94 O 0.46772 0.88079 0.92824 0.0
C95 C 0.44482 0.93286 0.81693 0.0
C96 C 0.33545 0.91422 0.81038 0.0
O97 O 0.34087 0.93446 0.82898 0.0
O98 O 0.35263 0.89446 0.80929 0.0
O99 O 0.57781 0.42215 0.80015 0.0
Cd100 Cd 0.60317 0.38687 0.82934 0.0
O101 O 0.57616 0.44911 0.84267 0.0
Cd102 Cd 0.59728 0.42257 0.87688 0.0
O103 O 0.59722 0.42104 0.92951 0.0
C104 C 0.61064 0.43923 0.9446 0.0
O105 O 0.62671 0.45554 0.92803 0.0
C106 C 0.57034 0.44444 0.81325 0.0
C107 C 0.602 0.33714 0.79631 0.0
O108 O 0.58308 0.3436 0.81633 0.0
O109 O 0.62155 0.35416 0.79199 0.0
O110 O 0.05768 0.54417 0.77441 0.0
Cd111 Cd 0.08925 0.57029 0.80841 0.0
O112 O 0.02346 0.5726 0.78194 0.0
Cd113 Cd 0.04446 0.59349 0.82132 0.0
O114 O 0.04768 0.59109 0.87388 0.0
C115 C 0.05698 0.56891 0.88548 0.0
O116 O 0.06614 0.55016 0.86547 0.0
C117 C 0.03324 0.55143 0.76837 0.0
C118 C 0.14168 0.57414 0.78242 0.0
O119 O 0.13479 0.55377 0.8001 0.0
O120 O 0.1237 0.59261 0.77685 0.0
O121 O 0.95034 0.06568 0.84598 0.0
Cd122 Cd 0.92898 0.09528 0.88632 0.0
O123 O 0.91769 0.03486 0.84524 0.0
Cd124 Cd 0.90147 0.05108 0.89039 0.0
O125 O 0.91443 0.04411 0.94018 0.0
C126 C 0.93471 0.02791 0.94145 0.0
O127 O 0.94458 0.01822 0.9142 0.0
C128 C 0.94 0.04411 0.83396 0.0
C129 C 0.91414 0.14456 0.85727 0.0
O130 O 0.93813 0.14104 0.86901 0.0
O131 O 0.89697 0.12491 0.85976 0.0
O132 O 0.41966 0.57159 0.69878 0.0
Cd133 Cd 0.38506 0.59503 0.66628 0.0
O134 O 0.45191 0.58001 0.66312 0.0
Cd135 Cd 0.42523 0.59776 0.62652 0.0
O136 O 0.4198 0.59159 0.57479 0.0
C137 C 0.43759 0.60191 0.55607 0.0
O138 O 0.45604 0.61841 0.56838 0.0
C139 C 0.44451 0.56986 0.69001 0.0
C140 C 0.33271 0.59019 0.69232 0.0
O141 O 0.34227 0.57202 0.67307 0.0
O142 O 0.34797 0.61063 0.69936 0.0
O143 O 0.88797 0.39913 0.71112 0.0
Cd144 Cd 0.85481 0.36329 0.69897 0.0
O145 O 0.88651 0.41273 0.66062 0.0
Cd146 Cd 0.90181 0.43629 0.61958 0.0
O147 O 0.92227 0.45766 0.58021 0.0
C148 C 0.94551 0.46839 0.58529 0.0
O149 O 0.95637 0.4666 0.61428 0.0
C150 C 0.89617 0.41521 0.68903 0.0
C151 C 0.86651 0.31582 0.73368 0.0
O152 O 0.87783 0.32057 0.70631 0.0
O153 O 0.84947 0.33346 0.74459 0.0
O154 O 0.08112 0.94048 0.67711 0.0
Cd155 Cd 0.11467 0.92005 0.64069 0.0
O156 O 0.04453 0.92407 0.65305 0.0
Cd157 Cd 0.0656 0.9101 0.60966 0.0
O158 O 0.05658 0.91924 0.55909 0.0
C159 C 0.03229 0.92793 0.55547 0.0
O160 O 0.01631 0.92905 0.58098 0.0
C161 C 0.05536 0.9374 0.6761 0.0
C162 C 0.16462 0.91659 0.67318 0.0
O163 O 0.15825 0.93785 0.65673 0.0
O164 O 0.14762 0.89669 0.6737 0.0
O165 O 0.56736 0.07404 0.68131 0.0
Cd166 Cd 0.59202 0.10629 0.64689 0.0
O167 O 0.59443 0.03908 0.67185 0.0
Cd168 Cd 0.61288 0.05985 0.63073 0.0
O169 O 0.60222 0.06062 0.57956 0.0
C170 C 0.57788 0.068 0.57337 0.0
O171 O 0.56253 0.07689 0.59724 0.0
C172 C 0.57426 0.04942 0.68686 0.0
C173 C 0.59531 0.1572 0.67703 0.0
O174 O 0.57482 0.15093 0.6592 0.0
O175 O 0.61441 0.13949 0.68032 0.0
H176 H 0.55957 0.02874 0.21138 0.0
H177 H 0.50758 0.09377 0.24567 0.0
H178 H 0.52489 0.99522 0.22631 0.0
H179 H 0.47264 0.06044 0.26025 0.0
H180 H 0.42775 0.99227 0.31212 0.0
H181 H 0.463 0.02505 0.29783 0.0
H182 H 0.4801 0.97933 0.21066 0.0
H183 H 0.44583 0.94546 0.2263 0.0
C184 C 0.54052 0.03585 0.2217 0.0
C185 C 0.53599 0.06383 0.22685 0.0
C186 C 0.52066 0.01668 0.2303 0.0
C187 C 0.49585 0.02511 0.24425 0.0
C188 C 0.4916 0.05316 0.24988 0.0
C189 C 0.51155 0.07228 0.24147 0.0
C190 C 0.43959 0.98877 0.29043 0.0
C191 C 0.43478 0.96577 0.27097 0.0
C192 C 0.45941 0.00791 0.28181 0.0
C193 C 0.47459 0.00476 0.2532 0.0
C194 C 0.4692 0.98209 0.23322 0.0
C195 C 0.44942 0.96283 0.24198 0.0
H196 H 0.47515 0.56258 0.19999 0.0
H197 H 0.40607 0.51069 0.22056 0.0
H198 H 0.50611 0.52717 0.21969 0.0
H199 H 0.437 0.47523 0.24058 0.0
H200 H 0.50037 0.43136 0.30461 0.0
H201 H 0.46892 0.46638 0.28507 0.0
H202 H 0.52158 0.48084 0.20301 0.0
H203 H 0.5534 0.44612 0.22313 0.0
C204 C 0.46664 0.54344 0.20836 0.0
C205 C 0.4383 0.53905 0.20798 0.0
C206 C 0.48434 0.52321 0.21974 0.0
C207 C 0.47402 0.49826 0.23124 0.0
C208 C 0.44557 0.49427 0.23191 0.0
C209 C 0.42787 0.51453 0.22048 0.0
C210 C 0.5054 0.44234 0.28267 0.0
C211 C 0.52962 0.43661 0.26581 0.0
C212 C 0.48723 0.46211 0.27125 0.0
C213 C 0.49292 0.47659 0.24272 0.0
C214 C 0.51688 0.47036 0.22539 0.0
C215 C 0.53497 0.45038 0.23673 0.0
H216 H 0.95154 0.46494 0.26489 0.0
H217 H 0.99101 0.45463 0.17246 0.0
H218 H 0.98811 0.49593 0.28185 0.0
H219 H 0.02636 0.48678 0.18822 0.0
H220 H 0.10063 0.52318 0.23614 0.0
H221 H 0.06475 0.49072 0.22238 0.0
H222 H 0.0056 0.54122 0.272 0.0
H223 H 0.04176 0.57341 0.28616 0.0
C224 C 0.96786 0.4696 0.24808 0.0
C225 C 0.96797 0.45814 0.21695 0.0
C226 C 0.98867 0.48749 0.25765 0.0
C227 C 0.0101 0.49409 0.23632 0.0
C228 C 0.01032 0.48214 0.20539 0.0
C229 C 0.98967 0.46419 0.19599 0.0
C230 C 0.07995 0.52727 0.24414 0.0
C231 C 0.07404 0.55058 0.26263 0.0
C232 C 0.05934 0.50874 0.23616 0.0
C233 C 0.03221 0.51331 0.24605 0.0
C234 C 0.02633 0.53674 0.26452 0.0
C235 C 0.04705 0.55518 0.27272 0.0
H236 H 0.99166 0.09425 0.23607 0.0
H237 H 0.93358 0.0338 0.26828 0.0
H238 H 0.02785 0.05982 0.23695 0.0
H239 H 0.96989 0.99952 0.27019 0.0
H240 H 0.0379 0.94048 0.23585 0.0
H241 H 1.00068 0.97376 0.23404 0.0
H242 H 0.05307 0.03385 0.27891 0.0
H243 H 0.09046 1.00074 0.27981 0.0
C244 C 0.98667 0.07357 0.24331 0.0
C245 C 0.96001 0.06678 0.2528 0.0
C246 C 0.0074 0.05395 0.24412 0.0
C247 C 0.00179 0.02706 0.2541 0.0
C248 C 0.97486 0.02006 0.26244 0.0
C249 C 0.95416 0.03974 0.26176 0.0
C250 C 0.0415 0.9609 0.24495 0.0
C251 C 0.06721 0.96829 0.25722 0.0
C252 C 0.02011 0.97983 0.24433 0.0
C253 C 0.02406 0.00653 0.25596 0.0
C254 C 0.04957 0.0136 0.26918 0.0
C255 C 0.07088 0.99461 0.26997 0.0
H256 H 0.58049 0.99499 0.7005 0.0
H257 H 0.52938 0.0648 0.72168 0.0
H258 H 0.54958 0.96578 0.73121 0.0
H259 H 0.49883 0.03568 0.75277 0.0
H260 H 0.50059 0.92837 0.81597 0.0
H261 H 0.53294 0.95644 0.78591 0.0
H262 H 0.46583 0.99962 0.74121 0.0
H263 H 0.43347 0.97196 0.77164 0.0
C264 C 0.56289 0.00419 0.71206 0.0
C265 C 0.55734 0.03223 0.70847 0.0
C266 C 0.5452 0.98743 0.7297 0.0
C267 C 0.52158 0.99835 0.7441 0.0
C268 C 0.51655 0.02654 0.7414 0.0
C269 C 0.53421 0.04328 0.7238 0.0
C270 C 0.49271 0.9437 0.79954 0.0
C271 C 0.46441 0.948 0.79634 0.0
C272 C 0.51128 0.95975 0.78226 0.0
C273 C 0.50196 0.98045 0.76144 0.0
C274 C 0.47367 0.9842 0.75756 0.0
C275 C 0.45511 0.96817 0.77479 0.0
H276 H 0.49627 0.55492 0.67295 0.0
H277 H 0.43787 0.549 0.75106 0.0
H278 H 0.52783 0.52587 0.70287 0.0
H279 H 0.46963 0.51989 0.78098 0.0
H280 H 0.54518 0.4901 0.83677 0.0
H281 H 0.51591 0.52204 0.80772 0.0
H282 H 0.52827 0.47632 0.71962 0.0
H283 H 0.55766 0.44421 0.74862 0.0
C284 C 0.49024 0.54766 0.69664 0.0
C285 C 0.46448 0.55424 0.70959 0.0
C286 C 0.50828 0.53085 0.71364 0.0
C287 C 0.50112 0.52049 0.74412 0.0
C288 C 0.47574 0.52773 0.75758 0.0
C289 C 0.45754 0.54433 0.74041 0.0
C290 C 0.54183 0.48689 0.81115 0.0
C291 C 0.55375 0.46454 0.79501 0.0
C292 C 0.52492 0.50513 0.7946 0.0
C293 C 0.51976 0.50162 0.76147 0.0
C294 C 0.53209 0.47964 0.74513 0.0
C295 C 0.54881 0.4612 0.76176 0.0
H296 H 0.98035 0.56102 0.7501 0.0
H297 H 0.04491 0.50098 0.74334 0.0
H298 H 0.94832 0.52841 0.72675 0.0
H299 H 0.01284 0.4685 0.71969 0.0
H300 H 0.93906 0.40956 0.73005 0.0
H301 H 0.97376 0.44344 0.74369 0.0
H302 H 0.93583 0.50105 0.67845 0.0
H303 H 0.9007 0.46726 0.66544 0.0
C304 C 0.98786 0.54107 0.74304 0.0
C305 C 0.01514 0.53352 0.74895 0.0
C306 C 0.9695 0.52241 0.72953 0.0
C307 C 0.97799 0.49578 0.72178 0.0
C308 C 0.00561 0.48875 0.72594 0.0
C309 C 0.02402 0.50744 0.73929 0.0
C310 C 0.93826 0.42942 0.71851 0.0
C311 C 0.91748 0.43564 0.6963 0.0
C312 C 0.95826 0.44873 0.72606 0.0
C313 C 0.95771 0.47483 0.71187 0.0
C314 C 0.93683 0.48109 0.68971 0.0
C315 C 0.91692 0.46165 0.68196 0.0
H316 H 0.98674 0.05942 0.80288 0.0
H317 H 0.92772 0.99392 0.80842 0.0
H318 H 0.01385 0.03271 0.76503 0.0
H319 H 0.95523 0.96694 0.771 0.0
H320 H 0.99948 0.93889 0.67808 0.0
H321 H 0.97067 0.96474 0.71515 0.0
H322 H 0.04251 0.99232 0.76637 0.0
H323 H 0.07137 0.96699 0.72893 0.0
C324 C 0.97948 0.03935 0.79594 0.0
C325 C 0.95509 0.02878 0.80877 0.0
C326 C 0.99516 0.02394 0.77445 0.0
C327 C 0.98689 0.99754 0.76531 0.0
C328 C 0.9621 0.98725 0.77741 0.0
C329 C 0.94635 0.00272 0.7989 0.0
C330 C 0.00914 0.95029 0.69741 0.0
C331 C 0.03776 0.95097 0.70043 0.0
C332 C 0.9926 0.96506 0.71871 0.0
C333 C 0.0043 0.98081 0.74352 0.0
C334 C 0.03287 0.98084 0.7471 0.0
C335 C 0.04941 0.96612 0.72579 0.0
H336 H 0.42215 0.9337 0.98018 0.0
H337 H 0.49363 0.88183 0.98181 0.0
H338 H 0.43808 0.95668 0.02894 0.0
H339 H 0.50927 0.90451 0.03089 0.0
H340 H 0.54663 0.98106 0.07976 0.0
H341 H 0.52778 0.95016 0.03953 0.0
H342 H 0.44916 0.95389 0.08679 0.0
H343 H 0.46798 0.98527 0.12701 0.0
C344 C 0.44093 0.92676 0.99134 0.0
C345 C 0.45683 0.90622 0.9768 0.0
C346 C 0.45002 0.93988 0.0194 0.0
C347 C 0.47516 0.93269 0.03351 0.0
C348 C 0.49009 0.91088 0.02021 0.0
C349 C 0.48103 0.89778 0.99217 0.0
C350 C 0.52538 0.97513 0.08181 0.0
C351 C 0.50876 0.98583 0.10644 0.0
C352 C 0.51461 0.95721 0.05886 0.0
C353 C 0.48695 0.94954 0.05995 0.0
C354 C 0.47048 0.95962 0.08513 0.0
C355 C 0.4813 0.97752 0.10821 0.0
H356 H 0.63191 0.47979 0.98248 0.0
H357 H 0.57228 0.4147 0.98292 0.0
H358 H 0.61258 0.4977 0.0325 0.0
H359 H 0.55263 0.43295 0.0324 0.0
H360 H 0.524 0.46763 0.1263 0.0
H361 H 0.5557 0.44488 0.08946 0.0
H362 H 0.56963 0.52154 0.04035 0.0
H363 H 0.5385 0.54426 0.0773 0.0
C364 C 0.61505 0.46896 0.99358 0.0
C365 C 0.60328 0.44614 0.97836 0.0
C366 C 0.60388 0.47933 0.02215 0.0
C367 C 0.58072 0.46709 0.03607 0.0
C368 C 0.57052 0.44285 0.0224 0.0
C369 C 0.58172 0.43245 0.99387 0.0
C370 C 0.53417 0.47969 0.10794 0.0
C371 C 0.52843 0.50768 0.10442 0.0
C372 C 0.55228 0.46663 0.08681 0.0
C373 C 0.56508 0.48134 0.06185 0.0
C374 C 0.56042 0.50962 0.05952 0.0
C375 C 0.54233 0.52264 0.08056 0.0
H376 H 0.96942 0.52625 0.0548 0.0
H377 H 0.04987 0.49574 0.07849 0.0
H378 H 0.98783 0.54815 0.00666 0.0
H379 H 0.06833 0.518 0.03041 0.0
H380 H 0.07561 0.52396 0.91764 0.0
H381 H 0.06367 0.50937 0.97207 0.0
H382 H 0.01848 0.58422 0.98647 0.0
H383 H 0.03013 0.59875 0.93169 0.0
C384 C 0.9911 0.52451 0.04997 0.0
C385 C 0.00812 0.50901 0.07031 0.0
C386 C 0.0017 0.53726 0.0225 0.0
C387 C 0.02953 0.53476 0.01469 0.0
C388 C 0.04675 0.52006 0.03563 0.0
C389 C 0.03616 0.50738 0.06321 0.0
C390 C 0.0635 0.53754 0.93256 0.0
C391 C 0.05353 0.56236 0.92017 0.0
C392 C 0.05679 0.52923 0.96387 0.0
C393 C 0.03991 0.54553 0.98346 0.0
C394 C 0.0312 0.57105 0.97174 0.0
C395 C 0.03802 0.57944 0.94043 0.0
H396 H 0.92025 0.04402 0.00282 0.0
H397 H 0.97749 0.99331 0.9505 0.0
H398 H 0.94133 0.0299 0.05387 0.0
H399 H 0.99865 0.97971 0.00108 0.0
H400 H 0.01417 0.93911 0.0967 0.0
H401 H 0.98873 0.95244 0.04863 0.0
H402 H 0.98456 0.03547 0.08378 0.0
H403 H 0.00958 0.02201 0.13232 0.0
C404 C 0.93731 0.02992 0.0022 0.0
C405 C 0.94715 0.01975 0.97261 0.0
C406 C 0.94944 0.02193 0.0314 0.0
C407 C 0.97155 0.00355 0.03153 0.0
C408 C 0.98134 0.99349 0.0019 0.0
C409 C 0.9693 0.00147 0.97284 0.0
C410 C 0.00769 0.96017 0.09432 0.0
C411 C 0.01414 0.97955 0.11821 0.0
C412 C 0.99321 0.96785 0.06668 0.0
C413 C 0.98487 0.99508 0.06222 0.0
C414 C 0.99053 0.01429 0.08659 0.0
C415 C 0.00502 0.0066 0.11431 0.0
H416 H 0.40795 0.56171 0.52632 0.0
H417 H 0.47576 0.61677 0.51121 0.0
H418 H 0.42021 0.53701 0.47733 0.0
H419 H 0.48767 0.59234 0.46182 0.0
H420 H 0.52491 0.51435 0.4159 0.0
H421 H 0.50792 0.5472 0.45507 0.0
H422 H 0.42595 0.53631 0.41844 0.0
H423 H 0.44296 0.50293 0.37934 0.0
C424 C 0.42504 0.56899 0.51211 0.0
C425 C 0.44119 0.59089 0.52301 0.0
C426 C 0.432 0.55488 0.48391 0.0
C427 C 0.4552 0.56243 0.466 0.0
C428 C 0.47002 0.58568 0.47551 0.0
C429 C 0.46309 0.59977 0.50371 0.0
C430 C 0.50329 0.51909 0.41596 0.0
C431 C 0.48526 0.50583 0.39469 0.0
C432 C 0.49357 0.53815 0.43824 0.0
C433 C 0.46557 0.54443 0.43983 0.0
C434 C 0.4476 0.53174 0.41796 0.0
C435 C 0.45736 0.51268 0.39554 0.0
H436 H 0.99561 0.49291 0.58805 0.0
H437 H 0.92965 0.47404 0.52219 0.0
H438 H 0.02123 0.51343 0.54375 0.0
H439 H 0.95552 0.4941 0.47781 0.0
H440 H 0.99898 0.55492 0.41178 0.0
H441 H 0.97258 0.53764 0.45744 0.0
H442 H 0.04493 0.49831 0.49518 0.0
H443 H 0.07141 0.51598 0.44997 0.0
C444 C 0.98656 0.49315 0.56414 0.0
C445 C 0.96063 0.48174 0.55863 0.0
C446 C 0.00132 0.50478 0.53872 0.0
C447 C 0.99048 0.50529 0.50723 0.0
C448 C 0.96434 0.4943 0.50185 0.0
C449 C 0.94958 0.48266 0.52726 0.0
C450 C 0.00927 0.54267 0.42989 0.0
C451 C 0.0373 0.53681 0.42722 0.0
C452 C 0.9941 0.53265 0.45596 0.0
C453 C 0.00665 0.51659 0.47994 0.0
C454 C 0.03472 0.51093 0.47737 0.0
C455 C 0.04987 0.52092 0.45131 0.0
H456 H 0.05966 0.92979 0.49746 0.0
H457 H 0.98269 0.95041 0.54245 0.0
H458 H 0.04377 0.95012 0.44678 0.0
H459 H 0.96726 0.97129 0.49257 0.0
H460 H 0.93678 0.99048 0.39368 0.0
H461 H 0.95308 0.96266 0.43853 0.0
H462 H 0.0345 0.99487 0.42515 0.0
H463 H 0.01835 0.02197 0.37956 0.0
C464 C 0.03935 0.93854 0.49651 0.0
C465 C 0.02248 0.93854 0.52401 0.0
C466 C 0.0303 0.95033 0.46754 0.0
C467 C 0.00423 0.96238 0.46556 0.0
C468 C 0.98725 0.96181 0.49295 0.0
C469 C 0.99622 0.94998 0.52174 0.0
C470 C 0.95821 0.99144 0.40012 0.0
C471 C 0.9762 0.00868 0.3833 0.0
C472 C 0.96754 0.97558 0.42594 0.0
C473 C 0.99505 0.97676 0.43575 0.0
C474 C 0.01325 0.99324 0.41811 0.0
C475 C 0.00394 0.00895 0.39209 0.0
H476 H 0.53017 0.01528 0.37801 0.0
H477 H 0.46383 0.99752 0.4437 0.0
H478 H 0.55472 0.03835 0.42171 0.0
H479 H 0.48842 0.02014 0.48717 0.0
H480 H 0.52652 0.08108 0.55309 0.0
H481 H 0.50349 0.0655 0.50427 0.0
H482 H 0.57767 0.02569 0.47289 0.0
H483 H 0.60093 0.04166 0.52158 0.0
C484 C 0.5208 0.01634 0.40171 0.0
C485 C 0.49506 0.00452 0.40739 0.0
C486 C 0.5349 0.02947 0.42673 0.0
C487 C 0.52345 0.0312 0.45783 0.0
C488 C 0.49761 0.0196 0.46335 0.0
C489 C 0.4836 0.00641 0.43845 0.0
C490 C 0.53808 0.06938 0.53557 0.0
C491 C 0.56547 0.06232 0.54143 0.0
C492 C 0.52482 0.06032 0.50767 0.0
C493 C 0.53863 0.04398 0.485 0.0
C494 C 0.56649 0.03832 0.48986 0.0
C495 C 0.5798 0.04741 0.51781 0.0
H496 H 0.81676 0.11989 0.28431 0.0
H497 H 0.81881 0.13666 0.18173 0.0
H498 H 0.76714 0.11574 0.2819 0.0
H499 H 0.76924 0.13313 0.17947 0.0
H500 H 0.68127 0.10549 0.18004 0.0
H501 H 0.73089 0.10226 0.18392 0.0
H502 H 0.72864 0.14615 0.27458 0.0
H503 H 0.67905 0.14882 0.27108 0.0
C504 C 0.80665 0.12255 0.26122 0.0
C505 C 0.82173 0.12873 0.23323 0.0
C506 C 0.77819 0.12033 0.25988 0.0
C507 C 0.76417 0.12425 0.23054 0.0
C508 C 0.77937 0.12966 0.2024 0.0
C509 C 0.80781 0.13184 0.20373 0.0
C510 C 0.69134 0.11421 0.20096 0.0
C511 C 0.67621 0.12753 0.22518 0.0
C512 C 0.71981 0.1125 0.20309 0.0
C513 C 0.73378 0.12408 0.22946 0.0
C514 C 0.71854 0.13671 0.25412 0.0
C515 C 0.69009 0.13839 0.25201 0.0
H516 H 0.4098 0.80949 0.27281 0.0
H517 H 0.33303 0.82038 0.22278 0.0
H518 H 0.4102 0.76128 0.25711 0.0
H519 H 0.33335 0.77214 0.20751 0.0
H520 H 0.32927 0.67843 0.22518 0.0
H521 H 0.33018 0.7268 0.23977 0.0
H522 H 0.41266 0.73314 0.20368 0.0
H523 H 0.41173 0.68478 0.18864 0.0
C524 C 0.39308 0.80162 0.2584 0.0
C525 C 0.37137 0.8187 0.24904 0.0
C526 C 0.39338 0.77409 0.24935 0.0
C527 C 0.37175 0.76304 0.23126 0.0
C528 C 0.35015 0.78014 0.22172 0.0
C529 C 0.35007 0.80775 0.2303 0.0
C530 C 0.34763 0.6901 0.22043 0.0
C531 C 0.37042 0.67782 0.20573 0.0
C532 C 0.34807 0.7178 0.22861 0.0
C533 C 0.37146 0.73365 0.22273 0.0
C534 C 0.39443 0.7213 0.20857 0.0
C535 C 0.39384 0.69369 0.19989 0.0
H536 H 0.80968 0.43173 0.21447 0.0
H537 H 0.82242 0.35087 0.25365 0.0
H538 H 0.76099 0.42846 0.22735 0.0
H539 H 0.77372 0.34757 0.26605 0.0
H540 H 0.68137 0.34109 0.23968 0.0
H541 H 0.73033 0.34584 0.22965 0.0
H542 H 0.73012 0.42365 0.27878 0.0
H543 H 0.68113 0.4188 0.2893 0.0
C544 C 0.80212 0.41335 0.22599 0.0
C545 C 0.81986 0.39154 0.23301 0.0
C546 C 0.77431 0.41154 0.23343 0.0
C547 C 0.76365 0.38771 0.24749 0.0
C548 C 0.78143 0.36607 0.25494 0.0
C549 C 0.80929 0.36805 0.24802 0.0
C550 C 0.69174 0.35924 0.24829 0.0
C551 C 0.67742 0.37957 0.26529 0.0
C552 C 0.71977 0.36186 0.24272 0.0
C553 C 0.73395 0.38505 0.25356 0.0
C554 C 0.7196 0.40561 0.2701 0.0
C555 C 0.69163 0.40278 0.27618 0.0
H556 H 0.14503 0.82819 0.32145 0.0
H557 H 0.12606 0.83263 0.21951 0.0
H558 H 0.14314 0.77858 0.31897 0.0
H559 H 0.12333 0.78291 0.2172 0.0
H560 H 0.15754 0.69508 0.21791 0.0
H561 H 0.15388 0.74466 0.21935 0.0
H562 H 0.11388 0.73983 0.31235 0.0
H563 H 0.11831 0.69023 0.31133 0.0
C564 C 0.14007 0.81859 0.29859 0.0
C565 C 0.13586 0.83437 0.27064 0.0
C566 C 0.13881 0.7901 0.2972 0.0
C567 C 0.13315 0.77668 0.26785 0.0
C568 C 0.12818 0.79254 0.24008 0.0
C569 C 0.12958 0.82105 0.24145 0.0
C570 C 0.14777 0.70458 0.23856 0.0
C571 C 0.1384 0.68872 0.26461 0.0
C572 C 0.14551 0.73304 0.2393 0.0
C573 C 0.13368 0.74631 0.26604 0.0
C574 C 0.12353 0.73034 0.29164 0.0
C575 C 0.12593 0.70188 0.29097 0.0
H576 H 0.18466 0.87387 0.70873 0.0
H577 H 0.20286 0.95682 0.68019 0.0
H578 H 0.22601 0.87293 0.74175 0.0
H579 H 0.2443 0.95572 0.71291 0.0
H580 H 0.29713 0.95452 0.80448 0.0
H581 H 0.2563 0.95452 0.7707 0.0
H582 H 0.27629 0.87349 0.7367 0.0
H583 H 0.31705 0.87334 0.77078 0.0
C584 C 0.19757 0.89183 0.70931 0.0
C585 C 0.19042 0.91545 0.69188 0.0
C586 C 0.22132 0.89124 0.72813 0.0
C587 C 0.23837 0.91429 0.73007 0.0
C588 C 0.23139 0.93776 0.71228 0.0
C589 C 0.20773 0.93832 0.69336 0.0
C590 C 0.29281 0.93667 0.78987 0.0
C591 C 0.31036 0.91393 0.79033 0.0
C592 C 0.2695 0.93675 0.77034 0.0
C593 C 0.26312 0.91405 0.75092 0.0
C594 C 0.28052 0.8912 0.7516 0.0
C595 C 0.30393 0.89117 0.77103 0.0
H596 H 0.55564 0.19641 0.68035 0.0
H597 H 0.63796 0.17842 0.71162 0.0
H598 H 0.55747 0.24004 0.70885 0.0
H599 H 0.63968 0.22202 0.74024 0.0
H600 H 0.64151 0.31521 0.7574 0.0
H601 H 0.64005 0.27195 0.72802 0.0
H602 H 0.55936 0.25631 0.76592 0.0
H603 H 0.56071 0.29959 0.79517 0.0
C604 C 0.57414 0.20177 0.69325 0.0
C605 C 0.59665 0.18393 0.69373 0.0
C606 C 0.57511 0.22669 0.70972 0.0
C607 C 0.59869 0.23442 0.72683 0.0
C608 C 0.62132 0.21673 0.72702 0.0
C609 C 0.62027 0.1917 0.71076 0.0
C610 C 0.62345 0.30255 0.75946 0.0
C611 C 0.60122 0.31084 0.77862 0.0
C612 C 0.62269 0.27771 0.74276 0.0
C613 C 0.59958 0.26075 0.74464 0.0
C614 C 0.57733 0.26908 0.76372 0.0
C615 C 0.57817 0.2938 0.78062 0.0
H616 H 0.16429 0.61749 0.75048 0.0
H617 H 0.18238 0.5359 0.78426 0.0
H618 H 0.21054 0.62128 0.72887 0.0
H619 H 0.22864 0.5398 0.76275 0.0
H620 H 0.29774 0.54689 0.68721 0.0
H621 H 0.25156 0.54303 0.70895 0.0
H622 H 0.25838 0.62395 0.74977 0.0
H623 H 0.30455 0.62793 0.72793 0.0
C624 C 0.17812 0.60036 0.75328 0.0
C625 C 0.16965 0.57638 0.76907 0.0
C626 C 0.20465 0.60261 0.74107 0.0
C627 C 0.22321 0.58085 0.74414 0.0
C628 C 0.21471 0.55682 0.75976 0.0
C629 C 0.18825 0.55465 0.77221 0.0
C630 C 0.28941 0.56386 0.70084 0.0
C631 C 0.30481 0.58773 0.70583 0.0
C632 C 0.26301 0.56158 0.71342 0.0
C633 C 0.25135 0.58319 0.73104 0.0
C634 C 0.26673 0.60707 0.73601 0.0
C635 C 0.29322 0.60927 0.72365 0.0
H636 H 0.94824 0.18581 0.83875 0.0
H637 H 0.86341 0.16138 0.83785 0.0
H638 H 0.93642 0.22742 0.80935 0.0
H639 H 0.85165 0.20312 0.80851 0.0
H640 H 0.84026 0.29566 0.78697 0.0
H641 H 0.85154 0.25451 0.81774 0.0
H642 H 0.91899 0.23848 0.7532 0.0
H643 H 0.90775 0.27949 0.72236 0.0
C644 C 0.92706 0.18938 0.83243 0.0
C645 C 0.90676 0.17028 0.84059 0.0
C646 C 0.92034 0.21313 0.81544 0.0
C647 C 0.89314 0.21844 0.80657 0.0
C648 C 0.87275 0.19962 0.81523 0.0
C649 C 0.87952 0.17569 0.8319 0.0
C650 C 0.85749 0.28335 0.77934 0.0
C651 C 0.87312 0.29083 0.75223 0.0
C652 C 0.86385 0.25974 0.79687 0.0
C653 C 0.88617 0.24336 0.78789 0.0
C654 C 0.90184 0.25088 0.76086 0.0
C655 C 0.89529 0.27428 0.74311 0.0
loop_
_geom_bond_atom_site_label_1
_geom_bond_atom_site_label_2
_geom_bond_distance
_geom_bond_site_symmetry_2
_ccdc_geom_bond_type
O0 Cd1 2.300 . S
O0 C7 1.275 . S
Cd1 O0 2.300 . S
Cd1 O9 2.381 . S
Cd1 O10 2.378 . S
O2 Cd3 2.385 . S
O2 C7 1.255 . S
Cd3 O2 2.385 . S
Cd3 O4 2.317 . S
O4 Cd3 2.317 . S
O4 C5 1.232 . S
C5 O4 1.232 . S
C5 O6 1.218 . S
O6 C5 1.218 . S
C7 O0 1.275 . S
C7 O2 1.255 . S
C8 O9 1.258 . S
C8 O10 1.256 . S
O9 Cd1 2.381 . S
O9 C8 1.258 . S
O10 Cd1 2.378 . S
O10 C8 1.256 . S
O11 Cd12 2.300 . S
O11 C18 1.275 . S
Cd12 O11 2.300 . S
Cd12 O20 2.381 . S
Cd12 O21 2.378 . S
O13 Cd14 2.385 . S
O13 C18 1.255 . S
Cd14 O13 2.385 . S
Cd14 O15 2.317 . S
O15 Cd14 2.317 . S
O15 C16 1.232 . S
C16 O15 1.232 . S
C16 O17 1.218 . S
O17 C16 1.218 . S
C18 O11 1.275 . S
C18 O13 1.255 . S
C19 O20 1.258 . S
C19 O21 1.256 . S
O20 Cd12 2.381 . S
O20 C19 1.258 . S
O21 Cd12 2.378 . S
O21 C19 1.256 . S
O22 Cd23 2.300 . S
O22 C29 1.275 . S
Cd23 O22 2.300 . S
Cd23 O31 2.381 . S
Cd23 O32 2.378 . S
O24 Cd25 2.385 . S
O24 C29 1.255 . S
Cd25 O24 2.385 . S
Cd25 O26 2.317 . S
O26 Cd25 2.317 . S
O26 C27 1.232 . S
C27 O26 1.232 . S
C27 O28 1.218 . S
O28 C27 1.218 . S
C29 O22 1.275 . S
C29 O24 1.255 . S
C30 O31 1.258 . S
C30 O32 1.256 . S
O31 Cd23 2.381 . S
O31 C30 1.258 . S
O32 Cd23 2.378 . S
O32 C30 1.256 . S
O33 Cd34 2.300 . S
O33 C40 1.275 . S
Cd34 O33 2.300 . S
Cd34 O42 2.381 . S
Cd34 O43 2.378 . S
O35 Cd36 2.385 . S
O35 C40 1.255 . S
Cd36 O35 2.385 . S
Cd36 O37 2.317 . S
O37 Cd36 2.317 . S
O37 C38 1.232 . S
C38 O37 1.232 . S
C38 O39 1.218 . S
O39 C38 1.218 . S
C40 O33 1.275 . S
C40 O35 1.255 . S
C41 O42 1.258 . S
C41 O43 1.256 . S
O42 Cd34 2.381 . S
O42 C41 1.258 . S
O43 Cd34 2.378 . S
O43 C41 1.256 . S
O44 Cd45 2.300 . S
O44 C51 1.275 . S
Cd45 O44 2.300 . S
Cd45 O53 2.381 . S
Cd45 O54 2.378 . S
O46 Cd47 2.385 . S
O46 C51 1.255 . S
Cd47 O46 2.385 . S
Cd47 O48 2.317 . S
O48 Cd47 2.317 . S
O48 C49 1.232 . S
C49 O48 1.232 . S
C49 O50 1.218 . S
O50 C49 1.218 . S
C51 O44 1.275 . S
C51 O46 1.255 . S
C52 O53 1.258 . S
C52 O54 1.256 . S
O53 Cd45 2.381 . S
O53 C52 1.258 . S
O54 Cd45 2.378 . S
O54 C52 1.256 . S
O55 Cd56 2.300 . S
O55 C62 1.275 . S
Cd56 O55 2.300 . S
Cd56 O64 2.381 . S
Cd56 O65 2.378 . S
O57 Cd58 2.385 . S
O57 C62 1.255 . S
Cd58 O57 2.385 . S
Cd58 O59 2.317 . S
O59 Cd58 2.317 . S
O59 C60 1.232 . S
C60 O59 1.232 . S
C60 O61 1.218 . S
O61 C60 1.218 . S
C62 O55 1.275 . S
C62 O57 1.255 . S
C63 O64 1.258 . S
C63 O65 1.256 . S
O64 Cd56 2.381 . S
O64 C63 1.258 . S
O65 Cd56 2.378 . S
O65 C63 1.256 . S
O66 Cd67 2.300 . S
O66 C73 1.275 . S
Cd67 O66 2.300 . S
Cd67 O75 2.381 . S
Cd67 O76 2.378 . S
O68 Cd69 2.385 . S
O68 C73 1.255 . S
Cd69 O68 2.385 . S
Cd69 O70 2.317 . S
O70 Cd69 2.317 . S
O70 C71 1.232 . S
C71 O70 1.232 . S
C71 O72 1.218 . S
O72 C71 1.218 . S
C73 O66 1.275 . S
C73 O68 1.255 . S
C74 O75 1.258 . S
C74 O76 1.256 . S
O75 Cd67 2.381 . S
O75 C74 1.258 . S
O76 Cd67 2.378 . S
O76 C74 1.256 . S
O77 Cd78 2.300 . S
O77 C84 1.275 . S
Cd78 O77 2.300 . S
Cd78 O86 2.381 . S
Cd78 O87 2.378 . S
O79 Cd80 2.385 . S
O79 C84 1.255 . S
Cd80 O79 2.385 . S
Cd80 O81 2.317 . S
O81 Cd80 2.317 . S
O81 C82 1.232 . S
C82 O81 1.232 . S
C82 O83 1.218 . S
O83 C82 1.218 . S
C84 O77 1.275 . S
C84 O79 1.255 . S
C85 O86 1.258 . S
C85 O87 1.256 . S
O86 Cd78 2.381 . S
O86 C85 1.258 . S
O87 Cd78 2.378 . S
O87 C85 1.256 . S
O88 Cd89 2.300 . S
O88 C95 1.275 . S
Cd89 O88 2.300 . S
Cd89 O97 2.381 . S
Cd89 O98 2.378 . S
O90 Cd91 2.385 . S
O90 C95 1.255 . S
Cd91 O90 2.385 . S
Cd91 O92 2.317 . S
O92 Cd91 2.317 . S
O92 C93 1.232 . S
C93 O92 1.232 . S
C93 O94 1.218 . S
O94 C93 1.218 . S
C95 O88 1.275 . S
C95 O90 1.255 . S
C96 O97 1.258 . S
C96 O98 1.256 . S
O97 Cd89 2.381 . S
O97 C96 1.258 . S
O98 Cd89 2.378 . S
O98 C96 1.256 . S
O99 Cd100 2.300 . S
O99 C106 1.275 . S
Cd100 O99 2.300 . S
Cd100 O108 2.381 . S
Cd100 O109 2.378 . S
O101 Cd102 2.385 . S
O101 C106 1.255 . S
Cd102 O101 2.385 . S
Cd102 O103 2.317 . S
O103 Cd102 2.317 . S
O103 C104 1.232 . S
C104 O103 1.232 . S
C104 O105 1.218 . S
O105 C104 1.218 . S
C106 O99 1.275 . S
C106 O101 1.255 . S
C107 O108 1.258 . S
C107 O109 1.256 . S
O108 Cd100 2.381 . S
O108 C107 1.258 . S
O109 Cd100 2.378 . S
O109 C107 1.256 . S
O110 Cd111 2.300 . S
O110 C117 1.275 . S
Cd111 O110 2.300 . S
Cd111 O119 2.381 . S
Cd111 O120 2.378 . S
O112 Cd113 2.385 . S
O112 C117 1.255 . S
Cd113 O112 2.385 . S
Cd113 O114 2.317 . S
O114 Cd113 2.317 . S
O114 C115 1.232 . S
C115 O114 1.232 . S
C115 O116 1.218 . S
O116 C115 1.218 . S
C117 O110 1.275 . S
C117 O112 1.255 . S
C118 O119 1.258 . S
C118 O120 1.256 . S
O119 Cd111 2.381 . S
O119 C118 1.258 . S
O120 Cd111 2.378 . S
O120 C118 1.256 . S
O121 Cd122 2.300 . S
O121 C128 1.275 . S
Cd122 O121 2.300 . S
Cd122 O130 2.381 . S
Cd122 O131 2.378 . S
O123 Cd124 2.385 . S
O123 C128 1.255 . S
Cd124 O123 2.385 . S
Cd124 O125 2.317 . S
O125 Cd124 2.317 . S
O125 C126 1.232 . S
C126 O125 1.232 . S
C126 O127 1.218 . S
O127 C126 1.218 . S
C128 O121 1.275 . S
C128 O123 1.255 . S
C129 O130 1.258 . S
C129 O131 1.256 . S
O130 Cd122 2.381 . S
O130 C129 1.258 . S
O131 Cd122 2.378 . S
O131 C129 1.256 . S
O132 Cd133 2.300 . S
O132 C139 1.275 . S
Cd133 O132 2.300 . S
Cd133 O141 2.381 . S
Cd133 O142 2.378 . S
O134 Cd135 2.385 . S
O134 C139 1.255 . S
Cd135 O134 2.385 . S
Cd135 O136 2.317 . S
O136 Cd135 2.317 . S
O136 C137 1.232 . S
C137 O136 1.232 . S
C137 O138 1.218 . S
O138 C137 1.218 . S
C139 O132 1.275 . S
C139 O134 1.255 . S
C140 O141 1.258 . S
C140 O142 1.256 . S
O141 Cd133 2.381 . S
O141 C140 1.258 . S
O142 Cd133 2.378 . S
O142 C140 1.256 . S
O143 Cd144 2.300 . S
O143 C150 1.275 . S
Cd144 O143 2.300 . S
Cd144 O152 2.381 . S
Cd144 O153 2.378 . S
O145 Cd146 2.385 . S
O145 C150 1.255 . S
Cd146 O145 2.385 . S
Cd146 O147 2.317 . S
O147 Cd146 2.317 . S
O147 C148 1.232 . S
C148 O147 1.232 . S
C148 O149 1.218 . S
O149 C148 1.218 . S
C150 O143 1.275 . S
C150 O145 1.255 . S
C151 O152 1.258 . S
C151 O153 1.256 . S
O152 Cd144 2.381 . S
O152 C151 1.258 . S
O153 Cd144 2.378 . S
O153 C151 1.256 . S
O154 Cd155 2.300 . S
O154 C161 1.275 . S
Cd155 O154 2.300 . S
Cd155 O163 2.381 . S
Cd155 O164 2.378 . S
O156 Cd157 2.385 . S
O156 C161 1.255 . S
Cd157 O156 2.385 . S
Cd157 O158 2.317 . S
O158 Cd157 2.317 . S
O158 C159 1.232 . S
C159 O158 1.232 . S
C159 O160 1.218 . S
O160 C159 1.218 . S
C161 O154 1.275 . S
C161 O156 1.255 . S
C162 O163 1.258 . S
C162 O164 1.256 . S
O163 Cd155 2.381 . S
O163 C162 1.258 . S
O164 Cd155 2.378 . S
O164 C162 1.256 . S
O165 Cd166 2.300 . S
O165 C172 1.275 . S
Cd166 O165 2.300 . S
Cd166 O174 2.381 . S
Cd166 O175 2.378 . S
O167 Cd168 2.385 . S
O167 C172 1.255 . S
Cd168 O167 2.385 . S
Cd168 O169 2.317 . S
O169 Cd168 2.317 . S
O169 C170 1.232 . S
C170 O169 1.232 . S
C170 O171 1.218 . S
O171 C170 1.218 . S
C172 O165 1.275 . S
C172 O167 1.255 . S
C173 O174 1.258 . S
C173 O175 1.256 . S
O174 Cd166 2.381 . S
O174 C173 1.258 . S
O175 Cd166 2.378 . S
O175 C173 1.256 . S
H176 C184 0.950 . S
H177 C189 0.950 . S
H178 C186 0.950 1_565 S
H179 C188 0.950 . S
H180 C190 0.936 1_545 S
H181 C192 0.950 . S
H182 C194 0.950 . S
H183 C195 0.950 . S
C184 H176 0.950 . S
C184 C185 1.386 . S
C184 C186 1.391 . S
C185 C184 1.386 . S
C185 C189 1.393 . S
C186 H178 0.950 1_545 S
C186 C184 1.391 . S
C186 C187 1.400 . S
C187 C186 1.400 . S
C187 C188 1.398 . S
C187 C193 1.491 . S
C188 H179 0.950 . S
C188 C187 1.398 . S
C188 C189 1.391 . S
C189 H177 0.950 . S
C189 C185 1.393 . S
C189 C188 1.391 . S
C190 H180 0.936 1_565 S
C190 C191 1.386 . S
C190 C192 1.391 1_565 S
C191 C190 1.386 . S
C191 C195 1.393 . S
C192 H181 0.950 . S
C192 C190 1.391 1_545 S
C192 C193 1.400 . S
C193 C187 1.491 . S
C193 C192 1.400 . S
C193 C194 1.398 1_545 S
C194 H182 0.950 . S
C194 C193 1.398 1_565 S
C194 C195 1.391 . S
C195 H183 0.950 . S
C195 C191 1.393 . S
C195 C194 1.391 . S
H196 C204 0.950 . S
H197 C209 0.950 . S
H198 C206 0.950 . S
H199 C208 0.950 . S
H200 C210 0.950 . S
H201 C212 0.950 . S
H202 C214 0.950 . S
H203 C215 0.950 . S
C204 H196 0.950 . S
C204 C205 1.386 . S
C204 C206 1.391 . S
C205 C204 1.386 . S
C205 C209 1.393 . S
C206 H198 0.950 . S
C206 C204 1.391 . S
C206 C207 1.400 . S
C207 C206 1.400 . S
C207 C208 1.398 . S
C207 C213 1.491 . S
C208 H199 0.950 . S
C208 C207 1.398 . S
C208 C209 1.391 . S
C209 H197 0.950 . S
C209 C205 1.393 . S
C209 C208 1.391 . S
C210 H200 0.950 . S
C210 C211 1.386 . S
C210 C212 1.391 . S
C211 C210 1.386 . S
C211 C215 1.393 . S
C212 H201 0.950 . S
C212 C210 1.391 . S
C212 C213 1.400 . S
C213 C207 1.491 . S
C213 C212 1.400 . S
C213 C214 1.398 . S
C214 H202 0.950 . S
C214 C213 1.398 . S
C214 C215 1.391 . S
C215 H203 0.950 . S
C215 C211 1.393 . S
C215 C214 1.391 . S
H216 C224 0.950 . S
H217 C229 0.950 . S
H218 C226 0.950 . S
H219 C228 0.950 . S
H220 C230 0.950 . S
H221 C232 0.950 . S
H222 C234 0.960 . S
H223 C235 0.950 . S
C224 H216 0.950 . S
C224 C225 1.386 . S
C224 C226 1.391 . S
C225 C224 1.386 . S
C225 C229 1.393 . S
C226 H218 0.950 . S
C226 C224 1.391 . S
C226 C227 1.400 1_655 S
C227 C226 1.400 1_455 S
C227 C228 1.398 . S
C227 C233 1.491 . S
C228 H219 0.950 . S
C228 C227 1.398 . S
C228 C229 1.391 1_455 S
C229 H217 0.950 . S
C229 C225 1.393 . S
C229 C228 1.391 1_655 S
C230 H220 0.950 . S
C230 C231 1.386 . S
C230 C232 1.391 . S
C231 C230 1.386 . S
C231 C235 1.393 . S
C232 H221 0.950 . S
C232 C230 1.391 . S
C232 C233 1.400 . S
C233 C227 1.491 . S
C233 C232 1.400 . S
C233 C234 1.398 . S
C234 H222 0.960 . S
C234 C233 1.398 . S
C234 C235 1.391 . S
C235 H223 0.950 . S
C235 C231 1.393 . S
C235 C234 1.391 . S
H236 C244 0.950 1_455 S
H237 C249 0.950 . S
H238 C246 0.950 . S
H239 C248 0.950 . S
H240 C250 0.950 . S
H241 C252 0.950 1_655 S
H242 C254 0.950 . S
H243 C255 0.950 . S
C244 H236 0.950 1_655 S
C244 C245 1.386 . S
C244 C246 1.391 1_655 S
C245 C244 1.386 . S
C245 C249 1.393 . S
C246 H238 0.950 . S
C246 C244 1.391 1_455 S
C246 C247 1.400 . S
C247 C246 1.400 . S
C247 C248 1.398 1_455 S
C247 C253 1.491 . S
C248 H239 0.950 . S
C248 C247 1.398 1_655 S
C248 C249 1.391 . S
C249 H237 0.950 . S
C249 C245 1.393 . S
C249 C248 1.391 . S
C250 H240 0.950 . S
C250 C251 1.386 . S
C250 C252 1.391 . S
C251 C250 1.386 . S
C251 C255 1.393 . S
C252 H241 0.950 1_455 S
C252 C250 1.391 . S
C252 C253 1.400 1_565 S
C253 C247 1.491 . S
C253 C252 1.400 1_545 S
C253 C254 1.398 . S
C254 H242 0.950 . S
C254 C253 1.398 . S
C254 C255 1.391 1_545 S
C255 H243 0.950 . S
C255 C251 1.393 . S
C255 C254 1.391 1_565 S
H256 C264 0.950 . S
H257 C269 0.950 . S
H258 C266 0.951 1_565 S
H259 C268 0.950 . S
H260 C270 0.950 . S
H261 C272 0.950 . S
H262 C274 0.950 . S
H263 C275 0.950 . S
C264 H256 0.950 . S
C264 C265 1.386 . S
C264 C266 1.390 . S
C265 C264 1.386 . S
C265 C269 1.393 . S
C266 H258 0.951 1_545 S
C266 C264 1.390 . S
C266 C267 1.401 1_545 S
C267 C266 1.401 1_565 S
C267 C268 1.398 1_565 S
C267 C273 1.491 . S
C268 H259 0.950 . S
C268 C267 1.398 1_545 S
C268 C269 1.391 . S
C269 H257 0.950 . S
C269 C265 1.393 . S
C269 C268 1.391 . S
C270 H260 0.950 . S
C270 C271 1.386 . S
C270 C272 1.391 . S
C271 C270 1.386 . S
C271 C275 1.393 . S
C272 H261 0.950 . S
C272 C270 1.391 . S
C272 C273 1.400 . S
C273 C267 1.491 . S
C273 C272 1.400 . S
C273 C274 1.398 . S
C274 H262 0.950 . S
C274 C273 1.398 . S
C274 C275 1.391 . S
C275 H263 0.950 . S
C275 C271 1.393 . S
C275 C274 1.391 . S
H276 C284 0.950 . S
H277 C289 0.950 . S
H278 C286 0.950 . S
H279 C288 0.950 . S
H280 C290 0.950 . S
H281 C292 0.950 . S
H282 C294 0.950 . S
H283 C295 0.950 . S
C284 H276 0.950 . S
C284 C285 1.386 . S
C284 C286 1.391 . S
C285 C284 1.386 . S
C285 C289 1.393 . S
C286 H278 0.950 . S
C286 C284 1.391 . S
C286 C287 1.400 . S
C287 C286 1.400 . S
C287 C288 1.398 . S
C287 C293 1.491 . S
C288 H279 0.950 . S
C288 C287 1.398 . S
C288 C289 1.391 . S
C289 H277 0.950 . S
C289 C285 1.393 . S
C289 C288 1.391 . S
C290 H280 0.950 . S
C290 C291 1.386 . S
C290 C292 1.391 . S
C291 C290 1.386 . S
C291 C295 1.393 . S
C292 H281 0.950 . S
C292 C290 1.391 . S
C292 C293 1.400 . S
C293 C287 1.491 . S
C293 C292 1.400 . S
C293 C294 1.398 . S
C294 H282 0.950 . S
C294 C293 1.398 . S
C294 C295 1.391 . S
C295 H283 0.950 . S
C295 C291 1.393 . S
C295 C294 1.391 . S
H296 C304 0.950 1_655 S
H297 C309 0.950 . S
H298 C306 0.950 . S
H299 C308 0.950 . S
H300 C310 0.950 . S
H301 C312 0.950 1_455 S
H302 C314 0.950 . S
H303 C315 0.950 . S
C304 H296 0.950 1_455 S
C304 C305 1.386 . S
C304 C306 1.391 1_455 S
C305 C304 1.386 . S
C305 C309 1.393 . S
C306 H298 0.950 . S
C306 C304 1.391 1_655 S
C306 C307 1.400 . S
C307 C306 1.400 . S
C307 C308 1.398 1_655 S
C307 C313 1.491 . S
C308 H299 0.950 . S
C308 C307 1.398 1_455 S
C308 C309 1.391 . S
C309 H297 0.950 . S
C309 C305 1.393 . S
C309 C308 1.391 . S
C310 H300 0.950 . S
C310 C311 1.386 . S
C310 C312 1.391 . S
C311 C310 1.386 . S
C311 C315 1.393 . S
C312 H301 0.950 1_655 S
C312 C310 1.391 . S
C312 C313 1.400 . S
C313 C307 1.491 . S
C313 C312 1.400 . S
C313 C314 1.398 . S
C314 H302 0.950 . S
C314 C313 1.398 . S
C314 C315 1.391 . S
C315 H303 0.950 . S
C315 C311 1.393 . S
C315 C314 1.391 . S
H316 C324 0.950 . S
H317 C329 0.950 . S
H318 C326 0.950 1_455 S
H319 C328 0.950 . S
H320 C330 0.950 1_655 S
H321 C332 0.950 . S
H322 C334 0.981 . S
H323 C335 0.950 . S
C324 H316 0.950 . S
C324 C325 1.386 . S
C324 C326 1.391 . S
C325 C324 1.386 . S
C325 C329 1.393 . S
C326 H318 0.950 1_655 S
C326 C324 1.391 . S
C326 C327 1.400 1_545 S
C327 C326 1.400 1_565 S
C327 C328 1.398 . S
C327 C333 1.491 . S
C328 H319 0.950 . S
C328 C327 1.398 . S
C328 C329 1.391 1_565 S
C329 H317 0.950 . S
C329 C325 1.393 . S
C329 C328 1.391 1_545 S
C330 H320 0.950 1_455 S
C330 C331 1.386 . S
C330 C332 1.391 1_455 S
C331 C330 1.386 . S
C331 C335 1.393 . S
C332 H321 0.950 . S
C332 C330 1.391 1_655 S
C332 C333 1.400 . S
C333 C327 1.491 . S
C333 C332 1.400 . S
C333 C334 1.398 1_655 S
C334 H322 0.981 . S
C334 C333 1.398 1_455 S
C334 C335 1.391 . S
C335 H323 0.950 . S
C335 C331 1.393 . S
C335 C334 1.391 . S
H336 C344 0.950 . S
H337 C349 0.950 . S
H338 C346 0.950 1_545 S
H339 C348 0.950 . S
H340 C350 0.950 . S
H341 C352 0.950 1_565 S
H342 C354 0.950 . S
H343 C355 0.950 . S
C344 H336 0.950 . S
C344 C345 1.386 . S
C344 C346 1.391 . S
C345 C344 1.386 . S
C345 C349 1.393 . S
C346 H338 0.950 1_565 S
C346 C344 1.391 . S
C346 C347 1.400 . S
C347 C346 1.400 . S
C347 C348 1.398 . S
C347 C353 1.491 1_566 S
C348 H339 0.950 . S
C348 C347 1.398 . S
C348 C349 1.391 . S
C349 H337 0.950 . S
C349 C345 1.393 . S
C349 C348 1.391 . S
C350 H340 0.950 . S
C350 C351 1.386 . S
C350 C352 1.391 . S
C351 C350 1.386 . S
C351 C355 1.393 . S
C352 H341 0.950 1_545 S
C352 C350 1.391 . S
C352 C353 1.400 . S
C353 C347 1.491 1_544 S
C353 C352 1.400 . S
C353 C354 1.398 . S
C354 H342 0.950 . S
C354 C353 1.398 . S
C354 C355 1.391 . S
C355 H343 0.950 . S
C355 C351 1.393 . S
C355 C354 1.391 . S
H356 C364 0.950 . S
H357 C369 0.950 . S
H358 C366 0.950 . S
H359 C368 0.950 . S
H360 C370 0.950 . S
H361 C372 0.950 . S
H362 C374 0.950 . S
H363 C375 0.950 . S
C364 H356 0.950 . S
C364 C365 1.386 . S
C364 C366 1.391 . S
C365 C364 1.386 . S
C365 C369 1.393 . S
C366 H358 0.950 . S
C366 C364 1.391 . S
C366 C367 1.400 . S
C367 C366 1.400 . S
C367 C368 1.398 . S
C367 C373 1.491 1_556 S
C368 H359 0.950 . S
C368 C367 1.398 . S
C368 C369 1.391 . S
C369 H357 0.950 . S
C369 C365 1.393 . S
C369 C368 1.391 . S
C370 H360 0.950 . S
C370 C371 1.386 . S
C370 C372 1.391 . S
C371 C370 1.386 . S
C371 C375 1.393 . S
C372 H361 0.950 . S
C372 C370 1.391 . S
C372 C373 1.400 . S
C373 C367 1.491 1_554 S
C373 C372 1.400 . S
C373 C374 1.398 . S
C374 H362 0.950 . S
C374 C373 1.398 . S
C374 C375 1.391 . S
C375 H363 0.950 . S
C375 C371 1.393 . S
C375 C374 1.391 . S
H376 C384 0.950 . S
H377 C389 0.950 . S
H378 C386 0.950 . S
H379 C388 0.950 1_456 S
H380 C390 0.950 . S
H381 C392 0.950 . S
H382 C394 0.950 1_654 S
H383 C395 0.950 . S
C384 H376 0.950 . S
C384 C385 1.386 . S
C384 C386 1.391 . S
C385 C384 1.386 . S
C385 C389 1.393 . S
C386 H378 0.950 . S
C386 C384 1.391 . S
C386 C387 1.400 . S
C387 C386 1.400 . S
C387 C388 1.398 . S
C387 C393 1.491 1_654 S
C388 H379 0.950 1_654 S
C388 C387 1.398 . S
C388 C389 1.391 . S
C389 H377 0.950 . S
C389 C385 1.393 . S
C389 C388 1.391 . S
C390 H380 0.950 . S
C390 C391 1.386 . S
C390 C392 1.391 . S
C391 C390 1.386 . S
C391 C395 1.393 . S
C392 H381 0.950 . S
C392 C390 1.391 . S
C392 C393 1.400 . S
C393 C387 1.491 1_456 S
C393 C392 1.400 . S
C393 C394 1.398 . S
C394 H382 0.950 1_456 S
C394 C393 1.398 . S
C394 C395 1.391 . S
C395 H383 0.950 . S
C395 C391 1.393 . S
C395 C394 1.391 . S
H396 C404 0.950 . S
H397 C409 0.950 1_565 S
H398 C406 0.950 1_554 S
H399 C408 0.950 . S
H400 C410 0.950 . S
H401 C412 0.950 1_556 S
H402 C414 0.950 . S
H403 C415 0.950 1_545 S
C404 H396 0.950 . S
C404 C405 1.386 . S
C404 C406 1.391 . S
C405 C404 1.386 . S
C405 C409 1.393 . S
C406 H398 0.950 1_556 S
C406 C404 1.391 . S
C406 C407 1.400 . S
C407 C406 1.400 . S
C407 C408 1.398 1_545 S
C407 C413 1.491 1_646 S
C408 H399 0.950 . S
C408 C407 1.398 1_565 S
C408 C409 1.391 1_565 S
C409 H397 0.950 1_545 S
C409 C405 1.393 . S
C409 C408 1.391 1_545 S
C410 H400 0.950 . S
C410 C411 1.386 . S
C410 C412 1.391 . S
C411 C410 1.386 . S
C411 C415 1.393 . S
C412 H401 0.950 1_554 S
C412 C410 1.391 . S
C412 C413 1.400 . S
C413 C407 1.491 1_464 S
C413 C412 1.400 . S
C413 C414 1.398 1_565 S
C414 H402 0.950 . S
C414 C413 1.398 1_545 S
C414 C415 1.391 1_545 S
C415 H403 0.950 1_565 S
C415 C411 1.393 . S
C415 C414 1.391 1_565 S
H416 C424 0.950 . S
H417 C429 0.950 . S
H418 C426 0.950 . S
H419 C428 0.950 . S
H420 C430 0.950 . S
H421 C432 0.950 . S
H422 C434 0.950 . S
H423 C435 0.950 . S
C424 H416 0.950 . S
C424 C425 1.386 . S
C424 C426 1.391 . S
C425 C424 1.386 . S
C425 C429 1.393 . S
C426 H418 0.950 . S
C426 C424 1.391 . S
C426 C427 1.400 . S
C427 C426 1.400 . S
C427 C428 1.398 . S
C427 C433 1.491 . S
C428 H419 0.950 . S
C428 C427 1.398 . S
C428 C429 1.391 . S
C429 H417 0.950 . S
C429 C425 1.393 . S
C429 C428 1.391 . S
C430 H420 0.950 . S
C430 C431 1.386 . S
C430 C432 1.391 . S
C431 C430 1.386 . S
C431 C435 1.393 . S
C432 H421 0.950 . S
C432 C430 1.391 . S
C432 C433 1.400 . S
C433 C427 1.491 . S
C433 C432 1.400 . S
C433 C434 1.398 . S
C434 H422 0.950 . S
C434 C433 1.398 . S
C434 C435 1.391 . S
C435 H423 0.950 . S
C435 C431 1.393 . S
C435 C434 1.391 . S
H436 C444 0.950 . S
H437 C449 0.950 . S
H438 C446 0.950 1_455 S
H439 C448 0.950 . S
H440 C450 0.950 . S
H441 C452 0.950 1_655 S
H442 C454 0.950 . S
H443 C455 0.950 . S
C444 H436 0.950 . S
C444 C445 1.386 . S
C444 C446 1.391 . S
C445 C444 1.386 . S
C445 C449 1.393 . S
C446 H438 0.950 1_655 S
C446 C444 1.391 . S
C446 C447 1.400 . S
C447 C446 1.400 . S
C447 C448 1.398 . S
C447 C453 1.491 1_655 S
C448 H439 0.950 . S
C448 C447 1.398 . S
C448 C449 1.391 . S
C449 H437 0.950 . S
C449 C445 1.393 . S
C449 C448 1.391 . S
C450 H440 0.950 . S
C450 C451 1.386 . S
C450 C452 1.391 . S
C451 C450 1.386 . S
C451 C455 1.393 . S
C452 H441 0.950 1_455 S
C452 C450 1.391 . S
C452 C453 1.400 . S
C453 C447 1.491 1_455 S
C453 C452 1.400 . S
C453 C454 1.398 . S
C454 H442 0.950 . S
C454 C453 1.398 . S
C454 C455 1.391 . S
C455 H443 0.950 . S
C455 C451 1.393 . S
C455 C454 1.391 . S
H456 C464 0.950 . S
H457 C469 0.950 1_655 S
H458 C466 0.950 . S
H459 C468 0.950 . S
H460 C470 0.950 . S
H461 C472 0.950 . S
H462 C474 0.950 . S
H463 C475 0.950 1_455 S
C464 H456 0.950 . S
C464 C465 1.386 . S
C464 C466 1.391 . S
C465 C464 1.386 . S
C465 C469 1.393 . S
C466 H458 0.950 . S
C466 C464 1.391 . S
C466 C467 1.400 . S
C467 C466 1.400 . S
C467 C468 1.398 1_455 S
C467 C473 1.491 1_465 S
C468 H459 0.950 . S
C468 C467 1.398 1_655 S
C468 C469 1.391 1_655 S
C469 H457 0.950 1_455 S
C469 C465 1.393 . S
C469 C468 1.391 1_455 S
C470 H460 0.950 . S
C470 C471 1.386 . S
C470 C472 1.391 . S
C471 C470 1.386 . S
C471 C475 1.393 . S
C472 H461 0.950 . S
C472 C470 1.391 . S
C472 C473 1.400 . S
C473 C467 1.491 1_645 S
C473 C472 1.400 . S
C473 C474 1.398 1_655 S
C474 H462 0.950 . S
C474 C473 1.398 1_455 S
C474 C475 1.391 1_455 S
C475 H463 0.950 1_655 S
C475 C471 1.393 . S
C475 C474 1.391 1_655 S
H476 C484 0.950 . S
H477 C489 0.950 . S
H478 C486 0.950 . S
H479 C488 0.950 . S
H480 C490 0.950 . S
H481 C492 0.950 . S
H482 C494 0.950 . S
H483 C495 0.950 . S
C484 H476 0.950 . S
C484 C485 1.386 . S
C484 C486 1.391 1_565 S
C485 C484 1.386 . S
C485 C489 1.393 . S
C486 H478 0.950 . S
C486 C484 1.391 1_545 S
C486 C487 1.400 1_545 S
C487 C486 1.400 1_565 S
C487 C488 1.398 . S
C487 C493 1.491 1_565 S
C488 H479 0.950 . S
C488 C487 1.398 . S
C488 C489 1.391 . S
C489 H477 0.950 . S
C489 C485 1.393 . S
C489 C488 1.391 . S
C490 H480 0.950 . S
C490 C491 1.386 . S
C490 C492 1.391 1_545 S
C491 C490 1.386 . S
C491 C495 1.393 . S
C492 H481 0.950 . S
C492 C490 1.391 1_565 S
C492 C493 1.400 1_565 S
C493 C487 1.491 1_545 S
C493 C492 1.400 1_545 S
C493 C494 1.398 . S
C494 H482 0.950 . S
C494 C493 1.398 . S
C494 C495 1.391 . S
C495 H483 0.950 . S
C495 C491 1.393 . S
C495 C494 1.391 . S
H496 C504 0.950 . S
H497 C509 0.950 . S
H498 C506 0.950 . S
H499 C508 0.950 . S
H500 C510 0.950 . S
H501 C512 0.950 . S
H502 C514 0.950 . S
H503 C515 0.950 . S
C504 H496 0.950 . S
C504 C505 1.386 . S
C504 C506 1.391 . S
C505 C504 1.386 . S
C505 C509 1.393 . S
C506 H498 0.950 . S
C506 C504 1.391 . S
C506 C507 1.400 . S
C507 C506 1.400 . S
C507 C508 1.398 . S
C507 C513 1.491 . S
C508 H499 0.950 . S
C508 C507 1.398 . S
C508 C509 1.391 . S
C509 H497 0.950 . S
C509 C505 1.393 . S
C509 C508 1.391 . S
C510 H500 0.950 . S
C510 C511 1.386 . S
C510 C512 1.391 . S
C511 C510 1.386 . S
C511 C515 1.393 . S
C512 H501 0.950 . S
C512 C510 1.391 . S
C512 C513 1.400 . S
C513 C507 1.491 . S
C513 C512 1.400 . S
C513 C514 1.398 . S
C514 H502 0.950 . S
C514 C513 1.398 . S
C514 C515 1.391 . S
C515 H503 0.950 . S
C515 C511 1.393 . S
C515 C514 1.391 . S
H516 C524 0.950 . S
H517 C529 0.950 . S
H518 C526 0.950 . S
H519 C528 0.950 . S
H520 C530 0.950 . S
H521 C532 0.950 . S
H522 C534 0.950 . S
H523 C535 0.950 . S
C524 H516 0.950 . S
C524 C525 1.386 . S
C524 C526 1.391 . S
C525 C524 1.386 . S
C525 C529 1.393 . S
C526 H518 0.950 . S
C526 C524 1.391 . S
C526 C527 1.400 . S
C527 C526 1.400 . S
C527 C528 1.398 . S
C527 C533 1.491 . S
C528 H519 0.950 . S
C528 C527 1.398 . S
C528 C529 1.391 . S
C529 H517 0.950 . S
C529 C525 1.393 . S
C529 C528 1.391 . S
C530 H520 0.950 . S
C530 C531 1.386 . S
C530 C532 1.391 . S
C531 C530 1.386 . S
C531 C535 1.393 . S
C532 H521 0.950 . S
C532 C530 1.391 . S
C532 C533 1.400 . S
C533 C527 1.491 . S
C533 C532 1.400 . S
C533 C534 1.398 . S
C534 H522 0.950 . S
C534 C533 1.398 . S
C534 C535 1.391 . S
C535 H523 0.950 . S
C535 C531 1.393 . S
C535 C534 1.391 . S
H536 C544 0.950 . S
H537 C549 0.950 . S
H538 C546 0.950 . S
H539 C548 0.950 . S
H540 C550 0.950 . S
H541 C552 0.950 . S
H542 C554 0.950 . S
H543 C555 0.950 . S
C544 H536 0.950 . S
C544 C545 1.386 . S
C544 C546 1.391 . S
C545 C544 1.386 . S
C545 C549 1.393 . S
C546 H538 0.950 . S
C546 C544 1.391 . S
C546 C547 1.400 . S
C547 C546 1.400 . S
C547 C548 1.398 . S
C547 C553 1.491 . S
C548 H539 0.950 . S
C548 C547 1.398 . S
C548 C549 1.391 . S
C549 H537 0.950 . S
C549 C545 1.393 . S
C549 C548 1.391 . S
C550 H540 0.950 . S
C550 C551 1.386 . S
C550 C552 1.391 . S
C551 C550 1.386 . S
C551 C555 1.393 . S
C552 H541 0.950 . S
C552 C550 1.391 . S
C552 C553 1.400 . S
C553 C547 1.491 . S
C553 C552 1.400 . S
C553 C554 1.398 . S
C554 H542 0.950 . S
C554 C553 1.398 . S
C554 C555 1.391 . S
C555 H543 0.950 . S
C555 C551 1.393 . S
C555 C554 1.391 . S
H556 C564 0.950 . S
H557 C569 0.950 . S
H558 C566 0.950 . S
H559 C568 0.950 . S
H560 C570 0.950 . S
H561 C572 0.950 . S
H562 C574 0.950 . S
H563 C575 0.950 . S
C564 H556 0.950 . S
C564 C565 1.386 . S
C564 C566 1.391 . S
C565 C564 1.386 . S
C565 C569 1.393 . S
C566 H558 0.950 . S
C566 C564 1.391 . S
C566 C567 1.400 . S
C567 C566 1.400 . S
C567 C568 1.398 . S
C567 C573 1.491 . S
C568 H559 0.950 . S
C568 C567 1.398 . S
C568 C569 1.391 . S
C569 H557 0.950 . S
C569 C565 1.393 . S
C569 C568 1.391 . S
C570 H560 0.950 . S
C570 C571 1.386 . S
C570 C572 1.391 . S
C571 C570 1.386 . S
C571 C575 1.393 . S
C572 H561 0.950 . S
C572 C570 1.391 . S
C572 C573 1.400 . S
C573 C567 1.491 . S
C573 C572 1.400 . S
C573 C574 1.398 . S
C574 H562 0.950 . S
C574 C573 1.398 . S
C574 C575 1.391 . S
C575 H563 0.950 . S
C575 C571 1.393 . S
C575 C574 1.391 . S
H576 C584 0.950 . S
H577 C589 0.950 . S
H578 C586 0.950 . S
H579 C588 0.950 . S
H580 C590 0.950 . S
H581 C592 0.950 . S
H582 C594 0.950 . S
H583 C595 0.950 . S
C584 H576 0.950 . S
C584 C585 1.386 . S
C584 C586 1.391 . S
C585 C584 1.386 . S
C585 C589 1.393 . S
C586 H578 0.950 . S
C586 C584 1.391 . S
C586 C587 1.400 . S
C587 C586 1.400 . S
C587 C588 1.398 . S
C587 C593 1.491 . S
C588 H579 0.950 . S
C588 C587 1.398 . S
C588 C589 1.391 . S
C589 H577 0.950 . S
C589 C585 1.393 . S
C589 C588 1.391 . S
C590 H580 0.950 . S
C590 C591 1.386 . S
C590 C592 1.391 . S
C591 C590 1.386 . S
C591 C595 1.393 . S
C592 H581 0.950 . S
C592 C590 1.391 . S
C592 C593 1.400 . S
C593 C587 1.491 . S
C593 C592 1.400 . S
C593 C594 1.398 . S
C594 H582 0.950 . S
C594 C593 1.398 . S
C594 C595 1.391 . S
C595 H583 0.950 . S
C595 C591 1.393 . S
C595 C594 1.391 . S
H596 C604 0.950 . S
H597 C609 0.950 . S
H598 C606 0.950 . S
H599 C608 0.950 . S
H600 C610 0.950 . S
H601 C612 0.950 . S
H602 C614 0.950 . S
H603 C615 0.950 . S
C604 H596 0.950 . S
C604 C605 1.386 . S
C604 C606 1.391 . S
C605 C604 1.386 . S
C605 C609 1.393 . S
C606 H598 0.950 . S
C606 C604 1.391 . S
C606 C607 1.400 . S
C607 C606 1.400 . S
C607 C608 1.398 . S
C607 C613 1.491 . S
C608 H599 0.950 . S
C608 C607 1.398 . S
C608 C609 1.391 . S
C609 H597 0.950 . S
C609 C605 1.393 . S
C609 C608 1.391 . S
C610 H600 0.950 . S
C610 C611 1.386 . S
C610 C612 1.391 . S
C611 C610 1.386 . S
C611 C615 1.393 . S
C612 H601 0.950 . S
C612 C610 1.391 . S
C612 C613 1.400 . S
C613 C607 1.491 . S
C613 C612 1.400 . S
C613 C614 1.398 . S
C614 H602 0.950 . S
C614 C613 1.398 . S
C614 C615 1.391 . S
C615 H603 0.950 . S
C615 C611 1.393 . S
C615 C614 1.391 . S
H616 C624 0.950 . S
H617 C629 0.950 . S
H618 C626 0.950 . S
H619 C628 0.950 . S
H620 C630 0.950 . S
H621 C632 0.950 . S
H622 C634 0.950 . S
H623 C635 0.950 . S
C624 H616 0.950 . S
C624 C625 1.386 . S
C624 C626 1.391 . S
C625 C624 1.386 . S
C625 C629 1.393 . S
C626 H618 0.950 . S
C626 C624 1.391 . S
C626 C627 1.400 . S
C627 C626 1.400 . S
C627 C628 1.398 . S
C627 C633 1.491 . S
C628 H619 0.950 . S
C628 C627 1.398 . S
C628 C629 1.391 . S
C629 H617 0.950 . S
C629 C625 1.393 . S
C629 C628 1.391 . S
C630 H620 0.950 . S
C630 C631 1.386 . S
C630 C632 1.391 . S
C631 C630 1.386 . S
C631 C635 1.393 . S
C632 H621 0.950 . S
C632 C630 1.391 . S
C632 C633 1.400 . S
C633 C627 1.491 . S
C633 C632 1.400 . S
C633 C634 1.398 . S
C634 H622 0.950 . S
C634 C633 1.398 . S
C634 C635 1.391 . S
C635 H623 0.950 . S
C635 C631 1.393 . S
C635 C634 1.391 . S
H636 C644 0.950 . S
H637 C649 0.950 . S
H638 C646 0.950 . S
H639 C648 0.950 . S
H640 C650 0.950 . S
H641 C652 0.950 . S
H642 C654 0.950 . S
H643 C655 0.950 . S
C644 H636 0.950 . S
C644 C645 1.386 . S
C644 C646 1.391 . S
C645 C644 1.386 . S
C645 C649 1.393 . S
C646 H638 0.950 . S
C646 C644 1.391 . S
C646 C647 1.400 . S
C647 C646 1.400 . S
C647 C648 1.398 . S
C647 C653 1.491 . S
C648 H639 0.950 . S
C648 C647 1.398 . S
C648 C649 1.391 . S
C649 H637 0.950 . S
C649 C645 1.393 . S
C649 C648 1.391 . S
C650 H640 0.950 . S
C650 C651 1.386 . S
C650 C652 1.391 . S
C651 C650 1.386 . S
C651 C655 1.393 . S
C652 H641 0.950 . S
C652 C650 1.391 . S
C652 C653 1.400 . S
C653 C647 1.491 . S
C653 C652 1.400 . S
C653 C654 1.398 . S
C654 H642 0.950 . S
C654 C653 1.398 . S
C654 C655 1.391 . S
C655 H643 0.950 . S
C655 C651 1.393 . S
C655 C654 1.391 . S
C185 C7 1.047 . S
C191 C84 1.080 . S
C205 C18 1.056 . S
C211 C51 1.069 . S
C225 C29 1.087 . S
C231 C62 1.040 . S
C245 C73 1.049 . S
C251 C40 1.082 . S
C265 C172 1.137 . S
C271 C95 1.129 . S
C285 C139 1.138 . S
C291 C106 1.131 . S
C305 C117 1.126 . S
C311 C150 1.125 . S
C325 C128 1.140 . S
C331 C161 1.137 . S
C345 C93 1.955 . S
C351 C5 1.510 . S
C365 C104 1.957 . S
C371 C16 1.464 . S
C385 C27 1.492 . S
C391 C115 1.944 . S
C405 C126 1.948 . S
C411 C38 1.511 . S
C425 C137 1.955 . S
C431 C49 1.510 . S
C445 C148 1.961 . S
C451 C60 1.502 . S
C465 C159 1.950 . S
C471 C71 1.512 . S
C485 C82 1.510 . S
C491 C170 1.947 . S
C505 C74 1.844 . S
C511 C8 1.825 . S
C525 C85 1.841 . S
C531 C19 1.835 . S
C545 C30 1.844 . S
C551 C52 1.831 . S
C565 C41 1.825 . S
C571 C63 1.845 . S
C585 C162 1.891 . S
C591 C96 1.890 . S
C605 C173 1.883 . S
C611 C107 1.882 . S
C625 C118 1.890 . S
C631 C140 1.888 . S
C645 C129 1.885 . S
C651 C151 1.882 . S
