# Generated by pormake.
# Topology wga, (5)-cn, num edge types: 1
# Building blocks:
#     Node 0, Type 0, BuildingBlock: XOMCOT_clean_sbu_1, # of connection points: 5
#     Node 1, Type 0, BuildingBlock: XOMCOT_clean_sbu_1, # of connection points: 5
#     Node 2, Type 0, BuildingBlock: XOMCOT_clean_sbu_1, # of connection points: 5
#     Node 3, Type 0, BuildingBlock: XOMCOT_clean_sbu_1, # of connection points: 5
#     Node 4, Type 0, BuildingBlock: XOMCOT_clean_sbu_1, # of connection points: 5
#     Node 5, Type 0, BuildingBlock: XOMCOT_clean_sbu_1, # of connection points: 5
#     Node 6, Type 0, BuildingBlock: XOMCOT_clean_sbu_1, # of connection points: 5
#     Node 7, Type 0, BuildingBlock: XOMCOT_clean_sbu_1, # of connection points: 5
#     Node 8, Type 0, BuildingBlock: XOMCOT_clean_sbu_1, # of connection points: 5
#     Node 9, Type 0, BuildingBlock: XOMCOT_clean_sbu_1, # of connection points: 5
#     Node 10, Type 0, BuildingBlock: XOMCOT_clean_sbu_1, # of connection points: 5
#     Node 11, Type 0, BuildingBlock: XOMCOT_clean_sbu_1, # of connection points: 5
#     Node 12, Type 0, BuildingBlock: XOMCOT_clean_sbu_1, # of connection points: 5
#     Node 13, Type 0, BuildingBlock: XOMCOT_clean_sbu_1, # of connection points: 5
#     Node 14, Type 0, BuildingBlock: XOMCOT_clean_sbu_1, # of connection points: 5
#     Node 15, Type 0, BuildingBlock: XOMCOT_clean_sbu_1, # of connection points: 5
#     Node 16, Type 0, BuildingBlock: XOMCOT_clean_sbu_1, # of connection points: 5
#     Node 17, Type 0, BuildingBlock: XOMCOT_clean_sbu_1, # of connection points: 5
#     Node 18, Type 0, BuildingBlock: XOMCOT_clean_sbu_1, # of connection points: 5
#     Node 19, Type 0, BuildingBlock: XOMCOT_clean_sbu_1, # of connection points: 5
#     Node 20, Type 0, BuildingBlock: XOMCOT_clean_sbu_1, # of connection points: 5
#     Node 21, Type 0, BuildingBlock: XOMCOT_clean_sbu_1, # of connection points: 5
#     Node 22, Type 0, BuildingBlock: XOMCOT_clean_sbu_1, # of connection points: 5
#     Node 23, Type 0, BuildingBlock: XOMCOT_clean_sbu_1, # of connection points: 5
#     Node 24, Type 0, BuildingBlock: XOMCOT_clean_sbu_1, # of connection points: 5
#     Node 25, Type 0, BuildingBlock: XOMCOT_clean_sbu_1, # of connection points: 5
#     Node 26, Type 0, BuildingBlock: XOMCOT_clean_sbu_1, # of connection points: 5
#     Node 27, Type 0, BuildingBlock: XOMCOT_clean_sbu_1, # of connection points: 5
#     Node 28, Type 0, BuildingBlock: XOMCOT_clean_sbu_1, # of connection points: 5
#     Node 29, Type 0, BuildingBlock: XOMCOT_clean_sbu_1, # of connection points: 5
#     Node 30, Type 0, BuildingBlock: XOMCOT_clean_sbu_1, # of connection points: 5
#     Node 31, Type 0, BuildingBlock: XOMCOT_clean_sbu_1, # of connection points: 5
#     Edge 32, Type (0, 0), None
#     Edge 33, Type (0, 0), None
#     Edge 34, Type (0, 0), None
#     Edge 35, Type (0, 0), None
#     Edge 36, Type (0, 0), None
#     Edge 37, Type (0, 0), None
#     Edge 38, Type (0, 0), None
#     Edge 39, Type (0, 0), None
#     Edge 40, Type (0, 0), None
#     Edge 41, Type (0, 0), None
#     Edge 42, Type (0, 0), None
#     Edge 43, Type (0, 0), None
#     Edge 44, Type (0, 0), None
#     Edge 45, Type (0, 0), None
#     Edge 46, Type (0, 0), None
#     Edge 47, Type (0, 0), None
#     Edge 48, Type (0, 0), None
#     Edge 49, Type (0, 0), None
#     Edge 50, Type (0, 0), None
#     Edge 51, Type (0, 0), None
#     Edge 52, Type (0, 0), None
#     Edge 53, Type (0, 0), None
#     Edge 54, Type (0, 0), None
#     Edge 55, Type (0, 0), None
#     Edge 56, Type (0, 0), None
#     Edge 57, Type (0, 0), None
#     Edge 58, Type (0, 0), None
#     Edge 59, Type (0, 0), None
#     Edge 60, Type (0, 0), None
#     Edge 61, Type (0, 0), None
#     Edge 62, Type (0, 0), None
#     Edge 63, Type (0, 0), None
#     Edge 64, Type (0, 0), None
#     Edge 65, Type (0, 0), None
#     Edge 66, Type (0, 0), None
#     Edge 67, Type (0, 0), None
#     Edge 68, Type (0, 0), None
#     Edge 69, Type (0, 0), None
#     Edge 70, Type (0, 0), None
#     Edge 71, Type (0, 0), None
#     Edge 72, Type (0, 0), None
#     Edge 73, Type (0, 0), None
#     Edge 74, Type (0, 0), None
#     Edge 75, Type (0, 0), None
#     Edge 76, Type (0, 0), None
#     Edge 77, Type (0, 0), None
#     Edge 78, Type (0, 0), None
#     Edge 79, Type (0, 0), None
#     Edge 80, Type (0, 0), None
#     Edge 81, Type (0, 0), None
#     Edge 82, Type (0, 0), None
#     Edge 83, Type (0, 0), None
#     Edge 84, Type (0, 0), None
#     Edge 85, Type (0, 0), None
#     Edge 86, Type (0, 0), None
#     Edge 87, Type (0, 0), None
#     Edge 88, Type (0, 0), None
#     Edge 89, Type (0, 0), None
#     Edge 90, Type (0, 0), None
#     Edge 91, Type (0, 0), None
#     Edge 92, Type (0, 0), None
#     Edge 93, Type (0, 0), None
#     Edge 94, Type (0, 0), None
#     Edge 95, Type (0, 0), None
#     Edge 96, Type (0, 0), None
#     Edge 97, Type (0, 0), None
#     Edge 98, Type (0, 0), None
#     Edge 99, Type (0, 0), None
#     Edge 100, Type (0, 0), None
#     Edge 101, Type (0, 0), None
#     Edge 102, Type (0, 0), None
#     Edge 103, Type (0, 0), None
#     Edge 104, Type (0, 0), None
#     Edge 105, Type (0, 0), None
#     Edge 106, Type (0, 0), None
#     Edge 107, Type (0, 0), None
#     Edge 108, Type (0, 0), None
#     Edge 109, Type (0, 0), None
#     Edge 110, Type (0, 0), None
#     Edge 111, Type (0, 0), None
# Relax obj value: 0.092
# Max RMSD: 0.100
# Mean RMSD: 0.100
data_MOF--net-wga--node1-XOMCOT_clean_sbu_1--edge1-none
_symmetry_space_group_name_H-M    P1
_symmetry_Int_Tables_number       1
_symmetry_cell_setting            triclinic
loop_
_symmetry_equiv_pos_as_xyz
'x, y, z'
_cell_length_a     53.007728
_cell_length_b     53.006888
_cell_length_c     9.4114109
_cell_angle_alpha  90.002585
_cell_angle_beta   90.005961
_cell_angle_gamma 89.999295
loop_
_atom_site_label
_atom_site_type_symbol
_atom_site_fract_x
_atom_site_fract_y
_atom_site_fract_z
_atom_type_partial_charge
C0 C 0.0903 0.59481 0.81254 0.0
C1 C 0.09284 0.59419 0.66701 0.0
N2 N 0.1133 0.58031 0.63616 0.0
N3 N 0.10881 0.58094 0.87394 0.0
C4 C 0.12301 0.57305 0.76234 0.0
H5 H 0.07571 0.60499 0.86757 0.0
Co6 Co 0.1155 0.57438 0.07037 0.0
C7 C 0.11518 0.52416 0.93631 0.0
O8 O 0.09479 0.53138 0.86807 0.0
N9 N 0.12263 0.56873 0.26241 0.0
C10 C 0.13864 0.55513 0.46756 0.0
C11 C 0.13945 0.55271 0.32149 0.0
C12 C 0.11198 0.58084 0.37364 0.0
N13 N 0.12136 0.57287 0.49921 0.0
O14 O 0.14928 0.58772 0.04321 0.0
H15 H 0.15154 0.54006 0.26247 0.0
H16 H 0.09763 0.5952 0.36234 0.0
O17 O 0.12602 0.53934 1.02315 0.0
C18 C 0.14563 0.61116 0.067 0.0
O19 O 0.12281 0.61837 0.1031 0.0
N20 N 0.08152 0.56464 0.10555 0.0
C21 C 0.03022 0.55943 0.17291 0.0
C22 C 0.04629 0.53832 0.1717 0.0
C23 C 0.07212 0.54145 0.14205 0.0
C24 C 0.06646 0.58534 0.11672 0.0
C25 C 0.04084 0.58318 0.14638 0.0
H26 H 0.08441 0.52533 0.15178 0.0
H27 H 0.07453 0.60392 0.10435 0.0
H28 H 0.13984 0.56168 0.7736 0.0
H29 H 0.08035 0.60289 0.59045 0.0
H30 H 0.14957 0.54447 0.54381 0.0
H31 H 0.03916 0.51973 0.1974 0.0
H32 H 0.02948 0.60016 0.14788 0.0
C33 C 0.6686 0.84029 0.06287 0.0
C34 C 0.66922 0.84282 0.91734 0.0
N35 N 0.6831 0.86329 0.88649 0.0
N36 N 0.68247 0.8588 0.12427 0.0
C37 C 0.69036 0.873 1.01267 0.0
H38 H 0.65842 0.82569 0.11789 0.0
Co39 Co 0.68903 0.86548 0.3207 0.0
C40 C 0.73925 0.86517 0.18666 0.0
O41 O 0.73203 0.84477 0.11842 0.0
N42 N 0.69468 0.87261 0.51275 0.0
C43 C 0.70828 0.88862 0.71791 0.0
C44 C 0.71071 0.88943 0.57184 0.0
C45 C 0.68257 0.86197 0.62397 0.0
N46 N 0.69054 0.87134 0.74955 0.0
O47 O 0.67569 0.89926 0.29354 0.0
H48 H 0.72336 0.90152 0.51282 0.0
H49 H 0.66821 0.84762 0.61266 0.0
O50 O 0.72407 0.876 0.2735 0.0
C51 C 0.65225 0.89562 0.31733 0.0
O52 O 0.64504 0.87279 0.35343 0.0
N53 N 0.69878 0.83151 0.35589 0.0
C54 C 0.70398 0.7802 0.42321 0.0
C55 C 0.72509 0.79627 0.42201 0.0
C56 C 0.72196 0.8221 0.39239 0.0
C57 C 0.67807 0.81645 0.36704 0.0
C58 C 0.68023 0.79082 0.39668 0.0
H59 H 0.73808 0.8344 0.40212 0.0
H60 H 0.65949 0.82451 0.35468 0.0
H61 H 0.70173 0.88983 1.02393 0.0
H62 H 0.66052 0.83034 0.84078 0.0
H63 H 0.71895 0.89955 0.79416 0.0
H64 H 0.74368 0.78914 0.44771 0.0
H65 H 0.66326 0.77946 0.39816 0.0
C66 C 0.42311 0.41857 0.31264 0.0
C67 C 0.42058 0.4192 0.16711 0.0
N68 N 0.40012 0.43307 0.13624 0.0
N69 N 0.40461 0.43245 0.37402 0.0
C70 C 0.39041 0.44034 0.26241 0.0
H71 H 0.43771 0.40839 0.36768 0.0
Co72 Co 0.39792 0.43901 0.57045 0.0
C73 C 0.39824 0.48923 0.4364 0.0
O74 O 0.41863 0.482 0.36818 0.0
N75 N 0.3908 0.44466 0.76248 0.0
C76 C 0.37479 0.45826 0.96762 0.0
C77 C 0.37398 0.46069 0.82155 0.0
C78 C 0.40144 0.43255 0.87372 0.0
N79 N 0.39207 0.44052 0.99928 0.0
O80 O 0.36414 0.42567 0.54327 0.0
H81 H 0.36189 0.47334 0.76252 0.0
H82 H 0.41579 0.41819 0.86242 0.0
O83 O 0.38741 0.47405 0.52322 0.0
C84 C 0.36779 0.40223 0.56706 0.0
O85 O 0.39062 0.39502 0.60317 0.0
N86 N 0.4319 0.44875 0.60565 0.0
C87 C 0.48321 0.45396 0.67301 0.0
C88 C 0.46713 0.47507 0.67181 0.0
C89 C 0.44131 0.47194 0.64217 0.0
C90 C 0.44696 0.42805 0.61682 0.0
C91 C 0.47258 0.43021 0.64648 0.0
H92 H 0.42901 0.48806 0.6519 0.0
H93 H 0.43889 0.40947 0.60445 0.0
H94 H 0.37358 0.45171 0.27365 0.0
H95 H 0.43306 0.41049 0.09056 0.0
H96 H 0.36386 0.46893 0.04386 0.0
H97 H 0.47427 0.49366 0.69752 0.0
H98 H 0.48395 0.41324 0.64796 0.0
C99 C 0.84482 0.1731 0.56299 0.0
C100 C 0.84419 0.17056 0.41746 0.0
N101 N 0.83032 0.1501 0.38658 0.0
N102 N 0.83094 0.15459 0.62437 0.0
C103 C 0.82305 0.14039 0.51275 0.0
H104 H 0.855 0.18769 0.61803 0.0
Co105 Co 0.82439 0.1479 0.82079 0.0
C106 C 0.77417 0.14823 0.68671 0.0
O107 O 0.78139 0.16862 0.61849 0.0
N108 N 0.81874 0.14078 1.01282 0.0
C109 C 0.80513 0.12477 0.21796 0.0
C110 C 0.80271 0.12396 0.07188 0.0
C111 C 0.83085 0.15142 0.12406 0.0
N112 N 0.82287 0.14205 0.24962 0.0
O113 O 0.83772 0.11413 0.79359 0.0
H114 H 0.79006 0.11187 1.01285 0.0
H115 H 0.8452 0.16577 0.11278 0.0
O116 O 0.78934 0.13739 0.77355 0.0
C117 C 0.86116 0.11776 0.8174 0.0
O118 O 0.86838 0.14059 0.85357 0.0
N119 N 0.81465 0.18188 0.85599 0.0
C120 C 0.80945 0.23319 0.92331 0.0
C121 C 0.78834 0.21712 0.9221 0.0
C122 C 0.79146 0.19129 0.89248 0.0
C123 C 0.83535 0.19694 0.86717 0.0
C124 C 0.8332 0.22256 0.89681 0.0
H125 H 0.77534 0.179 0.9022 0.0
H126 H 0.85393 0.18887 0.85482 0.0
H127 H 0.81169 0.12356 0.52399 0.0
H128 H 0.8529 0.18305 0.34091 0.0
H129 H 0.79447 0.11384 0.29419 0.0
H130 H 0.76974 0.22426 0.94778 0.0
H131 H 0.85017 0.23393 0.8983 0.0
C132 C 0.09613 0.4162 0.07533 0.0
C133 C 0.09605 0.41781 0.22157 0.0
N134 N 0.09612 0.4424 0.25621 0.0
N135 N 0.09659 0.43966 1.01889 0.0
C136 C 0.09614 0.4552 0.13278 0.0
H137 H 0.09599 0.39891 1.01467 0.0
Co138 Co 0.09794 0.44796 0.82507 0.0
C139 C 0.12242 0.49744 0.92566 0.0
O140 O 0.14301 0.48875 0.9857 0.0
N141 N 0.09899 0.45629 0.6306 0.0
C142 C 0.0993 0.47753 0.42601 0.0
C143 C 0.10018 0.47956 0.57141 0.0
C144 C 0.09711 0.44044 0.5184 0.0
N145 N 0.09734 0.45292 0.39369 0.0
O146 O 0.1331 0.43734 0.81988 0.0
H147 H 0.10118 0.49717 0.62882 0.0
H148 H 0.09504 0.42025 0.52745 0.0
O149 O 0.1064 0.48249 0.86991 0.0
C150 C 0.13199 0.41394 0.78816 0.0
O151 O 0.10974 0.40438 0.75878 0.0
N152 N 0.06337 0.45543 0.82887 0.0
C153 C 0.01078 0.45607 0.85401 0.0
C154 C 0.02553 0.47535 0.91402 0.0
C155 C 0.05189 0.47472 0.90041 0.0
C156 C 0.04931 0.43717 0.76522 0.0
C157 C 0.02307 0.43729 0.77477 0.0
H158 H 0.06293 0.489 0.9535 0.0
H159 H 0.05861 0.42177 0.71116 0.0
H160 H 0.09561 0.47548 0.1265 0.0
H161 H 0.09618 0.40221 0.29568 0.0
H162 H 0.09992 0.49296 0.35083 0.0
H163 H 0.01696 0.49 0.9774 0.0
H164 H 0.01257 0.42225 0.72416 0.0
C165 C 0.84721 0.84612 0.3257 0.0
C166 C 0.8456 0.84604 0.47195 0.0
N167 N 0.82101 0.84611 0.50656 0.0
N168 N 0.82374 0.84658 0.26925 0.0
C169 C 0.80821 0.84612 0.38313 0.0
H170 H 0.8645 0.846 0.26506 0.0
Co171 Co 0.81544 0.84793 0.07542 0.0
C172 C 0.76597 0.87241 0.17601 0.0
O173 O 0.77466 0.893 0.23607 0.0
N174 N 0.80711 0.84899 0.88094 0.0
C175 C 0.78587 0.84932 0.67632 0.0
C176 C 0.78384 0.8502 0.82172 0.0
C177 C 0.82297 0.84709 0.76876 0.0
N178 N 0.81048 0.84734 0.64403 0.0
O179 O 0.82606 0.88309 0.07025 0.0
H180 H 0.76624 0.85122 0.87911 0.0
H181 H 0.84315 0.845 0.77783 0.0
O182 O 0.78091 0.85639 0.12024 0.0
C183 C 0.84946 0.88198 0.03853 0.0
O184 O 0.85902 0.85974 1.00913 0.0
N185 N 0.80798 0.81336 0.07919 0.0
C186 C 0.80734 0.76078 0.10424 0.0
C187 C 0.78805 0.77552 0.16424 0.0
C188 C 0.78869 0.80188 0.15068 0.0
C189 C 0.82624 0.7993 1.01555 0.0
C190 C 0.82612 0.77307 1.02505 0.0
H191 H 0.7744 0.81291 0.20376 0.0
H192 H 0.84164 0.80861 0.96153 0.0
H193 H 0.78793 0.84559 0.37683 0.0
H194 H 0.8612 0.84619 0.54607 0.0
H195 H 0.77045 0.84996 0.60112 0.0
H196 H 0.7734 0.76695 0.22758 0.0
H197 H 0.84116 0.76257 0.97445 0.0
C198 C 0.41729 0.59719 0.57543 0.0
C199 C 0.41737 0.59558 0.72167 0.0
N200 N 0.4173 0.57099 0.7563 0.0
N201 N 0.41684 0.57372 0.51898 0.0
C202 C 0.41729 0.55819 0.63287 0.0
H203 H 0.41742 0.61448 0.51477 0.0
Co204 Co 0.41548 0.56542 0.32515 0.0
C205 C 0.39101 0.51595 0.42573 0.0
O206 O 0.37041 0.52464 0.48575 0.0
N207 N 0.41442 0.55709 0.13068 0.0
C208 C 0.41408 0.53586 0.92606 0.0
C209 C 0.4132 0.53383 0.07147 0.0
C210 C 0.41632 0.57295 1.0185 0.0
N211 N 0.41607 0.56046 0.89377 0.0
O212 O 0.38032 0.57604 0.31998 0.0
H213 H 0.41217 0.51622 0.12885 0.0
H214 H 0.41842 0.59314 1.02757 0.0
O215 O 0.40702 0.53089 0.36999 0.0
C216 C 0.38143 0.59944 0.28824 0.0
O217 O 0.40367 0.609 0.25883 0.0
N218 N 0.45005 0.55796 0.32894 0.0
C219 C 0.50263 0.55732 0.35404 0.0
C220 C 0.48789 0.53804 0.41403 0.0
C221 C 0.46153 0.53868 0.40045 0.0
C222 C 0.46411 0.57623 0.26532 0.0
C223 C 0.49034 0.5761 0.27485 0.0
H224 H 0.4505 0.52439 0.45352 0.0
H225 H 0.4548 0.59163 0.2113 0.0
H226 H 0.41782 0.53791 0.62658 0.0
H227 H 0.41723 0.61118 0.79579 0.0
H228 H 0.41343 0.52044 0.85087 0.0
H229 H 0.49646 0.52339 0.47737 0.0
H230 H 0.50084 0.59115 0.22426 0.0
C231 C 0.66621 0.16729 0.82566 0.0
C232 C 0.66782 0.16736 0.97191 0.0
N233 N 0.69241 0.16729 1.00656 0.0
N234 N 0.68967 0.16683 0.76924 0.0
C235 C 0.70521 0.16727 0.88314 0.0
H236 H 0.64892 0.16741 0.76499 0.0
Co237 Co 0.69797 0.16546 0.57542 0.0
C238 C 0.74745 0.14099 0.67603 0.0
O239 O 0.73876 0.1204 0.73606 0.0
N240 N 0.7063 0.1644 0.38095 0.0
C241 C 0.72754 0.16406 0.17635 0.0
C242 C 0.72957 0.16317 0.32175 0.0
C243 C 0.69045 0.16631 0.26875 0.0
N244 N 0.70293 0.16605 0.14404 0.0
O245 O 0.68735 0.1303 0.57026 0.0
H246 H 0.74717 0.16215 0.37915 0.0
H247 H 0.67026 0.16841 0.27781 0.0
O248 O 0.7325 0.15701 0.62028 0.0
C249 C 0.66395 0.13141 0.53851 0.0
O250 O 0.6544 0.15365 0.50907 0.0
N251 N 0.70544 0.20003 0.57918 0.0
C252 C 0.70608 0.25262 0.60421 0.0
C253 C 0.72536 0.23788 0.66424 0.0
C254 C 0.72472 0.21152 0.65069 0.0
C255 C 0.68717 0.21409 0.51552 0.0
C256 C 0.6873 0.24033 0.52501 0.0
H257 H 0.73901 0.20049 0.70379 0.0
H258 H 0.67177 0.20479 0.46149 0.0
H259 H 0.72549 0.1678 0.87686 0.0
H260 H 0.65222 0.16722 0.04601 0.0
H261 H 0.74296 0.16341 0.10117 0.0
H262 H 0.74001 0.24645 0.72759 0.0
H263 H 0.67225 0.25083 0.47439 0.0
C264 C 0.92312 0.41858 0.24449 0.0
C265 C 0.92059 0.41921 0.39002 0.0
N266 N 0.90012 0.43308 0.42087 0.0
N267 N 0.90461 0.43245 0.18309 0.0
C268 C 0.89041 0.44034 0.29469 0.0
H269 H 0.93772 0.4084 0.18946 0.0
Co270 Co 0.89792 0.43901 0.98666 0.0
C271 C 0.89824 0.48923 0.12071 0.0
O272 O 0.91863 0.48201 0.18895 0.0
N273 N 0.89079 0.44466 0.79462 0.0
C274 C 0.87479 0.45826 0.58947 0.0
C275 C 0.87397 0.46068 0.73554 0.0
C276 C 0.90144 0.43255 0.68339 0.0
N277 N 0.89207 0.44052 0.55782 0.0
O278 O 0.86415 0.42566 1.01381 0.0
H279 H 0.86188 0.47333 0.79456 0.0
H280 H 0.91579 0.4182 0.69469 0.0
O281 O 0.8874 0.47405 0.03388 0.0
C282 C 0.8678 0.40222 0.99003 0.0
O283 O 0.89063 0.39502 0.95396 0.0
N284 N 0.9319 0.44876 0.95148 0.0
C285 C 0.9832 0.45396 0.88408 0.0
C286 C 0.96713 0.47507 0.8853 0.0
C287 C 0.9413 0.47194 0.91496 0.0
C288 C 0.94696 0.42805 0.94031 0.0
C289 C 0.97258 0.43021 0.91063 0.0
H290 H 0.929 0.48806 0.90523 0.0
H291 H 0.9389 0.40947 0.95268 0.0
H292 H 0.87358 0.45171 0.28343 0.0
H293 H 0.93308 0.4105 0.46657 0.0
H294 H 0.86385 0.46892 0.51322 0.0
H295 H 0.97426 0.49367 0.85958 0.0
H296 H 0.98395 0.41324 0.90913 0.0
C297 C 0.34482 0.1731 0.99359 0.0
C298 C 0.3442 0.17057 0.13912 0.0
N299 N 0.33032 0.15011 0.16996 0.0
N300 N 0.33095 0.1546 0.93218 0.0
C301 C 0.32305 0.14039 0.04378 0.0
H302 H 0.35501 0.18769 0.93856 0.0
Co303 Co 0.32439 0.14791 0.73575 0.0
C304 C 0.27417 0.14823 0.8698 0.0
O305 O 0.28139 0.16862 0.93805 0.0
N306 N 0.31873 0.14079 0.54371 0.0
C307 C 0.30513 0.12478 0.33855 0.0
C308 C 0.30271 0.12397 0.48461 0.0
C309 C 0.33085 0.15143 0.43249 0.0
N310 N 0.32287 0.14206 0.30691 0.0
O311 O 0.33773 0.11413 0.76289 0.0
H312 H 0.29005 0.11188 0.54363 0.0
H313 H 0.3452 0.16577 0.4438 0.0
O314 O 0.28934 0.13739 0.78296 0.0
C315 C 0.36117 0.11778 0.73909 0.0
O316 O 0.36837 0.14061 0.703 0.0
N317 N 0.31464 0.18189 0.70059 0.0
C318 C 0.30943 0.2332 0.63337 0.0
C319 C 0.28832 0.21713 0.63454 0.0
C320 C 0.29145 0.1913 0.66411 0.0
C321 C 0.33534 0.19695 0.68945 0.0
C322 C 0.33318 0.22257 0.65986 0.0
H323 H 0.27533 0.179 0.65436 0.0
H324 H 0.35392 0.18888 0.70179 0.0
H325 H 0.31169 0.12357 0.03252 0.0
H326 H 0.35291 0.18305 0.21567 0.0
H327 H 0.29446 0.11385 0.26229 0.0
H328 H 0.26973 0.22426 0.60887 0.0
H329 H 0.35015 0.23394 0.6584 0.0
C330 C 0.59031 0.59482 0.74446 0.0
C331 C 0.59285 0.5942 0.88999 0.0
N332 N 0.61331 0.58032 0.92086 0.0
N333 N 0.60882 0.58095 0.68307 0.0
C334 C 0.62302 0.57306 0.79469 0.0
H335 H 0.57572 0.60501 0.68942 0.0
Co336 Co 0.6155 0.57439 0.48665 0.0
C337 C 0.61518 0.52417 0.62071 0.0
O338 O 0.59479 0.53139 0.68893 0.0
N339 N 0.62263 0.56874 0.29462 0.0
C340 C 0.63863 0.55513 0.08947 0.0
C341 C 0.63945 0.55271 0.23554 0.0
C342 C 0.61199 0.58085 0.18338 0.0
N343 N 0.62136 0.57287 0.05782 0.0
O344 O 0.64928 0.58773 0.51381 0.0
H345 H 0.65153 0.54005 0.29457 0.0
H346 H 0.59764 0.59521 0.19467 0.0
O347 O 0.62602 0.53935 0.53389 0.0
C348 C 0.64563 0.61117 0.49 0.0
O349 O 0.62279 0.61837 0.45393 0.0
N350 N 0.58153 0.56464 0.45146 0.0
C351 C 0.53022 0.55943 0.38409 0.0
C352 C 0.54629 0.53833 0.38529 0.0
C353 C 0.57212 0.54146 0.41493 0.0
C354 C 0.56646 0.58534 0.44029 0.0
C355 C 0.54084 0.58319 0.41063 0.0
H356 H 0.58442 0.52534 0.4052 0.0
H357 H 0.57453 0.60393 0.45266 0.0
H358 H 0.63985 0.56169 0.78345 0.0
H359 H 0.58036 0.60291 0.96654 0.0
H360 H 0.64956 0.54447 1.01324 0.0
H361 H 0.53916 0.51973 0.35958 0.0
H362 H 0.52948 0.60016 0.40914 0.0
C363 C 0.1686 0.8403 0.49346 0.0
C364 C 0.16923 0.84283 0.63899 0.0
N365 N 0.18311 0.86329 0.66986 0.0
N366 N 0.18248 0.8588 0.43207 0.0
C367 C 0.19038 0.873 0.54369 0.0
H368 H 0.15841 0.82571 0.43841 0.0
Co369 Co 0.18904 0.86549 0.23566 0.0
C370 C 0.23926 0.86517 0.36976 0.0
O371 O 0.23204 0.84478 0.438 0.0
N372 N 0.1947 0.87261 0.04362 0.0
C373 C 0.20831 0.88861 0.83848 0.0
C374 C 0.21073 0.88942 0.98456 0.0
C375 C 0.18258 0.86197 0.93238 0.0
N376 N 0.19056 0.87134 0.80682 0.0
O377 O 0.17571 0.89926 0.26279 0.0
H378 H 0.22339 0.90151 0.04359 0.0
H379 H 0.16822 0.84763 0.94367 0.0
O380 O 0.22409 0.876 0.28292 0.0
C381 C 0.15227 0.89562 0.23895 0.0
O382 O 0.14506 0.87279 0.20282 0.0
N383 N 0.19879 0.83151 0.20049 0.0
C384 C 0.20399 0.78019 0.13329 0.0
C385 C 0.2251 0.79627 0.13447 0.0
C386 C 0.22197 0.82209 0.16403 0.0
C387 C 0.17808 0.81645 0.18932 0.0
C388 C 0.18024 0.79082 0.15974 0.0
H389 H 0.2381 0.83439 0.15431 0.0
H390 H 0.1595 0.82452 0.20164 0.0
H391 H 0.20175 0.88983 0.53245 0.0
H392 H 0.16052 0.83035 0.71553 0.0
H393 H 0.21897 0.89954 0.76225 0.0
H394 H 0.24369 0.78913 0.10882 0.0
H395 H 0.16327 0.77946 0.15827 0.0
C396 C 0.91729 0.59719 0.98166 0.0
C397 C 0.91737 0.59559 0.83541 0.0
N398 N 0.91729 0.57099 0.80078 0.0
N399 N 0.91683 0.57373 0.03809 0.0
C400 C 0.91728 0.5582 0.9242 0.0
H401 H 0.91743 0.61449 0.04232 0.0
Co402 Co 0.91548 0.56543 0.23192 0.0
C403 C 0.891 0.51595 0.13135 0.0
O404 O 0.8704 0.52464 0.07132 0.0
N405 N 0.91443 0.5571 0.42638 0.0
C406 C 0.91414 0.53586 0.63097 0.0
C407 C 0.91326 0.53383 0.48557 0.0
C408 C 0.9163 0.57296 0.53858 0.0
N409 N 0.91608 0.56047 0.6633 0.0
O410 O 0.88032 0.57605 0.23712 0.0
H411 H 0.91228 0.51622 0.42816 0.0
H412 H 0.91836 0.59315 0.52954 0.0
O413 O 0.90702 0.5309 0.18708 0.0
C414 C 0.88143 0.59946 0.26882 0.0
O415 O 0.90368 0.60901 0.29818 0.0
N416 N 0.95005 0.55796 0.22811 0.0
C417 C 1.00263 0.55732 0.20296 0.0
C418 C 0.98789 0.53804 0.14295 0.0
C419 C 0.96153 0.53868 0.15655 0.0
C420 C 0.96411 0.57622 0.29176 0.0
C421 C 0.99035 0.5761 0.28221 0.0
H422 H 0.9505 0.52439 0.10347 0.0
H423 H 0.95481 0.59162 0.34584 0.0
H424 H 0.91781 0.53791 0.93049 0.0
H425 H 0.91724 0.61118 0.7613 0.0
H426 H 0.91353 0.52043 0.70615 0.0
H427 H 0.99646 0.5234 0.07957 0.0
H428 H 1.00085 0.59115 0.33282 0.0
C429 C 0.16621 0.16728 0.73081 0.0
C430 C 0.16782 0.16735 0.58456 0.0
N431 N 0.19241 0.16728 0.54994 0.0
N432 N 0.18967 0.16682 0.78726 0.0
C433 C 0.20521 0.16727 0.67337 0.0
H434 H 0.14892 0.1674 0.79147 0.0
Co435 Co 0.19797 0.16545 0.98108 0.0
C436 C 0.24745 0.14098 0.88046 0.0
O437 O 0.23876 0.12039 0.8204 0.0
N438 N 0.2063 0.16437 0.17556 0.0
C439 C 0.22753 0.16398 0.3802 0.0
C440 C 0.22957 0.16309 0.2348 0.0
C441 C 0.19045 0.16631 0.28773 0.0
N442 N 0.20293 0.16603 0.41247 0.0
O443 O 0.18736 0.13028 0.98613 0.0
H444 H 0.24717 0.16201 0.17744 0.0
H445 H 0.17027 0.16846 0.27864 0.0
O446 O 0.2325 0.157 0.93623 0.0
C447 C 0.16396 0.13139 1.0179 0.0
O448 O 0.1544 0.15362 0.04744 0.0
N449 N 0.20544 0.20002 0.97741 0.0
C450 C 0.20608 0.25261 0.95251 0.0
C451 C 0.22536 0.23787 0.89249 0.0
C452 C 0.22472 0.21151 0.90597 0.0
C453 C 0.18717 0.21407 0.04106 0.0
C454 C 0.18729 0.24031 0.03164 0.0
H455 H 0.23901 0.20048 0.85287 0.0
H456 H 0.17176 0.20476 0.09501 0.0
H457 H 0.22549 0.1678 0.67966 0.0
H458 H 0.15222 0.1672 0.51044 0.0
H459 H 0.24295 0.16329 0.45541 0.0
H460 H 0.24001 0.24645 0.8292 0.0
H461 H 0.17224 0.2508 0.08225 0.0
C462 C 0.59613 0.41621 0.48167 0.0
C463 C 0.59605 0.41782 0.33542 0.0
N464 N 0.59613 0.44241 0.30079 0.0
N465 N 0.59659 0.43967 0.53811 0.0
C466 C 0.59614 0.45521 0.42422 0.0
H467 H 0.59601 0.39892 0.54232 0.0
Co468 Co 0.59795 0.44797 0.73194 0.0
C469 C 0.62242 0.49745 0.63137 0.0
O470 O 0.64302 0.48876 0.57136 0.0
N471 N 0.59901 0.4563 0.92641 0.0
C472 C 0.59935 0.47754 0.13103 0.0
C473 C 0.60023 0.47957 0.98562 0.0
C474 C 0.59711 0.44045 0.03859 0.0
N475 N 0.59736 0.45293 0.16332 0.0
O476 O 0.63311 0.43735 0.7371 0.0
H477 H 0.60126 0.49717 0.92824 0.0
H478 H 0.59501 0.42026 0.02953 0.0
O479 O 0.6064 0.4825 0.6871 0.0
C480 C 0.632 0.41395 0.76884 0.0
O481 O 0.60976 0.4044 0.79826 0.0
N482 N 0.56338 0.45544 0.72815 0.0
C483 C 0.51079 0.45607 0.70304 0.0
C484 C 0.52554 0.47536 0.64307 0.0
C485 C 0.55189 0.47472 0.65665 0.0
C486 C 0.54932 0.43717 0.79177 0.0
C487 C 0.52308 0.43729 0.78224 0.0
H488 H 0.56292 0.48901 0.60359 0.0
H489 H 0.55863 0.42176 0.84579 0.0
H490 H 0.59561 0.47549 0.43052 0.0
H491 H 0.5962 0.40222 0.2613 0.0
H492 H 0.6 0.49296 0.20622 0.0
H493 H 0.51696 0.49 0.57973 0.0
H494 H 0.51259 0.42224 0.83282 0.0
C495 C 0.34722 0.84611 0.23093 0.0
C496 C 0.34561 0.84603 0.08467 0.0
N497 N 0.32102 0.84611 0.05002 0.0
N498 N 0.32375 0.84656 0.28734 0.0
C499 C 0.30822 0.84612 0.17344 0.0
H500 H 0.36451 0.84599 0.29161 0.0
Co501 Co 0.31545 0.84794 0.48116 0.0
C502 C 0.26598 0.8724 0.38047 0.0
O503 O 0.27467 0.893 0.32043 0.0
N504 N 0.30713 0.84903 0.67563 0.0
C505 C 0.2859 0.84944 0.88025 0.0
C506 C 0.28386 0.85033 0.73485 0.0
C507 C 0.32298 0.84707 0.78782 0.0
N508 N 0.3105 0.84736 0.91255 0.0
O509 O 0.32607 0.88311 0.4862 0.0
H510 H 0.26626 0.85143 0.67748 0.0
H511 H 0.34316 0.84491 0.77874 0.0
O512 O 0.28092 0.85639 0.43626 0.0
C513 C 0.34947 0.88201 0.51802 0.0
O514 O 0.35903 0.85977 0.5476 0.0
N515 N 0.30799 0.81337 0.47749 0.0
C516 C 0.30735 0.76078 0.45261 0.0
C517 C 0.28806 0.77552 0.39258 0.0
C518 C 0.2887 0.80188 0.40605 0.0
C519 C 0.32626 0.79932 0.54114 0.0
C520 C 0.32614 0.77308 0.53173 0.0
H521 H 0.27441 0.81291 0.35294 0.0
H522 H 0.34167 0.80863 0.59509 0.0
H523 H 0.28794 0.84558 0.17971 0.0
H524 H 0.36121 0.84619 1.01057 0.0
H525 H 0.27048 0.85014 0.95545 0.0
H526 H 0.27341 0.76694 0.32929 0.0
H527 H 0.34119 0.76259 0.58235 0.0
C528 C 0.59031 0.09483 0.31276 0.0
C529 C 0.59285 0.09421 0.16723 0.0
N530 N 0.6133 0.08033 0.13638 0.0
N531 N 0.60881 0.08095 0.37416 0.0
C532 C 0.62301 0.07306 0.26255 0.0
H533 H 0.57572 0.10502 0.36779 0.0
Co534 Co 0.6155 0.07439 0.57059 0.0
C535 C 0.61518 0.02417 0.4365 0.0
O536 O 0.59479 0.03139 0.36824 0.0
N537 N 0.62262 0.06874 0.76263 0.0
C538 C 0.63862 0.05513 0.96778 0.0
C539 C 0.63943 0.05271 0.82171 0.0
C540 C 0.61198 0.08085 0.87385 0.0
N541 N 0.62135 0.07287 0.99943 0.0
O542 O 0.64927 0.08774 0.54349 0.0
H543 H 0.65152 0.04005 0.76269 0.0
H544 H 0.59764 0.09521 0.86255 0.0
O545 O 0.62602 0.03935 0.52334 0.0
C546 C 0.64561 0.11117 0.56725 0.0
O547 O 0.62278 0.11838 0.60332 0.0
N548 N 0.58152 0.06464 0.60571 0.0
C549 C 0.53021 0.05944 0.67287 0.0
C550 C 0.54628 0.03833 0.67171 0.0
C551 C 0.57211 0.04146 0.64217 0.0
C552 C 0.56646 0.08535 0.61686 0.0
C553 C 0.54084 0.08319 0.64641 0.0
H554 H 0.58441 0.02534 0.65192 0.0
H555 H 0.57453 0.10393 0.60455 0.0
H556 H 0.63984 0.06169 0.27381 0.0
H557 H 0.58036 0.10292 0.09068 0.0
H558 H 0.64955 0.04446 0.04403 0.0
H559 H 0.53914 0.01973 0.69736 0.0
H560 H 0.52947 0.10016 0.64787 0.0
C561 C 0.16857 0.3403 0.56236 0.0
C562 C 0.16919 0.34283 0.41683 0.0
N563 N 0.18307 0.36329 0.38598 0.0
N564 N 0.18245 0.3588 0.62377 0.0
C565 C 0.19034 0.373 0.51216 0.0
H566 H 0.15838 0.32571 0.61739 0.0
Co567 Co 0.18901 0.36548 0.8202 0.0
C568 C 0.23923 0.36517 0.68615 0.0
O569 O 0.23201 0.34478 0.6179 0.0
N570 N 0.19467 0.37261 1.01224 0.0
C571 C 0.20827 0.38861 0.2174 0.0
C572 C 0.21069 0.38942 0.07133 0.0
C573 C 0.18255 0.36197 0.12346 0.0
N574 N 0.19053 0.37134 0.24904 0.0
O575 O 0.17566 0.39926 0.7931 0.0
H576 H 0.22335 0.40151 1.01232 0.0
H577 H 0.16819 0.34762 0.11215 0.0
O578 O 0.22405 0.37601 0.77298 0.0
C579 C 0.15222 0.3956 0.81684 0.0
O580 O 0.14502 0.37276 0.85287 0.0
N581 N 0.19876 0.33151 0.85534 0.0
C582 C 0.20397 0.2802 0.92257 0.0
C583 C 0.22508 0.29627 0.9214 0.0
C584 C 0.22194 0.3221 0.89183 0.0
C585 C 0.17806 0.31645 0.86648 0.0
C586 C 0.18022 0.29082 0.89607 0.0
H587 H 0.23807 0.33439 0.90158 0.0
H588 H 0.15948 0.32451 0.85415 0.0
H589 H 0.20171 0.38983 0.52342 0.0
H590 H 0.16049 0.33035 0.34028 0.0
H591 H 0.21894 0.39954 0.29365 0.0
H592 H 0.24367 0.28913 0.94708 0.0
H593 H 0.16325 0.27946 0.89752 0.0
C594 C 0.9231 0.91855 0.81274 0.0
C595 C 0.92057 0.91917 0.66721 0.0
N596 N 0.90011 0.93306 0.63634 0.0
N597 N 0.9046 0.93243 0.87413 0.0
C598 C 0.8904 0.94033 0.76251 0.0
H599 H 0.93769 0.90835 0.86779 0.0
Co600 Co 0.89792 0.939 0.07055 0.0
C601 C 0.89824 0.98922 0.93646 0.0
O602 O 0.91863 0.98199 0.86822 0.0
N603 N 0.8908 0.94466 0.26259 0.0
C604 C 0.87481 0.95827 0.46773 0.0
C605 C 0.874 0.9607 0.32166 0.0
C606 C 0.90144 0.93254 0.37382 0.0
N607 N 0.89207 0.94052 0.49938 0.0
O608 O 0.86414 0.92566 0.04345 0.0
H609 H 0.86192 0.97336 0.26264 0.0
H610 H 0.91577 0.91817 0.36252 0.0
O611 O 0.8874 0.97404 1.0233 0.0
C612 C 0.8678 0.90222 0.06723 0.0
O613 O 0.89064 0.89502 0.10331 0.0
N614 N 0.9319 0.94875 0.10569 0.0
C615 C 0.98322 0.95395 0.17282 0.0
C616 C 0.96714 0.97506 0.17168 0.0
C617 C 0.94131 0.97193 0.14215 0.0
C618 C 0.94696 0.92804 0.11684 0.0
C619 C 0.97258 0.9302 0.14637 0.0
H620 H 0.92902 0.98806 0.15191 0.0
H621 H 0.93889 0.90946 0.10453 0.0
H622 H 0.87358 0.95171 0.77375 0.0
H623 H 0.93305 0.91046 0.59067 0.0
H624 H 0.86388 0.96895 0.54397 0.0
H625 H 0.97428 0.99366 0.19732 0.0
H626 H 0.98395 0.91323 0.14781 0.0
C627 C 0.34485 0.67309 0.0625 0.0
C628 C 0.34422 0.67055 0.91697 0.0
N629 N 0.33034 0.65009 0.8861 0.0
N630 N 0.33097 0.65459 0.12388 0.0
C631 C 0.32307 0.64038 1.01226 0.0
H632 H 0.35504 0.68768 0.11755 0.0
Co633 Co 0.32441 0.6479 0.3203 0.0
C634 C 0.27419 0.64822 0.1862 0.0
O635 O 0.28141 0.66861 0.11797 0.0
N636 N 0.31875 0.64078 0.51234 0.0
C637 C 0.30514 0.62478 0.71747 0.0
C638 C 0.30272 0.62397 0.5714 0.0
C639 C 0.33087 0.65142 0.62358 0.0
N640 N 0.32289 0.64205 0.74914 0.0
O641 O 0.33775 0.61412 0.29319 0.0
H642 H 0.29006 0.61188 0.51237 0.0
H643 H 0.34523 0.66576 0.61229 0.0
O644 O 0.28936 0.63738 0.27304 0.0
C645 C 0.36119 0.61778 0.31697 0.0
O646 O 0.36839 0.64061 0.35306 0.0
N647 N 0.31466 0.68188 0.35546 0.0
C648 C 0.30946 0.73319 0.42268 0.0
C649 C 0.28835 0.71712 0.42149 0.0
C650 C 0.29148 0.69129 0.39192 0.0
C651 C 0.33536 0.69694 0.36662 0.0
C652 C 0.33321 0.72256 0.3962 0.0
H653 H 0.27535 0.679 0.40166 0.0
H654 H 0.35394 0.68887 0.3543 0.0
H655 H 0.3117 0.62356 1.0235 0.0
H656 H 0.35294 0.68304 0.84043 0.0
H657 H 0.29448 0.61385 0.79371 0.0
H658 H 0.26975 0.72426 0.44715 0.0
H659 H 0.35018 0.73392 0.39767 0.0
C660 C 0.59611 0.91621 0.57536 0.0
C661 C 0.59604 0.91782 0.72161 0.0
N662 N 0.59612 0.94241 0.75626 0.0
N663 N 0.59658 0.93968 0.51894 0.0
C664 C 0.59614 0.95521 0.63284 0.0
H665 H 0.59599 0.89892 0.51467 0.0
Co666 Co 0.59797 0.94797 0.32512 0.0
C667 C 0.62243 0.99745 0.42581 0.0
O668 O 0.64302 0.98877 0.48585 0.0
N669 N 0.59906 0.9563 0.13064 0.0
C670 C 0.5995 0.97753 0.92601 0.0
C671 C 0.6004 0.97956 0.07141 0.0
C672 C 0.59708 0.94045 1.01847 0.0
N673 N 0.59739 0.95293 0.89373 0.0
O674 O 0.63313 0.93736 0.32016 0.0
H675 H 0.60152 0.99717 0.12876 0.0
H676 H 0.5949 0.92027 1.02755 0.0
O677 O 0.60641 0.98251 0.37003 0.0
C678 C 0.63202 0.91396 0.28838 0.0
O679 O 0.60979 0.9044 0.25868 0.0
N680 N 0.5634 0.95544 0.32871 0.0
C681 C 0.51081 0.95608 0.35354 0.0
C682 C 0.52554 0.97537 0.41357 0.0
C683 C 0.5519 0.97473 0.40014 0.0
C684 C 0.54934 0.93717 0.26506 0.0
C685 C 0.52311 0.93729 0.27443 0.0
H686 H 0.56293 0.98902 0.45326 0.0
H687 H 0.55865 0.92176 0.21114 0.0
H688 H 0.59561 0.97549 0.62657 0.0
H689 H 0.59619 0.90222 0.79571 0.0
H690 H 0.60023 0.99294 0.8508 0.0
H691 H 0.51696 0.99002 0.47685 0.0
H692 H 0.51262 0.92224 0.22381 0.0
C693 C 0.34719 0.3461 0.82516 0.0
C694 C 0.34558 0.34602 0.97141 0.0
N695 N 0.32099 0.34612 1.00604 0.0
N696 N 0.32373 0.34657 0.76872 0.0
C697 C 0.30819 0.34613 0.88261 0.0
H698 H 0.36448 0.34596 0.7645 0.0
Co699 Co 0.31543 0.34795 0.57489 0.0
C700 C 0.26595 0.37242 0.6755 0.0
O701 O 0.27463 0.39301 0.73553 0.0
N702 N 0.3071 0.34903 0.38041 0.0
C703 C 0.28587 0.34943 0.17577 0.0
C704 C 0.28384 0.35032 0.32117 0.0
C705 C 0.32295 0.34709 0.26824 0.0
N706 N 0.31047 0.34737 0.1435 0.0
O707 O 0.32605 0.38311 0.56988 0.0
H708 H 0.26623 0.3514 0.37853 0.0
H709 H 0.34313 0.34494 0.27734 0.0
O710 O 0.28089 0.3564 0.61975 0.0
C711 C 0.34945 0.382 0.53817 0.0
O712 O 0.35901 0.35977 0.50855 0.0
N713 N 0.30796 0.31338 0.57853 0.0
C714 C 0.30732 0.26079 0.60344 0.0
C715 C 0.28804 0.27553 0.66347 0.0
C716 C 0.28868 0.30189 0.64999 0.0
C717 C 0.32623 0.29932 0.51488 0.0
C718 C 0.3261 0.27309 0.52429 0.0
H719 H 0.27439 0.31292 0.7031 0.0
H720 H 0.34163 0.30863 0.46092 0.0
H721 H 0.28791 0.34561 0.87632 0.0
H722 H 0.36118 0.34617 0.04553 0.0
H723 H 0.27045 0.35012 0.10056 0.0
H724 H 0.27339 0.26695 0.72677 0.0
H725 H 0.34115 0.2626 0.47367 0.0
C726 C 0.91731 0.09718 0.07531 0.0
C727 C 0.91739 0.09557 0.22157 0.0
N728 N 0.9173 0.07098 0.25621 0.0
N729 N 0.91685 0.07371 1.01889 0.0
C730 C 0.91729 0.05818 0.13278 0.0
H731 H 0.91743 0.11447 1.01463 0.0
Co732 Co 0.91545 0.06541 0.82507 0.0
C733 C 0.891 0.01594 0.92576 0.0
O734 O 0.8704 0.02463 0.98578 0.0
N735 N 0.91434 0.05709 0.63058 0.0
C736 C 0.91384 0.03587 0.42591 0.0
C737 C 0.91294 0.03383 0.57131 0.0
C738 C 0.91636 0.07293 0.51842 0.0
N739 N 0.91602 0.06046 0.39367 0.0
O740 O 0.88029 0.07603 0.82016 0.0
H741 H 0.91176 0.01623 0.62863 0.0
H742 H 0.9186 0.09311 0.52754 0.0
O743 O 0.90701 0.03088 0.86998 0.0
C744 C 0.88138 0.09943 0.78835 0.0
O745 O 0.90361 0.10899 0.75855 0.0
N746 N 0.95002 0.05795 0.82861 0.0
C747 C 1.00261 0.05731 0.8534 0.0
C748 C 0.98788 0.03802 0.9134 0.0
C749 C 0.96152 0.03866 0.89998 0.0
C750 C 0.96407 0.07623 0.76501 0.0
C751 C 0.99031 0.0761 0.77436 0.0
H752 H 0.9505 0.02436 0.95308 0.0
H753 H 0.95475 0.09164 0.71115 0.0
H754 H 0.91782 0.0379 0.12651 0.0
H755 H 0.91723 0.11117 0.29568 0.0
H756 H 0.91307 0.02046 0.35068 0.0
H757 H 0.99647 0.02336 0.97663 0.0
H758 H 1.00079 0.09116 0.72377 0.0
C759 C 0.16623 0.6673 0.32507 0.0
C760 C 0.16783 0.66737 0.47132 0.0
N761 N 0.19243 0.66728 0.50598 0.0
N762 N 0.18969 0.66683 0.26866 0.0
C763 C 0.20522 0.66726 0.38257 0.0
H764 H 0.14894 0.66743 0.26439 0.0
Co765 Co 0.19799 0.66544 0.07484 0.0
C766 C 0.24747 0.64098 0.17551 0.0
O767 O 0.23878 0.62038 0.23551 0.0
N768 N 0.20632 0.66435 0.88037 0.0
C769 C 0.22755 0.66394 0.67575 0.0
C770 C 0.22958 0.66304 0.82115 0.0
C771 C 0.19047 0.66631 0.76819 0.0
N772 N 0.20295 0.66602 0.64346 0.0
O773 O 0.18737 0.63028 0.06984 0.0
H774 H 0.24718 0.66194 0.87852 0.0
H775 H 0.17029 0.66848 0.77726 0.0
O776 O 0.23252 0.65699 0.11975 0.0
C777 C 0.16397 0.63139 0.03808 0.0
O778 O 0.15441 0.65362 1.00842 0.0
N779 N 0.20546 0.70001 0.07848 0.0
C780 C 0.2061 0.7526 0.10337 0.0
C781 C 0.22538 0.73786 0.16341 0.0
C782 C 0.22474 0.71151 0.14994 0.0
C783 C 0.18719 0.71407 1.01481 0.0
C784 C 0.18731 0.7403 1.02422 0.0
H785 H 0.23903 0.70048 0.20306 0.0
H786 H 0.17178 0.70476 0.96086 0.0
H787 H 0.22551 0.66778 0.3763 0.0
H788 H 0.15224 0.66723 0.54542 0.0
H789 H 0.24296 0.66323 0.60055 0.0
H790 H 0.24004 0.74645 0.22671 0.0
H791 H 0.17226 0.75079 0.97359 0.0
C792 C 0.42312 0.91858 0.74362 0.0
C793 C 0.42059 0.91921 0.88915 0.0
N794 N 0.40012 0.93308 0.92 0.0
N795 N 0.40462 0.93246 0.68222 0.0
C796 C 0.39041 0.94035 0.79382 0.0
H797 H 0.43771 0.90839 0.68859 0.0
Co798 Co 0.39793 0.93902 0.48579 0.0
C799 C 0.39824 0.98924 0.61987 0.0
O800 O 0.41863 0.98202 0.68812 0.0
N801 N 0.3908 0.94467 0.29375 0.0
C802 C 0.3748 0.95828 0.08859 0.0
C803 C 0.37399 0.9607 0.23466 0.0
C804 C 0.40144 0.93255 0.18252 0.0
N805 N 0.39207 0.94053 0.05695 0.0
O806 O 0.36415 0.92568 0.51291 0.0
H807 H 0.3619 0.97336 0.29368 0.0
H808 H 0.41579 0.9182 0.19382 0.0
O809 O 0.38741 0.97406 0.53302 0.0
C810 C 0.36781 0.90224 0.48916 0.0
O811 O 0.39063 0.89503 0.45305 0.0
N812 N 0.4319 0.94877 0.45064 0.0
C813 C 0.48322 0.95397 0.38345 0.0
C814 C 0.46714 0.97508 0.38462 0.0
C815 C 0.44131 0.97195 0.41417 0.0
C816 C 0.44697 0.92806 0.43949 0.0
C817 C 0.47259 0.93022 0.40992 0.0
H818 H 0.42902 0.98807 0.40443 0.0
H819 H 0.4389 0.90948 0.45182 0.0
H820 H 0.37359 0.95172 0.78256 0.0
H821 H 0.43307 0.9105 0.9657 0.0
H822 H 0.36387 0.96894 1.01235 0.0
H823 H 0.47428 0.99368 0.35896 0.0
H824 H 0.48395 0.91325 0.40847 0.0
C825 C 0.84484 0.6731 0.4946 0.0
C826 C 0.84422 0.67057 0.64012 0.0
N827 N 0.83034 0.6501 0.67097 0.0
N828 N 0.83097 0.65459 0.43319 0.0
C829 C 0.82307 0.64039 0.54479 0.0
H830 H 0.85503 0.68769 0.43957 0.0
Co831 Co 0.82441 0.64791 0.23676 0.0
C832 C 0.77419 0.64822 0.37079 0.0
O833 O 0.78141 0.66861 0.43904 0.0
N834 N 0.81875 0.64078 0.04471 0.0
C835 C 0.80515 0.62478 0.83956 0.0
C836 C 0.80273 0.62396 0.98562 0.0
C837 C 0.83087 0.65143 0.93349 0.0
N838 N 0.82289 0.64205 0.80792 0.0
O839 O 0.83776 0.61413 0.26388 0.0
H840 H 0.79007 0.61188 0.04464 0.0
H841 H 0.84522 0.66577 0.9448 0.0
O842 O 0.78936 0.63738 0.28397 0.0
C843 C 0.86119 0.6178 0.24014 0.0
O844 O 0.86839 0.64063 0.20411 0.0
N845 N 0.81465 0.68188 0.20159 0.0
C846 C 0.80945 0.73319 0.13426 0.0
C847 C 0.78834 0.71712 0.13545 0.0
C848 C 0.79147 0.69129 0.16508 0.0
C849 C 0.83536 0.69695 0.19045 0.0
C850 C 0.8332 0.72257 0.16081 0.0
H851 H 0.77535 0.67899 0.15533 0.0
H852 H 0.85394 0.68888 0.20281 0.0
H853 H 0.81171 0.62356 0.53353 0.0
H854 H 0.85292 0.68305 0.71668 0.0
H855 H 0.79449 0.61384 0.76331 0.0
H856 H 0.76974 0.72425 0.10974 0.0
H857 H 0.85017 0.73393 0.15933 0.0
C858 C 0.09031 0.09482 0.24348 0.0
C859 C 0.09284 0.09419 0.38901 0.0
N860 N 0.1133 0.08031 0.41988 0.0
N861 N 0.10881 0.08094 0.18209 0.0
C862 C 0.12301 0.07304 0.29371 0.0
H863 H 0.07572 0.10501 0.18843 0.0
Co864 Co 0.1155 0.07437 0.98567 0.0
C865 C 0.11518 0.02416 0.11974 0.0
O866 O 0.09479 0.03138 0.18797 0.0
N867 N 0.12262 0.06872 0.79363 0.0
C868 C 0.13862 0.05511 0.58849 0.0
C869 C 0.13943 0.05269 0.73456 0.0
C870 C 0.11198 0.08084 0.6824 0.0
N871 N 0.12135 0.07286 0.55683 0.0
O872 O 0.14927 0.08772 1.01281 0.0
H873 H 0.15152 0.04003 0.79358 0.0
H874 H 0.09764 0.0952 0.69369 0.0
O875 O 0.12602 0.03933 0.03291 0.0
C876 C 0.14562 0.11116 0.98905 0.0
O877 O 0.12279 0.11836 0.95293 0.0
N878 N 0.08152 0.06463 0.95049 0.0
C879 C 0.03021 0.05942 0.8833 0.0
C880 C 0.04628 0.03831 0.88445 0.0
C881 C 0.07211 0.04144 0.91401 0.0
C882 C 0.06646 0.08533 0.93934 0.0
C883 C 0.04083 0.08317 0.90978 0.0
H884 H 0.0844 0.02532 0.90427 0.0
H885 H 0.07453 0.10391 0.95167 0.0
H886 H 0.13984 0.06167 0.28247 0.0
H887 H 0.08036 0.1029 0.46555 0.0
H888 H 0.14955 0.04444 0.51225 0.0
H889 H 0.03914 0.01972 0.85879 0.0
H890 H 0.02947 0.10015 0.90833 0.0
C891 C 0.66859 0.34031 0.99451 0.0
C892 C 0.66921 0.34284 0.14004 0.0
N893 N 0.68309 0.3633 0.17091 0.0
N894 N 0.68246 0.35881 0.93312 0.0
C895 C 0.69036 0.37301 0.04474 0.0
H896 H 0.6584 0.32571 0.93946 0.0
Co897 Co 0.68902 0.3655 0.7367 0.0
C898 C 0.73924 0.36517 0.87078 0.0
O899 O 0.73202 0.34478 0.93901 0.0
N900 N 0.69468 0.37262 0.54467 0.0
C901 C 0.70828 0.38862 0.33954 0.0
C902 C 0.7107 0.38944 0.48561 0.0
C903 C 0.68256 0.36198 0.43343 0.0
N904 N 0.69054 0.37135 0.30787 0.0
O905 O 0.67568 0.39927 0.76384 0.0
H906 H 0.72336 0.40153 0.54464 0.0
H907 H 0.6682 0.34763 0.44471 0.0
O908 O 0.72407 0.37601 0.78395 0.0
C909 C 0.65224 0.39561 0.74008 0.0
O910 O 0.64504 0.37278 0.70398 0.0
N911 N 0.69877 0.33152 0.70152 0.0
C912 C 0.70397 0.28021 0.63421 0.0
C913 C 0.72508 0.29628 0.63541 0.0
C914 C 0.72195 0.32211 0.66503 0.0
C915 C 0.67807 0.31646 0.69035 0.0
C916 C 0.68022 0.29084 0.66072 0.0
H917 H 0.73807 0.33441 0.6553 0.0
H918 H 0.65949 0.32452 0.7027 0.0
H919 H 0.70173 0.38984 0.0335 0.0
H920 H 0.6605 0.33035 0.21658 0.0
H921 H 0.71894 0.39956 0.2633 0.0
H922 H 0.74368 0.28915 0.60973 0.0
H923 H 0.66325 0.27947 0.65923 0.0
C924 C 0.4173 0.0972 0.48099 0.0
C925 C 0.41738 0.09559 0.33474 0.0
N926 N 0.41729 0.071 0.30009 0.0
N927 N 0.41684 0.07373 0.53741 0.0
C928 C 0.41728 0.0582 0.42351 0.0
H929 H 0.41743 0.11449 0.54167 0.0
Co930 Co 0.41546 0.06543 0.73123 0.0
C931 C 0.391 0.01595 0.63055 0.0
O932 O 0.3704 0.02464 0.57051 0.0
N933 N 0.41437 0.05711 0.9257 0.0
C934 C 0.41397 0.03587 0.13033 0.0
C935 C 0.41308 0.03384 0.98493 0.0
C936 C 0.41633 0.07296 0.03789 0.0
N937 N 0.41604 0.06048 0.16262 0.0
O938 O 0.3803 0.07605 0.73623 0.0
H939 H 0.41199 0.01624 0.92756 0.0
H940 H 0.41848 0.09314 0.02881 0.0
O941 O 0.40701 0.0309 0.68634 0.0
C942 C 0.3814 0.09945 0.76799 0.0
O943 O 0.40363 0.10901 0.79763 0.0
N944 N 0.45003 0.05797 0.72761 0.0
C945 C 0.50262 0.05733 0.70277 0.0
C946 C 0.48788 0.03804 0.64272 0.0
C947 C 0.46152 0.03868 0.65617 0.0
C948 C 0.46408 0.07624 0.79128 0.0
C949 C 0.49032 0.07612 0.78189 0.0
H950 H 0.4505 0.02439 0.60304 0.0
H951 H 0.45477 0.09165 0.84522 0.0
H952 H 0.41781 0.03792 0.42979 0.0
H953 H 0.41723 0.11119 0.26063 0.0
H954 H 0.41327 0.02046 0.20553 0.0
H955 H 0.49646 0.02339 0.57944 0.0
H956 H 0.50081 0.09117 0.83253 0.0
C957 C 0.66623 0.66729 0.23173 0.0
C958 C 0.66783 0.66737 0.08548 0.0
N959 N 0.69242 0.66728 0.05086 0.0
N960 N 0.68969 0.66682 0.28817 0.0
C961 C 0.70522 0.66726 0.17429 0.0
H962 H 0.64893 0.66742 0.29238 0.0
Co963 Co 0.69799 0.66545 0.482 0.0
C964 C 0.74747 0.64098 0.38144 0.0
O965 O 0.73878 0.62038 0.32141 0.0
N966 N 0.70632 0.66439 0.67648 0.0
C967 C 0.72755 0.66404 0.88111 0.0
C968 C 0.72958 0.66315 0.7357 0.0
C969 C 0.69046 0.6663 0.78866 0.0
N970 N 0.70295 0.66604 0.91339 0.0
O971 O 0.68737 0.63029 0.48711 0.0
H972 H 0.74719 0.66211 0.67833 0.0
H973 H 0.67028 0.66841 0.77958 0.0
O974 O 0.73252 0.657 0.43717 0.0
C975 C 0.66396 0.63141 0.51879 0.0
O976 O 0.65441 0.65364 0.5483 0.0
N977 N 0.70546 0.70002 0.47828 0.0
C978 C 0.70609 0.75261 0.45321 0.0
C979 C 0.72538 0.73787 0.39322 0.0
C980 C 0.72474 0.71151 0.40678 0.0
C981 C 0.68719 0.71408 0.54191 0.0
C982 C 0.68731 0.74032 0.53241 0.0
H983 H 0.73903 0.70048 0.35369 0.0
H984 H 0.67179 0.70478 0.59592 0.0
H985 H 0.7255 0.66778 0.18059 0.0
H986 H 0.65224 0.66723 1.01136 0.0
H987 H 0.74297 0.66338 0.95631 0.0
H988 H 0.74002 0.74644 0.32988 0.0
H989 H 0.67226 0.75082 0.58301 0.0
C990 C 0.09613 0.9162 0.98085 0.0
C991 C 0.09606 0.9178 0.8346 0.0
N992 N 0.09613 0.9424 0.79997 0.0
N993 N 0.09658 0.93966 0.03729 0.0
C994 C 0.09614 0.95519 0.92339 0.0
H995 H 0.09601 0.89891 0.04152 0.0
Co996 Co 0.09797 0.94796 0.23111 0.0
C997 C 0.12242 0.99744 0.13044 0.0
O998 O 0.14302 0.98875 0.07041 0.0
N999 N 0.09906 0.95629 0.42559 0.0
C1000 C 0.09949 0.97752 0.63024 0.0
C1001 C 0.10039 0.97955 0.48484 0.0
C1002 C 0.09709 0.94044 0.53776 0.0
N1003 N 0.0974 0.95292 0.6625 0.0
O1004 O 0.13313 0.93735 0.23611 0.0
H1005 H 0.1015 0.99715 0.42749 0.0
H1006 H 0.09491 0.92026 0.52866 0.0
O1007 O 0.10641 0.9825 0.18623 0.0
C1008 C 0.13203 0.91395 0.26788 0.0
O1009 O 0.10981 0.90439 0.29755 0.0
N1010 N 0.0634 0.95542 0.22749 0.0
C1011 C 0.01081 0.95606 0.20269 0.0
C1012 C 0.02554 0.97535 0.14267 0.0
C1013 C 0.0519 0.97471 0.15609 0.0
C1014 C 0.04935 0.93715 0.29113 0.0
C1015 C 0.02311 0.93727 0.28177 0.0
H1016 H 0.06292 0.989 0.10299 0.0
H1017 H 0.05867 0.92174 0.34503 0.0
H1018 H 0.0956 0.97548 0.92968 0.0
H1019 H 0.09622 0.90221 0.76049 0.0
H1020 H 0.10021 0.99293 0.70545 0.0
H1021 H 0.01695 0.99001 0.07942 0.0
H1022 H 0.01263 0.92222 0.33238 0.0
C1023 C 0.8472 0.34609 0.73183 0.0
C1024 C 0.8456 0.34602 0.58558 0.0
N1025 N 0.82101 0.34611 0.55092 0.0
N1026 N 0.82374 0.34657 0.78824 0.0
C1027 C 0.80821 0.34613 0.67434 0.0
H1028 H 0.86449 0.34595 0.79251 0.0
Co1029 Co 0.81544 0.34794 0.98206 0.0
C1030 C 0.76596 0.37241 0.88145 0.0
O1031 O 0.77465 0.39301 0.82147 0.0
N1032 N 0.80711 0.34901 0.17653 0.0
C1033 C 0.78588 0.34939 0.38114 0.0
C1034 C 0.78385 0.35028 0.23573 0.0
C1035 C 0.82297 0.34708 0.28872 0.0
N1036 N 0.81048 0.34736 0.41344 0.0
O1037 O 0.82606 0.3831 0.98715 0.0
H1038 H 0.76624 0.35134 0.17835 0.0
H1039 H 0.84315 0.34495 0.27966 0.0
O1040 O 0.78091 0.35639 0.93718 0.0
C1041 C 0.84946 0.38199 1.01886 0.0
O1042 O 0.85902 0.35976 0.04844 0.0
N1043 N 0.80797 0.31337 0.97835 0.0
C1044 C 0.80734 0.26078 0.9533 0.0
C1045 C 0.78805 0.27552 0.89329 0.0
C1046 C 0.78869 0.30188 0.90684 0.0
C1047 C 0.82624 0.29931 0.04199 0.0
C1048 C 0.82612 0.27307 0.0325 0.0
H1049 H 0.7744 0.31291 0.85374 0.0
H1050 H 0.84165 0.30862 0.096 0.0
H1051 H 0.78793 0.34561 0.68061 0.0
H1052 H 0.8612 0.34615 0.51147 0.0
H1053 H 0.77046 0.35006 0.45632 0.0
H1054 H 0.7734 0.26695 0.82995 0.0
H1055 H 0.84117 0.26258 0.08312 0.0
loop_
_geom_bond_atom_site_label_1
_geom_bond_atom_site_label_2
_geom_bond_distance
_geom_bond_site_symmetry_2
_ccdc_geom_bond_type
C0 C1 1.351 . S
C0 N3 1.368 . S
C0 H5 0.931 . S
C1 C0 1.351 . S
C1 N2 1.373 . S
C1 H29 0.930 . S
N2 C1 1.373 . S
N2 C4 1.340 . S
N3 C0 1.368 . S
N3 C4 1.321 . S
N3 Co6 2.135 1_556 S
C4 N2 1.340 . S
C4 N3 1.321 . S
C4 H28 0.930 . S
H5 C0 0.931 . S
Co6 N3 2.135 1_554 S
Co6 N9 2.121 . S
Co6 O14 2.055 . S
Co6 O17 2.039 . S
Co6 N20 2.140 . S
C7 O8 1.227 . S
C7 O17 1.265 1_556 S
O8 C7 1.227 . S
N9 Co6 2.121 . S
N9 C11 1.375 . S
N9 C12 1.313 . S
C10 C11 1.338 . S
C10 N13 1.377 . S
C10 H30 0.930 . S
C11 N9 1.375 . S
C11 C10 1.338 . S
C11 H15 0.931 . S
C12 N9 1.313 . S
C12 N13 1.344 . S
C12 H16 0.930 . S
N13 C10 1.377 . S
N13 C12 1.344 . S
O14 Co6 2.055 . S
O14 C18 1.253 . S
H15 C11 0.931 . S
H16 C12 0.930 . S
O17 Co6 2.039 . S
O17 C7 1.265 1_554 S
C18 O14 1.253 . S
C18 O19 1.227 . S
O19 C18 1.227 . S
N20 Co6 2.140 . S
N20 C23 1.346 1_554 S
N20 C24 1.345 . S
C21 C22 1.387 1_554 S
C21 C25 1.391 . S
C22 C21 1.387 1_556 S
C22 C23 1.369 . S
C22 H31 0.929 . S
C23 N20 1.346 1_556 S
C23 C22 1.369 . S
C23 H26 0.928 . S
C24 N20 1.345 . S
C24 C25 1.371 . S
C24 H27 0.931 . S
C25 C21 1.391 . S
C25 C24 1.371 . S
C25 H32 0.930 . S
H26 C23 0.928 . S
H27 C24 0.931 . S
H28 C4 0.930 . S
H29 C1 0.930 . S
H30 C10 0.930 . S
H31 C22 0.929 . S
H32 C25 0.930 . S
C33 C34 1.351 1_554 S
C33 N36 1.368 . S
C33 H38 0.931 . S
C34 C33 1.351 1_556 S
C34 N35 1.373 . S
C34 H62 0.930 . S
N35 C34 1.373 . S
N35 C37 1.340 . S
N36 C33 1.368 . S
N36 C37 1.321 1_554 S
N36 Co39 2.135 . S
C37 N35 1.340 . S
C37 N36 1.321 1_556 S
C37 H61 0.930 . S
H38 C33 0.931 . S
Co39 N36 2.135 . S
Co39 N42 2.121 . S
Co39 O47 2.055 . S
Co39 O50 2.039 . S
Co39 N53 2.140 . S
C40 O41 1.227 . S
C40 O50 1.265 . S
O41 C40 1.227 . S
N42 Co39 2.121 . S
N42 C44 1.375 . S
N42 C45 1.313 . S
C43 C44 1.338 . S
C43 N46 1.377 . S
C43 H63 0.930 . S
C44 N42 1.375 . S
C44 C43 1.338 . S
C44 H48 0.931 . S
C45 N42 1.313 . S
C45 N46 1.344 . S
C45 H49 0.930 . S
N46 C43 1.377 . S
N46 C45 1.344 . S
O47 Co39 2.055 . S
O47 C51 1.253 . S
H48 C44 0.931 . S
H49 C45 0.930 . S
O50 Co39 2.039 . S
O50 C40 1.265 . S
C51 O47 1.253 . S
C51 O52 1.227 . S
O52 C51 1.227 . S
N53 Co39 2.140 . S
N53 C56 1.346 . S
N53 C57 1.345 . S
C54 C55 1.387 . S
C54 C58 1.391 . S
C55 C54 1.387 . S
C55 C56 1.369 . S
C55 H64 0.929 . S
C56 N53 1.346 . S
C56 C55 1.369 . S
C56 H59 0.928 . S
C57 N53 1.345 . S
C57 C58 1.371 . S
C57 H60 0.931 . S
C58 C54 1.391 . S
C58 C57 1.371 . S
C58 H65 0.930 . S
H59 C56 0.928 . S
H60 C57 0.931 . S
H61 C37 0.930 . S
H62 C34 0.930 . S
H63 C43 0.930 . S
H64 C55 0.929 . S
H65 C58 0.930 . S
C66 C67 1.351 . S
C66 N69 1.368 . S
C66 H71 0.931 . S
C67 C66 1.351 . S
C67 N68 1.373 . S
C67 H95 0.930 . S
N68 C67 1.373 . S
N68 C70 1.340 . S
N69 C66 1.368 . S
N69 C70 1.321 . S
N69 Co72 2.135 . S
C70 N68 1.340 . S
C70 N69 1.321 . S
C70 H94 0.930 . S
H71 C66 0.931 . S
Co72 N69 2.135 . S
Co72 N75 2.121 . S
Co72 O80 2.055 . S
Co72 O83 2.039 . S
Co72 N86 2.140 . S
C73 O74 1.227 . S
C73 O83 1.265 . S
O74 C73 1.227 . S
N75 Co72 2.121 . S
N75 C77 1.375 . S
N75 C78 1.313 . S
C76 C77 1.338 . S
C76 N79 1.377 . S
C76 H96 0.930 1_556 S
C77 N75 1.375 . S
C77 C76 1.338 . S
C77 H81 0.931 . S
C78 N75 1.313 . S
C78 N79 1.344 . S
C78 H82 0.930 . S
N79 C76 1.377 . S
N79 C78 1.344 . S
O80 Co72 2.055 . S
O80 C84 1.253 . S
H81 C77 0.931 . S
H82 C78 0.930 . S
O83 Co72 2.039 . S
O83 C73 1.265 . S
C84 O80 1.253 . S
C84 O85 1.227 . S
O85 C84 1.227 . S
N86 Co72 2.140 . S
N86 C89 1.346 . S
N86 C90 1.345 . S
C87 C88 1.387 . S
C87 C91 1.391 . S
C88 C87 1.387 . S
C88 C89 1.369 . S
C88 H97 0.929 . S
C89 N86 1.346 . S
C89 C88 1.369 . S
C89 H92 0.928 . S
C90 N86 1.345 . S
C90 C91 1.371 . S
C90 H93 0.931 . S
C91 C87 1.391 . S
C91 C90 1.371 . S
C91 H98 0.930 . S
H92 C89 0.928 . S
H93 C90 0.931 . S
H94 C70 0.930 . S
H95 C67 0.930 . S
H96 C76 0.930 1_554 S
H97 C88 0.929 . S
H98 C91 0.930 . S
C99 C100 1.351 . S
C99 N102 1.368 . S
C99 H104 0.931 . S
C100 C99 1.351 . S
C100 N101 1.373 . S
C100 H128 0.930 . S
N101 C100 1.373 . S
N101 C103 1.340 . S
N102 C99 1.368 . S
N102 C103 1.321 . S
N102 Co105 2.135 . S
C103 N101 1.340 . S
C103 N102 1.321 . S
C103 H127 0.930 . S
H104 C99 0.931 . S
Co105 N102 2.135 . S
Co105 N108 2.121 1_556 S
Co105 O113 2.055 . S
Co105 O116 2.039 . S
Co105 N119 2.140 . S
C106 O107 1.227 . S
C106 O116 1.265 . S
O107 C106 1.227 . S
N108 Co105 2.121 1_554 S
N108 C110 1.375 . S
N108 C111 1.313 . S
C109 C110 1.338 . S
C109 N112 1.377 . S
C109 H129 0.930 . S
C110 N108 1.375 . S
C110 C109 1.338 . S
C110 H114 0.931 . S
C111 N108 1.313 . S
C111 N112 1.344 . S
C111 H115 0.930 . S
N112 C109 1.377 . S
N112 C111 1.344 . S
O113 Co105 2.055 . S
O113 C117 1.253 . S
H114 C110 0.931 . S
H115 C111 0.930 . S
O116 Co105 2.039 . S
O116 C106 1.265 . S
C117 O113 1.253 . S
C117 O118 1.227 . S
O118 C117 1.227 . S
N119 Co105 2.140 . S
N119 C122 1.346 . S
N119 C123 1.345 . S
C120 C121 1.387 . S
C120 C124 1.391 . S
C121 C120 1.387 . S
C121 C122 1.369 . S
C121 H130 0.929 . S
C122 N119 1.346 . S
C122 C121 1.369 . S
C122 H125 0.928 . S
C123 N119 1.345 . S
C123 C124 1.371 . S
C123 H126 0.931 . S
C124 C120 1.391 . S
C124 C123 1.371 . S
C124 H131 0.930 . S
H125 C122 0.928 . S
H126 C123 0.931 . S
H127 C103 0.930 . S
H128 C100 0.930 . S
H129 C109 0.930 . S
H130 C121 0.929 . S
H131 C124 0.930 . S
C132 C133 1.351 . S
C132 N135 1.368 . S
C132 H137 0.931 . S
C133 C132 1.351 . S
C133 N134 1.373 . S
C133 H161 0.930 . S
N134 C133 1.373 . S
N134 C136 1.340 . S
N135 C132 1.368 . S
N135 C136 1.321 . S
N135 Co138 2.135 1_554 S
C136 N134 1.340 . S
C136 N135 1.321 . S
C136 H160 0.930 . S
H137 C132 0.931 . S
Co138 N135 2.135 1_556 S
Co138 N141 2.121 . S
Co138 O146 2.055 . S
Co138 O149 2.039 . S
Co138 N152 2.140 . S
C139 O140 1.227 . S
C139 O149 1.265 1_554 S
O140 C139 1.227 . S
N141 Co138 2.121 . S
N141 C143 1.375 . S
N141 C144 1.313 . S
C142 C143 1.338 . S
C142 N145 1.377 . S
C142 H162 0.930 . S
C143 N141 1.375 . S
C143 C142 1.338 . S
C143 H147 0.931 . S
C144 N141 1.313 . S
C144 N145 1.344 . S
C144 H148 0.930 . S
N145 C142 1.377 . S
N145 C144 1.344 . S
O146 Co138 2.055 . S
O146 C150 1.253 . S
H147 C143 0.931 . S
H148 C144 0.930 . S
O149 Co138 2.039 . S
O149 C139 1.265 1_556 S
C150 O146 1.253 . S
C150 O151 1.227 . S
O151 C150 1.227 . S
N152 Co138 2.140 . S
N152 C155 1.346 1_556 S
N152 C156 1.345 . S
C153 C154 1.387 1_556 S
C153 C157 1.391 . S
C154 C153 1.387 1_554 S
C154 C155 1.369 . S
C154 H163 0.929 . S
C155 N152 1.346 1_554 S
C155 C154 1.369 . S
C155 H158 0.928 . S
C156 N152 1.345 . S
C156 C157 1.371 . S
C156 H159 0.931 . S
C157 C153 1.391 . S
C157 C156 1.371 . S
C157 H164 0.930 . S
H158 C155 0.928 . S
H159 C156 0.931 . S
H160 C136 0.930 . S
H161 C133 0.930 . S
H162 C142 0.930 . S
H163 C154 0.929 . S
H164 C157 0.930 . S
C165 C166 1.351 . S
C165 N168 1.368 . S
C165 H170 0.931 . S
C166 C165 1.351 . S
C166 N167 1.373 . S
C166 H194 0.930 . S
N167 C166 1.373 . S
N167 C169 1.340 . S
N168 C165 1.368 . S
N168 C169 1.321 . S
N168 Co171 2.135 . S
C169 N167 1.340 . S
C169 N168 1.321 . S
C169 H193 0.930 . S
H170 C165 0.931 . S
Co171 N168 2.135 . S
Co171 N174 2.121 1_554 S
Co171 O179 2.055 . S
Co171 O182 2.039 . S
Co171 N185 2.140 . S
C172 O173 1.227 . S
C172 O182 1.265 . S
O173 C172 1.227 . S
N174 Co171 2.121 1_556 S
N174 C176 1.375 . S
N174 C177 1.313 . S
C175 C176 1.338 . S
C175 N178 1.377 . S
C175 H195 0.930 . S
C176 N174 1.375 . S
C176 C175 1.338 . S
C176 H180 0.931 . S
C177 N174 1.313 . S
C177 N178 1.344 . S
C177 H181 0.930 . S
N178 C175 1.377 . S
N178 C177 1.344 . S
O179 Co171 2.055 . S
O179 C183 1.253 . S
H180 C176 0.931 . S
H181 C177 0.930 . S
O182 Co171 2.039 . S
O182 C172 1.265 . S
C183 O179 1.253 . S
C183 O184 1.227 . S
O184 C183 1.227 . S
N185 Co171 2.140 . S
N185 C188 1.346 . S
N185 C189 1.345 . S
C186 C187 1.387 . S
C186 C190 1.391 . S
C187 C186 1.387 . S
C187 C188 1.369 . S
C187 H196 0.929 . S
C188 N185 1.346 . S
C188 C187 1.369 . S
C188 H191 0.928 . S
C189 N185 1.345 . S
C189 C190 1.371 . S
C189 H192 0.931 . S
C190 C186 1.391 . S
C190 C189 1.371 . S
C190 H197 0.930 . S
H191 C188 0.928 . S
H192 C189 0.931 . S
H193 C169 0.930 . S
H194 C166 0.930 . S
H195 C175 0.930 . S
H196 C187 0.929 . S
H197 C190 0.930 . S
C198 C199 1.351 . S
C198 N201 1.368 . S
C198 H203 0.931 . S
C199 C198 1.351 . S
C199 N200 1.373 . S
C199 H227 0.930 . S
N200 C199 1.373 . S
N200 C202 1.340 . S
N201 C198 1.368 . S
N201 C202 1.321 . S
N201 Co204 2.135 . S
C202 N200 1.340 . S
C202 N201 1.321 . S
C202 H226 0.930 . S
H203 C198 0.931 . S
Co204 N201 2.135 . S
Co204 N207 2.121 . S
Co204 O212 2.055 . S
Co204 O215 2.039 . S
Co204 N218 2.140 . S
C205 O206 1.227 . S
C205 O215 1.265 . S
O206 C205 1.227 . S
N207 Co204 2.121 . S
N207 C209 1.375 . S
N207 C210 1.313 . S
C208 C209 1.338 . S
C208 N211 1.377 . S
C208 H228 0.930 1_554 S
C209 N207 1.375 . S
C209 C208 1.338 . S
C209 H213 0.931 . S
C210 N207 1.313 . S
C210 N211 1.344 . S
C210 H214 0.930 . S
N211 C208 1.377 . S
N211 C210 1.344 . S
O212 Co204 2.055 . S
O212 C216 1.253 . S
H213 C209 0.931 . S
H214 C210 0.930 . S
O215 Co204 2.039 . S
O215 C205 1.265 . S
C216 O212 1.253 . S
C216 O217 1.227 . S
O217 C216 1.227 . S
N218 Co204 2.140 . S
N218 C221 1.346 . S
N218 C222 1.345 . S
C219 C220 1.387 . S
C219 C223 1.391 . S
C220 C219 1.387 . S
C220 C221 1.369 . S
C220 H229 0.929 . S
C221 N218 1.346 . S
C221 C220 1.369 . S
C221 H224 0.928 . S
C222 N218 1.345 . S
C222 C223 1.371 . S
C222 H225 0.931 . S
C223 C219 1.391 . S
C223 C222 1.371 . S
C223 H230 0.930 . S
H224 C221 0.928 . S
H225 C222 0.931 . S
H226 C202 0.930 . S
H227 C199 0.930 . S
H228 C208 0.930 1_556 S
H229 C220 0.929 . S
H230 C223 0.930 . S
C231 C232 1.351 1_556 S
C231 N234 1.368 . S
C231 H236 0.931 . S
C232 C231 1.351 1_554 S
C232 N233 1.373 . S
C232 H260 0.930 . S
N233 C232 1.373 . S
N233 C235 1.340 . S
N234 C231 1.368 . S
N234 C235 1.321 1_556 S
N234 Co237 2.135 . S
C235 N233 1.340 . S
C235 N234 1.321 1_554 S
C235 H259 0.930 . S
H236 C231 0.931 . S
Co237 N234 2.135 . S
Co237 N240 2.121 . S
Co237 O245 2.055 . S
Co237 O248 2.039 . S
Co237 N251 2.140 . S
C238 O239 1.227 . S
C238 O248 1.265 . S
O239 C238 1.227 . S
N240 Co237 2.121 . S
N240 C242 1.375 . S
N240 C243 1.313 . S
C241 C242 1.338 . S
C241 N244 1.377 . S
C241 H261 0.930 . S
C242 N240 1.375 . S
C242 C241 1.338 . S
C242 H246 0.931 . S
C243 N240 1.313 . S
C243 N244 1.344 . S
C243 H247 0.930 . S
N244 C241 1.377 . S
N244 C243 1.344 . S
O245 Co237 2.055 . S
O245 C249 1.253 . S
H246 C242 0.931 . S
H247 C243 0.930 . S
O248 Co237 2.039 . S
O248 C238 1.265 . S
C249 O245 1.253 . S
C249 O250 1.227 . S
O250 C249 1.227 . S
N251 Co237 2.140 . S
N251 C254 1.346 . S
N251 C255 1.345 . S
C252 C253 1.387 . S
C252 C256 1.391 . S
C253 C252 1.387 . S
C253 C254 1.369 . S
C253 H262 0.929 . S
C254 N251 1.346 . S
C254 C253 1.369 . S
C254 H257 0.928 . S
C255 N251 1.345 . S
C255 C256 1.371 . S
C255 H258 0.931 . S
C256 C252 1.391 . S
C256 C255 1.371 . S
C256 H263 0.930 . S
H257 C254 0.928 . S
H258 C255 0.931 . S
H259 C235 0.930 . S
H260 C232 0.930 . S
H261 C241 0.930 . S
H262 C253 0.929 . S
H263 C256 0.930 . S
C264 C265 1.351 . S
C264 N267 1.368 . S
C264 H269 0.931 . S
C265 C264 1.351 . S
C265 N266 1.373 . S
C265 H293 0.930 . S
N266 C265 1.373 . S
N266 C268 1.340 . S
N267 C264 1.368 . S
N267 C268 1.321 . S
N267 Co270 2.135 1_554 S
C268 N266 1.340 . S
C268 N267 1.321 . S
C268 H292 0.930 . S
H269 C264 0.931 . S
Co270 N267 2.135 1_556 S
Co270 N273 2.121 . S
Co270 O278 2.055 . S
Co270 O281 2.039 . S
Co270 N284 2.140 . S
C271 O272 1.227 . S
C271 O281 1.265 1_554 S
O272 C271 1.227 . S
N273 Co270 2.121 . S
N273 C275 1.375 . S
N273 C276 1.313 . S
C274 C275 1.338 . S
C274 N277 1.377 . S
C274 H294 0.930 . S
C275 N273 1.375 . S
C275 C274 1.338 . S
C275 H279 0.931 . S
C276 N273 1.313 . S
C276 N277 1.344 . S
C276 H280 0.930 . S
N277 C274 1.377 . S
N277 C276 1.344 . S
O278 Co270 2.055 . S
O278 C282 1.253 . S
H279 C275 0.931 . S
H280 C276 0.930 . S
O281 Co270 2.039 . S
O281 C271 1.265 1_556 S
C282 O278 1.253 . S
C282 O283 1.227 . S
O283 C282 1.227 . S
N284 Co270 2.140 . S
N284 C287 1.346 1_556 S
N284 C288 1.345 . S
C285 C286 1.387 1_556 S
C285 C289 1.391 . S
C286 C285 1.387 1_554 S
C286 C287 1.369 . S
C286 H295 0.929 . S
C287 N284 1.346 1_554 S
C287 C286 1.369 . S
C287 H290 0.928 . S
C288 N284 1.345 . S
C288 C289 1.371 . S
C288 H291 0.931 . S
C289 C285 1.391 . S
C289 C288 1.371 . S
C289 H296 0.930 . S
H290 C287 0.928 . S
H291 C288 0.931 . S
H292 C268 0.930 . S
H293 C265 0.930 . S
H294 C274 0.930 . S
H295 C286 0.929 . S
H296 C289 0.930 . S
C297 C298 1.351 1_556 S
C297 N300 1.368 . S
C297 H302 0.931 . S
C298 C297 1.351 1_554 S
C298 N299 1.373 . S
C298 H326 0.930 . S
N299 C298 1.373 . S
N299 C301 1.340 . S
N300 C297 1.368 . S
N300 C301 1.321 1_556 S
N300 Co303 2.135 . S
C301 N299 1.340 . S
C301 N300 1.321 1_554 S
C301 H325 0.930 . S
H302 C297 0.931 . S
Co303 N300 2.135 . S
Co303 N306 2.121 . S
Co303 O311 2.055 . S
Co303 O314 2.039 . S
Co303 N317 2.140 . S
C304 O305 1.227 . S
C304 O314 1.265 . S
O305 C304 1.227 . S
N306 Co303 2.121 . S
N306 C308 1.375 . S
N306 C309 1.313 . S
C307 C308 1.338 . S
C307 N310 1.377 . S
C307 H327 0.930 . S
C308 N306 1.375 . S
C308 C307 1.338 . S
C308 H312 0.931 . S
C309 N306 1.313 . S
C309 N310 1.344 . S
C309 H313 0.930 . S
N310 C307 1.377 . S
N310 C309 1.344 . S
O311 Co303 2.055 . S
O311 C315 1.253 . S
H312 C308 0.931 . S
H313 C309 0.930 . S
O314 Co303 2.039 . S
O314 C304 1.265 . S
C315 O311 1.253 . S
C315 O316 1.227 . S
O316 C315 1.227 . S
N317 Co303 2.140 . S
N317 C320 1.346 . S
N317 C321 1.345 . S
C318 C319 1.387 . S
C318 C322 1.391 . S
C319 C318 1.387 . S
C319 C320 1.369 . S
C319 H328 0.929 . S
C320 N317 1.346 . S
C320 C319 1.369 . S
C320 H323 0.928 . S
C321 N317 1.345 . S
C321 C322 1.371 . S
C321 H324 0.931 . S
C322 C318 1.391 . S
C322 C321 1.371 . S
C322 H329 0.930 . S
H323 C320 0.928 . S
H324 C321 0.931 . S
H325 C301 0.930 . S
H326 C298 0.930 . S
H327 C307 0.930 . S
H328 C319 0.929 . S
H329 C322 0.930 . S
C330 C331 1.351 . S
C330 N333 1.368 . S
C330 H335 0.931 . S
C331 C330 1.351 . S
C331 N332 1.373 . S
C331 H359 0.930 . S
N332 C331 1.373 . S
N332 C334 1.340 . S
N333 C330 1.368 . S
N333 C334 1.321 . S
N333 Co336 2.135 . S
C334 N332 1.340 . S
C334 N333 1.321 . S
C334 H358 0.930 . S
H335 C330 0.931 . S
Co336 N333 2.135 . S
Co336 N339 2.121 . S
Co336 O344 2.055 . S
Co336 O347 2.039 . S
Co336 N350 2.140 . S
C337 O338 1.227 . S
C337 O347 1.265 . S
O338 C337 1.227 . S
N339 Co336 2.121 . S
N339 C341 1.375 . S
N339 C342 1.313 . S
C340 C341 1.338 . S
C340 N343 1.377 . S
C340 H360 0.930 1_554 S
C341 N339 1.375 . S
C341 C340 1.338 . S
C341 H345 0.931 . S
C342 N339 1.313 . S
C342 N343 1.344 . S
C342 H346 0.930 . S
N343 C340 1.377 . S
N343 C342 1.344 . S
O344 Co336 2.055 . S
O344 C348 1.253 . S
H345 C341 0.931 . S
H346 C342 0.930 . S
O347 Co336 2.039 . S
O347 C337 1.265 . S
C348 O344 1.253 . S
C348 O349 1.227 . S
O349 C348 1.227 . S
N350 Co336 2.140 . S
N350 C353 1.346 . S
N350 C354 1.345 . S
C351 C352 1.387 . S
C351 C355 1.391 . S
C352 C351 1.387 . S
C352 C353 1.369 . S
C352 H361 0.929 . S
C353 N350 1.346 . S
C353 C352 1.369 . S
C353 H356 0.928 . S
C354 N350 1.345 . S
C354 C355 1.371 . S
C354 H357 0.931 . S
C355 C351 1.391 . S
C355 C354 1.371 . S
C355 H362 0.930 . S
H356 C353 0.928 . S
H357 C354 0.931 . S
H358 C334 0.930 . S
H359 C331 0.930 . S
H360 C340 0.930 1_556 S
H361 C352 0.929 . S
H362 C355 0.930 . S
C363 C364 1.351 . S
C363 N366 1.368 . S
C363 H368 0.931 . S
C364 C363 1.351 . S
C364 N365 1.373 . S
C364 H392 0.930 . S
N365 C364 1.373 . S
N365 C367 1.340 . S
N366 C363 1.368 . S
N366 C367 1.321 . S
N366 Co369 2.135 . S
C367 N365 1.340 . S
C367 N366 1.321 . S
C367 H391 0.930 . S
H368 C363 0.931 . S
Co369 N366 2.135 . S
Co369 N372 2.121 1_554 S
Co369 O377 2.055 . S
Co369 O380 2.039 . S
Co369 N383 2.140 . S
C370 O371 1.227 . S
C370 O380 1.265 . S
O371 C370 1.227 . S
N372 Co369 2.121 1_556 S
N372 C374 1.375 . S
N372 C375 1.313 . S
C373 C374 1.338 . S
C373 N376 1.377 . S
C373 H393 0.930 . S
C374 N372 1.375 . S
C374 C373 1.338 . S
C374 H378 0.931 . S
C375 N372 1.313 . S
C375 N376 1.344 . S
C375 H379 0.930 . S
N376 C373 1.377 . S
N376 C375 1.344 . S
O377 Co369 2.055 . S
O377 C381 1.253 . S
H378 C374 0.931 . S
H379 C375 0.930 . S
O380 Co369 2.039 . S
O380 C370 1.265 . S
C381 O377 1.253 . S
C381 O382 1.227 . S
O382 C381 1.227 . S
N383 Co369 2.140 . S
N383 C386 1.346 . S
N383 C387 1.345 . S
C384 C385 1.387 . S
C384 C388 1.391 . S
C385 C384 1.387 . S
C385 C386 1.369 . S
C385 H394 0.929 . S
C386 N383 1.346 . S
C386 C385 1.369 . S
C386 H389 0.928 . S
C387 N383 1.345 . S
C387 C388 1.371 . S
C387 H390 0.931 . S
C388 C384 1.391 . S
C388 C387 1.371 . S
C388 H395 0.930 . S
H389 C386 0.928 . S
H390 C387 0.931 . S
H391 C367 0.930 . S
H392 C364 0.930 . S
H393 C373 0.930 . S
H394 C385 0.929 . S
H395 C388 0.930 . S
C396 C397 1.351 . S
C396 N399 1.368 . S
C396 H401 0.931 . S
C397 C396 1.351 . S
C397 N398 1.373 . S
C397 H425 0.930 . S
N398 C397 1.373 . S
N398 C400 1.340 . S
N399 C396 1.368 . S
N399 C400 1.321 . S
N399 Co402 2.135 1_556 S
C400 N398 1.340 . S
C400 N399 1.321 . S
C400 H424 0.930 . S
H401 C396 0.931 . S
Co402 N399 2.135 1_554 S
Co402 N405 2.121 . S
Co402 O410 2.055 . S
Co402 O413 2.039 . S
Co402 N416 2.140 . S
C403 O404 1.227 . S
C403 O413 1.265 1_556 S
O404 C403 1.227 . S
N405 Co402 2.121 . S
N405 C407 1.375 . S
N405 C408 1.313 . S
C406 C407 1.338 . S
C406 N409 1.377 . S
C406 H426 0.930 . S
C407 N405 1.375 . S
C407 C406 1.338 . S
C407 H411 0.931 . S
C408 N405 1.313 . S
C408 N409 1.344 . S
C408 H412 0.930 . S
N409 C406 1.377 . S
N409 C408 1.344 . S
O410 Co402 2.055 . S
O410 C414 1.253 . S
H411 C407 0.931 . S
H412 C408 0.930 . S
O413 Co402 2.039 . S
O413 C403 1.265 1_554 S
C414 O410 1.253 . S
C414 O415 1.227 . S
O415 C414 1.227 . S
N416 Co402 2.140 . S
N416 C419 1.346 1_554 S
N416 C420 1.345 . S
C417 C418 1.387 1_554 S
C417 C421 1.391 . S
C418 C417 1.387 1_556 S
C418 C419 1.369 . S
C418 H427 0.929 . S
C419 N416 1.346 1_556 S
C419 C418 1.369 . S
C419 H422 0.928 . S
C420 N416 1.345 . S
C420 C421 1.371 . S
C420 H423 0.931 . S
C421 C417 1.391 . S
C421 C420 1.371 . S
C421 H428 0.930 . S
H422 C419 0.928 . S
H423 C420 0.931 . S
H424 C400 0.930 . S
H425 C397 0.930 . S
H426 C406 0.930 . S
H427 C418 0.929 . S
H428 C421 0.930 . S
C429 C430 1.351 . S
C429 N432 1.368 . S
C429 H434 0.931 . S
C430 C429 1.351 . S
C430 N431 1.373 . S
C430 H458 0.930 . S
N431 C430 1.373 . S
N431 C433 1.340 . S
N432 C429 1.368 . S
N432 C433 1.321 . S
N432 Co435 2.135 . S
C433 N431 1.340 . S
C433 N432 1.321 . S
C433 H457 0.930 . S
H434 C429 0.931 . S
Co435 N432 2.135 . S
Co435 N438 2.121 1_556 S
Co435 O443 2.055 . S
Co435 O446 2.039 . S
Co435 N449 2.140 . S
C436 O437 1.227 . S
C436 O446 1.265 . S
O437 C436 1.227 . S
N438 Co435 2.121 1_554 S
N438 C440 1.375 . S
N438 C441 1.313 . S
C439 C440 1.338 . S
C439 N442 1.377 . S
C439 H459 0.930 . S
C440 N438 1.375 . S
C440 C439 1.338 . S
C440 H444 0.931 . S
C441 N438 1.313 . S
C441 N442 1.344 . S
C441 H445 0.930 . S
N442 C439 1.377 . S
N442 C441 1.344 . S
O443 Co435 2.055 . S
O443 C447 1.253 . S
H444 C440 0.931 . S
H445 C441 0.930 . S
O446 Co435 2.039 . S
O446 C436 1.265 . S
C447 O443 1.253 . S
C447 O448 1.227 . S
O448 C447 1.227 . S
N449 Co435 2.140 . S
N449 C452 1.346 . S
N449 C453 1.345 . S
C450 C451 1.387 . S
C450 C454 1.391 . S
C451 C450 1.387 . S
C451 C452 1.369 . S
C451 H460 0.929 . S
C452 N449 1.346 . S
C452 C451 1.369 . S
C452 H455 0.928 . S
C453 N449 1.345 . S
C453 C454 1.371 . S
C453 H456 0.931 . S
C454 C450 1.391 . S
C454 C453 1.371 . S
C454 H461 0.930 . S
H455 C452 0.928 . S
H456 C453 0.931 . S
H457 C433 0.930 . S
H458 C430 0.930 . S
H459 C439 0.930 . S
H460 C451 0.929 . S
H461 C454 0.930 . S
C462 C463 1.351 . S
C462 N465 1.368 . S
C462 H467 0.931 . S
C463 C462 1.351 . S
C463 N464 1.373 . S
C463 H491 0.930 . S
N464 C463 1.373 . S
N464 C466 1.340 . S
N465 C462 1.368 . S
N465 C466 1.321 . S
N465 Co468 2.135 . S
C466 N464 1.340 . S
C466 N465 1.321 . S
C466 H490 0.930 . S
H467 C462 0.931 . S
Co468 N465 2.135 . S
Co468 N471 2.121 . S
Co468 O476 2.055 . S
Co468 O479 2.039 . S
Co468 N482 2.140 . S
C469 O470 1.227 . S
C469 O479 1.265 . S
O470 C469 1.227 . S
N471 Co468 2.121 . S
N471 C473 1.375 . S
N471 C474 1.313 . S
C472 C473 1.338 . S
C472 N475 1.377 . S
C472 H492 0.930 1_556 S
C473 N471 1.375 . S
C473 C472 1.338 . S
C473 H477 0.931 . S
C474 N471 1.313 . S
C474 N475 1.344 . S
C474 H478 0.930 . S
N475 C472 1.377 . S
N475 C474 1.344 . S
O476 Co468 2.055 . S
O476 C480 1.253 . S
H477 C473 0.931 . S
H478 C474 0.930 . S
O479 Co468 2.039 . S
O479 C469 1.265 . S
C480 O476 1.253 . S
C480 O481 1.227 . S
O481 C480 1.227 . S
N482 Co468 2.140 . S
N482 C485 1.346 . S
N482 C486 1.345 . S
C483 C484 1.387 . S
C483 C487 1.391 . S
C484 C483 1.387 . S
C484 C485 1.369 . S
C484 H493 0.929 . S
C485 N482 1.346 . S
C485 C484 1.369 . S
C485 H488 0.928 . S
C486 N482 1.345 . S
C486 C487 1.371 . S
C486 H489 0.931 . S
C487 C483 1.391 . S
C487 C486 1.371 . S
C487 H494 0.930 . S
H488 C485 0.928 . S
H489 C486 0.931 . S
H490 C466 0.930 . S
H491 C463 0.930 . S
H492 C472 0.930 1_554 S
H493 C484 0.929 . S
H494 C487 0.930 . S
C495 C496 1.351 1_554 S
C495 N498 1.368 . S
C495 H500 0.931 . S
C496 C495 1.351 1_556 S
C496 N497 1.373 . S
C496 H524 0.930 . S
N497 C496 1.373 . S
N497 C499 1.340 . S
N498 C495 1.368 . S
N498 C499 1.321 1_554 S
N498 Co501 2.135 . S
C499 N497 1.340 . S
C499 N498 1.321 1_556 S
C499 H523 0.930 . S
H500 C495 0.931 . S
Co501 N498 2.135 . S
Co501 N504 2.121 . S
Co501 O509 2.055 . S
Co501 O512 2.039 . S
Co501 N515 2.140 . S
C502 O503 1.227 . S
C502 O512 1.265 . S
O503 C502 1.227 . S
N504 Co501 2.121 . S
N504 C506 1.375 . S
N504 C507 1.313 . S
C505 C506 1.338 . S
C505 N508 1.377 . S
C505 H525 0.930 . S
C506 N504 1.375 . S
C506 C505 1.338 . S
C506 H510 0.931 . S
C507 N504 1.313 . S
C507 N508 1.344 . S
C507 H511 0.930 . S
N508 C505 1.377 . S
N508 C507 1.344 . S
O509 Co501 2.055 . S
O509 C513 1.253 . S
H510 C506 0.931 . S
H511 C507 0.930 . S
O512 Co501 2.039 . S
O512 C502 1.265 . S
C513 O509 1.253 . S
C513 O514 1.227 . S
O514 C513 1.227 . S
N515 Co501 2.140 . S
N515 C518 1.346 . S
N515 C519 1.345 . S
C516 C517 1.387 . S
C516 C520 1.391 . S
C517 C516 1.387 . S
C517 C518 1.369 . S
C517 H526 0.929 . S
C518 N515 1.346 . S
C518 C517 1.369 . S
C518 H521 0.928 . S
C519 N515 1.345 . S
C519 C520 1.371 . S
C519 H522 0.931 . S
C520 C516 1.391 . S
C520 C519 1.371 . S
C520 H527 0.930 . S
H521 C518 0.928 . S
H522 C519 0.931 . S
H523 C499 0.930 . S
H524 C496 0.930 . S
H525 C505 0.930 . S
H526 C517 0.929 . S
H527 C520 0.930 . S
C528 C529 1.351 . S
C528 N531 1.368 . S
C528 H533 0.931 . S
C529 C528 1.351 . S
C529 N530 1.373 . S
C529 H557 0.930 . S
N530 C529 1.373 . S
N530 C532 1.340 . S
N531 C528 1.368 . S
N531 C532 1.321 . S
N531 Co534 2.135 . S
C532 N530 1.340 . S
C532 N531 1.321 . S
C532 H556 0.930 . S
H533 C528 0.931 . S
Co534 N531 2.135 . S
Co534 N537 2.121 . S
Co534 O542 2.055 . S
Co534 O545 2.039 . S
Co534 N548 2.140 . S
C535 O536 1.227 . S
C535 O545 1.265 . S
O536 C535 1.227 . S
N537 Co534 2.121 . S
N537 C539 1.375 . S
N537 C540 1.313 . S
C538 C539 1.338 . S
C538 N541 1.377 . S
C538 H558 0.930 1_556 S
C539 N537 1.375 . S
C539 C538 1.338 . S
C539 H543 0.931 . S
C540 N537 1.313 . S
C540 N541 1.344 . S
C540 H544 0.930 . S
N541 C538 1.377 . S
N541 C540 1.344 . S
O542 Co534 2.055 . S
O542 C546 1.253 . S
H543 C539 0.931 . S
H544 C540 0.930 . S
O545 Co534 2.039 . S
O545 C535 1.265 . S
C546 O542 1.253 . S
C546 O547 1.227 . S
O547 C546 1.227 . S
N548 Co534 2.140 . S
N548 C551 1.346 . S
N548 C552 1.345 . S
C549 C550 1.387 . S
C549 C553 1.391 . S
C550 C549 1.387 . S
C550 C551 1.369 . S
C550 H559 0.929 . S
C551 N548 1.346 . S
C551 C550 1.369 . S
C551 H554 0.928 . S
C552 N548 1.345 . S
C552 C553 1.371 . S
C552 H555 0.931 . S
C553 C549 1.391 . S
C553 C552 1.371 . S
C553 H560 0.930 . S
H554 C551 0.928 . S
H555 C552 0.931 . S
H556 C532 0.930 . S
H557 C529 0.930 . S
H558 C538 0.930 1_554 S
H559 C550 0.929 . S
H560 C553 0.930 . S
C561 C562 1.351 . S
C561 N564 1.368 . S
C561 H566 0.931 . S
C562 C561 1.351 . S
C562 N563 1.373 . S
C562 H590 0.930 . S
N563 C562 1.373 . S
N563 C565 1.340 . S
N564 C561 1.368 . S
N564 C565 1.321 . S
N564 Co567 2.135 . S
C565 N563 1.340 . S
C565 N564 1.321 . S
C565 H589 0.930 . S
H566 C561 0.931 . S
Co567 N564 2.135 . S
Co567 N570 2.121 1_556 S
Co567 O575 2.055 . S
Co567 O578 2.039 . S
Co567 N581 2.140 . S
C568 O569 1.227 . S
C568 O578 1.265 . S
O569 C568 1.227 . S
N570 Co567 2.121 1_554 S
N570 C572 1.375 . S
N570 C573 1.313 . S
C571 C572 1.338 . S
C571 N574 1.377 . S
C571 H591 0.930 . S
C572 N570 1.375 . S
C572 C571 1.338 . S
C572 H576 0.931 . S
C573 N570 1.313 . S
C573 N574 1.344 . S
C573 H577 0.930 . S
N574 C571 1.377 . S
N574 C573 1.344 . S
O575 Co567 2.055 . S
O575 C579 1.253 . S
H576 C572 0.931 . S
H577 C573 0.930 . S
O578 Co567 2.039 . S
O578 C568 1.265 . S
C579 O575 1.253 . S
C579 O580 1.227 . S
O580 C579 1.227 . S
N581 Co567 2.140 . S
N581 C584 1.346 . S
N581 C585 1.345 . S
C582 C583 1.387 . S
C582 C586 1.391 . S
C583 C582 1.387 . S
C583 C584 1.369 . S
C583 H592 0.929 . S
C584 N581 1.346 . S
C584 C583 1.369 . S
C584 H587 0.928 . S
C585 N581 1.345 . S
C585 C586 1.371 . S
C585 H588 0.931 . S
C586 C582 1.391 . S
C586 C585 1.371 . S
C586 H593 0.930 . S
H587 C584 0.928 . S
H588 C585 0.931 . S
H589 C565 0.930 . S
H590 C562 0.930 . S
H591 C571 0.930 . S
H592 C583 0.929 . S
H593 C586 0.930 . S
C594 C595 1.351 . S
C594 N597 1.368 . S
C594 H599 0.931 . S
C595 C594 1.351 . S
C595 N596 1.373 . S
C595 H623 0.930 . S
N596 C595 1.373 . S
N596 C598 1.340 . S
N597 C594 1.368 . S
N597 C598 1.321 . S
N597 Co600 2.135 1_556 S
C598 N596 1.340 . S
C598 N597 1.321 . S
C598 H622 0.930 . S
H599 C594 0.931 . S
Co600 N597 2.135 1_554 S
Co600 N603 2.121 . S
Co600 O608 2.055 . S
Co600 O611 2.039 . S
Co600 N614 2.140 . S
C601 O602 1.227 . S
C601 O611 1.265 1_556 S
O602 C601 1.227 . S
N603 Co600 2.121 . S
N603 C605 1.375 . S
N603 C606 1.313 . S
C604 C605 1.338 . S
C604 N607 1.377 . S
C604 H624 0.930 . S
C605 N603 1.375 . S
C605 C604 1.338 . S
C605 H609 0.931 . S
C606 N603 1.313 . S
C606 N607 1.344 . S
C606 H610 0.930 . S
N607 C604 1.377 . S
N607 C606 1.344 . S
O608 Co600 2.055 . S
O608 C612 1.253 . S
H609 C605 0.931 . S
H610 C606 0.930 . S
O611 Co600 2.039 . S
O611 C601 1.265 1_554 S
C612 O608 1.253 . S
C612 O613 1.227 . S
O613 C612 1.227 . S
N614 Co600 2.140 . S
N614 C617 1.346 1_554 S
N614 C618 1.345 . S
C615 C616 1.387 1_554 S
C615 C619 1.391 . S
C616 C615 1.387 1_556 S
C616 C617 1.369 . S
C616 H625 0.929 . S
C617 N614 1.346 1_556 S
C617 C616 1.369 . S
C617 H620 0.928 . S
C618 N614 1.345 . S
C618 C619 1.371 . S
C618 H621 0.931 . S
C619 C615 1.391 . S
C619 C618 1.371 . S
C619 H626 0.930 . S
H620 C617 0.928 . S
H621 C618 0.931 . S
H622 C598 0.930 . S
H623 C595 0.930 . S
H624 C604 0.930 . S
H625 C616 0.929 . S
H626 C619 0.930 . S
C627 C628 1.351 1_554 S
C627 N630 1.368 . S
C627 H632 0.931 . S
C628 C627 1.351 1_556 S
C628 N629 1.373 . S
C628 H656 0.930 . S
N629 C628 1.373 . S
N629 C631 1.340 . S
N630 C627 1.368 . S
N630 C631 1.321 1_554 S
N630 Co633 2.135 . S
C631 N629 1.340 . S
C631 N630 1.321 1_556 S
C631 H655 0.930 . S
H632 C627 0.931 . S
Co633 N630 2.135 . S
Co633 N636 2.121 . S
Co633 O641 2.055 . S
Co633 O644 2.039 . S
Co633 N647 2.140 . S
C634 O635 1.227 . S
C634 O644 1.265 . S
O635 C634 1.227 . S
N636 Co633 2.121 . S
N636 C638 1.375 . S
N636 C639 1.313 . S
C637 C638 1.338 . S
C637 N640 1.377 . S
C637 H657 0.930 . S
C638 N636 1.375 . S
C638 C637 1.338 . S
C638 H642 0.931 . S
C639 N636 1.313 . S
C639 N640 1.344 . S
C639 H643 0.930 . S
N640 C637 1.377 . S
N640 C639 1.344 . S
O641 Co633 2.055 . S
O641 C645 1.253 . S
H642 C638 0.931 . S
H643 C639 0.930 . S
O644 Co633 2.039 . S
O644 C634 1.265 . S
C645 O641 1.253 . S
C645 O646 1.227 . S
O646 C645 1.227 . S
N647 Co633 2.140 . S
N647 C650 1.346 . S
N647 C651 1.345 . S
C648 C649 1.387 . S
C648 C652 1.391 . S
C649 C648 1.387 . S
C649 C650 1.369 . S
C649 H658 0.929 . S
C650 N647 1.346 . S
C650 C649 1.369 . S
C650 H653 0.928 . S
C651 N647 1.345 . S
C651 C652 1.371 . S
C651 H654 0.931 . S
C652 C648 1.391 . S
C652 C651 1.371 . S
C652 H659 0.930 . S
H653 C650 0.928 . S
H654 C651 0.931 . S
H655 C631 0.930 . S
H656 C628 0.930 . S
H657 C637 0.930 . S
H658 C649 0.929 . S
H659 C652 0.930 . S
C660 C661 1.351 . S
C660 N663 1.368 . S
C660 H665 0.931 . S
C661 C660 1.351 . S
C661 N662 1.373 . S
C661 H689 0.930 . S
N662 C661 1.373 . S
N662 C664 1.340 . S
N663 C660 1.368 . S
N663 C664 1.321 . S
N663 Co666 2.135 . S
C664 N662 1.340 . S
C664 N663 1.321 . S
C664 H688 0.930 . S
H665 C660 0.931 . S
Co666 N663 2.135 . S
Co666 N669 2.121 . S
Co666 O674 2.055 . S
Co666 O677 2.039 . S
Co666 N680 2.140 . S
C667 O668 1.227 . S
C667 O677 1.265 . S
O668 C667 1.227 . S
N669 Co666 2.121 . S
N669 C671 1.375 . S
N669 C672 1.313 . S
C670 C671 1.338 . S
C670 N673 1.377 . S
C670 H690 0.930 1_554 S
C671 N669 1.375 . S
C671 C670 1.338 . S
C671 H675 0.931 . S
C672 N669 1.313 . S
C672 N673 1.344 . S
C672 H676 0.930 . S
N673 C670 1.377 . S
N673 C672 1.344 . S
O674 Co666 2.055 . S
O674 C678 1.253 . S
H675 C671 0.931 . S
H676 C672 0.930 . S
O677 Co666 2.039 . S
O677 C667 1.265 . S
C678 O674 1.253 . S
C678 O679 1.227 . S
O679 C678 1.227 . S
N680 Co666 2.140 . S
N680 C683 1.346 . S
N680 C684 1.345 . S
C681 C682 1.387 . S
C681 C685 1.391 . S
C682 C681 1.387 . S
C682 C683 1.369 . S
C682 H691 0.929 . S
C683 N680 1.346 . S
C683 C682 1.369 . S
C683 H686 0.928 . S
C684 N680 1.345 . S
C684 C685 1.371 . S
C684 H687 0.931 . S
C685 C681 1.391 . S
C685 C684 1.371 . S
C685 H692 0.930 . S
H686 C683 0.928 . S
H687 C684 0.931 . S
H688 C664 0.930 . S
H689 C661 0.930 . S
H690 C670 0.930 1_556 S
H691 C682 0.929 . S
H692 C685 0.930 . S
C693 C694 1.351 1_556 S
C693 N696 1.368 . S
C693 H698 0.931 . S
C694 C693 1.351 1_554 S
C694 N695 1.373 . S
C694 H722 0.930 . S
N695 C694 1.373 . S
N695 C697 1.340 . S
N696 C693 1.368 . S
N696 C697 1.321 1_556 S
N696 Co699 2.135 . S
C697 N695 1.340 . S
C697 N696 1.321 1_554 S
C697 H721 0.930 . S
H698 C693 0.931 . S
Co699 N696 2.135 . S
Co699 N702 2.121 . S
Co699 O707 2.055 . S
Co699 O710 2.039 . S
Co699 N713 2.140 . S
C700 O701 1.227 . S
C700 O710 1.265 . S
O701 C700 1.227 . S
N702 Co699 2.121 . S
N702 C704 1.375 . S
N702 C705 1.313 . S
C703 C704 1.338 . S
C703 N706 1.377 . S
C703 H723 0.930 . S
C704 N702 1.375 . S
C704 C703 1.338 . S
C704 H708 0.931 . S
C705 N702 1.313 . S
C705 N706 1.344 . S
C705 H709 0.930 . S
N706 C703 1.377 . S
N706 C705 1.344 . S
O707 Co699 2.055 . S
O707 C711 1.253 . S
H708 C704 0.931 . S
H709 C705 0.930 . S
O710 Co699 2.039 . S
O710 C700 1.265 . S
C711 O707 1.253 . S
C711 O712 1.227 . S
O712 C711 1.227 . S
N713 Co699 2.140 . S
N713 C716 1.346 . S
N713 C717 1.345 . S
C714 C715 1.387 . S
C714 C718 1.391 . S
C715 C714 1.387 . S
C715 C716 1.369 . S
C715 H724 0.929 . S
C716 N713 1.346 . S
C716 C715 1.369 . S
C716 H719 0.928 . S
C717 N713 1.345 . S
C717 C718 1.371 . S
C717 H720 0.931 . S
C718 C714 1.391 . S
C718 C717 1.371 . S
C718 H725 0.930 . S
H719 C716 0.928 . S
H720 C717 0.931 . S
H721 C697 0.930 . S
H722 C694 0.930 . S
H723 C703 0.930 . S
H724 C715 0.929 . S
H725 C718 0.930 . S
C726 C727 1.351 . S
C726 N729 1.368 . S
C726 H731 0.931 . S
C727 C726 1.351 . S
C727 N728 1.373 . S
C727 H755 0.930 . S
N728 C727 1.373 . S
N728 C730 1.340 . S
N729 C726 1.368 . S
N729 C730 1.321 . S
N729 Co732 2.135 1_554 S
C730 N728 1.340 . S
C730 N729 1.321 . S
C730 H754 0.930 . S
H731 C726 0.931 . S
Co732 N729 2.135 1_556 S
Co732 N735 2.121 . S
Co732 O740 2.055 . S
Co732 O743 2.039 . S
Co732 N746 2.140 . S
C733 O734 1.227 . S
C733 O743 1.265 1_554 S
O734 C733 1.227 . S
N735 Co732 2.121 . S
N735 C737 1.375 . S
N735 C738 1.313 . S
C736 C737 1.338 . S
C736 N739 1.377 . S
C736 H756 0.930 . S
C737 N735 1.375 . S
C737 C736 1.338 . S
C737 H741 0.931 . S
C738 N735 1.313 . S
C738 N739 1.344 . S
C738 H742 0.930 . S
N739 C736 1.377 . S
N739 C738 1.344 . S
O740 Co732 2.055 . S
O740 C744 1.253 . S
H741 C737 0.931 . S
H742 C738 0.930 . S
O743 Co732 2.039 . S
O743 C733 1.265 1_556 S
C744 O740 1.253 . S
C744 O745 1.227 . S
O745 C744 1.227 . S
N746 Co732 2.140 . S
N746 C749 1.346 1_556 S
N746 C750 1.345 . S
C747 C748 1.387 1_556 S
C747 C751 1.391 . S
C748 C747 1.387 1_554 S
C748 C749 1.369 . S
C748 H757 0.929 . S
C749 N746 1.346 1_554 S
C749 C748 1.369 . S
C749 H752 0.928 . S
C750 N746 1.345 . S
C750 C751 1.371 . S
C750 H753 0.931 . S
C751 C747 1.391 . S
C751 C750 1.371 . S
C751 H758 0.930 . S
H752 C749 0.928 . S
H753 C750 0.931 . S
H754 C730 0.930 . S
H755 C727 0.930 . S
H756 C736 0.930 . S
H757 C748 0.929 . S
H758 C751 0.930 . S
C759 C760 1.351 . S
C759 N762 1.368 . S
C759 H764 0.931 . S
C760 C759 1.351 . S
C760 N761 1.373 . S
C760 H788 0.930 . S
N761 C760 1.373 . S
N761 C763 1.340 . S
N762 C759 1.368 . S
N762 C763 1.321 . S
N762 Co765 2.135 . S
C763 N761 1.340 . S
C763 N762 1.321 . S
C763 H787 0.930 . S
H764 C759 0.931 . S
Co765 N762 2.135 . S
Co765 N768 2.121 1_554 S
Co765 O773 2.055 . S
Co765 O776 2.039 . S
Co765 N779 2.140 . S
C766 O767 1.227 . S
C766 O776 1.265 . S
O767 C766 1.227 . S
N768 Co765 2.121 1_556 S
N768 C770 1.375 . S
N768 C771 1.313 . S
C769 C770 1.338 . S
C769 N772 1.377 . S
C769 H789 0.930 . S
C770 N768 1.375 . S
C770 C769 1.338 . S
C770 H774 0.931 . S
C771 N768 1.313 . S
C771 N772 1.344 . S
C771 H775 0.930 . S
N772 C769 1.377 . S
N772 C771 1.344 . S
O773 Co765 2.055 . S
O773 C777 1.253 . S
H774 C770 0.931 . S
H775 C771 0.930 . S
O776 Co765 2.039 . S
O776 C766 1.265 . S
C777 O773 1.253 . S
C777 O778 1.227 . S
O778 C777 1.227 . S
N779 Co765 2.140 . S
N779 C782 1.346 . S
N779 C783 1.345 . S
C780 C781 1.387 . S
C780 C784 1.391 . S
C781 C780 1.387 . S
C781 C782 1.369 . S
C781 H790 0.929 . S
C782 N779 1.346 . S
C782 C781 1.369 . S
C782 H785 0.928 . S
C783 N779 1.345 . S
C783 C784 1.371 . S
C783 H786 0.931 . S
C784 C780 1.391 . S
C784 C783 1.371 . S
C784 H791 0.930 . S
H785 C782 0.928 . S
H786 C783 0.931 . S
H787 C763 0.930 . S
H788 C760 0.930 . S
H789 C769 0.930 . S
H790 C781 0.929 . S
H791 C784 0.930 . S
C792 C793 1.351 . S
C792 N795 1.368 . S
C792 H797 0.931 . S
C793 C792 1.351 . S
C793 N794 1.373 . S
C793 H821 0.930 . S
N794 C793 1.373 . S
N794 C796 1.340 . S
N795 C792 1.368 . S
N795 C796 1.321 . S
N795 Co798 2.135 . S
C796 N794 1.340 . S
C796 N795 1.321 . S
C796 H820 0.930 . S
H797 C792 0.931 . S
Co798 N795 2.135 . S
Co798 N801 2.121 . S
Co798 O806 2.055 . S
Co798 O809 2.039 . S
Co798 N812 2.140 . S
C799 O800 1.227 . S
C799 O809 1.265 . S
O800 C799 1.227 . S
N801 Co798 2.121 . S
N801 C803 1.375 . S
N801 C804 1.313 . S
C802 C803 1.338 . S
C802 N805 1.377 . S
C802 H822 0.930 1_554 S
C803 N801 1.375 . S
C803 C802 1.338 . S
C803 H807 0.931 . S
C804 N801 1.313 . S
C804 N805 1.344 . S
C804 H808 0.930 . S
N805 C802 1.377 . S
N805 C804 1.344 . S
O806 Co798 2.055 . S
O806 C810 1.253 . S
H807 C803 0.931 . S
H808 C804 0.930 . S
O809 Co798 2.039 . S
O809 C799 1.265 . S
C810 O806 1.253 . S
C810 O811 1.227 . S
O811 C810 1.227 . S
N812 Co798 2.140 . S
N812 C815 1.346 . S
N812 C816 1.345 . S
C813 C814 1.387 . S
C813 C817 1.391 . S
C814 C813 1.387 . S
C814 C815 1.369 . S
C814 H823 0.929 . S
C815 N812 1.346 . S
C815 C814 1.369 . S
C815 H818 0.928 . S
C816 N812 1.345 . S
C816 C817 1.371 . S
C816 H819 0.931 . S
C817 C813 1.391 . S
C817 C816 1.371 . S
C817 H824 0.930 . S
H818 C815 0.928 . S
H819 C816 0.931 . S
H820 C796 0.930 . S
H821 C793 0.930 . S
H822 C802 0.930 1_556 S
H823 C814 0.929 . S
H824 C817 0.930 . S
C825 C826 1.351 . S
C825 N828 1.368 . S
C825 H830 0.931 . S
C826 C825 1.351 . S
C826 N827 1.373 . S
C826 H854 0.930 . S
N827 C826 1.373 . S
N827 C829 1.340 . S
N828 C825 1.368 . S
N828 C829 1.321 . S
N828 Co831 2.135 . S
C829 N827 1.340 . S
C829 N828 1.321 . S
C829 H853 0.930 . S
H830 C825 0.931 . S
Co831 N828 2.135 . S
Co831 N834 2.121 1_554 S
Co831 O839 2.055 . S
Co831 O842 2.039 . S
Co831 N845 2.140 . S
C832 O833 1.227 . S
C832 O842 1.265 . S
O833 C832 1.227 . S
N834 Co831 2.121 1_556 S
N834 C836 1.375 . S
N834 C837 1.313 . S
C835 C836 1.338 . S
C835 N838 1.377 . S
C835 H855 0.930 . S
C836 N834 1.375 . S
C836 C835 1.338 . S
C836 H840 0.931 . S
C837 N834 1.313 . S
C837 N838 1.344 . S
C837 H841 0.930 . S
N838 C835 1.377 . S
N838 C837 1.344 . S
O839 Co831 2.055 . S
O839 C843 1.253 . S
H840 C836 0.931 . S
H841 C837 0.930 . S
O842 Co831 2.039 . S
O842 C832 1.265 . S
C843 O839 1.253 . S
C843 O844 1.227 . S
O844 C843 1.227 . S
N845 Co831 2.140 . S
N845 C848 1.346 . S
N845 C849 1.345 . S
C846 C847 1.387 . S
C846 C850 1.391 . S
C847 C846 1.387 . S
C847 C848 1.369 . S
C847 H856 0.929 . S
C848 N845 1.346 . S
C848 C847 1.369 . S
C848 H851 0.928 . S
C849 N845 1.345 . S
C849 C850 1.371 . S
C849 H852 0.931 . S
C850 C846 1.391 . S
C850 C849 1.371 . S
C850 H857 0.930 . S
H851 C848 0.928 . S
H852 C849 0.931 . S
H853 C829 0.930 . S
H854 C826 0.930 . S
H855 C835 0.930 . S
H856 C847 0.929 . S
H857 C850 0.930 . S
C858 C859 1.351 . S
C858 N861 1.368 . S
C858 H863 0.931 . S
C859 C858 1.351 . S
C859 N860 1.373 . S
C859 H887 0.930 . S
N860 C859 1.373 . S
N860 C862 1.340 . S
N861 C858 1.368 . S
N861 C862 1.321 . S
N861 Co864 2.135 1_554 S
C862 N860 1.340 . S
C862 N861 1.321 . S
C862 H886 0.930 . S
H863 C858 0.931 . S
Co864 N861 2.135 1_556 S
Co864 N867 2.121 . S
Co864 O872 2.055 . S
Co864 O875 2.039 . S
Co864 N878 2.140 . S
C865 O866 1.227 . S
C865 O875 1.265 1_554 S
O866 C865 1.227 . S
N867 Co864 2.121 . S
N867 C869 1.375 . S
N867 C870 1.313 . S
C868 C869 1.338 . S
C868 N871 1.377 . S
C868 H888 0.930 . S
C869 N867 1.375 . S
C869 C868 1.338 . S
C869 H873 0.931 . S
C870 N867 1.313 . S
C870 N871 1.344 . S
C870 H874 0.930 . S
N871 C868 1.377 . S
N871 C870 1.344 . S
O872 Co864 2.055 . S
O872 C876 1.253 . S
H873 C869 0.931 . S
H874 C870 0.930 . S
O875 Co864 2.039 . S
O875 C865 1.265 1_556 S
C876 O872 1.253 . S
C876 O877 1.227 . S
O877 C876 1.227 . S
N878 Co864 2.140 . S
N878 C881 1.346 1_556 S
N878 C882 1.345 . S
C879 C880 1.387 1_556 S
C879 C883 1.391 . S
C880 C879 1.387 1_554 S
C880 C881 1.369 . S
C880 H889 0.929 . S
C881 N878 1.346 1_554 S
C881 C880 1.369 . S
C881 H884 0.928 . S
C882 N878 1.345 . S
C882 C883 1.371 . S
C882 H885 0.931 . S
C883 C879 1.391 . S
C883 C882 1.371 . S
C883 H890 0.930 . S
H884 C881 0.928 . S
H885 C882 0.931 . S
H886 C862 0.930 . S
H887 C859 0.930 . S
H888 C868 0.930 . S
H889 C880 0.929 . S
H890 C883 0.930 . S
C891 C892 1.351 1_556 S
C891 N894 1.368 . S
C891 H896 0.931 . S
C892 C891 1.351 1_554 S
C892 N893 1.373 . S
C892 H920 0.930 . S
N893 C892 1.373 . S
N893 C895 1.340 . S
N894 C891 1.368 . S
N894 C895 1.321 1_556 S
N894 Co897 2.135 . S
C895 N893 1.340 . S
C895 N894 1.321 1_554 S
C895 H919 0.930 . S
H896 C891 0.931 . S
Co897 N894 2.135 . S
Co897 N900 2.121 . S
Co897 O905 2.055 . S
Co897 O908 2.039 . S
Co897 N911 2.140 . S
C898 O899 1.227 . S
C898 O908 1.265 . S
O899 C898 1.227 . S
N900 Co897 2.121 . S
N900 C902 1.375 . S
N900 C903 1.313 . S
C901 C902 1.338 . S
C901 N904 1.377 . S
C901 H921 0.930 . S
C902 N900 1.375 . S
C902 C901 1.338 . S
C902 H906 0.931 . S
C903 N900 1.313 . S
C903 N904 1.344 . S
C903 H907 0.930 . S
N904 C901 1.377 . S
N904 C903 1.344 . S
O905 Co897 2.055 . S
O905 C909 1.253 . S
H906 C902 0.931 . S
H907 C903 0.930 . S
O908 Co897 2.039 . S
O908 C898 1.265 . S
C909 O905 1.253 . S
C909 O910 1.227 . S
O910 C909 1.227 . S
N911 Co897 2.140 . S
N911 C914 1.346 . S
N911 C915 1.345 . S
C912 C913 1.387 . S
C912 C916 1.391 . S
C913 C912 1.387 . S
C913 C914 1.369 . S
C913 H922 0.929 . S
C914 N911 1.346 . S
C914 C913 1.369 . S
C914 H917 0.928 . S
C915 N911 1.345 . S
C915 C916 1.371 . S
C915 H918 0.931 . S
C916 C912 1.391 . S
C916 C915 1.371 . S
C916 H923 0.930 . S
H917 C914 0.928 . S
H918 C915 0.931 . S
H919 C895 0.930 . S
H920 C892 0.930 . S
H921 C901 0.930 . S
H922 C913 0.929 . S
H923 C916 0.930 . S
C924 C925 1.351 . S
C924 N927 1.368 . S
C924 H929 0.931 . S
C925 C924 1.351 . S
C925 N926 1.373 . S
C925 H953 0.930 . S
N926 C925 1.373 . S
N926 C928 1.340 . S
N927 C924 1.368 . S
N927 C928 1.321 . S
N927 Co930 2.135 . S
C928 N926 1.340 . S
C928 N927 1.321 . S
C928 H952 0.930 . S
H929 C924 0.931 . S
Co930 N927 2.135 . S
Co930 N933 2.121 . S
Co930 O938 2.055 . S
Co930 O941 2.039 . S
Co930 N944 2.140 . S
C931 O932 1.227 . S
C931 O941 1.265 . S
O932 C931 1.227 . S
N933 Co930 2.121 . S
N933 C935 1.375 . S
N933 C936 1.313 . S
C934 C935 1.338 . S
C934 N937 1.377 . S
C934 H954 0.930 1_556 S
C935 N933 1.375 . S
C935 C934 1.338 . S
C935 H939 0.931 . S
C936 N933 1.313 . S
C936 N937 1.344 . S
C936 H940 0.930 . S
N937 C934 1.377 . S
N937 C936 1.344 . S
O938 Co930 2.055 . S
O938 C942 1.253 . S
H939 C935 0.931 . S
H940 C936 0.930 . S
O941 Co930 2.039 . S
O941 C931 1.265 . S
C942 O938 1.253 . S
C942 O943 1.227 . S
O943 C942 1.227 . S
N944 Co930 2.140 . S
N944 C947 1.346 . S
N944 C948 1.345 . S
C945 C946 1.387 . S
C945 C949 1.391 . S
C946 C945 1.387 . S
C946 C947 1.369 . S
C946 H955 0.929 . S
C947 N944 1.346 . S
C947 C946 1.369 . S
C947 H950 0.928 . S
C948 N944 1.345 . S
C948 C949 1.371 . S
C948 H951 0.931 . S
C949 C945 1.391 . S
C949 C948 1.371 . S
C949 H956 0.930 . S
H950 C947 0.928 . S
H951 C948 0.931 . S
H952 C928 0.930 . S
H953 C925 0.930 . S
H954 C934 0.930 1_554 S
H955 C946 0.929 . S
H956 C949 0.930 . S
C957 C958 1.351 1_554 S
C957 N960 1.368 . S
C957 H962 0.931 . S
C958 C957 1.351 1_556 S
C958 N959 1.373 . S
C958 H986 0.930 . S
N959 C958 1.373 . S
N959 C961 1.340 . S
N960 C957 1.368 . S
N960 C961 1.321 1_554 S
N960 Co963 2.135 . S
C961 N959 1.340 . S
C961 N960 1.321 1_556 S
C961 H985 0.930 . S
H962 C957 0.931 . S
Co963 N960 2.135 . S
Co963 N966 2.121 . S
Co963 O971 2.055 . S
Co963 O974 2.039 . S
Co963 N977 2.140 . S
C964 O965 1.227 . S
C964 O974 1.265 . S
O965 C964 1.227 . S
N966 Co963 2.121 . S
N966 C968 1.375 . S
N966 C969 1.313 . S
C967 C968 1.338 . S
C967 N970 1.377 . S
C967 H987 0.930 . S
C968 N966 1.375 . S
C968 C967 1.338 . S
C968 H972 0.931 . S
C969 N966 1.313 . S
C969 N970 1.344 . S
C969 H973 0.930 . S
N970 C967 1.377 . S
N970 C969 1.344 . S
O971 Co963 2.055 . S
O971 C975 1.253 . S
H972 C968 0.931 . S
H973 C969 0.930 . S
O974 Co963 2.039 . S
O974 C964 1.265 . S
C975 O971 1.253 . S
C975 O976 1.227 . S
O976 C975 1.227 . S
N977 Co963 2.140 . S
N977 C980 1.346 . S
N977 C981 1.345 . S
C978 C979 1.387 . S
C978 C982 1.391 . S
C979 C978 1.387 . S
C979 C980 1.369 . S
C979 H988 0.929 . S
C980 N977 1.346 . S
C980 C979 1.369 . S
C980 H983 0.928 . S
C981 N977 1.345 . S
C981 C982 1.371 . S
C981 H984 0.931 . S
C982 C978 1.391 . S
C982 C981 1.371 . S
C982 H989 0.930 . S
H983 C980 0.928 . S
H984 C981 0.931 . S
H985 C961 0.930 . S
H986 C958 0.930 . S
H987 C967 0.930 . S
H988 C979 0.929 . S
H989 C982 0.930 . S
C990 C991 1.351 . S
C990 N993 1.368 . S
C990 H995 0.931 . S
C991 C990 1.351 . S
C991 N992 1.373 . S
C991 H1019 0.930 . S
N992 C991 1.373 . S
N992 C994 1.340 . S
N993 C990 1.368 . S
N993 C994 1.321 . S
N993 Co996 2.135 1_556 S
C994 N992 1.340 . S
C994 N993 1.321 . S
C994 H1018 0.930 . S
H995 C990 0.931 . S
Co996 N993 2.135 1_554 S
Co996 N999 2.121 . S
Co996 O1004 2.055 . S
Co996 O1007 2.039 . S
Co996 N1010 2.140 . S
C997 O998 1.227 . S
C997 O1007 1.265 1_556 S
O998 C997 1.227 . S
N999 Co996 2.121 . S
N999 C1001 1.375 . S
N999 C1002 1.313 . S
C1000 C1001 1.338 . S
C1000 N1003 1.377 . S
C1000 H1020 0.930 . S
C1001 N999 1.375 . S
C1001 C1000 1.338 . S
C1001 H1005 0.931 . S
C1002 N999 1.313 . S
C1002 N1003 1.344 . S
C1002 H1006 0.930 . S
N1003 C1000 1.377 . S
N1003 C1002 1.344 . S
O1004 Co996 2.055 . S
O1004 C1008 1.253 . S
H1005 C1001 0.931 . S
H1006 C1002 0.930 . S
O1007 Co996 2.039 . S
O1007 C997 1.265 1_554 S
C1008 O1004 1.253 . S
C1008 O1009 1.227 . S
O1009 C1008 1.227 . S
N1010 Co996 2.140 . S
N1010 C1013 1.346 1_554 S
N1010 C1014 1.345 . S
C1011 C1012 1.387 1_554 S
C1011 C1015 1.391 . S
C1012 C1011 1.387 1_556 S
C1012 C1013 1.369 . S
C1012 H1021 0.929 . S
C1013 N1010 1.346 1_556 S
C1013 C1012 1.369 . S
C1013 H1016 0.928 . S
C1014 N1010 1.345 . S
C1014 C1015 1.371 . S
C1014 H1017 0.931 . S
C1015 C1011 1.391 . S
C1015 C1014 1.371 . S
C1015 H1022 0.930 . S
H1016 C1013 0.928 . S
H1017 C1014 0.931 . S
H1018 C994 0.930 . S
H1019 C991 0.930 . S
H1020 C1000 0.930 . S
H1021 C1012 0.929 . S
H1022 C1015 0.930 . S
C1023 C1024 1.351 . S
C1023 N1026 1.368 . S
C1023 H1028 0.931 . S
C1024 C1023 1.351 . S
C1024 N1025 1.373 . S
C1024 H1052 0.930 . S
N1025 C1024 1.373 . S
N1025 C1027 1.340 . S
N1026 C1023 1.368 . S
N1026 C1027 1.321 . S
N1026 Co1029 2.135 . S
C1027 N1025 1.340 . S
C1027 N1026 1.321 . S
C1027 H1051 0.930 . S
H1028 C1023 0.931 . S
Co1029 N1026 2.135 . S
Co1029 N1032 2.121 1_556 S
Co1029 O1037 2.055 . S
Co1029 O1040 2.039 . S
Co1029 N1043 2.140 . S
C1030 O1031 1.227 . S
C1030 O1040 1.265 . S
O1031 C1030 1.227 . S
N1032 Co1029 2.121 1_554 S
N1032 C1034 1.375 . S
N1032 C1035 1.313 . S
C1033 C1034 1.338 . S
C1033 N1036 1.377 . S
C1033 H1053 0.930 . S
C1034 N1032 1.375 . S
C1034 C1033 1.338 . S
C1034 H1038 0.931 . S
C1035 N1032 1.313 . S
C1035 N1036 1.344 . S
C1035 H1039 0.930 . S
N1036 C1033 1.377 . S
N1036 C1035 1.344 . S
O1037 Co1029 2.055 . S
O1037 C1041 1.253 . S
H1038 C1034 0.931 . S
H1039 C1035 0.930 . S
O1040 Co1029 2.039 . S
O1040 C1030 1.265 . S
C1041 O1037 1.253 . S
C1041 O1042 1.227 . S
O1042 C1041 1.227 . S
N1043 Co1029 2.140 . S
N1043 C1046 1.346 . S
N1043 C1047 1.345 . S
C1044 C1045 1.387 . S
C1044 C1048 1.391 . S
C1045 C1044 1.387 . S
C1045 C1046 1.369 . S
C1045 H1054 0.929 . S
C1046 N1043 1.346 . S
C1046 C1045 1.369 . S
C1046 H1049 0.928 . S
C1047 N1043 1.345 . S
C1047 C1048 1.371 . S
C1047 H1050 0.931 . S
C1048 C1044 1.391 . S
C1048 C1047 1.371 . S
C1048 H1055 0.930 . S
H1049 C1046 0.928 . S
H1050 C1047 0.931 . S
H1051 C1027 0.930 . S
H1052 C1024 0.930 . S
H1053 C1033 0.930 . S
H1054 C1045 0.929 . S
H1055 C1048 0.930 . S
N2 N13 1.540 . S
N46 N35 1.540 . S
N79 N68 1.540 1_556 S
N112 N101 1.540 . S
N145 N134 1.540 . S
N178 N167 1.540 . S
N200 N211 1.540 1_556 S
N233 N244 1.540 . S
N266 N277 1.540 . S
N299 N310 1.540 . S
N332 N343 1.540 1_556 S
N376 N365 1.540 . S
N398 N409 1.540 . S
N431 N442 1.540 . S
N475 N464 1.540 1_556 S
N497 N508 1.540 . S
N541 N530 1.540 1_556 S
N574 N563 1.540 . S
N607 N596 1.540 . S
N640 N629 1.540 . S
N673 N662 1.540 1_554 S
N706 N695 1.540 . S
N739 N728 1.540 . S
N761 N772 1.540 . S
N805 N794 1.540 1_554 S
N838 N827 1.540 . S
N871 N860 1.540 . S
N893 N904 1.540 . S
N926 N937 1.540 1_554 S
N959 N970 1.540 . S
N1003 N992 1.540 . S
N1025 N1036 1.540 . S
C777 C18 1.053 . S
C678 C51 1.053 . S
C711 C84 1.053 . S
C744 C117 1.053 . S
C579 C150 1.053 . S
C612 C183 1.053 . S
C645 C216 1.053 . S
C546 C249 1.053 . S
C1041 C282 1.053 . S
C942 C315 1.053 . S
C348 C975 1.053 . S
C381 C1008 1.053 . S
C414 C843 1.053 . S
C447 C876 1.053 . S
C480 C909 1.053 . S
C810 C513 1.053 . S
C139 C7 1.501 1_554 S
C40 C172 1.501 . S
C205 C73 1.501 . S
C106 C238 1.501 . S
C271 C403 1.501 1_554 S
C436 C304 1.501 . S
C469 C337 1.501 . S
C502 C370 1.501 . S
C667 C535 1.501 1_565 S
C568 C700 1.501 . S
C601 C733 1.501 1_566 S
C634 C766 1.501 . S
C931 C799 1.501 1_545 S
C964 C832 1.501 . S
C997 C865 1.501 1_566 S
C898 C1030 1.501 . S
C21 C417 1.563 1_455 S
C978 C54 1.563 . S
C87 C483 1.563 . S
C1044 C120 1.563 . S
C285 C153 1.563 1_655 S
C186 C846 1.563 . S
C219 C351 1.563 . S
C252 C912 1.563 . S
C714 C318 1.563 . S
C780 C384 1.563 . S
C582 C450 1.563 . S
C648 C516 1.563 . S
C549 C945 1.563 . S
C1011 C615 1.563 1_455 S
C681 C813 1.563 . S
C879 C747 1.563 1_455 S
