# Generated by pormake.
# Topology sol, (6)-cn, num edge types: 1
# Building blocks:
#     Node 0, Type 0, BuildingBlock: IZENUY_clean_sbu_0, # of connection points: 6
#     Node 1, Type 0, BuildingBlock: IZENUY_clean_sbu_0, # of connection points: 6
#     Node 2, Type 0, BuildingBlock: IZENUY_clean_sbu_0, # of connection points: 6
#     Node 3, Type 0, BuildingBlock: IZENUY_clean_sbu_0, # of connection points: 6
#     Node 4, Type 0, BuildingBlock: IZENUY_clean_sbu_0, # of connection points: 6
#     Node 5, Type 0, BuildingBlock: IZENUY_clean_sbu_0, # of connection points: 6
#     Node 6, Type 0, BuildingBlock: IZENUY_clean_sbu_0, # of connection points: 6
#     Node 7, Type 0, BuildingBlock: IZENUY_clean_sbu_0, # of connection points: 6
#     Edge 8, Type (0, 0), BuildingBlock: ZUJKAS_clean_linker_0, # of connection points: 2
#     Edge 9, Type (0, 0), BuildingBlock: ZUJKAS_clean_linker_0, # of connection points: 2
#     Edge 10, Type (0, 0), BuildingBlock: ZUJKAS_clean_linker_0, # of connection points: 2
#     Edge 11, Type (0, 0), BuildingBlock: ZUJKAS_clean_linker_0, # of connection points: 2
#     Edge 12, Type (0, 0), BuildingBlock: ZUJKAS_clean_linker_0, # of connection points: 2
#     Edge 13, Type (0, 0), BuildingBlock: ZUJKAS_clean_linker_0, # of connection points: 2
#     Edge 14, Type (0, 0), BuildingBlock: ZUJKAS_clean_linker_0, # of connection points: 2
#     Edge 15, Type (0, 0), BuildingBlock: ZUJKAS_clean_linker_0, # of connection points: 2
#     Edge 16, Type (0, 0), BuildingBlock: ZUJKAS_clean_linker_0, # of connection points: 2
#     Edge 17, Type (0, 0), BuildingBlock: ZUJKAS_clean_linker_0, # of connection points: 2
#     Edge 18, Type (0, 0), BuildingBlock: ZUJKAS_clean_linker_0, # of connection points: 2
#     Edge 19, Type (0, 0), BuildingBlock: ZUJKAS_clean_linker_0, # of connection points: 2
#     Edge 20, Type (0, 0), BuildingBlock: ZUJKAS_clean_linker_0, # of connection points: 2
#     Edge 21, Type (0, 0), BuildingBlock: ZUJKAS_clean_linker_0, # of connection points: 2
#     Edge 22, Type (0, 0), BuildingBlock: ZUJKAS_clean_linker_0, # of connection points: 2
#     Edge 23, Type (0, 0), BuildingBlock: ZUJKAS_clean_linker_0, # of connection points: 2
#     Edge 24, Type (0, 0), BuildingBlock: ZUJKAS_clean_linker_0, # of connection points: 2
#     Edge 25, Type (0, 0), BuildingBlock: ZUJKAS_clean_linker_0, # of connection points: 2
#     Edge 26, Type (0, 0), BuildingBlock: ZUJKAS_clean_linker_0, # of connection points: 2
#     Edge 27, Type (0, 0), BuildingBlock: ZUJKAS_clean_linker_0, # of connection points: 2
#     Edge 28, Type (0, 0), BuildingBlock: ZUJKAS_clean_linker_0, # of connection points: 2
#     Edge 29, Type (0, 0), BuildingBlock: ZUJKAS_clean_linker_0, # of connection points: 2
#     Edge 30, Type (0, 0), BuildingBlock: ZUJKAS_clean_linker_0, # of connection points: 2
#     Edge 31, Type (0, 0), BuildingBlock: ZUJKAS_clean_linker_0, # of connection points: 2
# Relax obj value: 0.163
# Max RMSD: 0.160
# Mean RMSD: 0.159
data_MOF--net-sol--node1-IZENUY_clean_sbu_0--edge1-ZUJKAS_clean_linker_0
_symmetry_space_group_name_H-M    P1
_symmetry_Int_Tables_number       1
_symmetry_cell_setting            triclinic
loop_
_symmetry_equiv_pos_as_xyz
'x, y, z'
_cell_length_a     46.146513
_cell_length_b     34.486716
_cell_length_c     36.469505
_cell_angle_alpha  90.025329
_cell_angle_beta   89.964616
_cell_angle_gamma 89.889091
loop_
_atom_site_label
_atom_site_type_symbol
_atom_site_fract_x
_atom_site_fract_y
_atom_site_fract_z
_atom_type_partial_charge
Fe0 Fe 0.1703 0.1503 0.11502 0.0
Fe1 Fe 0.20918 0.20531 0.07184 0.0
O2 O 0.17435 0.18623 0.08084 0.0
Fe3 Fe 0.14371 0.20313 0.05615 0.0
O4 O 0.11847 0.19835 0.09556 0.0
O5 O 0.14685 0.18153 0.14146 0.0
O6 O 0.20043 0.16764 0.14417 0.0
C7 C 0.21201 0.2009 0.14661 0.0
C8 C 0.12906 0.1269 0.06068 0.0
O9 O 0.21302 0.22268 0.11881 0.0
C10 C 0.18888 0.2004 1.00171 0.0
O11 O 0.19382 0.11725 0.09015 0.0
O12 O 0.2284 0.16016 0.08213 0.0
O13 O 0.1351 0.15464 0.03942 0.0
O14 O 0.13899 0.12642 0.09311 0.0
C15 C 0.17268 0.27106 0.06643 0.0
O16 O 0.20781 0.18948 0.02444 0.0
O17 O 0.16402 0.21165 1.01269 0.0
C18 C 0.21968 0.12541 0.08179 0.0
O19 O 0.19624 0.25371 0.05967 0.0
O20 O 0.14955 0.25251 0.07125 0.0
C21 C 0.12353 0.19613 0.12981 0.0
Fe22 Fe 0.35787 0.3436 0.61035 0.0
Fe23 Fe 0.31473 0.28726 0.57475 0.0
O24 O 0.35048 0.30523 0.57927 0.0
Fe25 Fe 0.37891 0.28382 0.55321 0.0
O26 O 0.39778 0.26921 0.59489 0.0
O27 O 0.39365 0.32534 0.62325 0.0
O28 O 0.34342 0.31662 0.64948 0.0
C29 C 0.3186 0.30135 0.65127 0.0
C30 C 0.39484 0.36402 0.5548 0.0
O31 O 0.30384 0.29623 0.62247 0.0
C32 C 0.33587 0.28618 0.50136 0.0
O33 O 0.32314 0.36816 0.60271 0.0
O34 O 0.30127 0.33387 0.55998 0.0
O35 O 0.40049 0.32845 0.54962 0.0
O36 O 0.37338 0.37394 0.5743 0.0
C37 C 0.34514 0.21954 0.57408 0.0
O38 O 0.31856 0.27467 0.52605 0.0
O39 O 0.3614 0.29656 0.50968 0.0
C40 C 0.30397 0.3648 0.57803 0.0
O41 O 0.32591 0.23962 0.58959 0.0
O42 O 0.36304 0.23508 0.55235 0.0
C43 C 0.40455 0.29174 0.62084 0.0
Fe44 Fe 0.65759 0.33579 0.91002 0.0
Fe45 Fe 0.69949 0.28264 0.95114 0.0
O46 O 0.6638 0.30029 0.94429 0.0
Fe47 Fe 0.63439 0.2826 0.97108 0.0
O48 O 0.60803 0.28496 0.93284 0.0
O49 O 0.63419 0.30331 0.88531 0.0
O50 O 0.68711 0.31981 0.87915 0.0
C51 C 0.69987 0.28737 0.87624 0.0
C52 C 0.61787 0.35857 0.96626 0.0
O53 O 0.70244 0.26581 0.90395 0.0
C54 C 0.68132 0.28762 0.02276 0.0
O55 O 0.68091 0.36999 0.93324 0.0
O56 O 0.71696 0.32887 0.94044 0.0
O57 O 0.6248 0.33096 0.98724 0.0
O58 O 0.62655 0.35883 0.93331 0.0
C59 C 0.6649 0.21561 0.95837 0.0
O60 O 0.6995 0.29765 0.99872 0.0
O61 O 0.65607 0.27642 1.0136 0.0
C62 C 0.70711 0.36314 0.94087 0.0
O63 O 0.6884 0.23359 0.96312 0.0
O64 O 0.64097 0.23304 0.95712 0.0
C65 C 0.61207 0.28691 0.89836 0.0
Fe66 Fe 0.84955 0.15001 0.40973 0.0
Fe67 Fe 0.80945 0.2056 0.45113 0.0
O68 O 0.8445 0.18602 0.44381 0.0
Fe69 Fe 0.87438 0.20266 0.47013 0.0
O70 O 0.90092 0.19792 0.4322 0.0
O71 O 0.8744 0.18051 0.38483 0.0
O72 O 0.8209 0.16841 0.37881 0.0
C73 C 0.80915 0.20162 0.3762 0.0
C74 C 0.88864 0.12597 0.46654 0.0
O75 O 0.80712 0.22319 0.40411 0.0
C76 C 0.82754 0.19951 0.52227 0.0
O77 O 0.82464 0.11737 0.43256 0.0
O78 O 0.79026 0.16094 0.43956 0.0
O79 O 0.88247 0.15432 0.48701 0.0
O80 O 0.87955 0.12501 0.43371 0.0
C81 C 0.84586 0.27089 0.4591 0.0
O82 O 0.80922 0.18955 0.49839 0.0
O83 O 0.85278 0.21061 0.5127 0.0
C84 C 0.79858 0.126 0.43939 0.0
O85 O 0.8221 0.25371 0.46443 0.0
O86 O 0.86907 0.25222 0.45505 0.0
C87 C 0.89725 0.19505 0.39774 0.0
Fe88 Fe 0.81127 0.78992 0.95441 0.0
Fe89 Fe 0.85373 0.84657 0.91814 0.0
O90 O 0.84695 0.80776 0.94884 0.0
Fe91 Fe 0.87585 0.78561 0.97353 0.0
O92 O 0.85946 0.73716 0.97463 0.0
O93 O 0.82205 0.74266 0.93808 0.0
O94 O 0.799 0.8001 0.90745 0.0
C95 C 0.81304 0.80559 0.87817 0.0
C96 C 0.834 0.78808 0.02681 0.0
O97 O 0.83793 0.82059 0.87933 0.0
C98 C 0.89282 0.86529 0.97183 0.0
O99 O 0.79832 0.83609 0.97068 0.0
O100 O 0.81951 0.87171 0.92828 0.0
O101 O 0.8594 0.7984 0.01775 0.0
O102 O 0.81634 0.77633 1.00265 0.0
C103 C 0.89892 0.7933 0.90438 0.0
O104 O 0.87082 0.87602 0.95382 0.0
O105 O 0.89809 0.82958 0.97639 0.0
C106 C 0.80075 0.86756 0.95346 0.0
O107 O 0.88863 0.82733 0.90282 0.0
O108 O 0.89361 0.77111 0.93112 0.0
C109 C 0.84129 0.72213 0.95295 0.0
Fe110 Fe 0.70892 0.70621 0.45628 0.0
Fe111 Fe 0.66942 0.65209 0.41278 0.0
O112 O 0.67394 0.68743 0.44748 0.0
Fe113 Fe 0.64355 0.70428 0.47283 0.0
O114 O 0.6495 0.75386 0.45827 0.0
O115 O 0.69627 0.75449 0.46933 0.0
O116 O 0.71252 0.72425 0.40953 0.0
C117 C 0.71109 0.70302 0.38137 0.0
C118 C 0.68915 0.7006 0.52662 0.0
O119 O 0.69911 0.66999 0.38326 0.0
C120 C 0.62887 0.62792 0.46782 0.0
O121 O 0.72796 0.66116 0.44508 0.0
O122 O 0.69333 0.61852 0.43619 0.0
O123 O 0.6642 0.71194 0.5161 0.0
O124 O 0.70785 0.6898 0.50347 0.0
C125 C 0.62255 0.6983 0.3996 0.0
O126 O 0.63852 0.62763 0.43521 0.0
O127 O 0.63487 0.65574 0.48903 0.0
C128 C 0.71933 0.62639 0.44392 0.0
O129 O 0.64566 0.68372 0.38736 0.0
O130 O 0.61787 0.70016 0.43393 0.0
C131 C 0.67276 0.77213 0.46314 0.0
Fe132 Fe 0.34737 0.64726 0.12126 0.0
Fe133 Fe 0.37302 0.70018 0.06156 0.0
O134 O 0.34291 0.68421 0.088 0.0
Fe135 Fe 0.30823 0.70524 0.08185 0.0
O136 O 0.30667 0.72133 0.12933 0.0
O137 O 0.31881 0.66514 0.15264 0.0
O138 O 0.3726 0.67671 0.14669 0.0
C139 C 0.3956 0.69099 0.13383 0.0
C140 C 0.29618 0.62548 0.09097 0.0
O141 O 0.39944 0.69381 0.09936 0.0
C142 C 0.32571 0.70067 1.01018 0.0
O143 O 0.37704 0.62217 0.09697 0.0
O144 O 0.38003 0.65165 0.04383 0.0
O145 O 0.28833 0.66065 0.09198 0.0
O146 O 0.32211 0.61598 0.09749 0.0
C147 C 0.34595 0.76912 0.07648 0.0
O148 O 0.35138 0.70998 0.01951 0.0
O149 O 0.30728 0.69107 0.03406 0.0
C150 C 0.3858 0.6229 0.06402 0.0
O151 O 0.36902 0.7497 0.0773 0.0
O152 O 0.32175 0.75335 0.07061 0.0
C153 C 0.30802 0.69874 0.15642 0.0
Fe154 Fe 0.13767 0.78541 0.55976 0.0
Fe155 Fe 0.20193 0.78684 0.58172 0.0
O156 O 0.16623 0.80521 0.58678 0.0
Fe157 Fe 0.15913 0.84241 0.61929 0.0
O158 O 0.12349 0.82396 0.63182 0.0
O159 O 0.1181 0.76976 0.60052 0.0
O160 O 0.15314 0.73647 0.5575 0.0
C161 C 0.17107 0.71969 0.57837 0.0
C162 C 0.12258 0.86571 0.56394 0.0
O163 O 0.19038 0.73876 0.59478 0.0
C164 C 0.21313 0.86407 0.58748 0.0
O165 O 0.15549 0.79924 0.51689 0.0
O166 O 0.19823 0.77629 0.53268 0.0
O167 O 0.14358 0.87447 0.58461 0.0
O168 O 0.11667 0.83057 0.55728 0.0
C169 C 0.19833 0.79847 0.65867 0.0
O170 O 0.21569 0.8337 0.56856 0.0
O171 O 0.19394 0.86694 0.61225 0.0
C172 C 0.18104 0.78912 0.5085 0.0
O173 O 0.21294 0.79396 0.62966 0.0
O174 O 0.17346 0.81367 0.65729 0.0
C175 C 0.11217 0.79086 0.62784 0.0
H176 H 0.06508 0.20587 0.11823 0.0
H177 H 0.02732 0.21409 0.16493 0.0
H178 H 0.09263 0.21594 0.24945 0.0
H179 H 0.13029 0.20708 0.20326 0.0
H180 H 0.05005 0.16444 0.26423 0.0
H181 H 1.00146 0.30605 0.22645 0.0
H182 H 1.00276 0.27199 0.18924 0.0
H183 H 0.03596 0.2899 0.20866 0.0
C184 C 0.07141 0.20872 0.1467 0.0
C185 C 0.10068 0.20562 0.15701 0.0
C186 C 0.04981 0.21359 0.17337 0.0
C187 C 0.05715 0.216 0.21072 0.0
C188 C 0.08643 0.21418 0.22085 0.0
H189 H 0.95432 0.21107 0.41353 0.0
H190 H 0.99411 0.21982 0.36964 0.0
C191 C 0.10794 0.20908 0.19434 0.0
C192 C 0.0344 0.2172 0.23956 0.0
H193 H 0.97536 0.26788 0.26992 0.0
C194 C 0.03391 0.1873 0.26571 0.0
C195 C 0.01332 0.24699 0.24143 0.0
C196 C 0.01348 0.28076 0.21517 0.0
C197 C 0.01249 0.18576 0.29302 0.0
C198 C 0.9912 0.21527 0.29461 0.0
C199 C 0.99181 0.24541 0.26873 0.0
C200 C 0.96708 0.21382 0.3215 0.0
C201 C 0.01223 0.15182 0.31915 0.0
C202 C 0.93861 0.20899 0.30898 0.0
C203 C 0.91592 0.20411 0.33387 0.0
C204 C 0.92116 0.20413 0.37191 0.0
C205 C 0.94955 0.21072 0.38445 0.0
C206 C 0.97232 0.2155 0.35942 0.0
H207 H 0.02638 0.12776 0.30955 0.0
H208 H 0.02021 0.16145 0.34636 0.0
H209 H 0.98989 0.14054 0.32273 0.0
H210 H 0.93406 0.20778 0.27986 0.0
H211 H 0.8943 0.19951 0.32318 0.0
H212 H 0.42208 0.21793 0.6393 0.0
H213 H 0.45365 0.19941 0.69081 0.0
H214 H 0.46657 0.32021 0.71661 0.0
H215 H 0.43504 0.33876 0.66624 0.0
H216 H 0.51043 0.21593 0.7071 0.0
H217 H 0.43978 0.27741 0.81425 0.0
H218 H 0.42734 0.26937 0.76792 0.0
H219 H 0.4467 0.31303 0.7796 0.0
C220 C 0.43186 0.24045 0.65588 0.0
C221 C 0.42584 0.27978 0.64896 0.0
C222 C 0.44971 0.22984 0.68536 0.0
C223 C 0.46168 0.25844 0.70822 0.0
C224 C 0.45673 0.29763 0.70016 0.0
H225 H 0.61184 0.29495 0.8241 0.0
H226 H 0.57409 0.27688 0.7813 0.0
C227 C 0.43887 0.30819 0.6711 0.0
C228 C 0.48009 0.24826 0.74009 0.0
H229 H 0.49125 0.27426 0.82916 0.0
C230 C 0.50596 0.22784 0.73406 0.0
C231 C 0.47386 0.26257 0.77562 0.0
C232 C 0.44522 0.2814 0.78481 0.0
C233 C 0.52701 0.22477 0.7617 0.0
C234 C 0.52231 0.24356 0.79576 0.0
C235 C 0.49522 0.26053 0.80286 0.0
C236 C 0.54621 0.25072 0.82213 0.0
C237 C 0.55442 0.20243 0.75367 0.0
C238 C 0.54288 0.24316 0.85978 0.0
C239 C 0.56439 0.25431 0.88476 0.0
C240 C 0.58951 0.27335 0.87246 0.0
C241 C 0.59287 0.28024 0.83467 0.0
C242 C 0.5714 0.2694 0.80994 0.0
H243 H 0.54997 0.17774 0.73493 0.0
H244 H 0.57011 0.22177 0.73965 0.0
H245 H 0.56455 0.19107 0.77911 0.0
H246 H 0.52344 0.2292 0.86988 0.0
H247 H 0.56116 0.2485 0.91366 0.0
H248 H 0.8912 0.80764 0.83255 0.0
H249 H 0.92407 0.79286 0.78208 0.0
H250 H 0.98283 0.73718 0.85772 0.0
H251 H 0.94894 0.75029 0.90826 0.0
H252 H 0.97475 0.82334 0.77683 0.0
H253 H 0.98863 0.66396 0.77256 0.0
H254 H 0.95985 0.68705 0.79813 0.0
H255 H 0.99573 0.68353 0.81723 0.0
C256 C 0.9109 0.79159 0.83827 0.0
C257 C 0.91779 0.78041 0.87421 0.0
C258 C 0.92961 0.78302 0.80941 0.0
C259 C 0.95591 0.76374 0.81596 0.0
C260 C 0.96238 0.75126 0.85177 0.0
H261 H 0.11087 0.81081 0.69932 0.0
H262 H 0.07261 0.79829 0.74379 0.0
C263 C 0.9432 0.75906 0.88069 0.0
C264 C 0.97787 0.76173 0.78626 0.0
H265 H 0.02478 0.7017 0.7408 0.0
C266 C 0.9853 0.79655 0.76869 0.0
C267 C 0.99158 0.72681 0.77533 0.0
C268 C 0.98332 0.68817 0.79154 0.0
C269 C 1.00648 0.79766 0.74132 0.0
C270 C 0.02138 0.76324 0.73191 0.0
C271 C 0.01346 0.72809 0.74844 0.0
C272 C 0.04636 0.76445 0.70659 0.0
C273 C 0.01296 0.83592 0.72292 0.0
C274 C 0.04486 0.74787 0.67145 0.0
C275 C 0.06697 0.75474 0.64586 0.0
C276 C 0.09052 0.77856 0.65521 0.0
C277 C 0.09265 0.79302 0.69113 0.0
C278 C 0.0709 0.78579 0.71661 0.0
H279 H 0.9946 0.85662 0.72569 0.0
H280 H 0.03224 0.8492 0.73602 0.0
H281 H 0.01773 0.83182 0.69331 0.0
H282 H 0.02605 0.73121 0.66335 0.0
H283 H 0.06494 0.7431 0.61839 0.0
H284 H 0.62878 0.71126 0.32645 0.0
H285 H 0.59072 0.7196 0.28078 0.0
H286 H 0.52594 0.71433 0.36593 0.0
H287 H 0.56411 0.70665 0.41212 0.0
H288 H 0.54944 0.66598 0.2665 0.0
H289 H 0.49746 0.80534 0.30486 0.0
H290 H 0.53249 0.79081 0.3222 0.0
H291 H 0.49992 0.77135 0.34201 0.0
C292 C 0.60646 0.71247 0.33561 0.0
C293 C 0.59945 0.70807 0.37294 0.0
C294 C 0.58473 0.71728 0.30942 0.0
C295 C 0.55549 0.71785 0.31989 0.0
C296 C 0.54839 0.71476 0.35727 0.0
H297 H 0.39277 0.69397 0.20851 0.0
H298 H 0.43239 0.70368 0.25172 0.0
C299 C 0.57021 0.7102 0.38364 0.0
C300 C 0.5326 0.71806 0.29129 0.0
H301 H 0.47218 0.76601 0.26152 0.0
C302 C 0.53273 0.6881 0.26518 0.0
C303 C 0.51077 0.74687 0.28966 0.0
C304 C 0.51021 0.78063 0.31596 0.0
C305 C 0.51125 0.68557 0.23809 0.0
C306 C 0.48924 0.7141 0.2367 0.0
C307 C 0.48919 0.74429 0.26257 0.0
C308 C 0.46513 0.71159 0.20996 0.0
C309 C 0.51172 0.65161 0.21195 0.0
C310 C 0.47028 0.71373 0.17205 0.0
C311 C 0.44761 0.70809 0.14708 0.0
C312 C 0.41942 0.70018 0.1597 0.0
C313 C 0.41425 0.69957 0.19776 0.0
C314 C 0.43685 0.70529 0.22258 0.0
H315 H 0.5265 0.6282 0.2214 0.0
H316 H 0.48965 0.63933 0.20857 0.0
H317 H 0.51931 0.66157 0.18467 0.0
H318 H 0.49192 0.71915 0.16178 0.0
H319 H 0.45231 0.709 0.118 0.0
H320 H 0.11244 0.10158 0.99208 0.0
H321 H 0.07204 0.05829 0.97688 0.0
H322 H 0.05034 0.04974 0.09171 0.0
H323 H 0.09159 0.09058 0.10697 0.0
H324 H 0.04424 0.98381 0.06555 0.0
H325 H 0.98909 0.08118 0.96756 0.0
H326 H 0.02503 0.06974 0.9524 0.0
H327 H 0.01977 0.09677 0.99425 0.0
C328 C 0.09912 0.09019 1.01402 0.0
C329 C 0.10541 0.09942 0.05074 0.0
C330 C 0.07569 0.06582 1.0053 0.0
C331 C 0.05735 0.05123 0.03297 0.0
C332 C 0.06389 0.06037 0.06965 0.0
H333 H 0.88751 0.94408 0.98508 0.0
H334 H 0.9263 0.98972 1.00166 0.0
C335 C 0.08766 0.08378 0.0784 0.0
C336 C 0.03196 0.02551 0.02436 0.0
H337 H 0.9722 0.01573 0.96939 0.0
C338 C 0.02843 0.99116 0.04467 0.0
C339 C 0.01066 0.03499 0.99771 0.0
C340 C 0.01112 0.07288 0.97706 0.0
C341 C 1.00482 0.9661 0.03893 0.0
C342 C 0.98461 0.97424 1.01063 0.0
C343 C 0.98776 0.00892 0.99072 0.0
C344 C 0.96063 0.94675 1.00082 0.0
C345 C 1.0015 0.93175 0.06423 0.0
C346 C 0.96674 0.90744 0.99418 0.0
C347 C 0.94459 0.88132 0.98574 0.0
C348 C 0.91563 0.89381 0.98242 0.0
C349 C 0.90949 0.9334 0.98777 0.0
C350 C 0.93173 0.95954 0.99711 0.0
H351 H 0.01138 0.93759 0.09146 0.0
H352 H 0.97838 0.9241 0.06845 0.0
H353 H 0.01295 0.90639 0.05229 0.0
H354 H 0.98881 0.89683 0.99519 0.0
H355 H 0.95035 0.85128 0.98092 0.0
H356 H 0.60244 0.61876 0.53511 0.0
H357 H 0.56226 0.57536 0.55078 0.0
H358 H 0.56315 0.52922 0.44098 0.0
H359 H 0.60325 0.57226 0.42504 0.0
H360 H 0.50658 0.55245 0.46751 0.0
H361 H 0.56418 0.45546 0.56512 0.0
H362 H 0.56772 0.50667 0.57331 0.0
H363 H 0.58315 0.48574 0.53265 0.0
C364 C 0.59437 0.59905 0.51438 0.0
C365 C 0.60632 0.59907 0.47879 0.0
C366 C 0.57136 0.5742 0.52342 0.0
C367 C 0.55968 0.54885 0.49712 0.0
C368 C 0.57174 0.54847 0.46177 0.0
H369 H 0.44598 0.35135 0.51863 0.0
H370 H 0.4843 0.39772 0.50487 0.0
C371 C 0.59485 0.57305 0.45277 0.0
C372 C 0.53447 0.52335 0.50599 0.0
H373 H 0.51389 0.44547 0.55788 0.0
C374 C 0.50814 0.52916 0.48738 0.0
C375 C 0.53651 0.49276 0.53172 0.0
C376 C 0.56442 0.4844 0.55175 0.0
C377 C 0.48388 0.50531 0.49385 0.0
C378 C 0.48589 0.47481 0.51969 0.0
C379 C 0.51224 0.46899 0.53825 0.0
C380 C 0.46144 0.44742 0.52662 0.0
C381 C 0.45645 0.51225 0.47235 0.0
C382 C 0.43549 0.45984 0.54318 0.0
C383 C 0.41333 0.4332 0.55128 0.0
C384 C 0.41664 0.39353 0.54291 0.0
C385 C 0.44244 0.38155 0.52548 0.0
C386 C 0.46455 0.40806 0.51767 0.0
H387 H 0.45998 0.53227 0.44891 0.0
H388 H 0.44769 0.48445 0.46175 0.0
H389 H 0.43985 0.52525 0.49066 0.0
H390 H 0.43265 0.48999 0.5507 0.0
H391 H 0.39393 0.44355 0.56486 0.0
H392 H 0.41641 0.61995 0.99907 0.0
H393 H 0.455 0.57439 0.98207 0.0
H394 H 0.44325 0.51366 0.08425 0.0
H395 H 0.40452 0.5585 0.1012 0.0
H396 H 0.50672 0.5615 0.0181 0.0
H397 H 0.44436 0.42453 1.01185 0.0
H398 H 0.42705 0.4715 1.01258 0.0
H399 H 0.44006 0.45002 0.05441 0.0
C400 C 0.42166 0.59651 0.01768 0.0
C401 C 0.40713 0.59297 0.0515 0.0
C402 C 0.44388 0.57054 1.00798 0.0
C403 C 0.45194 0.54018 0.03164 0.0
C404 C 0.43714 0.53622 0.0651 0.0
H405 H 0.58708 0.3615 0.03108 0.0
H406 H 0.548 0.40653 0.04766 0.0
C407 C 0.41498 0.56212 0.07483 0.0
C408 C 0.47676 0.51395 0.02233 0.0
H409 H 0.49576 0.41865 1.01114 0.0
C410 C 0.50425 0.53029 0.01633 0.0
C411 C 0.47373 0.47312 0.02022 0.0
C412 C 0.44467 0.45372 0.02476 0.0
C413 C 0.52873 0.50704 1.00898 0.0
C414 C 0.52569 0.46622 1.0069 0.0
C415 C 0.49822 0.44987 1.0129 0.0
C416 C 0.55054 0.44004 0.99763 0.0
C417 C 0.55779 0.52642 1.00436 0.0
C418 C 0.56514 0.44374 0.96401 0.0
C419 C 0.58753 0.41811 0.95448 0.0
C420 C 0.59586 0.38785 0.97823 0.0
C421 C 0.58145 0.3845 1.01215 0.0
C422 C 0.55897 0.41016 0.02163 0.0
H423 H 0.55805 0.55577 0.01695 0.0
H424 H 0.57537 0.50878 0.01681 0.0
H425 H 0.56249 0.52973 0.97469 0.0
H426 H 0.55877 0.46597 0.94464 0.0
H427 H 0.59791 0.4216 0.92805 0.0
H428 H 0.92224 0.12802 0.52875 0.0
H429 H 0.96289 0.08571 0.54466 0.0
H430 H 0.94639 0.01632 0.44859 0.0
H431 H 0.90623 0.05918 0.43186 0.0
H432 H 0.96852 0.0106 0.56048 0.0
H433 H 0.0305 0.0403 0.43355 0.0
H434 H 0.9987 0.06775 0.44608 0.0
H435 H 0.99517 0.0211 0.42435 0.0
C436 C 0.92707 0.10362 0.51106 0.0
C437 C 0.91098 0.09734 0.47877 0.0
C438 C 0.95046 0.07943 0.52019 0.0
C439 C 0.95837 0.0483 0.49737 0.0
C440 C 0.94145 0.04083 0.46609 0.0
H441 H 0.08205 0.85984 0.50965 0.0
H442 H 0.04373 0.90598 0.49392 0.0
C443 C 0.91821 0.06519 0.45674 0.0
C444 C 0.98426 0.0238 0.50631 0.0
H445 H 0.04801 0.98877 0.47114 0.0
C446 C 0.98599 0.00614 0.54101 0.0
C447 C 0.00731 0.01803 0.4811 0.0
C448 C 0.00805 0.03811 0.44435 0.0
C449 C 0.00954 0.98219 0.55071 0.0
C450 C 0.03217 0.97577 0.52519 0.0
C451 C 0.03065 0.99364 0.49067 0.0
C452 C 0.05693 0.94927 0.53335 0.0
C453 C 0.00976 0.96303 0.58788 0.0
C454 C 0.07772 0.95867 0.56008 0.0
C455 C 0.09998 0.93242 0.56894 0.0
C456 C 0.10172 0.89607 0.55143 0.0
C457 C 0.08137 0.88743 0.52383 0.0
C458 C 0.05939 0.9138 0.51477 0.0
H459 H 0.9886 0.96594 0.60218 0.0
H460 H 0.01512 0.93174 0.58523 0.0
H461 H 0.02669 0.97665 0.60519 0.0
H462 H 0.07646 0.98608 0.57451 0.0
H463 H 0.11515 0.94002 0.5904 0.0
H464 H 0.38407 0.81999 0.04518 0.0
H465 H 0.37911 0.89119 0.04382 0.0
H466 H 0.30445 0.8833 0.11471 0.0
H467 H 0.30886 0.81283 0.11536 0.0
H468 H 0.32315 0.92393 0.01745 0.0
H469 H 0.35328 0.97648 0.15571 0.0
H470 H 0.36786 0.93237 0.13604 0.0
H471 H 0.33244 0.93254 0.15665 0.0
C472 C 0.36713 0.83377 0.06114 0.0
C473 C 0.3467 0.81136 0.0802 0.0
C474 C 0.36434 0.87419 0.06036 0.0
C475 C 0.34166 0.89226 0.07954 0.0
C476 C 0.32239 0.86984 0.10028 0.0
H477 H 0.20938 0.04816 0.07095 0.0
H478 H 0.24545 -0.00353 0.06443 0.0
C479 C 0.32477 0.82969 0.10041 0.0
C480 C 0.33469 0.93346 0.07399 0.0
H481 H 0.31618 0.01335 0.12372 0.0
C482 C 0.32251 0.94415 0.04024 0.0
C483 C 0.334 0.95961 0.10374 0.0
C484 C 0.34786 0.94985 0.14001 0.0
C485 C 0.30699 0.97888 0.03666 0.0
C486 C 0.30374 0.00309 0.0676 0.0
C487 C 0.31845 0.99431 0.10019 0.0
C488 C 0.2824 0.03484 0.06818 0.0
C489 C 0.29272 0.98834 1.00057 0.0
C490 C 0.29143 0.07323 0.07262 0.0
C491 C 0.27094 0.10276 0.07623 0.0
C492 C 0.2411 0.09418 0.07611 0.0
C493 C 0.23217 0.05563 0.07128 0.0
C494 C 0.2527 0.02618 0.06728 0.0
H495 H 0.30341 0.97295 0.97743 0.0
H496 H 0.26971 0.97909 1.00154 0.0
H497 H 0.29324 0.02003 0.99521 0.0
H498 H 0.31429 0.08024 0.07371 0.0
H499 H 0.27855 0.13219 0.07997 0.0
H500 H 0.20541 0.67414 0.6213 0.0
H501 H 0.21242 0.60428 0.61648 0.0
H502 H 0.14689 0.59836 0.53239 0.0
H503 H 0.13981 0.66862 0.53669 0.0
H504 H 0.17271 0.53843 0.62099 0.0
H505 H 0.22324 0.55913 0.48318 0.0
H506 H 0.21742 0.59945 0.51389 0.0
H507 H 0.18721 0.57743 0.49107 0.0
C508 C 0.19222 0.65802 0.60205 0.0
C509 C 0.17245 0.67699 0.5789 0.0
C510 C 0.19613 0.6181 0.5995 0.0
C511 C 0.18039 0.59648 0.57378 0.0
C512 C 0.15941 0.6148 0.5521 0.0
H513 H 0.25986 0.36914 0.52771 0.0
H514 H 0.22224 0.41931 0.52359 0.0
C515 C 0.15542 0.65487 0.55467 0.0
C516 C 0.18841 0.55564 0.56782 0.0
H517 H 0.23181 0.5003 0.51306 0.0
C518 C 0.18494 0.5296 0.59697 0.0
C519 C 0.20409 0.54427 0.53625 0.0
C520 C 0.20842 0.5714 0.50424 0.0
C521 C 0.19884 0.4935 0.59665 0.0
C522 C 0.21688 0.48379 0.56671 0.0
C523 C 0.21805 0.50816 0.53603 0.0
C524 C 0.23846 0.45245 0.56952 0.0
C525 C 0.19548 0.46701 0.62926 0.0
C526 C 0.26033 0.45535 0.59601 0.0
C527 C 0.28189 0.42723 0.59823 0.0
C528 C 0.28201 0.39562 0.57392 0.0
C529 C 0.26028 0.39308 0.54693 0.0
C530 C 0.23873 0.42151 0.54461 0.0
H531 H 0.17434 0.4718 0.64318 0.0
H532 H 0.19716 0.43607 0.62106 0.0
H533 H 0.2129 0.47327 0.64937 0.0
H534 H 0.26089 0.47969 0.6148 0.0
H535 H 0.29831 0.43018 0.61925 0.0
H536 H 0.69472 0.44066 0.94191 0.0
H537 H 0.72903 0.49412 0.94834 0.0
H538 H 0.79948 0.41261 0.95903 0.0
H539 H 0.76548 0.35881 0.95251 0.0
H540 H 0.77089 0.50713 1.00865 0.0
H541 H 0.82086 0.48625 0.87069 0.0
H542 H 0.78581 0.46639 0.88207 0.0
H543 H 0.81801 0.44505 0.90081 0.0
C544 C 0.71748 0.43405 0.94571 0.0
C545 C 0.72741 0.39554 0.94634 0.0
C546 C 0.73699 0.46456 0.94947 0.0
C547 C 0.76666 0.45704 0.9538 0.0
C548 C 0.77664 0.41876 0.95532 0.0
H549 H 0.86944 0.66733 0.99409 0.0
H550 H 0.85958 0.59755 0.99515 0.0
C551 C 0.75716 0.38818 0.95163 0.0
C552 C 0.78698 0.4897 0.9558 0.0
H553 H 0.83382 0.5422 0.90341 0.0
C554 C 0.78519 0.51453 0.9861 0.0
C555 C 0.80548 0.49883 0.92618 0.0
C556 C 0.80774 0.47295 0.89292 0.0
C557 C 0.80017 0.54976 0.98661 0.0
C558 C 0.8175 0.5599 0.95611 0.0
C559 C 0.82066 0.53395 0.92678 0.0
C560 C 0.82797 0.59983 0.95143 0.0
C561 C 0.79566 0.5771 0.01848 0.0
C562 C 0.81439 0.62348 0.92537 0.0
C563 C 0.81987 0.66311 0.92468 0.0
C564 C 0.83908 0.67966 0.95008 0.0
C565 C 0.8543 0.65541 0.97443 0.0
C566 C 0.84872 0.61564 0.97512 0.0
H567 H 0.77904 0.56637 0.03803 0.0
H568 H 0.81636 0.58063 0.03356 0.0
H569 H 0.78888 0.60613 1.00844 0.0
H570 H 0.79833 0.61161 0.90683 0.0
H571 H 0.80816 0.68095 0.90522 0.0
H572 H 0.8045 0.04888 0.42338 0.0
H573 H 0.76697 -0.00093 0.42637 0.0
H574 H 0.70533 0.08384 0.46519 0.0
H575 H 0.7427 0.13393 0.46243 0.0
H576 H 0.70724 0.01481 0.50657 0.0
H577 H 0.69576 0.98473 0.35845 0.0
H578 H 0.73306 0.98546 0.37239 0.0
H579 H 0.7116 0.02897 0.37587 0.0
C580 C 0.78299 0.05695 0.43254 0.0
C581 C 0.77653 0.09532 0.44251 0.0
C582 C 0.76151 0.02861 0.43385 0.0
C583 C 0.7333 0.03816 0.44516 0.0
C584 C 0.72688 0.07618 0.45584 0.0
H585 H 0.63323 0.8225 0.43312 0.0
H586 H 0.63669 0.89369 0.43148 0.0
C587 C 0.74829 0.10463 0.45432 0.0
C588 C 0.7113 0.00745 0.44809 0.0
H589 H 0.68412 0.93144 0.39964 0.0
C590 C 0.70139 -0.00285 0.48309 0.0
C591 C 0.70299 0.98525 0.41731 0.0
C592 C 0.71115 -0.00308 0.37882 0.0
C593 C 0.68627 0.96249 0.48858 0.0
C594 C 0.68144 0.93767 0.45837 0.0
C595 C 0.68821 0.95033 0.42286 0.0
C596 C 0.67602 0.89598 0.46368 0.0
C597 C 0.67745 0.9514 0.52697 0.0
C598 C 0.697 0.87407 0.4822 0.0
C599 C 0.69533 0.8339 0.48275 0.0
C600 C 0.67261 0.81474 0.46474 0.0
C601 C 0.65092 0.83666 0.44727 0.0
C602 C 0.6528 0.87716 0.4464 0.0
H603 H 0.67227 0.97755 0.54354 0.0
H604 H 0.65837 0.93182 0.52687 0.0
H605 H 0.69576 0.93621 0.54054 0.0
H606 H 0.71551 0.88798 0.49486 0.0
H607 H 0.71227 0.81782 0.49664 0.0
H608 H 0.70684 0.17291 0.92676 0.0
H609 H 0.71203 0.10259 0.92742 0.0
H610 H 0.63127 0.09207 0.98621 0.0
H611 H 0.62554 0.16318 0.98486 0.0
H612 H 0.68719 0.0577 0.01849 0.0
H613 H 0.66397 0.0122 0.87599 0.0
H614 H 0.68378 0.05691 0.87891 0.0
H615 H 0.64755 0.05446 0.89698 0.0
C616 C 0.68995 0.1556 0.93932 0.0
C617 C 0.66592 0.17321 0.95597 0.0
C618 C 0.6928 0.11553 0.93942 0.0
C619 C 0.67186 0.0924 0.95653 0.0
C620 C 0.64739 0.10967 0.97251 0.0
H621 H 0.75162 0.86352 0.99553 0.0
H622 H 0.71276 0.91172 0.99971 0.0
C623 C 0.6442 0.15004 0.97175 0.0
C624 C 0.67821 0.0509 0.96097 0.0
H625 H 0.70066 0.97504 0.90845 0.0
C626 C 0.68916 0.03869 0.99491 0.0
C627 C 0.68059 0.02654 0.93006 0.0
C628 C 0.66809 0.03801 0.89346 0.0
C629 C 0.70568 0.00465 0.99767 0.0
C630 C 0.71075 0.98247 0.96571 0.0
C631 C 0.69695 0.99249 0.93278 0.0
C632 C 0.73395 0.95312 0.96423 0.0
C633 C 0.71993 0.99475 0.0337 0.0
C634 C 0.75864 0.96071 0.943 0.0
C635 C 0.78078 0.93338 0.9404 0.0
C636 C 0.77859 0.89788 0.95902 0.0
C637 C 0.75403 0.89069 0.98096 0.0
C638 C 0.73178 0.91809 0.9834 0.0
H639 H 0.71563 0.01693 0.05514 0.0
H640 H 0.71169 0.96644 0.04363 0.0
H641 H 0.74374 0.99198 0.02998 0.0
H642 H 0.7607 0.98784 0.92823 0.0
H643 H 0.79938 0.93986 0.92336 0.0
H644 H 0.77644 0.63311 0.46218 0.0
H645 H 0.81324 0.58205 0.46249 0.0
H646 H 0.74848 0.49816 0.43166 0.0
H647 H 0.71152 0.54894 0.43093 0.0
H648 H 0.8143 0.51436 0.50455 0.0
H649 H 0.81392 0.48062 0.35642 0.0
H650 H 0.79917 0.52519 0.37478 0.0
H651 H 0.77792 0.48145 0.37503 0.0
C652 C 0.77 0.60379 0.45538 0.0
C653 C 0.74107 0.59508 0.44627 0.0
C654 C 0.79109 0.57477 0.45549 0.0
C655 C 0.78364 0.53671 0.44622 0.0
C656 C 0.75473 0.52769 0.43793 0.0
H657 H 0.80924 0.31649 0.49757 0.0
H658 H 0.80574 0.38676 0.49613 0.0
C659 C 0.73359 0.55664 0.4379 0.0
C660 C 0.80554 0.50559 0.44709 0.0
H661 H 0.82898 0.42836 0.397 0.0
C662 C 0.81824 0.4961 0.48083 0.0
C663 C 0.81136 0.48257 0.41588 0.0
C664 C 0.80012 0.49324 0.37839 0.0
C665 C 0.8339 0.46158 0.48505 0.0
C666 C 0.83645 0.43608 0.45489 0.0
C667 C 0.8267 0.44782 0.42022 0.0
C668 C 0.84267 0.39458 0.46024 0.0
C669 C 0.84587 0.4514 0.52228 0.0
C670 C 0.86464 0.37568 0.44042 0.0
C671 C 0.86671 0.33519 0.44124 0.0
C672 C 0.84635 0.3134 0.46111 0.0
C673 C 0.82505 0.3326 0.48177 0.0
C674 C 0.82328 0.37278 0.48138 0.0
H675 H 0.85197 0.47795 0.53769 0.0
H676 H 0.82896 0.43612 0.53836 0.0
H677 H 0.86512 0.43215 0.52001 0.0
H678 H 0.87949 0.39213 0.42351 0.0
H679 H 0.88328 0.32091 0.42504 0.0
H680 H 0.21363 0.31824 0.03766 0.0
H681 H 0.21593 0.38844 0.04109 0.0
H682 H 0.13347 0.39138 0.09684 0.0
H683 H 0.13096 0.32019 0.09371 0.0
H684 H 0.17557 0.44942 0.0177 0.0
H685 H 0.19439 0.44069 0.16872 0.0
H686 H 0.19775 0.39808 0.14031 0.0
H687 H 0.16269 0.41871 0.14882 0.0
C688 C 0.19581 0.33366 0.05044 0.0
C689 C 0.17231 0.31372 0.06592 0.0
C690 C 0.19704 0.37382 0.05205 0.0
C691 C 0.17492 0.39488 0.06928 0.0
C692 C 0.15074 0.37541 0.0835 0.0
H693 H 0.23829 0.63586 0.0784 0.0
H694 H 0.20084 0.5859 0.07464 0.0
C695 C 0.14938 0.33491 0.08171 0.0
C696 C 0.1796 0.43658 0.07521 0.0
H697 H 0.21188 0.49547 0.13801 0.0
C698 C 0.18247 0.46032 0.0442 0.0
C699 C 0.1886 0.45031 0.10988 0.0
C700 C 0.18582 0.4258 0.14399 0.0
C701 C 0.19701 0.49587 0.04632 0.0
C702 C 0.2086 0.50764 0.08033 0.0
C703 C 0.20302 0.4859 0.11199 0.0
C704 C 0.23066 0.53824 0.08248 0.0
C705 C 0.20237 0.51876 1.01174 0.0
C706 C 0.25968 0.52765 0.08807 0.0
C707 C 0.28113 0.55592 0.09021 0.0
C708 C 0.27381 0.59529 0.08696 0.0
C709 C 0.24464 0.60574 0.08105 0.0
C710 C 0.2232 0.57736 0.07887 0.0
H711 H 0.19246 0.50495 0.98726 0.0
H712 H 0.19325 0.54838 1.01479 0.0
H713 H 0.22605 0.52171 1.00702 0.0
H714 H 0.26572 0.49739 0.09073 0.0
H715 H 0.30334 0.54691 0.09476 0.0
H716 H 0.25855 0.86731 0.53908 0.0
H717 H 0.29593 0.91746 0.53517 0.0
H718 H 0.25473 0.98015 0.62335 0.0
H719 H 0.21757 0.93038 0.62776 0.0
H720 H 0.28685 -0.00433 0.52076 0.0
H721 H 0.33975 0.97718 0.65536 0.0
H722 H 0.31733 0.94007 0.63492 0.0
H723 H 0.30108 0.97965 0.65983 0.0
C724 C 0.25753 0.8917 0.55776 0.0
C725 C 0.23513 0.89481 0.58385 0.0
C726 C 0.27897 0.92013 0.55558 0.0
C727 C 0.27845 0.95181 0.57964 0.0
C728 C 0.25596 0.95523 0.60531 0.0
H729 H 0.3103 0.17717 0.61898 0.0
H730 H 0.30353 0.1072 0.61863 0.0
C731 C 0.23454 0.92698 0.60748 0.0
C732 C 0.29972 0.98341 0.57626 0.0
H733 H 0.34198 0.04208 0.62893 0.0
C734 C 0.29971 0.00532 0.54391 0.0
C735 C 0.31665 0.99545 0.60644 0.0
C736 C 0.31897 0.97156 0.64095 0.0
C737 C 0.31369 0.04129 0.54233 0.0
C738 C 0.32829 0.05508 0.57383 0.0
C739 C 0.33059 0.03142 0.60495 0.0
C740 C 0.33622 0.09625 0.57729 0.0
C741 C 0.31056 0.06574 0.50823 0.0
C742 C 0.3575 0.11296 0.55493 0.0
C743 C 0.3613 0.15315 0.55485 0.0
C744 C 0.34384 0.17696 0.57715 0.0
C745 C 0.32381 0.15971 0.6011 0.0
C746 C 0.32005 0.11971 0.60113 0.0
H747 H 0.29613 0.05211 0.48755 0.0
H748 H 0.30169 0.09475 0.51532 0.0
H749 H 0.33217 0.07004 0.49552 0.0
H750 H 0.37041 0.09512 0.53671 0.0
H751 H 0.37716 0.16559 0.53639 0.0
H752 H 0.22925 0.15991 0.96224 0.0
H753 H 0.24971 0.17625 0.90234 0.0
H754 H 0.19253 0.27507 0.89528 0.0
H755 H 0.17087 0.25738 0.95431 0.0
H756 H 0.19745 0.24684 0.831 0.0
H757 H 0.30903 0.25579 0.88469 0.0
H758 H 0.29459 0.20813 0.89112 0.0
H759 H 0.27826 0.24888 0.91435 0.0
C760 C 0.22074 0.1848 0.94765 0.0
C761 C 0.19839 0.2073 0.96314 0.0
C762 C 0.2328 0.19453 0.91353 0.0
C763 C 0.22358 0.22785 0.89449 0.0
C764 C 0.20039 0.24944 0.90929 0.0
H765 H 0.33073 0.33116 0.71981 0.0
H766 H 0.30706 0.31526 0.77818 0.0
C767 C 0.18784 0.23918 0.94307 0.0
C768 C 0.23806 0.24019 0.85938 0.0
H769 H 0.30428 0.25584 0.81951 0.0
C770 C 0.22082 0.24901 0.82868 0.0
C771 C 0.26859 0.24417 0.85609 0.0
C772 C 0.28864 0.23918 0.88844 0.0
C773 C 0.23308 0.26073 0.79501 0.0
C774 C 0.26369 0.26219 0.79104 0.0
C775 C 0.28089 0.25421 0.82196 0.0
C776 C 0.27827 0.27197 0.75529 0.0
C777 C 0.21283 0.27254 0.76449 0.0
C778 C 0.27069 0.25262 0.72271 0.0
C779 C 0.28377 0.26232 0.68924 0.0
C780 C 0.30552 0.29084 0.68741 0.0
C781 C 0.31403 0.30915 0.72015 0.0
C782 C 0.30045 0.30001 0.75362 0.0
H783 H 0.19177 0.28306 0.77547 0.0
H784 H 0.22235 0.29576 0.74722 0.0
H785 H 0.20827 0.24698 0.74694 0.0
H786 H 0.25466 0.22976 0.72308 0.0
H787 H 0.27704 0.24705 0.66472 0.0
H788 H 0.24064 0.2691 0.1619 0.0
H789 H 0.26556 0.28734 0.21868 0.0
H790 H 0.24167 0.17801 0.26714 0.0
H791 H 0.21705 0.15938 0.21053 0.0
H792 H 0.24484 0.29637 0.28862 0.0
H793 H 0.32821 0.1808 0.28748 0.0
H794 H 0.30628 0.19197 0.24787 0.0
H795 H 0.29204 0.16213 0.28409 0.0
C796 C 0.24078 0.2488 0.18455 0.0
C797 C 0.22693 0.21257 0.18133 0.0
C798 C 0.25507 0.25932 0.21709 0.0
C799 C 0.25609 0.2338 0.24714 0.0
C800 C 0.24192 0.19789 0.24416 0.0
H801 H 0.28073 0.2763 0.47657 0.0
H802 H 0.26395 0.26701 0.41398 0.0
C803 C 0.22761 0.18737 0.21172 0.0
C804 C 0.27104 0.24513 0.28199 0.0
H805 H 0.32207 0.21514 0.34406 0.0
C806 C 0.26191 0.27876 0.30051 0.0
C807 C 0.29374 0.22269 0.29744 0.0
C808 C 0.30588 0.18761 0.27803 0.0
C809 C 0.27389 0.28955 0.33456 0.0
C810 C 0.29541 0.26588 0.351 0.0
C811 C 0.30544 0.23319 0.33176 0.0
C812 C 0.30623 0.27311 0.38909 0.0
C813 C 0.26327 0.32623 0.35271 0.0
C814 C 0.33585 0.27913 0.39644 0.0
C815 C 0.3457 0.2845 0.43267 0.0
C816 C 0.32615 0.2833 0.46232 0.0
C817 C 0.29654 0.27741 0.45463 0.0
C818 C 0.28678 0.27233 0.41865 0.0
H819 H 0.25406 0.34681 0.33235 0.0
H820 H 0.24588 0.3189 0.37255 0.0
H821 H 0.281 0.34095 0.36783 0.0
H822 H 0.35136 0.27961 0.37415 0.0
H823 H 0.36863 0.28874 0.43749 0.0
H824 H 0.77221 0.26303 0.36346 0.0
H825 H 0.74734 0.27981 0.30629 0.0
H826 H 0.78963 0.18428 0.25172 0.0
H827 H 0.81385 0.16667 0.3089 0.0
H828 H 0.76556 0.30208 0.24089 0.0
H829 H 0.70753 0.16334 0.22316 0.0
H830 H 0.72625 0.17551 0.265 0.0
H831 H 0.74592 0.15611 0.22641 0.0
C832 C 0.77618 0.24548 0.33933 0.0
C833 C 0.79488 0.21319 0.34106 0.0
C834 C 0.76189 0.25514 0.30656 0.0
C835 C 0.76594 0.23283 0.27464 0.0
C836 C 0.78528 0.20129 0.27607 0.0
H837 H 0.73541 0.30282 0.05006 0.0
H838 H 0.75368 0.29154 0.11169 0.0
C839 C 0.79936 0.19142 0.30886 0.0
C840 C 0.75055 0.24302 0.23972 0.0
H841 H 0.70915 0.20494 0.17067 0.0
C842 C 0.75304 0.28086 0.22574 0.0
C843 C 0.73356 0.21578 0.22005 0.0
C844 C 0.72786 0.17557 0.23462 0.0
C845 C 0.74002 0.29175 0.19232 0.0
C846 C 0.72459 0.26381 0.17152 0.0
C847 C 0.72122 0.22637 0.18614 0.0
C848 C 0.71271 0.27233 0.1341 0.0
C849 C 0.74269 0.33334 0.17997 0.0
C850 C 0.68357 0.26456 0.12536 0.0
C851 C 0.673 0.27054 0.08962 0.0
C852 C 0.69137 0.28433 0.06167 0.0
C853 C 0.72042 0.29252 0.07072 0.0
C854 C 0.73096 0.28631 0.10625 0.0
H855 H 0.74578 0.35316 0.20367 0.0
H856 H 0.76194 0.33621 0.16194 0.0
H857 H 0.72324 0.34288 0.16447 0.0
H858 H 0.669 0.25353 0.14617 0.0
H859 H 0.65058 0.26368 0.08377 0.0
H860 H 0.85814 0.2254 0.58271 0.0
H861 H 0.8397 0.23668 0.64499 0.0
H862 H 0.75532 0.19662 0.61156 0.0
H863 H 0.77361 0.18423 0.55009 0.0
H864 H 0.79896 0.28504 0.66911 0.0
H865 H 0.76416 0.1366 0.70432 0.0
H866 H 0.78651 0.14672 0.66489 0.0
H867 H 0.74774 0.15258 0.66244 0.0
C868 C 0.83579 0.21834 0.58878 0.0
C869 C 0.81752 0.20361 0.56116 0.0
C870 C 0.8252 0.22499 0.62444 0.0
C871 C 0.79613 0.21694 0.63345 0.0
C872 C 0.77798 0.20209 0.60593 0.0
H873 H 0.69479 0.3227 0.80907 0.0
H874 H 0.71891 0.30552 0.75161 0.0
C875 C 0.78853 0.19524 0.57048 0.0
C876 C 0.78424 0.22586 0.67085 0.0
H877 H 0.74405 0.18778 0.74107 0.0
C878 C 0.78721 0.2636 0.68496 0.0
C879 C 0.76922 0.19794 0.69214 0.0
C880 C 0.76699 0.15611 0.68035 0.0
C881 C 0.7749 0.27444 0.71888 0.0
C882 C 0.75837 0.24714 0.73908 0.0
C883 C 0.75623 0.20906 0.72555 0.0
C884 C 0.7432 0.25737 0.77423 0.0
C885 C 0.78021 0.31498 0.73289 0.0
C886 C 0.74765 0.23521 0.80613 0.0
C887 C 0.73343 0.2446 0.83903 0.0
C888 C 0.71436 0.27651 0.84098 0.0
C889 C 0.70956 0.29825 0.80886 0.0
C890 C 0.72359 0.28862 0.77591 0.0
H891 H 0.8003 0.32749 0.72102 0.0
H892 H 0.76186 0.33391 0.7247 0.0
H893 H 0.78204 0.3155 0.76324 0.0
H894 H 0.76243 0.21077 0.80571 0.0
H895 H 0.73765 0.22706 0.86307 0.0
H896 H 0.77911 0.78011 0.05277 0.0
H897 H 0.76298 0.77114 0.11566 0.0
H898 H 0.85112 0.78057 0.15358 0.0
H899 H 0.86773 0.7894 0.08986 0.0
H900 H 0.82072 0.71661 0.18363 0.0
H901 H 0.75594 0.85087 0.19807 0.0
H902 H 0.74675 0.82387 0.15766 0.0
H903 H 0.78242 0.84435 0.16209 0.0
C904 C 0.79522 0.78059 0.07435 0.0
C905 C 0.82482 0.78548 0.06603 0.0
C906 C 0.78584 0.7757 0.1105 0.0
C907 C 0.80569 0.77568 0.13959 0.0
C908 C 0.83532 0.78074 0.13163 0.0
H909 H 0.74112 0.77042 0.3673 0.0
H910 H 0.76638 0.78881 0.31078 0.0
C911 C 0.8448 0.78593 0.09521 0.0
C912 C 0.7952 0.76853 0.1778 0.0
H913 H 0.74573 0.80011 0.24116 0.0
C914 C 0.80461 0.73515 0.19642 0.0
C915 C 0.77437 0.79285 0.19484 0.0
C916 C 0.76447 0.8302 0.17731 0.0
C917 C 0.79287 0.72459 0.23069 0.0
C918 C 0.77077 0.7477 0.24669 0.0
C919 C 0.76234 0.78202 0.22884 0.0
C920 C 0.75562 0.7363 0.28135 0.0
C921 C 0.80427 0.68869 0.24941 0.0
C922 C 0.74062 0.70095 0.28364 0.0
C923 C 0.72612 0.69035 0.31591 0.0
C924 C 0.72607 0.71493 0.34679 0.0
C925 C 0.74074 0.75063 0.34424 0.0
C926 C 0.75523 0.76122 0.31188 0.0
H927 H 0.82643 0.6812 0.23973 0.0
H928 H 0.80482 0.69245 0.27964 0.0
H929 H 0.78987 0.66388 0.24296 0.0
H930 H 0.73988 0.68159 0.26028 0.0
H931 H 0.71493 0.66279 0.3166 0.0
H932 H 0.83438 0.81723 0.80827 0.0
H933 H 0.81197 0.79879 0.74984 0.0
H934 H 0.73874 0.75163 0.80793 0.0
H935 H 0.76091 0.7697 0.86629 0.0
H936 H 0.75957 0.70203 0.75335 0.0
H937 H 0.74261 0.85035 0.69831 0.0
H938 H 0.77915 0.83996 0.71228 0.0
H939 H 0.75073 0.84126 0.74597 0.0
C940 C 0.81342 0.80316 0.80866 0.0
C941 C 0.79944 0.79528 0.84221 0.0
C942 C 0.80054 0.79276 0.77513 0.0
C943 C 0.77341 0.77422 0.77429 0.0
C944 C 0.75958 0.76604 0.80771 0.0
H945 H 0.66205 0.74228 0.58139 0.0
H946 H 0.68121 0.75853 0.64224 0.0
C947 C 0.77233 0.77655 0.84116 0.0
C948 C 0.75963 0.76251 0.73881 0.0
H949 H 0.73312 0.79804 0.65779 0.0
C950 C 0.75376 0.72307 0.7325 0.0
C951 C 0.7516 0.78989 0.71167 0.0
C952 C 0.75606 0.83278 0.71737 0.0
C953 C 0.7407 0.71026 0.69973 0.0
C954 C 0.73343 0.73752 0.67215 0.0
C955 C 0.73878 0.77704 0.67874 0.0
C956 C 0.72085 0.72558 0.63603 0.0
C957 C 0.73445 0.66762 0.69512 0.0
C958 C 0.73654 0.70137 0.61219 0.0
C959 C 0.72564 0.69199 0.57741 0.0
C960 C 0.69871 0.70661 0.56541 0.0
C961 C 0.68269 0.73013 0.58969 0.0
C962 C 0.69373 0.7397 0.62447 0.0
H963 H 0.73388 0.65233 0.72193 0.0
H964 H 0.71344 0.66303 0.68094 0.0
H965 H 0.7518 0.65422 0.67824 0.0
H966 H 0.75769 0.69056 0.62004 0.0
H967 H 0.73873 0.67399 0.55954 0.0
H968 H 0.25038 0.76232 0.67077 0.0
H969 H 0.27254 0.74461 0.7292 0.0
H970 H 0.19907 0.79186 0.78705 0.0
H971 H 0.17661 0.80995 0.72845 0.0
H972 H 0.25374 0.81436 0.81675 0.0
H973 H 0.24792 0.65504 0.79693 0.0
H974 H 0.26483 0.68083 0.75988 0.0
H975 H 0.22709 0.68869 0.76962 0.0
C976 C 0.23878 0.76897 0.69584 0.0
C977 C 0.21157 0.78759 0.69468 0.0
C978 C 0.2515 0.75857 0.72933 0.0
C979 C 0.23739 0.7664 0.76265 0.0
C980 C 0.21037 0.78534 0.76173 0.0
H981 H 0.27515 0.67504 0.97942 0.0
H982 H 0.25517 0.69088 0.91925 0.0
C983 C 0.19752 0.79562 0.72815 0.0
C984 C 0.25107 0.75522 0.79831 0.0
H985 H 0.2753 0.67727 0.84779 0.0
C986 C 0.25843 0.78439 0.82354 0.0
C987 C 0.25704 0.71607 0.80742 0.0
C988 C 0.24861 0.68325 0.78225 0.0
C989 C 0.27185 0.77555 0.85727 0.0
C990 C 0.27841 0.73646 0.86602 0.0
C991 C 0.27068 0.70726 0.84098 0.0
C992 C 0.29185 0.72515 0.9018 0.0
C993 C 0.27834 0.8081 0.88365 0.0
C994 C 0.31963 0.73812 0.91189 0.0
C995 C 0.3313 0.72888 0.94642 0.0
C996 C 0.3154 0.70652 0.9717 0.0
C997 C 0.28804 0.69246 0.96088 0.0
C998 C 0.27651 0.70151 0.92637 0.0
H999 H 0.26634 0.83502 0.87654 0.0
H1000 H 0.2727 0.79968 0.91216 0.0
H1001 H 0.30187 0.81464 0.88278 0.0
H1002 H 0.33217 0.7558 0.8932 0.0
H1003 H 0.35238 0.74027 0.95372 0.0
H1004 H 0.23471 0.80515 0.48297 0.0
H1005 H 0.25388 0.79482 0.42136 0.0
H1006 H 0.16972 0.75597 0.38536 0.0
H1007 H 0.15012 0.76831 0.44694 0.0
H1008 H 0.26034 0.73069 0.38773 0.0
H1009 H 0.19002 0.82163 0.29992 0.0
H1010 H 0.18977 0.82545 0.34924 0.0
H1011 H 0.16959 0.7877 0.32666 0.0
C1012 C 0.22012 0.79525 0.46168 0.0
C1013 C 0.19088 0.78775 0.46974 0.0
C1014 C 0.23114 0.78916 0.42642 0.0
C1015 C 0.21336 0.77476 0.39827 0.0
C1016 C 0.18386 0.76802 0.40608 0.0
H1017 H 0.29056 0.6512 0.21234 0.0
H1018 H 0.26683 0.66935 0.26973 0.0
C1019 C 0.17263 0.77496 0.44137 0.0
C1020 C 0.22652 0.76417 0.362 0.0
H1021 H 0.22014 0.77562 0.26911 0.0
C1022 C 0.25155 0.74081 0.36185 0.0
C1023 C 0.21547 0.77753 0.328 0.0
C1024 C 0.18992 0.80479 0.32589 0.0
C1025 C 0.26573 0.73049 0.32911 0.0
C1026 C 0.25398 0.74241 0.29502 0.0
C1027 C 0.22906 0.76599 0.29507 0.0
C1028 C 0.26747 0.73114 0.25917 0.0
C1029 C 0.29371 0.70787 0.33169 0.0
C1030 C 0.27474 0.75951 0.23304 0.0
C1031 C 0.28779 0.74906 0.19968 0.0
C1032 C 0.29408 0.70998 0.19174 0.0
C1033 C 0.28649 0.68161 0.21773 0.0
C1034 C 0.27302 0.69201 0.25077 0.0
H1035 H 0.3044 0.7122 0.35868 0.0
H1036 H 0.289 0.67648 0.32885 0.0
H1037 H 0.30915 0.71643 0.3098 0.0
H1038 H 0.27062 0.78988 0.23861 0.0
H1039 H 0.29327 0.77167 0.18029 0.0
loop_
_geom_bond_atom_site_label_1
_geom_bond_atom_site_label_2
_geom_bond_distance
_geom_bond_site_symmetry_2
_ccdc_geom_bond_type
Fe0 O2 1.918 . S
Fe0 O5 1.997 . S
Fe0 O6 2.002 . S
Fe0 O11 1.976 . S
Fe0 O14 1.996 . S
Fe1 O2 1.918 . S
Fe1 O9 1.997 . S
Fe1 O12 1.996 . S
Fe1 O16 1.976 . S
Fe1 O19 2.002 . S
O2 Fe0 1.918 . S
O2 Fe1 1.918 . S
O2 Fe3 1.918 . S
Fe3 O2 1.918 . S
Fe3 O4 2.002 . S
Fe3 O13 1.976 . S
Fe3 O17 1.996 . S
Fe3 O20 1.997 . S
O4 Fe3 2.002 . S
O4 C21 1.295 . S
O5 Fe0 1.997 . S
O5 C21 1.235 . S
O6 Fe0 2.002 . S
O6 C7 1.295 . S
C7 O6 1.295 . S
C7 O9 1.235 . S
C8 O13 1.287 . S
C8 O14 1.255 . S
O9 Fe1 1.997 . S
O9 C7 1.235 . S
C10 O16 1.287 . S
C10 O17 1.255 . S
O11 Fe0 1.976 . S
O11 C18 1.287 . S
O12 Fe1 1.996 . S
O12 C18 1.255 . S
O13 Fe3 1.976 . S
O13 C8 1.287 . S
O14 Fe0 1.996 . S
O14 C8 1.255 . S
C15 O19 1.295 . S
C15 O20 1.235 . S
O16 Fe1 1.976 . S
O16 C10 1.287 . S
O17 Fe3 1.996 . S
O17 C10 1.255 . S
C18 O11 1.287 . S
C18 O12 1.255 . S
O19 Fe1 2.002 . S
O19 C15 1.295 . S
O20 Fe3 1.997 . S
O20 C15 1.235 . S
C21 O4 1.295 . S
C21 O5 1.235 . S
Fe22 O24 1.918 . S
Fe22 O27 1.997 . S
Fe22 O28 2.002 . S
Fe22 O33 1.976 . S
Fe22 O36 1.996 . S
Fe23 O24 1.918 . S
Fe23 O31 1.997 . S
Fe23 O34 1.996 . S
Fe23 O38 1.976 . S
Fe23 O41 2.002 . S
O24 Fe22 1.918 . S
O24 Fe23 1.918 . S
O24 Fe25 1.918 . S
Fe25 O24 1.918 . S
Fe25 O26 2.002 . S
Fe25 O35 1.976 . S
Fe25 O39 1.996 . S
Fe25 O42 1.997 . S
O26 Fe25 2.002 . S
O26 C43 1.295 . S
O27 Fe22 1.997 . S
O27 C43 1.235 . S
O28 Fe22 2.002 . S
O28 C29 1.295 . S
C29 O28 1.295 . S
C29 O31 1.235 . S
C30 O35 1.287 . S
C30 O36 1.255 . S
O31 Fe23 1.997 . S
O31 C29 1.235 . S
C32 O38 1.287 . S
C32 O39 1.255 . S
O33 Fe22 1.976 . S
O33 C40 1.287 . S
O34 Fe23 1.996 . S
O34 C40 1.255 . S
O35 Fe25 1.976 . S
O35 C30 1.287 . S
O36 Fe22 1.996 . S
O36 C30 1.255 . S
C37 O41 1.295 . S
C37 O42 1.235 . S
O38 Fe23 1.976 . S
O38 C32 1.287 . S
O39 Fe25 1.996 . S
O39 C32 1.255 . S
C40 O33 1.287 . S
C40 O34 1.255 . S
O41 Fe23 2.002 . S
O41 C37 1.295 . S
O42 Fe25 1.997 . S
O42 C37 1.235 . S
C43 O26 1.295 . S
C43 O27 1.235 . S
Fe44 O46 1.918 . S
Fe44 O49 1.997 . S
Fe44 O50 2.002 . S
Fe44 O55 1.976 . S
Fe44 O58 1.996 . S
Fe45 O46 1.918 . S
Fe45 O53 1.997 . S
Fe45 O56 1.996 . S
Fe45 O60 1.976 . S
Fe45 O63 2.002 . S
O46 Fe44 1.918 . S
O46 Fe45 1.918 . S
O46 Fe47 1.918 . S
Fe47 O46 1.918 . S
Fe47 O48 2.002 . S
Fe47 O57 1.976 . S
Fe47 O61 1.996 . S
Fe47 O64 1.997 . S
O48 Fe47 2.002 . S
O48 C65 1.295 . S
O49 Fe44 1.997 . S
O49 C65 1.235 . S
O50 Fe44 2.002 . S
O50 C51 1.295 . S
C51 O50 1.295 . S
C51 O53 1.235 . S
C52 O57 1.287 . S
C52 O58 1.255 . S
O53 Fe45 1.997 . S
O53 C51 1.235 . S
C54 O60 1.287 . S
C54 O61 1.255 . S
O55 Fe44 1.976 . S
O55 C62 1.287 . S
O56 Fe45 1.996 . S
O56 C62 1.255 . S
O57 Fe47 1.976 . S
O57 C52 1.287 . S
O58 Fe44 1.996 . S
O58 C52 1.255 . S
C59 O63 1.295 . S
C59 O64 1.235 . S
O60 Fe45 1.976 . S
O60 C54 1.287 . S
O61 Fe47 1.996 . S
O61 C54 1.255 . S
C62 O55 1.287 . S
C62 O56 1.255 . S
O63 Fe45 2.002 . S
O63 C59 1.295 . S
O64 Fe47 1.997 . S
O64 C59 1.235 . S
C65 O48 1.295 . S
C65 O49 1.235 . S
Fe66 O68 1.918 . S
Fe66 O71 1.997 . S
Fe66 O72 2.002 . S
Fe66 O77 1.976 . S
Fe66 O80 1.996 . S
Fe67 O68 1.918 . S
Fe67 O75 1.997 . S
Fe67 O78 1.996 . S
Fe67 O82 1.976 . S
Fe67 O85 2.002 . S
O68 Fe66 1.918 . S
O68 Fe67 1.918 . S
O68 Fe69 1.918 . S
Fe69 O68 1.918 . S
Fe69 O70 2.002 . S
Fe69 O79 1.976 . S
Fe69 O83 1.996 . S
Fe69 O86 1.997 . S
O70 Fe69 2.002 . S
O70 C87 1.295 . S
O71 Fe66 1.997 . S
O71 C87 1.235 . S
O72 Fe66 2.002 . S
O72 C73 1.295 . S
C73 O72 1.295 . S
C73 O75 1.235 . S
C74 O79 1.287 . S
C74 O80 1.255 . S
O75 Fe67 1.997 . S
O75 C73 1.235 . S
C76 O82 1.287 . S
C76 O83 1.255 . S
O77 Fe66 1.976 . S
O77 C84 1.287 . S
O78 Fe67 1.996 . S
O78 C84 1.255 . S
O79 Fe69 1.976 . S
O79 C74 1.287 . S
O80 Fe66 1.996 . S
O80 C74 1.255 . S
C81 O85 1.295 . S
C81 O86 1.235 . S
O82 Fe67 1.976 . S
O82 C76 1.287 . S
O83 Fe69 1.996 . S
O83 C76 1.255 . S
C84 O77 1.287 . S
C84 O78 1.255 . S
O85 Fe67 2.002 . S
O85 C81 1.295 . S
O86 Fe69 1.997 . S
O86 C81 1.235 . S
C87 O70 1.295 . S
C87 O71 1.235 . S
Fe88 O90 1.918 . S
Fe88 O93 1.997 . S
Fe88 O94 2.002 . S
Fe88 O99 1.976 . S
Fe88 O102 1.996 . S
Fe89 O90 1.918 . S
Fe89 O97 1.997 . S
Fe89 O100 1.996 . S
Fe89 O104 1.976 . S
Fe89 O107 2.002 . S
O90 Fe88 1.918 . S
O90 Fe89 1.918 . S
O90 Fe91 1.918 . S
Fe91 O90 1.918 . S
Fe91 O92 2.002 . S
Fe91 O101 1.976 . S
Fe91 O105 1.996 . S
Fe91 O108 1.997 . S
O92 Fe91 2.002 . S
O92 C109 1.295 . S
O93 Fe88 1.997 . S
O93 C109 1.235 . S
O94 Fe88 2.002 . S
O94 C95 1.295 . S
C95 O94 1.295 . S
C95 O97 1.235 . S
C96 O101 1.287 . S
C96 O102 1.255 . S
O97 Fe89 1.997 . S
O97 C95 1.235 . S
C98 O104 1.287 . S
C98 O105 1.255 . S
O99 Fe88 1.976 . S
O99 C106 1.287 . S
O100 Fe89 1.996 . S
O100 C106 1.255 . S
O101 Fe91 1.976 . S
O101 C96 1.287 . S
O102 Fe88 1.996 . S
O102 C96 1.255 . S
C103 O107 1.295 . S
C103 O108 1.235 . S
O104 Fe89 1.976 . S
O104 C98 1.287 . S
O105 Fe91 1.996 . S
O105 C98 1.255 . S
C106 O99 1.287 . S
C106 O100 1.255 . S
O107 Fe89 2.002 . S
O107 C103 1.295 . S
O108 Fe91 1.997 . S
O108 C103 1.235 . S
C109 O92 1.295 . S
C109 O93 1.235 . S
Fe110 O112 1.918 . S
Fe110 O115 1.997 . S
Fe110 O116 2.002 . S
Fe110 O121 1.976 . S
Fe110 O124 1.996 . S
Fe111 O112 1.918 . S
Fe111 O119 1.997 . S
Fe111 O122 1.996 . S
Fe111 O126 1.976 . S
Fe111 O129 2.002 . S
O112 Fe110 1.918 . S
O112 Fe111 1.918 . S
O112 Fe113 1.918 . S
Fe113 O112 1.918 . S
Fe113 O114 2.002 . S
Fe113 O123 1.976 . S
Fe113 O127 1.996 . S
Fe113 O130 1.997 . S
O114 Fe113 2.002 . S
O114 C131 1.295 . S
O115 Fe110 1.997 . S
O115 C131 1.235 . S
O116 Fe110 2.002 . S
O116 C117 1.295 . S
C117 O116 1.295 . S
C117 O119 1.235 . S
C118 O123 1.287 . S
C118 O124 1.255 . S
O119 Fe111 1.997 . S
O119 C117 1.235 . S
C120 O126 1.287 . S
C120 O127 1.255 . S
O121 Fe110 1.976 . S
O121 C128 1.287 . S
O122 Fe111 1.996 . S
O122 C128 1.255 . S
O123 Fe113 1.976 . S
O123 C118 1.287 . S
O124 Fe110 1.996 . S
O124 C118 1.255 . S
C125 O129 1.295 . S
C125 O130 1.235 . S
O126 Fe111 1.976 . S
O126 C120 1.287 . S
O127 Fe113 1.996 . S
O127 C120 1.255 . S
C128 O121 1.287 . S
C128 O122 1.255 . S
O129 Fe111 2.002 . S
O129 C125 1.295 . S
O130 Fe113 1.997 . S
O130 C125 1.235 . S
C131 O114 1.295 . S
C131 O115 1.235 . S
Fe132 O134 1.918 . S
Fe132 O137 1.997 . S
Fe132 O138 2.002 . S
Fe132 O143 1.976 . S
Fe132 O146 1.996 . S
Fe133 O134 1.918 . S
Fe133 O141 1.997 . S
Fe133 O144 1.996 . S
Fe133 O148 1.976 . S
Fe133 O151 2.002 . S
O134 Fe132 1.918 . S
O134 Fe133 1.918 . S
O134 Fe135 1.918 . S
Fe135 O134 1.918 . S
Fe135 O136 2.002 . S
Fe135 O145 1.976 . S
Fe135 O149 1.996 . S
Fe135 O152 1.997 . S
O136 Fe135 2.002 . S
O136 C153 1.295 . S
O137 Fe132 1.997 . S
O137 C153 1.235 . S
O138 Fe132 2.002 . S
O138 C139 1.295 . S
C139 O138 1.295 . S
C139 O141 1.235 . S
C140 O145 1.287 . S
C140 O146 1.255 . S
O141 Fe133 1.997 . S
O141 C139 1.235 . S
C142 O148 1.287 . S
C142 O149 1.255 . S
O143 Fe132 1.976 . S
O143 C150 1.287 . S
O144 Fe133 1.996 . S
O144 C150 1.255 . S
O145 Fe135 1.976 . S
O145 C140 1.287 . S
O146 Fe132 1.996 . S
O146 C140 1.255 . S
C147 O151 1.295 . S
C147 O152 1.235 . S
O148 Fe133 1.976 . S
O148 C142 1.287 . S
O149 Fe135 1.996 . S
O149 C142 1.255 . S
C150 O143 1.287 . S
C150 O144 1.255 . S
O151 Fe133 2.002 . S
O151 C147 1.295 . S
O152 Fe135 1.997 . S
O152 C147 1.235 . S
C153 O136 1.295 . S
C153 O137 1.235 . S
Fe154 O156 1.918 . S
Fe154 O159 1.997 . S
Fe154 O160 2.002 . S
Fe154 O165 1.976 . S
Fe154 O168 1.996 . S
Fe155 O156 1.918 . S
Fe155 O163 1.997 . S
Fe155 O166 1.996 . S
Fe155 O170 1.976 . S
Fe155 O173 2.002 . S
O156 Fe154 1.918 . S
O156 Fe155 1.918 . S
O156 Fe157 1.918 . S
Fe157 O156 1.918 . S
Fe157 O158 2.002 . S
Fe157 O167 1.976 . S
Fe157 O171 1.996 . S
Fe157 O174 1.997 . S
O158 Fe157 2.002 . S
O158 C175 1.295 . S
O159 Fe154 1.997 . S
O159 C175 1.235 . S
O160 Fe154 2.002 . S
O160 C161 1.295 . S
C161 O160 1.295 . S
C161 O163 1.235 . S
C162 O167 1.287 . S
C162 O168 1.255 . S
O163 Fe155 1.997 . S
O163 C161 1.235 . S
C164 O170 1.287 . S
C164 O171 1.255 . S
O165 Fe154 1.976 . S
O165 C172 1.287 . S
O166 Fe155 1.996 . S
O166 C172 1.255 . S
O167 Fe157 1.976 . S
O167 C162 1.287 . S
O168 Fe154 1.996 . S
O168 C162 1.255 . S
C169 O173 1.295 . S
C169 O174 1.235 . S
O170 Fe155 1.976 . S
O170 C164 1.287 . S
O171 Fe157 1.996 . S
O171 C164 1.255 . S
C172 O165 1.287 . S
C172 O166 1.255 . S
O173 Fe155 2.002 . S
O173 C169 1.295 . S
O174 Fe157 1.997 . S
O174 C169 1.235 . S
C175 O158 1.295 . S
C175 O159 1.235 . S
H176 C184 0.929 . S
H177 C186 0.930 . S
H178 C188 0.930 . S
H179 C191 0.929 . S
H180 C194 0.930 . S
H181 C196 0.960 . S
H182 C196 0.960 . S
H183 C196 0.960 1_455 S
C184 H176 0.929 . S
C184 C185 1.377 . S
C184 C186 1.384 . S
C185 C184 1.377 . S
C185 C191 1.390 . S
C186 H177 0.930 . S
C186 C184 1.384 . S
C186 C187 1.372 . S
C187 C186 1.372 . S
C187 C188 1.400 . S
C187 C192 1.490 . S
C188 H178 0.930 . S
C188 C187 1.400 . S
C188 C191 1.386 . S
H189 C205 0.930 . S
H190 C206 0.931 . S
C191 H179 0.929 . S
C191 C185 1.390 . S
C191 C188 1.386 . S
C192 C187 1.490 . S
C192 C194 1.395 . S
C192 C195 1.403 1_455 S
H193 C199 0.930 . S
C194 H180 0.930 . S
C194 C192 1.395 . S
C194 C197 1.403 . S
C195 C192 1.403 1_655 S
C195 C196 1.524 . S
C195 C199 1.400 . S
C196 H181 0.960 . S
C196 H182 0.960 . S
C196 H183 0.960 1_655 S
C196 C195 1.524 . S
C197 C194 1.403 . S
C197 C198 1.392 1_455 S
C197 C201 1.495 . S
C198 C197 1.392 1_655 S
C198 C199 1.385 . S
C198 C200 1.478 . S
C199 H193 0.930 . S
C199 C195 1.400 . S
C199 C198 1.385 . S
C200 C198 1.478 . S
C200 C202 1.381 . S
C200 C206 1.383 . S
C201 C197 1.495 . S
C201 H207 0.959 . S
C201 H208 0.961 . S
C201 H209 0.960 1_455 S
C202 C200 1.381 . S
C202 C203 1.394 . S
C202 H210 0.930 . S
C203 C202 1.394 . S
C203 C204 1.383 . S
C203 H211 0.929 . S
C204 C203 1.383 . S
C204 C205 1.377 . S
C205 H189 0.930 . S
C205 C204 1.377 . S
C205 C206 1.379 . S
C206 H190 0.931 . S
C206 C200 1.383 . S
C206 C205 1.379 . S
H207 C201 0.959 . S
H208 C201 0.961 . S
H209 C201 0.960 1_655 S
H210 C202 0.930 . S
H211 C203 0.929 . S
H212 C220 0.929 . S
H213 C222 0.930 . S
H214 C224 0.930 . S
H215 C227 0.929 . S
H216 C230 0.930 . S
H217 C232 0.960 . S
H218 C232 0.960 . S
H219 C232 0.960 . S
C220 H212 0.929 . S
C220 C221 1.377 . S
C220 C222 1.384 . S
C221 C220 1.377 . S
C221 C227 1.390 . S
C222 H213 0.930 . S
C222 C220 1.384 . S
C222 C223 1.372 . S
C223 C222 1.372 . S
C223 C224 1.400 . S
C223 C228 1.490 . S
C224 H214 0.930 . S
C224 C223 1.400 . S
C224 C227 1.386 . S
H225 C241 0.930 . S
H226 C242 0.931 . S
C227 H215 0.929 . S
C227 C221 1.390 . S
C227 C224 1.386 . S
C228 C223 1.490 . S
C228 C230 1.395 . S
C228 C231 1.403 . S
H229 C235 0.930 . S
C230 H216 0.930 . S
C230 C228 1.395 . S
C230 C233 1.403 . S
C231 C228 1.403 . S
C231 C232 1.524 . S
C231 C235 1.400 . S
C232 H217 0.960 . S
C232 H218 0.960 . S
C232 H219 0.960 . S
C232 C231 1.524 . S
C233 C230 1.403 . S
C233 C234 1.392 . S
C233 C237 1.495 . S
C234 C233 1.392 . S
C234 C235 1.385 . S
C234 C236 1.478 . S
C235 H229 0.930 . S
C235 C231 1.400 . S
C235 C234 1.385 . S
C236 C234 1.478 . S
C236 C238 1.381 . S
C236 C242 1.383 . S
C237 C233 1.495 . S
C237 H243 0.959 . S
C237 H244 0.961 . S
C237 H245 0.960 . S
C238 C236 1.381 . S
C238 C239 1.394 . S
C238 H246 0.930 . S
C239 C238 1.394 . S
C239 C240 1.383 . S
C239 H247 0.929 . S
C240 C239 1.383 . S
C240 C241 1.377 . S
C241 H225 0.930 . S
C241 C240 1.377 . S
C241 C242 1.379 . S
C242 H226 0.931 . S
C242 C236 1.383 . S
C242 C241 1.379 . S
H243 C237 0.959 . S
H244 C237 0.961 . S
H245 C237 0.960 . S
H246 C238 0.930 . S
H247 C239 0.929 . S
H248 C256 0.929 . S
H249 C258 0.930 . S
H250 C260 0.930 . S
H251 C263 0.929 . S
H252 C266 0.930 . S
H253 C268 0.960 1_455 S
H254 C268 0.960 . S
H255 C268 0.960 . S
C256 H248 0.929 . S
C256 C257 1.377 . S
C256 C258 1.384 . S
C257 C256 1.377 . S
C257 C263 1.390 . S
C258 H249 0.930 . S
C258 C256 1.384 . S
C258 C259 1.372 . S
C259 C258 1.372 . S
C259 C260 1.400 . S
C259 C264 1.490 . S
C260 H250 0.930 . S
C260 C259 1.400 . S
C260 C263 1.386 . S
H261 C277 0.930 . S
H262 C278 0.931 . S
C263 H251 0.929 . S
C263 C257 1.390 . S
C263 C260 1.386 . S
C264 C259 1.490 . S
C264 C266 1.395 . S
C264 C267 1.403 . S
H265 C271 0.930 . S
C266 H252 0.930 . S
C266 C264 1.395 . S
C266 C269 1.403 . S
C267 C264 1.403 . S
C267 C268 1.524 . S
C267 C271 1.400 1_655 S
C268 H253 0.960 1_655 S
C268 H254 0.960 . S
C268 H255 0.960 . S
C268 C267 1.524 . S
C269 C266 1.403 . S
C269 C270 1.392 1_655 S
C269 C273 1.495 . S
C270 C269 1.392 1_455 S
C270 C271 1.385 . S
C270 C272 1.478 . S
C271 H265 0.930 . S
C271 C267 1.400 1_455 S
C271 C270 1.385 . S
C272 C270 1.478 . S
C272 C274 1.381 . S
C272 C278 1.383 . S
C273 C269 1.495 . S
C273 H279 0.959 . S
C273 H280 0.961 1_655 S
C273 H281 0.960 . S
C274 C272 1.381 . S
C274 C275 1.394 . S
C274 H282 0.930 . S
C275 C274 1.394 . S
C275 C276 1.383 . S
C275 H283 0.929 . S
C276 C275 1.383 . S
C276 C277 1.377 . S
C277 H261 0.930 . S
C277 C276 1.377 . S
C277 C278 1.379 . S
C278 H262 0.931 . S
C278 C272 1.383 . S
C278 C277 1.379 . S
H279 C273 0.959 . S
H280 C273 0.961 1_455 S
H281 C273 0.960 . S
H282 C274 0.930 . S
H283 C275 0.929 . S
H284 C292 0.929 . S
H285 C294 0.930 . S
H286 C296 0.930 . S
H287 C299 0.929 . S
H288 C302 0.930 . S
H289 C304 0.960 . S
H290 C304 0.960 . S
H291 C304 0.960 . S
C292 H284 0.929 . S
C292 C293 1.377 . S
C292 C294 1.384 . S
C293 C292 1.377 . S
C293 C299 1.390 . S
C294 H285 0.930 . S
C294 C292 1.384 . S
C294 C295 1.372 . S
C295 C294 1.372 . S
C295 C296 1.400 . S
C295 C300 1.490 . S
C296 H286 0.930 . S
C296 C295 1.400 . S
C296 C299 1.386 . S
H297 C313 0.930 . S
H298 C314 0.931 . S
C299 H287 0.929 . S
C299 C293 1.390 . S
C299 C296 1.386 . S
C300 C295 1.490 . S
C300 C302 1.395 . S
C300 C303 1.403 . S
H301 C307 0.930 . S
C302 H288 0.930 . S
C302 C300 1.395 . S
C302 C305 1.403 . S
C303 C300 1.403 . S
C303 C304 1.524 . S
C303 C307 1.400 . S
C304 H289 0.960 . S
C304 H290 0.960 . S
C304 H291 0.960 . S
C304 C303 1.524 . S
C305 C302 1.403 . S
C305 C306 1.392 . S
C305 C309 1.495 . S
C306 C305 1.392 . S
C306 C307 1.385 . S
C306 C308 1.478 . S
C307 H301 0.930 . S
C307 C303 1.400 . S
C307 C306 1.385 . S
C308 C306 1.478 . S
C308 C310 1.381 . S
C308 C314 1.383 . S
C309 C305 1.495 . S
C309 H315 0.959 . S
C309 H316 0.961 . S
C309 H317 0.960 . S
C310 C308 1.381 . S
C310 C311 1.394 . S
C310 H318 0.930 . S
C311 C310 1.394 . S
C311 C312 1.383 . S
C311 H319 0.929 . S
C312 C311 1.383 . S
C312 C313 1.377 . S
C313 H297 0.930 . S
C313 C312 1.377 . S
C313 C314 1.379 . S
C314 H298 0.931 . S
C314 C308 1.383 . S
C314 C313 1.379 . S
H315 C309 0.959 . S
H316 C309 0.961 . S
H317 C309 0.960 . S
H318 C310 0.930 . S
H319 C311 0.929 . S
H320 C328 0.929 . S
H321 C330 0.930 . S
H322 C332 0.930 . S
H323 C335 0.929 . S
H324 C338 0.930 . S
H325 C340 0.960 . S
H326 C340 0.960 1_455 S
H327 C340 0.960 . S
C328 H320 0.929 . S
C328 C329 1.377 . S
C328 C330 1.384 . S
C329 C328 1.377 . S
C329 C335 1.390 . S
C330 H321 0.930 . S
C330 C328 1.384 . S
C330 C331 1.372 . S
C331 C330 1.372 . S
C331 C332 1.400 . S
C331 C336 1.490 . S
C332 H322 0.930 . S
C332 C331 1.400 . S
C332 C335 1.386 . S
H333 C349 0.930 . S
H334 C350 0.931 1_554 S
C335 H323 0.929 . S
C335 C329 1.390 . S
C335 C332 1.386 . S
C336 C331 1.490 . S
C336 C338 1.395 1_545 S
C336 C339 1.403 1_454 S
H337 C343 0.930 . S
C338 H324 0.930 . S
C338 C336 1.395 1_565 S
C338 C341 1.403 . S
C339 C336 1.403 1_656 S
C339 C340 1.524 . S
C339 C343 1.400 . S
C340 H325 0.960 . S
C340 H326 0.960 1_655 S
C340 H327 0.960 . S
C340 C339 1.524 . S
C341 C338 1.403 . S
C341 C342 1.392 1_454 S
C341 C345 1.495 . S
C342 C341 1.392 1_656 S
C342 C343 1.385 1_565 S
C342 C344 1.478 . S
C343 H337 0.930 . S
C343 C339 1.400 . S
C343 C342 1.385 1_545 S
C344 C342 1.478 . S
C344 C346 1.381 . S
C344 C350 1.383 . S
C345 C341 1.495 . S
C345 H351 0.959 . S
C345 H352 0.961 1_455 S
C345 H353 0.960 . S
C346 C344 1.381 . S
C346 C347 1.394 . S
C346 H354 0.930 . S
C347 C346 1.394 . S
C347 C348 1.383 . S
C347 H355 0.929 . S
C348 C347 1.383 . S
C348 C349 1.377 . S
C349 H333 0.930 . S
C349 C348 1.377 . S
C349 C350 1.379 . S
C350 H334 0.931 1_556 S
C350 C344 1.383 . S
C350 C349 1.379 . S
H351 C345 0.959 . S
H352 C345 0.961 1_655 S
H353 C345 0.960 . S
H354 C346 0.930 . S
H355 C347 0.929 . S
H356 C364 0.929 . S
H357 C366 0.930 . S
H358 C368 0.930 . S
H359 C371 0.929 . S
H360 C374 0.930 . S
H361 C376 0.960 . S
H362 C376 0.960 . S
H363 C376 0.960 . S
C364 H356 0.929 . S
C364 C365 1.377 . S
C364 C366 1.384 . S
C365 C364 1.377 . S
C365 C371 1.390 . S
C366 H357 0.930 . S
C366 C364 1.384 . S
C366 C367 1.372 . S
C367 C366 1.372 . S
C367 C368 1.400 . S
C367 C372 1.490 . S
C368 H358 0.930 . S
C368 C367 1.400 . S
C368 C371 1.386 . S
H369 C385 0.930 . S
H370 C386 0.931 . S
C371 H359 0.929 . S
C371 C365 1.390 . S
C371 C368 1.386 . S
C372 C367 1.490 . S
C372 C374 1.395 . S
C372 C375 1.403 . S
H373 C379 0.930 . S
C374 H360 0.930 . S
C374 C372 1.395 . S
C374 C377 1.403 . S
C375 C372 1.403 . S
C375 C376 1.524 . S
C375 C379 1.400 . S
C376 H361 0.960 . S
C376 H362 0.960 . S
C376 H363 0.960 . S
C376 C375 1.524 . S
C377 C374 1.403 . S
C377 C378 1.392 . S
C377 C381 1.495 . S
C378 C377 1.392 . S
C378 C379 1.385 . S
C378 C380 1.478 . S
C379 H373 0.930 . S
C379 C375 1.400 . S
C379 C378 1.385 . S
C380 C378 1.478 . S
C380 C382 1.381 . S
C380 C386 1.383 . S
C381 C377 1.495 . S
C381 H387 0.959 . S
C381 H388 0.961 . S
C381 H389 0.960 . S
C382 C380 1.381 . S
C382 C383 1.394 . S
C382 H390 0.930 . S
C383 C382 1.394 . S
C383 C384 1.383 . S
C383 H391 0.929 . S
C384 C383 1.383 . S
C384 C385 1.377 . S
C385 H369 0.930 . S
C385 C384 1.377 . S
C385 C386 1.379 . S
C386 H370 0.931 . S
C386 C380 1.383 . S
C386 C385 1.379 . S
H387 C381 0.959 . S
H388 C381 0.961 . S
H389 C381 0.960 . S
H390 C382 0.930 . S
H391 C383 0.929 . S
H392 C400 0.929 . S
H393 C402 0.930 1_556 S
H394 C404 0.930 . S
H395 C407 0.929 . S
H396 C410 0.930 . S
H397 C412 0.960 1_556 S
H398 C412 0.960 1_556 S
H399 C412 0.960 . S
C400 H392 0.929 . S
C400 C401 1.377 . S
C400 C402 1.384 . S
C401 C400 1.377 . S
C401 C407 1.390 . S
C402 H393 0.930 1_554 S
C402 C400 1.384 . S
C402 C403 1.372 . S
C403 C402 1.372 . S
C403 C404 1.400 . S
C403 C408 1.490 . S
C404 H394 0.930 . S
C404 C403 1.400 . S
C404 C407 1.386 . S
H405 C421 0.932 . S
H406 C422 0.931 1_554 S
C407 H395 0.929 . S
C407 C401 1.390 . S
C407 C404 1.386 . S
C408 C403 1.490 . S
C408 C410 1.395 . S
C408 C411 1.403 . S
H409 C415 0.930 . S
C410 H396 0.930 . S
C410 C408 1.395 . S
C410 C413 1.403 1_554 S
C411 C408 1.403 . S
C411 C412 1.524 . S
C411 C415 1.400 1_554 S
C412 H397 0.960 1_554 S
C412 H398 0.960 1_554 S
C412 H399 0.960 . S
C412 C411 1.524 . S
C413 C410 1.403 1_556 S
C413 C414 1.392 . S
C413 C417 1.495 . S
C414 C413 1.392 . S
C414 C415 1.385 . S
C414 C416 1.478 . S
C415 H409 0.930 . S
C415 C411 1.400 1_556 S
C415 C414 1.385 . S
C416 C414 1.478 . S
C416 C418 1.381 . S
C416 C422 1.383 . S
C417 C413 1.495 . S
C417 H423 0.959 . S
C417 H424 0.961 1_556 S
C417 H425 0.960 . S
C418 C416 1.381 . S
C418 C419 1.394 . S
C418 H426 0.930 . S
C419 C418 1.394 . S
C419 C420 1.383 . S
C419 H427 0.929 . S
C420 C419 1.383 . S
C420 C421 1.377 . S
C421 H405 0.932 . S
C421 C420 1.377 . S
C421 C422 1.379 . S
C422 H406 0.931 1_556 S
C422 C416 1.383 . S
C422 C421 1.379 . S
H423 C417 0.959 . S
H424 C417 0.961 1_554 S
H425 C417 0.960 . S
H426 C418 0.930 . S
H427 C419 0.929 . S
H428 C436 0.929 . S
H429 C438 0.930 . S
H430 C440 0.930 . S
H431 C443 0.929 . S
H432 C446 0.930 . S
H433 C448 0.960 . S
H434 C448 0.960 . S
H435 C448 0.960 . S
C436 H428 0.929 . S
C436 C437 1.377 . S
C436 C438 1.384 . S
C437 C436 1.377 . S
C437 C443 1.390 . S
C438 H429 0.930 . S
C438 C436 1.384 . S
C438 C439 1.372 . S
C439 C438 1.372 . S
C439 C440 1.400 . S
C439 C444 1.490 . S
C440 H430 0.930 . S
C440 C439 1.400 . S
C440 C443 1.386 . S
H441 C457 0.930 . S
H442 C458 0.931 . S
C443 H431 0.929 . S
C443 C437 1.390 . S
C443 C440 1.386 . S
C444 C439 1.490 . S
C444 C446 1.395 . S
C444 C447 1.403 1_655 S
H445 C451 0.930 . S
C446 H432 0.930 . S
C446 C444 1.395 . S
C446 C449 1.403 1_545 S
C447 C444 1.403 1_455 S
C447 C448 1.524 . S
C447 C451 1.400 1_545 S
C448 H433 0.960 . S
C448 H434 0.960 . S
C448 H435 0.960 . S
C448 C447 1.524 . S
C449 C446 1.403 1_565 S
C449 C450 1.392 1_655 S
C449 C453 1.495 . S
C450 C449 1.392 1_455 S
C450 C451 1.385 . S
C450 C452 1.478 . S
C451 H445 0.930 . S
C451 C447 1.400 1_565 S
C451 C450 1.385 . S
C452 C450 1.478 . S
C452 C454 1.381 . S
C452 C458 1.383 . S
C453 C449 1.495 . S
C453 H459 0.959 . S
C453 H460 0.961 . S
C453 H461 0.960 . S
C454 C452 1.381 . S
C454 C455 1.394 . S
C454 H462 0.930 . S
C455 C454 1.394 . S
C455 C456 1.383 . S
C455 H463 0.929 . S
C456 C455 1.383 . S
C456 C457 1.377 . S
C457 H441 0.930 . S
C457 C456 1.377 . S
C457 C458 1.379 . S
C458 H442 0.931 . S
C458 C452 1.383 . S
C458 C457 1.379 . S
H459 C453 0.959 . S
H460 C453 0.961 . S
H461 C453 0.960 . S
H462 C454 0.930 . S
H463 C455 0.929 . S
H464 C472 0.929 . S
H465 C474 0.930 . S
H466 C476 0.930 . S
H467 C479 0.929 . S
H468 C482 0.930 . S
H469 C484 0.960 . S
H470 C484 0.960 . S
H471 C484 0.960 . S
C472 H464 0.929 . S
C472 C473 1.377 . S
C472 C474 1.384 . S
C473 C472 1.377 . S
C473 C479 1.390 . S
C474 H465 0.930 . S
C474 C472 1.384 . S
C474 C475 1.372 . S
C475 C474 1.372 . S
C475 C476 1.400 . S
C475 C480 1.490 . S
C476 H466 0.930 . S
C476 C475 1.400 . S
C476 C479 1.386 . S
H477 C493 0.930 . S
H478 C494 0.931 . S
C479 H467 0.929 . S
C479 C473 1.390 . S
C479 C476 1.386 . S
C480 C475 1.490 . S
C480 C482 1.395 . S
C480 C483 1.403 . S
H481 C487 0.930 1_545 S
C482 H468 0.930 . S
C482 C480 1.395 . S
C482 C485 1.403 . S
C483 C480 1.403 . S
C483 C484 1.524 . S
C483 C487 1.400 . S
C484 H469 0.960 . S
C484 H470 0.960 . S
C484 H471 0.960 . S
C484 C483 1.524 . S
C485 C482 1.403 . S
C485 C486 1.399 . S
C485 C489 1.495 . S
C486 C485 1.399 . S
C486 C487 1.389 . S
C486 C488 1.467 1_565 S
C487 H481 0.930 1_565 S
C487 C483 1.400 . S
C487 C486 1.389 . S
C488 C486 1.467 1_545 S
C488 C490 1.381 . S
C488 C494 1.383 . S
C489 C485 1.495 . S
C489 H495 0.959 . S
C489 H496 0.961 . S
C489 H497 0.960 1_565 S
C490 C488 1.381 . S
C490 C491 1.394 . S
C490 H498 0.930 . S
C491 C490 1.394 . S
C491 C492 1.383 . S
C491 H499 0.929 . S
C492 C491 1.383 . S
C492 C493 1.377 . S
C493 H477 0.930 . S
C493 C492 1.377 . S
C493 C494 1.379 . S
C494 H478 0.931 . S
C494 C488 1.383 . S
C494 C493 1.379 . S
H495 C489 0.959 . S
H496 C489 0.961 . S
H497 C489 0.960 1_545 S
H498 C490 0.930 . S
H499 C491 0.929 . S
H500 C508 0.929 . S
H501 C510 0.930 . S
H502 C512 0.930 . S
H503 C515 0.929 . S
H504 C518 0.930 . S
H505 C520 0.960 . S
H506 C520 0.960 . S
H507 C520 0.960 . S
C508 H500 0.929 . S
C508 C509 1.377 . S
C508 C510 1.384 . S
C509 C508 1.377 . S
C509 C515 1.390 . S
C510 H501 0.930 . S
C510 C508 1.384 . S
C510 C511 1.372 . S
C511 C510 1.372 . S
C511 C512 1.400 . S
C511 C516 1.490 . S
C512 H502 0.930 . S
C512 C511 1.400 . S
C512 C515 1.386 . S
H513 C529 0.930 . S
H514 C530 0.931 . S
C515 H503 0.929 . S
C515 C509 1.390 . S
C515 C512 1.386 . S
C516 C511 1.490 . S
C516 C518 1.395 . S
C516 C519 1.403 . S
H517 C523 0.930 . S
C518 H504 0.930 . S
C518 C516 1.395 . S
C518 C521 1.403 . S
C519 C516 1.403 . S
C519 C520 1.524 . S
C519 C523 1.400 . S
C520 H505 0.960 . S
C520 H506 0.960 . S
C520 H507 0.960 . S
C520 C519 1.524 . S
C521 C518 1.403 . S
C521 C522 1.392 . S
C521 C525 1.495 . S
C522 C521 1.392 . S
C522 C523 1.385 . S
C522 C524 1.478 . S
C523 H517 0.930 . S
C523 C519 1.400 . S
C523 C522 1.385 . S
C524 C522 1.478 . S
C524 C526 1.381 . S
C524 C530 1.383 . S
C525 C521 1.495 . S
C525 H531 0.959 . S
C525 H532 0.961 . S
C525 H533 0.960 . S
C526 C524 1.381 . S
C526 C527 1.394 . S
C526 H534 0.930 . S
C527 C526 1.394 . S
C527 C528 1.383 . S
C527 H535 0.929 . S
C528 C527 1.383 . S
C528 C529 1.377 . S
C529 H513 0.930 . S
C529 C528 1.377 . S
C529 C530 1.379 . S
C530 H514 0.931 . S
C530 C524 1.383 . S
C530 C529 1.379 . S
H531 C525 0.959 . S
H532 C525 0.961 . S
H533 C525 0.960 . S
H534 C526 0.930 . S
H535 C527 0.929 . S
H536 C544 0.929 . S
H537 C546 0.930 . S
H538 C548 0.930 . S
H539 C551 0.929 . S
H540 C554 0.930 . S
H541 C556 0.960 . S
H542 C556 0.960 . S
H543 C556 0.960 . S
C544 H536 0.929 . S
C544 C545 1.377 . S
C544 C546 1.384 . S
C545 C544 1.377 . S
C545 C551 1.390 . S
C546 H537 0.930 . S
C546 C544 1.384 . S
C546 C547 1.372 . S
C547 C546 1.372 . S
C547 C548 1.400 . S
C547 C552 1.490 . S
C548 H538 0.930 . S
C548 C547 1.400 . S
C548 C551 1.386 . S
H549 C565 0.930 . S
H550 C566 0.931 . S
C551 H539 0.929 . S
C551 C545 1.390 . S
C551 C548 1.386 . S
C552 C547 1.490 . S
C552 C554 1.395 . S
C552 C555 1.403 . S
H553 C559 0.930 . S
C554 H540 0.930 . S
C554 C552 1.395 . S
C554 C557 1.403 . S
C555 C552 1.403 . S
C555 C556 1.524 . S
C555 C559 1.400 . S
C556 H541 0.960 . S
C556 H542 0.960 . S
C556 H543 0.960 . S
C556 C555 1.524 . S
C557 C554 1.403 . S
C557 C558 1.392 . S
C557 C561 1.495 . S
C558 C557 1.392 . S
C558 C559 1.385 . S
C558 C560 1.478 . S
C559 H553 0.930 . S
C559 C555 1.400 . S
C559 C558 1.385 . S
C560 C558 1.478 . S
C560 C562 1.381 . S
C560 C566 1.383 . S
C561 C557 1.495 . S
C561 H567 0.959 . S
C561 H568 0.961 . S
C561 H569 0.960 . S
C562 C560 1.381 . S
C562 C563 1.394 . S
C562 H570 0.930 . S
C563 C562 1.394 . S
C563 C564 1.383 . S
C563 H571 0.929 . S
C564 C563 1.383 . S
C564 C565 1.377 . S
C565 H549 0.930 . S
C565 C564 1.377 . S
C565 C566 1.379 . S
C566 H550 0.931 . S
C566 C560 1.383 . S
C566 C565 1.379 . S
H567 C561 0.959 . S
H568 C561 0.961 . S
H569 C561 0.960 . S
H570 C562 0.930 . S
H571 C563 0.929 . S
H572 C580 0.929 . S
H573 C582 0.930 . S
H574 C584 0.930 . S
H575 C587 0.929 . S
H576 C590 0.930 . S
H577 C592 0.960 . S
H578 C592 0.960 . S
H579 C592 0.960 . S
C580 H572 0.929 . S
C580 C581 1.377 . S
C580 C582 1.384 . S
C581 C580 1.377 . S
C581 C587 1.390 . S
C582 H573 0.930 . S
C582 C580 1.384 . S
C582 C583 1.372 . S
C583 C582 1.372 . S
C583 C584 1.400 . S
C583 C588 1.490 1_545 S
C584 H574 0.930 . S
C584 C583 1.400 . S
C584 C587 1.386 . S
H585 C601 0.930 . S
H586 C602 0.931 . S
C587 H575 0.929 . S
C587 C581 1.390 . S
C587 C584 1.386 . S
C588 C583 1.490 1_565 S
C588 C590 1.395 . S
C588 C591 1.403 . S
H589 C595 0.930 . S
C590 H576 0.930 . S
C590 C588 1.395 . S
C590 C593 1.403 . S
C591 C588 1.403 . S
C591 C592 1.524 1_565 S
C591 C595 1.400 . S
C592 H577 0.960 . S
C592 H578 0.960 . S
C592 H579 0.960 . S
C592 C591 1.524 1_545 S
C593 C590 1.403 . S
C593 C594 1.392 . S
C593 C597 1.495 . S
C594 C593 1.392 . S
C594 C595 1.385 . S
C594 C596 1.478 . S
C595 H589 0.930 . S
C595 C591 1.400 . S
C595 C594 1.385 . S
C596 C594 1.478 . S
C596 C598 1.381 . S
C596 C602 1.383 . S
C597 C593 1.495 . S
C597 H603 0.959 . S
C597 H604 0.961 . S
C597 H605 0.960 . S
C598 C596 1.381 . S
C598 C599 1.394 . S
C598 H606 0.930 . S
C599 C598 1.394 . S
C599 C600 1.383 . S
C599 H607 0.929 . S
C600 C599 1.383 . S
C600 C601 1.377 . S
C601 H585 0.930 . S
C601 C600 1.377 . S
C601 C602 1.379 . S
C602 H586 0.931 . S
C602 C596 1.383 . S
C602 C601 1.379 . S
H603 C597 0.959 . S
H604 C597 0.961 . S
H605 C597 0.960 . S
H606 C598 0.930 . S
H607 C599 0.929 . S
H608 C616 0.929 . S
H609 C618 0.930 . S
H610 C620 0.930 . S
H611 C623 0.929 . S
H612 C626 0.930 . S
H613 C628 0.960 . S
H614 C628 0.960 . S
H615 C628 0.960 . S
C616 H608 0.929 . S
C616 C617 1.377 . S
C616 C618 1.384 . S
C617 C616 1.377 . S
C617 C623 1.390 . S
C618 H609 0.930 . S
C618 C616 1.384 . S
C618 C619 1.372 . S
C619 C618 1.372 . S
C619 C620 1.400 . S
C619 C624 1.490 . S
C620 H610 0.930 . S
C620 C619 1.400 . S
C620 C623 1.386 . S
H621 C637 0.930 . S
H622 C638 0.931 . S
C623 H611 0.929 . S
C623 C617 1.390 . S
C623 C620 1.386 . S
C624 C619 1.490 . S
C624 C626 1.395 . S
C624 C627 1.403 . S
H625 C631 0.930 1_565 S
C626 H612 0.930 . S
C626 C624 1.395 . S
C626 C629 1.403 . S
C627 C624 1.403 . S
C627 C628 1.524 . S
C627 C631 1.400 . S
C628 H613 0.960 . S
C628 H614 0.960 . S
C628 H615 0.960 . S
C628 C627 1.524 . S
C629 C626 1.403 . S
C629 C630 1.392 . S
C629 C633 1.495 . S
C630 C629 1.392 . S
C630 C631 1.385 . S
C630 C632 1.478 1_545 S
C631 H625 0.930 1_545 S
C631 C627 1.400 . S
C631 C630 1.385 . S
C632 C630 1.478 1_565 S
C632 C634 1.381 . S
C632 C638 1.383 . S
C633 C629 1.495 . S
C633 H639 0.959 . S
C633 H640 0.961 . S
C633 H641 0.960 . S
C634 C632 1.381 . S
C634 C635 1.394 . S
C634 H642 0.930 . S
C635 C634 1.394 . S
C635 C636 1.383 . S
C635 H643 0.929 . S
C636 C635 1.383 . S
C636 C637 1.377 . S
C637 H621 0.930 . S
C637 C636 1.377 . S
C637 C638 1.379 . S
C638 H622 0.931 . S
C638 C632 1.383 . S
C638 C637 1.379 . S
H639 C633 0.959 . S
H640 C633 0.961 . S
H641 C633 0.960 . S
H642 C634 0.930 . S
H643 C635 0.929 . S
H644 C652 0.929 . S
H645 C654 0.930 . S
H646 C656 0.930 . S
H647 C659 0.929 . S
H648 C662 0.930 . S
H649 C664 0.960 . S
H650 C664 0.960 . S
H651 C664 0.960 . S
C652 H644 0.929 . S
C652 C653 1.377 . S
C652 C654 1.384 . S
C653 C652 1.377 . S
C653 C659 1.390 . S
C654 H645 0.930 . S
C654 C652 1.384 . S
C654 C655 1.372 . S
C655 C654 1.372 . S
C655 C656 1.400 . S
C655 C660 1.490 . S
C656 H646 0.930 . S
C656 C655 1.400 . S
C656 C659 1.386 . S
H657 C673 0.930 . S
H658 C674 0.931 . S
C659 H647 0.929 . S
C659 C653 1.390 . S
C659 C656 1.386 . S
C660 C655 1.490 . S
C660 C662 1.395 . S
C660 C663 1.403 . S
H661 C667 0.930 . S
C662 H648 0.930 . S
C662 C660 1.395 . S
C662 C665 1.403 . S
C663 C660 1.403 . S
C663 C664 1.524 . S
C663 C667 1.400 . S
C664 H649 0.960 . S
C664 H650 0.960 . S
C664 H651 0.960 . S
C664 C663 1.524 . S
C665 C662 1.403 . S
C665 C666 1.392 . S
C665 C669 1.495 . S
C666 C665 1.392 . S
C666 C667 1.385 . S
C666 C668 1.478 . S
C667 H661 0.930 . S
C667 C663 1.400 . S
C667 C666 1.385 . S
C668 C666 1.478 . S
C668 C670 1.381 . S
C668 C674 1.383 . S
C669 C665 1.495 . S
C669 H675 0.959 . S
C669 H676 0.961 . S
C669 H677 0.960 . S
C670 C668 1.381 . S
C670 C671 1.394 . S
C670 H678 0.930 . S
C671 C670 1.394 . S
C671 C672 1.383 . S
C671 H679 0.929 . S
C672 C671 1.383 . S
C672 C673 1.377 . S
C673 H657 0.930 . S
C673 C672 1.377 . S
C673 C674 1.379 . S
C674 H658 0.931 . S
C674 C668 1.383 . S
C674 C673 1.379 . S
H675 C669 0.959 . S
H676 C669 0.961 . S
H677 C669 0.960 . S
H678 C670 0.930 . S
H679 C671 0.929 . S
H680 C688 0.929 . S
H681 C690 0.930 . S
H682 C692 0.930 . S
H683 C695 0.929 . S
H684 C698 0.930 . S
H685 C700 0.960 . S
H686 C700 0.960 . S
H687 C700 0.960 . S
C688 H680 0.929 . S
C688 C689 1.377 . S
C688 C690 1.384 . S
C689 C688 1.377 . S
C689 C695 1.390 . S
C690 H681 0.930 . S
C690 C688 1.384 . S
C690 C691 1.372 . S
C691 C690 1.372 . S
C691 C692 1.400 . S
C691 C696 1.490 . S
C692 H682 0.930 . S
C692 C691 1.400 . S
C692 C695 1.386 . S
H693 C709 0.930 . S
H694 C710 0.931 . S
C695 H683 0.929 . S
C695 C689 1.390 . S
C695 C692 1.386 . S
C696 C691 1.490 . S
C696 C698 1.395 . S
C696 C699 1.403 . S
H697 C703 0.930 . S
C698 H684 0.930 . S
C698 C696 1.395 . S
C698 C701 1.403 . S
C699 C696 1.403 . S
C699 C700 1.524 . S
C699 C703 1.400 . S
C700 H685 0.960 . S
C700 H686 0.960 . S
C700 H687 0.960 . S
C700 C699 1.524 . S
C701 C698 1.403 . S
C701 C702 1.392 . S
C701 C705 1.495 . S
C702 C701 1.392 . S
C702 C703 1.385 . S
C702 C704 1.478 . S
C703 H697 0.930 . S
C703 C699 1.400 . S
C703 C702 1.385 . S
C704 C702 1.478 . S
C704 C706 1.381 . S
C704 C710 1.383 . S
C705 C701 1.495 . S
C705 H711 0.959 . S
C705 H712 0.961 . S
C705 H713 0.960 . S
C706 C704 1.381 . S
C706 C707 1.394 . S
C706 H714 0.930 . S
C707 C706 1.394 . S
C707 C708 1.383 . S
C707 H715 0.929 . S
C708 C707 1.383 . S
C708 C709 1.377 . S
C709 H693 0.930 . S
C709 C708 1.377 . S
C709 C710 1.379 . S
C710 H694 0.931 . S
C710 C704 1.383 . S
C710 C709 1.379 . S
H711 C705 0.959 . S
H712 C705 0.961 . S
H713 C705 0.960 . S
H714 C706 0.930 . S
H715 C707 0.929 . S
H716 C724 0.929 . S
H717 C726 0.930 . S
H718 C728 0.930 . S
H719 C731 0.929 . S
H720 C734 0.930 1_565 S
H721 C736 0.960 . S
H722 C736 0.960 . S
H723 C736 0.960 . S
C724 H716 0.929 . S
C724 C725 1.377 . S
C724 C726 1.384 . S
C725 C724 1.377 . S
C725 C731 1.390 . S
C726 H717 0.930 . S
C726 C724 1.384 . S
C726 C727 1.372 . S
C727 C726 1.372 . S
C727 C728 1.400 . S
C727 C732 1.489 1_565 S
C728 H718 0.930 . S
C728 C727 1.400 . S
C728 C731 1.386 . S
H729 C745 0.930 . S
H730 C746 0.931 . S
C731 H719 0.929 . S
C731 C725 1.390 . S
C731 C728 1.386 . S
C732 C727 1.489 1_545 S
C732 C734 1.395 . S
C732 C735 1.403 . S
H733 C739 0.930 . S
C734 H720 0.930 1_545 S
C734 C732 1.395 . S
C734 C737 1.403 . S
C735 C732 1.403 . S
C735 C736 1.524 . S
C735 C739 1.400 . S
C736 H721 0.960 . S
C736 H722 0.960 . S
C736 H723 0.960 . S
C736 C735 1.524 . S
C737 C734 1.403 . S
C737 C738 1.392 . S
C737 C741 1.495 . S
C738 C737 1.392 . S
C738 C739 1.385 . S
C738 C740 1.478 . S
C739 H733 0.930 . S
C739 C735 1.400 . S
C739 C738 1.385 . S
C740 C738 1.478 . S
C740 C742 1.381 . S
C740 C746 1.383 . S
C741 C737 1.495 . S
C741 H747 0.959 . S
C741 H748 0.961 . S
C741 H749 0.960 . S
C742 C740 1.381 . S
C742 C743 1.394 . S
C742 H750 0.930 . S
C743 C742 1.394 . S
C743 C744 1.383 . S
C743 H751 0.929 . S
C744 C743 1.383 . S
C744 C745 1.377 . S
C745 H729 0.930 . S
C745 C744 1.377 . S
C745 C746 1.379 . S
C746 H730 0.931 . S
C746 C740 1.383 . S
C746 C745 1.379 . S
H747 C741 0.959 . S
H748 C741 0.961 . S
H749 C741 0.960 . S
H750 C742 0.930 . S
H751 C743 0.929 . S
H752 C760 0.929 . S
H753 C762 0.930 . S
H754 C764 0.930 . S
H755 C767 0.929 . S
H756 C770 0.930 . S
H757 C772 0.960 . S
H758 C772 0.960 . S
H759 C772 0.960 . S
C760 H752 0.929 . S
C760 C761 1.377 . S
C760 C762 1.384 . S
C761 C760 1.377 . S
C761 C767 1.390 . S
C762 H753 0.930 . S
C762 C760 1.384 . S
C762 C763 1.372 . S
C763 C762 1.372 . S
C763 C764 1.400 . S
C763 C768 1.490 . S
C764 H754 0.930 . S
C764 C763 1.400 . S
C764 C767 1.386 . S
H765 C781 0.930 . S
H766 C782 0.931 . S
C767 H755 0.929 . S
C767 C761 1.390 . S
C767 C764 1.386 . S
C768 C763 1.490 . S
C768 C770 1.395 . S
C768 C771 1.403 . S
H769 C775 0.930 . S
C770 H756 0.930 . S
C770 C768 1.395 . S
C770 C773 1.403 . S
C771 C768 1.403 . S
C771 C772 1.524 . S
C771 C775 1.400 . S
C772 H757 0.960 . S
C772 H758 0.960 . S
C772 H759 0.960 . S
C772 C771 1.524 . S
C773 C770 1.403 . S
C773 C774 1.392 . S
C773 C777 1.495 . S
C774 C773 1.392 . S
C774 C775 1.385 . S
C774 C776 1.478 . S
C775 H769 0.930 . S
C775 C771 1.400 . S
C775 C774 1.385 . S
C776 C774 1.478 . S
C776 C778 1.381 . S
C776 C782 1.383 . S
C777 C773 1.495 . S
C777 H783 0.959 . S
C777 H784 0.961 . S
C777 H785 0.960 . S
C778 C776 1.381 . S
C778 C779 1.394 . S
C778 H786 0.930 . S
C779 C778 1.394 . S
C779 C780 1.383 . S
C779 H787 0.929 . S
C780 C779 1.383 . S
C780 C781 1.377 . S
C781 H765 0.930 . S
C781 C780 1.377 . S
C781 C782 1.379 . S
C782 H766 0.931 . S
C782 C776 1.383 . S
C782 C781 1.379 . S
H783 C777 0.959 . S
H784 C777 0.961 . S
H785 C777 0.960 . S
H786 C778 0.930 . S
H787 C779 0.929 . S
H788 C796 0.929 . S
H789 C798 0.930 . S
H790 C800 0.930 . S
H791 C803 0.929 . S
H792 C806 0.930 . S
H793 C808 0.960 . S
H794 C808 0.960 . S
H795 C808 0.960 . S
C796 H788 0.929 . S
C796 C797 1.377 . S
C796 C798 1.384 . S
C797 C796 1.377 . S
C797 C803 1.390 . S
C798 H789 0.930 . S
C798 C796 1.384 . S
C798 C799 1.372 . S
C799 C798 1.372 . S
C799 C800 1.400 . S
C799 C804 1.490 . S
C800 H790 0.930 . S
C800 C799 1.400 . S
C800 C803 1.386 . S
H801 C817 0.930 . S
H802 C818 0.931 . S
C803 H791 0.929 . S
C803 C797 1.390 . S
C803 C800 1.386 . S
C804 C799 1.490 . S
C804 C806 1.395 . S
C804 C807 1.403 . S
H805 C811 0.930 . S
C806 H792 0.930 . S
C806 C804 1.395 . S
C806 C809 1.403 . S
C807 C804 1.403 . S
C807 C808 1.524 . S
C807 C811 1.400 . S
C808 H793 0.960 . S
C808 H794 0.960 . S
C808 H795 0.960 . S
C808 C807 1.524 . S
C809 C806 1.403 . S
C809 C810 1.392 . S
C809 C813 1.495 . S
C810 C809 1.392 . S
C810 C811 1.385 . S
C810 C812 1.478 . S
C811 H805 0.930 . S
C811 C807 1.400 . S
C811 C810 1.385 . S
C812 C810 1.478 . S
C812 C814 1.381 . S
C812 C818 1.383 . S
C813 C809 1.495 . S
C813 H819 0.959 . S
C813 H820 0.961 . S
C813 H821 0.960 . S
C814 C812 1.381 . S
C814 C815 1.394 . S
C814 H822 0.930 . S
C815 C814 1.394 . S
C815 C816 1.383 . S
C815 H823 0.929 . S
C816 C815 1.383 . S
C816 C817 1.377 . S
C817 H801 0.930 . S
C817 C816 1.377 . S
C817 C818 1.379 . S
C818 H802 0.931 . S
C818 C812 1.383 . S
C818 C817 1.379 . S
H819 C813 0.959 . S
H820 C813 0.961 . S
H821 C813 0.960 . S
H822 C814 0.930 . S
H823 C815 0.929 . S
H824 C832 0.929 . S
H825 C834 0.930 . S
H826 C836 0.930 . S
H827 C839 0.929 . S
H828 C842 0.930 . S
H829 C844 0.960 . S
H830 C844 0.960 . S
H831 C844 0.960 . S
C832 H824 0.929 . S
C832 C833 1.377 . S
C832 C834 1.384 . S
C833 C832 1.377 . S
C833 C839 1.390 . S
C834 H825 0.930 . S
C834 C832 1.384 . S
C834 C835 1.372 . S
C835 C834 1.372 . S
C835 C836 1.400 . S
C835 C840 1.490 . S
C836 H826 0.930 . S
C836 C835 1.400 . S
C836 C839 1.386 . S
H837 C853 0.930 . S
H838 C854 0.931 . S
C839 H827 0.929 . S
C839 C833 1.390 . S
C839 C836 1.386 . S
C840 C835 1.490 . S
C840 C842 1.395 . S
C840 C843 1.403 . S
H841 C847 0.930 . S
C842 H828 0.930 . S
C842 C840 1.395 . S
C842 C845 1.403 . S
C843 C840 1.403 . S
C843 C844 1.524 . S
C843 C847 1.400 . S
C844 H829 0.960 . S
C844 H830 0.960 . S
C844 H831 0.960 . S
C844 C843 1.524 . S
C845 C842 1.403 . S
C845 C846 1.392 . S
C845 C849 1.495 . S
C846 C845 1.392 . S
C846 C847 1.385 . S
C846 C848 1.478 . S
C847 H841 0.930 . S
C847 C843 1.400 . S
C847 C846 1.385 . S
C848 C846 1.478 . S
C848 C850 1.381 . S
C848 C854 1.383 . S
C849 C845 1.495 . S
C849 H855 0.959 . S
C849 H856 0.961 . S
C849 H857 0.960 . S
C850 C848 1.381 . S
C850 C851 1.394 . S
C850 H858 0.930 . S
C851 C850 1.394 . S
C851 C852 1.383 . S
C851 H859 0.929 . S
C852 C851 1.383 . S
C852 C853 1.377 . S
C853 H837 0.930 . S
C853 C852 1.377 . S
C853 C854 1.379 . S
C854 H838 0.931 . S
C854 C848 1.383 . S
C854 C853 1.379 . S
H855 C849 0.959 . S
H856 C849 0.961 . S
H857 C849 0.960 . S
H858 C850 0.930 . S
H859 C851 0.929 . S
H860 C868 0.929 . S
H861 C870 0.930 . S
H862 C872 0.930 . S
H863 C875 0.929 . S
H864 C878 0.930 . S
H865 C880 0.960 . S
H866 C880 0.960 . S
H867 C880 0.960 . S
C868 H860 0.929 . S
C868 C869 1.377 . S
C868 C870 1.384 . S
C869 C868 1.377 . S
C869 C875 1.390 . S
C870 H861 0.930 . S
C870 C868 1.384 . S
C870 C871 1.372 . S
C871 C870 1.372 . S
C871 C872 1.400 . S
C871 C876 1.490 . S
C872 H862 0.930 . S
C872 C871 1.400 . S
C872 C875 1.386 . S
H873 C889 0.930 . S
H874 C890 0.931 . S
C875 H863 0.929 . S
C875 C869 1.390 . S
C875 C872 1.386 . S
C876 C871 1.490 . S
C876 C878 1.395 . S
C876 C879 1.403 . S
H877 C883 0.930 . S
C878 H864 0.930 . S
C878 C876 1.395 . S
C878 C881 1.403 . S
C879 C876 1.403 . S
C879 C880 1.524 . S
C879 C883 1.400 . S
C880 H865 0.960 . S
C880 H866 0.960 . S
C880 H867 0.960 . S
C880 C879 1.524 . S
C881 C878 1.403 . S
C881 C882 1.392 . S
C881 C885 1.495 . S
C882 C881 1.392 . S
C882 C883 1.385 . S
C882 C884 1.478 . S
C883 H877 0.930 . S
C883 C879 1.400 . S
C883 C882 1.385 . S
C884 C882 1.478 . S
C884 C886 1.381 . S
C884 C890 1.383 . S
C885 C881 1.495 . S
C885 H891 0.959 . S
C885 H892 0.961 . S
C885 H893 0.960 . S
C886 C884 1.381 . S
C886 C887 1.394 . S
C886 H894 0.930 . S
C887 C886 1.394 . S
C887 C888 1.383 . S
C887 H895 0.929 . S
C888 C887 1.383 . S
C888 C889 1.377 . S
C889 H873 0.930 . S
C889 C888 1.377 . S
C889 C890 1.379 . S
C890 H874 0.931 . S
C890 C884 1.383 . S
C890 C889 1.379 . S
H891 C885 0.959 . S
H892 C885 0.961 . S
H893 C885 0.960 . S
H894 C886 0.930 . S
H895 C887 0.929 . S
H896 C904 0.929 . S
H897 C906 0.930 . S
H898 C908 0.930 . S
H899 C911 0.929 . S
H900 C914 0.930 . S
H901 C916 0.960 . S
H902 C916 0.960 . S
H903 C916 0.960 . S
C904 H896 0.929 . S
C904 C905 1.377 . S
C904 C906 1.384 . S
C905 C904 1.377 . S
C905 C911 1.390 . S
C906 H897 0.930 . S
C906 C904 1.384 . S
C906 C907 1.372 . S
C907 C906 1.372 . S
C907 C908 1.400 . S
C907 C912 1.490 . S
C908 H898 0.930 . S
C908 C907 1.400 . S
C908 C911 1.386 . S
H909 C925 0.930 . S
H910 C926 0.931 . S
C911 H899 0.929 . S
C911 C905 1.390 . S
C911 C908 1.386 . S
C912 C907 1.490 . S
C912 C914 1.395 . S
C912 C915 1.403 . S
H913 C919 0.930 . S
C914 H900 0.930 . S
C914 C912 1.395 . S
C914 C917 1.403 . S
C915 C912 1.403 . S
C915 C916 1.524 . S
C915 C919 1.400 . S
C916 H901 0.960 . S
C916 H902 0.960 . S
C916 H903 0.960 . S
C916 C915 1.524 . S
C917 C914 1.403 . S
C917 C918 1.392 . S
C917 C921 1.495 . S
C918 C917 1.392 . S
C918 C919 1.385 . S
C918 C920 1.478 . S
C919 H913 0.930 . S
C919 C915 1.400 . S
C919 C918 1.385 . S
C920 C918 1.478 . S
C920 C922 1.381 . S
C920 C926 1.383 . S
C921 C917 1.495 . S
C921 H927 0.959 . S
C921 H928 0.961 . S
C921 H929 0.960 . S
C922 C920 1.381 . S
C922 C923 1.394 . S
C922 H930 0.930 . S
C923 C922 1.394 . S
C923 C924 1.383 . S
C923 H931 0.929 . S
C924 C923 1.383 . S
C924 C925 1.377 . S
C925 H909 0.930 . S
C925 C924 1.377 . S
C925 C926 1.379 . S
C926 H910 0.931 . S
C926 C920 1.383 . S
C926 C925 1.379 . S
H927 C921 0.959 . S
H928 C921 0.961 . S
H929 C921 0.960 . S
H930 C922 0.930 . S
H931 C923 0.929 . S
H932 C940 0.929 . S
H933 C942 0.930 . S
H934 C944 0.930 . S
H935 C947 0.929 . S
H936 C950 0.930 . S
H937 C952 0.960 . S
H938 C952 0.960 . S
H939 C952 0.960 . S
C940 H932 0.929 . S
C940 C941 1.377 . S
C940 C942 1.384 . S
C941 C940 1.377 . S
C941 C947 1.390 . S
C942 H933 0.930 . S
C942 C940 1.384 . S
C942 C943 1.372 . S
C943 C942 1.372 . S
C943 C944 1.400 . S
C943 C948 1.490 . S
C944 H934 0.930 . S
C944 C943 1.400 . S
C944 C947 1.386 . S
H945 C961 0.930 . S
H946 C962 0.931 . S
C947 H935 0.929 . S
C947 C941 1.390 . S
C947 C944 1.386 . S
C948 C943 1.490 . S
C948 C950 1.395 . S
C948 C951 1.403 . S
H949 C955 0.930 . S
C950 H936 0.930 . S
C950 C948 1.395 . S
C950 C953 1.403 . S
C951 C948 1.403 . S
C951 C952 1.524 . S
C951 C955 1.400 . S
C952 H937 0.960 . S
C952 H938 0.960 . S
C952 H939 0.960 . S
C952 C951 1.524 . S
C953 C950 1.403 . S
C953 C954 1.392 . S
C953 C957 1.495 . S
C954 C953 1.392 . S
C954 C955 1.385 . S
C954 C956 1.478 . S
C955 H949 0.930 . S
C955 C951 1.400 . S
C955 C954 1.385 . S
C956 C954 1.478 . S
C956 C958 1.381 . S
C956 C962 1.383 . S
C957 C953 1.495 . S
C957 H963 0.959 . S
C957 H964 0.961 . S
C957 H965 0.960 . S
C958 C956 1.381 . S
C958 C959 1.394 . S
C958 H966 0.930 . S
C959 C958 1.394 . S
C959 C960 1.383 . S
C959 H967 0.929 . S
C960 C959 1.383 . S
C960 C961 1.377 . S
C961 H945 0.930 . S
C961 C960 1.377 . S
C961 C962 1.379 . S
C962 H946 0.931 . S
C962 C956 1.383 . S
C962 C961 1.379 . S
H963 C957 0.959 . S
H964 C957 0.961 . S
H965 C957 0.960 . S
H966 C958 0.930 . S
H967 C959 0.929 . S
H968 C976 0.929 . S
H969 C978 0.930 . S
H970 C980 0.930 . S
H971 C983 0.929 . S
H972 C986 0.930 . S
H973 C988 0.960 . S
H974 C988 0.960 . S
H975 C988 0.960 . S
C976 H968 0.929 . S
C976 C977 1.377 . S
C976 C978 1.384 . S
C977 C976 1.377 . S
C977 C983 1.390 . S
C978 H969 0.930 . S
C978 C976 1.384 . S
C978 C979 1.372 . S
C979 C978 1.372 . S
C979 C980 1.400 . S
C979 C984 1.490 . S
C980 H970 0.930 . S
C980 C979 1.400 . S
C980 C983 1.386 . S
H981 C997 0.930 . S
H982 C998 0.931 . S
C983 H971 0.929 . S
C983 C977 1.390 . S
C983 C980 1.386 . S
C984 C979 1.490 . S
C984 C986 1.395 . S
C984 C987 1.403 . S
H985 C991 0.930 . S
C986 H972 0.930 . S
C986 C984 1.395 . S
C986 C989 1.403 . S
C987 C984 1.403 . S
C987 C988 1.524 . S
C987 C991 1.400 . S
C988 H973 0.960 . S
C988 H974 0.960 . S
C988 H975 0.960 . S
C988 C987 1.524 . S
C989 C986 1.403 . S
C989 C990 1.392 . S
C989 C993 1.495 . S
C990 C989 1.392 . S
C990 C991 1.385 . S
C990 C992 1.478 . S
C991 H985 0.930 . S
C991 C987 1.400 . S
C991 C990 1.385 . S
C992 C990 1.478 . S
C992 C994 1.381 . S
C992 C998 1.383 . S
C993 C989 1.495 . S
C993 H999 0.959 . S
C993 H1000 0.961 . S
C993 H1001 0.960 . S
C994 C992 1.381 . S
C994 C995 1.394 . S
C994 H1002 0.930 . S
C995 C994 1.394 . S
C995 C996 1.383 . S
C995 H1003 0.929 . S
C996 C995 1.383 . S
C996 C997 1.377 . S
C997 H981 0.930 . S
C997 C996 1.377 . S
C997 C998 1.379 . S
C998 H982 0.931 . S
C998 C992 1.383 . S
C998 C997 1.379 . S
H999 C993 0.959 . S
H1000 C993 0.961 . S
H1001 C993 0.960 . S
H1002 C994 0.930 . S
H1003 C995 0.929 . S
H1004 C1012 0.929 . S
H1005 C1014 0.930 . S
H1006 C1016 0.930 . S
H1007 C1019 0.929 . S
H1008 C1022 0.930 . S
H1009 C1024 0.960 . S
H1010 C1024 0.960 . S
H1011 C1024 0.960 . S
C1012 H1004 0.929 . S
C1012 C1013 1.377 . S
C1012 C1014 1.384 . S
C1013 C1012 1.377 . S
C1013 C1019 1.390 . S
C1014 H1005 0.930 . S
C1014 C1012 1.384 . S
C1014 C1015 1.372 . S
C1015 C1014 1.372 . S
C1015 C1016 1.400 . S
C1015 C1020 1.490 . S
C1016 H1006 0.930 . S
C1016 C1015 1.400 . S
C1016 C1019 1.386 . S
H1017 C1033 0.930 . S
H1018 C1034 0.931 . S
C1019 H1007 0.929 . S
C1019 C1013 1.390 . S
C1019 C1016 1.386 . S
C1020 C1015 1.490 . S
C1020 C1022 1.395 . S
C1020 C1023 1.403 . S
H1021 C1027 0.930 . S
C1022 H1008 0.930 . S
C1022 C1020 1.395 . S
C1022 C1025 1.403 . S
C1023 C1020 1.403 . S
C1023 C1024 1.524 . S
C1023 C1027 1.400 . S
C1024 H1009 0.960 . S
C1024 H1010 0.960 . S
C1024 H1011 0.960 . S
C1024 C1023 1.524 . S
C1025 C1022 1.403 . S
C1025 C1026 1.392 . S
C1025 C1029 1.495 . S
C1026 C1025 1.392 . S
C1026 C1027 1.385 . S
C1026 C1028 1.478 . S
C1027 H1021 0.930 . S
C1027 C1023 1.400 . S
C1027 C1026 1.385 . S
C1028 C1026 1.478 . S
C1028 C1030 1.381 . S
C1028 C1034 1.383 . S
C1029 C1025 1.495 . S
C1029 H1035 0.959 . S
C1029 H1036 0.961 . S
C1029 H1037 0.960 . S
C1030 C1028 1.381 . S
C1030 C1031 1.394 . S
C1030 H1038 0.930 . S
C1031 C1030 1.394 . S
C1031 C1032 1.383 . S
C1031 H1039 0.929 . S
C1032 C1031 1.383 . S
C1032 C1033 1.377 . S
C1033 H1017 0.930 . S
C1033 C1032 1.377 . S
C1033 C1034 1.379 . S
C1034 H1018 0.931 . S
C1034 C1028 1.383 . S
C1034 C1033 1.379 . S
H1035 C1029 0.959 . S
H1036 C1029 0.961 . S
H1037 C1029 0.960 . S
H1038 C1030 0.930 . S
H1039 C1031 0.929 . S
C185 C21 0.713 . S
C204 C87 0.689 . S
C221 C43 0.717 . S
C240 C65 0.758 . S
C257 C103 0.706 . S
C276 C175 0.655 . S
C293 C125 0.708 . S
C312 C139 0.678 . S
C329 C8 2.054 . S
C348 C98 2.059 . S
C365 C120 2.059 . S
C384 C30 2.054 . S
C401 C150 2.059 . S
C420 C52 2.046 . S
C437 C74 2.054 . S
C456 C162 2.053 . S
C473 C147 0.742 . S
C492 C18 0.738 . S
C509 C161 0.728 . S
C528 C40 0.728 . S
C545 C62 0.733 . S
C564 C109 0.710 . S
C581 C84 0.732 . S
C600 C131 0.698 . S
C617 C59 0.738 . S
C636 C106 0.731 . S
C653 C128 0.731 . S
C672 C81 0.772 . S
C689 C15 0.726 . S
C708 C140 0.745 . S
C725 C164 0.732 . S
C744 C37 0.752 . S
C761 C10 1.557 1_556 S
C780 C29 1.554 . S
C797 C7 1.560 . S
C816 C32 1.555 . S
C833 C73 1.560 . S
C852 C54 1.561 1_554 S
C869 C76 1.558 . S
C888 C51 1.553 . S
C905 C96 1.568 1_554 S
C924 C117 1.572 . S
C941 C95 1.573 . S
C960 C118 1.571 . S
C977 C169 1.570 . S
C996 C142 1.555 1_556 S
C1013 C172 1.569 . S
C1032 C153 1.574 . S
