# Generated by pormake.
# Topology vby, (6)-cn, num edge types: 1
# Building blocks:
#     Node 0, Type 0, BuildingBlock: INOVEN_clean_sbu_0, # of connection points: 6
#     Node 1, Type 0, BuildingBlock: INOVEN_clean_sbu_0, # of connection points: 6
#     Node 2, Type 0, BuildingBlock: INOVEN_clean_sbu_0, # of connection points: 6
#     Node 3, Type 0, BuildingBlock: INOVEN_clean_sbu_0, # of connection points: 6
#     Node 4, Type 0, BuildingBlock: INOVEN_clean_sbu_0, # of connection points: 6
#     Node 5, Type 0, BuildingBlock: INOVEN_clean_sbu_0, # of connection points: 6
#     Node 6, Type 0, BuildingBlock: INOVEN_clean_sbu_0, # of connection points: 6
#     Node 7, Type 0, BuildingBlock: INOVEN_clean_sbu_0, # of connection points: 6
#     Edge 8, Type (0, 0), BuildingBlock: OJICUG_clean_linker_0, # of connection points: 2
#     Edge 9, Type (0, 0), BuildingBlock: OJICUG_clean_linker_0, # of connection points: 2
#     Edge 10, Type (0, 0), BuildingBlock: OJICUG_clean_linker_0, # of connection points: 2
#     Edge 11, Type (0, 0), BuildingBlock: OJICUG_clean_linker_0, # of connection points: 2
#     Edge 12, Type (0, 0), BuildingBlock: OJICUG_clean_linker_0, # of connection points: 2
#     Edge 13, Type (0, 0), BuildingBlock: OJICUG_clean_linker_0, # of connection points: 2
#     Edge 14, Type (0, 0), BuildingBlock: OJICUG_clean_linker_0, # of connection points: 2
#     Edge 15, Type (0, 0), BuildingBlock: OJICUG_clean_linker_0, # of connection points: 2
#     Edge 16, Type (0, 0), BuildingBlock: OJICUG_clean_linker_0, # of connection points: 2
#     Edge 17, Type (0, 0), BuildingBlock: OJICUG_clean_linker_0, # of connection points: 2
#     Edge 18, Type (0, 0), BuildingBlock: OJICUG_clean_linker_0, # of connection points: 2
#     Edge 19, Type (0, 0), BuildingBlock: OJICUG_clean_linker_0, # of connection points: 2
#     Edge 20, Type (0, 0), BuildingBlock: OJICUG_clean_linker_0, # of connection points: 2
#     Edge 21, Type (0, 0), BuildingBlock: OJICUG_clean_linker_0, # of connection points: 2
#     Edge 22, Type (0, 0), BuildingBlock: OJICUG_clean_linker_0, # of connection points: 2
#     Edge 23, Type (0, 0), BuildingBlock: OJICUG_clean_linker_0, # of connection points: 2
#     Edge 24, Type (0, 0), BuildingBlock: OJICUG_clean_linker_0, # of connection points: 2
#     Edge 25, Type (0, 0), BuildingBlock: OJICUG_clean_linker_0, # of connection points: 2
#     Edge 26, Type (0, 0), BuildingBlock: OJICUG_clean_linker_0, # of connection points: 2
#     Edge 27, Type (0, 0), BuildingBlock: OJICUG_clean_linker_0, # of connection points: 2
#     Edge 28, Type (0, 0), BuildingBlock: OJICUG_clean_linker_0, # of connection points: 2
#     Edge 29, Type (0, 0), BuildingBlock: OJICUG_clean_linker_0, # of connection points: 2
#     Edge 30, Type (0, 0), BuildingBlock: OJICUG_clean_linker_0, # of connection points: 2
#     Edge 31, Type (0, 0), BuildingBlock: OJICUG_clean_linker_0, # of connection points: 2
# Relax obj value: 0.204
# Max RMSD: 0.227
# Mean RMSD: 0.227
data_MOF--net-vby--node1-INOVEN_clean_sbu_0--edge1-OJICUG_clean_linker_0
_symmetry_space_group_name_H-M    P1
_symmetry_Int_Tables_number       1
_symmetry_cell_setting            triclinic
loop_
_symmetry_equiv_pos_as_xyz
'x, y, z'
_cell_length_a     11.380066
_cell_length_b     88.059245
_cell_length_c     21.181604
_cell_angle_alpha  89.986489
_cell_angle_beta   83.966813
_cell_angle_gamma 89.873451
loop_
_atom_site_label
_atom_site_type_symbol
_atom_site_fract_x
_atom_site_fract_y
_atom_site_fract_z
_atom_type_partial_charge
Gd0 Gd 0.10374 0.40668 0.0145 0.0
Gd1 Gd 0.10318 0.37215 0.02695 0.0
C2 C 0.85994 0.38865 0.01596 0.0
C3 C 0.0542 0.4349 0.99575 0.0
C4 C 0.06205 0.45153 0.00339 0.0
C5 C 0.07388 0.45857 0.06195 0.0
C6 C 1.0453 0.46059 0.95078 0.0
C7 C 0.05503 0.48367 0.01368 0.0
C8 C 1.04087 0.47638 0.95584 0.0
C9 C 0.07115 0.47451 0.06694 0.0
C10 C 0.11651 0.39586 0.13442 0.0
C11 C 0.35209 0.39048 0.01092 0.0
C12 C 0.11094 0.34453 0.06833 0.0
C13 C 0.16565 0.32949 0.05212 0.0
C14 C 0.14997 0.32187 0.99518 0.0
C15 C 0.22627 0.32202 0.09746 0.0
C16 C 0.24354 0.299 0.03282 0.0
C17 C 0.26506 0.30703 0.08791 0.0
C18 C 0.18859 0.30679 0.98563 0.0
C19 C 0.1137 0.37844 0.90031 0.0
O20 O 0.92418 0.39986 0.98989 0.0
O21 O 0.9093 0.37732 0.04439 0.0
O22 O 1.00318 0.42684 0.04272 0.0
O23 O 0.13631 0.42754 0.95981 0.0
O24 O 0.1749 0.40739 0.10964 0.0
O25 O 0.05237 0.39068 0.09438 0.0
O26 O 0.29266 0.37845 0.03363 0.0
O27 O 0.29837 0.40263 0.99086 0.0
O28 O 1.02995 0.34948 0.03372 0.0
O29 O 0.18002 0.35533 0.08561 0.0
O30 O 0.12123 0.36514 0.92518 0.0
O31 O 0.11101 0.38823 0.94414 0.0
H32 H 0.08467 0.4518 0.10367 0.0
H33 H 1.03276 0.45539 0.90561 0.0
H34 H 1.02412 0.48284 0.91423 0.0
H35 H 0.08281 0.47961 0.11236 0.0
H36 H 0.10438 0.32734 0.95894 0.0
H37 H 0.2404 0.32765 0.14151 0.0
H38 H 0.31005 0.30162 0.12451 0.0
H39 H 0.17057 0.30106 0.94249 0.0
Gd40 Gd 0.99339 0.66156 0.01359 0.0
Gd41 Gd 0.99299 0.62701 0.02605 0.0
C42 C 0.74457 0.6432 0.02941 0.0
C43 C 0.98566 0.68917 0.97228 0.0
C44 C 0.93142 0.70418 0.98927 0.0
C45 C 0.95097 0.71183 0.0456 0.0
C46 C 0.86715 0.71159 0.94529 0.0
C47 C 0.85273 0.73453 0.01018 0.0
C48 C 0.8279 0.72655 0.95565 0.0
C49 C 0.91228 0.72686 0.05582 0.0
C50 C 0.98231 0.65518 0.14025 0.0
C51 C 0.23658 0.6451 0.02479 0.0
C52 C 1.0429 0.59881 0.04473 0.0
C53 C 1.03553 0.58218 0.03714 0.0
C54 C 1.02372 0.57512 0.97861 0.0
C55 C 0.05265 0.57315 0.08975 0.0
C56 C 1.04327 0.55005 0.02694 0.0
C57 C 0.05744 0.55735 0.08474 0.0
C58 C 1.02681 0.55919 0.97366 0.0
C59 C 0.9804 0.63795 0.90617 0.0
O60 O 0.80399 0.65521 0.00644 0.0
O61 O 0.79829 0.63108 0.04978 0.0
O62 O 0.06757 0.68416 0.00618 0.0
O63 O 0.91577 0.67841 0.95543 0.0
O64 O 0.97531 0.66851 0.11559 0.0
O65 O 0.9851 0.64546 0.09618 0.0
O66 O 0.17226 0.63392 0.0511 0.0
O67 O 0.18726 0.65637 0.99601 0.0
O68 O 0.09382 0.60688 0.99776 0.0
O69 O 0.9606 0.60614 0.08067 0.0
O70 O 0.92193 0.6264 0.93074 0.0
O71 O 1.04456 0.64302 0.94637 0.0
H72 H 0.99914 0.70639 0.08088 0.0
H73 H 0.85092 0.70599 0.90152 0.0
H74 H 0.78283 0.73209 0.91939 0.0
H75 H 0.93085 0.73259 0.09891 0.0
H76 H 1.01265 0.58188 0.93689 0.0
H77 H 0.06518 0.57836 0.13489 0.0
H78 H 0.07442 0.55091 0.12635 0.0
H79 H 1.01514 0.55408 0.92828 0.0
Gd80 Gd 0.10545 0.66123 0.524 0.0
Gd81 Gd 0.10548 0.62725 0.51758 0.0
C82 C 0.3551 0.64311 0.50759 0.0
C83 C 0.11107 0.68891 0.56523 0.0
C84 C 0.16635 0.70397 0.55197 0.0
C85 C 0.18247 0.71025 0.49061 0.0
C86 C 0.19477 0.71276 0.60332 0.0
C87 C 0.2449 0.73444 0.53366 0.0
C88 C 0.23305 0.72777 0.59446 0.0
C89 C 0.22174 0.7253 0.48155 0.0
C90 C 0.11452 0.65458 0.39847 0.0
C91 C 0.85901 0.64467 0.51602 0.0
C92 C 0.07629 0.59835 0.51135 0.0
C93 C 0.05839 0.58175 0.51181 0.0
C94 C 1.02607 0.57416 0.56938 0.0
C95 C 0.08055 0.57323 0.45588 0.0
C96 C 1.04535 0.54969 0.51566 0.0
C97 C 0.07379 0.55736 0.45772 0.0
C98 C 1.01959 0.55832 0.57129 0.0
C99 C 0.12049 0.63932 0.63543 0.0
O100 O 0.29789 0.65548 0.52818 0.0
O101 O 0.29959 0.63078 0.49177 0.0
O102 O 1.03553 0.68412 0.52713 0.0
O103 O 0.17763 0.67804 0.58446 0.0
O104 O 0.12594 0.66787 0.42265 0.0
O105 O 0.1112 0.6446 0.44189 0.0
O106 O 0.92035 0.63255 0.49664 0.0
O107 O 0.90957 0.65675 0.53812 0.0
O108 O 1.02514 0.60678 0.55708 0.0
O109 O 0.14135 0.60574 0.4667 0.0
O110 O 0.18498 0.62832 0.61052 0.0
O111 O 0.05341 0.6437 0.59537 0.0
H112 H 0.16222 0.70367 0.44994 0.0
H113 H 0.18308 0.70817 0.65104 0.0
H114 H 0.2484 0.73431 0.63604 0.0
H115 H 0.23243 0.72982 0.43375 0.0
H116 H 1.0087 0.58045 0.61335 0.0
H117 H 0.10547 0.57881 0.4109 0.0
H118 H 0.09486 0.5511 0.414 0.0
H119 H 0.99526 0.55284 0.61654 0.0
Gd120 Gd 0.99223 0.40624 0.52454 0.0
Gd121 Gd 0.99593 0.37216 0.51495 0.0
C122 C 0.23864 0.38904 0.52482 0.0
C123 C 1.02214 0.43507 0.53291 0.0
C124 C 1.03957 0.45168 0.53156 0.0
C125 C 0.07123 0.45913 0.47362 0.0
C126 C 1.01806 0.4603 0.58719 0.0
C127 C 0.05326 0.48372 0.52654 0.0
C128 C 1.02508 0.47616 0.58477 0.0
C129 C 0.07809 0.47497 0.47113 0.0
C130 C 0.97941 0.39478 0.40548 0.0
C131 C 0.74563 0.39005 0.53096 0.0
C132 C 0.98933 0.34451 0.47359 0.0
C133 C 0.93462 0.32948 0.48941 0.0
C134 C 0.95079 0.32175 0.54603 0.0
C135 C 0.87324 0.32214 0.44411 0.0
C136 C 0.85588 0.29904 0.5083 0.0
C137 C 0.83399 0.30717 0.45347 0.0
C138 C 0.91187 0.30671 0.55535 0.0
C139 C 0.98535 0.3785 0.64128 0.0
O140 O 0.1744 0.40052 0.54888 0.0
O141 O 0.18957 0.37744 0.4981 0.0
O142 O 0.07821 0.42661 0.48881 0.0
O143 O 0.95105 0.42776 0.57519 0.0
O144 O 0.91519 0.40574 0.43085 0.0
O145 O 1.04601 0.39014 0.44532 0.0
O146 O 0.80561 0.37813 0.50762 0.0
O147 O 0.79927 0.40209 0.55125 0.0
O148 O 0.06964 0.34945 0.50857 0.0
O149 O 0.92025 0.35532 0.45616 0.0
O150 O 0.9779 0.36521 0.61641 0.0
O151 O 0.98754 0.38844 0.59795 0.0
H152 H 0.08803 0.45275 0.42987 0.0
H153 H 0.99359 0.4548 0.6324 0.0
H154 H 1.00454 0.4825 0.62833 0.0
H155 H 0.10214 0.48037 0.42566 0.0
H156 H 0.99695 0.32712 0.58223 0.0
H157 H 0.85869 0.32786 0.40028 0.0
H158 H 0.78817 0.30189 0.41697 0.0
H159 H 0.93042 0.3009 0.59828 0.0
Gd160 Gd 0.60606 0.90665 0.01501 0.0
Gd161 Gd 0.60549 0.87226 0.02702 0.0
C162 C 0.3622 0.88874 0.01633 0.0
C163 C 0.55613 0.93483 0.99678 0.0
C164 C 0.56409 0.95142 0.00485 0.0
C165 C 0.56874 0.95839 0.06428 0.0
C166 C 0.55399 0.96049 0.95147 0.0
C167 C 0.55606 0.98342 0.01545 0.0
C168 C 0.54941 0.97626 0.95663 0.0
C169 C 0.56505 0.9743 0.06948 0.0
C170 C 0.61893 0.89581 0.1349 0.0
C171 C 0.85444 0.89057 0.01122 0.0
C172 C 0.6127 0.84462 0.06807 0.0
C173 C 0.66612 0.82956 0.05113 0.0
C174 C 0.64554 0.82187 0.99505 0.0
C175 C 0.73041 0.82213 0.09506 0.0
C176 C 0.74297 0.79912 0.03064 0.0
C177 C 0.76871 0.80713 0.08491 0.0
C178 C 0.68334 0.80679 0.98503 0.0
C179 C 0.61529 0.87854 0.90036 0.0
O180 O 0.4266 0.8999 0.98999 0.0
O181 O 0.41159 0.87745 0.04497 0.0
O182 O 0.50507 0.92673 0.04357 0.0
O183 O 0.63844 0.92754 0.96071 0.0
O184 O 0.67776 0.9073 0.11004 0.0
O185 O 0.55457 0.89067 0.09491 0.0
O186 O 0.79501 0.87857 0.03421 0.0
O187 O 0.80062 0.90267 0.99084 0.0
O188 O 0.53077 0.84968 0.03433 0.0
O189 O 0.68315 0.85532 0.08477 0.0
O190 O 0.62319 0.86525 0.92521 0.0
O191 O 0.61282 0.88834 0.94416 0.0
H192 H 0.57441 0.95159 0.10648 0.0
H193 H 0.54702 0.95534 0.90556 0.0
H194 H 0.53902 0.98284 0.91438 0.0
H195 H 0.57057 0.97944 0.11553 0.0
H196 H 0.59729 0.82731 0.95982 0.0
H197 H 0.74737 0.82777 0.13865 0.0
H198 H 0.81385 0.80159 0.12115 0.0
H199 H 0.6641 0.80104 0.94211 0.0
Gd200 Gd 0.49436 0.16103 0.01625 0.0
Gd201 Gd 0.4925 0.12698 0.02207 0.0
C202 C 0.24424 0.1432 0.0329 0.0
C203 C 0.48813 0.18875 0.97579 0.0
C204 C 0.43251 0.20375 0.99128 0.0
C205 C 0.44688 0.21145 0.0482 0.0
C206 C 0.37312 0.21115 0.94526 0.0
C207 C 0.35435 0.23425 0.00936 0.0
C208 C 0.33417 0.22616 0.95421 0.0
C209 C 0.40821 0.22652 0.05711 0.0
C210 C 0.48497 0.15428 0.14143 0.0
C211 C 0.73997 0.14415 0.02308 0.0
C212 C 0.52244 0.09814 0.03053 0.0
C213 C 0.53473 0.08148 0.02822 0.0
C214 C 0.53513 0.07369 0.9704 0.0
C215 C 0.54386 0.07324 0.08406 0.0
C216 C 0.54915 0.04945 0.02485 0.0
C217 C 0.55162 0.05738 0.0824 0.0
C218 C 0.54178 0.05783 0.96874 0.0
C219 C 0.47698 0.13918 0.90477 0.0
O220 O 0.30212 0.1556 0.01368 0.0
O221 O 0.29918 0.13069 0.04739 0.0
O222 O 0.56641 0.18376 0.012 0.0
O223 O 0.42076 0.17796 0.9568 0.0
O224 O 0.47436 0.16761 0.11744 0.0
O225 O 0.48774 0.14431 0.09796 0.0
O226 O 0.67868 0.13191 0.04031 0.0
O227 O 0.68936 0.15653 0.00342 0.0
O228 O 0.56852 0.1063 0.98271 0.0
O229 O 0.45963 0.10569 0.07558 0.0
O230 O 0.41277 0.12814 0.92932 0.0
O231 O 0.54447 0.14346 0.94472 0.0
H232 H 0.49162 0.20603 0.08491 0.0
H233 H 0.36016 0.20547 0.90117 0.0
H234 H 0.29008 0.23151 0.91714 0.0
H235 H 0.42538 0.23231 0.10029 0.0
H236 H 0.52782 0.07983 0.92664 0.0
H237 H 0.54492 0.07906 0.12905 0.0
H238 H 0.55986 0.05136 0.12627 0.0
H239 H 0.53825 0.05215 0.92365 0.0
Gd240 Gd 0.6038 0.1612 0.52605 0.0
Gd241 Gd 0.60739 0.12688 0.51591 0.0
C242 C 0.85393 0.14313 0.5101 0.0
C243 C 0.60991 0.18886 0.56726 0.0
C244 C 0.66453 0.20389 0.5514 0.0
C245 C 0.64835 0.21161 0.49474 0.0
C246 C 0.72575 0.21124 0.5967 0.0
C247 C 0.74298 0.23434 0.53248 0.0
C248 C 0.76487 0.22621 0.58734 0.0
C249 C 0.68713 0.22666 0.48541 0.0
C250 C 0.61523 0.15471 0.39982 0.0
C251 C 0.36125 0.14438 0.51573 0.0
C252 C 0.56557 0.09838 0.50205 0.0
C253 C 0.56351 0.08167 0.50816 0.0
C254 C 0.53895 0.0744 0.56719 0.0
C255 C 0.57627 0.07287 0.45275 0.0
C256 C 0.54734 0.04966 0.5149 0.0
C257 C 0.56846 0.05706 0.45597 0.0
C258 C 0.53111 0.05853 0.57048 0.0
C259 C 0.61966 0.13836 0.63479 0.0
O260 O 0.79398 0.15509 0.53333 0.0
O261 O 0.80057 0.13104 0.48988 0.0
O262 O 0.52985 0.18389 0.53216 0.0
O263 O 0.67895 0.17806 0.58493 0.0
O264 O 0.62217 0.16805 0.42431 0.0
O265 O 0.61303 0.1449 0.44361 0.0
O266 O 0.42587 0.13299 0.49117 0.0
O267 O 0.41008 0.15592 0.5429 0.0
O268 O 0.51431 0.10666 0.54825 0.0
O269 O 0.64524 0.10557 0.46396 0.0
O270 O 0.68208 0.12711 0.61026 0.0
O271 O 0.55372 0.14302 0.59469 0.0
H272 H 0.60229 0.20623 0.45853 0.0
H273 H 0.74027 0.20554 0.64056 0.0
H274 H 0.81058 0.23151 0.62385 0.0
H275 H 0.66859 0.23245 0.44247 0.0
H276 H 0.52566 0.08093 0.61068 0.0
H277 H 0.59224 0.07825 0.40665 0.0
H278 H 0.58169 0.05062 0.41224 0.0
H279 H 0.51198 0.05321 0.61651 0.0
Gd280 Gd 0.49228 0.90645 0.52486 0.0
Gd281 Gd 0.49621 0.87229 0.51523 0.0
C282 C 0.73877 0.88915 0.52523 0.0
C283 C 0.53047 0.93506 0.53745 0.0
C284 C 0.53639 0.95176 0.5322 0.0
C285 C 0.56108 0.95908 0.47331 0.0
C286 C 0.52329 0.96051 0.58776 0.0
C287 C 0.55183 0.98376 0.52588 0.0
C288 C 0.53076 0.97633 0.58474 0.0
C289 C 0.56859 0.97494 0.47021 0.0
C290 C 0.48038 0.89505 0.40581 0.0
C291 C 0.24582 0.89023 0.53131 0.0
C292 C 0.4913 0.8447 0.47299 0.0
C293 C 0.43664 0.82962 0.48665 0.0
C294 C 0.42113 0.8234 0.54811 0.0
C295 C 0.40698 0.82081 0.43561 0.0
C296 C 0.35663 0.79923 0.50578 0.0
C297 C 0.36801 0.80584 0.44487 0.0
C298 C 0.38114 0.80838 0.55759 0.0
C299 C 0.48548 0.87867 0.64152 0.0
O300 O 0.67429 0.9006 0.54926 0.0
O301 O 0.68984 0.87753 0.49862 0.0
O302 O 0.58271 0.92674 0.49166 0.0
O303 O 0.45262 0.92784 0.57652 0.0
O304 O 0.41685 0.90614 0.43083 0.0
O305 O 0.54644 0.89034 0.44584 0.0
O306 O 0.30573 0.87823 0.50854 0.0
O307 O 0.2993 0.90235 0.55103 0.0
O308 O 0.56836 0.8495 0.51022 0.0
O309 O 0.42324 0.85555 0.45492 0.0
O310 O 0.47804 0.86537 0.61674 0.0
O311 O 0.48758 0.88858 0.59806 0.0
H312 H 0.57392 0.95258 0.4297 0.0
H313 H 0.5065 0.95508 0.63374 0.0
H314 H 0.51696 0.98274 0.62851 0.0
H315 H 0.58748 0.9803 0.42423 0.0
H316 H 0.44219 0.83 0.58856 0.0
H317 H 0.418 0.82536 0.38782 0.0
H318 H 0.35168 0.79929 0.40348 0.0
H319 H 0.37084 0.80392 0.60547 0.0
C320 C 0.55519 0.40083 0.97703 0.0
C321 C 0.4823 0.39022 0.0115 0.0
H322 H 0.73188 0.40856 0.95074 0.0
C323 C 0.53493 0.3791 0.04734 0.0
H324 H 0.51758 0.4095 0.94888 0.0
C325 C 0.65728 0.37855 0.04854 0.0
C326 C 0.73032 0.38909 0.01386 0.0
H327 H 0.48153 0.37083 0.07513 0.0
H328 H 0.69437 0.36992 0.07708 0.0
C329 C 0.67801 0.40025 0.97809 0.0
C330 C 0.43996 0.65447 0.98854 0.0
C331 C 0.36625 0.64466 0.02681 0.0
H332 H 0.61644 0.66155 0.95893 0.0
C333 C 0.41793 0.63417 0.06595 0.0
H334 H 0.4033 0.66253 0.95727 0.0
C335 C 0.54082 0.63354 0.06682 0.0
C336 C 0.61436 0.64344 0.02876 0.0
H337 H 0.36346 0.62646 0.09618 0.0
H338 H 0.578 0.62545 0.09773 0.0
C339 C 0.56239 0.65387 0.98953 0.0
C340 C 0.68123 0.6489 0.45871 0.0
C341 C 0.73026 0.64442 0.51389 0.0
H342 H 0.52216 0.65189 0.41339 0.0
C343 C 0.65591 0.63896 0.56596 0.0
H344 H 0.73762 0.65299 0.41787 0.0
C345 C 0.53362 0.63818 0.56315 0.0
C346 C 0.48435 0.6428 0.50816 0.0
H347 H 0.69247 0.63531 0.6087 0.0
H348 H 0.47732 0.63414 0.60413 0.0
C349 C 0.5588 0.64816 0.45597 0.0
C350 C 0.56372 0.37981 0.49011 0.0
C351 C 0.61575 0.39002 0.52997 0.0
H352 H 0.40461 0.37156 0.45693 0.0
C353 C 0.54269 0.40005 0.56784 0.0
H354 H 0.6176 0.37209 0.45947 0.0
C355 C 0.41993 0.39972 0.56639 0.0
C356 C 0.36814 0.38938 0.52686 0.0
H357 H 0.58014 0.40803 0.59905 0.0
H358 H 0.36564 0.40747 0.5966 0.0
C359 C 0.44146 0.37949 0.48858 0.0
C360 C 0.05816 0.90022 0.97381 0.0
C361 C 0.98456 0.89038 0.01208 0.0
H362 H 0.23558 0.90728 0.94441 0.0
C363 C 1.03639 0.88005 0.05177 0.0
H364 H 1.02106 0.90826 0.94258 0.0
C365 C 0.15877 0.87947 0.05293 0.0
C366 C 0.23256 0.8892 0.01436 0.0
H367 H 0.98224 0.87243 0.0826 0.0
H368 H 0.19534 0.87148 0.08452 0.0
C369 C 0.18102 0.89962 0.97485 0.0
C370 C 0.05189 0.15705 0.03867 0.0
C371 C 0.11446 0.14325 0.03358 0.0
H372 H 0.88401 0.16815 0.03954 0.0
C373 C 0.05283 0.12973 0.02519 0.0
H374 H 0.09714 0.16765 0.04544 0.0
C375 C 0.93089 0.13004 0.02161 0.0
C376 C 0.86866 0.14387 0.02627 0.0
H377 H 0.09913 0.11897 0.0199 0.0
H378 H 0.88564 0.11948 0.0142 0.0
C379 C 0.93014 0.15737 0.03498 0.0
C380 C 0.1801 0.13388 0.47311 0.0
C381 C 0.23162 0.14398 0.51374 0.0
H382 H 1.02002 0.1257 0.43972 0.0
C383 C 0.15788 0.15356 0.5533 0.0
H384 H 0.23467 0.12636 0.4419 0.0
C385 C 1.03555 0.15318 0.55195 0.0
C386 C 0.98384 0.1432 0.51101 0.0
H387 H 0.19449 0.16129 0.58585 0.0
H388 H 0.98136 0.16065 0.58358 0.0
C389 C 0.05726 0.13348 0.47184 0.0
C390 C 0.94119 0.87911 0.49149 0.0
C391 C 0.86831 0.88952 0.5273 0.0
H392 H 0.11681 0.87129 0.46434 0.0
C393 C 0.92061 0.90036 0.56438 0.0
H394 H 0.90405 0.87076 0.46178 0.0
C395 C 1.04335 0.9007 0.56585 0.0
C396 C 0.11592 0.89016 0.53046 0.0
H397 H 0.86677 0.90855 0.59259 0.0
H398 H 0.08116 0.9091 0.59507 0.0
C399 C 0.06341 0.87943 0.49306 0.0
C400 C 1.0026 0.52412 0.07588 0.0
C401 C 1.04566 0.53303 0.02315 0.0
H402 H 0.97024 0.50189 0.11451 0.0
C403 C 0.09224 0.5255 0.9675 0.0
H404 H 0.96365 0.52938 0.11932 0.0
C405 C 0.096 0.50961 0.9648 0.0
C406 C 0.05289 0.50069 0.01753 0.0
H407 H 0.12833 0.53183 0.92618 0.0
H408 H 0.13496 0.50435 0.92136 0.0
C409 C 1.00636 0.50823 0.07318 0.0
C410 C 1.00772 0.50818 0.47245 0.0
C411 C 0.05283 0.50062 0.52332 0.0
H412 H 0.96768 0.52946 0.43069 0.0
C413 C 0.09511 0.50936 0.57163 0.0
H414 H 0.97241 0.50184 0.43494 0.0
C415 C 0.09204 0.52523 0.56925 0.0
C416 C 1.04666 0.53278 0.51847 0.0
H417 H 0.13217 0.50396 0.61099 0.0
H418 H 0.1273 0.53156 0.60677 0.0
C419 C 1.00469 0.52405 0.47005 0.0
C420 C 0.61601 1.00895 0.97016 0.0
C421 C 0.5556 1.00033 0.01923 0.0
H422 H 0.66342 0.03098 0.93386 0.0
C423 C 0.49409 1.00802 0.07076 0.0
H424 H 0.66611 1.00344 0.93024 0.0
C425 C 0.49241 0.02392 0.07277 0.0
C426 C 0.55243 0.03252 0.02341 0.0
H427 H 0.44513 1.00178 0.10891 0.0
H428 H 0.44196 0.02947 0.11246 0.0
C429 C 0.61447 0.0248 0.9722 0.0
C430 C 0.6015 0.0252 0.56572 0.0
C431 C 0.54657 0.03278 0.51825 0.0
H432 H 0.64872 1.00387 0.60459 0.0
C433 C 0.49438 0.02409 0.47299 0.0
H434 H 0.64452 0.03152 0.60058 0.0
C435 C 0.49717 1.00823 0.47516 0.0
C436 C 0.55212 1.00065 0.52263 0.0
H437 H 0.44999 0.02955 0.43626 0.0
H438 H 0.45423 1.0019 0.44026 0.0
C439 C 0.60427 1.00933 0.56788 0.0
C440 C 0.25686 0.27276 0.07975 0.0
C441 C 0.27285 0.28243 0.02651 0.0
H442 H 0.26729 0.25017 0.11627 0.0
C443 C 0.31477 0.27603 0.96754 0.0
H444 H 0.22236 0.27714 0.12577 0.0
C445 C 0.34041 0.26048 0.9621 0.0
C446 C 0.32453 0.25081 0.01538 0.0
H447 H 0.32972 0.28309 0.92559 0.0
H448 H 0.37498 0.25609 0.9161 0.0
C449 C 0.28239 0.25721 0.07431 0.0
C450 C 0.68959 0.77227 0.00403 0.0
C451 C 0.77236 0.78261 0.02389 0.0
H452 H 0.64838 0.74904 0.98577 0.0
C453 C 0.88081 0.77694 0.04026 0.0
H454 H 0.6043 0.7762 0.99224 0.0
C455 C 0.90576 0.76136 0.03694 0.0
C456 C 0.82304 0.75102 0.01705 0.0
H457 H 0.94707 0.78459 0.05513 0.0
H458 H 0.99106 0.75743 0.04871 0.0
C459 C 0.71456 0.75668 1.00068 0.0
C460 C 0.22652 0.75991 0.47984 0.0
C461 C 0.27556 0.75098 0.52564 0.0
H462 H 0.20914 0.78192 0.4391 0.0
C463 C 0.34988 0.75819 0.56559 0.0
H464 H 0.16691 0.75498 0.44896 0.0
C465 C 0.37405 0.77378 0.56005 0.0
C466 C 0.32522 0.78271 0.51415 0.0
H467 H 0.39129 0.75177 0.60083 0.0
H468 H 0.43372 0.7787 0.59091 0.0
C469 C 0.25063 0.7755 0.47432 0.0
C470 C 0.78652 0.27606 0.57395 0.0
C471 C 0.82563 0.28249 0.51464 0.0
H472 H 0.72833 0.25615 0.62593 0.0
C473 C 0.83817 0.27285 0.46119 0.0
H474 H 0.77402 0.28307 0.61612 0.0
C475 C 0.81224 0.25732 0.46681 0.0
C476 C 0.77314 0.25089 0.52613 0.0
H477 H 0.87042 0.27723 0.41484 0.0
H478 H 0.82475 0.25031 0.42464 0.0
C479 C 0.76058 0.26053 0.57958 0.0
C480 C 0.06656 0.40853 0.23849 0.0
C481 C 0.08333 0.39498 0.20386 0.0
H482 H 1.01815 0.41899 0.32854 0.0
C483 C 0.06551 0.38105 0.23605 0.0
H484 H 0.07875 0.41943 0.21498 0.0
C485 C 1.03334 0.38079 0.30218 0.0
C486 C 1.01444 0.39446 0.33617 0.0
H487 H 0.07784 0.37044 0.21032 0.0
H488 H 1.02141 0.36999 0.32648 0.0
C489 C 1.03103 0.40828 0.30352 0.0
C490 C 1.02524 0.66679 0.24058 0.0
C491 C 1.01071 0.65331 0.20712 0.0
H492 H 0.07216 0.67758 0.32313 0.0
C493 C 1.03178 0.63938 0.23726 0.0
H494 H 1.01049 0.67779 0.2198 0.0
C495 C 0.06625 0.63924 0.30001 0.0
C496 C 0.08276 0.65303 0.33205 0.0
H497 H 1.02207 0.62876 0.21263 0.0
H498 H 0.08058 0.6285 0.32293 0.0
C499 C 0.06185 0.66666 0.30078 0.0
C500 C 1.03334 0.65288 0.80502 0.0
C501 C 1.01384 0.63892 0.83677 0.0
H502 H 0.07969 0.66404 0.71501 0.0
C503 C 1.02959 0.62541 0.80178 0.0
H504 H 1.02182 0.66346 0.83104 0.0
C505 C 0.06587 0.62573 0.73685 0.0
C506 C 0.08435 0.63958 0.70463 0.0
H507 H 1.01615 0.61449 0.82495 0.0
H508 H 0.07802 0.61505 0.71156 0.0
C509 C 0.06635 0.65321 0.73896 0.0
C510 C 1.03227 0.39404 0.73941 0.0
C511 C 1.01416 0.38017 0.70817 0.0
H512 H 0.07744 0.40471 0.82619 0.0
C513 C 1.03173 0.3666 0.74058 0.0
H514 H 1.02041 0.40473 0.71559 0.0
C515 C 0.0676 0.3666 0.80096 0.0
C516 C 0.08462 0.38016 0.83346 0.0
H517 H 1.01969 0.35565 0.7189 0.0
H518 H 0.08014 0.35564 0.82254 0.0
C519 C 0.06596 0.39403 0.80232 0.0
C520 C 0.56822 0.88111 0.23682 0.0
C521 C 0.58532 0.895 0.20431 0.0
H522 H 0.52433 0.87015 0.32749 0.0
C523 C 0.56731 0.9086 0.23853 0.0
H524 H 0.58145 0.87047 0.21138 0.0
C525 C 0.53139 0.90841 0.30351 0.0
C526 C 0.51561 0.89463 0.33653 0.0
H527 H 0.57888 0.91947 0.21475 0.0
H528 H 0.51764 0.91915 0.32821 0.0
C529 C 0.53564 0.88092 0.30293 0.0
C530 C 0.53537 0.16628 0.23954 0.0
C531 C 0.51569 0.15266 0.20798 0.0
H532 H 0.5856 0.17736 0.32069 0.0
C533 C 0.53275 0.13884 0.23981 0.0
H534 H 0.52444 0.17721 0.21741 0.0
C535 C 0.56688 0.13895 0.30261 0.0
C536 C 0.58703 0.15287 0.33296 0.0
H537 H 0.51926 0.12812 0.21666 0.0
H538 H 0.57714 0.12831 0.32711 0.0
C539 C 0.5717 0.16637 0.29974 0.0
C540 C 0.53405 0.12575 0.80331 0.0
C541 C 0.51303 0.13954 0.83571 0.0
H542 H 0.5866 0.1147 0.71506 0.0
C543 C 0.52911 0.15324 0.80178 0.0
H544 H 0.52338 0.11503 0.82839 0.0
C545 C 0.56294 0.15304 0.73587 0.0
C546 C 0.58525 0.13915 0.70397 0.0
H547 H 0.5138 0.16402 0.82595 0.0
H548 H 0.57301 0.16366 0.71008 0.0
C549 C 0.57114 0.12556 0.73849 0.0
C550 C 0.53428 0.8942 0.7394 0.0
C551 C 0.51354 0.88036 0.70859 0.0
H552 H 0.58223 0.90484 0.8257 0.0
C553 C 0.5282 0.86679 0.74153 0.0
H554 H 0.52458 0.90489 0.71522 0.0
C555 C 0.56444 0.86674 0.80184 0.0
C556 C 0.58473 0.88027 0.83377 0.0
H557 H 0.51382 0.85585 0.72028 0.0
H558 H 0.57488 0.85577 0.82379 0.0
C559 C 0.56833 0.89417 0.80225 0.0
loop_
_geom_bond_atom_site_label_1
_geom_bond_atom_site_label_2
_geom_bond_distance
_geom_bond_site_symmetry_2
_ccdc_geom_bond_type
Gd0 C3 2.818 1_455 S
Gd0 O20 2.377 1_455 S
Gd0 O22 2.448 . S
Gd0 O23 2.506 1_454 S
Gd0 O24 2.435 . S
Gd0 O25 2.717 . S
Gd0 O27 2.395 . S
Gd0 O31 2.327 1_554 S
Gd1 C12 2.818 . S
Gd1 O21 2.395 1_455 S
Gd1 O25 2.327 . S
Gd1 O26 2.377 1_554 S
Gd1 O28 2.448 1_554 S
Gd1 O29 2.506 . S
Gd1 O30 2.435 1_554 S
Gd1 O31 2.717 1_554 S
C2 O20 1.240 . S
C2 O21 1.240 . S
C3 Gd0 2.818 1_655 S
C3 C4 1.510 . S
C3 O22 1.249 1_655 S
C3 O23 1.252 1_554 S
C4 C3 1.510 . S
C4 C5 1.404 . S
C4 C6 1.352 1_554 S
C5 C4 1.404 . S
C5 C9 1.389 . S
C5 H32 0.930 . S
C6 C4 1.352 1_556 S
C6 C8 1.374 . S
C6 H33 0.931 . S
C7 C8 1.359 . S
C7 C9 1.364 1_556 S
C8 C6 1.374 . S
C8 C7 1.359 . S
C8 H34 0.931 . S
C9 C5 1.389 . S
C9 C7 1.364 1_554 S
C9 H35 0.931 . S
C10 O24 1.256 . S
C10 O25 1.257 . S
C11 O26 1.240 1_554 S
C11 O27 1.240 . S
C12 Gd1 2.818 . S
C12 C13 1.510 . S
C12 O28 1.249 1_554 S
C12 O29 1.252 . S
C13 C12 1.510 . S
C13 C14 1.404 1_554 S
C13 C15 1.352 . S
C14 C13 1.404 1_556 S
C14 C18 1.389 . S
C14 H36 0.930 . S
C15 C13 1.352 . S
C15 C17 1.374 . S
C15 H37 0.931 . S
C16 C17 1.359 . S
C16 C18 1.364 1_554 S
C17 C15 1.374 . S
C17 C16 1.359 . S
C17 H38 0.931 . S
C18 C14 1.389 . S
C18 C16 1.364 1_556 S
C18 H39 0.931 . S
C19 O30 1.256 . S
C19 O31 1.257 . S
O20 Gd0 2.377 1_655 S
O20 C2 1.240 . S
O21 Gd1 2.395 1_655 S
O21 C2 1.240 . S
O22 Gd0 2.448 . S
O22 C3 1.249 1_455 S
O23 Gd0 2.506 1_656 S
O23 C3 1.252 1_556 S
O24 Gd0 2.435 . S
O24 C10 1.256 . S
O25 Gd0 2.717 . S
O25 Gd1 2.327 . S
O25 C10 1.257 . S
O26 Gd1 2.377 1_556 S
O26 C11 1.240 1_556 S
O27 Gd0 2.395 . S
O27 C11 1.240 . S
O28 Gd1 2.448 1_556 S
O28 C12 1.249 1_556 S
O29 Gd1 2.506 . S
O29 C12 1.252 . S
O30 Gd1 2.435 1_556 S
O30 C19 1.256 . S
O31 Gd0 2.327 1_556 S
O31 Gd1 2.717 1_556 S
O31 C19 1.257 . S
H32 C5 0.930 . S
H33 C6 0.931 . S
H34 C8 0.931 . S
H35 C9 0.931 . S
H36 C14 0.930 . S
H37 C15 0.931 . S
H38 C17 0.931 . S
H39 C18 0.931 . S
Gd40 C43 2.818 . S
Gd40 O60 2.377 . S
Gd40 O62 2.448 . S
Gd40 O63 2.506 1_554 S
Gd40 O64 2.435 . S
Gd40 O65 2.717 . S
Gd40 O67 2.395 1_655 S
Gd40 O71 2.327 1_554 S
Gd41 C52 2.818 1_655 S
Gd41 O61 2.395 . S
Gd41 O65 2.327 . S
Gd41 O66 2.377 1_654 S
Gd41 O68 2.448 1_554 S
Gd41 O69 2.506 1_655 S
Gd41 O70 2.435 1_554 S
Gd41 O71 2.717 1_554 S
C42 O60 1.240 . S
C42 O61 1.240 . S
C43 Gd40 2.818 . S
C43 C44 1.510 . S
C43 O62 1.249 . S
C43 O63 1.252 1_554 S
C44 C43 1.510 . S
C44 C45 1.404 . S
C44 C46 1.352 1_554 S
C45 C44 1.404 . S
C45 C49 1.389 . S
C45 H72 0.930 . S
C46 C44 1.352 1_556 S
C46 C48 1.374 . S
C46 H73 0.931 . S
C47 C48 1.359 . S
C47 C49 1.364 1_556 S
C48 C46 1.374 . S
C48 C47 1.359 . S
C48 H74 0.931 . S
C49 C45 1.389 . S
C49 C47 1.364 1_554 S
C49 H75 0.931 . S
C50 O64 1.256 . S
C50 O65 1.257 . S
C51 O66 1.240 1_554 S
C51 O67 1.240 . S
C52 Gd41 2.818 1_455 S
C52 C53 1.510 . S
C52 O68 1.249 1_454 S
C52 O69 1.252 . S
C53 C52 1.510 . S
C53 C54 1.404 1_554 S
C53 C55 1.352 . S
C54 C53 1.404 1_556 S
C54 C58 1.389 . S
C54 H76 0.930 . S
C55 C53 1.352 . S
C55 C57 1.374 . S
C55 H77 0.931 . S
C56 C57 1.359 . S
C56 C58 1.364 1_554 S
C57 C55 1.374 . S
C57 C56 1.359 . S
C57 H78 0.931 . S
C58 C54 1.389 . S
C58 C56 1.364 1_556 S
C58 H79 0.931 . S
C59 O70 1.256 . S
C59 O71 1.257 . S
O60 Gd40 2.377 . S
O60 C42 1.240 . S
O61 Gd41 2.395 . S
O61 C42 1.240 . S
O62 Gd40 2.448 . S
O62 C43 1.249 . S
O63 Gd40 2.506 1_556 S
O63 C43 1.252 1_556 S
O64 Gd40 2.435 . S
O64 C50 1.256 . S
O65 Gd40 2.717 . S
O65 Gd41 2.327 . S
O65 C50 1.257 . S
O66 Gd41 2.377 1_456 S
O66 C51 1.240 1_556 S
O67 Gd40 2.395 1_455 S
O67 C51 1.240 . S
O68 Gd41 2.448 1_556 S
O68 C52 1.249 1_656 S
O69 Gd41 2.506 1_455 S
O69 C52 1.252 . S
O70 Gd41 2.435 1_556 S
O70 C59 1.256 . S
O71 Gd40 2.327 1_556 S
O71 Gd41 2.717 1_556 S
O71 C59 1.257 . S
H72 C45 0.930 . S
H73 C46 0.931 . S
H74 C48 0.931 . S
H75 C49 0.931 . S
H76 C54 0.930 . S
H77 C55 0.931 . S
H78 C57 0.931 . S
H79 C58 0.931 . S
Gd80 C83 2.818 . S
Gd80 O100 2.377 . S
Gd80 O102 2.448 . S
Gd80 O103 2.506 . S
Gd80 O104 2.435 . S
Gd80 O105 2.717 . S
Gd80 O107 2.395 1_455 S
Gd80 O111 2.327 . S
Gd81 C92 2.818 1_455 S
Gd81 O101 2.395 . S
Gd81 O105 2.327 . S
Gd81 O106 2.377 1_455 S
Gd81 O108 2.448 . S
Gd81 O109 2.506 1_455 S
Gd81 O110 2.435 . S
Gd81 O111 2.717 . S
C82 O100 1.240 . S
C82 O101 1.240 . S
C83 Gd80 2.818 . S
C83 C84 1.510 . S
C83 O102 1.249 . S
C83 O103 1.252 . S
C84 C83 1.510 . S
C84 C85 1.404 . S
C84 C86 1.352 . S
C85 C84 1.404 . S
C85 C89 1.389 . S
C85 H112 0.930 . S
C86 C84 1.352 . S
C86 C88 1.374 . S
C86 H113 0.931 . S
C87 C88 1.359 . S
C87 C89 1.364 . S
C88 C86 1.374 . S
C88 C87 1.359 . S
C88 H114 0.931 . S
C89 C85 1.389 . S
C89 C87 1.364 . S
C89 H115 0.931 . S
C90 O104 1.256 . S
C90 O105 1.257 . S
C91 O106 1.240 . S
C91 O107 1.240 . S
C92 Gd81 2.818 1_655 S
C92 C93 1.510 . S
C92 O108 1.249 1_655 S
C92 O109 1.252 . S
C93 C92 1.510 . S
C93 C94 1.404 . S
C93 C95 1.352 . S
C94 C93 1.404 . S
C94 C98 1.389 . S
C94 H116 0.930 . S
C95 C93 1.352 . S
C95 C97 1.374 . S
C95 H117 0.931 . S
C96 C97 1.359 . S
C96 C98 1.364 . S
C97 C95 1.374 . S
C97 C96 1.359 . S
C97 H118 0.931 . S
C98 C94 1.389 . S
C98 C96 1.364 . S
C98 H119 0.931 . S
C99 O110 1.256 . S
C99 O111 1.257 . S
O100 Gd80 2.377 . S
O100 C82 1.240 . S
O101 Gd81 2.395 . S
O101 C82 1.240 . S
O102 Gd80 2.448 . S
O102 C83 1.249 . S
O103 Gd80 2.506 . S
O103 C83 1.252 . S
O104 Gd80 2.435 . S
O104 C90 1.256 . S
O105 Gd80 2.717 . S
O105 Gd81 2.327 . S
O105 C90 1.257 . S
O106 Gd81 2.377 1_655 S
O106 C91 1.240 . S
O107 Gd80 2.395 1_655 S
O107 C91 1.240 . S
O108 Gd81 2.448 . S
O108 C92 1.249 1_455 S
O109 Gd81 2.506 1_655 S
O109 C92 1.252 . S
O110 Gd81 2.435 . S
O110 C99 1.256 . S
O111 Gd80 2.327 . S
O111 Gd81 2.717 . S
O111 C99 1.257 . S
H112 C85 0.930 . S
H113 C86 0.931 . S
H114 C88 0.931 . S
H115 C89 0.931 . S
H116 C94 0.930 . S
H117 C95 0.931 . S
H118 C97 0.931 . S
H119 C98 0.931 . S
Gd120 C123 2.818 1_655 S
Gd120 O140 2.377 1_655 S
Gd120 O142 2.448 . S
Gd120 O143 2.506 1_655 S
Gd120 O144 2.435 . S
Gd120 O145 2.717 . S
Gd120 O147 2.395 . S
Gd120 O151 2.327 . S
Gd121 C132 2.818 . S
Gd121 O141 2.395 1_655 S
Gd121 O145 2.327 . S
Gd121 O146 2.377 . S
Gd121 O148 2.448 . S
Gd121 O149 2.506 . S
Gd121 O150 2.435 . S
Gd121 O151 2.717 . S
C122 O140 1.240 . S
C122 O141 1.240 . S
C123 Gd120 2.818 1_455 S
C123 C124 1.510 . S
C123 O142 1.249 1_455 S
C123 O143 1.252 . S
C124 C123 1.510 . S
C124 C125 1.404 . S
C124 C126 1.352 . S
C125 C124 1.404 . S
C125 C129 1.389 . S
C125 H152 0.930 . S
C126 C124 1.352 . S
C126 C128 1.374 . S
C126 H153 0.931 . S
C127 C128 1.359 . S
C127 C129 1.364 . S
C128 C126 1.374 . S
C128 C127 1.359 . S
C128 H154 0.931 . S
C129 C125 1.389 . S
C129 C127 1.364 . S
C129 H155 0.931 . S
C130 O144 1.256 . S
C130 O145 1.257 . S
C131 O146 1.240 . S
C131 O147 1.240 . S
C132 Gd121 2.818 . S
C132 C133 1.510 . S
C132 O148 1.249 . S
C132 O149 1.252 . S
C133 C132 1.510 . S
C133 C134 1.404 . S
C133 C135 1.352 . S
C134 C133 1.404 . S
C134 C138 1.389 . S
C134 H156 0.930 . S
C135 C133 1.352 . S
C135 C137 1.374 . S
C135 H157 0.931 . S
C136 C137 1.359 . S
C136 C138 1.364 . S
C137 C135 1.374 . S
C137 C136 1.359 . S
C137 H158 0.931 . S
C138 C134 1.389 . S
C138 C136 1.364 . S
C138 H159 0.931 . S
C139 O150 1.256 . S
C139 O151 1.257 . S
O140 Gd120 2.377 1_455 S
O140 C122 1.240 . S
O141 Gd121 2.395 1_455 S
O141 C122 1.240 . S
O142 Gd120 2.448 . S
O142 C123 1.249 1_655 S
O143 Gd120 2.506 1_455 S
O143 C123 1.252 . S
O144 Gd120 2.435 . S
O144 C130 1.256 . S
O145 Gd120 2.717 . S
O145 Gd121 2.327 . S
O145 C130 1.257 . S
O146 Gd121 2.377 . S
O146 C131 1.240 . S
O147 Gd120 2.395 . S
O147 C131 1.240 . S
O148 Gd121 2.448 . S
O148 C132 1.249 . S
O149 Gd121 2.506 . S
O149 C132 1.252 . S
O150 Gd121 2.435 . S
O150 C139 1.256 . S
O151 Gd120 2.327 . S
O151 Gd121 2.717 . S
O151 C139 1.257 . S
H152 C125 0.930 . S
H153 C126 0.931 . S
H154 C128 0.931 . S
H155 C129 0.931 . S
H156 C134 0.930 . S
H157 C135 0.931 . S
H158 C137 0.931 . S
H159 C138 0.931 . S
Gd160 C163 2.818 . S
Gd160 O180 2.377 . S
Gd160 O182 2.448 . S
Gd160 O183 2.506 1_554 S
Gd160 O184 2.435 . S
Gd160 O185 2.717 . S
Gd160 O187 2.395 . S
Gd160 O191 2.327 1_554 S
Gd161 C172 2.818 . S
Gd161 O181 2.395 . S
Gd161 O185 2.327 . S
Gd161 O186 2.377 1_554 S
Gd161 O188 2.448 1_554 S
Gd161 O189 2.506 . S
Gd161 O190 2.435 1_554 S
Gd161 O191 2.717 1_554 S
C162 O180 1.240 . S
C162 O181 1.240 . S
C163 Gd160 2.818 . S
C163 C164 1.510 . S
C163 O182 1.249 . S
C163 O183 1.252 1_554 S
C164 C163 1.510 . S
C164 C165 1.404 . S
C164 C166 1.352 1_554 S
C165 C164 1.404 . S
C165 C169 1.389 . S
C165 H192 0.930 . S
C166 C164 1.352 1_556 S
C166 C168 1.374 . S
C166 H193 0.931 . S
C167 C168 1.359 . S
C167 C169 1.364 1_556 S
C168 C166 1.374 . S
C168 C167 1.359 . S
C168 H194 0.931 . S
C169 C165 1.389 . S
C169 C167 1.364 1_554 S
C169 H195 0.931 . S
C170 O184 1.256 . S
C170 O185 1.257 . S
C171 O186 1.240 1_554 S
C171 O187 1.240 . S
C172 Gd161 2.818 . S
C172 C173 1.510 . S
C172 O188 1.249 1_554 S
C172 O189 1.252 . S
C173 C172 1.510 . S
C173 C174 1.404 1_554 S
C173 C175 1.352 . S
C174 C173 1.404 1_556 S
C174 C178 1.389 . S
C174 H196 0.930 . S
C175 C173 1.352 . S
C175 C177 1.374 . S
C175 H197 0.931 . S
C176 C177 1.359 . S
C176 C178 1.364 1_554 S
C177 C175 1.374 . S
C177 C176 1.359 . S
C177 H198 0.931 . S
C178 C174 1.389 . S
C178 C176 1.364 1_556 S
C178 H199 0.931 . S
C179 O190 1.256 . S
C179 O191 1.257 . S
O180 Gd160 2.377 . S
O180 C162 1.240 . S
O181 Gd161 2.395 . S
O181 C162 1.240 . S
O182 Gd160 2.448 . S
O182 C163 1.249 . S
O183 Gd160 2.506 1_556 S
O183 C163 1.252 1_556 S
O184 Gd160 2.435 . S
O184 C170 1.256 . S
O185 Gd160 2.717 . S
O185 Gd161 2.327 . S
O185 C170 1.257 . S
O186 Gd161 2.377 1_556 S
O186 C171 1.240 1_556 S
O187 Gd160 2.395 . S
O187 C171 1.240 . S
O188 Gd161 2.448 1_556 S
O188 C172 1.249 1_556 S
O189 Gd161 2.506 . S
O189 C172 1.252 . S
O190 Gd161 2.435 1_556 S
O190 C179 1.256 . S
O191 Gd160 2.327 1_556 S
O191 Gd161 2.717 1_556 S
O191 C179 1.257 . S
H192 C165 0.930 . S
H193 C166 0.931 . S
H194 C168 0.931 . S
H195 C169 0.931 . S
H196 C174 0.930 . S
H197 C175 0.931 . S
H198 C177 0.931 . S
H199 C178 0.931 . S
Gd200 C203 2.818 . S
Gd200 O220 2.377 . S
Gd200 O222 2.448 . S
Gd200 O223 2.506 1_554 S
Gd200 O224 2.435 . S
Gd200 O225 2.717 . S
Gd200 O227 2.395 . S
Gd200 O231 2.327 1_554 S
Gd201 C212 2.818 . S
Gd201 O221 2.395 . S
Gd201 O225 2.327 . S
Gd201 O226 2.377 1_554 S
Gd201 O228 2.448 1_554 S
Gd201 O229 2.506 . S
Gd201 O230 2.435 1_554 S
Gd201 O231 2.717 1_554 S
C202 O220 1.240 . S
C202 O221 1.240 . S
C203 Gd200 2.818 . S
C203 C204 1.510 . S
C203 O222 1.249 . S
C203 O223 1.252 1_554 S
C204 C203 1.510 . S
C204 C205 1.404 . S
C204 C206 1.352 1_554 S
C205 C204 1.404 . S
C205 C209 1.389 . S
C205 H232 0.930 . S
C206 C204 1.352 1_556 S
C206 C208 1.374 . S
C206 H233 0.931 . S
C207 C208 1.359 . S
C207 C209 1.364 1_556 S
C208 C206 1.374 . S
C208 C207 1.359 . S
C208 H234 0.931 . S
C209 C205 1.389 . S
C209 C207 1.364 1_554 S
C209 H235 0.931 . S
C210 O224 1.256 . S
C210 O225 1.257 . S
C211 O226 1.240 1_554 S
C211 O227 1.240 . S
C212 Gd201 2.818 . S
C212 C213 1.510 . S
C212 O228 1.249 1_554 S
C212 O229 1.252 . S
C213 C212 1.510 . S
C213 C214 1.404 1_554 S
C213 C215 1.352 . S
C214 C213 1.404 1_556 S
C214 C218 1.389 . S
C214 H236 0.930 . S
C215 C213 1.352 . S
C215 C217 1.374 . S
C215 H237 0.931 . S
C216 C217 1.359 . S
C216 C218 1.364 1_554 S
C217 C215 1.374 . S
C217 C216 1.359 . S
C217 H238 0.931 . S
C218 C214 1.389 . S
C218 C216 1.364 1_556 S
C218 H239 0.931 . S
C219 O230 1.256 . S
C219 O231 1.257 . S
O220 Gd200 2.377 . S
O220 C202 1.240 . S
O221 Gd201 2.395 . S
O221 C202 1.240 . S
O222 Gd200 2.448 . S
O222 C203 1.249 . S
O223 Gd200 2.506 1_556 S
O223 C203 1.252 1_556 S
O224 Gd200 2.435 . S
O224 C210 1.256 . S
O225 Gd200 2.717 . S
O225 Gd201 2.327 . S
O225 C210 1.257 . S
O226 Gd201 2.377 1_556 S
O226 C211 1.240 1_556 S
O227 Gd200 2.395 . S
O227 C211 1.240 . S
O228 Gd201 2.448 1_556 S
O228 C212 1.249 1_556 S
O229 Gd201 2.506 . S
O229 C212 1.252 . S
O230 Gd201 2.435 1_556 S
O230 C219 1.256 . S
O231 Gd200 2.327 1_556 S
O231 Gd201 2.717 1_556 S
O231 C219 1.257 . S
H232 C205 0.930 . S
H233 C206 0.931 . S
H234 C208 0.931 . S
H235 C209 0.931 . S
H236 C214 0.930 . S
H237 C215 0.931 . S
H238 C217 0.931 . S
H239 C218 0.931 . S
Gd240 C243 2.818 . S
Gd240 O260 2.377 . S
Gd240 O262 2.448 . S
Gd240 O263 2.506 . S
Gd240 O264 2.435 . S
Gd240 O265 2.717 . S
Gd240 O267 2.395 . S
Gd240 O271 2.327 . S
Gd241 C252 2.818 . S
Gd241 O261 2.395 . S
Gd241 O265 2.327 . S
Gd241 O266 2.377 . S
Gd241 O268 2.448 . S
Gd241 O269 2.506 . S
Gd241 O270 2.435 . S
Gd241 O271 2.717 . S
C242 O260 1.240 . S
C242 O261 1.240 . S
C243 Gd240 2.818 . S
C243 C244 1.510 . S
C243 O262 1.249 . S
C243 O263 1.252 . S
C244 C243 1.510 . S
C244 C245 1.404 . S
C244 C246 1.352 . S
C245 C244 1.404 . S
C245 C249 1.389 . S
C245 H272 0.930 . S
C246 C244 1.352 . S
C246 C248 1.374 . S
C246 H273 0.931 . S
C247 C248 1.359 . S
C247 C249 1.364 . S
C248 C246 1.374 . S
C248 C247 1.359 . S
C248 H274 0.931 . S
C249 C245 1.389 . S
C249 C247 1.364 . S
C249 H275 0.931 . S
C250 O264 1.256 . S
C250 O265 1.257 . S
C251 O266 1.240 . S
C251 O267 1.240 . S
C252 Gd241 2.818 . S
C252 C253 1.510 . S
C252 O268 1.249 . S
C252 O269 1.252 . S
C253 C252 1.510 . S
C253 C254 1.404 . S
C253 C255 1.352 . S
C254 C253 1.404 . S
C254 C258 1.389 . S
C254 H276 0.930 . S
C255 C253 1.352 . S
C255 C257 1.374 . S
C255 H277 0.931 . S
C256 C257 1.359 . S
C256 C258 1.364 . S
C257 C255 1.374 . S
C257 C256 1.359 . S
C257 H278 0.931 . S
C258 C254 1.389 . S
C258 C256 1.364 . S
C258 H279 0.931 . S
C259 O270 1.256 . S
C259 O271 1.257 . S
O260 Gd240 2.377 . S
O260 C242 1.240 . S
O261 Gd241 2.395 . S
O261 C242 1.240 . S
O262 Gd240 2.448 . S
O262 C243 1.249 . S
O263 Gd240 2.506 . S
O263 C243 1.252 . S
O264 Gd240 2.435 . S
O264 C250 1.256 . S
O265 Gd240 2.717 . S
O265 Gd241 2.327 . S
O265 C250 1.257 . S
O266 Gd241 2.377 . S
O266 C251 1.240 . S
O267 Gd240 2.395 . S
O267 C251 1.240 . S
O268 Gd241 2.448 . S
O268 C252 1.249 . S
O269 Gd241 2.506 . S
O269 C252 1.252 . S
O270 Gd241 2.435 . S
O270 C259 1.256 . S
O271 Gd240 2.327 . S
O271 Gd241 2.717 . S
O271 C259 1.257 . S
H272 C245 0.930 . S
H273 C246 0.931 . S
H274 C248 0.931 . S
H275 C249 0.931 . S
H276 C254 0.930 . S
H277 C255 0.931 . S
H278 C257 0.931 . S
H279 C258 0.931 . S
Gd280 C283 2.818 . S
Gd280 O300 2.377 . S
Gd280 O302 2.448 . S
Gd280 O303 2.506 . S
Gd280 O304 2.435 . S
Gd280 O305 2.717 . S
Gd280 O307 2.395 . S
Gd280 O311 2.327 . S
Gd281 C292 2.818 . S
Gd281 O301 2.395 . S
Gd281 O305 2.327 . S
Gd281 O306 2.377 . S
Gd281 O308 2.448 . S
Gd281 O309 2.506 . S
Gd281 O310 2.435 . S
Gd281 O311 2.717 . S
C282 O300 1.240 . S
C282 O301 1.240 . S
C283 Gd280 2.818 . S
C283 C284 1.510 . S
C283 O302 1.249 . S
C283 O303 1.252 . S
C284 C283 1.510 . S
C284 C285 1.404 . S
C284 C286 1.352 . S
C285 C284 1.404 . S
C285 C289 1.389 . S
C285 H312 0.930 . S
C286 C284 1.352 . S
C286 C288 1.374 . S
C286 H313 0.931 . S
C287 C288 1.359 . S
C287 C289 1.364 . S
C288 C286 1.374 . S
C288 C287 1.359 . S
C288 H314 0.931 . S
C289 C285 1.389 . S
C289 C287 1.364 . S
C289 H315 0.931 . S
C290 O304 1.256 . S
C290 O305 1.257 . S
C291 O306 1.240 . S
C291 O307 1.240 . S
C292 Gd281 2.818 . S
C292 C293 1.510 . S
C292 O308 1.249 . S
C292 O309 1.252 . S
C293 C292 1.510 . S
C293 C294 1.404 . S
C293 C295 1.352 . S
C294 C293 1.404 . S
C294 C298 1.389 . S
C294 H316 0.930 . S
C295 C293 1.352 . S
C295 C297 1.374 . S
C295 H317 0.931 . S
C296 C297 1.359 . S
C296 C298 1.364 . S
C297 C295 1.374 . S
C297 C296 1.359 . S
C297 H318 0.931 . S
C298 C294 1.389 . S
C298 C296 1.364 . S
C298 H319 0.931 . S
C299 O310 1.256 . S
C299 O311 1.257 . S
O300 Gd280 2.377 . S
O300 C282 1.240 . S
O301 Gd281 2.395 . S
O301 C282 1.240 . S
O302 Gd280 2.448 . S
O302 C283 1.249 . S
O303 Gd280 2.506 . S
O303 C283 1.252 . S
O304 Gd280 2.435 . S
O304 C290 1.256 . S
O305 Gd280 2.717 . S
O305 Gd281 2.327 . S
O305 C290 1.257 . S
O306 Gd281 2.377 . S
O306 C291 1.240 . S
O307 Gd280 2.395 . S
O307 C291 1.240 . S
O308 Gd281 2.448 . S
O308 C292 1.249 . S
O309 Gd281 2.506 . S
O309 C292 1.252 . S
O310 Gd281 2.435 . S
O310 C299 1.256 . S
O311 Gd280 2.327 . S
O311 Gd281 2.717 . S
O311 C299 1.257 . S
H312 C285 0.930 . S
H313 C286 0.931 . S
H314 C288 0.931 . S
H315 C289 0.931 . S
H316 C294 0.930 . S
H317 C295 0.931 . S
H318 C297 0.931 . S
H319 C298 0.931 . S
C320 C321 1.387 1_556 S
C320 H324 0.950 . S
C320 C329 1.390 . S
C321 C320 1.387 1_554 S
C321 C323 1.387 . S
H322 C329 0.950 . S
C323 C321 1.387 . S
C323 C325 1.390 . S
C323 H327 0.950 . S
H324 C320 0.950 . S
C325 C323 1.390 . S
C325 C326 1.387 . S
C325 H328 0.950 . S
C326 C325 1.387 . S
C326 C329 1.387 1_554 S
H327 C323 0.950 . S
H328 C325 0.950 . S
C329 C320 1.390 . S
C329 H322 0.950 . S
C329 C326 1.387 1_556 S
C330 C331 1.387 1_556 S
C330 H334 0.950 . S
C330 C339 1.390 . S
C331 C330 1.387 1_554 S
C331 C333 1.387 . S
H332 C339 0.950 . S
C333 C331 1.387 . S
C333 C335 1.390 . S
C333 H337 0.950 . S
H334 C330 0.950 . S
C335 C333 1.390 . S
C335 C336 1.387 . S
C335 H338 0.950 . S
C336 C335 1.387 . S
C336 C339 1.387 1_554 S
H337 C333 0.950 . S
H338 C335 0.950 . S
C339 C330 1.390 . S
C339 H332 0.950 . S
C339 C336 1.387 1_556 S
C340 C341 1.387 . S
C340 H344 0.950 . S
C340 C349 1.390 . S
C341 C340 1.387 . S
C341 C343 1.387 . S
H342 C349 0.950 . S
C343 C341 1.387 . S
C343 C345 1.390 . S
C343 H347 0.950 . S
H344 C340 0.950 . S
C345 C343 1.390 . S
C345 C346 1.387 . S
C345 H348 0.950 . S
C346 C345 1.387 . S
C346 C349 1.387 . S
H347 C343 0.950 . S
H348 C345 0.950 . S
C349 C340 1.390 . S
C349 H342 0.950 . S
C349 C346 1.387 . S
C350 C351 1.387 . S
C350 H354 0.950 . S
C350 C359 1.390 . S
C351 C350 1.387 . S
C351 C353 1.387 . S
H352 C359 0.950 . S
C353 C351 1.387 . S
C353 C355 1.390 . S
C353 H357 0.950 . S
H354 C350 0.950 . S
C355 C353 1.390 . S
C355 C356 1.387 . S
C355 H358 0.950 . S
C356 C355 1.387 . S
C356 C359 1.387 . S
H357 C353 0.950 . S
H358 C355 0.950 . S
C359 C350 1.390 . S
C359 H352 0.950 . S
C359 C356 1.387 . S
C360 C361 1.387 1_456 S
C360 H364 0.950 1_455 S
C360 C369 1.390 . S
C361 C360 1.387 1_654 S
C361 C363 1.387 1_655 S
H362 C369 0.950 . S
C363 C361 1.387 1_455 S
C363 C365 1.390 . S
C363 H367 0.950 1_455 S
H364 C360 0.950 1_655 S
C365 C363 1.390 . S
C365 C366 1.387 . S
C365 H368 0.950 . S
C366 C365 1.387 . S
C366 C369 1.387 1_554 S
H367 C363 0.950 1_655 S
H368 C365 0.950 . S
C369 C360 1.390 . S
C369 H362 0.950 . S
C369 C366 1.387 1_556 S
C370 C371 1.387 1_655 S
C370 H374 0.950 . S
C370 C379 1.390 . S
C371 C370 1.387 1_455 S
C371 C373 1.387 1_554 S
H372 C379 0.950 . S
C373 C371 1.387 1_556 S
C373 C375 1.390 1_455 S
C373 H377 0.950 . S
H374 C370 0.950 . S
C375 C373 1.390 1_655 S
C375 C376 1.387 1_556 S
C375 H378 0.950 . S
C376 C375 1.387 1_554 S
C376 C379 1.387 . S
H377 C373 0.950 . S
H378 C375 0.950 . S
C379 C370 1.390 . S
C379 H372 0.950 . S
C379 C376 1.387 . S
C380 C381 1.387 . S
C380 H384 0.950 . S
C380 C389 1.390 . S
C381 C380 1.387 . S
C381 C383 1.387 . S
H382 C389 0.950 1_655 S
C383 C381 1.387 . S
C383 C385 1.390 . S
C383 H387 0.950 . S
H384 C380 0.950 . S
C385 C383 1.390 . S
C385 C386 1.387 1_455 S
C385 H388 0.950 1_455 S
C386 C385 1.387 1_655 S
C386 C389 1.387 1_655 S
H387 C383 0.950 . S
H388 C385 0.950 1_655 S
C389 C380 1.390 . S
C389 H382 0.950 1_455 S
C389 C386 1.387 1_455 S
C390 C391 1.387 . S
C390 H394 0.950 . S
C390 C399 1.390 . S
C391 C390 1.387 . S
C391 C393 1.387 . S
H392 C399 0.950 1_455 S
C393 C391 1.387 . S
C393 C395 1.390 . S
C393 H397 0.950 . S
H394 C390 0.950 . S
C395 C393 1.390 . S
C395 C396 1.387 1_655 S
C395 H398 0.950 1_655 S
C396 C395 1.387 1_455 S
C396 C399 1.387 1_455 S
H397 C393 0.950 . S
H398 C395 0.950 1_455 S
C399 C390 1.390 . S
C399 H392 0.950 1_655 S
C399 C396 1.387 1_655 S
C400 C401 1.387 . S
C400 H404 0.950 . S
C400 C409 1.390 1_455 S
C401 C400 1.387 . S
C401 C403 1.387 1_554 S
H402 C409 0.950 . S
C403 C401 1.387 1_556 S
C403 C405 1.390 1_455 S
C403 H407 0.950 . S
H404 C400 0.950 . S
C405 C403 1.390 1_655 S
C405 C406 1.387 1_556 S
C405 H408 0.950 . S
C406 C405 1.387 1_554 S
C406 C409 1.387 . S
H407 C403 0.950 . S
H408 C405 0.950 . S
C409 C400 1.390 1_655 S
C409 H402 0.950 . S
C409 C406 1.387 . S
C410 C411 1.387 . S
C410 H414 0.950 . S
C410 C419 1.390 1_455 S
C411 C410 1.387 . S
C411 C413 1.387 . S
H412 C419 0.950 . S
C413 C411 1.387 . S
C413 C415 1.390 1_455 S
C413 H417 0.950 . S
H414 C410 0.950 . S
C415 C413 1.390 1_655 S
C415 C416 1.387 . S
C415 H418 0.950 . S
C416 C415 1.387 . S
C416 C419 1.387 . S
H417 C413 0.950 . S
H418 C415 0.950 . S
C419 C410 1.390 1_655 S
C419 H412 0.950 . S
C419 C416 1.387 . S
C420 C421 1.387 1_556 S
C420 H424 0.950 . S
C420 C429 1.390 1_565 S
C421 C420 1.387 1_554 S
C421 C423 1.387 . S
H422 C429 0.950 . S
C423 C421 1.387 . S
C423 C425 1.390 1_565 S
C423 H427 0.950 . S
H424 C420 0.950 . S
C425 C423 1.390 1_545 S
C425 C426 1.387 . S
C425 H428 0.950 . S
C426 C425 1.387 . S
C426 C429 1.387 1_554 S
H427 C423 0.950 . S
H428 C425 0.950 . S
C429 C420 1.390 1_545 S
C429 H422 0.950 . S
C429 C426 1.387 1_556 S
C430 C431 1.387 . S
C430 H434 0.950 . S
C430 C439 1.410 . S
C431 C430 1.387 . S
C431 C433 1.368 1_545 S
H432 C439 0.949 . S
C433 C431 1.368 1_565 S
C433 C435 1.410 . S
C433 H437 0.949 . S
H434 C430 0.950 . S
C435 C433 1.410 . S
C435 C436 1.387 . S
C435 H438 0.950 . S
C436 C435 1.387 . S
C436 C439 1.367 1_565 S
H437 C433 0.949 . S
H438 C435 0.950 . S
C439 C430 1.410 . S
C439 H432 0.949 . S
C439 C436 1.367 1_545 S
C440 C441 1.387 . S
C440 H444 0.950 . S
C440 C449 1.390 . S
C441 C440 1.387 . S
C441 C443 1.387 1_554 S
H442 C449 0.950 . S
C443 C441 1.387 1_556 S
C443 C445 1.390 . S
C443 H447 0.950 . S
H444 C440 0.950 . S
C445 C443 1.390 . S
C445 C446 1.387 1_556 S
C445 H448 0.950 . S
C446 C445 1.387 1_554 S
C446 C449 1.387 . S
H447 C443 0.950 . S
H448 C445 0.950 . S
C449 C440 1.390 . S
C449 H442 0.950 . S
C449 C446 1.387 . S
C450 C451 1.387 . S
C450 H454 0.950 . S
C450 C459 1.390 . S
C451 C450 1.387 . S
C451 C453 1.387 . S
H452 C459 0.950 . S
C453 C451 1.387 . S
C453 C455 1.390 . S
C453 H457 0.950 . S
H454 C450 0.950 . S
C455 C453 1.390 . S
C455 C456 1.387 . S
C455 H458 0.950 . S
C456 C455 1.387 . S
C456 C459 1.387 . S
H457 C453 0.950 . S
H458 C455 0.950 . S
C459 C450 1.390 . S
C459 H452 0.950 . S
C459 C456 1.387 . S
C460 C461 1.387 . S
C460 H464 0.950 . S
C460 C469 1.390 . S
C461 C460 1.387 . S
C461 C463 1.387 . S
H462 C469 0.950 . S
C463 C461 1.387 . S
C463 C465 1.390 . S
C463 H467 0.950 . S
H464 C460 0.950 . S
C465 C463 1.390 . S
C465 C466 1.387 . S
C465 H468 0.950 . S
C466 C465 1.387 . S
C466 C469 1.387 . S
H467 C463 0.950 . S
H468 C465 0.950 . S
C469 C460 1.390 . S
C469 H462 0.950 . S
C469 C466 1.387 . S
C470 C471 1.387 . S
C470 H474 0.950 . S
C470 C479 1.390 . S
C471 C470 1.387 . S
C471 C473 1.387 . S
H472 C479 0.950 . S
C473 C471 1.387 . S
C473 C475 1.390 . S
C473 H477 0.950 . S
H474 C470 0.950 . S
C475 C473 1.390 . S
C475 C476 1.387 . S
C475 H478 0.950 . S
C476 C475 1.387 . S
C476 C479 1.387 . S
H477 C473 0.950 . S
H478 C475 0.950 . S
C479 C470 1.390 . S
C479 H472 0.950 . S
C479 C476 1.387 . S
C480 C481 1.387 . S
C480 H484 0.950 . S
C480 C489 1.390 1_455 S
C481 C480 1.387 . S
C481 C483 1.387 . S
H482 C489 0.950 . S
C483 C481 1.387 . S
C483 C485 1.390 1_455 S
C483 H487 0.950 . S
H484 C480 0.950 . S
C485 C483 1.390 1_655 S
C485 C486 1.387 . S
C485 H488 0.950 . S
C486 C485 1.387 . S
C486 C489 1.387 . S
H487 C483 0.950 . S
H488 C485 0.950 . S
C489 C480 1.390 1_655 S
C489 H482 0.950 . S
C489 C486 1.387 . S
C490 C491 1.387 . S
C490 H494 0.950 . S
C490 C499 1.390 1_655 S
C491 C490 1.387 . S
C491 C493 1.387 . S
H492 C499 0.950 . S
C493 C491 1.387 . S
C493 C495 1.390 1_655 S
C493 H497 0.950 . S
H494 C490 0.950 . S
C495 C493 1.390 1_455 S
C495 C496 1.387 . S
C495 H498 0.950 . S
C496 C495 1.387 . S
C496 C499 1.387 . S
H497 C493 0.950 . S
H498 C495 0.950 . S
C499 C490 1.390 1_455 S
C499 H492 0.950 . S
C499 C496 1.387 . S
C500 C501 1.387 . S
C500 H504 0.950 . S
C500 C509 1.390 1_655 S
C501 C500 1.387 . S
C501 C503 1.387 . S
H502 C509 0.950 . S
C503 C501 1.387 . S
C503 C505 1.390 1_655 S
C503 H507 0.950 . S
H504 C500 0.950 . S
C505 C503 1.390 1_455 S
C505 C506 1.387 . S
C505 H508 0.950 . S
C506 C505 1.387 . S
C506 C509 1.387 . S
H507 C503 0.950 . S
H508 C505 0.950 . S
C509 C500 1.390 1_455 S
C509 H502 0.950 . S
C509 C506 1.387 . S
C510 C511 1.387 . S
C510 H514 0.950 . S
C510 C519 1.390 1_655 S
C511 C510 1.387 . S
C511 C513 1.387 . S
H512 C519 0.950 . S
C513 C511 1.387 . S
C513 C515 1.390 1_655 S
C513 H517 0.950 . S
H514 C510 0.950 . S
C515 C513 1.390 1_455 S
C515 C516 1.387 . S
C515 H518 0.950 . S
C516 C515 1.387 . S
C516 C519 1.387 . S
H517 C513 0.950 . S
H518 C515 0.950 . S
C519 C510 1.390 1_455 S
C519 H512 0.950 . S
C519 C516 1.387 . S
C520 C521 1.387 . S
C520 H524 0.950 . S
C520 C529 1.390 . S
C521 C520 1.387 . S
C521 C523 1.387 . S
H522 C529 0.950 . S
C523 C521 1.387 . S
C523 C525 1.390 . S
C523 H527 0.950 . S
H524 C520 0.950 . S
C525 C523 1.390 . S
C525 C526 1.387 . S
C525 H528 0.950 . S
C526 C525 1.387 . S
C526 C529 1.387 . S
H527 C523 0.950 . S
H528 C525 0.950 . S
C529 C520 1.390 . S
C529 H522 0.950 . S
C529 C526 1.387 . S
C530 C531 1.387 . S
C530 H534 0.950 . S
C530 C539 1.390 . S
C531 C530 1.387 . S
C531 C533 1.387 . S
H532 C539 0.950 . S
C533 C531 1.387 . S
C533 C535 1.390 . S
C533 H537 0.950 . S
H534 C530 0.950 . S
C535 C533 1.390 . S
C535 C536 1.387 . S
C535 H538 0.950 . S
C536 C535 1.387 . S
C536 C539 1.387 . S
H537 C533 0.950 . S
H538 C535 0.950 . S
C539 C530 1.390 . S
C539 H532 0.950 . S
C539 C536 1.387 . S
C540 C541 1.387 . S
C540 H544 0.950 . S
C540 C549 1.390 . S
C541 C540 1.387 . S
C541 C543 1.387 . S
H542 C549 0.950 . S
C543 C541 1.387 . S
C543 C545 1.390 . S
C543 H547 0.950 . S
H544 C540 0.950 . S
C545 C543 1.390 . S
C545 C546 1.387 . S
C545 H548 0.950 . S
C546 C545 1.387 . S
C546 C549 1.387 . S
H547 C543 0.950 . S
H548 C545 0.950 . S
C549 C540 1.390 . S
C549 H542 0.950 . S
C549 C546 1.387 . S
C550 C551 1.387 . S
C550 H554 0.950 . S
C550 C559 1.390 . S
C551 C550 1.387 . S
C551 C553 1.387 . S
H552 C559 0.950 . S
C553 C551 1.387 . S
C553 C555 1.390 . S
C553 H557 0.950 . S
H554 C550 0.950 . S
C555 C553 1.390 . S
C555 C556 1.387 . S
C555 H558 0.950 . S
C556 C555 1.387 . S
C556 C559 1.387 . S
H557 C553 0.950 . S
H558 C555 0.950 . S
C559 C550 1.390 . S
C559 H552 0.950 . S
C559 C556 1.387 . S
C321 C11 2.287 . S
C326 C2 2.287 . S
C331 C51 2.287 . S
C336 C42 2.287 . S
C341 C91 2.285 . S
C346 C82 2.285 . S
C351 C131 2.285 . S
C356 C122 2.285 . S
C361 C171 2.287 . S
C366 C162 2.287 . S
C371 C202 2.285 . S
C376 C211 2.285 . S
C381 C251 2.285 . S
C386 C242 2.285 . S
C391 C282 2.285 . S
C396 C291 2.285 . S
C401 C56 2.957 . S
C406 C7 2.957 1_554 S
C411 C127 2.956 . S
C416 C96 2.956 . S
C421 C167 2.954 1_554 S
C426 C216 2.954 . S
C431 C256 2.954 . S
C436 C287 2.954 . S
C441 C16 2.073 . S
C446 C207 2.073 1_554 S
C451 C176 2.072 . S
C456 C47 2.072 1_554 S
C461 C87 2.073 . S
C466 C296 2.073 . S
C471 C136 2.070 . S
C476 C247 2.070 . S
C481 C10 1.474 . S
C486 C130 1.474 . S
C491 C50 1.609 . S
C496 C90 1.609 . S
C501 C59 1.475 . S
C506 C99 1.475 . S
C511 C139 1.609 . S
C516 C19 1.609 . S
C521 C170 1.472 . S
C526 C290 1.472 . S
C531 C210 1.609 . S
C536 C250 1.609 . S
C541 C219 1.473 . S
C546 C259 1.473 . S
C551 C299 1.610 . S
C556 C179 1.610 . S
