# Generated by pormake.
# Topology neb, (4)-cn, num edge types: 1
# Building blocks:
#     Node 0, Type 0, BuildingBlock: UXUYUI_clean_sbu_0, # of connection points: 4
#     Node 1, Type 0, BuildingBlock: UXUYUI_clean_sbu_0, # of connection points: 4
#     Node 2, Type 0, BuildingBlock: UXUYUI_clean_sbu_0, # of connection points: 4
#     Node 3, Type 0, BuildingBlock: UXUYUI_clean_sbu_0, # of connection points: 4
#     Node 4, Type 0, BuildingBlock: UXUYUI_clean_sbu_0, # of connection points: 4
#     Node 5, Type 0, BuildingBlock: UXUYUI_clean_sbu_0, # of connection points: 4
#     Node 6, Type 0, BuildingBlock: UXUYUI_clean_sbu_0, # of connection points: 4
#     Node 7, Type 0, BuildingBlock: UXUYUI_clean_sbu_0, # of connection points: 4
#     Node 8, Type 0, BuildingBlock: UXUYUI_clean_sbu_0, # of connection points: 4
#     Node 9, Type 0, BuildingBlock: UXUYUI_clean_sbu_0, # of connection points: 4
#     Node 10, Type 0, BuildingBlock: UXUYUI_clean_sbu_0, # of connection points: 4
#     Node 11, Type 0, BuildingBlock: UXUYUI_clean_sbu_0, # of connection points: 4
#     Node 12, Type 0, BuildingBlock: UXUYUI_clean_sbu_0, # of connection points: 4
#     Node 13, Type 0, BuildingBlock: UXUYUI_clean_sbu_0, # of connection points: 4
#     Node 14, Type 0, BuildingBlock: UXUYUI_clean_sbu_0, # of connection points: 4
#     Node 15, Type 0, BuildingBlock: UXUYUI_clean_sbu_0, # of connection points: 4
#     Edge 16, Type (0, 0), BuildingBlock: EZIPEK_clean_linker_0, # of connection points: 2
#     Edge 17, Type (0, 0), BuildingBlock: EZIPEK_clean_linker_0, # of connection points: 2
#     Edge 18, Type (0, 0), BuildingBlock: EZIPEK_clean_linker_0, # of connection points: 2
#     Edge 19, Type (0, 0), BuildingBlock: EZIPEK_clean_linker_0, # of connection points: 2
#     Edge 20, Type (0, 0), BuildingBlock: EZIPEK_clean_linker_0, # of connection points: 2
#     Edge 21, Type (0, 0), BuildingBlock: EZIPEK_clean_linker_0, # of connection points: 2
#     Edge 22, Type (0, 0), BuildingBlock: EZIPEK_clean_linker_0, # of connection points: 2
#     Edge 23, Type (0, 0), BuildingBlock: EZIPEK_clean_linker_0, # of connection points: 2
#     Edge 24, Type (0, 0), BuildingBlock: EZIPEK_clean_linker_0, # of connection points: 2
#     Edge 25, Type (0, 0), BuildingBlock: EZIPEK_clean_linker_0, # of connection points: 2
#     Edge 26, Type (0, 0), BuildingBlock: EZIPEK_clean_linker_0, # of connection points: 2
#     Edge 27, Type (0, 0), BuildingBlock: EZIPEK_clean_linker_0, # of connection points: 2
#     Edge 28, Type (0, 0), BuildingBlock: EZIPEK_clean_linker_0, # of connection points: 2
#     Edge 29, Type (0, 0), BuildingBlock: EZIPEK_clean_linker_0, # of connection points: 2
#     Edge 30, Type (0, 0), BuildingBlock: EZIPEK_clean_linker_0, # of connection points: 2
#     Edge 31, Type (0, 0), BuildingBlock: EZIPEK_clean_linker_0, # of connection points: 2
#     Edge 32, Type (0, 0), BuildingBlock: EZIPEK_clean_linker_0, # of connection points: 2
#     Edge 33, Type (0, 0), BuildingBlock: EZIPEK_clean_linker_0, # of connection points: 2
#     Edge 34, Type (0, 0), BuildingBlock: EZIPEK_clean_linker_0, # of connection points: 2
#     Edge 35, Type (0, 0), BuildingBlock: EZIPEK_clean_linker_0, # of connection points: 2
#     Edge 36, Type (0, 0), BuildingBlock: EZIPEK_clean_linker_0, # of connection points: 2
#     Edge 37, Type (0, 0), BuildingBlock: EZIPEK_clean_linker_0, # of connection points: 2
#     Edge 38, Type (0, 0), BuildingBlock: EZIPEK_clean_linker_0, # of connection points: 2
#     Edge 39, Type (0, 0), BuildingBlock: EZIPEK_clean_linker_0, # of connection points: 2
#     Edge 40, Type (0, 0), BuildingBlock: EZIPEK_clean_linker_0, # of connection points: 2
#     Edge 41, Type (0, 0), BuildingBlock: EZIPEK_clean_linker_0, # of connection points: 2
#     Edge 42, Type (0, 0), BuildingBlock: EZIPEK_clean_linker_0, # of connection points: 2
#     Edge 43, Type (0, 0), BuildingBlock: EZIPEK_clean_linker_0, # of connection points: 2
#     Edge 44, Type (0, 0), BuildingBlock: EZIPEK_clean_linker_0, # of connection points: 2
#     Edge 45, Type (0, 0), BuildingBlock: EZIPEK_clean_linker_0, # of connection points: 2
#     Edge 46, Type (0, 0), BuildingBlock: EZIPEK_clean_linker_0, # of connection points: 2
#     Edge 47, Type (0, 0), BuildingBlock: EZIPEK_clean_linker_0, # of connection points: 2
# Relax obj value: 0.156
# Max RMSD: 0.184
# Mean RMSD: 0.183
data_MOF--net-neb--node1-UXUYUI_clean_sbu_0--edge1-EZIPEK_clean_linker_0
_symmetry_space_group_name_H-M    P1
_symmetry_Int_Tables_number       1
_symmetry_cell_setting            triclinic
loop_
_symmetry_equiv_pos_as_xyz
'x, y, z'
_cell_length_a     54.960048
_cell_length_b     26.079571
_cell_length_c     88.114627
_cell_angle_alpha  90.000474
_cell_angle_beta   90.01298
_cell_angle_gamma 89.993271
loop_
_atom_site_label
_atom_site_type_symbol
_atom_site_fract_x
_atom_site_fract_y
_atom_site_fract_z
_atom_type_partial_charge
Li0 Li 0.10719 0.10532 0.45535 0.0
Li1 Li 0.15033 0.13948 0.45494 0.0
Li2 Li 0.11911 0.16597 0.43494 0.0
Li3 Li 0.13487 0.081 0.43626 0.0
C4 C 0.11462 0.20645 0.46994 0.0
N5 N 0.10685 0.26451 0.4957 0.0
C6 C 0.12495 0.19167 0.48376 0.0
C7 C 0.10039 0.25079 0.4692 0.0
C8 C 0.12081 0.22156 0.49666 0.0
C9 C 0.09664 0.27958 0.48236 0.0
C10 C 0.14853 0.02092 0.45767 0.0
C11 C 0.18368 0.966 0.45566 0.0
N12 N 0.16877 0.92454 0.45457 0.0
C13 C 0.13355 0.97776 0.45663 0.0
C14 C 0.17379 0.01508 0.45723 0.0
C15 C 0.14414 0.92936 0.45502 0.0
C16 C 0.06842 0.03987 0.46227 0.0
N17 N 0.08057 0.08151 0.4677 0.0
C18 C 0.05467 0.08402 0.48954 0.0
C19 C 0.07398 0.1039 0.48104 0.0
C20 C 0.04204 0.04094 0.48421 0.0
C21 C 0.04898 0.01888 0.47037 0.0
H22 H 0.07389 0.02289 0.45161 0.0
H23 H 0.08362 0.13702 0.48516 0.0
C24 C 0.1857 0.21265 0.46222 0.0
N25 N 0.17702 0.16585 0.46633 0.0
C26 C 0.2048 0.23515 0.4703 0.0
C27 C 0.20572 0.16076 0.48668 0.0
C28 C 0.18657 0.13968 0.47829 0.0
C29 C 0.21491 0.20908 0.48269 0.0
H30 H 0.17763 0.2326 0.4527 0.0
H31 H 0.17913 0.10277 0.48141 0.0
C32 C 0.07661 0.11417 0.43067 0.0
N33 N 0.02855 0.14062 0.42562 0.0
C34 C 0.06319 0.08957 0.41932 0.0
C35 C 0.06556 0.15243 0.4394 0.0
C36 C 0.03894 0.10346 0.41695 0.0
C37 C 0.04125 0.16515 0.4367 0.0
C38 C 0.16823 0.13845 0.42064 0.0
C39 C 0.15829 0.13204 0.40617 0.0
C40 C 0.19347 0.13778 0.42256 0.0
C41 C 0.17382 0.1244 0.39383 0.0
C42 C 0.20839 0.13017 0.40992 0.0
N43 N 0.19834 0.12363 0.39595 0.0
C44 C 0.11711 0.26941 0.42567 0.0
C45 C 0.10113 0.20978 0.40794 0.0
C46 C 0.11453 0.30928 0.4152 0.0
N47 N 0.11071 0.22079 0.42179 0.0
C48 C 0.09836 0.24838 0.3971 0.0
C49 C 0.10554 0.29852 0.40064 0.0
H50 H 0.12512 0.27677 0.43667 0.0
H51 H 0.09664 0.17061 0.40506 0.0
C52 C 0.12436 0.99937 0.4169 0.0
N53 N 0.14346 0.025 0.4231 0.0
C54 C 0.12827 0.96143 0.40603 0.0
C55 C 0.17159 0.97529 0.40848 0.0
C56 C 0.16683 0.01287 0.4194 0.0
C57 C 0.15207 0.94986 0.40155 0.0
H58 H 0.10602 0.00901 0.42022 0.0
H59 H 0.18178 0.03301 0.42467 0.0
O60 O 0.11887 0.17848 0.45709 0.0
O61 O 0.1385 0.06874 0.45882 0.0
O62 O 0.10044 0.10081 0.43302 0.0
O63 O 0.15338 0.14534 0.4329 0.0
H64 H 0.13573 0.15709 0.48455 0.0
H65 H 0.09233 0.2628 0.45857 0.0
H66 H 0.12864 0.21051 0.50744 0.0
H67 H 0.08563 0.31394 0.48197 0.0
H68 H 0.2032 0.96093 0.4552 0.0
H69 H 0.11397 0.98165 0.45689 0.0
H70 H 0.18564 0.04816 0.45782 0.0
H71 H 0.13277 0.89565 0.45409 0.0
H72 H 0.04966 0.10194 0.50019 0.0
H73 H 0.03951 0.98566 0.46595 0.0
H74 H 0.21152 0.27255 0.46699 0.0
H75 H 0.21315 0.13989 0.49625 0.0
H76 H 0.07144 0.06018 0.41235 0.0
H77 H 0.07547 0.17206 0.44822 0.0
H78 H 0.02837 0.08472 0.4082 0.0
H79 H 0.03249 0.19455 0.44342 0.0
H80 H 0.13879 0.13198 0.40453 0.0
H81 H 0.20141 0.14273 0.43371 0.0
H82 H 0.16639 0.1189 0.38257 0.0
H83 H 0.22796 0.12933 0.41124 0.0
H84 H 0.12037 0.34764 0.41818 0.0
H85 H 0.09154 0.23896 0.38591 0.0
H86 H 0.11288 0.94208 0.40091 0.0
H87 H 0.19018 0.96677 0.40528 0.0
Li88 Li 0.13809 0.17079 0.81924 0.0
Li89 Li 0.1213 0.08174 0.81822 0.0
Li90 Li 0.14887 0.11129 0.79866 0.0
Li91 Li 0.10809 0.14196 0.79907 0.0
C92 C 0.17612 0.07798 0.82191 0.0
N93 N 0.21898 0.0228 0.82263 0.0
C94 C 0.17599 0.02551 0.81869 0.0
C95 C 0.19797 0.10237 0.8256 0.0
C96 C 0.19788 0.9983 0.81908 0.0
C97 C 0.21947 0.07378 0.82588 0.0
C98 C 0.08811 0.13502 0.83281 0.0
C99 C 0.05409 0.08624 0.84231 0.0
N100 N 0.05804 0.10588 0.8564 0.0
C101 C 0.09176 0.15494 0.84736 0.0
C102 C 0.06905 0.10065 0.83022 0.0
C103 C 0.07636 0.13968 0.85914 0.0
C104 C 0.13847 0.27199 0.83027 0.0
N105 N 0.14654 0.22357 0.83296 0.0
C106 C 0.16127 0.24775 0.85744 0.0
C107 C 0.15808 0.21097 0.84609 0.0
C108 C 0.15243 0.29756 0.85513 0.0
C109 C 0.14134 0.31 0.84128 0.0
H110 H 0.12902 0.2805 0.81979 0.0
H111 H 0.16383 0.17183 0.848 0.0
C112 C 0.10407 0.9823 0.8281 0.0
N113 N 0.1143 0.02775 0.83217 0.0
C114 C 0.10053 0.94384 0.83895 0.0
C115 C 0.11829 0.99964 0.85787 0.0
C116 C 0.12146 0.03689 0.8467 0.0
C117 C 0.10787 0.95246 0.85398 0.0
H118 H 0.09909 0.97551 0.81642 0.0
H119 H 0.12992 0.07308 0.84954 0.0
C120 C 0.15604 0.20773 0.78863 0.0
N121 N 0.192 0.25487 0.77174 0.0
C122 C 0.15517 0.20639 0.77278 0.0
C123 C 0.17501 0.23369 0.79589 0.0
C124 C 0.17359 0.23023 0.76444 0.0
C125 C 0.19305 0.25715 0.78714 0.0
C126 C 0.10539 0.05744 0.78361 0.0
C127 C 0.11167 0.07774 0.76947 0.0
C128 C 0.08491 0.02593 0.78488 0.0
C129 C 0.09728 0.06649 0.75683 0.0
C130 C 0.071 0.01548 0.77197 0.0
N131 N 0.07741 0.03585 0.75834 0.0
C132 C 0.17276 0.04588 0.77769 0.0
C133 C 0.19806 0.11178 0.78738 0.0
C134 C 0.19208 0.02583 0.76928 0.0
N135 N 0.17594 0.08848 0.7864 0.0
C136 C 0.21793 0.09277 0.77923 0.0
C137 C 0.21497 0.04933 0.77005 0.0
H138 H 0.15536 0.02672 0.77751 0.0
H139 H 0.20051 0.14426 0.79479 0.0
C140 C 0.08482 0.2126 0.77972 0.0
N141 N 0.08128 0.16783 0.78733 0.0
C142 C 0.06595 0.23457 0.77131 0.0
C143 C 0.04009 0.16373 0.77856 0.0
C144 C 0.05934 0.14363 0.78706 0.0
C145 C 0.0433 0.20989 0.77062 0.0
H146 H 0.10226 0.23163 0.78031 0.0
H147 H 0.05669 0.10883 0.79348 0.0
O148 O 0.15506 0.10562 0.82105 0.0
O149 O 0.10341 0.14831 0.82123 0.0
O150 O 0.1382 0.18456 0.797 0.0
O151 O 0.11909 0.06884 0.79615 0.0
H152 H 0.15923 0.00622 0.8157 0.0
H153 H 0.19834 0.14307 0.82801 0.0
H154 H 0.19811 0.95775 0.8165 0.0
H155 H 0.23655 0.09217 0.82862 0.0
H156 H 0.03943 0.05926 0.84051 0.0
H157 H 0.1064 0.18162 0.84957 0.0
H158 H 0.06618 0.08441 0.81907 0.0
H159 H 0.07904 0.15461 0.87048 0.0
H160 H 0.16969 0.23711 0.8681 0.0
H161 H 0.13418 0.34811 0.83929 0.0
H162 H 0.09263 0.9075 0.83562 0.0
H163 H 0.12428 0.00716 0.86937 0.0
H164 H 0.14039 0.18737 0.76696 0.0
H165 H 0.17602 0.23507 0.80813 0.0
H166 H 0.17321 0.22927 0.75217 0.0
H167 H 0.20795 0.27701 0.79261 0.0
H168 H 0.12748 0.10201 0.76828 0.0
H169 H 0.0795 0.0105 0.79574 0.0
H170 H 0.10191 0.08213 0.74584 0.0
H171 H 0.05503 0.99143 0.77281 0.0
H172 H 0.18931 0.99187 0.76241 0.0
H173 H 0.23548 0.11136 0.7802 0.0
H174 H 0.06896 0.27041 0.76539 0.0
H175 H 0.02278 0.1439 0.77832 0.0
Li176 Li 0.89853 0.89447 0.54936 0.0
Li177 Li 0.86821 0.92309 0.56885 0.0
Li178 Li 0.88363 0.8355 0.56899 0.0
Li179 Li 0.85498 0.86159 0.54986 0.0
C180 C 0.91682 0.88799 0.58349 0.0
N181 N 0.94475 0.85779 0.60797 0.0
C182 C 0.90989 0.90149 0.59822 0.0
C183 C 0.93804 0.85951 0.58119 0.0
C184 C 0.92425 0.8858 0.61045 0.0
C185 C 0.95188 0.84447 0.59372 0.0
C186 C 0.86159 0.98357 0.54502 0.0
C187 C 0.8325 0.05271 0.54598 0.0
N188 N 0.85075 0.08685 0.5434 0.0
C189 C 0.88003 0.01927 0.54227 0.0
C190 C 0.83761 1.0003 0.54679 0.0
C191 C 0.87418 0.07134 0.54152 0.0
C192 C 0.92362 0.91388 0.52176 0.0
N193 N 0.92502 0.91733 0.53714 0.0
C194 C 0.96391 0.95806 0.5355 0.0
C195 C 0.94462 0.93878 0.5441 0.0
C196 C 0.96285 0.95534 0.51963 0.0
C197 C 0.9425 0.9328 0.51271 0.0
H198 H 0.90771 0.89693 0.51655 0.0
H199 H 0.94513 0.94149 0.55634 0.0
C200 C 0.84221 0.97413 0.59231 0.0
N201 N 0.86037 0.97905 0.58191 0.0
C202 C 0.8388 0.01171 0.60342 0.0
C203 C 0.87252 0.05912 0.59275 0.0
C204 C 0.87539 0.0205 0.58192 0.0
C205 C 0.85429 0.05437 0.60378 0.0
H206 H 0.83107 0.94003 0.5924 0.0
H207 H 0.89026 0.02251 0.57391 0.0
C208 C 0.89937 0.78022 0.54369 0.0
N209 N 0.92631 0.69341 0.53725 0.0
C210 C 0.88781 0.73285 0.54194 0.0
C211 C 0.92463 0.78349 0.54204 0.0
C212 C 0.90176 0.68938 0.53873 0.0
C213 C 0.93793 0.73915 0.53881 0.0
C214 C 0.82687 0.84156 0.57361 0.0
C215 C 0.82271 0.79058 0.57778 0.0
C216 C 0.80713 0.87385 0.57068 0.0
C217 C 0.79881 0.77266 0.57882 0.0
C218 C 0.78351 0.85444 0.5718 0.0
N219 N 0.77988 0.80467 0.57581 0.0
C220 C 0.88027 0.7882 0.59693 0.0
C221 C 0.9065 0.74156 0.58065 0.0
C222 C 0.88307 0.75167 0.60835 0.0
N223 N 0.89154 0.78222 0.5833 0.0
C224 C 0.9096 0.70368 0.59172 0.0
C225 C 0.89752 0.70841 0.60566 0.0
H226 H 0.86874 0.82118 0.59885 0.0
H227 H 0.91592 0.73799 0.57001 0.0
C228 C 0.81814 0.86896 0.52689 0.0
N229 N 0.82859 0.83782 0.53744 0.0
C230 C 0.79908 0.85078 0.51781 0.0
C231 C 0.80174 0.76922 0.53074 0.0
C232 C 0.82091 0.78867 0.53938 0.0
C233 C 0.79069 0.80034 0.51976 0.0
H234 H 0.8247 0.90775 0.52547 0.0
H235 H 0.82964 0.7645 0.5477 0.0
O236 O 0.90255 0.9014 0.57142 0.0
O237 O 0.867 0.93251 0.54603 0.0
O238 O 0.88598 0.8233 0.54662 0.0
O239 O 0.85015 0.85966 0.5723 0.0
H240 H 0.89344 0.92326 0.60021 0.0
H241 H 0.94358 0.84857 0.56986 0.0
H242 H 0.91904 0.8957 0.62192 0.0
H243 H 0.96825 0.82206 0.59212 0.0
H244 H 0.81404 0.06623 0.5474 0.0
H245 H 0.89869 0.00701 0.54087 0.0
H246 H 0.8231 0.97313 0.54878 0.0
H247 H 0.88829 0.09944 0.53949 0.0
H248 H 0.97938 0.97538 0.54113 0.0
H249 H 0.94121 0.93027 0.50046 0.0
H250 H 0.82479 0.0068 0.61194 0.0
H251 H 0.88495 0.09134 0.59291 0.0
H252 H 0.86831 0.72955 0.54311 0.0
H253 H 0.93394 0.81968 0.54335 0.0
H254 H 0.89305 0.65245 0.53742 0.0
H255 H 0.95749 0.7411 0.53757 0.0
H256 H 0.83775 0.76486 0.57996 0.0
H257 H 0.81003 0.9134 0.56748 0.0
H258 H 0.79533 0.73321 0.58193 0.0
H259 H 0.76807 0.87894 0.56947 0.0
H260 H 0.87359 0.75644 0.61903 0.0
H261 H 0.921 0.67074 0.58938 0.0
H262 H 0.79096 0.87568 0.50938 0.0
H263 H 0.79572 0.73012 0.53249 0.0
Li264 Li 0.88357 0.91983 0.18621 0.0
Li265 Li 0.85638 0.89274 0.20548 0.0
Li266 Li 0.9003 0.86151 0.20546 0.0
Li267 Li 0.86946 0.83211 0.18612 0.0
C268 C 0.89952 0.97781 0.20914 0.0
N269 N 0.92429 0.06987 0.21055 0.0
C270 C 0.8871 0.02403 0.20697 0.0
C271 C 0.92449 0.97843 0.21215 0.0
C272 C 0.89997 0.07016 0.20768 0.0
C273 C 0.93669 0.02538 0.21281 0.0
C274 C 0.82707 0.91362 0.18299 0.0
C275 C 0.78374 0.90133 0.1807 0.0
N276 N 0.78027 0.95231 0.18313 0.0
C277 C 0.82309 0.96595 0.18535 0.0
C278 C 0.80726 0.88102 0.18057 0.0
C279 C 0.79929 0.98474 0.18544 0.0
C280 C 0.87411 0.98009 0.16075 0.0
N281 N 0.89085 0.9741 0.17199 0.0
C282 C 0.91538 0.04098 0.16134 0.0
C283 C 0.91146 0.00314 0.17233 0.0
C284 C 0.89802 0.04833 0.14989 0.0
C285 C 0.87727 0.01735 0.14959 0.0
H286 H 0.85832 0.95555 0.16031 0.0
H287 H 0.92499 0.99672 0.18099 0.0
C288 C 0.83408 0.95694 0.22724 0.0
N289 N 0.8303 0.91459 0.21853 0.0
C290 C 0.81523 0.97725 0.23602 0.0
C291 C 0.78894 0.90962 0.22693 0.0
C292 C 0.80841 0.89017 0.2185 0.0
C293 C 0.79226 0.95389 0.23573 0.0
H294 H 0.85167 0.97538 0.22723 0.0
H295 H 0.80586 0.85627 0.21165 0.0
C296 C 0.91821 0.87064 0.17177 0.0
N297 N 0.9475 0.90419 0.14833 0.0
C298 C 0.91014 0.86709 0.15677 0.0
C299 C 0.94122 0.89092 0.17487 0.0
C300 C 0.9252 0.88441 0.14507 0.0
C301 C 0.95576 0.90769 0.16285 0.0
C302 C 0.86248 0.77219 0.21045 0.0
C303 C 0.87895 0.73645 0.2163 0.0
C304 C 0.83921 0.75636 0.20611 0.0
C305 C 0.87186 0.6852 0.21763 0.0
C306 C 0.83283 0.70475 0.2076 0.0
N307 N 0.84915 0.67054 0.21327 0.0
C308 C 0.92755 0.84809 0.23255 0.0
C309 C 0.9448 0.81035 0.21054 0.0
C310 C 0.94649 0.82889 0.24151 0.0
N311 N 0.92709 0.83852 0.21737 0.0
C312 C 0.9641 0.7906 0.21905 0.0
C313 C 0.96494 0.79969 0.23472 0.0
H314 H 0.91307 0.87017 0.23769 0.0
H315 H 0.94375 0.80264 0.1985 0.0
C316 C 0.84814 0.78495 0.16051 0.0
N317 N 0.86247 0.77631 0.17284 0.0
C318 C 0.84554 0.74727 0.14936 0.0
C319 C 0.87226 0.69228 0.16388 0.0
C320 C 0.87451 0.73117 0.17468 0.0
C321 C 0.85793 0.70061 0.15095 0.0
H322 H 0.83962 0.82195 0.15899 0.0
H323 H 0.88662 0.72607 0.18422 0.0
O324 O 0.88725 0.93223 0.20856 0.0
O325 O 0.85024 0.89441 0.18318 0.0
O326 O 0.90342 0.85548 0.18339 0.0
O327 O 0.86917 0.8224 0.20893 0.0
H328 H 0.86777 0.0243 0.20471 0.0
H329 H 0.9344 0.94308 0.21384 0.0
H330 H 0.89062 0.10619 0.20594 0.0
H331 H 0.95603 0.02642 0.21506 0.0
H332 H 0.76822 0.87649 0.17894 0.0
H333 H 0.83822 0.9917 0.18719 0.0
H334 H 0.80997 0.84033 0.17888 0.0
H335 H 0.79594 0.0251 0.18736 0.0
H336 H 0.9317 0.06422 0.16175 0.0
H337 H 0.86367 0.02195 0.14079 0.0
H338 H 0.8184 0.01129 0.24278 0.0
H339 H 0.77143 0.8906 0.22653 0.0
H340 H 0.8923 0.85177 0.15421 0.0
H341 H 0.94761 0.89439 0.18644 0.0
H342 H 0.91913 0.88229 0.13341 0.0
H343 H 0.97354 0.92379 0.16507 0.0
H344 H 0.89704 0.74811 0.21972 0.0
H345 H 0.82636 0.78345 0.20141 0.0
H346 H 0.88442 0.65706 0.2221 0.0
H347 H 0.81494 0.69187 0.20419 0.0
H348 H 0.94667 0.83636 0.2536 0.0
H349 H 0.97806 0.76798 0.21354 0.0
H350 H 0.83466 0.75501 0.13937 0.0
H351 H 0.88231 0.65687 0.16528 0.0
Li352 Li 0.14833 0.64299 0.95595 0.0
Li353 Li 0.10643 0.61064 0.95653 0.0
Li354 Li 0.13469 0.58433 0.93657 0.0
Li355 Li 0.1184 0.6715 0.93725 0.0
C356 C 0.15164 0.55537 0.97012 0.0
N357 N 0.18171 0.52906 0.99402 0.0
C358 C 0.14241 0.55318 0.98489 0.0
C359 C 0.17613 0.54395 0.9675 0.0
C360 C 0.15791 0.53977 0.99681 0.0
C361 C 0.19106 0.53088 0.97974 0.0
C362 C 0.11206 0.73255 0.96021 0.0
C363 C 0.08332 0.80132 0.95654 0.0
N364 N 0.10106 0.83591 0.95985 0.0
C365 C 0.13 0.76874 0.96363 0.0
C366 C 0.0885 0.74888 0.9567 0.0
C367 C 0.12408 0.82083 0.96338 0.0
C368 C 0.19608 0.68054 0.96097 0.0
N369 N 0.17516 0.66606 0.968 0.0
C370 C 0.19154 0.68931 0.9922 0.0
C371 C 0.17249 0.67043 0.9833 0.0
C372 C 0.21328 0.7046 0.98521 0.0
C373 C 0.21551 0.70004 0.96942 0.0
H374 H 0.19755 0.67782 0.94877 0.0
H375 H 0.15544 0.65986 0.98856 0.0
C376 C 0.07953 0.53335 0.97098 0.0
N377 N 0.08048 0.58501 0.9689 0.0
C378 C 0.06052 0.51135 0.97923 0.0
C379 C 0.04381 0.59611 0.98314 0.0
C380 C 0.06323 0.61655 0.97484 0.0
C381 C 0.04238 0.54292 0.98533 0.0
H382 H 0.09345 0.50919 0.96606 0.0
H383 H 0.06437 0.65743 0.973 0.0
C384 C 0.16579 0.63815 0.92134 0.0
N385 N 0.19128 0.60968 0.89566 0.0
C386 C 0.15739 0.65244 0.90697 0.0
C387 C 0.1872 0.60955 0.92265 0.0
C388 C 0.17055 0.6377 0.89413 0.0
C389 C 0.19979 0.59544 0.90952 0.0
C390 C 0.07866 0.5831 0.93394 0.0
C391 C 0.07771 0.5297 0.93269 0.0
C392 C 0.05711 0.61103 0.93554 0.0
C393 C 0.05514 0.5051 0.93306 0.0
C394 C 0.03491 0.58499 0.93588 0.0
N395 N 0.03439 0.53301 0.93463 0.0
C396 C 0.15709 0.49066 0.92629 0.0
C397 C 0.13121 0.534 0.90895 0.0
C398 C 0.16101 0.45138 0.91576 0.0
N399 N 0.1423 0.53071 0.92271 0.0
C400 C 0.1345 0.49558 0.89816 0.0
C401 C 0.14938 0.45364 0.9016 0.0
H402 H 0.16552 0.48883 0.93736 0.0
H403 H 0.11947 0.56623 0.90647 0.0
C404 C 0.12653 0.76658 0.92362 0.0
N405 N 0.11029 0.72731 0.92426 0.0
C406 C 0.12416 0.80467 0.91261 0.0
C407 C 0.08811 0.76179 0.90326 0.0
C408 C 0.09115 0.72446 0.9145 0.0
C409 C 0.10504 0.80183 0.90212 0.0
H410 H 0.14198 0.76694 0.93121 0.0
H411 H 0.07896 0.692 0.91496 0.0
O412 O 0.13689 0.56939 0.95833 0.0
O413 O 0.1176 0.68143 0.9601 0.0
O414 O 0.15276 0.65077 0.93404 0.0
O415 O 0.10061 0.60781 0.93398 0.0
H416 H 0.12356 0.56235 0.98715 0.0
H417 H 0.18363 0.54592 0.95617 0.0
H418 H 0.15104 0.53814 0.00831 0.0
H419 H 0.21009 0.52235 0.97789 0.0
H420 H 0.06521 0.81453 0.95373 0.0
H421 H 0.14835 0.75683 0.96631 0.0
H422 H 0.07447 0.72141 0.95388 0.0
H423 H 0.1378 0.84928 0.96594 0.0
H424 H 0.18924 0.69269 0.00437 0.0
H425 H 0.23203 0.71188 0.9637 0.0
H426 H 0.05982 0.47015 0.98072 0.0
H427 H 0.03 0.62135 0.98773 0.0
H428 H 0.14073 0.67404 0.90569 0.0
H429 H 0.19384 0.59774 0.93366 0.0
H430 H 0.1642 0.6483 0.88294 0.0
H431 H 0.21629 0.573 0.91036 0.0
H432 H 0.09422 0.50739 0.93167 0.0
H433 H 0.05754 0.65231 0.93671 0.0
H434 H 0.05414 0.46378 0.93218 0.0
H435 H 0.01809 0.60607 0.9372 0.0
H436 H 0.17252 0.41916 0.9187 0.0
H437 H 0.12526 0.49813 0.88733 0.0
H438 H 0.13764 0.83487 0.91186 0.0
H439 H 0.07335 0.7584 0.89518 0.0
Li440 Li 0.13639 0.67146 0.31812 0.0
Li441 Li 0.12039 0.58665 0.31945 0.0
Li442 Li 0.1517 0.6126 0.29943 0.0
Li443 Li 0.10868 0.64725 0.29901 0.0
C444 C 0.16995 0.61349 0.33358 0.0
N445 N 0.20083 0.62757 0.35795 0.0
C446 C 0.16046 0.61969 0.34817 0.0
C447 C 0.19513 0.61399 0.33137 0.0
C448 C 0.17638 0.62695 0.36035 0.0
C449 C 0.21044 0.62122 0.34385 0.0
C450 C 0.07806 0.63922 0.32371 0.0
C451 C 0.04241 0.58912 0.31772 0.0
N452 N 0.02993 0.61377 0.32887 0.0
C453 C 0.06487 0.66395 0.33513 0.0
C454 C 0.06675 0.60133 0.31496 0.0
C455 C 0.04057 0.65056 0.33756 0.0
C456 C 0.12565 0.75386 0.33707 0.0
N457 N 0.14489 0.72756 0.33128 0.0
C458 C 0.17258 0.77672 0.34638 0.0
C459 C 0.16814 0.73915 0.3354 0.0
C460 C 0.15289 0.80275 0.35291 0.0
C461 C 0.12925 0.79183 0.34797 0.0
H462 H 0.10742 0.7447 0.3334 0.0
H463 H 0.18322 0.71859 0.33044 0.0
C464 C 0.11752 0.48323 0.32874 0.0
N465 N 0.11175 0.53217 0.33266 0.0
C466 C 0.11467 0.44353 0.33925 0.0
C467 C 0.09956 0.50529 0.35744 0.0
C468 C 0.10256 0.54371 0.34658 0.0
C469 C 0.10608 0.45477 0.35387 0.0
H470 H 0.12522 0.47543 0.31769 0.0
H471 H 0.09854 0.5831 0.34947 0.0
C472 C 0.1508 0.73069 0.29676 0.0
N473 N 0.17239 0.82571 0.3 0.0
C474 C 0.13647 0.77488 0.29744 0.0
C475 C 0.17612 0.73479 0.29763 0.0
C476 C 0.14773 0.82257 0.29913 0.0
C477 C 0.18669 0.7832 0.29926 0.0
C478 C 0.11551 0.54626 0.28446 0.0
C479 C 0.12584 0.56074 0.27062 0.0
C480 C 0.10081 0.50263 0.2852 0.0
C481 C 0.12124 0.53124 0.2577 0.0
C482 C 0.09659 0.47422 0.27202 0.0
N483 N 0.10682 0.48897 0.25866 0.0
C484 C 0.1869 0.53899 0.29203 0.0
C485 C 0.1879 0.61224 0.27608 0.0
C486 C 0.20595 0.51647 0.28391 0.0
N487 N 0.17831 0.58596 0.288 0.0
C488 C 0.207 0.59115 0.26765 0.0
C489 C 0.21611 0.54267 0.27156 0.0
H490 H 0.17881 0.51895 0.30152 0.0
H491 H 0.18053 0.64928 0.27302 0.0
C492 C 0.07089 0.71458 0.29173 0.0
N493 N 0.08213 0.67136 0.28665 0.0
C494 C 0.05157 0.73604 0.28361 0.0
C495 C 0.05544 0.66789 0.26519 0.0
C496 C 0.07468 0.64767 0.27368 0.0
C497 C 0.04379 0.71268 0.27014 0.0
H498 H 0.07696 0.73241 0.30214 0.0
H499 H 0.08354 0.61319 0.26987 0.0
O500 O 0.15473 0.60684 0.32148 0.0
O501 O 0.10194 0.65205 0.3213 0.0
O502 O 0.1401 0.68354 0.29556 0.0
O503 O 0.12014 0.57391 0.29732 0.0
H504 H 0.14101 0.61983 0.35003 0.0
H505 H 0.20272 0.6092 0.32012 0.0
H506 H 0.16929 0.63229 0.37169 0.0
H507 H 0.22997 0.62193 0.34231 0.0
H508 H 0.03345 0.56001 0.31099 0.0
H509 H 0.07333 0.69304 0.34211 0.0
H510 H 0.07652 0.5816 0.3061 0.0
H511 H 0.03018 0.66941 0.34636 0.0
H512 H 0.19106 0.78475 0.34994 0.0
H513 H 0.11374 0.81166 0.35277 0.0
H514 H 0.11999 0.40486 0.33623 0.0
H515 H 0.09305 0.51508 0.36868 0.0
H516 H 0.11686 0.77236 0.29683 0.0
H517 H 0.18746 0.70089 0.29733 0.0
H518 H 0.13685 0.85708 0.29978 0.0
H519 H 0.20625 0.78694 0.30005 0.0
H520 H 0.13699 0.5948 0.26981 0.0
H521 H 0.09272 0.49088 0.29585 0.0
H522 H 0.12906 0.54205 0.2469 0.0
H523 H 0.0852 0.44041 0.27241 0.0
H524 H 0.21261 0.47895 0.28716 0.0
H525 H 0.21447 0.61213 0.25812 0.0
H526 H 0.04283 0.77055 0.28774 0.0
H527 H 0.04973 0.64893 0.25484 0.0
Li528 Li 0.89715 0.38939 0.04748 0.0
Li529 Li 0.86929 0.4185 0.06736 0.0
Li530 Li 0.88471 0.32734 0.06634 0.0
Li531 Li 0.85408 0.35665 0.04797 0.0
C532 C 0.92558 0.41245 0.0709 0.0
N533 N 0.97155 0.45508 0.07228 0.0
C534 C 0.92844 0.46437 0.07441 0.0
C535 C 0.94611 0.38204 0.06833 0.0
C536 C 0.95183 0.48524 0.07501 0.0
C537 C 0.96919 0.40437 0.069 0.0
C538 C 0.85125 0.46833 0.041 0.0
C539 C 0.81129 0.50635 0.03962 0.0
N540 N 0.82103 0.54852 0.03288 0.0
C541 C 0.86082 0.5118 0.03389 0.0
C542 C 0.82626 0.46538 0.04376 0.0
C543 C 0.84527 0.55203 0.02994 0.0
C544 C 0.93648 0.38234 0.02612 0.0
N545 N 0.92327 0.41418 0.03516 0.0
C546 C 0.94785 0.48582 0.02794 0.0
C547 C 0.92847 0.46507 0.03612 0.0
C548 C 0.96181 0.45387 0.01861 0.0
C549 C 0.95599 0.4016 0.01765 0.0
H550 H 0.93194 0.34206 0.02554 0.0
H551 H 0.91772 0.48945 0.04343 0.0
C552 C 0.85969 0.45831 0.096 0.0
N553 N 0.86214 0.47243 0.08123 0.0
C554 C 0.85726 0.49544 0.10731 0.0
C555 C 0.85948 0.56105 0.08796 0.0
C556 C 0.86194 0.52262 0.07701 0.0
C557 C 0.85749 0.54742 0.1033 0.0
H558 H 0.86035 0.41813 0.09903 0.0
H559 H 0.86463 0.53299 0.06528 0.0
C560 C 0.89137 0.26816 0.04214 0.0
N561 N 0.90427 0.16617 0.03945 0.0
C562 C 0.87412 0.23188 0.03762 0.0
C563 C 0.91526 0.25271 0.04509 0.0
C564 C 0.88098 0.18046 0.03637 0.0
C565 C 0.92139 0.20093 0.04373 0.0
C566 C 0.82907 0.3463 0.07684 0.0
C567 C 0.82221 0.29796 0.08221 0.0
C568 C 0.81317 0.38775 0.07859 0.0
C569 C 0.79932 0.29159 0.08883 0.0
C570 C 0.79045 0.37986 0.08529 0.0
N571 N 0.78403 0.33233 0.0902 0.0
C572 C 0.90906 0.2817 0.09102 0.0
C573 C 0.88171 0.22607 0.07827 0.0
C574 C 0.91292 0.24509 0.10235 0.0
N575 N 0.89339 0.2719 0.07942 0.0
C576 C 0.88509 0.18835 0.08932 0.0
C577 C 0.90043 0.19831 0.10167 0.0
H578 H 0.91771 0.31882 0.09185 0.0
H579 H 0.86886 0.21969 0.06919 0.0
C580 C 0.82179 0.35818 0.02268 0.0
N581 N 0.8262 0.33609 0.03634 0.0
C582 C 0.80078 0.34575 0.01449 0.0
C583 C 0.79027 0.28516 0.0339 0.0
C584 C 0.81149 0.29846 0.04168 0.0
C585 C 0.7831 0.31215 0.02069 0.0
H586 H 0.83465 0.38551 0.0181 0.0
H587 H 0.81637 0.27814 0.05191 0.0
O588 O 0.90281 0.3916 0.06989 0.0
O589 O 0.86628 0.42868 0.04498 0.0
O590 O 0.88494 0.31859 0.04356 0.0
O591 O 0.85154 0.35325 0.07044 0.0
H592 H 0.91277 0.48845 0.07648 0.0
H593 H 0.94422 0.34172 0.06575 0.0
H594 H 0.9543 0.52545 0.0776 0.0
H595 H 0.98522 0.38138 0.0669 0.0
H596 H 0.79192 0.50453 0.04172 0.0
H597 H 0.88005 0.51457 0.03147 0.0
H598 H 0.81841 0.43159 0.04886 0.0
H599 H 0.85246 0.58601 0.02452 0.0
H600 H 0.95196 0.52631 0.0289 0.0
H601 H 0.96651 0.37608 0.01051 0.0
H602 H 0.85593 0.48387 0.11909 0.0
H603 H 0.85995 0.60097 0.08457 0.0
H604 H 0.85562 0.24322 0.03516 0.0
H605 H 0.92887 0.28035 0.04847 0.0
H606 H 0.86778 0.15192 0.03296 0.0
H607 H 0.93977 0.18838 0.04608 0.0
H608 H 0.83431 0.26554 0.08114 0.0
H609 H 0.81836 0.42579 0.07498 0.0
H610 H 0.79372 0.25427 0.09289 0.0
H611 H 0.77796 0.4116 0.08665 0.0
H612 H 0.92471 0.25391 0.11185 0.0
H613 H 0.87503 0.15271 0.08861 0.0
H614 H 0.7993 0.36204 1.00331 0.0
H615 H 0.77997 0.25319 0.0383 0.0
Li616 Li 0.87022 0.33662 0.68722 0.0
Li617 Li 0.89852 0.35984 0.70681 0.0
Li618 Li 0.85559 0.39312 0.70696 0.0
Li619 Li 0.88579 0.42195 0.68757 0.0
C620 C 0.85601 0.2756 0.71049 0.0
N621 N 0.83297 0.18171 0.71257 0.0
C622 C 0.86834 0.23075 0.70645 0.0
C623 C 0.83207 0.27265 0.71576 0.0
C624 C 0.85634 0.18366 0.70752 0.0
C625 C 0.82071 0.22483 0.71669 0.0
C626 C 0.92864 0.36935 0.68261 0.0
C627 C 0.96351 0.42329 0.6873 0.0
N628 N 0.97748 0.39116 0.67883 0.0
C629 C 0.94339 0.33674 0.67401 0.0
C630 C 0.93881 0.41286 0.68938 0.0
C631 C 0.96802 0.34848 0.67221 0.0
C632 C 0.87821 0.27955 0.66113 0.0
N633 N 0.86214 0.28364 0.67281 0.0
C634 C 0.83863 0.21405 0.6628 0.0
C635 C 0.84233 0.25235 0.67369 0.0
C636 C 0.85542 0.2084 0.65094 0.0
C637 C 0.87526 0.24184 0.65007 0.0
H638 H 0.89343 0.30559 0.66041 0.0
H639 H 0.82951 0.25662 0.68289 0.0
C640 C 0.93536 0.3656 0.72976 0.0
N641 N 0.92501 0.33569 0.71889 0.0
C642 C 0.95492 0.34707 0.73834 0.0
C643 C 0.95263 0.26731 0.72442 0.0
C644 C 0.93341 0.28764 0.71598 0.0
C645 C 0.9636 0.29718 0.73575 0.0
H646 H 0.92849 0.40383 0.73174 0.0
H647 H 0.92526 0.26519 0.70703 0.0
C648 C 0.83191 0.3885 0.67606 0.0
N649 N 0.79213 0.36352 0.65836 0.0
C650 C 0.83083 0.4043 0.66092 0.0
C651 C 0.81269 0.36028 0.68221 0.0
C652 C 0.81057 0.39126 0.65215 0.0
C653 C 0.79277 0.34789 0.67307 0.0
C654 C 0.88148 0.48173 0.71413 0.0
C655 C 0.86215 0.50712 0.70704 0.0
C656 C 0.89463 0.50672 0.72552 0.0
C657 C 0.85629 0.55703 0.71147 0.0
C658 C 0.88824 0.55671 0.7296 0.0
N659 N 0.86935 0.5806 0.72257 0.0
C660 C 0.83305 0.41107 0.73503 0.0
C661 C 0.80985 0.44045 0.71407 0.0
C662 C 0.81606 0.43142 0.74516 0.0
N663 N 0.82972 0.41604 0.71982 0.0
C664 C 0.79227 0.461 0.7238 0.0
C665 C 0.79548 0.45692 0.73953 0.0
H666 H 0.84923 0.39229 0.73928 0.0
H667 H 0.80796 0.44532 0.70195 0.0
C668 C 0.89391 0.46204 0.65909 0.0
N669 N 0.89498 0.47577 0.67395 0.0
C670 C 0.89673 0.49879 0.64772 0.0
C671 C 0.90323 0.56282 0.66715 0.0
C672 C 0.90048 0.52465 0.67816 0.0
C673 C 0.90071 0.55006 0.65177 0.0
H674 H 0.88996 0.42269 0.65609 0.0
H675 H 0.90208 0.53455 0.69001 0.0
O676 O 0.86745 0.32208 0.70964 0.0
O677 O 0.90462 0.3574 0.68477 0.0
O678 O 0.85148 0.40128 0.68488 0.0
O679 O 0.88716 0.43226 0.7103 0.0
H680 H 0.88678 0.2323 0.70225 0.0
H681 H 0.82235 0.30691 0.71911 0.0
H682 H 0.86557 0.1487 0.70429 0.0
H683 H 0.80215 0.222 0.72069 0.0
H684 H 0.97158 0.45686 0.69246 0.0
H685 H 0.93595 0.30246 0.66888 0.0
H686 H 0.92787 0.43827 0.69625 0.0
H687 H 0.97964 0.32355 0.66559 0.0
H688 H 0.82306 0.18877 0.6637 0.0
H689 H 0.88842 0.23855 0.64097 0.0
H690 H 0.96311 0.37116 0.74695 0.0
H691 H 0.95901 0.22882 0.72208 0.0
H692 H 0.84534 0.42676 0.656 0.0
H693 H 0.81321 0.34782 0.69391 0.0
H694 H 0.80948 0.40333 0.64043 0.0
H695 H 0.77783 0.32585 0.67769 0.0
H696 H 0.85183 0.48875 0.69813 0.0
H697 H 0.90958 0.4877 0.73118 0.0
H698 H 0.84137 0.57704 0.70608 0.0
H699 H 0.89827 0.57648 0.7384 0.0
H700 H 0.81907 0.42798 0.75727 0.0
H701 H 0.77667 0.48089 0.71914 0.0
H702 H 0.89484 0.48779 0.63593 0.0
H703 H 0.90651 0.6021 0.67059 0.0
Li704 Li 0.60688 0.10925 0.95434 0.0
Li705 Li 0.64586 0.14365 0.95497 0.0
Li706 Li 0.61784 0.16973 0.93447 0.0
Li707 Li 0.63714 0.07885 0.93577 0.0
C708 C 0.59708 0.20208 0.96514 0.0
N709 N 0.55984 0.23945 0.98304 0.0
C710 C 0.59686 0.19212 0.98073 0.0
C711 C 0.57855 0.23159 0.95868 0.0
C712 C 0.5778 0.21114 0.98957 0.0
C713 C 0.55985 0.25006 0.96792 0.0
C714 C 0.65395 0.05507 0.96836 0.0
C715 C 0.69124 0.01136 0.97471 0.0
N716 N 0.68844 0.02579 0.98945 0.0
C717 C 0.65129 0.06904 0.98358 0.0
C718 C 0.67398 0.02574 0.96387 0.0
C719 C 0.669 0.05407 0.99406 0.0
C720 C 0.5841 0.04184 0.97499 0.0
N721 N 0.57991 0.08394 0.96624 0.0
C722 C 0.53808 0.08514 0.97385 0.0
C723 C 0.55739 0.10558 0.96549 0.0
C724 C 0.54203 0.04182 0.98291 0.0
C725 C 0.56529 0.02002 0.98347 0.0
H726 H 0.602 0.02474 0.97525 0.0
H727 H 0.55426 0.1383 0.95825 0.0
C728 C 0.66522 0.21571 0.97535 0.0
N729 N 0.67122 0.17236 0.96762 0.0
C730 C 0.68243 0.2407 0.98433 0.0
C731 C 0.71197 0.17634 0.9773 0.0
C732 C 0.69414 0.1525 0.96841 0.0
C733 C 0.70608 0.221 0.98533 0.0
H734 H 0.64709 0.23137 0.9744 0.0
H735 H 0.69872 0.11856 0.96202 0.0
C736 C 0.58047 0.07869 0.93086 0.0
N737 N 0.53508 0.03339 0.93 0.0
C738 C 0.57798 0.02628 0.93378 0.0
C739 C 0.55993 0.10802 0.92738 0.0
C740 C 0.55485 0.00412 0.93333 0.0
C741 C 0.53712 0.08439 0.92701 0.0
C742 C 0.67589 0.1644 0.93208 0.0
C743 C 0.68054 0.21675 0.93382 0.0
C744 C 0.69524 0.13031 0.93008 0.0
C745 C 0.70459 0.23412 0.93369 0.0
C746 C 0.71903 0.14921 0.92996 0.0
N747 N 0.72317 0.20027 0.93178 0.0
C748 C 0.61609 0.27093 0.92337 0.0
C749 C 0.5995 0.20808 0.90686 0.0
C750 C 0.61344 0.30865 0.91224 0.0
N751 N 0.60952 0.2217 0.92038 0.0
C752 C 0.59625 0.24471 0.89547 0.0
C753 C 0.60381 0.2953 0.89805 0.0
H754 H 0.62416 0.28046 0.9342 0.0
H755 H 0.59485 0.16843 0.90473 0.0
C756 C 0.64548 0.97517 0.92752 0.0
N757 N 0.64788 0.02468 0.92311 0.0
C758 C 0.6524 0.93541 0.9178 0.0
C759 C 0.6632 0.99826 0.899 0.0
C760 C 0.65601 0.03677 0.90904 0.0
C761 C 0.66312 0.94608 0.9035 0.0
H762 H 0.63761 0.9665 0.93848 0.0
H763 H 0.6564 0.07649 0.9055 0.0
O764 O 0.61554 0.18371 0.95629 0.0
O765 O 0.63689 0.0696 0.95792 0.0
O766 O 0.60285 0.10133 0.93166 0.0
O767 O 0.65253 0.1465 0.93252 0.0
H768 H 0.61118 0.16967 0.98591 0.0
H769 H 0.57848 0.23971 0.94664 0.0
H770 H 0.57728 0.20338 1.00163 0.0
H771 H 0.5453 0.27267 0.96307 0.0
H772 H 0.70692 0.98893 0.9714 0.0
H773 H 0.63581 0.09147 0.98723 0.0
H774 H 0.67632 0.01472 0.95213 0.0
H775 H 0.66728 0.06493 0.00586 0.0
H776 H 0.52023 0.10255 0.97314 0.0
H777 H 0.5688 0.98637 0.99034 0.0
H778 H 0.67742 0.27528 0.99038 0.0
H779 H 0.73015 0.16041 0.97782 0.0
H780 H 0.59371 0.00317 0.93658 0.0
H781 H 0.56155 0.14873 0.92522 0.0
H782 H 0.55261 0.9637 0.9357 0.0
H783 H 0.52104 0.10665 0.92444 0.0
H784 H 0.66577 0.24356 0.93549 0.0
H785 H 0.69195 0.08961 0.92884 0.0
H786 H 0.70848 0.27447 0.93515 0.0
H787 H 0.7342 0.12325 0.92851 0.0
H788 H 0.61947 0.34745 0.9145 0.0
H789 H 0.58889 0.23338 0.88457 0.0
H790 H 0.64822 0.89717 0.92156 0.0
H791 H 0.66786 0.0102 0.88765 0.0
Li792 Li 0.63657 0.1649 0.32031 0.0
Li793 Li 0.61834 0.07881 0.31987 0.0
Li794 Li 0.64889 0.10631 0.30038 0.0
Li795 Li 0.60739 0.14028 0.29926 0.0
C796 C 0.67005 0.1033 0.33372 0.0
N797 N 0.70393 0.11677 0.35654 0.0
C798 C 0.66848 0.07452 0.34706 0.0
C799 C 0.68897 0.1386 0.33193 0.0
C800 C 0.68576 0.08197 0.35849 0.0
C801 C 0.70588 0.14495 0.34361 0.0
C802 C 0.58044 0.14938 0.32931 0.0
C803 C 0.53681 0.13982 0.33069 0.0
N804 N 0.53718 0.15807 0.34514 0.0
C805 C 0.58031 0.16874 0.34411 0.0
C806 C 0.55845 0.13538 0.32248 0.0
C807 C 0.5583 0.17253 0.35195 0.0
C808 C 0.64624 0.26765 0.32921 0.0
N809 N 0.6445 0.21844 0.3342 0.0
C810 C 0.64874 0.24566 0.35998 0.0
C811 C 0.64578 0.2069 0.34924 0.0
C812 C 0.64973 0.29679 0.35518 0.0
C813 C 0.64878 0.30784 0.3396 0.0
H814 H 0.64473 0.27578 0.3172 0.0
H815 H 0.64344 0.16778 0.35298 0.0
C816 C 0.60836 0.97584 0.32855 0.0
N817 N 0.60765 0.0255 0.33307 0.0
C818 C 0.60114 0.93676 0.33843 0.0
C819 C 0.59402 1.00024 0.3577 0.0
C820 C 0.60141 0.03803 0.34748 0.0
C821 C 0.592 0.94839 0.35309 0.0
H822 H 0.61506 0.96642 0.31735 0.0
H823 H 0.60298 0.0773 0.35124 0.0
C824 C 0.65271 0.19377 0.28612 0.0
N825 N 0.6819 0.2187 0.26169 0.0
C826 C 0.64362 0.19011 0.27134 0.0
C827 C 0.67654 0.21065 0.28849 0.0
C828 C 0.65868 0.20281 0.25914 0.0
C829 C 0.69104 0.22288 0.27599 0.0
C830 C 0.60082 0.03597 0.29083 0.0
C831 C 0.60518 0.01356 0.27668 0.0
C832 C 0.57899 0.02588 0.29837 0.0
C833 C 0.58739 0.98218 0.27018 0.0
C834 C 0.56167 0.99425 0.29152 0.0
N835 N 0.56617 0.9733 0.27767 0.0
C836 C 0.69744 0.07287 0.29473 0.0
C837 C 0.67174 0.0731 0.27313 0.0
C838 C 0.71667 0.05321 0.28614 0.0
N839 N 0.6755 0.08234 0.28815 0.0
C840 C 0.69041 0.05297 0.26414 0.0
C841 C 0.71314 0.04262 0.2707 0.0
H842 H 0.69996 0.07977 0.30669 0.0
H843 H 0.65416 0.08097 0.26815 0.0
C844 C 0.57178 0.21239 0.29174 0.0
N845 N 0.58146 0.16707 0.28703 0.0
C846 C 0.55252 0.23481 0.28379 0.0
C847 C 0.55367 0.16392 0.26613 0.0
C848 C 0.57298 0.14291 0.27439 0.0
C849 C 0.54326 0.2103 0.27088 0.0
H850 H 0.57896 0.23092 0.30177 0.0
H851 H 0.5812 0.10753 0.27067 0.0
O852 O 0.6531 0.09696 0.32251 0.0
O853 O 0.60185 0.14603 0.3214 0.0
O854 O 0.63846 0.18016 0.29817 0.0
O855 O 0.61805 0.06697 0.2973 0.0
H856 H 0.65406 0.04678 0.3486 0.0
H857 H 0.69042 0.16119 0.32168 0.0
H858 H 0.68472 0.06009 0.3689 0.0
H859 H 0.72052 0.17236 0.34242 0.0
H860 H 0.5197 0.12898 0.32553 0.0
H861 H 0.59702 0.18041 0.34954 0.0
H862 H 0.55795 0.12177 0.31091 0.0
H863 H 0.558 0.18709 0.36345 0.0
H864 H 0.64911 0.23614 0.37194 0.0
H865 H 0.6493 0.3471 0.33561 0.0
H866 H 0.60386 0.89817 0.33446 0.0
H867 H 0.59086 0.01228 0.36924 0.0
H868 H 0.62523 0.17698 0.26932 0.0
H869 H 0.68377 0.21406 0.29986 0.0
H870 H 0.65195 0.19981 0.24764 0.0
H871 H 0.70958 0.23568 0.27764 0.0
H872 H 0.62205 0.02042 0.27072 0.0
H873 H 0.57556 0.04168 0.30949 0.0
H874 H 0.59047 0.96485 0.2592 0.0
H875 H 0.54468 0.98621 0.29725 0.0
H876 H 0.734 0.04551 0.29154 0.0
H877 H 0.68713 0.0452 0.25224 0.0
H878 H 0.54486 0.27075 0.28768 0.0
H879 H 0.54695 0.14435 0.25613 0.0
Li880 Li 0.35748 0.8551 0.04932 0.0
Li881 Li 0.38776 0.82834 0.06844 0.0
Li882 Li 0.37253 0.91853 0.06794 0.0
Li883 Li 0.4006 0.88863 0.04832 0.0
C884 C 0.332 0.84217 0.07704 0.0
N885 N 0.28635 0.81773 0.088 0.0
C886 C 0.32712 0.79263 0.08227 0.0
C887 C 0.3138 0.87954 0.07766 0.0
C888 C 0.30389 0.78094 0.08769 0.0
C889 C 0.29081 0.86636 0.08317 0.0
C890 C 0.40014 0.77166 0.04349 0.0
C891 C 0.4359 0.71868 0.04564 0.0
N892 N 0.42362 0.67931 0.03901 0.0
C893 C 0.38784 0.73076 0.0367 0.0
C894 C 0.42435 0.76572 0.04799 0.0
C895 C 0.40005 0.68434 0.03453 0.0
C896 C 0.32362 0.85434 0.02477 0.0
N897 N 0.33071 0.82976 0.03766 0.0
C898 C 0.30048 0.765 0.03387 0.0
C899 C 0.31982 0.78548 0.04217 0.0
C900 C 0.29267 0.78982 0.02063 0.0
C901 C 0.30448 0.83491 0.01603 0.0
H902 H 0.33298 0.88877 0.02121 0.0
H903 H 0.32639 0.76558 0.0521 0.0
C904 C 0.40586 0.78971 0.09571 0.0
N905 N 0.3962 0.775 0.08218 0.0
C906 C 0.40936 0.75386 0.10727 0.0
C907 C 0.39336 0.68815 0.09066 0.0
C908 C 0.39007 0.72532 0.07943 0.0
C909 C 0.40272 0.70268 0.10482 0.0
H910 H 0.40986 0.82972 0.09773 0.0
H911 H 0.3816 0.71492 0.06881 0.0
C912 C 0.35601 0.9701 0.04264 0.0
N913 N 0.32923 0.05778 0.03707 0.0
C914 C 0.3676 0.01479 0.03768 0.0
C915 C 0.33078 0.96986 0.04458 0.0
C916 C 0.35374 0.05878 0.03498 0.0
C917 C 0.31757 0.01459 0.04175 0.0
C918 C 0.42556 0.92513 0.07318 0.0
C919 C 0.42532 0.97491 0.06733 0.0
C920 C 0.44594 0.90769 0.08115 0.0
C921 C 0.44544 0.00666 0.06964 0.0
C922 C 0.46571 0.94063 0.08323 0.0
N923 N 0.46505 0.98901 0.07748 0.0
C924 C 0.35772 0.95696 0.09588 0.0
C925 C 0.36781 0.02318 0.07856 0.0
C926 C 0.35413 0.99267 0.10747 0.0
N927 N 0.36459 0.97259 0.08179 0.0
C928 C 0.36452 0.06021 0.08984 0.0
C929 C 0.35797 0.04481 0.10451 0.0
H930 H 0.3558 0.91649 0.09826 0.0
H931 H 0.37384 0.03489 0.06746 0.0
C932 C 0.42097 0.93765 0.02274 0.0
N933 N 0.42662 0.90985 0.03532 0.0
C934 C 0.43942 0.95837 0.0137 0.0
C935 C 0.46917 0.92001 0.03043 0.0
C936 C 0.45016 0.90008 0.03915 0.0
C937 C 0.4638 0.95001 0.01766 0.0
H938 H 0.40212 0.94452 0.01988 0.0
H939 H 0.45423 0.87788 0.04919 0.0
O940 O 0.35469 0.8543 0.07177 0.0
O941 O 0.38836 0.81703 0.04593 0.0
O942 O 0.36929 0.92669 0.04538 0.0
O943 O 0.4065 0.89272 0.07049 0.0
H944 H 0.34106 0.76338 0.08203 0.0
H945 H 0.31745 0.91844 0.0741 0.0
H946 H 0.29981 0.74264 0.09165 0.0
H947 H 0.27653 0.89487 0.08366 0.0
H948 H 0.45461 0.7134 0.04913 0.0
H949 H 0.36905 0.7348 0.03321 0.0
H950 H 0.43396 0.79683 0.05346 0.0
H951 H 0.39077 0.65228 0.02931 0.0
H952 H 0.29188 0.72984 0.03762 0.0
H953 H 0.29899 0.85467 0.00577 0.0
H954 H 0.41633 0.76616 0.11818 0.0
H955 H 0.38775 0.64897 0.08857 0.0
H956 H 0.38712 0.01576 0.03615 0.0
H957 H 0.32148 0.93539 0.04813 0.0
H958 H 0.36249 0.09374 0.03126 0.0
H959 H 0.29803 0.01494 0.04324 0.0
H960 H 0.41 0.98838 0.06075 0.0
H961 H 0.4466 0.86893 0.08551 0.0
H962 H 0.44556 0.04519 0.06509 0.0
H963 H 0.48163 0.92762 0.08934 0.0
H964 H 0.34926 0.97969 0.11875 0.0
H965 H 0.36783 0.10024 0.08729 0.0
H966 H 0.43475 0.9813 0.00388 0.0
H967 H 0.48785 0.91289 0.03373 0.0
Li968 Li 0.38866 0.92494 0.68583 0.0
Li969 Li 0.35868 0.89733 0.70598 0.0
Li970 Li 0.40178 0.86631 0.70613 0.0
Li971 Li 0.37407 0.83811 0.68705 0.0
C972 C 0.40824 0.96951 0.71279 0.0
N973 N 0.44608 0.03172 0.72209 0.0
C974 C 0.40629 0.99761 0.72623 0.0
C975 C 0.4294 0.97304 0.70406 0.0
C976 C 0.42563 0.02887 0.73074 0.0
C977 C 0.44834 0.00468 0.70896 0.0
C978 C 0.34066 0.88668 0.67156 0.0
C979 C 0.30738 0.83772 0.66112 0.0
N980 N 0.31392 0.85294 0.64693 0.0
C981 C 0.34693 0.90213 0.65688 0.0
C982 C 0.3206 0.85453 0.67372 0.0
C983 C 0.33322 0.8846 0.64458 0.0
C984 C 0.40959 0.96802 0.65965 0.0
N985 N 0.39689 0.97921 0.67248 0.0
C986 C 0.39067 0.06541 0.66419 0.0
C987 C 0.38779 0.02689 0.67506 0.0
C988 C 0.40288 0.05426 0.65062 0.0
C989 C 0.41283 0.00532 0.64847 0.0
H990 H 0.41616 0.92945 0.6578 0.0
H991 H 0.37752 0.03434 0.6853 0.0
C992 C 0.33645 0.93279 0.73301 0.0
N993 N 0.33239 0.92179 0.71814 0.0
C994 C 0.31783 0.95336 0.74196 0.0
C995 C 0.2911 0.95 0.72017 0.0
C996 C 0.3103 0.9301 0.71161 0.0
C997 C 0.29486 0.96218 0.7355 0.0
H998 H 0.35427 0.92618 0.73786 0.0
H999 H 0.30765 0.92173 0.69972 0.0
C1000 C 0.42453 0.82377 0.68131 0.0
N1001 N 0.45816 0.74698 0.67614 0.0
C1002 C 0.4208 0.77475 0.68726 0.0
C1003 C 0.44539 0.83379 0.67275 0.0
C1004 C 0.43798 0.73642 0.68451 0.0
C1005 C 0.46218 0.79445 0.67026 0.0
C1006 C 0.35804 0.78507 0.71339 0.0
C1007 C 0.36978 0.73941 0.71737 0.0
C1008 C 0.33265 0.78767 0.71392 0.0
C1009 C 0.35587 0.69678 0.72147 0.0
C1010 C 0.31939 0.74421 0.7181 0.0
N1011 N 0.33118 0.70002 0.72173 0.0
C1012 C 0.42305 0.81916 0.73175 0.0
C1013 C 0.45161 0.85419 0.71444 0.0
C1014 C 0.44183 0.79897 0.74062 0.0
N1015 N 0.42822 0.84569 0.71885 0.0
C1016 C 0.47094 0.83482 0.723 0.0
C1017 C 0.46604 0.80644 0.73615 0.0
H1018 H 0.4043 0.81282 0.73496 0.0
H1019 H 0.45528 0.87501 0.70409 0.0
C1020 C 0.37753 0.78889 0.65935 0.0
N1021 N 0.3668 0.78305 0.67317 0.0
C1022 C 0.37467 0.75179 0.64812 0.0
C1023 C 0.34915 0.70349 0.66529 0.0
C1024 C 0.35256 0.7416 0.67625 0.0
C1025 C 0.3605 0.70844 0.65112 0.0
H1026 H 0.38848 0.82248 0.65709 0.0
H1027 H 0.34384 0.73779 0.68713 0.0
O1028 O 0.38952 0.93852 0.70828 0.0
O1029 O 0.35436 0.90216 0.6837 0.0
O1030 O 0.40809 0.86215 0.68401 0.0
O1031 O 0.37139 0.82737 0.7095 0.0
H1032 H 0.39001 0.99524 0.73311 0.0
H1033 H 0.43129 0.95131 0.69367 0.0
H1034 H 0.42439 0.05084 0.74112 0.0
H1035 H 0.46485 0.00768 0.70234 0.0
H1036 H 0.29198 0.81239 0.66262 0.0
H1037 H 0.36233 0.92705 0.65497 0.0
H1038 H 0.31553 0.84192 0.68496 0.0
H1039 H 0.33797 0.89603 0.63316 0.0
H1040 H 0.38267 0.10283 0.66607 0.0
H1041 H 0.42215 0.99564 0.63802 0.0
H1042 H 0.3213 0.96257 0.75375 0.0
H1043 H 0.2736 0.95655 0.71487 0.0
H1044 H 0.40478 0.7664 0.69388 0.0
H1045 H 0.44866 0.87167 0.66816 0.0
H1046 H 0.43529 0.69829 0.68904 0.0
H1047 H 0.47843 0.80168 0.66367 0.0
H1048 H 0.38943 0.73688 0.71736 0.0
H1049 H 0.32325 0.82269 0.71108 0.0
H1050 H 0.36471 0.66116 0.72449 0.0
H1051 H 0.29973 0.74563 0.71846 0.0
H1052 H 0.43754 0.77719 0.75074 0.0
H1053 H 0.48949 0.84109 0.71928 0.0
H1054 H 0.38361 0.75656 0.63726 0.0
H1055 H 0.33807 0.67028 0.66786 0.0
Li1056 Li 0.60583 0.61363 0.45518 0.0
Li1057 Li 0.64742 0.64916 0.4547 0.0
Li1058 Li 0.61671 0.67535 0.43601 0.0
Li1059 Li 0.63455 0.58965 0.435 0.0
C1060 C 0.60985 0.73606 0.45854 0.0
N1061 N 0.59774 0.83871 0.4569 0.0
C1062 C 0.62778 0.77353 0.46039 0.0
C1063 C 0.58574 0.75074 0.45594 0.0
C1064 C 0.62129 0.82525 0.45952 0.0
C1065 C 0.58 0.80285 0.45511 0.0
C1066 C 0.65081 0.55791 0.46862 0.0
C1067 C 0.68889 0.52641 0.47852 0.0
N1068 N 0.67893 0.52437 0.49263 0.0
C1069 C 0.64089 0.5552 0.4832 0.0
C1070 C 0.67494 0.54308 0.46621 0.0
C1071 C 0.65542 0.53821 0.4952 0.0
C1072 C 0.5775 0.5346 0.46782 0.0
N1073 N 0.58046 0.5864 0.4677 0.0
C1074 C 0.54652 0.597 0.4844 0.0
C1075 C 0.56557 0.61771 0.47584 0.0
C1076 C 0.54283 0.54374 0.48449 0.0
C1077 C 0.55859 0.51234 0.4761 0.0
H1078 H 0.5897 0.51064 0.46131 0.0
H1079 H 0.56839 0.65871 0.47559 0.0
C1080 C 0.69336 0.69565 0.45951 0.0
N1081 N 0.6741 0.67366 0.46671 0.0
C1082 C 0.71256 0.71656 0.46788 0.0
C1083 C 0.69186 0.69179 0.49094 0.0
C1084 C 0.67288 0.672 0.48213 0.0
C1085 C 0.71192 0.7146 0.48378 0.0
H1086 H 0.69361 0.69788 0.44728 0.0
H1087 H 0.65702 0.656 0.4876 0.0
C1088 C 0.57872 0.58317 0.43233 0.0
N1089 N 0.53577 0.52804 0.43239 0.0
C1090 C 0.5788 0.53101 0.42865 0.0
C1091 C 0.55676 0.60732 0.43596 0.0
C1092 C 0.5569 0.50383 0.42875 0.0
C1093 C 0.53526 0.57877 0.43596 0.0
C1094 C 0.66727 0.64773 0.42124 0.0
C1095 C 0.66248 0.66556 0.40658 0.0
C1096 C 0.68831 0.61915 0.42403 0.0
C1097 C 0.67878 0.65406 0.3949 0.0
C1098 C 0.70414 0.60842 0.41204 0.0
N1099 N 0.69908 0.62593 0.39784 0.0
C1100 C 0.62223 0.76916 0.42035 0.0
C1101 C 0.58528 0.72532 0.41531 0.0
C1102 C 0.61684 0.80576 0.40927 0.0
N1103 N 0.60663 0.72965 0.42299 0.0
C1104 C 0.57908 0.76122 0.40422 0.0
C1105 C 0.59522 0.80132 0.40094 0.0
H1106 H 0.63929 0.77105 0.42645 0.0
H1107 H 0.57346 0.69304 0.41741 0.0
C1108 C 0.65155 0.49059 0.4258 0.0
N1109 N 0.64305 0.53692 0.42109 0.0
C1110 C 0.65455 0.4507 0.41535 0.0
C1111 C 0.64088 0.50773 0.39543 0.0
C1112 C 0.63772 0.54607 0.40627 0.0
C1113 C 0.64893 0.4592 0.40001 0.0
H1114 H 0.65509 0.48408 0.43772 0.0
H1115 H 0.63016 0.58267 0.40296 0.0
O1116 O 0.61596 0.68525 0.45888 0.0
O1117 O 0.63697 0.57484 0.45675 0.0
O1118 O 0.60004 0.61026 0.43263 0.0
O1119 O 0.65134 0.65778 0.43279 0.0
H1120 H 0.64654 0.76284 0.46233 0.0
H1121 H 0.57169 0.72219 0.45435 0.0
H1122 H 0.63499 0.85468 0.46086 0.0
H1123 H 0.56146 0.81478 0.45299 0.0
H1124 H 0.70763 0.51508 0.47684 0.0
H1125 H 0.62226 0.56663 0.48527 0.0
H1126 H 0.68282 0.54455 0.45498 0.0
H1127 H 0.64803 0.53619 0.50656 0.0
H1128 H 0.53467 0.62218 0.4908 0.0
H1129 H 0.55622 0.47112 0.47597 0.0
H1130 H 0.7277 0.73432 0.46202 0.0
H1131 H 0.69075 0.69007 0.5032 0.0
H1132 H 0.59558 0.51152 0.4259 0.0
H1133 H 0.55638 0.64749 0.43901 0.0
H1134 H 0.55672 0.46341 0.42599 0.0
H1135 H 0.51818 0.59689 0.43887 0.0
H1136 H 0.6462 0.68742 0.40419 0.0
H1137 H 0.6923 0.60521 0.43531 0.0
H1138 H 0.67523 0.66734 0.38348 0.0
H1139 H 0.72044 0.58614 0.41402 0.0
H1140 H 0.62964 0.83632 0.40692 0.0
H1141 H 0.56229 0.75686 0.39791 0.0
H1142 H 0.66056 0.41335 0.4192 0.0
H1143 H 0.63608 0.51509 0.38371 0.0
Li1144 Li 0.62139 0.58898 0.81896 0.0
Li1145 Li 0.63858 0.67526 0.81952 0.0
Li1146 Li 0.60874 0.65084 0.80028 0.0
Li1147 Li 0.65031 0.61707 0.79945 0.0
C1148 C 0.58993 0.64213 0.83441 0.0
N1149 N 0.56238 0.61157 0.85904 0.0
C1150 C 0.59636 0.65766 0.84906 0.0
C1151 C 0.5694 0.61126 0.83229 0.0
C1152 C 0.5822 0.64181 0.86136 0.0
C1153 C 0.55576 0.59612 0.84489 0.0
C1154 C 0.67704 0.58335 0.82192 0.0
C1155 C 0.7207 0.58064 0.81916 0.0
N1156 N 0.72012 0.52878 0.82071 0.0
C1157 C 0.67688 0.53 0.8235 0.0
C1158 C 0.69914 0.60892 0.81977 0.0
C1159 C 0.69886 0.50312 0.82287 0.0
C1160 C 0.6015 0.49078 0.82731 0.0
N1161 N 0.61321 0.53378 0.83211 0.0
C1162 C 0.6177 0.49916 0.85704 0.0
C1163 C 0.62126 0.53862 0.84663 0.0
C1164 C 0.60607 0.45413 0.85236 0.0
C1165 C 0.59773 0.44999 0.83736 0.0
H1166 H 0.59563 0.48773 0.81563 0.0
H1167 H 0.63094 0.57286 0.85002 0.0
C1168 C 0.63301 0.76842 0.83563 0.0
N1169 N 0.64819 0.72796 0.83328 0.0
C1170 C 0.63825 0.80446 0.84691 0.0
C1171 C 0.67486 0.75708 0.85287 0.0
C1172 C 0.66885 0.72183 0.84156 0.0
C1173 C 0.65924 0.79842 0.85576 0.0
H1174 H 0.61643 0.7717 0.82909 0.0
H1175 H 0.68026 0.68873 0.83974 0.0
C1176 C 0.60543 0.56619 0.78467 0.0
N1177 N 0.57645 0.54664 0.75972 0.0
C1178 C 0.61515 0.56951 0.77005 0.0
C1179 C 0.58104 0.55254 0.78662 0.0
C1180 C 0.60019 0.55948 0.75758 0.0
C1181 C 0.56666 0.54298 0.77386 0.0
C1182 C 0.64562 0.73975 0.79779 0.0
C1183 C 0.62757 0.77694 0.79586 0.0
C1184 C 0.66945 0.7548 0.80109 0.0
C1185 C 0.63368 0.82871 0.79731 0.0
C1186 C 0.67481 0.80695 0.8025 0.0
N1187 N 0.65696 0.84251 0.8006 0.0
C1188 C 0.56049 0.68572 0.79496 0.0
C1189 C 0.58608 0.68634 0.77329 0.0
C1190 C 0.54128 0.70616 0.78651 0.0
N1191 N 0.58231 0.67609 0.78825 0.0
C1192 C 0.56734 0.70666 0.7644 0.0
C1193 C 0.54471 0.71689 0.77108 0.0
H1194 H 0.5581 0.6783 0.80692 0.0
H1195 H 0.60375 0.67929 0.76832 0.0
C1196 C 0.67819 0.54082 0.78534 0.0
N1197 N 0.67668 0.59229 0.78727 0.0
C1198 C 0.69895 0.51893 0.77891 0.0
C1199 C 0.71521 0.60337 0.77514 0.0
C1200 C 0.69412 0.62385 0.78168 0.0
C1201 C 0.71931 0.54968 0.77514 0.0
H1202 H 0.66349 0.51653 0.78921 0.0
H1203 H 0.69193 0.66492 0.78256 0.0
O1204 O 0.60393 0.65606 0.82225 0.0
O1205 O 0.65564 0.61024 0.82197 0.0
O1206 O 0.6196 0.57719 0.797 0.0
O1207 O 0.63988 0.68883 0.79682 0.0
H1208 H 0.6123 0.68107 0.85096 0.0
H1209 H 0.5643 0.59844 0.82106 0.0
H1210 H 0.58705 0.65332 0.87276 0.0
H1211 H 0.53995 0.5719 0.84342 0.0
H1212 H 0.73789 0.5999 0.81735 0.0
H1213 H 0.65999 0.50937 0.82495 0.0
H1214 H 0.69959 0.65006 0.81824 0.0
H1215 H 0.69898 0.46182 0.82399 0.0
H1216 H 0.62453 0.50307 0.86852 0.0
H1217 H 0.58889 0.41532 0.83344 0.0
H1218 H 0.62583 0.83596 0.84895 0.0
H1219 H 0.69113 0.75141 0.8596 0.0
H1220 H 0.63396 0.58033 0.76834 0.0
H1221 H 0.57324 0.54993 0.79786 0.0
H1222 H 0.60742 0.56218 0.74619 0.0
H1223 H 0.5477 0.53279 0.77518 0.0
H1224 H 0.609 0.766 0.79342 0.0
H1225 H 0.68357 0.72648 0.80281 0.0
H1226 H 0.61988 0.85791 0.79591 0.0
H1227 H 0.69313 0.81914 0.80517 0.0
H1228 H 0.52402 0.71401 0.79197 0.0
H1229 H 0.57051 0.71489 0.75252 0.0
H1230 H 0.69865 0.47804 0.77708 0.0
H1231 H 0.72777 0.63026 0.77018 0.0
Li1232 Li 0.39855 0.39505 0.54868 0.0
Li1233 Li 0.36855 0.42482 0.56842 0.0
Li1234 Li 0.38369 0.33899 0.56868 0.0
Li1235 Li 0.35566 0.36182 0.54914 0.0
C1236 C 0.41971 0.38748 0.58099 0.0
N1237 N 0.45299 0.35035 0.60174 0.0
C1238 C 0.4156 0.39365 0.59653 0.0
C1239 C 0.44079 0.36278 0.57598 0.0
C1240 C 0.43263 0.37447 0.60685 0.0
C1241 C 0.4574 0.34424 0.58666 0.0
C1242 C 0.36174 0.47844 0.53913 0.0
C1243 C 0.33323 0.53462 0.52659 0.0
N1244 N 0.35094 0.57078 0.52529 0.0
C1245 C 0.3797 0.51598 0.53754 0.0
C1246 C 0.33835 0.48763 0.5335 0.0
C1247 C 0.37386 0.56248 0.53056 0.0
C1248 C 0.42827 0.40031 0.52208 0.0
N1249 N 0.42524 0.41741 0.53654 0.0
C1250 C 0.45998 0.47211 0.53428 0.0
C1251 C 0.44072 0.45226 0.54277 0.0
C1252 C 0.46345 0.45549 0.51931 0.0
C1253 C 0.44749 0.41885 0.51321 0.0
H1254 H 0.41565 0.37265 0.51741 0.0
H1255 H 0.43781 0.46527 0.55428 0.0
C1256 C 0.35298 0.46644 0.59587 0.0
N1257 N 0.36054 0.48005 0.58173 0.0
C1258 C 0.35046 0.50341 0.60721 0.0
C1259 C 0.36292 0.5681 0.58915 0.0
C1260 C 0.36525 0.52981 0.57815 0.0
C1261 C 0.35593 0.55465 0.60392 0.0
H1262 H 0.35002 0.42647 0.59855 0.0
H1263 H 0.37187 0.53959 0.56701 0.0
C1264 C 0.38165 0.27266 0.54345 0.0
N1265 N 0.37044 0.17199 0.53662 0.0
C1266 C 0.36503 0.24558 0.55239 0.0
C1267 C 0.39258 0.24854 0.53105 0.0
C1268 C 0.35961 0.19473 0.54876 0.0
C1269 C 0.38667 0.19761 0.52777 0.0
C1270 C 0.32576 0.3709 0.57449 0.0
C1271 C 0.31241 0.33762 0.58372 0.0
C1272 C 0.31451 0.4143 0.5684 0.0
C1273 C 0.28792 0.34815 0.5866 0.0
C1274 C 0.29 0.42355 0.57156 0.0
N1275 N 0.27731 0.39054 0.58051 0.0
C1276 C 0.37912 0.28696 0.59594 0.0
C1277 C 0.40892 0.24948 0.5799 0.0
C1278 C 0.38265 0.24887 0.60679 0.0
N1279 N 0.39199 0.2863 0.58276 0.0
C1280 C 0.41312 0.21059 0.59052 0.0
C1281 C 0.39964 0.21002 0.60404 0.0
H1282 H 0.36592 0.31695 0.59792 0.0
H1283 H 0.41888 0.24997 0.56931 0.0
C1284 C 0.32812 0.35249 0.52182 0.0
N1285 N 0.3295 0.33766 0.5366 0.0
C1286 C 0.30962 0.3335 0.51246 0.0
C1287 C 0.29442 0.28423 0.53367 0.0
C1288 C 0.31316 0.30405 0.54259 0.0
C1289 C 0.29259 0.29889 0.51843 0.0
H1290 H 0.34152 0.37874 0.51729 0.0
H1291 H 0.31486 0.29186 0.55424 0.0
O1292 O 0.40285 0.40423 0.57072 0.0
O1293 O 0.3672 0.43225 0.54568 0.0
O1294 O 0.38717 0.32263 0.54669 0.0
O1295 O 0.34971 0.36068 0.57151 0.0
H1296 H 0.39931 0.41246 0.60058 0.0
H1297 H 0.44411 0.35738 0.56397 0.0
H1298 H 0.42962 0.37862 0.61892 0.0
H1299 H 0.47373 0.32476 0.58296 0.0
H1300 H 0.3152 0.54229 0.52223 0.0
H1301 H 0.39786 0.50962 0.54183 0.0
H1302 H 0.32429 0.45876 0.53441 0.0
H1303 H 0.38756 0.592 0.52936 0.0
H1304 H 0.472 0.50034 0.5393 0.0
H1305 H 0.44975 0.40524 0.50168 0.0
H1306 H 0.34529 0.49194 0.61858 0.0
H1307 H 0.36752 0.60738 0.58637 0.0
H1308 H 0.35635 0.26357 0.56202 0.0
H1309 H 0.40547 0.26902 0.524 0.0
H1310 H 0.34677 0.17335 0.55558 0.0
H1311 H 0.39498 0.17847 0.51819 0.0
H1312 H 0.32086 0.30379 0.58851 0.0
H1313 H 0.32462 0.44076 0.56143 0.0
H1314 H 0.27735 0.32261 0.59367 0.0
H1315 H 0.28108 0.45703 0.56691 0.0
H1316 H 0.37202 0.24927 0.61714 0.0
H1317 H 0.42632 0.18083 0.58813 0.0
H1318 H 0.30866 0.34533 0.50069 0.0
H1319 H 0.2816 0.25733 0.53855 0.0
Li1320 Li 0.38645 0.41794 0.18671 0.0
Li1321 Li 0.35773 0.39063 0.20571 0.0
Li1322 Li 0.39919 0.35738 0.206 0.0
Li1323 Li 0.37146 0.3308 0.18639 0.0
C1324 C 0.38295 0.47935 0.21273 0.0
N1325 N 0.37132 0.57912 0.22039 0.0
C1326 C 0.36663 0.50735 0.20382 0.0
C1327 C 0.39336 0.5021 0.22553 0.0
C1328 C 0.36098 0.55773 0.20788 0.0
C1329 C 0.38725 0.55259 0.22922 0.0
C1330 C 0.32922 0.38228 0.17959 0.0
C1331 C 0.29266 0.33301 0.18365 0.0
N1332 N 0.28197 0.35754 0.17177 0.0
C1333 C 0.31787 0.40702 0.16743 0.0
C1334 C 0.31653 0.34497 0.18778 0.0
C1335 C 0.29397 0.39398 0.16366 0.0
C1336 C 0.38488 0.46676 0.15911 0.0
N1337 N 0.395 0.47163 0.1731 0.0
C1338 C 0.41269 0.55211 0.16623 0.0
C1339 C 0.40903 0.51279 0.1768 0.0
C1340 C 0.40178 0.54847 0.15187 0.0
C1341 C 0.38798 0.50506 0.14826 0.0
H1342 H 0.37397 0.4334 0.15649 0.0
H1343 H 0.41691 0.51563 0.18802 0.0
C1344 C 0.32933 0.39901 0.23263 0.0
N1345 N 0.33103 0.41416 0.21789 0.0
C1346 C 0.31067 0.41797 0.24188 0.0
C1347 C 0.29583 0.46742 0.22059 0.0
C1348 C 0.31473 0.44765 0.21179 0.0
C1349 C 0.29378 0.45273 0.23582 0.0
H1350 H 0.34264 0.3727 0.23723 0.0
H1351 H 0.31657 0.45972 0.20012 0.0
C1352 C 0.42909 0.36687 0.18071 0.0
N1353 N 0.47691 0.3917 0.17442 0.0
C1354 C 0.44154 0.34161 0.16908 0.0
C1355 C 0.44097 0.40475 0.18915 0.0
C1356 C 0.46571 0.35471 0.16607 0.0
C1357 C 0.46514 0.41675 0.18579 0.0
C1358 C 0.37287 0.26839 0.21239 0.0
C1359 C 0.38958 0.23966 0.20399 0.0
C1360 C 0.36072 0.24571 0.22459 0.0
C1361 C 0.39392 0.18864 0.20798 0.0
C1362 C 0.36555 0.19456 0.22822 0.0
N1363 N 0.38192 0.16733 0.21991 0.0
C1364 C 0.42762 0.34981 0.23308 0.0
C1365 C 0.4417 0.2995 0.21245 0.0
C1366 C 0.44654 0.33161 0.24228 0.0
N1367 N 0.42557 0.33354 0.21846 0.0
C1368 C 0.46083 0.28046 0.2212 0.0
C1369 C 0.46332 0.29648 0.23629 0.0
H1370 H 0.41451 0.37671 0.2376 0.0
H1371 H 0.43967 0.28678 0.20086 0.0
C1372 C 0.375 0.28128 0.15891 0.0
N1373 N 0.36359 0.27738 0.17254 0.0
C1374 C 0.37234 0.24291 0.14804 0.0
C1375 C 0.34547 0.19778 0.16521 0.0
C1376 C 0.34873 0.23711 0.17583 0.0
C1377 C 0.35765 0.20044 0.15124 0.0
H1378 H 0.38656 0.31393 0.15662 0.0
H1379 H 0.33986 0.23499 0.18676 0.0
O1380 O 0.38863 0.42974 0.20912 0.0
O1381 O 0.35265 0.39473 0.18334 0.0
O1382 O 0.40543 0.35414 0.18377 0.0
O1383 O 0.36805 0.31826 0.20866 0.0
H1384 H 0.35837 0.49044 0.19387 0.0
H1385 H 0.406 0.48088 0.23256 0.0
H1386 H 0.34838 0.57981 0.20108 0.0
H1387 H 0.39515 0.57066 0.23911 0.0
H1388 H 0.28263 0.30423 0.1899 0.0
H1389 H 0.32742 0.43608 0.16099 0.0
H1390 H 0.32492 0.32548 0.19725 0.0
H1391 H 0.28496 0.41283 0.15427 0.0
H1392 H 0.42339 0.58541 0.1693 0.0
H1393 H 0.37936 0.50136 0.13726 0.0
H1394 H 0.30952 0.40606 0.25363 0.0
H1395 H 0.28309 0.49434 0.21564 0.0
H1396 H 0.43264 0.31206 0.16248 0.0
H1397 H 0.43175 0.42461 0.19824 0.0
H1398 H 0.47557 0.33544 0.15711 0.0
H1399 H 0.47455 0.44595 0.19224 0.0
H1400 H 0.39897 0.25642 0.19442 0.0
H1401 H 0.34764 0.26742 0.23116 0.0
H1402 H 0.40679 0.16596 0.20156 0.0
H1403 H 0.35625 0.17649 0.23763 0.0
H1404 H 0.44805 0.3446 0.25391 0.0
H1405 H 0.4735 0.25332 0.21629 0.0
H1406 H 0.38196 0.24584 0.13734 0.0
H1407 H 0.33407 0.16521 0.16795 0.0
C1408 C 0.27805 0.23583 0.49883 0.0
C1409 C 0.27291 0.27726 0.50878 0.0
C1410 C 0.22953 0.27169 0.50237 0.0
C1411 C 0.23494 0.23277 0.49162 0.0
N1412 N 0.26451 0.18308 0.47778 0.0
N1413 N 0.24477 0.34022 0.5184 0.0
C1414 C 0.25928 0.21633 0.48932 0.0
C1415 C 0.24891 0.29683 0.51008 0.0
N1416 N 0.30068 0.214 0.49886 0.0
N1417 N 0.20583 0.28341 0.50557 0.0
H1418 H 0.2585 0.35939 0.52429 0.0
H1419 H 0.22822 0.35966 0.51849 0.0
H1420 H 0.19115 0.26611 0.50007 0.0
H1421 H 0.20058 0.30723 0.51446 0.0
H1422 H 0.30482 0.18009 0.49319 0.0
H1423 H 0.315 0.22764 0.50551 0.0
H1424 H 0.28216 0.17397 0.47443 0.0
H1425 H 0.2512 0.16757 0.47069 0.0
C1426 C 0.98014 0.02544 0.50326 0.0
C1427 C 0.98295 0.97681 0.51028 0.0
C1428 C 0.02509 0.97208 0.50118 0.0
C1429 C 0.02163 0.01872 0.49315 0.0
N1430 N 0.99483 0.08572 0.48441 0.0
N1431 N 0.00646 0.89983 0.51406 0.0
C1432 C 0.99884 0.04431 0.49359 0.0
C1433 C 0.00498 0.94895 0.5087 0.0
N1434 N 0.9599 0.05428 0.50621 0.0
N1435 N 0.04779 0.95082 0.50205 0.0
H1436 H 0.99217 0.8818 0.51974 0.0
H1437 H 0.02102 0.87547 0.5118 0.0
H1438 H 0.06296 0.96658 0.49668 0.0
H1439 H 0.05205 0.92002 0.50908 0.0
H1440 H 0.95802 0.09234 0.50283 0.0
H1441 H 0.9457 0.04157 0.5131 0.0
H1442 H 0.97783 0.10263 0.48297 0.0
H1443 H 0.0081 0.1007 0.47719 0.0
C1444 C 0.2665 0.03537 0.74133 0.0
C1445 C 0.27483 0.98506 0.74466 0.0
C1446 C 0.24609 0.98 0.76592 0.0
C1447 C 0.23591 0.02772 0.76147 0.0
N1448 N 0.23374 0.09717 0.74343 0.0
N1449 N 0.26989 0.9059 0.75851 0.0
C1450 C 0.24539 0.05448 0.74875 0.0
C1451 C 0.26392 0.95636 0.75654 0.0
N1452 N 0.27922 0.06556 0.73144 0.0
N1453 N 0.23927 0.95801 0.77934 0.0
H1454 H 0.28266 0.88699 0.75178 0.0
H1455 H 0.26064 0.8816 0.76591 0.0
H1456 H 0.22645 0.97443 0.7866 0.0
H1457 H 0.24791 0.92606 0.78396 0.0
H1458 H 0.27549 0.10432 0.72977 0.0
H1459 H 0.29497 0.05325 0.72593 0.0
H1460 H 0.23824 0.11497 0.73323 0.0
H1461 H 0.21817 0.11228 0.7485 0.0
C1462 C 0.02483 0.2371 0.7457 0.0
C1463 C 0.02292 0.23271 0.76172 0.0
C1464 C 0.9813 0.26655 0.76056 0.0
C1465 C 0.98421 0.27603 0.7448 0.0
N1466 N 0.0107 0.28007 0.72299 0.0
N1467 N 1.00122 0.25329 0.78476 0.0
C1468 C 0.00657 0.26412 0.73754 0.0
C1469 C 1.00168 0.25032 0.76927 0.0
N1470 N 0.04358 0.21381 0.7382 0.0
N1471 N 0.95888 0.27111 0.76714 0.0
H1472 H 0.01595 0.24283 0.79155 0.0
H1473 H 0.98717 0.27078 0.79077 0.0
H1474 H 0.94337 0.28198 0.76112 0.0
H1475 H 0.95522 0.25941 0.77821 0.0
H1476 H 0.04448 0.2113 0.72641 0.0
H1477 H 0.05703 0.19263 0.74372 0.0
H1478 H 0.02758 0.27703 0.71768 0.0
H1479 H 0.99799 0.30091 0.71672 0.0
C1480 C 0.77536 0.73926 0.49981 0.0
C1481 C 0.77057 0.77955 0.51023 0.0
C1482 C 0.72792 0.78114 0.50199 0.0
C1483 C 0.73213 0.73704 0.4929 0.0
N1484 N 0.75892 0.66826 0.48536 0.0
N1485 N 0.74131 0.83259 0.5233 0.0
C1486 C 0.75562 0.71444 0.49241 0.0
C1487 C 0.74656 0.79884 0.51189 0.0
N1488 N 0.79884 0.72577 0.49659 0.0
N1489 N 0.70643 0.80721 0.50079 0.0
H1490 H 0.75434 0.84594 0.53094 0.0
H1491 H 0.72364 0.84365 0.52606 0.0
H1492 H 0.69247 0.796 0.49348 0.0
H1493 H 0.70335 0.84256 0.50594 0.0
H1494 H 0.80349 0.70035 0.48795 0.0
H1495 H 0.81383 0.74367 0.50156 0.0
H1496 H 0.77505 0.64741 0.48603 0.0
H1497 H 0.74484 0.64837 0.48003 0.0
C1498 C 0.74088 0.96867 0.26455 0.0
C1499 C 0.73311 0.01959 0.26152 0.0
C1500 C 0.762 0.02472 0.24035 0.0
C1501 C 0.77167 0.97621 0.24453 0.0
N1502 N 0.77317 0.90593 0.26232 0.0
N1503 N 0.73913 0.09954 0.24826 0.0
C1504 C 0.76189 0.9492 0.25711 0.0
C1505 C 0.74446 0.04863 0.24988 0.0
N1506 N 0.72772 0.93826 0.27415 0.0
N1507 N 0.76894 0.04718 0.22702 0.0
H1508 H 0.72657 0.11862 0.25511 0.0
H1509 H 0.74873 0.12388 0.24105 0.0
H1510 H 0.7814 0.03047 0.21959 0.0
H1511 H 0.76064 0.0799 0.22264 0.0
H1512 H 0.73104 0.89922 0.27554 0.0
H1513 H 0.71201 0.95082 0.27966 0.0
H1514 H 0.76837 0.88778 0.27242 0.0
H1515 H 0.78881 0.89079 0.25733 0.0
C1516 C 0.98128 0.73148 0.25212 0.0
C1517 C 0.98501 0.77788 0.24402 0.0
C1518 C 0.0277 0.77953 0.25217 0.0
C1519 C 0.02349 0.73527 0.26118 0.0
N1520 N 0.99559 0.67348 0.27172 0.0
N1521 N 0.01035 0.85049 0.23801 0.0
C1522 C 1.00006 0.71241 0.26171 0.0
C1523 C 0.00784 0.8032 0.24453 0.0
N1524 N 0.96003 0.70491 0.2503 0.0
N1525 N 0.05086 0.79789 0.25051 0.0
H1526 H 0.9963 0.86863 0.23212 0.0
H1527 H 0.02564 0.87353 0.23941 0.0
H1528 H 0.06585 0.78175 0.25598 0.0
H1529 H 0.05558 0.82645 0.24281 0.0
H1530 H 0.95725 0.66805 0.25449 0.0
H1531 H 0.9457 0.7181 0.24359 0.0
H1532 H 0.97829 0.65891 0.27386 0.0
H1533 H 0.00892 0.65833 0.27886 0.0
C1534 C 0.24966 0.79414 0.01085 0.0
C1535 C 0.27233 0.76813 0.01149 0.0
C1536 C 0.25536 0.69791 0.99627 0.0
C1537 C 0.23356 0.72635 0.99436 0.0
N1538 N 0.21151 0.80567 0.9975 0.0
N1539 N 0.29828 0.69987 1.00254 0.0
C1540 C 0.23113 0.77568 1.00101 0.0
C1541 C 0.27562 0.72124 0.00356 0.0
N1542 N 0.24551 0.83545 0.02005 0.0
N1543 N 0.25646 0.64802 0.99155 0.0
H1544 H 0.31364 0.71612 0.00755 0.0
H1545 H 0.30226 0.6687 0.99558 0.0
H1546 H 0.24193 0.62944 0.98627 0.0
H1547 H 0.27093 0.62369 0.99408 0.0
H1548 H 0.22849 0.85252 0.02127 0.0
H1549 H 0.25854 0.84988 0.02753 0.0
H1550 H 0.21007 0.84401 1.00069 0.0
H1551 H 0.19763 0.79375 0.99023 0.0
C1552 C 0.99934 0.5106 0.9863 0.0
C1553 C 0.02172 0.52001 0.99385 0.0
C1554 C 0.00554 0.48126 0.01715 0.0
C1555 C 0.98261 0.47546 0.00994 0.0
N1556 N 0.95641 0.49 0.98843 0.0
N1557 N 0.04559 0.5206 0.01679 0.0
C1558 C 0.97916 0.49158 0.99471 0.0
C1559 C 0.02469 0.507 0.00938 0.0
N1560 N 0.99761 0.51859 0.971 0.0
N1561 N 0.00912 0.46111 0.03131 0.0
H1562 H 0.06013 0.53875 0.0114 0.0
H1563 H 0.04792 0.51742 0.02848 0.0
H1564 H 0.99539 0.44287 0.03745 0.0
H1565 H 0.02605 0.45899 0.03657 0.0
H1566 H 0.98279 0.50709 0.96448 0.0
H1567 H 0.01184 0.53351 0.96453 0.0
H1568 H 0.95204 0.50659 0.97804 0.0
H1569 H 0.94132 0.47514 0.99411 0.0
C1570 C 0.25001 0.45529 0.24402 0.0
C1571 C 0.27406 0.47457 0.2454 0.0
C1572 C 0.26047 0.5352 0.26496 0.0
C1573 C 0.23611 0.51902 0.2626 0.0
N1574 N 0.20694 0.46901 0.2485 0.0
N1575 N 0.30191 0.53739 0.25548 0.0
C1576 C 0.23066 0.48043 0.25176 0.0
C1577 C 0.27924 0.51575 0.25543 0.0
N1578 N 0.24581 0.41215 0.23559 0.0
N1579 N 0.26574 0.56813 0.27658 0.0
H1580 H 0.31621 0.52382 0.24881 0.0
H1581 H 0.3061 0.57113 0.26122 0.0
H1582 H 0.25245 0.58359 0.28368 0.0
H1583 H 0.28339 0.577 0.27997 0.0
H1584 H 0.22922 0.39289 0.23544 0.0
H1585 H 0.25951 0.39302 0.22967 0.0
H1586 H 0.20167 0.44547 0.23955 0.0
H1587 H 0.19228 0.48629 0.25402 0.0
C1588 C 0.73826 0.28852 0.98844 0.0
C1589 C 0.72444 0.24792 0.99478 0.0
C1590 C 0.74112 0.26855 0.01981 0.0
C1591 C 0.75889 0.30038 0.01284 0.0
N1592 N 0.75766 0.36862 0.99445 0.0
N1593 N 0.71218 0.19938 0.01681 0.0
C1594 C 0.75318 0.31872 0.99809 0.0
C1595 C 0.72559 0.23813 0.01059 0.0
N1596 N 0.73714 0.29864 0.97325 0.0
N1597 N 0.73661 0.27346 0.03496 0.0
H1598 H 0.70027 0.17672 0.01047 0.0
H1599 H 0.71435 0.18743 0.02802 0.0
H1600 H 0.74509 0.30177 0.04147 0.0
H1601 H 0.72235 0.25483 0.04047 0.0
H1602 H 0.7487 0.3249 0.96799 0.0
H1603 H 0.72601 0.27815 0.96582 0.0
H1604 H 0.75206 0.38525 0.98428 0.0
H1605 H 0.76316 0.395 1.00268 0.0
C1606 C 0.74687 0.47176 0.77 0.0
C1607 C 0.74325 0.52566 0.76985 0.0
C1608 C 0.77863 0.53416 0.75309 0.0
C1609 C 0.77782 0.48059 0.75022 0.0
N1610 N 0.76096 0.39744 0.75622 0.0
N1611 N 0.76949 0.59927 0.77164 0.0
C1612 C 0.76202 0.44899 0.75885 0.0
C1613 C 0.76294 0.55542 0.76427 0.0
N1614 N 0.73919 0.44364 0.78214 0.0
N1615 N 0.79443 0.56483 0.74531 0.0
H1616 H 0.76158 0.60944 0.78199 0.0
H1617 H 0.78498 0.62039 0.76891 0.0
H1618 H 0.80717 0.5506 0.73761 0.0
H1619 H 0.79376 0.60473 0.7459 0.0
H1620 H 0.7433 0.40489 0.78352 0.0
H1621 H 0.73183 0.46112 0.79177 0.0
H1622 H 0.74796 0.37389 0.76129 0.0
H1623 H 0.77171 0.3791 0.74811 0.0
C1624 C 0.51613 0.03809 0.00637 0.0
C1625 C 0.52173 0.01883 0.99172 0.0
C1626 C 0.49044 0.95236 0.99448 0.0
C1627 C 0.48371 0.9738 0.00867 0.0
N1628 N 0.48734 0.04139 0.02722 0.0
N1629 N 0.51232 0.96289 0.97075 0.0
C1630 C 0.4958 0.01789 0.01438 0.0
C1631 C 0.50831 0.97744 0.98545 0.0
N1632 N 0.53063 0.07487 0.01275 0.0
N1633 N 0.4803 0.90707 0.98987 0.0
H1634 H 0.5256 0.97967 0.96391 0.0
H1635 H 0.50135 0.93696 0.96494 0.0
H1636 H 0.46703 0.88781 0.99613 0.0
H1637 H 0.4863 0.88645 0.98047 0.0
H1638 H 0.52929 0.08635 0.02403 0.0
H1639 H 0.54529 0.09152 0.00706 0.0
H1640 H 0.49361 0.07673 0.03107 0.0
H1641 H 0.4726 0.02757 0.03346 0.0
C1642 C 0.47916 0.23513 0.25599 0.0
C1643 C 0.48357 0.27603 0.24572 0.0
C1644 C 0.52729 0.27198 0.25134 0.0
C1645 C 0.52266 0.23332 0.26231 0.0
N1646 N 0.49415 0.18325 0.27687 0.0
N1647 N 0.51085 0.33901 0.2352 0.0
C1648 C 0.49855 0.2164 0.26516 0.0
C1649 C 0.50739 0.2961 0.24385 0.0
N1650 N 0.45661 0.21303 0.25658 0.0
N1651 N 0.55076 0.28457 0.24779 0.0
H1652 H 0.49673 0.35739 0.22945 0.0
H1653 H 0.52726 0.35886 0.23465 0.0
H1654 H 0.56578 0.26843 0.25324 0.0
H1655 H 0.5555 0.30812 0.23873 0.0
H1656 H 0.45288 0.17941 0.2625 0.0
H1657 H 0.44187 0.22619 0.25022 0.0
H1658 H 0.47677 0.17384 0.28064 0.0
H1659 H 0.50794 0.16798 0.28364 0.0
C1660 C 0.49948 0.81438 0.75546 0.0
C1661 C 0.48628 0.78355 0.74506 0.0
C1662 C 0.51037 0.70825 0.75242 0.0
C1663 C 0.5247 0.73989 0.762 0.0
N1664 N 0.53557 0.82404 0.77107 0.0
N1665 N 0.48113 0.70336 0.73182 0.0
C1666 C 0.51999 0.79329 0.76309 0.0
C1667 C 0.49228 0.73103 0.74303 0.0
N1668 N 0.49197 0.86342 0.75834 0.0
N1669 N 0.51361 0.65626 0.75263 0.0
H1670 H 0.46758 0.71854 0.72485 0.0
H1671 H 0.48654 0.66666 0.72862 0.0
H1672 H 0.52693 0.6383 0.75919 0.0
H1673 H 0.50201 0.63053 0.74723 0.0
H1674 H 0.49907 0.88603 0.76701 0.0
H1675 H 0.47725 0.8804 0.7528 0.0
H1676 H 0.53475 0.86391 0.77094 0.0
H1677 H 0.55063 0.8099 0.77694 0.0
C1678 C 0.47865 0.51048 0.49777 0.0
C1679 C 0.48375 0.47695 0.51007 0.0
C1680 C 0.52751 0.49111 0.50645 0.0
C1681 C 0.52246 0.52073 0.49331 0.0
N1682 N 0.49346 0.55054 0.47474 0.0
N1683 N 0.51296 0.42758 0.52435 0.0
C1684 C 0.49807 0.52812 0.48847 0.0
C1685 C 0.50819 0.46502 0.51391 0.0
N1686 N 0.45539 0.52708 0.49532 0.0
N1687 N 0.55065 0.48936 0.51214 0.0
H1688 H 0.4993 0.40721 0.52993 0.0
H1689 H 0.53036 0.41343 0.52646 0.0
H1690 H 0.56526 0.50834 0.50709 0.0
H1691 H 0.55496 0.47299 0.52258 0.0
H1692 H 0.451 0.55584 0.48759 0.0
H1693 H 0.44067 0.51549 0.50196 0.0
H1694 H 0.47619 0.55195 0.46987 0.0
H1695 H 0.50718 0.56363 0.46754 0.0
C1696 C 0.15856 0.89303 0.36195 0.0
C1697 C 0.15659 0.84011 0.36539 0.0
C1698 C 0.15732 0.85933 0.39265 0.0
C1699 C 0.15617 0.91234 0.38917 0.0
N1700 N 0.15487 0.98085 0.37081 0.0
N1701 N 0.1533 0.7717 0.38368 0.0
C1702 C 0.15684 0.92959 0.37389 0.0
C1703 C 0.15601 0.82285 0.38067 0.0
N1704 N 0.16226 0.9081 0.34726 0.0
N1705 N 0.15985 0.84411 0.40742 0.0
H1706 H 0.15322 0.7437 0.37523 0.0
H1707 H 0.14982 0.75697 0.39444 0.0
H1708 H 0.16049 0.86997 0.41645 0.0
H1709 H 0.16319 0.80644 0.41071 0.0
H1710 H 0.16625 0.94558 0.34408 0.0
H1711 H 0.1632 0.88221 0.33825 0.0
H1712 H 0.15232 0.99573 0.35997 0.0
H1713 H 0.15447 0.00886 0.37927 0.0
C1714 C 0.12789 0.3551 0.38233 0.0
C1715 C 0.10548 0.33875 0.3887 0.0
C1716 C 0.08326 0.39474 0.37113 0.0
C1717 C 0.10574 0.41456 0.36581 0.0
N1718 N 0.14937 0.42103 0.3684 0.0
N1719 N 0.06199 0.34804 0.39091 0.0
C1720 C 0.12806 0.39682 0.37199 0.0
C1721 C 0.08316 0.35998 0.38358 0.0
N1722 N 0.14894 0.32958 0.38573 0.0
N1723 N 0.06209 0.40799 0.36399 0.0
H1724 H 0.06126 0.32267 0.40005 0.0
H1725 H 0.0455 0.36635 0.38877 0.0
H1726 H 0.0615 0.43337 0.35484 0.0
H1727 H 0.04541 0.39072 0.36628 0.0
H1728 H 0.16533 0.33618 0.38013 0.0
H1729 H 0.14962 0.29848 0.39316 0.0
H1730 H 0.1658 0.41339 0.37385 0.0
H1731 H 0.15032 0.45211 0.36098 0.0
C1732 C 0.17141 0.37324 0.86819 0.0
C1733 C 0.15283 0.33554 0.86766 0.0
C1734 C 0.13456 0.37055 0.89084 0.0
C1735 C 0.15172 0.41117 0.89051 0.0
N1736 N 0.18533 0.45447 0.87852 0.0
N1737 N 0.11527 0.30049 0.87732 0.0
C1738 C 0.16993 0.41332 0.87912 0.0
C1739 C 0.13407 0.33457 0.87873 0.0
N1740 N 0.19067 0.37001 0.85841 0.0
N1741 N 0.11891 0.36616 0.90284 0.0
H1742 H 0.11446 0.27281 0.86878 0.0
H1743 H 0.09958 0.30171 0.88392 0.0
H1744 H 0.11827 0.39259 0.91172 0.0
H1745 H 0.10781 0.33441 0.90465 0.0
H1746 H 0.20609 0.39303 0.85916 0.0
H1747 H 0.19208 0.34154 0.85014 0.0
H1748 H 0.19715 0.46157 0.86954 0.0
H1749 H 0.18533 0.48352 0.88667 0.0
C1750 C 0.12054 0.83145 0.87689 0.0
C1751 C 0.10419 0.83829 0.88919 0.0
C1752 C 0.0875 0.91517 0.87699 0.0
C1753 C 0.10572 0.91153 0.86563 0.0
N1754 N 0.14167 0.87035 0.85569 0.0
N1755 N 0.07366 0.88865 0.90196 0.0
C1756 C 0.12275 0.87061 0.86577 0.0
C1757 C 0.08798 0.88059 0.88949 0.0
N1758 N 0.1336 0.78698 0.87569 0.0
N1759 N 0.0695 0.95109 0.87565 0.0
H1760 H 0.07326 0.86363 0.91119 0.0
H1761 H 0.06347 0.92181 0.90365 0.0
H1762 H 0.0687 0.97709 0.86666 0.0
H1763 H 0.05431 0.9525 0.88269 0.0
H1764 H 0.14383 0.77732 0.86617 0.0
H1765 H 0.13257 0.75747 0.88366 0.0
H1766 H 0.15625 0.84494 0.85637 0.0
H1767 H 0.14391 0.89815 0.8473 0.0
C1768 C 0.83954 0.17586 0.62598 0.0
C1769 C 0.85284 0.16686 0.63953 0.0
C1770 C 0.86662 0.08368 0.62978 0.0
C1771 C 0.8528 0.09205 0.61638 0.0
N1772 N 0.82315 0.14123 0.60249 0.0
N1773 N 0.87554 0.1096 0.65566 0.0
C1774 C 0.8383 0.13671 0.61473 0.0
C1775 C 0.86529 0.11985 0.64183 0.0
N1776 N 0.82877 0.22251 0.62369 0.0
N1777 N 0.88163 0.04193 0.63074 0.0
H1778 H 0.87526 0.13559 0.66465 0.0
H1779 H 0.88264 0.07404 0.65867 0.0
H1780 H 0.88251 0.01366 0.62239 0.0
H1781 H 0.89438 0.03671 0.63934 0.0
H1782 H 0.8212 0.23394 0.6134 0.0
H1783 H 0.82859 0.25135 0.63189 0.0
H1784 H 0.81022 0.17012 0.60133 0.0
H1785 H 0.82225 0.11378 0.59389 0.0
C1786 C 0.92191 0.61689 0.63589 0.0
C1787 C 0.90024 0.59072 0.63996 0.0
C1788 C 0.87785 0.63703 0.62021 0.0
C1789 C 0.89885 0.66698 0.61721 0.0
N1790 N 0.93989 0.69125 0.62374 0.0
N1791 N 0.85654 0.58295 0.63812 0.0
C1792 C 0.92067 0.6585 0.62546 0.0
C1793 C 0.87789 0.60277 0.63271 0.0
N1794 N 0.94374 0.60103 0.64165 0.0
N1795 N 0.85809 0.6401 0.61081 0.0
H1796 H 0.85568 0.55825 0.64741 0.0
H1797 H 0.8395 0.59479 0.63432 0.0
H1798 H 0.85744 0.6642 0.60137 0.0
H1799 H 0.8433 0.61525 0.6115 0.0
H1800 H 0.96043 0.61499 0.63788 0.0
H1801 H 0.94531 0.57074 0.64932 0.0
H1802 H 0.95531 0.69032 0.63061 0.0
H1803 H 0.93962 0.72224 0.61625 0.0
C1804 C 0.83553 0.5981 0.12337 0.0
C1805 C 0.85729 0.58747 0.11529 0.0
C1806 C 0.87846 0.65507 0.12939 0.0
C1807 C 0.85746 0.66204 0.13853 0.0
N1808 N 0.81705 0.63565 0.14577 0.0
N1809 N 0.9006 0.59921 0.11233 0.0
C1810 C 0.83622 0.63235 0.13593 0.0
C1811 C 0.87909 0.61416 0.11877 0.0
N1812 N 0.8141 0.57651 0.11876 0.0
N1813 N 0.89751 0.68859 0.1305 0.0
H1814 H 0.90191 0.56927 0.10453 0.0
H1815 H 0.91745 0.61343 0.11573 0.0
H1816 H 0.89769 0.71941 0.13805 0.0
H1817 H 0.91215 0.68873 0.123 0.0
H1818 H 0.79721 0.5869 0.12314 0.0
H1819 H 0.81295 0.55117 0.10962 0.0
H1820 H 0.80214 0.61105 0.14544 0.0
H1821 H 0.81691 0.66036 0.15508 0.0
C1822 C 0.91496 0.07918 0.125 0.0
C1823 C 0.90102 0.08895 0.13825 0.0
C1824 C 0.88684 0.17036 0.12754 0.0
C1825 C 0.90156 0.16168 0.11455 0.0
N1826 N 0.93265 0.11295 0.1018 0.0
N1827 N 0.8775 0.14725 0.15357 0.0
C1828 C 0.91658 0.11758 0.11356 0.0
C1829 C 0.88815 0.13572 0.13996 0.0
N1830 N 0.9259 0.0325 0.12315 0.0
N1831 N 0.87085 0.21057 0.12775 0.0
H1832 H 0.87794 0.12251 0.16287 0.0
H1833 H 0.87006 0.18295 0.15609 0.0
H1834 H 0.8695 0.23725 0.11897 0.0
H1835 H 0.85761 0.21546 0.13607 0.0
H1836 H 0.93396 0.02064 0.11305 0.0
H1837 H 0.9256 0.004 0.13145 0.0
H1838 H 0.94588 0.08446 0.10118 0.0
H1839 H 0.93403 0.14011 0.09314 0.0
C1840 C 0.67552 0.88219 0.86563 0.0
C1841 C 0.66448 0.83395 0.86849 0.0
C1842 C 0.66666 0.85123 0.89572 0.0
C1843 C 0.6709 0.90373 0.89256 0.0
N1844 N 0.69813 0.95226 0.87678 0.0
N1845 N 0.64992 0.77143 0.88664 0.0
C1846 C 0.68083 0.91504 0.87807 0.0
C1847 C 0.66035 0.81788 0.88366 0.0
N1848 N 0.68064 0.89698 0.85112 0.0
N1849 N 0.67274 0.83166 0.90955 0.0
H1850 H 0.64493 0.74563 0.87814 0.0
H1851 H 0.64459 0.76062 0.89754 0.0
H1852 H 0.68195 0.85382 0.91758 0.0
H1853 H 0.67202 0.7926 0.91204 0.0
H1854 H 0.68622 0.93403 0.84837 0.0
H1855 H 0.67793 0.87314 0.84176 0.0
H1856 H 0.70775 0.95931 0.8668 0.0
H1857 H 0.70496 0.97117 0.88632 0.0
C1858 C 0.58372 0.36883 0.8845 0.0
C1859 C 0.60332 0.33357 0.88558 0.0
C1860 C 0.6241 0.37576 0.86433 0.0
C1861 C 0.60425 0.41033 0.86304 0.0
N1862 N 0.56381 0.43648 0.87012 0.0
N1863 N 0.64051 0.29809 0.87551 0.0
C1864 C 0.58359 0.40577 0.87259 0.0
C1865 C 0.62299 0.33536 0.87514 0.0
N1866 N 0.56557 0.36767 0.89512 0.0
N1867 N 0.64436 0.38279 0.85554 0.0
H1868 H 0.64103 0.26926 0.8837 0.0
H1869 H 0.65374 0.29349 0.86718 0.0
H1870 H 0.64545 0.4105 0.84703 0.0
H1871 H 0.66067 0.36328 0.85716 0.0
H1872 H 0.55216 0.39562 0.89611 0.0
H1873 H 0.5646 0.33983 0.9036 0.0
H1874 H 0.5472 0.43205 0.87562 0.0
H1875 H 0.56339 0.46463 0.86171 0.0
C1876 C 0.67176 0.36383 0.37041 0.0
C1877 C 0.64968 0.33872 0.36659 0.0
C1878 C 0.62722 0.39233 0.38473 0.0
C1879 C 0.64944 0.41643 0.38888 0.0
N1880 N 0.69302 0.42354 0.38699 0.0
N1881 N 0.60669 0.3254 0.37047 0.0
C1882 C 0.67179 0.40168 0.38209 0.0
C1883 C 0.62747 0.35201 0.37385 0.0
N1884 N 0.69259 0.35187 0.36267 0.0
N1885 N 0.60584 0.40878 0.39105 0.0
H1886 H 0.60571 0.29802 0.36186 0.0
H1887 H 0.59053 0.32841 0.37653 0.0
H1888 H 0.60503 0.43564 0.3998 0.0
H1889 H 0.58868 0.39775 0.3873 0.0
H1890 H 0.70886 0.37193 0.36367 0.0
H1891 H 0.6934 0.32294 0.35452 0.0
H1892 H 0.71025 0.41134 0.38374 0.0
H1893 H 0.69357 0.45276 0.39507 0.0
C1894 C 0.59289 0.82037 0.37304 0.0
C1895 C 0.58991 0.83704 0.38826 0.0
C1896 C 0.57496 0.9196 0.37889 0.0
C1897 C 0.58381 0.90701 0.36422 0.0
N1898 N 0.57926 0.83492 0.34744 0.0
N1899 N 0.57603 0.90174 0.40586 0.0
C1900 C 0.58665 0.85412 0.36106 0.0
C1901 C 0.58009 0.88634 0.39127 0.0
N1902 N 0.60215 0.77295 0.36992 0.0
N1903 N 0.55885 0.95902 0.38049 0.0
H1904 H 0.57863 0.87768 0.41518 0.0
H1905 H 0.57146 0.93933 0.40869 0.0
H1906 H 0.55216 0.97886 0.37108 0.0
H1907 H 0.54995 0.96735 0.39064 0.0
H1908 H 0.60663 0.76152 0.35892 0.0
H1909 H 0.60706 0.7468 0.37834 0.0
H1910 H 0.57898 0.79578 0.34502 0.0
H1911 H 0.56996 0.85777 0.33962 0.0
C1912 C 0.33738 0.15688 0.12914 0.0
C1913 C 0.35625 0.15781 0.14013 0.0
C1914 C 0.37647 0.08562 0.12757 0.0
C1915 C 0.35695 0.08287 0.11704 0.0
N1916 N 0.31696 0.1096 0.1091 0.0
N1917 N 0.39125 0.11801 0.15166 0.0
C1918 C 0.33682 0.1167 0.11821 0.0
C1919 C 0.37501 0.12048 0.13992 0.0
N1920 N 0.32044 0.19527 0.12891 0.0
N1921 N 0.39689 0.05654 0.12538 0.0
H1922 H 0.39096 0.14344 0.1608 0.0
H1923 H 0.40369 0.08826 0.15303 0.0
H1924 H 0.39874 0.03055 0.11646 0.0
H1925 H 0.41281 0.06106 0.13164 0.0
H1926 H 0.30791 0.20026 0.12017 0.0
H1927 H 0.31987 0.22438 0.13702 0.0
H1928 H 0.30068 0.12951 0.11041 0.0
H1929 H 0.31605 0.08076 0.10092 0.0
C1930 C 0.42295 0.59226 0.13017 0.0
C1931 C 0.4035 0.59101 0.14075 0.0
C1932 C 0.38357 0.66268 0.12774 0.0
C1933 C 0.40346 0.66526 0.11749 0.0
N1934 N 0.44375 0.63883 0.11011 0.0
N1935 N 0.36759 0.62974 0.15148 0.0
C1936 C 0.4237 0.63192 0.11907 0.0
C1937 C 0.38452 0.62779 0.14011 0.0
N1938 N 0.44025 0.55458 0.13046 0.0
N1939 N 0.3634 0.69232 0.12531 0.0
H1940 H 0.36748 0.60422 0.16059 0.0
H1941 H 0.35484 0.65901 0.15258 0.0
H1942 H 0.36217 0.71914 0.11656 0.0
H1943 H 0.34717 0.68795 0.13125 0.0
H1944 H 0.45332 0.54969 0.12204 0.0
H1945 H 0.44069 0.526 0.13874 0.0
H1946 H 0.4601 0.61943 0.11169 0.0
H1947 H 0.44466 0.66691 0.1017 0.0
C1948 C 0.37744 0.63082 0.63822 0.0
C1949 C 0.35847 0.66744 0.63954 0.0
C1950 C 0.33659 0.62695 0.61843 0.0
C1951 C 0.35657 0.59328 0.61627 0.0
N1952 N 0.39739 0.5668 0.62264 0.0
N1953 N 0.32127 0.70476 0.63018 0.0
C1954 C 0.37737 0.59612 0.6258 0.0
C1955 C 0.33833 0.66666 0.62946 0.0
N1956 N 0.39525 0.62863 0.64905 0.0
N1957 N 0.3158 0.62015 0.61014 0.0
H1958 H 0.32167 0.7337 0.63835 0.0
H1959 H 0.30763 0.70982 0.62212 0.0
H1960 H 0.31412 0.59198 0.6018 0.0
H1961 H 0.29966 0.63975 0.61224 0.0
H1962 H 0.40806 0.59932 0.64971 0.0
H1963 H 0.39611 0.65397 0.6582 0.0
H1964 H 0.4141 0.57133 0.62804 0.0
H1965 H 0.39797 0.54034 0.61377 0.0
C1966 C 0.38625 0.12519 0.6143 0.0
C1967 C 0.40229 0.16769 0.61516 0.0
C1968 C 0.421 0.13203 0.63814 0.0
C1969 C 0.40332 0.09241 0.63813 0.0
N1970 N 0.36745 0.05347 0.62731 0.0
N1971 N 0.43367 0.21474 0.62822 0.0
C1972 C 0.38556 0.08939 0.62645 0.0
C1973 C 0.41943 0.17189 0.62714 0.0
N1974 N 0.37191 0.11881 0.60175 0.0
N1975 N 0.4395 0.13089 0.64851 0.0
H1976 H 0.43358 0.2438 0.62008 0.0
H1977 H 0.44452 0.22312 0.63758 0.0
H1978 H 0.44093 0.10262 0.65684 0.0
H1979 H 0.4544 0.15551 0.64821 0.0
H1980 H 0.36178 0.08586 0.59964 0.0
H1981 H 0.37158 0.14483 0.59276 0.0
H1982 H 0.35235 0.05304 0.62018 0.0
H1983 H 0.36651 0.02596 0.63588 0.0
loop_
_geom_bond_atom_site_label_1
_geom_bond_atom_site_label_2
_geom_bond_distance
_geom_bond_site_symmetry_2
_ccdc_geom_bond_type
Li0 N17 1.990 . S
Li0 O60 1.956 . S
Li0 O61 1.970 . S
Li0 O62 1.961 . S
Li1 N25 1.990 . S
Li1 O60 1.970 . S
Li1 O61 1.956 . S
Li1 O63 1.961 . S
Li2 N47 1.990 . S
Li2 O60 1.961 . S
Li2 O62 1.956 . S
Li2 O63 1.970 . S
Li3 N53 1.990 . S
Li3 O61 1.961 . S
Li3 O62 1.970 . S
Li3 O63 1.956 . S
C4 C6 1.348 . S
C4 C7 1.356 . S
C4 O60 1.325 . S
N5 C8 1.314 . S
N5 C9 1.279 . S
C6 C4 1.348 . S
C6 C8 1.353 . S
C6 H64 0.929 . S
C7 C4 1.356 . S
C7 C9 1.358 . S
C7 H65 0.930 . S
C8 N5 1.314 . S
C8 C6 1.353 . S
C8 H66 0.930 . S
C9 N5 1.279 . S
C9 C7 1.358 . S
C9 H67 0.930 . S
C10 C13 1.348 . S
C10 C14 1.359 . S
C10 O61 1.325 . S
C11 N12 1.279 . S
C11 C14 1.355 1_565 S
C11 H68 0.930 . S
N12 C11 1.279 . S
N12 C15 1.314 . S
C13 C10 1.348 . S
C13 C15 1.353 1_545 S
C13 H69 0.929 . S
C14 C10 1.359 . S
C14 C11 1.355 1_545 S
C14 H70 0.930 . S
C15 N12 1.314 . S
C15 C13 1.353 1_565 S
C15 H71 0.930 . S
C16 N17 1.314 . S
C16 C21 1.353 . S
C16 H22 0.930 . S
N17 Li0 1.990 . S
N17 C16 1.314 . S
N17 C19 1.279 . S
C18 C19 1.358 . S
C18 C20 1.356 . S
C18 H72 0.930 . S
C19 N17 1.279 . S
C19 C18 1.358 . S
C19 H23 0.930 . S
C20 C18 1.356 . S
C20 C21 1.348 . S
C21 C16 1.353 . S
C21 C20 1.348 . S
C21 H73 0.929 . S
H22 C16 0.930 . S
H23 C19 0.930 . S
C24 N25 1.314 . S
C24 C26 1.353 . S
C24 H30 0.930 . S
N25 Li1 1.990 . S
N25 C24 1.314 . S
N25 C28 1.279 . S
C26 C24 1.353 . S
C26 C29 1.348 . S
C26 H74 0.929 . S
C27 C28 1.358 . S
C27 C29 1.356 . S
C27 H75 0.930 . S
C28 N25 1.279 . S
C28 C27 1.358 . S
C28 H31 0.930 . S
C29 C26 1.348 . S
C29 C27 1.356 . S
H30 C24 0.930 . S
H31 C28 0.930 . S
C32 C34 1.348 . S
C32 C35 1.356 . S
C32 O62 1.325 . S
N33 C36 1.314 . S
N33 C37 1.279 . S
C34 C32 1.348 . S
C34 C36 1.353 . S
C34 H76 0.929 . S
C35 C32 1.356 . S
C35 C37 1.358 . S
C35 H77 0.930 . S
C36 N33 1.314 . S
C36 C34 1.353 . S
C36 H78 0.930 . S
C37 N33 1.279 . S
C37 C35 1.358 . S
C37 H79 0.930 . S
C38 C39 1.348 . S
C38 C40 1.356 . S
C38 O63 1.325 . S
C39 C38 1.348 . S
C39 C41 1.353 . S
C39 H80 0.929 . S
C40 C38 1.356 . S
C40 C42 1.358 . S
C40 H81 0.930 . S
C41 C39 1.353 . S
C41 N43 1.314 . S
C41 H82 0.930 . S
C42 C40 1.358 . S
C42 N43 1.279 . S
C42 H83 0.930 . S
N43 C41 1.314 . S
N43 C42 1.279 . S
C44 C46 1.353 . S
C44 N47 1.314 . S
C44 H50 0.930 . S
C45 N47 1.279 . S
C45 C48 1.358 . S
C45 H51 0.930 . S
C46 C44 1.353 . S
C46 C49 1.348 . S
C46 H84 0.929 . S
N47 Li2 1.990 . S
N47 C44 1.314 . S
N47 C45 1.279 . S
C48 C45 1.358 . S
C48 C49 1.356 . S
C48 H85 0.930 . S
C49 C46 1.348 . S
C49 C48 1.356 . S
H50 C44 0.930 . S
H51 C45 0.930 . S
C52 N53 1.314 1_565 S
C52 C54 1.353 . S
C52 H58 0.930 . S
N53 Li3 1.990 . S
N53 C52 1.314 1_545 S
N53 C56 1.279 . S
C54 C52 1.353 . S
C54 C57 1.348 . S
C54 H86 0.929 . S
C55 C56 1.358 1_565 S
C55 C57 1.356 . S
C55 H87 0.930 . S
C56 N53 1.279 . S
C56 C55 1.358 1_545 S
C56 H59 0.930 . S
C57 C54 1.348 . S
C57 C55 1.356 . S
H58 C52 0.930 . S
H59 C56 0.930 . S
O60 Li0 1.956 . S
O60 Li1 1.970 . S
O60 Li2 1.961 . S
O60 C4 1.325 . S
O61 Li0 1.970 . S
O61 Li1 1.956 . S
O61 Li3 1.961 . S
O61 C10 1.325 . S
O62 Li0 1.961 . S
O62 Li2 1.956 . S
O62 Li3 1.970 . S
O62 C32 1.325 . S
O63 Li1 1.961 . S
O63 Li2 1.970 . S
O63 Li3 1.956 . S
O63 C38 1.325 . S
H64 C6 0.929 . S
H65 C7 0.930 . S
H66 C8 0.930 . S
H67 C9 0.930 . S
H68 C11 0.930 . S
H69 C13 0.929 . S
H70 C14 0.930 . S
H71 C15 0.930 . S
H72 C18 0.930 . S
H73 C21 0.929 . S
H74 C26 0.929 . S
H75 C27 0.930 . S
H76 C34 0.929 . S
H77 C35 0.930 . S
H78 C36 0.930 . S
H79 C37 0.930 . S
H80 C39 0.929 . S
H81 C40 0.930 . S
H82 C41 0.930 . S
H83 C42 0.930 . S
H84 C46 0.929 . S
H85 C48 0.930 . S
H86 C54 0.929 . S
H87 C55 0.930 . S
Li88 N105 1.990 . S
Li88 O148 1.956 . S
Li88 O149 1.970 . S
Li88 O150 1.961 . S
Li89 N113 1.990 . S
Li89 O148 1.970 . S
Li89 O149 1.956 . S
Li89 O151 1.961 . S
Li90 N135 1.990 . S
Li90 O148 1.961 . S
Li90 O150 1.956 . S
Li90 O151 1.970 . S
Li91 N141 1.990 . S
Li91 O149 1.961 . S
Li91 O150 1.970 . S
Li91 O151 1.956 . S
C92 C94 1.348 . S
C92 C95 1.356 . S
C92 O148 1.325 . S
N93 C96 1.314 . S
N93 C97 1.279 . S
C94 C92 1.348 . S
C94 C96 1.353 . S
C94 H152 0.929 . S
C95 C92 1.356 . S
C95 C97 1.358 . S
C95 H153 0.930 . S
C96 N93 1.314 . S
C96 C94 1.353 . S
C96 H154 0.930 . S
C97 N93 1.279 . S
C97 C95 1.358 . S
C97 H155 0.930 . S
C98 C101 1.348 . S
C98 C102 1.356 . S
C98 O149 1.325 . S
C99 N100 1.279 . S
C99 C102 1.358 . S
C99 H156 0.930 . S
N100 C99 1.279 . S
N100 C103 1.314 . S
C101 C98 1.348 . S
C101 C103 1.353 . S
C101 H157 0.929 . S
C102 C98 1.356 . S
C102 C99 1.358 . S
C102 H158 0.930 . S
C103 N100 1.314 . S
C103 C101 1.353 . S
C103 H159 0.930 . S
C104 N105 1.314 . S
C104 C109 1.353 . S
C104 H110 0.930 . S
N105 Li88 1.990 . S
N105 C104 1.314 . S
N105 C107 1.279 . S
C106 C107 1.358 . S
C106 C108 1.356 . S
C106 H160 0.930 . S
C107 N105 1.279 . S
C107 C106 1.358 . S
C107 H111 0.930 . S
C108 C106 1.356 . S
C108 C109 1.348 . S
C109 C104 1.353 . S
C109 C108 1.348 . S
C109 H161 0.929 . S
H110 C104 0.930 . S
H111 C107 0.930 . S
C112 N113 1.314 1_565 S
C112 C114 1.353 . S
C112 H118 0.930 . S
N113 Li89 1.990 . S
N113 C112 1.314 1_545 S
N113 C116 1.279 . S
C114 C112 1.353 . S
C114 C117 1.348 . S
C114 H162 0.929 . S
C115 C116 1.358 1_565 S
C115 C117 1.356 . S
C115 H163 0.930 . S
C116 N113 1.279 . S
C116 C115 1.358 1_545 S
C116 H119 0.930 . S
C117 C114 1.348 . S
C117 C115 1.356 . S
H118 C112 0.930 . S
H119 C116 0.930 . S
C120 C122 1.348 . S
C120 C123 1.356 . S
C120 O150 1.325 . S
N121 C124 1.314 . S
N121 C125 1.279 . S
C122 C120 1.348 . S
C122 C124 1.353 . S
C122 H164 0.929 . S
C123 C120 1.356 . S
C123 C125 1.358 . S
C123 H165 0.930 . S
C124 N121 1.314 . S
C124 C122 1.353 . S
C124 H166 0.930 . S
C125 N121 1.279 . S
C125 C123 1.358 . S
C125 H167 0.930 . S
C126 C127 1.348 . S
C126 C128 1.359 . S
C126 O151 1.325 . S
C127 C126 1.348 . S
C127 C129 1.353 1_545 S
C127 H168 0.929 . S
C128 C126 1.359 . S
C128 C130 1.355 1_545 S
C128 H169 0.930 . S
C129 C127 1.353 1_565 S
C129 N131 1.314 . S
C129 H170 0.930 . S
C130 C128 1.355 1_565 S
C130 N131 1.279 . S
C130 H171 0.930 . S
N131 C129 1.314 . S
N131 C130 1.279 . S
C132 C134 1.353 . S
C132 N135 1.314 . S
C132 H138 0.930 . S
C133 N135 1.279 . S
C133 C136 1.358 . S
C133 H139 0.930 . S
C134 C132 1.353 . S
C134 C137 1.348 . S
C134 H172 0.929 . S
N135 Li90 1.990 . S
N135 C132 1.314 . S
N135 C133 1.279 . S
C136 C133 1.358 . S
C136 C137 1.356 . S
C136 H173 0.930 . S
C137 C134 1.348 . S
C137 C136 1.356 . S
H138 C132 0.930 . S
H139 C133 0.930 . S
C140 N141 1.314 . S
C140 C142 1.353 . S
C140 H146 0.930 . S
N141 Li91 1.990 . S
N141 C140 1.314 . S
N141 C144 1.279 . S
C142 C140 1.353 . S
C142 C145 1.348 . S
C142 H174 0.929 . S
C143 C144 1.358 . S
C143 C145 1.356 . S
C143 H175 0.930 . S
C144 N141 1.279 . S
C144 C143 1.358 . S
C144 H147 0.930 . S
C145 C142 1.348 . S
C145 C143 1.356 . S
H146 C140 0.930 . S
H147 C144 0.930 . S
O148 Li88 1.956 . S
O148 Li89 1.970 . S
O148 Li90 1.961 . S
O148 C92 1.325 . S
O149 Li88 1.970 . S
O149 Li89 1.956 . S
O149 Li91 1.961 . S
O149 C98 1.325 . S
O150 Li88 1.961 . S
O150 Li90 1.956 . S
O150 Li91 1.970 . S
O150 C120 1.325 . S
O151 Li89 1.961 . S
O151 Li90 1.970 . S
O151 Li91 1.956 . S
O151 C126 1.325 . S
H152 C94 0.929 . S
H153 C95 0.930 . S
H154 C96 0.930 . S
H155 C97 0.930 . S
H156 C99 0.930 . S
H157 C101 0.929 . S
H158 C102 0.930 . S
H159 C103 0.930 . S
H160 C106 0.930 . S
H161 C109 0.929 . S
H162 C114 0.929 . S
H163 C115 0.930 . S
H164 C122 0.929 . S
H165 C123 0.930 . S
H166 C124 0.930 . S
H167 C125 0.930 . S
H168 C127 0.929 . S
H169 C128 0.930 . S
H170 C129 0.930 . S
H171 C130 0.930 . S
H172 C134 0.929 . S
H173 C136 0.930 . S
H174 C142 0.929 . S
H175 C143 0.930 . S
Li176 N193 1.990 . S
Li176 O236 1.956 . S
Li176 O237 1.970 . S
Li176 O238 1.961 . S
Li177 N201 1.990 . S
Li177 O236 1.970 . S
Li177 O237 1.956 . S
Li177 O239 1.961 . S
Li178 N223 1.990 . S
Li178 O236 1.961 . S
Li178 O238 1.956 . S
Li178 O239 1.970 . S
Li179 N229 1.990 . S
Li179 O237 1.961 . S
Li179 O238 1.970 . S
Li179 O239 1.956 . S
C180 C182 1.348 . S
C180 C183 1.356 . S
C180 O236 1.325 . S
N181 C184 1.314 . S
N181 C185 1.279 . S
C182 C180 1.348 . S
C182 C184 1.353 . S
C182 H240 0.929 . S
C183 C180 1.356 . S
C183 C185 1.358 . S
C183 H241 0.930 . S
C184 N181 1.314 . S
C184 C182 1.353 . S
C184 H242 0.930 . S
C185 N181 1.279 . S
C185 C183 1.358 . S
C185 H243 0.930 . S
C186 C189 1.348 . S
C186 C190 1.356 . S
C186 O237 1.325 . S
C187 N188 1.279 . S
C187 C190 1.358 1_545 S
C187 H244 0.930 . S
N188 C187 1.279 . S
N188 C191 1.314 . S
C189 C186 1.348 . S
C189 C191 1.353 1_565 S
C189 H245 0.929 . S
C190 C186 1.356 . S
C190 C187 1.358 1_565 S
C190 H246 0.930 . S
C191 N188 1.314 . S
C191 C189 1.353 1_545 S
C191 H247 0.930 . S
C192 N193 1.314 . S
C192 C197 1.353 . S
C192 H198 0.930 . S
N193 Li176 1.990 . S
N193 C192 1.314 . S
N193 C195 1.279 . S
C194 C195 1.358 . S
C194 C196 1.356 . S
C194 H248 0.930 . S
C195 N193 1.279 . S
C195 C194 1.358 . S
C195 H199 0.930 . S
C196 C194 1.356 . S
C196 C197 1.348 . S
C197 C192 1.353 . S
C197 C196 1.348 . S
C197 H249 0.929 . S
H198 C192 0.930 . S
H199 C195 0.930 . S
C200 N201 1.314 . S
C200 C202 1.353 1_565 S
C200 H206 0.930 . S
N201 Li177 1.990 . S
N201 C200 1.314 . S
N201 C204 1.279 1_565 S
C202 C200 1.353 1_545 S
C202 C205 1.348 . S
C202 H250 0.929 . S
C203 C204 1.358 . S
C203 C205 1.356 . S
C203 H251 0.930 . S
C204 N201 1.279 1_545 S
C204 C203 1.358 . S
C204 H207 0.930 . S
C205 C202 1.348 . S
C205 C203 1.356 . S
H206 C200 0.930 . S
H207 C204 0.930 . S
C208 C210 1.348 . S
C208 C211 1.356 . S
C208 O238 1.325 . S
N209 C212 1.314 . S
N209 C213 1.279 . S
C210 C208 1.348 . S
C210 C212 1.353 . S
C210 H252 0.929 . S
C211 C208 1.356 . S
C211 C213 1.358 . S
C211 H253 0.930 . S
C212 N209 1.314 . S
C212 C210 1.353 . S
C212 H254 0.930 . S
C213 N209 1.279 . S
C213 C211 1.358 . S
C213 H255 0.930 . S
C214 C215 1.348 . S
C214 C216 1.356 . S
C214 O239 1.325 . S
C215 C214 1.348 . S
C215 C217 1.353 . S
C215 H256 0.929 . S
C216 C214 1.356 . S
C216 C218 1.358 . S
C216 H257 0.930 . S
C217 C215 1.353 . S
C217 N219 1.314 . S
C217 H258 0.930 . S
C218 C216 1.358 . S
C218 N219 1.279 . S
C218 H259 0.930 . S
N219 C217 1.314 . S
N219 C218 1.279 . S
C220 C222 1.353 . S
C220 N223 1.314 . S
C220 H226 0.930 . S
C221 N223 1.279 . S
C221 C224 1.358 . S
C221 H227 0.930 . S
C222 C220 1.353 . S
C222 C225 1.348 . S
C222 H260 0.929 . S
N223 Li178 1.990 . S
N223 C220 1.314 . S
N223 C221 1.279 . S
C224 C221 1.358 . S
C224 C225 1.356 . S
C224 H261 0.930 . S
C225 C222 1.348 . S
C225 C224 1.356 . S
H226 C220 0.930 . S
H227 C221 0.930 . S
C228 N229 1.314 . S
C228 C230 1.353 . S
C228 H234 0.930 . S
N229 Li179 1.990 . S
N229 C228 1.314 . S
N229 C232 1.279 . S
C230 C228 1.353 . S
C230 C233 1.348 . S
C230 H262 0.929 . S
C231 C232 1.358 . S
C231 C233 1.356 . S
C231 H263 0.930 . S
C232 N229 1.279 . S
C232 C231 1.358 . S
C232 H235 0.930 . S
C233 C230 1.348 . S
C233 C231 1.356 . S
H234 C228 0.930 . S
H235 C232 0.930 . S
O236 Li176 1.956 . S
O236 Li177 1.970 . S
O236 Li178 1.961 . S
O236 C180 1.325 . S
O237 Li176 1.970 . S
O237 Li177 1.956 . S
O237 Li179 1.961 . S
O237 C186 1.325 . S
O238 Li176 1.961 . S
O238 Li178 1.956 . S
O238 Li179 1.970 . S
O238 C208 1.325 . S
O239 Li177 1.961 . S
O239 Li178 1.970 . S
O239 Li179 1.956 . S
O239 C214 1.325 . S
H240 C182 0.929 . S
H241 C183 0.930 . S
H242 C184 0.930 . S
H243 C185 0.930 . S
H244 C187 0.930 . S
H245 C189 0.929 . S
H246 C190 0.930 . S
H247 C191 0.930 . S
H248 C194 0.930 . S
H249 C197 0.929 . S
H250 C202 0.929 . S
H251 C203 0.930 . S
H252 C210 0.929 . S
H253 C211 0.930 . S
H254 C212 0.930 . S
H255 C213 0.930 . S
H256 C215 0.929 . S
H257 C216 0.930 . S
H258 C217 0.930 . S
H259 C218 0.930 . S
H260 C222 0.929 . S
H261 C224 0.930 . S
H262 C230 0.929 . S
H263 C231 0.930 . S
Li264 N281 1.990 . S
Li264 O324 1.956 . S
Li264 O325 1.970 . S
Li264 O326 1.961 . S
Li265 N289 1.990 . S
Li265 O324 1.970 . S
Li265 O325 1.956 . S
Li265 O327 1.961 . S
Li266 N311 1.990 . S
Li266 O324 1.961 . S
Li266 O326 1.956 . S
Li266 O327 1.970 . S
Li267 N317 1.990 . S
Li267 O325 1.961 . S
Li267 O326 1.970 . S
Li267 O327 1.956 . S
C268 C270 1.348 . S
C268 C271 1.356 . S
C268 O324 1.325 . S
N269 C272 1.314 . S
N269 C273 1.279 . S
C270 C268 1.348 . S
C270 C272 1.353 1_565 S
C270 H328 0.929 . S
C271 C268 1.356 . S
C271 C273 1.358 1_565 S
C271 H329 0.930 . S
C272 N269 1.314 . S
C272 C270 1.353 1_545 S
C272 H330 0.930 . S
C273 N269 1.279 . S
C273 C271 1.358 1_545 S
C273 H331 0.930 . S
C274 C277 1.348 . S
C274 C278 1.356 . S
C274 O325 1.325 . S
C275 N276 1.279 . S
C275 C278 1.358 . S
C275 H332 0.930 . S
N276 C275 1.279 . S
N276 C279 1.314 . S
C277 C274 1.348 . S
C277 C279 1.353 . S
C277 H333 0.929 . S
C278 C274 1.356 . S
C278 C275 1.358 . S
C278 H334 0.930 . S
C279 N276 1.314 . S
C279 C277 1.353 . S
C279 H335 0.930 . S
C280 N281 1.314 . S
C280 C285 1.353 1_565 S
C280 H286 0.930 . S
N281 Li264 1.990 . S
N281 C280 1.314 . S
N281 C283 1.279 1_565 S
C282 C283 1.358 . S
C282 C284 1.356 . S
C282 H336 0.930 . S
C283 N281 1.279 1_545 S
C283 C282 1.358 . S
C283 H287 0.930 . S
C284 C282 1.356 . S
C284 C285 1.348 . S
C285 C280 1.353 1_545 S
C285 C284 1.348 . S
C285 H337 0.929 . S
H286 C280 0.930 . S
H287 C283 0.930 . S
C288 N289 1.314 . S
C288 C290 1.353 . S
C288 H294 0.930 . S
N289 Li265 1.990 . S
N289 C288 1.314 . S
N289 C292 1.279 . S
C290 C288 1.353 . S
C290 C293 1.348 . S
C290 H338 0.929 . S
C291 C292 1.358 . S
C291 C293 1.356 . S
C291 H339 0.930 . S
C292 N289 1.279 . S
C292 C291 1.358 . S
C292 H295 0.930 . S
C293 C290 1.348 . S
C293 C291 1.356 . S
H294 C288 0.930 . S
H295 C292 0.930 . S
C296 C298 1.348 . S
C296 C299 1.356 . S
C296 O326 1.325 . S
N297 C300 1.314 . S
N297 C301 1.279 . S
C298 C296 1.348 . S
C298 C300 1.353 . S
C298 H340 0.929 . S
C299 C296 1.356 . S
C299 C301 1.358 . S
C299 H341 0.930 . S
C300 N297 1.314 . S
C300 C298 1.353 . S
C300 H342 0.930 . S
C301 N297 1.279 . S
C301 C299 1.358 . S
C301 H343 0.930 . S
C302 C303 1.348 . S
C302 C304 1.356 . S
C302 O327 1.325 . S
C303 C302 1.348 . S
C303 C305 1.353 . S
C303 H344 0.929 . S
C304 C302 1.356 . S
C304 C306 1.358 . S
C304 H345 0.930 . S
C305 C303 1.353 . S
C305 N307 1.314 . S
C305 H346 0.930 . S
C306 C304 1.358 . S
C306 N307 1.279 . S
C306 H347 0.930 . S
N307 C305 1.314 . S
N307 C306 1.279 . S
C308 C310 1.353 . S
C308 N311 1.314 . S
C308 H314 0.930 . S
C309 N311 1.279 . S
C309 C312 1.358 . S
C309 H315 0.930 . S
C310 C308 1.353 . S
C310 C313 1.348 . S
C310 H348 0.929 . S
N311 Li266 1.990 . S
N311 C308 1.314 . S
N311 C309 1.279 . S
C312 C309 1.358 . S
C312 C313 1.356 . S
C312 H349 0.930 . S
C313 C310 1.348 . S
C313 C312 1.356 . S
H314 C308 0.930 . S
H315 C309 0.930 . S
C316 N317 1.314 . S
C316 C318 1.353 . S
C316 H322 0.930 . S
N317 Li267 1.990 . S
N317 C316 1.314 . S
N317 C320 1.279 . S
C318 C316 1.353 . S
C318 C321 1.348 . S
C318 H350 0.929 . S
C319 C320 1.358 . S
C319 C321 1.356 . S
C319 H351 0.930 . S
C320 N317 1.279 . S
C320 C319 1.358 . S
C320 H323 0.930 . S
C321 C318 1.348 . S
C321 C319 1.356 . S
H322 C316 0.930 . S
H323 C320 0.930 . S
O324 Li264 1.956 . S
O324 Li265 1.970 . S
O324 Li266 1.961 . S
O324 C268 1.325 . S
O325 Li264 1.970 . S
O325 Li265 1.956 . S
O325 Li267 1.961 . S
O325 C274 1.325 . S
O326 Li264 1.961 . S
O326 Li266 1.956 . S
O326 Li267 1.970 . S
O326 C296 1.325 . S
O327 Li265 1.961 . S
O327 Li266 1.970 . S
O327 Li267 1.956 . S
O327 C302 1.325 . S
H328 C270 0.929 . S
H329 C271 0.930 . S
H330 C272 0.930 . S
H331 C273 0.930 . S
H332 C275 0.930 . S
H333 C277 0.929 . S
H334 C278 0.930 . S
H335 C279 0.930 . S
H336 C282 0.930 . S
H337 C285 0.929 . S
H338 C290 0.929 . S
H339 C291 0.930 . S
H340 C298 0.929 . S
H341 C299 0.930 . S
H342 C300 0.930 . S
H343 C301 0.930 . S
H344 C303 0.929 . S
H345 C304 0.930 . S
H346 C305 0.930 . S
H347 C306 0.930 . S
H348 C310 0.929 . S
H349 C312 0.930 . S
H350 C318 0.929 . S
H351 C319 0.930 . S
Li352 N369 1.990 . S
Li352 O412 1.956 . S
Li352 O413 1.970 . S
Li352 O414 1.961 . S
Li353 N377 1.990 . S
Li353 O412 1.970 . S
Li353 O413 1.956 . S
Li353 O415 1.961 . S
Li354 N399 1.990 . S
Li354 O412 1.961 . S
Li354 O414 1.956 . S
Li354 O415 1.970 . S
Li355 N405 1.990 . S
Li355 O413 1.961 . S
Li355 O414 1.970 . S
Li355 O415 1.956 . S
C356 C358 1.348 . S
C356 C359 1.356 . S
C356 O412 1.325 . S
N357 C360 1.314 . S
N357 C361 1.279 . S
C358 C356 1.348 . S
C358 C360 1.353 . S
C358 H416 0.929 . S
C359 C356 1.356 . S
C359 C361 1.358 . S
C359 H417 0.930 . S
C360 N357 1.314 . S
C360 C358 1.353 . S
C360 H418 0.930 . S
C361 N357 1.279 . S
C361 C359 1.358 . S
C361 H419 0.930 . S
C362 C365 1.348 . S
C362 C366 1.356 . S
C362 O413 1.325 . S
C363 N364 1.279 . S
C363 C366 1.358 . S
C363 H420 0.930 . S
N364 C363 1.279 . S
N364 C367 1.314 . S
C365 C362 1.348 . S
C365 C367 1.353 . S
C365 H421 0.929 . S
C366 C362 1.356 . S
C366 C363 1.358 . S
C366 H422 0.930 . S
C367 N364 1.314 . S
C367 C365 1.353 . S
C367 H423 0.930 . S
C368 N369 1.314 . S
C368 C373 1.353 . S
C368 H374 0.930 . S
N369 Li352 1.990 . S
N369 C368 1.314 . S
N369 C371 1.279 . S
C370 C371 1.358 . S
C370 C372 1.356 . S
C370 H424 0.930 . S
C371 N369 1.279 . S
C371 C370 1.358 . S
C371 H375 0.930 . S
C372 C370 1.356 . S
C372 C373 1.348 . S
C373 C368 1.353 . S
C373 C372 1.348 . S
C373 H425 0.929 . S
H374 C368 0.930 . S
H375 C371 0.930 . S
C376 N377 1.314 . S
C376 C378 1.353 . S
C376 H382 0.930 . S
N377 Li353 1.990 . S
N377 C376 1.314 . S
N377 C380 1.279 . S
C378 C376 1.353 . S
C378 C381 1.348 . S
C378 H426 0.929 . S
C379 C380 1.358 . S
C379 C381 1.356 . S
C379 H427 0.930 . S
C380 N377 1.279 . S
C380 C379 1.358 . S
C380 H383 0.930 . S
C381 C378 1.348 . S
C381 C379 1.356 . S
H382 C376 0.930 . S
H383 C380 0.930 . S
C384 C386 1.348 . S
C384 C387 1.356 . S
C384 O414 1.325 . S
N385 C388 1.314 . S
N385 C389 1.279 . S
C386 C384 1.348 . S
C386 C388 1.353 . S
C386 H428 0.929 . S
C387 C384 1.356 . S
C387 C389 1.358 . S
C387 H429 0.930 . S
C388 N385 1.314 . S
C388 C386 1.353 . S
C388 H430 0.930 . S
C389 N385 1.279 . S
C389 C387 1.358 . S
C389 H431 0.930 . S
C390 C391 1.348 . S
C390 C392 1.356 . S
C390 O415 1.325 . S
C391 C390 1.348 . S
C391 C393 1.353 . S
C391 H432 0.929 . S
C392 C390 1.356 . S
C392 C394 1.358 . S
C392 H433 0.930 . S
C393 C391 1.353 . S
C393 N395 1.314 . S
C393 H434 0.930 . S
C394 C392 1.358 . S
C394 N395 1.279 . S
C394 H435 0.930 . S
N395 C393 1.314 . S
N395 C394 1.279 . S
C396 C398 1.353 . S
C396 N399 1.314 . S
C396 H402 0.930 . S
C397 N399 1.279 . S
C397 C400 1.358 . S
C397 H403 0.930 . S
C398 C396 1.353 . S
C398 C401 1.348 . S
C398 H436 0.929 . S
N399 Li354 1.990 . S
N399 C396 1.314 . S
N399 C397 1.279 . S
C400 C397 1.358 . S
C400 C401 1.356 . S
C400 H437 0.930 . S
C401 C398 1.348 . S
C401 C400 1.356 . S
H402 C396 0.930 . S
H403 C397 0.930 . S
C404 N405 1.314 . S
C404 C406 1.353 . S
C404 H410 0.930 . S
N405 Li355 1.990 . S
N405 C404 1.314 . S
N405 C408 1.279 . S
C406 C404 1.353 . S
C406 C409 1.348 . S
C406 H438 0.929 . S
C407 C408 1.358 . S
C407 C409 1.356 . S
C407 H439 0.930 . S
C408 N405 1.279 . S
C408 C407 1.358 . S
C408 H411 0.930 . S
C409 C406 1.348 . S
C409 C407 1.356 . S
H410 C404 0.930 . S
H411 C408 0.930 . S
O412 Li352 1.956 . S
O412 Li353 1.970 . S
O412 Li354 1.961 . S
O412 C356 1.325 . S
O413 Li352 1.970 . S
O413 Li353 1.956 . S
O413 Li355 1.961 . S
O413 C362 1.325 . S
O414 Li352 1.961 . S
O414 Li354 1.956 . S
O414 Li355 1.970 . S
O414 C384 1.325 . S
O415 Li353 1.961 . S
O415 Li354 1.970 . S
O415 Li355 1.956 . S
O415 C390 1.325 . S
H416 C358 0.929 . S
H417 C359 0.930 . S
H418 C360 0.930 . S
H419 C361 0.930 . S
H420 C363 0.930 . S
H421 C365 0.929 . S
H422 C366 0.930 . S
H423 C367 0.930 . S
H424 C370 0.930 . S
H425 C373 0.929 . S
H426 C378 0.929 . S
H427 C379 0.930 . S
H428 C386 0.929 . S
H429 C387 0.930 . S
H430 C388 0.930 . S
H431 C389 0.930 . S
H432 C391 0.929 . S
H433 C392 0.930 . S
H434 C393 0.930 . S
H435 C394 0.930 . S
H436 C398 0.929 . S
H437 C400 0.930 . S
H438 C406 0.929 . S
H439 C407 0.930 . S
Li440 N457 1.990 . S
Li440 O500 1.956 . S
Li440 O501 1.970 . S
Li440 O502 1.961 . S
Li441 N465 1.990 . S
Li441 O500 1.970 . S
Li441 O501 1.956 . S
Li441 O503 1.961 . S
Li442 N487 1.990 . S
Li442 O500 1.961 . S
Li442 O502 1.956 . S
Li442 O503 1.970 . S
Li443 N493 1.990 . S
Li443 O501 1.961 . S
Li443 O502 1.970 . S
Li443 O503 1.956 . S
C444 C446 1.348 . S
C444 C447 1.356 . S
C444 O500 1.325 . S
N445 C448 1.314 . S
N445 C449 1.279 . S
C446 C444 1.348 . S
C446 C448 1.353 . S
C446 H504 0.929 . S
C447 C444 1.356 . S
C447 C449 1.358 . S
C447 H505 0.930 . S
C448 N445 1.314 . S
C448 C446 1.353 . S
C448 H506 0.930 . S
C449 N445 1.279 . S
C449 C447 1.358 . S
C449 H507 0.930 . S
C450 C453 1.348 . S
C450 C454 1.356 . S
C450 O501 1.325 . S
C451 N452 1.279 . S
C451 C454 1.358 . S
C451 H508 0.930 . S
N452 C451 1.279 . S
N452 C455 1.314 . S
C453 C450 1.348 . S
C453 C455 1.353 . S
C453 H509 0.929 . S
C454 C450 1.356 . S
C454 C451 1.358 . S
C454 H510 0.930 . S
C455 N452 1.314 . S
C455 C453 1.353 . S
C455 H511 0.930 . S
C456 N457 1.314 . S
C456 C461 1.353 . S
C456 H462 0.930 . S
N457 Li440 1.990 . S
N457 C456 1.314 . S
N457 C459 1.279 . S
C458 C459 1.358 . S
C458 C460 1.356 . S
C458 H512 0.930 . S
C459 N457 1.279 . S
C459 C458 1.358 . S
C459 H463 0.930 . S
C460 C458 1.356 . S
C460 C461 1.348 . S
C461 C456 1.353 . S
C461 C460 1.348 . S
C461 H513 0.929 . S
H462 C456 0.930 . S
H463 C459 0.930 . S
C464 N465 1.314 . S
C464 C466 1.353 . S
C464 H470 0.930 . S
N465 Li441 1.990 . S
N465 C464 1.314 . S
N465 C468 1.279 . S
C466 C464 1.353 . S
C466 C469 1.348 . S
C466 H514 0.929 . S
C467 C468 1.358 . S
C467 C469 1.356 . S
C467 H515 0.930 . S
C468 N465 1.279 . S
C468 C467 1.358 . S
C468 H471 0.930 . S
C469 C466 1.348 . S
C469 C467 1.356 . S
H470 C464 0.930 . S
H471 C468 0.930 . S
C472 C474 1.348 . S
C472 C475 1.356 . S
C472 O502 1.325 . S
N473 C476 1.314 . S
N473 C477 1.279 . S
C474 C472 1.348 . S
C474 C476 1.353 . S
C474 H516 0.929 . S
C475 C472 1.356 . S
C475 C477 1.358 . S
C475 H517 0.930 . S
C476 N473 1.314 . S
C476 C474 1.353 . S
C476 H518 0.930 . S
C477 N473 1.279 . S
C477 C475 1.358 . S
C477 H519 0.930 . S
C478 C479 1.348 . S
C478 C480 1.356 . S
C478 O503 1.325 . S
C479 C478 1.348 . S
C479 C481 1.353 . S
C479 H520 0.929 . S
C480 C478 1.356 . S
C480 C482 1.358 . S
C480 H521 0.930 . S
C481 C479 1.353 . S
C481 N483 1.314 . S
C481 H522 0.930 . S
C482 C480 1.358 . S
C482 N483 1.279 . S
C482 H523 0.930 . S
N483 C481 1.314 . S
N483 C482 1.279 . S
C484 C486 1.353 . S
C484 N487 1.314 . S
C484 H490 0.930 . S
C485 N487 1.279 . S
C485 C488 1.358 . S
C485 H491 0.930 . S
C486 C484 1.353 . S
C486 C489 1.348 . S
C486 H524 0.929 . S
N487 Li442 1.990 . S
N487 C484 1.314 . S
N487 C485 1.279 . S
C488 C485 1.358 . S
C488 C489 1.356 . S
C488 H525 0.930 . S
C489 C486 1.348 . S
C489 C488 1.356 . S
H490 C484 0.930 . S
H491 C485 0.930 . S
C492 N493 1.314 . S
C492 C494 1.353 . S
C492 H498 0.930 . S
N493 Li443 1.990 . S
N493 C492 1.314 . S
N493 C496 1.279 . S
C494 C492 1.353 . S
C494 C497 1.348 . S
C494 H526 0.929 . S
C495 C496 1.358 . S
C495 C497 1.356 . S
C495 H527 0.930 . S
C496 N493 1.279 . S
C496 C495 1.358 . S
C496 H499 0.930 . S
C497 C494 1.348 . S
C497 C495 1.356 . S
H498 C492 0.930 . S
H499 C496 0.930 . S
O500 Li440 1.956 . S
O500 Li441 1.970 . S
O500 Li442 1.961 . S
O500 C444 1.325 . S
O501 Li440 1.970 . S
O501 Li441 1.956 . S
O501 Li443 1.961 . S
O501 C450 1.325 . S
O502 Li440 1.961 . S
O502 Li442 1.956 . S
O502 Li443 1.970 . S
O502 C472 1.325 . S
O503 Li441 1.961 . S
O503 Li442 1.970 . S
O503 Li443 1.956 . S
O503 C478 1.325 . S
H504 C446 0.929 . S
H505 C447 0.930 . S
H506 C448 0.930 . S
H507 C449 0.930 . S
H508 C451 0.930 . S
H509 C453 0.929 . S
H510 C454 0.930 . S
H511 C455 0.930 . S
H512 C458 0.930 . S
H513 C461 0.929 . S
H514 C466 0.929 . S
H515 C467 0.930 . S
H516 C474 0.929 . S
H517 C475 0.930 . S
H518 C476 0.930 . S
H519 C477 0.930 . S
H520 C479 0.929 . S
H521 C480 0.930 . S
H522 C481 0.930 . S
H523 C482 0.930 . S
H524 C486 0.929 . S
H525 C488 0.930 . S
H526 C494 0.929 . S
H527 C495 0.930 . S
Li528 N545 1.990 . S
Li528 O588 1.956 . S
Li528 O589 1.970 . S
Li528 O590 1.961 . S
Li529 N553 1.990 . S
Li529 O588 1.970 . S
Li529 O589 1.956 . S
Li529 O591 1.961 . S
Li530 N575 1.990 . S
Li530 O588 1.961 . S
Li530 O590 1.956 . S
Li530 O591 1.970 . S
Li531 N581 1.990 . S
Li531 O589 1.961 . S
Li531 O590 1.970 . S
Li531 O591 1.956 . S
C532 C534 1.348 . S
C532 C535 1.356 . S
C532 O588 1.325 . S
N533 C536 1.314 . S
N533 C537 1.279 . S
C534 C532 1.348 . S
C534 C536 1.353 . S
C534 H592 0.929 . S
C535 C532 1.356 . S
C535 C537 1.358 . S
C535 H593 0.930 . S
C536 N533 1.314 . S
C536 C534 1.353 . S
C536 H594 0.930 . S
C537 N533 1.279 . S
C537 C535 1.358 . S
C537 H595 0.930 . S
C538 C541 1.348 . S
C538 C542 1.356 . S
C538 O589 1.325 . S
C539 N540 1.279 . S
C539 C542 1.358 . S
C539 H596 0.930 . S
N540 C539 1.279 . S
N540 C543 1.314 . S
C541 C538 1.348 . S
C541 C543 1.353 . S
C541 H597 0.929 . S
C542 C538 1.356 . S
C542 C539 1.358 . S
C542 H598 0.930 . S
C543 N540 1.314 . S
C543 C541 1.353 . S
C543 H599 0.930 . S
C544 N545 1.314 . S
C544 C549 1.353 . S
C544 H550 0.930 . S
N545 Li528 1.990 . S
N545 C544 1.314 . S
N545 C547 1.279 . S
C546 C547 1.358 . S
C546 C548 1.356 . S
C546 H600 0.930 . S
C547 N545 1.279 . S
C547 C546 1.358 . S
C547 H551 0.930 . S
C548 C546 1.356 . S
C548 C549 1.348 . S
C549 C544 1.353 . S
C549 C548 1.348 . S
C549 H601 0.929 . S
H550 C544 0.930 . S
H551 C547 0.930 . S
C552 N553 1.314 . S
C552 C554 1.353 . S
C552 H558 0.930 . S
N553 Li529 1.990 . S
N553 C552 1.314 . S
N553 C556 1.279 . S
C554 C552 1.353 . S
C554 C557 1.348 . S
C554 H602 0.929 . S
C555 C556 1.358 . S
C555 C557 1.356 . S
C555 H603 0.930 . S
C556 N553 1.279 . S
C556 C555 1.358 . S
C556 H559 0.930 . S
C557 C554 1.348 . S
C557 C555 1.356 . S
H558 C552 0.930 . S
H559 C556 0.930 . S
C560 C562 1.348 . S
C560 C563 1.356 . S
C560 O590 1.325 . S
N561 C564 1.314 . S
N561 C565 1.279 . S
C562 C560 1.348 . S
C562 C564 1.353 . S
C562 H604 0.929 . S
C563 C560 1.356 . S
C563 C565 1.358 . S
C563 H605 0.930 . S
C564 N561 1.314 . S
C564 C562 1.353 . S
C564 H606 0.930 . S
C565 N561 1.279 . S
C565 C563 1.358 . S
C565 H607 0.930 . S
C566 C567 1.348 . S
C566 C568 1.356 . S
C566 O591 1.325 . S
C567 C566 1.348 . S
C567 C569 1.353 . S
C567 H608 0.929 . S
C568 C566 1.356 . S
C568 C570 1.358 . S
C568 H609 0.930 . S
C569 C567 1.353 . S
C569 N571 1.314 . S
C569 H610 0.930 . S
C570 C568 1.358 . S
C570 N571 1.279 . S
C570 H611 0.930 . S
N571 C569 1.314 . S
N571 C570 1.279 . S
C572 C574 1.353 . S
C572 N575 1.314 . S
C572 H578 0.930 . S
C573 N575 1.279 . S
C573 C576 1.358 . S
C573 H579 0.930 . S
C574 C572 1.353 . S
C574 C577 1.348 . S
C574 H612 0.929 . S
N575 Li530 1.990 . S
N575 C572 1.314 . S
N575 C573 1.279 . S
C576 C573 1.358 . S
C576 C577 1.356 . S
C576 H613 0.930 . S
C577 C574 1.348 . S
C577 C576 1.356 . S
H578 C572 0.930 . S
H579 C573 0.930 . S
C580 N581 1.314 . S
C580 C582 1.353 . S
C580 H586 0.930 . S
N581 Li531 1.990 . S
N581 C580 1.314 . S
N581 C584 1.279 . S
C582 C580 1.353 . S
C582 C585 1.348 . S
C582 H614 0.929 . S
C583 C584 1.358 . S
C583 C585 1.356 . S
C583 H615 0.930 . S
C584 N581 1.279 . S
C584 C583 1.358 . S
C584 H587 0.930 . S
C585 C582 1.348 . S
C585 C583 1.356 . S
H586 C580 0.930 . S
H587 C584 0.930 . S
O588 Li528 1.956 . S
O588 Li529 1.970 . S
O588 Li530 1.961 . S
O588 C532 1.325 . S
O589 Li528 1.970 . S
O589 Li529 1.956 . S
O589 Li531 1.961 . S
O589 C538 1.325 . S
O590 Li528 1.961 . S
O590 Li530 1.956 . S
O590 Li531 1.970 . S
O590 C560 1.325 . S
O591 Li529 1.961 . S
O591 Li530 1.970 . S
O591 Li531 1.956 . S
O591 C566 1.325 . S
H592 C534 0.929 . S
H593 C535 0.930 . S
H594 C536 0.930 . S
H595 C537 0.930 . S
H596 C539 0.930 . S
H597 C541 0.929 . S
H598 C542 0.930 . S
H599 C543 0.930 . S
H600 C546 0.930 . S
H601 C549 0.929 . S
H602 C554 0.929 . S
H603 C555 0.930 . S
H604 C562 0.929 . S
H605 C563 0.930 . S
H606 C564 0.930 . S
H607 C565 0.930 . S
H608 C567 0.929 . S
H609 C568 0.930 . S
H610 C569 0.930 . S
H611 C570 0.930 . S
H612 C574 0.929 . S
H613 C576 0.930 . S
H614 C582 0.929 . S
H615 C583 0.930 . S
Li616 N633 1.990 . S
Li616 O676 1.956 . S
Li616 O677 1.970 . S
Li616 O678 1.961 . S
Li617 N641 1.990 . S
Li617 O676 1.970 . S
Li617 O677 1.956 . S
Li617 O679 1.961 . S
Li618 N663 1.990 . S
Li618 O676 1.961 . S
Li618 O678 1.956 . S
Li618 O679 1.970 . S
Li619 N669 1.990 . S
Li619 O677 1.961 . S
Li619 O678 1.970 . S
Li619 O679 1.956 . S
C620 C622 1.348 . S
C620 C623 1.356 . S
C620 O676 1.325 . S
N621 C624 1.314 . S
N621 C625 1.279 . S
C622 C620 1.348 . S
C622 C624 1.353 . S
C622 H680 0.929 . S
C623 C620 1.356 . S
C623 C625 1.358 . S
C623 H681 0.930 . S
C624 N621 1.314 . S
C624 C622 1.353 . S
C624 H682 0.930 . S
C625 N621 1.279 . S
C625 C623 1.358 . S
C625 H683 0.930 . S
C626 C629 1.348 . S
C626 C630 1.356 . S
C626 O677 1.325 . S
C627 N628 1.279 . S
C627 C630 1.358 . S
C627 H684 0.930 . S
N628 C627 1.279 . S
N628 C631 1.314 . S
C629 C626 1.348 . S
C629 C631 1.353 . S
C629 H685 0.929 . S
C630 C626 1.356 . S
C630 C627 1.358 . S
C630 H686 0.930 . S
C631 N628 1.314 . S
C631 C629 1.353 . S
C631 H687 0.930 . S
C632 N633 1.314 . S
C632 C637 1.353 . S
C632 H638 0.930 . S
N633 Li616 1.990 . S
N633 C632 1.314 . S
N633 C635 1.279 . S
C634 C635 1.358 . S
C634 C636 1.356 . S
C634 H688 0.930 . S
C635 N633 1.279 . S
C635 C634 1.358 . S
C635 H639 0.930 . S
C636 C634 1.356 . S
C636 C637 1.348 . S
C637 C632 1.353 . S
C637 C636 1.348 . S
C637 H689 0.929 . S
H638 C632 0.930 . S
H639 C635 0.930 . S
C640 N641 1.314 . S
C640 C642 1.353 . S
C640 H646 0.930 . S
N641 Li617 1.990 . S
N641 C640 1.314 . S
N641 C644 1.279 . S
C642 C640 1.353 . S
C642 C645 1.348 . S
C642 H690 0.929 . S
C643 C644 1.358 . S
C643 C645 1.356 . S
C643 H691 0.930 . S
C644 N641 1.279 . S
C644 C643 1.358 . S
C644 H647 0.930 . S
C645 C642 1.348 . S
C645 C643 1.356 . S
H646 C640 0.930 . S
H647 C644 0.930 . S
C648 C650 1.348 . S
C648 C651 1.356 . S
C648 O678 1.325 . S
N649 C652 1.314 . S
N649 C653 1.279 . S
C650 C648 1.348 . S
C650 C652 1.353 . S
C650 H692 0.929 . S
C651 C648 1.356 . S
C651 C653 1.358 . S
C651 H693 0.930 . S
C652 N649 1.314 . S
C652 C650 1.353 . S
C652 H694 0.930 . S
C653 N649 1.279 . S
C653 C651 1.358 . S
C653 H695 0.930 . S
C654 C655 1.348 . S
C654 C656 1.356 . S
C654 O679 1.325 . S
C655 C654 1.348 . S
C655 C657 1.353 . S
C655 H696 0.929 . S
C656 C654 1.356 . S
C656 C658 1.358 . S
C656 H697 0.930 . S
C657 C655 1.353 . S
C657 N659 1.314 . S
C657 H698 0.930 . S
C658 C656 1.358 . S
C658 N659 1.279 . S
C658 H699 0.930 . S
N659 C657 1.314 . S
N659 C658 1.279 . S
C660 C662 1.353 . S
C660 N663 1.314 . S
C660 H666 0.930 . S
C661 N663 1.279 . S
C661 C664 1.358 . S
C661 H667 0.930 . S
C662 C660 1.353 . S
C662 C665 1.348 . S
C662 H700 0.929 . S
N663 Li618 1.990 . S
N663 C660 1.314 . S
N663 C661 1.279 . S
C664 C661 1.358 . S
C664 C665 1.356 . S
C664 H701 0.930 . S
C665 C662 1.348 . S
C665 C664 1.356 . S
H666 C660 0.930 . S
H667 C661 0.930 . S
C668 N669 1.314 . S
C668 C670 1.353 . S
C668 H674 0.930 . S
N669 Li619 1.990 . S
N669 C668 1.314 . S
N669 C672 1.279 . S
C670 C668 1.353 . S
C670 C673 1.348 . S
C670 H702 0.929 . S
C671 C672 1.358 . S
C671 C673 1.356 . S
C671 H703 0.930 . S
C672 N669 1.279 . S
C672 C671 1.358 . S
C672 H675 0.930 . S
C673 C670 1.348 . S
C673 C671 1.356 . S
H674 C668 0.930 . S
H675 C672 0.930 . S
O676 Li616 1.956 . S
O676 Li617 1.970 . S
O676 Li618 1.961 . S
O676 C620 1.325 . S
O677 Li616 1.970 . S
O677 Li617 1.956 . S
O677 Li619 1.961 . S
O677 C626 1.325 . S
O678 Li616 1.961 . S
O678 Li618 1.956 . S
O678 Li619 1.970 . S
O678 C648 1.325 . S
O679 Li617 1.961 . S
O679 Li618 1.970 . S
O679 Li619 1.956 . S
O679 C654 1.325 . S
H680 C622 0.929 . S
H681 C623 0.930 . S
H682 C624 0.930 . S
H683 C625 0.930 . S
H684 C627 0.930 . S
H685 C629 0.929 . S
H686 C630 0.930 . S
H687 C631 0.930 . S
H688 C634 0.930 . S
H689 C637 0.929 . S
H690 C642 0.929 . S
H691 C643 0.930 . S
H692 C650 0.929 . S
H693 C651 0.930 . S
H694 C652 0.930 . S
H695 C653 0.930 . S
H696 C655 0.929 . S
H697 C656 0.930 . S
H698 C657 0.930 . S
H699 C658 0.930 . S
H700 C662 0.929 . S
H701 C664 0.930 . S
H702 C670 0.929 . S
H703 C671 0.930 . S
Li704 N721 1.990 . S
Li704 O764 1.956 . S
Li704 O765 1.970 . S
Li704 O766 1.961 . S
Li705 N729 1.990 . S
Li705 O764 1.970 . S
Li705 O765 1.956 . S
Li705 O767 1.961 . S
Li706 N751 1.990 . S
Li706 O764 1.961 . S
Li706 O766 1.956 . S
Li706 O767 1.970 . S
Li707 N757 1.990 . S
Li707 O765 1.961 . S
Li707 O766 1.970 . S
Li707 O767 1.956 . S
C708 C710 1.348 . S
C708 C711 1.356 . S
C708 O764 1.325 . S
N709 C712 1.314 . S
N709 C713 1.279 . S
C710 C708 1.348 . S
C710 C712 1.353 . S
C710 H768 0.929 . S
C711 C708 1.356 . S
C711 C713 1.358 . S
C711 H769 0.930 . S
C712 N709 1.314 . S
C712 C710 1.353 . S
C712 H770 0.930 . S
C713 N709 1.279 . S
C713 C711 1.358 . S
C713 H771 0.930 . S
C714 C717 1.348 . S
C714 C718 1.359 . S
C714 O765 1.325 . S
C715 N716 1.279 . S
C715 C718 1.355 1_565 S
C715 H772 0.930 . S
N716 C715 1.279 . S
N716 C719 1.314 . S
C717 C714 1.348 . S
C717 C719 1.353 1_545 S
C717 H773 0.929 . S
C718 C714 1.359 . S
C718 C715 1.355 1_545 S
C718 H774 0.930 . S
C719 N716 1.314 . S
C719 C717 1.353 1_565 S
C719 H775 0.930 . S
C720 N721 1.314 . S
C720 C725 1.353 . S
C720 H726 0.930 . S
N721 Li704 1.990 . S
N721 C720 1.314 . S
N721 C723 1.279 . S
C722 C723 1.358 . S
C722 C724 1.356 . S
C722 H776 0.930 . S
C723 N721 1.279 . S
C723 C722 1.358 . S
C723 H727 0.930 . S
C724 C722 1.356 . S
C724 C725 1.348 . S
C725 C720 1.353 . S
C725 C724 1.348 . S
C725 H777 0.929 . S
H726 C720 0.930 . S
H727 C723 0.930 . S
C728 N729 1.314 . S
C728 C730 1.353 . S
C728 H734 0.930 . S
N729 Li705 1.990 . S
N729 C728 1.314 . S
N729 C732 1.279 . S
C730 C728 1.353 . S
C730 C733 1.348 . S
C730 H778 0.929 . S
C731 C732 1.358 . S
C731 C733 1.356 . S
C731 H779 0.930 . S
C732 N729 1.279 . S
C732 C731 1.358 . S
C732 H735 0.930 . S
C733 C730 1.348 . S
C733 C731 1.356 . S
H734 C728 0.930 . S
H735 C732 0.930 . S
C736 C738 1.348 . S
C736 C739 1.356 . S
C736 O766 1.325 . S
N737 C740 1.314 . S
N737 C741 1.279 . S
C738 C736 1.348 . S
C738 C740 1.353 . S
C738 H780 0.929 . S
C739 C736 1.356 . S
C739 C741 1.358 . S
C739 H781 0.930 . S
C740 N737 1.314 . S
C740 C738 1.353 . S
C740 H782 0.930 . S
C741 N737 1.279 . S
C741 C739 1.358 . S
C741 H783 0.930 . S
C742 C743 1.348 . S
C742 C744 1.356 . S
C742 O767 1.325 . S
C743 C742 1.348 . S
C743 C745 1.353 . S
C743 H784 0.929 . S
C744 C742 1.356 . S
C744 C746 1.358 . S
C744 H785 0.930 . S
C745 C743 1.353 . S
C745 N747 1.314 . S
C745 H786 0.930 . S
C746 C744 1.358 . S
C746 N747 1.279 . S
C746 H787 0.930 . S
N747 C745 1.314 . S
N747 C746 1.279 . S
C748 C750 1.353 . S
C748 N751 1.314 . S
C748 H754 0.930 . S
C749 N751 1.279 . S
C749 C752 1.358 . S
C749 H755 0.930 . S
C750 C748 1.353 . S
C750 C753 1.348 . S
C750 H788 0.929 . S
N751 Li706 1.990 . S
N751 C748 1.314 . S
N751 C749 1.279 . S
C752 C749 1.358 . S
C752 C753 1.356 . S
C752 H789 0.930 . S
C753 C750 1.348 . S
C753 C752 1.356 . S
H754 C748 0.930 . S
H755 C749 0.930 . S
C756 N757 1.314 1_565 S
C756 C758 1.353 . S
C756 H762 0.930 . S
N757 Li707 1.990 . S
N757 C756 1.314 1_545 S
N757 C760 1.279 . S
C758 C756 1.353 . S
C758 C761 1.348 . S
C758 H790 0.929 . S
C759 C760 1.358 1_565 S
C759 C761 1.356 . S
C759 H791 0.930 . S
C760 N757 1.279 . S
C760 C759 1.358 1_545 S
C760 H763 0.930 . S
C761 C758 1.348 . S
C761 C759 1.356 . S
H762 C756 0.930 . S
H763 C760 0.930 . S
O764 Li704 1.956 . S
O764 Li705 1.970 . S
O764 Li706 1.961 . S
O764 C708 1.325 . S
O765 Li704 1.970 . S
O765 Li705 1.956 . S
O765 Li707 1.961 . S
O765 C714 1.325 . S
O766 Li704 1.961 . S
O766 Li706 1.956 . S
O766 Li707 1.970 . S
O766 C736 1.325 . S
O767 Li705 1.961 . S
O767 Li706 1.970 . S
O767 Li707 1.956 . S
O767 C742 1.325 . S
H768 C710 0.929 . S
H769 C711 0.930 . S
H770 C712 0.930 . S
H771 C713 0.930 . S
H772 C715 0.930 . S
H773 C717 0.929 . S
H774 C718 0.930 . S
H775 C719 0.930 . S
H776 C722 0.930 . S
H777 C725 0.929 . S
H778 C730 0.929 . S
H779 C731 0.930 . S
H780 C738 0.929 . S
H781 C739 0.930 . S
H782 C740 0.930 . S
H783 C741 0.930 . S
H784 C743 0.929 . S
H785 C744 0.930 . S
H786 C745 0.930 . S
H787 C746 0.930 . S
H788 C750 0.929 . S
H789 C752 0.930 . S
H790 C758 0.929 . S
H791 C759 0.930 . S
Li792 N809 1.990 . S
Li792 O852 1.956 . S
Li792 O853 1.970 . S
Li792 O854 1.961 . S
Li793 N817 1.990 . S
Li793 O852 1.970 . S
Li793 O853 1.956 . S
Li793 O855 1.961 . S
Li794 N839 1.990 . S
Li794 O852 1.961 . S
Li794 O854 1.956 . S
Li794 O855 1.970 . S
Li795 N845 1.990 . S
Li795 O853 1.961 . S
Li795 O854 1.970 . S
Li795 O855 1.956 . S
C796 C798 1.348 . S
C796 C799 1.356 . S
C796 O852 1.325 . S
N797 C800 1.314 . S
N797 C801 1.279 . S
C798 C796 1.348 . S
C798 C800 1.353 . S
C798 H856 0.929 . S
C799 C796 1.356 . S
C799 C801 1.358 . S
C799 H857 0.930 . S
C800 N797 1.314 . S
C800 C798 1.353 . S
C800 H858 0.930 . S
C801 N797 1.279 . S
C801 C799 1.358 . S
C801 H859 0.930 . S
C802 C805 1.348 . S
C802 C806 1.356 . S
C802 O853 1.325 . S
C803 N804 1.279 . S
C803 C806 1.358 . S
C803 H860 0.930 . S
N804 C803 1.279 . S
N804 C807 1.314 . S
C805 C802 1.348 . S
C805 C807 1.353 . S
C805 H861 0.929 . S
C806 C802 1.356 . S
C806 C803 1.358 . S
C806 H862 0.930 . S
C807 N804 1.314 . S
C807 C805 1.353 . S
C807 H863 0.930 . S
C808 N809 1.314 . S
C808 C813 1.353 . S
C808 H814 0.930 . S
N809 Li792 1.990 . S
N809 C808 1.314 . S
N809 C811 1.279 . S
C810 C811 1.358 . S
C810 C812 1.356 . S
C810 H864 0.930 . S
C811 N809 1.279 . S
C811 C810 1.358 . S
C811 H815 0.930 . S
C812 C810 1.356 . S
C812 C813 1.348 . S
C813 C808 1.353 . S
C813 C812 1.348 . S
C813 H865 0.929 . S
H814 C808 0.930 . S
H815 C811 0.930 . S
C816 N817 1.314 1_565 S
C816 C818 1.353 . S
C816 H822 0.930 . S
N817 Li793 1.990 . S
N817 C816 1.314 1_545 S
N817 C820 1.279 . S
C818 C816 1.353 . S
C818 C821 1.348 . S
C818 H866 0.929 . S
C819 C820 1.358 1_565 S
C819 C821 1.356 . S
C819 H867 0.930 . S
C820 N817 1.279 . S
C820 C819 1.358 1_545 S
C820 H823 0.930 . S
C821 C818 1.348 . S
C821 C819 1.356 . S
H822 C816 0.930 . S
H823 C820 0.930 . S
C824 C826 1.348 . S
C824 C827 1.356 . S
C824 O854 1.325 . S
N825 C828 1.314 . S
N825 C829 1.279 . S
C826 C824 1.348 . S
C826 C828 1.353 . S
C826 H868 0.929 . S
C827 C824 1.356 . S
C827 C829 1.358 . S
C827 H869 0.930 . S
C828 N825 1.314 . S
C828 C826 1.353 . S
C828 H870 0.930 . S
C829 N825 1.279 . S
C829 C827 1.358 . S
C829 H871 0.930 . S
C830 C831 1.348 . S
C830 C832 1.359 . S
C830 O855 1.325 . S
C831 C830 1.348 . S
C831 C833 1.353 1_545 S
C831 H872 0.929 . S
C832 C830 1.359 . S
C832 C834 1.355 1_545 S
C832 H873 0.930 . S
C833 C831 1.353 1_565 S
C833 N835 1.314 . S
C833 H874 0.930 . S
C834 C832 1.355 1_565 S
C834 N835 1.279 . S
C834 H875 0.930 . S
N835 C833 1.314 . S
N835 C834 1.279 . S
C836 C838 1.353 . S
C836 N839 1.314 . S
C836 H842 0.930 . S
C837 N839 1.279 . S
C837 C840 1.358 . S
C837 H843 0.930 . S
C838 C836 1.353 . S
C838 C841 1.348 . S
C838 H876 0.929 . S
N839 Li794 1.990 . S
N839 C836 1.314 . S
N839 C837 1.279 . S
C840 C837 1.358 . S
C840 C841 1.356 . S
C840 H877 0.930 . S
C841 C838 1.348 . S
C841 C840 1.356 . S
H842 C836 0.930 . S
H843 C837 0.930 . S
C844 N845 1.314 . S
C844 C846 1.353 . S
C844 H850 0.930 . S
N845 Li795 1.990 . S
N845 C844 1.314 . S
N845 C848 1.279 . S
C846 C844 1.353 . S
C846 C849 1.348 . S
C846 H878 0.929 . S
C847 C848 1.358 . S
C847 C849 1.356 . S
C847 H879 0.930 . S
C848 N845 1.279 . S
C848 C847 1.358 . S
C848 H851 0.930 . S
C849 C846 1.348 . S
C849 C847 1.356 . S
H850 C844 0.930 . S
H851 C848 0.930 . S
O852 Li792 1.956 . S
O852 Li793 1.970 . S
O852 Li794 1.961 . S
O852 C796 1.325 . S
O853 Li792 1.970 . S
O853 Li793 1.956 . S
O853 Li795 1.961 . S
O853 C802 1.325 . S
O854 Li792 1.961 . S
O854 Li794 1.956 . S
O854 Li795 1.970 . S
O854 C824 1.325 . S
O855 Li793 1.961 . S
O855 Li794 1.970 . S
O855 Li795 1.956 . S
O855 C830 1.325 . S
H856 C798 0.929 . S
H857 C799 0.930 . S
H858 C800 0.930 . S
H859 C801 0.930 . S
H860 C803 0.930 . S
H861 C805 0.929 . S
H862 C806 0.930 . S
H863 C807 0.930 . S
H864 C810 0.930 . S
H865 C813 0.929 . S
H866 C818 0.929 . S
H867 C819 0.930 . S
H868 C826 0.929 . S
H869 C827 0.930 . S
H870 C828 0.930 . S
H871 C829 0.930 . S
H872 C831 0.929 . S
H873 C832 0.930 . S
H874 C833 0.930 . S
H875 C834 0.930 . S
H876 C838 0.929 . S
H877 C840 0.930 . S
H878 C846 0.929 . S
H879 C847 0.930 . S
Li880 N897 1.990 . S
Li880 O940 1.956 . S
Li880 O941 1.970 . S
Li880 O942 1.961 . S
Li881 N905 1.990 . S
Li881 O940 1.970 . S
Li881 O941 1.956 . S
Li881 O943 1.961 . S
Li882 N927 1.990 . S
Li882 O940 1.961 . S
Li882 O942 1.956 . S
Li882 O943 1.970 . S
Li883 N933 1.990 . S
Li883 O941 1.961 . S
Li883 O942 1.970 . S
Li883 O943 1.956 . S
C884 C886 1.348 . S
C884 C887 1.356 . S
C884 O940 1.325 . S
N885 C888 1.314 . S
N885 C889 1.279 . S
C886 C884 1.348 . S
C886 C888 1.353 . S
C886 H944 0.929 . S
C887 C884 1.356 . S
C887 C889 1.358 . S
C887 H945 0.930 . S
C888 N885 1.314 . S
C888 C886 1.353 . S
C888 H946 0.930 . S
C889 N885 1.279 . S
C889 C887 1.358 . S
C889 H947 0.930 . S
C890 C893 1.348 . S
C890 C894 1.356 . S
C890 O941 1.325 . S
C891 N892 1.279 . S
C891 C894 1.358 . S
C891 H948 0.930 . S
N892 C891 1.279 . S
N892 C895 1.314 . S
C893 C890 1.348 . S
C893 C895 1.353 . S
C893 H949 0.929 . S
C894 C890 1.356 . S
C894 C891 1.358 . S
C894 H950 0.930 . S
C895 N892 1.314 . S
C895 C893 1.353 . S
C895 H951 0.930 . S
C896 N897 1.314 . S
C896 C901 1.353 . S
C896 H902 0.930 . S
N897 Li880 1.990 . S
N897 C896 1.314 . S
N897 C899 1.279 . S
C898 C899 1.358 . S
C898 C900 1.356 . S
C898 H952 0.930 . S
C899 N897 1.279 . S
C899 C898 1.358 . S
C899 H903 0.930 . S
C900 C898 1.356 . S
C900 C901 1.348 . S
C901 C896 1.353 . S
C901 C900 1.348 . S
C901 H953 0.929 . S
H902 C896 0.930 . S
H903 C899 0.930 . S
C904 N905 1.314 . S
C904 C906 1.353 . S
C904 H910 0.930 . S
N905 Li881 1.990 . S
N905 C904 1.314 . S
N905 C908 1.279 . S
C906 C904 1.353 . S
C906 C909 1.348 . S
C906 H954 0.929 . S
C907 C908 1.358 . S
C907 C909 1.356 . S
C907 H955 0.930 . S
C908 N905 1.279 . S
C908 C907 1.358 . S
C908 H911 0.930 . S
C909 C906 1.348 . S
C909 C907 1.356 . S
H910 C904 0.930 . S
H911 C908 0.930 . S
C912 C914 1.348 . S
C912 C915 1.356 . S
C912 O942 1.325 . S
N913 C916 1.314 . S
N913 C917 1.279 . S
C914 C912 1.348 . S
C914 C916 1.353 1_565 S
C914 H956 0.929 . S
C915 C912 1.356 . S
C915 C917 1.358 1_565 S
C915 H957 0.930 . S
C916 N913 1.314 . S
C916 C914 1.353 1_545 S
C916 H958 0.930 . S
C917 N913 1.279 . S
C917 C915 1.358 1_545 S
C917 H959 0.930 . S
C918 C919 1.348 . S
C918 C920 1.356 . S
C918 O943 1.325 . S
C919 C918 1.348 . S
C919 C921 1.353 . S
C919 H960 0.929 . S
C920 C918 1.356 . S
C920 C922 1.358 . S
C920 H961 0.930 . S
C921 C919 1.353 . S
C921 N923 1.314 . S
C921 H962 0.930 . S
C922 C920 1.358 . S
C922 N923 1.279 . S
C922 H963 0.930 . S
N923 C921 1.314 . S
N923 C922 1.279 . S
C924 C926 1.353 1_565 S
C924 N927 1.314 . S
C924 H930 0.930 . S
C925 N927 1.279 1_545 S
C925 C928 1.358 . S
C925 H931 0.930 . S
C926 C924 1.353 1_545 S
C926 C929 1.348 . S
C926 H964 0.929 . S
N927 Li882 1.990 . S
N927 C924 1.314 . S
N927 C925 1.279 1_565 S
C928 C925 1.358 . S
C928 C929 1.356 . S
C928 H965 0.930 . S
C929 C926 1.348 . S
C929 C928 1.356 . S
H930 C924 0.930 . S
H931 C925 0.930 . S
C932 N933 1.314 . S
C932 C934 1.353 . S
C932 H938 0.930 . S
N933 Li883 1.990 . S
N933 C932 1.314 . S
N933 C936 1.279 . S
C934 C932 1.353 . S
C934 C937 1.348 . S
C934 H966 0.929 . S
C935 C936 1.358 . S
C935 C937 1.356 . S
C935 H967 0.930 . S
C936 N933 1.279 . S
C936 C935 1.358 . S
C936 H939 0.930 . S
C937 C934 1.348 . S
C937 C935 1.356 . S
H938 C932 0.930 . S
H939 C936 0.930 . S
O940 Li880 1.956 . S
O940 Li881 1.970 . S
O940 Li882 1.961 . S
O940 C884 1.325 . S
O941 Li880 1.970 . S
O941 Li881 1.956 . S
O941 Li883 1.961 . S
O941 C890 1.325 . S
O942 Li880 1.961 . S
O942 Li882 1.956 . S
O942 Li883 1.970 . S
O942 C912 1.325 . S
O943 Li881 1.961 . S
O943 Li882 1.970 . S
O943 Li883 1.956 . S
O943 C918 1.325 . S
H944 C886 0.929 . S
H945 C887 0.930 . S
H946 C888 0.930 . S
H947 C889 0.930 . S
H948 C891 0.930 . S
H949 C893 0.929 . S
H950 C894 0.930 . S
H951 C895 0.930 . S
H952 C898 0.930 . S
H953 C901 0.929 . S
H954 C906 0.929 . S
H955 C907 0.930 . S
H956 C914 0.929 . S
H957 C915 0.930 . S
H958 C916 0.930 . S
H959 C917 0.930 . S
H960 C919 0.929 . S
H961 C920 0.930 . S
H962 C921 0.930 . S
H963 C922 0.930 . S
H964 C926 0.929 . S
H965 C928 0.930 . S
H966 C934 0.929 . S
H967 C935 0.930 . S
Li968 N985 1.990 . S
Li968 O1028 1.956 . S
Li968 O1029 1.970 . S
Li968 O1030 1.961 . S
Li969 N993 1.990 . S
Li969 O1028 1.970 . S
Li969 O1029 1.956 . S
Li969 O1031 1.961 . S
Li970 N1015 1.990 . S
Li970 O1028 1.961 . S
Li970 O1030 1.956 . S
Li970 O1031 1.970 . S
Li971 N1021 1.990 . S
Li971 O1029 1.961 . S
Li971 O1030 1.970 . S
Li971 O1031 1.956 . S
C972 C974 1.348 . S
C972 C975 1.356 . S
C972 O1028 1.325 . S
N973 C976 1.314 . S
N973 C977 1.279 . S
C974 C972 1.348 . S
C974 C976 1.353 1_565 S
C974 H1032 0.929 . S
C975 C972 1.356 . S
C975 C977 1.358 1_565 S
C975 H1033 0.930 . S
C976 N973 1.314 . S
C976 C974 1.353 1_545 S
C976 H1034 0.930 . S
C977 N973 1.279 . S
C977 C975 1.358 1_545 S
C977 H1035 0.930 . S
C978 C981 1.348 . S
C978 C982 1.356 . S
C978 O1029 1.325 . S
C979 N980 1.279 . S
C979 C982 1.358 . S
C979 H1036 0.930 . S
N980 C979 1.279 . S
N980 C983 1.314 . S
C981 C978 1.348 . S
C981 C983 1.353 . S
C981 H1037 0.929 . S
C982 C978 1.356 . S
C982 C979 1.358 . S
C982 H1038 0.930 . S
C983 N980 1.314 . S
C983 C981 1.353 . S
C983 H1039 0.930 . S
C984 N985 1.314 . S
C984 C989 1.353 1_565 S
C984 H990 0.930 . S
N985 Li968 1.990 . S
N985 C984 1.314 . S
N985 C987 1.279 1_565 S
C986 C987 1.358 . S
C986 C988 1.356 . S
C986 H1040 0.930 . S
C987 N985 1.279 1_545 S
C987 C986 1.358 . S
C987 H991 0.930 . S
C988 C986 1.356 . S
C988 C989 1.348 . S
C989 C984 1.353 1_545 S
C989 C988 1.348 . S
C989 H1041 0.929 . S
H990 C984 0.930 . S
H991 C987 0.930 . S
C992 N993 1.314 . S
C992 C994 1.353 . S
C992 H998 0.930 . S
N993 Li969 1.990 . S
N993 C992 1.314 . S
N993 C996 1.279 . S
C994 C992 1.353 . S
C994 C997 1.348 . S
C994 H1042 0.929 . S
C995 C996 1.358 . S
C995 C997 1.356 . S
C995 H1043 0.930 . S
C996 N993 1.279 . S
C996 C995 1.358 . S
C996 H999 0.930 . S
C997 C994 1.348 . S
C997 C995 1.356 . S
H998 C992 0.930 . S
H999 C996 0.930 . S
C1000 C1002 1.348 . S
C1000 C1003 1.356 . S
C1000 O1030 1.325 . S
N1001 C1004 1.314 . S
N1001 C1005 1.279 . S
C1002 C1000 1.348 . S
C1002 C1004 1.353 . S
C1002 H1044 0.929 . S
C1003 C1000 1.356 . S
C1003 C1005 1.358 . S
C1003 H1045 0.930 . S
C1004 N1001 1.314 . S
C1004 C1002 1.353 . S
C1004 H1046 0.930 . S
C1005 N1001 1.279 . S
C1005 C1003 1.358 . S
C1005 H1047 0.930 . S
C1006 C1007 1.348 . S
C1006 C1008 1.356 . S
C1006 O1031 1.325 . S
C1007 C1006 1.348 . S
C1007 C1009 1.353 . S
C1007 H1048 0.929 . S
C1008 C1006 1.356 . S
C1008 C1010 1.358 . S
C1008 H1049 0.930 . S
C1009 C1007 1.353 . S
C1009 N1011 1.314 . S
C1009 H1050 0.930 . S
C1010 C1008 1.358 . S
C1010 N1011 1.279 . S
C1010 H1051 0.930 . S
N1011 C1009 1.314 . S
N1011 C1010 1.279 . S
C1012 C1014 1.353 . S
C1012 N1015 1.314 . S
C1012 H1018 0.930 . S
C1013 N1015 1.279 . S
C1013 C1016 1.358 . S
C1013 H1019 0.930 . S
C1014 C1012 1.353 . S
C1014 C1017 1.348 . S
C1014 H1052 0.929 . S
N1015 Li970 1.990 . S
N1015 C1012 1.314 . S
N1015 C1013 1.279 . S
C1016 C1013 1.358 . S
C1016 C1017 1.356 . S
C1016 H1053 0.930 . S
C1017 C1014 1.348 . S
C1017 C1016 1.356 . S
H1018 C1012 0.930 . S
H1019 C1013 0.930 . S
C1020 N1021 1.314 . S
C1020 C1022 1.353 . S
C1020 H1026 0.930 . S
N1021 Li971 1.990 . S
N1021 C1020 1.314 . S
N1021 C1024 1.279 . S
C1022 C1020 1.353 . S
C1022 C1025 1.348 . S
C1022 H1054 0.929 . S
C1023 C1024 1.358 . S
C1023 C1025 1.356 . S
C1023 H1055 0.930 . S
C1024 N1021 1.279 . S
C1024 C1023 1.358 . S
C1024 H1027 0.930 . S
C1025 C1022 1.348 . S
C1025 C1023 1.356 . S
H1026 C1020 0.930 . S
H1027 C1024 0.930 . S
O1028 Li968 1.956 . S
O1028 Li969 1.970 . S
O1028 Li970 1.961 . S
O1028 C972 1.325 . S
O1029 Li968 1.970 . S
O1029 Li969 1.956 . S
O1029 Li971 1.961 . S
O1029 C978 1.325 . S
O1030 Li968 1.961 . S
O1030 Li970 1.956 . S
O1030 Li971 1.970 . S
O1030 C1000 1.325 . S
O1031 Li969 1.961 . S
O1031 Li970 1.970 . S
O1031 Li971 1.956 . S
O1031 C1006 1.325 . S
H1032 C974 0.929 . S
H1033 C975 0.930 . S
H1034 C976 0.930 . S
H1035 C977 0.930 . S
H1036 C979 0.930 . S
H1037 C981 0.929 . S
H1038 C982 0.930 . S
H1039 C983 0.930 . S
H1040 C986 0.930 . S
H1041 C989 0.929 . S
H1042 C994 0.929 . S
H1043 C995 0.930 . S
H1044 C1002 0.929 . S
H1045 C1003 0.930 . S
H1046 C1004 0.930 . S
H1047 C1005 0.930 . S
H1048 C1007 0.929 . S
H1049 C1008 0.930 . S
H1050 C1009 0.930 . S
H1051 C1010 0.930 . S
H1052 C1014 0.929 . S
H1053 C1016 0.930 . S
H1054 C1022 0.929 . S
H1055 C1023 0.930 . S
Li1056 N1073 1.990 . S
Li1056 O1116 1.956 . S
Li1056 O1117 1.970 . S
Li1056 O1118 1.961 . S
Li1057 N1081 1.990 . S
Li1057 O1116 1.970 . S
Li1057 O1117 1.956 . S
Li1057 O1119 1.961 . S
Li1058 N1103 1.990 . S
Li1058 O1116 1.961 . S
Li1058 O1118 1.956 . S
Li1058 O1119 1.970 . S
Li1059 N1109 1.990 . S
Li1059 O1117 1.961 . S
Li1059 O1118 1.970 . S
Li1059 O1119 1.956 . S
C1060 C1062 1.348 . S
C1060 C1063 1.356 . S
C1060 O1116 1.325 . S
N1061 C1064 1.314 . S
N1061 C1065 1.279 . S
C1062 C1060 1.348 . S
C1062 C1064 1.353 . S
C1062 H1120 0.929 . S
C1063 C1060 1.356 . S
C1063 C1065 1.358 . S
C1063 H1121 0.930 . S
C1064 N1061 1.314 . S
C1064 C1062 1.353 . S
C1064 H1122 0.930 . S
C1065 N1061 1.279 . S
C1065 C1063 1.358 . S
C1065 H1123 0.930 . S
C1066 C1069 1.348 . S
C1066 C1070 1.356 . S
C1066 O1117 1.325 . S
C1067 N1068 1.279 . S
C1067 C1070 1.358 . S
C1067 H1124 0.930 . S
N1068 C1067 1.279 . S
N1068 C1071 1.314 . S
C1069 C1066 1.348 . S
C1069 C1071 1.353 . S
C1069 H1125 0.929 . S
C1070 C1066 1.356 . S
C1070 C1067 1.358 . S
C1070 H1126 0.930 . S
C1071 N1068 1.314 . S
C1071 C1069 1.353 . S
C1071 H1127 0.930 . S
C1072 N1073 1.314 . S
C1072 C1077 1.353 . S
C1072 H1078 0.930 . S
N1073 Li1056 1.990 . S
N1073 C1072 1.314 . S
N1073 C1075 1.279 . S
C1074 C1075 1.358 . S
C1074 C1076 1.356 . S
C1074 H1128 0.930 . S
C1075 N1073 1.279 . S
C1075 C1074 1.358 . S
C1075 H1079 0.930 . S
C1076 C1074 1.356 . S
C1076 C1077 1.348 . S
C1077 C1072 1.353 . S
C1077 C1076 1.348 . S
C1077 H1129 0.929 . S
H1078 C1072 0.930 . S
H1079 C1075 0.930 . S
C1080 N1081 1.314 . S
C1080 C1082 1.353 . S
C1080 H1086 0.930 . S
N1081 Li1057 1.990 . S
N1081 C1080 1.314 . S
N1081 C1084 1.279 . S
C1082 C1080 1.353 . S
C1082 C1085 1.348 . S
C1082 H1130 0.929 . S
C1083 C1084 1.358 . S
C1083 C1085 1.356 . S
C1083 H1131 0.930 . S
C1084 N1081 1.279 . S
C1084 C1083 1.358 . S
C1084 H1087 0.930 . S
C1085 C1082 1.348 . S
C1085 C1083 1.356 . S
H1086 C1080 0.930 . S
H1087 C1084 0.930 . S
C1088 C1090 1.348 . S
C1088 C1091 1.356 . S
C1088 O1118 1.325 . S
N1089 C1092 1.314 . S
N1089 C1093 1.279 . S
C1090 C1088 1.348 . S
C1090 C1092 1.353 . S
C1090 H1132 0.929 . S
C1091 C1088 1.356 . S
C1091 C1093 1.358 . S
C1091 H1133 0.930 . S
C1092 N1089 1.314 . S
C1092 C1090 1.353 . S
C1092 H1134 0.930 . S
C1093 N1089 1.279 . S
C1093 C1091 1.358 . S
C1093 H1135 0.930 . S
C1094 C1095 1.348 . S
C1094 C1096 1.356 . S
C1094 O1119 1.325 . S
C1095 C1094 1.348 . S
C1095 C1097 1.353 . S
C1095 H1136 0.929 . S
C1096 C1094 1.356 . S
C1096 C1098 1.358 . S
C1096 H1137 0.930 . S
C1097 C1095 1.353 . S
C1097 N1099 1.314 . S
C1097 H1138 0.930 . S
C1098 C1096 1.358 . S
C1098 N1099 1.279 . S
C1098 H1139 0.930 . S
N1099 C1097 1.314 . S
N1099 C1098 1.279 . S
C1100 C1102 1.353 . S
C1100 N1103 1.314 . S
C1100 H1106 0.930 . S
C1101 N1103 1.279 . S
C1101 C1104 1.358 . S
C1101 H1107 0.930 . S
C1102 C1100 1.353 . S
C1102 C1105 1.348 . S
C1102 H1140 0.929 . S
N1103 Li1058 1.990 . S
N1103 C1100 1.314 . S
N1103 C1101 1.279 . S
C1104 C1101 1.358 . S
C1104 C1105 1.356 . S
C1104 H1141 0.930 . S
C1105 C1102 1.348 . S
C1105 C1104 1.356 . S
H1106 C1100 0.930 . S
H1107 C1101 0.930 . S
C1108 N1109 1.314 . S
C1108 C1110 1.353 . S
C1108 H1114 0.930 . S
N1109 Li1059 1.990 . S
N1109 C1108 1.314 . S
N1109 C1112 1.279 . S
C1110 C1108 1.353 . S
C1110 C1113 1.348 . S
C1110 H1142 0.929 . S
C1111 C1112 1.358 . S
C1111 C1113 1.356 . S
C1111 H1143 0.930 . S
C1112 N1109 1.279 . S
C1112 C1111 1.358 . S
C1112 H1115 0.930 . S
C1113 C1110 1.348 . S
C1113 C1111 1.356 . S
H1114 C1108 0.930 . S
H1115 C1112 0.930 . S
O1116 Li1056 1.956 . S
O1116 Li1057 1.970 . S
O1116 Li1058 1.961 . S
O1116 C1060 1.325 . S
O1117 Li1056 1.970 . S
O1117 Li1057 1.956 . S
O1117 Li1059 1.961 . S
O1117 C1066 1.325 . S
O1118 Li1056 1.961 . S
O1118 Li1058 1.956 . S
O1118 Li1059 1.970 . S
O1118 C1088 1.325 . S
O1119 Li1057 1.961 . S
O1119 Li1058 1.970 . S
O1119 Li1059 1.956 . S
O1119 C1094 1.325 . S
H1120 C1062 0.929 . S
H1121 C1063 0.930 . S
H1122 C1064 0.930 . S
H1123 C1065 0.930 . S
H1124 C1067 0.930 . S
H1125 C1069 0.929 . S
H1126 C1070 0.930 . S
H1127 C1071 0.930 . S
H1128 C1074 0.930 . S
H1129 C1077 0.929 . S
H1130 C1082 0.929 . S
H1131 C1083 0.930 . S
H1132 C1090 0.929 . S
H1133 C1091 0.930 . S
H1134 C1092 0.930 . S
H1135 C1093 0.930 . S
H1136 C1095 0.929 . S
H1137 C1096 0.930 . S
H1138 C1097 0.930 . S
H1139 C1098 0.930 . S
H1140 C1102 0.929 . S
H1141 C1104 0.930 . S
H1142 C1110 0.929 . S
H1143 C1111 0.930 . S
Li1144 N1161 1.990 . S
Li1144 O1204 1.956 . S
Li1144 O1205 1.970 . S
Li1144 O1206 1.961 . S
Li1145 N1169 1.990 . S
Li1145 O1204 1.970 . S
Li1145 O1205 1.956 . S
Li1145 O1207 1.961 . S
Li1146 N1191 1.990 . S
Li1146 O1204 1.961 . S
Li1146 O1206 1.956 . S
Li1146 O1207 1.970 . S
Li1147 N1197 1.990 . S
Li1147 O1205 1.961 . S
Li1147 O1206 1.970 . S
Li1147 O1207 1.956 . S
C1148 C1150 1.348 . S
C1148 C1151 1.356 . S
C1148 O1204 1.325 . S
N1149 C1152 1.314 . S
N1149 C1153 1.279 . S
C1150 C1148 1.348 . S
C1150 C1152 1.353 . S
C1150 H1208 0.929 . S
C1151 C1148 1.356 . S
C1151 C1153 1.358 . S
C1151 H1209 0.930 . S
C1152 N1149 1.314 . S
C1152 C1150 1.353 . S
C1152 H1210 0.930 . S
C1153 N1149 1.279 . S
C1153 C1151 1.358 . S
C1153 H1211 0.930 . S
C1154 C1157 1.348 . S
C1154 C1158 1.356 . S
C1154 O1205 1.325 . S
C1155 N1156 1.279 . S
C1155 C1158 1.358 . S
C1155 H1212 0.930 . S
N1156 C1155 1.279 . S
N1156 C1159 1.314 . S
C1157 C1154 1.348 . S
C1157 C1159 1.353 . S
C1157 H1213 0.929 . S
C1158 C1154 1.356 . S
C1158 C1155 1.358 . S
C1158 H1214 0.930 . S
C1159 N1156 1.314 . S
C1159 C1157 1.353 . S
C1159 H1215 0.930 . S
C1160 N1161 1.314 . S
C1160 C1165 1.353 . S
C1160 H1166 0.930 . S
N1161 Li1144 1.990 . S
N1161 C1160 1.314 . S
N1161 C1163 1.279 . S
C1162 C1163 1.358 . S
C1162 C1164 1.356 . S
C1162 H1216 0.930 . S
C1163 N1161 1.279 . S
C1163 C1162 1.358 . S
C1163 H1167 0.930 . S
C1164 C1162 1.356 . S
C1164 C1165 1.348 . S
C1165 C1160 1.353 . S
C1165 C1164 1.348 . S
C1165 H1217 0.929 . S
H1166 C1160 0.930 . S
H1167 C1163 0.930 . S
C1168 N1169 1.314 . S
C1168 C1170 1.353 . S
C1168 H1174 0.930 . S
N1169 Li1145 1.990 . S
N1169 C1168 1.314 . S
N1169 C1172 1.279 . S
C1170 C1168 1.353 . S
C1170 C1173 1.348 . S
C1170 H1218 0.929 . S
C1171 C1172 1.358 . S
C1171 C1173 1.356 . S
C1171 H1219 0.930 . S
C1172 N1169 1.279 . S
C1172 C1171 1.358 . S
C1172 H1175 0.930 . S
C1173 C1170 1.348 . S
C1173 C1171 1.356 . S
H1174 C1168 0.930 . S
H1175 C1172 0.930 . S
C1176 C1178 1.348 . S
C1176 C1179 1.356 . S
C1176 O1206 1.325 . S
N1177 C1180 1.314 . S
N1177 C1181 1.279 . S
C1178 C1176 1.348 . S
C1178 C1180 1.353 . S
C1178 H1220 0.929 . S
C1179 C1176 1.356 . S
C1179 C1181 1.358 . S
C1179 H1221 0.930 . S
C1180 N1177 1.314 . S
C1180 C1178 1.353 . S
C1180 H1222 0.930 . S
C1181 N1177 1.279 . S
C1181 C1179 1.358 . S
C1181 H1223 0.930 . S
C1182 C1183 1.348 . S
C1182 C1184 1.356 . S
C1182 O1207 1.325 . S
C1183 C1182 1.348 . S
C1183 C1185 1.353 . S
C1183 H1224 0.929 . S
C1184 C1182 1.356 . S
C1184 C1186 1.358 . S
C1184 H1225 0.930 . S
C1185 C1183 1.353 . S
C1185 N1187 1.314 . S
C1185 H1226 0.930 . S
C1186 C1184 1.358 . S
C1186 N1187 1.279 . S
C1186 H1227 0.930 . S
N1187 C1185 1.314 . S
N1187 C1186 1.279 . S
C1188 C1190 1.353 . S
C1188 N1191 1.314 . S
C1188 H1194 0.930 . S
C1189 N1191 1.279 . S
C1189 C1192 1.358 . S
C1189 H1195 0.930 . S
C1190 C1188 1.353 . S
C1190 C1193 1.348 . S
C1190 H1228 0.929 . S
N1191 Li1146 1.990 . S
N1191 C1188 1.314 . S
N1191 C1189 1.279 . S
C1192 C1189 1.358 . S
C1192 C1193 1.356 . S
C1192 H1229 0.930 . S
C1193 C1190 1.348 . S
C1193 C1192 1.356 . S
H1194 C1188 0.930 . S
H1195 C1189 0.930 . S
C1196 N1197 1.314 . S
C1196 C1198 1.353 . S
C1196 H1202 0.930 . S
N1197 Li1147 1.990 . S
N1197 C1196 1.314 . S
N1197 C1200 1.279 . S
C1198 C1196 1.353 . S
C1198 C1201 1.348 . S
C1198 H1230 0.929 . S
C1199 C1200 1.358 . S
C1199 C1201 1.356 . S
C1199 H1231 0.930 . S
C1200 N1197 1.279 . S
C1200 C1199 1.358 . S
C1200 H1203 0.930 . S
C1201 C1198 1.348 . S
C1201 C1199 1.356 . S
H1202 C1196 0.930 . S
H1203 C1200 0.930 . S
O1204 Li1144 1.956 . S
O1204 Li1145 1.970 . S
O1204 Li1146 1.961 . S
O1204 C1148 1.325 . S
O1205 Li1144 1.970 . S
O1205 Li1145 1.956 . S
O1205 Li1147 1.961 . S
O1205 C1154 1.325 . S
O1206 Li1144 1.961 . S
O1206 Li1146 1.956 . S
O1206 Li1147 1.970 . S
O1206 C1176 1.325 . S
O1207 Li1145 1.961 . S
O1207 Li1146 1.970 . S
O1207 Li1147 1.956 . S
O1207 C1182 1.325 . S
H1208 C1150 0.929 . S
H1209 C1151 0.930 . S
H1210 C1152 0.930 . S
H1211 C1153 0.930 . S
H1212 C1155 0.930 . S
H1213 C1157 0.929 . S
H1214 C1158 0.930 . S
H1215 C1159 0.930 . S
H1216 C1162 0.930 . S
H1217 C1165 0.929 . S
H1218 C1170 0.929 . S
H1219 C1171 0.930 . S
H1220 C1178 0.929 . S
H1221 C1179 0.930 . S
H1222 C1180 0.930 . S
H1223 C1181 0.930 . S
H1224 C1183 0.929 . S
H1225 C1184 0.930 . S
H1226 C1185 0.930 . S
H1227 C1186 0.930 . S
H1228 C1190 0.929 . S
H1229 C1192 0.930 . S
H1230 C1198 0.929 . S
H1231 C1199 0.930 . S
Li1232 N1249 1.990 . S
Li1232 O1292 1.956 . S
Li1232 O1293 1.970 . S
Li1232 O1294 1.961 . S
Li1233 N1257 1.990 . S
Li1233 O1292 1.970 . S
Li1233 O1293 1.956 . S
Li1233 O1295 1.961 . S
Li1234 N1279 1.990 . S
Li1234 O1292 1.961 . S
Li1234 O1294 1.956 . S
Li1234 O1295 1.970 . S
Li1235 N1285 1.990 . S
Li1235 O1293 1.961 . S
Li1235 O1294 1.970 . S
Li1235 O1295 1.956 . S
C1236 C1238 1.348 . S
C1236 C1239 1.356 . S
C1236 O1292 1.325 . S
N1237 C1240 1.314 . S
N1237 C1241 1.279 . S
C1238 C1236 1.348 . S
C1238 C1240 1.353 . S
C1238 H1296 0.929 . S
C1239 C1236 1.356 . S
C1239 C1241 1.358 . S
C1239 H1297 0.930 . S
C1240 N1237 1.314 . S
C1240 C1238 1.353 . S
C1240 H1298 0.930 . S
C1241 N1237 1.279 . S
C1241 C1239 1.358 . S
C1241 H1299 0.930 . S
C1242 C1245 1.348 . S
C1242 C1246 1.356 . S
C1242 O1293 1.325 . S
C1243 N1244 1.279 . S
C1243 C1246 1.358 . S
C1243 H1300 0.930 . S
N1244 C1243 1.279 . S
N1244 C1247 1.314 . S
C1245 C1242 1.348 . S
C1245 C1247 1.353 . S
C1245 H1301 0.929 . S
C1246 C1242 1.356 . S
C1246 C1243 1.358 . S
C1246 H1302 0.930 . S
C1247 N1244 1.314 . S
C1247 C1245 1.353 . S
C1247 H1303 0.930 . S
C1248 N1249 1.314 . S
C1248 C1253 1.353 . S
C1248 H1254 0.930 . S
N1249 Li1232 1.990 . S
N1249 C1248 1.314 . S
N1249 C1251 1.279 . S
C1250 C1251 1.358 . S
C1250 C1252 1.356 . S
C1250 H1304 0.930 . S
C1251 N1249 1.279 . S
C1251 C1250 1.358 . S
C1251 H1255 0.930 . S
C1252 C1250 1.356 . S
C1252 C1253 1.348 . S
C1253 C1248 1.353 . S
C1253 C1252 1.348 . S
C1253 H1305 0.929 . S
H1254 C1248 0.930 . S
H1255 C1251 0.930 . S
C1256 N1257 1.314 . S
C1256 C1258 1.353 . S
C1256 H1262 0.930 . S
N1257 Li1233 1.990 . S
N1257 C1256 1.314 . S
N1257 C1260 1.279 . S
C1258 C1256 1.353 . S
C1258 C1261 1.348 . S
C1258 H1306 0.929 . S
C1259 C1260 1.358 . S
C1259 C1261 1.356 . S
C1259 H1307 0.930 . S
C1260 N1257 1.279 . S
C1260 C1259 1.358 . S
C1260 H1263 0.930 . S
C1261 C1258 1.348 . S
C1261 C1259 1.356 . S
H1262 C1256 0.930 . S
H1263 C1260 0.930 . S
C1264 C1266 1.348 . S
C1264 C1267 1.356 . S
C1264 O1294 1.325 . S
N1265 C1268 1.314 . S
N1265 C1269 1.279 . S
C1266 C1264 1.348 . S
C1266 C1268 1.353 . S
C1266 H1308 0.929 . S
C1267 C1264 1.356 . S
C1267 C1269 1.358 . S
C1267 H1309 0.930 . S
C1268 N1265 1.314 . S
C1268 C1266 1.353 . S
C1268 H1310 0.930 . S
C1269 N1265 1.279 . S
C1269 C1267 1.358 . S
C1269 H1311 0.930 . S
C1270 C1271 1.348 . S
C1270 C1272 1.356 . S
C1270 O1295 1.325 . S
C1271 C1270 1.348 . S
C1271 C1273 1.353 . S
C1271 H1312 0.929 . S
C1272 C1270 1.356 . S
C1272 C1274 1.358 . S
C1272 H1313 0.930 . S
C1273 C1271 1.353 . S
C1273 N1275 1.314 . S
C1273 H1314 0.930 . S
C1274 C1272 1.358 . S
C1274 N1275 1.279 . S
C1274 H1315 0.930 . S
N1275 C1273 1.314 . S
N1275 C1274 1.279 . S
C1276 C1278 1.353 . S
C1276 N1279 1.314 . S
C1276 H1282 0.930 . S
C1277 N1279 1.279 . S
C1277 C1280 1.358 . S
C1277 H1283 0.930 . S
C1278 C1276 1.353 . S
C1278 C1281 1.348 . S
C1278 H1316 0.929 . S
N1279 Li1234 1.990 . S
N1279 C1276 1.314 . S
N1279 C1277 1.279 . S
C1280 C1277 1.358 . S
C1280 C1281 1.356 . S
C1280 H1317 0.930 . S
C1281 C1278 1.348 . S
C1281 C1280 1.356 . S
H1282 C1276 0.930 . S
H1283 C1277 0.930 . S
C1284 N1285 1.314 . S
C1284 C1286 1.353 . S
C1284 H1290 0.930 . S
N1285 Li1235 1.990 . S
N1285 C1284 1.314 . S
N1285 C1288 1.279 . S
C1286 C1284 1.353 . S
C1286 C1289 1.348 . S
C1286 H1318 0.929 . S
C1287 C1288 1.358 . S
C1287 C1289 1.356 . S
C1287 H1319 0.930 . S
C1288 N1285 1.279 . S
C1288 C1287 1.358 . S
C1288 H1291 0.930 . S
C1289 C1286 1.348 . S
C1289 C1287 1.356 . S
H1290 C1284 0.930 . S
H1291 C1288 0.930 . S
O1292 Li1232 1.956 . S
O1292 Li1233 1.970 . S
O1292 Li1234 1.961 . S
O1292 C1236 1.325 . S
O1293 Li1232 1.970 . S
O1293 Li1233 1.956 . S
O1293 Li1235 1.961 . S
O1293 C1242 1.325 . S
O1294 Li1232 1.961 . S
O1294 Li1234 1.956 . S
O1294 Li1235 1.970 . S
O1294 C1264 1.325 . S
O1295 Li1233 1.961 . S
O1295 Li1234 1.970 . S
O1295 Li1235 1.956 . S
O1295 C1270 1.325 . S
H1296 C1238 0.929 . S
H1297 C1239 0.930 . S
H1298 C1240 0.930 . S
H1299 C1241 0.930 . S
H1300 C1243 0.930 . S
H1301 C1245 0.929 . S
H1302 C1246 0.930 . S
H1303 C1247 0.930 . S
H1304 C1250 0.930 . S
H1305 C1253 0.929 . S
H1306 C1258 0.929 . S
H1307 C1259 0.930 . S
H1308 C1266 0.929 . S
H1309 C1267 0.930 . S
H1310 C1268 0.930 . S
H1311 C1269 0.930 . S
H1312 C1271 0.929 . S
H1313 C1272 0.930 . S
H1314 C1273 0.930 . S
H1315 C1274 0.930 . S
H1316 C1278 0.929 . S
H1317 C1280 0.930 . S
H1318 C1286 0.929 . S
H1319 C1287 0.930 . S
Li1320 N1337 1.990 . S
Li1320 O1380 1.956 . S
Li1320 O1381 1.970 . S
Li1320 O1382 1.961 . S
Li1321 N1345 1.990 . S
Li1321 O1380 1.970 . S
Li1321 O1381 1.956 . S
Li1321 O1383 1.961 . S
Li1322 N1367 1.990 . S
Li1322 O1380 1.961 . S
Li1322 O1382 1.956 . S
Li1322 O1383 1.970 . S
Li1323 N1373 1.990 . S
Li1323 O1381 1.961 . S
Li1323 O1382 1.970 . S
Li1323 O1383 1.956 . S
C1324 C1326 1.348 . S
C1324 C1327 1.356 . S
C1324 O1380 1.325 . S
N1325 C1328 1.314 . S
N1325 C1329 1.279 . S
C1326 C1324 1.348 . S
C1326 C1328 1.353 . S
C1326 H1384 0.929 . S
C1327 C1324 1.356 . S
C1327 C1329 1.358 . S
C1327 H1385 0.930 . S
C1328 N1325 1.314 . S
C1328 C1326 1.353 . S
C1328 H1386 0.930 . S
C1329 N1325 1.279 . S
C1329 C1327 1.358 . S
C1329 H1387 0.930 . S
C1330 C1333 1.348 . S
C1330 C1334 1.356 . S
C1330 O1381 1.325 . S
C1331 N1332 1.279 . S
C1331 C1334 1.358 . S
C1331 H1388 0.930 . S
N1332 C1331 1.279 . S
N1332 C1335 1.314 . S
C1333 C1330 1.348 . S
C1333 C1335 1.353 . S
C1333 H1389 0.929 . S
C1334 C1330 1.356 . S
C1334 C1331 1.358 . S
C1334 H1390 0.930 . S
C1335 N1332 1.314 . S
C1335 C1333 1.353 . S
C1335 H1391 0.930 . S
C1336 N1337 1.314 . S
C1336 C1341 1.353 . S
C1336 H1342 0.930 . S
N1337 Li1320 1.990 . S
N1337 C1336 1.314 . S
N1337 C1339 1.279 . S
C1338 C1339 1.358 . S
C1338 C1340 1.356 . S
C1338 H1392 0.930 . S
C1339 N1337 1.279 . S
C1339 C1338 1.358 . S
C1339 H1343 0.930 . S
C1340 C1338 1.356 . S
C1340 C1341 1.348 . S
C1341 C1336 1.353 . S
C1341 C1340 1.348 . S
C1341 H1393 0.929 . S
H1342 C1336 0.930 . S
H1343 C1339 0.930 . S
C1344 N1345 1.314 . S
C1344 C1346 1.353 . S
C1344 H1350 0.930 . S
N1345 Li1321 1.990 . S
N1345 C1344 1.314 . S
N1345 C1348 1.279 . S
C1346 C1344 1.353 . S
C1346 C1349 1.348 . S
C1346 H1394 0.929 . S
C1347 C1348 1.358 . S
C1347 C1349 1.356 . S
C1347 H1395 0.930 . S
C1348 N1345 1.279 . S
C1348 C1347 1.358 . S
C1348 H1351 0.930 . S
C1349 C1346 1.348 . S
C1349 C1347 1.356 . S
H1350 C1344 0.930 . S
H1351 C1348 0.930 . S
C1352 C1354 1.348 . S
C1352 C1355 1.356 . S
C1352 O1382 1.325 . S
N1353 C1356 1.314 . S
N1353 C1357 1.279 . S
C1354 C1352 1.348 . S
C1354 C1356 1.353 . S
C1354 H1396 0.929 . S
C1355 C1352 1.356 . S
C1355 C1357 1.358 . S
C1355 H1397 0.930 . S
C1356 N1353 1.314 . S
C1356 C1354 1.353 . S
C1356 H1398 0.930 . S
C1357 N1353 1.279 . S
C1357 C1355 1.358 . S
C1357 H1399 0.930 . S
C1358 C1359 1.348 . S
C1358 C1360 1.356 . S
C1358 O1383 1.325 . S
C1359 C1358 1.348 . S
C1359 C1361 1.353 . S
C1359 H1400 0.929 . S
C1360 C1358 1.356 . S
C1360 C1362 1.358 . S
C1360 H1401 0.930 . S
C1361 C1359 1.353 . S
C1361 N1363 1.314 . S
C1361 H1402 0.930 . S
C1362 C1360 1.358 . S
C1362 N1363 1.279 . S
C1362 H1403 0.930 . S
N1363 C1361 1.314 . S
N1363 C1362 1.279 . S
C1364 C1366 1.353 . S
C1364 N1367 1.314 . S
C1364 H1370 0.930 . S
C1365 N1367 1.279 . S
C1365 C1368 1.358 . S
C1365 H1371 0.930 . S
C1366 C1364 1.353 . S
C1366 C1369 1.348 . S
C1366 H1404 0.929 . S
N1367 Li1322 1.990 . S
N1367 C1364 1.314 . S
N1367 C1365 1.279 . S
C1368 C1365 1.358 . S
C1368 C1369 1.356 . S
C1368 H1405 0.930 . S
C1369 C1366 1.348 . S
C1369 C1368 1.356 . S
H1370 C1364 0.930 . S
H1371 C1365 0.930 . S
C1372 N1373 1.314 . S
C1372 C1374 1.353 . S
C1372 H1378 0.930 . S
N1373 Li1323 1.990 . S
N1373 C1372 1.314 . S
N1373 C1376 1.279 . S
C1374 C1372 1.353 . S
C1374 C1377 1.348 . S
C1374 H1406 0.929 . S
C1375 C1376 1.358 . S
C1375 C1377 1.356 . S
C1375 H1407 0.930 . S
C1376 N1373 1.279 . S
C1376 C1375 1.358 . S
C1376 H1379 0.930 . S
C1377 C1374 1.348 . S
C1377 C1375 1.356 . S
H1378 C1372 0.930 . S
H1379 C1376 0.930 . S
O1380 Li1320 1.956 . S
O1380 Li1321 1.970 . S
O1380 Li1322 1.961 . S
O1380 C1324 1.325 . S
O1381 Li1320 1.970 . S
O1381 Li1321 1.956 . S
O1381 Li1323 1.961 . S
O1381 C1330 1.325 . S
O1382 Li1320 1.961 . S
O1382 Li1322 1.956 . S
O1382 Li1323 1.970 . S
O1382 C1352 1.325 . S
O1383 Li1321 1.961 . S
O1383 Li1322 1.970 . S
O1383 Li1323 1.956 . S
O1383 C1358 1.325 . S
H1384 C1326 0.929 . S
H1385 C1327 0.930 . S
H1386 C1328 0.930 . S
H1387 C1329 0.930 . S
H1388 C1331 0.930 . S
H1389 C1333 0.929 . S
H1390 C1334 0.930 . S
H1391 C1335 0.930 . S
H1392 C1338 0.930 . S
H1393 C1341 0.929 . S
H1394 C1346 0.929 . S
H1395 C1347 0.930 . S
H1396 C1354 0.929 . S
H1397 C1355 0.930 . S
H1398 C1356 0.930 . S
H1399 C1357 0.930 . S
H1400 C1359 0.929 . S
H1401 C1360 0.930 . S
H1402 C1361 0.930 . S
H1403 C1362 0.930 . S
H1404 C1366 0.929 . S
H1405 C1368 0.930 . S
H1406 C1374 0.929 . S
H1407 C1375 0.930 . S
C1408 C1409 1.363 . S
C1408 C1414 1.379 . S
C1408 N1416 1.356 . S
C1409 C1408 1.363 . S
C1409 C1415 1.363 . S
C1410 C1411 1.363 . S
C1410 C1415 1.379 . S
C1410 N1417 1.356 . S
C1411 C1410 1.363 . S
C1411 C1414 1.363 . S
N1412 C1414 1.356 . S
N1412 H1424 0.984 . S
N1412 H1425 0.985 . S
N1413 C1415 1.356 . S
N1413 H1418 0.984 . S
N1413 H1419 0.985 . S
C1414 C1408 1.379 . S
C1414 C1411 1.363 . S
C1414 N1412 1.356 . S
C1415 C1409 1.363 . S
C1415 C1410 1.379 . S
C1415 N1413 1.356 . S
N1416 C1408 1.356 . S
N1416 H1422 0.984 . S
N1416 H1423 0.984 . S
N1417 C1410 1.356 . S
N1417 H1420 0.984 . S
N1417 H1421 0.985 . S
H1418 N1413 0.984 . S
H1419 N1413 0.985 . S
H1420 N1417 0.984 . S
H1421 N1417 0.985 . S
H1422 N1416 0.984 . S
H1423 N1416 0.984 . S
H1424 N1412 0.984 . S
H1425 N1412 0.985 . S
C1426 C1427 1.363 1_545 S
C1426 C1432 1.361 1_655 S
C1426 N1434 1.356 1_545 S
C1427 C1426 1.363 1_565 S
C1427 C1433 1.384 . S
C1428 C1429 1.363 1_565 S
C1428 C1433 1.358 1_455 S
C1428 N1435 1.353 1_565 S
C1429 C1428 1.363 1_545 S
C1429 C1432 1.381 . S
N1430 C1432 1.364 . S
N1430 H1442 0.975 1_455 S
N1430 H1443 0.985 . S
N1431 C1433 1.365 . S
N1431 H1436 0.984 . S
N1431 H1437 0.977 1_655 S
C1432 C1426 1.361 1_455 S
C1432 C1429 1.381 . S
C1432 N1430 1.364 . S
C1433 C1427 1.384 . S
C1433 C1428 1.358 1_655 S
C1433 N1431 1.365 . S
N1434 C1426 1.356 1_565 S
N1434 H1440 0.984 1_565 S
N1434 H1441 0.984 . S
N1435 C1428 1.353 1_545 S
N1435 H1438 1.003 . S
N1435 H1439 0.969 1_545 S
H1436 N1431 0.984 . S
H1437 N1431 0.977 1_455 S
H1438 N1435 1.003 . S
H1439 N1435 0.969 1_565 S
H1440 N1434 0.984 1_545 S
H1441 N1434 0.984 . S
H1442 N1430 0.975 1_655 S
H1443 N1430 0.985 . S
C1444 C1445 1.345 1_545 S
C1444 C1450 1.396 . S
C1444 N1452 1.351 1_545 S
C1445 C1444 1.345 1_565 S
C1445 C1451 1.363 . S
C1446 C1447 1.363 1_565 S
C1446 C1451 1.379 . S
C1446 N1453 1.356 1_565 S
C1447 C1446 1.363 1_545 S
C1447 C1450 1.363 . S
N1448 C1450 1.356 . S
N1448 H1460 0.984 . S
N1448 H1461 0.985 . S
N1449 C1451 1.356 . S
N1449 H1454 0.984 . S
N1449 H1455 0.985 . S
C1450 C1444 1.396 . S
C1450 C1447 1.363 . S
C1450 N1448 1.356 . S
C1451 C1445 1.363 . S
C1451 C1446 1.379 . S
C1451 N1449 1.356 . S
N1452 C1444 1.351 1_565 S
N1452 H1458 0.984 1_565 S
N1452 H1459 0.984 . S
N1453 C1446 1.356 1_545 S
N1453 H1456 0.984 . S
N1453 H1457 0.985 1_545 S
H1454 N1449 0.984 . S
H1455 N1449 0.985 . S
H1456 N1453 0.984 . S
H1457 N1453 0.985 1_565 S
H1458 N1452 0.984 1_545 S
H1459 N1452 0.984 . S
H1460 N1448 0.984 . S
H1461 N1448 0.985 . S
C1462 C1463 1.363 . S
C1462 C1468 1.379 . S
C1462 N1470 1.356 . S
C1463 C1462 1.363 . S
C1463 C1469 1.363 1_455 S
C1464 C1465 1.363 . S
C1464 C1469 1.379 . S
C1464 N1471 1.356 . S
C1465 C1464 1.363 . S
C1465 C1468 1.363 1_655 S
N1466 C1468 1.357 . S
N1466 H1478 0.989 . S
N1466 H1479 0.979 1_455 S
N1467 C1469 1.358 . S
N1467 H1472 0.976 1_655 S
N1467 H1473 0.992 . S
C1468 C1462 1.379 . S
C1468 C1465 1.363 1_455 S
C1468 N1466 1.357 . S
C1469 C1463 1.363 1_655 S
C1469 C1464 1.379 . S
C1469 N1467 1.358 . S
N1470 C1462 1.356 . S
N1470 H1476 0.984 . S
N1470 H1477 0.984 . S
N1471 C1464 1.356 . S
N1471 H1474 0.984 . S
N1471 H1475 0.985 . S
H1472 N1467 0.976 1_455 S
H1473 N1467 0.992 . S
H1474 N1471 0.984 . S
H1475 N1471 0.985 . S
H1476 N1470 0.984 . S
H1477 N1470 0.984 . S
H1478 N1466 0.989 . S
H1479 N1466 0.979 1_655 S
C1480 C1481 1.363 . S
C1480 C1486 1.379 . S
C1480 N1488 1.356 . S
C1481 C1480 1.363 . S
C1481 C1487 1.363 . S
C1482 C1483 1.363 . S
C1482 C1487 1.379 . S
C1482 N1489 1.356 . S
C1483 C1482 1.363 . S
C1483 C1486 1.363 . S
N1484 C1486 1.356 . S
N1484 H1496 0.984 . S
N1484 H1497 0.985 . S
N1485 C1487 1.356 . S
N1485 H1490 0.984 . S
N1485 H1491 0.985 . S
C1486 C1480 1.379 . S
C1486 C1483 1.363 . S
C1486 N1484 1.356 . S
C1487 C1481 1.363 . S
C1487 C1482 1.379 . S
C1487 N1485 1.356 . S
N1488 C1480 1.356 . S
N1488 H1494 0.984 . S
N1488 H1495 0.984 . S
N1489 C1482 1.356 . S
N1489 H1492 0.984 . S
N1489 H1493 0.985 . S
H1490 N1485 0.984 . S
H1491 N1485 0.985 . S
H1492 N1489 0.984 . S
H1493 N1489 0.985 . S
H1494 N1488 0.984 . S
H1495 N1488 0.984 . S
H1496 N1484 0.984 . S
H1497 N1484 0.985 . S
C1498 C1499 1.363 1_565 S
C1498 C1504 1.379 . S
C1498 N1506 1.357 . S
C1499 C1498 1.363 1_545 S
C1499 C1505 1.363 . S
C1500 C1501 1.363 1_545 S
C1500 C1505 1.379 . S
C1500 N1507 1.356 . S
C1501 C1500 1.363 1_565 S
C1501 C1504 1.363 . S
N1502 C1504 1.356 . S
N1502 H1514 0.984 . S
N1502 H1515 0.985 . S
N1503 C1505 1.356 . S
N1503 H1508 0.984 . S
N1503 H1509 0.985 . S
C1504 C1498 1.379 . S
C1504 C1501 1.363 . S
C1504 N1502 1.356 . S
C1505 C1499 1.363 . S
C1505 C1500 1.379 . S
C1505 N1503 1.356 . S
N1506 C1498 1.357 . S
N1506 H1512 0.989 . S
N1506 H1513 0.979 1_565 S
N1507 C1500 1.356 . S
N1507 H1510 0.987 1_545 S
N1507 H1511 0.983 . S
H1508 N1503 0.984 . S
H1509 N1503 0.985 . S
H1510 N1507 0.987 1_565 S
H1511 N1507 0.983 . S
H1512 N1506 0.989 . S
H1513 N1506 0.979 1_545 S
H1514 N1502 0.984 . S
H1515 N1502 0.985 . S
C1516 C1517 1.363 . S
C1516 C1522 1.379 . S
C1516 N1524 1.356 . S
C1517 C1516 1.363 . S
C1517 C1523 1.363 1_655 S
C1518 C1519 1.363 . S
C1518 C1523 1.379 . S
C1518 N1525 1.356 . S
C1519 C1518 1.363 . S
C1519 C1522 1.363 1_455 S
N1520 C1522 1.356 . S
N1520 H1532 0.984 . S
N1520 H1533 0.985 1_655 S
N1521 C1523 1.356 . S
N1521 H1526 0.984 1_455 S
N1521 H1527 0.985 . S
C1522 C1516 1.379 . S
C1522 C1519 1.363 1_655 S
C1522 N1520 1.356 . S
C1523 C1517 1.363 1_455 S
C1523 C1518 1.379 . S
C1523 N1521 1.356 . S
N1524 C1516 1.356 . S
N1524 H1530 0.984 . S
N1524 H1531 0.984 . S
N1525 C1518 1.356 . S
N1525 H1528 0.984 . S
N1525 H1529 0.985 . S
H1526 N1521 0.984 1_655 S
H1527 N1521 0.985 . S
H1528 N1525 0.984 . S
H1529 N1525 0.985 . S
H1530 N1524 0.984 . S
H1531 N1524 0.984 . S
H1532 N1520 0.984 . S
H1533 N1520 0.985 1_455 S
C1534 C1535 1.363 1_556 S
C1534 C1540 1.379 . S
C1534 N1542 1.349 1_556 S
C1535 C1534 1.363 1_554 S
C1535 C1541 1.363 . S
C1536 C1537 1.387 . S
C1536 C1541 1.358 1_556 S
C1536 N1543 1.364 . S
C1537 C1536 1.387 . S
C1537 C1540 1.363 . S
N1538 C1540 1.356 . S
N1538 H1550 0.984 . S
N1538 H1551 0.985 . S
N1539 C1541 1.356 . S
N1539 H1544 0.984 . S
N1539 H1545 0.985 . S
C1540 C1534 1.379 . S
C1540 C1537 1.363 . S
C1540 N1538 1.356 . S
C1541 C1535 1.363 . S
C1541 C1536 1.358 1_554 S
C1541 N1539 1.356 . S
N1542 C1534 1.349 1_554 S
N1542 H1548 0.960 1_554 S
N1542 H1549 1.022 . S
N1543 C1536 1.364 . S
N1543 H1546 0.984 . S
N1543 H1547 0.985 1_556 S
H1544 N1539 0.984 . S
H1545 N1539 0.985 . S
H1546 N1543 0.984 . S
H1547 N1543 0.985 1_554 S
H1548 N1542 0.960 1_556 S
H1549 N1542 1.022 . S
H1550 N1538 0.984 . S
H1551 N1538 0.985 . S
C1552 C1553 1.363 1_655 S
C1552 C1558 1.379 . S
C1552 N1560 1.356 . S
C1553 C1552 1.363 1_455 S
C1553 C1559 1.363 1_556 S
C1554 C1555 1.363 1_455 S
C1554 C1559 1.379 . S
C1554 N1561 1.356 . S
C1555 C1554 1.363 1_655 S
C1555 C1558 1.363 1_554 S
N1556 C1558 1.356 . S
N1556 H1568 0.984 . S
N1556 H1569 0.985 . S
N1557 C1559 1.356 . S
N1557 H1562 0.981 . S
N1557 H1563 0.985 . S
C1558 C1552 1.379 . S
C1558 C1555 1.363 1_556 S
C1558 N1556 1.356 . S
C1559 C1553 1.363 1_554 S
C1559 C1554 1.379 . S
C1559 N1557 1.356 . S
N1560 C1552 1.356 . S
N1560 H1566 0.984 . S
N1560 H1567 0.988 1_655 S
N1561 C1554 1.356 . S
N1561 H1564 0.984 1_455 S
N1561 H1565 0.985 . S
H1562 N1557 0.981 . S
H1563 N1557 0.985 . S
H1564 N1561 0.984 1_655 S
H1565 N1561 0.985 . S
H1566 N1560 0.984 . S
H1567 N1560 0.988 1_455 S
H1568 N1556 0.984 . S
H1569 N1556 0.985 . S
C1570 C1571 1.363 . S
C1570 C1576 1.379 . S
C1570 N1578 1.356 . S
C1571 C1570 1.363 . S
C1571 C1577 1.363 . S
C1572 C1573 1.363 . S
C1572 C1577 1.379 . S
C1572 N1579 1.356 . S
C1573 C1572 1.363 . S
C1573 C1576 1.363 . S
N1574 C1576 1.356 . S
N1574 H1586 0.984 . S
N1574 H1587 0.985 . S
N1575 C1577 1.356 . S
N1575 H1580 0.984 . S
N1575 H1581 0.985 . S
C1576 C1570 1.379 . S
C1576 C1573 1.363 . S
C1576 N1574 1.356 . S
C1577 C1571 1.363 . S
C1577 C1572 1.379 . S
C1577 N1575 1.356 . S
N1578 C1570 1.356 . S
N1578 H1584 0.984 . S
N1578 H1585 0.984 . S
N1579 C1572 1.356 . S
N1579 H1582 0.984 . S
N1579 H1583 0.985 . S
H1580 N1575 0.984 . S
H1581 N1575 0.985 . S
H1582 N1579 0.984 . S
H1583 N1579 0.985 . S
H1584 N1578 0.984 . S
H1585 N1578 0.984 . S
H1586 N1574 0.984 . S
H1587 N1574 0.985 . S
C1588 C1589 1.363 . S
C1588 C1594 1.379 . S
C1588 N1596 1.356 . S
C1589 C1588 1.363 . S
C1589 C1595 1.363 1_556 S
C1590 C1591 1.363 . S
C1590 C1595 1.379 . S
C1590 N1597 1.356 . S
C1591 C1590 1.363 . S
C1591 C1594 1.363 1_554 S
N1592 C1594 1.356 . S
N1592 H1604 0.984 . S
N1592 H1605 0.985 . S
N1593 C1595 1.356 . S
N1593 H1598 0.984 . S
N1593 H1599 0.985 . S
C1594 C1588 1.379 . S
C1594 C1591 1.363 1_556 S
C1594 N1592 1.356 . S
C1595 C1589 1.363 1_554 S
C1595 C1590 1.379 . S
C1595 N1593 1.356 . S
N1596 C1588 1.356 . S
N1596 H1602 0.984 . S
N1596 H1603 0.984 . S
N1597 C1590 1.356 . S
N1597 H1600 0.984 . S
N1597 H1601 0.985 . S
H1598 N1593 0.984 . S
H1599 N1593 0.985 . S
H1600 N1597 0.984 . S
H1601 N1597 0.985 . S
H1602 N1596 0.984 . S
H1603 N1596 0.984 . S
H1604 N1592 0.984 . S
H1605 N1592 0.985 . S
C1606 C1607 1.363 . S
C1606 C1612 1.379 . S
C1606 N1614 1.356 . S
C1607 C1606 1.363 . S
C1607 C1613 1.363 . S
C1608 C1609 1.363 . S
C1608 C1613 1.379 . S
C1608 N1615 1.356 . S
C1609 C1608 1.363 . S
C1609 C1612 1.363 . S
N1610 C1612 1.356 . S
N1610 H1622 0.984 . S
N1610 H1623 0.985 . S
N1611 C1613 1.356 . S
N1611 H1616 0.984 . S
N1611 H1617 0.985 . S
C1612 C1606 1.379 . S
C1612 C1609 1.363 . S
C1612 N1610 1.356 . S
C1613 C1607 1.363 . S
C1613 C1608 1.379 . S
C1613 N1611 1.356 . S
N1614 C1606 1.356 . S
N1614 H1620 0.984 . S
N1614 H1621 0.984 . S
N1615 C1608 1.356 . S
N1615 H1618 0.984 . S
N1615 H1619 0.985 . S
H1616 N1611 0.984 . S
H1617 N1611 0.985 . S
H1618 N1615 0.984 . S
H1619 N1615 0.985 . S
H1620 N1614 0.984 . S
H1621 N1614 0.984 . S
H1622 N1610 0.984 . S
H1623 N1610 0.985 . S
C1624 C1625 1.363 1_554 S
C1624 C1630 1.379 . S
C1624 N1632 1.356 . S
C1625 C1624 1.363 1_556 S
C1625 C1631 1.363 1_545 S
C1626 C1627 1.363 1_556 S
C1626 C1631 1.379 . S
C1626 N1633 1.356 . S
C1627 C1626 1.363 1_554 S
C1627 C1630 1.363 1_565 S
N1628 C1630 1.356 1_565 S
N1628 H1640 0.984 1_565 S
N1628 H1641 0.985 . S
N1629 C1631 1.356 1_545 S
N1629 H1634 0.984 . S
N1629 H1635 0.985 1_545 S
C1630 C1624 1.379 . S
C1630 C1627 1.363 1_545 S
C1630 N1628 1.356 1_545 S
C1631 C1625 1.363 1_565 S
C1631 C1626 1.379 . S
C1631 N1629 1.356 1_565 S
N1632 C1624 1.356 . S
N1632 H1638 0.984 . S
N1632 H1639 0.984 . S
N1633 C1626 1.356 . S
N1633 H1636 0.984 . S
N1633 H1637 0.985 . S
H1634 N1629 0.984 . S
H1635 N1629 0.985 1_565 S
H1636 N1633 0.984 . S
H1637 N1633 0.985 . S
H1638 N1632 0.984 . S
H1639 N1632 0.984 . S
H1640 N1628 0.984 1_545 S
H1641 N1628 0.985 . S
C1642 C1643 1.363 . S
C1642 C1648 1.379 . S
C1642 N1650 1.356 . S
C1643 C1642 1.363 . S
C1643 C1649 1.363 . S
C1644 C1645 1.363 . S
C1644 C1649 1.379 . S
C1644 N1651 1.356 . S
C1645 C1644 1.363 . S
C1645 C1648 1.363 . S
N1646 C1648 1.356 . S
N1646 H1658 0.984 . S
N1646 H1659 0.985 . S
N1647 C1649 1.356 . S
N1647 H1652 0.984 . S
N1647 H1653 0.985 . S
C1648 C1642 1.379 . S
C1648 C1645 1.363 . S
C1648 N1646 1.356 . S
C1649 C1643 1.363 . S
C1649 C1644 1.379 . S
C1649 N1647 1.356 . S
N1650 C1642 1.356 . S
N1650 H1656 0.984 . S
N1650 H1657 0.984 . S
N1651 C1644 1.356 . S
N1651 H1654 0.984 . S
N1651 H1655 0.985 . S
H1652 N1647 0.984 . S
H1653 N1647 0.985 . S
H1654 N1651 0.984 . S
H1655 N1651 0.985 . S
H1656 N1650 0.984 . S
H1657 N1650 0.984 . S
H1658 N1646 0.984 . S
H1659 N1646 0.985 . S
C1660 C1661 1.363 . S
C1660 C1666 1.379 . S
C1660 N1668 1.356 . S
C1661 C1660 1.363 . S
C1661 C1667 1.363 . S
C1662 C1663 1.363 . S
C1662 C1667 1.379 . S
C1662 N1669 1.356 . S
C1663 C1662 1.363 . S
C1663 C1666 1.363 . S
N1664 C1666 1.356 . S
N1664 H1676 0.984 . S
N1664 H1677 0.985 . S
N1665 C1667 1.356 . S
N1665 H1670 0.984 . S
N1665 H1671 0.985 . S
C1666 C1660 1.379 . S
C1666 C1663 1.363 . S
C1666 N1664 1.356 . S
C1667 C1661 1.363 . S
C1667 C1662 1.379 . S
C1667 N1665 1.356 . S
N1668 C1660 1.356 . S
N1668 H1674 0.984 . S
N1668 H1675 0.984 . S
N1669 C1662 1.356 . S
N1669 H1672 0.984 . S
N1669 H1673 0.985 . S
H1670 N1665 0.984 . S
H1671 N1665 0.985 . S
H1672 N1669 0.984 . S
H1673 N1669 0.985 . S
H1674 N1668 0.984 . S
H1675 N1668 0.984 . S
H1676 N1664 0.984 . S
H1677 N1664 0.985 . S
C1678 C1679 1.363 . S
C1678 C1684 1.379 . S
C1678 N1686 1.356 . S
C1679 C1678 1.363 . S
C1679 C1685 1.363 . S
C1680 C1681 1.363 . S
C1680 C1685 1.379 . S
C1680 N1687 1.356 . S
C1681 C1680 1.363 . S
C1681 C1684 1.363 . S
N1682 C1684 1.356 . S
N1682 H1694 0.984 . S
N1682 H1695 0.985 . S
N1683 C1685 1.356 . S
N1683 H1688 0.984 . S
N1683 H1689 0.985 . S
C1684 C1678 1.379 . S
C1684 C1681 1.363 . S
C1684 N1682 1.356 . S
C1685 C1679 1.363 . S
C1685 C1680 1.379 . S
C1685 N1683 1.356 . S
N1686 C1678 1.356 . S
N1686 H1692 0.984 . S
N1686 H1693 0.984 . S
N1687 C1680 1.356 . S
N1687 H1690 0.984 . S
N1687 H1691 0.985 . S
H1688 N1683 0.984 . S
H1689 N1683 0.985 . S
H1690 N1687 0.984 . S
H1691 N1687 0.985 . S
H1692 N1686 0.984 . S
H1693 N1686 0.984 . S
H1694 N1682 0.984 . S
H1695 N1682 0.985 . S
C1696 C1697 1.363 . S
C1696 C1702 1.379 . S
C1696 N1704 1.356 . S
C1697 C1696 1.363 . S
C1697 C1703 1.363 . S
C1698 C1699 1.363 . S
C1698 C1703 1.379 . S
C1698 N1705 1.356 . S
C1699 C1698 1.363 . S
C1699 C1702 1.363 . S
N1700 C1702 1.356 . S
N1700 H1712 0.984 . S
N1700 H1713 0.985 . S
N1701 C1703 1.356 . S
N1701 H1706 0.984 . S
N1701 H1707 0.985 . S
C1702 C1696 1.379 . S
C1702 C1699 1.363 . S
C1702 N1700 1.356 . S
C1703 C1697 1.363 . S
C1703 C1698 1.379 . S
C1703 N1701 1.356 . S
N1704 C1696 1.356 . S
N1704 H1710 0.984 . S
N1704 H1711 0.984 . S
N1705 C1698 1.356 . S
N1705 H1708 0.984 . S
N1705 H1709 0.985 . S
H1706 N1701 0.984 . S
H1707 N1701 0.985 . S
H1708 N1705 0.984 . S
H1709 N1705 0.985 . S
H1710 N1704 0.984 . S
H1711 N1704 0.984 . S
H1712 N1700 0.984 . S
H1713 N1700 0.985 . S
C1714 C1715 1.363 . S
C1714 C1720 1.379 . S
C1714 N1722 1.356 . S
C1715 C1714 1.363 . S
C1715 C1721 1.363 . S
C1716 C1717 1.363 . S
C1716 C1721 1.379 . S
C1716 N1723 1.356 . S
C1717 C1716 1.363 . S
C1717 C1720 1.363 . S
N1718 C1720 1.356 . S
N1718 H1730 0.984 . S
N1718 H1731 0.985 . S
N1719 C1721 1.356 . S
N1719 H1724 0.984 . S
N1719 H1725 0.985 . S
C1720 C1714 1.379 . S
C1720 C1717 1.363 . S
C1720 N1718 1.356 . S
C1721 C1715 1.363 . S
C1721 C1716 1.379 . S
C1721 N1719 1.356 . S
N1722 C1714 1.356 . S
N1722 H1728 0.984 . S
N1722 H1729 0.984 . S
N1723 C1716 1.356 . S
N1723 H1726 0.984 . S
N1723 H1727 0.985 . S
H1724 N1719 0.984 . S
H1725 N1719 0.985 . S
H1726 N1723 0.984 . S
H1727 N1723 0.985 . S
H1728 N1722 0.984 . S
H1729 N1722 0.984 . S
H1730 N1718 0.984 . S
H1731 N1718 0.985 . S
C1732 C1733 1.363 . S
C1732 C1738 1.379 . S
C1732 N1740 1.356 . S
C1733 C1732 1.363 . S
C1733 C1739 1.363 . S
C1734 C1735 1.363 . S
C1734 C1739 1.379 . S
C1734 N1741 1.356 . S
C1735 C1734 1.363 . S
C1735 C1738 1.363 . S
N1736 C1738 1.356 . S
N1736 H1748 0.984 . S
N1736 H1749 0.985 . S
N1737 C1739 1.356 . S
N1737 H1742 0.984 . S
N1737 H1743 0.985 . S
C1738 C1732 1.379 . S
C1738 C1735 1.363 . S
C1738 N1736 1.356 . S
C1739 C1733 1.363 . S
C1739 C1734 1.379 . S
C1739 N1737 1.356 . S
N1740 C1732 1.356 . S
N1740 H1746 0.984 . S
N1740 H1747 0.984 . S
N1741 C1734 1.356 . S
N1741 H1744 0.984 . S
N1741 H1745 0.985 . S
H1742 N1737 0.984 . S
H1743 N1737 0.985 . S
H1744 N1741 0.984 . S
H1745 N1741 0.985 . S
H1746 N1740 0.984 . S
H1747 N1740 0.984 . S
H1748 N1736 0.984 . S
H1749 N1736 0.985 . S
C1750 C1751 1.363 . S
C1750 C1756 1.379 . S
C1750 N1758 1.356 . S
C1751 C1750 1.363 . S
C1751 C1757 1.363 . S
C1752 C1753 1.363 . S
C1752 C1757 1.379 . S
C1752 N1759 1.356 . S
C1753 C1752 1.363 . S
C1753 C1756 1.363 . S
N1754 C1756 1.356 . S
N1754 H1766 0.984 . S
N1754 H1767 0.985 . S
N1755 C1757 1.356 . S
N1755 H1760 0.984 . S
N1755 H1761 0.985 . S
C1756 C1750 1.379 . S
C1756 C1753 1.363 . S
C1756 N1754 1.356 . S
C1757 C1751 1.363 . S
C1757 C1752 1.379 . S
C1757 N1755 1.356 . S
N1758 C1750 1.356 . S
N1758 H1764 0.984 . S
N1758 H1765 0.984 . S
N1759 C1752 1.356 . S
N1759 H1762 0.984 . S
N1759 H1763 0.985 . S
H1760 N1755 0.984 . S
H1761 N1755 0.985 . S
H1762 N1759 0.984 . S
H1763 N1759 0.985 . S
H1764 N1758 0.984 . S
H1765 N1758 0.984 . S
H1766 N1754 0.984 . S
H1767 N1754 0.985 . S
C1768 C1769 1.363 . S
C1768 C1774 1.379 . S
C1768 N1776 1.356 . S
C1769 C1768 1.363 . S
C1769 C1775 1.363 . S
C1770 C1771 1.363 . S
C1770 C1775 1.379 . S
C1770 N1777 1.356 . S
C1771 C1770 1.363 . S
C1771 C1774 1.363 . S
N1772 C1774 1.356 . S
N1772 H1784 0.984 . S
N1772 H1785 0.985 . S
N1773 C1775 1.356 . S
N1773 H1778 0.984 . S
N1773 H1779 0.985 . S
C1774 C1768 1.379 . S
C1774 C1771 1.363 . S
C1774 N1772 1.356 . S
C1775 C1769 1.363 . S
C1775 C1770 1.379 . S
C1775 N1773 1.356 . S
N1776 C1768 1.356 . S
N1776 H1782 0.984 . S
N1776 H1783 0.984 . S
N1777 C1770 1.356 . S
N1777 H1780 0.984 . S
N1777 H1781 0.985 1_545 S
H1778 N1773 0.984 . S
H1779 N1773 0.985 . S
H1780 N1777 0.984 . S
H1781 N1777 0.985 1_565 S
H1782 N1776 0.984 . S
H1783 N1776 0.984 . S
H1784 N1772 0.984 . S
H1785 N1772 0.985 . S
C1786 C1787 1.363 . S
C1786 C1792 1.379 . S
C1786 N1794 1.356 . S
C1787 C1786 1.363 . S
C1787 C1793 1.363 . S
C1788 C1789 1.363 . S
C1788 C1793 1.379 . S
C1788 N1795 1.356 . S
C1789 C1788 1.363 . S
C1789 C1792 1.363 . S
N1790 C1792 1.356 . S
N1790 H1802 0.984 . S
N1790 H1803 0.985 . S
N1791 C1793 1.356 . S
N1791 H1796 0.984 . S
N1791 H1797 0.985 . S
C1792 C1786 1.379 . S
C1792 C1789 1.363 . S
C1792 N1790 1.356 . S
C1793 C1787 1.363 . S
C1793 C1788 1.379 . S
C1793 N1791 1.356 . S
N1794 C1786 1.356 . S
N1794 H1800 0.984 . S
N1794 H1801 0.984 . S
N1795 C1788 1.356 . S
N1795 H1798 0.984 . S
N1795 H1799 0.985 . S
H1796 N1791 0.984 . S
H1797 N1791 0.985 . S
H1798 N1795 0.984 . S
H1799 N1795 0.985 . S
H1800 N1794 0.984 . S
H1801 N1794 0.984 . S
H1802 N1790 0.984 . S
H1803 N1790 0.985 . S
C1804 C1805 1.363 . S
C1804 C1810 1.379 . S
C1804 N1812 1.356 . S
C1805 C1804 1.363 . S
C1805 C1811 1.363 . S
C1806 C1807 1.363 . S
C1806 C1811 1.379 . S
C1806 N1813 1.356 . S
C1807 C1806 1.363 . S
C1807 C1810 1.363 . S
N1808 C1810 1.356 . S
N1808 H1820 0.984 . S
N1808 H1821 0.985 . S
N1809 C1811 1.356 . S
N1809 H1814 0.984 . S
N1809 H1815 0.985 . S
C1810 C1804 1.379 . S
C1810 C1807 1.363 . S
C1810 N1808 1.356 . S
C1811 C1805 1.363 . S
C1811 C1806 1.379 . S
C1811 N1809 1.356 . S
N1812 C1804 1.356 . S
N1812 H1818 0.984 . S
N1812 H1819 0.984 . S
N1813 C1806 1.356 . S
N1813 H1816 0.984 . S
N1813 H1817 0.985 . S
H1814 N1809 0.984 . S
H1815 N1809 0.985 . S
H1816 N1813 0.984 . S
H1817 N1813 0.985 . S
H1818 N1812 0.984 . S
H1819 N1812 0.984 . S
H1820 N1808 0.984 . S
H1821 N1808 0.985 . S
C1822 C1823 1.363 . S
C1822 C1828 1.379 . S
C1822 N1830 1.356 . S
C1823 C1822 1.363 . S
C1823 C1829 1.363 . S
C1824 C1825 1.363 . S
C1824 C1829 1.379 . S
C1824 N1831 1.356 . S
C1825 C1824 1.363 . S
C1825 C1828 1.363 . S
N1826 C1828 1.356 . S
N1826 H1838 0.984 . S
N1826 H1839 0.985 . S
N1827 C1829 1.356 . S
N1827 H1832 0.984 . S
N1827 H1833 0.985 . S
C1828 C1822 1.379 . S
C1828 C1825 1.363 . S
C1828 N1826 1.356 . S
C1829 C1823 1.363 . S
C1829 C1824 1.379 . S
C1829 N1827 1.356 . S
N1830 C1822 1.356 . S
N1830 H1836 0.984 . S
N1830 H1837 0.984 . S
N1831 C1824 1.356 . S
N1831 H1834 0.984 . S
N1831 H1835 0.985 . S
H1832 N1827 0.984 . S
H1833 N1827 0.985 . S
H1834 N1831 0.984 . S
H1835 N1831 0.985 . S
H1836 N1830 0.984 . S
H1837 N1830 0.984 . S
H1838 N1826 0.984 . S
H1839 N1826 0.985 . S
C1840 C1841 1.363 . S
C1840 C1846 1.379 . S
C1840 N1848 1.356 . S
C1841 C1840 1.363 . S
C1841 C1847 1.363 . S
C1842 C1843 1.363 . S
C1842 C1847 1.379 . S
C1842 N1849 1.356 . S
C1843 C1842 1.363 . S
C1843 C1846 1.363 . S
N1844 C1846 1.356 . S
N1844 H1856 0.984 . S
N1844 H1857 0.985 . S
N1845 C1847 1.356 . S
N1845 H1850 0.984 . S
N1845 H1851 0.985 . S
C1846 C1840 1.379 . S
C1846 C1843 1.363 . S
C1846 N1844 1.356 . S
C1847 C1841 1.363 . S
C1847 C1842 1.379 . S
C1847 N1845 1.356 . S
N1848 C1840 1.356 . S
N1848 H1854 0.984 . S
N1848 H1855 0.984 . S
N1849 C1842 1.356 . S
N1849 H1852 0.984 . S
N1849 H1853 0.985 . S
H1850 N1845 0.984 . S
H1851 N1845 0.985 . S
H1852 N1849 0.984 . S
H1853 N1849 0.985 . S
H1854 N1848 0.984 . S
H1855 N1848 0.984 . S
H1856 N1844 0.984 . S
H1857 N1844 0.985 . S
C1858 C1859 1.363 . S
C1858 C1864 1.379 . S
C1858 N1866 1.356 . S
C1859 C1858 1.363 . S
C1859 C1865 1.363 . S
C1860 C1861 1.363 . S
C1860 C1865 1.379 . S
C1860 N1867 1.356 . S
C1861 C1860 1.363 . S
C1861 C1864 1.363 . S
N1862 C1864 1.356 . S
N1862 H1874 0.984 . S
N1862 H1875 0.985 . S
N1863 C1865 1.356 . S
N1863 H1868 0.984 . S
N1863 H1869 0.985 . S
C1864 C1858 1.379 . S
C1864 C1861 1.363 . S
C1864 N1862 1.356 . S
C1865 C1859 1.363 . S
C1865 C1860 1.379 . S
C1865 N1863 1.356 . S
N1866 C1858 1.356 . S
N1866 H1872 0.984 . S
N1866 H1873 0.984 . S
N1867 C1860 1.356 . S
N1867 H1870 0.984 . S
N1867 H1871 0.985 . S
H1868 N1863 0.984 . S
H1869 N1863 0.985 . S
H1870 N1867 0.984 . S
H1871 N1867 0.985 . S
H1872 N1866 0.984 . S
H1873 N1866 0.984 . S
H1874 N1862 0.984 . S
H1875 N1862 0.985 . S
C1876 C1877 1.363 . S
C1876 C1882 1.379 . S
C1876 N1884 1.356 . S
C1877 C1876 1.363 . S
C1877 C1883 1.363 . S
C1878 C1879 1.363 . S
C1878 C1883 1.379 . S
C1878 N1885 1.356 . S
C1879 C1878 1.363 . S
C1879 C1882 1.363 . S
N1880 C1882 1.356 . S
N1880 H1892 0.984 . S
N1880 H1893 0.985 . S
N1881 C1883 1.356 . S
N1881 H1886 0.984 . S
N1881 H1887 0.985 . S
C1882 C1876 1.379 . S
C1882 C1879 1.363 . S
C1882 N1880 1.356 . S
C1883 C1877 1.363 . S
C1883 C1878 1.379 . S
C1883 N1881 1.356 . S
N1884 C1876 1.356 . S
N1884 H1890 0.984 . S
N1884 H1891 0.984 . S
N1885 C1878 1.356 . S
N1885 H1888 0.984 . S
N1885 H1889 0.985 . S
H1886 N1881 0.984 . S
H1887 N1881 0.985 . S
H1888 N1885 0.984 . S
H1889 N1885 0.985 . S
H1890 N1884 0.984 . S
H1891 N1884 0.984 . S
H1892 N1880 0.984 . S
H1893 N1880 0.985 . S
C1894 C1895 1.363 . S
C1894 C1900 1.379 . S
C1894 N1902 1.356 . S
C1895 C1894 1.363 . S
C1895 C1901 1.363 . S
C1896 C1897 1.363 . S
C1896 C1901 1.379 . S
C1896 N1903 1.356 . S
C1897 C1896 1.363 . S
C1897 C1900 1.363 . S
N1898 C1900 1.356 . S
N1898 H1910 0.984 . S
N1898 H1911 0.985 . S
N1899 C1901 1.356 . S
N1899 H1904 0.984 . S
N1899 H1905 0.985 . S
C1900 C1894 1.379 . S
C1900 C1897 1.363 . S
C1900 N1898 1.356 . S
C1901 C1895 1.363 . S
C1901 C1896 1.379 . S
C1901 N1899 1.356 . S
N1902 C1894 1.356 . S
N1902 H1908 0.984 . S
N1902 H1909 0.984 . S
N1903 C1896 1.356 . S
N1903 H1906 0.984 . S
N1903 H1907 0.985 . S
H1904 N1899 0.984 . S
H1905 N1899 0.985 . S
H1906 N1903 0.984 . S
H1907 N1903 0.985 . S
H1908 N1902 0.984 . S
H1909 N1902 0.984 . S
H1910 N1898 0.984 . S
H1911 N1898 0.985 . S
C1912 C1913 1.363 . S
C1912 C1918 1.379 . S
C1912 N1920 1.356 . S
C1913 C1912 1.363 . S
C1913 C1919 1.363 . S
C1914 C1915 1.363 . S
C1914 C1919 1.379 . S
C1914 N1921 1.356 . S
C1915 C1914 1.363 . S
C1915 C1918 1.363 . S
N1916 C1918 1.356 . S
N1916 H1928 0.984 . S
N1916 H1929 0.985 . S
N1917 C1919 1.356 . S
N1917 H1922 0.984 . S
N1917 H1923 0.985 . S
C1918 C1912 1.379 . S
C1918 C1915 1.363 . S
C1918 N1916 1.356 . S
C1919 C1913 1.363 . S
C1919 C1914 1.379 . S
C1919 N1917 1.356 . S
N1920 C1912 1.356 . S
N1920 H1926 0.984 . S
N1920 H1927 0.984 . S
N1921 C1914 1.356 . S
N1921 H1924 0.984 . S
N1921 H1925 0.985 1_545 S
H1922 N1917 0.984 . S
H1923 N1917 0.985 . S
H1924 N1921 0.984 . S
H1925 N1921 0.985 1_565 S
H1926 N1920 0.984 . S
H1927 N1920 0.984 . S
H1928 N1916 0.984 . S
H1929 N1916 0.985 . S
C1930 C1931 1.363 . S
C1930 C1936 1.379 . S
C1930 N1938 1.356 . S
C1931 C1930 1.363 . S
C1931 C1937 1.363 . S
C1932 C1933 1.363 . S
C1932 C1937 1.379 . S
C1932 N1939 1.356 . S
C1933 C1932 1.363 . S
C1933 C1936 1.363 . S
N1934 C1936 1.356 . S
N1934 H1946 0.984 . S
N1934 H1947 0.985 . S
N1935 C1937 1.356 . S
N1935 H1940 0.984 . S
N1935 H1941 0.985 . S
C1936 C1930 1.379 . S
C1936 C1933 1.363 . S
C1936 N1934 1.356 . S
C1937 C1931 1.363 . S
C1937 C1932 1.379 . S
C1937 N1935 1.356 . S
N1938 C1930 1.356 . S
N1938 H1944 0.984 . S
N1938 H1945 0.984 . S
N1939 C1932 1.356 . S
N1939 H1942 0.984 . S
N1939 H1943 0.985 . S
H1940 N1935 0.984 . S
H1941 N1935 0.985 . S
H1942 N1939 0.984 . S
H1943 N1939 0.985 . S
H1944 N1938 0.984 . S
H1945 N1938 0.984 . S
H1946 N1934 0.984 . S
H1947 N1934 0.985 . S
C1948 C1949 1.363 . S
C1948 C1954 1.379 . S
C1948 N1956 1.356 . S
C1949 C1948 1.363 . S
C1949 C1955 1.363 . S
C1950 C1951 1.363 . S
C1950 C1955 1.379 . S
C1950 N1957 1.356 . S
C1951 C1950 1.363 . S
C1951 C1954 1.363 . S
N1952 C1954 1.356 . S
N1952 H1964 0.984 . S
N1952 H1965 0.985 . S
N1953 C1955 1.356 . S
N1953 H1958 0.984 . S
N1953 H1959 0.985 . S
C1954 C1948 1.379 . S
C1954 C1951 1.363 . S
C1954 N1952 1.356 . S
C1955 C1949 1.363 . S
C1955 C1950 1.379 . S
C1955 N1953 1.356 . S
N1956 C1948 1.356 . S
N1956 H1962 0.984 . S
N1956 H1963 0.984 . S
N1957 C1950 1.356 . S
N1957 H1960 0.984 . S
N1957 H1961 0.985 . S
H1958 N1953 0.984 . S
H1959 N1953 0.985 . S
H1960 N1957 0.984 . S
H1961 N1957 0.985 . S
H1962 N1956 0.984 . S
H1963 N1956 0.984 . S
H1964 N1952 0.984 . S
H1965 N1952 0.985 . S
C1966 C1967 1.363 . S
C1966 C1972 1.379 . S
C1966 N1974 1.356 . S
C1967 C1966 1.363 . S
C1967 C1973 1.363 . S
C1968 C1969 1.363 . S
C1968 C1973 1.379 . S
C1968 N1975 1.356 . S
C1969 C1968 1.363 . S
C1969 C1972 1.363 . S
N1970 C1972 1.356 . S
N1970 H1982 0.984 . S
N1970 H1983 0.985 . S
N1971 C1973 1.356 . S
N1971 H1976 0.984 . S
N1971 H1977 0.985 . S
C1972 C1966 1.379 . S
C1972 C1969 1.363 . S
C1972 N1970 1.356 . S
C1973 C1967 1.363 . S
C1973 C1968 1.379 . S
C1973 N1971 1.356 . S
N1974 C1966 1.356 . S
N1974 H1980 0.984 . S
N1974 H1981 0.984 . S
N1975 C1968 1.356 . S
N1975 H1978 0.984 . S
N1975 H1979 0.985 . S
H1976 N1971 0.984 . S
H1977 N1971 0.985 . S
H1978 N1975 0.984 . S
H1979 N1975 0.985 . S
H1980 N1974 0.984 . S
H1981 N1974 0.984 . S
H1982 N1970 0.984 . S
H1983 N1970 0.985 . S
C1409 C1289 1.786 . S
C1411 C29 1.790 . S
C1427 C196 1.786 . S
C1429 C20 1.790 . S
C1445 C997 1.786 . S
C1447 C137 1.790 . S
C1463 C145 1.790 . S
C1465 C645 1.786 . S
C1481 C233 1.786 . S
C1483 C1085 1.790 . S
C1499 C841 1.790 . S
C1501 C293 1.786 . S
C1517 C313 1.786 . S
C1519 C497 1.790 . S
C1535 C900 1.786 . S
C1537 C372 1.790 . S
C1553 C381 1.790 . S
C1555 C548 1.786 . S
C1571 C1349 1.786 . S
C1573 C489 1.790 . S
C1589 C733 1.790 . S
C1591 C585 1.786 . S
C1607 C1201 1.790 . S
C1609 C665 1.786 . S
C1625 C724 1.790 . S
C1627 C937 1.786 . S
C1643 C1369 1.786 . S
C1645 C849 1.790 . S
C1661 C1017 1.786 . S
C1663 C1193 1.790 . S
C1679 C1252 1.786 . S
C1681 C1076 1.790 . S
C1697 C460 1.131 . S
C1699 C57 1.131 . S
C1715 C49 1.131 . S
C1717 C469 1.131 . S
C1733 C108 1.131 . S
C1735 C401 1.131 . S
C1751 C409 1.131 . S
C1753 C117 1.131 . S
C1769 C636 1.140 . S
C1771 C205 1.140 . S
C1787 C673 1.140 . S
C1789 C225 1.140 . S
C1805 C557 1.140 . S
C1807 C321 1.140 . S
C1823 C284 1.140 . S
C1825 C577 1.140 . S
C1841 C1173 1.131 . S
C1843 C761 1.131 . S
C1859 C753 1.131 . S
C1861 C1164 1.131 . S
C1877 C812 1.131 . S
C1879 C1113 1.131 . S
C1895 C1105 1.131 . S
C1897 C821 1.131 . S
C1913 C1377 1.140 . S
C1915 C929 1.140 . S
C1931 C1340 1.140 . S
C1933 C909 1.140 . S
C1949 C1025 1.140 . S
C1951 C1261 1.140 . S
C1967 C1281 1.140 . S
C1969 C988 1.140 . S
