# Generated by pormake.
# Topology vmx, (8)-cn, num edge types: 1
# Building blocks:
#     Node 0, Type 0, BuildingBlock: TAGTUT_clean_sbu_3, # of connection points: 8
#     Node 1, Type 0, BuildingBlock: TAGTUT_clean_sbu_3, # of connection points: 8
#     Node 2, Type 0, BuildingBlock: TAGTUT_clean_sbu_3, # of connection points: 8
#     Node 3, Type 0, BuildingBlock: TAGTUT_clean_sbu_3, # of connection points: 8
#     Node 4, Type 0, BuildingBlock: TAGTUT_clean_sbu_3, # of connection points: 8
#     Node 5, Type 0, BuildingBlock: TAGTUT_clean_sbu_3, # of connection points: 8
#     Node 6, Type 0, BuildingBlock: TAGTUT_clean_sbu_3, # of connection points: 8
#     Node 7, Type 0, BuildingBlock: TAGTUT_clean_sbu_3, # of connection points: 8
#     Edge 8, Type (0, 0), BuildingBlock: XIVTED_clean_linker_0, # of connection points: 2
#     Edge 9, Type (0, 0), BuildingBlock: XIVTED_clean_linker_0, # of connection points: 2
#     Edge 10, Type (0, 0), BuildingBlock: XIVTED_clean_linker_0, # of connection points: 2
#     Edge 11, Type (0, 0), BuildingBlock: XIVTED_clean_linker_0, # of connection points: 2
#     Edge 12, Type (0, 0), BuildingBlock: XIVTED_clean_linker_0, # of connection points: 2
#     Edge 13, Type (0, 0), BuildingBlock: XIVTED_clean_linker_0, # of connection points: 2
#     Edge 14, Type (0, 0), BuildingBlock: XIVTED_clean_linker_0, # of connection points: 2
#     Edge 15, Type (0, 0), BuildingBlock: XIVTED_clean_linker_0, # of connection points: 2
#     Edge 16, Type (0, 0), BuildingBlock: XIVTED_clean_linker_0, # of connection points: 2
#     Edge 17, Type (0, 0), BuildingBlock: XIVTED_clean_linker_0, # of connection points: 2
#     Edge 18, Type (0, 0), BuildingBlock: XIVTED_clean_linker_0, # of connection points: 2
#     Edge 19, Type (0, 0), BuildingBlock: XIVTED_clean_linker_0, # of connection points: 2
#     Edge 20, Type (0, 0), BuildingBlock: XIVTED_clean_linker_0, # of connection points: 2
#     Edge 21, Type (0, 0), BuildingBlock: XIVTED_clean_linker_0, # of connection points: 2
#     Edge 22, Type (0, 0), BuildingBlock: XIVTED_clean_linker_0, # of connection points: 2
#     Edge 23, Type (0, 0), BuildingBlock: XIVTED_clean_linker_0, # of connection points: 2
#     Edge 24, Type (0, 0), BuildingBlock: XIVTED_clean_linker_0, # of connection points: 2
#     Edge 25, Type (0, 0), BuildingBlock: XIVTED_clean_linker_0, # of connection points: 2
#     Edge 26, Type (0, 0), BuildingBlock: XIVTED_clean_linker_0, # of connection points: 2
#     Edge 27, Type (0, 0), BuildingBlock: XIVTED_clean_linker_0, # of connection points: 2
#     Edge 28, Type (0, 0), BuildingBlock: XIVTED_clean_linker_0, # of connection points: 2
#     Edge 29, Type (0, 0), BuildingBlock: XIVTED_clean_linker_0, # of connection points: 2
#     Edge 30, Type (0, 0), BuildingBlock: XIVTED_clean_linker_0, # of connection points: 2
#     Edge 31, Type (0, 0), BuildingBlock: XIVTED_clean_linker_0, # of connection points: 2
#     Edge 32, Type (0, 0), BuildingBlock: XIVTED_clean_linker_0, # of connection points: 2
#     Edge 33, Type (0, 0), BuildingBlock: XIVTED_clean_linker_0, # of connection points: 2
#     Edge 34, Type (0, 0), BuildingBlock: XIVTED_clean_linker_0, # of connection points: 2
#     Edge 35, Type (0, 0), BuildingBlock: XIVTED_clean_linker_0, # of connection points: 2
#     Edge 36, Type (0, 0), BuildingBlock: XIVTED_clean_linker_0, # of connection points: 2
#     Edge 37, Type (0, 0), BuildingBlock: XIVTED_clean_linker_0, # of connection points: 2
#     Edge 38, Type (0, 0), BuildingBlock: XIVTED_clean_linker_0, # of connection points: 2
#     Edge 39, Type (0, 0), BuildingBlock: XIVTED_clean_linker_0, # of connection points: 2
# Relax obj value: 0.257
# Max RMSD: 0.281
# Mean RMSD: 0.281
data_MOF--net-vmx--node1-TAGTUT_clean_sbu_3--edge1-XIVTED_clean_linker_0
_symmetry_space_group_name_H-M    P1
_symmetry_Int_Tables_number       1
_symmetry_cell_setting            triclinic
loop_
_symmetry_equiv_pos_as_xyz
'x, y, z'
_cell_length_a     30.232951
_cell_length_b     59.109688
_cell_length_c     18.530684
_cell_angle_alpha  90.073035
_cell_angle_beta   106.86868
_cell_angle_gamma 89.553829
loop_
_atom_site_label
_atom_site_type_symbol
_atom_site_fract_x
_atom_site_fract_y
_atom_site_fract_z
_atom_type_partial_charge
C0 C 0.35768 0.39136 0.54538 0.0
C1 C 0.3677 0.36446 0.28851 0.0
C2 C 0.22353 0.36585 0.21528 0.0
Mg3 Mg 0.27834 0.38871 0.6264 0.0
Mg4 Mg 0.194 0.35084 0.5933 0.0
O5 O 0.23117 0.36946 0.55547 0.0
Mg6 Mg 0.26366 0.36257 0.47864 0.0
O7 O 0.29975 0.35978 0.4039 0.0
Mg8 Mg 0.29623 0.39186 0.36706 0.0
Mg9 Mg 0.29102 0.33786 0.33011 0.0
C10 C 0.15796 0.33991 0.41823 0.0
O11 O 0.28396 0.32475 0.51251 0.0
O12 O 0.22302 0.39931 0.68101 0.0
O13 O 0.28968 0.31011 0.40209 0.0
O14 O 0.29567 0.35977 0.71403 0.0
O15 O 0.16184 0.37609 0.64741 0.0
O16 O 0.24211 0.33269 0.68187 0.0
O17 O 0.24287 0.39797 0.43188 0.0
O18 O 0.25399 0.41692 0.53948 0.0
C19 C 0.24102 0.41631 0.46744 0.0
C20 C 0.18249 0.39355 0.68182 0.0
O21 O 0.19369 0.34866 0.40461 0.0
O22 O 0.3518 0.3824 0.31128 0.0
O23 O 0.15445 0.33738 0.48526 0.0
O24 O 0.24329 0.38331 0.25132 0.0
O25 O 0.35054 0.34487 0.29174 0.0
O26 O 0.22962 0.34637 0.24567 0.0
O27 O 0.32951 0.37743 0.56126 0.0
O28 O 0.35125 0.39864 0.47811 0.0
C29 C 0.2771 0.3416 0.72927 0.0
C30 C 0.28913 0.30804 0.47057 0.0
C31 C 0.66045 0.42611 0.92356 0.0
C32 C 0.66576 0.39123 0.17481 0.0
C33 C 0.80554 0.41088 0.25197 0.0
Mg34 Mg 0.73838 0.43687 0.84528 0.0
Mg35 Mg 0.83587 0.40854 0.86984 0.0
O36 O 0.79525 0.42235 0.91461 0.0
Mg37 Mg 0.7671 0.40886 -0.01009 0.0
O38 O 0.73368 0.39939 0.06313 0.0
Mg39 Mg 0.72023 0.42982 0.10105 0.0
Mg40 Mg 0.75535 0.37756 0.13628 0.0
C41 C 0.87603 0.3908 0.03948 0.0
O42 O 0.76361 0.37137 0.94994 0.0
O43 O 0.78579 0.45513 0.79114 0.0
O44 O 0.77101 0.35354 0.06144 0.0
O45 O 0.73225 0.40931 0.75443 0.0
O46 O 0.85484 0.43769 0.81278 0.0
O47 O 0.79447 0.38686 0.78649 0.0
O48 O 0.77035 0.44445 0.04056 0.0
O49 O 0.74974 0.46446 0.93421 0.0
C50 C 0.76313 0.46345 0.00614 0.0
C51 C 0.82674 0.45393 0.78495 0.0
O52 O 0.84153 0.39799 0.0614 0.0
O53 O 0.67142 0.41146 0.15435 0.0
O54 O 0.87795 0.39281 0.97146 0.0
O55 O 0.77652 0.4256 0.21497 0.0
O56 O 0.69346 0.37498 0.17173 0.0
O57 O 0.80974 0.39168 0.22345 0.0
O58 O 0.69607 0.41767 0.90933 0.0
O59 O 0.6619 0.43218 -0.00961 0.0
C60 C 0.75613 0.39281 0.7401 0.0
C61 C 0.76976 0.35351 -0.00827 0.0
C62 C 0.57047 0.59978 0.36333 0.0
C63 C 0.52428 0.62814 0.58194 0.0
C64 C 0.67042 0.63319 0.69865 0.0
Mg65 Mg 0.65979 0.60369 0.30891 0.0
Mg66 Mg 0.74049 0.64348 0.35636 0.0
O67 O 0.70188 0.62339 0.38636 0.0
Mg68 Mg 0.65954 0.63046 0.44755 0.0
O69 O 0.61348 0.63348 0.50487 0.0
Mg70 Mg 0.6153 0.60209 0.54603 0.0
Mg71 Mg 0.60423 0.65705 0.56399 0.0
C72 C 0.76026 0.65519 0.5304 0.0
O73 O 0.6435 0.66808 0.4067 0.0
O74 O 0.72318 0.59382 0.27332 0.0
O75 O 0.6139 0.6839 0.49417 0.0
O76 O 0.64694 0.63244 0.22239 0.0
O77 O 0.78078 0.61887 0.31395 0.0
O78 O 0.69657 0.6609 0.2608 0.0
O79 O 0.67831 0.59559 0.50198 0.0
O80 O 0.6783 0.57625 0.39872 0.0
C81 C 0.68529 0.57723 0.47006 0.0
C82 C 0.76444 0.60042 0.28078 0.0
O83 O 0.72324 0.64541 0.53521 0.0
O84 O 0.54878 0.61069 0.57736 0.0
O85 O 0.7694 0.6581 0.46742 0.0
O86 O 0.65884 0.61417 0.66524 0.0
O87 O 0.53784 0.64828 0.57549 0.0
O88 O 0.65619 0.65201 0.66668 0.0
O89 O 0.5996 0.61442 0.35424 0.0
O90 O 0.57153 0.59278 0.42906 0.0
C91 C 0.66295 0.65172 0.21138 0.0
C92 C 0.62867 0.68529 0.43624 0.0
C93 C 0.26605 0.57669 -0.01985 0.0
C94 C 0.23002 0.60227 0.7021 0.0
C95 C 0.10749 0.57911 0.66582 0.0
Mg96 Mg 0.19995 0.56693 0.0857 0.0
Mg97 Mg 0.09835 0.59097 0.0689 0.0
O98 O 0.14025 0.58001 0.0214 0.0
Mg99 Mg 0.15741 0.59043 0.9299 0.0
O100 O 0.17978 0.59753 0.84004 0.0
Mg101 Mg 0.19442 0.56584 0.81148 0.0
Mg102 Mg 0.14681 0.61608 0.76047 0.0
C103 C 0.04587 0.60399 0.89773 0.0
O104 O 0.16105 0.629 0.95202 0.0
O105 O 0.16059 0.54878 0.15563 0.0
O106 O 0.13574 0.64273 0.83255 0.0
O107 O 0.20775 0.59612 0.17366 0.0
O108 O 0.08702 0.56109 0.12894 0.0
O109 O 0.13843 0.6128 0.1547 0.0
O110 O 0.15542 0.55321 0.89378 0.0
O111 O 0.18669 0.53703 0.00537 0.0
C112 C 0.16849 0.53556 0.93427 0.0
C113 C 0.11997 0.54776 0.16325 0.0
O114 O 0.07937 0.59784 0.87163 0.0
O115 O 0.23125 0.58296 0.73428 0.0
O116 O 0.04834 0.60349 0.96812 0.0
O117 O 0.12927 0.5629 0.70689 0.0
O118 O 0.20113 0.61793 0.70584 0.0
O119 O 0.09249 0.59507 0.69849 0.0
O120 O 0.23238 0.58476 0.00113 0.0
O121 O 0.26003 0.5693 0.91298 0.0
C122 C 0.18034 0.60975 0.19437 0.0
C123 C 0.14824 0.64542 0.90442 0.0
C124 C 0.87467 0.89946 0.51704 0.0
C125 C 0.86977 0.84656 0.29787 0.0
C126 C 0.73772 0.87854 0.19071 0.0
Mg127 Mg 0.79878 0.92352 0.57251 0.0
Mg128 Mg 0.68998 0.90967 0.54055 0.0
O129 O 0.73919 0.91258 0.50124 0.0
Mg130 Mg 0.7652 0.89021 0.44229 0.0
O131 O 0.79874 0.87133 0.38534 0.0
Mg132 Mg 0.82605 0.89606 0.33793 0.0
Mg133 Mg 0.77306 0.84733 0.32233 0.0
C134 C 0.65279 0.88267 0.38599 0.0
O135 O 0.75131 0.85663 0.49966 0.0
O136 O 0.75785 0.95131 0.60899 0.0
O137 O 0.74621 0.8317 0.404 0.0
O138 O 0.78997 0.90074 0.66874 0.0
O139 O 0.68166 0.94423 0.57534 0.0
O140 O 0.71656 0.88929 0.63649 0.0
O141 O 0.77832 0.92126 0.37664 0.0
O142 O 0.80173 0.94523 0.47329 0.0
C143 C 0.7906 0.9411 0.40251 0.0
C144 C 0.71626 0.95708 0.60386 0.0
O145 O 0.69047 0.88342 0.36661 0.0
O146 O 0.87118 0.86809 0.30733 0.0
O147 O 0.64819 0.89142 0.44677 0.0
O148 O 0.77129 0.89119 0.22511 0.0
O149 O 0.83517 0.83466 0.30097 0.0
O150 O 0.72776 0.86077 0.22123 0.0
O151 O 0.83508 0.896 0.52615 0.0
O152 O 0.88005 0.90005 0.45132 0.0
C153 C 0.75732 0.88921 0.68145 0.0
C154 C 0.7428 0.83681 0.46945 0.0
C155 C 0.14228 0.86383 0.95513 0.0
C156 C 0.15345 0.81343 0.18927 0.0
C157 C 0.28702 0.84058 0.27604 0.0
Mg158 Mg 0.21825 0.88222 0.88699 0.0
Mg159 Mg 0.32266 0.8613 0.91083 0.0
O160 O 0.27685 0.86894 0.95467 0.0
Mg161 Mg 0.24998 0.84936 0.0193 0.0
O162 O 0.21755 0.83295 0.08313 0.0
Mg163 Mg 0.19737 0.85972 0.1327 0.0
Mg164 Mg 0.24511 0.80921 0.14719 0.0
C165 C 0.36231 0.83868 0.07221 0.0
O166 O 0.25458 0.81499 0.96249 0.0
O167 O 0.26184 0.90641 0.84326 0.0
O168 O 0.26803 0.7914 0.0631 0.0
O169 O 0.21992 0.85776 0.78904 0.0
O170 O 0.33579 0.89466 0.87086 0.0
O171 O 0.28907 0.84065 0.819 0.0
O172 O 0.24384 0.88146 0.08274 0.0
O173 O 0.22252 0.90588 -0.01322 0.0
C174 C 0.23337 0.9015 0.05748 0.0
C175 C 0.3037 0.90925 0.84359 0.0
O176 O 0.32465 0.84117 0.09081 0.0
O177 O 0.15389 0.83473 0.17657 0.0
O178 O 0.36638 0.84434 0.00762 0.0
O179 O 0.25473 0.85423 0.24237 0.0
O180 O 0.18425 0.79961 0.17999 0.0
O181 O 0.29443 0.8223 0.24487 0.0
O182 O 0.17957 0.85779 0.94121 0.0
O183 O 0.13983 0.8649 0.02274 0.0
C184 C 0.24863 0.84364 0.77448 0.0
C185 C 0.26534 0.79547 -0.00616 0.0
C186 C 0.22846 0.05813 0.61239 0.0
C187 C 0.2975 0.03203 0.40762 0.0
C188 C 0.29269 0.10253 0.3481 0.0
Mg189 Mg 0.21678 0.10741 0.68088 0.0
Mg190 Mg 0.29733 0.14636 0.70741 0.0
O191 O 0.25783 0.12678 0.63949 0.0
Mg192 Mg 0.28049 0.10317 0.58193 0.0
O193 O 0.29518 0.07736 0.52171 0.0
Mg194 Mg 0.23258 0.07403 0.44619 0.0
Mg195 Mg 0.34538 0.07527 0.48424 0.0
C196 C 0.33263 0.15037 0.56249 0.0
O197 O 0.35522 0.1006 0.66162 0.0
O198 O 0.18947 0.141 0.71481 0.0
O199 O 0.39481 0.0854 0.58629 0.0
O200 O 0.27072 0.10548 0.79567 0.0
O201 O 0.24374 0.16793 0.72798 0.0
O202 O 0.33065 0.12832 0.80808 0.0
O203 O 0.21103 0.10571 0.49543 0.0
O204 O 0.16312 0.10972 0.56531 0.0
C205 C 0.1703 0.10817 0.50096 0.0
C206 C 0.20338 0.16147 0.72809 0.0
O207 O 0.31048 0.13287 0.52938 0.0
O208 O 0.25896 0.04147 0.40583 0.0
O209 O 0.33539 0.15594 0.63071 0.0
O210 O 0.25548 0.09408 0.35597 0.0
O211 O 0.33653 0.0416 0.43642 0.0
O212 O 0.33179 0.09922 0.39625 0.0
O213 O 0.25027 0.07604 0.64096 0.0
O214 O 0.21584 0.0548 0.54097 0.0
C215 C 0.30994 0.11306 0.83391 0.0
C216 C 0.39316 0.09458 0.64822 0.0
C217 C 0.91404 0.13189 0.02794 0.0
C218 C 0.91913 0.18457 0.81151 0.0
C219 C 0.78911 0.15299 0.69352 0.0
Mg220 Mg 0.83326 0.1091 0.07079 0.0
Mg221 Mg 0.72643 0.12806 0.02943 0.0
O222 O 0.77592 0.12052 -0.00656 0.0
Mg223 Mg 0.80644 0.14204 0.93962 0.0
O224 O 0.84378 0.16069 0.88965 0.0
Mg225 Mg 0.87353 0.13555 0.84714 0.0
Mg226 Mg 0.81956 0.18463 0.82464 0.0
C227 C 0.69512 0.14953 0.86441 0.0
O228 O 0.78891 0.17519 -0.00678 0.0
O229 O 0.78768 0.08251 0.10075 0.0
O230 O 0.78494 0.19991 0.89785 0.0
O231 O 0.82125 0.1325 0.16253 0.0
O232 O 0.71363 0.09443 0.06836 0.0
O233 O 0.75262 0.14966 0.12231 0.0
O234 O 0.82305 0.11094 0.87891 0.0
O235 O 0.8409 0.08678 0.97542 0.0
C236 C 0.83299 0.09091 0.90503 0.0
C237 C 0.74495 0.07936 0.09468 0.0
O238 O 0.735 0.14772 0.85285 0.0
O239 O 0.92014 0.16309 0.82165 0.0
O240 O 0.68733 0.14413 0.9267 0.0
O241 O 0.82237 0.14025 0.73009 0.0
O242 O 0.884 0.19696 0.81054 0.0
O243 O 0.77798 0.17089 0.72229 0.0
O244 O 0.87313 0.13594 0.03055 0.0
O245 O 0.92342 0.13116 0.96509 0.0
C246 C 0.79122 0.14664 0.172 0.0
C247 C 0.77833 0.1946 0.961 0.0
H248 H 0.0854 0.50621 0.12183 0.0
H249 H 0.23192 0.4585 0.5228 0.0
H250 H 0.14438 0.54834 0.31505 0.0
H251 H 0.19422 0.41934 0.31722 0.0
H252 H 0.18657 0.49024 0.4546 0.0
H253 H 0.10733 0.47265 0.2019 0.0
C254 C 0.10083 0.50834 0.18199 0.0
C255 C 0.11277 0.52987 0.21252 0.0
C256 C 0.18817 0.47467 0.42453 0.0
C257 C 0.14011 0.49187 0.3032 0.0
C258 C 0.21439 0.4566 0.46322 0.0
C259 C 0.21737 0.43629 0.42547 0.0
C260 C 0.1646 0.47241 0.3476 0.0
C261 C 0.19344 0.43475 0.34844 0.0
C262 C 0.11419 0.48924 0.22736 0.0
C263 C 0.13413 0.5319 0.29007 0.0
N264 N 0.16813 0.4526 0.31205 0.0
N265 N 0.14792 0.51308 0.33273 0.0
H266 H 0.81272 0.56425 0.35104 0.0
H267 H 0.76155 0.50622 0.94999 0.0
H268 H 0.77439 0.60061 0.14063 0.0
H269 H 0.7923 0.46928 0.15998 0.0
H270 H 0.7822 0.54119 0.02043 0.0
H271 H 0.82573 0.53021 0.28463 0.0
C272 C 0.8095 0.56531 0.29133 0.0
C273 C 0.7929 0.58513 0.25096 0.0
C274 C 0.78469 0.52544 0.05122 0.0
C275 C 0.80503 0.54621 0.17417 0.0
C276 C 0.77245 0.50543 0.01102 0.0
C277 C 0.77432 0.48476 0.04914 0.0
C278 C 0.79864 0.52492 0.13031 0.0
C279 C 0.78963 0.48484 0.12824 0.0
C280 C 0.81606 0.5458 0.25319 0.0
C281 C 0.78777 0.58562 0.17353 0.0
N282 N 0.8008 0.50465 0.16625 0.0
N283 N 0.79286 0.56626 0.13721 0.0
H284 H 0.85276 0.49627 0.83137 0.0
H285 H 0.70629 0.5359 0.42176 0.0
H286 H 0.82011 0.45288 0.63663 0.0
H287 H 0.72811 0.57664 0.62262 0.0
H288 H 0.75975 0.50761 0.49475 0.0
H289 H 0.82512 0.52885 0.74935 0.0
C290 C 0.84236 0.49384 0.77079 0.0
C291 C 0.83861 0.47198 0.74044 0.0
C292 C 0.7529 0.52274 0.52288 0.0
C293 C 0.80436 0.50875 0.64685 0.0
C294 C 0.72191 0.53882 0.48144 0.0
C295 C 0.71221 0.55863 0.51621 0.0
C296 C 0.77446 0.52641 0.59984 0.0
C297 C 0.73399 0.56152 0.59356 0.0
C298 C 0.82545 0.51234 0.72409 0.0
C299 C 0.82382 0.46956 0.66192 0.0
N300 N 0.76404 0.54556 0.63276 0.0
N301 N 0.80594 0.48768 0.61776 0.0
H302 H 0.19366 0.49481 0.00384 0.0
H303 H 0.11574 0.42457 0.62142 0.0
H304 H 0.12632 0.52442 0.78631 0.0
H305 H 0.2019 0.39815 0.83235 0.0
H306 H 0.10158 0.45871 0.68706 0.0
H307 H 0.18173 0.45742 0.94693 0.0
C308 C 0.17643 0.49349 0.94398 0.0
C309 C 0.16174 0.51287 0.89945 0.0
C310 C 0.12242 0.44516 0.7194 0.0
C311 C 0.14754 0.46993 0.83408 0.0
C312 C 0.12983 0.42558 0.68219 0.0
C313 C 0.15959 0.40867 0.7221 0.0
C314 C 0.14542 0.44769 0.7966 0.0
C315 C 0.17835 0.41086 0.80018 0.0
C316 C 0.16937 0.47207 0.91164 0.0
C317 C 0.13896 0.51 0.82248 0.0
N318 N 0.17147 0.43023 0.83485 0.0
N319 N 0.13287 0.48891 0.79205 0.0
H320 H 0.76123 0.03814 0.0445 0.0
H321 H 0.78259 0.98522 0.43923 0.0
H322 H 0.70711 0.07119 0.20854 0.0
H323 H 0.77421 0.94185 0.24784 0.0
H324 H 0.75861 0.01714 0.35447 0.0
H325 H 0.76577 0.00246 0.11353 0.0
C326 C 0.74874 0.03761 0.09372 0.0
C327 C 0.73347 0.05743 0.12098 0.0
C328 C 0.76185 0.00065 0.33086 0.0
C329 C 0.74055 0.01719 0.20161 0.0
C330 C 0.77628 0.98239 0.37932 0.0
C331 C 0.78094 0.96075 0.35073 0.0
C332 C 0.75272 -0.00249 0.25301 0.0
C333 C 0.77141 0.95824 0.27233 0.0
C334 C 0.75164 0.01733 0.13324 0.0
C335 C 0.71851 0.05614 0.18549 0.0
N336 N 0.75815 0.97651 0.22606 0.0
N337 N 0.72337 0.0364 0.2247 0.0
H338 H 0.24219 0.99668 0.41436 0.0
H339 H 0.25768 0.9445 0.035 0.0
H340 H 0.34631 0.01833 0.31276 0.0
H341 H 0.22906 0.90111 0.20307 0.0
H342 H 0.27943 0.9746 0.12898 0.0
H343 H 0.22829 0.9632 0.33268 0.0
C344 C 0.26267 0.9941 0.37573 0.0
C345 C 0.29546 0.0101 0.36995 0.0
C346 C 0.26834 0.95847 0.14506 0.0
C347 C 0.27868 0.97262 0.27546 0.0
C348 C 0.2553 0.94143 0.09139 0.0
C349 C 0.2413 0.92037 0.11139 0.0
C350 C 0.26636 0.95457 0.21862 0.0
C351 C 0.23961 0.91715 0.18555 0.0
C352 C 0.2547 0.9751 0.32934 0.0
C353 C 0.32103 0.0062 0.31907 0.0
N354 N 0.25164 0.9342 0.2366 0.0
N355 N 0.31143 0.988 0.27244 0.0
H356 H 0.33944 0.94716 0.92054 0.0
H357 H 0.18522 0.0177 0.57496 0.0
H358 H 0.28179 0.92028 0.69714 0.0
H359 H 0.28628 0.05133 0.75597 0.0
H360 H 0.21308 0.98142 0.63287 0.0
H361 H 0.3195 0.98557 0.87015 0.0
C362 C 0.32483 0.9495 0.86028 0.0
C363 C 0.31295 0.93074 0.81237 0.0
C364 C 0.22897 0.99675 0.66023 0.0
C365 C 0.28744 0.97401 0.75576 0.0
C366 C 0.21257 0.01751 0.62787 0.0
C367 C 0.23404 0.0376 0.65971 0.0
C368 C 0.26678 0.99601 0.72547 0.0
C369 C 0.26896 0.03626 0.72898 0.0
C370 C 0.31257 0.9713 0.83191 0.0
C371 C 0.29225 0.93443 0.73538 0.0
N372 N 0.28472 0.01572 0.75926 0.0
N373 N 0.27935 0.95563 0.70961 0.0
H374 H 0.71665 -0.00219 0.53819 0.0
H375 H 0.83888 0.04604 0.94134 0.0
H376 H 0.71051 0.96573 0.74346 0.0
H377 H 0.79281 0.09144 0.75104 0.0
H378 H 0.798 0.01539 0.86329 0.0
H379 H 0.74423 0.03254 0.6091 0.0
C380 C 0.71881 -0.00145 0.59756 0.0
C381 C 0.71062 0.97918 0.63522 0.0
C382 C 0.79689 0.03205 0.83855 0.0
C383 C 0.74481 0.01797 0.71684 0.0
C384 C 0.82087 0.04954 0.88275 0.0
C385 C 0.81893 0.07151 0.85313 0.0
C386 C 0.77131 0.03634 0.76363 0.0
C387 C 0.79517 0.07482 0.77645 0.0
C388 C 0.73532 0.01817 0.63813 0.0
C389 C 0.71562 0.98052 0.71248 0.0
N390 N 0.77207 0.0574 0.73424 0.0
N391 N 0.73339 -0.00054 0.7512 0.0
H392 H 0.93973 0.36397 0.00308 0.0
H393 H 0.14802 0.3418 0.26651 0.0
H394 H 0.89949 0.38815 0.19517 0.0
H395 H 0.06973 0.33399 0.42609 0.0
H396 H 0.07669 0.34986 0.16844 0.0
H397 H 0.00495 0.34431 0.08738 0.0
C398 C 0.94487 0.36541 0.06323 0.0
C399 C 0.91469 0.37836 0.09218 0.0
C400 C 0.07475 0.34562 0.22423 0.0
C401 C 0.99033 0.35596 0.18938 0.0
C402 C 0.11574 0.34106 0.28046 0.0
C403 C 0.11519 0.33758 0.35499 0.0
C404 C 0.03285 0.34677 0.24277 0.0
C405 C 0.07205 0.33677 0.36957 0.0
C406 C 0.98237 0.35414 0.11135 0.0
C407 C 0.92231 0.37875 0.17049 0.0
N408 N 0.03271 0.34192 0.31438 0.0
N409 N 0.95976 0.36785 0.21658 0.0
H410 H 0.03479 0.62377 0.75978 0.0
H411 H 0.76511 0.64182 0.67457 0.0
H412 H 0.96096 0.60761 0.92036 0.0
H413 H 0.84551 0.67326 0.54438 0.0
H414 H 0.8365 0.6325 0.77182 0.0
H415 H 0.9655 0.64302 0.68159 0.0
C416 C 0.00388 0.62405 0.77813 0.0
C417 C 0.00347 0.61388 0.8462 0.0
C418 C 0.83846 0.64185 0.72263 0.0
C419 C 0.92449 0.63622 0.75808 0.0
C420 C 0.79758 0.64742 0.6673 0.0
C421 C 0.79928 0.65766 0.59982 0.0
C422 C 0.88114 0.64644 0.70995 0.0
C423 C 0.84249 0.66476 0.59442 0.0
C424 C 0.96457 0.63533 0.73414 0.0
C425 C 0.96275 0.61517 0.8681 0.0
N426 N 0.8818 0.65847 0.64776 0.0
N427 N 0.92482 0.626 0.82396 0.0
H428 H 0.59622 0.85944 0.44682 0.0
H429 H 0.38117 0.84017 0.22554 0.0
H430 H 0.62526 0.87089 0.235 0.0
H431 H 0.4411 0.82216 0.04813 0.0
H432 H 0.45798 0.84177 0.31323 0.0
H433 H 0.53119 0.83624 0.38317 0.0
C434 C 0.58843 0.85734 0.38633 0.0
C435 C 0.61498 0.86791 0.34533 0.0
C436 C 0.45464 0.83653 0.25598 0.0
C437 C 0.53898 0.84204 0.27174 0.0
C438 C 0.41045 0.83566 0.20575 0.0
C439 C 0.40507 0.8319 0.12922 0.0
C440 C 0.49332 0.83366 0.22884 0.0
C441 C 0.4441 0.82597 0.10652 0.0
C442 C 0.55117 0.84404 0.35016 0.0
C443 C 0.60473 0.8636 0.26809 0.0
N444 N 0.48685 0.82774 0.15573 0.0
N445 N 0.56663 0.85134 0.23321 0.0
H446 H 0.67203 0.12821 0.72963 0.0
H447 H 0.40861 0.13418 0.72769 0.0
H448 H 0.62289 0.17747 0.86035 0.0
H449 H 0.47798 0.07598 0.66883 0.0
H450 H 0.48164 0.15492 0.75766 0.0
H451 H 0.59248 0.11637 0.67147 0.0
C452 C 0.64422 0.13741 0.74289 0.0
C453 C 0.65365 0.1532 0.80148 0.0
C454 C 0.48075 0.13753 0.73885 0.0
C455 C 0.5637 0.13921 0.73861 0.0
C456 C 0.43947 0.12553 0.72353 0.0
C457 C 0.43731 0.10343 0.69511 0.0
C458 C 0.51961 0.12724 0.72536 0.0
C459 C 0.47819 0.09307 0.69012 0.0
C460 C 0.59897 0.13025 0.7113 0.0
C461 C 0.61657 0.16476 0.81642 0.0
N462 N 0.51751 0.10519 0.70388 0.0
N463 N 0.57297 0.15698 0.78717 0.0
H464 H 0.60509 0.42198 0.20167 0.0
H465 H 0.42739 0.33109 0.26967 0.0
H466 H 0.62976 0.34998 0.19608 0.0
H467 H 0.40261 0.40321 0.2495 0.0
H468 H 0.50126 0.33674 0.24239 0.0
H469 H 0.53151 0.41459 0.22379 0.0
C470 C 0.59516 0.40456 0.20553 0.0
C471 C 0.62357 0.38656 0.19657 0.0
C472 C 0.47938 0.35125 0.24355 0.0
C473 C 0.53869 0.37793 0.22141 0.0
C474 C 0.43719 0.34803 0.25865 0.0
C475 C 0.40915 0.36674 0.26279 0.0
C476 C 0.49326 0.37329 0.23265 0.0
C477 C 0.4234 0.38831 0.24802 0.0
C478 C 0.5529 0.40034 0.21785 0.0
C479 C 0.60889 0.36435 0.20272 0.0
N480 N 0.46454 0.39098 0.23413 0.0
N481 N 0.5672 0.36063 0.21452 0.0
H482 H 0.48039 0.58797 0.58195 0.0
H483 H 0.25864 0.6434 0.6645 0.0
H484 H 0.46175 0.66012 0.59961 0.0
H485 H 0.28268 0.57153 0.65396 0.0
H486 H 0.32722 0.65032 0.62307 0.0
H487 H 0.40348 0.58213 0.59403 0.0
C488 C 0.46021 0.60263 0.58863 0.0
C489 C 0.47784 0.62458 0.59062 0.0
C490 C 0.31712 0.63305 0.62907 0.0
C491 C 0.38927 0.61796 0.60408 0.0
C492 C 0.27787 0.62909 0.65228 0.0
C493 C 0.26565 0.60687 0.66431 0.0
C494 C 0.34399 0.61463 0.61775 0.0
C495 C 0.29152 0.58895 0.64712 0.0
C496 C 0.41608 0.59927 0.59509 0.0
C497 C 0.4497 0.64289 0.5984 0.0
N498 N 0.32975 0.59324 0.62553 0.0
N499 N 0.40683 0.63915 0.60533 0.0
H500 H 0.87528 0.80942 0.2114 0.0
H501 H 0.15044 0.81637 0.33237 0.0
H502 H 0.95853 0.85746 0.36728 0.0
H503 H 0.07154 0.79504 0.11033 0.0
H504 H 0.07941 0.81757 0.37034 0.0
H505 H 0.94661 0.79222 0.19589 0.0
C506 C 0.90854 0.81615 0.2428 0.0
C507 C 0.91131 0.8351 0.2895 0.0
C508 C 0.07783 0.81188 0.31405 0.0
C509 C 0.99202 0.81521 0.27431 0.0
C510 C 0.11832 0.81093 0.29279 0.0
C511 C 0.11641 0.80549 0.21851 0.0
C512 C 0.03533 0.80767 0.26016 0.0
C513 C 0.07406 0.79909 0.16839 0.0
C514 C 0.94896 0.80633 0.23415 0.0
C515 C 0.95499 0.84315 0.3295 0.0
N516 N 0.03474 0.80075 0.18971 0.0
N517 N 0.99361 0.83317 0.32096 0.0
H518 H 0.20234 0.1817 0.85966 0.0
H519 H 0.93299 0.20406 0.68672 0.0
H520 H 0.12742 0.17716 0.62395 0.0
H521 H 0.00114 0.18704 0.9185 0.0
H522 H 0.0089 0.21024 0.66672 0.0
H523 H 0.13435 0.19964 0.88358 0.0
C524 C 0.17212 0.18532 0.81269 0.0
C525 C 0.16988 0.17796 0.73999 0.0
C526 C 0.00714 0.20589 0.72257 0.0
C527 C 0.09239 0.19788 0.76656 0.0
C528 C 0.96395 0.20252 0.73395 0.0
C529 C 0.96138 0.19491 0.80406 0.0
C530 C 0.04752 0.20152 0.78182 0.0
C531 C 0.00214 0.1928 0.86353 0.0
C532 C 0.13334 0.1954 0.82625 0.0
C533 C 0.13002 0.18262 0.68084 0.0
N534 N 0.04369 0.19575 0.85084 0.0
N535 N 0.09247 0.192 0.69554 0.0
H536 H 0.37928 0.38795 0.70055 0.0
H537 H 0.64233 0.42176 0.77024 0.0
H538 H 0.43345 0.41101 0.52215 0.0
H539 H 0.57489 0.42711 0.94554 0.0
H540 H 0.56702 0.41497 0.67857 0.0
H541 H 0.45222 0.39906 0.79296 0.0
C542 C 0.40631 0.39539 0.68085 0.0
C543 C 0.40016 0.39857 0.60352 0.0
C544 C 0.56873 0.41787 0.73703 0.0
C545 C 0.48348 0.411 0.70833 0.0
C546 C 0.61168 0.42178 0.78928 0.0
C547 C 0.61496 0.42505 0.86561 0.0
C548 C 0.52892 0.41677 0.76153 0.0
C549 C 0.57401 0.42482 0.88717 0.0
C550 C 0.44778 0.4018 0.73349 0.0
C551 C 0.43641 0.40832 0.58115 0.0
N552 N 0.53277 0.42045 0.83559 0.0
N553 N 0.47654 0.41398 0.63313 0.0
H554 H 0.50429 0.56939 0.36821 0.0
H555 H 0.34749 0.58045 0.9449 0.0
H556 H 0.54543 0.6134 0.21341 0.0
H557 H 0.29218 0.57492 0.13419 0.0
H558 H 0.42548 0.58401 0.0332 0.0
H559 H 0.43238 0.56187 0.27157 0.0
C560 C 0.49863 0.57731 0.31356 0.0
C561 C 0.5309 0.59243 0.29956 0.0
C562 C 0.39618 0.58189 0.05501 0.0
C563 C 0.44808 0.58357 0.18823 0.0
C564 C 0.35182 0.5797 0.00497 0.0
C565 C 0.31336 0.57735 0.03245 0.0
C566 C 0.40207 0.5811 0.1328 0.0
C567 C 0.32081 0.57675 0.11066 0.0
C568 C 0.45732 0.57302 0.25856 0.0
C569 C 0.52144 0.60181 0.22695 0.0
N570 N 0.36434 0.57846 0.15809 0.0
N571 N 0.4806 0.59732 0.17383 0.0
H572 H 0.96533 0.90225 0.51984 0.0
H573 H 0.05872 0.88013 0.96306 0.0
H574 H 0.87705 0.89961 0.66579 0.0
H575 H 0.13736 0.8674 0.80604 0.0
H576 H -0.00498 0.89442 0.85892 0.0
H577 H 0.0325 0.89777 0.62978 0.0
C578 C 0.96005 0.90108 0.57508 0.0
C579 C 0.91543 0.90086 0.58356 0.0
C580 C 0.02642 0.88862 0.84758 0.0
C581 C 0.99203 0.89553 0.70919 0.0
C582 C 0.06271 0.88039 0.90684 0.0
C583 C 0.10341 0.87246 0.89318 0.0
C584 C 0.03102 0.88897 0.7744 0.0
C585 C 0.10672 0.87331 0.8193 0.0
C586 C -0.0016 0.89842 0.63774 0.0
C587 C 0.91074 0.89952 0.65656 0.0
N588 N 0.07093 0.88137 0.76264 0.0
N589 N 0.94861 0.89662 0.71665 0.0
H590 H 0.17258 0.10143 0.35654 0.0
H591 H 0.90855 0.13502 0.17214 0.0
H592 H 0.07873 0.11635 0.48722 0.0
H593 H 0.00195 0.11648 0.04401 0.0
H594 H 0.96899 0.12648 0.28815 0.0
H595 H 0.10916 0.10488 0.24181 0.0
C596 C 0.13858 0.10528 0.36126 0.0
C597 C 0.13111 0.1087 0.43171 0.0
C598 C 0.97617 0.12414 0.23466 0.0
C599 C 0.05803 0.1129 0.29999 0.0
C600 C 0.94162 0.12896 0.16832 0.0
C601 C 0.95016 0.1264 0.09824 0.0
C602 C 0.01967 0.11684 0.23087 0.0
C603 C 0.99389 0.11877 0.09679 0.0
C604 C 0.10226 0.10726 0.2955 0.0
C605 C 0.0861 0.11362 0.43408 0.0
N606 N 0.02709 0.11433 0.16224 0.0
N607 N 0.05121 0.11574 0.36896 0.0
H608 H 0.175 0.33442 0.11465 0.0
H609 H 0.33396 0.36317 0.85258 0.0
H610 H 0.25213 0.39619 0.12731 0.0
H611 H 0.22774 0.31229 0.79141 0.0
H612 H 0.31188 0.37098 0.96638 0.0
H613 H 0.19378 0.32458 -0.00141 0.0
C614 C 0.19432 0.34635 0.09154 0.0
C615 C 0.21309 0.36586 0.1322 0.0
C616 C 0.2937 0.35794 0.92833 0.0
C617 C 0.23621 0.35423 0.00154 0.0
C618 C 0.30699 0.35307 0.86398 0.0
C619 C 0.28137 0.33772 0.81016 0.0
C620 C 0.25528 0.34702 0.93997 0.0
C621 C 0.24765 0.32479 0.82985 0.0
C622 C 0.20583 0.34048 0.02615 0.0
C623 C 0.23749 0.38077 0.09897 0.0
N624 N 0.23479 0.33011 0.89232 0.0
N625 N 0.24947 0.37434 0.0368 0.0
H626 H 0.78415 0.44431 0.33939 0.0
H627 H 0.80141 0.36041 0.68122 0.0
H628 H 0.8523 0.37922 0.35529 0.0
H629 H 0.70219 0.41508 0.61568 0.0
H630 H 0.82414 0.36669 0.56672 0.0
H631 H 0.76663 0.43636 0.45687 0.0
C632 C 0.79686 0.42865 0.36865 0.0
C633 C 0.8177 0.41192 0.3352 0.0
C634 C 0.79688 0.37704 0.57702 0.0
C635 C 0.79662 0.40253 0.46858 0.0
C636 C 0.78314 0.37318 0.64157 0.0
C637 C 0.75117 0.38786 0.65992 0.0
C638 C 0.77822 0.39557 0.53069 0.0
C639 C 0.72801 0.40374 0.60539 0.0
C640 C 0.78583 0.42391 0.43493 0.0
C641 C 0.83462 0.39229 0.37746 0.0
N642 N 0.74301 0.40765 0.54436 0.0
N643 N 0.82256 0.38783 0.44109 0.0
H644 H 0.72259 0.66595 0.7872 0.0
H645 H 0.59308 0.63807 0.08964 0.0
H646 H 0.65245 0.60323 0.79687 0.0
H647 H 0.715 0.67978 0.15104 0.0
H648 H 0.60326 0.6329 0.965 0.0
H649 H 0.71673 0.67566 0.9129 0.0
C650 C 0.70766 0.65383 0.81707 0.0
C651 C 0.68732 0.63392 0.7813 0.0
C652 C 0.62735 0.64346 0.00557 0.0
C653 C 0.67847 0.64542 0.92191 0.0
C654 C 0.62101 0.64684 0.07616 0.0
C655 C 0.65434 0.65858 0.13195 0.0
C656 C 0.66658 0.65233 -0.00967 0.0
C657 C 0.68912 0.67006 0.11042 0.0
C658 C 0.70359 0.65958 0.88793 0.0
C659 C 0.66839 0.6188 0.82217 0.0
N660 N 0.6951 0.6662 0.04155 0.0
N661 N 0.66323 0.62516 0.88957 0.0
H662 H 0.13961 0.64149 0.26345 0.0
H663 H 0.16471 0.55523 0.60051 0.0
H664 H 0.23864 0.58654 0.3125 0.0
H665 H 0.08754 0.61787 0.58017 0.0
H666 H 0.19516 0.56765 0.49872 0.0
H667 H 0.12728 0.6361 0.38682 0.0
C668 C 0.1602 0.62889 0.30127 0.0
C669 C 0.18952 0.61418 0.27642 0.0
C670 C 0.17179 0.57874 0.51683 0.0
C671 C 0.17409 0.60728 0.41687 0.0
C672 C 0.15393 0.57156 0.57459 0.0
C673 C 0.12352 0.58553 0.59967 0.0
C674 C 0.15865 0.59993 0.4826 0.0
C675 C 0.11093 0.6065 0.56328 0.0
C676 C 0.15257 0.62557 0.37143 0.0
C677 C 0.2153 0.59819 0.32839 0.0
N678 N 0.12842 0.61299 0.50666 0.0
N679 N 0.20598 0.59474 0.3951 0.0
H680 H 0.69582 0.84655 0.08656 0.0
H681 H 0.81693 0.90379 0.8126 0.0
H682 H 0.74328 0.91567 0.1074 0.0
H683 H 0.70712 0.8561 0.72298 0.0
H684 H 0.80244 0.90113 0.93494 0.0
H685 H 0.70306 0.84551 0.95846 0.0
C686 C 0.70605 0.86178 0.06336 0.0
C687 C 0.72062 0.881 0.10847 0.0
C688 C 0.78199 0.89101 0.88857 0.0
C689 C 0.73058 0.87947 0.96468 0.0
C690 C 0.79094 0.89211 0.8193 0.0
C691 C 0.7624 0.88055 0.75745 0.0
C692 C 0.74488 0.87801 0.8958 0.0
C693 C 0.72925 0.86561 0.76936 0.0
C694 C 0.7109 0.861 -0.00915 0.0
C695 C 0.73304 0.90029 0.07523 0.0
N696 N 0.72077 0.865 0.83729 0.0
N697 N 0.73914 0.89883 0.00592 0.0
H698 H 0.2857 0.80657 0.72472 0.0
H699 H 0.28589 0.8777 0.363 0.0
H700 H 0.20134 0.86593 0.64726 0.0
H701 H 0.32029 0.80648 0.37782 0.0
H702 H 0.27158 0.87541 0.48555 0.0
H703 H 0.30616 0.80598 0.60614 0.0
C704 C 0.27 0.81892 0.68151 0.0
C705 C 0.2424 0.83655 0.69621 0.0
C706 C 0.28293 0.86036 0.46235 0.0
C707 C 0.26741 0.8366 0.56326 0.0
C708 C 0.29216 0.86176 0.39327 0.0
C709 C 0.30258 0.84207 0.35889 0.0
C710 C 0.28508 0.83924 0.49765 0.0
C711 C 0.31124 0.82199 0.40145 0.0
C712 C 0.28242 0.81882 0.61469 0.0
C713 C 0.22294 0.85211 0.63853 0.0
N714 N 0.30115 0.82092 0.46816 0.0
N715 N 0.23684 0.85214 0.57527 0.0
H716 H 0.28583 0.077 0.90448 0.0
H717 H 0.35839 0.12857 0.31409 0.0
H718 H 0.36446 0.13879 0.94779 0.0
H719 H 0.22927 0.0945 0.21321 0.0
H720 H 0.37199 0.13 0.18999 0.0
H721 H 0.28213 0.07745 0.03404 0.0
C722 C 0.30355 0.09028 0.94196 0.0
C723 C 0.32432 0.10823 0.91503 0.0
C724 C 0.34042 0.12259 0.19528 0.0
C725 C 0.31931 0.10907 0.0619 0.0
C726 C 0.33232 0.12199 0.26553 0.0
C727 C 0.29304 0.11101 0.27395 0.0
C728 C 0.30935 0.11182 0.13423 0.0
C729 C 0.26019 0.10294 0.20943 0.0
C730 C 0.30076 0.09072 0.01531 0.0
C731 C 0.34753 0.1248 0.96623 0.0
N732 N 0.26964 0.10302 0.14239 0.0
N733 N 0.34367 0.12509 0.03743 0.0
H734 H 0.73543 0.17705 0.21669 0.0
H735 H 0.80129 0.11635 0.61202 0.0
H736 H 0.855 0.13367 0.3022 0.0
H737 H 0.7395 0.18315 0.58812 0.0
H738 H 0.80174 0.11798 0.48102 0.0
H739 H 0.725 0.17795 0.34287 0.0
C740 C 0.76022 0.16824 0.26228 0.0
C741 C 0.79531 0.15468 0.24857 0.0
C742 C 0.78757 0.13214 0.50445 0.0
C743 C 0.78245 0.15506 0.39054 0.0
C744 C 0.78664 0.1311 0.57869 0.0
C745 C 0.77205 0.15001 0.61159 0.0
C746 C 0.77328 0.15207 0.46312 0.0
C747 C 0.75217 0.16842 0.56526 0.0
C748 C 0.75383 0.16857 0.33372 0.0
C749 C 0.82687 0.14395 0.30975 0.0
N750 N 0.75424 0.16924 0.49319 0.0
N751 N 0.81896 0.1439 0.37789 0.0
H752 H 0.40842 0.17735 0.59937 0.0
H753 H 0.22731 0.27475 0.43131 0.0
H754 H 0.27884 0.16672 0.42921 0.0
H755 H 0.36707 0.28884 0.56228 0.0
H756 H 0.2468 0.2346 0.43241 0.0
H757 H 0.39951 0.21805 0.57691 0.0
C758 C 0.37935 0.18352 0.55417 0.0
C759 C 0.34346 0.16884 0.51789 0.0
C760 C 0.27316 0.24635 0.46197 0.0
C761 C 0.33203 0.21514 0.49443 0.0
C762 C 0.26164 0.26914 0.46319 0.0
C763 C 0.29533 0.28487 0.4987 0.0
C764 C 0.31885 0.23925 0.49638 0.0
C765 C 0.33986 0.27703 0.53642 0.0
C766 C 0.3737 0.2068 0.54274 0.0
C767 C 0.30682 0.17756 0.45954 0.0
N768 N 0.35049 0.25468 0.53408 0.0
N769 N 0.30105 0.20031 0.45156 0.0
H770 H 0.69825 0.33003 0.90286 0.0
H771 H 0.8309 0.21709 0.08152 0.0
H772 H 0.84327 0.32565 0.02226 0.0
H773 H 0.69594 0.21632 0.92001 0.0
H774 H 0.82815 0.25837 0.08143 0.0
H775 H 0.69247 0.28891 0.91414 0.0
C776 C 0.72935 0.3202 0.92774 0.0
C777 C 0.77142 0.33101 0.96083 0.0
C778 C 0.79851 0.24918 0.04746 0.0
C779 C 0.76456 0.28461 0.97876 0.0
C780 C 0.79946 0.22562 0.04954 0.0
C781 C 0.76401 0.21351 -0.00049 0.0
C782 C 0.76154 0.26038 -0.00435 0.0
C783 C 0.72415 0.22528 0.95877 0.0
C784 C 0.72579 0.29689 0.93629 0.0
C785 C 0.81042 0.31775 -0.00498 0.0
N786 N 0.7245 0.2482 0.95566 0.0
N787 N 0.80591 0.29525 0.00444 0.0
H788 H 0.70871 0.70012 0.41527 0.0
H789 H 0.65656 0.82946 0.47931 0.0
H790 H 0.5749 0.72289 0.42572 0.0
H791 H 0.79316 0.80055 0.53337 0.0
H792 H 0.62393 0.79137 0.46001 0.0
H793 H 0.73777 0.73859 0.44387 0.0
C794 C 0.68491 0.71344 0.42015 0.0
C795 C 0.63936 0.7084 0.41801 0.0
C796 C 0.66112 0.7933 0.47833 0.0
C797 C 0.67275 0.75208 0.45431 0.0
C798 C 0.67969 0.81502 0.49129 0.0
C799 C 0.72744 0.81807 0.50723 0.0
C800 C 0.69087 0.77471 0.48139 0.0
C801 C 0.75607 0.79884 0.52124 0.0
C802 C 0.70181 0.73525 0.43865 0.0
C803 C 0.61024 0.7262 0.42664 0.0
N804 N 0.73737 0.77796 0.50574 0.0
N805 N 0.62756 0.74724 0.44534 0.0
H806 H 0.32315 0.75916 0.02027 0.0
H807 H 0.10108 0.68357 0.84562 0.0
H808 H 0.19697 0.78513 0.86789 0.0
H809 H 0.22434 0.65994 0.01192 0.0
H810 H 0.13663 0.72056 0.8469 0.0
H811 H 0.2923 0.72095 -0.00154 0.0
C812 C 0.28988 0.75663 -0.02102 0.0
C813 C 0.26192 0.77522 0.94741 0.0
C814 C 0.15569 0.7074 0.88394 0.0
C815 C 0.22558 0.73202 0.92523 0.0
C816 C 0.13501 0.68649 0.88453 0.0
C817 C 0.15988 0.66876 0.92877 0.0
C818 C 0.20155 0.71052 0.92782 0.0
C819 C 0.20385 0.67324 0.97753 0.0
C820 C 0.27173 0.73491 0.96819 0.0
C821 C 0.21927 0.77117 0.89414 0.0
N822 N 0.22364 0.69364 0.9749 0.0
N823 N 0.20157 0.74998 0.88659 0.0
loop_
_geom_bond_atom_site_label_1
_geom_bond_atom_site_label_2
_geom_bond_distance
_geom_bond_site_symmetry_2
_ccdc_geom_bond_type
C0 O27 1.312 . S
C0 O28 1.208 . S
C1 O22 1.331 . S
C1 O25 1.244 . S
C2 O24 1.264 . S
C2 O26 1.273 . S
Mg3 O5 1.936 . S
Mg3 O12 2.081 . S
Mg3 O14 2.023 . S
Mg3 O18 2.031 . S
Mg3 O27 2.291 . S
Mg4 O5 1.963 . S
Mg4 O15 1.942 . S
Mg4 O16 1.955 . S
Mg4 O23 1.986 . S
O5 Mg3 1.936 . S
O5 Mg4 1.963 . S
O5 Mg6 1.915 . S
Mg6 O5 1.915 . S
Mg6 O7 1.915 . S
Mg6 O11 2.013 . S
Mg6 O17 2.114 . S
Mg6 O21 2.013 . S
Mg6 O27 2.114 . S
O7 Mg6 1.915 . S
O7 Mg8 1.936 . S
O7 Mg9 1.963 . S
Mg8 O7 1.936 . S
Mg8 O17 2.291 . S
Mg8 O22 2.081 . S
Mg8 O24 2.023 . S
Mg8 O28 2.031 . S
Mg9 O7 1.963 . S
Mg9 O13 1.986 . S
Mg9 O25 1.942 . S
Mg9 O26 1.955 . S
C10 O21 1.191 . S
C10 O23 1.307 . S
O11 Mg6 2.013 . S
O11 C30 1.191 . S
O12 Mg3 2.081 . S
O12 C20 1.331 . S
O13 Mg9 1.986 . S
O13 C30 1.307 . S
O14 Mg3 2.023 . S
O14 C29 1.264 . S
O15 Mg4 1.942 . S
O15 C20 1.244 . S
O16 Mg4 1.955 . S
O16 C29 1.273 . S
O17 Mg6 2.114 . S
O17 Mg8 2.291 . S
O17 C19 1.312 . S
O18 Mg3 2.031 . S
O18 C19 1.208 . S
C19 O17 1.312 . S
C19 O18 1.208 . S
C20 O12 1.331 . S
C20 O15 1.244 . S
O21 Mg6 2.013 . S
O21 C10 1.191 . S
O22 C1 1.331 . S
O22 Mg8 2.081 . S
O23 Mg4 1.986 . S
O23 C10 1.307 . S
O24 C2 1.264 . S
O24 Mg8 2.023 . S
O25 C1 1.244 . S
O25 Mg9 1.942 . S
O26 C2 1.273 . S
O26 Mg9 1.955 . S
O27 C0 1.312 . S
O27 Mg3 2.291 . S
O27 Mg6 2.114 . S
O28 C0 1.208 . S
O28 Mg8 2.031 . S
C29 O14 1.264 . S
C29 O16 1.273 . S
C30 O11 1.191 . S
C30 O13 1.307 . S
C31 O58 1.312 . S
C31 O59 1.208 1_556 S
C32 O53 1.331 . S
C32 O56 1.244 . S
C33 O55 1.264 . S
C33 O57 1.273 . S
Mg34 O36 1.936 . S
Mg34 O43 2.081 . S
Mg34 O45 2.023 . S
Mg34 O49 2.031 1_556 S
Mg34 O58 2.291 . S
Mg35 O36 1.963 . S
Mg35 O46 1.942 . S
Mg35 O47 1.955 . S
Mg35 O54 1.986 1_556 S
O36 Mg34 1.936 . S
O36 Mg35 1.963 . S
O36 Mg37 1.915 1_556 S
Mg37 O36 1.915 1_554 S
Mg37 O38 1.915 . S
Mg37 O42 2.013 1_554 S
Mg37 O48 2.114 . S
Mg37 O52 2.013 . S
Mg37 O58 2.114 1_554 S
O38 Mg37 1.915 . S
O38 Mg39 1.936 . S
O38 Mg40 1.963 . S
Mg39 O38 1.936 . S
Mg39 O48 2.291 . S
Mg39 O53 2.081 . S
Mg39 O55 2.023 . S
Mg39 O59 2.031 . S
Mg40 O38 1.963 . S
Mg40 O44 1.986 . S
Mg40 O56 1.942 . S
Mg40 O57 1.955 . S
C41 O52 1.191 . S
C41 O54 1.307 . S
O42 Mg37 2.013 1_556 S
O42 C61 1.191 1_556 S
O43 Mg34 2.081 . S
O43 C51 1.331 . S
O44 Mg40 1.986 . S
O44 C61 1.307 . S
O45 Mg34 2.023 . S
O45 C60 1.264 . S
O46 Mg35 1.942 . S
O46 C51 1.244 . S
O47 Mg35 1.955 . S
O47 C60 1.273 . S
O48 Mg37 2.114 . S
O48 Mg39 2.291 . S
O48 C50 1.312 . S
O49 Mg34 2.031 1_554 S
O49 C50 1.208 . S
C50 O48 1.312 . S
C50 O49 1.208 . S
C51 O43 1.331 . S
C51 O46 1.244 . S
O52 Mg37 2.013 . S
O52 C41 1.191 . S
O53 C32 1.331 . S
O53 Mg39 2.081 . S
O54 Mg35 1.986 1_554 S
O54 C41 1.307 . S
O55 C33 1.264 . S
O55 Mg39 2.023 . S
O56 C32 1.244 . S
O56 Mg40 1.942 . S
O57 C33 1.273 . S
O57 Mg40 1.955 . S
O58 C31 1.312 . S
O58 Mg34 2.291 . S
O58 Mg37 2.114 1_556 S
O59 C31 1.208 1_554 S
O59 Mg39 2.031 . S
C60 O45 1.264 . S
C60 O47 1.273 . S
C61 O42 1.191 1_554 S
C61 O44 1.307 . S
C62 O89 1.312 . S
C62 O90 1.208 . S
C63 O84 1.331 . S
C63 O87 1.244 . S
C64 O86 1.264 . S
C64 O88 1.273 . S
Mg65 O67 1.936 . S
Mg65 O74 2.081 . S
Mg65 O76 2.023 . S
Mg65 O80 2.031 . S
Mg65 O89 2.291 . S
Mg66 O67 1.963 . S
Mg66 O77 1.942 . S
Mg66 O78 1.955 . S
Mg66 O85 1.986 . S
O67 Mg65 1.936 . S
O67 Mg66 1.963 . S
O67 Mg68 1.915 . S
Mg68 O67 1.915 . S
Mg68 O69 1.915 . S
Mg68 O73 2.013 . S
Mg68 O79 2.114 . S
Mg68 O83 2.013 . S
Mg68 O89 2.114 . S
O69 Mg68 1.915 . S
O69 Mg70 1.936 . S
O69 Mg71 1.963 . S
Mg70 O69 1.936 . S
Mg70 O79 2.291 . S
Mg70 O84 2.081 . S
Mg70 O86 2.023 . S
Mg70 O90 2.031 . S
Mg71 O69 1.963 . S
Mg71 O75 1.986 . S
Mg71 O87 1.942 . S
Mg71 O88 1.955 . S
C72 O83 1.191 . S
C72 O85 1.307 . S
O73 Mg68 2.013 . S
O73 C92 1.191 . S
O74 Mg65 2.081 . S
O74 C82 1.331 . S
O75 Mg71 1.986 . S
O75 C92 1.307 . S
O76 Mg65 2.023 . S
O76 C91 1.264 . S
O77 Mg66 1.942 . S
O77 C82 1.244 . S
O78 Mg66 1.955 . S
O78 C91 1.273 . S
O79 Mg68 2.114 . S
O79 Mg70 2.291 . S
O79 C81 1.312 . S
O80 Mg65 2.031 . S
O80 C81 1.208 . S
C81 O79 1.312 . S
C81 O80 1.208 . S
C82 O74 1.331 . S
C82 O77 1.244 . S
O83 Mg68 2.013 . S
O83 C72 1.191 . S
O84 C63 1.331 . S
O84 Mg70 2.081 . S
O85 Mg66 1.986 . S
O85 C72 1.307 . S
O86 C64 1.264 . S
O86 Mg70 2.023 . S
O87 C63 1.244 . S
O87 Mg71 1.942 . S
O88 C64 1.273 . S
O88 Mg71 1.955 . S
O89 C62 1.312 . S
O89 Mg65 2.291 . S
O89 Mg68 2.114 . S
O90 C62 1.208 . S
O90 Mg70 2.031 . S
C91 O76 1.264 . S
C91 O78 1.273 . S
C92 O73 1.191 . S
C92 O75 1.307 . S
C93 O120 1.312 . S
C93 O121 1.208 1_554 S
C94 O115 1.331 . S
C94 O118 1.244 . S
C95 O117 1.264 . S
C95 O119 1.273 . S
Mg96 O98 1.936 . S
Mg96 O105 2.081 . S
Mg96 O107 2.023 . S
Mg96 O111 2.031 1_554 S
Mg96 O120 2.291 . S
Mg97 O98 1.963 . S
Mg97 O108 1.942 . S
Mg97 O109 1.955 . S
Mg97 O116 1.986 1_554 S
O98 Mg96 1.936 . S
O98 Mg97 1.963 . S
O98 Mg99 1.915 1_554 S
Mg99 O98 1.915 1_556 S
Mg99 O100 1.915 . S
Mg99 O104 2.013 1_556 S
Mg99 O110 2.114 . S
Mg99 O114 2.013 . S
Mg99 O120 2.114 1_556 S
O100 Mg99 1.915 . S
O100 Mg101 1.936 . S
O100 Mg102 1.963 . S
Mg101 O100 1.936 . S
Mg101 O110 2.291 . S
Mg101 O115 2.081 . S
Mg101 O117 2.023 . S
Mg101 O121 2.031 . S
Mg102 O100 1.963 . S
Mg102 O106 1.986 . S
Mg102 O118 1.942 . S
Mg102 O119 1.955 . S
C103 O114 1.191 . S
C103 O116 1.307 . S
O104 Mg99 2.013 1_554 S
O104 C123 1.191 1_554 S
O105 Mg96 2.081 . S
O105 C113 1.331 . S
O106 Mg102 1.986 . S
O106 C123 1.307 . S
O107 Mg96 2.023 . S
O107 C122 1.264 . S
O108 Mg97 1.942 . S
O108 C113 1.244 . S
O109 Mg97 1.955 . S
O109 C122 1.273 . S
O110 Mg99 2.114 . S
O110 Mg101 2.291 . S
O110 C112 1.312 . S
O111 Mg96 2.031 1_556 S
O111 C112 1.208 . S
C112 O110 1.312 . S
C112 O111 1.208 . S
C113 O105 1.331 . S
C113 O108 1.244 . S
O114 Mg99 2.013 . S
O114 C103 1.191 . S
O115 C94 1.331 . S
O115 Mg101 2.081 . S
O116 Mg97 1.986 1_556 S
O116 C103 1.307 . S
O117 C95 1.264 . S
O117 Mg101 2.023 . S
O118 C94 1.244 . S
O118 Mg102 1.942 . S
O119 C95 1.273 . S
O119 Mg102 1.955 . S
O120 C93 1.312 . S
O120 Mg96 2.291 . S
O120 Mg99 2.114 1_554 S
O121 C93 1.208 1_556 S
O121 Mg101 2.031 . S
C122 O107 1.264 . S
C122 O109 1.273 . S
C123 O104 1.191 1_556 S
C123 O106 1.307 . S
C124 O151 1.312 . S
C124 O152 1.208 . S
C125 O146 1.331 . S
C125 O149 1.244 . S
C126 O148 1.264 . S
C126 O150 1.273 . S
Mg127 O129 1.936 . S
Mg127 O136 2.081 . S
Mg127 O138 2.023 . S
Mg127 O142 2.031 . S
Mg127 O151 2.291 . S
Mg128 O129 1.963 . S
Mg128 O139 1.942 . S
Mg128 O140 1.955 . S
Mg128 O147 1.986 . S
O129 Mg127 1.936 . S
O129 Mg128 1.963 . S
O129 Mg130 1.915 . S
Mg130 O129 1.915 . S
Mg130 O131 1.915 . S
Mg130 O135 2.013 . S
Mg130 O141 2.114 . S
Mg130 O145 2.013 . S
Mg130 O151 2.114 . S
O131 Mg130 1.915 . S
O131 Mg132 1.936 . S
O131 Mg133 1.963 . S
Mg132 O131 1.936 . S
Mg132 O141 2.291 . S
Mg132 O146 2.081 . S
Mg132 O148 2.023 . S
Mg132 O152 2.031 . S
Mg133 O131 1.963 . S
Mg133 O137 1.986 . S
Mg133 O149 1.942 . S
Mg133 O150 1.955 . S
C134 O145 1.191 . S
C134 O147 1.307 . S
O135 Mg130 2.013 . S
O135 C154 1.191 . S
O136 Mg127 2.081 . S
O136 C144 1.331 . S
O137 Mg133 1.986 . S
O137 C154 1.307 . S
O138 Mg127 2.023 . S
O138 C153 1.264 . S
O139 Mg128 1.942 . S
O139 C144 1.244 . S
O140 Mg128 1.955 . S
O140 C153 1.273 . S
O141 Mg130 2.114 . S
O141 Mg132 2.291 . S
O141 C143 1.312 . S
O142 Mg127 2.031 . S
O142 C143 1.208 . S
C143 O141 1.312 . S
C143 O142 1.208 . S
C144 O136 1.331 . S
C144 O139 1.244 . S
O145 Mg130 2.013 . S
O145 C134 1.191 . S
O146 C125 1.331 . S
O146 Mg132 2.081 . S
O147 Mg128 1.986 . S
O147 C134 1.307 . S
O148 C126 1.264 . S
O148 Mg132 2.023 . S
O149 C125 1.244 . S
O149 Mg133 1.942 . S
O150 C126 1.273 . S
O150 Mg133 1.955 . S
O151 C124 1.312 . S
O151 Mg127 2.291 . S
O151 Mg130 2.114 . S
O152 C124 1.208 . S
O152 Mg132 2.031 . S
C153 O138 1.264 . S
C153 O140 1.273 . S
C154 O135 1.191 . S
C154 O137 1.307 . S
C155 O182 1.312 . S
C155 O183 1.208 1_556 S
C156 O177 1.331 . S
C156 O180 1.244 . S
C157 O179 1.264 . S
C157 O181 1.273 . S
Mg158 O160 1.936 . S
Mg158 O167 2.081 . S
Mg158 O169 2.023 . S
Mg158 O173 2.031 1_556 S
Mg158 O182 2.291 . S
Mg159 O160 1.963 . S
Mg159 O170 1.942 . S
Mg159 O171 1.955 . S
Mg159 O178 1.986 1_556 S
O160 Mg158 1.936 . S
O160 Mg159 1.963 . S
O160 Mg161 1.915 1_556 S
Mg161 O160 1.915 1_554 S
Mg161 O162 1.915 . S
Mg161 O166 2.013 1_554 S
Mg161 O172 2.114 . S
Mg161 O176 2.013 . S
Mg161 O182 2.114 1_554 S
O162 Mg161 1.915 . S
O162 Mg163 1.936 . S
O162 Mg164 1.963 . S
Mg163 O162 1.936 . S
Mg163 O172 2.291 . S
Mg163 O177 2.081 . S
Mg163 O179 2.023 . S
Mg163 O183 2.031 . S
Mg164 O162 1.963 . S
Mg164 O168 1.986 . S
Mg164 O180 1.942 . S
Mg164 O181 1.955 . S
C165 O176 1.191 . S
C165 O178 1.307 . S
O166 Mg161 2.013 1_556 S
O166 C185 1.191 1_556 S
O167 Mg158 2.081 . S
O167 C175 1.331 . S
O168 Mg164 1.986 . S
O168 C185 1.307 . S
O169 Mg158 2.023 . S
O169 C184 1.264 . S
O170 Mg159 1.942 . S
O170 C175 1.244 . S
O171 Mg159 1.955 . S
O171 C184 1.273 . S
O172 Mg161 2.114 . S
O172 Mg163 2.291 . S
O172 C174 1.312 . S
O173 Mg158 2.031 1_554 S
O173 C174 1.208 . S
C174 O172 1.312 . S
C174 O173 1.208 . S
C175 O167 1.331 . S
C175 O170 1.244 . S
O176 Mg161 2.013 . S
O176 C165 1.191 . S
O177 C156 1.331 . S
O177 Mg163 2.081 . S
O178 Mg159 1.986 1_554 S
O178 C165 1.307 . S
O179 C157 1.264 . S
O179 Mg163 2.023 . S
O180 C156 1.244 . S
O180 Mg164 1.942 . S
O181 C157 1.273 . S
O181 Mg164 1.955 . S
O182 C155 1.312 . S
O182 Mg158 2.291 . S
O182 Mg161 2.114 1_556 S
O183 C155 1.208 1_554 S
O183 Mg163 2.031 . S
C184 O169 1.264 . S
C184 O171 1.273 . S
C185 O166 1.191 1_554 S
C185 O168 1.307 . S
C186 O213 1.312 . S
C186 O214 1.208 . S
C187 O208 1.331 . S
C187 O211 1.244 . S
C188 O210 1.264 . S
C188 O212 1.273 . S
Mg189 O191 1.936 . S
Mg189 O198 2.081 . S
Mg189 O200 2.023 . S
Mg189 O204 2.031 . S
Mg189 O213 2.291 . S
Mg190 O191 1.963 . S
Mg190 O201 1.942 . S
Mg190 O202 1.955 . S
Mg190 O209 1.986 . S
O191 Mg189 1.936 . S
O191 Mg190 1.963 . S
O191 Mg192 1.915 . S
Mg192 O191 1.915 . S
Mg192 O193 1.915 . S
Mg192 O197 2.013 . S
Mg192 O203 2.114 . S
Mg192 O207 2.013 . S
Mg192 O213 2.114 . S
O193 Mg192 1.915 . S
O193 Mg194 1.936 . S
O193 Mg195 1.963 . S
Mg194 O193 1.936 . S
Mg194 O203 2.291 . S
Mg194 O208 2.081 . S
Mg194 O210 2.023 . S
Mg194 O214 2.031 . S
Mg195 O193 1.963 . S
Mg195 O199 1.986 . S
Mg195 O211 1.942 . S
Mg195 O212 1.955 . S
C196 O207 1.191 . S
C196 O209 1.307 . S
O197 Mg192 2.013 . S
O197 C216 1.191 . S
O198 Mg189 2.081 . S
O198 C206 1.331 . S
O199 Mg195 1.986 . S
O199 C216 1.307 . S
O200 Mg189 2.023 . S
O200 C215 1.264 . S
O201 Mg190 1.942 . S
O201 C206 1.244 . S
O202 Mg190 1.955 . S
O202 C215 1.273 . S
O203 Mg192 2.114 . S
O203 Mg194 2.291 . S
O203 C205 1.312 . S
O204 Mg189 2.031 . S
O204 C205 1.208 . S
C205 O203 1.312 . S
C205 O204 1.208 . S
C206 O198 1.331 . S
C206 O201 1.244 . S
O207 Mg192 2.013 . S
O207 C196 1.191 . S
O208 C187 1.331 . S
O208 Mg194 2.081 . S
O209 Mg190 1.986 . S
O209 C196 1.307 . S
O210 C188 1.264 . S
O210 Mg194 2.023 . S
O211 C187 1.244 . S
O211 Mg195 1.942 . S
O212 C188 1.273 . S
O212 Mg195 1.955 . S
O213 C186 1.312 . S
O213 Mg189 2.291 . S
O213 Mg192 2.114 . S
O214 C186 1.208 . S
O214 Mg194 2.031 . S
C215 O200 1.264 . S
C215 O202 1.273 . S
C216 O197 1.191 . S
C216 O199 1.307 . S
C217 O244 1.312 . S
C217 O245 1.208 1_554 S
C218 O239 1.331 . S
C218 O242 1.244 . S
C219 O241 1.264 . S
C219 O243 1.273 . S
Mg220 O222 1.936 . S
Mg220 O229 2.081 . S
Mg220 O231 2.023 . S
Mg220 O235 2.031 1_554 S
Mg220 O244 2.291 . S
Mg221 O222 1.963 . S
Mg221 O232 1.942 . S
Mg221 O233 1.955 . S
Mg221 O240 1.986 1_554 S
O222 Mg220 1.936 . S
O222 Mg221 1.963 . S
O222 Mg223 1.915 1_554 S
Mg223 O222 1.915 1_556 S
Mg223 O224 1.915 . S
Mg223 O228 2.013 1_556 S
Mg223 O234 2.114 . S
Mg223 O238 2.013 . S
Mg223 O244 2.114 1_556 S
O224 Mg223 1.915 . S
O224 Mg225 1.936 . S
O224 Mg226 1.963 . S
Mg225 O224 1.936 . S
Mg225 O234 2.291 . S
Mg225 O239 2.081 . S
Mg225 O241 2.023 . S
Mg225 O245 2.031 . S
Mg226 O224 1.963 . S
Mg226 O230 1.986 . S
Mg226 O242 1.942 . S
Mg226 O243 1.955 . S
C227 O238 1.191 . S
C227 O240 1.307 . S
O228 Mg223 2.013 1_554 S
O228 C247 1.191 1_554 S
O229 Mg220 2.081 . S
O229 C237 1.331 . S
O230 Mg226 1.986 . S
O230 C247 1.307 . S
O231 Mg220 2.023 . S
O231 C246 1.264 . S
O232 Mg221 1.942 . S
O232 C237 1.244 . S
O233 Mg221 1.955 . S
O233 C246 1.273 . S
O234 Mg223 2.114 . S
O234 Mg225 2.291 . S
O234 C236 1.312 . S
O235 Mg220 2.031 1_556 S
O235 C236 1.208 . S
C236 O234 1.312 . S
C236 O235 1.208 . S
C237 O229 1.331 . S
C237 O232 1.244 . S
O238 Mg223 2.013 . S
O238 C227 1.191 . S
O239 C218 1.331 . S
O239 Mg225 2.081 . S
O240 Mg221 1.986 1_556 S
O240 C227 1.307 . S
O241 C219 1.264 . S
O241 Mg225 2.023 . S
O242 C218 1.244 . S
O242 Mg226 1.942 . S
O243 C219 1.273 . S
O243 Mg226 1.955 . S
O244 C217 1.312 . S
O244 Mg220 2.291 . S
O244 Mg223 2.114 1_554 S
O245 C217 1.208 1_556 S
O245 Mg225 2.031 . S
C246 O231 1.264 . S
C246 O233 1.273 . S
C247 O228 1.191 1_556 S
C247 O230 1.307 . S
H248 C254 0.930 . S
H249 C258 0.930 . S
H250 C263 0.929 . S
H251 C261 0.929 . S
H252 C256 0.929 . S
H253 C262 0.929 . S
C254 H248 0.930 . S
C254 C255 1.367 . S
C254 C262 1.378 . S
C255 C254 1.367 . S
C255 C263 1.433 . S
C256 H252 0.929 . S
C256 C258 1.378 . S
C256 C260 1.350 . S
C257 C260 1.463 . S
C257 C262 1.350 . S
C257 N265 1.427 . S
C258 H249 0.930 . S
C258 C256 1.378 . S
C258 C259 1.367 . S
C259 C258 1.367 . S
C259 C261 1.433 . S
C260 C256 1.350 . S
C260 C257 1.463 . S
C260 N264 1.427 . S
C261 H251 0.929 . S
C261 C259 1.433 . S
C261 N264 1.384 . S
C262 H253 0.929 . S
C262 C254 1.378 . S
C262 C257 1.350 . S
C263 H250 0.929 . S
C263 C255 1.433 . S
C263 N265 1.384 . S
N264 C260 1.427 . S
N264 C261 1.384 . S
N265 C257 1.427 . S
N265 C263 1.384 . S
H266 C272 0.930 . S
H267 C276 0.930 . S
H268 C281 0.929 . S
H269 C279 0.929 . S
H270 C274 0.929 . S
H271 C280 0.929 . S
C272 H266 0.930 . S
C272 C273 1.367 . S
C272 C280 1.378 . S
C273 C272 1.367 . S
C273 C281 1.433 . S
C274 H270 0.929 . S
C274 C276 1.378 . S
C274 C278 1.350 . S
C275 C278 1.463 . S
C275 C280 1.350 . S
C275 N283 1.427 . S
C276 H267 0.930 . S
C276 C274 1.378 . S
C276 C277 1.367 . S
C277 C276 1.367 . S
C277 C279 1.433 . S
C278 C274 1.350 . S
C278 C275 1.463 . S
C278 N282 1.427 . S
C279 H269 0.929 . S
C279 C277 1.433 . S
C279 N282 1.384 . S
C280 H271 0.929 . S
C280 C272 1.378 . S
C280 C275 1.350 . S
C281 H268 0.929 . S
C281 C273 1.433 . S
C281 N283 1.384 . S
N282 C278 1.427 . S
N282 C279 1.384 . S
N283 C275 1.427 . S
N283 C281 1.384 . S
H284 C290 0.930 . S
H285 C294 0.930 . S
H286 C299 0.929 . S
H287 C297 0.929 . S
H288 C292 0.929 . S
H289 C298 0.929 . S
C290 H284 0.930 . S
C290 C291 1.367 . S
C290 C298 1.378 . S
C291 C290 1.367 . S
C291 C299 1.433 . S
C292 H288 0.929 . S
C292 C294 1.378 . S
C292 C296 1.350 . S
C293 C296 1.463 . S
C293 C298 1.350 . S
C293 N301 1.427 . S
C294 H285 0.930 . S
C294 C292 1.378 . S
C294 C295 1.367 . S
C295 C294 1.367 . S
C295 C297 1.433 . S
C296 C292 1.350 . S
C296 C293 1.463 . S
C296 N300 1.427 . S
C297 H287 0.929 . S
C297 C295 1.433 . S
C297 N300 1.384 . S
C298 H289 0.929 . S
C298 C290 1.378 . S
C298 C293 1.350 . S
C299 H286 0.929 . S
C299 C291 1.433 . S
C299 N301 1.384 . S
N300 C296 1.427 . S
N300 C297 1.384 . S
N301 C293 1.427 . S
N301 C299 1.384 . S
H302 C308 0.930 . S
H303 C312 0.930 . S
H304 C317 0.929 . S
H305 C315 0.929 . S
H306 C310 0.929 . S
H307 C316 0.929 . S
C308 H302 0.930 . S
C308 C309 1.367 . S
C308 C316 1.378 . S
C309 C308 1.367 . S
C309 C317 1.433 . S
C310 H306 0.929 . S
C310 C312 1.378 . S
C310 C314 1.350 . S
C311 C314 1.463 . S
C311 C316 1.350 . S
C311 N319 1.427 . S
C312 H303 0.930 . S
C312 C310 1.378 . S
C312 C313 1.367 . S
C313 C312 1.367 . S
C313 C315 1.433 . S
C314 C310 1.350 . S
C314 C311 1.463 . S
C314 N318 1.427 . S
C315 H305 0.929 . S
C315 C313 1.433 . S
C315 N318 1.384 . S
C316 H307 0.929 . S
C316 C308 1.378 . S
C316 C311 1.350 . S
C317 H304 0.929 . S
C317 C309 1.433 . S
C317 N319 1.384 . S
N318 C314 1.427 . S
N318 C315 1.384 . S
N319 C311 1.427 . S
N319 C317 1.384 . S
H320 C326 0.930 . S
H321 C330 0.930 . S
H322 C335 0.929 . S
H323 C333 0.929 . S
H324 C328 0.895 1_545 S
H325 C334 0.929 1_565 S
C326 H320 0.930 . S
C326 C327 1.367 . S
C326 C334 1.378 . S
C327 C326 1.367 . S
C327 C335 1.433 . S
C328 H324 0.895 1_565 S
C328 C330 1.378 . S
C328 C332 1.350 . S
C329 C332 1.463 1_545 S
C329 C334 1.350 . S
C329 N337 1.427 . S
C330 H321 0.930 . S
C330 C328 1.378 . S
C330 C331 1.367 . S
C331 C330 1.367 . S
C331 C333 1.433 . S
C332 C328 1.350 . S
C332 C329 1.463 1_565 S
C332 N336 1.427 . S
C333 H323 0.929 . S
C333 C331 1.433 . S
C333 N336 1.384 . S
C334 H325 0.929 1_545 S
C334 C326 1.378 . S
C334 C329 1.350 . S
C335 H322 0.929 . S
C335 C327 1.433 . S
C335 N337 1.384 . S
N336 C332 1.427 . S
N336 C333 1.384 . S
N337 C329 1.427 . S
N337 C335 1.384 . S
H338 C344 0.930 . S
H339 C348 0.930 . S
H340 C353 0.929 . S
H341 C351 0.929 . S
H342 C346 0.929 1_545 S
H343 C352 0.929 1_565 S
C344 H338 0.930 . S
C344 C345 1.367 . S
C344 C352 1.378 . S
C345 C344 1.367 . S
C345 C353 1.433 . S
C346 H342 0.929 1_565 S
C346 C348 1.378 . S
C346 C350 1.350 . S
C347 C350 1.463 1_545 S
C347 C352 1.350 . S
C347 N355 1.427 . S
C348 H339 0.930 . S
C348 C346 1.378 . S
C348 C349 1.367 . S
C349 C348 1.367 . S
C349 C351 1.433 . S
C350 C346 1.350 . S
C350 C347 1.463 1_565 S
C350 N354 1.427 . S
C351 H341 0.929 . S
C351 C349 1.433 . S
C351 N354 1.384 . S
C352 H343 0.929 1_545 S
C352 C344 1.378 . S
C352 C347 1.350 . S
C353 H340 0.929 . S
C353 C345 1.433 . S
C353 N355 1.384 . S
N354 C350 1.427 . S
N354 C351 1.384 . S
N355 C347 1.427 . S
N355 C353 1.384 . S
H356 C362 0.930 . S
H357 C366 0.930 . S
H358 C371 0.929 . S
H359 C369 0.929 . S
H360 C364 0.929 1_565 S
H361 C370 0.929 1_545 S
C362 H356 0.930 . S
C362 C363 1.367 . S
C362 C370 1.378 . S
C363 C362 1.367 . S
C363 C371 1.433 . S
C364 H360 0.929 1_545 S
C364 C366 1.378 . S
C364 C368 1.350 . S
C365 C368 1.463 1_565 S
C365 C370 1.350 . S
C365 N373 1.427 . S
C366 H357 0.930 . S
C366 C364 1.378 . S
C366 C367 1.367 . S
C367 C366 1.367 . S
C367 C369 1.433 . S
C368 C364 1.350 . S
C368 C365 1.463 1_545 S
C368 N372 1.427 . S
C369 H359 0.929 . S
C369 C367 1.433 . S
C369 N372 1.384 . S
C370 H361 0.929 1_565 S
C370 C362 1.378 . S
C370 C365 1.350 . S
C371 H358 0.929 . S
C371 C363 1.433 . S
C371 N373 1.384 . S
N372 C368 1.427 . S
N372 C369 1.384 . S
N373 C365 1.427 . S
N373 C371 1.384 . S
H374 C380 0.930 . S
H375 C384 0.930 . S
H376 C389 0.929 . S
H377 C387 0.929 . S
H378 C382 0.929 1_565 S
H379 C388 0.929 1_545 S
C380 H374 0.930 . S
C380 C381 1.367 . S
C380 C388 1.378 . S
C381 C380 1.367 . S
C381 C389 1.433 . S
C382 H378 0.929 1_545 S
C382 C384 1.378 . S
C382 C386 1.350 . S
C383 C386 1.463 1_565 S
C383 C388 1.350 . S
C383 N391 1.427 . S
C384 H375 0.930 . S
C384 C382 1.378 . S
C384 C385 1.367 . S
C385 C384 1.367 . S
C385 C387 1.433 . S
C386 C382 1.350 . S
C386 C383 1.463 1_545 S
C386 N390 1.427 . S
C387 H377 0.929 . S
C387 C385 1.433 . S
C387 N390 1.384 . S
C388 H379 0.929 1_565 S
C388 C380 1.378 . S
C388 C383 1.350 . S
C389 H376 0.929 . S
C389 C381 1.433 . S
C389 N391 1.384 . S
N390 C386 1.427 . S
N390 C387 1.384 . S
N391 C383 1.427 . S
N391 C389 1.384 . S
H392 C398 0.930 . S
H393 C402 0.930 . S
H394 C407 0.929 . S
H395 C405 0.929 . S
H396 C400 0.929 . S
H397 C406 0.929 . S
C398 H392 0.930 . S
C398 C399 1.367 . S
C398 C406 1.378 . S
C399 C398 1.367 . S
C399 C407 1.433 . S
C400 H396 0.929 . S
C400 C402 1.378 . S
C400 C404 1.350 . S
C401 C404 1.463 1_655 S
C401 C406 1.350 . S
C401 N409 1.427 . S
C402 H393 0.930 . S
C402 C400 1.378 . S
C402 C403 1.367 . S
C403 C402 1.367 . S
C403 C405 1.433 . S
C404 C400 1.350 . S
C404 C401 1.463 1_455 S
C404 N408 1.427 . S
C405 H395 0.929 . S
C405 C403 1.433 . S
C405 N408 1.384 . S
C406 H397 0.929 . S
C406 C398 1.378 . S
C406 C401 1.350 . S
C407 H394 0.929 . S
C407 C399 1.433 . S
C407 N409 1.384 . S
N408 C404 1.427 . S
N408 C405 1.384 . S
N409 C401 1.427 . S
N409 C407 1.384 . S
H410 C416 0.930 . S
H411 C420 0.930 . S
H412 C425 0.929 . S
H413 C423 0.929 . S
H414 C418 0.929 . S
H415 C424 0.929 . S
C416 H410 0.930 . S
C416 C417 1.367 . S
C416 C424 1.378 . S
C417 C416 1.367 . S
C417 C425 1.433 . S
C418 H414 0.929 . S
C418 C420 1.378 . S
C418 C422 1.350 . S
C419 C422 1.463 1_455 S
C419 C424 1.350 . S
C419 N427 1.427 . S
C420 H411 0.930 . S
C420 C418 1.378 . S
C420 C421 1.367 . S
C421 C420 1.367 . S
C421 C423 1.433 . S
C422 C418 1.350 . S
C422 C419 1.463 1_655 S
C422 N426 1.427 . S
C423 H413 0.929 . S
C423 C421 1.433 . S
C423 N426 1.384 . S
C424 H415 0.929 . S
C424 C416 1.378 . S
C424 C419 1.350 . S
C425 H412 0.929 . S
C425 C417 1.433 . S
C425 N427 1.384 . S
N426 C422 1.427 . S
N426 C423 1.384 . S
N427 C419 1.427 . S
N427 C425 1.384 . S
H428 C434 0.930 . S
H429 C438 0.930 . S
H430 C443 0.929 . S
H431 C441 0.929 . S
H432 C436 0.929 . S
H433 C442 0.929 . S
C434 H428 0.930 . S
C434 C435 1.367 . S
C434 C442 1.378 . S
C435 C434 1.367 . S
C435 C443 1.433 . S
C436 H432 0.929 . S
C436 C438 1.378 . S
C436 C440 1.350 . S
C437 C440 1.463 . S
C437 C442 1.350 . S
C437 N445 1.427 . S
C438 H429 0.930 . S
C438 C436 1.378 . S
C438 C439 1.367 . S
C439 C438 1.367 . S
C439 C441 1.433 . S
C440 C436 1.350 . S
C440 C437 1.463 . S
C440 N444 1.427 . S
C441 H431 0.929 . S
C441 C439 1.433 . S
C441 N444 1.384 . S
C442 H433 0.929 . S
C442 C434 1.378 . S
C442 C437 1.350 . S
C443 H430 0.929 . S
C443 C435 1.433 . S
C443 N445 1.384 . S
N444 C440 1.427 . S
N444 C441 1.384 . S
N445 C437 1.427 . S
N445 C443 1.384 . S
H446 C452 0.930 . S
H447 C456 0.930 . S
H448 C461 0.929 . S
H449 C459 0.929 . S
H450 C454 0.929 . S
H451 C460 0.929 . S
C452 H446 0.930 . S
C452 C453 1.367 . S
C452 C460 1.378 . S
C453 C452 1.367 . S
C453 C461 1.433 . S
C454 H450 0.929 . S
C454 C456 1.378 . S
C454 C458 1.350 . S
C455 C458 1.463 . S
C455 C460 1.350 . S
C455 N463 1.427 . S
C456 H447 0.930 . S
C456 C454 1.378 . S
C456 C457 1.367 . S
C457 C456 1.367 . S
C457 C459 1.433 . S
C458 C454 1.350 . S
C458 C455 1.463 . S
C458 N462 1.427 . S
C459 H449 0.929 . S
C459 C457 1.433 . S
C459 N462 1.384 . S
C460 H451 0.929 . S
C460 C452 1.378 . S
C460 C455 1.350 . S
C461 H448 0.929 . S
C461 C453 1.433 . S
C461 N463 1.384 . S
N462 C458 1.427 . S
N462 C459 1.384 . S
N463 C455 1.427 . S
N463 C461 1.384 . S
H464 C470 0.930 . S
H465 C474 0.930 . S
H466 C479 0.929 . S
H467 C477 0.929 . S
H468 C472 0.929 . S
H469 C478 0.929 . S
C470 H464 0.930 . S
C470 C471 1.367 . S
C470 C478 1.378 . S
C471 C470 1.367 . S
C471 C479 1.433 . S
C472 H468 0.929 . S
C472 C474 1.378 . S
C472 C476 1.350 . S
C473 C476 1.463 . S
C473 C478 1.350 . S
C473 N481 1.427 . S
C474 H465 0.930 . S
C474 C472 1.378 . S
C474 C475 1.367 . S
C475 C474 1.367 . S
C475 C477 1.433 . S
C476 C472 1.350 . S
C476 C473 1.463 . S
C476 N480 1.427 . S
C477 H467 0.929 . S
C477 C475 1.433 . S
C477 N480 1.384 . S
C478 H469 0.929 . S
C478 C470 1.378 . S
C478 C473 1.350 . S
C479 H466 0.929 . S
C479 C471 1.433 . S
C479 N481 1.384 . S
N480 C476 1.427 . S
N480 C477 1.384 . S
N481 C473 1.427 . S
N481 C479 1.384 . S
H482 C488 0.930 . S
H483 C492 0.930 . S
H484 C497 0.929 . S
H485 C495 0.929 . S
H486 C490 0.929 . S
H487 C496 0.929 . S
C488 H482 0.930 . S
C488 C489 1.367 . S
C488 C496 1.378 . S
C489 C488 1.367 . S
C489 C497 1.433 . S
C490 H486 0.929 . S
C490 C492 1.378 . S
C490 C494 1.350 . S
C491 C494 1.463 . S
C491 C496 1.350 . S
C491 N499 1.427 . S
C492 H483 0.930 . S
C492 C490 1.378 . S
C492 C493 1.367 . S
C493 C492 1.367 . S
C493 C495 1.433 . S
C494 C490 1.350 . S
C494 C491 1.463 . S
C494 N498 1.427 . S
C495 H485 0.929 . S
C495 C493 1.433 . S
C495 N498 1.384 . S
C496 H487 0.929 . S
C496 C488 1.378 . S
C496 C491 1.350 . S
C497 H484 0.929 . S
C497 C489 1.433 . S
C497 N499 1.384 . S
N498 C494 1.427 . S
N498 C495 1.384 . S
N499 C491 1.427 . S
N499 C497 1.384 . S
H500 C506 0.930 . S
H501 C510 0.930 . S
H502 C515 0.929 . S
H503 C513 0.929 . S
H504 C508 0.929 . S
H505 C514 0.929 . S
C506 H500 0.930 . S
C506 C507 1.367 . S
C506 C514 1.378 . S
C507 C506 1.367 . S
C507 C515 1.433 . S
C508 H504 0.929 . S
C508 C510 1.378 . S
C508 C512 1.350 . S
C509 C512 1.463 1_655 S
C509 C514 1.350 . S
C509 N517 1.427 . S
C510 H501 0.930 . S
C510 C508 1.378 . S
C510 C511 1.367 . S
C511 C510 1.367 . S
C511 C513 1.433 . S
C512 C508 1.350 . S
C512 C509 1.463 1_455 S
C512 N516 1.427 . S
C513 H503 0.929 . S
C513 C511 1.433 . S
C513 N516 1.384 . S
C514 H505 0.929 . S
C514 C506 1.378 . S
C514 C509 1.350 . S
C515 H502 0.929 . S
C515 C507 1.433 . S
C515 N517 1.384 . S
N516 C512 1.427 . S
N516 C513 1.384 . S
N517 C509 1.427 . S
N517 C515 1.384 . S
H518 C524 0.930 . S
H519 C528 0.930 . S
H520 C533 0.929 . S
H521 C531 0.929 . S
H522 C526 0.929 . S
H523 C532 0.929 . S
C524 H518 0.930 . S
C524 C525 1.367 . S
C524 C532 1.378 . S
C525 C524 1.367 . S
C525 C533 1.433 . S
C526 H522 0.929 . S
C526 C528 1.378 . S
C526 C530 1.350 . S
C527 C530 1.463 1_455 S
C527 C532 1.350 . S
C527 N535 1.427 . S
C528 H519 0.930 . S
C528 C526 1.378 . S
C528 C529 1.367 . S
C529 C528 1.367 . S
C529 C531 1.433 . S
C530 C526 1.350 . S
C530 C527 1.463 1_655 S
C530 N534 1.427 . S
C531 H521 0.929 . S
C531 C529 1.433 . S
C531 N534 1.384 . S
C532 H523 0.929 . S
C532 C524 1.378 . S
C532 C527 1.350 . S
C533 H520 0.929 . S
C533 C525 1.433 . S
C533 N535 1.384 . S
N534 C530 1.427 . S
N534 C531 1.384 . S
N535 C527 1.427 . S
N535 C533 1.384 . S
H536 C542 0.930 . S
H537 C546 0.930 . S
H538 C551 0.929 . S
H539 C549 0.929 . S
H540 C544 0.929 . S
H541 C550 0.929 . S
C542 H536 0.930 . S
C542 C543 1.367 . S
C542 C550 1.378 . S
C543 C542 1.367 . S
C543 C551 1.433 . S
C544 H540 0.929 . S
C544 C546 1.378 . S
C544 C548 1.350 . S
C545 C548 1.463 . S
C545 C550 1.350 . S
C545 N553 1.427 . S
C546 H537 0.930 . S
C546 C544 1.378 . S
C546 C547 1.367 . S
C547 C546 1.367 . S
C547 C549 1.433 . S
C548 C544 1.350 . S
C548 C545 1.463 . S
C548 N552 1.427 . S
C549 H539 0.929 . S
C549 C547 1.433 . S
C549 N552 1.384 . S
C550 H541 0.929 . S
C550 C542 1.378 . S
C550 C545 1.350 . S
C551 H538 0.929 . S
C551 C543 1.433 . S
C551 N553 1.384 . S
N552 C548 1.427 . S
N552 C549 1.384 . S
N553 C545 1.427 . S
N553 C551 1.384 . S
H554 C560 0.930 . S
H555 C564 0.930 . S
H556 C569 0.929 . S
H557 C567 0.929 . S
H558 C562 0.929 . S
H559 C568 0.929 . S
C560 H554 0.930 . S
C560 C561 1.367 . S
C560 C568 1.378 . S
C561 C560 1.367 . S
C561 C569 1.433 . S
C562 H558 0.929 . S
C562 C564 1.378 . S
C562 C566 1.350 . S
C563 C566 1.463 . S
C563 C568 1.350 . S
C563 N571 1.427 . S
C564 H555 0.930 . S
C564 C562 1.378 . S
C564 C565 1.367 . S
C565 C564 1.367 . S
C565 C567 1.433 . S
C566 C562 1.350 . S
C566 C563 1.463 . S
C566 N570 1.427 . S
C567 H557 0.929 . S
C567 C565 1.433 . S
C567 N570 1.384 . S
C568 H559 0.929 . S
C568 C560 1.378 . S
C568 C563 1.350 . S
C569 H556 0.929 . S
C569 C561 1.433 . S
C569 N571 1.384 . S
N570 C566 1.427 . S
N570 C567 1.384 . S
N571 C563 1.427 . S
N571 C569 1.384 . S
H572 C578 0.930 . S
H573 C582 0.930 . S
H574 C587 0.929 . S
H575 C585 0.929 . S
H576 C580 0.929 . S
H577 C586 0.929 . S
C578 H572 0.930 . S
C578 C579 1.367 . S
C578 C586 1.378 . S
C579 C578 1.367 . S
C579 C587 1.433 . S
C580 H576 0.929 . S
C580 C582 1.378 . S
C580 C584 1.350 . S
C581 C584 1.463 1_655 S
C581 C586 1.350 . S
C581 N589 1.427 . S
C582 H573 0.930 . S
C582 C580 1.378 . S
C582 C583 1.367 . S
C583 C582 1.367 . S
C583 C585 1.433 . S
C584 C580 1.350 . S
C584 C581 1.463 1_455 S
C584 N588 1.427 . S
C585 H575 0.929 . S
C585 C583 1.433 . S
C585 N588 1.384 . S
C586 H577 0.929 . S
C586 C578 1.378 . S
C586 C581 1.350 . S
C587 H574 0.929 . S
C587 C579 1.433 . S
C587 N589 1.384 . S
N588 C584 1.427 . S
N588 C585 1.384 . S
N589 C581 1.427 . S
N589 C587 1.384 . S
H590 C596 0.930 . S
H591 C600 0.930 . S
H592 C605 0.929 . S
H593 C603 0.929 . S
H594 C598 0.929 . S
H595 C604 0.929 . S
C596 H590 0.930 . S
C596 C597 1.367 . S
C596 C604 1.378 . S
C597 C596 1.367 . S
C597 C605 1.433 . S
C598 H594 0.929 . S
C598 C600 1.378 . S
C598 C602 1.350 . S
C599 C602 1.463 1_455 S
C599 C604 1.350 . S
C599 N607 1.427 . S
C600 H591 0.930 . S
C600 C598 1.378 . S
C600 C601 1.367 . S
C601 C600 1.367 . S
C601 C603 1.433 . S
C602 C598 1.350 . S
C602 C599 1.463 1_655 S
C602 N606 1.427 . S
C603 H593 0.929 . S
C603 C601 1.433 . S
C603 N606 1.384 . S
C604 H595 0.929 . S
C604 C596 1.378 . S
C604 C599 1.350 . S
C605 H592 0.929 . S
C605 C597 1.433 . S
C605 N607 1.384 . S
N606 C602 1.427 . S
N606 C603 1.384 . S
N607 C599 1.427 . S
N607 C605 1.384 . S
H608 C614 0.930 . S
H609 C618 0.930 . S
H610 C623 0.929 . S
H611 C621 0.929 . S
H612 C616 0.929 . S
H613 C622 0.929 . S
C614 H608 0.930 . S
C614 C615 1.367 . S
C614 C622 1.378 . S
C615 C614 1.367 . S
C615 C623 1.433 . S
C616 H612 0.929 . S
C616 C618 1.378 . S
C616 C620 1.350 . S
C617 C620 1.463 . S
C617 C622 1.350 1_556 S
C617 N625 1.427 1_556 S
C618 H609 0.930 . S
C618 C616 1.378 . S
C618 C619 1.367 . S
C619 C618 1.367 . S
C619 C621 1.433 . S
C620 C616 1.350 . S
C620 C617 1.463 . S
C620 N624 1.427 . S
C621 H611 0.929 . S
C621 C619 1.433 . S
C621 N624 1.384 . S
C622 H613 0.929 . S
C622 C614 1.378 . S
C622 C617 1.350 1_554 S
C623 H610 0.929 . S
C623 C615 1.433 . S
C623 N625 1.384 . S
N624 C620 1.427 . S
N624 C621 1.384 . S
N625 C617 1.427 1_554 S
N625 C623 1.384 . S
H626 C632 0.930 . S
H627 C636 0.930 . S
H628 C641 0.929 . S
H629 C639 0.929 . S
H630 C634 0.929 . S
H631 C640 0.929 . S
C632 H626 0.930 . S
C632 C633 1.367 . S
C632 C640 1.378 . S
C633 C632 1.367 . S
C633 C641 1.433 . S
C634 H630 0.929 . S
C634 C636 1.378 . S
C634 C638 1.350 . S
C635 C638 1.463 . S
C635 C640 1.350 . S
C635 N643 1.427 . S
C636 H627 0.930 . S
C636 C634 1.378 . S
C636 C637 1.367 . S
C637 C636 1.367 . S
C637 C639 1.433 . S
C638 C634 1.350 . S
C638 C635 1.463 . S
C638 N642 1.427 . S
C639 H629 0.929 . S
C639 C637 1.433 . S
C639 N642 1.384 . S
C640 H631 0.929 . S
C640 C632 1.378 . S
C640 C635 1.350 . S
C641 H628 0.929 . S
C641 C633 1.433 . S
C641 N643 1.384 . S
N642 C638 1.427 . S
N642 C639 1.384 . S
N643 C635 1.427 . S
N643 C641 1.384 . S
H644 C650 0.930 . S
H645 C654 0.930 . S
H646 C659 0.929 . S
H647 C657 0.929 . S
H648 C652 0.929 . S
H649 C658 0.929 . S
C650 H644 0.930 . S
C650 C651 1.367 . S
C650 C658 1.378 . S
C651 C650 1.367 . S
C651 C659 1.433 . S
C652 H648 0.929 . S
C652 C654 1.378 . S
C652 C656 1.350 . S
C653 C656 1.463 . S
C653 C658 1.350 1_554 S
C653 N661 1.427 1_554 S
C654 H645 0.930 . S
C654 C652 1.378 . S
C654 C655 1.367 . S
C655 C654 1.367 . S
C655 C657 1.433 . S
C656 C652 1.350 . S
C656 C653 1.463 . S
C656 N660 1.427 . S
C657 H647 0.929 . S
C657 C655 1.433 . S
C657 N660 1.384 . S
C658 H649 0.929 . S
C658 C650 1.378 . S
C658 C653 1.350 1_556 S
C659 H646 0.929 . S
C659 C651 1.433 . S
C659 N661 1.384 . S
N660 C656 1.427 . S
N660 C657 1.384 . S
N661 C653 1.427 1_556 S
N661 C659 1.384 . S
H662 C668 0.930 . S
H663 C672 0.930 . S
H664 C677 0.929 . S
H665 C675 0.929 . S
H666 C670 0.929 . S
H667 C676 0.929 . S
C668 H662 0.930 . S
C668 C669 1.367 . S
C668 C676 1.378 . S
C669 C668 1.367 . S
C669 C677 1.433 . S
C670 H666 0.929 . S
C670 C672 1.378 . S
C670 C674 1.350 . S
C671 C674 1.463 . S
C671 C676 1.350 . S
C671 N679 1.427 . S
C672 H663 0.930 . S
C672 C670 1.378 . S
C672 C673 1.367 . S
C673 C672 1.367 . S
C673 C675 1.433 . S
C674 C670 1.350 . S
C674 C671 1.463 . S
C674 N678 1.427 . S
C675 H665 0.929 . S
C675 C673 1.433 . S
C675 N678 1.384 . S
C676 H667 0.929 . S
C676 C668 1.378 . S
C676 C671 1.350 . S
C677 H664 0.929 . S
C677 C669 1.433 . S
C677 N679 1.384 . S
N678 C674 1.427 . S
N678 C675 1.384 . S
N679 C671 1.427 . S
N679 C677 1.384 . S
H680 C686 0.930 . S
H681 C690 0.930 . S
H682 C695 0.929 . S
H683 C693 0.929 . S
H684 C688 0.929 . S
H685 C694 0.929 1_556 S
C686 H680 0.930 . S
C686 C687 1.367 . S
C686 C694 1.378 . S
C687 C686 1.367 . S
C687 C695 1.433 . S
C688 H684 0.929 . S
C688 C690 1.378 . S
C688 C692 1.350 . S
C689 C692 1.463 . S
C689 C694 1.350 1_556 S
C689 N697 1.427 1_556 S
C690 H681 0.930 . S
C690 C688 1.378 . S
C690 C691 1.367 . S
C691 C690 1.367 . S
C691 C693 1.433 . S
C692 C688 1.350 . S
C692 C689 1.463 . S
C692 N696 1.427 . S
C693 H683 0.929 . S
C693 C691 1.433 . S
C693 N696 1.384 . S
C694 H685 0.929 1_554 S
C694 C686 1.378 . S
C694 C689 1.350 1_554 S
C695 H682 0.929 . S
C695 C687 1.433 . S
C695 N697 1.384 . S
N696 C692 1.427 . S
N696 C693 1.384 . S
N697 C689 1.427 1_554 S
N697 C695 1.384 . S
H698 C704 0.930 . S
H699 C708 0.930 . S
H700 C713 0.929 . S
H701 C711 0.929 . S
H702 C706 0.929 . S
H703 C712 0.929 . S
C704 H698 0.930 . S
C704 C705 1.367 . S
C704 C712 1.378 . S
C705 C704 1.367 . S
C705 C713 1.433 . S
C706 H702 0.929 . S
C706 C708 1.378 . S
C706 C710 1.350 . S
C707 C710 1.463 . S
C707 C712 1.350 . S
C707 N715 1.427 . S
C708 H699 0.930 . S
C708 C706 1.378 . S
C708 C709 1.367 . S
C709 C708 1.367 . S
C709 C711 1.433 . S
C710 C706 1.350 . S
C710 C707 1.463 . S
C710 N714 1.427 . S
C711 H701 0.929 . S
C711 C709 1.433 . S
C711 N714 1.384 . S
C712 H703 0.929 . S
C712 C704 1.378 . S
C712 C707 1.350 . S
C713 H700 0.929 . S
C713 C705 1.433 . S
C713 N715 1.384 . S
N714 C710 1.427 . S
N714 C711 1.384 . S
N715 C707 1.427 . S
N715 C713 1.384 . S
H716 C722 0.930 . S
H717 C726 0.930 . S
H718 C731 0.929 . S
H719 C729 0.929 . S
H720 C724 0.929 . S
H721 C730 0.929 . S
C722 H716 0.930 . S
C722 C723 1.367 . S
C722 C730 1.378 . S
C723 C722 1.367 . S
C723 C731 1.433 . S
C724 H720 0.929 . S
C724 C726 1.378 . S
C724 C728 1.350 . S
C725 C728 1.463 . S
C725 C730 1.350 1_554 S
C725 N733 1.424 1_554 S
C726 H717 0.930 . S
C726 C724 1.378 . S
C726 C727 1.367 . S
C727 C726 1.367 . S
C727 C729 1.433 . S
C728 C724 1.350 . S
C728 C725 1.463 . S
C728 N732 1.427 . S
C729 H719 0.929 . S
C729 C727 1.433 . S
C729 N732 1.384 . S
C730 H721 0.929 . S
C730 C722 1.378 . S
C730 C725 1.350 1_556 S
C731 H718 0.929 . S
C731 C723 1.433 . S
C731 N733 1.393 . S
N732 C728 1.427 . S
N732 C729 1.384 . S
N733 C725 1.424 1_556 S
N733 C731 1.393 . S
H734 C740 0.930 . S
H735 C744 0.930 . S
H736 C749 0.929 . S
H737 C747 0.929 . S
H738 C742 0.929 . S
H739 C748 0.929 . S
C740 H734 0.930 . S
C740 C741 1.367 . S
C740 C748 1.378 . S
C741 C740 1.367 . S
C741 C749 1.433 . S
C742 H738 0.929 . S
C742 C744 1.378 . S
C742 C746 1.350 . S
C743 C746 1.463 . S
C743 C748 1.350 . S
C743 N751 1.427 . S
C744 H735 0.930 . S
C744 C742 1.378 . S
C744 C745 1.367 . S
C745 C744 1.367 . S
C745 C747 1.433 . S
C746 C742 1.350 . S
C746 C743 1.463 . S
C746 N750 1.427 . S
C747 H737 0.929 . S
C747 C745 1.433 . S
C747 N750 1.384 . S
C748 H739 0.929 . S
C748 C740 1.378 . S
C748 C743 1.350 . S
C749 H736 0.929 . S
C749 C741 1.433 . S
C749 N751 1.384 . S
N750 C746 1.427 . S
N750 C747 1.384 . S
N751 C743 1.427 . S
N751 C749 1.384 . S
H752 C758 0.930 . S
H753 C762 0.930 . S
H754 C767 0.929 . S
H755 C765 0.929 . S
H756 C760 0.929 . S
H757 C766 0.929 . S
C758 H752 0.930 . S
C758 C759 1.367 . S
C758 C766 1.378 . S
C759 C758 1.367 . S
C759 C767 1.433 . S
C760 H756 0.929 . S
C760 C762 1.378 . S
C760 C764 1.350 . S
C761 C764 1.463 . S
C761 C766 1.350 . S
C761 N769 1.427 . S
C762 H753 0.930 . S
C762 C760 1.378 . S
C762 C763 1.367 . S
C763 C762 1.367 . S
C763 C765 1.433 . S
C764 C760 1.350 . S
C764 C761 1.463 . S
C764 N768 1.427 . S
C765 H755 0.929 . S
C765 C763 1.433 . S
C765 N768 1.384 . S
C766 H757 0.929 . S
C766 C758 1.378 . S
C766 C761 1.350 . S
C767 H754 0.929 . S
C767 C759 1.433 . S
C767 N769 1.384 . S
N768 C764 1.427 . S
N768 C765 1.384 . S
N769 C761 1.427 . S
N769 C767 1.384 . S
H770 C776 0.930 . S
H771 C780 0.930 . S
H772 C785 0.929 . S
H773 C783 0.929 . S
H774 C778 0.929 . S
H775 C784 0.929 . S
C776 H770 0.930 . S
C776 C777 1.367 1_554 S
C776 C784 1.378 . S
C777 C776 1.367 1_556 S
C777 C785 1.433 . S
C778 H774 0.929 . S
C778 C780 1.378 . S
C778 C782 1.350 1_556 S
C779 C782 1.463 1_556 S
C779 C784 1.350 1_556 S
C779 N787 1.427 . S
C780 H771 0.930 . S
C780 C778 1.378 . S
C780 C781 1.367 1_556 S
C781 C780 1.367 1_554 S
C781 C783 1.433 . S
C782 C778 1.350 1_554 S
C782 C779 1.463 1_554 S
C782 N786 1.427 . S
C783 H773 0.929 . S
C783 C781 1.433 . S
C783 N786 1.384 . S
C784 H775 0.929 . S
C784 C776 1.378 . S
C784 C779 1.350 1_554 S
C785 H772 0.929 . S
C785 C777 1.433 . S
C785 N787 1.384 . S
N786 C782 1.427 . S
N786 C783 1.384 . S
N787 C779 1.427 . S
N787 C785 1.384 . S
H788 C794 0.930 . S
H789 C798 0.930 . S
H790 C803 0.929 . S
H791 C801 0.929 . S
H792 C796 0.929 . S
H793 C802 0.929 . S
C794 H788 0.930 . S
C794 C795 1.367 . S
C794 C802 1.378 . S
C795 C794 1.367 . S
C795 C803 1.433 . S
C796 H792 0.929 . S
C796 C798 1.378 . S
C796 C800 1.350 . S
C797 C800 1.463 . S
C797 C802 1.350 . S
C797 N805 1.427 . S
C798 H789 0.930 . S
C798 C796 1.378 . S
C798 C799 1.367 . S
C799 C798 1.367 . S
C799 C801 1.433 . S
C800 C796 1.350 . S
C800 C797 1.463 . S
C800 N804 1.427 . S
C801 H791 0.929 . S
C801 C799 1.433 . S
C801 N804 1.384 . S
C802 H793 0.929 . S
C802 C794 1.378 . S
C802 C797 1.350 . S
C803 H790 0.929 . S
C803 C795 1.433 . S
C803 N805 1.384 . S
N804 C800 1.427 . S
N804 C801 1.384 . S
N805 C797 1.427 . S
N805 C803 1.384 . S
H806 C812 0.930 . S
H807 C816 0.930 . S
H808 C821 0.933 . S
H809 C819 0.933 . S
H810 C814 0.929 . S
H811 C820 0.929 . S
C812 H806 0.930 . S
C812 C813 1.367 . S
C812 C820 1.378 . S
C813 C812 1.367 . S
C813 C821 1.428 1_556 S
C814 H810 0.929 . S
C814 C816 1.378 . S
C814 C818 1.350 . S
C815 C818 1.463 1_556 S
C815 C820 1.350 . S
C815 N823 1.427 1_556 S
C816 H807 0.930 . S
C816 C814 1.378 . S
C816 C817 1.367 . S
C817 C816 1.367 . S
C817 C819 1.428 1_554 S
C818 C814 1.350 . S
C818 C815 1.463 1_554 S
C818 N822 1.427 1_554 S
C819 H809 0.933 . S
C819 C817 1.428 1_556 S
C819 N822 1.384 . S
C820 H811 0.929 . S
C820 C812 1.378 . S
C820 C815 1.350 . S
C821 H808 0.933 . S
C821 C813 1.428 1_554 S
C821 N823 1.384 . S
N822 C818 1.427 1_556 S
N822 C819 1.384 . S
N823 C815 1.427 1_554 S
N823 C821 1.384 . S
C255 C113 1.751 . S
C259 C19 1.977 . S
C273 C82 1.750 . S
C277 C50 1.977 . S
C291 C51 1.758 . S
C295 C81 1.977 . S
C309 C112 1.977 . S
C313 C20 1.748 . S
C327 C237 1.752 . S
C331 C143 1.977 . S
C345 C187 1.754 . S
C349 C174 1.977 . S
C363 C175 1.760 . S
C367 C186 1.978 . S
C381 C144 1.758 . S
C385 C236 1.977 . S
C399 C41 0.878 . S
C403 C10 0.881 . S
C417 C103 0.880 . S
C421 C72 0.883 . S
C435 C134 0.871 . S
C439 C165 0.874 . S
C453 C227 0.882 . S
C457 C216 0.879 . S
C471 C32 1.918 . S
C475 C1 1.931 . S
C489 C63 1.919 . S
C493 C94 1.922 . S
C507 C125 1.927 . S
C511 C156 1.917 . S
C525 C206 1.920 . S
C529 C218 1.921 . S
C543 C0 1.647 . S
C547 C31 1.652 . S
C561 C62 1.644 . S
C565 C93 1.646 . S
C579 C124 1.644 . S
C583 C155 1.649 . S
C597 C205 1.646 . S
C601 C217 1.651 . S
C615 C2 1.206 . S
C619 C29 1.206 . S
C633 C33 1.215 . S
C637 C60 1.218 . S
C651 C64 1.202 . S
C655 C91 1.202 . S
C669 C122 1.219 . S
C673 C95 1.215 . S
C687 C126 1.207 . S
C691 C153 1.207 . S
C705 C184 1.225 . S
C709 C157 1.223 . S
C723 C215 1.199 . S
C727 C188 1.202 . S
C741 C246 1.215 . S
C745 C219 1.212 . S
C759 C196 1.187 . S
C763 C30 1.187 . S
C777 C61 1.186 1_556 S
C781 C247 1.186 1_554 S
C795 C92 1.186 . S
C799 C154 1.186 . S
C813 C185 1.202 1_556 S
C817 C123 1.202 1_554 S
