# Generated by pormake.
# Topology ecc, (8)-cn, num edge types: 1
# Building blocks:
#     Node 0, Type 0, BuildingBlock: EBIMEJ_clean_sbu_0, # of connection points: 8
#     Node 1, Type 0, BuildingBlock: EBIMEJ_clean_sbu_0, # of connection points: 8
#     Node 2, Type 0, BuildingBlock: EBIMEJ_clean_sbu_0, # of connection points: 8
#     Node 3, Type 0, BuildingBlock: EBIMEJ_clean_sbu_0, # of connection points: 8
#     Node 4, Type 0, BuildingBlock: EBIMEJ_clean_sbu_0, # of connection points: 8
#     Node 5, Type 0, BuildingBlock: EBIMEJ_clean_sbu_0, # of connection points: 8
#     Node 6, Type 0, BuildingBlock: EBIMEJ_clean_sbu_0, # of connection points: 8
#     Node 7, Type 0, BuildingBlock: EBIMEJ_clean_sbu_0, # of connection points: 8
#     Node 8, Type 0, BuildingBlock: EBIMEJ_clean_sbu_0, # of connection points: 8
#     Node 9, Type 0, BuildingBlock: EBIMEJ_clean_sbu_0, # of connection points: 8
#     Node 10, Type 0, BuildingBlock: EBIMEJ_clean_sbu_0, # of connection points: 8
#     Node 11, Type 0, BuildingBlock: EBIMEJ_clean_sbu_0, # of connection points: 8
#     Node 12, Type 0, BuildingBlock: EBIMEJ_clean_sbu_0, # of connection points: 8
#     Node 13, Type 0, BuildingBlock: EBIMEJ_clean_sbu_0, # of connection points: 8
#     Node 14, Type 0, BuildingBlock: EBIMEJ_clean_sbu_0, # of connection points: 8
#     Node 15, Type 0, BuildingBlock: EBIMEJ_clean_sbu_0, # of connection points: 8
#     Node 16, Type 0, BuildingBlock: EBIMEJ_clean_sbu_0, # of connection points: 8
#     Node 17, Type 0, BuildingBlock: EBIMEJ_clean_sbu_0, # of connection points: 8
#     Edge 18, Type (0, 0), BuildingBlock: XIVTED_clean_linker_0, # of connection points: 2
#     Edge 19, Type (0, 0), BuildingBlock: XIVTED_clean_linker_0, # of connection points: 2
#     Edge 20, Type (0, 0), BuildingBlock: XIVTED_clean_linker_0, # of connection points: 2
#     Edge 21, Type (0, 0), BuildingBlock: XIVTED_clean_linker_0, # of connection points: 2
#     Edge 22, Type (0, 0), BuildingBlock: XIVTED_clean_linker_0, # of connection points: 2
#     Edge 23, Type (0, 0), BuildingBlock: XIVTED_clean_linker_0, # of connection points: 2
#     Edge 24, Type (0, 0), BuildingBlock: XIVTED_clean_linker_0, # of connection points: 2
#     Edge 25, Type (0, 0), BuildingBlock: XIVTED_clean_linker_0, # of connection points: 2
#     Edge 26, Type (0, 0), BuildingBlock: XIVTED_clean_linker_0, # of connection points: 2
#     Edge 27, Type (0, 0), BuildingBlock: XIVTED_clean_linker_0, # of connection points: 2
#     Edge 28, Type (0, 0), BuildingBlock: XIVTED_clean_linker_0, # of connection points: 2
#     Edge 29, Type (0, 0), BuildingBlock: XIVTED_clean_linker_0, # of connection points: 2
#     Edge 30, Type (0, 0), BuildingBlock: XIVTED_clean_linker_0, # of connection points: 2
#     Edge 31, Type (0, 0), BuildingBlock: XIVTED_clean_linker_0, # of connection points: 2
#     Edge 32, Type (0, 0), BuildingBlock: XIVTED_clean_linker_0, # of connection points: 2
#     Edge 33, Type (0, 0), BuildingBlock: XIVTED_clean_linker_0, # of connection points: 2
#     Edge 34, Type (0, 0), BuildingBlock: XIVTED_clean_linker_0, # of connection points: 2
#     Edge 35, Type (0, 0), BuildingBlock: XIVTED_clean_linker_0, # of connection points: 2
#     Edge 36, Type (0, 0), BuildingBlock: XIVTED_clean_linker_0, # of connection points: 2
#     Edge 37, Type (0, 0), BuildingBlock: XIVTED_clean_linker_0, # of connection points: 2
#     Edge 38, Type (0, 0), BuildingBlock: XIVTED_clean_linker_0, # of connection points: 2
#     Edge 39, Type (0, 0), BuildingBlock: XIVTED_clean_linker_0, # of connection points: 2
#     Edge 40, Type (0, 0), BuildingBlock: XIVTED_clean_linker_0, # of connection points: 2
#     Edge 41, Type (0, 0), BuildingBlock: XIVTED_clean_linker_0, # of connection points: 2
#     Edge 42, Type (0, 0), BuildingBlock: XIVTED_clean_linker_0, # of connection points: 2
#     Edge 43, Type (0, 0), BuildingBlock: XIVTED_clean_linker_0, # of connection points: 2
#     Edge 44, Type (0, 0), BuildingBlock: XIVTED_clean_linker_0, # of connection points: 2
#     Edge 45, Type (0, 0), BuildingBlock: XIVTED_clean_linker_0, # of connection points: 2
#     Edge 46, Type (0, 0), BuildingBlock: XIVTED_clean_linker_0, # of connection points: 2
#     Edge 47, Type (0, 0), BuildingBlock: XIVTED_clean_linker_0, # of connection points: 2
#     Edge 48, Type (0, 0), BuildingBlock: XIVTED_clean_linker_0, # of connection points: 2
#     Edge 49, Type (0, 0), BuildingBlock: XIVTED_clean_linker_0, # of connection points: 2
#     Edge 50, Type (0, 0), BuildingBlock: XIVTED_clean_linker_0, # of connection points: 2
#     Edge 51, Type (0, 0), BuildingBlock: XIVTED_clean_linker_0, # of connection points: 2
#     Edge 52, Type (0, 0), BuildingBlock: XIVTED_clean_linker_0, # of connection points: 2
#     Edge 53, Type (0, 0), BuildingBlock: XIVTED_clean_linker_0, # of connection points: 2
#     Edge 54, Type (0, 0), BuildingBlock: XIVTED_clean_linker_0, # of connection points: 2
#     Edge 55, Type (0, 0), BuildingBlock: XIVTED_clean_linker_0, # of connection points: 2
#     Edge 56, Type (0, 0), BuildingBlock: XIVTED_clean_linker_0, # of connection points: 2
#     Edge 57, Type (0, 0), BuildingBlock: XIVTED_clean_linker_0, # of connection points: 2
#     Edge 58, Type (0, 0), BuildingBlock: XIVTED_clean_linker_0, # of connection points: 2
#     Edge 59, Type (0, 0), BuildingBlock: XIVTED_clean_linker_0, # of connection points: 2
#     Edge 60, Type (0, 0), BuildingBlock: XIVTED_clean_linker_0, # of connection points: 2
#     Edge 61, Type (0, 0), BuildingBlock: XIVTED_clean_linker_0, # of connection points: 2
#     Edge 62, Type (0, 0), BuildingBlock: XIVTED_clean_linker_0, # of connection points: 2
#     Edge 63, Type (0, 0), BuildingBlock: XIVTED_clean_linker_0, # of connection points: 2
#     Edge 64, Type (0, 0), BuildingBlock: XIVTED_clean_linker_0, # of connection points: 2
#     Edge 65, Type (0, 0), BuildingBlock: XIVTED_clean_linker_0, # of connection points: 2
#     Edge 66, Type (0, 0), BuildingBlock: XIVTED_clean_linker_0, # of connection points: 2
#     Edge 67, Type (0, 0), BuildingBlock: XIVTED_clean_linker_0, # of connection points: 2
#     Edge 68, Type (0, 0), BuildingBlock: XIVTED_clean_linker_0, # of connection points: 2
#     Edge 69, Type (0, 0), BuildingBlock: XIVTED_clean_linker_0, # of connection points: 2
#     Edge 70, Type (0, 0), BuildingBlock: XIVTED_clean_linker_0, # of connection points: 2
#     Edge 71, Type (0, 0), BuildingBlock: XIVTED_clean_linker_0, # of connection points: 2
#     Edge 72, Type (0, 0), BuildingBlock: XIVTED_clean_linker_0, # of connection points: 2
#     Edge 73, Type (0, 0), BuildingBlock: XIVTED_clean_linker_0, # of connection points: 2
#     Edge 74, Type (0, 0), BuildingBlock: XIVTED_clean_linker_0, # of connection points: 2
#     Edge 75, Type (0, 0), BuildingBlock: XIVTED_clean_linker_0, # of connection points: 2
#     Edge 76, Type (0, 0), BuildingBlock: XIVTED_clean_linker_0, # of connection points: 2
#     Edge 77, Type (0, 0), BuildingBlock: XIVTED_clean_linker_0, # of connection points: 2
#     Edge 78, Type (0, 0), BuildingBlock: XIVTED_clean_linker_0, # of connection points: 2
#     Edge 79, Type (0, 0), BuildingBlock: XIVTED_clean_linker_0, # of connection points: 2
#     Edge 80, Type (0, 0), BuildingBlock: XIVTED_clean_linker_0, # of connection points: 2
#     Edge 81, Type (0, 0), BuildingBlock: XIVTED_clean_linker_0, # of connection points: 2
#     Edge 82, Type (0, 0), BuildingBlock: XIVTED_clean_linker_0, # of connection points: 2
#     Edge 83, Type (0, 0), BuildingBlock: XIVTED_clean_linker_0, # of connection points: 2
#     Edge 84, Type (0, 0), BuildingBlock: XIVTED_clean_linker_0, # of connection points: 2
#     Edge 85, Type (0, 0), BuildingBlock: XIVTED_clean_linker_0, # of connection points: 2
#     Edge 86, Type (0, 0), BuildingBlock: XIVTED_clean_linker_0, # of connection points: 2
#     Edge 87, Type (0, 0), BuildingBlock: XIVTED_clean_linker_0, # of connection points: 2
#     Edge 88, Type (0, 0), BuildingBlock: XIVTED_clean_linker_0, # of connection points: 2
#     Edge 89, Type (0, 0), BuildingBlock: XIVTED_clean_linker_0, # of connection points: 2
# Relax obj value: 0.328
# Max RMSD: 0.288
# Mean RMSD: 0.288
data_MOF--net-ecc--node1-EBIMEJ_clean_sbu_0--edge1-XIVTED_clean_linker_0
_symmetry_space_group_name_H-M    P1
_symmetry_Int_Tables_number       1
_symmetry_cell_setting            triclinic
loop_
_symmetry_equiv_pos_as_xyz
'x, y, z'
_cell_length_a     60.162429
_cell_length_b     60.226688
_cell_length_c     26.311468
_cell_angle_alpha  89.971903
_cell_angle_beta   89.976428
_cell_angle_gamma 120.13832
loop_
_atom_site_label
_atom_site_type_symbol
_atom_site_fract_x
_atom_site_fract_y
_atom_site_fract_z
_atom_type_partial_charge
Co0 Co 0.14424 1.00749 0.71525 0.0
Co1 Co 0.18322 0.03175 0.80737 0.0
Co2 Co 0.19464 1.00415 0.72663 0.0
H3 H 0.16924 1.00474 0.73489 0.0
O4 O 0.16392 1.00119 0.76575 0.0
H5 H 0.20775 0.02857 0.80602 0.0
O6 O 0.21443 0.03204 0.77601 0.0
Co7 Co 0.2303 0.02433 0.83543 0.0
O8 O 0.22773 0.0486 0.89009 0.0
O9 O 0.20363 0.0618 0.85017 0.0
O10 O 0.24466 0.00874 0.78138 0.0
O11 O 0.22605 1.0051 0.70455 0.0
O12 O 0.10816 0.99959 0.69704 0.0
O13 O 0.11416 0.98153 0.75903 0.0
O14 O 0.20044 0.99212 0.86615 0.0
O15 O 0.17383 1.00764 0.86702 0.0
C16 C 0.15284 0.97106 0.6512 0.0
C17 C 0.14233 0.0421 0.79065 0.0
C18 C 0.27214 0.04128 0.88131 0.0
C19 C 0.19014 0.04406 0.659 0.0
C20 C 0.21773 0.06314 0.88733 0.0
C21 C 0.2428 1.00414 0.73292 0.0
C22 C 0.09806 0.98417 0.7334 0.0
C23 C 0.17972 0.99092 0.88108 0.0
O24 O 0.14035 0.98254 0.66033 0.0
O25 O 0.17357 0.97614 0.67503 0.0
O26 O 0.15253 0.03464 0.82397 0.0
O27 O 0.14321 0.03807 0.7434 0.0
O28 O 0.25046 0.02921 0.90217 0.0
O29 O 0.27004 0.04346 0.8343 0.0
O30 O 0.16777 0.03795 0.67399 0.0
O31 O 0.20162 0.03204 0.67375 0.0
Co32 Co 0.03429 0.16422 0.71211 0.0
Co33 Co 1.01105 0.17812 0.80809 0.0
Co34 Co 0.03637 0.21735 0.72636 0.0
H35 H 0.03651 0.19159 0.73312 0.0
O36 O 0.04075 0.19003 0.76352 0.0
H37 H 0.013 0.20549 0.80749 0.0
O38 O 1.00898 0.2083 0.77766 0.0
Co39 Co 0.01583 0.23191 0.83694 0.0
O40 O 0.99068 0.20469 0.88973 0.0
O41 O 0.98175 0.16743 0.8539 0.0
O42 O 0.03151 0.26215 0.78335 0.0
O43 O 0.03441 0.24753 0.70568 0.0
O44 O 0.04091 0.13445 0.70065 0.0
O45 O 0.0647 0.16474 0.74852 0.0
O46 O 0.04665 0.23469 0.87419 0.0
O47 O 0.03682 0.19392 0.86503 0.0
C48 C 0.06704 0.20947 0.64501 0.0
C49 C 1.00185 0.12725 0.79042 0.0
C50 C 0.99944 0.25704 0.88401 0.0
C51 C 0.99648 0.17268 0.65849 0.0
C52 C 0.97811 0.17999 0.88848 0.0
C53 C 0.03575 0.26517 0.7348 0.0
C54 C 0.0599 0.14358 0.73007 0.0
C55 C 0.05059 0.21625 0.8843 0.0
O56 O 0.05482 0.18525 0.65193 0.0
O57 O 0.06394 0.22514 0.67332 0.0
O58 O 1.00952 0.14504 0.82354 0.0
O59 O 1.00527 0.13196 0.74296 0.0
O60 O 0.01282 0.24863 0.90351 0.0
O61 O 0.99563 0.25145 0.83758 0.0
O62 O 1.0036 0.15693 0.6714 0.0
O63 O 1.00787 0.19602 0.67458 0.0
Co64 Co 0.87259 0.89743 0.71095 0.0
Co65 Co 0.86105 0.85833 0.80397 0.0
Co66 Co 0.82081 0.84522 0.72489 0.0
H67 H 0.84607 0.87141 0.73236 0.0
O68 O 0.84815 0.87665 0.76328 0.0
H69 H 0.83335 0.83348 0.80473 0.0
O70 O 0.82997 0.82654 0.77498 0.0
Co71 Co 0.80685 0.81074 0.83498 0.0
O72 O 0.83476 0.81322 0.8867 0.0
O73 O 0.87193 0.83883 0.84669 0.0
O74 O 0.77644 0.79557 0.7816 0.0
O75 O 0.79106 0.81305 0.70375 0.0
O76 O 0.89958 0.93464 0.69491 0.0
O77 O 0.87589 0.92608 0.75826 0.0
O78 O 0.80508 0.84071 0.86661 0.0
O79 O 0.84728 0.86786 0.86479 0.0
C80 C 0.82711 0.88562 0.64707 0.0
C81 C 0.91043 0.898 0.77803 0.0
C82 C 0.78192 0.76913 0.88189 0.0
C83 C 0.86541 0.85235 0.65417 0.0
C84 C 0.85943 0.82388 0.88329 0.0
C85 C 0.77351 0.7966 0.73293 0.0
C86 C 0.89421 0.94335 0.73339 0.0
C87 C 0.82477 0.86163 0.8805 0.0
O88 O 0.85105 0.89958 0.65554 0.0
O89 O 0.8125 0.86489 0.67211 0.0
O90 O 0.8951 0.88961 0.81585 0.0
O91 O 0.90189 0.89273 0.73287 0.0
O92 O 0.79328 0.79081 0.90271 0.0
O93 O 0.78444 0.77111 0.83441 0.0
O94 O 0.88009 0.8758 0.66524 0.0
O95 O 0.84268 0.83898 0.67302 0.0
Co96 Co 0.80489 0.02015 0.19189 0.0
Co97 Co 0.84048 0.04103 0.30048 0.0
Co98 Co 0.85174 0.01246 0.22172 0.0
H99 H 0.82733 0.01591 0.22192 0.0
O100 O 0.82064 0.01278 0.25189 0.0
H101 H 0.86605 0.04091 0.2924 0.0
O102 O 0.87113 0.04378 0.26135 0.0
Co103 Co 0.89167 0.03958 0.31313 0.0
O104 O 0.89204 0.06004 0.37376 0.0
O105 O 0.86147 0.06931 0.35181 0.0
O106 O 0.89415 0.00947 0.28749 0.0
O107 O 0.88239 0.00904 0.20671 0.0
O108 O 0.78555 0.01686 0.12459 0.0
O109 O 0.76512 1.00044 0.19069 0.0
O110 O 0.86864 0.00889 0.35458 0.0
O111 O 0.83383 0.01324 0.35328 0.0
C112 C 0.817 0.98035 0.14277 0.0
C113 C 0.79199 0.04036 0.29407 0.0
C114 C 0.93678 0.06844 0.28892 0.0
C115 C 0.85568 0.05274 0.14652 0.0
C116 C 0.88028 0.07247 0.38022 0.0
C117 C 0.89397 1.0036 0.24091 0.0
C118 C 0.7636 1.00388 0.144 0.0
C119 C 0.84588 1.00187 0.36861 0.0
O120 O 0.80721 0.99506 0.13907 0.0
O121 O 0.83111 0.98191 0.18016 0.0
O122 O 0.80897 0.03989 0.32257 0.0
O123 O 0.79014 0.03553 0.24568 0.0
O124 O 0.92936 0.06243 0.33407 0.0
O125 O 0.91862 0.05849 0.2578 0.0
O126 O 0.83524 0.05211 0.16156 0.0
O127 O 0.86106 0.03566 0.16065 0.0
Co128 Co 0.01856 0.81224 0.19081 0.0
Co129 Co 0.99848 0.82731 0.30066 0.0
Co130 Co 0.02614 0.86674 0.22043 0.0
H131 H 0.02285 0.83893 0.22098 0.0
O132 O 0.02631 0.83559 0.25085 0.0
H133 H 0.99949 0.85357 0.29366 0.0
O134 O 0.99586 0.85556 0.26303 0.0
Co135 Co 1.00269 0.88126 0.31499 0.0
O136 O 0.9822 0.86067 0.37567 0.0
O137 O 0.97064 0.82033 0.35259 0.0
O138 O 0.03179 0.91351 0.2844 0.0
O139 O 0.02889 0.90023 0.20416 0.0
O140 O 0.02225 0.79644 0.12352 0.0
O141 O 0.03817 0.79212 0.18989 0.0
O142 O 0.03313 0.88765 0.35581 0.0
O143 O 0.02652 0.84763 0.35387 0.0
C144 C 0.05769 0.86389 0.1399 0.0
C145 C 0.99818 0.77895 0.29274 0.0
C146 C 0.97758 0.90244 0.29724 0.0
C147 C 0.98537 0.82968 0.14558 0.0
C148 C 0.96874 0.83644 0.38183 0.0
C149 C 0.0357 0.91803 0.23697 0.0
C150 C 0.03501 0.78734 0.1431 0.0
C151 C 0.03886 0.87101 0.3697 0.0
O152 O 0.04323 0.83931 0.13691 0.0
O153 O 0.05605 0.87657 0.17685 0.0
O154 O 0.99897 0.79643 0.32159 0.0
O155 O 1.00297 0.78205 0.24437 0.0
O156 O 0.99586 0.91073 0.32835 0.0
O157 O 0.97322 0.8818 0.27686 0.0
O158 O 0.98658 0.81003 0.15938 0.0
O159 O 1.00179 0.85214 0.16117 0.0
Co160 Co 0.22906 0.23389 0.19142 0.0
Co161 Co 0.21259 0.19877 0.30051 0.0
Co162 Co 0.17359 0.18841 0.22013 0.0
H163 H 0.20184 0.21217 0.22085 0.0
O164 O 0.20533 0.21896 0.25074 0.0
H165 H 0.18633 0.17347 0.29217 0.0
O166 O 0.18435 0.16841 0.26113 0.0
Co167 Co 0.15852 0.1482 0.31185 0.0
O168 O 0.17948 0.14356 0.36586 0.0
O169 O 0.21896 0.17752 0.35249 0.0
O170 O 0.1291 0.15266 0.28864 0.0
O171 O 0.13891 0.15857 0.20638 0.0
O172 O 0.24411 0.25401 0.12442 0.0
O173 O 0.25094 0.27355 0.19263 0.0
O174 O 0.15275 0.17088 0.35782 0.0
O175 O 0.19158 0.20625 0.35235 0.0
C176 C 0.17828 0.22397 0.14081 0.0
C177 C 0.26154 0.24627 0.2941 0.0
C178 C 0.13512 0.1028 0.28647 0.0
C179 C 0.20966 0.18288 0.14665 0.0
C180 C 0.20343 0.15646 0.37554 0.0
C181 C 0.12253 0.15177 0.24233 0.0
C182 C 0.25463 0.27565 0.14543 0.0
C183 C 0.16854 0.19389 0.37012 0.0
O184 O 0.20252 0.23203 0.13722 0.0
O185 O 0.16476 0.20975 0.17738 0.0
O186 O 0.24353 0.2299 0.3227 0.0
O187 O 0.25893 0.24791 0.24554 0.0
O188 O 0.12556 0.11321 0.31303 0.0
O189 O 0.15823 0.11797 0.27553 0.0
O190 O 0.22972 0.20299 0.1622 0.0
O191 O 0.18719 0.17809 0.15981 0.0
Co192 Co 0.81 0.33935 0.04368 0.0
Co193 Co 0.84721 0.3626 0.13975 0.0
Co194 Co 0.86046 0.33635 0.05928 0.0
H195 H 0.8348 0.33674 0.06546 0.0
O196 O 0.82893 0.33276 0.09587 0.0
H197 H 0.87241 0.36025 0.13943 0.0
O198 O 0.87923 0.36404 0.10955 0.0
Co199 Co 0.8958 0.35713 0.169 0.0
O200 O 0.8934 0.38184 0.22244 0.0
O201 O 0.8663 0.39199 0.18504 0.0
O202 O 0.91044 0.34119 0.11604 0.0
O203 O 0.89232 0.33775 0.03886 0.0
O204 O 0.77358 0.33293 0.03287 0.0
O205 O 0.78008 0.30908 0.08047 0.0
O206 O 0.8672 0.32624 0.20543 0.0
O207 O 0.83692 0.33704 0.19709 0.0
C208 C 0.8216 0.3054 0.97862 0.0
C209 C 0.80604 0.37234 0.12122 0.0
C210 C 0.93777 0.37416 0.21457 0.0
C211 C 0.85645 0.37578 0.98881 0.0
C212 C 0.88185 0.39494 0.22057 0.0
C213 C 0.90883 0.33659 0.06758 0.0
C214 C 0.76371 0.31395 0.06235 0.0
C215 C 0.84498 0.32277 0.21581 0.0
O216 O 0.8098 0.31783 0.98478 0.0
O217 O 0.84039 0.30858 1.00703 0.0
O218 O 0.8159 0.36462 0.15479 0.0
O219 O 0.80744 0.3688 0.07386 0.0
O220 O 0.91612 0.36227 0.2356 0.0
O221 O 0.93558 0.37611 0.16749 0.0
O222 O 0.8336 0.36927 1.00104 0.0
O223 O 0.86802 0.36434 1.00637 0.0
Co224 Co 0.70098 0.49803 0.04653 0.0
Co225 Co 0.67629 0.51216 0.14 0.0
Co226 Co 0.70366 0.55151 0.05961 0.0
H227 H 0.70328 0.52552 0.06712 0.0
O228 O 0.70684 0.52372 0.09793 0.0
H229 H 0.67926 0.5398 0.13921 0.0
O230 O 0.67575 0.54303 0.10928 0.0
Co231 Co 0.68325 0.5664 0.16923 0.0
O232 O 0.6588 0.53919 0.22324 0.0
O233 O 0.64618 0.50204 0.18307 0.0
O234 O 0.69887 0.59652 0.11552 0.0
O235 O 0.70257 0.58203 0.03819 0.0
O236 O 0.7071 0.46799 0.03423 0.0
O237 O 0.73108 0.49779 0.08283 0.0
O238 O 0.71555 0.56909 0.2002 0.0
O239 O 0.70042 0.527 0.19943 0.0
C240 C 0.73428 0.54295 0.97934 0.0
C241 C 0.66745 0.46115 0.12402 0.0
C242 C 0.66629 0.59084 0.21704 0.0
C243 C 0.6639 0.50702 0.99142 0.0
C244 C 0.64448 0.51459 0.22018 0.0
C245 C 0.70351 0.59957 0.06709 0.0
C246 C 0.72601 0.47665 0.06378 0.0
C247 C 0.71693 0.54957 0.21429 0.0
O248 O 0.7216 0.51874 0.98616 0.0
O249 O 0.73162 0.55884 1.0078 0.0
O250 O 0.6739 0.47889 0.15678 0.0
O251 O 0.67181 0.46573 0.0767 0.0
O252 O 0.6659 0.58872 0.16947 0.0
O253 O 0.67655 0.57932 0.23734 0.0
O254 O 0.67037 0.49096 1.0057 0.0
O255 O 0.67567 0.5305 1.00674 0.0
Co256 Co 0.5434 0.23091 0.04939 0.0
Co257 Co 0.52868 0.19176 0.14308 0.0
Co258 Co 0.49006 0.1794 0.06062 0.0
H259 H 0.51587 0.20523 0.06891 0.0
O260 O 0.51738 0.21052 0.09971 0.0
H261 H 0.50089 0.16704 0.14151 0.0
O262 O 0.49806 0.16025 0.11163 0.0
Co263 Co 0.47375 0.14427 0.17007 0.0
O264 O 0.50006 0.14637 0.2246 0.0
O265 O 0.53826 0.17167 0.18786 0.0
O266 O 0.44398 0.13038 0.11585 0.0
O267 O 0.45984 0.1476 0.03848 0.0
O268 O 0.57415 0.26697 0.03958 0.0
O269 O 0.54364 0.26093 0.08651 0.0
O270 O 0.47167 0.17312 0.20524 0.0
O271 O 0.51349 0.2019 0.20089 0.0
C272 C 0.49842 0.22032 0.98325 0.0
C273 C 0.57984 0.23281 0.12582 0.0
C274 C 0.44831 0.10205 0.21465 0.0
C275 C 0.53522 0.18521 0.99339 0.0
C276 C 0.52458 0.15607 0.22261 0.0
C277 C 0.4416 0.13161 0.06712 0.0
C278 C 0.56525 0.27701 0.06902 0.0
C279 C 0.4909 0.19469 0.21757 0.0
O280 O 0.52238 0.23349 0.99269 0.0
O281 O 0.483 0.1997 1.00764 0.0
O282 O 0.56217 0.22267 0.15925 0.0
O283 O 0.57497 0.23208 0.07855 0.0
O284 O 0.45746 0.12355 0.23591 0.0
O285 O 0.45328 0.10453 0.16788 0.0
O286 O 0.55059 0.20819 1.00652 0.0
O287 O 0.51187 0.17262 1.00953 0.0
Co288 Co 0.47282 0.3548 0.52561 0.0
Co289 Co 0.50872 0.37376 0.63342 0.0
Co290 Co 0.51897 0.34564 0.55178 0.0
H291 H 0.49491 0.34954 0.55403 0.0
O292 O 0.48833 0.34608 0.58412 0.0
H293 H 0.53389 0.37266 0.62466 0.0
O294 O 0.53902 0.37605 0.59366 0.0
Co295 Co 0.55889 0.36972 0.64407 0.0
O296 O 0.56211 0.39328 0.70168 0.0
O297 O 0.53029 0.40154 0.68476 0.0
O298 O 0.55902 0.33879 0.61478 0.0
O299 O 0.54916 0.34214 0.5344 0.0
O300 O 0.45262 0.35014 0.45897 0.0
O301 O 0.43308 0.3362 0.52694 0.0
O302 O 0.53532 0.33968 0.68627 0.0
O303 O 0.5015 0.34569 0.68602 0.0
C304 C 0.48282 0.31448 0.47323 0.0
C305 C 0.46107 0.37503 0.6285 0.0
C306 C 0.60487 0.39416 0.62274 0.0
C307 C 0.52335 0.38745 0.47991 0.0
C308 C 0.55024 0.40548 0.71009 0.0
C309 C 0.55921 0.33439 0.56746 0.0
C310 C 0.43095 0.33834 0.47992 0.0
C311 C 0.51293 0.33365 0.70107 0.0
O312 O 0.47433 0.33029 0.47063 0.0
O313 O 0.49764 0.31556 0.50877 0.0
O314 O 0.47769 0.37354 0.65641 0.0
O315 O 0.45904 0.37066 0.58 0.0
O316 O 0.59456 0.37341 0.64705 0.0
O317 O 0.58919 0.40138 0.61168 0.0
O318 O 0.50317 0.38694 0.49623 0.0
O319 O 0.52849 0.36997 0.49231 0.0
Co320 Co 0.68486 0.14425 0.52435 0.0
Co321 Co 0.6659 0.16104 0.63342 0.0
Co322 Co 0.69263 0.19935 0.55061 0.0
H323 H 0.68932 0.17149 0.5526 0.0
O324 O 0.6931 0.16861 0.58259 0.0
H325 H 0.66688 0.18725 0.62528 0.0
O326 O 0.66291 0.18883 0.59466 0.0
Co327 Co 0.67028 0.21525 0.64525 0.0
O328 O 0.65022 0.19546 0.70703 0.0
O329 O 0.63874 0.15485 0.68637 0.0
O330 O 0.70039 0.24645 0.61384 0.0
O331 O 0.69542 0.23274 0.53361 0.0
O332 O 0.68965 0.12948 0.45692 0.0
O333 O 0.70217 0.12192 0.52462 0.0
O334 O 0.70068 0.22184 0.68601 0.0
O335 O 0.6947 0.18206 0.68473 0.0
C336 C 0.72438 0.19491 0.4714 0.0
C337 C 0.66483 0.11225 0.62771 0.0
C338 C 0.64544 0.23644 0.62499 0.0
C339 C 0.65165 0.16134 0.47671 0.0
C340 C 0.63701 0.17132 0.71475 0.0
C341 C 0.7038 0.25076 0.56626 0.0
C342 C 0.70049 0.11855 0.4773 0.0
C343 C 0.70691 0.20555 0.69981 0.0
O344 O 0.70964 0.17038 0.46989 0.0
O345 O 0.72222 0.20863 0.50556 0.0
O346 O 0.6665 0.13037 0.65575 0.0
O347 O 0.66908 0.11463 0.57913 0.0
O348 O 0.66612 0.2469 0.64956 0.0
O349 O 0.63852 0.21371 0.61301 0.0
O350 O 0.65399 0.14218 0.48913 0.0
O351 O 0.66697 0.18393 0.49335 0.0
Co352 Co 0.89556 0.56805 0.52536 0.0
Co353 Co 0.87882 0.5319 0.63397 0.0
Co354 Co 0.84066 0.52086 0.55171 0.0
H355 H 0.86843 0.54539 0.55394 0.0
O356 O 0.87135 0.55192 0.58403 0.0
H357 H 0.85275 0.50639 0.62482 0.0
O358 O 0.85144 0.50138 0.59384 0.0
Co359 Co 0.8247 0.48098 0.64312 0.0
O360 O 0.84554 0.47674 0.698 0.0
O361 O 0.88523 0.51062 0.68585 0.0
O362 O 0.79374 0.48117 0.61418 0.0
O363 O 0.8073 0.49026 0.53402 0.0
O364 O 0.90997 0.5881 0.45808 0.0
O365 O 0.91757 0.60774 0.5263 0.0
O366 O 0.81767 0.50413 0.68504 0.0
O367 O 0.8572 0.53863 0.68551 0.0
C368 C 0.84452 0.55627 0.47262 0.0
C369 C 0.92738 0.57984 0.629 0.0
C370 C 0.80265 0.43503 0.62195 0.0
C371 C 0.87859 0.51782 0.47883 0.0
C372 C 0.86944 0.48947 0.70836 0.0
C373 C 0.7893 0.48066 0.56675 0.0
C374 C 0.92081 0.60977 0.47896 0.0
C375 C 0.83355 0.52667 0.69987 0.0
O376 O 0.86915 0.56643 0.47075 0.0
O377 O 0.83129 0.54136 0.50855 0.0
O378 O 0.90924 0.56323 0.65703 0.0
O379 O 0.92505 0.5818 0.58042 0.0
O380 O 0.79245 0.44543 0.64665 0.0
O381 O 0.82558 0.4506 0.61044 0.0
O382 O 0.89813 0.53845 0.49423 0.0
O383 O 0.85589 0.51187 0.49255 0.0
Co384 Co 0.47716 0.67493 0.38077 0.0
Co385 Co 0.51516 0.69724 0.47567 0.0
Co386 Co 0.52674 0.67023 0.39362 0.0
H387 H 0.50157 0.67136 0.40128 0.0
O388 O 0.49588 0.66748 0.43186 0.0
H389 H 0.53964 0.69384 0.47412 0.0
O390 O 0.54642 0.69753 0.4442 0.0
Co391 Co 0.56219 0.68928 0.50299 0.0
O392 O 0.56041 0.71367 0.55767 0.0
O393 O 0.53554 0.72682 0.52063 0.0
O394 O 0.5763 0.67357 0.44875 0.0
O395 O 0.55806 0.67065 0.37184 0.0
O396 O 0.44143 0.67078 0.37404 0.0
O397 O 0.44664 0.64387 0.41427 0.0
O398 O 0.53306 0.65834 0.5376 0.0
O399 O 0.50457 0.67165 0.53316 0.0
C400 C 0.48749 0.64115 0.31242 0.0
C401 C 0.475 0.70852 0.45908 0.0
C402 C 0.6035 0.70505 0.55028 0.0
C403 C 0.5238 0.71136 0.32672 0.0
C404 C 0.55092 0.72862 0.55563 0.0
C405 C 0.57455 0.66922 0.40023 0.0
C406 C 0.43097 0.65061 0.4002 0.0
C407 C 0.51158 0.65616 0.54983 0.0
O408 O 0.47676 0.65455 0.31953 0.0
O409 O 0.50564 0.64289 0.34108 0.0
O410 O 0.48454 0.70021 0.49206 0.0
O411 O 0.47604 0.70506 0.41158 0.0
O412 O 0.58166 0.69432 0.57062 0.0
O413 O 0.60188 0.70653 0.50288 0.0
O414 O 0.50134 0.70541 0.34065 0.0
O415 O 0.5348 0.69888 0.34168 0.0
Co416 Co 0.36509 0.8292 0.38454 0.0
Co417 Co 0.34042 0.8449 0.47607 0.0
Co418 Co 0.36878 0.88337 0.39446 0.0
H419 H 0.36776 0.85713 0.40344 0.0
O420 O 0.37103 0.85544 0.43454 0.0
H421 H 0.34455 0.87292 0.474 0.0
O422 O 0.34116 0.87613 0.44396 0.0
Co423 Co 0.35001 0.90026 0.50267 0.0
O424 O 0.32526 0.87407 0.55739 0.0
O425 O 0.31023 0.83608 0.51879 0.0
O426 O 0.36588 0.92983 0.44808 0.0
O427 O 0.36862 0.9142 0.37141 0.0
O428 O 0.36871 0.79724 0.37987 0.0
O429 O 0.39647 0.83009 0.41711 0.0
O430 O 0.38213 0.90194 0.53147 0.0
O431 O 0.36457 0.85956 0.53577 0.0
C432 C 0.40114 0.87374 0.31873 0.0
C433 C 0.3292 0.79332 0.46039 0.0
C434 C 0.33425 0.92581 0.54984 0.0
C435 C 0.32837 0.83858 0.3284 0.0
C436 C 0.30927 0.84977 0.55454 0.0
C437 C 0.37026 0.9323 0.39957 0.0
C438 C 0.38929 0.80735 0.40477 0.0
C439 C 0.38234 0.88216 0.54787 0.0
O440 O 0.38953 0.84976 0.32824 0.0
O441 O 0.39646 0.88959 0.34267 0.0
O442 O 0.33665 0.81109 0.49344 0.0
O443 O 0.33399 0.79797 0.41318 0.0
O444 O 0.34618 0.91592 0.56989 0.0
O445 O 0.33157 0.92147 0.50287 0.0
O446 O 0.33474 0.82251 0.34321 0.0
O447 O 0.3404 0.8622 0.34269 0.0
Co448 Co 0.21077 0.56239 0.38278 0.0
Co449 Co 0.19498 0.52282 0.476 0.0
Co450 Co 0.15644 0.51247 0.39456 0.0
H451 H 0.18282 0.53758 0.40293 0.0
O452 O 0.18469 0.54283 0.43385 0.0
H453 H 0.16683 0.49886 0.47438 0.0
O454 O 0.16356 0.49217 0.4444 0.0
Co455 Co 0.13951 0.47696 0.50356 0.0
O456 O 0.16578 0.47877 0.55838 0.0
O457 O 0.2037 0.50157 0.51915 0.0
O458 O 0.10978 0.46326 0.44921 0.0
O459 O 0.12536 0.48144 0.37225 0.0
O460 O 0.24241 0.59821 0.37649 0.0
O461 O 0.20997 0.59281 0.41588 0.0
O462 O 0.13811 0.50729 0.53404 0.0
O463 O 0.18054 0.53267 0.53551 0.0
C464 C 0.16674 0.55259 0.31479 0.0
C465 C 0.24667 0.56357 0.46019 0.0
C466 C 0.11412 0.43508 0.54975 0.0
C467 C 0.20079 0.51623 0.32698 0.0
C468 C 0.19009 0.4871 0.55529 0.0
C469 C 0.10726 0.46507 0.40067 0.0
C470 C 0.23249 0.60858 0.40215 0.0
C471 C 0.15807 0.52755 0.54934 0.0
O472 O 0.19092 0.56356 0.32206 0.0
O473 O 0.15036 0.53398 0.34272 0.0
O474 O 0.22882 0.55294 0.4931 0.0
O475 O 0.24219 0.56359 0.41288 0.0
O476 O 0.12495 0.45673 0.57074 0.0
O477 O 0.1174 0.43723 0.50243 0.0
O478 O 0.21716 0.53869 0.34129 0.0
O479 O 0.17724 0.50483 0.3422 0.0
Co480 Co 0.1393 0.68767 0.85861 0.0
Co481 Co 0.17338 0.70812 0.96966 0.0
Co482 Co 0.18789 0.68251 0.8897 0.0
H483 H 0.1626 0.68469 0.88865 0.0
O484 O 0.1555 0.6807 0.9183 0.0
H485 H 0.19972 0.70941 0.96306 0.0
O486 O 0.20541 0.7131 0.93247 0.0
Co487 Co 0.22552 0.70886 0.98524 0.0
O488 O 0.2272 0.73242 0.04045 0.0
O489 O 0.19238 0.73585 0.02327 0.0
O490 O 0.21941 0.67453 0.96205 0.0
O491 O 0.21946 0.68016 0.87921 0.0
O492 O 0.11954 0.68377 0.79174 0.0
O493 O 0.09953 0.66813 0.85867 0.0
O494 O 0.20407 0.68037 0.03245 0.0
O495 O 0.16683 0.67965 0.02113 0.0
C496 C 0.15363 0.64945 0.80918 0.0
C497 C 0.12499 0.70698 0.96043 0.0
C498 C 0.27147 0.73215 0.96277 0.0
C499 C 0.19047 0.72166 0.81201 0.0
C500 C 0.21302 0.74212 0.04867 0.0
C501 C 0.22625 0.67209 0.91771 0.0
C502 C 0.09773 0.67108 0.81184 0.0
C503 C 0.18036 0.67097 0.04186 0.0
O504 O 0.14189 0.66239 0.80689 0.0
O505 O 0.16937 0.65278 0.84471 0.0
O506 O 0.14084 0.70507 0.98985 0.0
O507 O 0.12431 0.70336 0.91164 0.0
O508 O 0.26219 0.71688 0.99946 0.0
O509 O 0.25482 0.73503 0.93986 0.0
O510 O 0.16829 0.71836 0.82238 0.0
O511 O 0.19848 0.70741 0.83107 0.0
Co512 Co 0.35193 0.47757 0.85731 0.0
Co513 Co 0.33258 0.49301 0.96712 0.0
Co514 Co 0.35868 0.53207 0.88497 0.0
H515 H 0.35593 0.50446 0.88616 0.0
O516 O 0.35989 0.50156 0.91599 0.0
H517 H 0.33217 0.51845 0.95891 0.0
O518 O 0.32838 0.52009 0.92817 0.0
Co519 Co 0.33375 0.54562 0.97898 0.0
O520 O 0.31157 0.52491 0.03763 0.0
O521 O 0.30503 0.48549 0.02044 0.0
O522 O 0.36355 0.57778 0.95017 0.0
O523 O 0.36096 0.5655 0.86932 0.0
O524 O 0.35645 0.46215 0.79047 0.0
O525 O 0.37065 0.45661 0.85807 0.0
O526 O 0.36438 0.55357 0.02029 0.0
O527 O 0.36125 0.51497 0.01818 0.0
C528 C 0.39103 0.52886 0.80583 0.0
C529 C 0.33275 0.44512 0.96016 0.0
C530 C 0.3088 0.56685 0.96215 0.0
C531 C 0.3184 0.49436 0.8096 0.0
C532 C 0.30046 0.5009 0.04638 0.0
C533 C 0.36767 0.58294 0.90301 0.0
C534 C 0.36839 0.45239 0.81102 0.0
C535 C 0.37212 0.53839 0.03369 0.0
O536 O 0.37654 0.50431 0.80368 0.0
O537 O 0.3886 0.54227 0.84035 0.0
O538 O 0.33459 0.46306 0.98901 0.0
O539 O 0.33642 0.44771 0.91145 0.0
O540 O 0.32192 0.57028 1.00155 0.0
O541 O 0.30936 0.55084 0.93248 0.0
O542 O 0.32102 0.47531 0.82162 0.0
O543 O 0.33344 0.5169 0.82687 0.0
Co544 Co 0.56041 0.90019 0.85795 0.0
Co545 Co 0.54538 0.86474 0.96801 0.0
Co546 Co 0.50637 0.85113 0.88631 0.0
H547 H 0.53384 0.87656 0.88718 0.0
O548 O 0.53658 0.88331 0.91707 0.0
H549 H 0.5194 0.83888 0.96127 0.0
O550 O 0.51789 0.8331 0.93089 0.0
Co551 Co 0.49173 0.81385 0.98206 0.0
O552 O 0.51324 0.81279 0.03984 0.0
O553 O 0.55304 0.84487 0.02067 0.0
O554 O 0.46001 0.81175 0.95107 0.0
O555 O 0.47328 0.81968 0.87053 0.0
O556 O 0.57589 0.92019 0.79105 0.0
O557 O 0.58108 0.94 0.8584 0.0
O558 O 0.48489 0.83725 0.0238 0.0
O559 O 0.52433 0.8718 0.02037 0.0
C560 C 0.50872 0.88573 0.80544 0.0
C561 C 0.59341 0.91325 0.9602 0.0
C562 C 0.4692 0.76745 0.96457 0.0
C563 C 0.54462 0.84975 0.8105 0.0
C564 C 0.53744 0.82526 0.04738 0.0
C565 C 0.45538 0.81016 0.90356 0.0
C566 C 0.58545 0.94193 0.81138 0.0
C567 C 0.50104 0.86001 0.03691 0.0
O568 O 0.53345 0.89765 0.80411 0.0
O569 O 0.496 0.86993 0.84059 0.0
O570 O 0.57558 0.89675 0.98884 0.0
O571 O 0.59065 0.91478 0.91164 0.0
O572 O 0.46095 0.77802 0.99424 0.0
O573 O 0.49056 0.78319 0.94561 0.0
O574 O 0.56315 0.87214 0.82073 0.0
O575 O 0.52223 0.84121 0.82953 0.0
H576 H 0.10147 0.15991 0.79302 0.0
H577 H 0.09119 0.02269 0.78989 0.0
H578 H 0.04688 0.09486 0.70468 0.0
H579 H 0.16282 0.09184 0.82009 0.0
H580 H 0.06976 0.0479 0.78388 0.0
H581 H 0.12036 0.13437 0.82338 0.0
C582 C 0.09356 0.14032 0.77993 0.0
C583 C 0.07273 0.12945 0.74611 0.0
C584 C 0.09005 0.05753 0.79299 0.0
C585 C 0.09354 0.1002 0.78172 0.0
C586 C 0.10216 0.04312 0.79691 0.0
C587 C 0.12863 0.05535 0.80533 0.0
C588 C 0.10469 0.08435 0.79707 0.0
C589 C 0.14224 0.08186 0.81393 0.0
C590 C 0.1042 0.1258 0.79748 0.0
C591 C 0.06305 0.10401 0.73045 0.0
N592 N 0.13015 0.09569 0.8088 0.0
N593 N 0.07345 0.0902 0.74863 0.0
H594 H 0.01997 0.09461 0.78655 0.0
H595 H 0.8812 0.969 0.80229 0.0
H596 H 0.95262 0.09884 0.82437 0.0
H597 H 0.94287 0.978 0.70473 0.0
H598 H 0.90866 0.01346 0.83193 0.0
H599 H 0.99368 0.04784 0.78227 0.0
C600 C 0.99973 0.0855 0.79549 0.0
C601 C 0.98832 0.10028 0.80558 0.0
C602 C 0.91611 1.00551 0.80432 0.0
C603 C 0.95804 0.04719 0.79963 0.0
C604 C 0.9005 0.98032 0.78728 0.0
C605 C 0.90978 0.97004 0.7507 0.0
C606 C 0.94125 0.02005 0.7855 0.0
C607 C 0.9349 0.9853 0.73259 0.0
C608 C 0.98471 0.05892 0.79267 0.0
C609 C 0.96202 0.08785 0.81687 0.0
N610 N 0.9498 0.0095 0.75034 0.0
N611 N 0.94755 0.06185 0.81285 0.0
H612 H 0.94066 0.93588 0.71458 0.0
H613 H 0.07202 0.95145 0.81247 0.0
H614 H 0.94348 0.89825 0.85193 0.0
H615 H 0.06288 0.99212 0.68649 0.0
H616 H 0.02636 0.93392 0.83407 0.0
H617 H 0.9865 0.95999 0.71201 0.0
C618 C 0.95101 0.93315 0.74516 0.0
C619 C 0.9382 0.91515 0.78368 0.0
C620 C 0.03451 0.94681 0.80198 0.0
C621 C 0.99156 0.94207 0.77961 0.0
C622 C 0.06037 0.95659 0.78938 0.0
C623 C 0.07092 0.97281 0.74708 0.0
C624 C 0.01949 0.95352 0.772 0.0
C625 C 0.05539 0.97934 0.71887 0.0
C626 C 0.97743 0.94685 0.74342 0.0
C627 C 0.95278 0.91209 0.82168 0.0
N628 N 0.0305 0.96962 0.73181 0.0
N629 N 0.97895 0.92515 0.8182 0.0
H630 H 0.93801 0.88833 0.22981 0.0
H631 H 0.94421 0.02316 0.25903 0.0
H632 H 0.98965 0.95009 0.32841 0.0
H633 H 0.87782 0.95682 0.19701 0.0
H634 H 0.96655 0.99891 0.26343 0.0
H635 H 0.91978 0.91474 0.20129 0.0
C636 C 0.94539 0.90737 0.24557 0.0
C637 C 0.96516 0.91704 0.28182 0.0
C638 C 0.94728 0.9897 0.2479 0.0
C639 C 0.94505 0.94731 0.24855 0.0
C640 C 0.93469 1.00364 0.24482 0.0
C641 C 0.90927 0.99181 0.22778 0.0
C642 C 0.93413 0.96361 0.23471 0.0
C643 C 0.89755 0.96648 0.21013 0.0
C644 C 0.93513 0.92242 0.22906 0.0
C645 C 0.97425 0.94183 0.30078 0.0
N646 N 0.90996 0.95293 0.21494 0.0
N647 N 0.96417 0.95612 0.2838 0.0
H648 H 0.15326 0.07526 0.23684 0.0
H649 H 0.01509 0.94861 0.23421 0.0
H650 H 0.0836 0.07044 0.29324 0.0
H651 H 0.08535 0.94799 0.2076 0.0
H652 H 0.03917 0.99549 0.23462 0.0
H653 H 0.12809 0.03063 0.20786 0.0
C654 C 0.13266 0.0648 0.24292 0.0
C655 C 0.12045 0.07627 0.26805 0.0
C656 C 0.04933 0.9852 0.22759 0.0
C657 C 0.09168 0.02572 0.23448 0.0
C658 C 0.03555 0.95852 0.22704 0.0
C659 C 0.04842 0.9448 0.2211 0.0
C660 C 0.0762 0.99807 0.22287 0.0
C661 C 0.0749 0.95818 0.21198 0.0
C662 C 0.11834 0.03945 0.22624 0.0
C663 C 0.09376 0.06212 0.27464 0.0
N664 N 0.08811 0.98425 0.21394 0.0
N665 N 0.08027 0.03752 0.25813 0.0
H666 H 0.09824 0.17361 0.28674 0.0
H667 H 0.95788 0.06859 0.19716 0.0
H668 H 0.08694 0.11523 0.17837 0.0
H669 H 0.9768 0.10259 0.34657 0.0
H670 H 1.00373 0.09278 0.17439 0.0
H671 H 0.05192 0.1561 0.29055 0.0
C672 C 0.0859 0.15741 0.26283 0.0
C673 C 0.09612 0.14557 0.23269 0.0
C674 C 0.99769 0.09507 0.21186 0.0
C675 C 0.04334 0.12527 0.23736 0.0
C676 C 0.97168 0.08144 0.22482 0.0
C677 C 0.96378 0.08378 0.27375 0.0
C678 C 0.01556 0.1115 0.24779 0.0
C679 C 0.98223 0.10031 0.30852 0.0
C680 C 0.05956 0.14738 0.2652 0.0
C681 C 0.07956 0.12482 0.20194 0.0
N682 N 1.00731 0.11364 0.29477 0.0
N683 N 0.0537 0.11495 0.20561 0.0
H684 H 0.75507 0.35371 0.11946 0.0
H685 H 0.76756 0.49196 0.12649 0.0
H686 H 0.82703 0.42201 0.1516 0.0
H687 H 0.71215 0.42785 0.03721 0.0
H688 H 0.78585 0.46567 0.1555 0.0
H689 H 0.73424 0.37954 0.11346 0.0
C690 C 0.76622 0.37409 0.12677 0.0
C691 C 0.7926 0.38589 0.13575 0.0
C692 C 0.76966 0.45747 0.12967 0.0
C693 C 0.7694 0.41562 0.12784 0.0
C694 C 0.75935 0.47243 0.11289 0.0
C695 C 0.73847 0.46205 0.07917 0.0
C696 C 0.75863 0.43194 0.11321 0.0
C697 C 0.72838 0.43664 0.06289 0.0
C698 C 0.75447 0.38885 0.12294 0.0
C699 C 0.8065 0.41235 0.14497 0.0
N700 N 0.73848 0.42241 0.08029 0.0
N701 N 0.79477 0.42654 0.14005 0.0
H702 H 0.68704 0.42976 0.12408 0.0
H703 H 0.54917 0.30284 0.13054 0.0
H704 H 0.61797 0.43194 0.15546 0.0
H705 H 0.61469 0.31187 0.04587 0.0
H706 H 0.57513 0.34738 0.16031 0.0
H707 H 0.66191 0.38293 0.12052 0.0
C708 C 0.66664 0.42018 0.1317 0.0
C709 C 0.65438 0.43434 0.13963 0.0
C710 C 0.58373 0.33945 0.13541 0.0
C711 C 0.62547 0.38126 0.13443 0.0
C712 C 0.56897 0.31422 0.1182 0.0
C713 C 0.57984 0.30388 0.08544 0.0
C714 C 0.60951 0.35406 0.12029 0.0
C715 C 0.60555 0.31923 0.07075 0.0
C716 C 0.65228 0.39358 0.12932 0.0
C717 C 0.62795 0.42138 0.14948 0.0
N718 N 0.61955 0.34354 0.08844 0.0
N719 N 0.61414 0.39537 0.14576 0.0
H720 H 0.73849 0.2723 0.12511 0.0
H721 H 0.61216 0.28371 0.12927 0.0
H722 H 0.72798 0.32705 0.03781 0.0
H723 H 0.60847 0.21109 0.15062 0.0
H724 H 0.65895 0.30472 0.12199 0.0
H725 H 0.69406 0.25341 0.15614 0.0
C726 C 0.7268 0.28025 0.11239 0.0
C727 C 0.73674 0.30113 0.0787 0.0
C728 C 0.64798 0.28428 0.12954 0.0
C729 C 0.68674 0.28036 0.11512 0.0
C730 C 0.62143 0.27243 0.13413 0.0
C731 C 0.60682 0.24585 0.14039 0.0
C732 C 0.65979 0.26927 0.13106 0.0
C733 C 0.61938 0.23177 0.14627 0.0
C734 C 0.70164 0.26961 0.13032 0.0
C735 C 0.72097 0.31085 0.0635 0.0
N736 N 0.64533 0.24364 0.14074 0.0
N737 N 0.69678 0.30048 0.08211 0.0
H738 H 0.60965 0.35353 0.54952 0.0
H739 H 0.5989 0.21645 0.57763 0.0
H740 H 0.53702 0.283 0.55573 0.0
H741 H 0.66256 0.28754 0.63256 0.0
H742 H 0.57815 0.2402 0.54746 0.0
H743 H 0.63191 0.32887 0.55418 0.0
C744 C 0.5985 0.33277 0.55011 0.0
C745 C 0.5717 0.32009 0.55224 0.0
C746 C 0.59673 0.25053 0.56586 0.0
C747 C 0.59661 0.29195 0.55855 0.0
C748 C 0.60847 0.23704 0.58327 0.0
C749 C 0.63231 0.2501 0.60796 0.0
C750 C 0.60918 0.27722 0.57254 0.0
C751 C 0.64404 0.27675 0.61411 0.0
C752 C 0.6111 0.31875 0.55321 0.0
C753 C 0.55781 0.29325 0.55348 0.0
N754 N 0.63238 0.28947 0.59639 0.0
N755 N 0.57047 0.27995 0.55723 0.0
H756 H 0.82219 0.40819 0.57484 0.0
H757 H 0.68444 0.28183 0.54901 0.0
H758 H 0.75128 0.40145 0.62871 0.0
H759 H 0.75506 0.28007 0.55228 0.0
H760 H 0.70919 0.32885 0.55275 0.0
H761 H 0.79805 0.36371 0.54457 0.0
C762 C 0.80156 0.39733 0.58019 0.0
C763 C 0.78866 0.40828 0.60465 0.0
C764 C 0.71931 0.31821 0.55131 0.0
C765 C 0.76108 0.35801 0.56922 0.0
C766 C 0.70522 0.29153 0.54872 0.0
C767 C 0.71792 0.27748 0.5503 0.0
C768 C 0.74618 0.33063 0.55562 0.0
C769 C 0.74479 0.29054 0.55046 0.0
C770 C 0.78784 0.3721 0.56273 0.0
C771 C 0.76194 0.39357 0.61045 0.0
N772 N 0.75815 0.31654 0.55375 0.0
N773 N 0.74899 0.36914 0.59278 0.0
H774 H 0.75807 0.43043 0.54693 0.0
H775 H 0.63162 0.44094 0.57646 0.0
H776 H 0.76014 0.5028 0.55558 0.0
H777 H 0.63864 0.37675 0.62855 0.0
H778 H 0.67618 0.46178 0.54606 0.0
H779 H 0.711 0.40805 0.5505 0.0
C780 C 0.74842 0.44151 0.5478 0.0
C781 C 0.76256 0.46825 0.551 0.0
C782 C 0.66781 0.44306 0.56382 0.0
C783 C 0.70937 0.44322 0.55604 0.0
C784 C 0.64254 0.43125 0.58137 0.0
C785 C 0.63165 0.40725 0.60534 0.0
C786 C 0.68197 0.43051 0.56971 0.0
C787 C 0.64645 0.39539 0.61061 0.0
C788 C 0.72172 0.42884 0.55027 0.0
C789 C 0.74959 0.48206 0.55258 0.0
N790 N 0.6709 0.40714 0.59283 0.0
N791 N 0.72355 0.46934 0.5557 0.0
H792 H 0.4243 0.68908 0.47457 0.0
H793 H 0.43545 0.82659 0.45334 0.0
H794 H 0.49693 0.75969 0.47393 0.0
H795 H 0.3721 0.75631 0.39474 0.0
H796 H 0.45586 0.80237 0.48254 0.0
H797 H 0.40206 0.71376 0.47048 0.0
C798 C 0.43543 0.70983 0.47528 0.0
C799 C 0.46225 0.72255 0.47458 0.0
C800 C 0.43742 0.79232 0.46356 0.0
C801 C 0.43738 0.75076 0.46896 0.0
C802 C 0.42586 0.80608 0.44671 0.0
C803 C 0.4022 0.79339 0.42133 0.0
C804 C 0.42497 0.76571 0.45555 0.0
C805 C 0.39046 0.76682 0.41385 0.0
C806 C 0.42285 0.72388 0.47252 0.0
C807 C 0.47612 0.74939 0.47505 0.0
N808 N 0.40195 0.75383 0.43101 0.0
N809 N 0.4635 0.76273 0.47163 0.0
H810 H 0.27795 0.76424 0.47646 0.0
H811 H 0.28327 0.64271 0.38885 0.0
H812 H 0.34814 0.76168 0.47348 0.0
H813 H 0.21387 0.63542 0.45299 0.0
H814 H 0.30705 0.68693 0.41889 0.0
H815 H 0.25334 0.71718 0.47157 0.0
C816 C 0.28806 0.75359 0.47682 0.0
C817 C 0.31493 0.76645 0.47548 0.0
C818 C 0.28666 0.67562 0.42678 0.0
C819 C 0.28734 0.71332 0.46763 0.0
C820 C 0.27304 0.65049 0.40916 0.0
C821 C 0.2466 0.63554 0.41834 0.0
C822 C 0.27363 0.68602 0.45287 0.0
C823 C 0.23427 0.64645 0.44506 0.0
C824 C 0.27411 0.72686 0.47351 0.0
C825 C 0.32739 0.75216 0.47451 0.0
N826 N 0.24787 0.67122 0.46104 0.0
N827 N 0.31348 0.72629 0.46965 0.0
H828 H 0.2755 0.54159 0.47923 0.0
H829 H 0.39733 0.66771 0.38722 0.0
H830 H 0.2784 0.61437 0.47116 0.0
H831 H 0.40397 0.60549 0.45233 0.0
H832 H 0.35331 0.64782 0.41844 0.0
H833 H 0.32259 0.56402 0.47453 0.0
C834 C 0.28624 0.56239 0.47855 0.0
C835 C 0.27348 0.57639 0.47561 0.0
C836 C 0.36443 0.63858 0.42626 0.0
C837 C 0.32662 0.60187 0.46805 0.0
C838 C 0.38942 0.64976 0.40791 0.0
C839 C 0.40411 0.63806 0.41697 0.0
C840 C 0.35389 0.61527 0.45293 0.0
C841 C 0.39311 0.61498 0.4444 0.0
C842 C 0.31298 0.57515 0.47536 0.0
C843 C 0.28784 0.60314 0.47338 0.0
N844 N 0.36846 0.60413 0.46105 0.0
N845 N 0.31374 0.61509 0.4687 0.0
H846 H 0.28298 0.56619 0.87522 0.0
H847 H 0.25869 0.67416 0.98938 0.0
H848 H 0.30895 0.60352 0.0207 0.0
H849 H 0.23037 0.64279 0.84032 0.0
H850 H 0.28115 0.65106 0.99387 0.0
H851 H 0.26594 0.59493 0.85583 0.0
C852 C 0.28491 0.58029 0.90308 0.0
C853 C 0.29702 0.58237 0.94992 0.0
C854 C 0.27037 0.6492 0.95963 0.0
C855 C 0.27833 0.61523 0.92773 0.0
C856 C 0.25763 0.66277 0.95678 0.0
C857 C 0.24271 0.66059 0.91425 0.0
C858 C 0.26775 0.63243 0.9203 0.0
C859 C 0.2418 0.64501 0.87373 0.0
C860 C 0.27543 0.59673 0.89183 0.0
C861 C 0.29949 0.60106 0.98442 0.0
N862 N 0.25388 0.63102 0.87806 0.0
N863 N 0.29024 0.61668 0.97257 0.0
H864 H 0.41583 0.61254 0.86432 0.0
H865 H 0.42019 0.7332 0.9917 0.0
H866 H 0.34883 0.61465 0.91482 0.0
H867 H 0.48345 0.74074 0.90112 0.0
H868 H 0.39397 0.6893 0.96182 0.0
H869 H 0.44106 0.65961 0.87105 0.0
C870 C 0.40627 0.62307 0.87472 0.0
C871 C 0.38035 0.61002 0.88901 0.0
C872 C 0.41355 0.70052 0.9482 0.0
C873 C 0.40887 0.6631 0.89864 0.0
C874 C 0.42861 0.72548 0.96576 0.0
C875 C 0.45401 0.74045 0.94906 0.0
C876 C 0.4241 0.69024 0.91436 0.0
C877 C 0.46392 0.72966 0.91503 0.0
C878 C 0.42066 0.6498 0.87916 0.0
C879 C 0.3688 0.62419 0.90353 0.0
N880 N 0.44896 0.70503 0.89901 0.0
N881 N 0.38323 0.64997 0.90873 0.0
H882 H 0.42798 0.8327 0.87549 0.0
H883 H 0.30396 0.71459 0.98449 0.0
H884 H 0.42195 0.75932 0.90135 0.0
H885 H 0.29893 0.77331 0.89993 0.0
H886 H 0.34767 0.73138 0.95348 0.0
H887 H 0.38091 0.812 0.8795 0.0
C888 C 0.41659 0.81205 0.87999 0.0
C889 C 0.42849 0.79749 0.88818 0.0
C890 C 0.337 0.74054 0.94136 0.0
C891 C 0.37533 0.77406 0.89476 0.0
C892 C 0.31215 0.73112 0.9595 0.0
C893 C 0.29805 0.7428 0.94509 0.0
C894 C 0.34804 0.76218 0.90951 0.0
C895 C 0.30939 0.76394 0.9121 0.0
C896 C 0.38985 0.8003 0.88273 0.0
C897 C 0.41324 0.77101 0.89516 0.0
N898 N 0.33397 0.77326 0.89589 0.0
N899 N 0.38739 0.76014 0.89921 0.0
H900 H 0.19295 0.09033 0.66478 0.0
H901 H 0.20991 0.11507 0.36855 0.0
H902 H 0.2122 0.04533 0.56635 0.0
H903 H 0.21462 0.17171 0.47443 0.0
H904 H 0.21348 0.09057 0.43954 0.0
H905 H 0.20335 0.12151 0.59635 0.0
C906 C 0.20003 0.08737 0.62901 0.0
C907 C 0.202 0.06535 0.62146 0.0
C908 C 0.21447 0.1087 0.44727 0.0
C909 C 0.21315 0.10066 0.54189 0.0
C910 C 0.21265 0.12279 0.4067 0.0
C911 C 0.21266 0.14578 0.41559 0.0
C912 C 0.21556 0.11726 0.4974 0.0
C913 C 0.21523 0.15444 0.46587 0.0
C914 C 0.20587 0.10515 0.58981 0.0
C915 C 0.21084 0.06226 0.57405 0.0
N916 N 0.21622 0.14003 0.50488 0.0
N917 N 0.21566 0.07948 0.53578 0.0
H918 H 0.99103 0.19525 0.57114 0.0
H919 H 0.87039 0.06146 0.48016 0.0
H920 H 0.95266 0.12655 0.66204 0.0
H921 H 0.91366 0.12438 0.37747 0.0
H922 H 0.89515 0.08883 0.55138 0.0
H923 H 0.95833 0.17347 0.50422 0.0
C924 C 0.97533 0.17591 0.57765 0.0
C925 C 0.97451 0.16273 0.62233 0.0
C926 C 0.89891 0.09699 0.51352 0.0
C927 C 0.93727 0.13762 0.54597 0.0
C928 C 0.88449 0.08141 0.47294 0.0
C929 C 0.8895 0.09088 0.4231 0.0
C930 C 0.91897 0.12223 0.50432 0.0
C931 C 0.90873 0.11658 0.41556 0.0
C932 C 0.95682 0.16338 0.53927 0.0
C933 C 0.95405 0.13746 0.62825 0.0
N934 N 0.92295 0.13131 0.45563 0.0
N935 N 0.93645 0.12578 0.59065 0.0
H936 H 0.84352 0.82123 0.56963 0.0
H937 H 0.98107 0.84346 0.48136 0.0
H938 H 0.91311 0.85877 0.65807 0.0
H939 H 0.91599 0.81277 0.38061 0.0
H940 H 0.95337 0.84099 0.55157 0.0
H941 H 0.8665 0.81046 0.50505 0.0
C942 C 0.86337 0.82658 0.57609 0.0
C943 C 0.87642 0.84091 0.61928 0.0
C944 C 0.94485 0.83422 0.51448 0.0
C945 C 0.90283 0.8289 0.54576 0.0
C946 C 0.96068 0.83535 0.4745 0.0
C947 C 0.95071 0.8278 0.42541 0.0
C948 C 0.91879 0.826 0.50537 0.0
C949 C 0.92428 0.8182 0.41822 0.0
C950 C 0.87655 0.82064 0.53909 0.0
C951 C 0.9023 0.84777 0.62531 0.0
N952 N 0.90926 0.81787 0.45761 0.0
N953 N 0.91457 0.84184 0.58909 0.0
H954 H 0.06884 0.24852 0.96697 0.0
H955 H 0.18157 0.21958 0.03723 0.0
H956 H 0.08025 0.19343 0.88358 0.0
H957 H 0.14136 0.23724 0.15122 0.0
H958 H 0.15179 0.21935 0.97244 0.0
H959 H 0.10228 0.25355 0.02737 0.0
C960 C 0.07855 0.2377 0.96102 0.0
C961 C 0.07163 0.22047 0.92015 0.0
C962 C 0.14981 0.22369 1.01155 0.0
C963 C 0.11035 0.22657 0.98863 0.0
C964 C 0.16698 0.22414 0.04838 0.0
C965 C 0.16413 0.22872 0.09965 0.0
C966 C 0.13002 0.22843 0.02588 0.0
C967 C 0.14439 0.23383 0.11211 0.0
C968 C 0.09757 0.24052 0.9956 0.0
C969 C 0.08481 0.2068 0.91469 0.0
N970 N 0.12822 0.23366 0.07562 0.0
N971 N 0.1036 0.21026 0.94822 0.0
H972 H 0.7778 0.952 0.07213 0.0
H973 H 0.86334 0.90337 0.92865 0.0
H974 H 0.8542 0.9701 0.11597 0.0
H975 H 0.78064 0.86072 0.91603 0.0
H976 H 0.86006 0.93238 0.98811 0.0
H977 H 0.77811 0.92269 1.0061 0.0
C978 C 0.79459 0.94996 0.0678 0.0
C979 C 0.81586 0.96337 0.10018 0.0
C980 C 0.84254 0.91671 0.97249 0.0
C981 C 0.8165 0.93035 0.02473 0.0
C982 C 0.84439 0.90003 0.93824 0.0
C983 C 0.82223 0.87929 0.91713 0.0
C984 C 0.81834 0.91307 0.98607 0.0
C985 C 0.79827 0.87629 0.93146 0.0
C986 C 0.79471 0.93316 0.03039 0.0
C987 C 0.83714 0.95997 0.09269 0.0
N988 N 0.79694 0.893 0.96495 0.0
N989 N 0.8369 0.94403 0.05602 0.0
H990 H 0.18179 0.94857 0.91799 0.0
H991 H 0.06389 0.90901 0.10767 0.0
H992 H 0.13654 0.98584 0.92647 0.0
H993 H 0.08989 0.8556 0.07472 0.0
H994 H 0.09309 0.93812 0.04421 0.0
H995 H 0.15145 0.91543 0.97749 0.0
C996 C 0.16556 0.94985 0.93216 0.0
C997 C 0.16191 0.97025 0.917 0.0
C998 C 0.09249 0.92004 0.05027 0.0
C999 C 0.12717 0.93236 0.98514 0.0
C1000 C 0.07576 0.9033 0.08683 0.0
C1001 C 0.0744 0.87973 0.09695 0.0
C1002 C 0.10859 0.91367 0.02317 0.0
C1003 C 0.09021 0.87349 0.06809 0.0
C1004 C 0.1482 0.93083 0.96595 0.0
C1005 C 0.14041 0.9707 0.93674 0.0
N1006 N 0.1069 0.89051 0.03278 0.0
N1007 N 0.12413 0.95227 0.96963 0.0
H1008 H 0.82406 0.87277 0.5477 0.0
H1009 H 0.81662 0.99603 0.45408 0.0
H1010 H 0.81161 0.92107 0.65035 0.0
H1011 H 0.84941 0.95873 0.36755 0.0
H1012 H 0.80455 0.96315 0.52097 0.0
H1013 H 0.82246 0.89792 0.47596 0.0
C1014 C 0.81978 0.88795 0.55488 0.0
C1015 C 0.81716 0.89435 0.60485 0.0
C1016 C 0.81397 0.96195 0.48686 0.0
C1017 C 0.81642 0.92406 0.52309 0.0
C1018 C 0.82065 0.98057 0.44856 0.0
C1019 C 0.834 0.98009 0.40517 0.0
C1020 C 0.82034 0.94253 0.48126 0.0
C1021 C 0.83918 0.95988 0.40041 0.0
C1022 C 0.8193 0.90261 0.51401 0.0
C1023 C 0.81294 0.91505 0.61224 0.0
N1024 N 0.83243 0.94205 0.43785 0.0
N1025 N 0.81288 0.92929 0.57191 0.0
H1026 H 0.03675 0.85055 0.46409 0.0
H1027 H 0.17 0.97292 0.55405 0.0
H1028 H 0.08713 0.91235 0.36465 0.0
H1029 H 0.10879 0.92499 0.65687 0.0
H1030 H 0.14479 0.94472 0.48335 0.0
H1031 H 0.06769 0.87144 0.53388 0.0
C1032 C 0.05474 0.868 0.45651 0.0
C1033 C 0.05957 0.87954 0.40835 0.0
C1034 C 0.13714 0.93998 0.52159 0.0
C1035 C 0.09491 0.90376 0.48801 0.0
C1036 C 0.1517 0.95589 0.56198 0.0
C1037 C 0.14172 0.95091 0.61149 0.0
C1038 C 0.11241 0.91891 0.53078 0.0
C1039 C 0.1174 0.92914 0.61938 0.0
C1040 C 0.07226 0.8801 0.49645 0.0
C1041 C 0.08281 0.90267 0.40108 0.0
N1042 N 0.10357 0.91403 0.57957 0.0
N1043 N 0.09953 0.91401 0.44034 0.0
H1044 H 0.12364 0.19312 0.36085 0.0
H1045 H 0.11956 0.23313 0.64883 0.0
H1046 H 0.18918 0.22076 0.45991 0.0
H1047 H 0.05589 0.20356 0.54469 0.0
H1048 H 0.14789 0.23592 0.57835 0.0
H1049 H 0.10145 0.20405 0.42458 0.0
C1050 C 0.1336 0.20208 0.39579 0.0
C1051 C 0.15834 0.20612 0.40487 0.0
C1052 C 0.12789 0.22951 0.57062 0.0
C1053 C 0.1326 0.21818 0.47957 0.0
C1054 C 0.11181 0.22825 0.6107 0.0
C1055 C 0.0855 0.2187 0.60221 0.0
C1056 C 0.11747 0.22097 0.52186 0.0
C1057 C 0.07617 0.21158 0.55259 0.0
C1058 C 0.12084 0.20821 0.43247 0.0
C1059 C 0.17023 0.21759 0.45111 0.0
N1060 N 0.09203 0.2127 0.51456 0.0
N1061 N 0.1571 0.22289 0.48713 0.0
H1062 H 0.98243 0.86837 0.09784 0.0
H1063 H 0.84816 0.78424 0.95312 0.0
H1064 H 0.94197 0.7857 0.10938 0.0
H1065 H 0.9075 0.86034 0.90966 0.0
H1066 H 0.87759 0.7839 0.01889 0.0
H1067 H 0.95038 0.86538 0.03802 0.0
C1068 C 0.96678 0.84948 0.08796 0.0
C1069 C 0.96518 0.82725 0.10889 0.0
C1070 C 0.884 0.80057 0.9947 0.0
C1071 C 0.92777 0.82371 0.03942 0.0
C1072 C 0.86719 0.80082 0.95739 0.0
C1073 C 0.87537 0.82223 0.92523 0.0
C1074 C 0.90881 0.82212 1.00051 0.0
C1075 C 0.9003 0.8432 0.93272 0.0
C1076 C 0.94839 0.8478 0.05347 0.0
C1077 C 0.94416 0.80338 0.09413 0.0
N1078 N 0.91587 0.84261 0.96931 0.0
N1079 N 0.92625 0.80222 0.06039 0.0
H1080 H 0.17091 0.14144 0.09778 0.0
H1081 H 0.25725 0.09256 0.95677 0.0
H1082 H 0.25346 0.18252 0.11378 0.0
H1083 H 0.17963 0.07154 0.91632 0.0
H1084 H 0.25661 0.12186 0.02239 0.0
H1085 H 0.17406 0.1119 0.03942 0.0
C1086 C 0.18979 0.14431 0.08916 0.0
C1087 C 0.21195 0.16476 0.11089 0.0
C1088 C 0.23978 0.11071 0.99903 0.0
C1089 C 0.21572 0.13041 0.04324 0.0
C1090 C 0.2401 0.0939 0.96188 0.0
C1091 C 0.21858 0.07969 0.93051 0.0
C1092 C 0.21761 0.11282 1.00536 0.0
C1093 C 0.19686 0.08227 0.93888 0.0
C1094 C 0.19158 0.12733 0.05556 0.0
C1095 C 0.23583 0.16717 0.09787 0.0
N1096 N 0.19697 0.09832 0.97515 0.0
N1097 N 0.2371 0.15022 0.06497 0.0
H1098 H 0.94719 0.19001 0.95395 0.0
H1099 H 0.89789 0.05619 0.10024 0.0
H1100 H 0.96851 0.13317 0.91862 0.0
H1101 H 0.85509 0.09598 0.11016 0.0
H1102 H 0.92751 0.08863 0.0417 0.0
H1103 H 0.91679 0.16021 0.01873 0.0
C1104 C 0.94564 0.17148 0.95988 0.0
C1105 C 0.96035 0.1641 0.93029 0.0
C1106 C 0.91167 0.09041 0.05645 0.0
C1107 C 0.926 0.13022 1.00422 0.0
C1108 C 0.89462 0.07176 0.09019 0.0
C1109 C 0.87368 0.07307 0.11033 0.0
C1110 C 0.90818 0.11096 0.04226 0.0
C1111 C 0.87083 0.09403 0.09549 0.0
C1112 C 0.92822 0.15445 0.99657 0.0
C1113 C 0.95747 0.13978 0.93972 0.0
N1114 N 0.88789 0.11217 0.06239 0.0
N1115 N 0.94086 0.12398 0.97553 0.0
H1116 H 0.8681 0.42541 0.99806 0.0
H1117 H 0.86938 0.44475 0.69979 0.0
H1118 H 0.87006 0.37233 0.89119 0.0
H1119 H 0.88672 0.50587 0.80546 0.0
H1120 H 0.87298 0.41943 0.76872 0.0
H1121 H 0.87842 0.45653 0.92909 0.0
C1122 C 0.87149 0.42065 0.96021 0.0
C1123 C 0.86879 0.39651 0.95045 0.0
C1124 C 0.87669 0.43862 0.77684 0.0
C1125 C 0.87948 0.43159 0.87067 0.0
C1126 C 0.87484 0.45317 0.73735 0.0
C1127 C 0.87836 0.47767 0.74673 0.0
C1128 C 0.88145 0.4483 0.82667 0.0
C1129 C 0.88449 0.48732 0.79641 0.0
C1130 C 0.8772 0.43835 0.92075 0.0
C1131 C 0.87263 0.39099 0.90051 0.0
N1132 N 0.88549 0.47249 0.83465 0.0
N1133 N 0.8774 0.40822 0.86241 0.0
H1134 H 0.53642 0.39829 0.80974 0.0
H1135 H 0.662 0.52862 0.90012 0.0
H1136 H 0.58956 0.45509 0.70501 0.0
H1137 H 0.61833 0.46244 0.9955 0.0
H1138 H 0.63064 0.50675 0.8312 0.0
H1139 H 0.56093 0.42634 0.88082 0.0
C1140 C 0.55275 0.4171 0.80177 0.0
C1141 C 0.56064 0.42468 0.75153 0.0
C1142 C 0.62765 0.49727 0.86761 0.0
C1143 C 0.58939 0.45664 0.83264 0.0
C1144 C 0.64538 0.50988 0.9071 0.0
C1145 C 0.64264 0.49742 0.95375 0.0
C1146 C 0.60692 0.47216 0.8751 0.0
C1147 C 0.6211 0.47281 0.96024 0.0
C1148 C 0.56695 0.433 0.84231 0.0
C1149 C 0.58254 0.44884 0.74325 0.0
N1150 N 0.60422 0.46102 0.9215 0.0
N1151 N 0.59623 0.4639 0.78332 0.0
H1152 H 0.65107 0.18198 0.81291 0.0
H1153 H 0.51306 0.155 0.90775 0.0
H1154 H 0.58405 0.14484 0.71746 0.0
H1155 H 0.58252 0.19063 0.99683 0.0
H1156 H 0.53596 0.14502 0.84163 0.0
H1157 H 0.62393 0.17898 0.88448 0.0
C1158 C 0.63044 0.17244 0.80754 0.0
C1159 C 0.61974 0.1632 0.75953 0.0
C1160 C 0.54598 0.15458 0.87614 0.0
C1161 C 0.58831 0.16064 0.8411 0.0
C1162 C 0.53284 0.16006 0.91404 0.0
C1163 C 0.54591 0.17369 0.95787 0.0
C1164 C 0.57226 0.16271 0.88243 0.0
C1165 C 0.57169 0.18019 0.96362 0.0
C1166 C 0.61489 0.17094 0.84832 0.0
C1167 C 0.59295 0.15168 0.75423 0.0
N1168 N 0.58395 0.17484 0.92643 0.0
N1169 N 0.57815 0.15102 0.79436 0.0
H1170 H 0.72239 0.51116 0.25631 0.0
H1171 H 0.85348 0.59799 0.4106 0.0
H1172 H 0.75888 0.59384 0.25398 0.0
H1173 H 0.80018 0.51757 0.43635 0.0
H1174 H 0.82367 0.59813 0.3454 0.0
H1175 H 0.75519 0.5144 0.31409 0.0
C1176 C 0.73731 0.53012 0.26786 0.0
C1177 C 0.73756 0.55225 0.25003 0.0
C1178 C 0.81871 0.58052 0.36538 0.0
C1179 C 0.7759 0.55612 0.31735 0.0
C1180 C 0.83578 0.5804 0.40223 0.0
C1181 C 0.82929 0.55778 0.42929 0.0
C1182 C 0.79536 0.55775 0.3551 0.0
C1183 C 0.80599 0.53556 0.41702 0.0
C1184 C 0.75617 0.53195 0.30117 0.0
C1185 C 0.75774 0.57621 0.26677 0.0
N1186 N 0.7901 0.53614 0.38119 0.0
N1187 N 0.77611 0.57753 0.29948 0.0
H1188 H 0.46467 0.26326 0.48372 0.0
H1189 H 0.51801 0.2473 0.21994 0.0
H1190 H 0.49177 0.32296 0.37061 0.0
H1191 H 0.45588 0.1821 0.29545 0.0
H1192 H 0.51259 0.27594 0.27865 0.0
H1193 H 0.46441 0.23361 0.4194 0.0
C1194 C 0.46996 0.26993 0.44495 0.0
C1195 C 0.47768 0.29546 0.43225 0.0
C1196 C 0.50005 0.25538 0.28216 0.0
C1197 C 0.47861 0.2619 0.35883 0.0
C1198 C 0.50322 0.23898 0.24888 0.0
C1199 C 0.48734 0.21218 0.25263 0.0
C1200 C 0.48131 0.24499 0.32058 0.0
C1201 C 0.46844 0.20259 0.29086 0.0
C1202 C 0.46995 0.25304 0.40834 0.0
C1203 C 0.48506 0.30328 0.38173 0.0
N1204 N 0.46618 0.21892 0.32368 0.0
N1205 N 0.48574 0.28671 0.34709 0.0
H1206 H 0.77489 0.23036 0.48418 0.0
H1207 H 0.79237 0.29458 0.21443 0.0
H1208 H 0.7176 0.19319 0.36776 0.0
H1209 H 0.85781 0.30268 0.29742 0.0
H1210 H 0.7638 0.26048 0.27344 0.0
H1211 H 0.80497 0.25961 0.41996 0.0
C1212 C 0.76886 0.22799 0.4448 0.0
C1213 C 0.74387 0.20896 0.43113 0.0
C1214 C 0.78441 0.2696 0.27852 0.0
C1215 C 0.77787 0.24321 0.35767 0.0
C1216 C 0.80075 0.28919 0.24506 0.0
C1217 C 0.8276 0.30155 0.25086 0.0
C1218 C 0.79486 0.26269 0.31914 0.0
C1219 C 0.83729 0.29361 0.29123 0.0
C1220 C 0.78599 0.24478 0.40823 0.0
C1221 C 0.73686 0.20719 0.37973 0.0
N1222 N 0.82096 0.27498 0.32417 0.0
N1223 N 0.7536 0.22435 0.34502 0.0
H1224 H 0.48831 0.33152 0.79104 0.0
H1225 H 0.49072 0.20543 0.88416 0.0
H1226 H 0.51211 0.28825 0.69816 0.0
H1227 H 0.4883 0.25954 0.98751 0.0
H1228 H 0.48768 0.22989 0.81244 0.0
H1229 H 0.47772 0.29994 0.85996 0.0
C1230 C 0.49053 0.31498 0.78461 0.0
C1231 C 0.50096 0.31242 0.73875 0.0
C1232 C 0.48712 0.23608 0.85081 0.0
C1233 C 0.48914 0.27641 0.81727 0.0
C1234 C 0.48851 0.2219 0.89171 0.0
C1235 C 0.4891 0.23013 0.94174 0.0
C1236 C 0.48648 0.2588 0.85995 0.0
C1237 C 0.48727 0.25225 0.94945 0.0
C1238 C 0.48476 0.29711 0.82407 0.0
C1239 C 0.50405 0.29092 0.73288 0.0
N1240 N 0.48618 0.26589 0.90907 0.0
N1241 N 0.49828 0.27388 0.77156 0.0
H1242 H 0.83262 0.31585 0.87878 0.0
H1243 H 0.71075 0.18308 0.78861 0.0
H1244 H 0.78749 0.2538 0.98204 0.0
H1245 H 0.75188 0.25053 0.69514 0.0
H1246 H 0.7432 0.20462 0.85597 0.0
H1247 H 0.80835 0.28822 0.80744 0.0
C1248 C 0.81819 0.29604 0.88615 0.0
C1249 C 0.81247 0.28686 0.93612 0.0
C1250 C 0.74538 0.21446 0.82026 0.0
C1251 C 0.78364 0.25528 0.85481 0.0
C1252 C 0.72701 0.20206 0.78167 0.0
C1253 C 0.72869 0.215 0.73616 0.0
C1254 C 0.76561 0.23985 0.81296 0.0
C1255 C 0.74985 0.23983 0.72961 0.0
C1256 C 0.80407 0.28032 0.8455 0.0
C1257 C 0.7929 0.26133 0.94385 0.0
N1258 N 0.76727 0.25141 0.76749 0.0
N1259 N 0.77899 0.24649 0.90371 0.0
H1260 H 0.78689 0.5664 0.98107 0.0
H1261 H 0.78757 0.52417 0.6934 0.0
H1262 H 0.72214 0.53664 0.87959 0.0
H1263 H 0.85495 0.55459 0.78821 0.0
H1264 H 0.76591 0.53516 0.75823 0.0
H1265 H 0.81441 0.56882 0.90931 0.0
C1266 C 0.77873 0.56138 0.94326 0.0
C1267 C 0.75235 0.55186 0.93589 0.0
C1268 C 0.78556 0.53988 0.76493 0.0
C1269 C 0.78339 0.55371 0.8541 0.0
C1270 C 0.79801 0.53367 0.72767 0.0
C1271 C 0.82314 0.53848 0.7353 0.0
C1272 C 0.79802 0.55068 0.81111 0.0
C1273 C 0.83566 0.55076 0.78058 0.0
C1274 C 0.79435 0.56244 0.90245 0.0
C1275 C 0.74248 0.54459 0.88664 0.0
N1276 N 0.82283 0.55609 0.81718 0.0
N1277 N 0.7579 0.5455 0.8479 0.0
H1278 H 0.52161 0.1604 0.32602 0.0
H1279 H 0.63194 0.12827 0.3957 0.0
H1280 H 0.56095 0.14221 0.21105 0.0
H1281 H 0.62393 0.18615 0.47639 0.0
H1282 H 0.59861 0.12387 0.33563 0.0
H1283 H 0.55136 0.16015 0.39029 0.0
C1284 C 0.536 0.15562 0.31459 0.0
C1285 C 0.53863 0.15101 0.26326 0.0
C1286 C 0.60404 0.13738 0.36675 0.0
C1287 C 0.57264 0.15071 0.33629 0.0
C1288 C 0.62298 0.13983 0.40111 0.0
C1289 C 0.63079 0.15764 0.44109 0.0
C1290 C 0.59223 0.15227 0.37319 0.0
C1291 C 0.61862 0.1723 0.44596 0.0
C1292 C 0.55314 0.15579 0.35109 0.0
C1293 C 0.55811 0.14562 0.25029 0.0
N1294 N 0.59985 0.16915 0.41272 0.0
N1295 N 0.57425 0.14549 0.28647 0.0
H1296 H 0.9231 0.51953 0.44263 0.0
H1297 H 0.84361 0.40259 0.25185 0.0
H1298 H 0.84036 0.47522 0.43235 0.0
H1299 H 0.92278 0.42695 0.28559 0.0
H1300 H 0.84438 0.43214 0.31467 0.0
H1301 H 0.92568 0.48921 0.38291 0.0
C1302 C 0.90551 0.50353 0.42802 0.0
C1303 C 0.88145 0.50013 0.44275 0.0
C1304 C 0.86168 0.43114 0.30891 0.0
C1305 C 0.88435 0.46544 0.3744 0.0
C1306 C 0.86131 0.41419 0.27262 0.0
C1307 C 0.88324 0.41222 0.26284 0.0
C1308 C 0.88423 0.44684 0.33626 0.0
C1309 C 0.90541 0.42773 0.29184 0.0
C1310 C 0.90704 0.48618 0.39411 0.0
C1311 C 0.85939 0.47891 0.42247 0.0
N1312 N 0.90544 0.44461 0.327 0.0
N1313 N 0.86143 0.46266 0.38953 0.0
H1314 H 0.52215 0.43061 0.44565 0.0
H1315 H 0.6377 0.46894 0.25052 0.0
H1316 H 0.5657 0.39174 0.43205 0.0
H1317 H 0.61319 0.52314 0.28748 0.0
H1318 H 0.60884 0.43983 0.31432 0.0
H1319 H 0.5523 0.4637 0.38596 0.0
C1320 C 0.53798 0.42898 0.43033 0.0
C1321 C 0.5412 0.40813 0.44408 0.0
C1322 C 0.60969 0.45807 0.30905 0.0
C1323 C 0.57573 0.44599 0.37569 0.0
C1324 C 0.62621 0.47482 0.27226 0.0
C1325 C 0.62788 0.49861 0.26313 0.0
C1326 C 0.59411 0.46467 0.33741 0.0
C1327 C 0.6126 0.50506 0.29325 0.0
C1328 C 0.55524 0.44797 0.39641 0.0
C1329 C 0.56218 0.40724 0.42287 0.0
N1330 N 0.59611 0.48804 0.32877 0.0
N1331 N 0.57839 0.42567 0.38988 0.0
H1332 H 0.54872 0.7142 0.23659 0.0
H1333 H 0.54014 0.83729 0.14729 0.0
H1334 H 0.52526 0.7569 0.33205 0.0
H1335 H 0.55278 0.78967 0.04308 0.0
H1336 H 0.54382 0.8131 0.2185 0.0
H1337 H 0.5592 0.74628 0.16871 0.0
C1338 C 0.5466 0.73075 0.24383 0.0
C1339 C 0.53627 0.733 0.2901 0.0
C1340 C 0.54645 0.80826 0.18019 0.0
C1341 C 0.54777 0.76946 0.21266 0.0
C1342 C 0.54467 0.82232 0.13961 0.0
C1343 C 0.54684 0.81588 0.08944 0.0
C1344 C 0.55003 0.78725 0.17062 0.0
C1345 C 0.55166 0.79562 0.08137 0.0
C1346 C 0.55229 0.7489 0.20494 0.0
C1347 C 0.53327 0.75448 0.29701 0.0
N1348 N 0.55288 0.78188 0.12147 0.0
N1349 N 0.53881 0.77169 0.25881 0.0
H1350 H 0.28446 0.7926 0.33302 0.0
H1351 H 0.24654 0.79366 0.04445 0.0
H1352 H 0.32255 0.86098 0.24113 0.0
H1353 H 0.20179 0.73194 0.14857 0.0
H1354 H 0.27166 0.82067 0.11638 0.0
H1355 H 0.25167 0.77208 0.26768 0.0
C1356 C 0.28563 0.8035 0.29932 0.0
C1357 C 0.30627 0.8286 0.29265 0.0
C1358 C 0.25582 0.80152 0.12377 0.0
C1359 C 0.26881 0.80484 0.21642 0.0
C1360 C 0.24125 0.78623 0.08277 0.0
C1361 C 0.22152 0.76082 0.09082 0.0
C1362 C 0.251 0.79108 0.17308 0.0
C1363 C 0.21628 0.75168 0.14091 0.0
C1364 C 0.26687 0.79172 0.26186 0.0
C1365 C 0.30683 0.84171 0.24806 0.0
N1366 N 0.23108 0.76665 0.17993 0.0
N1367 N 0.28861 0.82954 0.21124 0.0
H1368 H 0.31073 0.49998 0.14644 0.0
H1369 H 0.17834 0.49 0.23782 0.0
H1370 H 0.24907 0.48442 0.0434 0.0
H1371 H 0.24603 0.5168 0.33059 0.0
H1372 H 0.19992 0.47941 0.17006 0.0
H1373 H 0.28338 0.49736 0.2179 0.0
C1374 C 0.29102 0.49497 0.13912 0.0
C1375 C 0.28189 0.49165 0.08911 0.0
C1376 C 0.20981 0.48713 0.20568 0.0
C1377 C 0.25062 0.48972 0.17066 0.0
C1378 C 0.19738 0.4929 0.24454 0.0
C1379 C 0.21033 0.50416 0.29007 0.0
C1380 C 0.23528 0.49245 0.21267 0.0
C1381 C 0.23528 0.50809 0.29618 0.0
C1382 C 0.27548 0.49384 0.17985 0.0
C1383 C 0.25656 0.48636 0.08155 0.0
N1384 N 0.24689 0.50241 0.25808 0.0
N1385 N 0.24188 0.48575 0.12176 0.0
H1386 H 0.42544 0.92641 0.58337 0.0
H1387 H 0.46356 0.84692 0.77226 0.0
H1388 H 0.38654 0.84376 0.59388 0.0
H1389 H 0.51718 0.92684 0.74178 0.0
H1390 H 0.43469 0.8474 0.70919 0.0
H1391 H 0.45842 0.92894 0.64272 0.0
C1392 C 0.42379 0.90882 0.59794 0.0
C1393 C 0.40296 0.88481 0.58345 0.0
C1394 C 0.45276 0.86492 0.7157 0.0
C1395 C 0.44067 0.88765 0.65136 0.0
C1396 C 0.46938 0.86472 0.7521 0.0
C1397 C 0.49293 0.88695 0.76287 0.0
C1398 C 0.45925 0.88761 0.68928 0.0
C1399 C 0.49928 0.90924 0.73471 0.0
C1400 C 0.4427 0.91032 0.63167 0.0
C1401 C 0.40201 0.86274 0.60367 0.0
N1402 N 0.48239 0.9091 0.69945 0.0
N1403 N 0.42038 0.86475 0.63642 0.0
H1404 H 0.19704 0.5686 0.59837 0.0
H1405 H 0.11354 0.62021 0.74055 0.0
H1406 H 0.11443 0.52812 0.58362 0.0
H1407 H 0.19016 0.6381 0.78217 0.0
H1408 H 0.11295 0.59008 0.67545 0.0
H1409 H 0.19445 0.59807 0.65758 0.0
C1410 C 0.17825 0.56582 0.60745 0.0
C1411 C 0.15592 0.54556 0.58575 0.0
C1412 C 0.1298 0.60068 0.69907 0.0
C1413 C 0.1528 0.57989 0.65458 0.0
C1414 C 0.13019 0.61794 0.73602 0.0
C1415 C 0.15182 0.63163 0.76751 0.0
C1416 C 0.1514 0.59758 0.69298 0.0
C1417 C 0.17284 0.62785 0.75966 0.0
C1418 C 0.17678 0.58277 0.64159 0.0
C1419 C 0.13218 0.54332 0.59946 0.0
N1420 N 0.17209 0.61144 0.7235 0.0
N1421 N 0.13123 0.56027 0.63291 0.0
H1422 H 0.44135 0.56485 0.81887 0.0
H1423 H 0.45894 0.62939 0.5501 0.0
H1424 H 0.38424 0.5271 0.70234 0.0
H1425 H 0.52423 0.63538 0.63017 0.0
H1426 H 0.43024 0.5955 0.60945 0.0
H1427 H 0.47136 0.5941 0.75453 0.0
C1428 C 0.43535 0.56239 0.77947 0.0
C1429 C 0.41044 0.5432 0.76574 0.0
C1430 C 0.45084 0.60413 0.61379 0.0
C1431 C 0.44432 0.57739 0.69225 0.0
C1432 C 0.46724 0.62358 0.58017 0.0
C1433 C 0.49407 0.63523 0.58508 0.0
C1434 C 0.46126 0.59672 0.65365 0.0
C1435 C 0.50371 0.62682 0.62472 0.0
C1436 C 0.45243 0.57915 0.74285 0.0
C1437 C 0.40344 0.54126 0.71432 0.0
N1438 N 0.48736 0.60837 0.65786 0.0
N1439 N 0.42012 0.55841 0.67956 0.0
H1440 H 0.15011 0.66198 0.12775 0.0
H1441 H 0.17487 0.54844 0.21526 0.0
H1442 H 0.18607 0.62942 0.03647 0.0
H1443 H 0.14247 0.58103 0.316 0.0
H1444 H 0.17179 0.57332 0.14512 0.0
H1445 H 0.14023 0.62858 0.19273 0.0
C1446 C 0.15522 0.64739 0.12072 0.0
C1447 C 0.16883 0.6484 0.07655 0.0
C1448 C 0.16481 0.57477 0.1822 0.0
C1449 C 0.15799 0.61047 0.15069 0.0
C1450 C 0.16633 0.56029 0.22216 0.0
C1451 C 0.15842 0.56227 0.2712 0.0
C1452 C 0.15583 0.59196 0.19127 0.0
C1453 C 0.14822 0.57853 0.27842 0.0
C1454 C 0.14982 0.62848 0.15798 0.0
C1455 C 0.17552 0.62935 0.0699 0.0
N1456 N 0.14749 0.59301 0.23905 0.0
N1457 N 0.17019 0.61141 0.10644 0.0
H1458 H 0.41472 0.58499 0.02612 0.0
H1459 H 0.46293 0.58823 0.31162 0.0
H1460 H 0.38006 0.51796 0.12217 0.0
H1461 H 0.48814 0.65396 0.21397 0.0
H1462 H 0.43799 0.56011 0.24015 0.0
H1463 H 0.4472 0.60797 0.09067 0.0
C1464 C 0.4143 0.57489 0.06056 0.0
C1465 C 0.39464 0.54946 0.06858 0.0
C1466 C 0.44947 0.58063 0.2341 0.0
C1467 C 0.43174 0.57614 0.14421 0.0
C1468 C 0.46394 0.59663 0.27468 0.0
C1469 C 0.47795 0.62342 0.26835 0.0
C1470 C 0.44913 0.59158 0.18699 0.0
C1471 C 0.4779 0.6334 0.22025 0.0
C1472 C 0.43283 0.58813 0.09772 0.0
C1473 C 0.39503 0.53746 0.11418 0.0
N1474 N 0.46371 0.61758 0.18175 0.0
N1475 N 0.41308 0.55102 0.15066 0.0
H1476 H 0.52277 0.88218 0.12864 0.0
H1477 H 0.39682 0.88558 0.22045 0.0
H1478 H 0.45749 0.86293 0.03291 0.0
H1479 H 0.4487 0.87902 0.32371 0.0
H1480 H 0.42475 0.88872 0.14918 0.0
H1481 H 0.50168 0.89226 0.19801 0.0
C1482 C 0.50442 0.88093 0.12171 0.0
C1483 C 0.49197 0.87197 0.07483 0.0
C1484 C 0.43039 0.88725 0.18755 0.0
C1485 C 0.46762 0.88318 0.15393 0.0
C1486 C 0.41461 0.88579 0.22822 0.0
C1487 C 0.4208 0.88264 0.27805 0.0
C1488 C 0.45254 0.88553 0.19675 0.0
C1489 C 0.44357 0.882 0.2859 0.0
C1490 C 0.49225 0.88639 0.16143 0.0
C1491 C 0.46783 0.86996 0.06837 0.0
N1492 N 0.45856 0.88333 0.24577 0.0
N1493 N 0.45646 0.87544 0.10734 0.0
H1494 H 0.29878 0.46126 0.72851 0.0
H1495 H 0.18781 0.49274 0.6587 0.0
H1496 H 0.29041 0.51896 0.80906 0.0
H1497 H 0.22607 0.47266 0.54467 0.0
H1498 H 0.21797 0.49318 0.72289 0.0
H1499 H 0.26522 0.4565 0.6687 0.0
C1500 C 0.28971 0.47273 0.73394 0.0
C1501 C 0.2975 0.49058 0.77385 0.0
C1502 C 0.21942 0.48826 0.68393 0.0
C1503 C 0.25862 0.48477 0.70615 0.0
C1504 C 0.20202 0.48766 0.64748 0.0
C1505 C 0.20419 0.48229 0.59638 0.0
C1506 C 0.23877 0.48289 0.66938 0.0
C1507 C 0.22352 0.47661 0.58371 0.0
C1508 C 0.27063 0.47005 0.69971 0.0
C1509 C 0.28515 0.50508 0.77869 0.0
N1510 N 0.23992 0.47693 0.61984 0.0
N1511 N 0.26623 0.50173 0.74558 0.0
H1512 H 0.57605 0.86359 0.72644 0.0
H1513 H 0.54867 0.72214 0.6596 0.0
H1514 H 0.52243 0.79732 0.81303 0.0
H1515 H 0.56279 0.77829 0.54372 0.0
H1516 H 0.54887 0.75206 0.72402 0.0
H1517 H 0.58081 0.83496 0.66623 0.0
C1518 C 0.56552 0.84306 0.73313 0.0
C1519 C 0.54877 0.83287 0.77484 0.0
C1520 C 0.55234 0.75793 0.68454 0.0
C1521 C 0.55457 0.80003 0.70664 0.0
C1522 C 0.55255 0.741 0.64792 0.0
C1523 C 0.55601 0.74784 0.59627 0.0
C1524 C 0.55623 0.78207 0.66955 0.0
C1525 C 0.56026 0.77232 0.58314 0.0
C1526 C 0.56818 0.82674 0.69868 0.0
C1527 C 0.53544 0.80603 0.78127 0.0
N1528 N 0.56037 0.78854 0.61939 0.0
N1529 N 0.53875 0.79059 0.74785 0.0
H1530 H 0.24319 0.74876 0.81065 0.0
H1531 H 0.25824 0.81555 0.54406 0.0
H1532 H 0.17736 0.74254 0.73227 0.0
H1533 H 0.31761 0.85031 0.65743 0.0
H1534 H 0.22878 0.78609 0.60877 0.0
H1535 H 0.27148 0.78288 0.7514 0.0
C1536 C 0.23466 0.75455 0.78097 0.0
C1537 C 0.20778 0.74271 0.77655 0.0
C1538 C 0.24809 0.80046 0.61978 0.0
C1539 C 0.24021 0.78164 0.70806 0.0
C1540 C 0.26487 0.81737 0.58294 0.0
C1541 C 0.29026 0.83579 0.59559 0.0
C1542 C 0.25693 0.80126 0.66951 0.0
C1543 C 0.29803 0.83683 0.64631 0.0
C1544 C 0.25086 0.77416 0.74738 0.0
C1545 C 0.19791 0.75117 0.73738 0.0
N1546 N 0.28159 0.81955 0.68121 0.0
N1547 N 0.21407 0.76983 0.70434 0.0
H1548 H 0.24873 1.00034 0.63108 0.0
H1549 H 0.33569 0.93447 0.65279 0.0
H1550 H 0.27463 0.9879 0.77572 0.0
H1551 H 0.3066 0.94689 0.51237 0.0
H1552 H 0.31534 0.95506 0.69916 0.0
H1553 H 0.27177 0.98244 0.58828 0.0
C1554 C 0.25944 0.99403 0.65411 0.0
C1555 C 0.25952 0.99566 0.70749 0.0
C1556 C 0.31353 0.95339 0.6582 0.0
C1557 C 0.28632 0.97475 0.65769 0.0
C1558 C 0.32517 0.94168 0.63167 0.0
C1559 C 0.32296 0.93906 0.57851 0.0
C1560 C 0.29957 0.96258 0.63139 0.0
C1561 C 0.30895 0.94858 0.55323 0.0
C1562 C 0.27265 0.9837 0.62936 0.0
C1563 C 0.27401 0.98714 0.73462 0.0
N1564 N 0.29783 0.95983 0.57982 0.0
N1565 N 0.28671 0.97693 0.70945 0.0
H1566 H 0.05339 0.31304 0.77947 0.0
H1567 H 0.09097 0.38659 0.51001 0.0
H1568 H 0.03859 0.27579 0.63322 0.0
H1569 H 0.10745 0.42673 0.65297 0.0
H1570 H 0.07054 0.3458 0.55595 0.0
H1571 H 0.0716 0.35475 0.73562 0.0
C1572 C 0.05364 0.31351 0.73833 0.0
C1573 C 0.0444 0.29068 0.71026 0.0
C1574 C 0.07847 0.36347 0.57747 0.0
C1575 C 0.06545 0.33842 0.65978 0.0
C1576 C 0.09015 0.38682 0.55112 0.0
C1577 C 0.10084 0.41016 0.57757 0.0
C1578 C 0.07739 0.36325 0.63095 0.0
C1579 C 0.09933 0.40919 0.63099 0.0
C1580 C 0.06419 0.33737 0.71328 0.0
C1581 C 0.04551 0.2927 0.65685 0.0
N1582 N 0.08788 0.38618 0.6559 0.0
N1583 N 0.05585 0.31596 0.63365 0.0
H1584 H 0.61048 0.70649 0.65369 0.0
H1585 H 0.76405 0.78738 0.63161 0.0
H1586 H 0.6525 0.72966 0.51246 0.0
H1587 H 0.72507 0.76708 0.77654 0.0
H1588 H 0.72298 0.76421 0.58886 0.0
H1589 H 0.65143 0.72664 0.70019 0.0
C1590 C 0.62832 0.71566 0.63245 0.0
C1591 C 0.62806 0.71627 0.57902 0.0
C1592 C 0.72324 0.76456 0.63001 0.0
C1593 C 0.67499 0.73941 0.63205 0.0
C1594 C 0.74684 0.77784 0.65472 0.0
C1595 C 0.74823 0.7794 0.70811 0.0
C1596 C 0.70044 0.75251 0.65843 0.0
C1597 C 0.72504 0.76638 0.73543 0.0
C1598 C 0.65168 0.72718 0.65905 0.0
C1599 C 0.65173 0.72859 0.55355 0.0
N1600 N 0.70208 0.75363 0.71029 0.0
N1601 N 0.67413 0.73964 0.58023 0.0
H1602 H 0.91354 0.33113 0.96589 0.0
H1603 H 1.00364 0.26863 0.98613 0.0
H1604 H 0.94167 0.32133 0.1103 0.0
H1605 H 0.96908 0.27535 0.84781 0.0
H1606 H 0.98351 0.28941 0.03276 0.0
H1607 H 0.93623 0.31287 0.92331 0.0
C1608 C 0.92467 0.32533 0.98897 0.0
C1609 C 0.92544 0.32783 0.04227 0.0
C1610 C 0.98042 0.28641 0.99221 0.0
C1611 C 0.95192 0.30646 0.99249 0.0
C1612 C 0.99193 0.27458 0.96551 0.0
C1613 C 0.98814 0.27031 0.91283 0.0
C1614 C 0.96501 0.29409 0.96606 0.0
C1615 C 0.97267 0.27831 0.88824 0.0
C1616 C 0.93768 0.31476 0.96427 0.0
C1617 C 0.94046 0.31989 0.06928 0.0
N1618 N 0.96175 0.28974 0.91497 0.0
N1619 N 0.95301 0.30947 0.04414 0.0
H1620 H 0.72125 0.64738 0.11177 0.0
H1621 H 0.7576 0.72066 0.84223 0.0
H1622 H 0.7059 0.61002 0.96556 0.0
H1623 H 0.77628 0.76096 0.98524 0.0
H1624 H 0.73699 0.67991 0.88824 0.0
H1625 H 0.73941 0.68906 0.06789 0.0
C1626 C 0.72137 0.64784 0.07062 0.0
C1627 C 0.71204 0.625 0.04254 0.0
C1628 C 0.74546 0.69761 0.90976 0.0
C1629 C 0.73298 0.67267 0.99207 0.0
C1630 C 0.75724 0.72093 0.88338 0.0
C1631 C 0.76861 0.74429 0.90984 0.0
C1632 C 0.74494 0.69746 0.96326 0.0
C1633 C 0.76765 0.7434 0.96328 0.0
C1634 C 0.73189 0.67166 0.04557 0.0
C1635 C 0.71294 0.62695 0.98915 0.0
N1636 N 0.75606 0.7204 0.98823 0.0
N1637 N 0.72323 0.6502 0.96593 0.0
H1638 H 0.32055 0.06914 0.84191 0.0
H1639 H 0.39378 0.09974 0.11081 0.0
H1640 H 0.28038 0.04032 0.98394 0.0
H1641 H 0.43116 0.12639 0.96531 0.0
H1642 H 0.35217 0.07655 0.06661 0.0
H1643 H 0.36131 0.08936 0.88785 0.0
C1644 C 0.32032 0.06694 0.88281 0.0
C1645 C 0.29701 0.05291 0.90903 0.0
C1646 C 0.36956 0.0874 0.04451 0.0
C1647 C 0.34383 0.07615 0.96235 0.0
C1648 C 0.39335 0.10056 0.06973 0.0
C1649 C 0.41619 0.1152 0.04201 0.0
C1650 C 0.36858 0.08885 0.99119 0.0
C1651 C 0.41426 0.11554 0.98869 0.0
C1652 C 0.34364 0.07852 0.90915 0.0
C1653 C 0.29793 0.05088 0.96217 0.0
N1654 N 0.39103 0.10275 0.96532 0.0
N1655 N 0.32092 0.06238 0.98709 0.0
H1656 H 0.78376 0.04154 0.39568 0.0
H1657 H 0.70154 0.11251 0.37394 0.0
H1658 H 0.76181 0.05847 0.25094 0.0
H1659 H 0.72545 0.09463 0.51513 0.0
H1660 H 0.7217 0.09179 0.32749 0.0
H1661 H 0.76056 0.0593 0.43866 0.0
C1662 C 0.77387 0.04881 0.37268 0.0
C1663 C 0.77495 0.0485 0.31926 0.0
C1664 C 0.72241 0.09228 0.36861 0.0
C1665 C 0.74805 0.06926 0.36918 0.0
C1666 C 0.71087 0.10407 0.3952 0.0
C1667 C 0.71169 0.1052 0.44861 0.0
C1668 C 0.73487 0.08151 0.3956 0.0
C1669 C 0.72422 0.09413 0.47406 0.0
C1670 C 0.76057 0.05905 0.39751 0.0
C1671 C 0.76149 0.05817 0.29207 0.0
N1672 N 0.73529 0.08282 0.4474 0.0
N1673 N 0.74874 0.06831 0.31731 0.0
H1674 H 0.98099 0.73113 0.24833 0.0
H1675 H 0.94397 0.65829 0.51835 0.0
H1676 H 0.99552 0.76863 0.3943 0.0
H1677 H 0.92734 0.6178 0.37574 0.0
H1678 H 0.9643 0.69896 0.47205 0.0
H1679 H 0.96311 0.68954 0.29251 0.0
C1680 C 0.98073 0.73073 0.28949 0.0
C1681 C 0.98976 0.75357 0.3174 0.0
C1682 C 0.95635 0.68123 0.45068 0.0
C1683 C 0.96914 0.70603 0.36821 0.0
C1684 C 0.94474 0.65797 0.47724 0.0
C1685 C 0.93403 0.63459 0.45097 0.0
C1686 C 0.95735 0.68131 0.39721 0.0
C1687 C 0.93547 0.6354 0.39756 0.0
C1688 C 0.97038 0.70695 0.31471 0.0
C1689 C 0.98871 0.75169 0.37081 0.0
N1690 N 0.94686 0.65834 0.37243 0.0
N1691 N 0.97857 0.7285 0.39418 0.0
H1692 H 0.38252 0.31074 0.51945 0.0
H1693 H 0.30927 0.27846 0.25031 0.0
H1694 H 0.42267 0.33879 0.37717 0.0
H1695 H 0.27201 0.25168 0.39587 0.0
H1696 H 0.35085 0.30216 0.29451 0.0
H1697 H 0.34177 0.29012 0.47347 0.0
C1698 C 0.38275 0.31271 0.47849 0.0
C1699 C 0.40606 0.32663 0.45221 0.0
C1700 C 0.33349 0.29117 0.31662 0.0
C1701 C 0.35924 0.30289 0.39883 0.0
C1702 C 0.30972 0.27772 0.2914 0.0
C1703 C 0.28693 0.26289 0.31915 0.0
C1704 C 0.33449 0.28984 0.36996 0.0
C1705 C 0.28889 0.26264 0.37247 0.0
C1706 C 0.35943 0.30088 0.45212 0.0
C1707 C 0.40513 0.32834 0.399 0.0
N1708 N 0.31209 0.27575 0.39584 0.0
N1709 N 0.38214 0.31659 0.37405 0.0
H1710 H 0.03214 0.77726 0.0404 0.0
H1711 H 0.11874 0.71096 0.06204 0.0
H1712 H 0.06409 0.76766 0.17971 0.0
H1713 H 0.09372 0.72396 0.91686 0.0
H1714 H 0.09633 0.72959 0.1043 0.0
H1715 H 0.05215 0.75634 0.99381 0.0
C1716 C 0.04325 0.77065 0.06123 0.0
C1717 C 0.04632 0.77412 0.11418 0.0
C1718 C 0.09549 0.7283 0.06322 0.0
C1719 C 0.0693 0.7502 0.06103 0.0
C1720 C 0.10833 0.71751 0.03871 0.0
C1721 C 0.10835 0.71581 0.98531 0.0
C1722 C 0.0822 0.73761 0.03472 0.0
C1723 C 0.09427 0.72474 0.95796 0.0
C1724 C 0.0547 0.75875 0.03456 0.0
C1725 C 0.06105 0.76531 0.13906 0.0
N1726 N 0.08185 0.73535 0.98294 0.0
N1727 N 0.07192 0.75382 0.11237 0.0
H1728 H 0.31586 0.39737 0.91594 0.0
H1729 H 0.27688 0.32404 0.18522 0.0
H1730 H 0.32926 0.43471 0.06192 0.0
H1731 H 0.26229 0.28397 0.04244 0.0
H1732 H 0.29731 0.36482 0.13934 0.0
H1733 H 0.29781 0.35578 0.95998 0.0
C1734 C 0.31531 0.39694 0.95709 0.0
C1735 C 0.32411 0.41974 0.98502 0.0
C1736 C 0.2898 0.34716 0.11786 0.0
C1737 C 0.30327 0.37215 0.03567 0.0
C1738 C 0.27813 0.32383 0.14417 0.0
C1739 C 0.26796 0.30054 0.11771 0.0
C1740 C 0.29139 0.34739 0.06447 0.0
C1741 C 0.26999 0.3015 0.06439 0.0
C1742 C 0.30487 0.37315 0.98222 0.0
C1743 C 0.32268 0.4178 0.03841 0.0
N1744 N 0.28143 0.3245 0.03951 0.0
N1745 N 0.31244 0.39459 0.06171 0.0
H1746 H 0.6034 0.91811 0.06196 0.0
H1747 H 0.75647 1.00746 0.0415 0.0
H1748 H 0.64161 0.94592 0.91751 0.0
H1749 H 0.71479 0.97415 0.1803 0.0
H1750 H 0.71549 0.98731 0.99478 0.0
H1751 H 0.64442 0.94083 0.1046 0.0
C1752 C 0.6204 0.92918 0.0389 0.0
C1753 C 0.61876 0.92987 0.98559 0.0
C1754 C 0.71534 0.9845 0.03546 0.0
C1755 C 0.66665 0.95635 0.03536 0.0
C1756 C 0.73871 0.99602 0.06219 0.0
C1757 C 0.73907 0.99259 0.11501 0.0
C1758 C 0.69214 0.96945 0.06176 0.0
C1759 C 0.71549 0.97746 0.13974 0.0
C1760 C 0.64402 0.94221 0.06361 0.0
C1761 C 0.6418 0.94479 0.95855 0.0
N1762 N 0.69312 0.96651 0.11299 0.0
N1763 N 0.6648 0.95735 0.9837 0.0
H1764 H 0.66315 0.59496 0.32059 0.0
H1765 H 0.58255 0.66769 0.29841 0.0
H1766 H 0.64261 0.61605 0.17907 0.0
H1767 H 0.60417 0.65041 0.44313 0.0
H1768 H 0.60563 0.64974 0.25543 0.0
H1769 H 0.64274 0.61549 0.36685 0.0
C1770 C 0.65448 0.60404 0.29923 0.0
C1771 C 0.6547 0.60386 0.24577 0.0
C1772 C 0.60555 0.64994 0.29658 0.0
C1773 C 0.63121 0.62737 0.29859 0.0
C1774 C 0.59231 0.66028 0.32141 0.0
C1775 C 0.59121 0.6606 0.37483 0.0
C1776 C 0.61795 0.63959 0.32493 0.0
C1777 C 0.60449 0.65072 0.402 0.0
C1778 C 0.64281 0.61574 0.32571 0.0
C1779 C 0.64301 0.61577 0.22019 0.0
N1780 N 0.61715 0.64048 0.37679 0.0
N1781 N 0.63177 0.62695 0.24675 0.0
H1782 H 0.42872 0.05388 0.1747 0.0
H1783 H 0.38493 0.97978 0.44288 0.0
H1784 H 0.4382 0.09321 0.31691 0.0
H1785 H 0.37667 0.94296 0.29774 0.0
H1786 H 0.40299 0.02133 0.39874 0.0
H1787 H 0.40847 0.01297 0.22023 0.0
C1788 C 0.42639 0.0539 0.21553 0.0
C1789 C 0.43508 0.07703 0.24193 0.0
C1790 C 0.39707 1.00408 0.37668 0.0
C1791 C 0.41187 0.03004 0.29477 0.0
C1792 C 0.38665 0.98031 0.40186 0.0
C1793 C 0.37923 0.95765 0.37425 0.0
C1794 C 0.40006 1.00523 0.32347 0.0
C1795 C 0.38211 0.95973 0.32103 0.0
C1796 C 0.41483 0.03049 0.24163 0.0
C1797 C 0.43167 0.07582 0.29497 0.0
N1798 N 0.3923 0.98294 0.29766 0.0
N1799 N 0.42038 0.05276 0.31965 0.0
H1800 H 0.05942 0.43305 0.44422 0.0
H1801 H 0.98624 0.40151 0.17499 0.0
H1802 H 0.09685 0.45991 0.29883 0.0
H1803 H 0.94605 0.37375 0.3173 0.0
H1804 H 0.02703 0.42184 0.22097 0.0
H1805 H 0.01786 0.40968 0.39991 0.0
C1806 C 0.05901 0.43388 0.40313 0.0
C1807 C 0.08185 0.44864 0.37548 0.0
C1808 C 1.00934 0.41122 0.24231 0.0
C1809 C 0.03428 0.42205 0.32451 0.0
C1810 C 0.98601 0.39958 0.21595 0.0
C1811 C 0.96268 0.38582 0.24224 0.0
C1812 C 1.00952 0.4092 0.29561 0.0
C1813 C 0.9636 0.38409 0.29546 0.0
C1814 C 0.03524 0.42061 0.37785 0.0
C1815 C 0.07993 0.44899 0.32216 0.0
N1816 N 0.9866 0.39566 0.32039 0.0
N1817 N 0.05673 0.43606 0.29871 0.0
H1818 H 0.45594 0.37959 0.73057 0.0
H1819 H 0.36784 0.44423 0.70813 0.0
H1820 H 0.42892 0.3909 0.58623 0.0
H1821 H 0.39585 0.4312 0.84932 0.0
H1822 H 0.38866 0.42401 0.66226 0.0
H1823 H 0.43261 0.39723 0.77354 0.0
C1824 C 0.44496 0.38562 0.70766 0.0
C1825 C 0.44459 0.38372 0.65432 0.0
C1826 C 0.39014 0.42546 0.70327 0.0
C1827 C 0.41752 0.40431 0.70423 0.0
C1828 C 0.37823 0.43697 0.72952 0.0
C1829 C 0.38 0.43932 0.78275 0.0
C1830 C 0.40396 0.41622 0.73041 0.0
C1831 C 0.39387 0.42973 0.80838 0.0
C1832 C 0.43158 0.39579 0.7325 0.0
C1833 C 0.42979 0.39189 0.6273 0.0
N1834 N 0.40528 0.41868 0.78204 0.0
N1835 N 0.41696 0.40194 0.65251 0.0
H1836 H 0.66028 0.10258 0.72981 0.0
H1837 H 0.5942 0.94946 0.70853 0.0
H1838 H 0.64843 0.064 0.58562 0.0
H1839 H 0.60653 0.99077 0.84914 0.0
H1840 H 0.61491 0.9905 0.66234 0.0
H1841 H 0.64209 0.06156 0.77296 0.0
C1842 C 0.65403 0.0855 0.70695 0.0
C1843 C 0.65594 0.08701 0.65358 0.0
C1844 C 0.61319 0.99059 0.70329 0.0
C1845 C 0.63469 0.03924 0.70378 0.0
C1846 C 0.60139 0.96716 0.72974 0.0
C1847 C 0.5987 0.96664 0.78291 0.0
C1848 C 0.6224 0.01374 0.73016 0.0
C1849 C 0.60824 0.99018 0.80826 0.0
C1850 C 0.64353 0.06192 0.73191 0.0
C1851 C 0.64746 0.06392 0.6267 0.0
N1852 N 0.61959 0.01265 0.78174 0.0
N1853 N 0.6371 0.04101 0.65204 0.0
H1854 H 0.93722 0.5839 0.73094 0.0
H1855 H 0.09023 0.67352 0.7093 0.0
H1856 H 0.97547 0.61275 0.58687 0.0
H1857 H 0.049 0.64212 0.84939 0.0
H1858 H 0.04912 0.65307 0.66324 0.0
H1859 H 0.97828 0.60681 0.77379 0.0
C1860 C 0.95423 0.59522 0.70806 0.0
C1861 C 0.95263 0.5962 0.6548 0.0
C1862 C 0.04908 0.65076 0.70406 0.0
C1863 C 1.00045 0.62282 0.70465 0.0
C1864 C 0.07253 0.66245 0.73041 0.0
C1865 C 0.07306 0.65962 0.78338 0.0
C1866 C 0.02596 0.63612 0.73085 0.0
C1867 C 0.04956 0.64493 0.80866 0.0
C1868 C 0.97784 0.60835 0.73284 0.0
C1869 C 0.97563 0.6114 0.62788 0.0
N1870 N 0.02708 0.63377 0.78224 0.0
N1871 N 0.99859 0.62401 0.65306 0.0
loop_
_geom_bond_atom_site_label_1
_geom_bond_atom_site_label_2
_geom_bond_distance
_geom_bond_site_symmetry_2
_ccdc_geom_bond_type
Co0 H3 2.400 1_545 S
Co0 O4 1.992 1_545 S
Co0 O12 2.115 . S
Co0 O13 2.315 1_545 S
Co0 O24 2.053 1_545 S
Co0 O27 2.094 . S
Co0 O30 2.122 . S
Co1 O4 2.105 1_545 S
Co1 H5 2.388 . S
Co1 O6 2.053 . S
Co1 O9 2.047 . S
Co1 O15 2.095 1_545 S
Co1 O26 2.063 . S
Co2 H3 2.388 . S
Co2 O4 2.074 . S
Co2 O6 2.126 1_565 S
Co2 O11 2.063 . S
Co2 O25 2.047 . S
Co2 O31 2.113 1_565 S
H3 Co0 2.400 1_565 S
H3 Co2 2.388 . S
H3 O4 0.785 . S
O4 Co0 1.992 1_565 S
O4 Co1 2.105 1_565 S
O4 Co2 2.074 . S
O4 H3 0.785 . S
H5 Co1 2.388 . S
H5 O6 0.760 . S
H5 Co7 2.400 . S
O6 Co1 2.053 . S
O6 Co2 2.126 1_545 S
O6 H5 0.760 . S
O6 Co7 2.009 . S
Co7 H5 2.400 . S
Co7 O6 2.009 . S
Co7 O8 2.053 . S
Co7 O10 2.094 1_545 S
Co7 O14 2.122 1_545 S
Co7 O28 2.115 . S
Co7 O29 2.315 . S
O8 Co7 2.053 . S
O8 C20 1.259 . S
O9 Co1 2.047 . S
O9 C20 1.257 . S
O10 Co7 2.094 1_565 S
O10 C21 1.253 . S
O11 Co2 2.063 . S
O11 C21 1.268 . S
O12 Co0 2.115 . S
O12 C22 1.281 1_545 S
O13 Co0 2.315 1_565 S
O13 C22 1.252 . S
O14 Co7 2.122 1_565 S
O14 C23 1.272 . S
O15 Co1 2.095 1_565 S
O15 C23 1.266 . S
C16 O24 1.259 . S
C16 O25 1.257 . S
C17 O26 1.268 . S
C17 O27 1.253 . S
C18 O28 1.281 . S
C18 O29 1.252 . S
C19 O30 1.272 . S
C19 O31 1.245 . S
C20 O8 1.259 . S
C20 O9 1.257 . S
C21 O10 1.253 . S
C21 O11 1.268 . S
C22 O12 1.281 1_565 S
C22 O13 1.252 . S
C23 O14 1.272 . S
C23 O15 1.266 . S
O24 Co0 2.053 1_565 S
O24 C16 1.259 . S
O25 Co2 2.047 . S
O25 C16 1.257 . S
O26 Co1 2.063 . S
O26 C17 1.268 . S
O27 Co0 2.094 . S
O27 C17 1.253 . S
O28 Co7 2.115 . S
O28 C18 1.281 . S
O29 Co7 2.315 . S
O29 C18 1.252 . S
O30 Co0 2.122 . S
O30 C19 1.272 . S
O31 Co2 2.113 1_545 S
O31 C19 1.245 . S
Co32 H35 2.400 . S
Co32 O36 2.009 . S
Co32 O44 2.115 . S
Co32 O45 2.315 . S
Co32 O56 2.053 . S
Co32 O59 2.094 1_455 S
Co32 O62 2.122 1_455 S
Co33 O36 2.126 1_655 S
Co33 H37 2.388 . S
Co33 O38 2.053 . S
Co33 O41 2.047 . S
Co33 O47 2.113 1_655 S
Co33 O58 2.063 . S
Co34 H35 2.388 . S
Co34 O36 2.053 . S
Co34 O38 2.126 1_455 S
Co34 O43 2.063 . S
Co34 O57 2.047 . S
Co34 O63 2.113 1_455 S
H35 Co32 2.400 . S
H35 Co34 2.388 . S
H35 O36 0.760 . S
O36 Co32 2.009 . S
O36 Co33 2.126 1_455 S
O36 Co34 2.053 . S
O36 H35 0.760 . S
H37 Co33 2.388 . S
H37 O38 0.760 . S
H37 Co39 2.400 1_655 S
O38 Co33 2.053 . S
O38 Co34 2.126 1_655 S
O38 H37 0.760 . S
O38 Co39 2.011 1_655 S
Co39 H37 2.400 1_455 S
Co39 O38 2.011 1_455 S
Co39 O40 2.050 1_455 S
Co39 O42 2.095 . S
Co39 O46 2.128 . S
Co39 O60 2.112 1_455 S
Co39 O61 2.309 1_455 S
O40 Co39 2.050 1_655 S
O40 C52 1.259 . S
O41 Co33 2.047 . S
O41 C52 1.257 . S
O42 Co39 2.095 . S
O42 C53 1.253 . S
O43 Co34 2.063 . S
O43 C53 1.268 . S
O44 Co32 2.115 . S
O44 C54 1.281 . S
O45 Co32 2.315 . S
O45 C54 1.252 . S
O46 Co39 2.128 . S
O46 C55 1.272 . S
O47 Co33 2.113 1_455 S
O47 C55 1.245 . S
C48 O56 1.259 . S
C48 O57 1.257 . S
C49 O58 1.268 . S
C49 O59 1.253 . S
C50 O60 1.281 . S
C50 O61 1.252 . S
C51 O62 1.272 . S
C51 O63 1.245 . S
C52 O40 1.259 . S
C52 O41 1.257 . S
C53 O42 1.253 . S
C53 O43 1.268 . S
C54 O44 1.281 . S
C54 O45 1.252 . S
C55 O46 1.272 . S
C55 O47 1.245 . S
O56 Co32 2.053 . S
O56 C48 1.259 . S
O57 Co34 2.047 . S
O57 C48 1.257 . S
O58 Co33 2.063 . S
O58 C49 1.268 . S
O59 Co32 2.094 1_655 S
O59 C49 1.253 . S
O60 Co39 2.112 1_655 S
O60 C50 1.281 . S
O61 Co39 2.309 1_655 S
O61 C50 1.252 . S
O62 Co32 2.122 1_655 S
O62 C51 1.272 . S
O63 Co34 2.113 1_655 S
O63 C51 1.245 . S
Co64 H67 2.400 . S
Co64 O68 2.009 . S
Co64 O76 2.115 . S
Co64 O77 2.315 . S
Co64 O88 2.053 . S
Co64 O91 2.094 . S
Co64 O94 2.122 . S
Co65 O68 2.126 . S
Co65 H69 2.388 . S
Co65 O70 2.053 . S
Co65 O73 2.047 . S
Co65 O79 2.113 . S
Co65 O90 2.063 . S
Co66 H67 2.388 . S
Co66 O68 2.053 . S
Co66 O70 2.126 . S
Co66 O75 2.063 . S
Co66 O89 2.047 . S
Co66 O95 2.113 . S
H67 Co64 2.400 . S
H67 Co66 2.388 . S
H67 O68 0.760 . S
O68 Co64 2.009 . S
O68 Co65 2.126 . S
O68 Co66 2.053 . S
O68 H67 0.760 . S
H69 Co65 2.388 . S
H69 O70 0.760 . S
H69 Co71 2.400 . S
O70 Co65 2.053 . S
O70 Co66 2.126 . S
O70 H69 0.760 . S
O70 Co71 2.009 . S
Co71 H69 2.400 . S
Co71 O70 2.009 . S
Co71 O72 2.053 . S
Co71 O74 2.094 . S
Co71 O78 2.122 . S
Co71 O92 2.115 . S
Co71 O93 2.315 . S
O72 Co71 2.053 . S
O72 C84 1.259 . S
O73 Co65 2.047 . S
O73 C84 1.257 . S
O74 Co71 2.094 . S
O74 C85 1.253 . S
O75 Co66 2.063 . S
O75 C85 1.268 . S
O76 Co64 2.115 . S
O76 C86 1.281 . S
O77 Co64 2.315 . S
O77 C86 1.252 . S
O78 Co71 2.122 . S
O78 C87 1.272 . S
O79 Co65 2.113 . S
O79 C87 1.245 . S
C80 O88 1.259 . S
C80 O89 1.257 . S
C81 O90 1.268 . S
C81 O91 1.253 . S
C82 O92 1.281 . S
C82 O93 1.252 . S
C83 O94 1.272 . S
C83 O95 1.245 . S
C84 O72 1.259 . S
C84 O73 1.257 . S
C85 O74 1.253 . S
C85 O75 1.268 . S
C86 O76 1.281 . S
C86 O77 1.252 . S
C87 O78 1.272 . S
C87 O79 1.245 . S
O88 Co64 2.053 . S
O88 C80 1.259 . S
O89 Co66 2.047 . S
O89 C80 1.257 . S
O90 Co65 2.063 . S
O90 C81 1.268 . S
O91 Co64 2.094 . S
O91 C81 1.253 . S
O92 Co71 2.115 . S
O92 C82 1.281 . S
O93 Co71 2.315 . S
O93 C82 1.252 . S
O94 Co64 2.122 . S
O94 C83 1.272 . S
O95 Co66 2.113 . S
O95 C83 1.245 . S
Co96 H99 2.400 1_545 S
Co96 O100 2.009 . S
Co96 O108 2.115 . S
Co96 O109 2.315 1_545 S
Co96 O120 2.053 1_545 S
Co96 O123 2.094 . S
Co96 O126 2.122 . S
Co97 O100 2.126 . S
Co97 H101 2.388 . S
Co97 O102 2.053 . S
Co97 O105 2.047 . S
Co97 O111 2.113 . S
Co97 O122 2.063 . S
Co98 H99 2.388 1_545 S
Co98 O100 2.053 . S
Co98 O102 2.126 . S
Co98 O107 2.090 . S
Co98 O121 2.047 1_545 S
Co98 O127 2.113 . S
H99 Co96 2.400 1_565 S
H99 Co98 2.388 1_565 S
H99 O100 0.760 1_565 S
O100 Co96 2.009 . S
O100 Co97 2.126 . S
O100 Co98 2.053 . S
O100 H99 0.760 1_545 S
H101 Co97 2.388 . S
H101 O102 0.760 . S
H101 Co103 2.400 . S
O102 Co97 2.053 . S
O102 Co98 2.126 . S
O102 H101 0.760 . S
O102 Co103 2.009 . S
Co103 H101 2.400 . S
Co103 O102 2.009 . S
Co103 O104 2.053 . S
Co103 O106 2.094 . S
Co103 O110 2.122 1_545 S
Co103 O124 2.115 . S
Co103 O125 2.315 . S
O104 Co103 2.053 . S
O104 C116 1.259 . S
O105 Co97 2.047 . S
O105 C116 1.257 . S
O106 Co103 2.094 . S
O106 C117 1.253 1_545 S
O107 Co98 2.090 . S
O107 C117 1.245 1_545 S
O108 Co96 2.115 . S
O108 C118 1.281 1_545 S
O109 Co96 2.315 1_565 S
O109 C118 1.252 . S
O110 Co103 2.122 1_565 S
O110 C119 1.272 . S
O111 Co97 2.113 . S
O111 C119 1.245 1_545 S
C112 O120 1.259 . S
C112 O121 1.257 . S
C113 O122 1.268 . S
C113 O123 1.253 . S
C114 O124 1.281 . S
C114 O125 1.252 . S
C115 O126 1.272 . S
C115 O127 1.245 . S
C116 O104 1.259 . S
C116 O105 1.257 . S
C117 O106 1.253 1_565 S
C117 O107 1.245 1_565 S
C118 O108 1.281 1_565 S
C118 O109 1.252 . S
C119 O110 1.272 . S
C119 O111 1.245 1_565 S
O120 Co96 2.053 1_565 S
O120 C112 1.259 . S
O121 Co98 2.047 1_565 S
O121 C112 1.257 . S
O122 Co97 2.063 . S
O122 C113 1.268 . S
O123 Co96 2.094 . S
O123 C113 1.253 . S
O124 Co103 2.115 . S
O124 C114 1.281 . S
O125 Co103 2.315 . S
O125 C114 1.252 . S
O126 Co96 2.122 . S
O126 C115 1.272 . S
O127 Co98 2.113 . S
O127 C115 1.245 . S
Co128 H131 2.400 . S
Co128 O132 2.009 . S
Co128 O140 2.115 . S
Co128 O141 2.315 . S
Co128 O152 2.053 . S
Co128 O155 2.094 1_455 S
Co128 O158 2.122 1_455 S
Co129 O132 2.126 1_655 S
Co129 H133 2.388 . S
Co129 O134 2.053 . S
Co129 O137 2.047 . S
Co129 O143 2.113 1_655 S
Co129 O154 2.063 . S
Co130 H131 2.388 . S
Co130 O132 2.053 . S
Co130 O134 2.126 1_455 S
Co130 O139 2.063 . S
Co130 O153 2.047 . S
Co130 O159 2.113 1_455 S
H131 Co128 2.400 . S
H131 Co130 2.388 . S
H131 O132 0.760 . S
O132 Co128 2.009 . S
O132 Co129 2.126 1_455 S
O132 Co130 2.053 . S
O132 H131 0.760 . S
H133 Co129 2.388 . S
H133 O134 0.760 . S
H133 Co135 2.400 . S
O134 Co129 2.053 . S
O134 Co130 2.126 1_655 S
O134 H133 0.760 . S
O134 Co135 2.009 . S
Co135 H133 2.400 . S
Co135 O134 2.009 . S
Co135 O136 2.053 . S
Co135 O138 2.094 1_655 S
Co135 O142 2.122 1_655 S
Co135 O156 2.115 . S
Co135 O157 2.315 . S
O136 Co135 2.053 . S
O136 C148 1.259 . S
O137 Co129 2.047 . S
O137 C148 1.257 . S
O138 Co135 2.094 1_455 S
O138 C149 1.253 . S
O139 Co130 2.063 . S
O139 C149 1.268 . S
O140 Co128 2.115 . S
O140 C150 1.281 . S
O141 Co128 2.315 . S
O141 C150 1.252 . S
O142 Co135 2.122 1_455 S
O142 C151 1.272 . S
O143 Co129 2.113 1_455 S
O143 C151 1.245 . S
C144 O152 1.259 . S
C144 O153 1.257 . S
C145 O154 1.268 . S
C145 O155 1.253 . S
C146 O156 1.281 . S
C146 O157 1.252 . S
C147 O158 1.272 . S
C147 O159 1.245 . S
C148 O136 1.259 . S
C148 O137 1.257 . S
C149 O138 1.253 . S
C149 O139 1.268 . S
C150 O140 1.281 . S
C150 O141 1.252 . S
C151 O142 1.272 . S
C151 O143 1.245 . S
O152 Co128 2.053 . S
O152 C144 1.259 . S
O153 Co130 2.047 . S
O153 C144 1.257 . S
O154 Co129 2.063 . S
O154 C145 1.268 . S
O155 Co128 2.094 1_655 S
O155 C145 1.253 . S
O156 Co135 2.115 . S
O156 C146 1.281 . S
O157 Co135 2.315 . S
O157 C146 1.252 . S
O158 Co128 2.122 1_655 S
O158 C147 1.272 . S
O159 Co130 2.113 1_655 S
O159 C147 1.245 . S
Co160 H163 2.400 . S
Co160 O164 2.009 . S
Co160 O172 2.115 . S
Co160 O173 2.315 . S
Co160 O184 2.053 . S
Co160 O187 2.094 . S
Co160 O190 2.122 . S
Co161 O164 2.126 . S
Co161 H165 2.388 . S
Co161 O166 2.053 . S
Co161 O169 2.047 . S
Co161 O175 2.113 . S
Co161 O186 2.063 . S
Co162 H163 2.388 . S
Co162 O164 2.053 . S
Co162 O166 2.126 . S
Co162 O171 2.063 . S
Co162 O185 2.047 . S
Co162 O191 2.113 . S
H163 Co160 2.400 . S
H163 Co162 2.388 . S
H163 O164 0.760 . S
O164 Co160 2.009 . S
O164 Co161 2.126 . S
O164 Co162 2.053 . S
O164 H163 0.760 . S
H165 Co161 2.388 . S
H165 O166 0.760 . S
H165 Co167 2.400 . S
O166 Co161 2.053 . S
O166 Co162 2.126 . S
O166 H165 0.760 . S
O166 Co167 2.009 . S
Co167 H165 2.400 . S
Co167 O166 2.009 . S
Co167 O168 2.053 . S
Co167 O170 2.094 . S
Co167 O174 2.122 . S
Co167 O188 2.115 . S
Co167 O189 2.315 . S
O168 Co167 2.053 . S
O168 C180 1.259 . S
O169 Co161 2.047 . S
O169 C180 1.257 . S
O170 Co167 2.094 . S
O170 C181 1.253 . S
O171 Co162 2.063 . S
O171 C181 1.268 . S
O172 Co160 2.115 . S
O172 C182 1.281 . S
O173 Co160 2.315 . S
O173 C182 1.252 . S
O174 Co167 2.122 . S
O174 C183 1.272 . S
O175 Co161 2.113 . S
O175 C183 1.245 . S
C176 O184 1.259 . S
C176 O185 1.257 . S
C177 O186 1.268 . S
C177 O187 1.253 . S
C178 O188 1.281 . S
C178 O189 1.252 . S
C179 O190 1.272 . S
C179 O191 1.245 . S
C180 O168 1.259 . S
C180 O169 1.257 . S
C181 O170 1.253 . S
C181 O171 1.268 . S
C182 O172 1.281 . S
C182 O173 1.252 . S
C183 O174 1.272 . S
C183 O175 1.245 . S
O184 Co160 2.053 . S
O184 C176 1.259 . S
O185 Co162 2.047 . S
O185 C176 1.257 . S
O186 Co161 2.063 . S
O186 C177 1.268 . S
O187 Co160 2.094 . S
O187 C177 1.253 . S
O188 Co167 2.115 . S
O188 C178 1.281 . S
O189 Co167 2.315 . S
O189 C178 1.252 . S
O190 Co160 2.122 . S
O190 C179 1.272 . S
O191 Co162 2.113 . S
O191 C179 1.245 . S
Co192 H195 2.400 . S
Co192 O196 2.009 . S
Co192 O204 2.115 1_554 S
Co192 O205 2.315 . S
Co192 O216 2.053 1_554 S
Co192 O219 2.094 . S
Co192 O222 2.122 1_554 S
Co193 O196 2.126 . S
Co193 H197 2.388 . S
Co193 O198 2.053 . S
Co193 O201 2.047 . S
Co193 O207 2.113 . S
Co193 O218 2.063 . S
Co194 H195 2.388 . S
Co194 O196 2.053 . S
Co194 O198 2.126 . S
Co194 O203 2.063 . S
Co194 O217 2.047 1_554 S
Co194 O223 2.113 1_554 S
H195 Co192 2.400 . S
H195 Co194 2.388 . S
H195 O196 0.760 . S
O196 Co192 2.009 . S
O196 Co193 2.126 . S
O196 Co194 2.053 . S
O196 H195 0.760 . S
H197 Co193 2.388 . S
H197 O198 0.760 . S
H197 Co199 2.400 . S
O198 Co193 2.053 . S
O198 Co194 2.126 . S
O198 H197 0.760 . S
O198 Co199 2.009 . S
Co199 H197 2.400 . S
Co199 O198 2.009 . S
Co199 O200 2.053 . S
Co199 O202 2.094 . S
Co199 O206 2.122 . S
Co199 O220 2.115 . S
Co199 O221 2.315 . S
O200 Co199 2.053 . S
O200 C212 1.259 . S
O201 Co193 2.047 . S
O201 C212 1.257 . S
O202 Co199 2.094 . S
O202 C213 1.253 . S
O203 Co194 2.063 . S
O203 C213 1.268 . S
O204 Co192 2.115 1_556 S
O204 C214 1.281 1_556 S
O205 Co192 2.315 . S
O205 C214 1.252 . S
O206 Co199 2.122 . S
O206 C215 1.272 . S
O207 Co193 2.113 . S
O207 C215 1.245 . S
C208 O216 1.259 . S
C208 O217 1.257 . S
C209 O218 1.268 . S
C209 O219 1.253 . S
C210 O220 1.281 . S
C210 O221 1.252 . S
C211 O222 1.272 . S
C211 O223 1.245 . S
C212 O200 1.259 . S
C212 O201 1.257 . S
C213 O202 1.253 . S
C213 O203 1.268 . S
C214 O204 1.281 1_554 S
C214 O205 1.252 . S
C215 O206 1.272 . S
C215 O207 1.245 . S
O216 Co192 2.053 1_556 S
O216 C208 1.259 . S
O217 Co194 2.047 1_556 S
O217 C208 1.257 . S
O218 Co193 2.063 . S
O218 C209 1.268 . S
O219 Co192 2.094 . S
O219 C209 1.253 . S
O220 Co199 2.115 . S
O220 C210 1.281 . S
O221 Co199 2.315 . S
O221 C210 1.252 . S
O222 Co192 2.122 1_556 S
O222 C211 1.272 . S
O223 Co194 2.113 1_556 S
O223 C211 1.245 . S
Co224 H227 2.400 . S
Co224 O228 2.009 . S
Co224 O236 2.115 1_554 S
Co224 O237 2.315 . S
Co224 O248 2.053 1_554 S
Co224 O251 2.094 . S
Co224 O254 2.122 1_554 S
Co225 O228 2.126 . S
Co225 H229 2.388 . S
Co225 O230 2.053 . S
Co225 O233 2.047 . S
Co225 O239 2.113 . S
Co225 O250 2.063 . S
Co226 H227 2.388 . S
Co226 O228 2.053 . S
Co226 O230 2.126 . S
Co226 O235 2.063 . S
Co226 O249 2.047 1_554 S
Co226 O255 2.113 1_554 S
H227 Co224 2.400 . S
H227 Co226 2.388 . S
H227 O228 0.760 . S
O228 Co224 2.009 . S
O228 Co225 2.126 . S
O228 Co226 2.053 . S
O228 H227 0.760 . S
H229 Co225 2.388 . S
H229 O230 0.760 . S
H229 Co231 2.400 . S
O230 Co225 2.053 . S
O230 Co226 2.126 . S
O230 H229 0.760 . S
O230 Co231 2.009 . S
Co231 H229 2.400 . S
Co231 O230 2.009 . S
Co231 O232 2.053 . S
Co231 O234 2.094 . S
Co231 O238 2.122 . S
Co231 O252 2.115 . S
Co231 O253 2.315 . S
O232 Co231 2.053 . S
O232 C244 1.259 . S
O233 Co225 2.047 . S
O233 C244 1.257 . S
O234 Co231 2.094 . S
O234 C245 1.253 . S
O235 Co226 2.063 . S
O235 C245 1.268 . S
O236 Co224 2.115 1_556 S
O236 C246 1.281 1_556 S
O237 Co224 2.315 . S
O237 C246 1.252 . S
O238 Co231 2.122 . S
O238 C247 1.272 . S
O239 Co225 2.113 . S
O239 C247 1.245 . S
C240 O248 1.259 . S
C240 O249 1.257 . S
C241 O250 1.268 . S
C241 O251 1.253 . S
C242 O252 1.281 . S
C242 O253 1.252 . S
C243 O254 1.272 . S
C243 O255 1.245 . S
C244 O232 1.259 . S
C244 O233 1.257 . S
C245 O234 1.253 . S
C245 O235 1.268 . S
C246 O236 1.281 1_554 S
C246 O237 1.252 . S
C247 O238 1.272 . S
C247 O239 1.245 . S
O248 Co224 2.053 1_556 S
O248 C240 1.259 . S
O249 Co226 2.047 1_556 S
O249 C240 1.257 . S
O250 Co225 2.063 . S
O250 C241 1.268 . S
O251 Co224 2.094 . S
O251 C241 1.253 . S
O252 Co231 2.115 . S
O252 C242 1.281 . S
O253 Co231 2.315 . S
O253 C242 1.252 . S
O254 Co224 2.122 1_556 S
O254 C243 1.272 . S
O255 Co226 2.113 1_556 S
O255 C243 1.245 . S
Co256 H259 2.400 . S
Co256 O260 2.009 . S
Co256 O268 2.115 1_554 S
Co256 O269 2.315 . S
Co256 O280 2.053 1_554 S
Co256 O283 2.094 . S
Co256 O286 2.122 1_554 S
Co257 O260 2.126 . S
Co257 H261 2.388 . S
Co257 O262 2.053 . S
Co257 O265 2.047 . S
Co257 O271 2.113 . S
Co257 O282 2.063 . S
Co258 H259 2.388 . S
Co258 O260 2.053 . S
Co258 O262 2.126 . S
Co258 O267 2.063 . S
Co258 O281 2.047 1_554 S
Co258 O287 2.113 1_554 S
H259 Co256 2.400 . S
H259 Co258 2.388 . S
H259 O260 0.760 . S
O260 Co256 2.009 . S
O260 Co257 2.126 . S
O260 Co258 2.053 . S
O260 H259 0.760 . S
H261 Co257 2.388 . S
H261 O262 0.760 . S
H261 Co263 2.400 . S
O262 Co257 2.053 . S
O262 Co258 2.126 . S
O262 H261 0.760 . S
O262 Co263 2.009 . S
Co263 H261 2.400 . S
Co263 O262 2.009 . S
Co263 O264 2.053 . S
Co263 O266 2.094 . S
Co263 O270 2.122 . S
Co263 O284 2.115 . S
Co263 O285 2.315 . S
O264 Co263 2.053 . S
O264 C276 1.259 . S
O265 Co257 2.047 . S
O265 C276 1.257 . S
O266 Co263 2.094 . S
O266 C277 1.253 . S
O267 Co258 2.063 . S
O267 C277 1.268 . S
O268 Co256 2.115 1_556 S
O268 C278 1.281 1_556 S
O269 Co256 2.315 . S
O269 C278 1.252 . S
O270 Co263 2.122 . S
O270 C279 1.272 . S
O271 Co257 2.113 . S
O271 C279 1.245 . S
C272 O280 1.259 . S
C272 O281 1.257 . S
C273 O282 1.268 . S
C273 O283 1.253 . S
C274 O284 1.281 . S
C274 O285 1.252 . S
C275 O286 1.272 . S
C275 O287 1.245 . S
C276 O264 1.259 . S
C276 O265 1.257 . S
C277 O266 1.253 . S
C277 O267 1.268 . S
C278 O268 1.281 1_554 S
C278 O269 1.252 . S
C279 O270 1.272 . S
C279 O271 1.245 . S
O280 Co256 2.053 1_556 S
O280 C272 1.259 . S
O281 Co258 2.047 1_556 S
O281 C272 1.257 . S
O282 Co257 2.063 . S
O282 C273 1.268 . S
O283 Co256 2.094 . S
O283 C273 1.253 . S
O284 Co263 2.115 . S
O284 C274 1.281 . S
O285 Co263 2.315 . S
O285 C274 1.252 . S
O286 Co256 2.122 1_556 S
O286 C275 1.272 . S
O287 Co258 2.113 1_556 S
O287 C275 1.245 . S
Co288 H291 2.400 . S
Co288 O292 2.009 . S
Co288 O300 2.115 . S
Co288 O301 2.315 . S
Co288 O312 2.053 . S
Co288 O315 2.094 . S
Co288 O318 2.122 . S
Co289 O292 2.126 . S
Co289 H293 2.388 . S
Co289 O294 2.053 . S
Co289 O297 2.047 . S
Co289 O303 2.113 . S
Co289 O314 2.063 . S
Co290 H291 2.388 . S
Co290 O292 2.053 . S
Co290 O294 2.126 . S
Co290 O299 2.063 . S
Co290 O313 2.047 . S
Co290 O319 2.113 . S
H291 Co288 2.400 . S
H291 Co290 2.388 . S
H291 O292 0.760 . S
O292 Co288 2.009 . S
O292 Co289 2.126 . S
O292 Co290 2.053 . S
O292 H291 0.760 . S
H293 Co289 2.388 . S
H293 O294 0.760 . S
H293 Co295 2.400 . S
O294 Co289 2.053 . S
O294 Co290 2.126 . S
O294 H293 0.760 . S
O294 Co295 2.009 . S
Co295 H293 2.400 . S
Co295 O294 2.009 . S
Co295 O296 2.053 . S
Co295 O298 2.094 . S
Co295 O302 2.122 . S
Co295 O316 2.115 . S
Co295 O317 2.315 . S
O296 Co295 2.053 . S
O296 C308 1.259 . S
O297 Co289 2.047 . S
O297 C308 1.257 . S
O298 Co295 2.094 . S
O298 C309 1.253 . S
O299 Co290 2.063 . S
O299 C309 1.268 . S
O300 Co288 2.115 . S
O300 C310 1.281 . S
O301 Co288 2.315 . S
O301 C310 1.252 . S
O302 Co295 2.122 . S
O302 C311 1.272 . S
O303 Co289 2.113 . S
O303 C311 1.245 . S
C304 O312 1.259 . S
C304 O313 1.257 . S
C305 O314 1.268 . S
C305 O315 1.253 . S
C306 O316 1.281 . S
C306 O317 1.252 . S
C307 O318 1.272 . S
C307 O319 1.245 . S
C308 O296 1.259 . S
C308 O297 1.257 . S
C309 O298 1.253 . S
C309 O299 1.268 . S
C310 O300 1.281 . S
C310 O301 1.252 . S
C311 O302 1.272 . S
C311 O303 1.245 . S
O312 Co288 2.053 . S
O312 C304 1.259 . S
O313 Co290 2.047 . S
O313 C304 1.257 . S
O314 Co289 2.063 . S
O314 C305 1.268 . S
O315 Co288 2.094 . S
O315 C305 1.253 . S
O316 Co295 2.115 . S
O316 C306 1.281 . S
O317 Co295 2.315 . S
O317 C306 1.252 . S
O318 Co288 2.122 . S
O318 C307 1.272 . S
O319 Co290 2.113 . S
O319 C307 1.245 . S
Co320 H323 2.400 . S
Co320 O324 2.009 . S
Co320 O332 2.115 . S
Co320 O333 2.315 . S
Co320 O344 2.053 . S
Co320 O347 2.094 . S
Co320 O350 2.122 . S
Co321 O324 2.126 . S
Co321 H325 2.388 . S
Co321 O326 2.053 . S
Co321 O329 2.047 . S
Co321 O335 2.113 . S
Co321 O346 2.063 . S
Co322 H323 2.388 . S
Co322 O324 2.053 . S
Co322 O326 2.126 . S
Co322 O331 2.063 . S
Co322 O345 2.047 . S
Co322 O351 2.113 . S
H323 Co320 2.400 . S
H323 Co322 2.388 . S
H323 O324 0.760 . S
O324 Co320 2.009 . S
O324 Co321 2.126 . S
O324 Co322 2.053 . S
O324 H323 0.760 . S
H325 Co321 2.388 . S
H325 O326 0.760 . S
H325 Co327 2.400 . S
O326 Co321 2.053 . S
O326 Co322 2.126 . S
O326 H325 0.760 . S
O326 Co327 2.009 . S
Co327 H325 2.400 . S
Co327 O326 2.009 . S
Co327 O328 2.053 . S
Co327 O330 2.094 . S
Co327 O334 2.122 . S
Co327 O348 2.115 . S
Co327 O349 2.315 . S
O328 Co327 2.053 . S
O328 C340 1.259 . S
O329 Co321 2.047 . S
O329 C340 1.257 . S
O330 Co327 2.094 . S
O330 C341 1.253 . S
O331 Co322 2.063 . S
O331 C341 1.268 . S
O332 Co320 2.115 . S
O332 C342 1.281 . S
O333 Co320 2.315 . S
O333 C342 1.252 . S
O334 Co327 2.122 . S
O334 C343 1.272 . S
O335 Co321 2.113 . S
O335 C343 1.245 . S
C336 O344 1.259 . S
C336 O345 1.257 . S
C337 O346 1.268 . S
C337 O347 1.253 . S
C338 O348 1.281 . S
C338 O349 1.252 . S
C339 O350 1.272 . S
C339 O351 1.245 . S
C340 O328 1.259 . S
C340 O329 1.257 . S
C341 O330 1.253 . S
C341 O331 1.268 . S
C342 O332 1.281 . S
C342 O333 1.252 . S
C343 O334 1.272 . S
C343 O335 1.245 . S
O344 Co320 2.053 . S
O344 C336 1.259 . S
O345 Co322 2.047 . S
O345 C336 1.257 . S
O346 Co321 2.063 . S
O346 C337 1.268 . S
O347 Co320 2.094 . S
O347 C337 1.253 . S
O348 Co327 2.115 . S
O348 C338 1.281 . S
O349 Co327 2.315 . S
O349 C338 1.252 . S
O350 Co320 2.122 . S
O350 C339 1.272 . S
O351 Co322 2.113 . S
O351 C339 1.245 . S
Co352 H355 2.400 . S
Co352 O356 2.009 . S
Co352 O364 2.115 . S
Co352 O365 2.315 . S
Co352 O376 2.053 . S
Co352 O379 2.094 . S
Co352 O382 2.122 . S
Co353 O356 2.126 . S
Co353 H357 2.388 . S
Co353 O358 2.053 . S
Co353 O361 2.047 . S
Co353 O367 2.113 . S
Co353 O378 2.063 . S
Co354 H355 2.388 . S
Co354 O356 2.053 . S
Co354 O358 2.126 . S
Co354 O363 2.063 . S
Co354 O377 2.047 . S
Co354 O383 2.113 . S
H355 Co352 2.400 . S
H355 Co354 2.388 . S
H355 O356 0.760 . S
O356 Co352 2.009 . S
O356 Co353 2.126 . S
O356 Co354 2.053 . S
O356 H355 0.760 . S
H357 Co353 2.388 . S
H357 O358 0.760 . S
H357 Co359 2.400 . S
O358 Co353 2.053 . S
O358 Co354 2.126 . S
O358 H357 0.760 . S
O358 Co359 2.009 . S
Co359 H357 2.400 . S
Co359 O358 2.009 . S
Co359 O360 2.053 . S
Co359 O362 2.094 . S
Co359 O366 2.122 . S
Co359 O380 2.115 . S
Co359 O381 2.315 . S
O360 Co359 2.053 . S
O360 C372 1.259 . S
O361 Co353 2.047 . S
O361 C372 1.257 . S
O362 Co359 2.094 . S
O362 C373 1.253 . S
O363 Co354 2.063 . S
O363 C373 1.268 . S
O364 Co352 2.115 . S
O364 C374 1.281 . S
O365 Co352 2.315 . S
O365 C374 1.252 . S
O366 Co359 2.122 . S
O366 C375 1.272 . S
O367 Co353 2.113 . S
O367 C375 1.245 . S
C368 O376 1.259 . S
C368 O377 1.257 . S
C369 O378 1.268 . S
C369 O379 1.253 . S
C370 O380 1.281 . S
C370 O381 1.252 . S
C371 O382 1.272 . S
C371 O383 1.245 . S
C372 O360 1.259 . S
C372 O361 1.257 . S
C373 O362 1.253 . S
C373 O363 1.268 . S
C374 O364 1.281 . S
C374 O365 1.252 . S
C375 O366 1.272 . S
C375 O367 1.245 . S
O376 Co352 2.053 . S
O376 C368 1.259 . S
O377 Co354 2.047 . S
O377 C368 1.257 . S
O378 Co353 2.063 . S
O378 C369 1.268 . S
O379 Co352 2.094 . S
O379 C369 1.253 . S
O380 Co359 2.115 . S
O380 C370 1.281 . S
O381 Co359 2.315 . S
O381 C370 1.252 . S
O382 Co352 2.122 . S
O382 C371 1.272 . S
O383 Co354 2.113 . S
O383 C371 1.245 . S
Co384 H387 2.400 . S
Co384 O388 2.009 . S
Co384 O396 2.115 . S
Co384 O397 2.315 . S
Co384 O408 2.053 . S
Co384 O411 2.094 . S
Co384 O414 2.122 . S
Co385 O388 2.126 . S
Co385 H389 2.388 . S
Co385 O390 2.053 . S
Co385 O393 2.047 . S
Co385 O399 2.113 . S
Co385 O410 2.063 . S
Co386 H387 2.388 . S
Co386 O388 2.053 . S
Co386 O390 2.126 . S
Co386 O395 2.063 . S
Co386 O409 2.047 . S
Co386 O415 2.113 . S
H387 Co384 2.400 . S
H387 Co386 2.388 . S
H387 O388 0.760 . S
O388 Co384 2.009 . S
O388 Co385 2.126 . S
O388 Co386 2.053 . S
O388 H387 0.760 . S
H389 Co385 2.388 . S
H389 O390 0.760 . S
H389 Co391 2.400 . S
O390 Co385 2.053 . S
O390 Co386 2.126 . S
O390 H389 0.760 . S
O390 Co391 2.009 . S
Co391 H389 2.400 . S
Co391 O390 2.009 . S
Co391 O392 2.053 . S
Co391 O394 2.094 . S
Co391 O398 2.122 . S
Co391 O412 2.115 . S
Co391 O413 2.315 . S
O392 Co391 2.053 . S
O392 C404 1.259 . S
O393 Co385 2.047 . S
O393 C404 1.257 . S
O394 Co391 2.094 . S
O394 C405 1.253 . S
O395 Co386 2.063 . S
O395 C405 1.268 . S
O396 Co384 2.115 . S
O396 C406 1.281 . S
O397 Co384 2.315 . S
O397 C406 1.252 . S
O398 Co391 2.122 . S
O398 C407 1.272 . S
O399 Co385 2.113 . S
O399 C407 1.245 . S
C400 O408 1.259 . S
C400 O409 1.257 . S
C401 O410 1.268 . S
C401 O411 1.253 . S
C402 O412 1.281 . S
C402 O413 1.252 . S
C403 O414 1.272 . S
C403 O415 1.245 . S
C404 O392 1.259 . S
C404 O393 1.257 . S
C405 O394 1.253 . S
C405 O395 1.268 . S
C406 O396 1.281 . S
C406 O397 1.252 . S
C407 O398 1.272 . S
C407 O399 1.245 . S
O408 Co384 2.053 . S
O408 C400 1.259 . S
O409 Co386 2.047 . S
O409 C400 1.257 . S
O410 Co385 2.063 . S
O410 C401 1.268 . S
O411 Co384 2.094 . S
O411 C401 1.253 . S
O412 Co391 2.115 . S
O412 C402 1.281 . S
O413 Co391 2.315 . S
O413 C402 1.252 . S
O414 Co384 2.122 . S
O414 C403 1.272 . S
O415 Co386 2.113 . S
O415 C403 1.245 . S
Co416 H419 2.400 . S
Co416 O420 2.009 . S
Co416 O428 2.115 . S
Co416 O429 2.315 . S
Co416 O440 2.053 . S
Co416 O443 2.094 . S
Co416 O446 2.122 . S
Co417 O420 2.126 . S
Co417 H421 2.388 . S
Co417 O422 2.053 . S
Co417 O425 2.047 . S
Co417 O431 2.113 . S
Co417 O442 2.063 . S
Co418 H419 2.388 . S
Co418 O420 2.053 . S
Co418 O422 2.126 . S
Co418 O427 2.063 . S
Co418 O441 2.047 . S
Co418 O447 2.113 . S
H419 Co416 2.400 . S
H419 Co418 2.388 . S
H419 O420 0.760 . S
O420 Co416 2.009 . S
O420 Co417 2.126 . S
O420 Co418 2.053 . S
O420 H419 0.760 . S
H421 Co417 2.388 . S
H421 O422 0.760 . S
H421 Co423 2.400 . S
O422 Co417 2.053 . S
O422 Co418 2.126 . S
O422 H421 0.760 . S
O422 Co423 2.009 . S
Co423 H421 2.400 . S
Co423 O422 2.009 . S
Co423 O424 2.053 . S
Co423 O426 2.094 . S
Co423 O430 2.122 . S
Co423 O444 2.115 . S
Co423 O445 2.315 . S
O424 Co423 2.053 . S
O424 C436 1.259 . S
O425 Co417 2.047 . S
O425 C436 1.257 . S
O426 Co423 2.094 . S
O426 C437 1.253 . S
O427 Co418 2.063 . S
O427 C437 1.268 . S
O428 Co416 2.115 . S
O428 C438 1.281 . S
O429 Co416 2.315 . S
O429 C438 1.252 . S
O430 Co423 2.122 . S
O430 C439 1.272 . S
O431 Co417 2.113 . S
O431 C439 1.245 . S
C432 O440 1.259 . S
C432 O441 1.257 . S
C433 O442 1.268 . S
C433 O443 1.253 . S
C434 O444 1.281 . S
C434 O445 1.252 . S
C435 O446 1.272 . S
C435 O447 1.245 . S
C436 O424 1.259 . S
C436 O425 1.257 . S
C437 O426 1.253 . S
C437 O427 1.268 . S
C438 O428 1.281 . S
C438 O429 1.252 . S
C439 O430 1.272 . S
C439 O431 1.245 . S
O440 Co416 2.053 . S
O440 C432 1.259 . S
O441 Co418 2.047 . S
O441 C432 1.257 . S
O442 Co417 2.063 . S
O442 C433 1.268 . S
O443 Co416 2.094 . S
O443 C433 1.253 . S
O444 Co423 2.115 . S
O444 C434 1.281 . S
O445 Co423 2.315 . S
O445 C434 1.252 . S
O446 Co416 2.122 . S
O446 C435 1.272 . S
O447 Co418 2.113 . S
O447 C435 1.245 . S
Co448 H451 2.400 . S
Co448 O452 2.009 . S
Co448 O460 2.115 . S
Co448 O461 2.315 . S
Co448 O472 2.053 . S
Co448 O475 2.094 . S
Co448 O478 2.122 . S
Co449 O452 2.126 . S
Co449 H453 2.388 . S
Co449 O454 2.053 . S
Co449 O457 2.047 . S
Co449 O463 2.113 . S
Co449 O474 2.063 . S
Co450 H451 2.388 . S
Co450 O452 2.053 . S
Co450 O454 2.126 . S
Co450 O459 2.063 . S
Co450 O473 2.047 . S
Co450 O479 2.113 . S
H451 Co448 2.400 . S
H451 Co450 2.388 . S
H451 O452 0.760 . S
O452 Co448 2.009 . S
O452 Co449 2.126 . S
O452 Co450 2.053 . S
O452 H451 0.760 . S
H453 Co449 2.388 . S
H453 O454 0.760 . S
H453 Co455 2.400 . S
O454 Co449 2.053 . S
O454 Co450 2.126 . S
O454 H453 0.760 . S
O454 Co455 2.009 . S
Co455 H453 2.400 . S
Co455 O454 2.009 . S
Co455 O456 2.053 . S
Co455 O458 2.094 . S
Co455 O462 2.122 . S
Co455 O476 2.115 . S
Co455 O477 2.315 . S
O456 Co455 2.053 . S
O456 C468 1.259 . S
O457 Co449 2.047 . S
O457 C468 1.257 . S
O458 Co455 2.094 . S
O458 C469 1.253 . S
O459 Co450 2.063 . S
O459 C469 1.268 . S
O460 Co448 2.115 . S
O460 C470 1.281 . S
O461 Co448 2.315 . S
O461 C470 1.252 . S
O462 Co455 2.122 . S
O462 C471 1.272 . S
O463 Co449 2.113 . S
O463 C471 1.245 . S
C464 O472 1.259 . S
C464 O473 1.257 . S
C465 O474 1.268 . S
C465 O475 1.253 . S
C466 O476 1.281 . S
C466 O477 1.252 . S
C467 O478 1.272 . S
C467 O479 1.245 . S
C468 O456 1.259 . S
C468 O457 1.257 . S
C469 O458 1.253 . S
C469 O459 1.268 . S
C470 O460 1.281 . S
C470 O461 1.252 . S
C471 O462 1.272 . S
C471 O463 1.245 . S
O472 Co448 2.053 . S
O472 C464 1.259 . S
O473 Co450 2.047 . S
O473 C464 1.257 . S
O474 Co449 2.063 . S
O474 C465 1.268 . S
O475 Co448 2.094 . S
O475 C465 1.253 . S
O476 Co455 2.115 . S
O476 C466 1.281 . S
O477 Co455 2.315 . S
O477 C466 1.252 . S
O478 Co448 2.122 . S
O478 C467 1.272 . S
O479 Co450 2.113 . S
O479 C467 1.245 . S
Co480 H483 2.400 . S
Co480 O484 2.009 . S
Co480 O492 2.115 . S
Co480 O493 2.315 . S
Co480 O504 2.053 . S
Co480 O507 2.094 . S
Co480 O510 2.122 . S
Co481 O484 2.126 . S
Co481 H485 2.388 . S
Co481 O486 2.053 . S
Co481 O489 2.047 1_556 S
Co481 O495 2.113 1_556 S
Co481 O506 2.063 . S
Co482 H483 2.388 . S
Co482 O484 2.053 . S
Co482 O486 2.126 . S
Co482 O491 2.063 . S
Co482 O505 2.047 . S
Co482 O511 2.113 . S
H483 Co480 2.400 . S
H483 Co482 2.388 . S
H483 O484 0.760 . S
O484 Co480 2.009 . S
O484 Co481 2.126 . S
O484 Co482 2.053 . S
O484 H483 0.760 . S
H485 Co481 2.388 . S
H485 O486 0.760 . S
H485 Co487 2.400 . S
O486 Co481 2.053 . S
O486 Co482 2.126 . S
O486 H485 0.760 . S
O486 Co487 2.009 . S
Co487 H485 2.400 . S
Co487 O486 2.009 . S
Co487 O488 2.053 1_556 S
Co487 O490 2.094 . S
Co487 O494 2.122 1_556 S
Co487 O508 2.115 1_556 S
Co487 O509 2.315 . S
O488 Co487 2.053 1_554 S
O488 C500 1.259 . S
O489 Co481 2.047 1_554 S
O489 C500 1.257 . S
O490 Co487 2.094 . S
O490 C501 1.253 . S
O491 Co482 2.063 . S
O491 C501 1.268 . S
O492 Co480 2.115 . S
O492 C502 1.281 . S
O493 Co480 2.315 . S
O493 C502 1.252 . S
O494 Co487 2.122 1_554 S
O494 C503 1.272 . S
O495 Co481 2.113 1_554 S
O495 C503 1.245 . S
C496 O504 1.259 . S
C496 O505 1.257 . S
C497 O506 1.268 . S
C497 O507 1.253 . S
C498 O508 1.281 1_556 S
C498 O509 1.252 . S
C499 O510 1.272 . S
C499 O511 1.245 . S
C500 O488 1.259 . S
C500 O489 1.257 . S
C501 O490 1.253 . S
C501 O491 1.268 . S
C502 O492 1.281 . S
C502 O493 1.252 . S
C503 O494 1.272 . S
C503 O495 1.245 . S
O504 Co480 2.053 . S
O504 C496 1.259 . S
O505 Co482 2.047 . S
O505 C496 1.257 . S
O506 Co481 2.063 . S
O506 C497 1.268 . S
O507 Co480 2.094 . S
O507 C497 1.253 . S
O508 Co487 2.115 1_554 S
O508 C498 1.281 1_554 S
O509 Co487 2.315 . S
O509 C498 1.252 . S
O510 Co480 2.122 . S
O510 C499 1.272 . S
O511 Co482 2.113 . S
O511 C499 1.245 . S
Co512 H515 2.400 . S
Co512 O516 2.009 . S
Co512 O524 2.115 . S
Co512 O525 2.315 . S
Co512 O536 2.053 . S
Co512 O539 2.094 . S
Co512 O542 2.122 . S
Co513 O516 2.126 . S
Co513 H517 2.388 . S
Co513 O518 2.053 . S
Co513 O521 2.047 1_556 S
Co513 O527 2.113 1_556 S
Co513 O538 2.063 . S
Co514 H515 2.388 . S
Co514 O516 2.053 . S
Co514 O518 2.126 . S
Co514 O523 2.063 . S
Co514 O537 2.047 . S
Co514 O543 2.113 . S
H515 Co512 2.400 . S
H515 Co514 2.388 . S
H515 O516 0.760 . S
O516 Co512 2.009 . S
O516 Co513 2.126 . S
O516 Co514 2.053 . S
O516 H515 0.760 . S
H517 Co513 2.388 . S
H517 O518 0.760 . S
H517 Co519 2.400 . S
O518 Co513 2.053 . S
O518 Co514 2.126 . S
O518 H517 0.760 . S
O518 Co519 2.009 . S
Co519 H517 2.400 . S
Co519 O518 2.009 . S
Co519 O520 2.053 1_556 S
Co519 O522 2.094 . S
Co519 O526 2.122 1_556 S
Co519 O540 2.115 1_556 S
Co519 O541 2.315 . S
O520 Co519 2.053 1_554 S
O520 C532 1.259 . S
O521 Co513 2.047 1_554 S
O521 C532 1.257 . S
O522 Co519 2.094 . S
O522 C533 1.253 . S
O523 Co514 2.063 . S
O523 C533 1.268 . S
O524 Co512 2.115 . S
O524 C534 1.281 . S
O525 Co512 2.315 . S
O525 C534 1.252 . S
O526 Co519 2.122 1_554 S
O526 C535 1.272 . S
O527 Co513 2.113 1_554 S
O527 C535 1.245 . S
C528 O536 1.259 . S
C528 O537 1.257 . S
C529 O538 1.268 . S
C529 O539 1.253 . S
C530 O540 1.281 1_556 S
C530 O541 1.252 . S
C531 O542 1.272 . S
C531 O543 1.245 . S
C532 O520 1.259 . S
C532 O521 1.257 . S
C533 O522 1.253 . S
C533 O523 1.268 . S
C534 O524 1.281 . S
C534 O525 1.252 . S
C535 O526 1.272 . S
C535 O527 1.245 . S
O536 Co512 2.053 . S
O536 C528 1.259 . S
O537 Co514 2.047 . S
O537 C528 1.257 . S
O538 Co513 2.063 . S
O538 C529 1.268 . S
O539 Co512 2.094 . S
O539 C529 1.253 . S
O540 Co519 2.115 1_554 S
O540 C530 1.281 1_554 S
O541 Co519 2.315 . S
O541 C530 1.252 . S
O542 Co512 2.122 . S
O542 C531 1.272 . S
O543 Co514 2.113 . S
O543 C531 1.245 . S
Co544 H547 2.400 . S
Co544 O548 2.009 . S
Co544 O556 2.115 . S
Co544 O557 2.315 . S
Co544 O568 2.053 . S
Co544 O571 2.094 . S
Co544 O574 2.122 . S
Co545 O548 2.126 . S
Co545 H549 2.388 . S
Co545 O550 2.053 . S
Co545 O553 2.047 1_556 S
Co545 O559 2.113 1_556 S
Co545 O570 2.063 . S
Co546 H547 2.388 . S
Co546 O548 2.053 . S
Co546 O550 2.126 . S
Co546 O555 2.063 . S
Co546 O569 2.047 . S
Co546 O575 2.113 . S
H547 Co544 2.400 . S
H547 Co546 2.388 . S
H547 O548 0.760 . S
O548 Co544 2.009 . S
O548 Co545 2.126 . S
O548 Co546 2.053 . S
O548 H547 0.760 . S
H549 Co545 2.388 . S
H549 O550 0.760 . S
H549 Co551 2.400 . S
O550 Co545 2.053 . S
O550 Co546 2.126 . S
O550 H549 0.760 . S
O550 Co551 2.009 . S
Co551 H549 2.400 . S
Co551 O550 2.009 . S
Co551 O552 2.053 1_556 S
Co551 O554 2.094 . S
Co551 O558 2.122 1_556 S
Co551 O572 2.115 1_556 S
Co551 O573 2.315 . S
O552 Co551 2.053 1_554 S
O552 C564 1.259 . S
O553 Co545 2.047 1_554 S
O553 C564 1.257 . S
O554 Co551 2.094 . S
O554 C565 1.253 . S
O555 Co546 2.063 . S
O555 C565 1.268 . S
O556 Co544 2.115 . S
O556 C566 1.281 . S
O557 Co544 2.315 . S
O557 C566 1.252 . S
O558 Co551 2.122 1_554 S
O558 C567 1.272 . S
O559 Co545 2.113 1_554 S
O559 C567 1.245 . S
C560 O568 1.259 . S
C560 O569 1.257 . S
C561 O570 1.268 . S
C561 O571 1.253 . S
C562 O572 1.281 1_556 S
C562 O573 1.252 . S
C563 O574 1.272 . S
C563 O575 1.245 . S
C564 O552 1.259 . S
C564 O553 1.257 . S
C565 O554 1.253 . S
C565 O555 1.268 . S
C566 O556 1.281 . S
C566 O557 1.252 . S
C567 O558 1.272 . S
C567 O559 1.245 . S
O568 Co544 2.053 . S
O568 C560 1.259 . S
O569 Co546 2.047 . S
O569 C560 1.257 . S
O570 Co545 2.063 . S
O570 C561 1.268 . S
O571 Co544 2.094 . S
O571 C561 1.253 . S
O572 Co551 2.115 1_554 S
O572 C562 1.281 1_554 S
O573 Co551 2.315 . S
O573 C562 1.252 . S
O574 Co544 2.122 . S
O574 C563 1.272 . S
O575 Co546 2.113 . S
O575 C563 1.245 . S
H576 C582 0.930 . S
H577 C586 0.930 . S
H578 C591 0.929 . S
H579 C589 0.929 . S
H580 C584 0.929 . S
H581 C590 0.929 . S
C582 H576 0.930 . S
C582 C583 1.367 . S
C582 C590 1.378 . S
C583 C582 1.367 . S
C583 C591 1.433 . S
C584 H580 0.929 . S
C584 C586 1.378 . S
C584 C588 1.350 . S
C585 C588 1.463 . S
C585 C590 1.350 . S
C585 N593 1.427 . S
C586 H577 0.930 . S
C586 C584 1.378 . S
C586 C587 1.367 . S
C587 C586 1.367 . S
C587 C589 1.433 . S
C588 C584 1.350 . S
C588 C585 1.463 . S
C588 N592 1.427 . S
C589 H579 0.929 . S
C589 C587 1.433 . S
C589 N592 1.384 . S
C590 H581 0.929 . S
C590 C582 1.378 . S
C590 C585 1.350 . S
C591 H578 0.929 . S
C591 C583 1.433 . S
C591 N593 1.384 . S
N592 C588 1.427 . S
N592 C589 1.384 . S
N593 C585 1.427 . S
N593 C591 1.384 . S
H594 C600 0.930 1_455 S
H595 C604 0.930 . S
H596 C609 0.929 . S
H597 C607 0.929 . S
H598 C602 0.929 . S
H599 C608 0.929 . S
C600 H594 0.930 1_655 S
C600 C601 1.367 . S
C600 C608 1.378 . S
C601 C600 1.367 . S
C601 C609 1.433 . S
C602 H598 0.929 . S
C602 C604 1.378 1_545 S
C602 C606 1.350 . S
C603 C606 1.463 . S
C603 C608 1.350 . S
C603 N611 1.427 . S
C604 H595 0.930 . S
C604 C602 1.378 1_565 S
C604 C605 1.367 . S
C605 C604 1.367 . S
C605 C607 1.433 . S
C606 C602 1.350 . S
C606 C603 1.463 . S
C606 N610 1.427 . S
C607 H597 0.929 . S
C607 C605 1.433 . S
C607 N610 1.384 1_565 S
C608 H599 0.929 . S
C608 C600 1.378 . S
C608 C603 1.350 . S
C609 H596 0.929 . S
C609 C601 1.433 . S
C609 N611 1.384 . S
N610 C606 1.427 . S
N610 C607 1.384 1_545 S
N611 C603 1.427 . S
N611 C609 1.384 . S
H612 C618 0.930 . S
H613 C622 0.930 . S
H614 C627 0.929 . S
H615 C625 0.929 . S
H616 C620 0.929 . S
H617 C626 0.929 . S
C618 H612 0.930 . S
C618 C619 1.367 . S
C618 C626 1.378 . S
C619 C618 1.367 . S
C619 C627 1.433 . S
C620 H616 0.929 . S
C620 C622 1.378 . S
C620 C624 1.350 . S
C621 C624 1.463 1_655 S
C621 C626 1.350 . S
C621 N629 1.427 . S
C622 H613 0.930 . S
C622 C620 1.378 . S
C622 C623 1.367 . S
C623 C622 1.367 . S
C623 C625 1.433 . S
C624 C620 1.350 . S
C624 C621 1.463 1_455 S
C624 N628 1.427 . S
C625 H615 0.929 . S
C625 C623 1.433 . S
C625 N628 1.384 . S
C626 H617 0.929 . S
C626 C618 1.378 . S
C626 C621 1.350 . S
C627 H614 0.929 . S
C627 C619 1.433 . S
C627 N629 1.384 . S
N628 C624 1.427 . S
N628 C625 1.384 . S
N629 C621 1.427 . S
N629 C627 1.384 . S
H630 C636 0.930 . S
H631 C640 0.930 1_545 S
H632 C645 0.929 . S
H633 C643 0.929 . S
H634 C638 0.929 . S
H635 C644 0.929 . S
C636 H630 0.930 . S
C636 C637 1.367 . S
C636 C644 1.378 . S
C637 C636 1.367 . S
C637 C645 1.433 . S
C638 H634 0.929 . S
C638 C640 1.378 . S
C638 C642 1.350 . S
C639 C642 1.463 . S
C639 C644 1.350 . S
C639 N647 1.427 . S
C640 H631 0.930 1_565 S
C640 C638 1.378 . S
C640 C641 1.367 . S
C641 C640 1.367 . S
C641 C643 1.433 . S
C642 C638 1.350 . S
C642 C639 1.463 . S
C642 N646 1.427 . S
C643 H633 0.929 . S
C643 C641 1.433 . S
C643 N646 1.384 . S
C644 H635 0.929 . S
C644 C636 1.378 . S
C644 C639 1.350 . S
C645 H632 0.929 . S
C645 C637 1.433 . S
C645 N647 1.384 . S
N646 C642 1.427 . S
N646 C643 1.384 . S
N647 C639 1.427 . S
N647 C645 1.384 . S
H648 C654 0.930 . S
H649 C658 0.930 . S
H650 C663 0.929 . S
H651 C661 0.929 . S
H652 C656 0.929 . S
H653 C662 0.929 . S
C654 H648 0.930 . S
C654 C655 1.367 . S
C654 C662 1.378 . S
C655 C654 1.367 . S
C655 C663 1.433 . S
C656 H652 0.929 . S
C656 C658 1.378 . S
C656 C660 1.350 . S
C657 C660 1.463 1_545 S
C657 C662 1.350 . S
C657 N665 1.427 . S
C658 H649 0.930 . S
C658 C656 1.378 . S
C658 C659 1.367 . S
C659 C658 1.367 . S
C659 C661 1.433 . S
C660 C656 1.350 . S
C660 C657 1.463 1_565 S
C660 N664 1.427 . S
C661 H651 0.929 . S
C661 C659 1.433 . S
C661 N664 1.384 . S
C662 H653 0.929 . S
C662 C654 1.378 . S
C662 C657 1.350 . S
C663 H650 0.929 . S
C663 C655 1.433 . S
C663 N665 1.384 . S
N664 C660 1.427 . S
N664 C661 1.384 . S
N665 C657 1.427 . S
N665 C663 1.384 . S
H666 C672 0.930 . S
H667 C676 0.930 . S
H668 C681 0.929 . S
H669 C679 0.929 . S
H670 C674 0.929 . S
H671 C680 0.929 . S
C672 H666 0.930 . S
C672 C673 1.367 . S
C672 C680 1.378 . S
C673 C672 1.367 . S
C673 C681 1.433 . S
C674 H670 0.929 . S
C674 C676 1.378 . S
C674 C678 1.350 1_655 S
C675 C678 1.463 . S
C675 C680 1.350 . S
C675 N683 1.427 . S
C676 H667 0.930 . S
C676 C674 1.378 . S
C676 C677 1.367 . S
C677 C676 1.367 . S
C677 C679 1.433 . S
C678 C674 1.350 1_455 S
C678 C675 1.463 . S
C678 N682 1.412 1_455 S
C679 H669 0.929 . S
C679 C677 1.433 . S
C679 N682 1.406 . S
C680 H671 0.929 . S
C680 C672 1.378 . S
C680 C675 1.350 . S
C681 H668 0.929 . S
C681 C673 1.433 . S
C681 N683 1.384 . S
N682 C678 1.412 1_655 S
N682 C679 1.406 . S
N683 C675 1.427 . S
N683 C681 1.384 . S
H684 C690 0.930 . S
H685 C694 0.930 . S
H686 C699 0.929 . S
H687 C697 0.929 . S
H688 C692 0.929 . S
H689 C698 0.929 . S
C690 H684 0.930 . S
C690 C691 1.367 . S
C690 C698 1.378 . S
C691 C690 1.367 . S
C691 C699 1.433 . S
C692 H688 0.929 . S
C692 C694 1.378 . S
C692 C696 1.350 . S
C693 C696 1.463 . S
C693 C698 1.350 . S
C693 N701 1.427 . S
C694 H685 0.930 . S
C694 C692 1.378 . S
C694 C695 1.367 . S
C695 C694 1.367 . S
C695 C697 1.433 1_554 S
C696 C692 1.350 . S
C696 C693 1.463 . S
C696 N700 1.427 . S
C697 H687 0.929 . S
C697 C695 1.433 1_556 S
C697 N700 1.384 1_556 S
C698 H689 0.929 . S
C698 C690 1.378 . S
C698 C693 1.350 . S
C699 H686 0.929 . S
C699 C691 1.433 . S
C699 N701 1.384 . S
N700 C696 1.427 . S
N700 C697 1.384 1_554 S
N701 C693 1.427 . S
N701 C699 1.384 . S
H702 C708 0.930 . S
H703 C712 0.930 . S
H704 C717 0.929 . S
H705 C715 0.929 . S
H706 C710 0.929 . S
H707 C716 0.929 . S
C708 H702 0.930 . S
C708 C709 1.367 . S
C708 C716 1.378 . S
C709 C708 1.367 . S
C709 C717 1.433 . S
C710 H706 0.929 . S
C710 C712 1.378 . S
C710 C714 1.350 . S
C711 C714 1.463 . S
C711 C716 1.350 . S
C711 N719 1.427 . S
C712 H703 0.930 . S
C712 C710 1.378 . S
C712 C713 1.367 . S
C713 C712 1.367 . S
C713 C715 1.433 1_554 S
C714 C710 1.350 . S
C714 C711 1.463 . S
C714 N718 1.438 . S
C715 H705 0.929 . S
C715 C713 1.433 1_556 S
C715 N718 1.379 1_556 S
C716 H707 0.929 . S
C716 C708 1.378 . S
C716 C711 1.350 . S
C717 H704 0.929 . S
C717 C709 1.433 . S
C717 N719 1.384 . S
N718 C714 1.438 . S
N718 C715 1.379 1_554 S
N719 C711 1.427 . S
N719 C717 1.384 . S
H720 C726 0.930 . S
H721 C730 0.930 . S
H722 C735 0.924 1_556 S
H723 C733 0.929 . S
H724 C728 0.929 . S
H725 C734 0.929 . S
C726 H720 0.930 . S
C726 C727 1.367 . S
C726 C734 1.378 . S
C727 C726 1.367 . S
C727 C735 1.433 . S
C728 H724 0.929 . S
C728 C730 1.378 . S
C728 C732 1.350 . S
C729 C732 1.463 . S
C729 C734 1.350 . S
C729 N737 1.427 . S
C730 H721 0.930 . S
C730 C728 1.378 . S
C730 C731 1.367 . S
C731 C730 1.367 . S
C731 C733 1.433 . S
C732 C728 1.350 . S
C732 C729 1.463 . S
C732 N736 1.427 . S
C733 H723 0.929 . S
C733 C731 1.433 . S
C733 N736 1.384 . S
C734 H725 0.929 . S
C734 C726 1.378 . S
C734 C729 1.350 . S
C735 H722 0.924 1_554 S
C735 C727 1.433 . S
C735 N737 1.384 . S
N736 C732 1.427 . S
N736 C733 1.384 . S
N737 C729 1.427 . S
N737 C735 1.384 . S
H738 C744 0.930 . S
H739 C748 0.930 . S
H740 C753 0.929 . S
H741 C751 0.929 . S
H742 C746 0.929 . S
H743 C752 0.929 . S
C744 H738 0.930 . S
C744 C745 1.367 . S
C744 C752 1.378 . S
C745 C744 1.367 . S
C745 C753 1.433 . S
C746 H742 0.929 . S
C746 C748 1.378 . S
C746 C750 1.350 . S
C747 C750 1.463 . S
C747 C752 1.350 . S
C747 N755 1.427 . S
C748 H739 0.930 . S
C748 C746 1.378 . S
C748 C749 1.367 . S
C749 C748 1.367 . S
C749 C751 1.433 . S
C750 C746 1.350 . S
C750 C747 1.463 . S
C750 N754 1.427 . S
C751 H741 0.929 . S
C751 C749 1.433 . S
C751 N754 1.384 . S
C752 H743 0.929 . S
C752 C744 1.378 . S
C752 C747 1.350 . S
C753 H740 0.929 . S
C753 C745 1.433 . S
C753 N755 1.384 . S
N754 C750 1.427 . S
N754 C751 1.384 . S
N755 C747 1.427 . S
N755 C753 1.384 . S
H756 C762 0.930 . S
H757 C766 0.930 . S
H758 C771 0.929 . S
H759 C769 0.929 . S
H760 C764 0.929 . S
H761 C770 0.929 . S
C762 H756 0.930 . S
C762 C763 1.367 . S
C762 C770 1.378 . S
C763 C762 1.367 . S
C763 C771 1.433 . S
C764 H760 0.929 . S
C764 C766 1.378 . S
C764 C768 1.350 . S
C765 C768 1.463 . S
C765 C770 1.350 . S
C765 N773 1.427 . S
C766 H757 0.930 . S
C766 C764 1.378 . S
C766 C767 1.367 . S
C767 C766 1.367 . S
C767 C769 1.433 . S
C768 C764 1.350 . S
C768 C765 1.463 . S
C768 N772 1.427 . S
C769 H759 0.929 . S
C769 C767 1.433 . S
C769 N772 1.384 . S
C770 H761 0.929 . S
C770 C762 1.378 . S
C770 C765 1.350 . S
C771 H758 0.929 . S
C771 C763 1.433 . S
C771 N773 1.384 . S
N772 C768 1.427 . S
N772 C769 1.384 . S
N773 C765 1.427 . S
N773 C771 1.384 . S
H774 C780 0.930 . S
H775 C784 0.930 . S
H776 C789 0.929 . S
H777 C787 0.929 . S
H778 C782 0.929 . S
H779 C788 0.929 . S
C780 H774 0.930 . S
C780 C781 1.367 . S
C780 C788 1.378 . S
C781 C780 1.367 . S
C781 C789 1.433 . S
C782 H778 0.929 . S
C782 C784 1.378 . S
C782 C786 1.350 . S
C783 C786 1.463 . S
C783 C788 1.350 . S
C783 N791 1.427 . S
C784 H775 0.930 . S
C784 C782 1.378 . S
C784 C785 1.367 . S
C785 C784 1.367 . S
C785 C787 1.433 . S
C786 C782 1.350 . S
C786 C783 1.463 . S
C786 N790 1.427 . S
C787 H777 0.929 . S
C787 C785 1.433 . S
C787 N790 1.384 . S
C788 H779 0.929 . S
C788 C780 1.378 . S
C788 C783 1.350 . S
C789 H776 0.929 . S
C789 C781 1.433 . S
C789 N791 1.384 . S
N790 C786 1.427 . S
N790 C787 1.384 . S
N791 C783 1.427 . S
N791 C789 1.384 . S
H792 C798 0.930 . S
H793 C802 0.930 . S
H794 C807 0.929 . S
H795 C805 0.929 . S
H796 C800 0.929 . S
H797 C806 0.929 . S
C798 H792 0.930 . S
C798 C799 1.367 . S
C798 C806 1.378 . S
C799 C798 1.367 . S
C799 C807 1.433 . S
C800 H796 0.929 . S
C800 C802 1.378 . S
C800 C804 1.350 . S
C801 C804 1.463 . S
C801 C806 1.350 . S
C801 N809 1.427 . S
C802 H793 0.930 . S
C802 C800 1.378 . S
C802 C803 1.367 . S
C803 C802 1.367 . S
C803 C805 1.433 . S
C804 C800 1.350 . S
C804 C801 1.463 . S
C804 N808 1.427 . S
C805 H795 0.929 . S
C805 C803 1.433 . S
C805 N808 1.384 . S
C806 H797 0.929 . S
C806 C798 1.378 . S
C806 C801 1.350 . S
C807 H794 0.929 . S
C807 C799 1.433 . S
C807 N809 1.384 . S
N808 C804 1.427 . S
N808 C805 1.384 . S
N809 C801 1.427 . S
N809 C807 1.384 . S
H810 C816 0.930 . S
H811 C820 0.930 . S
H812 C825 0.929 . S
H813 C823 0.929 . S
H814 C818 0.929 . S
H815 C824 0.929 . S
C816 H810 0.930 . S
C816 C817 1.367 . S
C816 C824 1.378 . S
C817 C816 1.367 . S
C817 C825 1.433 . S
C818 H814 0.929 . S
C818 C820 1.378 . S
C818 C822 1.350 . S
C819 C822 1.463 . S
C819 C824 1.350 . S
C819 N827 1.427 . S
C820 H811 0.930 . S
C820 C818 1.378 . S
C820 C821 1.367 . S
C821 C820 1.367 . S
C821 C823 1.433 . S
C822 C818 1.350 . S
C822 C819 1.463 . S
C822 N826 1.427 . S
C823 H813 0.929 . S
C823 C821 1.433 . S
C823 N826 1.384 . S
C824 H815 0.929 . S
C824 C816 1.378 . S
C824 C819 1.350 . S
C825 H812 0.929 . S
C825 C817 1.433 . S
C825 N827 1.384 . S
N826 C822 1.427 . S
N826 C823 1.384 . S
N827 C819 1.427 . S
N827 C825 1.384 . S
H828 C834 0.930 . S
H829 C838 0.930 . S
H830 C843 0.929 . S
H831 C841 0.929 . S
H832 C836 0.929 . S
H833 C842 0.929 . S
C834 H828 0.930 . S
C834 C835 1.367 . S
C834 C842 1.378 . S
C835 C834 1.367 . S
C835 C843 1.433 . S
C836 H832 0.929 . S
C836 C838 1.378 . S
C836 C840 1.350 . S
C837 C840 1.463 . S
C837 C842 1.350 . S
C837 N845 1.427 . S
C838 H829 0.930 . S
C838 C836 1.378 . S
C838 C839 1.367 . S
C839 C838 1.367 . S
C839 C841 1.433 . S
C840 C836 1.350 . S
C840 C837 1.463 . S
C840 N844 1.427 . S
C841 H831 0.929 . S
C841 C839 1.433 . S
C841 N844 1.384 . S
C842 H833 0.929 . S
C842 C834 1.378 . S
C842 C837 1.350 . S
C843 H830 0.929 . S
C843 C835 1.433 . S
C843 N845 1.384 . S
N844 C840 1.427 . S
N844 C841 1.384 . S
N845 C837 1.427 . S
N845 C843 1.384 . S
H846 C852 0.930 . S
H847 C856 0.930 . S
H848 C861 0.929 . S
H849 C859 0.929 . S
H850 C854 0.929 . S
H851 C860 0.929 . S
C852 H846 0.930 . S
C852 C853 1.367 . S
C852 C860 1.378 . S
C853 C852 1.367 . S
C853 C861 1.433 1_556 S
C854 H850 0.929 . S
C854 C856 1.378 . S
C854 C858 1.350 . S
C855 C858 1.463 . S
C855 C860 1.350 . S
C855 N863 1.427 . S
C856 H847 0.930 . S
C856 C854 1.378 . S
C856 C857 1.367 . S
C857 C856 1.367 . S
C857 C859 1.433 . S
C858 C854 1.350 . S
C858 C855 1.463 . S
C858 N862 1.427 . S
C859 H849 0.929 . S
C859 C857 1.433 . S
C859 N862 1.384 . S
C860 H851 0.929 . S
C860 C852 1.378 . S
C860 C855 1.350 . S
C861 H848 0.929 . S
C861 C853 1.433 1_554 S
C861 N863 1.384 1_554 S
N862 C858 1.427 . S
N862 C859 1.384 . S
N863 C855 1.427 . S
N863 C861 1.384 1_556 S
H864 C870 0.930 . S
H865 C874 0.930 . S
H866 C879 0.929 . S
H867 C877 0.929 . S
H868 C872 0.929 . S
H869 C878 0.929 . S
C870 H864 0.930 . S
C870 C871 1.367 . S
C870 C878 1.378 . S
C871 C870 1.367 . S
C871 C879 1.433 . S
C872 H868 0.929 . S
C872 C874 1.378 . S
C872 C876 1.350 . S
C873 C876 1.463 . S
C873 C878 1.350 . S
C873 N881 1.427 . S
C874 H865 0.930 . S
C874 C872 1.378 . S
C874 C875 1.367 . S
C875 C874 1.367 . S
C875 C877 1.433 . S
C876 C872 1.350 . S
C876 C873 1.463 . S
C876 N880 1.427 . S
C877 H867 0.929 . S
C877 C875 1.433 . S
C877 N880 1.384 . S
C878 H869 0.929 . S
C878 C870 1.378 . S
C878 C873 1.350 . S
C879 H866 0.929 . S
C879 C871 1.433 . S
C879 N881 1.384 . S
N880 C876 1.427 . S
N880 C877 1.384 . S
N881 C873 1.427 . S
N881 C879 1.384 . S
H882 C888 0.930 . S
H883 C892 0.930 1_554 S
H884 C897 0.929 . S
H885 C895 0.929 . S
H886 C890 0.929 . S
H887 C896 0.929 . S
C888 H882 0.930 . S
C888 C889 1.367 . S
C888 C896 1.378 . S
C889 C888 1.367 . S
C889 C897 1.433 . S
C890 H886 0.929 . S
C890 C892 1.378 . S
C890 C894 1.350 . S
C891 C894 1.463 . S
C891 C896 1.350 . S
C891 N899 1.427 . S
C892 H883 0.930 1_556 S
C892 C890 1.378 . S
C892 C893 1.367 . S
C893 C892 1.367 . S
C893 C895 1.433 . S
C894 C890 1.350 . S
C894 C891 1.463 . S
C894 N898 1.427 . S
C895 H885 0.929 . S
C895 C893 1.433 . S
C895 N898 1.384 . S
C896 H887 0.929 . S
C896 C888 1.378 . S
C896 C891 1.350 . S
C897 H884 0.929 . S
C897 C889 1.433 . S
C897 N899 1.384 . S
N898 C894 1.427 . S
N898 C895 1.384 . S
N899 C891 1.427 . S
N899 C897 1.384 . S
H900 C906 0.930 . S
H901 C910 0.930 . S
H902 C915 0.929 . S
H903 C913 0.929 . S
H904 C908 0.929 . S
H905 C914 0.929 . S
C906 H900 0.930 . S
C906 C907 1.367 . S
C906 C914 1.378 . S
C907 C906 1.367 . S
C907 C915 1.433 . S
C908 H904 0.929 . S
C908 C910 1.378 . S
C908 C912 1.350 . S
C909 C912 1.463 . S
C909 C914 1.350 . S
C909 N917 1.427 . S
C910 H901 0.930 . S
C910 C908 1.378 . S
C910 C911 1.367 . S
C911 C910 1.367 . S
C911 C913 1.433 . S
C912 C908 1.350 . S
C912 C909 1.463 . S
C912 N916 1.427 . S
C913 H903 0.929 . S
C913 C911 1.433 . S
C913 N916 1.384 . S
C914 H905 0.929 . S
C914 C906 1.378 . S
C914 C909 1.350 . S
C915 H902 0.929 . S
C915 C907 1.433 . S
C915 N917 1.384 . S
N916 C912 1.427 . S
N916 C913 1.384 . S
N917 C909 1.427 . S
N917 C915 1.384 . S
H918 C924 0.930 . S
H919 C928 0.930 . S
H920 C933 0.929 . S
H921 C931 0.929 . S
H922 C926 0.929 . S
H923 C932 0.929 . S
C924 H918 0.930 . S
C924 C925 1.367 . S
C924 C932 1.378 . S
C925 C924 1.367 . S
C925 C933 1.433 . S
C926 H922 0.929 . S
C926 C928 1.378 . S
C926 C930 1.350 . S
C927 C930 1.463 . S
C927 C932 1.350 . S
C927 N935 1.427 . S
C928 H919 0.930 . S
C928 C926 1.378 . S
C928 C929 1.367 . S
C929 C928 1.367 . S
C929 C931 1.433 . S
C930 C926 1.350 . S
C930 C927 1.463 . S
C930 N934 1.427 . S
C931 H921 0.929 . S
C931 C929 1.433 . S
C931 N934 1.384 . S
C932 H923 0.929 . S
C932 C924 1.378 . S
C932 C927 1.350 . S
C933 H920 0.929 . S
C933 C925 1.433 . S
C933 N935 1.384 . S
N934 C930 1.427 . S
N934 C931 1.384 . S
N935 C927 1.427 . S
N935 C933 1.384 . S
H936 C942 0.930 . S
H937 C946 0.930 . S
H938 C951 0.929 . S
H939 C949 0.929 . S
H940 C944 0.929 . S
H941 C950 0.929 . S
C942 H936 0.930 . S
C942 C943 1.367 . S
C942 C950 1.378 . S
C943 C942 1.367 . S
C943 C951 1.433 . S
C944 H940 0.929 . S
C944 C946 1.378 . S
C944 C948 1.350 . S
C945 C948 1.463 . S
C945 C950 1.350 . S
C945 N953 1.427 . S
C946 H937 0.930 . S
C946 C944 1.378 . S
C946 C947 1.367 . S
C947 C946 1.367 . S
C947 C949 1.433 . S
C948 C944 1.350 . S
C948 C945 1.463 . S
C948 N952 1.427 . S
C949 H939 0.929 . S
C949 C947 1.433 . S
C949 N952 1.384 . S
C950 H941 0.929 . S
C950 C942 1.378 . S
C950 C945 1.350 . S
C951 H938 0.929 . S
C951 C943 1.433 . S
C951 N953 1.384 . S
N952 C948 1.427 . S
N952 C949 1.384 . S
N953 C945 1.427 . S
N953 C951 1.384 . S
H954 C960 0.930 . S
H955 C964 0.930 . S
H956 C969 0.929 . S
H957 C967 0.929 . S
H958 C962 0.929 1_556 S
H959 C968 0.929 1_554 S
C960 H954 0.930 . S
C960 C961 1.367 . S
C960 C968 1.378 . S
C961 C960 1.367 . S
C961 C969 1.433 . S
C962 H958 0.929 1_554 S
C962 C964 1.378 . S
C962 C966 1.350 . S
C963 C966 1.463 1_556 S
C963 C968 1.350 . S
C963 N971 1.427 . S
C964 H955 0.930 . S
C964 C962 1.378 . S
C964 C965 1.367 . S
C965 C964 1.367 . S
C965 C967 1.433 . S
C966 C962 1.350 . S
C966 C963 1.463 1_554 S
C966 N970 1.427 . S
C967 H957 0.929 . S
C967 C965 1.433 . S
C967 N970 1.384 . S
C968 H959 0.929 1_556 S
C968 C960 1.378 . S
C968 C963 1.350 . S
C969 H956 0.929 . S
C969 C961 1.433 . S
C969 N971 1.384 . S
N970 C966 1.427 . S
N970 C967 1.384 . S
N971 C963 1.427 . S
N971 C969 1.384 . S
H972 C978 0.930 . S
H973 C982 0.930 . S
H974 C987 0.929 . S
H975 C985 0.929 . S
H976 C980 0.929 . S
H977 C986 0.929 . S
C978 H972 0.930 . S
C978 C979 1.367 . S
C978 C986 1.378 . S
C979 C978 1.367 . S
C979 C987 1.433 . S
C980 H976 0.929 . S
C980 C982 1.378 . S
C980 C984 1.350 . S
C981 C984 1.463 1_554 S
C981 C986 1.350 . S
C981 N989 1.427 . S
C982 H973 0.930 . S
C982 C980 1.378 . S
C982 C983 1.367 . S
C983 C982 1.367 . S
C983 C985 1.433 . S
C984 C980 1.350 . S
C984 C981 1.463 1_556 S
C984 N988 1.427 . S
C985 H975 0.929 . S
C985 C983 1.433 . S
C985 N988 1.384 . S
C986 H977 0.929 . S
C986 C978 1.378 . S
C986 C981 1.350 . S
C987 H974 0.929 . S
C987 C979 1.433 . S
C987 N989 1.384 . S
N988 C984 1.427 . S
N988 C985 1.384 . S
N989 C981 1.427 . S
N989 C987 1.384 . S
H990 C996 0.930 . S
H991 C1000 0.930 . S
H992 C1005 0.929 . S
H993 C1003 0.929 . S
H994 C998 0.929 . S
H995 C1004 0.929 . S
C996 H990 0.930 . S
C996 C997 1.367 . S
C996 C1004 1.378 . S
C997 C996 1.367 . S
C997 C1005 1.433 . S
C998 H994 0.929 . S
C998 C1000 1.378 . S
C998 C1002 1.350 . S
C999 C1002 1.463 1_556 S
C999 C1004 1.350 . S
C999 N1007 1.427 . S
C1000 H991 0.930 . S
C1000 C998 1.378 . S
C1000 C1001 1.367 . S
C1001 C1000 1.367 . S
C1001 C1003 1.433 . S
C1002 C998 1.350 . S
C1002 C999 1.463 1_554 S
C1002 N1006 1.427 . S
C1003 H993 0.929 . S
C1003 C1001 1.433 . S
C1003 N1006 1.384 . S
C1004 H995 0.929 . S
C1004 C996 1.378 . S
C1004 C999 1.350 . S
C1005 H992 0.929 . S
C1005 C997 1.433 . S
C1005 N1007 1.384 . S
N1006 C1002 1.427 . S
N1006 C1003 1.384 . S
N1007 C999 1.427 . S
N1007 C1005 1.384 . S
H1008 C1014 0.930 . S
H1009 C1018 0.930 1_545 S
H1010 C1023 0.929 . S
H1011 C1021 0.929 . S
H1012 C1016 0.929 . S
H1013 C1022 0.929 . S
C1014 H1008 0.930 . S
C1014 C1015 1.367 . S
C1014 C1022 1.378 . S
C1015 C1014 1.367 . S
C1015 C1023 1.433 . S
C1016 H1012 0.929 . S
C1016 C1018 1.378 . S
C1016 C1020 1.350 . S
C1017 C1020 1.463 . S
C1017 C1022 1.350 . S
C1017 N1025 1.427 . S
C1018 H1009 0.930 1_565 S
C1018 C1016 1.378 . S
C1018 C1019 1.367 . S
C1019 C1018 1.367 . S
C1019 C1021 1.433 . S
C1020 C1016 1.350 . S
C1020 C1017 1.463 . S
C1020 N1024 1.427 . S
C1021 H1011 0.929 . S
C1021 C1019 1.433 . S
C1021 N1024 1.384 . S
C1022 H1013 0.929 . S
C1022 C1014 1.378 . S
C1022 C1017 1.350 . S
C1023 H1010 0.929 . S
C1023 C1015 1.433 . S
C1023 N1025 1.384 . S
N1024 C1020 1.427 . S
N1024 C1021 1.384 . S
N1025 C1017 1.427 . S
N1025 C1023 1.384 . S
H1026 C1032 0.930 . S
H1027 C1036 0.930 . S
H1028 C1041 0.929 . S
H1029 C1039 0.929 . S
H1030 C1034 0.929 . S
H1031 C1040 0.929 . S
C1032 H1026 0.930 . S
C1032 C1033 1.367 . S
C1032 C1040 1.378 . S
C1033 C1032 1.367 . S
C1033 C1041 1.433 . S
C1034 H1030 0.929 . S
C1034 C1036 1.378 . S
C1034 C1038 1.350 . S
C1035 C1038 1.463 . S
C1035 C1040 1.350 . S
C1035 N1043 1.427 . S
C1036 H1027 0.930 . S
C1036 C1034 1.378 . S
C1036 C1037 1.367 . S
C1037 C1036 1.367 . S
C1037 C1039 1.433 . S
C1038 C1034 1.350 . S
C1038 C1035 1.463 . S
C1038 N1042 1.427 . S
C1039 H1029 0.929 . S
C1039 C1037 1.433 . S
C1039 N1042 1.384 . S
C1040 H1031 0.929 . S
C1040 C1032 1.378 . S
C1040 C1035 1.350 . S
C1041 H1028 0.929 . S
C1041 C1033 1.433 . S
C1041 N1043 1.384 . S
N1042 C1038 1.427 . S
N1042 C1039 1.384 . S
N1043 C1035 1.427 . S
N1043 C1041 1.384 . S
H1044 C1050 0.930 . S
H1045 C1054 0.930 . S
H1046 C1059 0.929 . S
H1047 C1057 0.929 . S
H1048 C1052 0.929 . S
H1049 C1058 0.929 . S
C1050 H1044 0.930 . S
C1050 C1051 1.367 . S
C1050 C1058 1.378 . S
C1051 C1050 1.367 . S
C1051 C1059 1.433 . S
C1052 H1048 0.929 . S
C1052 C1054 1.378 . S
C1052 C1056 1.350 . S
C1053 C1056 1.463 . S
C1053 C1058 1.350 . S
C1053 N1061 1.427 . S
C1054 H1045 0.930 . S
C1054 C1052 1.378 . S
C1054 C1055 1.367 . S
C1055 C1054 1.367 . S
C1055 C1057 1.433 . S
C1056 C1052 1.350 . S
C1056 C1053 1.463 . S
C1056 N1060 1.427 . S
C1057 H1047 0.929 . S
C1057 C1055 1.433 . S
C1057 N1060 1.384 . S
C1058 H1049 0.929 . S
C1058 C1050 1.378 . S
C1058 C1053 1.350 . S
C1059 H1046 0.929 . S
C1059 C1051 1.433 . S
C1059 N1061 1.384 . S
N1060 C1056 1.427 . S
N1060 C1057 1.384 . S
N1061 C1053 1.427 . S
N1061 C1059 1.384 . S
H1062 C1068 0.930 . S
H1063 C1072 0.930 . S
H1064 C1077 0.929 . S
H1065 C1075 0.929 . S
H1066 C1070 0.929 1_554 S
H1067 C1076 0.929 1_556 S
C1068 H1062 0.930 . S
C1068 C1069 1.367 . S
C1068 C1076 1.378 . S
C1069 C1068 1.367 . S
C1069 C1077 1.433 . S
C1070 H1066 0.929 1_556 S
C1070 C1072 1.378 . S
C1070 C1074 1.350 . S
C1071 C1074 1.463 1_554 S
C1071 C1076 1.350 . S
C1071 N1079 1.427 . S
C1072 H1063 0.930 . S
C1072 C1070 1.378 . S
C1072 C1073 1.367 . S
C1073 C1072 1.367 . S
C1073 C1075 1.433 . S
C1074 C1070 1.350 . S
C1074 C1071 1.463 1_556 S
C1074 N1078 1.427 . S
C1075 H1065 0.929 . S
C1075 C1073 1.433 . S
C1075 N1078 1.384 . S
C1076 H1067 0.929 1_554 S
C1076 C1068 1.378 . S
C1076 C1071 1.350 . S
C1077 H1064 0.929 . S
C1077 C1069 1.433 . S
C1077 N1079 1.384 . S
N1078 C1074 1.427 . S
N1078 C1075 1.384 . S
N1079 C1071 1.427 . S
N1079 C1077 1.384 . S
H1080 C1086 0.930 . S
H1081 C1090 0.930 . S
H1082 C1095 0.929 . S
H1083 C1093 0.929 . S
H1084 C1088 0.929 1_554 S
H1085 C1094 0.929 1_556 S
C1086 H1080 0.930 . S
C1086 C1087 1.367 . S
C1086 C1094 1.378 . S
C1087 C1086 1.367 . S
C1087 C1095 1.433 . S
C1088 H1084 0.929 1_556 S
C1088 C1090 1.378 . S
C1088 C1092 1.350 . S
C1089 C1092 1.463 1_554 S
C1089 C1094 1.350 . S
C1089 N1097 1.427 . S
C1090 H1081 0.930 . S
C1090 C1088 1.378 . S
C1090 C1091 1.367 . S
C1091 C1090 1.367 . S
C1091 C1093 1.433 . S
C1092 C1088 1.350 . S
C1092 C1089 1.463 1_556 S
C1092 N1096 1.427 . S
C1093 H1083 0.929 . S
C1093 C1091 1.433 . S
C1093 N1096 1.384 . S
C1094 H1085 0.929 1_554 S
C1094 C1086 1.378 . S
C1094 C1089 1.350 . S
C1095 H1082 0.929 . S
C1095 C1087 1.433 . S
C1095 N1097 1.384 . S
N1096 C1092 1.427 . S
N1096 C1093 1.384 . S
N1097 C1089 1.427 . S
N1097 C1095 1.384 . S
H1098 C1104 0.930 . S
H1099 C1108 0.930 . S
H1100 C1113 0.929 . S
H1101 C1111 0.929 . S
H1102 C1106 0.929 . S
H1103 C1112 0.929 . S
C1104 H1098 0.930 . S
C1104 C1105 1.367 . S
C1104 C1112 1.378 . S
C1105 C1104 1.367 . S
C1105 C1113 1.433 . S
C1106 H1102 0.929 . S
C1106 C1108 1.378 . S
C1106 C1110 1.350 . S
C1107 C1110 1.463 1_556 S
C1107 C1112 1.350 . S
C1107 N1115 1.427 . S
C1108 H1099 0.930 . S
C1108 C1106 1.378 . S
C1108 C1109 1.367 . S
C1109 C1108 1.367 . S
C1109 C1111 1.433 . S
C1110 C1106 1.350 . S
C1110 C1107 1.463 1_554 S
C1110 N1114 1.427 . S
C1111 H1101 0.929 . S
C1111 C1109 1.433 . S
C1111 N1114 1.384 . S
C1112 H1103 0.929 . S
C1112 C1104 1.378 . S
C1112 C1107 1.350 . S
C1113 H1100 0.929 . S
C1113 C1105 1.433 . S
C1113 N1115 1.384 . S
N1114 C1110 1.427 . S
N1114 C1111 1.384 . S
N1115 C1107 1.427 . S
N1115 C1113 1.384 . S
H1116 C1122 0.930 . S
H1117 C1126 0.930 . S
H1118 C1131 0.929 . S
H1119 C1129 0.929 . S
H1120 C1124 0.929 . S
H1121 C1130 0.929 . S
C1122 H1116 0.930 . S
C1122 C1123 1.367 . S
C1122 C1130 1.378 . S
C1123 C1122 1.367 . S
C1123 C1131 1.433 . S
C1124 H1120 0.929 . S
C1124 C1126 1.378 . S
C1124 C1128 1.350 . S
C1125 C1128 1.463 . S
C1125 C1130 1.350 . S
C1125 N1133 1.427 . S
C1126 H1117 0.930 . S
C1126 C1124 1.378 . S
C1126 C1127 1.367 . S
C1127 C1126 1.367 . S
C1127 C1129 1.433 . S
C1128 C1124 1.350 . S
C1128 C1125 1.463 . S
C1128 N1132 1.427 . S
C1129 H1119 0.929 . S
C1129 C1127 1.433 . S
C1129 N1132 1.384 . S
C1130 H1121 0.929 . S
C1130 C1122 1.378 . S
C1130 C1125 1.350 . S
C1131 H1118 0.929 . S
C1131 C1123 1.433 . S
C1131 N1133 1.384 . S
N1132 C1128 1.427 . S
N1132 C1129 1.384 . S
N1133 C1125 1.427 . S
N1133 C1131 1.384 . S
H1134 C1140 0.930 . S
H1135 C1144 0.930 . S
H1136 C1149 0.929 . S
H1137 C1147 0.929 . S
H1138 C1142 0.929 . S
H1139 C1148 0.929 . S
C1140 H1134 0.930 . S
C1140 C1141 1.367 . S
C1140 C1148 1.378 . S
C1141 C1140 1.367 . S
C1141 C1149 1.433 . S
C1142 H1138 0.929 . S
C1142 C1144 1.378 . S
C1142 C1146 1.350 . S
C1143 C1146 1.463 . S
C1143 C1148 1.350 . S
C1143 N1151 1.427 . S
C1144 H1135 0.930 . S
C1144 C1142 1.378 . S
C1144 C1145 1.367 . S
C1145 C1144 1.367 . S
C1145 C1147 1.433 . S
C1146 C1142 1.350 . S
C1146 C1143 1.463 . S
C1146 N1150 1.427 . S
C1147 H1137 0.929 . S
C1147 C1145 1.433 . S
C1147 N1150 1.384 . S
C1148 H1139 0.929 . S
C1148 C1140 1.378 . S
C1148 C1143 1.350 . S
C1149 H1136 0.929 . S
C1149 C1141 1.433 . S
C1149 N1151 1.384 . S
N1150 C1146 1.427 . S
N1150 C1147 1.384 . S
N1151 C1143 1.427 . S
N1151 C1149 1.384 . S
H1152 C1158 0.930 . S
H1153 C1162 0.930 . S
H1154 C1167 0.929 . S
H1155 C1165 0.929 . S
H1156 C1160 0.929 . S
H1157 C1166 0.929 . S
C1158 H1152 0.930 . S
C1158 C1159 1.367 . S
C1158 C1166 1.378 . S
C1159 C1158 1.367 . S
C1159 C1167 1.433 . S
C1160 H1156 0.929 . S
C1160 C1162 1.378 . S
C1160 C1164 1.350 . S
C1161 C1164 1.463 . S
C1161 C1166 1.350 . S
C1161 N1169 1.427 . S
C1162 H1153 0.930 . S
C1162 C1160 1.378 . S
C1162 C1163 1.367 . S
C1163 C1162 1.367 . S
C1163 C1165 1.433 . S
C1164 C1160 1.350 . S
C1164 C1161 1.463 . S
C1164 N1168 1.427 . S
C1165 H1155 0.929 . S
C1165 C1163 1.433 . S
C1165 N1168 1.384 . S
C1166 H1157 0.929 . S
C1166 C1158 1.378 . S
C1166 C1161 1.350 . S
C1167 H1154 0.929 . S
C1167 C1159 1.433 . S
C1167 N1169 1.384 . S
N1168 C1164 1.427 . S
N1168 C1165 1.384 . S
N1169 C1161 1.427 . S
N1169 C1167 1.384 . S
H1170 C1176 0.930 . S
H1171 C1180 0.930 . S
H1172 C1185 0.929 . S
H1173 C1183 0.929 . S
H1174 C1178 0.929 . S
H1175 C1184 0.929 . S
C1176 H1170 0.930 . S
C1176 C1177 1.367 . S
C1176 C1184 1.378 . S
C1177 C1176 1.367 . S
C1177 C1185 1.433 . S
C1178 H1174 0.929 . S
C1178 C1180 1.378 . S
C1178 C1182 1.350 . S
C1179 C1182 1.463 . S
C1179 C1184 1.350 . S
C1179 N1187 1.427 . S
C1180 H1171 0.930 . S
C1180 C1178 1.378 . S
C1180 C1181 1.367 . S
C1181 C1180 1.367 . S
C1181 C1183 1.433 . S
C1182 C1178 1.350 . S
C1182 C1179 1.463 . S
C1182 N1186 1.427 . S
C1183 H1173 0.929 . S
C1183 C1181 1.433 . S
C1183 N1186 1.384 . S
C1184 H1175 0.929 . S
C1184 C1176 1.378 . S
C1184 C1179 1.350 . S
C1185 H1172 0.929 . S
C1185 C1177 1.433 . S
C1185 N1187 1.384 . S
N1186 C1182 1.427 . S
N1186 C1183 1.384 . S
N1187 C1179 1.427 . S
N1187 C1185 1.384 . S
H1188 C1194 0.930 . S
H1189 C1198 0.930 . S
H1190 C1203 0.929 . S
H1191 C1201 0.929 . S
H1192 C1196 0.929 . S
H1193 C1202 0.929 . S
C1194 H1188 0.930 . S
C1194 C1195 1.367 . S
C1194 C1202 1.378 . S
C1195 C1194 1.367 . S
C1195 C1203 1.433 . S
C1196 H1192 0.929 . S
C1196 C1198 1.378 . S
C1196 C1200 1.350 . S
C1197 C1200 1.463 . S
C1197 C1202 1.350 . S
C1197 N1205 1.427 . S
C1198 H1189 0.930 . S
C1198 C1196 1.378 . S
C1198 C1199 1.367 . S
C1199 C1198 1.367 . S
C1199 C1201 1.433 . S
C1200 C1196 1.350 . S
C1200 C1197 1.463 . S
C1200 N1204 1.427 . S
C1201 H1191 0.929 . S
C1201 C1199 1.433 . S
C1201 N1204 1.384 . S
C1202 H1193 0.929 . S
C1202 C1194 1.378 . S
C1202 C1197 1.350 . S
C1203 H1190 0.929 . S
C1203 C1195 1.433 . S
C1203 N1205 1.384 . S
N1204 C1200 1.427 . S
N1204 C1201 1.384 . S
N1205 C1197 1.427 . S
N1205 C1203 1.384 . S
H1206 C1212 0.930 . S
H1207 C1216 0.930 . S
H1208 C1221 0.929 . S
H1209 C1219 0.929 . S
H1210 C1214 0.929 . S
H1211 C1220 0.929 . S
C1212 H1206 0.930 . S
C1212 C1213 1.367 . S
C1212 C1220 1.378 . S
C1213 C1212 1.367 . S
C1213 C1221 1.433 . S
C1214 H1210 0.929 . S
C1214 C1216 1.378 . S
C1214 C1218 1.350 . S
C1215 C1218 1.463 . S
C1215 C1220 1.350 . S
C1215 N1223 1.427 . S
C1216 H1207 0.930 . S
C1216 C1214 1.378 . S
C1216 C1217 1.367 . S
C1217 C1216 1.367 . S
C1217 C1219 1.433 . S
C1218 C1214 1.350 . S
C1218 C1215 1.463 . S
C1218 N1222 1.427 . S
C1219 H1209 0.929 . S
C1219 C1217 1.433 . S
C1219 N1222 1.384 . S
C1220 H1211 0.929 . S
C1220 C1212 1.378 . S
C1220 C1215 1.350 . S
C1221 H1208 0.929 . S
C1221 C1213 1.433 . S
C1221 N1223 1.384 . S
N1222 C1218 1.427 . S
N1222 C1219 1.384 . S
N1223 C1215 1.427 . S
N1223 C1221 1.384 . S
H1224 C1230 0.930 . S
H1225 C1234 0.930 . S
H1226 C1239 0.929 . S
H1227 C1237 0.929 . S
H1228 C1232 0.929 . S
H1229 C1238 0.929 . S
C1230 H1224 0.930 . S
C1230 C1231 1.367 . S
C1230 C1238 1.378 . S
C1231 C1230 1.367 . S
C1231 C1239 1.433 . S
C1232 H1228 0.929 . S
C1232 C1234 1.378 . S
C1232 C1236 1.350 . S
C1233 C1236 1.463 . S
C1233 C1238 1.350 . S
C1233 N1241 1.427 . S
C1234 H1225 0.930 . S
C1234 C1232 1.378 . S
C1234 C1235 1.367 . S
C1235 C1234 1.367 . S
C1235 C1237 1.433 . S
C1236 C1232 1.350 . S
C1236 C1233 1.463 . S
C1236 N1240 1.427 . S
C1237 H1227 0.929 . S
C1237 C1235 1.433 . S
C1237 N1240 1.384 . S
C1238 H1229 0.929 . S
C1238 C1230 1.378 . S
C1238 C1233 1.350 . S
C1239 H1226 0.929 . S
C1239 C1231 1.433 . S
C1239 N1241 1.384 . S
N1240 C1236 1.427 . S
N1240 C1237 1.384 . S
N1241 C1233 1.427 . S
N1241 C1239 1.384 . S
H1242 C1248 0.930 . S
H1243 C1252 0.930 . S
H1244 C1257 0.929 . S
H1245 C1255 0.929 . S
H1246 C1250 0.929 . S
H1247 C1256 0.929 . S
C1248 H1242 0.930 . S
C1248 C1249 1.367 . S
C1248 C1256 1.378 . S
C1249 C1248 1.367 . S
C1249 C1257 1.433 . S
C1250 H1246 0.929 . S
C1250 C1252 1.378 . S
C1250 C1254 1.350 . S
C1251 C1254 1.463 . S
C1251 C1256 1.350 . S
C1251 N1259 1.427 . S
C1252 H1243 0.930 . S
C1252 C1250 1.378 . S
C1252 C1253 1.367 . S
C1253 C1252 1.367 . S
C1253 C1255 1.433 . S
C1254 C1250 1.350 . S
C1254 C1251 1.463 . S
C1254 N1258 1.427 . S
C1255 H1245 0.929 . S
C1255 C1253 1.433 . S
C1255 N1258 1.384 . S
C1256 H1247 0.929 . S
C1256 C1248 1.378 . S
C1256 C1251 1.350 . S
C1257 H1244 0.929 . S
C1257 C1249 1.433 . S
C1257 N1259 1.384 . S
N1258 C1254 1.427 . S
N1258 C1255 1.384 . S
N1259 C1251 1.427 . S
N1259 C1257 1.384 . S
H1260 C1266 0.930 . S
H1261 C1270 0.930 . S
H1262 C1275 0.929 . S
H1263 C1273 0.929 . S
H1264 C1268 0.929 . S
H1265 C1274 0.929 . S
C1266 H1260 0.930 . S
C1266 C1267 1.367 . S
C1266 C1274 1.378 . S
C1267 C1266 1.367 . S
C1267 C1275 1.433 . S
C1268 H1264 0.929 . S
C1268 C1270 1.378 . S
C1268 C1272 1.350 . S
C1269 C1272 1.463 . S
C1269 C1274 1.350 . S
C1269 N1277 1.427 . S
C1270 H1261 0.930 . S
C1270 C1268 1.378 . S
C1270 C1271 1.367 . S
C1271 C1270 1.367 . S
C1271 C1273 1.433 . S
C1272 C1268 1.350 . S
C1272 C1269 1.463 . S
C1272 N1276 1.427 . S
C1273 H1263 0.929 . S
C1273 C1271 1.433 . S
C1273 N1276 1.384 . S
C1274 H1265 0.929 . S
C1274 C1266 1.378 . S
C1274 C1269 1.350 . S
C1275 H1262 0.929 . S
C1275 C1267 1.433 . S
C1275 N1277 1.384 . S
N1276 C1272 1.427 . S
N1276 C1273 1.384 . S
N1277 C1269 1.427 . S
N1277 C1275 1.384 . S
H1278 C1284 0.930 . S
H1279 C1288 0.930 . S
H1280 C1293 0.929 . S
H1281 C1291 0.929 . S
H1282 C1286 0.929 . S
H1283 C1292 0.929 . S
C1284 H1278 0.930 . S
C1284 C1285 1.367 . S
C1284 C1292 1.378 . S
C1285 C1284 1.367 . S
C1285 C1293 1.433 . S
C1286 H1282 0.929 . S
C1286 C1288 1.378 . S
C1286 C1290 1.350 . S
C1287 C1290 1.463 . S
C1287 C1292 1.350 . S
C1287 N1295 1.427 . S
C1288 H1279 0.930 . S
C1288 C1286 1.378 . S
C1288 C1289 1.367 . S
C1289 C1288 1.367 . S
C1289 C1291 1.433 . S
C1290 C1286 1.350 . S
C1290 C1287 1.463 . S
C1290 N1294 1.427 . S
C1291 H1281 0.929 . S
C1291 C1289 1.433 . S
C1291 N1294 1.384 . S
C1292 H1283 0.929 . S
C1292 C1284 1.378 . S
C1292 C1287 1.350 . S
C1293 H1280 0.929 . S
C1293 C1285 1.433 . S
C1293 N1295 1.384 . S
N1294 C1290 1.427 . S
N1294 C1291 1.384 . S
N1295 C1287 1.427 . S
N1295 C1293 1.384 . S
H1296 C1302 0.930 . S
H1297 C1306 0.930 . S
H1298 C1311 0.929 . S
H1299 C1309 0.929 . S
H1300 C1304 0.929 . S
H1301 C1310 0.929 . S
C1302 H1296 0.930 . S
C1302 C1303 1.367 . S
C1302 C1310 1.378 . S
C1303 C1302 1.367 . S
C1303 C1311 1.433 . S
C1304 H1300 0.929 . S
C1304 C1306 1.378 . S
C1304 C1308 1.350 . S
C1305 C1308 1.463 . S
C1305 C1310 1.350 . S
C1305 N1313 1.427 . S
C1306 H1297 0.930 . S
C1306 C1304 1.378 . S
C1306 C1307 1.367 . S
C1307 C1306 1.367 . S
C1307 C1309 1.433 . S
C1308 C1304 1.350 . S
C1308 C1305 1.463 . S
C1308 N1312 1.427 . S
C1309 H1299 0.929 . S
C1309 C1307 1.433 . S
C1309 N1312 1.384 . S
C1310 H1301 0.929 . S
C1310 C1302 1.378 . S
C1310 C1305 1.350 . S
C1311 H1298 0.929 . S
C1311 C1303 1.433 . S
C1311 N1313 1.384 . S
N1312 C1308 1.427 . S
N1312 C1309 1.384 . S
N1313 C1305 1.427 . S
N1313 C1311 1.384 . S
H1314 C1320 0.930 . S
H1315 C1324 0.930 . S
H1316 C1329 0.929 . S
H1317 C1327 0.929 . S
H1318 C1322 0.929 . S
H1319 C1328 0.929 . S
C1320 H1314 0.930 . S
C1320 C1321 1.367 . S
C1320 C1328 1.378 . S
C1321 C1320 1.367 . S
C1321 C1329 1.433 . S
C1322 H1318 0.929 . S
C1322 C1324 1.378 . S
C1322 C1326 1.350 . S
C1323 C1326 1.463 . S
C1323 C1328 1.350 . S
C1323 N1331 1.427 . S
C1324 H1315 0.930 . S
C1324 C1322 1.378 . S
C1324 C1325 1.367 . S
C1325 C1324 1.367 . S
C1325 C1327 1.433 . S
C1326 C1322 1.350 . S
C1326 C1323 1.463 . S
C1326 N1330 1.427 . S
C1327 H1317 0.929 . S
C1327 C1325 1.433 . S
C1327 N1330 1.384 . S
C1328 H1319 0.929 . S
C1328 C1320 1.378 . S
C1328 C1323 1.350 . S
C1329 H1316 0.929 . S
C1329 C1321 1.433 . S
C1329 N1331 1.384 . S
N1330 C1326 1.427 . S
N1330 C1327 1.384 . S
N1331 C1323 1.427 . S
N1331 C1329 1.384 . S
H1332 C1338 0.930 . S
H1333 C1342 0.930 . S
H1334 C1347 0.929 . S
H1335 C1345 0.929 . S
H1336 C1340 0.929 . S
H1337 C1346 0.929 . S
C1338 H1332 0.930 . S
C1338 C1339 1.367 . S
C1338 C1346 1.378 . S
C1339 C1338 1.367 . S
C1339 C1347 1.433 . S
C1340 H1336 0.929 . S
C1340 C1342 1.378 . S
C1340 C1344 1.350 . S
C1341 C1344 1.463 . S
C1341 C1346 1.350 . S
C1341 N1349 1.427 . S
C1342 H1333 0.930 . S
C1342 C1340 1.378 . S
C1342 C1343 1.367 . S
C1343 C1342 1.367 . S
C1343 C1345 1.433 . S
C1344 C1340 1.350 . S
C1344 C1341 1.463 . S
C1344 N1348 1.427 . S
C1345 H1335 0.929 . S
C1345 C1343 1.433 . S
C1345 N1348 1.384 . S
C1346 H1337 0.929 . S
C1346 C1338 1.378 . S
C1346 C1341 1.350 . S
C1347 H1334 0.929 . S
C1347 C1339 1.433 . S
C1347 N1349 1.384 . S
N1348 C1344 1.427 . S
N1348 C1345 1.384 . S
N1349 C1341 1.427 . S
N1349 C1347 1.384 . S
H1350 C1356 0.930 . S
H1351 C1360 0.930 . S
H1352 C1365 0.929 . S
H1353 C1363 0.929 . S
H1354 C1358 0.929 . S
H1355 C1364 0.929 . S
C1356 H1350 0.930 . S
C1356 C1357 1.367 . S
C1356 C1364 1.378 . S
C1357 C1356 1.367 . S
C1357 C1365 1.433 . S
C1358 H1354 0.929 . S
C1358 C1360 1.378 . S
C1358 C1362 1.350 . S
C1359 C1362 1.463 . S
C1359 C1364 1.350 . S
C1359 N1367 1.427 . S
C1360 H1351 0.930 . S
C1360 C1358 1.378 . S
C1360 C1361 1.367 . S
C1361 C1360 1.367 . S
C1361 C1363 1.433 . S
C1362 C1358 1.350 . S
C1362 C1359 1.463 . S
C1362 N1366 1.427 . S
C1363 H1353 0.929 . S
C1363 C1361 1.433 . S
C1363 N1366 1.384 . S
C1364 H1355 0.929 . S
C1364 C1356 1.378 . S
C1364 C1359 1.350 . S
C1365 H1352 0.929 . S
C1365 C1357 1.433 . S
C1365 N1367 1.384 . S
N1366 C1362 1.427 . S
N1366 C1363 1.384 . S
N1367 C1359 1.427 . S
N1367 C1365 1.384 . S
H1368 C1374 0.930 . S
H1369 C1378 0.930 . S
H1370 C1383 0.929 . S
H1371 C1381 0.929 . S
H1372 C1376 0.929 . S
H1373 C1382 0.929 . S
C1374 H1368 0.930 . S
C1374 C1375 1.367 . S
C1374 C1382 1.378 . S
C1375 C1374 1.367 . S
C1375 C1383 1.433 . S
C1376 H1372 0.929 . S
C1376 C1378 1.378 . S
C1376 C1380 1.350 . S
C1377 C1380 1.463 . S
C1377 C1382 1.350 . S
C1377 N1385 1.427 . S
C1378 H1369 0.930 . S
C1378 C1376 1.378 . S
C1378 C1379 1.367 . S
C1379 C1378 1.367 . S
C1379 C1381 1.433 . S
C1380 C1376 1.350 . S
C1380 C1377 1.463 . S
C1380 N1384 1.427 . S
C1381 H1371 0.929 . S
C1381 C1379 1.433 . S
C1381 N1384 1.384 . S
C1382 H1373 0.929 . S
C1382 C1374 1.378 . S
C1382 C1377 1.350 . S
C1383 H1370 0.929 . S
C1383 C1375 1.433 . S
C1383 N1385 1.384 . S
N1384 C1380 1.427 . S
N1384 C1381 1.384 . S
N1385 C1377 1.427 . S
N1385 C1383 1.384 . S
H1386 C1392 0.930 . S
H1387 C1396 0.930 . S
H1388 C1401 0.929 . S
H1389 C1399 0.929 . S
H1390 C1394 0.929 . S
H1391 C1400 0.929 . S
C1392 H1386 0.930 . S
C1392 C1393 1.367 . S
C1392 C1400 1.378 . S
C1393 C1392 1.367 . S
C1393 C1401 1.433 . S
C1394 H1390 0.929 . S
C1394 C1396 1.378 . S
C1394 C1398 1.350 . S
C1395 C1398 1.463 . S
C1395 C1400 1.350 . S
C1395 N1403 1.427 . S
C1396 H1387 0.930 . S
C1396 C1394 1.378 . S
C1396 C1397 1.367 . S
C1397 C1396 1.367 . S
C1397 C1399 1.433 . S
C1398 C1394 1.350 . S
C1398 C1395 1.463 . S
C1398 N1402 1.427 . S
C1399 H1389 0.929 . S
C1399 C1397 1.433 . S
C1399 N1402 1.384 . S
C1400 H1391 0.929 . S
C1400 C1392 1.378 . S
C1400 C1395 1.350 . S
C1401 H1388 0.929 . S
C1401 C1393 1.433 . S
C1401 N1403 1.384 . S
N1402 C1398 1.427 . S
N1402 C1399 1.384 . S
N1403 C1395 1.427 . S
N1403 C1401 1.384 . S
H1404 C1410 0.930 . S
H1405 C1414 0.930 . S
H1406 C1419 0.929 . S
H1407 C1417 0.929 . S
H1408 C1412 0.929 . S
H1409 C1418 0.929 . S
C1410 H1404 0.930 . S
C1410 C1411 1.367 . S
C1410 C1418 1.378 . S
C1411 C1410 1.367 . S
C1411 C1419 1.433 . S
C1412 H1408 0.929 . S
C1412 C1414 1.378 . S
C1412 C1416 1.350 . S
C1413 C1416 1.463 . S
C1413 C1418 1.350 . S
C1413 N1421 1.427 . S
C1414 H1405 0.930 . S
C1414 C1412 1.378 . S
C1414 C1415 1.367 . S
C1415 C1414 1.367 . S
C1415 C1417 1.433 . S
C1416 C1412 1.350 . S
C1416 C1413 1.463 . S
C1416 N1420 1.427 . S
C1417 H1407 0.929 . S
C1417 C1415 1.433 . S
C1417 N1420 1.384 . S
C1418 H1409 0.929 . S
C1418 C1410 1.378 . S
C1418 C1413 1.350 . S
C1419 H1406 0.929 . S
C1419 C1411 1.433 . S
C1419 N1421 1.384 . S
N1420 C1416 1.427 . S
N1420 C1417 1.384 . S
N1421 C1413 1.427 . S
N1421 C1419 1.384 . S
H1422 C1428 0.930 . S
H1423 C1432 0.930 . S
H1424 C1437 0.929 . S
H1425 C1435 0.929 . S
H1426 C1430 0.929 . S
H1427 C1436 0.929 . S
C1428 H1422 0.930 . S
C1428 C1429 1.367 . S
C1428 C1436 1.378 . S
C1429 C1428 1.367 . S
C1429 C1437 1.433 . S
C1430 H1426 0.929 . S
C1430 C1432 1.378 . S
C1430 C1434 1.350 . S
C1431 C1434 1.463 . S
C1431 C1436 1.350 . S
C1431 N1439 1.427 . S
C1432 H1423 0.930 . S
C1432 C1430 1.378 . S
C1432 C1433 1.367 . S
C1433 C1432 1.367 . S
C1433 C1435 1.433 . S
C1434 C1430 1.350 . S
C1434 C1431 1.463 . S
C1434 N1438 1.427 . S
C1435 H1425 0.929 . S
C1435 C1433 1.433 . S
C1435 N1438 1.384 . S
C1436 H1427 0.929 . S
C1436 C1428 1.378 . S
C1436 C1431 1.350 . S
C1437 H1424 0.929 . S
C1437 C1429 1.433 . S
C1437 N1439 1.384 . S
N1438 C1434 1.427 . S
N1438 C1435 1.384 . S
N1439 C1431 1.427 . S
N1439 C1437 1.384 . S
H1440 C1446 0.930 . S
H1441 C1450 0.930 . S
H1442 C1455 0.929 . S
H1443 C1453 0.929 . S
H1444 C1448 0.929 . S
H1445 C1454 0.929 . S
C1446 H1440 0.930 . S
C1446 C1447 1.367 . S
C1446 C1454 1.378 . S
C1447 C1446 1.367 . S
C1447 C1455 1.433 . S
C1448 H1444 0.929 . S
C1448 C1450 1.378 . S
C1448 C1452 1.350 . S
C1449 C1452 1.463 . S
C1449 C1454 1.350 . S
C1449 N1457 1.427 . S
C1450 H1441 0.930 . S
C1450 C1448 1.378 . S
C1450 C1451 1.367 . S
C1451 C1450 1.367 . S
C1451 C1453 1.433 . S
C1452 C1448 1.350 . S
C1452 C1449 1.463 . S
C1452 N1456 1.427 . S
C1453 H1443 0.929 . S
C1453 C1451 1.433 . S
C1453 N1456 1.384 . S
C1454 H1445 0.929 . S
C1454 C1446 1.378 . S
C1454 C1449 1.350 . S
C1455 H1442 0.929 . S
C1455 C1447 1.433 . S
C1455 N1457 1.384 . S
N1456 C1452 1.427 . S
N1456 C1453 1.384 . S
N1457 C1449 1.427 . S
N1457 C1455 1.384 . S
H1458 C1464 0.930 . S
H1459 C1468 0.930 . S
H1460 C1473 0.929 . S
H1461 C1471 0.929 . S
H1462 C1466 0.929 . S
H1463 C1472 0.929 . S
C1464 H1458 0.930 . S
C1464 C1465 1.367 . S
C1464 C1472 1.378 . S
C1465 C1464 1.367 . S
C1465 C1473 1.433 . S
C1466 H1462 0.929 . S
C1466 C1468 1.378 . S
C1466 C1470 1.350 . S
C1467 C1470 1.463 . S
C1467 C1472 1.350 . S
C1467 N1475 1.427 . S
C1468 H1459 0.930 . S
C1468 C1466 1.378 . S
C1468 C1469 1.367 . S
C1469 C1468 1.367 . S
C1469 C1471 1.433 . S
C1470 C1466 1.350 . S
C1470 C1467 1.463 . S
C1470 N1474 1.427 . S
C1471 H1461 0.929 . S
C1471 C1469 1.433 . S
C1471 N1474 1.384 . S
C1472 H1463 0.929 . S
C1472 C1464 1.378 . S
C1472 C1467 1.350 . S
C1473 H1460 0.929 . S
C1473 C1465 1.433 . S
C1473 N1475 1.384 . S
N1474 C1470 1.427 . S
N1474 C1471 1.384 . S
N1475 C1467 1.427 . S
N1475 C1473 1.384 . S
H1476 C1482 0.930 . S
H1477 C1486 0.930 . S
H1478 C1491 0.929 . S
H1479 C1489 0.929 . S
H1480 C1484 0.929 . S
H1481 C1490 0.929 . S
C1482 H1476 0.930 . S
C1482 C1483 1.367 . S
C1482 C1490 1.378 . S
C1483 C1482 1.367 . S
C1483 C1491 1.433 . S
C1484 H1480 0.929 . S
C1484 C1486 1.378 . S
C1484 C1488 1.350 . S
C1485 C1488 1.463 . S
C1485 C1490 1.350 . S
C1485 N1493 1.427 . S
C1486 H1477 0.930 . S
C1486 C1484 1.378 . S
C1486 C1487 1.367 . S
C1487 C1486 1.367 . S
C1487 C1489 1.433 . S
C1488 C1484 1.350 . S
C1488 C1485 1.463 . S
C1488 N1492 1.427 . S
C1489 H1479 0.929 . S
C1489 C1487 1.433 . S
C1489 N1492 1.384 . S
C1490 H1481 0.929 . S
C1490 C1482 1.378 . S
C1490 C1485 1.350 . S
C1491 H1478 0.929 . S
C1491 C1483 1.433 . S
C1491 N1493 1.384 . S
N1492 C1488 1.427 . S
N1492 C1489 1.384 . S
N1493 C1485 1.427 . S
N1493 C1491 1.384 . S
H1494 C1500 0.930 . S
H1495 C1504 0.930 . S
H1496 C1509 0.929 . S
H1497 C1507 0.929 . S
H1498 C1502 0.929 . S
H1499 C1508 0.929 . S
C1500 H1494 0.930 . S
C1500 C1501 1.367 . S
C1500 C1508 1.378 . S
C1501 C1500 1.367 . S
C1501 C1509 1.433 . S
C1502 H1498 0.929 . S
C1502 C1504 1.378 . S
C1502 C1506 1.350 . S
C1503 C1506 1.463 . S
C1503 C1508 1.350 . S
C1503 N1511 1.427 . S
C1504 H1495 0.930 . S
C1504 C1502 1.378 . S
C1504 C1505 1.367 . S
C1505 C1504 1.367 . S
C1505 C1507 1.433 . S
C1506 C1502 1.350 . S
C1506 C1503 1.463 . S
C1506 N1510 1.427 . S
C1507 H1497 0.929 . S
C1507 C1505 1.433 . S
C1507 N1510 1.384 . S
C1508 H1499 0.929 . S
C1508 C1500 1.378 . S
C1508 C1503 1.350 . S
C1509 H1496 0.929 . S
C1509 C1501 1.433 . S
C1509 N1511 1.384 . S
N1510 C1506 1.427 . S
N1510 C1507 1.384 . S
N1511 C1503 1.427 . S
N1511 C1509 1.384 . S
H1512 C1518 0.930 . S
H1513 C1522 0.930 . S
H1514 C1527 0.929 . S
H1515 C1525 0.929 . S
H1516 C1520 0.929 . S
H1517 C1526 0.929 . S
C1518 H1512 0.930 . S
C1518 C1519 1.367 . S
C1518 C1526 1.378 . S
C1519 C1518 1.367 . S
C1519 C1527 1.433 . S
C1520 H1516 0.929 . S
C1520 C1522 1.378 . S
C1520 C1524 1.350 . S
C1521 C1524 1.463 . S
C1521 C1526 1.350 . S
C1521 N1529 1.427 . S
C1522 H1513 0.930 . S
C1522 C1520 1.378 . S
C1522 C1523 1.367 . S
C1523 C1522 1.367 . S
C1523 C1525 1.433 . S
C1524 C1520 1.350 . S
C1524 C1521 1.463 . S
C1524 N1528 1.427 . S
C1525 H1515 0.929 . S
C1525 C1523 1.433 . S
C1525 N1528 1.384 . S
C1526 H1517 0.929 . S
C1526 C1518 1.378 . S
C1526 C1521 1.350 . S
C1527 H1514 0.929 . S
C1527 C1519 1.433 . S
C1527 N1529 1.384 . S
N1528 C1524 1.427 . S
N1528 C1525 1.384 . S
N1529 C1521 1.427 . S
N1529 C1527 1.384 . S
H1530 C1536 0.930 . S
H1531 C1540 0.930 . S
H1532 C1545 0.929 . S
H1533 C1543 0.929 . S
H1534 C1538 0.929 . S
H1535 C1544 0.929 . S
C1536 H1530 0.930 . S
C1536 C1537 1.367 . S
C1536 C1544 1.378 . S
C1537 C1536 1.367 . S
C1537 C1545 1.433 . S
C1538 H1534 0.929 . S
C1538 C1540 1.378 . S
C1538 C1542 1.350 . S
C1539 C1542 1.463 . S
C1539 C1544 1.350 . S
C1539 N1547 1.427 . S
C1540 H1531 0.930 . S
C1540 C1538 1.378 . S
C1540 C1541 1.367 . S
C1541 C1540 1.367 . S
C1541 C1543 1.433 . S
C1542 C1538 1.350 . S
C1542 C1539 1.463 . S
C1542 N1546 1.427 . S
C1543 H1533 0.929 . S
C1543 C1541 1.433 . S
C1543 N1546 1.384 . S
C1544 H1535 0.929 . S
C1544 C1536 1.378 . S
C1544 C1539 1.350 . S
C1545 H1532 0.929 . S
C1545 C1537 1.433 . S
C1545 N1547 1.384 . S
N1546 C1542 1.427 . S
N1546 C1543 1.384 . S
N1547 C1539 1.427 . S
N1547 C1545 1.384 . S
H1548 C1554 0.930 . S
H1549 C1558 0.930 . S
H1550 C1563 0.929 . S
H1551 C1561 0.929 . S
H1552 C1556 0.929 . S
H1553 C1562 0.929 . S
C1554 H1548 0.930 . S
C1554 C1555 1.367 . S
C1554 C1562 1.378 . S
C1555 C1554 1.367 . S
C1555 C1563 1.433 . S
C1556 H1552 0.929 . S
C1556 C1558 1.378 . S
C1556 C1560 1.350 . S
C1557 C1560 1.463 . S
C1557 C1562 1.350 . S
C1557 N1565 1.427 . S
C1558 H1549 0.930 . S
C1558 C1556 1.378 . S
C1558 C1559 1.367 . S
C1559 C1558 1.367 . S
C1559 C1561 1.433 . S
C1560 C1556 1.350 . S
C1560 C1557 1.463 . S
C1560 N1564 1.427 . S
C1561 H1551 0.929 . S
C1561 C1559 1.433 . S
C1561 N1564 1.384 . S
C1562 H1553 0.929 . S
C1562 C1554 1.378 . S
C1562 C1557 1.350 . S
C1563 H1550 0.929 . S
C1563 C1555 1.433 . S
C1563 N1565 1.384 . S
N1564 C1560 1.427 . S
N1564 C1561 1.384 . S
N1565 C1557 1.427 . S
N1565 C1563 1.384 . S
H1566 C1572 0.930 . S
H1567 C1576 0.930 . S
H1568 C1581 0.929 . S
H1569 C1579 0.929 . S
H1570 C1574 0.929 . S
H1571 C1580 0.929 . S
C1572 H1566 0.930 . S
C1572 C1573 1.367 . S
C1572 C1580 1.378 . S
C1573 C1572 1.367 . S
C1573 C1581 1.433 . S
C1574 H1570 0.929 . S
C1574 C1576 1.378 . S
C1574 C1578 1.350 . S
C1575 C1578 1.463 . S
C1575 C1580 1.350 . S
C1575 N1583 1.427 . S
C1576 H1567 0.930 . S
C1576 C1574 1.378 . S
C1576 C1577 1.367 . S
C1577 C1576 1.367 . S
C1577 C1579 1.433 . S
C1578 C1574 1.350 . S
C1578 C1575 1.463 . S
C1578 N1582 1.427 . S
C1579 H1569 0.929 . S
C1579 C1577 1.433 . S
C1579 N1582 1.384 . S
C1580 H1571 0.929 . S
C1580 C1572 1.378 . S
C1580 C1575 1.350 . S
C1581 H1568 0.929 . S
C1581 C1573 1.433 . S
C1581 N1583 1.384 . S
N1582 C1578 1.427 . S
N1582 C1579 1.384 . S
N1583 C1575 1.427 . S
N1583 C1581 1.384 . S
H1584 C1590 0.930 . S
H1585 C1594 0.930 . S
H1586 C1599 0.929 . S
H1587 C1597 0.929 . S
H1588 C1592 0.929 . S
H1589 C1598 0.929 . S
C1590 H1584 0.930 . S
C1590 C1591 1.367 . S
C1590 C1598 1.378 . S
C1591 C1590 1.367 . S
C1591 C1599 1.433 . S
C1592 H1588 0.929 . S
C1592 C1594 1.378 . S
C1592 C1596 1.350 . S
C1593 C1596 1.463 . S
C1593 C1598 1.350 . S
C1593 N1601 1.427 . S
C1594 H1585 0.930 . S
C1594 C1592 1.378 . S
C1594 C1595 1.367 . S
C1595 C1594 1.367 . S
C1595 C1597 1.433 . S
C1596 C1592 1.350 . S
C1596 C1593 1.463 . S
C1596 N1600 1.427 . S
C1597 H1587 0.929 . S
C1597 C1595 1.433 . S
C1597 N1600 1.384 . S
C1598 H1589 0.929 . S
C1598 C1590 1.378 . S
C1598 C1593 1.350 . S
C1599 H1586 0.929 . S
C1599 C1591 1.433 . S
C1599 N1601 1.384 . S
N1600 C1596 1.427 . S
N1600 C1597 1.384 . S
N1601 C1593 1.427 . S
N1601 C1599 1.384 . S
H1602 C1608 0.926 1_554 S
H1603 C1612 0.930 . S
H1604 C1617 0.930 . S
H1605 C1615 0.929 . S
H1606 C1610 0.929 . S
H1607 C1616 0.929 . S
C1608 H1602 0.926 1_556 S
C1608 C1609 1.362 1_556 S
C1608 C1616 1.387 . S
C1609 C1608 1.362 1_554 S
C1609 C1617 1.434 . S
C1610 H1606 0.929 . S
C1610 C1612 1.378 . S
C1610 C1614 1.350 . S
C1611 C1614 1.463 . S
C1611 C1616 1.350 . S
C1611 N1619 1.427 . S
C1612 H1603 0.930 . S
C1612 C1610 1.378 . S
C1612 C1613 1.367 . S
C1613 C1612 1.367 . S
C1613 C1615 1.433 . S
C1614 C1610 1.350 . S
C1614 C1611 1.463 . S
C1614 N1618 1.427 . S
C1615 H1605 0.929 . S
C1615 C1613 1.433 . S
C1615 N1618 1.384 . S
C1616 H1607 0.929 . S
C1616 C1608 1.387 . S
C1616 C1611 1.350 . S
C1617 H1604 0.930 . S
C1617 C1609 1.434 . S
C1617 N1619 1.382 1_554 S
N1618 C1614 1.427 . S
N1618 C1615 1.384 . S
N1619 C1611 1.427 . S
N1619 C1617 1.382 1_556 S
H1620 C1626 0.930 . S
H1621 C1630 0.930 . S
H1622 C1635 0.929 . S
H1623 C1633 0.929 . S
H1624 C1628 0.929 . S
H1625 C1634 0.929 . S
C1626 H1620 0.930 . S
C1626 C1627 1.367 . S
C1626 C1634 1.378 . S
C1627 C1626 1.367 . S
C1627 C1635 1.433 1_554 S
C1628 H1624 0.929 . S
C1628 C1630 1.378 . S
C1628 C1632 1.350 . S
C1629 C1632 1.463 . S
C1629 C1634 1.350 1_556 S
C1629 N1637 1.427 . S
C1630 H1621 0.930 . S
C1630 C1628 1.378 . S
C1630 C1631 1.367 . S
C1631 C1630 1.367 . S
C1631 C1633 1.433 . S
C1632 C1628 1.350 . S
C1632 C1629 1.463 . S
C1632 N1636 1.427 . S
C1633 H1623 0.929 . S
C1633 C1631 1.433 . S
C1633 N1636 1.384 . S
C1634 H1625 0.929 . S
C1634 C1626 1.378 . S
C1634 C1629 1.350 1_554 S
C1635 H1622 0.929 . S
C1635 C1627 1.433 1_556 S
C1635 N1637 1.384 . S
N1636 C1632 1.427 . S
N1636 C1633 1.384 . S
N1637 C1629 1.427 . S
N1637 C1635 1.384 . S
H1638 C1644 0.930 . S
H1639 C1648 0.930 . S
H1640 C1653 0.929 . S
H1641 C1651 0.929 . S
H1642 C1646 0.929 . S
H1643 C1652 0.929 . S
C1644 H1638 0.930 . S
C1644 C1645 1.367 . S
C1644 C1652 1.378 . S
C1645 C1644 1.367 . S
C1645 C1653 1.433 . S
C1646 H1642 0.929 . S
C1646 C1648 1.378 1_556 S
C1646 C1650 1.350 . S
C1647 C1650 1.463 . S
C1647 C1652 1.350 . S
C1647 N1655 1.427 . S
C1648 H1639 0.930 . S
C1648 C1646 1.378 1_554 S
C1648 C1649 1.367 . S
C1649 C1648 1.367 . S
C1649 C1651 1.433 1_554 S
C1650 C1646 1.350 . S
C1650 C1647 1.463 . S
C1650 N1654 1.427 . S
C1651 H1641 0.929 . S
C1651 C1649 1.433 1_556 S
C1651 N1654 1.384 . S
C1652 H1643 0.929 . S
C1652 C1644 1.378 . S
C1652 C1647 1.350 . S
C1653 H1640 0.929 . S
C1653 C1645 1.433 . S
C1653 N1655 1.384 . S
N1654 C1650 1.427 . S
N1654 C1651 1.384 . S
N1655 C1647 1.427 . S
N1655 C1653 1.384 . S
H1656 C1662 0.930 . S
H1657 C1666 0.930 . S
H1658 C1671 0.929 . S
H1659 C1669 0.929 . S
H1660 C1664 0.929 . S
H1661 C1670 0.929 . S
C1662 H1656 0.930 . S
C1662 C1663 1.367 . S
C1662 C1670 1.378 . S
C1663 C1662 1.367 . S
C1663 C1671 1.433 . S
C1664 H1660 0.929 . S
C1664 C1666 1.378 . S
C1664 C1668 1.350 . S
C1665 C1668 1.463 . S
C1665 C1670 1.350 . S
C1665 N1673 1.427 . S
C1666 H1657 0.930 . S
C1666 C1664 1.378 . S
C1666 C1667 1.367 . S
C1667 C1666 1.367 . S
C1667 C1669 1.433 . S
C1668 C1664 1.350 . S
C1668 C1665 1.463 . S
C1668 N1672 1.427 . S
C1669 H1659 0.929 . S
C1669 C1667 1.433 . S
C1669 N1672 1.384 . S
C1670 H1661 0.929 . S
C1670 C1662 1.378 . S
C1670 C1665 1.350 . S
C1671 H1658 0.929 . S
C1671 C1663 1.433 . S
C1671 N1673 1.384 . S
N1672 C1668 1.427 . S
N1672 C1669 1.384 . S
N1673 C1665 1.427 . S
N1673 C1671 1.384 . S
H1674 C1680 0.930 . S
H1675 C1684 0.930 . S
H1676 C1689 0.929 . S
H1677 C1687 0.929 . S
H1678 C1682 0.929 . S
H1679 C1688 0.929 . S
C1680 H1674 0.930 . S
C1680 C1681 1.367 . S
C1680 C1688 1.378 . S
C1681 C1680 1.367 . S
C1681 C1689 1.433 . S
C1682 H1678 0.929 . S
C1682 C1684 1.378 . S
C1682 C1686 1.350 . S
C1683 C1686 1.463 . S
C1683 C1688 1.350 . S
C1683 N1691 1.427 . S
C1684 H1675 0.930 . S
C1684 C1682 1.378 . S
C1684 C1685 1.367 . S
C1685 C1684 1.367 . S
C1685 C1687 1.433 . S
C1686 C1682 1.350 . S
C1686 C1683 1.463 . S
C1686 N1690 1.427 . S
C1687 H1677 0.929 . S
C1687 C1685 1.433 . S
C1687 N1690 1.384 . S
C1688 H1679 0.929 . S
C1688 C1680 1.378 . S
C1688 C1683 1.350 . S
C1689 H1676 0.929 . S
C1689 C1681 1.433 . S
C1689 N1691 1.384 . S
N1690 C1686 1.427 . S
N1690 C1687 1.384 . S
N1691 C1683 1.427 . S
N1691 C1689 1.384 . S
H1692 C1698 0.930 . S
H1693 C1702 0.930 . S
H1694 C1707 0.929 . S
H1695 C1705 0.929 . S
H1696 C1700 0.929 . S
H1697 C1706 0.929 . S
C1698 H1692 0.930 . S
C1698 C1699 1.367 . S
C1698 C1706 1.378 . S
C1699 C1698 1.367 . S
C1699 C1707 1.433 . S
C1700 H1696 0.929 . S
C1700 C1702 1.378 . S
C1700 C1704 1.350 . S
C1701 C1704 1.463 . S
C1701 C1706 1.350 . S
C1701 N1709 1.427 . S
C1702 H1693 0.930 . S
C1702 C1700 1.378 . S
C1702 C1703 1.367 . S
C1703 C1702 1.367 . S
C1703 C1705 1.433 . S
C1704 C1700 1.350 . S
C1704 C1701 1.463 . S
C1704 N1708 1.427 . S
C1705 H1695 0.929 . S
C1705 C1703 1.433 . S
C1705 N1708 1.384 . S
C1706 H1697 0.929 . S
C1706 C1698 1.378 . S
C1706 C1701 1.350 . S
C1707 H1694 0.929 . S
C1707 C1699 1.433 . S
C1707 N1709 1.384 . S
N1708 C1704 1.427 . S
N1708 C1705 1.384 . S
N1709 C1701 1.427 . S
N1709 C1707 1.384 . S
H1710 C1716 0.930 . S
H1711 C1720 0.930 . S
H1712 C1725 0.929 . S
H1713 C1723 0.929 1_556 S
H1714 C1718 0.929 . S
H1715 C1724 0.929 . S
C1716 H1710 0.930 . S
C1716 C1717 1.367 . S
C1716 C1724 1.378 . S
C1717 C1716 1.367 . S
C1717 C1725 1.433 . S
C1718 H1714 0.929 . S
C1718 C1720 1.378 1_554 S
C1718 C1722 1.350 . S
C1719 C1722 1.463 . S
C1719 C1724 1.350 . S
C1719 N1727 1.427 . S
C1720 H1711 0.930 . S
C1720 C1718 1.378 1_556 S
C1720 C1721 1.367 . S
C1721 C1720 1.367 . S
C1721 C1723 1.433 1_556 S
C1722 C1718 1.350 . S
C1722 C1719 1.463 . S
C1722 N1726 1.427 . S
C1723 H1713 0.929 1_554 S
C1723 C1721 1.433 1_554 S
C1723 N1726 1.384 . S
C1724 H1715 0.929 . S
C1724 C1716 1.378 . S
C1724 C1719 1.350 . S
C1725 H1712 0.929 . S
C1725 C1717 1.433 . S
C1725 N1727 1.384 . S
N1726 C1722 1.427 . S
N1726 C1723 1.384 . S
N1727 C1719 1.427 . S
N1727 C1725 1.384 . S
H1728 C1734 0.930 . S
H1729 C1738 0.930 . S
H1730 C1743 0.929 . S
H1731 C1741 0.929 . S
H1732 C1736 0.929 . S
H1733 C1742 0.929 . S
C1734 H1728 0.930 . S
C1734 C1735 1.367 . S
C1734 C1742 1.378 . S
C1735 C1734 1.367 . S
C1735 C1743 1.433 1_556 S
C1736 H1732 0.929 . S
C1736 C1738 1.378 . S
C1736 C1740 1.350 . S
C1737 C1740 1.463 . S
C1737 C1742 1.350 1_554 S
C1737 N1745 1.427 . S
C1738 H1729 0.930 . S
C1738 C1736 1.378 . S
C1738 C1739 1.367 . S
C1739 C1738 1.367 . S
C1739 C1741 1.433 . S
C1740 C1736 1.350 . S
C1740 C1737 1.463 . S
C1740 N1744 1.427 . S
C1741 H1731 0.929 . S
C1741 C1739 1.433 . S
C1741 N1744 1.384 . S
C1742 H1733 0.929 . S
C1742 C1734 1.378 . S
C1742 C1737 1.350 1_556 S
C1743 H1730 0.929 . S
C1743 C1735 1.433 1_554 S
C1743 N1745 1.384 . S
N1744 C1740 1.427 . S
N1744 C1741 1.384 . S
N1745 C1737 1.427 . S
N1745 C1743 1.384 . S
H1746 C1752 0.930 . S
H1747 C1756 0.930 1_545 S
H1748 C1761 0.926 1_556 S
H1749 C1759 0.929 . S
H1750 C1754 0.929 . S
H1751 C1760 0.929 . S
C1752 H1746 0.930 . S
C1752 C1753 1.366 . S
C1752 C1760 1.379 1_556 S
C1753 C1752 1.366 . S
C1753 C1761 1.430 1_556 S
C1754 H1750 0.929 . S
C1754 C1756 1.378 . S
C1754 C1758 1.350 . S
C1755 C1758 1.463 . S
C1755 C1760 1.350 . S
C1755 N1763 1.427 . S
C1756 H1747 0.930 1_565 S
C1756 C1754 1.378 . S
C1756 C1757 1.367 . S
C1757 C1756 1.367 . S
C1757 C1759 1.433 . S
C1758 C1754 1.350 . S
C1758 C1755 1.463 . S
C1758 N1762 1.427 . S
C1759 H1749 0.929 . S
C1759 C1757 1.433 . S
C1759 N1762 1.384 . S
C1760 H1751 0.929 . S
C1760 C1752 1.379 1_554 S
C1760 C1755 1.350 . S
C1761 H1748 0.926 1_554 S
C1761 C1753 1.430 1_554 S
C1761 N1763 1.391 . S
N1762 C1758 1.427 . S
N1762 C1759 1.384 . S
N1763 C1755 1.427 . S
N1763 C1761 1.391 . S
H1764 C1770 0.930 . S
H1765 C1774 0.930 . S
H1766 C1779 0.929 . S
H1767 C1777 0.929 . S
H1768 C1772 0.929 . S
H1769 C1778 0.929 . S
C1770 H1764 0.930 . S
C1770 C1771 1.367 . S
C1770 C1778 1.378 . S
C1771 C1770 1.367 . S
C1771 C1779 1.433 . S
C1772 H1768 0.929 . S
C1772 C1774 1.378 . S
C1772 C1776 1.350 . S
C1773 C1776 1.463 . S
C1773 C1778 1.350 . S
C1773 N1781 1.427 . S
C1774 H1765 0.930 . S
C1774 C1772 1.378 . S
C1774 C1775 1.367 . S
C1775 C1774 1.367 . S
C1775 C1777 1.433 . S
C1776 C1772 1.350 . S
C1776 C1773 1.463 . S
C1776 N1780 1.427 . S
C1777 H1767 0.929 . S
C1777 C1775 1.433 . S
C1777 N1780 1.384 . S
C1778 H1769 0.929 . S
C1778 C1770 1.378 . S
C1778 C1773 1.350 . S
C1779 H1766 0.929 . S
C1779 C1771 1.433 . S
C1779 N1781 1.384 . S
N1780 C1776 1.427 . S
N1780 C1777 1.384 . S
N1781 C1773 1.427 . S
N1781 C1779 1.384 . S
H1782 C1788 0.930 . S
H1783 C1792 0.930 . S
H1784 C1797 0.929 . S
H1785 C1795 0.929 . S
H1786 C1790 0.929 1_545 S
H1787 C1796 0.929 1_565 S
C1788 H1782 0.930 . S
C1788 C1789 1.367 . S
C1788 C1796 1.378 . S
C1789 C1788 1.367 . S
C1789 C1797 1.433 . S
C1790 H1786 0.929 1_565 S
C1790 C1792 1.378 . S
C1790 C1794 1.350 . S
C1791 C1794 1.463 1_545 S
C1791 C1796 1.350 . S
C1791 N1799 1.427 . S
C1792 H1783 0.930 . S
C1792 C1790 1.378 . S
C1792 C1793 1.367 . S
C1793 C1792 1.367 . S
C1793 C1795 1.433 . S
C1794 C1790 1.350 . S
C1794 C1791 1.463 1_565 S
C1794 N1798 1.427 . S
C1795 H1785 0.929 . S
C1795 C1793 1.433 . S
C1795 N1798 1.384 . S
C1796 H1787 0.929 1_545 S
C1796 C1788 1.378 . S
C1796 C1791 1.350 . S
C1797 H1784 0.929 . S
C1797 C1789 1.433 . S
C1797 N1799 1.384 . S
N1798 C1794 1.427 . S
N1798 C1795 1.384 . S
N1799 C1791 1.427 . S
N1799 C1797 1.384 . S
H1800 C1806 0.930 . S
H1801 C1810 0.930 . S
H1802 C1815 0.929 . S
H1803 C1813 0.929 . S
H1804 C1808 0.929 . S
H1805 C1814 0.929 . S
C1806 H1800 0.930 . S
C1806 C1807 1.367 . S
C1806 C1814 1.378 . S
C1807 C1806 1.367 . S
C1807 C1815 1.433 . S
C1808 H1804 0.929 . S
C1808 C1810 1.378 1_455 S
C1808 C1812 1.350 . S
C1809 C1812 1.463 . S
C1809 C1814 1.350 . S
C1809 N1817 1.427 . S
C1810 H1801 0.930 . S
C1810 C1808 1.378 1_655 S
C1810 C1811 1.367 . S
C1811 C1810 1.367 . S
C1811 C1813 1.433 . S
C1812 C1808 1.350 . S
C1812 C1809 1.463 . S
C1812 N1816 1.427 1_455 S
C1813 H1803 0.929 . S
C1813 C1811 1.433 . S
C1813 N1816 1.384 . S
C1814 H1805 0.929 . S
C1814 C1806 1.378 . S
C1814 C1809 1.350 . S
C1815 H1802 0.929 . S
C1815 C1807 1.433 . S
C1815 N1817 1.384 . S
N1816 C1812 1.427 1_655 S
N1816 C1813 1.384 . S
N1817 C1809 1.427 . S
N1817 C1815 1.384 . S
H1818 C1824 0.930 . S
H1819 C1828 0.930 . S
H1820 C1833 0.929 . S
H1821 C1831 0.929 . S
H1822 C1826 0.929 . S
H1823 C1832 0.929 . S
C1824 H1818 0.930 . S
C1824 C1825 1.367 . S
C1824 C1832 1.378 . S
C1825 C1824 1.367 . S
C1825 C1833 1.433 . S
C1826 H1822 0.929 . S
C1826 C1828 1.378 . S
C1826 C1830 1.350 . S
C1827 C1830 1.463 . S
C1827 C1832 1.350 . S
C1827 N1835 1.427 . S
C1828 H1819 0.930 . S
C1828 C1826 1.378 . S
C1828 C1829 1.367 . S
C1829 C1828 1.367 . S
C1829 C1831 1.433 . S
C1830 C1826 1.350 . S
C1830 C1827 1.463 . S
C1830 N1834 1.427 . S
C1831 H1821 0.929 . S
C1831 C1829 1.433 . S
C1831 N1834 1.384 . S
C1832 H1823 0.929 . S
C1832 C1824 1.378 . S
C1832 C1827 1.350 . S
C1833 H1820 0.929 . S
C1833 C1825 1.433 . S
C1833 N1835 1.384 . S
N1834 C1830 1.427 . S
N1834 C1831 1.384 . S
N1835 C1827 1.427 . S
N1835 C1833 1.384 . S
H1836 C1842 0.930 . S
H1837 C1846 0.930 . S
H1838 C1851 0.929 . S
H1839 C1849 0.929 . S
H1840 C1844 0.929 . S
H1841 C1850 0.929 . S
C1842 H1836 0.930 . S
C1842 C1843 1.367 . S
C1842 C1850 1.378 . S
C1843 C1842 1.367 . S
C1843 C1851 1.433 . S
C1844 H1840 0.929 . S
C1844 C1846 1.378 . S
C1844 C1848 1.350 1_565 S
C1845 C1848 1.463 . S
C1845 C1850 1.350 . S
C1845 N1853 1.427 . S
C1846 H1837 0.930 . S
C1846 C1844 1.378 . S
C1846 C1847 1.367 . S
C1847 C1846 1.367 . S
C1847 C1849 1.433 . S
C1848 C1844 1.350 1_545 S
C1848 C1845 1.463 . S
C1848 N1852 1.427 . S
C1849 H1839 0.929 . S
C1849 C1847 1.433 . S
C1849 N1852 1.384 1_565 S
C1850 H1841 0.929 . S
C1850 C1842 1.378 . S
C1850 C1845 1.350 . S
C1851 H1838 0.929 . S
C1851 C1843 1.433 . S
C1851 N1853 1.384 . S
N1852 C1848 1.427 . S
N1852 C1849 1.384 1_545 S
N1853 C1845 1.427 . S
N1853 C1851 1.384 . S
H1854 C1860 0.930 . S
H1855 C1864 0.930 . S
H1856 C1869 0.929 . S
H1857 C1867 0.929 . S
H1858 C1862 0.929 . S
H1859 C1868 0.929 . S
C1860 H1854 0.930 . S
C1860 C1861 1.367 . S
C1860 C1868 1.378 . S
C1861 C1860 1.367 . S
C1861 C1869 1.433 . S
C1862 H1858 0.929 . S
C1862 C1864 1.378 . S
C1862 C1866 1.350 . S
C1863 C1866 1.463 1_655 S
C1863 C1868 1.350 . S
C1863 N1871 1.427 . S
C1864 H1855 0.930 . S
C1864 C1862 1.378 . S
C1864 C1865 1.367 . S
C1865 C1864 1.367 . S
C1865 C1867 1.433 . S
C1866 C1862 1.350 . S
C1866 C1863 1.463 1_455 S
C1866 N1870 1.427 . S
C1867 H1857 0.929 . S
C1867 C1865 1.433 . S
C1867 N1870 1.384 . S
C1868 H1859 0.929 . S
C1868 C1860 1.378 . S
C1868 C1863 1.350 . S
C1869 H1856 0.929 . S
C1869 C1861 1.433 . S
C1869 N1871 1.384 . S
N1870 C1866 1.427 . S
N1870 C1867 1.384 . S
N1871 C1863 1.427 . S
N1871 C1869 1.384 . S
C583 C54 1.118 . S
C587 C17 1.076 . S
C601 C49 1.092 . S
C605 C86 1.119 . S
C619 C81 1.076 . S
C623 C22 1.117 . S
C637 C146 1.116 . S
C641 C117 1.079 . S
C655 C178 1.116 . S
C659 C149 1.078 . S
C673 C181 1.079 . S
C677 C114 1.126 . S
C691 C209 1.080 . S
C695 C246 1.115 . S
C709 C241 1.078 . S
C713 C278 1.116 . S
C727 C214 1.118 . S
C731 C273 1.091 . S
C745 C309 1.082 . S
C749 C338 1.115 . S
C763 C370 1.116 . S
C767 C341 1.079 . S
C781 C373 1.096 . S
C785 C306 1.121 . S
C799 C401 1.095 . S
C803 C438 1.121 . S
C817 C433 1.098 . S
C821 C470 1.136 . S
C835 C465 1.076 . S
C839 C406 1.121 . S
C853 C530 1.120 . S
C857 C501 1.076 . S
C871 C533 1.085 . S
C875 C562 1.132 . S
C889 C565 1.092 . S
C893 C498 1.135 . S
C907 C19 1.342 . S
C911 C180 1.352 . S
C925 C51 1.335 . S
C929 C116 1.365 . S
C943 C83 1.343 . S
C947 C148 1.355 . S
C961 C55 1.647 . S
C965 C176 1.621 . S
C979 C112 1.624 . S
C983 C87 1.647 . S
C997 C23 1.647 . S
C1001 C144 1.619 . S
C1015 C80 1.367 . S
C1019 C119 1.329 . S
C1033 C151 1.327 . S
C1037 C16 1.366 . S
C1051 C183 1.328 . S
C1055 C48 1.361 . S
C1069 C147 1.648 . S
C1073 C84 1.627 . S
C1087 C179 1.647 . S
C1091 C20 1.626 . S
C1105 C52 1.626 . S
C1109 C115 1.647 . S
C1123 C211 1.341 . S
C1127 C372 1.352 . S
C1141 C308 1.365 . S
C1145 C243 1.333 . S
C1159 C340 1.353 . S
C1163 C275 1.343 . S
C1177 C247 1.647 . S
C1181 C368 1.625 . S
C1195 C304 1.622 . S
C1199 C279 1.647 . S
C1213 C336 1.621 . S
C1217 C215 1.647 . S
C1231 C311 1.330 . S
C1235 C272 1.366 . S
C1249 C208 1.359 . S
C1253 C343 1.341 . S
C1267 C240 1.362 . S
C1271 C375 1.326 . S
C1285 C276 1.621 . S
C1289 C339 1.647 . S
C1303 C371 1.647 . S
C1307 C212 1.618 . S
C1321 C307 1.647 . S
C1325 C244 1.619 . S
C1339 C403 1.337 . S
C1343 C564 1.363 . S
C1357 C435 1.326 . S
C1361 C500 1.363 . S
C1375 C532 1.354 . S
C1379 C467 1.344 . S
C1393 C439 1.647 . S
C1397 C560 1.618 . S
C1411 C471 1.647 . S
C1415 C496 1.627 . S
C1429 C528 1.620 . S
C1433 C407 1.647 . S
C1447 C503 1.338 . S
C1451 C464 1.362 . S
C1465 C535 1.326 . S
C1469 C400 1.364 . S
C1483 C567 1.328 . S
C1487 C432 1.366 . S
C1501 C531 1.648 . S
C1505 C468 1.626 . S
C1519 C563 1.647 . S
C1523 C404 1.623 . S
C1537 C499 1.647 . S
C1541 C436 1.621 . S
C1555 C21 2.339 . S
C1559 C434 2.265 . S
C1573 C53 2.343 . S
C1577 C466 2.271 . S
C1591 C402 2.263 . S
C1595 C85 2.340 . S
C1609 C213 2.341 . S
C1613 C50 2.269 . S
C1627 C245 2.343 . S
C1631 C82 2.271 . S
C1645 C18 2.264 . S
C1649 C277 2.345 . S
C1663 C113 2.340 . S
C1667 C342 2.260 . S
C1681 C145 2.345 . S
C1685 C374 2.268 . S
C1699 C310 2.271 . S
C1703 C177 2.344 . S
C1717 C150 2.269 . S
C1721 C497 2.340 . S
C1735 C529 2.345 . S
C1739 C182 2.268 . S
C1753 C561 2.341 . S
C1757 C118 2.269 . S
C1771 C242 2.260 . S
C1775 C405 2.343 . S
C1789 C274 2.269 . S
C1793 C437 2.345 . S
C1807 C469 2.345 . S
C1811 C210 2.269 . S
C1825 C305 2.340 . S
C1829 C534 2.260 . S
C1843 C337 2.339 . S
C1847 C566 2.265 . S
C1861 C369 2.340 . S
C1865 C502 2.267 . S
