# Generated by pormake.
# Topology mon, (4)-cn, num edge types: 1
# Building blocks:
#     Node 0, Type 0, BuildingBlock: CEKHIL_clean_sbu_0, # of connection points: 4
#     Node 1, Type 0, BuildingBlock: CEKHIL_clean_sbu_0, # of connection points: 4
#     Node 2, Type 0, BuildingBlock: CEKHIL_clean_sbu_0, # of connection points: 4
#     Node 3, Type 0, BuildingBlock: CEKHIL_clean_sbu_0, # of connection points: 4
#     Node 4, Type 0, BuildingBlock: CEKHIL_clean_sbu_0, # of connection points: 4
#     Node 5, Type 0, BuildingBlock: CEKHIL_clean_sbu_0, # of connection points: 4
#     Node 6, Type 0, BuildingBlock: CEKHIL_clean_sbu_0, # of connection points: 4
#     Node 7, Type 0, BuildingBlock: CEKHIL_clean_sbu_0, # of connection points: 4
#     Node 8, Type 0, BuildingBlock: CEKHIL_clean_sbu_0, # of connection points: 4
#     Node 9, Type 0, BuildingBlock: CEKHIL_clean_sbu_0, # of connection points: 4
#     Node 10, Type 0, BuildingBlock: CEKHIL_clean_sbu_0, # of connection points: 4
#     Node 11, Type 0, BuildingBlock: CEKHIL_clean_sbu_0, # of connection points: 4
#     Node 12, Type 0, BuildingBlock: CEKHIL_clean_sbu_0, # of connection points: 4
#     Node 13, Type 0, BuildingBlock: CEKHIL_clean_sbu_0, # of connection points: 4
#     Node 14, Type 0, BuildingBlock: CEKHIL_clean_sbu_0, # of connection points: 4
#     Node 15, Type 0, BuildingBlock: CEKHIL_clean_sbu_0, # of connection points: 4
#     Edge 16, Type (0, 0), BuildingBlock: XIVTED_clean_linker_0, # of connection points: 2
#     Edge 17, Type (0, 0), BuildingBlock: XIVTED_clean_linker_0, # of connection points: 2
#     Edge 18, Type (0, 0), BuildingBlock: XIVTED_clean_linker_0, # of connection points: 2
#     Edge 19, Type (0, 0), BuildingBlock: XIVTED_clean_linker_0, # of connection points: 2
#     Edge 20, Type (0, 0), BuildingBlock: XIVTED_clean_linker_0, # of connection points: 2
#     Edge 21, Type (0, 0), BuildingBlock: XIVTED_clean_linker_0, # of connection points: 2
#     Edge 22, Type (0, 0), BuildingBlock: XIVTED_clean_linker_0, # of connection points: 2
#     Edge 23, Type (0, 0), BuildingBlock: XIVTED_clean_linker_0, # of connection points: 2
#     Edge 24, Type (0, 0), BuildingBlock: XIVTED_clean_linker_0, # of connection points: 2
#     Edge 25, Type (0, 0), BuildingBlock: XIVTED_clean_linker_0, # of connection points: 2
#     Edge 26, Type (0, 0), BuildingBlock: XIVTED_clean_linker_0, # of connection points: 2
#     Edge 27, Type (0, 0), BuildingBlock: XIVTED_clean_linker_0, # of connection points: 2
#     Edge 28, Type (0, 0), BuildingBlock: XIVTED_clean_linker_0, # of connection points: 2
#     Edge 29, Type (0, 0), BuildingBlock: XIVTED_clean_linker_0, # of connection points: 2
#     Edge 30, Type (0, 0), BuildingBlock: XIVTED_clean_linker_0, # of connection points: 2
#     Edge 31, Type (0, 0), BuildingBlock: XIVTED_clean_linker_0, # of connection points: 2
#     Edge 32, Type (0, 0), BuildingBlock: XIVTED_clean_linker_0, # of connection points: 2
#     Edge 33, Type (0, 0), BuildingBlock: XIVTED_clean_linker_0, # of connection points: 2
#     Edge 34, Type (0, 0), BuildingBlock: XIVTED_clean_linker_0, # of connection points: 2
#     Edge 35, Type (0, 0), BuildingBlock: XIVTED_clean_linker_0, # of connection points: 2
#     Edge 36, Type (0, 0), BuildingBlock: XIVTED_clean_linker_0, # of connection points: 2
#     Edge 37, Type (0, 0), BuildingBlock: XIVTED_clean_linker_0, # of connection points: 2
#     Edge 38, Type (0, 0), BuildingBlock: XIVTED_clean_linker_0, # of connection points: 2
#     Edge 39, Type (0, 0), BuildingBlock: XIVTED_clean_linker_0, # of connection points: 2
#     Edge 40, Type (0, 0), BuildingBlock: XIVTED_clean_linker_0, # of connection points: 2
#     Edge 41, Type (0, 0), BuildingBlock: XIVTED_clean_linker_0, # of connection points: 2
#     Edge 42, Type (0, 0), BuildingBlock: XIVTED_clean_linker_0, # of connection points: 2
#     Edge 43, Type (0, 0), BuildingBlock: XIVTED_clean_linker_0, # of connection points: 2
#     Edge 44, Type (0, 0), BuildingBlock: XIVTED_clean_linker_0, # of connection points: 2
#     Edge 45, Type (0, 0), BuildingBlock: XIVTED_clean_linker_0, # of connection points: 2
#     Edge 46, Type (0, 0), BuildingBlock: XIVTED_clean_linker_0, # of connection points: 2
#     Edge 47, Type (0, 0), BuildingBlock: XIVTED_clean_linker_0, # of connection points: 2
# Relax obj value: 0.188
# Max RMSD: 0.178
# Mean RMSD: 0.178
data_MOF--net-mon--node1-CEKHIL_clean_sbu_0--edge1-XIVTED_clean_linker_0
_symmetry_space_group_name_H-M    P1
_symmetry_Int_Tables_number       1
_symmetry_cell_setting            triclinic
loop_
_symmetry_equiv_pos_as_xyz
'x, y, z'
_cell_length_a     33.435072
_cell_length_b     33.432951
_cell_length_c     85.196539
_cell_angle_alpha  90.015851
_cell_angle_beta   90.011413
_cell_angle_gamma 90.036423
loop_
_atom_site_label
_atom_site_type_symbol
_atom_site_fract_x
_atom_site_fract_y
_atom_site_fract_z
_atom_type_partial_charge
Co0 Co 0.04089 0.03537 0.58531 0.0
O1 O 0.06423 0.08567 0.57928 0.0
O2 O 0.0032 0.07877 0.58889 0.0
C3 C 0.09517 0.01342 0.59854 0.0
O4 O 0.00747 0.98804 0.59326 0.0
Co5 Co 0.08076 0.95511 0.57445 0.0
O6 O 0.04258 0.93139 0.58947 0.0
C7 C 0.02624 0.99916 0.55307 0.0
C8 C 0.03124 0.10247 0.58375 0.0
C9 C 0.01205 0.94988 0.59473 0.0
O10 O 0.01946 0.02654 0.56339 0.0
O11 O 0.05092 0.97035 0.55508 0.0
O12 O 0.06981 0.03715 0.60539 0.0
O13 O 0.08855 0.00663 0.58392 0.0
Co14 Co 0.22566 0.76558 0.83241 0.0
O15 O 0.1767 0.78587 0.82356 0.0
O16 O 0.18138 0.73068 0.83781 0.0
C17 C 0.24655 0.82472 0.84223 0.0
O18 O 0.27087 0.73589 0.84376 0.0
Co19 Co 0.30886 0.79797 0.82158 0.0
O20 O 0.32742 0.77169 0.84102 0.0
C21 C 0.26564 0.73759 0.80237 0.0
C22 C 0.15894 0.75575 0.83013 0.0
C23 C 0.30772 0.74317 0.84722 0.0
O24 O 0.23702 0.73499 0.81246 0.0
O25 O 0.29509 0.76187 0.80368 0.0
O26 O 0.22128 0.80292 0.85004 0.0
O27 O 0.2558 0.81165 0.82848 0.0
Co28 Co 0.50019 0.96957 0.07834 0.0
O29 O 0.47808 0.91958 0.07123 0.0
O30 O 0.53727 0.92612 0.08253 0.0
C31 C 0.44379 0.99065 0.09033 0.0
O32 O 0.53205 0.01615 0.08782 0.0
Co33 Co 0.46341 0.05112 0.06765 0.0
O34 O 0.4952 0.07207 0.08537 0.0
C35 C 0.51996 0.00775 0.0469 0.0
C36 C 0.51023 0.90262 0.07651 0.0
C37 C 0.52532 0.05338 0.09084 0.0
O38 O 0.52498 0.97963 0.05706 0.0
O39 O 0.49582 0.03707 0.04877 0.0
O40 O 0.46796 0.96635 0.09752 0.0
O41 O 0.45289 0.9987 0.07599 0.0
Co42 Co 0.29182 0.23717 0.33071 0.0
O43 O 0.34057 0.21178 0.32375 0.0
O44 O 0.33727 0.27173 0.33466 0.0
C45 C 0.26665 0.18283 0.34299 0.0
O46 O 0.24814 0.27266 0.34009 0.0
Co47 Co 0.20732 0.20652 0.32039 0.0
O48 O 0.18683 0.24812 0.33472 0.0
C49 C 0.2553 0.25752 0.29904 0.0
C50 C 0.35923 0.24338 0.32875 0.0
C51 C 0.20972 0.2738 0.34113 0.0
O52 O 0.28337 0.2618 0.30928 0.0
O53 O 0.22463 0.23521 0.30105 0.0
O54 O 0.29275 0.20538 0.35007 0.0
O55 O 0.25909 0.19208 0.32864 0.0
Co56 Co 0.02548 0.97163 0.41025 0.0
O57 O 0.0511 0.92289 0.41708 0.0
O58 O 0.99085 0.92615 0.40643 0.0
C59 C 0.07953 0.99684 0.39778 0.0
O60 O 0.98971 0.01537 0.40106 0.0
Co61 Co 0.05646 0.05611 0.4205 0.0
O62 O 0.01442 0.07666 0.4064 0.0
C63 C 0.00647 0.00777 0.4421 0.0
C64 C 0.01936 0.9042 0.41223 0.0
C65 C 0.98857 0.0538 0.40008 0.0
O66 O 1.00153 0.97995 0.4318 0.0
O67 O 0.02884 0.03837 0.44002 0.0
O68 O 0.05678 0.97081 0.39076 0.0
O69 O 0.07061 0.00435 0.41216 0.0
Co70 Co 0.2975 0.76174 0.66232 0.0
O71 O 0.34645 0.78396 0.6704 0.0
O72 O 0.34204 0.72621 0.65786 0.0
C73 C 0.27624 0.81922 0.65123 0.0
O74 O 0.25229 0.7303 0.65167 0.0
Co75 Co 0.21443 0.79524 0.67273 0.0
O76 O 0.19619 0.76707 0.65365 0.0
C77 C 0.25773 0.73732 0.69295 0.0
C78 C 0.3645 0.75302 0.66459 0.0
C79 C 0.21564 0.73774 0.64794 0.0
O80 O 0.28647 0.734 0.68295 0.0
O81 O 0.22806 0.76112 0.69121 0.0
O82 O 0.3015 0.79644 0.64386 0.0
O83 O 0.26721 0.80812 0.66526 0.0
Co84 Co 0.49032 0.03644 0.90526 0.0
O85 O 0.46824 0.08647 0.91231 0.0
O86 O 0.52729 0.0799 0.90091 0.0
C87 C 0.43369 0.01522 0.89348 0.0
O88 O 0.52217 0.98976 0.8959 0.0
Co89 Co 0.45366 0.95501 0.91616 0.0
O90 O 0.48583 0.93355 0.89865 0.0
C91 C 0.51113 0.99836 0.9366 0.0
C92 C 0.50033 0.10341 0.90696 0.0
C93 C 0.51589 0.95232 0.89314 0.0
O94 O 0.51557 0.02666 0.92647 0.0
O95 O 0.48699 0.96897 0.93483 0.0
O96 O 0.45781 0.03926 0.88612 0.0
O97 O 0.44306 0.00736 0.9078 0.0
Co98 Co 0.23011 0.22994 0.15643 0.0
O99 O 0.18165 0.20436 0.16359 0.0
O100 O 0.18455 0.26464 0.15296 0.0
C101 C 0.25442 0.1759 0.14371 0.0
O102 O 0.27363 0.26565 0.14701 0.0
Co103 Co 0.31474 0.19833 0.16614 0.0
O104 O 0.33494 0.24071 0.15209 0.0
C105 C 0.26825 0.24957 0.18791 0.0
C106 C 0.16281 0.23606 0.15886 0.0
C107 C 0.31205 0.26675 0.14592 0.0
O108 O 0.23967 0.25402 0.17789 0.0
O109 O 0.29862 0.22704 0.18564 0.0
O110 O 0.22819 0.19879 0.13691 0.0
O111 O 0.26262 0.18465 0.15806 0.0
Co112 Co 0.79608 0.26756 0.15766 0.0
O113 O 0.84544 0.28946 0.16553 0.0
O114 O 0.83995 0.23077 0.15376 0.0
C115 C 0.77576 0.32445 0.14582 0.0
O116 O 0.75045 0.23601 0.14737 0.0
Co117 Co 0.71343 0.30356 0.16741 0.0
O118 O 0.69463 0.27332 0.14891 0.0
C119 C 0.75551 0.24688 0.18855 0.0
C120 C 0.8629 0.25759 0.16023 0.0
C121 C 0.71381 0.24332 0.14359 0.0
O122 O 0.78427 0.2419 0.17865 0.0
O123 O 0.72642 0.27116 0.18641 0.0
O124 O 0.80068 0.30069 0.13873 0.0
O125 O 0.76662 0.31461 0.15997 0.0
Co126 Co 0.73205 0.74046 0.65922 0.0
O127 O 0.68408 0.71619 0.66735 0.0
O128 O 0.6862 0.77443 0.65506 0.0
C129 C 0.75536 0.68408 0.64791 0.0
O130 O 0.77569 0.77405 0.64859 0.0
Co131 Co 0.81671 0.7105 0.6692 0.0
O132 O 0.83321 0.73937 0.65003 0.0
C133 C 0.77137 0.76582 0.68982 0.0
C134 C 0.66486 0.74676 0.66182 0.0
C135 C 0.81239 0.76806 0.64458 0.0
O136 O 0.74232 0.76807 0.67992 0.0
O137 O 0.80211 0.74354 0.6879 0.0
O138 O 0.72913 0.706 0.64065 0.0
O139 O 0.76428 0.69534 0.66193 0.0
Co140 Co 0.72677 0.27002 0.331 0.0
O141 O 0.67792 0.29515 0.32404 0.0
O142 O 0.68143 0.2354 0.33509 0.0
C143 C 0.75197 0.32461 0.34315 0.0
O144 O 0.77076 0.23486 0.34034 0.0
Co145 Co 0.81081 0.30103 0.32027 0.0
O146 O 0.83177 0.25961 0.33458 0.0
C147 C 0.76285 0.24896 0.29929 0.0
C148 C 0.65936 0.26359 0.32912 0.0
C149 C 0.80923 0.23392 0.34116 0.0
O150 O 0.73502 0.2449 0.30964 0.0
O151 O 0.79337 0.2716 0.30109 0.0
O152 O 0.72598 0.30209 0.35029 0.0
O153 O 0.75929 0.31527 0.32878 0.0
Co154 Co 0.79306 0.73974 0.83008 0.0
O155 O 0.84249 0.71946 0.82166 0.0
O156 O 0.83682 0.7754 0.83541 0.0
C157 C 0.77241 0.68107 0.84035 0.0
O158 O 0.74712 0.76956 0.84094 0.0
Co159 Co 0.71071 0.70582 0.81893 0.0
O160 O 0.69085 0.73346 0.83786 0.0
C161 C 0.75399 0.76566 0.79956 0.0
C162 C 0.85973 0.75013 0.82805 0.0
C163 C 0.71004 0.76236 0.84405 0.0
O164 O 0.78212 0.76906 0.80982 0.0
O165 O 0.72472 0.74116 0.80083 0.0
O166 O 0.79731 0.70356 0.84805 0.0
O167 O 0.76351 0.69311 0.82642 0.0
Co168 Co 0.53079 0.53494 0.08096 0.0
O169 O 0.55667 0.58352 0.07408 0.0
O170 O 0.49647 0.58056 0.08479 0.0
C171 C 0.58482 0.50971 0.0934 0.0
O172 O 0.49481 0.49135 0.09019 0.0
Co173 Co 0.56127 0.45043 0.07066 0.0
O174 O 0.519 0.42997 0.08469 0.0
C175 C 0.5112 0.49885 0.04913 0.0
C176 C 0.5251 0.60235 0.07896 0.0
C177 C 0.49336 0.45291 0.09108 0.0
O178 O 0.50656 0.52666 0.05946 0.0
O179 O 0.53349 0.46818 0.05117 0.0
O180 O 0.56219 0.5358 0.10041 0.0
O181 O 0.57577 0.50208 0.07903 0.0
Co182 Co 0.99474 0.46914 0.58373 0.0
O183 O 0.97212 0.41911 0.57685 0.0
O184 O 0.03186 0.42561 0.58769 0.0
C185 C 0.939 0.4905 0.59612 0.0
O186 O 0.0273 0.51562 0.5929 0.0
Co187 Co 0.95754 0.55081 0.57335 0.0
O188 O 0.99125 0.57206 0.59046 0.0
C189 C 0.01332 0.50753 0.55222 0.0
C190 C 0.00447 0.40211 0.58193 0.0
C191 C 0.02145 0.55309 0.59573 0.0
O192 O 0.01859 0.47915 0.56226 0.0
O193 O 0.98928 0.53683 0.5543 0.0
O194 O 0.96344 0.46623 0.60319 0.0
O195 O 0.94745 0.49836 0.58172 0.0
Co196 Co 0.53224 0.47023 0.90571 0.0
O197 O 0.55478 0.41988 0.91209 0.0
O198 O 0.49402 0.42727 0.90226 0.0
C199 C 0.58707 0.49071 0.8925 0.0
O200 O 0.4996 0.5175 0.89728 0.0
Co201 Co 0.57234 0.55084 0.91581 0.0
O202 O 0.53654 0.57346 0.89966 0.0
C203 C 0.51806 0.50795 0.93768 0.0
C204 C 0.52169 0.40337 0.90754 0.0
C205 C 0.50553 0.55511 0.89477 0.0
O206 O 0.51084 0.48022 0.92755 0.0
O207 O 0.54278 0.53662 0.93539 0.0
O208 O 0.56139 0.46713 0.88573 0.0
O209 O 0.58024 0.49849 0.90704 0.0
Co210 Co 0.99328 0.53663 0.40997 0.0
O211 O 0.96814 0.58525 0.41721 0.0
O212 O 0.02775 0.58215 0.40602 0.0
C213 C 0.93859 0.5117 0.39781 0.0
O214 O 0.02844 0.49311 0.4003 0.0
Co215 Co 0.96279 0.45201 0.4202 0.0
O216 O 0.00395 0.43174 0.40563 0.0
C217 C 0.01494 0.49929 0.44139 0.0
C218 C 0.9996 0.60401 0.41214 0.0
C219 C 0.02946 0.4547 0.39916 0.0
O220 O 0.01864 0.52769 0.43125 0.0
O221 O 0.99258 0.46864 0.43939 0.0
O222 O 0.96095 0.53798 0.39075 0.0
O223 O 0.94818 0.50389 0.41211 0.0
H224 H 0.09046 0.15761 0.58 0.0
H225 H 0.9459 0.34685 0.57666 0.0
H226 H 0.96293 0.14799 0.58677 0.0
H227 H 0.0718 0.35667 0.58711 0.0
H228 H 0.95182 0.27398 0.57727 0.0
H229 H 0.08432 0.23038 0.57958 0.0
C230 C 0.06108 0.1708 0.58135 0.0
C231 C 0.0271 0.14661 0.5834 0.0
C232 C 0.97814 0.29206 0.57943 0.0
C233 C 0.01992 0.23015 0.58283 0.0
C234 C 0.97488 0.33369 0.579 0.0
C235 C 0.00847 0.35794 0.58182 0.0
C236 C 0.01538 0.27438 0.58246 0.0
C237 C 0.04516 0.33915 0.58488 0.0
C238 C 0.05767 0.21239 0.58118 0.0
C239 C 0.98989 0.16547 0.58518 0.0
N240 N 0.04769 0.29848 0.58504 0.0
N241 N 0.98724 0.20614 0.58475 0.0
H242 H 0.90972 0.73189 0.80392 0.0
H243 H 0.10863 0.72828 0.85305 0.0
H244 H 0.90938 0.77577 0.8515 0.0
H245 H 0.10948 0.77609 0.80605 0.0
H246 H 0.03493 0.72912 0.85258 0.0
H247 H 0.98324 0.73278 0.8042 0.0
C248 C 0.9252 0.74196 0.81438 0.0
C249 C 0.90366 0.75416 0.82766 0.0
C250 C 0.05143 0.73917 0.84238 0.0
C251 C 0.98721 0.75371 0.82824 0.0
C252 C 0.09328 0.73833 0.84257 0.0
C253 C 0.11496 0.75204 0.82955 0.0
C254 C 0.03138 0.75265 0.82891 0.0
C255 C 0.09375 0.7653 0.81632 0.0
C256 C 0.96696 0.7424 0.81452 0.0
C257 C 0.92501 0.76666 0.84097 0.0
N258 N 0.05308 0.7649 0.81626 0.0
N259 N 0.96574 0.76556 0.84102 0.0
H260 H 0.45871 0.6496 0.0824 0.0
H261 H 0.57747 0.85697 0.08186 0.0
H262 H 0.5859 0.65579 0.07422 0.0
H263 H 0.45169 0.84765 0.07111 0.0
H264 H 0.58159 0.78353 0.08226 0.0
H265 H 0.45573 0.72282 0.08158 0.0
C266 C 0.48599 0.66635 0.08043 0.0
C267 C 0.52257 0.64656 0.07831 0.0
C268 C 0.55317 0.79768 0.07976 0.0
C269 C 0.51947 0.73031 0.07755 0.0
C270 C 0.5508 0.83953 0.07955 0.0
C271 C 0.51423 0.85846 0.07639 0.0
C272 C 0.51857 0.77473 0.07707 0.0
C273 C 0.48057 0.83437 0.07351 0.0
C274 C 0.48427 0.70811 0.07992 0.0
C275 C 0.55702 0.66982 0.07581 0.0
N276 N 0.48348 0.79386 0.07403 0.0
N277 N 0.55469 0.71046 0.0756 0.0
H278 H 0.60575 0.32371 0.3238 0.0
H279 H 0.41283 0.18302 0.3237 0.0
H280 H 0.61221 0.19707 0.33317 0.0
H281 H 0.40642 0.30986 0.33268 0.0
H282 H 0.48594 0.18755 0.32357 0.0
H283 H 0.53269 0.31907 0.32345 0.0
C284 C 0.59181 0.29487 0.32571 0.0
C285 C 0.61514 0.2607 0.32852 0.0
C286 C 0.46852 0.21437 0.32556 0.0
C287 C 0.53147 0.2552 0.32803 0.0
C288 C 0.42679 0.21188 0.32556 0.0
C289 C 0.40347 0.24614 0.32821 0.0
C290 C 0.48715 0.25151 0.32796 0.0
C291 C 0.42323 0.28269 0.33063 0.0
C292 C 0.5501 0.29231 0.32558 0.0
C293 C 0.59539 0.22417 0.33099 0.0
N294 N 0.46392 0.28446 0.33037 0.0
N295 N 0.55471 0.22233 0.33061 0.0
H296 H 0.07983 0.85069 0.41718 0.0
H297 H 0.93945 0.65748 0.41774 0.0
H298 H 0.95281 0.85691 0.40861 0.0
H299 H 0.06591 0.65133 0.408 0.0
H300 H 0.94393 0.73058 0.41807 0.0
H301 H 0.07536 0.7776 0.41748 0.0
C302 C 0.05094 0.8367 0.41544 0.0
C303 C 0.01662 0.85997 0.41286 0.0
C304 C 0.97069 0.71322 0.41587 0.0
C305 C 0.01131 0.77627 0.4133 0.0
C306 C 0.96822 0.67149 0.41575 0.0
C307 C 1.00238 0.64824 0.41283 0.0
C308 C 0.0077 0.73194 0.4133 0.0
C309 C 0.03882 0.66808 0.41026 0.0
C310 C 0.04848 0.79497 0.41554 0.0
C311 C 0.98003 0.84015 0.4106 0.0
N312 N 0.04057 0.70877 0.41063 0.0
N313 N 0.9783 0.79945 0.41095 0.0
H314 H 0.41226 0.68754 0.65886 0.0
H315 H 0.61594 0.81195 0.65777 0.0
H316 H 0.41747 0.81308 0.67046 0.0
H317 H 0.61313 0.68529 0.6674 0.0
H318 H 0.54253 0.81303 0.65875 0.0
H319 H 0.48579 0.68588 0.65841 0.0
C320 C 0.42883 0.71466 0.66135 0.0
C321 C 0.40873 0.75043 0.66478 0.0
C322 C 0.55808 0.78506 0.66069 0.0
C323 C 0.49251 0.74894 0.66399 0.0
C324 C 0.5999 0.78443 0.66009 0.0
C325 C 0.62065 0.74855 0.66259 0.0
C326 C 0.53689 0.74941 0.66348 0.0
C327 C 0.59834 0.71369 0.66553 0.0
C328 C 0.47071 0.7137 0.66111 0.0
C329 C 0.4317 0.78476 0.66787 0.0
N330 N 0.55769 0.71492 0.66578 0.0
N331 N 0.47229 0.78325 0.66728 0.0
H332 H 0.45318 0.35853 0.90388 0.0
H333 H 0.56782 0.14864 0.90179 0.0
H334 H 0.58038 0.34773 0.91133 0.0
H335 H 0.44208 0.15868 0.91246 0.0
H336 H 0.57277 0.22195 0.90196 0.0
H337 H 0.44801 0.28519 0.90374 0.0
C338 C 0.47995 0.34078 0.9055 0.0
C339 C 0.51721 0.35927 0.90769 0.0
C340 C 0.54415 0.20801 0.9043 0.0
C341 C 0.51165 0.27561 0.90733 0.0
C342 C 0.54131 0.16623 0.90418 0.0
C343 C 0.50456 0.14753 0.90719 0.0
C344 C 0.50984 0.2312 0.90719 0.0
C345 C 0.4711 0.17181 0.91018 0.0
C346 C 0.477 0.29899 0.90545 0.0
C347 C 0.55099 0.33478 0.9097 0.0
N348 N 0.47448 0.21233 0.91002 0.0
N349 N 0.54745 0.29429 0.90938 0.0
H350 H 0.10947 0.17518 0.1635 0.0
H351 H 0.91734 0.31603 0.16663 0.0
H352 H 0.11543 0.30262 0.15592 0.0
H353 H 0.90913 0.19067 0.15501 0.0
H354 H 0.9902 0.31073 0.16657 0.0
H355 H 0.03632 0.17951 0.16412 0.0
C356 C 0.09541 0.20412 0.16205 0.0
C357 C 0.11861 0.23864 0.15966 0.0
C358 C 0.97248 0.28437 0.16405 0.0
C359 C 0.03494 0.24374 0.16048 0.0
C360 C 0.93085 0.28727 0.16416 0.0
C361 C 0.90705 0.2537 0.16081 0.0
C362 C 0.99066 0.24748 0.1608 0.0
C363 C 0.92632 0.21729 0.15762 0.0
C364 C 0.05367 0.20649 0.16233 0.0
C365 C 0.09873 0.27527 0.15776 0.0
N366 N 0.96703 0.21509 0.15777 0.0
N367 N 0.05807 0.2769 0.1583 0.0
H368 H 0.9882 0.9395 0.45851 0.0
H369 H 0.99435 0.06393 0.53755 0.0
H370 H 0.9826 0.06825 0.46115 0.0
H371 H 0.00906 0.93594 0.53427 0.0
H372 H 0.96979 0.06452 0.51043 0.0
H373 H 0.97455 0.93615 0.48672 0.0
C374 C 0.98299 0.96696 0.46494 0.0
C375 C 0.98777 0.0042 0.45767 0.0
C376 C 0.97773 0.03622 0.51576 0.0
C377 C 0.97286 1.00078 0.4898 0.0
C378 C 0.99174 0.03594 0.53122 0.0
C379 C 0.00498 1.00007 0.53792 0.0
C380 C 0.97706 1.00037 0.50708 0.0
C381 C 1.00042 0.9645 0.52933 0.0
C382 C 0.97541 0.96512 0.48105 0.0
C383 C 0.98037 0.03893 0.46647 0.0
N384 N 0.98746 0.96564 0.51428 0.0
N385 N 0.9741 0.03643 0.48215 0.0
H386 H 0.19919 0.70943 0.78699 0.0
H387 H 0.32379 0.7088 0.70853 0.0
H388 H 0.32803 0.71263 0.78441 0.0
H389 H 0.19504 0.71452 0.7112 0.0
H390 H 0.32555 0.68692 0.73594 0.0
H391 H 0.19709 0.68772 0.75956 0.0
C392 C 0.22704 0.70445 0.78079 0.0
C393 C 0.26376 0.71411 0.78775 0.0
C394 C 0.29684 0.69209 0.73041 0.0
C395 C 0.26167 0.68998 0.75645 0.0
C396 C 0.29588 0.70447 0.71476 0.0
C397 C 0.25933 0.71479 0.70781 0.0
C398 C 0.26103 0.69028 0.73908 0.0
C399 C 0.22399 0.70815 0.71632 0.0
C400 C 0.22588 0.69223 0.76511 0.0
C401 C 0.299 0.70674 0.77927 0.0
N402 N 0.22575 0.69711 0.73161 0.0
N403 N 0.29707 0.69595 0.76396 0.0
H404 H 0.5453 0.07026 0.02918 0.0
H405 H 0.53648 0.93519 0.95395 0.0
H406 H 0.54159 0.94133 0.03002 0.0
H407 H 0.53642 0.0642 0.95313 0.0
H408 H 0.55917 0.93676 0.9811 0.0
H409 H 0.56324 0.06815 0.00148 0.0
C410 C 0.54909 0.04142 0.02356 0.0
C411 C 0.54085 0.0059 0.03171 0.0
C412 C 0.55499 0.96477 0.97494 0.0
C413 C 0.56064 0.0033 -2e-05 0.0
C414 C 0.54191 0.96392 0.95945 0.0
C415 C 0.53343 0.99968 0.95149 0.0
C416 C 0.55887 1.00166 0.98263 0.0
C417 C 0.54199 0.03598 0.95896 0.0
C418 C 0.55938 0.04025 0.00775 0.0
C419 C 0.54711 0.96939 0.02406 0.0
N420 N 0.55335 0.03607 0.97429 0.0
N421 N 0.55568 0.96903 0.00846 0.0
H422 H 0.33097 0.27384 0.20575 0.0
H423 H 0.19436 0.2847 0.28096 0.0
H424 H 0.20195 0.27246 0.20474 0.0
H425 H 0.32296 0.2749 0.28211 0.0
H426 H 0.19763 0.30132 0.25315 0.0
H427 H 0.329 0.29485 0.2331 0.0
C428 C 0.30214 0.27853 0.21126 0.0
C429 C 0.26651 0.27026 0.20315 0.0
C430 C 0.22523 0.29635 0.25951 0.0
C431 C 0.26411 0.294 0.23449 0.0
C432 C 0.22341 0.28684 0.27538 0.0
C433 C 0.25842 0.27735 0.28367 0.0
C434 C 0.26228 0.29574 0.25183 0.0
C435 C 0.29526 0.28149 0.27605 0.0
C436 C 0.30108 0.29067 0.22686 0.0
C437 C 0.23008 0.27791 0.21067 0.0
N438 N 0.29619 0.28948 0.26041 0.0
N439 N 0.2298 0.28853 0.22608 0.0
H440 H 0.82058 0.21828 0.20474 0.0
H441 H 0.69515 0.22614 0.28329 0.0
H442 H 0.69197 0.2276 0.20695 0.0
H443 H 0.82403 0.22387 0.28087 0.0
H444 H 0.69242 0.2056 0.25568 0.0
H445 H 0.82127 0.19894 0.23245 0.0
C446 C 0.79246 0.21528 0.21095 0.0
C447 C 0.75632 0.22581 0.20374 0.0
C448 C 0.7213 0.20877 0.2613 0.0
C449 C 0.7568 0.20429 0.23535 0.0
C450 C 0.7228 0.22038 0.27705 0.0
C451 C 0.75983 0.22793 0.28414 0.0
C452 C 0.75709 0.20488 0.25272 0.0
C453 C 0.79482 0.21961 0.27564 0.0
C454 C 0.79281 0.20439 0.22678 0.0
C455 C 0.72066 0.22098 0.21225 0.0
N456 N 0.79261 0.20926 0.26029 0.0
N457 N 0.72184 0.21136 0.22769 0.0
H458 H 0.83295 0.79185 0.70805 0.0
H459 H 0.69212 0.79164 0.78156 0.0
H460 H 0.70406 0.78939 0.70574 0.0
H461 H 0.82099 0.79105 0.78392 0.0
H462 H 0.69594 0.81251 0.7542 0.0
H463 H 0.82891 0.81294 0.73537 0.0
C464 C 0.80373 0.79646 0.71324 0.0
C465 C 0.76874 0.78767 0.70481 0.0
C466 C 0.72343 0.80872 0.76076 0.0
C467 C 0.76394 0.81128 0.73613 0.0
C468 C 0.72127 0.79677 0.77638 0.0
C469 C 0.75634 0.78849 0.78482 0.0
C470 C 0.76092 0.81161 0.75346 0.0
C471 C 0.79326 0.79651 0.77772 0.0
C472 C 0.80145 0.80862 0.72884 0.0
C473 C 0.73174 0.79518 0.71193 0.0
N474 N 0.79462 0.80666 0.76229 0.0
N475 N 0.73029 0.80563 0.72733 0.0
H476 H 0.48774 0.44318 0.95365 0.0
H477 H 0.49108 0.56702 0.03297 0.0
H478 H 0.50248 0.57121 0.95672 0.0
H479 H 0.48727 0.43821 0.03016 0.0
H480 H 0.47425 0.57045 0.00501 0.0
H481 H 0.46698 0.44233 0.98124 0.0
C482 C 0.48583 0.47114 0.96003 0.0
C483 C 0.49806 0.5071 0.95309 0.0
C484 C 0.47627 0.54144 0.0106 0.0
C485 C 0.47461 0.50646 0.9845 0.0
C486 C 0.4857 0.53955 0.02656 0.0
C487 C 0.49177 0.50231 0.03369 0.0
C488 C 0.47305 0.50584 0.00185 0.0
C489 C 0.48408 0.46756 0.02493 0.0
C490 C 0.47405 0.4707 0.97577 0.0
C491 C 0.49453 0.5426 0.9618 0.0
N492 N 0.47585 0.47014 0.0094 0.0
N493 N 0.4838 0.54131 0.97712 0.0
H494 H 0.03747 0.5711 0.53485 0.0
H495 H 0.04338 0.43764 0.45878 0.0
H496 H 0.03685 0.44208 0.53504 0.0
H497 H 0.03363 0.56628 0.45856 0.0
H498 H 0.06242 0.43981 0.48637 0.0
H499 H 0.05739 0.57035 0.50736 0.0
C500 C 0.04223 0.54254 0.52914 0.0
C501 C 0.0344 0.50654 0.53705 0.0
C502 C 0.05693 0.46766 0.48025 0.0
C503 C 0.05668 0.50553 0.50554 0.0
C504 C 0.046 0.46647 0.46451 0.0
C505 C 0.03583 0.50181 0.45656 0.0
C506 C 0.05704 0.50441 0.48817 0.0
C507 C 0.04067 0.53834 0.46436 0.0
C508 C 0.05368 0.54216 0.51345 0.0
C509 C 0.04202 0.47046 0.52927 0.0
N510 N 0.05004 0.53866 0.47989 0.0
N511 N 0.05186 0.47085 0.51378 0.0
H512 H 0.2796 0.84266 0.62043 0.0
H513 H 0.10646 0.00657 0.63041 0.0
H514 H 0.22423 0.87146 0.66477 0.0
H515 H 0.15473 0.96901 0.5858 0.0
H516 H 0.15519 0.96338 0.64369 0.0
H517 H 0.23967 0.89505 0.60791 0.0
C518 C 0.25929 0.86022 0.62754 0.0
C519 C 0.25492 0.85253 0.6436 0.0
C520 C 0.15526 0.96488 0.63099 0.0
C521 C 0.20913 0.91232 0.62943 0.0
C522 C 0.12757 0.98959 0.62344 0.0
C523 C 0.12637 0.99101 0.60701 0.0
C524 C 0.18187 0.94166 0.62201 0.0
C525 C 0.15436 0.96846 0.59851 0.0
C526 C 0.23645 0.89007 0.6204 0.0
C527 C 0.22824 0.8762 0.6523 0.0
N528 N 0.18078 0.94457 0.60609 0.0
N529 N 0.20619 0.90488 0.64509 0.0
H530 H 0.29705 0.87648 0.82757 0.0
H531 H 0.37498 0.97208 0.90749 0.0
H532 H 0.24596 0.84976 0.87288 0.0
H533 H 0.41771 0.00882 0.86193 0.0
H534 H 0.32439 0.93071 0.89484 0.0
H535 H 0.33814 0.92836 0.83965 0.0
C536 C 0.29425 0.88178 0.84007 0.0
C537 C 0.26834 0.85857 0.84929 0.0
C538 C 0.34452 0.94806 0.88757 0.0
C539 C 0.31545 0.91779 0.8632 0.0
C540 C 0.37348 0.97166 0.89478 0.0
C541 C 0.40077 0.9936 0.88571 0.0
C542 C 0.34302 0.94602 0.87114 0.0
C543 C 0.39728 0.99224 0.86933 0.0
C544 C 0.31769 0.91146 0.84695 0.0
C545 C 0.26567 0.86688 0.86537 0.0
N546 N 0.36916 0.96843 0.86254 0.0
N547 N 0.28927 0.89559 0.87185 0.0
H548 H 0.42549 0.99127 0.12173 0.0
H549 H 0.25621 0.15943 0.11209 0.0
H550 H 0.38837 0.03966 0.07708 0.0
H551 H 0.3039 0.12069 0.15664 0.0
H552 H 0.29834 0.10961 0.09891 0.0
H553 H 0.3747 0.03244 0.13469 0.0
C554 C 0.40643 0.01028 0.11466 0.0
C555 C 0.41134 0.01237 0.09835 0.0
C556 C 0.29934 0.1119 0.11159 0.0
C557 C 0.35341 0.05954 0.11302 0.0
C558 C 0.27526 0.14024 0.11909 0.0
C559 C 0.2769 0.14439 0.13544 0.0
C560 C 0.32498 0.08757 0.12055 0.0
C561 C 0.30203 0.11876 0.14398 0.0
C562 C 0.37753 0.03384 0.12204 0.0
C563 C 0.38582 0.03743 0.08972 0.0
N564 N 0.32519 0.09159 0.13643 0.0
N565 N 0.3581 0.0602 0.09716 0.0
H566 H 0.1343 0.04622 0.41114 0.0
H567 H 0.21672 0.12859 0.32957 0.0
H568 H 0.09653 1.00002 0.36622 0.0
H569 H 0.2636 0.16544 0.37451 0.0
H570 H 0.17461 0.07948 0.34273 0.0
H571 H 0.18364 0.08797 0.39796 0.0
C572 C 0.13653 0.04472 0.39847 0.0
C573 C 0.11108 0.01983 0.38973 0.0
C574 C 0.19426 0.09806 0.34973 0.0
C575 C 0.16754 0.06778 0.37454 0.0
C576 C 0.2183 0.1262 0.34224 0.0
C577 C 0.24349 0.15133 0.35099 0.0
C578 C 0.19512 0.09516 0.36615 0.0
C579 C 0.24453 0.14671 0.36733 0.0
C580 C 0.16481 0.06855 0.39096 0.0
C581 C 0.11551 0.01887 0.37338 0.0
N582 N 0.22039 0.11935 0.37441 0.0
N583 N 0.14302 0.04281 0.36629 0.0
H584 H 0.94088 0.11243 0.41134 0.0
H585 H 0.87006 0.18842 0.33031 0.0
H586 H 0.9609 0.03958 0.37035 0.0
H587 H 0.79348 0.20433 0.37053 0.0
H588 H 0.90741 0.13709 0.34467 0.0
H589 H 0.88982 0.1501 0.39692 0.0
C590 C 0.93409 0.10417 0.39933 0.0
C591 C 0.95498 0.0731 0.39193 0.0
C592 C 0.88207 0.15138 0.35026 0.0
C593 C 0.89761 0.1164 0.37537 0.0
C594 C 0.86098 0.18076 0.34215 0.0
C595 C 0.82891 0.20057 0.34934 0.0
C596 C 0.87178 0.14272 0.36584 0.0
C597 C 0.81806 0.18957 0.36463 0.0
C598 C 0.90492 0.12545 0.39117 0.0
C599 C 0.94523 0.06334 0.37641 0.0
N600 N 0.84006 0.16186 0.37254 0.0
N601 N 0.91773 0.08555 0.36848 0.0
H602 H 0.60313 0.03401 0.09927 0.0
H603 H 0.64629 0.25825 0.12697 0.0
H604 H 0.51517 0.1282 0.10266 0.0
H605 H 0.72852 0.16296 0.1382 0.0
H606 H 0.6025 0.21021 0.11438 0.0
H607 H 0.65279 0.07928 0.11124 0.0
C608 C 0.59411 0.06389 0.10266 0.0
C609 C 0.55493 0.07737 0.0998 0.0
C610 C 0.63011 0.19959 0.11955 0.0
C611 C 0.61151 0.12916 0.11313 0.0
C612 C 0.65532 0.22714 0.1267 0.0
C613 C 0.69092 0.21459 0.13386 0.0
C614 C 0.64025 0.15886 0.11951 0.0
C615 C 0.70126 0.17388 0.13286 0.0
C616 C 0.62249 0.0897 0.1094 0.0
C617 C 0.545 0.11644 0.10441 0.0
N618 N 0.6758 0.14726 0.12593 0.0
N619 N 0.57306 0.14083 0.1107 0.0
H620 H 0.64107 0.74688 0.85969 0.0
H621 H 0.59419 0.97182 0.88565 0.0
H622 H 0.72453 0.84234 0.85012 0.0
H623 H 0.50696 0.87704 0.88154 0.0
H624 H 0.6452 0.92629 0.87486 0.0
H625 H 0.59564 0.79488 0.8714 0.0
C626 C 0.65007 0.77799 0.8602 0.0
C627 C 0.68651 0.79063 0.85373 0.0
C628 C 0.61478 0.91577 0.87627 0.0
C629 C 0.63397 0.84628 0.86701 0.0
C630 C 0.58561 0.94175 0.88231 0.0
C631 C 0.54622 0.9282 0.88465 0.0
C632 C 0.60437 0.87606 0.87268 0.0
C633 C 0.53691 0.88886 0.88017 0.0
C634 C 0.62392 0.80552 0.86682 0.0
C635 C 0.6967 0.83134 0.85496 0.0
N636 N 0.56572 0.86429 0.87455 0.0
N637 N 0.67033 0.85791 0.86134 0.0
H638 H 0.80382 0.85006 0.64318 0.0
H639 H 0.00594 0.86889 0.59372 0.0
H640 H 0.8701 0.75167 0.62334 0.0
H641 H 0.94329 0.97333 0.61064 0.0
H642 H 0.95286 0.82708 0.60352 0.0
H643 H 0.84964 0.89703 0.62994 0.0
C644 C 0.82737 0.83842 0.63574 0.0
C645 C 0.83347 0.79698 0.63442 0.0
C646 C 0.95044 0.8591 0.60518 0.0
C647 C 0.88593 0.85011 0.61953 0.0
C648 C 0.98111 0.88321 0.59964 0.0
C649 C 0.97952 0.92493 0.60147 0.0
C650 C 0.91757 0.87634 0.61284 0.0
C651 C 0.94593 0.94133 0.60905 0.0
C652 C 0.85367 0.86517 0.62832 0.0
C653 C 0.8646 0.78338 0.62481 0.0
N654 N 0.9163 0.91693 0.61457 0.0
N655 N 0.88969 0.80979 0.61786 0.0
H656 H 0.77298 0.34114 0.11426 0.0
H657 H 0.60424 0.50956 0.12474 0.0
H658 H 0.72835 0.38088 0.15916 0.0
H659 H 0.63854 0.45909 0.0801 0.0
H660 H 0.65573 0.46873 0.13751 0.0
H661 H 0.73021 0.39081 0.10137 0.0
C662 C 0.75456 0.36062 0.12139 0.0
C663 C 0.75388 0.35672 0.13776 0.0
C664 C 0.65209 0.46679 0.1249 0.0
C665 C 0.70489 0.41326 0.12319 0.0
C666 C 0.62276 0.49011 0.11764 0.0
C667 C 0.61693 0.4874 0.10139 0.0
C668 C 0.67573 0.4408 0.11581 0.0
C669 C 0.64179 0.46182 0.0927 0.0
C670 C 0.73005 0.38883 0.11406 0.0
C671 C 0.72946 0.38266 0.14648 0.0
N672 N 0.66997 0.4394 0.10002 0.0
N673 N 0.70578 0.40966 0.13909 0.0
H674 H 0.80209 0.37866 0.32969 0.0
H675 H 0.88438 0.46175 0.41122 0.0
H676 H 0.75494 0.34236 0.37463 0.0
H677 H 0.92105 0.50873 0.36629 0.0
H678 H 0.83522 0.41965 0.39805 0.0
H679 H 0.84407 0.42801 0.34282 0.0
C680 C 0.80043 0.38122 0.34235 0.0
C681 C 0.77519 0.35619 0.35111 0.0
C682 C 0.85377 0.43933 0.39105 0.0
C683 C 0.82339 0.41263 0.36624 0.0
C684 C 0.88193 0.46336 0.39855 0.0
C685 C 0.90702 0.48857 0.3898 0.0
C686 C 0.85082 0.4402 0.37463 0.0
C687 C 0.90234 0.48964 0.37346 0.0
C688 C 0.82438 0.4095 0.34983 0.0
C689 C 0.77405 0.36101 0.36744 0.0
N690 N 0.87498 0.4655 0.36638 0.0
N691 N 0.7981 0.38849 0.37451 0.0
H692 H 0.92513 0.49617 0.62784 0.0
H693 H 0.75309 0.66099 0.61701 0.0
H694 H 0.88089 0.53598 0.5829 0.0
H695 H 0.80771 0.63241 0.66151 0.0
H696 H 0.79367 0.60885 0.60459 0.0
H697 H 0.87591 0.53944 0.64078 0.0
C698 C 0.90477 0.51364 0.62072 0.0
C699 C 0.90725 0.51282 0.60431 0.0
C700 C 0.79658 0.61386 0.61709 0.0
C701 C 0.8512 0.56231 0.61892 0.0
C702 C 0.77338 0.64355 0.62417 0.0
C703 C 0.77732 0.65119 0.64026 0.0
C704 C 0.82375 0.59167 0.62621 0.0
C705 C 0.804 0.6277 0.64903 0.0
C706 C 0.87682 0.53842 0.62808 0.0
C707 C 0.88022 0.53604 0.5956 0.0
N708 N 0.82633 0.59913 0.64188 0.0
N709 N 0.85349 0.55998 0.60301 0.0
H710 H 0.77665 0.65535 0.87081 0.0
H711 H 0.59835 0.49715 0.86062 0.0
H712 H 0.71909 0.63041 0.82652 0.0
H713 H 0.64847 0.53258 0.90519 0.0
H714 H 0.64852 0.53869 0.84731 0.0
H715 H 0.73601 0.60318 0.88306 0.0
C716 C 0.75571 0.63866 0.86365 0.0
C717 C 0.75089 0.64745 0.84769 0.0
C718 C 0.64869 0.53704 0.86 0.0
C719 C 0.70422 0.58791 0.86158 0.0
C720 C 0.62018 0.51327 0.86757 0.0
C721 C 0.61908 0.51183 0.884 0.0
C722 C 0.67621 0.55923 0.86897 0.0
C723 C 0.648 0.53324 0.89249 0.0
C724 C 0.73246 0.60893 0.87064 0.0
C725 C 0.72345 0.62481 0.83892 0.0
N726 N 0.6752 0.55621 0.88489 0.0
N727 N 0.70092 0.59626 0.846 0.0
H728 H 0.42828 0.53375 0.88625 0.0
H729 H 0.37298 0.7602 0.86489 0.0
H730 H 0.51051 0.6335 0.88635 0.0
H731 H 0.29537 0.66242 0.85198 0.0
H732 H 0.41872 0.71293 0.87695 0.0
H733 H 0.37564 0.5788 0.8764 0.0
C734 C 0.43542 0.56487 0.88409 0.0
C735 C 0.47397 0.57978 0.88723 0.0
C736 C 0.3916 0.70162 0.87159 0.0
C737 C 0.41389 0.63132 0.87633 0.0
C738 C 0.3653 0.72871 0.86478 0.0
C739 C 0.33054 0.71521 0.85726 0.0
C740 C 0.38345 0.66046 0.87083 0.0
C741 C 0.3219 0.67405 0.85766 0.0
C742 C 0.40532 0.59054 0.87857 0.0
C743 C 0.48136 0.62044 0.88426 0.0
N744 N 0.34851 0.64793 0.86417 0.0
N745 N 0.45167 0.64462 0.8791 0.0
H746 H 0.09778 0.53078 0.60508 0.0
H747 H 0.15139 0.75525 0.62987 0.0
H748 H 0.01551 0.63037 0.60546 0.0
H749 H 0.22743 0.65671 0.64321 0.0
H750 H 0.10648 0.70867 0.61698 0.0
H751 H 0.14936 0.57473 0.61652 0.0
C752 C 0.0904 0.56161 0.60768 0.0
C753 C 0.0522 0.57686 0.60418 0.0
C754 C 0.13302 0.69702 0.62265 0.0
C755 C 0.11106 0.62714 0.61691 0.0
C756 C 0.15885 0.72371 0.62995 0.0
C757 C 0.19296 0.70981 0.63781 0.0
C758 C 0.14097 0.65583 0.6232 0.0
C759 C 0.20138 0.66863 0.6373 0.0
C760 C 0.11989 0.58666 0.61411 0.0
C761 C 0.04445 0.61712 0.60776 0.0
N762 N 0.17524 0.64288 0.63025 0.0
N763 N 0.07356 0.6407 0.6138 0.0
H764 H 0.0565 0.47033 0.36945 0.0
H765 H 0.22639 0.30253 0.37051 0.0
H766 H 0.07723 0.39539 0.4098 0.0
H767 H 0.14928 0.32033 0.33056 0.0
H768 H 0.18783 0.35348 0.38498 0.0
H769 H 0.10719 0.43167 0.35487 0.0
C770 C 0.07229 0.44626 0.37528 0.0
C771 C 0.06268 0.43557 0.39072 0.0
C772 C 0.17992 0.34654 0.37296 0.0
C773 C 0.12065 0.39236 0.37444 0.0
C774 C 0.20185 0.31773 0.36474 0.0
C775 C 0.19054 0.30719 0.34946 0.0
C776 C 0.14742 0.36548 0.36561 0.0
C777 C 0.1585 0.32748 0.34242 0.0
C778 C 0.10095 0.42427 0.367 0.0
C779 C 0.08369 0.40412 0.39783 0.0
N780 N 0.13802 0.35575 0.35055 0.0
N781 N 0.11179 0.38358 0.38963 0.0
H782 H 0.46702 0.46486 0.12114 0.0
H783 H 0.29527 0.29866 0.117 0.0
H784 H 0.44367 0.39683 0.07914 0.0
H785 H 0.37278 0.3119 0.15711 0.0
H786 H 0.33379 0.35125 0.10339 0.0
H787 H 0.4159 0.42498 0.13498 0.0
C788 C 0.4505 0.44212 0.1148 0.0
C789 C 0.45951 0.43367 0.09909 0.0
C790 C 0.34181 0.34291 0.11527 0.0
C791 C 0.40114 0.38899 0.11457 0.0
C792 C 0.31991 0.31315 0.123 0.0
C793 C 0.33134 0.30087 0.13806 0.0
C794 C 0.3744 0.36102 0.1229 0.0
C795 C 0.36348 0.32035 0.1454 0.0
C796 C 0.42161 0.41941 0.12265 0.0
C797 C 0.43763 0.40383 0.09132 0.0
N798 N 0.38391 0.34953 0.13776 0.0
N799 N 0.40938 0.3825 0.09914 0.0
loop_
_geom_bond_atom_site_label_1
_geom_bond_atom_site_label_2
_geom_bond_distance
_geom_bond_site_symmetry_2
_ccdc_geom_bond_type
Co0 O1 2.216 . S
Co0 O2 2.091 1_455 S
Co0 O4 2.004 1_455 S
Co0 O10 2.021 1_455 S
Co0 O12 2.137 . S
Co0 O13 2.244 1_545 S
O1 Co0 2.216 . S
O1 C8 1.247 . S
O2 Co0 2.091 1_655 S
O2 C8 1.261 1_655 S
C3 O12 1.247 . S
C3 O13 1.272 1_545 S
O4 Co0 2.004 1_655 S
O4 C9 1.259 1_545 S
Co5 O6 2.061 1_455 S
Co5 O11 2.052 . S
Co5 O13 2.135 . S
O6 Co5 2.061 1_655 S
O6 C9 1.235 . S
C7 O10 1.238 1_455 S
C7 O11 1.241 1_545 S
C8 O1 1.247 . S
C8 O2 1.261 1_455 S
C9 O4 1.259 1_565 S
C9 O6 1.235 . S
O10 Co0 2.021 1_655 S
O10 C7 1.238 1_655 S
O11 Co5 2.052 . S
O11 C7 1.241 1_565 S
O12 Co0 2.137 . S
O12 C3 1.247 . S
O13 Co0 2.244 1_565 S
O13 C3 1.272 1_565 S
O13 Co5 2.135 . S
Co14 O15 2.216 . S
Co14 O16 2.091 . S
Co14 O18 2.004 . S
Co14 O24 2.021 . S
Co14 O26 2.137 . S
Co14 O27 2.244 . S
O15 Co14 2.216 . S
O15 C22 1.247 . S
O16 Co14 2.091 . S
O16 C22 1.261 . S
C17 O26 1.247 . S
C17 O27 1.272 . S
O18 Co14 2.004 . S
O18 C23 1.259 . S
Co19 O20 2.061 . S
Co19 O25 2.052 . S
Co19 O27 2.135 . S
O20 Co19 2.061 . S
O20 C23 1.235 . S
C21 O24 1.238 . S
C21 O25 1.241 . S
C22 O15 1.247 . S
C22 O16 1.261 . S
C23 O18 1.259 . S
C23 O20 1.235 . S
O24 Co14 2.021 . S
O24 C21 1.238 . S
O25 Co19 2.052 . S
O25 C21 1.241 . S
O26 Co14 2.137 . S
O26 C17 1.247 . S
O27 Co14 2.244 . S
O27 C17 1.272 . S
O27 Co19 2.135 . S
Co28 O29 2.216 . S
Co28 O30 2.091 . S
Co28 O32 2.004 . S
Co28 O38 2.021 . S
Co28 O40 2.137 . S
Co28 O41 2.244 1_565 S
O29 Co28 2.216 . S
O29 C36 1.247 . S
O30 Co28 2.091 . S
O30 C36 1.261 . S
C31 O40 1.247 . S
C31 O41 1.272 1_565 S
O32 Co28 2.004 . S
O32 C37 1.259 1_565 S
Co33 O34 2.061 . S
Co33 O39 2.052 . S
Co33 O41 2.135 . S
O34 Co33 2.061 . S
O34 C37 1.235 . S
C35 O38 1.238 . S
C35 O39 1.241 1_565 S
C36 O29 1.247 . S
C36 O30 1.261 . S
C37 O32 1.259 1_545 S
C37 O34 1.235 . S
O38 Co28 2.021 . S
O38 C35 1.238 . S
O39 Co33 2.052 . S
O39 C35 1.241 1_545 S
O40 Co28 2.137 . S
O40 C31 1.247 . S
O41 Co28 2.244 1_545 S
O41 C31 1.272 1_545 S
O41 Co33 2.135 . S
Co42 O43 2.216 . S
Co42 O44 2.091 . S
Co42 O46 2.004 . S
Co42 O52 2.021 . S
Co42 O54 2.137 . S
Co42 O55 2.244 . S
O43 Co42 2.216 . S
O43 C50 1.247 . S
O44 Co42 2.091 . S
O44 C50 1.261 . S
C45 O54 1.247 . S
C45 O55 1.272 . S
O46 Co42 2.004 . S
O46 C51 1.259 . S
Co47 O48 2.061 . S
Co47 O53 2.052 . S
Co47 O55 2.135 . S
O48 Co47 2.061 . S
O48 C51 1.235 . S
C49 O52 1.238 . S
C49 O53 1.241 . S
C50 O43 1.247 . S
C50 O44 1.261 . S
C51 O46 1.259 . S
C51 O48 1.235 . S
O52 Co42 2.021 . S
O52 C49 1.238 . S
O53 Co47 2.052 . S
O53 C49 1.241 . S
O54 Co42 2.137 . S
O54 C45 1.247 . S
O55 Co42 2.244 . S
O55 C45 1.272 . S
O55 Co47 2.135 . S
Co56 O57 2.216 . S
Co56 O58 2.091 1_455 S
Co56 O60 2.004 1_455 S
Co56 O66 2.021 1_455 S
Co56 O68 2.137 . S
Co56 O69 2.244 1_565 S
O57 Co56 2.216 . S
O57 C64 1.247 . S
O58 Co56 2.091 1_655 S
O58 C64 1.261 1_655 S
C59 O68 1.247 . S
C59 O69 1.272 1_565 S
O60 Co56 2.004 1_655 S
O60 C65 1.259 1_565 S
Co61 O62 2.061 1_455 S
Co61 O67 2.052 . S
Co61 O69 2.135 . S
O62 Co61 2.061 1_655 S
O62 C65 1.235 . S
C63 O66 1.238 1_455 S
C63 O67 1.241 1_565 S
C64 O57 1.247 . S
C64 O58 1.261 1_455 S
C65 O60 1.259 1_545 S
C65 O62 1.235 . S
O66 Co56 2.021 1_655 S
O66 C63 1.238 1_655 S
O67 Co61 2.052 . S
O67 C63 1.241 1_545 S
O68 Co56 2.137 . S
O68 C59 1.247 . S
O69 Co56 2.244 1_545 S
O69 C59 1.272 1_545 S
O69 Co61 2.135 . S
Co70 O71 2.216 . S
Co70 O72 2.091 . S
Co70 O74 2.004 . S
Co70 O80 2.021 . S
Co70 O82 2.137 . S
Co70 O83 2.244 . S
O71 Co70 2.216 . S
O71 C78 1.247 . S
O72 Co70 2.091 . S
O72 C78 1.261 . S
C73 O82 1.247 . S
C73 O83 1.272 . S
O74 Co70 2.004 . S
O74 C79 1.259 . S
Co75 O76 2.061 . S
Co75 O81 2.052 . S
Co75 O83 2.135 . S
O76 Co75 2.061 . S
O76 C79 1.235 . S
C77 O80 1.238 . S
C77 O81 1.241 . S
C78 O71 1.247 . S
C78 O72 1.261 . S
C79 O74 1.259 . S
C79 O76 1.235 . S
O80 Co70 2.021 . S
O80 C77 1.238 . S
O81 Co75 2.052 . S
O81 C77 1.241 . S
O82 Co70 2.137 . S
O82 C73 1.247 . S
O83 Co70 2.244 . S
O83 C73 1.272 . S
O83 Co75 2.135 . S
Co84 O85 2.216 . S
Co84 O86 2.091 . S
Co84 O88 2.004 . S
Co84 O94 2.021 . S
Co84 O96 2.137 . S
Co84 O97 2.244 1_545 S
O85 Co84 2.216 . S
O85 C92 1.247 . S
O86 Co84 2.091 . S
O86 C92 1.261 . S
C87 O96 1.247 . S
C87 O97 1.272 1_545 S
O88 Co84 2.004 . S
O88 C93 1.259 1_545 S
Co89 O90 2.061 . S
Co89 O95 2.052 . S
Co89 O97 2.135 . S
O90 Co89 2.061 . S
O90 C93 1.235 . S
C91 O94 1.238 . S
C91 O95 1.241 1_545 S
C92 O85 1.247 . S
C92 O86 1.261 . S
C93 O88 1.259 1_565 S
C93 O90 1.235 . S
O94 Co84 2.021 . S
O94 C91 1.238 . S
O95 Co89 2.052 . S
O95 C91 1.241 1_565 S
O96 Co84 2.137 . S
O96 C87 1.247 . S
O97 Co84 2.244 1_565 S
O97 C87 1.272 1_565 S
O97 Co89 2.135 . S
Co98 O99 2.216 . S
Co98 O100 2.091 . S
Co98 O102 2.004 . S
Co98 O108 2.021 . S
Co98 O110 2.137 . S
Co98 O111 2.244 . S
O99 Co98 2.216 . S
O99 C106 1.247 . S
O100 Co98 2.091 . S
O100 C106 1.261 . S
C101 O110 1.247 . S
C101 O111 1.272 . S
O102 Co98 2.004 . S
O102 C107 1.259 . S
Co103 O104 2.061 . S
Co103 O109 2.052 . S
Co103 O111 2.135 . S
O104 Co103 2.061 . S
O104 C107 1.235 . S
C105 O108 1.238 . S
C105 O109 1.241 . S
C106 O99 1.247 . S
C106 O100 1.261 . S
C107 O102 1.259 . S
C107 O104 1.235 . S
O108 Co98 2.021 . S
O108 C105 1.238 . S
O109 Co103 2.052 . S
O109 C105 1.241 . S
O110 Co98 2.137 . S
O110 C101 1.247 . S
O111 Co98 2.244 . S
O111 C101 1.272 . S
O111 Co103 2.135 . S
Co112 O113 2.216 . S
Co112 O114 2.091 . S
Co112 O116 2.004 . S
Co112 O122 2.021 . S
Co112 O124 2.137 . S
Co112 O125 2.244 . S
O113 Co112 2.216 . S
O113 C120 1.247 . S
O114 Co112 2.091 . S
O114 C120 1.261 . S
C115 O124 1.247 . S
C115 O125 1.272 . S
O116 Co112 2.004 . S
O116 C121 1.259 . S
Co117 O118 2.061 . S
Co117 O123 2.052 . S
Co117 O125 2.135 . S
O118 Co117 2.061 . S
O118 C121 1.235 . S
C119 O122 1.238 . S
C119 O123 1.241 . S
C120 O113 1.247 . S
C120 O114 1.261 . S
C121 O116 1.259 . S
C121 O118 1.235 . S
O122 Co112 2.021 . S
O122 C119 1.238 . S
O123 Co117 2.052 . S
O123 C119 1.241 . S
O124 Co112 2.137 . S
O124 C115 1.247 . S
O125 Co112 2.244 . S
O125 C115 1.272 . S
O125 Co117 2.135 . S
Co126 O127 2.216 . S
Co126 O128 2.091 . S
Co126 O130 2.004 . S
Co126 O136 2.021 . S
Co126 O138 2.137 . S
Co126 O139 2.244 . S
O127 Co126 2.216 . S
O127 C134 1.247 . S
O128 Co126 2.091 . S
O128 C134 1.261 . S
C129 O138 1.247 . S
C129 O139 1.272 . S
O130 Co126 2.004 . S
O130 C135 1.259 . S
Co131 O132 2.061 . S
Co131 O137 2.052 . S
Co131 O139 2.135 . S
O132 Co131 2.061 . S
O132 C135 1.235 . S
C133 O136 1.238 . S
C133 O137 1.241 . S
C134 O127 1.247 . S
C134 O128 1.261 . S
C135 O130 1.259 . S
C135 O132 1.235 . S
O136 Co126 2.021 . S
O136 C133 1.238 . S
O137 Co131 2.052 . S
O137 C133 1.241 . S
O138 Co126 2.137 . S
O138 C129 1.247 . S
O139 Co126 2.244 . S
O139 C129 1.272 . S
O139 Co131 2.135 . S
Co140 O141 2.216 . S
Co140 O142 2.091 . S
Co140 O144 2.004 . S
Co140 O150 2.021 . S
Co140 O152 2.137 . S
Co140 O153 2.244 . S
O141 Co140 2.216 . S
O141 C148 1.247 . S
O142 Co140 2.091 . S
O142 C148 1.261 . S
C143 O152 1.247 . S
C143 O153 1.272 . S
O144 Co140 2.004 . S
O144 C149 1.259 . S
Co145 O146 2.061 . S
Co145 O151 2.052 . S
Co145 O153 2.135 . S
O146 Co145 2.061 . S
O146 C149 1.235 . S
C147 O150 1.238 . S
C147 O151 1.241 . S
C148 O141 1.247 . S
C148 O142 1.261 . S
C149 O144 1.259 . S
C149 O146 1.235 . S
O150 Co140 2.021 . S
O150 C147 1.238 . S
O151 Co145 2.052 . S
O151 C147 1.241 . S
O152 Co140 2.137 . S
O152 C143 1.247 . S
O153 Co140 2.244 . S
O153 C143 1.272 . S
O153 Co145 2.135 . S
Co154 O155 2.216 . S
Co154 O156 2.091 . S
Co154 O158 2.004 . S
Co154 O164 2.021 . S
Co154 O166 2.137 . S
Co154 O167 2.244 . S
O155 Co154 2.216 . S
O155 C162 1.247 . S
O156 Co154 2.091 . S
O156 C162 1.261 . S
C157 O166 1.247 . S
C157 O167 1.272 . S
O158 Co154 2.004 . S
O158 C163 1.259 . S
Co159 O160 2.061 . S
Co159 O165 2.052 . S
Co159 O167 2.135 . S
O160 Co159 2.061 . S
O160 C163 1.235 . S
C161 O164 1.238 . S
C161 O165 1.241 . S
C162 O155 1.247 . S
C162 O156 1.261 . S
C163 O158 1.259 . S
C163 O160 1.235 . S
O164 Co154 2.021 . S
O164 C161 1.238 . S
O165 Co159 2.052 . S
O165 C161 1.241 . S
O166 Co154 2.137 . S
O166 C157 1.247 . S
O167 Co154 2.244 . S
O167 C157 1.272 . S
O167 Co159 2.135 . S
Co168 O169 2.216 . S
Co168 O170 2.091 . S
Co168 O172 2.004 . S
Co168 O178 2.021 . S
Co168 O180 2.137 . S
Co168 O181 2.244 . S
O169 Co168 2.216 . S
O169 C176 1.247 . S
O170 Co168 2.091 . S
O170 C176 1.261 . S
C171 O180 1.247 . S
C171 O181 1.272 . S
O172 Co168 2.004 . S
O172 C177 1.259 . S
Co173 O174 2.061 . S
Co173 O179 2.052 . S
Co173 O181 2.135 . S
O174 Co173 2.061 . S
O174 C177 1.235 . S
C175 O178 1.238 . S
C175 O179 1.241 . S
C176 O169 1.247 . S
C176 O170 1.261 . S
C177 O172 1.259 . S
C177 O174 1.235 . S
O178 Co168 2.021 . S
O178 C175 1.238 . S
O179 Co173 2.052 . S
O179 C175 1.241 . S
O180 Co168 2.137 . S
O180 C171 1.247 . S
O181 Co168 2.244 . S
O181 C171 1.272 . S
O181 Co173 2.135 . S
Co182 O183 2.216 1_455 S
Co182 O184 2.091 . S
Co182 O186 2.004 . S
Co182 O192 2.021 . S
Co182 O194 2.137 1_455 S
Co182 O195 2.244 1_455 S
O183 Co182 2.216 1_655 S
O183 C190 1.247 . S
O184 Co182 2.091 . S
O184 C190 1.261 1_455 S
C185 O194 1.247 . S
C185 O195 1.272 . S
O186 Co182 2.004 . S
O186 C191 1.259 . S
Co187 O188 2.061 1_655 S
Co187 O193 2.052 . S
Co187 O195 2.135 . S
O188 Co187 2.061 1_455 S
O188 C191 1.235 . S
C189 O192 1.238 . S
C189 O193 1.241 1_455 S
C190 O183 1.247 . S
C190 O184 1.261 1_655 S
C191 O186 1.259 . S
C191 O188 1.235 . S
O192 Co182 2.021 . S
O192 C189 1.238 . S
O193 Co187 2.052 . S
O193 C189 1.241 1_655 S
O194 Co182 2.137 1_655 S
O194 C185 1.247 . S
O195 Co182 2.244 1_655 S
O195 C185 1.272 . S
O195 Co187 2.135 . S
Co196 O197 2.216 . S
Co196 O198 2.091 . S
Co196 O200 2.004 . S
Co196 O206 2.021 . S
Co196 O208 2.137 . S
Co196 O209 2.244 . S
O197 Co196 2.216 . S
O197 C204 1.247 . S
O198 Co196 2.091 . S
O198 C204 1.261 . S
C199 O208 1.247 . S
C199 O209 1.272 . S
O200 Co196 2.004 . S
O200 C205 1.259 . S
Co201 O202 2.061 . S
Co201 O207 2.052 . S
Co201 O209 2.135 . S
O202 Co201 2.061 . S
O202 C205 1.235 . S
C203 O206 1.238 . S
C203 O207 1.241 . S
C204 O197 1.247 . S
C204 O198 1.261 . S
C205 O200 1.259 . S
C205 O202 1.235 . S
O206 Co196 2.021 . S
O206 C203 1.238 . S
O207 Co201 2.052 . S
O207 C203 1.241 . S
O208 Co196 2.137 . S
O208 C199 1.247 . S
O209 Co196 2.244 . S
O209 C199 1.272 . S
O209 Co201 2.135 . S
Co210 O211 2.216 1_455 S
Co210 O212 2.091 . S
Co210 O214 2.004 . S
Co210 O220 2.021 . S
Co210 O222 2.137 1_455 S
Co210 O223 2.244 1_455 S
O211 Co210 2.216 1_655 S
O211 C218 1.247 . S
O212 Co210 2.091 . S
O212 C218 1.261 1_455 S
C213 O222 1.247 . S
C213 O223 1.272 . S
O214 Co210 2.004 . S
O214 C219 1.259 . S
Co215 O216 2.061 1_655 S
Co215 O221 2.052 . S
Co215 O223 2.135 . S
O216 Co215 2.061 1_455 S
O216 C219 1.235 . S
C217 O220 1.238 . S
C217 O221 1.241 1_455 S
C218 O211 1.247 . S
C218 O212 1.261 1_655 S
C219 O214 1.259 . S
C219 O216 1.235 . S
O220 Co210 2.021 . S
O220 C217 1.238 . S
O221 Co215 2.052 . S
O221 C217 1.241 1_655 S
O222 Co210 2.137 1_655 S
O222 C213 1.247 . S
O223 Co210 2.244 1_655 S
O223 C213 1.272 . S
O223 Co215 2.135 . S
H224 C230 0.930 . S
H225 C234 0.930 . S
H226 C239 0.929 . S
H227 C237 0.929 . S
H228 C232 0.929 . S
H229 C238 0.929 . S
C230 H224 0.930 . S
C230 C231 1.367 . S
C230 C238 1.378 . S
C231 C230 1.367 . S
C231 C239 1.433 1_455 S
C232 H228 0.929 . S
C232 C234 1.378 . S
C232 C236 1.350 1_655 S
C233 C236 1.463 . S
C233 C238 1.350 . S
C233 N241 1.427 1_455 S
C234 H225 0.930 . S
C234 C232 1.378 . S
C234 C235 1.367 . S
C235 C234 1.367 . S
C235 C237 1.433 1_655 S
C236 C232 1.350 1_455 S
C236 C233 1.463 . S
C236 N240 1.427 . S
C237 H227 0.929 . S
C237 C235 1.433 1_455 S
C237 N240 1.384 . S
C238 H229 0.929 . S
C238 C230 1.378 . S
C238 C233 1.350 . S
C239 H226 0.929 . S
C239 C231 1.433 1_655 S
C239 N241 1.384 . S
N240 C236 1.427 . S
N240 C237 1.384 . S
N241 C233 1.427 1_655 S
N241 C239 1.384 . S
H242 C248 0.930 . S
H243 C252 0.930 . S
H244 C257 0.929 . S
H245 C255 0.929 . S
H246 C250 0.929 . S
H247 C256 0.929 . S
C248 H242 0.930 . S
C248 C249 1.367 . S
C248 C256 1.378 . S
C249 C248 1.367 . S
C249 C257 1.433 . S
C250 H246 0.929 . S
C250 C252 1.378 . S
C250 C254 1.350 . S
C251 C254 1.463 1_655 S
C251 C256 1.350 . S
C251 N259 1.427 . S
C252 H243 0.930 . S
C252 C250 1.378 . S
C252 C253 1.367 . S
C253 C252 1.367 . S
C253 C255 1.433 . S
C254 C250 1.350 . S
C254 C251 1.463 1_455 S
C254 N258 1.427 . S
C255 H245 0.929 . S
C255 C253 1.433 . S
C255 N258 1.384 . S
C256 H247 0.929 . S
C256 C248 1.378 . S
C256 C251 1.350 . S
C257 H244 0.929 . S
C257 C249 1.433 . S
C257 N259 1.384 . S
N258 C254 1.427 . S
N258 C255 1.384 . S
N259 C251 1.427 . S
N259 C257 1.384 . S
H260 C266 0.930 . S
H261 C270 0.930 . S
H262 C275 0.929 . S
H263 C273 0.929 . S
H264 C268 0.929 . S
H265 C274 0.929 . S
C266 H260 0.930 . S
C266 C267 1.367 . S
C266 C274 1.378 . S
C267 C266 1.367 . S
C267 C275 1.433 . S
C268 H264 0.929 . S
C268 C270 1.378 . S
C268 C272 1.350 . S
C269 C272 1.463 . S
C269 C274 1.350 . S
C269 N277 1.427 . S
C270 H261 0.930 . S
C270 C268 1.378 . S
C270 C271 1.367 . S
C271 C270 1.367 . S
C271 C273 1.433 . S
C272 C268 1.350 . S
C272 C269 1.463 . S
C272 N276 1.427 . S
C273 H263 0.929 . S
C273 C271 1.433 . S
C273 N276 1.384 . S
C274 H265 0.929 . S
C274 C266 1.378 . S
C274 C269 1.350 . S
C275 H262 0.929 . S
C275 C267 1.433 . S
C275 N277 1.384 . S
N276 C272 1.427 . S
N276 C273 1.384 . S
N277 C269 1.427 . S
N277 C275 1.384 . S
H278 C284 0.930 . S
H279 C288 0.930 . S
H280 C293 0.929 . S
H281 C291 0.929 . S
H282 C286 0.929 . S
H283 C292 0.929 . S
C284 H278 0.930 . S
C284 C285 1.367 . S
C284 C292 1.378 . S
C285 C284 1.367 . S
C285 C293 1.433 . S
C286 H282 0.929 . S
C286 C288 1.378 . S
C286 C290 1.350 . S
C287 C290 1.463 . S
C287 C292 1.350 . S
C287 N295 1.427 . S
C288 H279 0.930 . S
C288 C286 1.378 . S
C288 C289 1.367 . S
C289 C288 1.367 . S
C289 C291 1.433 . S
C290 C286 1.350 . S
C290 C287 1.463 . S
C290 N294 1.427 . S
C291 H281 0.929 . S
C291 C289 1.433 . S
C291 N294 1.384 . S
C292 H283 0.929 . S
C292 C284 1.378 . S
C292 C287 1.350 . S
C293 H280 0.929 . S
C293 C285 1.433 . S
C293 N295 1.384 . S
N294 C290 1.427 . S
N294 C291 1.384 . S
N295 C287 1.427 . S
N295 C293 1.384 . S
H296 C302 0.930 . S
H297 C306 0.930 . S
H298 C311 0.929 . S
H299 C309 0.929 . S
H300 C304 0.929 . S
H301 C310 0.929 . S
C302 H296 0.930 . S
C302 C303 1.367 . S
C302 C310 1.378 . S
C303 C302 1.367 . S
C303 C311 1.433 . S
C304 H300 0.929 . S
C304 C306 1.378 . S
C304 C308 1.350 1_655 S
C305 C308 1.463 . S
C305 C310 1.350 . S
C305 N313 1.427 . S
C306 H297 0.930 . S
C306 C304 1.378 . S
C306 C307 1.367 . S
C307 C306 1.367 . S
C307 C309 1.433 1_655 S
C308 C304 1.350 1_455 S
C308 C305 1.463 . S
C308 N312 1.427 . S
C309 H299 0.929 . S
C309 C307 1.433 1_455 S
C309 N312 1.384 . S
C310 H301 0.929 . S
C310 C302 1.378 . S
C310 C305 1.350 . S
C311 H298 0.929 . S
C311 C303 1.433 . S
C311 N313 1.384 . S
N312 C308 1.427 . S
N312 C309 1.384 . S
N313 C305 1.427 . S
N313 C311 1.384 . S
H314 C320 0.930 . S
H315 C324 0.930 . S
H316 C329 0.929 . S
H317 C327 0.929 . S
H318 C322 0.929 . S
H319 C328 0.929 . S
C320 H314 0.930 . S
C320 C321 1.367 . S
C320 C328 1.378 . S
C321 C320 1.367 . S
C321 C329 1.433 . S
C322 H318 0.929 . S
C322 C324 1.378 . S
C322 C326 1.350 . S
C323 C326 1.463 . S
C323 C328 1.350 . S
C323 N331 1.427 . S
C324 H315 0.930 . S
C324 C322 1.378 . S
C324 C325 1.367 . S
C325 C324 1.367 . S
C325 C327 1.433 . S
C326 C322 1.350 . S
C326 C323 1.463 . S
C326 N330 1.427 . S
C327 H317 0.929 . S
C327 C325 1.433 . S
C327 N330 1.384 . S
C328 H319 0.929 . S
C328 C320 1.378 . S
C328 C323 1.350 . S
C329 H316 0.929 . S
C329 C321 1.433 . S
C329 N331 1.384 . S
N330 C326 1.427 . S
N330 C327 1.384 . S
N331 C323 1.427 . S
N331 C329 1.384 . S
H332 C338 0.930 . S
H333 C342 0.930 . S
H334 C347 0.929 . S
H335 C345 0.929 . S
H336 C340 0.929 . S
H337 C346 0.929 . S
C338 H332 0.930 . S
C338 C339 1.367 . S
C338 C346 1.378 . S
C339 C338 1.367 . S
C339 C347 1.433 . S
C340 H336 0.929 . S
C340 C342 1.378 . S
C340 C344 1.350 . S
C341 C344 1.463 . S
C341 C346 1.350 . S
C341 N349 1.427 . S
C342 H333 0.930 . S
C342 C340 1.378 . S
C342 C343 1.367 . S
C343 C342 1.367 . S
C343 C345 1.433 . S
C344 C340 1.350 . S
C344 C341 1.463 . S
C344 N348 1.427 . S
C345 H335 0.929 . S
C345 C343 1.433 . S
C345 N348 1.384 . S
C346 H337 0.929 . S
C346 C338 1.378 . S
C346 C341 1.350 . S
C347 H334 0.929 . S
C347 C339 1.433 . S
C347 N349 1.384 . S
N348 C344 1.427 . S
N348 C345 1.384 . S
N349 C341 1.427 . S
N349 C347 1.384 . S
H350 C356 0.930 . S
H351 C360 0.930 . S
H352 C365 0.929 . S
H353 C363 0.929 . S
H354 C358 0.929 . S
H355 C364 0.929 . S
C356 H350 0.930 . S
C356 C357 1.367 . S
C356 C364 1.378 . S
C357 C356 1.367 . S
C357 C365 1.433 . S
C358 H354 0.929 . S
C358 C360 1.378 . S
C358 C362 1.350 . S
C359 C362 1.463 1_455 S
C359 C364 1.350 . S
C359 N367 1.427 . S
C360 H351 0.930 . S
C360 C358 1.378 . S
C360 C361 1.367 . S
C361 C360 1.367 . S
C361 C363 1.433 . S
C362 C358 1.350 . S
C362 C359 1.463 1_655 S
C362 N366 1.427 . S
C363 H353 0.929 . S
C363 C361 1.433 . S
C363 N366 1.384 . S
C364 H355 0.929 . S
C364 C356 1.378 . S
C364 C359 1.350 . S
C365 H352 0.929 . S
C365 C357 1.433 . S
C365 N367 1.384 . S
N366 C362 1.427 . S
N366 C363 1.384 . S
N367 C359 1.427 . S
N367 C365 1.384 . S
H368 C374 0.930 . S
H369 C378 0.930 . S
H370 C383 0.929 . S
H371 C381 0.929 . S
H372 C376 0.929 . S
H373 C382 0.929 . S
C374 H368 0.930 . S
C374 C375 1.383 . S
C374 C382 1.378 . S
C375 C374 1.383 . S
C375 C383 1.417 1_465 S
C376 H372 0.929 . S
C376 C378 1.378 . S
C376 C380 1.364 . S
C377 C380 1.462 1_465 S
C377 C382 1.350 . S
C377 N385 1.427 1_465 S
C378 H369 0.930 . S
C378 C376 1.378 . S
C378 C379 1.374 . S
C379 C378 1.374 . S
C379 C381 1.426 1_645 S
C380 C376 1.364 . S
C380 C377 1.462 1_645 S
C380 N384 1.413 1_645 S
C381 H371 0.929 . S
C381 C379 1.426 1_465 S
C381 N384 1.384 . S
C382 H373 0.929 . S
C382 C374 1.378 . S
C382 C377 1.350 . S
C383 H370 0.929 . S
C383 C375 1.417 1_645 S
C383 N385 1.384 . S
N384 C380 1.413 1_465 S
N384 C381 1.384 . S
N385 C377 1.427 1_645 S
N385 C383 1.384 . S
H386 C392 0.930 . S
H387 C396 0.930 . S
H388 C401 0.929 . S
H389 C399 0.929 . S
H390 C394 0.929 . S
H391 C400 0.929 . S
C392 H386 0.930 . S
C392 C393 1.367 . S
C392 C400 1.378 . S
C393 C392 1.367 . S
C393 C401 1.433 . S
C394 H390 0.929 . S
C394 C396 1.378 . S
C394 C398 1.350 . S
C395 C398 1.463 . S
C395 C400 1.350 . S
C395 N403 1.427 . S
C396 H387 0.930 . S
C396 C394 1.378 . S
C396 C397 1.367 . S
C397 C396 1.367 . S
C397 C399 1.433 . S
C398 C394 1.350 . S
C398 C395 1.463 . S
C398 N402 1.427 . S
C399 H389 0.929 . S
C399 C397 1.433 . S
C399 N402 1.384 . S
C400 H391 0.929 . S
C400 C392 1.378 . S
C400 C395 1.350 . S
C401 H388 0.929 . S
C401 C393 1.433 . S
C401 N403 1.384 . S
N402 C398 1.427 . S
N402 C399 1.384 . S
N403 C395 1.427 . S
N403 C401 1.384 . S
H404 C410 0.930 . S
H405 C414 0.930 . S
H406 C419 0.929 . S
H407 C417 0.929 . S
H408 C412 0.929 . S
H409 C418 0.929 . S
C410 H404 0.930 . S
C410 C411 1.367 1_545 S
C410 C418 1.378 . S
C411 C410 1.367 1_565 S
C411 C419 1.433 . S
C412 H408 0.929 . S
C412 C414 1.378 . S
C412 C416 1.350 1_565 S
C413 C416 1.463 1_564 S
C413 C418 1.350 1_565 S
C413 N421 1.427 . S
C414 H405 0.930 . S
C414 C412 1.378 . S
C414 C415 1.367 1_565 S
C415 C414 1.367 1_545 S
C415 C417 1.433 . S
C416 C412 1.350 1_545 S
C416 C413 1.463 1_546 S
C416 N420 1.427 . S
C417 H407 0.929 . S
C417 C415 1.433 . S
C417 N420 1.384 . S
C418 H409 0.929 . S
C418 C410 1.378 . S
C418 C413 1.350 1_545 S
C419 H406 0.929 . S
C419 C411 1.433 . S
C419 N421 1.384 . S
N420 C416 1.427 . S
N420 C417 1.384 . S
N421 C413 1.427 . S
N421 C419 1.384 . S
H422 C428 0.930 . S
H423 C432 0.930 . S
H424 C437 0.929 . S
H425 C435 0.929 . S
H426 C430 0.929 . S
H427 C436 0.929 . S
C428 H422 0.930 . S
C428 C429 1.367 . S
C428 C436 1.378 . S
C429 C428 1.367 . S
C429 C437 1.433 . S
C430 H426 0.929 . S
C430 C432 1.378 . S
C430 C434 1.350 . S
C431 C434 1.463 . S
C431 C436 1.350 . S
C431 N439 1.427 . S
C432 H423 0.930 . S
C432 C430 1.378 . S
C432 C433 1.367 . S
C433 C432 1.367 . S
C433 C435 1.433 . S
C434 C430 1.350 . S
C434 C431 1.463 . S
C434 N438 1.427 . S
C435 H425 0.929 . S
C435 C433 1.433 . S
C435 N438 1.384 . S
C436 H427 0.929 . S
C436 C428 1.378 . S
C436 C431 1.350 . S
C437 H424 0.929 . S
C437 C429 1.433 . S
C437 N439 1.384 . S
N438 C434 1.427 . S
N438 C435 1.384 . S
N439 C431 1.427 . S
N439 C437 1.384 . S
H440 C446 0.930 . S
H441 C450 0.930 . S
H442 C455 0.929 . S
H443 C453 0.929 . S
H444 C448 0.929 . S
H445 C454 0.929 . S
C446 H440 0.930 . S
C446 C447 1.367 . S
C446 C454 1.378 . S
C447 C446 1.367 . S
C447 C455 1.433 . S
C448 H444 0.929 . S
C448 C450 1.378 . S
C448 C452 1.350 . S
C449 C452 1.463 . S
C449 C454 1.350 . S
C449 N457 1.427 . S
C450 H441 0.930 . S
C450 C448 1.378 . S
C450 C451 1.367 . S
C451 C450 1.367 . S
C451 C453 1.433 . S
C452 C448 1.350 . S
C452 C449 1.463 . S
C452 N456 1.427 . S
C453 H443 0.929 . S
C453 C451 1.433 . S
C453 N456 1.384 . S
C454 H445 0.929 . S
C454 C446 1.378 . S
C454 C449 1.350 . S
C455 H442 0.929 . S
C455 C447 1.433 . S
C455 N457 1.384 . S
N456 C452 1.427 . S
N456 C453 1.384 . S
N457 C449 1.427 . S
N457 C455 1.384 . S
H458 C464 0.930 . S
H459 C468 0.930 . S
H460 C473 0.929 . S
H461 C471 0.929 . S
H462 C466 0.929 . S
H463 C472 0.929 . S
C464 H458 0.930 . S
C464 C465 1.367 . S
C464 C472 1.378 . S
C465 C464 1.367 . S
C465 C473 1.433 . S
C466 H462 0.929 . S
C466 C468 1.378 . S
C466 C470 1.350 . S
C467 C470 1.463 . S
C467 C472 1.350 . S
C467 N475 1.427 . S
C468 H459 0.930 . S
C468 C466 1.378 . S
C468 C469 1.367 . S
C469 C468 1.367 . S
C469 C471 1.433 . S
C470 C466 1.350 . S
C470 C467 1.463 . S
C470 N474 1.427 . S
C471 H461 0.929 . S
C471 C469 1.433 . S
C471 N474 1.384 . S
C472 H463 0.929 . S
C472 C464 1.378 . S
C472 C467 1.350 . S
C473 H460 0.929 . S
C473 C465 1.433 . S
C473 N475 1.384 . S
N474 C470 1.427 . S
N474 C471 1.384 . S
N475 C467 1.427 . S
N475 C473 1.384 . S
H476 C482 0.930 . S
H477 C486 0.930 . S
H478 C491 0.929 . S
H479 C489 0.929 . S
H480 C484 0.929 . S
H481 C490 0.929 . S
C482 H476 0.930 . S
C482 C483 1.367 . S
C482 C490 1.378 . S
C483 C482 1.367 . S
C483 C491 1.433 . S
C484 H480 0.929 . S
C484 C486 1.378 . S
C484 C488 1.350 . S
C485 C488 1.463 1_556 S
C485 C490 1.350 . S
C485 N493 1.427 . S
C486 H477 0.930 . S
C486 C484 1.378 . S
C486 C487 1.367 . S
C487 C486 1.367 . S
C487 C489 1.433 . S
C488 C484 1.350 . S
C488 C485 1.463 1_554 S
C488 N492 1.427 . S
C489 H479 0.929 . S
C489 C487 1.433 . S
C489 N492 1.384 . S
C490 H481 0.929 . S
C490 C482 1.378 . S
C490 C485 1.350 . S
C491 H478 0.929 . S
C491 C483 1.433 . S
C491 N493 1.384 . S
N492 C488 1.427 . S
N492 C489 1.384 . S
N493 C485 1.427 . S
N493 C491 1.384 . S
H494 C500 0.930 . S
H495 C504 0.930 1_655 S
H496 C509 0.929 1_655 S
H497 C507 0.929 . S
H498 C502 0.929 1_655 S
H499 C508 0.929 . S
C500 H494 0.930 . S
C500 C501 1.367 . S
C500 C508 1.378 . S
C501 C500 1.367 . S
C501 C509 1.433 . S
C502 H498 0.929 1_455 S
C502 C504 1.378 . S
C502 C506 1.350 . S
C503 C506 1.463 . S
C503 C508 1.350 . S
C503 N511 1.427 . S
C504 H495 0.930 1_455 S
C504 C502 1.378 . S
C504 C505 1.367 . S
C505 C504 1.367 . S
C505 C507 1.433 . S
C506 C502 1.350 . S
C506 C503 1.463 . S
C506 N510 1.427 . S
C507 H497 0.929 . S
C507 C505 1.433 . S
C507 N510 1.384 . S
C508 H499 0.929 . S
C508 C500 1.378 . S
C508 C503 1.350 . S
C509 H496 0.929 1_455 S
C509 C501 1.433 . S
C509 N511 1.384 . S
N510 C506 1.427 . S
N510 C507 1.384 . S
N511 C503 1.427 . S
N511 C509 1.384 . S
H512 C518 0.930 . S
H513 C522 0.930 1_545 S
H514 C527 0.929 . S
H515 C525 0.929 . S
H516 C520 0.929 . S
H517 C526 0.929 . S
C518 H512 0.930 . S
C518 C519 1.367 . S
C518 C526 1.378 . S
C519 C518 1.367 . S
C519 C527 1.433 . S
C520 H516 0.929 . S
C520 C522 1.378 . S
C520 C524 1.350 . S
C521 C524 1.463 . S
C521 C526 1.350 . S
C521 N529 1.427 . S
C522 H513 0.930 1_565 S
C522 C520 1.378 . S
C522 C523 1.367 . S
C523 C522 1.367 . S
C523 C525 1.433 . S
C524 C520 1.350 . S
C524 C521 1.463 . S
C524 N528 1.427 . S
C525 H515 0.929 . S
C525 C523 1.433 . S
C525 N528 1.384 . S
C526 H517 0.929 . S
C526 C518 1.378 . S
C526 C521 1.350 . S
C527 H514 0.929 . S
C527 C519 1.433 . S
C527 N529 1.384 . S
N528 C524 1.427 . S
N528 C525 1.384 . S
N529 C521 1.427 . S
N529 C527 1.384 . S
H530 C536 0.930 . S
H531 C540 0.930 . S
H532 C545 0.929 . S
H533 C543 0.929 . S
H534 C538 0.929 . S
H535 C544 0.929 . S
C536 H530 0.930 . S
C536 C537 1.367 . S
C536 C544 1.378 . S
C537 C536 1.367 . S
C537 C545 1.433 . S
C538 H534 0.929 . S
C538 C540 1.378 . S
C538 C542 1.350 . S
C539 C542 1.463 . S
C539 C544 1.350 . S
C539 N547 1.427 . S
C540 H531 0.930 . S
C540 C538 1.378 . S
C540 C541 1.367 . S
C541 C540 1.367 . S
C541 C543 1.433 . S
C542 C538 1.350 . S
C542 C539 1.463 . S
C542 N546 1.427 . S
C543 H533 0.929 . S
C543 C541 1.433 . S
C543 N546 1.384 . S
C544 H535 0.929 . S
C544 C536 1.378 . S
C544 C539 1.350 . S
C545 H532 0.929 . S
C545 C537 1.433 . S
C545 N547 1.384 . S
N546 C542 1.427 . S
N546 C543 1.384 . S
N547 C539 1.427 . S
N547 C545 1.384 . S
H548 C554 0.910 1_565 S
H549 C558 0.930 . S
H550 C563 0.929 . S
H551 C561 0.929 . S
H552 C556 0.929 . S
H553 C562 0.929 . S
C554 H548 0.910 1_545 S
C554 C555 1.367 . S
C554 C562 1.378 . S
C555 C554 1.367 . S
C555 C563 1.433 . S
C556 H552 0.929 . S
C556 C558 1.378 . S
C556 C560 1.350 . S
C557 C560 1.463 . S
C557 C562 1.350 . S
C557 N565 1.427 . S
C558 H549 0.930 . S
C558 C556 1.378 . S
C558 C559 1.367 . S
C559 C558 1.367 . S
C559 C561 1.433 . S
C560 C556 1.350 . S
C560 C557 1.463 . S
C560 N564 1.427 . S
C561 H551 0.929 . S
C561 C559 1.433 . S
C561 N564 1.384 . S
C562 H553 0.929 . S
C562 C554 1.378 . S
C562 C557 1.350 . S
C563 H550 0.929 . S
C563 C555 1.433 . S
C563 N565 1.384 . S
N564 C560 1.427 . S
N564 C561 1.384 . S
N565 C557 1.427 . S
N565 C563 1.384 . S
H566 C572 0.930 . S
H567 C576 0.930 . S
H568 C581 0.929 1_565 S
H569 C579 0.929 . S
H570 C574 0.929 . S
H571 C580 0.929 . S
C572 H566 0.930 . S
C572 C573 1.367 . S
C572 C580 1.378 . S
C573 C572 1.367 . S
C573 C581 1.433 . S
C574 H570 0.929 . S
C574 C576 1.378 . S
C574 C578 1.350 . S
C575 C578 1.463 . S
C575 C580 1.350 . S
C575 N583 1.427 . S
C576 H567 0.930 . S
C576 C574 1.378 . S
C576 C577 1.367 . S
C577 C576 1.367 . S
C577 C579 1.433 . S
C578 C574 1.350 . S
C578 C575 1.463 . S
C578 N582 1.427 . S
C579 H569 0.929 . S
C579 C577 1.433 . S
C579 N582 1.384 . S
C580 H571 0.929 . S
C580 C572 1.378 . S
C580 C575 1.350 . S
C581 H568 0.929 1_545 S
C581 C573 1.433 . S
C581 N583 1.384 . S
N582 C578 1.427 . S
N582 C579 1.384 . S
N583 C575 1.427 . S
N583 C581 1.384 . S
H584 C590 0.930 . S
H585 C594 0.930 . S
H586 C599 0.929 . S
H587 C597 0.929 . S
H588 C592 0.929 . S
H589 C598 0.929 . S
C590 H584 0.930 . S
C590 C591 1.367 . S
C590 C598 1.378 . S
C591 C590 1.367 . S
C591 C599 1.433 . S
C592 H588 0.929 . S
C592 C594 1.378 . S
C592 C596 1.350 . S
C593 C596 1.463 . S
C593 C598 1.350 . S
C593 N601 1.427 . S
C594 H585 0.930 . S
C594 C592 1.378 . S
C594 C595 1.367 . S
C595 C594 1.367 . S
C595 C597 1.433 . S
C596 C592 1.350 . S
C596 C593 1.463 . S
C596 N600 1.427 . S
C597 H587 0.929 . S
C597 C595 1.433 . S
C597 N600 1.384 . S
C598 H589 0.929 . S
C598 C590 1.378 . S
C598 C593 1.350 . S
C599 H586 0.929 . S
C599 C591 1.433 . S
C599 N601 1.384 . S
N600 C596 1.427 . S
N600 C597 1.384 . S
N601 C593 1.427 . S
N601 C599 1.384 . S
H602 C608 0.930 . S
H603 C612 0.930 . S
H604 C617 0.929 . S
H605 C615 0.929 . S
H606 C610 0.929 . S
H607 C616 0.929 . S
C608 H602 0.930 . S
C608 C609 1.367 . S
C608 C616 1.378 . S
C609 C608 1.367 . S
C609 C617 1.433 . S
C610 H606 0.929 . S
C610 C612 1.378 . S
C610 C614 1.350 . S
C611 C614 1.463 . S
C611 C616 1.350 . S
C611 N619 1.427 . S
C612 H603 0.930 . S
C612 C610 1.378 . S
C612 C613 1.367 . S
C613 C612 1.367 . S
C613 C615 1.433 . S
C614 C610 1.350 . S
C614 C611 1.463 . S
C614 N618 1.427 . S
C615 H605 0.929 . S
C615 C613 1.433 . S
C615 N618 1.384 . S
C616 H607 0.929 . S
C616 C608 1.378 . S
C616 C611 1.350 . S
C617 H604 0.929 . S
C617 C609 1.433 . S
C617 N619 1.384 . S
N618 C614 1.427 . S
N618 C615 1.384 . S
N619 C611 1.427 . S
N619 C617 1.384 . S
H620 C626 0.930 . S
H621 C630 0.930 . S
H622 C635 0.929 . S
H623 C633 0.929 . S
H624 C628 0.929 . S
H625 C634 0.929 . S
C626 H620 0.930 . S
C626 C627 1.367 . S
C626 C634 1.378 . S
C627 C626 1.367 . S
C627 C635 1.433 . S
C628 H624 0.929 . S
C628 C630 1.378 . S
C628 C632 1.350 . S
C629 C632 1.463 . S
C629 C634 1.350 . S
C629 N637 1.427 . S
C630 H621 0.930 . S
C630 C628 1.378 . S
C630 C631 1.367 . S
C631 C630 1.367 . S
C631 C633 1.433 . S
C632 C628 1.350 . S
C632 C629 1.463 . S
C632 N636 1.427 . S
C633 H623 0.929 . S
C633 C631 1.433 . S
C633 N636 1.384 . S
C634 H625 0.929 . S
C634 C626 1.378 . S
C634 C629 1.350 . S
C635 H622 0.929 . S
C635 C627 1.433 . S
C635 N637 1.384 . S
N636 C632 1.427 . S
N636 C633 1.384 . S
N637 C629 1.427 . S
N637 C635 1.384 . S
H638 C644 0.930 . S
H639 C648 0.930 . S
H640 C653 0.929 . S
H641 C651 0.929 . S
H642 C646 0.929 . S
H643 C652 0.929 . S
C644 H638 0.930 . S
C644 C645 1.367 . S
C644 C652 1.378 . S
C645 C644 1.367 . S
C645 C653 1.433 . S
C646 H642 0.929 . S
C646 C648 1.378 . S
C646 C650 1.350 . S
C647 C650 1.463 . S
C647 C652 1.350 . S
C647 N655 1.427 . S
C648 H639 0.930 . S
C648 C646 1.378 . S
C648 C649 1.367 . S
C649 C648 1.367 . S
C649 C651 1.433 . S
C650 C646 1.350 . S
C650 C647 1.463 . S
C650 N654 1.427 . S
C651 H641 0.929 . S
C651 C649 1.433 . S
C651 N654 1.384 . S
C652 H643 0.929 . S
C652 C644 1.378 . S
C652 C647 1.350 . S
C653 H640 0.929 . S
C653 C645 1.433 . S
C653 N655 1.384 . S
N654 C650 1.427 . S
N654 C651 1.384 . S
N655 C647 1.427 . S
N655 C653 1.384 . S
H656 C662 0.930 . S
H657 C666 0.930 . S
H658 C671 0.929 . S
H659 C669 0.929 . S
H660 C664 0.929 . S
H661 C670 0.929 . S
C662 H656 0.930 . S
C662 C663 1.367 . S
C662 C670 1.378 . S
C663 C662 1.367 . S
C663 C671 1.433 . S
C664 H660 0.929 . S
C664 C666 1.378 . S
C664 C668 1.350 . S
C665 C668 1.463 . S
C665 C670 1.350 . S
C665 N673 1.427 . S
C666 H657 0.930 . S
C666 C664 1.378 . S
C666 C667 1.367 . S
C667 C666 1.367 . S
C667 C669 1.433 . S
C668 C664 1.350 . S
C668 C665 1.463 . S
C668 N672 1.427 . S
C669 H659 0.929 . S
C669 C667 1.433 . S
C669 N672 1.384 . S
C670 H661 0.929 . S
C670 C662 1.378 . S
C670 C665 1.350 . S
C671 H658 0.929 . S
C671 C663 1.433 . S
C671 N673 1.384 . S
N672 C668 1.427 . S
N672 C669 1.384 . S
N673 C665 1.427 . S
N673 C671 1.384 . S
H674 C680 0.930 . S
H675 C684 0.930 . S
H676 C689 0.929 . S
H677 C687 0.929 . S
H678 C682 0.929 . S
H679 C688 0.929 . S
C680 H674 0.930 . S
C680 C681 1.367 . S
C680 C688 1.378 . S
C681 C680 1.367 . S
C681 C689 1.433 . S
C682 H678 0.929 . S
C682 C684 1.378 . S
C682 C686 1.350 . S
C683 C686 1.463 . S
C683 C688 1.350 . S
C683 N691 1.427 . S
C684 H675 0.930 . S
C684 C682 1.378 . S
C684 C685 1.367 . S
C685 C684 1.367 . S
C685 C687 1.433 . S
C686 C682 1.350 . S
C686 C683 1.463 . S
C686 N690 1.427 . S
C687 H677 0.929 . S
C687 C685 1.433 . S
C687 N690 1.384 . S
C688 H679 0.929 . S
C688 C680 1.378 . S
C688 C683 1.350 . S
C689 H676 0.929 . S
C689 C681 1.433 . S
C689 N691 1.384 . S
N690 C686 1.427 . S
N690 C687 1.384 . S
N691 C683 1.427 . S
N691 C689 1.384 . S
H692 C698 0.930 . S
H693 C702 0.930 . S
H694 C707 0.929 . S
H695 C705 0.929 . S
H696 C700 0.929 . S
H697 C706 0.929 . S
C698 H692 0.930 . S
C698 C699 1.367 . S
C698 C706 1.378 . S
C699 C698 1.367 . S
C699 C707 1.433 . S
C700 H696 0.929 . S
C700 C702 1.378 . S
C700 C704 1.350 . S
C701 C704 1.463 . S
C701 C706 1.350 . S
C701 N709 1.427 . S
C702 H693 0.930 . S
C702 C700 1.378 . S
C702 C703 1.367 . S
C703 C702 1.367 . S
C703 C705 1.433 . S
C704 C700 1.350 . S
C704 C701 1.463 . S
C704 N708 1.427 . S
C705 H695 0.929 . S
C705 C703 1.433 . S
C705 N708 1.384 . S
C706 H697 0.929 . S
C706 C698 1.378 . S
C706 C701 1.350 . S
C707 H694 0.929 . S
C707 C699 1.433 . S
C707 N709 1.384 . S
N708 C704 1.427 . S
N708 C705 1.384 . S
N709 C701 1.427 . S
N709 C707 1.384 . S
H710 C716 0.930 . S
H711 C720 0.930 . S
H712 C725 0.929 . S
H713 C723 0.929 . S
H714 C718 0.929 . S
H715 C724 0.929 . S
C716 H710 0.930 . S
C716 C717 1.367 . S
C716 C724 1.378 . S
C717 C716 1.367 . S
C717 C725 1.433 . S
C718 H714 0.929 . S
C718 C720 1.378 . S
C718 C722 1.350 . S
C719 C722 1.463 . S
C719 C724 1.350 . S
C719 N727 1.427 . S
C720 H711 0.930 . S
C720 C718 1.378 . S
C720 C721 1.367 . S
C721 C720 1.367 . S
C721 C723 1.433 . S
C722 C718 1.350 . S
C722 C719 1.463 . S
C722 N726 1.427 . S
C723 H713 0.929 . S
C723 C721 1.433 . S
C723 N726 1.384 . S
C724 H715 0.929 . S
C724 C716 1.378 . S
C724 C719 1.350 . S
C725 H712 0.929 . S
C725 C717 1.433 . S
C725 N727 1.384 . S
N726 C722 1.427 . S
N726 C723 1.384 . S
N727 C719 1.427 . S
N727 C725 1.384 . S
H728 C734 0.930 . S
H729 C738 0.930 . S
H730 C743 0.929 . S
H731 C741 0.929 . S
H732 C736 0.929 . S
H733 C742 0.929 . S
C734 H728 0.930 . S
C734 C735 1.367 . S
C734 C742 1.378 . S
C735 C734 1.367 . S
C735 C743 1.433 . S
C736 H732 0.929 . S
C736 C738 1.378 . S
C736 C740 1.350 . S
C737 C740 1.463 . S
C737 C742 1.350 . S
C737 N745 1.427 . S
C738 H729 0.930 . S
C738 C736 1.378 . S
C738 C739 1.367 . S
C739 C738 1.367 . S
C739 C741 1.433 . S
C740 C736 1.350 . S
C740 C737 1.463 . S
C740 N744 1.427 . S
C741 H731 0.929 . S
C741 C739 1.433 . S
C741 N744 1.384 . S
C742 H733 0.929 . S
C742 C734 1.378 . S
C742 C737 1.350 . S
C743 H730 0.929 . S
C743 C735 1.433 . S
C743 N745 1.384 . S
N744 C740 1.427 . S
N744 C741 1.384 . S
N745 C737 1.427 . S
N745 C743 1.384 . S
H746 C752 0.930 . S
H747 C756 0.930 . S
H748 C761 0.929 . S
H749 C759 0.929 . S
H750 C754 0.929 . S
H751 C760 0.929 . S
C752 H746 0.930 . S
C752 C753 1.367 . S
C752 C760 1.378 . S
C753 C752 1.367 . S
C753 C761 1.433 . S
C754 H750 0.929 . S
C754 C756 1.378 . S
C754 C758 1.350 . S
C755 C758 1.463 . S
C755 C760 1.350 . S
C755 N763 1.427 . S
C756 H747 0.930 . S
C756 C754 1.378 . S
C756 C757 1.367 . S
C757 C756 1.367 . S
C757 C759 1.433 . S
C758 C754 1.350 . S
C758 C755 1.463 . S
C758 N762 1.427 . S
C759 H749 0.929 . S
C759 C757 1.433 . S
C759 N762 1.384 . S
C760 H751 0.929 . S
C760 C752 1.378 . S
C760 C755 1.350 . S
C761 H748 0.929 . S
C761 C753 1.433 . S
C761 N763 1.384 . S
N762 C758 1.427 . S
N762 C759 1.384 . S
N763 C755 1.427 . S
N763 C761 1.384 . S
H764 C770 0.930 . S
H765 C774 0.930 . S
H766 C779 0.929 . S
H767 C777 0.929 . S
H768 C772 0.929 . S
H769 C778 0.929 . S
C770 H764 0.930 . S
C770 C771 1.367 . S
C770 C778 1.378 . S
C771 C770 1.367 . S
C771 C779 1.433 . S
C772 H768 0.929 . S
C772 C774 1.378 . S
C772 C776 1.350 . S
C773 C776 1.463 . S
C773 C778 1.350 . S
C773 N781 1.427 . S
C774 H765 0.930 . S
C774 C772 1.378 . S
C774 C775 1.367 . S
C775 C774 1.367 . S
C775 C777 1.433 . S
C776 C772 1.350 . S
C776 C773 1.463 . S
C776 N780 1.427 . S
C777 H767 0.929 . S
C777 C775 1.433 . S
C777 N780 1.384 . S
C778 H769 0.929 . S
C778 C770 1.378 . S
C778 C773 1.350 . S
C779 H766 0.929 . S
C779 C771 1.433 . S
C779 N781 1.384 . S
N780 C776 1.427 . S
N780 C777 1.384 . S
N781 C773 1.427 . S
N781 C779 1.384 . S
H782 C788 0.930 . S
H783 C792 0.930 . S
H784 C797 0.929 . S
H785 C795 0.929 . S
H786 C790 0.929 . S
H787 C796 0.929 . S
C788 H782 0.930 . S
C788 C789 1.367 . S
C788 C796 1.378 . S
C789 C788 1.367 . S
C789 C797 1.433 . S
C790 H786 0.929 . S
C790 C792 1.378 . S
C790 C794 1.350 . S
C791 C794 1.463 . S
C791 C796 1.350 . S
C791 N799 1.427 . S
C792 H783 0.930 . S
C792 C790 1.378 . S
C792 C793 1.367 . S
C793 C792 1.367 . S
C793 C795 1.433 . S
C794 C790 1.350 . S
C794 C791 1.463 . S
C794 N798 1.427 . S
C795 H785 0.929 . S
C795 C793 1.433 . S
C795 N798 1.384 . S
C796 H787 0.929 . S
C796 C788 1.378 . S
C796 C791 1.350 . S
C797 H784 0.929 . S
C797 C789 1.433 . S
C797 N799 1.384 . S
N798 C794 1.427 . S
N798 C795 1.384 . S
N799 C791 1.427 . S
N799 C797 1.384 . S
C231 C8 1.305 . S
C235 C190 1.305 . S
C249 C162 1.300 . S
C253 C22 1.300 . S
C267 C176 1.296 . S
C271 C36 1.296 . S
C285 C148 1.302 . S
C289 C50 1.302 . S
C303 C64 1.302 . S
C307 C218 1.302 . S
C321 C78 1.298 . S
C325 C134 1.298 . S
C339 C204 1.298 . S
C343 C92 1.298 . S
C357 C106 1.305 . S
C361 C120 1.305 . S
C375 C63 1.591 . S
C379 C7 1.592 1_655 S
C393 C21 1.593 . S
C397 C77 1.592 . S
C411 C35 1.584 . S
C415 C91 1.581 . S
C429 C105 1.584 . S
C433 C49 1.588 . S
C447 C119 1.592 . S
C451 C147 1.588 . S
C465 C133 1.580 . S
C469 C161 1.582 . S
C483 C203 1.591 . S
C487 C175 1.586 . S
C501 C189 1.582 . S
C505 C217 1.580 . S
C519 C73 1.439 . S
C523 C3 1.444 1_565 S
C537 C17 1.437 . S
C541 C87 1.436 1_565 S
C555 C31 1.443 1_545 S
C559 C101 1.440 . S
C573 C59 1.435 1_545 S
C577 C45 1.439 . S
C591 C65 1.214 . S
C595 C149 1.217 . S
C609 C37 1.219 . S
C613 C121 1.208 . S
C627 C163 1.211 . S
C631 C93 1.220 . S
C645 C135 1.214 . S
C649 C9 1.217 . S
C663 C115 1.439 . S
C667 C171 1.443 . S
C681 C143 1.438 . S
C685 C213 1.435 . S
C699 C185 1.437 . S
C703 C129 1.444 . S
C717 C157 1.443 . S
C721 C199 1.439 . S
C735 C205 1.218 . S
C739 C23 1.208 . S
C753 C191 1.216 . S
C757 C79 1.209 . S
C771 C219 1.212 . S
C775 C51 1.212 . S
C789 C177 1.217 . S
C793 C107 1.209 . S
