# Generated by pormake.
# Topology unv, (4)-cn, num edge types: 1
# Building blocks:
#     Node 0, Type 0, BuildingBlock: NAHDIM_clean_sbu_0, # of connection points: 4
#     Node 1, Type 0, BuildingBlock: NAHDIM_clean_sbu_0, # of connection points: 4
#     Node 2, Type 0, BuildingBlock: NAHDIM_clean_sbu_0, # of connection points: 4
#     Node 3, Type 0, BuildingBlock: NAHDIM_clean_sbu_0, # of connection points: 4
#     Node 4, Type 0, BuildingBlock: NAHDIM_clean_sbu_0, # of connection points: 4
#     Node 5, Type 0, BuildingBlock: NAHDIM_clean_sbu_0, # of connection points: 4
#     Node 6, Type 0, BuildingBlock: NAHDIM_clean_sbu_0, # of connection points: 4
#     Node 7, Type 0, BuildingBlock: NAHDIM_clean_sbu_0, # of connection points: 4
#     Node 8, Type 0, BuildingBlock: NAHDIM_clean_sbu_0, # of connection points: 4
#     Node 9, Type 0, BuildingBlock: NAHDIM_clean_sbu_0, # of connection points: 4
#     Node 10, Type 0, BuildingBlock: NAHDIM_clean_sbu_0, # of connection points: 4
#     Node 11, Type 0, BuildingBlock: NAHDIM_clean_sbu_0, # of connection points: 4
#     Node 12, Type 0, BuildingBlock: NAHDIM_clean_sbu_0, # of connection points: 4
#     Node 13, Type 0, BuildingBlock: NAHDIM_clean_sbu_0, # of connection points: 4
#     Node 14, Type 0, BuildingBlock: NAHDIM_clean_sbu_0, # of connection points: 4
#     Node 15, Type 0, BuildingBlock: NAHDIM_clean_sbu_0, # of connection points: 4
#     Node 16, Type 0, BuildingBlock: NAHDIM_clean_sbu_0, # of connection points: 4
#     Node 17, Type 0, BuildingBlock: NAHDIM_clean_sbu_0, # of connection points: 4
#     Node 18, Type 0, BuildingBlock: NAHDIM_clean_sbu_0, # of connection points: 4
#     Node 19, Type 0, BuildingBlock: NAHDIM_clean_sbu_0, # of connection points: 4
#     Node 20, Type 0, BuildingBlock: NAHDIM_clean_sbu_0, # of connection points: 4
#     Node 21, Type 0, BuildingBlock: NAHDIM_clean_sbu_0, # of connection points: 4
#     Node 22, Type 0, BuildingBlock: NAHDIM_clean_sbu_0, # of connection points: 4
#     Node 23, Type 0, BuildingBlock: NAHDIM_clean_sbu_0, # of connection points: 4
#     Edge 24, Type (0, 0), BuildingBlock: MIFKUJ_clean_linker_0, # of connection points: 2
#     Edge 25, Type (0, 0), BuildingBlock: MIFKUJ_clean_linker_0, # of connection points: 2
#     Edge 26, Type (0, 0), BuildingBlock: MIFKUJ_clean_linker_0, # of connection points: 2
#     Edge 27, Type (0, 0), BuildingBlock: MIFKUJ_clean_linker_0, # of connection points: 2
#     Edge 28, Type (0, 0), BuildingBlock: MIFKUJ_clean_linker_0, # of connection points: 2
#     Edge 29, Type (0, 0), BuildingBlock: MIFKUJ_clean_linker_0, # of connection points: 2
#     Edge 30, Type (0, 0), BuildingBlock: MIFKUJ_clean_linker_0, # of connection points: 2
#     Edge 31, Type (0, 0), BuildingBlock: MIFKUJ_clean_linker_0, # of connection points: 2
#     Edge 32, Type (0, 0), BuildingBlock: MIFKUJ_clean_linker_0, # of connection points: 2
#     Edge 33, Type (0, 0), BuildingBlock: MIFKUJ_clean_linker_0, # of connection points: 2
#     Edge 34, Type (0, 0), BuildingBlock: MIFKUJ_clean_linker_0, # of connection points: 2
#     Edge 35, Type (0, 0), BuildingBlock: MIFKUJ_clean_linker_0, # of connection points: 2
#     Edge 36, Type (0, 0), BuildingBlock: MIFKUJ_clean_linker_0, # of connection points: 2
#     Edge 37, Type (0, 0), BuildingBlock: MIFKUJ_clean_linker_0, # of connection points: 2
#     Edge 38, Type (0, 0), BuildingBlock: MIFKUJ_clean_linker_0, # of connection points: 2
#     Edge 39, Type (0, 0), BuildingBlock: MIFKUJ_clean_linker_0, # of connection points: 2
#     Edge 40, Type (0, 0), BuildingBlock: MIFKUJ_clean_linker_0, # of connection points: 2
#     Edge 41, Type (0, 0), BuildingBlock: MIFKUJ_clean_linker_0, # of connection points: 2
#     Edge 42, Type (0, 0), BuildingBlock: MIFKUJ_clean_linker_0, # of connection points: 2
#     Edge 43, Type (0, 0), BuildingBlock: MIFKUJ_clean_linker_0, # of connection points: 2
#     Edge 44, Type (0, 0), BuildingBlock: MIFKUJ_clean_linker_0, # of connection points: 2
#     Edge 45, Type (0, 0), BuildingBlock: MIFKUJ_clean_linker_0, # of connection points: 2
#     Edge 46, Type (0, 0), BuildingBlock: MIFKUJ_clean_linker_0, # of connection points: 2
#     Edge 47, Type (0, 0), BuildingBlock: MIFKUJ_clean_linker_0, # of connection points: 2
#     Edge 48, Type (0, 0), BuildingBlock: MIFKUJ_clean_linker_0, # of connection points: 2
#     Edge 49, Type (0, 0), BuildingBlock: MIFKUJ_clean_linker_0, # of connection points: 2
#     Edge 50, Type (0, 0), BuildingBlock: MIFKUJ_clean_linker_0, # of connection points: 2
#     Edge 51, Type (0, 0), BuildingBlock: MIFKUJ_clean_linker_0, # of connection points: 2
#     Edge 52, Type (0, 0), BuildingBlock: MIFKUJ_clean_linker_0, # of connection points: 2
#     Edge 53, Type (0, 0), BuildingBlock: MIFKUJ_clean_linker_0, # of connection points: 2
#     Edge 54, Type (0, 0), BuildingBlock: MIFKUJ_clean_linker_0, # of connection points: 2
#     Edge 55, Type (0, 0), BuildingBlock: MIFKUJ_clean_linker_0, # of connection points: 2
#     Edge 56, Type (0, 0), BuildingBlock: MIFKUJ_clean_linker_0, # of connection points: 2
#     Edge 57, Type (0, 0), BuildingBlock: MIFKUJ_clean_linker_0, # of connection points: 2
#     Edge 58, Type (0, 0), BuildingBlock: MIFKUJ_clean_linker_0, # of connection points: 2
#     Edge 59, Type (0, 0), BuildingBlock: MIFKUJ_clean_linker_0, # of connection points: 2
#     Edge 60, Type (0, 0), BuildingBlock: MIFKUJ_clean_linker_0, # of connection points: 2
#     Edge 61, Type (0, 0), BuildingBlock: MIFKUJ_clean_linker_0, # of connection points: 2
#     Edge 62, Type (0, 0), BuildingBlock: MIFKUJ_clean_linker_0, # of connection points: 2
#     Edge 63, Type (0, 0), BuildingBlock: MIFKUJ_clean_linker_0, # of connection points: 2
#     Edge 64, Type (0, 0), BuildingBlock: MIFKUJ_clean_linker_0, # of connection points: 2
#     Edge 65, Type (0, 0), BuildingBlock: MIFKUJ_clean_linker_0, # of connection points: 2
#     Edge 66, Type (0, 0), BuildingBlock: MIFKUJ_clean_linker_0, # of connection points: 2
#     Edge 67, Type (0, 0), BuildingBlock: MIFKUJ_clean_linker_0, # of connection points: 2
#     Edge 68, Type (0, 0), BuildingBlock: MIFKUJ_clean_linker_0, # of connection points: 2
#     Edge 69, Type (0, 0), BuildingBlock: MIFKUJ_clean_linker_0, # of connection points: 2
#     Edge 70, Type (0, 0), BuildingBlock: MIFKUJ_clean_linker_0, # of connection points: 2
#     Edge 71, Type (0, 0), BuildingBlock: MIFKUJ_clean_linker_0, # of connection points: 2
# Relax obj value: 0.376
# Max RMSD: 0.323
# Mean RMSD: 0.306
data_MOF--net-unv--node1-NAHDIM_clean_sbu_0--edge1-MIFKUJ_clean_linker_0
_symmetry_space_group_name_H-M    P1
_symmetry_Int_Tables_number       1
_symmetry_cell_setting            triclinic
loop_
_symmetry_equiv_pos_as_xyz
'x, y, z'
_cell_length_a     61.975624
_cell_length_b     61.971009
_cell_length_c     61.932064
_cell_angle_alpha  90.003159
_cell_angle_beta   90.016554
_cell_angle_gamma 90.036948
loop_
_atom_site_label
_atom_site_type_symbol
_atom_site_fract_x
_atom_site_fract_y
_atom_site_fract_z
_atom_type_partial_charge
C0 C 0.94463 0.14485 0.3719 0.0
O1 O 0.93704 0.13198 0.35684 0.0
O2 O 0.96589 0.0933 0.35989 0.0
Zn3 Zn 0.96218 0.10549 0.38975 0.0
O4 O 0.99009 0.10334 0.4063 0.0
C5 C 0.94763 0.06755 0.40719 0.0
O6 O 0.96415 0.06189 0.39516 0.0
O7 O 0.95429 0.13674 0.38806 0.0
C8 C 0.00689 0.09331 0.40017 0.0
O9 O 0.00729 0.08432 0.38098 0.0
C10 C 0.97845 0.1017 0.34601 0.0
O11 O 0.98908 0.11938 0.35096 0.0
O12 O 0.94151 0.08713 0.40681 0.0
C13 C 0.034 0.35108 0.33688 0.0
O14 O 0.02685 0.36501 0.3226 0.0
O15 O 0.02543 0.40793 0.34152 0.0
Zn16 Zn 0.03751 0.38849 0.36449 0.0
O17 O 0.01608 0.38731 0.38872 0.0
C18 C 0.07502 0.41526 0.36397 0.0
O19 O 0.07148 0.41483 0.34305 0.0
O20 O 0.04152 0.35797 0.35468 0.0
C21 C 0.00742 0.40461 0.39543 0.0
O22 O 0.01285 0.42303 0.38644 0.0
C23 C 0.00563 0.40881 0.33629 0.0
O24 O 0.9919 0.3952 0.34501 0.0
O25 O 0.06402 0.4029 0.3761 0.0
C26 C 0.00736 0.8737 0.1633 0.0
O27 O 0.02606 0.88133 0.15685 0.0
O28 O 0.00303 0.93593 0.17775 0.0
Zn29 Zn 0.99473 0.91658 0.15309 0.0
O30 O 0.01718 0.91749 0.12941 0.0
C31 C 0.95576 0.9421 0.15021 0.0
O32 O 0.96039 0.94688 0.17035 0.0
O33 O 0.99104 0.8861 0.16341 0.0
C34 C 0.01433 0.92974 0.11319 0.0
O35 O 0.99732 0.94235 0.1126 0.0
C36 C 0.01462 0.95271 0.1755 0.0
O37 O 0.02346 0.9568 0.15667 0.0
O38 O 0.967 0.928 0.14046 0.0
C39 C 0.98571 0.6454 0.17379 0.0
O40 O 0.96821 0.63514 0.17999 0.0
O41 O 0.98652 0.58719 0.18111 0.0
Zn42 Zn 0.99512 0.6044 0.15499 0.0
O43 O 0.97283 0.60289 0.13124 0.0
C44 C 0.03399 0.57827 0.15356 0.0
O45 O 0.02917 0.5742 0.1738 0.0
O46 O -0.0001 0.6353 0.163 0.0
C47 C 0.97429 0.5875 0.11775 0.0
O48 O 0.98893 0.57249 0.12084 0.0
C49 C 0.9703 0.57473 0.18254 0.0
O50 O 0.95668 0.57343 0.16634 0.0
O51 O 0.02254 0.59163 0.14302 0.0
C52 C 0.33844 0.00059 0.14238 0.0
O53 O 0.32143 0.00458 0.13038 0.0
O54 O 0.33576 0.00154 0.08364 0.0
Zn55 Zn 0.3625 0.00132 0.10185 0.0
O56 O 0.37862 0.02895 0.09717 0.0
C57 C 0.37642 0.9631 0.07852 0.0
O58 O 0.35577 0.96076 0.07431 0.0
O59 O 0.35671 0.99802 0.13345 0.0
C60 C 0.38405 0.03312 0.07784 0.0
O61 O 0.37763 0.0201 0.06237 0.0
C62 C 0.32455 0.01842 0.08059 0.0
O63 O 0.32957 0.03624 0.09093 0.0
O64 O 0.38246 0.97825 0.09095 0.0
C65 C 0.66479 0.55211 0.12144 0.0
O66 O 0.67924 0.54606 0.10718 0.0
O67 O 0.6594 0.53562 0.06734 0.0
Zn68 Zn 0.63504 0.54639 0.08586 0.0
O69 O 0.61373 0.52223 0.08875 0.0
C70 C 0.62358 0.5759 0.05177 0.0
O71 O 0.64162 0.5688 0.04322 0.0
O72 O 0.64527 0.55454 0.11559 0.0
C73 C 0.60749 0.5134 0.07132 0.0
O74 O 0.61571 0.52003 0.05292 0.0
C75 C 0.66694 0.51669 0.06959 0.0
O76 O 0.65928 0.5042 0.08493 0.0
O77 O 0.61858 0.57 0.07078 0.0
C78 C 0.36189 0.03708 0.36743 0.0
O79 O 0.38213 0.03804 0.37369 0.0
O80 O 0.33496 0.00164 0.42274 0.0
Zn81 Zn 0.35714 0.02173 0.41021 0.0
O82 O 0.38473 0.00517 0.40639 0.0
C83 C 0.35416 0.04733 0.44899 0.0
O84 O 0.33731 0.035 0.45266 0.0
O85 O 0.34752 0.03199 0.38111 0.0
C86 C 0.38562 0.98717 0.39662 0.0
O87 O 0.36785 0.97868 0.38878 0.0
C88 C 0.32152 0.99114 0.41133 0.0
O89 O 0.3217 0.99343 0.39024 0.0
O90 O 0.36393 0.04574 0.43102 0.0
C91 C 0.64284 0.4956 0.33982 0.0
O92 O 0.63582 0.51031 0.35338 0.0
O93 O 0.65335 0.48553 0.39631 0.0
Zn94 Zn 0.63158 0.47258 0.37582 0.0
O95 O 0.60317 0.48827 0.37792 0.0
C96 C 0.63701 0.43374 0.40013 0.0
O97 O 0.65614 0.44201 0.40404 0.0
O98 O 0.64287 0.47594 0.3457 0.0
C99 C 0.59006 0.48384 0.39307 0.0
O100 O 0.59536 0.46923 0.40749 0.0
C101 C 0.64869 0.49769 0.41216 0.0
O102 O 0.6286 0.50366 0.41515 0.0
O103 O 0.62548 0.44214 0.38537 0.0
C104 C 0.15107 0.35536 0.01701 0.0
O105 O 0.14001 0.36064 0.03432 0.0
O106 O 0.09215 0.35075 0.00827 0.0
Zn107 Zn 0.11385 0.37299 -0.00076 0.0
O108 O 0.11368 0.39759 0.02047 0.0
C109 C 0.09444 0.37065 0.95757 0.0
O110 O 0.09542 0.34989 0.96177 0.0
O111 O 0.14309 0.35928 0.99852 0.0
C112 C 0.11496 0.41714 0.0144 0.0
O113 O 0.11687 0.42149 0.99373 0.0
C114 C 0.08031 0.35137 0.02499 0.0
O115 O 0.08267 0.36716 0.03894 0.0
O116 O 0.10356 0.38377 0.97045 0.0
C117 C 0.12765 0.6637 0.49133 0.0
O118 O 0.11713 0.66503 0.47295 0.0
O119 O 0.06836 0.67164 0.4973 0.0
Zn120 Zn 0.08761 0.64639 0.50368 0.0
O121 O 0.08754 0.62472 0.47929 0.0
C122 C 0.06424 0.63994 0.54408 0.0
O123 O 0.05985 0.66061 0.54255 0.0
O124 O 0.11793 0.65644 0.50785 0.0
C125 C 0.07525 0.60831 0.48015 0.0
O126 O 0.06174 0.60638 0.49637 0.0
C127 C 0.04829 0.66871 0.49427 0.0
O128 O 0.04071 0.64891 0.49389 0.0
O129 O 0.07673 0.63128 0.5303 0.0
C130 C 0.8423 0.86502 0.53544 0.0
O131 O 0.8537 0.88145 0.5284 0.0
O132 O 0.89621 0.84315 0.563 0.0
Zn133 Zn 0.87331 0.86485 0.57053 0.0
O134 O 0.88218 0.89503 0.56175 0.0
C135 C 0.87841 0.86922 0.61739 0.0
O136 O 0.87135 0.87005 0.63736 0.0
O137 O 0.84734 0.85609 0.55322 0.0
C138 C 0.90133 0.90006 0.55636 0.0
O139 O 0.9166 0.88546 0.55753 0.0
C140 C 0.90235 0.84102 0.54354 0.0
O141 O 0.89392 0.85346 0.52859 0.0
O142 O 0.86557 0.86391 0.60229 0.0
C143 C 0.35605 0.64878 0.50503 0.0
O144 O 0.36512 0.64894 0.52421 0.0
O145 O 0.41472 0.66024 0.50325 0.0
Zn146 Zn 0.39765 0.63411 0.4943 0.0
O147 O 0.39815 0.61075 0.5169 0.0
C148 C 0.42817 0.62918 0.45948 0.0
O149 O 0.43593 0.64724 0.46741 0.0
O150 O 0.36712 0.64284 0.48883 0.0
C151 C 0.41497 0.59915 0.51855 0.0
O152 O 0.43184 0.60375 0.50656 0.0
C153 C 0.42661 0.66225 0.51985 0.0
O154 O 0.42747 0.64655 0.53407 0.0
O155 O 0.41103 0.62127 0.46751 0.0
C156 C 0.46221 0.63187 0.82842 0.0
O157 O 0.47936 0.61946 0.82724 0.0
O158 O 0.46008 0.57489 0.82387 0.0
Zn159 Zn 0.44829 0.59392 0.84724 0.0
O160 O 0.46964 0.59494 0.87166 0.0
C161 C 0.40978 0.56737 0.84827 0.0
O162 O 0.41466 0.56357 0.82798 0.0
O163 O 0.44493 0.62407 0.83624 0.0
C164 C 0.46335 0.59995 0.89053 0.0
O165 O 0.44287 0.60434 0.89376 0.0
C166 C 0.46642 0.55601 0.8287 0.0
O167 O 0.46529 0.5496 0.84889 0.0
O168 O 0.42091 0.58098 0.85884 0.0
C169 C 0.50828 0.85377 0.85106 0.0
O170 O 0.49374 0.86894 0.85387 0.0
O171 O 0.52408 0.90914 0.84593 0.0
Zn172 Zn 0.53246 0.88727 0.86821 0.0
O173 O 0.5141 0.8911 0.8947 0.0
C174 C 0.57519 0.90282 0.86193 0.0
O175 O 0.56912 0.90222 0.84161 0.0
O176 O 0.52775 0.85767 0.85618 0.0
C177 C 0.5198 0.90426 0.90936 0.0
O178 O 0.5377 0.91537 0.90693 0.0
C179 C 0.50809 0.92193 0.84662 0.0
O180 O 0.49447 0.92085 0.86282 0.0
O181 O 0.56321 0.89396 0.87603 0.0
C182 C 0.50754 0.34446 0.63791 0.0
O183 O 0.52341 0.35827 0.63518 0.0
O184 O 0.49669 0.40183 0.64534 0.0
Zn185 Zn 0.487 0.3808 0.62253 0.0
O186 O 0.50682 0.38277 0.59699 0.0
C187 C 0.44546 0.4011 0.62507 0.0
O188 O 0.44979 0.40126 0.64583 0.0
O189 O 0.4884 0.35044 0.63359 0.0
C190 C 0.50493 0.39816 0.58358 0.0
O191 O 0.49034 0.41314 0.58704 0.0
C192 C 0.49623 0.3972 0.66533 0.0
O193 O 0.49043 0.37772 0.67133 0.0
O194 O 0.4577 0.39048 0.6125 0.0
C195 C 0.55736 0.12268 0.66113 0.0
O196 O 0.55325 0.11023 0.67779 0.0
O197 O 0.53964 0.06876 0.66342 0.0
Zn198 Zn 0.54739 0.0844 0.6361 0.0
O199 O 0.52136 0.08647 0.61692 0.0
C200 C 0.58162 0.05345 0.62903 0.0
O201 O 0.58139 0.05191 0.65019 0.0
O202 O 0.55712 0.11464 0.64225 0.0
C203 C 0.50921 0.07025 0.61389 0.0
O204 O 0.51353 0.05208 0.62395 0.0
C205 C 0.5219 0.07121 0.6734 0.0
O206 O 0.50751 0.08484 0.66587 0.0
O207 O 0.56943 0.06715 0.61986 0.0
C208 C 0.8437 0.49313 0.62811 0.0
O209 O 0.84748 0.51141 0.61806 0.0
O210 O 0.83003 0.48957 0.56799 0.0
Zn211 Zn 0.85417 0.47852 0.58667 0.0
O212 O 0.87872 0.49972 0.58579 0.0
C213 C 0.85593 0.4406 0.55914 0.0
O214 O 0.83668 0.44701 0.553 0.0
O215 O 0.84503 0.47556 0.6176 0.0
C216 C 0.8972 0.49365 0.59229 0.0
O217 O 0.89972 0.47373 0.59908 0.0
C218 C 0.81079 0.49248 0.57441 0.0
O219 O 0.80587 0.48869 0.59469 0.0
O220 O 0.86549 0.45071 0.57424 0.0
C221 C 0.15021 0.94037 0.6195 0.0
O222 O 0.14541 0.92119 0.61181 0.0
O223 O 0.15887 0.9353 0.5601 0.0
Zn224 Zn 0.13708 0.95189 0.57743 0.0
O225 O 0.10858 0.93653 0.58003 0.0
C226 C 0.14269 0.98746 0.54726 0.0
O227 O 0.15963 0.97654 0.54074 0.0
O228 O 0.14837 0.95671 0.60727 0.0
C229 C 0.09351 0.93908 0.56633 0.0
O230 O 0.09697 0.95095 0.5491 0.0
C231 C 0.15448 0.92574 0.54249 0.0
O232 O 0.13432 0.92468 0.53604 0.0
O233 O 0.13155 0.9804 0.56297 0.0
C234 C 0.85086 0.49411 0.85769 0.0
O235 O 0.84724 0.47675 0.86933 0.0
O236 O 0.84305 0.49661 0.91406 0.0
Zn237 Zn 0.86931 0.5049 0.89704 0.0
O238 O 0.89192 0.48167 0.8975 0.0
C239 C 0.87061 0.54446 0.92168 0.0
O240 O 0.8495 0.54299 0.92045 0.0
O241 O 0.86058 0.50997 0.86636 0.0
C242 C 0.90359 0.47952 0.91422 0.0
O243 O 0.8997 0.4917 0.93115 0.0
C244 C 0.84048 0.47993 0.9257 0.0
O245 O 0.85591 0.46547 0.92688 0.0
O246 O 0.88215 0.53101 0.91136 0.0
C247 C 0.15313 0.98655 0.84463 0.0
O248 O 0.15769 0.00633 0.85078 0.0
O249 O 0.16629 0.99497 0.90166 0.0
Zn250 Zn 0.13869 0.98526 0.88764 0.0
O251 O 0.11694 0.00928 0.88605 0.0
C252 C 0.13638 0.95318 0.9214 0.0
O253 O 0.15749 0.95514 0.92138 0.0
O254 O 0.1446 0.97368 0.85812 0.0
C255 C 0.10935 0.01592 0.90392 0.0
O256 O 0.11693 0.00777 0.92199 0.0
C257 C 0.17055 0.01395 0.90812 0.0
O258 O 0.15691 0.02966 0.90413 0.0
O259 O 0.1254 0.96306 0.90717 0.0
C260 C 0.64217 0.82238 0.44411 0.0
O261 O 0.62912 0.80787 0.45239 0.0
O262 O 0.58714 0.82727 0.46156 0.0
Zn263 Zn 0.60616 0.85139 0.451 0.0
O264 O 0.6117 0.87153 0.47574 0.0
C265 C 0.57442 0.86053 0.41821 0.0
O266 O 0.57058 0.83973 0.41971 0.0
O267 O 0.6351 0.8413 0.44058 0.0
C268 C 0.5958 0.88069 0.48482 0.0
O269 O 0.57618 0.87633 0.47805 0.0
C270 C 0.58814 0.81987 0.48067 0.0
O271 O 0.60297 0.82723 0.49392 0.0
O272 O 0.58994 0.86861 0.42889 0.0
C273 C 0.63502 0.16221 0.96236 0.0
O274 O 0.62876 0.16061 0.94215 0.0
O275 O 0.57582 0.16576 0.95272 0.0
Zn276 Zn 0.59397 0.14378 0.96801 0.0
O277 O 0.59993 0.11803 0.94922 0.0
C278 C 0.56575 0.14734 0.00448 0.0
O279 O 0.5673 0.16801 1e-05 0.0
O280 O 0.62216 0.1564 0.97722 0.0
C281 C 0.60778 0.10152 0.95853 0.0
O282 O 0.61149 0.10229 0.97941 0.0
C283 C 0.55693 0.16016 0.947 0.0
O284 O 0.55112 0.13989 0.9493 0.0
O285 O 0.57675 0.13392 0.99356 0.0
C286 C 0.37037 0.32688 0.03063 0.0
O287 O 0.38613 0.3135 0.02605 0.0
O288 O 0.41314 0.33902 0.99226 0.0
Zn289 Zn 0.39694 0.36054 0.01053 0.0
O290 O 0.38566 0.38494 0.99226 0.0
C291 C 0.43568 0.36638 0.03626 0.0
O292 O 0.44105 0.34738 0.02853 0.0
O293 O 0.37212 0.34677 0.02595 0.0
C294 C 0.37925 0.38367 0.97281 0.0
O295 O 0.37935 0.36491 0.96297 0.0
C296 C 0.40467 0.32421 0.98084 0.0
O297 O 0.38356 0.32239 0.98006 0.0
O298 O 0.41738 0.37429 0.03152 0.0
C299 C 0.86139 0.16308 0.99754 0.0
O300 O 0.87009 0.16196 0.01685 0.0
O301 O 0.92057 0.17768 0.9957 0.0
Zn302 Zn 0.90394 0.15153 0.98641 0.0
O303 O 0.90554 0.12867 0.00935 0.0
C304 C 0.93129 0.15028 0.94859 0.0
O305 O 0.93421 0.1708 0.95305 0.0
O306 O 0.87304 0.15924 0.98112 0.0
C307 C 0.90121 0.10931 0.00416 0.0
O308 O 0.89547 0.10503 0.98418 0.0
C309 C 0.92332 0.18414 0.01497 0.0
O310 O 0.91438 0.17351 0.03099 0.0
O311 O 0.91805 0.13937 0.95985 0.0
H312 H 0.11318 0.01774 0.55932 0.0
H313 H 0.09431 0.04307 0.53574 0.0
H314 H 0.13357 0.02264 0.48199 0.0
H315 H 0.15303 0.99777 0.50565 0.0
H316 H 0.12313 0.06511 0.47848 0.0
H317 H 0.08532 0.99784 0.49045 0.0
H318 H 0.07007 0.96912 0.51346 0.0
H319 H 0.02877 0.0154 0.54434 0.0
H320 H 0.04378 0.04434 0.52149 0.0
H321 H 0.04638 0.07535 0.39213 0.0
H322 H 0.07338 0.06427 0.41875 0.0
H323 H 0.03398 0.09032 0.46987 0.0
H324 H 0.00699 0.10155 0.44346 0.0
H325 H 0.04503 0.04754 0.47577 0.0
H326 H 0.08031 0.11426 0.45826 0.0
H327 H 0.0962 0.14148 0.43397 0.0
H328 H 0.14274 0.09516 0.41191 0.0
H329 H 0.12692 0.06756 0.43585 0.0
C330 C 0.11814 0.01901 0.5426 0.0
C331 C 0.13431 0.00553 0.53422 0.0
C332 C 0.10733 0.03347 0.52915 0.0
C333 C 0.11219 0.03431 0.50702 0.0
C334 C 0.12951 0.02215 0.499 0.0
C335 C 0.14057 0.0079 0.51254 0.0
C336 C 0.0976 0.0457 0.49192 0.0
C337 C 0.10606 0.06128 0.47781 0.0
C338 C 0.07532 0.04073 0.49115 0.0
C339 C 0.06576 0.02324 0.50439 0.0
C340 C 0.07298 0.00185 0.50216 0.0
C341 C 0.06437 0.98553 0.51515 0.0
C342 C 0.04848 0.99041 0.53038 0.0
C343 C 0.04105 0.0116 0.53253 0.0
C344 C 0.04956 0.02796 0.51952 0.0
C345 C 0.04365 0.07906 0.409 0.0
C346 C 0.0245 0.08921 0.4157 0.0
C347 C 0.05913 0.07282 0.42416 0.0
C348 C 0.05566 0.07656 0.44623 0.0
C349 C 0.03695 0.08737 0.45288 0.0
C350 C 0.02157 0.09379 0.43775 0.0
C351 C 0.07041 0.06726 0.46251 0.0
C352 C 0.06199 0.05178 0.4767 0.0
C353 C 0.09269 0.07219 0.46308 0.0
C354 C 0.1023 0.08878 0.44873 0.0
C355 C 0.09381 0.10982 0.4481 0.0
C356 C 0.10284 0.12533 0.43442 0.0
C357 C 0.12044 0.12004 0.42137 0.0
C358 C 0.12909 0.09923 0.42202 0.0
C359 C 0.12012 0.08366 0.43566 0.0
H360 H 0.1274 0.13207 0.41079 0.0
H361 H 0.04196 0.97776 0.54051 0.0
H362 H 0.9967 0.3704 0.42128 0.0
H363 H 0.97043 0.36985 0.45074 0.0
H364 H 0.95493 0.43656 0.43808 0.0
H365 H 0.98153 0.43739 0.4091 0.0
H366 H 0.95953 0.43109 0.47916 0.0
H367 H 0.92152 0.3934 0.42257 0.0
H368 H 0.91642 0.36496 0.39516 0.0
H369 H 0.92069 0.31633 0.44435 0.0
H370 H 0.92606 0.34449 0.47204 0.0
H371 H 0.84619 0.42675 0.51838 0.0
H372 H 0.87162 0.41182 0.4923 0.0
H373 H 0.91965 0.40591 0.54234 0.0
H374 H 0.89452 0.42142 0.56845 0.0
H375 H 0.89967 0.37802 0.48411 0.0
H376 H 0.96386 0.43009 0.52532 0.0
H377 H 0.96577 0.46055 0.55102 0.0
H378 H 0.90508 0.48443 0.52769 0.0
H379 H 0.90291 0.45426 0.50176 0.0
C380 C 0.98767 0.38494 0.42478 0.0
C381 C 0.99126 0.40399 0.41294 0.0
C382 C 0.97258 0.38456 0.44155 0.0
C383 C 0.96059 0.40312 0.44654 0.0
C384 C 0.96407 0.42207 0.4346 0.0
C385 C 0.97927 0.42253 0.41801 0.0
C386 C 0.94475 0.40317 0.4645 0.0
C387 C 0.94656 0.41935 0.48024 0.0
C388 C 0.92771 0.38796 0.46595 0.0
C389 C 0.92436 0.37104 0.44934 0.0
C390 C 0.92149 0.37663 0.42752 0.0
C391 C 0.9185 0.36057 0.41195 0.0
C392 C 0.91818 0.33886 0.41802 0.0
C393 C 0.92088 0.33316 0.43968 0.0
C394 C 0.92388 0.34916 0.45532 0.0
C395 C 0.86192 0.42164 0.52403 0.0
C396 C 0.86857 0.42581 0.54534 0.0
C397 C 0.87642 0.41298 0.50908 0.0
C398 C 0.89766 0.40826 0.5153 0.0
C399 C 0.90341 0.40981 0.53717 0.0
C400 C 0.88904 0.41871 0.55206 0.0
C401 C 0.91456 0.40592 0.49854 0.0
C402 C 0.91292 0.38942 0.48311 0.0
C403 C 0.9315 0.42115 0.49694 0.0
C404 C 0.93315 0.43984 0.5118 0.0
C405 C 0.95099 0.4419 0.52564 0.0
C406 C 0.95206 0.45904 0.54029 0.0
C407 C 0.93546 0.47427 0.54108 0.0
C408 C 0.91784 0.47252 0.52714 0.0
C409 C 0.91668 0.45543 0.51247 0.0
H410 H 0.93641 0.48762 0.55225 0.0
H411 H 0.91592 0.32645 0.40593 0.0
H412 H 0.00754 0.94621 0.07306 0.0
H413 H 0.03124 0.94381 0.04168 0.0
H414 H 0.07846 0.90957 0.0796 0.0
H415 H 0.05457 0.9115 0.11119 0.0
H416 H 0.09389 0.94659 0.05283 0.0
H417 H 0.05428 0.88027 0.0476 0.0
H418 H 0.02136 0.85791 0.04776 0.0
H419 H 0.99675 0.89308 0.99334 0.0
H420 H 0.02939 0.91588 0.99305 0.0
H421 H 0.15452 0.93312 0.95625 0.0
H422 H 0.13667 0.92347 0.99018 0.0
H423 H 0.07536 0.94246 0.96316 0.0
H424 H 0.09305 0.95207 0.92938 0.0
H425 H 0.07063 0.90736 0.98694 0.0
H426 H 0.10403 0.97707 0.99539 0.0
H427 H 0.13306 0.00429 0.99671 0.0
H428 H 0.16638 0.96696 0.04464 0.0
H429 H 0.13757 0.93945 0.04352 0.0
C430 C 0.02297 0.93818 0.07479 0.0
C431 C 0.02918 0.92898 0.09458 0.0
C432 C 0.03643 0.93677 0.05683 0.0
C433 C 0.05643 0.92635 0.05836 0.0
C434 C 0.06299 0.91757 0.07816 0.0
C435 C 0.04934 0.91868 0.09613 0.0
C436 C 0.07042 0.92501 0.03911 0.0
C437 C 0.0892 0.93757 0.03856 0.0
C438 C 0.0638 0.91371 0.02043 0.0
C439 C 0.04424 0.89988 0.0204 0.0
C440 C 0.04178 0.88335 0.03576 0.0
C441 C 0.02318 0.87057 0.03586 0.0
C442 C 0.00696 0.8741 0.0206 0.0
C443 C 0.00933 0.89037 0.00516 0.0
C444 C 0.02789 0.90321 0.005 0.0
C445 C 0.13722 0.93496 0.95749 0.0
C446 C 0.12527 0.94365 0.94026 0.0
C447 C 0.12705 0.92951 0.97689 0.0
C448 C 0.10474 0.93262 0.97931 0.0
C449 C 0.09261 0.94 0.96167 0.0
C450 C 0.10276 0.94548 0.94233 0.0
C451 C 0.09401 0.92931 0.00044 0.0
C452 C 0.07575 0.91592 0.00134 0.0
C453 C 0.10089 0.94021 0.01934 0.0
C454 C 0.11878 0.9561 0.01919 0.0
C455 C 0.11767 0.97455 0.00602 0.0
C456 C 0.134 0.9901 0.00685 0.0
C457 C 0.15148 0.98742 0.02085 0.0
C458 C 0.15278 0.96906 0.03389 0.0
C459 C 0.13646 0.95349 0.03317 0.0
H460 H 0.16409 -0.0005 0.0215 0.0
H461 H 0.99257 0.8642 0.0207 0.0
H462 H 0.93801 0.61122 0.10862 0.0
H463 H 0.91785 0.612 0.07443 0.0
H464 H 0.96171 0.56523 0.04745 0.0
H465 H 0.9816 0.56404 0.08142 0.0
H466 H 0.95342 0.60313 0.02083 0.0
H467 H 0.91613 0.5478 0.06318 0.0
H468 H 0.89565 0.53511 0.09488 0.0
H469 H 0.84663 0.58248 0.08256 0.0
H470 H 0.867 0.59564 0.05094 0.0
H471 H 0.91295 0.54528 0.93365 0.0
H472 H 0.92816 0.56172 0.9658 0.0
H473 H 0.86672 0.59118 0.98018 0.0
H474 H 0.85108 0.574 0.94821 0.0
H475 H 0.88021 0.57148 0.01397 0.0
H476 H 0.91297 0.62209 0.96759 0.0
H477 H 0.93271 0.63584 0.9359 0.0
H478 H 0.98915 0.60074 0.95539 0.0
H479 H 0.96968 0.58651 0.98703 0.0
C480 C 0.94326 0.60104 0.09541 0.0
C481 C 0.96134 0.58752 0.09771 0.0
C482 C 0.93177 0.60154 0.07594 0.0
C483 C 0.93843 0.58876 0.05846 0.0
C484 C 0.95644 0.5753 0.06074 0.0
C485 C 0.96768 0.57454 0.08023 0.0
C486 C 0.92662 0.58893 0.03772 0.0
C487 C 0.9374 0.59624 0.01921 0.0
C488 C 0.90541 0.58081 0.0359 0.0
C489 C 0.89323 0.5729 0.05491 0.0
C490 C 0.9011 0.55566 0.06737 0.0
C491 C 0.88949 0.54834 0.08529 0.0
C492 C 0.86989 0.55804 0.09078 0.0
C493 C 0.86184 0.57502 0.07832 0.0
C494 C 0.87341 0.58241 0.06041 0.0
C495 C 0.90274 0.55566 0.94332 0.0
C496 C 0.88073 0.55816 0.93844 0.0
C497 C 0.91153 0.56522 0.9617 0.0
C498 C 0.89866 0.57787 0.97542 0.0
C499 C 0.87698 0.58147 0.96987 0.0
C500 C 0.86808 0.57171 0.95154 0.0
C501 C 0.9073 0.58494 0.99667 0.0
C502 C 0.89596 0.57899 0.01541 0.0
C503 C 0.92791 0.59462 0.99869 0.0
C504 C 0.93979 0.60316 0.97968 0.0
C505 C 0.92955 0.61718 0.96506 0.0
C506 C 0.9407 0.62508 0.9471 0.0
C507 C 0.96217 0.61915 0.94362 0.0
C508 C 0.97253 0.60533 0.95811 0.0
C509 C 0.96145 0.59738 0.97609 0.0
H510 H 0.97077 0.62529 0.92971 0.0
H511 H 0.86091 0.55234 0.10465 0.0
H512 H 0.40141 0.04364 0.03883 0.0
H513 H 0.43087 0.0687 0.03177 0.0
H514 H 0.43148 0.08732 0.0989 0.0
H515 H 0.40219 0.06183 0.10624 0.0
H516 H 0.43804 0.11058 0.03516 0.0
H517 H 0.48442 0.09442 0.11385 0.0
H518 H 0.48719 0.06663 0.14229 0.0
H519 H 0.46824 0.01782 0.09683 0.0
H520 H 0.46563 0.04528 0.06811 0.0
H521 H 0.5342 0.17085 0.02456 0.0
H522 H 0.50251 0.15675 0.04343 0.0
H523 H 0.52673 0.09194 0.03587 0.0
H524 H 0.55849 0.10585 0.01729 0.0
H525 H 0.5066 0.09644 0.0741 0.0
H526 H 0.4927 0.11263 0.99897 0.0
H527 H 0.49062 0.13581 0.96665 0.0
H528 H 0.44632 0.17785 -0.00067 0.0
H529 H 0.4483 0.15502 0.03192 0.0
C530 C 0.40758 0.05325 0.05207 0.0
C531 C 0.39966 0.05053 0.07315 0.0
C532 C 0.42438 0.06765 0.04799 0.0
C533 C 0.43357 0.07966 0.06486 0.0
C534 C 0.42483 0.07796 0.08571 0.0
C535 C 0.40806 0.06344 0.08985 0.0
C536 C 0.45327 0.09255 0.0607 0.0
C537 C 0.45295 0.10774 0.04391 0.0
C538 C 0.47281 0.08862 0.0719 0.0
C539 C 0.47456 0.07194 0.08895 0.0
C540 C 0.48089 0.07775 0.10995 0.0
C541 C 0.48243 0.06206 0.1261 0.0
C542 C 0.47781 0.04049 0.12139 0.0
C543 C 0.47173 0.03454 0.10049 0.0
C544 C 0.4702 0.05016 0.08427 0.0
C545 C 0.53302 0.15363 0.02735 0.0
C546 C 0.5487 0.13942 0.01916 0.0
C547 C 0.51487 0.14562 0.03808 0.0
C548 C 0.51214 0.12329 0.04074 0.0
C549 C 0.52852 0.10923 0.03397 0.0
C550 C 0.54663 0.11721 0.02324 0.0
C551 C 0.49139 0.11425 0.04841 0.0
C552 C 0.49154 0.09978 0.06583 0.0
C553 C 0.47182 0.11835 0.03737 0.0
C554 C 0.47083 0.13227 0.01793 0.0
C555 C 0.48267 0.12693 -0.00069 0.0
C556 C 0.48147 0.13998 0.98094 0.0
C557 C 0.46833 0.15828 0.98094 0.0
C558 C 0.45646 0.16366 -0.00065 0.0
C559 C 0.45761 0.15067 0.01777 0.0
H560 H 0.46723 0.1682 0.96662 0.0
H561 H 0.47899 0.02837 0.13392 0.0
H562 H 0.59308 0.48944 0.03736 0.0
H563 H 0.56295 0.46411 0.03689 0.0
H564 H 0.55249 0.47494 0.1049 0.0
H565 H 0.58301 0.50005 0.10563 0.0
H566 H 0.54761 0.43291 0.09479 0.0
H567 H 0.52176 0.50051 0.06812 0.0
H568 H 0.52294 0.53282 0.04489 0.0
H569 H 0.51564 0.49312 0.98856 0.0
H570 H 0.51486 0.4605 0.0114 0.0
H571 H 0.42983 0.40649 0.05357 0.0
H572 H 0.4577 0.43132 0.06619 0.0
H573 H 0.50615 0.3825 0.05559 0.0
H574 H 0.47835 0.35744 0.04323 0.0
H575 H 0.48908 0.44648 0.04182 0.0
H576 H 0.54908 0.39129 0.08852 0.0
H577 H 0.54794 0.36008 0.1132 0.0
H578 H 0.48389 0.37752 0.13296 0.0
H579 H 0.48474 0.409 0.10864 0.0
C580 C 0.58449 0.48634 0.05227 0.0
C581 C 0.59028 0.49691 0.07149 0.0
C582 C 0.56723 0.4719 0.05195 0.0
C583 C 0.55525 0.46798 0.07077 0.0
C584 C 0.56148 0.47785 0.09018 0.0
C585 C 0.57887 0.49222 0.09055 0.0
C586 C 0.53581 0.45411 0.0699 0.0
C587 C 0.53475 0.43587 0.08328 0.0
C588 C 0.5188 0.45836 0.05524 0.0
C589 C 0.51848 0.47802 0.04149 0.0
C590 C 0.52052 0.49864 0.05077 0.0
C591 C 0.52113 0.51701 0.03767 0.0
C592 C 0.51952 0.51499 0.01527 0.0
C593 C 0.517 0.49463 0.00592 0.0
C594 C 0.51645 0.4762 0.01894 0.0
C595 C 0.44636 0.40087 0.05432 0.0
C596 C 0.45191 0.38004 0.0472 0.0
C597 C 0.46226 0.41511 0.0615 0.0
C598 C 0.48399 0.40879 0.0618 0.0
C599 C 0.48945 0.38765 0.05575 0.0
C600 C 0.47353 0.37336 0.0486 0.0
C601 C 0.50111 0.42487 0.0663 0.0
C602 C 0.50177 0.44358 0.05353 0.0
C603 C 0.51752 0.42122 0.08176 0.0
C604 C 0.51693 0.40242 0.0966 0.0
C605 C 0.53479 0.38853 0.0982 0.0
C606 C 0.53419 0.37077 0.11212 0.0
C607 C 0.51583 0.36679 0.1246 0.0
C608 C 0.49806 0.38058 0.12323 0.0
C609 C 0.49859 0.39836 0.10935 0.0
H610 H 0.51539 0.35303 0.13536 0.0
H611 H 0.52027 0.52919 0.00515 0.0
H612 H 0.53642 0.84936 0.39867 0.0
H613 H 0.50682 0.8735 0.38904 0.0
H614 H 0.54607 0.92854 0.40572 0.0
H615 H 0.57569 0.90455 0.41558 0.0
H616 H 0.50853 0.92842 0.42727 0.0
H617 H 0.53048 0.92023 0.35384 0.0
H618 H 0.54093 0.90049 0.32091 0.0
H619 H 0.47903 0.86938 0.3194 0.0
H620 H 0.4683 0.8887 0.35252 0.0
H621 H 0.42592 0.0032 0.40432 0.0
H622 H 0.4602 0.98388 0.40263 0.0
H623 H 0.42671 0.92594 0.38327 0.0
H624 H 0.39238 0.94537 0.38429 0.0
H625 H 0.46318 0.92988 0.36128 0.0
H626 H 0.44259 0.93496 0.43615 0.0
H627 H 0.43204 0.95348 0.46978 0.0
H628 H 0.49146 0.98914 0.46928 0.0
H629 H 0.50223 0.97105 0.43545 0.0
C630 C 0.53896 0.86662 0.3998 0.0
C631 C 0.55833 0.87501 0.40815 0.0
C632 C 0.52203 0.88041 0.39421 0.0
C633 C 0.52424 0.90282 0.39672 0.0
C634 C 0.54402 0.91129 0.40374 0.0
C635 C 0.56095 0.89753 0.40931 0.0
C636 C 0.5052 0.9171 0.39454 0.0
C637 C 0.49887 0.92911 0.41267 0.0
C638 C 0.49227 0.91744 0.37573 0.0
C639 C 0.49865 0.9058 0.35578 0.0
C640 C 0.51915 0.90905 0.3466 0.0
C641 C 0.52512 0.89796 0.32787 0.0
C642 C 0.51067 0.88366 0.31809 0.0
C643 C 0.49021 0.88045 0.327 0.0
C644 C 0.48417 0.89149 0.34574 0.0
C645 C 0.42585 0.98636 0.39961 0.0
C646 C 0.40643 0.97573 0.39465 0.0
C647 C 0.44546 0.97534 0.39869 0.0
C648 C 0.44598 0.95337 0.3932 0.0
C649 C 0.42668 0.94289 0.38759 0.0
C650 C 0.40707 0.95398 0.38826 0.0
C651 C 0.46649 0.9411 0.39405 0.0
C652 C 0.47302 0.9294 0.37576 0.0
C653 C 0.47959 0.9409 0.41279 0.0
C654 C 0.4731 0.95183 0.43312 0.0
C655 C 0.45332 0.94689 0.44311 0.0
C656 C 0.44732 0.95728 0.46222 0.0
C657 C 0.46104 0.97253 0.47162 0.0
C658 C 0.48082 0.97736 0.46195 0.0
C659 C 0.48689 0.96704 0.44281 0.0
H660 H 0.45637 0.98055 0.48642 0.0
H661 H 0.51532 0.87509 0.30359 0.0
H662 H 0.41579 0.59432 0.43522 0.0
H663 H 0.43953 0.56908 0.41622 0.0
H664 H 0.4946 0.60826 0.43329 0.0
H665 H 0.47097 0.63394 0.45113 0.0
H666 H 0.50222 0.59181 0.39684 0.0
H667 H 0.47608 0.56355 0.46462 0.0
H668 H 0.44828 0.55198 0.49065 0.0
H669 H 0.42517 0.50472 0.44554 0.0
H670 H 0.4527 0.51621 0.4191 0.0
H671 H 0.56725 0.4905 0.42998 0.0
H672 H 0.53634 0.51425 0.43501 0.0
H673 H 0.53567 0.528 0.36664 0.0
H674 H 0.56764 0.50535 0.36184 0.0
H675 H 0.49758 0.51656 0.42377 0.0
H676 H 0.51808 0.57834 0.35712 0.0
H677 H 0.54975 0.59185 0.33705 0.0
H678 H 0.59094 0.57525 0.39029 0.0
H679 H 0.55949 0.5619 0.41074 0.0
C680 C 0.43291 0.59776 0.43445 0.0
C681 C 0.44156 0.61596 0.44488 0.0
C682 C 0.44648 0.58328 0.4237 0.0
C683 C 0.46894 0.58644 0.42381 0.0
C684 C 0.47735 0.60537 0.433 0.0
C685 C 0.46379 0.62006 0.44329 0.0
C686 C 0.48397 0.5694 0.4162 0.0
C687 C 0.50108 0.5753 0.40256 0.0
C688 C 0.48275 0.54791 0.42393 0.0
C689 C 0.46625 0.54092 0.4398 0.0
C690 C 0.46498 0.55079 0.46021 0.0
C691 C 0.44928 0.54424 0.47504 0.0
C692 C 0.43492 0.52768 0.46973 0.0
C693 C 0.43627 0.51759 0.4496 0.0
C694 C 0.45191 0.52411 0.43468 0.0
C695 C 0.5605 0.49857 0.41602 0.0
C696 C 0.57004 0.49641 0.39559 0.0
C697 C 0.54272 0.51205 0.41887 0.0
C698 C 0.53384 0.52328 0.40128 0.0
C699 C 0.54257 0.52003 0.38058 0.0
C700 C 0.56077 0.50702 0.37783 0.0
C701 C 0.51624 0.53914 0.40499 0.0
C702 C 0.49855 0.53297 0.41773 0.0
C703 C 0.51751 0.56066 0.39734 0.0
C704 C 0.53648 0.56889 0.38531 0.0
C705 C 0.5339 0.57764 0.36454 0.0
C706 C 0.5518 0.58525 0.3531 0.0
C707 C 0.57235 0.58433 0.36236 0.0
C708 C 0.57503 0.57588 0.38311 0.0
C709 C 0.55717 0.56828 0.39462 0.0
H710 H 0.58619 0.5902 0.35347 0.0
H711 H 0.4228 0.52264 0.48124 0.0
H712 H 0.11613 0.41409 0.05838 0.0
H713 H 0.10916 0.44269 0.08462 0.0
H714 H 0.10095 0.4884 0.0327 0.0
H715 H 0.10853 0.46001 0.00639 0.0
H716 H 0.12124 0.50699 0.06579 0.0
H717 H 0.05753 0.4635 0.05637 0.0
H718 H 0.03664 0.42961 0.05567 0.0
H719 H 0.05111 0.41893 0.12263 0.0
H720 H 0.07236 0.45262 0.12364 0.0
H721 H 0.04723 0.5819 0.11161 0.0
H722 H 0.0681 0.5557 0.09092 0.0
H723 H 0.07698 0.51726 0.1483 0.0
H724 H 0.056 0.54335 0.16915 0.0
H725 H 0.05963 0.49432 0.11533 0.0
H726 H 0.11982 0.5416 0.12494 0.0
H727 H 0.13924 0.57633 0.12443 0.0
H728 H 0.12957 0.58116 0.05595 0.0
H729 H 0.10982 0.5466 0.05607 0.0
C730 C 0.11307 0.43028 0.05256 0.0
C731 C 0.11263 0.43475 0.03031 0.0
C732 C 0.10906 0.4466 0.06757 0.0
C733 C 0.10414 0.46759 0.0606 0.0
C734 C 0.10466 0.47231 0.03844 0.0
C735 C 0.10891 0.45604 0.02342 0.0
C736 C 0.09708 0.48428 0.07623 0.0
C737 C 0.1077 0.5043 0.07655 0.0
C738 C 0.07964 0.48061 0.09054 0.0
C739 C 0.06674 0.46044 0.09001 0.0
C740 C 0.05639 0.45384 0.0709 0.0
C741 C 0.04447 0.43468 0.07045 0.0
C742 C 0.04261 0.42209 0.08908 0.0
C743 C 0.05261 0.42867 0.10821 0.0
C744 C 0.06458 0.4478 0.10873 0.0
C745 C 0.05401 0.56813 0.11996 0.0
C746 C 0.04979 0.56462 0.142 0.0
C747 C 0.06603 0.5532 0.10811 0.0
C748 C 0.07411 0.53455 0.11809 0.0
C749 C 0.07088 0.53157 0.14031 0.0
C750 C 0.05893 0.54653 0.1522 0.0
C751 C 0.08371 0.51712 0.10485 0.0
C752 C 0.07343 0.49694 0.10487 0.0
C753 C 0.10125 0.52079 0.09071 0.0
C754 C 0.11319 0.54156 0.09055 0.0
C755 C 0.12168 0.55014 0.10979 0.0
C756 C 0.13278 0.56979 0.10957 0.0
C757 C 0.1356 0.58096 0.09018 0.0
C758 C 0.12737 0.57249 0.07096 0.0
C759 C 0.11625 0.55285 0.07109 0.0
H760 H 0.1442 0.59617 0.09004 0.0
H761 H 0.03338 0.40726 0.0887 0.0
H762 H 0.08025 0.42414 0.40686 0.0
H763 H 0.08798 0.45946 0.42238 0.0
H764 H 0.10228 0.48452 0.35909 0.0
H765 H 0.09425 0.44926 0.34321 0.0
H766 H 0.12658 0.49793 0.41088 0.0
H767 H 0.06435 0.50353 0.35795 0.0
H768 H 0.03349 0.48483 0.34101 0.0
H769 H 0.00823 0.46924 0.40366 0.0
H770 H 0.03915 0.4876 0.42091 0.0
H771 H 0.10317 0.60561 0.44585 0.0
H772 H 0.10854 0.57476 0.42172 0.0
H773 H 0.05827 0.53993 0.45504 0.0
H774 H 0.05253 0.57068 0.47884 0.0
H775 H 0.0549 0.53367 0.41302 0.0
H776 H 0.11223 0.53209 0.46606 0.0
H777 H 0.14368 0.5465 0.48577 0.0
H778 H 0.17903 0.55147 0.42636 0.0
H779 H 0.14763 0.53741 0.40624 0.0
C780 C 0.08575 0.4369 0.39625 0.0
C781 C 0.08616 0.43401 0.37372 0.0
C782 C 0.09025 0.45706 0.40519 0.0
C783 C 0.09546 0.47452 0.39181 0.0
C784 C 0.09827 0.47115 0.36962 0.0
C785 C 0.09363 0.45099 0.3606 0.0
C786 C 0.0935 0.49657 0.40051 0.0
C787 C 0.11113 0.50614 0.41092 0.0
C788 C 0.07316 0.5068 0.40096 0.0
C789 C 0.05405 0.49679 0.39067 0.0
C790 C 0.05221 0.49607 0.36807 0.0
C791 C 0.03477 0.48546 0.35842 0.0
C792 C 0.01899 0.4757 0.37124 0.0
C793 C 0.02051 0.47672 0.39374 0.0
C794 C 0.03797 0.48722 0.40346 0.0
C795 C 0.09311 0.59146 0.44788 0.0
C796 C 0.0775 0.59055 0.46434 0.0
C797 C 0.09627 0.57381 0.43414 0.0
C798 C 0.08399 0.55494 0.43675 0.0
C799 C 0.06794 0.55432 0.45272 0.0
C800 C 0.06472 0.57192 0.46637 0.0
C801 C 0.0881 0.53547 0.42344 0.0
C802 C 0.07066 0.52609 0.4124 0.0
C803 C 0.10866 0.52546 0.42253 0.0
C804 C 0.1275 0.53396 0.43462 0.0
C805 C 0.12664 0.53645 0.45718 0.0
C806 C 0.14446 0.54452 0.46842 0.0
C807 C 0.16332 0.54996 0.45731 0.0
C808 C 0.16439 0.54731 0.43494 0.0
C809 C 0.14659 0.53929 0.4236 0.0
H810 H 0.17712 0.55615 0.46605 0.0
H811 H 0.00553 0.46746 0.36374 0.0
H812 H 0.87498 0.93548 0.55457 0.0
H813 H 0.8805 0.96826 0.53322 0.0
H814 H 0.94234 0.94422 0.51225 0.0
H815 H 0.93738 0.91195 0.53419 0.0
H816 H 0.94459 0.9865 0.51886 0.0
H817 H 0.89655 0.93748 0.48196 0.0
H818 H 0.86397 0.91486 0.4785 0.0
H819 H 0.8239 0.9708 0.48648 0.0
H820 H 0.85628 0.99371 0.49035 0.0
H821 H 0.96175 0.0268 0.41498 0.0
H822 H 0.95068 0.00258 0.44385 0.0
H823 H 0.90271 0.04846 0.46454 0.0
H824 H 0.91395 0.07326 0.43563 0.0
H825 H 0.89029 0.00033 0.46155 0.0
H826 H 0.94101 0.04931 0.49552 0.0
H827 H 0.97497 0.07009 0.49688 0.0
H828 H 0.01143 0.0115 0.49081 0.0
H829 H 0.97766 0.99045 0.48907 0.0
C830 C 0.88993 0.93738 0.54572 0.0
C831 C 0.90567 0.92105 0.5459 0.0
C832 C 0.89302 0.95608 0.53348 0.0
C833 C 0.91171 0.95856 0.52091 0.0
C834 C 0.92787 0.94274 0.52192 0.0
C835 C 0.92494 0.92422 0.5344 0.0
C836 C 0.91397 0.97677 0.50551 0.0
C837 C 0.93273 0.98944 0.50633 0.0
C838 C 0.89829 0.98095 0.48936 0.0
C839 C 0.87882 0.96726 0.48671 0.0
C840 C 0.88079 0.94493 0.48312 0.0
C841 C 0.86237 0.93206 0.48107 0.0
C842 C 0.84188 0.94138 0.48233 0.0
C843 C 0.83978 0.9636 0.48556 0.0
C844 C 0.85816 0.97654 0.48769 0.0
C845 C 0.94867 0.03176 0.42545 0.0
C846 C 0.93881 0.05205 0.42307 0.0
C847 C 0.94241 0.01787 0.44198 0.0
C848 C 0.92607 0.02388 0.45637 0.0
C849 C 0.91542 0.04365 0.45355 0.0
C850 C 0.92185 0.05775 0.43707 0.0
C851 C 0.92103 0.0096 0.47478 0.0
C852 C 0.90187 0.99761 0.47441 0.0
C853 C 0.93649 0.00574 0.4911 0.0
C854 C 0.95683 0.01831 0.49227 0.0
C855 C 0.95628 0.04088 0.49441 0.0
C856 C 0.97548 0.05271 0.49524 0.0
C857 C 0.99534 0.04212 0.49399 0.0
C858 C 0.99604 0.01968 0.49186 0.0
C859 C 0.97688 0.00779 0.49101 0.0
H860 H 0.01016 0.05133 0.49468 0.0
H861 H 0.82764 0.93138 0.48076 0.0
H862 H 0.44861 0.5719 0.52632 0.0
H863 H 0.44795 0.53796 0.54621 0.0
H864 H 0.38106 0.54845 0.56238 0.0
H865 H 0.38142 0.58225 0.54194 0.0
H866 H 0.44116 0.52773 0.58676 0.0
H867 H 0.35544 0.49916 0.5632 0.0
H868 H 0.32927 0.50382 0.53351 0.0
H869 H 0.38106 0.51718 0.48943 0.0
H870 H 0.40752 0.51232 0.5188 0.0
H871 H 0.42547 0.43421 0.64634 0.0
H872 H 0.41292 0.46786 0.63006 0.0
H873 H 0.42242 0.44098 0.56659 0.0
H874 H 0.4349 0.40726 0.58262 0.0
H875 H 0.3888 0.47026 0.56734 0.0
H876 H 0.46257 0.46454 0.58977 0.0
H877 H 0.49259 0.45823 0.61509 0.0
H878 H 0.4713 0.51128 0.65421 0.0
H879 H 0.44062 0.5174 0.62955 0.0
C880 C 0.43375 0.56704 0.53413 0.0
C881 C 0.41501 0.57966 0.53235 0.0
C882 C 0.43343 0.54767 0.54559 0.0
C883 C 0.4144 0.54054 0.55558 0.0
C884 C 0.39584 0.55348 0.55451 0.0
C885 C 0.39611 0.57285 0.54293 0.0
C886 C 0.41404 0.51933 0.5667 0.0
C887 C 0.42955 0.51527 0.58268 0.0
C888 C 0.39916 0.5029 0.56106 0.0
C889 C 0.38341 0.50564 0.54325 0.0
C890 C 0.36122 0.50304 0.54716 0.0
C891 C 0.34635 0.50572 0.53039 0.0
C892 C 0.35349 0.51088 0.50962 0.0
C893 C 0.37554 0.51328 0.50555 0.0
C894 C 0.39048 0.51059 0.52225 0.0
C895 C 0.42418 0.43514 0.62892 0.0
C896 C 0.43168 0.41824 0.61576 0.0
C897 C 0.41703 0.45442 0.61967 0.0
C898 C 0.41725 0.45703 0.59717 0.0
C899 C 0.42227 0.43932 0.584 0.0
C900 C 0.42947 0.42006 0.59322 0.0
C901 C 0.41576 0.47883 0.58752 0.0
C902 C 0.40003 0.48294 0.57177 0.0
C903 C 0.43089 0.49513 0.59285 0.0
C904 C 0.44909 0.49123 0.60797 0.0
C905 C 0.46407 0.47465 0.60395 0.0
C906 C 0.48121 0.4711 0.61819 0.0
C907 C 0.48379 0.48429 0.6363 0.0
C908 C 0.46919 0.501 0.64024 0.0
C909 C 0.45188 0.50447 0.62618 0.0
H910 H 0.49719 0.48169 0.64717 0.0
H911 H 0.34195 0.51296 0.49667 0.0
H912 H 0.62732 0.58678 0.00923 0.0
H913 H 0.59833 0.59695 0.98473 0.0
H914 H 0.55356 0.59857 0.03805 0.0
H915 H 0.58247 0.58794 0.0627 0.0
H916 H 0.53832 0.57423 0.0068 0.0
H917 H 0.5673 0.64499 0.01045 0.0
H918 H 0.59523 0.67333 0.00988 0.0
H919 H 0.61028 0.65769 0.94405 0.0
H920 H 0.58265 0.62904 0.9443 0.0
H921 H 0.45457 0.60544 0.93346 0.0
H922 H 0.48032 0.60636 0.96341 0.0
H923 H 0.53282 0.59727 0.91863 0.0
H924 H 0.50724 0.59635 0.8886 0.0
H925 H 0.54106 0.62931 0.94874 0.0
H926 H 0.51554 0.55516 0.9479 0.0
H927 H 0.48802 0.52639 0.94913 0.0
H928 H 0.46607 0.54955 0.01065 0.0
H929 H 0.49338 0.57856 0.0097 0.0
C930 C 0.61144 0.58977 0.01588 0.0
C931 C 0.60719 0.58636 0.03791 0.0
C932 C 0.59485 0.59569 0.00182 0.0
C933 C 0.57375 0.59858 0.00954 0.0
C934 C 0.56971 0.59638 0.03174 0.0
C935 C 0.5863 0.5904 0.04581 0.0
C936 C 0.55569 0.60162 0.99411 0.0
C937 C 0.53867 0.58663 0.99443 0.0
C938 C 0.55631 0.61751 0.97771 0.0
C939 C 0.57297 0.63475 0.97745 0.0
C940 C 0.57667 0.64748 0.9959 0.0
C941 C 0.59243 0.66362 0.99562 0.0
C942 C 0.60454 0.66728 0.97695 0.0
C943 C 0.60089 0.65483 0.9585 0.0
C944 C 0.58515 0.63865 0.95869 0.0
C945 C 0.4716 0.60367 0.92997 0.0
C946 C 0.47887 0.60075 0.90866 0.0
C947 C 0.48627 0.60415 0.94711 0.0
C948 C 0.50844 0.60176 0.94322 0.0
C949 C 0.51576 0.59916 0.92195 0.0
C950 C 0.50112 0.59855 0.90483 0.0
C951 C 0.52409 0.6017 0.96128 0.0
C952 C 0.54059 0.61721 0.9614 0.0
C953 C 0.52293 0.58639 0.97817 0.0
C954 C 0.50631 0.56917 0.9786 0.0
C955 C 0.5047 0.55424 0.96159 0.0
C956 C 0.48919 0.53786 0.96226 0.0
C957 C 0.47524 0.5362 0.97991 0.0
C958 C 0.47681 0.55091 0.99695 0.0
C959 C 0.49232 0.5673 0.99637 0.0
H960 H 0.46329 0.52347 0.98042 0.0
H961 H 0.61674 0.67979 0.97677 0.0
H962 H 0.36949 0.93241 0.04745 0.0
H963 H 0.39599 0.91808 0.02198 0.0
H964 H 0.44657 0.95285 0.05486 0.0
H965 H 0.42026 0.96731 0.08032 0.0
H966 H 0.44483 0.9622 0.01208 0.0
H967 H 0.44564 0.89861 0.05608 0.0
H968 H 0.42988 0.86786 0.07581 0.0
H969 H 0.40346 0.843 0.01673 0.0
H970 H 0.41882 0.87378 0.99666 0.0
H971 H 0.52993 0.92678 0.94585 0.0
H972 H 0.5072 0.93287 0.97745 0.0
H973 H 0.45632 0.89527 0.94829 0.0
H974 H 0.4792 0.88861 0.91682 0.0
H975 H 0.45922 0.88651 0.99039 0.0
H976 H 0.4556 0.95041 0.94682 0.0
H977 H 0.47013 0.98129 0.92633 0.0
H978 H 0.49996 0.00589 0.98388 0.0
H979 H 0.48587 0.97497 0.00466 0.0
C980 C 0.38632 0.93662 0.04958 0.0
C981 C 0.39272 0.95119 0.06577 0.0
C982 C 0.40146 0.92836 0.03503 0.0
C983 C 0.42322 0.93447 0.03651 0.0
C984 C 0.42983 0.948 0.05342 0.0
C985 C 0.41475 0.95621 0.06798 0.0
C986 C 0.4386 0.92873 0.01914 0.0
C987 C 0.4483 0.94563 0.00761 0.0
C988 C 0.44249 0.90714 0.01287 0.0
C989 C 0.43322 0.88862 0.02489 0.0
C990 C 0.43631 0.88669 0.04731 0.0
C991 C 0.42748 0.86923 0.05856 0.0
C992 C 0.41563 0.85352 0.04754 0.0
C993 C 0.41263 0.8552 0.02524 0.0
C994 C 0.42141 0.87264 0.01392 0.0
C995 C 0.51394 0.91973 0.94618 0.0
C996 C 0.50629 0.90737 0.92876 0.0
C997 C 0.50095 0.92325 0.96425 0.0
C998 C 0.47995 0.91479 0.96508 0.0
C999 C 0.47248 0.90196 0.94797 0.0
C1000 C 0.48554 0.89826 0.92996 0.0
C1001 C 0.46551 0.91999 0.98344 0.0
C1002 C 0.45589 0.90305 0.99503 0.0
C1003 C 0.46146 0.94158 0.98969 0.0
C1004 C 0.46987 0.96025 0.97725 0.0
C1005 C 0.4654 0.96232 0.95507 0.0
C1006 C 0.47353 0.97984 0.94341 0.0
C1007 C 0.48601 0.99551 0.95378 0.0
C1008 C 0.49033 0.99372 0.97586 0.0
C1009 C 0.48226 0.97621 0.98759 0.0
H1010 H 0.4923 0.00906 0.94472 0.0
H1011 H 0.40882 0.84001 0.05627 0.0
H1012 H 0.50434 0.42822 0.55136 0.0
H1013 H 0.52697 0.42942 0.51911 0.0
H1014 H 0.55931 0.37122 0.53943 0.0
H1015 H 0.53653 0.36972 0.57162 0.0
H1016 H 0.56926 0.43375 0.51638 0.0
H1017 H 0.57547 0.34339 0.49373 0.0
H1018 H 0.55368 0.31016 0.49646 0.0
H1019 H 0.49559 0.34787 0.49738 0.0
H1020 H 0.517 0.38129 0.49435 0.0
H1021 H 0.65231 0.42362 0.4402 0.0
H1022 H 0.63071 0.41257 0.47129 0.0
H1023 H 0.57526 0.40455 0.43002 0.0
H1024 H 0.59668 0.41571 0.39885 0.0
H1025 H 0.57659 0.37435 0.46318 0.0
H1026 H 0.58486 0.45072 0.45229 0.0
H1027 H 0.60237 0.48636 0.44968 0.0
H1028 H 0.6257 0.48021 0.51455 0.0
H1029 H 0.60952 0.44399 0.51723 0.0
C1030 C 0.51621 0.41563 0.54896 0.0
C1031 C 0.51866 0.3989 0.56407 0.0
C1032 C 0.52913 0.41633 0.53052 0.0
C1033 C 0.5447 0.40032 0.52679 0.0
C1034 C 0.54718 0.38357 0.54183 0.0
C1035 C 0.53423 0.38282 0.56028 0.0
C1036 C 0.55896 0.40179 0.50765 0.0
C1037 C 0.57099 0.42072 0.5048 0.0
C1038 C 0.56093 0.38484 0.49246 0.0
C1039 C 0.54787 0.36484 0.49406 0.0
C1040 C 0.55804 0.34458 0.49445 0.0
C1041 C 0.54576 0.32571 0.49605 0.0
C1042 C 0.52328 0.32691 0.49717 0.0
C1043 C 0.51302 0.34697 0.49661 0.0
C1044 C 0.52522 0.36588 0.49498 0.0
C1045 C 0.6357 0.4189 0.43761 0.0
C1046 C 0.6261 0.42097 0.41713 0.0
C1047 C 0.62336 0.41269 0.45543 0.0
C1048 C 0.6013 0.40827 0.45299 0.0
C1049 C 0.59224 0.40807 0.43223 0.0
C1050 C 0.60452 0.41445 0.41443 0.0
C1051 C 0.58717 0.40623 0.47213 0.0
C1052 C 0.57513 0.38725 0.47494 0.0
C1053 C 0.58495 0.42331 0.4872 0.0
C1054 C 0.59623 0.44437 0.48483 0.0
C1055 C 0.59424 0.45664 0.4658 0.0
C1056 C 0.60393 0.47697 0.46432 0.0
C1057 C 0.61522 0.48544 0.4819 0.0
C1058 C 0.61713 0.4735 0.50089 0.0
C1059 C 0.60783 0.45301 0.50235 0.0
H1060 H 0.62226 0.50137 0.48098 0.0
H1061 H 0.5138 0.31228 0.49843 0.0
H1062 H 0.47759 0.04036 0.60695 0.0
H1063 H 0.44887 0.04156 0.57999 0.0
H1064 H 0.47149 0.1038 0.55841 0.0
H1065 H 0.49989 0.103 0.58579 0.0
H1066 H 0.4294 0.10379 0.55823 0.0
H1067 H 0.48364 0.05732 0.53077 0.0
H1068 H 0.50956 0.02719 0.52939 0.0
H1069 H 0.45764 0.98173 0.53576 0.0
H1070 H 0.43143 0.01161 0.53758 0.0
H1071 H 0.3878 0.07592 0.44717 0.0
H1072 H 0.41116 0.08654 0.47726 0.0
H1073 H 0.36926 0.05335 0.52174 0.0
H1074 H 0.34554 0.04306 0.49198 0.0
H1075 H 0.42128 0.04115 0.50902 0.0
H1076 H 0.36752 0.09213 0.53812 0.0
H1077 H 0.34418 0.12415 0.53463 0.0
H1078 H 0.39939 0.16314 0.51926 0.0
H1079 H 0.423 0.13122 0.52233 0.0
C1080 C 0.47639 0.05435 0.59655 0.0
C1081 C 0.49113 0.07148 0.59837 0.0
C1082 C 0.46001 0.05499 0.58108 0.0
C1083 C 0.45827 0.07259 0.56689 0.0
C1084 C 0.47256 0.09003 0.56913 0.0
C1085 C 0.48882 0.0895 0.58475 0.0
C1086 C 0.44188 0.07248 0.54943 0.0
C1087 C 0.42775 0.09013 0.54741 0.0
C1088 C 0.4398 0.05478 0.53509 0.0
C1089 C 0.45558 0.03675 0.53458 0.0
C1090 C 0.47777 0.04092 0.53215 0.0
C1091 C 0.49251 0.02388 0.53123 0.0
C1092 C 0.48526 0.00256 0.53255 0.0
C1093 C 0.46324 0.99825 0.53481 0.0
C1094 C 0.44843 0.01524 0.53579 0.0
C1095 C 0.38314 0.07153 0.46344 0.0
C1096 C 0.36497 0.05842 0.46717 0.0
C1097 C 0.39646 0.07768 0.48059 0.0
C1098 C 0.39181 0.07077 0.50162 0.0
C1099 C 0.37289 0.05904 0.5056 0.0
C1100 C 0.35939 0.05315 0.48854 0.0
C1101 C 0.40857 0.07201 0.51844 0.0
C1102 C 0.42293 0.05466 0.52006 0.0
C1103 C 0.41114 0.09012 0.53198 0.0
C1104 C 0.39695 0.10924 0.53014 0.0
C1105 C 0.37463 0.10746 0.53371 0.0
C1106 C 0.36137 0.12561 0.53189 0.0
C1107 C 0.37028 0.14566 0.52664 0.0
C1108 C 0.39249 0.1476 0.52327 0.0
C1109 C 0.40582 0.12949 0.52507 0.0
H1110 H 0.35999 0.15969 0.52525 0.0
H1111 H 0.49669 0.98939 0.53177 0.0
H1112 H 0.02597 0.64953 0.56368 0.0
H1113 H 0.00044 0.62385 0.57906 0.0
H1114 H 0.0471 0.57272 0.57155 0.0
H1115 H 0.07246 0.59824 0.55546 0.0
H1116 H 0.0117 0.56217 0.55247 0.0
H1117 H 0.0281 0.58966 0.62233 0.0
H1118 H 0.034 0.61719 0.65046 0.0
H1119 H 0.96836 0.63835 0.644 0.0
H1120 H 0.96213 0.61115 0.61561 0.0
H1121 H 0.9398 0.48407 0.59827 0.0
H1122 H 0.9706 0.50867 0.59554 0.0
H1123 H 0.92739 0.56175 0.58322 0.0
H1124 H 0.89647 0.53721 0.58534 0.0
H1125 H 0.9628 0.56912 0.61547 0.0
H1126 H 0.94921 0.54622 0.54177 0.0
H1127 H 0.94394 0.52034 0.51195 0.0
H1128 H 0.00499 0.49093 0.52628 0.0
H1129 H 0.01061 0.51667 0.5562 0.0
C1130 C 0.03105 0.63295 0.56589 0.0
C1131 C 0.05113 0.62584 0.55812 0.0
C1132 C 0.01643 0.61826 0.57478 0.0
C1133 C 0.02181 0.5963 0.57645 0.0
C1134 C 0.04254 0.58955 0.57031 0.0
C1135 C 0.05704 0.60416 0.56116 0.0
C1136 C 0.00495 0.58007 0.58159 0.0
C1137 C 0.00141 0.56344 0.56659 0.0
C1138 C 0.99104 0.58204 0.59962 0.0
C1139 C 0.9947 0.59844 0.61671 0.0
C1140 C 0.01496 0.60029 0.62678 0.0
C1141 C 0.01836 0.61582 0.6428 0.0
C1142 C 0.00158 0.62954 0.64898 0.0
C1143 C 0.98135 0.62772 0.63919 0.0
C1144 C 0.97787 0.61222 0.62315 0.0
C1145 C 0.93682 0.501 0.59512 0.0
C1146 C 0.91572 0.50868 0.59185 0.0
C1147 C 0.95442 0.51499 0.59355 0.0
C1148 C 0.95117 0.53694 0.58918 0.0
C1149 C 0.93013 0.54483 0.58665 0.0
C1150 C 0.91254 0.53078 0.58778 0.0
C1151 C 0.9698 0.55153 0.58635 0.0
C1152 C 0.9735 0.56778 0.60167 0.0
C1153 C 0.98396 0.54926 0.56867 0.0
C1154 C 0.98021 0.53318 0.55135 0.0
C1155 C 0.9614 0.53408 0.5387 0.0
C1156 C 0.95843 0.51957 0.52167 0.0
C1157 C 0.97416 0.50406 0.51717 0.0
C1158 C 0.99286 0.50299 0.52974 0.0
C1159 C 0.99596 0.51756 0.54671 0.0
H1160 H 0.97179 0.49278 0.50403 0.0
H1161 H 0.00424 0.64155 0.66139 0.0
H1162 H 0.91007 0.84358 0.60176 0.0
H1163 H 0.94681 0.85422 0.59172 0.0
H1164 H 0.93403 0.91893 0.61432 0.0
H1165 H 0.89689 0.90842 0.6231 0.0
H1166 H 0.95422 0.92143 0.57825 0.0
H1167 H 0.96548 0.88055 0.6435 0.0
H1168 H 0.96263 0.84872 0.66724 0.0
H1169 H 0.99637 0.81038 0.62041 0.0
H1170 H -0.00078 0.84194 0.59628 0.0
H1171 H 0.07738 0.92557 0.60494 0.0
H1172 H 0.04086 0.91323 0.61276 0.0
H1173 H 0.02429 0.91935 0.5453 0.0
H1174 H 0.06056 0.93288 0.53763 0.0
H1175 H 0.01864 0.88067 0.60262 0.0
H1176 H 0.97582 0.92822 0.53702 0.0
H1177 H 0.97801 0.96284 0.51749 0.0
H1178 H 0.00712 0.99263 0.57291 0.0
H1179 H 0.00552 0.95799 0.59257 0.0
C1180 C 0.91512 0.86014 0.60415 0.0
C1181 C 0.90072 0.87539 0.61254 0.0
C1182 C 0.93619 0.86612 0.59883 0.0
C1183 C 0.94329 0.88738 0.60238 0.0
C1184 C 0.92891 0.90249 0.61129 0.0
C1185 C 0.90779 0.8965 0.61641 0.0
C1186 C 0.96555 0.89405 0.5965 0.0
C1187 C 0.96829 0.91251 0.58365 0.0
C1188 C 0.98398 0.88251 0.60351 0.0
C1189 C 0.98239 0.86355 0.61802 0.0
C1190 C 0.97217 0.8653 0.63822 0.0
C1191 C 0.97058 0.84731 0.65175 0.0
C1192 C 0.97927 0.82753 0.64532 0.0
C1193 C 0.98963 0.8257 0.62536 0.0
C1194 C 0.99126 0.84364 0.61177 0.0
C1195 C 0.06596 0.92428 0.59177 0.0
C1196 C 0.0718 0.93027 0.57068 0.0
C1197 C 0.04506 0.91719 0.59625 0.0
C1198 C 0.02962 0.91565 0.57971 0.0
C1199 C 0.03565 0.92099 0.55849 0.0
C1200 C 0.05646 0.92852 0.55406 0.0
C1201 C 0.00733 0.90836 0.58484 0.0
C1202 C 0.00457 0.88962 0.59729 0.0
C1203 C 0.98889 0.91998 0.57806 0.0
C1204 C 0.99051 0.94062 0.5662 0.0
C1205 C 0.98264 0.9422 0.545 0.0
C1206 C 0.98384 0.96179 0.5339 0.0
C1207 C 0.99251 0.97999 0.544 0.0
C1208 C 0.00034 0.97854 0.56512 0.0
C1209 C -0.00055 0.9589 0.57619 0.0
H1210 H 0.99321 0.99519 0.53545 0.0
H1211 H 0.97801 0.81362 0.65581 0.0
H1212 H 0.06421 0.34751 0.93527 0.0
H1213 H 0.0318 0.36186 0.9181 0.0
H1214 H 0.05486 0.42671 0.92851 0.0
H1215 H 0.08734 0.41254 0.94565 0.0
H1216 H 0.00444 0.38512 0.94207 0.0
H1217 H 0.03043 0.46095 0.89303 0.0
H1218 H 0.0595 0.47184 0.86812 0.0
H1219 H 0.06989 0.4056 0.85071 0.0
H1220 H 0.04069 0.39432 0.87526 0.0
H1221 H 0.93037 0.47 0.94782 0.0
H1222 H 0.96233 0.44707 0.94735 0.0
H1223 H 0.9511 0.43235 0.8802 0.0
H1224 H 0.91904 0.45547 0.88047 0.0
H1225 H 0.99328 0.44309 0.88803 0.0
H1226 H 0.94166 0.39342 0.91668 0.0
H1227 H 0.91238 0.38099 0.94062 0.0
H1228 H 0.9526 0.39179 0.99605 0.0
H1229 H 0.98204 0.4045 0.97245 0.0
C1230 C 0.06276 0.36481 0.93327 0.0
C1231 C 0.07819 0.37891 0.94215 0.0
C1232 C 0.04418 0.37297 0.92348 0.0
C1233 C 0.04086 0.39533 0.92214 0.0
C1234 C 0.05716 0.40939 0.92919 0.0
C1235 C 0.0757 0.40126 0.93909 0.0
C1236 C 0.0192 0.40395 0.91688 0.0
C1237 C 0.00191 0.39753 0.93 0.0
C1238 C 0.01595 0.42011 0.90109 0.0
C1239 C 0.03343 0.42678 0.88612 0.0
C1240 C 0.03883 0.44871 0.88381 0.0
C1241 C 0.05535 0.45495 0.86976 0.0
C1242 C 0.06656 0.43942 0.85788 0.0
C1243 C 0.06124 0.41761 0.85998 0.0
C1244 C 0.04473 0.41128 0.87399 0.0
C1245 C 0.93456 0.46178 0.93299 0.0
C1246 C 0.92215 0.46454 0.9142 0.0
C1247 C 0.9528 0.44861 0.93275 0.0
C1248 C 0.95896 0.43788 0.91378 0.0
C1249 C 0.94657 0.44048 0.895 0.0
C1250 C 0.92823 0.45361 0.89524 0.0
C1251 C 0.97876 0.42452 0.9136 0.0
C1252 C 0.9957 0.43023 0.89966 0.0
C1253 C 0.9817 0.4075 0.92849 0.0
C1254 C 0.96401 0.39999 0.94279 0.0
C1255 C 0.9442 0.39327 0.93398 0.0
C1256 C 0.9276 0.38615 0.94749 0.0
C1257 C 0.93063 0.38562 0.96984 0.0
C1258 C 0.95027 0.39223 0.97873 0.0
C1259 C 0.96693 0.39937 0.9653 0.0
H1260 H 0.91776 0.38007 0.98027 0.0
H1261 H 0.07935 0.44429 0.84702 0.0
H1262 H 0.08291 0.02827 0.87072 0.0
H1263 H 0.05142 0.05199 0.87281 0.0
H1264 H 0.06423 0.06299 0.94044 0.0
H1265 H 0.09518 0.03879 0.93861 0.0
H1266 H 0.02386 0.0548 0.93556 0.0
H1267 H 0.0746 0.10162 0.90031 0.0
H1268 H 0.10068 0.11238 0.87223 0.0
H1269 H 0.05144 0.10672 0.82376 0.0
H1270 H 0.02512 0.09565 0.85154 0.0
H1271 H 0.97058 0.16439 0.93463 0.0
H1272 H -0.00049 0.14207 0.92004 0.0
H1273 H 0.95583 0.088 0.91573 0.0
H1274 H 0.92698 0.11003 0.93114 0.0
H1275 H 0.01056 0.11704 0.88693 0.0
H1276 H 0.98027 0.04412 0.936 0.0
H1277 H 0.95602 0.03662 0.96673 0.0
H1278 H 0.96891 0.09955 0.99273 0.0
H1279 H 0.99349 0.10727 0.96236 0.0
C1280 C 0.0791 0.03591 0.88598 0.0
C1281 C 0.09146 0.03163 0.90453 0.0
C1282 C 0.06113 0.04951 0.88714 0.0
C1283 C 0.05549 0.05936 0.90677 0.0
C1284 C 0.06817 0.05547 0.92515 0.0
C1285 C 0.08591 0.04168 0.92407 0.0
C1286 C 0.03597 0.07312 0.90854 0.0
C1287 C 0.02097 0.06834 0.92484 0.0
C1288 C 0.03218 0.09091 0.89468 0.0
C1289 C 0.04796 0.09758 0.87797 0.0
C1290 C 0.06938 0.1025 0.88364 0.0
C1291 C 0.0842 0.10869 0.86778 0.0
C1292 C 0.07774 0.11017 0.84622 0.0
C1293 C 0.05643 0.10553 0.84047 0.0
C1294 C 0.04155 0.09931 0.85626 0.0
C1295 C 0.96695 0.14792 0.93004 0.0
C1296 C 0.94667 0.13879 0.9345 0.0
C1297 C 0.98352 0.13518 0.92162 0.0
C1298 C 0.97996 0.11323 0.91735 0.0
C1299 C 0.95903 0.10479 0.9194 0.0
C1300 C 0.94255 0.1174 0.92817 0.0
C1301 C 0.99864 0.0987 0.91394 0.0
C1302 C 0.01341 0.1033 0.8974 0.0
C1303 C 0.00262 0.08112 0.928 0.0
C1304 C 0.98852 0.07633 0.94678 0.0
C1305 C 0.97802 0.05629 0.94835 0.0
C1306 C 0.96421 0.05201 0.96569 0.0
C1307 C 0.96086 0.06763 0.98163 0.0
C1308 C 0.97147 0.08749 0.98035 0.0
C1309 C 0.98535 0.09182 0.96309 0.0
H1310 H 0.95008 0.06432 0.99498 0.0
H1311 H 0.08923 0.11496 0.83396 0.0
H1312 H 0.6045 0.01835 0.64311 0.0
H1313 H 0.61671 0.98775 0.62136 0.0
H1314 H 0.5949 0.02001 0.56361 0.0
H1315 H 0.5831 0.05069 0.58506 0.0
H1316 H 0.59091 0.96254 0.59964 0.0
H1317 H 0.6209 0.00306 0.51984 0.0
H1318 H 0.64258 0.03457 0.50886 0.0
H1319 H 0.67413 0.03486 0.57059 0.0
H1320 H 0.65289 0.00316 0.58184 0.0
H1321 H 0.56532 0.90312 0.50732 0.0
H1322 H 0.57115 0.93058 0.53493 0.0
H1323 H 0.64 0.92198 0.52941 0.0
H1324 H 0.63433 0.89457 0.5015 0.0
H1325 H 0.62963 0.96395 0.52956 0.0
H1326 H 0.61443 0.9033 0.57357 0.0
H1327 H 0.59482 0.87086 0.58567 0.0
H1328 H 0.53844 0.9091 0.59814 0.0
H1329 H 0.5576 0.94174 0.58581 0.0
C1330 C 0.60281 0.01916 0.62572 0.0
C1331 C 0.59262 0.03687 0.61584 0.0
C1332 C 0.60975 0.00163 0.61333 0.0
C1333 C 0.60675 0.00158 0.59085 0.0
C1334 C 0.59772 0.01979 0.58087 0.0
C1335 C 0.59084 0.03731 0.59321 0.0
C1336 C 0.61043 0.98166 0.57809 0.0
C1337 C 0.59962 0.96279 0.58445 0.0
C1338 C 0.62216 0.98181 0.55848 0.0
C1339 C 0.63519 0.00076 0.55173 0.0
C1340 C 0.63256 0.00974 0.53103 0.0
C1341 C 0.64475 0.02767 0.52477 0.0
C1342 C 0.65969 0.03674 0.53903 0.0
C1343 C 0.66251 0.02787 0.55958 0.0
C1344 C 0.65037 0.00993 0.56592 0.0
C1345 C 0.58171 0.90694 0.51204 0.0
C1346 C 0.59936 0.89665 0.50222 0.0
C1347 C 0.58502 0.92258 0.52791 0.0
C1348 C 0.60601 0.92814 0.53439 0.0
C1349 C 0.62368 0.91787 0.52467 0.0
C1350 C 0.62039 0.90218 0.50878 0.0
C1351 C 0.60931 0.9453 0.55072 0.0
C1352 C 0.62135 0.96362 0.54498 0.0
C1353 C 0.59904 0.94454 0.57109 0.0
C1354 C 0.58744 0.92497 0.57866 0.0
C1355 C 0.59781 0.90478 0.57876 0.0
C1356 C 0.58678 0.88635 0.58568 0.0
C1357 C 0.5654 0.88791 0.59265 0.0
C1358 C 0.55501 0.90792 0.59275 0.0
C1359 C 0.56596 0.9264 0.58583 0.0
H1360 H 0.55688 0.87363 0.59799 0.0
H1361 H 0.66911 0.05062 0.53415 0.0
H1362 H 0.61577 0.06148 0.9749 0.0
H1363 H 0.61943 0.02772 0.95506 0.0
H1364 H 0.61299 0.06219 0.89484 0.0
H1365 H 0.60849 0.096 0.91471 0.0
H1366 H 0.58762 0.02966 0.89459 0.0
H1367 H 0.66194 0.03785 0.91164 0.0
H1368 H 0.69376 0.04446 0.93461 0.0
H1369 H 0.67878 0.9882 0.9722 0.0
H1370 H 0.64669 0.98141 0.94966 0.0
H1371 H 0.5951 0.93353 0.83723 0.0
H1372 H 0.6107 0.96719 0.85047 0.0
H1373 H 0.60552 0.94411 0.91594 0.0
H1374 H 0.58992 0.91036 0.9029 0.0
H1375 H 0.64133 0.97212 0.90917 0.0
H1376 H 0.5641 0.96824 0.89496 0.0
H1377 H 0.53164 0.96286 0.87252 0.0
H1378 H 0.55293 0.01265 0.82923 0.0
H1379 H 0.58573 0.01795 0.85112 0.0
C1380 C 0.61537 0.06193 0.95742 0.0
C1381 C 0.61171 0.08139 0.94636 0.0
C1382 C 0.61768 0.0426 0.94607 0.0
C1383 C 0.61681 0.04239 0.92341 0.0
C1384 C 0.61376 0.06193 0.91232 0.0
C1385 C 0.61116 0.08125 0.92368 0.0
C1386 C 0.61693 0.02157 0.91149 0.0
C1387 C 0.59974 0.01734 0.89738 0.0
C1388 C 0.63245 0.00524 0.91543 0.0
C1389 C 0.65181 0.0092 0.92901 0.0
C1390 C 0.66534 0.02696 0.92489 0.0
C1391 C 0.68344 0.03073 0.93783 0.0
C1392 C 0.68827 0.01678 0.95488 0.0
C1393 C 0.67502 -0.001 0.95899 0.0
C1394 C 0.65689 0.99516 0.94612 0.0
C1395 C 0.59799 0.93523 0.85439 0.0
C1396 C 0.59078 0.91947 0.86906 0.0
C1397 C 0.60688 0.95454 0.86192 0.0
C1398 C 0.60877 0.95828 0.88418 0.0
C1399 C 0.60406 0.94156 0.89869 0.0
C1400 C 0.59508 0.92228 0.8912 0.0
C1401 C 0.61204 0.98043 0.89249 0.0
C1402 C 0.62966 0.98477 0.90603 0.0
C1403 C 0.59699 0.99699 0.88798 0.0
C1404 C 0.57751 0.99331 0.87452 0.0
C1405 C 0.562 0.97783 0.88049 0.0
C1406 C 0.54352 0.97481 0.86789 0.0
C1407 C 0.54023 0.98739 0.84945 0.0
C1408 C 0.5555 0.00287 0.84347 0.0
C1409 C 0.57406 0.00587 0.85595 0.0
H1410 H 0.52578 0.98528 0.83991 0.0
H1411 H 0.70229 0.01973 0.96487 0.0
H1412 H 0.39328 0.5289 0.83432 0.0
H1413 H 0.3781 0.50046 0.85686 0.0
H1414 H 0.37891 0.54329 0.91179 0.0
H1415 H 0.3946 0.5717 0.88943 0.0
H1416 H 0.40137 0.50845 0.91967 0.0
H1417 H 0.33109 0.5219 0.89161 0.0
H1418 H 0.3035 0.52805 0.8636 0.0
H1419 H 0.31572 0.46519 0.83715 0.0
H1420 H 0.34361 0.45877 0.86481 0.0
H1421 H 0.37278 0.424 0.98932 0.0
H1422 H 0.36869 0.45767 0.96926 0.0
H1423 H 0.3703 0.42233 0.90926 0.0
H1424 H 0.37384 0.38848 0.92924 0.0
H1425 H 0.34258 0.45569 0.90665 0.0
H1426 H 0.41587 0.44465 0.93066 0.0
H1427 H 0.44508 0.43867 0.95704 0.0
H1428 H 0.42838 0.49755 0.98952 0.0
H1429 H 0.39883 0.5037 0.96352 0.0
C1430 C 0.38961 0.53252 0.85103 0.0
C1431 C 0.39548 0.55243 0.86018 0.0
C1432 C 0.38081 0.51623 0.8639 0.0
C1433 C 0.37744 0.5197 0.88606 0.0
C1434 C 0.38149 0.54022 0.89476 0.0
C1435 C 0.39044 0.55645 0.88194 0.0
C1436 C 0.37318 0.50117 0.90061 0.0
C1437 C 0.38814 0.49724 0.91717 0.0
C1438 C 0.35638 0.48615 0.89688 0.0
C1439 C 0.33956 0.48992 0.88023 0.0
C1440 C 0.32802 0.50945 0.87973 0.0
C1441 C 0.3123 0.51297 0.86393 0.0
C1442 C 0.30789 0.49704 0.84858 0.0
C1443 C 0.31916 0.47753 0.84904 0.0
C1444 C 0.3349 0.47392 0.8648 0.0
C1445 C 0.37196 0.42334 0.97186 0.0
C1446 C 0.37399 0.40361 0.96083 0.0
C1447 C 0.36963 0.44261 0.96043 0.0
C1448 C 0.36964 0.44254 0.93777 0.0
C1449 C 0.37034 0.42276 0.92675 0.0
C1450 C 0.37245 0.40343 0.93819 0.0
C1451 C 0.37081 0.46308 0.92555 0.0
C1452 C 0.35546 0.46724 0.9094 0.0
C1453 C 0.38737 0.47834 0.92949 0.0
C1454 C 0.40494 0.47447 0.94532 0.0
C1455 C 0.41828 0.4562 0.94356 0.0
C1456 C 0.43492 0.45281 0.95843 0.0
C1457 C 0.43854 0.46769 0.97499 0.0
C1458 C 0.42552 0.48601 0.97672 0.0
C1459 C 0.40882 0.48945 0.96194 0.0
H1460 H 0.45146 0.46506 0.98645 0.0
H1461 H 0.29571 0.4998 0.83636 0.0
H1462 H 0.89612 0.06603 0.99741 0.0
H1463 H 0.90053 0.03691 0.02362 0.0
H1464 H 0.91512 0.08356 0.07325 0.0
H1465 H 0.91103 0.11278 0.04706 0.0
H1466 H 0.94347 0.05127 0.07365 0.0
H1467 H 0.86657 0.05762 0.07203 0.0
H1468 H 0.83056 0.05938 0.05518 0.0
H1469 H 0.83883 0.99541 0.02988 0.0
H1470 H 0.87504 0.99339 0.0463 0.0
H1471 H 0.94031 0.98154 0.16201 0.0
H1472 H 0.92537 0.00902 0.13801 0.0
H1473 H 0.92514 0.96349 0.08543 0.0
H1474 H 0.94046 0.93589 0.10921 0.0
H1475 H 0.88811 0.99493 0.08733 0.0
H1476 H 0.96612 0.99021 0.08683 0.0
H1477 H 0.00174 0.98832 0.10448 0.0
H1478 H 0.99064 0.04985 0.13435 0.0
H1479 H 0.95474 0.0519 0.11718 0.0
C1480 C 0.90012 0.07012 0.01393 0.0
C1481 C 0.90319 0.09172 0.02017 0.0
C1482 C 0.90255 0.05345 0.02892 0.0
C1483 C 0.90791 0.05808 0.05045 0.0
C1484 C 0.91093 0.07964 0.05672 0.0
C1485 C 0.90856 0.09631 0.04174 0.0
C1486 C 0.91125 0.0404 0.06622 0.0
C1487 C 0.93121 0.03918 0.07685 0.0
C1488 C 0.89543 0.02433 0.07006 0.0
C1489 C 0.87362 0.02544 0.06023 0.0
C1490 C 0.86079 0.044 0.06272 0.0
C1491 C 0.84032 0.04503 0.05328 0.0
C1492 C 0.83243 0.02754 0.04142 0.0
C1493 C 0.84497 0.00895 0.03904 0.0
C1494 C 0.86546 0.00785 0.04843 0.0
C1495 C 0.93649 0.97713 0.14553 0.0
C1496 C 0.94183 0.95663 0.13742 0.0
C1497 C 0.92797 0.99287 0.13186 0.0
C1498 C 0.92439 0.98827 0.10999 0.0
C1499 C 0.9278 0.96727 0.1023 0.0
C1500 C 0.93661 0.95157 0.11589 0.0
C1501 C 0.92018 0.00604 0.09468 0.0
C1502 C 0.90021 0.00718 0.08412 0.0
C1503 C 0.93593 0.02211 0.09088 0.0
C1504 C 0.95765 0.0211 0.10092 0.0
C1505 C 0.97119 0.00324 0.09732 0.0
C1506 C 0.99144 0.00215 0.10722 0.0
C1507 C 0.99841 0.01891 0.1206 0.0
C1508 C 0.9852 0.03686 0.124 0.0
C1509 C 0.9649 0.038 0.1142 0.0
H1510 H 0.01407 0.01802 0.12829 0.0
H1511 H 0.81658 0.02836 0.03413 0.0
H1512 H 0.93378 0.16712 0.33523 0.0
H1513 H 0.94478 0.20389 0.32598 0.0
H1514 H 0.9718 0.21193 0.38969 0.0
H1515 H 0.9605 0.17552 0.39921 0.0
H1516 H 0.95526 0.24906 0.37571 0.0
H1517 H 0.0024 0.19355 0.34806 0.0
H1518 H 0.0108 0.16075 0.32713 0.0
H1519 H 0.98992 0.19207 0.26892 0.0
H1520 H 0.98103 0.22496 0.2896 0.0
H1521 H 0.04196 0.31896 0.36595 0.0
H1522 H 0.02386 0.28409 0.36782 0.0
H1523 H 0.99358 0.29608 0.30632 0.0
H1524 H 0.0115 0.33127 0.3043 0.0
H1525 H 0.00793 0.25081 0.31529 0.0
H1526 H 0.96522 0.30885 0.34501 0.0
H1527 H 0.96037 0.34114 0.36778 0.0
H1528 H 0.97598 0.30418 0.42427 0.0
H1529 H 0.98135 0.27173 0.40179 0.0
C1530 C 0.94153 0.17692 0.34747 0.0
C1531 C 0.94663 0.16827 0.36783 0.0
C1532 C 0.9479 0.19789 0.34211 0.0
C1533 C 0.95957 0.21042 0.35698 0.0
C1534 C 0.96295 0.20249 0.37791 0.0
C1535 C 0.95653 0.18161 0.38331 0.0
C1536 C 0.97029 0.2307 0.35028 0.0
C1537 C 0.96672 0.24944 0.36248 0.0
C1538 C 0.98517 0.23123 0.3329 0.0
C1539 C 0.9908 0.21161 0.3204 0.0
C1540 C -0.00054 0.19339 0.33082 0.0
C1541 C 0.00432 0.17479 0.31901 0.0
C1542 C 0.00084 0.1743 0.29672 0.0
C1543 C 0.99256 0.19245 0.2862 0.0
C1544 C 0.9876 0.21107 0.29795 0.0
C1545 C 0.03191 0.31403 0.35252 0.0
C1546 C 0.02784 0.32809 0.33516 0.0
C1547 C 0.02155 0.29411 0.35366 0.0
C1548 C 0.0071 0.28784 0.33742 0.0
C1549 C 0.00459 0.30081 0.31906 0.0
C1550 C 0.01486 0.32088 0.31795 0.0
C1551 C 0.99305 0.26892 0.3409 0.0
C1552 C 0.99608 0.2505 0.32817 0.0
C1553 C 0.97791 0.26858 0.358 0.0
C1554 C 0.9739 0.28789 0.37166 0.0
C1555 C 0.96776 0.30762 0.36227 0.0
C1556 C 0.96493 0.32596 0.37512 0.0
C1557 C 0.96801 0.32474 0.39743 0.0
C1558 C 0.9737 0.30511 0.40697 0.0
C1559 C 0.97661 0.28674 0.39418 0.0
H1560 H 0.96593 0.33897 0.40734 0.0
H1561 H 0.0046 0.15989 0.28761 0.0
H1562 H 0.01945 0.67129 0.16227 0.0
H1563 H 0.02241 0.71026 0.1667 0.0
H1564 H 0.9609 0.71145 0.19927 0.0
H1565 H 0.95763 0.67237 0.19463 0.0
H1566 H 0.96293 0.74122 0.16788 0.0
H1567 H 0.00748 0.7205 0.2273 0.0
H1568 H 0.03666 0.70068 0.24569 0.0
H1569 H 0.08348 0.73019 0.20397 0.0
H1570 H 0.05455 0.74997 0.18512 0.0
H1571 H 0.97352 0.85409 0.18382 0.0
H1572 H 0.96929 0.81564 0.19173 0.0
H1573 H 0.03153 0.80294 0.16317 0.0
H1574 H 0.03618 0.84135 0.15596 0.0
H1575 H 0.02679 0.77919 0.19775 0.0
H1576 H 0.98268 0.79541 0.13528 0.0
H1577 H 0.954 0.81448 0.11531 0.0
H1578 H 0.90702 0.79268 0.16137 0.0
H1579 H 0.93548 0.77369 0.18175 0.0
C1580 C 0.00663 0.67977 0.17059 0.0
C1581 C 0.98825 0.66874 0.17803 0.0
C1582 C 0.00842 0.70205 0.17322 0.0
C1583 C 0.99197 0.71372 0.18351 0.0
C1584 C 0.97379 0.70272 0.19134 0.0
C1585 C 0.97197 0.68039 0.1887 0.0
C1586 C 0.99316 0.73757 0.18464 0.0
C1587 C 0.97667 0.74956 0.17484 0.0
C1588 C 0.01133 0.74838 0.19329 0.0
C1589 C 0.0288 0.73662 0.2047 0.0
C1590 C 0.02398 0.72266 0.22195 0.0
C1591 C 0.04048 0.71145 0.23247 0.0
C1592 C 0.06191 0.71415 0.22598 0.0
C1593 C 0.06687 0.72811 0.20898 0.0
C1594 C 0.05043 0.73935 0.19839 0.0
C1595 C 0.98635 0.8431 0.17937 0.0
C1596 C 0.00511 0.8507 0.16912 0.0
C1597 C 0.98389 0.82113 0.18383 0.0
C1598 C -6e-05 0.80635 0.17771 0.0
C1599 C 0.01893 0.81403 0.16804 0.0
C1600 C 0.02153 0.836 0.16386 0.0
C1601 C 0.99677 0.7828 0.18058 0.0
C1602 C 0.01289 0.77086 0.19111 0.0
C1603 C 0.97834 0.77199 0.17243 0.0
C1604 C 0.96124 0.78335 0.16016 0.0
C1605 C 0.96626 0.79482 0.14123 0.0
C1606 C 0.95004 0.80559 0.12982 0.0
C1607 C 0.92871 0.80485 0.13711 0.0
C1608 C 0.92355 0.79328 0.15577 0.0
C1609 C 0.93971 0.7825 0.16725 0.0
H1610 H 0.91618 0.8132 0.12826 0.0
H1611 H 0.07466 0.70545 0.23415 0.0
H1612 H 0.37124 0.99569 0.1712 0.0
H1613 H 0.37002 0.0008 0.21006 0.0
H1614 H 0.30145 0.01242 0.2067 0.0
H1615 H 0.30263 0.00786 0.1674 0.0
H1616 H 0.32023 0.04216 0.23074 0.0
H1617 H 0.32118 0.9659 0.22965 0.0
H1618 H 0.33267 0.92933 0.21905 0.0
H1619 H 0.39569 0.94113 0.24536 0.0
H1620 H 0.3847 0.9779 0.25584 0.0
H1621 H 0.3218 0.03736 0.34881 0.0
H1622 H 0.31332 0.03148 0.31059 0.0
H1623 H 0.38124 0.03048 0.2956 0.0
H1624 H 0.3899 0.03664 0.33355 0.0
H1625 H 0.35647 0.9929 0.28241 0.0
H1626 H 0.35478 0.07128 0.2796 0.0
H1627 H 0.34165 0.10716 0.29069 0.0
H1628 H 0.27711 0.08946 0.27268 0.0
H1629 H 0.28983 0.05333 0.26176 0.0
C1630 C 0.35581 -0.00092 0.17868 0.0
C1631 C 0.33703 0.00141 0.16618 0.0
C1632 C 0.35512 0.00187 0.20097 0.0
C1633 C 0.3356 0.00674 0.21134 0.0
C1634 C 0.31668 0.00862 0.19901 0.0
C1635 C 0.31737 0.00593 0.17659 0.0
C1636 C 0.33551 0.01115 0.23485 0.0
C1637 C 0.32772 0.03116 0.24212 0.0
C1638 C 0.34539 0.99688 0.24969 0.0
C1639 C 0.35213 0.97474 0.24343 0.0
C1640 C 0.33754 0.96076 0.23304 0.0
C1641 C 0.34396 0.93998 0.22707 0.0
C1642 C 0.3649 0.93292 0.2315 0.0
C1643 C 0.37947 0.94662 0.24194 0.0
C1644 C 0.37314 0.96743 0.24793 0.0
C1645 C 0.33491 0.03634 0.33729 0.0
C1646 C 0.35653 0.03733 0.3442 0.0
C1647 C 0.33003 0.03297 0.31552 0.0
C1648 C 0.34668 0.03039 0.30043 0.0
C1649 C 0.3682 0.03234 0.30711 0.0
C1650 C 0.3731 0.03597 0.32878 0.0
C1651 C 0.34191 0.0241 0.27796 0.0
C1652 C 0.3487 0.00368 0.27101 0.0
C1653 C 0.33083 0.03783 0.26355 0.0
C1654 C 0.32321 0.05952 0.27013 0.0
C1655 C 0.33775 0.07496 0.27822 0.0
C1656 C 0.3304 0.09536 0.28442 0.0
C1657 C 0.30855 0.10056 0.28246 0.0
C1658 C 0.29402 0.08539 0.27423 0.0
C1659 C 0.3013 0.06496 0.26802 0.0
H1660 H 0.30289 0.11637 0.28726 0.0
H1661 H 0.36984 0.91682 0.22687 0.0
H1662 H 0.69809 0.53101 0.1409 0.0
H1663 H 0.702 0.52362 0.1795 0.0
H1664 H 0.64728 0.56435 0.19303 0.0
H1665 H 0.64289 0.57144 0.15438 0.0
H1666 H 0.68558 0.56538 0.22452 0.0
H1667 H 0.63422 0.5177 0.18702 0.0
H1668 H 0.62498 0.49238 0.15769 0.0
H1669 H 0.67675 0.45061 0.17708 0.0
H1670 H 0.6865 0.47591 0.20631 0.0
H1671 H 0.63406 0.53316 0.31916 0.0
H1672 H 0.64519 0.54406 0.28314 0.0
H1673 H 0.67989 0.48415 0.27552 0.0
H1674 H 0.66787 0.47268 0.31145 0.0
H1675 H 0.65899 0.49159 0.24093 0.0
H1676 H 0.70631 0.53446 0.28274 0.0
H1677 H 0.71768 0.55934 0.31165 0.0
H1678 H 0.67793 0.6093 0.28476 0.0
H1679 H 0.66607 0.58463 0.25585 0.0
C1680 C 0.68725 0.53888 0.15212 0.0
C1681 C 0.67002 0.55161 0.14466 0.0
C1682 C 0.68953 0.53463 0.17414 0.0
C1683 C 0.67485 0.54337 0.18896 0.0
C1684 C 0.65878 0.55755 0.18175 0.0
C1685 C 0.65623 0.56149 0.1597 0.0
C1686 C 0.67421 0.53537 0.21136 0.0
C1687 C 0.67976 0.5493 0.22826 0.0
C1688 C 0.66732 0.51413 0.21597 0.0
C1689 C 0.66124 0.4988 0.19864 0.0
C1690 C 0.64374 0.50321 0.18489 0.0
C1691 C 0.6384 0.48885 0.16831 0.0
C1692 C 0.65032 0.46993 0.16548 0.0
C1693 C 0.66756 0.4653 0.17926 0.0
C1694 C 0.673 0.47963 0.19584 0.0
C1695 C 0.64417 0.52233 0.30989 0.0
C1696 C 0.65013 0.50208 0.31811 0.0
C1697 C 0.65071 0.52868 0.28933 0.0
C1698 C 0.66384 0.51517 0.27676 0.0
C1699 C 0.66988 0.49491 0.28497 0.0
C1700 C 0.663 0.48837 0.30546 0.0
C1701 C 0.66991 0.52175 0.25453 0.0
C1702 C 0.66531 0.50755 0.23749 0.0
C1703 C 0.67805 0.54264 0.24986 0.0
C1704 C 0.6852 0.55763 0.26717 0.0
C1705 C 0.69988 0.55071 0.28306 0.0
C1706 C 0.70643 0.56478 0.29944 0.0
C1707 C 0.69851 0.58588 0.30005 0.0
C1708 C 0.68406 0.59295 0.28426 0.0
C1709 C 0.67744 0.57894 0.26784 0.0
H1710 H 0.7036 0.59675 0.31275 0.0
H1711 H 0.64616 0.45884 0.15263 0.0
H1712 H 0.35002 0.2922 0.01332 0.0
H1713 H 0.31093 0.28601 0.01363 0.0
H1714 H 0.30317 0.3373 0.06002 0.0
H1715 H 0.34207 0.34412 0.05909 0.0
H1716 H 0.2718 0.29565 0.06085 0.0
H1717 H 0.30078 0.35796 0.01803 0.0
H1718 H 0.32759 0.37142 0.9918 0.0
H1719 H 0.30811 0.32268 0.94649 0.0
H1720 H 0.28144 0.30874 0.97267 0.0
H1721 H 0.17651 0.35483 0.05275 0.0
H1722 H 0.2127 0.34007 0.05629 0.0
H1723 H 0.21036 0.31805 0.99018 0.0
H1724 H 0.17431 0.33375 0.98627 0.0
H1725 H 0.24654 0.33617 0.99645 0.0
H1726 H 0.20893 0.28211 0.0349 0.0
H1727 H 0.18323 0.26651 0.06096 0.0
H1728 H 0.21852 0.29498 0.11341 0.0
H1729 H 0.24426 0.31103 0.08765 0.0
C1730 C 0.34006 0.30148 0.02428 0.0
C1731 C 0.34886 0.31869 0.03612 0.0
C1732 C 0.31779 0.29792 0.02445 0.0
C1733 C 0.30432 0.31122 0.03684 0.0
C1734 C 0.31342 0.32677 0.05053 0.0
C1735 C 0.33556 0.33071 0.04993 0.0
C1736 C 0.2811 0.3125 0.032 0.0
C1737 C 0.2661 0.30439 0.04679 0.0
C1738 C 0.27391 0.32337 0.01331 0.0
C1739 C 0.2893 0.33224 0.99731 0.0
C1740 C 0.3023 0.35008 0.0025 0.0
C1741 C 0.31747 0.35779 0.98766 0.0
C1742 C 0.31958 0.34789 0.9675 0.0
C1743 C 0.30648 0.33032 0.96212 0.0
C1744 C 0.29134 0.32251 0.97694 0.0
C1745 C 0.18361 0.34669 0.039 0.0
C1746 C 0.17261 0.34547 0.01922 0.0
C1747 C 0.20426 0.33804 0.04111 0.0
C1748 C 0.21415 0.3275 0.02364 0.0
C1749 C 0.20303 0.326 0.00392 0.0
C1750 C 0.18247 0.335 0.00169 0.0
C1751 C 0.23672 0.31974 0.02561 0.0
C1752 C 0.25183 0.32681 0.01026 0.0
C1753 C 0.24387 0.30756 0.04366 0.0
C1754 C 0.22849 0.29787 0.05929 0.0
C1755 C 0.21114 0.28517 0.05198 0.0
C1756 C 0.19657 0.27622 0.0667 0.0
C1757 C 0.19923 0.27977 0.08882 0.0
C1758 C 0.21649 0.29224 0.09626 0.0
C1759 C 0.2311 0.30123 0.0816 0.0
H1760 H 0.18793 0.27284 0.1002 0.0
H1761 H 0.33134 0.35386 0.95604 0.0
H1762 H 0.15452 0.67275 0.45759 0.0
H1763 H 0.19384 0.67565 0.45851 0.0
H1764 H 0.19302 0.6676 0.52767 0.0
H1765 H 0.15367 0.66468 0.52696 0.0
H1766 H 0.22339 0.69866 0.51291 0.0
H1767 H 0.20101 0.62513 0.49841 0.0
H1768 H 0.18097 0.59726 0.47824 0.0
H1769 H 0.21482 0.61439 0.42022 0.0
H1770 H 0.2348 0.64264 0.44 0.0
H1771 H 0.32672 0.65691 0.53685 0.0
H1772 H 0.28835 0.66461 0.53269 0.0
H1773 H 0.29512 0.662 0.46339 0.0
H1774 H 0.33347 0.65373 0.46743 0.0
H1775 H 0.2618 0.63913 0.47558 0.0
H1776 H 0.28688 0.71033 0.49029 0.0
H1777 H 0.30656 0.73888 0.50983 0.0
H1778 H 0.26812 0.72727 0.56631 0.0
H1779 H 0.24839 0.69843 0.54721 0.0
C1780 C 0.16265 0.67194 0.47304 0.0
C1781 C 0.15102 0.66822 0.49218 0.0
C1782 C 0.1851 0.67358 0.47352 0.0
C1783 C 0.19625 0.6716 0.49313 0.0
C1784 C 0.18464 0.66916 0.51239 0.0
C1785 C 0.16219 0.66738 0.51193 0.0
C1786 C 0.22003 0.67015 0.49337 0.0
C1787 C 0.23187 0.68561 0.50489 0.0
C1788 C 0.23096 0.65337 0.48243 0.0
C1789 C 0.21921 0.63615 0.47062 0.0
C1790 C 0.20406 0.62306 0.48132 0.0
C1791 C 0.19273 0.60718 0.46996 0.0
C1792 C 0.19658 0.6041 0.44795 0.0
C1793 C 0.21183 0.61683 0.43727 0.0
C1794 C 0.22316 0.63277 0.44854 0.0
C1795 C 0.3201 0.65814 0.52071 0.0
C1796 C 0.33311 0.65465 0.50247 0.0
C1797 C 0.29817 0.66269 0.51836 0.0
C1798 C 0.28891 0.66415 0.49772 0.0
C1799 C 0.30194 0.66098 0.47946 0.0
C1800 C 0.32385 0.65627 0.48181 0.0
C1801 C 0.26539 0.66761 0.49527 0.0
C1802 C 0.2535 0.65242 0.48339 0.0
C1803 C 0.25448 0.68472 0.5058 0.0
C1804 C 0.26627 0.70209 0.51735 0.0
C1805 C 0.28273 0.71374 0.50693 0.0
C1806 C 0.29388 0.73 0.51792 0.0
C1807 C 0.28862 0.73485 0.53931 0.0
C1808 C 0.27218 0.72348 0.54975 0.0
C1809 C 0.26099 0.70719 0.53883 0.0
H1810 H 0.29727 0.74744 0.54779 0.0
H1811 H 0.18777 0.59184 0.43916 0.0
H1812 H 0.6736 0.84867 0.42783 0.0
H1813 H 0.71172 0.84802 0.43744 0.0
H1814 H 0.70239 0.7878 0.4711 0.0
H1815 H 0.66412 0.78836 0.46166 0.0
H1816 H 0.71651 0.81961 0.49728 0.0
H1817 H 0.73753 0.79041 0.42948 0.0
H1818 H 0.73869 0.78716 0.38984 0.0
H1819 H 0.7662 0.85058 0.38505 0.0
H1820 H 0.76492 0.85437 0.42466 0.0
H1821 H 0.82086 0.82701 0.54119 0.0
H1822 H 0.79042 0.81317 0.52038 0.0
H1823 H 0.79214 0.86978 0.47985 0.0
H1824 H 0.82308 0.8835 0.50025 0.0
H1825 H 0.78363 0.83432 0.45623 0.0
H1826 H 0.75685 0.86609 0.52196 0.0
H1827 H 0.75445 0.8713 0.56137 0.0
H1828 H 0.73621 0.80493 0.56939 0.0
H1829 H 0.73877 0.79926 0.53002 0.0
C1830 C 0.67977 0.83491 0.43668 0.0
C1831 C 0.66575 0.8188 0.44439 0.0
C1832 C 0.70163 0.8345 0.44205 0.0
C1833 C 0.70984 0.81793 0.45511 0.0
C1834 C 0.69632 0.80076 0.46105 0.0
C1835 C 0.67445 0.80111 0.45561 0.0
C1836 C 0.73108 0.8207 0.46571 0.0
C1837 C 0.73132 0.82222 0.48831 0.0
C1838 C 0.75018 0.82491 0.45394 0.0
C1839 C 0.75099 0.82272 0.43008 0.0
C1840 C 0.74367 0.80375 0.41998 0.0
C1841 C 0.74438 0.80179 0.3975 0.0
C1842 C 0.75248 0.81866 0.38493 0.0
C1843 C 0.75993 0.83752 0.39481 0.0
C1844 C 0.75924 0.83956 0.41729 0.0
C1845 C 0.81481 0.83651 0.52781 0.0
C1846 C 0.82417 0.85649 0.52253 0.0
C1847 C 0.79744 0.82854 0.51591 0.0
C1848 C 0.78883 0.84059 0.49876 0.0
C1849 C 0.79855 0.86023 0.49302 0.0
C1850 C 0.81612 0.86811 0.50479 0.0
C1851 C 0.76889 0.83336 0.48771 0.0
C1852 C 0.76889 0.8312 0.46514 0.0
C1853 C 0.74983 0.82881 0.49943 0.0
C1854 C 0.74825 0.83219 0.52309 0.0
C1855 C 0.75249 0.85257 0.53215 0.0
C1856 C 0.75108 0.85561 0.55447 0.0
C1857 C 0.74525 0.83844 0.56788 0.0
C1858 C 0.74076 0.8182 0.55899 0.0
C1859 C 0.74218 0.81506 0.53668 0.0
H1860 H 0.74416 0.84083 0.58516 0.0
H1861 H 0.75302 0.81711 0.36753 0.0
H1862 H 0.53428 0.81979 0.84014 0.0
H1863 H 0.52297 0.78344 0.82958 0.0
H1864 H 0.45625 0.80272 0.8339 0.0
H1865 H 0.46736 0.83906 0.84439 0.0
H1866 H 0.46563 0.76596 0.85722 0.0
H1867 H 0.47668 0.79297 0.78573 0.0
H1868 H 0.49667 0.81093 0.75638 0.0
H1869 H 0.54619 0.76264 0.76008 0.0
H1870 H 0.52665 0.74456 0.78969 0.0
H1871 H 0.43007 0.66221 0.82837 0.0
H1872 H 0.43437 0.70135 0.82532 0.0
H1873 H 0.50278 0.69316 0.8153 0.0
H1874 H 0.49854 0.65416 0.81764 0.0
H1875 H 0.48856 0.72586 0.79179 0.0
H1876 H 0.4818 0.70247 0.86583 0.0
H1877 H 0.46401 0.68441 0.89654 0.0
H1878 H 0.40902 0.72596 0.88954 0.0
H1879 H 0.42639 0.74408 0.85858 0.0
C1880 C 0.51721 0.81635 0.83862 0.0
C1881 C 0.50171 0.83224 0.84322 0.0
C1882 C 0.51078 0.79563 0.83246 0.0
C1883 C 0.48878 0.79049 0.83086 0.0
C1884 C 0.4733 0.80643 0.835 0.0
C1885 C 0.4797 0.82717 0.84099 0.0
C1886 C 0.48196 0.76804 0.8266 0.0
C1887 C 0.47022 0.75731 0.8427 0.0
C1888 C 0.48848 0.7567 0.8079 0.0
C1889 C 0.50026 0.7675 0.79006 0.0
C1890 C 0.49192 0.78628 0.78042 0.0
C1891 C 0.50315 0.79646 0.7637 0.0
C1892 C 0.52271 0.78796 0.7564 0.0
C1893 C 0.53104 0.76922 0.76577 0.0
C1894 C 0.51988 0.75898 0.7825 0.0
C1895 C 0.44595 0.66874 0.82513 0.0
C1896 C 0.46401 0.65513 0.82359 0.0
C1897 C 0.44839 0.6911 0.82344 0.0
C1898 C 0.46897 0.70017 0.82053 0.0
C1899 C 0.48676 0.68652 0.81761 0.0
C1900 C 0.48431 0.6642 0.81907 0.0
C1901 C 0.47242 0.72374 0.82252 0.0
C1902 C 0.4836 0.73464 0.8061 0.0
C1903 C 0.46569 0.73524 0.84109 0.0
C1904 C 0.45527 0.72444 0.85975 0.0
C1905 C 0.46584 0.70764 0.87075 0.0
C1906 C 0.45585 0.69741 0.88821 0.0
C1907 C 0.43537 0.70399 0.89494 0.0
C1908 C 0.42486 0.72085 0.88427 0.0
C1909 C 0.43477 0.73111 0.86677 0.0
H1910 H 0.42765 0.69605 0.90846 0.0
H1911 H 0.53138 0.79586 0.74346 0.0
H1912 H 0.47876 0.31186 0.64601 0.0
H1913 H 0.4871 0.27458 0.65609 0.0
H1914 H 0.55509 0.28964 0.65566 0.0
H1915 H 0.54692 0.32685 0.6461 0.0
H1916 H 0.50815 0.24584 0.63362 0.0
H1917 H 0.58232 0.25805 0.69042 0.0
H1918 H 0.59463 0.28371 0.71827 0.0
H1919 H 0.52905 0.30211 0.73082 0.0
H1920 H 0.51631 0.27635 0.70328 0.0
H1921 H 0.56902 0.1527 0.63114 0.0
H1922 H 0.56175 0.19138 0.63247 0.0
H1923 H 0.53794 0.1849 0.69758 0.0
H1924 H 0.54557 0.1462 0.69658 0.0
H1925 H 0.55856 0.22338 0.69172 0.0
H1926 H 0.50292 0.18254 0.65745 0.0
H1927 H 0.48808 0.15593 0.63182 0.0
H1928 H 0.51087 0.19397 0.57855 0.0
H1929 H 0.52617 0.22064 0.60388 0.0
C1930 C 0.49547 0.30727 0.64832 0.0
C1931 C 0.51219 0.32227 0.64519 0.0
C1932 C 0.5002 0.28598 0.65406 0.0
C1933 C 0.5217 0.27939 0.65682 0.0
C1934 C 0.53836 0.29445 0.65405 0.0
C1935 C 0.53366 0.31571 0.64841 0.0
C1936 C 0.52693 0.25644 0.66093 0.0
C1937 C 0.51905 0.24095 0.64642 0.0
C1938 C 0.54087 0.24998 0.67787 0.0
C1939 C 0.54838 0.26537 0.69464 0.0
C1940 C 0.57052 0.26749 0.69919 0.0
C1941 C 0.57757 0.28207 0.71491 0.0
C1942 C 0.56264 0.29458 0.72626 0.0
C1943 C 0.5406 0.29248 0.72196 0.0
C1944 C 0.53346 0.27791 0.70627 0.0
C1945 C 0.56271 0.15957 0.64593 0.0
C1946 C 0.5575 0.14636 0.66362 0.0
C1947 C 0.55852 0.18165 0.64664 0.0
C1948 C 0.5488 0.19083 0.66492 0.0
C1949 C 0.5453 0.17805 0.68328 0.0
C1950 C 0.54967 0.15594 0.68265 0.0
C1951 C 0.54034 0.21311 0.66397 0.0
C1952 C 0.54756 0.22836 0.67905 0.0
C1953 C 0.52534 0.21932 0.64789 0.0
C1954 C 0.51584 0.2035 0.63258 0.0
C1955 C 0.50488 0.18517 0.64027 0.0
C1956 C 0.49638 0.17008 0.6258 0.0
C1957 C 0.49857 0.17324 0.60357 0.0
C1958 C 0.50921 0.19154 0.59577 0.0
C1959 C 0.51778 0.20665 0.61018 0.0
H1960 H 0.49199 0.16153 0.59239 0.0
H1961 H 0.56813 0.30587 0.73841 0.0
H1962 H 0.85551 0.52741 0.829 0.0
H1963 H 0.84843 0.52666 0.79015 0.0
H1964 H 0.8261 0.46092 0.79529 0.0
H1965 H 0.83317 0.46147 0.83407 0.0
H1966 H 0.85653 0.46605 0.76398 0.0
H1967 H 0.79061 0.50025 0.78517 0.0
H1968 H 0.76806 0.52733 0.80361 0.0
H1969 H 0.79811 0.57787 0.76692 0.0
H1970 H 0.82107 0.55112 0.74847 0.0
H1971 H 0.83053 0.45919 0.65317 0.0
H1972 H 0.82596 0.45881 0.69241 0.0
H1973 H 0.84314 0.52626 0.69516 0.0
H1974 H 0.84706 0.52693 0.656 0.0
H1975 H 0.8119 0.51827 0.72286 0.0
H1976 H 0.88036 0.48581 0.70511 0.0
H1977 H 0.90446 0.45979 0.68706 0.0
H1978 H 0.87134 0.40726 0.71785 0.0
H1979 H 0.84686 0.43298 0.73587 0.0
C1980 C 0.84887 0.51287 0.8219 0.0
C1981 C 0.84502 0.49445 0.83458 0.0
C1982 C 0.84473 0.51252 0.79973 0.0
C1983 C 0.83664 0.49376 0.78991 0.0
C1984 C 0.83232 0.47555 0.8026 0.0
C1985 C 0.83636 0.47591 0.82476 0.0
C1986 C 0.83426 0.49263 0.76618 0.0
C1987 C 0.84643 0.47719 0.75499 0.0
C1988 C 0.82152 0.50754 0.75452 0.0
C1989 C 0.80769 0.52368 0.76556 0.0
C1990 C 0.79254 0.51715 0.78116 0.0
C1991 C 0.77966 0.53245 0.79159 0.0
C1992 C 0.78168 0.55431 0.78648 0.0
C1993 C 0.79657 0.56093 0.77088 0.0
C1994 C 0.8095 0.5457 0.76041 0.0
C1995 C 0.83313 0.47398 0.66214 0.0
C1996 C 0.83937 0.49304 0.65154 0.0
C1997 C 0.83056 0.47373 0.68454 0.0
C1998 C 0.83458 0.49242 0.69674 0.0
C1999 C 0.83998 0.51164 0.68608 0.0
C2000 C 0.84231 0.51197 0.66369 0.0
C2001 C 0.83433 0.4918 0.72065 0.0
C2002 C 0.82175 0.50694 0.73187 0.0
C2003 C 0.84689 0.47677 0.7324 0.0
C2004 C 0.86163 0.46129 0.72163 0.0
C2005 C 0.87812 0.4687 0.7079 0.0
C2006 C 0.89186 0.45401 0.6977 0.0
C2007 C 0.88939 0.43188 0.70126 0.0
C2008 C 0.87321 0.4244 0.71508 0.0
C2009 C 0.85941 0.43902 0.7253 0.0
H2010 H 0.90004 0.42053 0.69335 0.0
H2011 H 0.77169 0.56613 0.79457 0.0
H2012 H 0.15016 0.90958 0.65105 0.0
H2013 H 0.15523 0.91499 0.68981 0.0
H2014 H 0.1673 0.98267 0.67898 0.0
H2015 H 0.16232 0.97745 0.64016 0.0
H2016 H 0.19449 0.96454 0.71032 0.0
H2017 H 0.11862 0.96795 0.69282 0.0
H2018 H 0.08467 0.95432 0.67713 0.0
H2019 H 0.08761 0.89863 0.71828 0.0
H2020 H 0.12177 0.91179 0.734 0.0
H2021 H 0.16718 0.01134 0.81102 0.0
H2022 H 0.17115 0.00067 0.77331 0.0
H2023 H 0.15195 0.93571 0.78951 0.0
H2024 H 0.14748 0.94638 0.82724 0.0
H2025 H 0.13023 0.94972 0.75578 0.0
H2026 H 0.20457 0.948 0.77589 0.0
H2027 H 0.23848 0.96175 0.79155 0.0
H2028 H 0.23877 0.01398 0.746 0.0
H2029 H 0.20469 0.00072 0.73025 0.0
C2030 C 0.15417 0.92556 0.65686 0.0
C2031 C 0.1556 0.94314 0.64257 0.0
C2032 C 0.15704 0.92862 0.679 0.0
C2033 C 0.16139 0.94926 0.68721 0.0
C2034 C 0.16393 0.96662 0.67291 0.0
C2035 C 0.16097 0.96361 0.65077 0.0
C2036 C 0.1617 0.95309 0.71076 0.0
C2037 C 0.18044 0.96146 0.72031 0.0
C2038 C 0.14347 0.9486 0.72374 0.0
C2039 C 0.12287 0.94073 0.7144 0.0
C2040 C 0.11212 0.95271 0.69839 0.0
C2041 C 0.09282 0.94508 0.68952 0.0
C2042 C 0.08402 0.92559 0.69666 0.0
C2043 C 0.09447 0.91371 0.71274 0.0
C2044 C 0.11379 0.92124 0.72164 0.0
C2045 C 0.16399 0.99473 0.80662 0.0
C2046 C 0.15693 0.97972 0.8221 0.0
C2047 C 0.1664 0.98862 0.78506 0.0
C2048 C 0.16207 0.96733 0.77864 0.0
C2049 C 0.15541 0.95221 0.79414 0.0
C2050 C 0.15288 0.95834 0.81569 0.0
C2051 C 0.16305 0.96126 0.75552 0.0
C2052 C 0.14446 0.95255 0.74597 0.0
C2053 C 0.18144 0.96544 0.7426 0.0
C2054 C 0.20197 0.97345 0.752 0.0
C2055 C 0.21177 0.96251 0.76932 0.0
C2056 C 0.23104 0.9702 0.77819 0.0
C2057 C 0.24075 0.98875 0.76981 0.0
C2058 C 0.23123 -0.00038 0.75249 0.0
C2059 C 0.21195 0.99201 0.74356 0.0
H2060 H 0.25567 0.99468 0.7767 0.0
H2061 H 0.06908 0.91971 0.68977 0.0
H2062 H 0.83172 0.16914 0.02953 0.0
H2063 H 0.79285 0.17431 0.02553 0.0
H2064 H 0.79953 0.17248 0.95623 0.0
H2065 H 0.83848 0.16742 0.96004 0.0
H2066 H 0.77085 0.20417 0.97022 0.0
H2067 H 0.78459 0.12828 0.98177 0.0
H2068 H 0.79957 0.09705 0.00138 0.0
H2069 H 0.7623 0.11381 0.05736 0.0
H2070 H 0.74733 0.14533 0.03816 0.0
H2071 H 0.66763 0.17126 0.93418 0.0
H2072 H 0.70561 0.17703 0.94265 0.0
H2073 H 0.6913 0.17282 0.01071 0.0
H2074 H 0.65325 0.1666 0.00235 0.0
H2075 H 0.72358 0.14699 0.00043 0.0
H2076 H 0.7067 0.22086 0.98753 0.0
H2077 H 0.69171 0.25201 0.96784 0.0
H2078 H 0.73439 0.23951 0.9147 0.0
H2079 H 0.74944 0.20809 0.93394 0.0
C2080 C 0.82497 0.17002 0.01343 0.0
C2081 C 0.83814 0.16766 0.99509 0.0
C2082 C 0.80277 0.17296 0.01119 0.0
C2083 C 0.79336 0.17356 0.9906 0.0
C2084 C 0.80653 0.17206 0.97226 0.0
C2085 C 0.82875 0.16906 0.97448 0.0
C2086 C 0.76966 0.17445 0.98818 0.0
C2087 C 0.76046 0.19163 0.97668 0.0
C2088 C 0.75618 0.15834 0.99711 0.0
C2089 C 0.76504 0.1393 0.00862 0.0
C2090 C 0.77973 0.1254 0.99832 0.0
C2091 C 0.78819 0.10763 0.00935 0.0
C2092 C 0.78195 0.10349 0.03063 0.0
C2093 C 0.76716 0.11707 0.04089 0.0
C2094 C 0.75867 0.13488 0.02994 0.0
C2095 C 0.67248 0.17188 0.95096 0.0
C2096 C 0.65746 0.16833 0.96758 0.0
C2097 C 0.6942 0.17531 0.95579 0.0
C2098 C 0.70127 0.1755 0.97733 0.0
C2099 C 0.68618 0.17273 0.99399 0.0
C2100 C 0.66445 0.16921 0.98917 0.0
C2101 C 0.72462 0.17667 0.98229 0.0
C2102 C 0.73383 0.15977 0.99422 0.0
C2103 C 0.73805 0.19307 0.97375 0.0
C2104 C 0.72909 0.212 0.96213 0.0
C2105 C 0.71278 0.22464 0.97157 0.0
C2106 C 0.70429 0.24237 0.9605 0.0
C2107 C 0.71207 0.24771 0.94001 0.0
C2108 C 0.72838 0.23535 0.93057 0.0
C2109 C 0.73692 0.21759 0.94156 0.0
H2110 H 0.70547 0.26144 0.93147 0.0
H2111 H 0.78853 0.08973 0.03914 0.0
H2112 H 0.98973 0.95392 0.21172 0.0
H2113 H 0.98699 0.98315 0.23791 0.0
H2114 H 0.03751 0.0179 0.20503 0.0
H2115 H 0.04018 0.98874 0.17829 0.0
H2116 H 0.03877 0.01621 0.25415 0.0
H2117 H 0.99357 0.03496 0.19398 0.0
H2118 H 0.96575 0.02865 0.16621 0.0
H2119 H 0.91867 0.01663 0.21557 0.0
H2120 H 0.94629 0.02232 0.24366 0.0
H2121 H 0.01075 0.10939 0.31679 0.0
H2122 H 0.01979 0.08773 0.28493 0.0
H2123 H 0.96512 0.04646 0.29741 0.0
H2124 H 0.95602 0.06788 0.32915 0.0
H2125 H 0.96931 0.05607 0.25449 0.0
H2126 H 0.01361 0.03153 0.31363 0.0
H2127 H 0.04019 0.03587 0.34295 0.0
H2128 H 0.08778 0.05681 0.29712 0.0
H2129 H 0.06133 0.05294 0.26755 0.0
C2130 C 0.00051 0.9676 0.21015 0.0
C2131 C 0.01511 0.96907 0.19284 0.0
C2132 C 0.99886 0.9843 0.22511 0.0
C2133 C 0.0119 0.00268 0.2232 0.0
C2134 C 0.02729 0.0038 0.20665 0.0
C2135 C 0.02876 0.98718 0.19143 0.0
C2136 C 0.00841 0.02103 0.23798 0.0
C2137 C 0.02384 0.02533 0.25397 0.0
C2138 C 0.9887 0.03251 0.23787 0.0
C2139 C 0.97207 0.02893 0.22095 0.0
C2140 C 0.97735 0.03073 0.19893 0.0
C2141 C 0.9616 0.02732 0.18312 0.0
C2142 C 0.94047 0.0223 0.18913 0.0
C2143 C 0.93505 0.02056 0.21095 0.0
C2144 C 0.95074 0.02387 0.22682 0.0
C2145 C 0.00052 0.09585 0.31259 0.0
C2146 C 0.98277 0.09022 0.32557 0.0
C2147 C 0.00576 0.08347 0.29444 0.0
C2148 C 0.99323 0.0654 0.28897 0.0
C2149 C 0.97499 0.06035 0.30137 0.0
C2150 C 0.96986 0.07256 0.31955 0.0
C2151 C -0.00053 0.05101 0.27096 0.0
C2152 C 0.9845 0.04737 0.25439 0.0
C2153 C 0.01948 0.03998 0.2707 0.0
C2154 C 0.03541 0.04224 0.28842 0.0
C2155 C 0.02968 0.03726 0.30983 0.0
C2156 C 0.04472 0.0396 0.32649 0.0
C2157 C 0.06564 0.04669 0.32191 0.0
C2158 C 0.07155 0.05138 0.30065 0.0
C2159 C 0.05654 0.04913 0.28393 0.0
H2160 H 0.07727 0.04848 0.33482 0.0
H2161 H 0.92825 0.01981 0.1769 0.0
H2162 H 0.02787 0.44448 0.32355 0.0
H2163 H 0.01544 0.47354 0.30012 0.0
H2164 H 0.95405 0.44158 0.29258 0.0
H2165 H 0.96635 0.41231 0.31628 0.0
H2166 H 0.97272 0.45556 0.25351 0.0
H2167 H 0.95536 0.4847 0.32287 0.0
H2168 H 0.9621 0.49488 0.36077 0.0
H2169 H 0.01276 0.53767 0.34068 0.0
H2170 H 0.00653 0.52755 0.30267 0.0
H2171 H 0.93839 0.54521 0.19107 0.0
H2172 H 0.938 0.51812 0.21987 0.0
H2173 H 0.99818 0.54324 0.24435 0.0
H2174 H 0.99839 0.57058 0.21616 0.0
H2175 H 0.97331 0.53218 0.27678 0.0
H2176 H 0.99601 0.49922 0.20983 0.0
H2177 H 0.99226 0.48863 0.17162 0.0
H2178 H 0.9351 0.45252 0.18687 0.0
H2179 H 0.93837 0.46313 0.22515 0.0
C2180 C 0.01172 0.44356 0.3169 0.0
C2181 C 0.99809 0.42607 0.3217 0.0
C2182 C 0.0046 0.46027 0.30365 0.0
C2183 C 0.98376 0.45979 0.29484 0.0
C2184 C 0.97015 0.44226 0.29936 0.0
C2185 C 0.9772 0.42559 0.31286 0.0
C2186 C 0.97668 0.47734 0.2803 0.0
C2187 C 0.97232 0.47229 0.25867 0.0
C2188 C 0.97671 0.49915 0.28702 0.0
C2189 C 0.9805 0.50531 0.3099 0.0
C2190 C 0.96802 0.4962 0.32653 0.0
C2191 C 0.9717 0.502 0.34803 0.0
C2192 C 0.98777 0.51699 0.35311 0.0
C2193 C 0.00023 0.52616 0.33671 0.0
C2194 C 0.99661 0.52041 0.31518 0.0
C2195 C 0.95137 0.54515 0.20279 0.0
C2196 C 0.96853 0.55991 0.20119 0.0
C2197 C 0.95117 0.52961 0.21918 0.0
C2198 C 0.96826 0.52842 0.23405 0.0
C2199 C 0.98483 0.54381 0.23307 0.0
C2200 C 0.98496 0.55941 0.21685 0.0
C2201 C 0.96981 0.51047 0.24982 0.0
C2202 C 0.97321 0.51543 0.27169 0.0
C2203 C 0.96927 0.48858 0.24326 0.0
C2204 C 0.96727 0.4822 0.22027 0.0
C2205 C 0.98254 0.48916 0.20499 0.0
C2206 C 0.98052 0.48313 0.18334 0.0
C2207 C 0.96341 0.46997 0.17681 0.0
C2208 C 0.94831 0.46276 0.19194 0.0
C2209 C 0.95024 0.46877 0.21362 0.0
H2210 H 0.96188 0.46531 0.16003 0.0
H2211 H 0.99066 0.52141 0.36978 0.0
H2212 H 0.20486 0.98728 0.91485 0.0
H2213 H 0.23167 0.98975 0.94366 0.0
H2214 H 0.20355 0.04977 0.96492 0.0
H2215 H 0.17704 0.04774 0.93573 0.0
H2216 H 0.24675 0.05075 0.9681 0.0
H2217 H 0.18994 0.00029 0.9858 0.0
H2218 H 0.16748 0.96778 0.98092 0.0
H2219 H 0.22362 0.92766 0.98618 0.0
H2220 H 0.2466 0.95988 0.98996 0.0
H2221 H 0.29452 0.04978 0.07244 0.0
H2222 H 0.26793 0.05045 0.04321 0.0
H2223 H 0.29026 0.98819 0.02139 0.0
H2224 H 0.31624 0.98709 0.05087 0.0
H2225 H 0.24866 0.98931 0.01941 0.0
H2226 H 0.30575 0.03664 0.99673 0.0
H2227 H 0.33072 0.06747 -3e-05 0.0
H2228 H 0.27701 0.1111 0.00299 0.0
H2229 H 0.2517 0.08048 5e-05 0.0
C2230 C 0.20461 0.0012 0.92543 0.0
C2231 C 0.18871 0.01721 0.92318 0.0
C2232 C 0.21987 0.00252 0.94195 0.0
C2233 C 0.21922 0.01964 0.95676 0.0
C2234 C 0.2042 0.03633 0.95376 0.0
C2235 C 0.18909 0.03516 0.93705 0.0
C2236 C 0.23343 0.01962 0.97598 0.0
C2237 C 0.24699 0.03742 0.97947 0.0
C2238 C 0.23405 0.00197 0.99054 0.0
C2239 C 0.22007 0.9826 0.98803 0.0
C2240 C 0.19757 0.98458 0.98565 0.0
C2241 C 0.18473 0.96618 0.98308 0.0
C2242 C 0.1941 0.9457 0.98343 0.0
C2243 C 0.21637 0.94355 0.98598 0.0
C2244 C 0.22933 0.96188 0.98822 0.0
C2245 C 0.29362 0.03618 0.0615 0.0
C2246 C 0.30751 0.01842 0.06392 0.0
C2247 C 0.27853 0.03663 0.04473 0.0
C2248 C 0.27735 0.01953 0.02988 0.0
C2249 C 0.29087 0.00158 0.03263 0.0
C2250 C 0.30574 0.00099 0.0495 0.0
C2251 C 0.26225 0.02023 0.01131 0.0
C2252 C 0.2484 0.00263 0.00804 0.0
C2253 C 0.26166 0.03781 0.99672 0.0
C2254 C 0.27684 0.05625 0.99841 0.0
C2255 C 0.29926 0.05279 0.99824 0.0
C2256 C 0.31348 0.07023 -0.0 0.0
C2257 C 0.30545 0.09123 0.00175 0.0
C2258 C 0.2832 0.09483 0.00168 0.0
C2259 C 0.26891 0.07744 -5e-05 0.0
H2260 H 0.31648 0.10471 0.0031 0.0
H2261 H 0.18413 0.93146 0.98177 0.0
H2262 H 0.68977 0.47896 0.07226 0.0
H2263 H 0.71784 0.46612 0.04754 0.0
H2264 H 0.71033 0.52361 0.00901 0.0
H2265 H 0.68235 0.53653 0.03349 0.0
H2266 H 0.71209 0.48642 0.9844 0.0
H2267 H 0.75116 0.51979 0.04369 0.0
H2268 H 0.76137 0.52419 0.08193 0.0
H2269 H 0.78341 0.45854 0.08394 0.0
H2270 H 0.77306 0.45368 0.04576 0.0
H2271 H 0.80584 0.50689 0.92609 0.0
H2272 H 0.77483 0.50579 0.95005 0.0
H2273 H 0.79918 0.44765 0.9796 0.0
H2274 H 0.83074 0.44882 0.95573 0.0
H2275 H 0.78753 0.47677 0.00943 0.0
H2276 H 0.7542 0.4456 0.94794 0.0
H2277 H 0.74447 0.44171 0.90954 0.0
H2278 H 0.71166 0.50269 0.91128 0.0
H2279 H 0.72145 0.50712 0.94962 0.0
C2280 C 0.6941 0.48885 0.05851 0.0
C2281 C 0.68392 0.5088 0.05486 0.0
C2282 C 0.71013 0.4815 0.04444 0.0
C2283 C 0.71615 0.49396 0.02652 0.0
C2284 C 0.70584 0.51374 0.02273 0.0
C2285 C 0.68994 0.52114 0.03681 0.0
C2286 C 0.73349 0.48682 0.01178 0.0
C2287 C 0.72861 0.48433 0.98981 0.0
C2288 C 0.75484 0.48336 0.01905 0.0
C2289 C 0.76108 0.48629 0.04197 0.0
C2290 C 0.758 0.50624 0.05235 0.0
C2291 C 0.76385 0.50883 0.074 0.0
C2292 C 0.77296 0.49163 0.08538 0.0
C2293 C 0.7763 0.47183 0.07512 0.0
C2294 C 0.77046 0.46915 0.05348 0.0
C2295 C 0.80456 0.49369 0.9375 0.0
C2296 C 0.8208 0.47794 0.93903 0.0
C2297 C 0.7867 0.49302 0.95111 0.0
C2298 C 0.78454 0.47648 0.96642 0.0
C2299 C 0.80051 0.46049 0.9678 0.0
C2300 C 0.81849 0.46115 0.95413 0.0
C2301 C 0.7663 0.47706 0.98185 0.0
C2302 C 0.77096 0.47831 0.004 0.0
C2303 C 0.74472 0.47935 0.97473 0.0
C2304 C 0.73866 0.47673 0.95167 0.0
C2305 C 0.74502 0.45825 0.94011 0.0
C2306 C 0.73948 0.45594 0.91835 0.0
C2307 C 0.72747 0.47195 0.90797 0.0
C2308 C 0.72095 0.49029 0.91935 0.0
C2309 C 0.72646 0.49269 0.94111 0.0
H2310 H 0.7232 0.47014 0.89112 0.0
H2311 H 0.77749 0.49366 0.10214 0.0
H2312 H 0.28915 0.9678 0.39225 0.0
H2313 H 0.26133 0.94626 0.41025 0.0
H2314 H 0.28979 0.96104 0.47209 0.0
H2315 H 0.31769 0.98234 0.45431 0.0
H2316 H 0.27621 0.91902 0.46996 0.0
H2317 H 0.24815 0.9905 0.45306 0.0
H2318 H 0.23858 0.02029 0.42844 0.0
H2319 H 0.19658 0.978 0.39303 0.0
H2320 H 0.20612 0.94789 0.41732 0.0
H2321 H 0.19773 0.92829 0.55016 0.0
H2322 H 0.22639 0.92814 0.52342 0.0
H2323 H 0.18044 0.91145 0.47377 0.0
H2324 H 0.1514 0.91209 0.50051 0.0
H2325 H 0.20133 0.94641 0.46316 0.0
H2326 H 0.22322 0.87722 0.48677 0.0
H2327 H 0.23239 0.84841 0.51264 0.0
H2328 H 0.28552 0.88607 0.53636 0.0
H2329 H 0.27651 0.91525 0.51087 0.0
C2330 C 0.2896 0.96629 0.40966 0.0
C2331 C 0.30548 0.97697 0.42188 0.0
C2332 C 0.27371 0.95396 0.4199 0.0
C2333 C 0.27343 0.9522 0.4425 0.0
C2334 C 0.28976 0.96213 0.45463 0.0
C2335 C 0.30561 0.97444 0.44443 0.0
C2336 C 0.25529 0.94156 0.45384 0.0
C2337 C 0.25979 0.92491 0.46851 0.0
C2338 C 0.2338 0.94882 0.45136 0.0
C2339 C 0.22807 0.9669 0.4368 0.0
C2340 C 0.23702 0.98753 0.43991 0.0
C2341 C 0.23157 0.00447 0.42604 0.0
C2342 C 0.21704 0.00102 0.40913 0.0
C2343 C 0.20787 0.98064 0.40609 0.0
C2344 C 0.21329 0.96363 0.4199 0.0
C2345 C 0.19374 0.92402 0.53367 0.0
C2346 C 0.17222 0.92053 0.5274 0.0
C2347 C 0.21024 0.92377 0.51837 0.0
C2348 C 0.20561 0.91972 0.49655 0.0
C2349 C 0.18437 0.91462 0.49053 0.0
C2350 C 0.1678 0.91495 0.50584 0.0
C2351 C 0.22226 0.92422 0.47994 0.0
C2352 C 0.21753 0.93986 0.46424 0.0
C2353 C 0.24352 0.91604 0.48157 0.0
C2354 C 0.24912 0.89848 0.49691 0.0
C2355 C 0.23678 0.87943 0.49759 0.0
C2356 C 0.24197 0.86302 0.51218 0.0
C2357 C 0.25952 0.86541 0.52614 0.0
C2358 C 0.27194 0.88422 0.52552 0.0
C2359 C 0.26683 0.90069 0.51096 0.0
H2360 H 0.2635 0.85269 0.53743 0.0
H2361 H 0.21284 0.01416 0.39841 0.0
H2362 H 0.81483 0.49672 0.53073 0.0
H2363 H 0.78628 0.50332 0.50451 0.0
H2364 H 0.73984 0.50848 0.55614 0.0
H2365 H 0.76832 0.50139 0.58256 0.0
H2366 H 0.72585 0.48203 0.52606 0.0
H2367 H 0.75528 0.55305 0.52614 0.0
H2368 H 0.78372 0.58082 0.52421 0.0
H2369 H 0.79941 0.56081 0.45973 0.0
H2370 H 0.77126 0.5327 0.46137 0.0
H2371 H 0.64269 0.51506 0.45216 0.0
H2372 H 0.66943 0.51832 0.48114 0.0
H2373 H 0.71905 0.49585 0.43786 0.0
H2374 H 0.69224 0.4915 0.40916 0.0
H2375 H 0.72928 0.53426 0.46545 0.0
H2376 H 0.70242 0.46126 0.46714 0.0
H2377 H 0.67588 0.43183 0.47008 0.0
H2378 H 0.65627 0.45515 0.53229 0.0
H2379 H 0.68238 0.4851 0.52953 0.0
C2380 C 0.7986 0.49953 0.53657 0.0
C2381 C 0.79382 0.49844 0.55874 0.0
C2382 C 0.7823 0.50344 0.52154 0.0
C2383 C 0.76095 0.50664 0.52837 0.0
C2384 C 0.75622 0.50611 0.55053 0.0
C2385 C 0.77251 0.50207 0.5656 0.0
C2386 C 0.74339 0.5087 0.51225 0.0
C2387 C 0.72633 0.49382 0.51312 0.0
C2388 C 0.74433 0.52371 0.49504 0.0
C2389 C 0.76125 0.54066 0.49394 0.0
C2390 C 0.7649 0.55446 0.5116 0.0
C2391 C 0.78095 0.57029 0.51055 0.0
C2392 C 0.79339 0.57255 0.49188 0.0
C2393 C 0.78977 0.55903 0.47419 0.0
C2394 C 0.77374 0.54317 0.47516 0.0
C2395 C 0.65928 0.5108 0.44885 0.0
C2396 C 0.66528 0.50262 0.42856 0.0
C2397 C 0.67452 0.51275 0.46536 0.0
C2398 C 0.69609 0.50715 0.46159 0.0
C2399 C 0.70241 0.50019 0.44101 0.0
C2400 C 0.68708 0.4977 0.42467 0.0
C2401 C 0.71195 0.50757 0.47936 0.0
C2402 C 0.72865 0.52282 0.47869 0.0
C2403 C 0.71068 0.49294 0.49682 0.0
C2404 C 0.69407 0.47571 0.49792 0.0
C2405 C 0.69211 0.46045 0.48122 0.0
C2406 C 0.67718 0.44362 0.48289 0.0
C2407 C 0.66425 0.44173 0.50125 0.0
C2408 C 0.66623 0.45669 0.51802 0.0
C2409 C 0.68103 0.47365 0.51637 0.0
H2410 H 0.65279 0.42862 0.50257 0.0
H2411 H 0.80581 0.58481 0.4911 0.0
H2412 H 0.06733 0.32134 0.99566 0.0
H2413 H 0.03743 0.29603 0.99868 0.0
H2414 H 0.02354 0.31951 0.06273 0.0
H2415 H 0.05361 0.34521 0.05985 0.0
H2416 H 0.02383 0.27333 0.0584 0.0
H2417 H 0.99158 0.33511 0.02474 0.0
H2418 H 0.98823 0.36453 0.99814 0.0
H2419 H 0.98561 0.31826 0.94662 0.0
H2420 H 0.98938 0.28857 0.97283 0.0
H2421 H 0.92933 0.20597 0.0531 0.0
H2422 H 0.95287 0.23717 0.05939 0.0
H2423 H 0.97262 0.23561 0.99258 0.0
H2424 H 0.94888 0.20507 0.98608 0.0
H2425 H 0.96503 0.27525 0.00406 0.0
H2426 H 0.00414 0.2149 0.03462 0.0
H2427 H 0.00934 0.18399 0.05916 0.0
H2428 H 0.00119 0.22564 0.11397 0.0
H2429 H 0.99568 0.25676 0.08971 0.0
C2430 C 0.05803 0.32113 0.01047 0.0
C2431 C 0.06282 0.33533 0.02752 0.0
C2432 C 0.04087 0.30671 0.0121 0.0
C2433 C 0.02816 0.30614 0.0308 0.0
C2434 C 0.03315 0.31986 0.04812 0.0
C2435 C 0.05028 0.3345 0.04644 0.0
C2436 C 0.00978 0.29099 0.03197 0.0
C2437 C 0.01066 0.27396 0.04686 0.0
C2438 C 0.99291 0.29169 0.01661 0.0
C2439 C 0.99085 0.30959 0.00079 0.0
C2440 C 0.99048 0.3312 0.00773 0.0
C2441 C 0.98847 0.34793 0.99271 0.0
C2442 C 0.98667 0.34324 0.97072 0.0
C2443 C 0.98698 0.32185 0.96367 0.0
C2444 C 0.98904 0.30507 0.9786 0.0
C2445 C 0.93866 0.21235 0.03977 0.0
C2446 C 0.93724 0.20306 0.0191 0.0
C2447 C 0.95215 0.23011 0.0434 0.0
C2448 C 0.96463 0.23863 0.02648 0.0
C2449 C 0.96308 0.2294 0.00585 0.0
C2450 C 0.94951 0.21187 0.00218 0.0
C2451 C 0.97952 0.25705 0.02991 0.0
C2452 C 0.97792 0.27479 0.01591 0.0
C2453 C 0.99595 0.25676 0.0458 0.0
C2454 C -0.00078 0.23808 0.06037 0.0
C2455 C 0.00328 0.21742 0.0519 0.0
C2456 C 0.00631 0.19988 0.06576 0.0
C2457 C 0.00552 0.20283 0.08811 0.0
C2458 C 0.00175 0.22336 0.09666 0.0
C2459 C 0.99867 0.24096 0.08286 0.0
H2460 H 0.00788 0.18923 0.09882 0.0
H2461 H 0.98497 0.35614 0.95911 0.0
H2462 H 0.05858 0.71162 0.49525 0.0
H2463 H 0.03402 0.74189 0.50113 0.0
H2464 H 0.97987 0.69811 0.50116 0.0
H2465 H 0.00423 0.6678 0.49489 0.0
H2466 H 0.96949 0.73473 0.48123 0.0
H2467 H 0.00221 0.71421 0.54802 0.0
H2468 H 0.03229 0.70599 0.57274 0.0
H2469 H 0.05601 0.77076 0.56602 0.0
H2470 H 0.02625 0.77926 0.54094 0.0
H2471 H 0.91819 0.80874 0.56902 0.0
H2472 H 0.94325 0.78016 0.55867 0.0
H2473 H 0.94882 0.80793 0.495 0.0
H2474 H 0.92317 0.83612 0.50501 0.0
H2475 H 0.98316 0.77879 0.54676 0.0
H2476 H 0.95593 0.76875 0.45776 0.0
H2477 H 0.9232 0.77362 0.43558 0.0
H2478 H 0.88348 0.76432 0.49162 0.0
H2479 H 0.91595 0.75911 0.51405 0.0
C2480 C 0.04141 0.70846 0.49618 0.0
C2481 C 0.03336 0.68728 0.49483 0.0
C2482 C 0.02742 0.72577 0.49961 0.0
C2483 C 0.00518 0.72218 0.50197 0.0
C2484 C 0.99699 0.70122 0.49945 0.0
C2485 C 0.01095 0.68391 0.49591 0.0
C2486 C 0.99061 0.74001 0.50833 0.0
C2487 C 0.97252 0.74445 0.49548 0.0
C2488 C 0.99429 0.75231 0.52725 0.0
C2489 C 0.01214 0.7473 0.54241 0.0
C2490 C 0.01394 0.72665 0.55167 0.0
C2491 C 0.03092 0.72194 0.56577 0.0
C2492 C 0.04608 0.73783 0.57091 0.0
C2493 C 0.04427 0.75847 0.56199 0.0
C2494 C 0.02735 0.76324 0.54783 0.0
C2495 C 0.92476 0.80876 0.55281 0.0
C2496 C 0.91851 0.82451 0.53774 0.0
C2497 C 0.93914 0.79246 0.54694 0.0
C2498 C 0.94765 0.79169 0.52594 0.0
C2499 C 0.94207 0.8079 0.51113 0.0
C2500 C 0.92748 0.82405 0.5169 0.0
C2501 C 0.9621 0.77372 0.51952 0.0
C2502 C 0.98019 0.76923 0.53238 0.0
C2503 C 0.95803 0.76093 0.50099 0.0
C2504 C 0.93838 0.76378 0.4876 0.0
C2505 C 0.94021 0.76768 0.46532 0.0
C2506 C 0.9217 0.7705 0.45271 0.0
C2507 C 0.90128 0.76936 0.4622 0.0
C2508 C 0.89931 0.76529 0.4843 0.0
C2509 C 0.91776 0.76242 0.49697 0.0
H2510 H 0.88698 0.77157 0.45241 0.0
H2511 H 0.05921 0.73416 0.58183 0.0
H2512 H 0.58696 0.79832 0.5193 0.0
H2513 H 0.55921 0.77309 0.5319 0.0
H2514 H 0.52489 0.78075 0.47179 0.0
H2515 H 0.55243 0.80586 0.45908 0.0
H2516 H 0.4983 0.7839 0.50777 0.0
H2517 H 0.55468 0.73694 0.48008 0.0
H2518 H 0.59178 0.72263 0.47856 0.0
H2519 H 0.58796 0.70465 0.54541 0.0
H2520 H 0.55092 0.71913 0.54739 0.0
H2521 H 0.43022 0.6958 0.49167 0.0
H2522 H 0.45708 0.72435 0.49167 0.0
H2523 H 0.48339 0.70006 0.55143 0.0
H2524 H 0.45668 0.67087 0.55128 0.0
H2525 H 0.51457 0.70708 0.52331 0.0
H2526 H 0.45621 0.74877 0.54972 0.0
H2527 H 0.41907 0.76286 0.55158 0.0
H2528 H 0.42628 0.79119 0.48872 0.0
H2529 H 0.46336 0.777 0.48633 0.0
C2530 C 0.57354 0.79457 0.50875 0.0
C2531 C 0.57192 0.80404 0.48817 0.0
C2532 C 0.55772 0.78016 0.51597 0.0
C2533 C 0.54004 0.77508 0.50275 0.0
C2534 C 0.53839 0.78455 0.48226 0.0
C2535 C 0.55422 0.7988 0.47498 0.0
C2536 C 0.52318 0.75979 0.51002 0.0
C2537 C 0.50178 0.76707 0.5111 0.0
C2538 C 0.52793 0.73809 0.51517 0.0
C2539 C 0.55016 0.72936 0.51396 0.0
C2540 C 0.56183 0.73011 0.4945 0.0
C2541 C 0.58283 0.72194 0.49355 0.0
C2542 C 0.59225 0.71281 0.5119 0.0
C2543 C 0.58067 0.71177 0.53123 0.0
C2544 C 0.55967 0.71995 0.53227 0.0
C2545 C 0.44149 0.69663 0.50502 0.0
C2546 C 0.44132 0.68099 0.52146 0.0
C2547 C 0.4568 0.7131 0.50506 0.0
C2548 C 0.47211 0.71454 0.52169 0.0
C2549 C 0.47167 0.6993 0.53847 0.0
C2550 C 0.45636 0.68268 0.5384 0.0
C2551 C 0.48947 0.73099 0.52041 0.0
C2552 C 0.51102 0.72399 0.52046 0.0
C2553 C 0.48486 0.75301 0.51643 0.0
C2554 C 0.46257 0.76171 0.51782 0.0
C2555 C 0.44984 0.75788 0.53623 0.0
C2556 C 0.4288 0.76591 0.53739 0.0
C2557 C 0.42031 0.77789 0.52027 0.0
C2558 C 0.43287 0.78191 0.50197 0.0
C2559 C 0.45392 0.77391 0.50073 0.0
H2560 H 0.40401 0.78408 0.52119 0.0
H2561 H 0.60851 0.70648 0.51112 0.0
H2562 H 0.4775 0.51356 0.83298 0.0
H2563 H 0.48733 0.48833 0.80435 0.0
H2564 H 0.48189 0.53933 0.75723 0.0
H2565 H 0.47167 0.5646 0.78573 0.0
H2566 H 0.4608 0.50436 0.7444 0.0
H2567 H 0.53131 0.51911 0.77201 0.0
H2568 H 0.55949 0.52279 0.79987 0.0
H2569 H 0.55304 0.45566 0.81578 0.0
H2570 H 0.52458 0.45163 0.78821 0.0
H2571 H 0.49974 0.44061 0.6584 0.0
H2572 H 0.49945 0.46921 0.68563 0.0
H2573 H 0.49841 0.42138 0.73617 0.0
H2574 H 0.49873 0.39265 0.70911 0.0
H2575 H 0.52489 0.45643 0.74581 0.0
H2576 H 0.4533 0.44227 0.71962 0.0
H2577 H 0.4245 0.43858 0.69243 0.0
H2578 H 0.43225 0.50507 0.67464 0.0
H2579 H 0.46166 0.509 0.70122 0.0
C2580 C 0.47858 0.51947 0.81656 0.0
C2581 C 0.47375 0.54107 0.81162 0.0
C2582 C 0.48432 0.50505 0.80022 0.0
C2583 C 0.48555 0.512 0.77868 0.0
C2584 C 0.48106 0.53364 0.77376 0.0
C2585 C 0.47525 0.54806 0.79007 0.0
C2586 C 0.4902 0.4964 0.76116 0.0
C2587 C 0.47505 0.4942 0.74447 0.0
C2588 C 0.50852 0.48278 0.76158 0.0
C2589 C 0.52568 0.48512 0.77815 0.0
C2590 C 0.53577 0.50517 0.78156 0.0
C2591 C 0.55182 0.50731 0.79728 0.0
C2592 C 0.55802 0.48948 0.80962 0.0
C2593 C 0.54821 0.46946 0.80622 0.0
C2594 C 0.53214 0.46723 0.79053 0.0
C2595 C 0.49981 0.43616 0.67531 0.0
C2596 C 0.49904 0.41437 0.68162 0.0
C2597 C 0.49959 0.45252 0.69081 0.0
C2598 C 0.49863 0.44735 0.71283 0.0
C2599 C 0.49911 0.42565 0.71922 0.0
C2600 C 0.49921 0.40928 0.70374 0.0
C2601 C 0.49549 0.46447 0.72915 0.0
C2602 C 0.51083 0.46686 0.74563 0.0
C2603 C 0.47733 0.4783 0.72856 0.0
C2604 C 0.45992 0.47585 0.71224 0.0
C2605 C 0.44912 0.45603 0.70968 0.0
C2606 C 0.43267 0.45389 0.69438 0.0
C2607 C 0.42661 0.47156 0.68176 0.0
C2608 C 0.43703 0.49138 0.68437 0.0
C2609 C 0.45364 0.49355 0.69951 0.0
H2610 H 0.41374 0.46993 0.67009 0.0
H2611 H 0.57045 0.49117 0.82178 0.0
H2612 H 0.47457 0.95022 0.84037 0.0
H2613 H 0.47236 0.97909 0.81327 0.0
H2614 H 0.5347 0.96064 0.78849 0.0
H2615 H 0.53704 0.93194 0.81519 0.0
H2616 H 0.53062 0.00484 0.79707 0.0
H2617 H 0.49128 0.94678 0.7616 0.0
H2618 H 0.46192 0.92005 0.75881 0.0
H2619 H 0.4149 0.97074 0.7631 0.0
H2620 H 0.44402 0.99776 0.76622 0.0
H2621 H 0.54904 0.04305 0.69341 0.0
H2622 H 0.54224 0.02192 0.7258 0.0
H2623 H 0.4787 0.04981 0.73112 0.0
H2624 H 0.4853 0.07102 0.69833 0.0
H2625 H 0.47782 0.00643 0.7369 0.0
H2626 H 0.51724 0.06511 0.76574 0.0
H2627 H 0.54637 0.09205 0.76874 0.0
H2628 H 0.5927 0.04146 0.7783 0.0
H2629 H 0.56394 0.01417 0.77497 0.0
C2630 C 0.48772 0.95226 0.82904 0.0
C2631 C 0.50595 0.93878 0.8299 0.0
C2632 C 0.48641 0.9687 0.8136 0.0
C2633 C 0.50338 0.97192 0.79895 0.0
C2634 C 0.52147 0.9584 0.7997 0.0
C2635 C 0.52272 0.94194 0.81494 0.0
C2636 C 0.50283 0.98959 0.78296 0.0
C2637 C 0.51913 0.00524 0.78388 0.0
C2638 C 0.48727 0.99048 0.76631 0.0
C2639 C 0.46981 0.97424 0.76443 0.0
C2640 C 0.47468 0.9522 0.76216 0.0
C2641 C 0.45808 0.937 0.76047 0.0
C2642 C 0.43656 0.94368 0.76086 0.0
C2643 C 0.43158 0.96558 0.76286 0.0
C2644 C 0.44812 0.98084 0.76458 0.0
C2645 C 0.53362 0.04482 0.70146 0.0
C2646 C 0.51771 0.05877 0.69331 0.0
C2647 C 0.52981 0.03279 0.72007 0.0
C2648 C 0.51009 0.03455 0.73104 0.0
C2649 C 0.49408 0.04834 0.72293 0.0
C2650 C 0.49789 0.06045 0.70424 0.0
C2651 C 0.50623 0.02124 0.75051 0.0
C2652 C 0.48906 0.00644 0.75033 0.0
C2653 C 0.52096 0.0212 0.76798 0.0
C2654 C 0.5384 0.03756 0.76994 0.0
C2655 C 0.53366 0.0597 0.76829 0.0
C2656 C 0.55012 0.07504 0.77008 0.0
C2657 C 0.57137 0.06847 0.77367 0.0
C2658 C 0.57622 0.04653 0.7755 0.0
C2659 C 0.55984 0.03112 0.77368 0.0
H2660 H 0.58408 0.08037 0.77506 0.0
H2661 H 0.42373 0.93189 0.75954 0.0
H2662 H 0.39248 0.28669 0.96088 0.0
H2663 H 0.41613 0.25833 0.94683 0.0
H2664 H 0.47191 0.29674 0.96298 0.0
H2665 H 0.4485 0.32515 0.97691 0.0
H2666 H 0.4766 0.27555 0.92384 0.0
H2667 H 0.45468 0.25928 0.99751 0.0
H2668 H 0.42802 0.25244 0.02629 0.0
H2669 H 0.40217 0.19923 0.99014 0.0
H2670 H 0.42855 0.20592 0.96104 0.0
H2671 H 0.56201 0.20396 0.94707 0.0
H2672 H 0.53376 0.23115 0.94433 0.0
H2673 H 0.48667 0.1813 0.93216 0.0
H2674 H 0.51481 0.15388 0.93542 0.0
H2675 H 0.47403 0.2064 0.96404 0.0
H2676 H 0.5002 0.21865 0.89291 0.0
H2677 H 0.52732 0.22518 0.86453 0.0
H2678 H 0.5451 0.28497 0.89473 0.0
H2679 H 0.5183 0.27867 0.92348 0.0
C2680 C 0.40977 0.28923 0.96115 0.0
C2681 C 0.41863 0.30806 0.97022 0.0
C2682 C 0.42324 0.27301 0.95314 0.0
C2683 C 0.44575 0.27539 0.95407 0.0
C2684 C 0.45458 0.29462 0.96209 0.0
C2685 C 0.44116 0.31078 0.97017 0.0
C2686 C 0.46025 0.25726 0.94844 0.0
C2687 C 0.47608 0.26038 0.93255 0.0
C2688 C 0.45917 0.23732 0.95949 0.0
C2689 C 0.44337 0.23328 0.977 0.0
C2690 C 0.44319 0.24624 0.99563 0.0
C2691 C 0.42816 0.24237 0.01201 0.0
C2692 C 0.41335 0.22547 0.01001 0.0
C2693 C 0.41358 0.21237 0.99164 0.0
C2694 C 0.42857 0.21619 0.9752 0.0
C2695 C 0.54573 0.19878 0.94338 0.0
C2696 C 0.54064 0.17674 0.94163 0.0
C2697 C 0.52959 0.21438 0.94169 0.0
C2698 C 0.50808 0.20828 0.93794 0.0
C2699 C 0.50314 0.18636 0.93511 0.0
C2700 C 0.51927 0.17072 0.93692 0.0
C2701 C 0.49059 0.22455 0.93941 0.0
C2702 C 0.47425 0.2212 0.95473 0.0
C2703 C 0.4912 0.24419 0.92774 0.0
C2704 C 0.5073 0.24811 0.91044 0.0
C2705 C 0.50999 0.23312 0.89359 0.0
C2706 C 0.52529 0.23679 0.87742 0.0
C2707 C 0.53794 0.25546 0.87785 0.0
C2708 C 0.53529 0.27052 0.89443 0.0
C2709 C 0.52001 0.26692 0.91064 0.0
H2710 H 0.54979 0.25827 0.86532 0.0
H2711 H 0.40174 0.22248 0.02271 0.0
loop_
_geom_bond_atom_site_label_1
_geom_bond_atom_site_label_2
_geom_bond_distance
_geom_bond_site_symmetry_2
_ccdc_geom_bond_type
C0 O1 1.160 1_655 S
C0 O7 1.185 . S
O1 C0 1.160 1_455 S
O2 Zn3 1.899 . S
O2 C10 1.284 1_655 S
Zn3 O2 1.899 . S
Zn3 O4 2.032 1_655 S
Zn3 O7 2.086 . S
Zn3 O12 1.977 . S
O4 Zn3 2.032 1_455 S
O4 C8 1.278 . S
C5 O6 1.203 . S
C5 O12 1.267 . S
O6 C5 1.203 . S
O7 C0 1.185 . S
O7 Zn3 2.086 . S
C8 O4 1.278 . S
C8 O9 1.211 . S
O9 C8 1.211 . S
C10 O2 1.284 1_455 S
C10 O11 1.273 . S
O11 C10 1.273 . S
O12 Zn3 1.977 . S
O12 C5 1.267 . S
C13 O14 1.160 1_455 S
C13 O20 1.185 . S
O14 C13 1.160 1_655 S
O15 Zn16 1.899 . S
O15 C23 1.284 1_455 S
Zn16 O15 1.899 . S
Zn16 O17 2.032 1_455 S
Zn16 O20 2.086 . S
Zn16 O25 1.977 . S
O17 Zn16 2.032 1_655 S
O17 C21 1.278 . S
C18 O19 1.203 . S
C18 O25 1.267 . S
O19 C18 1.203 . S
O20 C13 1.185 . S
O20 Zn16 2.086 . S
C21 O17 1.278 . S
C21 O22 1.211 . S
O22 C21 1.211 . S
C23 O15 1.284 1_655 S
C23 O24 1.273 . S
O24 C23 1.273 . S
O25 Zn16 1.977 . S
O25 C18 1.267 . S
C26 O27 1.160 1_655 S
C26 O33 1.185 . S
O27 C26 1.160 1_455 S
O28 Zn29 1.899 . S
O28 C36 1.284 1_655 S
Zn29 O28 1.899 . S
Zn29 O30 2.032 1_655 S
Zn29 O33 2.086 . S
Zn29 O38 1.977 . S
O30 Zn29 2.032 1_455 S
O30 C34 1.278 . S
C31 O32 1.203 . S
C31 O38 1.267 . S
O32 C31 1.203 . S
O33 C26 1.185 . S
O33 Zn29 2.086 . S
C34 O30 1.278 . S
C34 O35 1.211 . S
O35 C34 1.211 . S
C36 O28 1.284 1_455 S
C36 O37 1.273 . S
O37 C36 1.273 . S
O38 Zn29 1.977 . S
O38 C31 1.267 . S
C39 O40 1.160 1_455 S
C39 O46 1.185 . S
O40 C39 1.160 1_655 S
O41 Zn42 1.899 . S
O41 C49 1.284 1_455 S
Zn42 O41 1.899 . S
Zn42 O43 2.032 1_455 S
Zn42 O46 2.086 . S
Zn42 O51 1.977 . S
O43 Zn42 2.032 1_655 S
O43 C47 1.278 . S
C44 O45 1.203 . S
C44 O51 1.267 . S
O45 C44 1.203 . S
O46 C39 1.185 . S
O46 Zn42 2.086 . S
C47 O43 1.278 . S
C47 O48 1.211 . S
O48 C47 1.211 . S
C49 O41 1.284 1_655 S
C49 O50 1.273 . S
O50 C49 1.273 . S
O51 Zn42 1.977 . S
O51 C44 1.267 . S
C52 O53 1.160 1_565 S
C52 O59 1.185 . S
O53 C52 1.160 1_545 S
O54 Zn55 1.899 . S
O54 C62 1.284 1_565 S
Zn55 O54 1.899 . S
Zn55 O56 2.032 1_565 S
Zn55 O59 2.086 . S
Zn55 O64 1.977 . S
O56 Zn55 2.032 1_545 S
O56 C60 1.278 . S
C57 O58 1.203 . S
C57 O64 1.267 . S
O58 C57 1.203 . S
O59 C52 1.185 . S
O59 Zn55 2.086 . S
C60 O56 1.278 . S
C60 O61 1.211 . S
O61 C60 1.211 . S
C62 O54 1.284 1_545 S
C62 O63 1.273 . S
O63 C62 1.273 . S
O64 Zn55 1.977 . S
O64 C57 1.267 . S
C65 O66 1.160 . S
C65 O72 1.185 . S
O66 C65 1.160 . S
O67 Zn68 1.899 . S
O67 C75 1.284 . S
Zn68 O67 1.899 . S
Zn68 O69 2.032 . S
Zn68 O72 2.086 . S
Zn68 O77 1.977 . S
O69 Zn68 2.032 . S
O69 C73 1.278 . S
C70 O71 1.203 . S
C70 O77 1.267 . S
O71 C70 1.203 . S
O72 C65 1.185 . S
O72 Zn68 2.086 . S
C73 O69 1.278 . S
C73 O74 1.211 . S
O74 C73 1.211 . S
C75 O67 1.284 . S
C75 O76 1.273 . S
O76 C75 1.273 . S
O77 Zn68 1.977 . S
O77 C70 1.267 . S
C78 O79 1.160 1_545 S
C78 O85 1.185 . S
O79 C78 1.160 1_565 S
O80 Zn81 1.899 . S
O80 C88 1.284 1_545 S
Zn81 O80 1.899 . S
Zn81 O82 2.032 1_545 S
Zn81 O85 2.086 . S
Zn81 O90 1.977 . S
O82 Zn81 2.032 1_565 S
O82 C86 1.278 . S
C83 O84 1.203 . S
C83 O90 1.267 . S
O84 C83 1.203 . S
O85 C78 1.185 . S
O85 Zn81 2.086 . S
C86 O82 1.278 . S
C86 O87 1.211 . S
O87 C86 1.211 . S
C88 O80 1.284 1_565 S
C88 O89 1.273 . S
O89 C88 1.273 . S
O90 Zn81 1.977 . S
O90 C83 1.267 . S
C91 O92 1.160 . S
C91 O98 1.185 . S
O92 C91 1.160 . S
O93 Zn94 1.899 . S
O93 C101 1.284 . S
Zn94 O93 1.899 . S
Zn94 O95 2.032 . S
Zn94 O98 2.086 . S
Zn94 O103 1.977 . S
O95 Zn94 2.032 . S
O95 C99 1.278 . S
C96 O97 1.203 . S
C96 O103 1.267 . S
O97 C96 1.203 . S
O98 C91 1.185 . S
O98 Zn94 2.086 . S
C99 O95 1.278 . S
C99 O100 1.211 . S
O100 C99 1.211 . S
C101 O93 1.284 . S
C101 O102 1.273 . S
O102 C101 1.273 . S
O103 Zn94 1.977 . S
O103 C96 1.267 . S
C104 O105 1.160 1_556 S
C104 O111 1.185 . S
O105 C104 1.160 1_554 S
O106 Zn107 1.899 . S
O106 C114 1.284 1_556 S
Zn107 O106 1.899 . S
Zn107 O108 2.032 1_556 S
Zn107 O111 2.086 . S
Zn107 O116 1.977 . S
O108 Zn107 2.032 1_554 S
O108 C112 1.278 . S
C109 O110 1.203 . S
C109 O116 1.267 . S
O110 C109 1.203 . S
O111 C104 1.185 . S
O111 Zn107 2.086 . S
C112 O108 1.278 . S
C112 O113 1.211 . S
O113 C112 1.211 . S
C114 O106 1.284 1_554 S
C114 O115 1.273 . S
O115 C114 1.273 . S
O116 Zn107 1.977 . S
O116 C109 1.267 . S
C117 O118 1.160 . S
C117 O124 1.185 . S
O118 C117 1.160 . S
O119 Zn120 1.899 . S
O119 C127 1.284 . S
Zn120 O119 1.899 . S
Zn120 O121 2.032 . S
Zn120 O124 2.086 . S
Zn120 O129 1.977 . S
O121 Zn120 2.032 . S
O121 C125 1.278 . S
C122 O123 1.203 . S
C122 O129 1.267 . S
O123 C122 1.203 . S
O124 C117 1.185 . S
O124 Zn120 2.086 . S
C125 O121 1.278 . S
C125 O126 1.211 . S
O126 C125 1.211 . S
C127 O119 1.284 . S
C127 O128 1.273 . S
O128 C127 1.273 . S
O129 Zn120 1.977 . S
O129 C122 1.267 . S
C130 O131 1.160 . S
C130 O137 1.185 . S
O131 C130 1.160 . S
O132 Zn133 1.899 . S
O132 C140 1.284 . S
Zn133 O132 1.899 . S
Zn133 O134 2.032 . S
Zn133 O137 2.086 . S
Zn133 O142 1.977 . S
O134 Zn133 2.032 . S
O134 C138 1.278 . S
C135 O136 1.203 . S
C135 O142 1.267 . S
O136 C135 1.203 . S
O137 C130 1.185 . S
O137 Zn133 2.086 . S
C138 O134 1.278 . S
C138 O139 1.211 . S
O139 C138 1.211 . S
C140 O132 1.284 . S
C140 O141 1.273 . S
O141 C140 1.273 . S
O142 Zn133 1.977 . S
O142 C135 1.267 . S
C143 O144 1.160 . S
C143 O150 1.185 . S
O144 C143 1.160 . S
O145 Zn146 1.899 . S
O145 C153 1.284 . S
Zn146 O145 1.899 . S
Zn146 O147 2.032 . S
Zn146 O150 2.086 . S
Zn146 O155 1.977 . S
O147 Zn146 2.032 . S
O147 C151 1.278 . S
C148 O149 1.203 . S
C148 O155 1.267 . S
O149 C148 1.203 . S
O150 C143 1.185 . S
O150 Zn146 2.086 . S
C151 O147 1.278 . S
C151 O152 1.211 . S
O152 C151 1.211 . S
C153 O145 1.284 . S
C153 O154 1.273 . S
O154 C153 1.273 . S
O155 Zn146 1.977 . S
O155 C148 1.267 . S
C156 O157 1.160 . S
C156 O163 1.185 . S
O157 C156 1.160 . S
O158 Zn159 1.899 . S
O158 C166 1.284 . S
Zn159 O158 1.899 . S
Zn159 O160 2.032 . S
Zn159 O163 2.086 . S
Zn159 O168 1.977 . S
O160 Zn159 2.032 . S
O160 C164 1.278 . S
C161 O162 1.203 . S
C161 O168 1.267 . S
O162 C161 1.203 . S
O163 C156 1.185 . S
O163 Zn159 2.086 . S
C164 O160 1.278 . S
C164 O165 1.211 . S
O165 C164 1.211 . S
C166 O158 1.284 . S
C166 O167 1.273 . S
O167 C166 1.273 . S
O168 Zn159 1.977 . S
O168 C161 1.267 . S
C169 O170 1.160 . S
C169 O176 1.185 . S
O170 C169 1.160 . S
O171 Zn172 1.899 . S
O171 C179 1.284 . S
Zn172 O171 1.899 . S
Zn172 O173 2.032 . S
Zn172 O176 2.086 . S
Zn172 O181 1.977 . S
O173 Zn172 2.032 . S
O173 C177 1.278 . S
C174 O175 1.203 . S
C174 O181 1.267 . S
O175 C174 1.203 . S
O176 C169 1.185 . S
O176 Zn172 2.086 . S
C177 O173 1.278 . S
C177 O178 1.211 . S
O178 C177 1.211 . S
C179 O171 1.284 . S
C179 O180 1.273 . S
O180 C179 1.273 . S
O181 Zn172 1.977 . S
O181 C174 1.267 . S
C182 O183 1.160 . S
C182 O189 1.185 . S
O183 C182 1.160 . S
O184 Zn185 1.899 . S
O184 C192 1.284 . S
Zn185 O184 1.899 . S
Zn185 O186 2.032 . S
Zn185 O189 2.086 . S
Zn185 O194 1.977 . S
O186 Zn185 2.032 . S
O186 C190 1.278 . S
C187 O188 1.203 . S
C187 O194 1.267 . S
O188 C187 1.203 . S
O189 C182 1.185 . S
O189 Zn185 2.086 . S
C190 O186 1.278 . S
C190 O191 1.211 . S
O191 C190 1.211 . S
C192 O184 1.284 . S
C192 O193 1.273 . S
O193 C192 1.273 . S
O194 Zn185 1.977 . S
O194 C187 1.267 . S
C195 O196 1.160 . S
C195 O202 1.185 . S
O196 C195 1.160 . S
O197 Zn198 1.899 . S
O197 C205 1.284 . S
Zn198 O197 1.899 . S
Zn198 O199 2.032 . S
Zn198 O202 2.086 . S
Zn198 O207 1.977 . S
O199 Zn198 2.032 . S
O199 C203 1.278 . S
C200 O201 1.203 . S
C200 O207 1.267 . S
O201 C200 1.203 . S
O202 C195 1.185 . S
O202 Zn198 2.086 . S
C203 O199 1.278 . S
C203 O204 1.211 . S
O204 C203 1.211 . S
C205 O197 1.284 . S
C205 O206 1.273 . S
O206 C205 1.273 . S
O207 Zn198 1.977 . S
O207 C200 1.267 . S
C208 O209 1.160 . S
C208 O215 1.185 . S
O209 C208 1.160 . S
O210 Zn211 1.899 . S
O210 C218 1.284 . S
Zn211 O210 1.899 . S
Zn211 O212 2.032 . S
Zn211 O215 2.086 . S
Zn211 O220 1.977 . S
O212 Zn211 2.032 . S
O212 C216 1.278 . S
C213 O214 1.203 . S
C213 O220 1.267 . S
O214 C213 1.203 . S
O215 C208 1.185 . S
O215 Zn211 2.086 . S
C216 O212 1.278 . S
C216 O217 1.211 . S
O217 C216 1.211 . S
C218 O210 1.284 . S
C218 O219 1.273 . S
O219 C218 1.273 . S
O220 Zn211 1.977 . S
O220 C213 1.267 . S
C221 O222 1.160 1_545 S
C221 O228 1.185 . S
O222 C221 1.160 1_565 S
O223 Zn224 1.899 . S
O223 C231 1.284 1_545 S
Zn224 O223 1.899 . S
Zn224 O225 2.032 1_545 S
Zn224 O228 2.086 . S
Zn224 O233 1.977 . S
O225 Zn224 2.032 1_565 S
O225 C229 1.278 . S
C226 O227 1.203 . S
C226 O233 1.267 . S
O227 C226 1.203 . S
O228 C221 1.185 . S
O228 Zn224 2.086 . S
C229 O225 1.278 . S
C229 O230 1.211 . S
O230 C229 1.211 . S
C231 O223 1.284 1_565 S
C231 O232 1.273 . S
O232 C231 1.273 . S
O233 Zn224 1.977 . S
O233 C226 1.267 . S
C234 O235 1.160 . S
C234 O241 1.185 . S
O235 C234 1.160 . S
O236 Zn237 1.899 . S
O236 C244 1.284 . S
Zn237 O236 1.899 . S
Zn237 O238 2.032 . S
Zn237 O241 2.086 . S
Zn237 O246 1.977 . S
O238 Zn237 2.032 . S
O238 C242 1.278 . S
C239 O240 1.203 . S
C239 O246 1.267 . S
O240 C239 1.203 . S
O241 C234 1.185 . S
O241 Zn237 2.086 . S
C242 O238 1.278 . S
C242 O243 1.211 . S
O243 C242 1.211 . S
C244 O236 1.284 . S
C244 O245 1.273 . S
O245 C244 1.273 . S
O246 Zn237 1.977 . S
O246 C239 1.267 . S
C247 O248 1.160 1_565 S
C247 O254 1.185 . S
O248 C247 1.160 1_545 S
O249 Zn250 1.899 . S
O249 C257 1.284 1_565 S
Zn250 O249 1.899 . S
Zn250 O251 2.032 1_565 S
Zn250 O254 2.086 . S
Zn250 O259 1.977 . S
O251 Zn250 2.032 1_545 S
O251 C255 1.278 . S
C252 O253 1.203 . S
C252 O259 1.267 . S
O253 C252 1.203 . S
O254 C247 1.185 . S
O254 Zn250 2.086 . S
C255 O251 1.278 . S
C255 O256 1.211 . S
O256 C255 1.211 . S
C257 O249 1.284 1_545 S
C257 O258 1.273 . S
O258 C257 1.273 . S
O259 Zn250 1.977 . S
O259 C252 1.267 . S
C260 O261 1.160 . S
C260 O267 1.185 . S
O261 C260 1.160 . S
O262 Zn263 1.899 . S
O262 C270 1.284 . S
Zn263 O262 1.899 . S
Zn263 O264 2.032 . S
Zn263 O267 2.086 . S
Zn263 O272 1.977 . S
O264 Zn263 2.032 . S
O264 C268 1.278 . S
C265 O266 1.203 . S
C265 O272 1.267 . S
O266 C265 1.203 . S
O267 C260 1.185 . S
O267 Zn263 2.086 . S
C268 O264 1.278 . S
C268 O269 1.211 . S
O269 C268 1.211 . S
C270 O262 1.284 . S
C270 O271 1.273 . S
O271 C270 1.273 . S
O272 Zn263 1.977 . S
O272 C265 1.267 . S
C273 O274 1.160 1_554 S
C273 O280 1.185 . S
O274 C273 1.160 1_556 S
O275 Zn276 1.899 . S
O275 C283 1.284 1_554 S
Zn276 O275 1.899 . S
Zn276 O277 2.032 1_554 S
Zn276 O280 2.086 . S
Zn276 O285 1.977 . S
O277 Zn276 2.032 1_556 S
O277 C281 1.278 . S
C278 O279 1.203 . S
C278 O285 1.267 . S
O279 C278 1.203 . S
O280 C273 1.185 . S
O280 Zn276 2.086 . S
C281 O277 1.278 . S
C281 O282 1.211 . S
O282 C281 1.211 . S
C283 O275 1.284 1_556 S
C283 O284 1.273 . S
O284 C283 1.273 . S
O285 Zn276 1.977 . S
O285 C278 1.267 . S
C286 O287 1.160 1_554 S
C286 O293 1.185 . S
O287 C286 1.160 1_556 S
O288 Zn289 1.899 . S
O288 C296 1.284 1_554 S
Zn289 O288 1.899 . S
Zn289 O290 2.032 1_554 S
Zn289 O293 2.086 . S
Zn289 O298 1.977 . S
O290 Zn289 2.032 1_556 S
O290 C294 1.278 . S
C291 O292 1.203 . S
C291 O298 1.267 . S
O292 C291 1.203 . S
O293 C286 1.185 . S
O293 Zn289 2.086 . S
C294 O290 1.278 . S
C294 O295 1.211 . S
O295 C294 1.211 . S
C296 O288 1.284 1_556 S
C296 O297 1.273 . S
O297 C296 1.273 . S
O298 Zn289 1.977 . S
O298 C291 1.267 . S
C299 O300 1.160 1_556 S
C299 O306 1.185 . S
O300 C299 1.160 1_554 S
O301 Zn302 1.899 . S
O301 C309 1.284 1_556 S
Zn302 O301 1.899 . S
Zn302 O303 2.032 1_556 S
Zn302 O306 2.086 . S
Zn302 O311 1.977 . S
O303 Zn302 2.032 1_554 S
O303 C307 1.278 . S
C304 O305 1.203 . S
C304 O311 1.267 . S
O305 C304 1.203 . S
O306 C299 1.185 . S
O306 Zn302 2.086 . S
C307 O303 1.278 . S
C307 O308 1.211 . S
O308 C307 1.211 . S
C309 O301 1.284 1_554 S
C309 O310 1.273 . S
O310 C309 1.273 . S
O311 Zn302 1.977 . S
O311 C304 1.267 . S
H312 C330 0.951 . S
H313 C332 0.951 . S
H314 C334 0.950 . S
H315 C335 0.950 . S
H316 C337 0.950 . S
H317 C340 0.950 . S
H318 C341 0.950 . S
H319 C343 0.950 . S
H320 C344 0.950 . S
H321 C345 0.951 . S
H322 C347 0.951 . S
H323 C349 0.950 . S
H324 C350 0.950 . S
H325 C352 0.950 . S
H326 C355 0.950 . S
H327 C356 0.950 . S
H328 C358 0.950 . S
H329 C359 0.950 . S
C330 H312 0.951 . S
C330 C331 1.366 . S
C330 C332 1.388 . S
C331 C330 1.366 . S
C331 C335 1.385 . S
C332 H313 0.951 . S
C332 C330 1.388 . S
C332 C333 1.366 . S
C333 C332 1.366 . S
C333 C334 1.414 . S
C333 C336 1.499 . S
C334 H314 0.950 . S
C334 C333 1.414 . S
C334 C335 1.374 . S
C335 H315 0.950 . S
C335 C331 1.385 . S
C335 C334 1.374 . S
C336 C333 1.499 . S
C336 C337 1.373 . S
C336 C338 1.389 . S
C337 H316 0.950 . S
C337 C336 1.373 . S
C337 C353 1.377 . S
C338 C336 1.389 . S
C338 C339 1.524 . S
C338 C352 1.377 . S
C339 C338 1.524 . S
C339 C340 1.397 . S
C339 C344 1.363 . S
C340 H317 0.950 . S
C340 C339 1.397 . S
C340 C341 1.334 1_545 S
C341 H318 0.950 . S
C341 C340 1.334 1_565 S
C341 C342 1.287 . S
C342 C341 1.287 . S
C342 C343 1.524 . S
C342 H361 0.913 . S
C343 H319 0.950 . S
C343 C342 1.524 . S
C343 C344 1.415 1_565 S
C344 H320 0.950 . S
C344 C339 1.363 . S
C344 C343 1.415 1_545 S
C345 H321 0.951 . S
C345 C346 1.366 . S
C345 C347 1.388 . S
C346 C345 1.366 . S
C346 C350 1.385 . S
C347 H322 0.951 . S
C347 C345 1.388 . S
C347 C348 1.366 . S
C348 C347 1.366 . S
C348 C349 1.414 . S
C348 C351 1.499 . S
C349 H323 0.950 . S
C349 C348 1.414 . S
C349 C350 1.374 . S
C350 H324 0.950 . S
C350 C346 1.385 . S
C350 C349 1.374 . S
C351 C348 1.499 . S
C351 C352 1.373 . S
C351 C353 1.389 . S
C352 H325 0.950 . S
C352 C338 1.377 . S
C352 C351 1.373 . S
C353 C337 1.377 . S
C353 C351 1.389 . S
C353 C354 1.524 . S
C354 C353 1.524 . S
C354 C355 1.397 . S
C354 C359 1.363 . S
C355 H326 0.950 . S
C355 C354 1.397 . S
C355 C356 1.334 . S
C356 H327 0.950 . S
C356 C355 1.334 . S
C356 C357 1.287 . S
C357 C356 1.287 . S
C357 C358 1.524 . S
C357 H360 0.999 . S
C358 H328 0.950 . S
C358 C357 1.524 . S
C358 C359 1.415 . S
C359 H329 0.950 . S
C359 C354 1.363 . S
C359 C358 1.415 . S
H360 C357 0.999 . S
H361 C342 0.913 . S
H362 C380 0.951 . S
H363 C382 0.951 . S
H364 C384 0.950 . S
H365 C385 0.950 . S
H366 C387 0.950 . S
H367 C390 0.950 . S
H368 C391 0.950 . S
H369 C393 0.950 . S
H370 C394 0.950 . S
H371 C395 0.951 . S
H372 C397 0.951 . S
H373 C399 0.950 . S
H374 C400 0.950 . S
H375 C402 0.950 . S
H376 C405 0.950 . S
H377 C406 0.950 . S
H378 C408 0.950 . S
H379 C409 0.950 . S
C380 H362 0.951 . S
C380 C381 1.366 . S
C380 C382 1.388 . S
C381 C380 1.366 . S
C381 C385 1.385 . S
C382 H363 0.951 . S
C382 C380 1.388 . S
C382 C383 1.366 . S
C383 C382 1.366 . S
C383 C384 1.414 . S
C383 C386 1.499 . S
C384 H364 0.950 . S
C384 C383 1.414 . S
C384 C385 1.374 . S
C385 H365 0.950 . S
C385 C381 1.385 . S
C385 C384 1.374 . S
C386 C383 1.499 . S
C386 C387 1.373 . S
C386 C388 1.389 . S
C387 H366 0.950 . S
C387 C386 1.373 . S
C387 C403 1.377 . S
C388 C386 1.389 . S
C388 C389 1.524 . S
C388 C402 1.377 . S
C389 C388 1.524 . S
C389 C390 1.397 . S
C389 C394 1.363 . S
C390 H367 0.950 . S
C390 C389 1.397 . S
C390 C391 1.334 . S
C391 H368 0.950 . S
C391 C390 1.334 . S
C391 C392 1.287 . S
C392 C391 1.287 . S
C392 C393 1.524 . S
C392 H411 0.913 . S
C393 H369 0.950 . S
C393 C392 1.524 . S
C393 C394 1.415 . S
C394 H370 0.950 . S
C394 C389 1.363 . S
C394 C393 1.415 . S
C395 H371 0.951 . S
C395 C396 1.366 . S
C395 C397 1.388 . S
C396 C395 1.366 . S
C396 C400 1.385 . S
C397 H372 0.951 . S
C397 C395 1.388 . S
C397 C398 1.366 . S
C398 C397 1.366 . S
C398 C399 1.414 . S
C398 C401 1.499 . S
C399 H373 0.950 . S
C399 C398 1.414 . S
C399 C400 1.374 . S
C400 H374 0.950 . S
C400 C396 1.385 . S
C400 C399 1.374 . S
C401 C398 1.499 . S
C401 C402 1.373 . S
C401 C403 1.389 . S
C402 H375 0.950 . S
C402 C388 1.377 . S
C402 C401 1.373 . S
C403 C387 1.377 . S
C403 C401 1.389 . S
C403 C404 1.524 . S
C404 C403 1.524 . S
C404 C405 1.397 . S
C404 C409 1.363 . S
C405 H376 0.950 . S
C405 C404 1.397 . S
C405 C406 1.334 . S
C406 H377 0.950 . S
C406 C405 1.334 . S
C406 C407 1.287 . S
C407 C406 1.287 . S
C407 C408 1.524 . S
C407 H410 0.999 . S
C408 H378 0.950 . S
C408 C407 1.524 . S
C408 C409 1.415 . S
C409 H379 0.950 . S
C409 C404 1.363 . S
C409 C408 1.415 . S
H410 C407 0.999 . S
H411 C392 0.913 . S
H412 C430 0.951 . S
H413 C432 0.951 . S
H414 C434 0.950 . S
H415 C435 0.950 . S
H416 C437 0.950 . S
H417 C440 0.950 . S
H418 C441 0.963 . S
H419 C443 0.950 . S
H420 C444 0.950 . S
H421 C445 0.951 . S
H422 C447 0.951 . S
H423 C449 0.950 . S
H424 C450 0.950 . S
H425 C452 0.950 1_556 S
H426 C455 0.950 . S
H427 C456 0.950 . S
H428 C458 0.950 . S
H429 C459 0.950 . S
C430 H412 0.951 . S
C430 C431 1.366 . S
C430 C432 1.388 . S
C431 C430 1.366 . S
C431 C435 1.385 . S
C432 H413 0.951 . S
C432 C430 1.388 . S
C432 C433 1.366 . S
C433 C432 1.366 . S
C433 C434 1.414 . S
C433 C436 1.499 . S
C434 H414 0.950 . S
C434 C433 1.414 . S
C434 C435 1.374 . S
C435 H415 0.950 . S
C435 C431 1.385 . S
C435 C434 1.374 . S
C436 C433 1.499 . S
C436 C437 1.373 . S
C436 C438 1.389 . S
C437 H416 0.950 . S
C437 C436 1.373 . S
C437 C453 1.377 . S
C438 C436 1.389 . S
C438 C439 1.524 . S
C438 C452 1.377 . S
C439 C438 1.524 . S
C439 C440 1.397 . S
C439 C444 1.363 . S
C440 H417 0.950 . S
C440 C439 1.397 . S
C440 C441 1.334 . S
C441 H418 0.963 . S
C441 C440 1.334 . S
C441 C442 1.287 1_455 S
C442 C441 1.287 1_655 S
C442 C443 1.524 . S
C442 H461 0.913 . S
C443 H419 0.950 . S
C443 C442 1.524 . S
C443 C444 1.415 1_655 S
C444 H420 0.950 . S
C444 C439 1.363 . S
C444 C443 1.415 1_455 S
C445 H421 0.951 . S
C445 C446 1.366 . S
C445 C447 1.388 . S
C446 C445 1.366 . S
C446 C450 1.385 . S
C447 H422 0.951 . S
C447 C445 1.388 . S
C447 C448 1.366 . S
C448 C447 1.366 . S
C448 C449 1.414 . S
C448 C451 1.499 1_556 S
C449 H423 0.950 . S
C449 C448 1.414 . S
C449 C450 1.374 . S
C450 H424 0.950 . S
C450 C446 1.385 . S
C450 C449 1.374 . S
C451 C448 1.499 1_554 S
C451 C452 1.373 . S
C451 C453 1.389 . S
C452 H425 0.950 1_554 S
C452 C438 1.377 . S
C452 C451 1.373 . S
C453 C437 1.377 . S
C453 C451 1.389 . S
C453 C454 1.524 . S
C454 C453 1.524 . S
C454 C455 1.397 . S
C454 C459 1.363 . S
C455 H426 0.950 . S
C455 C454 1.397 . S
C455 C456 1.334 . S
C456 H427 0.950 . S
C456 C455 1.334 . S
C456 C457 1.287 . S
C457 C456 1.287 . S
C457 C458 1.524 . S
C457 H460 0.999 . S
C458 H428 0.950 . S
C458 C457 1.524 . S
C458 C459 1.415 . S
C459 H429 0.950 . S
C459 C454 1.363 . S
C459 C458 1.415 . S
H460 C457 0.999 . S
H461 C442 0.913 . S
H462 C480 0.951 . S
H463 C482 0.951 . S
H464 C484 0.950 . S
H465 C485 0.950 . S
H466 C487 0.950 . S
H467 C490 0.950 . S
H468 C491 0.950 . S
H469 C493 0.950 . S
H470 C494 0.950 . S
H471 C495 0.951 . S
H472 C497 0.951 . S
H473 C499 0.950 . S
H474 C500 0.950 . S
H475 C502 0.950 . S
H476 C505 0.950 . S
H477 C506 0.950 . S
H478 C508 0.948 1_455 S
H479 C509 0.950 . S
C480 H462 0.951 . S
C480 C481 1.366 . S
C480 C482 1.388 . S
C481 C480 1.366 . S
C481 C485 1.385 . S
C482 H463 0.951 . S
C482 C480 1.388 . S
C482 C483 1.366 . S
C483 C482 1.366 . S
C483 C484 1.414 . S
C483 C486 1.499 . S
C484 H464 0.950 . S
C484 C483 1.414 . S
C484 C485 1.374 . S
C485 H465 0.950 . S
C485 C481 1.385 . S
C485 C484 1.374 . S
C486 C483 1.499 . S
C486 C487 1.373 . S
C486 C488 1.389 . S
C487 H466 0.950 . S
C487 C486 1.373 . S
C487 C503 1.377 . S
C488 C486 1.389 . S
C488 C489 1.524 . S
C488 C502 1.377 . S
C489 C488 1.524 . S
C489 C490 1.397 . S
C489 C494 1.363 . S
C490 H467 0.950 . S
C490 C489 1.397 . S
C490 C491 1.334 . S
C491 H468 0.950 . S
C491 C490 1.334 . S
C491 C492 1.287 . S
C492 C491 1.287 . S
C492 C493 1.524 . S
C492 H511 0.913 . S
C493 H469 0.950 . S
C493 C492 1.524 . S
C493 C494 1.415 . S
C494 H470 0.950 . S
C494 C489 1.363 . S
C494 C493 1.415 . S
C495 H471 0.951 . S
C495 C496 1.366 . S
C495 C497 1.388 . S
C496 C495 1.366 . S
C496 C500 1.385 . S
C497 H472 0.951 . S
C497 C495 1.388 . S
C497 C498 1.366 . S
C498 C497 1.366 . S
C498 C499 1.414 . S
C498 C501 1.499 1_556 S
C499 H473 0.950 . S
C499 C498 1.414 . S
C499 C500 1.374 . S
C500 H474 0.950 . S
C500 C496 1.385 . S
C500 C499 1.374 . S
C501 C498 1.499 1_554 S
C501 C502 1.373 . S
C501 C503 1.389 . S
C502 H475 0.950 . S
C502 C488 1.377 . S
C502 C501 1.373 . S
C503 C487 1.377 . S
C503 C501 1.389 . S
C503 C504 1.524 1_554 S
C504 C503 1.524 1_556 S
C504 C505 1.397 . S
C504 C509 1.363 . S
C505 H476 0.950 . S
C505 C504 1.397 . S
C505 C506 1.334 . S
C506 H477 0.950 . S
C506 C505 1.334 . S
C506 C507 1.287 . S
C507 C506 1.287 . S
C507 C508 1.524 . S
C507 H510 0.999 . S
C508 H478 0.948 1_655 S
C508 C507 1.524 . S
C508 C509 1.415 . S
C509 H479 0.950 . S
C509 C504 1.363 . S
C509 C508 1.415 . S
H510 C507 0.999 . S
H511 C492 0.913 . S
H512 C530 0.951 . S
H513 C532 0.951 . S
H514 C534 0.950 . S
H515 C535 0.950 . S
H516 C537 0.950 . S
H517 C540 0.950 . S
H518 C541 0.950 . S
H519 C543 0.967 . S
H520 C544 0.950 . S
H521 C545 0.951 . S
H522 C547 0.951 . S
H523 C549 0.950 . S
H524 C550 0.950 . S
H525 C552 0.950 . S
H526 C555 0.950 . S
H527 C556 0.950 1_556 S
H528 C558 0.950 . S
H529 C559 0.950 . S
C530 H512 0.951 . S
C530 C531 1.366 . S
C530 C532 1.388 . S
C531 C530 1.366 . S
C531 C535 1.385 . S
C532 H513 0.951 . S
C532 C530 1.388 . S
C532 C533 1.366 . S
C533 C532 1.366 . S
C533 C534 1.414 . S
C533 C536 1.499 . S
C534 H514 0.950 . S
C534 C533 1.414 . S
C534 C535 1.374 . S
C535 H515 0.950 . S
C535 C531 1.385 . S
C535 C534 1.374 . S
C536 C533 1.499 . S
C536 C537 1.373 . S
C536 C538 1.389 . S
C537 H516 0.950 . S
C537 C536 1.373 . S
C537 C553 1.377 . S
C538 C536 1.389 . S
C538 C539 1.524 . S
C538 C552 1.377 . S
C539 C538 1.524 . S
C539 C540 1.397 . S
C539 C544 1.363 . S
C540 H517 0.950 . S
C540 C539 1.397 . S
C540 C541 1.334 . S
C541 H518 0.950 . S
C541 C540 1.334 . S
C541 C542 1.287 . S
C542 C541 1.287 . S
C542 C543 1.522 1_545 S
C542 H561 0.913 1_545 S
C543 H519 0.967 . S
C543 C542 1.522 1_565 S
C543 C544 1.397 1_565 S
C544 H520 0.950 . S
C544 C539 1.363 . S
C544 C543 1.397 1_545 S
C545 H521 0.951 . S
C545 C546 1.366 . S
C545 C547 1.388 . S
C546 C545 1.366 . S
C546 C550 1.385 . S
C547 H522 0.951 . S
C547 C545 1.388 . S
C547 C548 1.366 . S
C548 C547 1.366 . S
C548 C549 1.414 . S
C548 C551 1.499 . S
C549 H523 0.950 . S
C549 C548 1.414 . S
C549 C550 1.374 . S
C550 H524 0.950 . S
C550 C546 1.385 . S
C550 C549 1.374 . S
C551 C548 1.499 . S
C551 C552 1.373 . S
C551 C553 1.389 . S
C552 H525 0.950 . S
C552 C538 1.377 . S
C552 C551 1.373 . S
C553 C537 1.377 . S
C553 C551 1.389 . S
C553 C554 1.524 . S
C554 C553 1.524 . S
C554 C555 1.397 . S
C554 C559 1.363 . S
C555 H526 0.950 . S
C555 C554 1.397 . S
C555 C556 1.334 . S
C556 H527 0.950 1_554 S
C556 C555 1.334 . S
C556 C557 1.287 . S
C557 C556 1.287 . S
C557 C558 1.524 . S
C557 H560 0.999 . S
C558 H528 0.950 . S
C558 C557 1.524 . S
C558 C559 1.415 . S
C559 H529 0.950 . S
C559 C554 1.363 . S
C559 C558 1.415 . S
H560 C557 0.999 . S
H561 C542 0.913 1_565 S
H562 C580 0.951 . S
H563 C582 0.951 . S
H564 C584 0.950 . S
H565 C585 0.950 . S
H566 C587 0.950 . S
H567 C590 0.950 . S
H568 C591 0.950 . S
H569 C593 0.950 . S
H570 C594 0.950 . S
H571 C595 0.951 . S
H572 C597 0.951 . S
H573 C599 0.950 . S
H574 C600 0.950 . S
H575 C602 0.950 . S
H576 C605 0.950 . S
H577 C606 0.950 . S
H578 C608 0.950 . S
H579 C609 0.950 . S
C580 H562 0.951 . S
C580 C581 1.366 . S
C580 C582 1.388 . S
C581 C580 1.366 . S
C581 C585 1.385 . S
C582 H563 0.951 . S
C582 C580 1.388 . S
C582 C583 1.366 . S
C583 C582 1.366 . S
C583 C584 1.414 . S
C583 C586 1.499 . S
C584 H564 0.950 . S
C584 C583 1.414 . S
C584 C585 1.374 . S
C585 H565 0.950 . S
C585 C581 1.385 . S
C585 C584 1.374 . S
C586 C583 1.499 . S
C586 C587 1.373 . S
C586 C588 1.389 . S
C587 H566 0.950 . S
C587 C586 1.373 . S
C587 C603 1.377 . S
C588 C586 1.389 . S
C588 C589 1.524 . S
C588 C602 1.377 . S
C589 C588 1.524 . S
C589 C590 1.397 . S
C589 C594 1.363 . S
C590 H567 0.950 . S
C590 C589 1.397 . S
C590 C591 1.334 . S
C591 H568 0.950 . S
C591 C590 1.334 . S
C591 C592 1.287 . S
C592 C591 1.287 . S
C592 C593 1.524 1_554 S
C592 H611 0.913 1_554 S
C593 H569 0.950 . S
C593 C592 1.524 1_556 S
C593 C594 1.415 1_556 S
C594 H570 0.950 . S
C594 C589 1.363 . S
C594 C593 1.415 1_554 S
C595 H571 0.951 . S
C595 C596 1.366 . S
C595 C597 1.388 . S
C596 C595 1.366 . S
C596 C600 1.385 . S
C597 H572 0.951 . S
C597 C595 1.388 . S
C597 C598 1.366 . S
C598 C597 1.366 . S
C598 C599 1.414 . S
C598 C601 1.499 . S
C599 H573 0.950 . S
C599 C598 1.414 . S
C599 C600 1.374 . S
C600 H574 0.950 . S
C600 C596 1.385 . S
C600 C599 1.374 . S
C601 C598 1.499 . S
C601 C602 1.373 . S
C601 C603 1.389 . S
C602 H575 0.950 . S
C602 C588 1.377 . S
C602 C601 1.373 . S
C603 C587 1.377 . S
C603 C601 1.389 . S
C603 C604 1.524 . S
C604 C603 1.524 . S
C604 C605 1.397 . S
C604 C609 1.363 . S
C605 H576 0.950 . S
C605 C604 1.397 . S
C605 C606 1.334 . S
C606 H577 0.950 . S
C606 C605 1.334 . S
C606 C607 1.287 . S
C607 C606 1.287 . S
C607 C608 1.524 . S
C607 H610 0.999 . S
C608 H578 0.950 . S
C608 C607 1.524 . S
C608 C609 1.415 . S
C609 H579 0.950 . S
C609 C604 1.363 . S
C609 C608 1.415 . S
H610 C607 0.999 . S
H611 C592 0.913 1_556 S
H612 C630 0.951 . S
H613 C632 0.951 . S
H614 C634 0.950 . S
H615 C635 0.950 . S
H616 C637 0.950 . S
H617 C640 0.950 . S
H618 C641 0.950 . S
H619 C643 0.950 . S
H620 C644 0.950 . S
H621 C645 0.951 . S
H622 C647 0.951 . S
H623 C649 0.950 . S
H624 C650 0.950 . S
H625 C652 0.950 . S
H626 C655 0.950 . S
H627 C656 0.950 . S
H628 C658 0.950 . S
H629 C659 0.950 . S
C630 H612 0.951 . S
C630 C631 1.366 . S
C630 C632 1.388 . S
C631 C630 1.366 . S
C631 C635 1.385 . S
C632 H613 0.951 . S
C632 C630 1.388 . S
C632 C633 1.366 . S
C633 C632 1.366 . S
C633 C634 1.414 . S
C633 C636 1.499 . S
C634 H614 0.950 . S
C634 C633 1.414 . S
C634 C635 1.374 . S
C635 H615 0.950 . S
C635 C631 1.385 . S
C635 C634 1.374 . S
C636 C633 1.499 . S
C636 C637 1.373 . S
C636 C638 1.389 . S
C637 H616 0.950 . S
C637 C636 1.373 . S
C637 C653 1.377 . S
C638 C636 1.389 . S
C638 C639 1.524 . S
C638 C652 1.377 . S
C639 C638 1.524 . S
C639 C640 1.397 . S
C639 C644 1.363 . S
C640 H617 0.950 . S
C640 C639 1.397 . S
C640 C641 1.334 . S
C641 H618 0.950 . S
C641 C640 1.334 . S
C641 C642 1.287 . S
C642 C641 1.287 . S
C642 C643 1.524 . S
C642 H661 0.913 . S
C643 H619 0.950 . S
C643 C642 1.524 . S
C643 C644 1.415 . S
C644 H620 0.950 . S
C644 C639 1.363 . S
C644 C643 1.415 . S
C645 H621 0.951 . S
C645 C646 1.366 . S
C645 C647 1.388 . S
C646 C645 1.366 . S
C646 C650 1.385 . S
C647 H622 0.951 . S
C647 C645 1.388 . S
C647 C648 1.366 . S
C648 C647 1.366 . S
C648 C649 1.414 . S
C648 C651 1.499 . S
C649 H623 0.950 . S
C649 C648 1.414 . S
C649 C650 1.374 . S
C650 H624 0.950 . S
C650 C646 1.385 . S
C650 C649 1.374 . S
C651 C648 1.499 . S
C651 C652 1.373 . S
C651 C653 1.389 . S
C652 H625 0.950 . S
C652 C638 1.377 . S
C652 C651 1.373 . S
C653 C637 1.377 . S
C653 C651 1.389 . S
C653 C654 1.524 . S
C654 C653 1.524 . S
C654 C655 1.397 . S
C654 C659 1.363 . S
C655 H626 0.950 . S
C655 C654 1.397 . S
C655 C656 1.334 . S
C656 H627 0.950 . S
C656 C655 1.334 . S
C656 C657 1.287 . S
C657 C656 1.287 . S
C657 C658 1.524 . S
C657 H660 0.999 . S
C658 H628 0.950 . S
C658 C657 1.524 . S
C658 C659 1.415 . S
C659 H629 0.950 . S
C659 C654 1.363 . S
C659 C658 1.415 . S
H660 C657 0.999 . S
H661 C642 0.913 . S
H662 C680 0.951 . S
H663 C682 0.951 . S
H664 C684 0.950 . S
H665 C685 0.950 . S
H666 C687 0.950 . S
H667 C690 0.950 . S
H668 C691 0.950 . S
H669 C693 0.950 . S
H670 C694 0.950 . S
H671 C695 0.951 . S
H672 C697 0.951 . S
H673 C699 0.950 . S
H674 C700 0.950 . S
H675 C702 0.950 . S
H676 C705 0.950 . S
H677 C706 0.950 . S
H678 C708 0.950 . S
H679 C709 0.950 . S
C680 H662 0.951 . S
C680 C681 1.366 . S
C680 C682 1.388 . S
C681 C680 1.366 . S
C681 C685 1.385 . S
C682 H663 0.951 . S
C682 C680 1.388 . S
C682 C683 1.366 . S
C683 C682 1.366 . S
C683 C684 1.414 . S
C683 C686 1.499 . S
C684 H664 0.950 . S
C684 C683 1.414 . S
C684 C685 1.374 . S
C685 H665 0.950 . S
C685 C681 1.385 . S
C685 C684 1.374 . S
C686 C683 1.499 . S
C686 C687 1.373 . S
C686 C688 1.389 . S
C687 H666 0.950 . S
C687 C686 1.373 . S
C687 C703 1.377 . S
C688 C686 1.389 . S
C688 C689 1.524 . S
C688 C702 1.377 . S
C689 C688 1.524 . S
C689 C690 1.397 . S
C689 C694 1.363 . S
C690 H667 0.950 . S
C690 C689 1.397 . S
C690 C691 1.334 . S
C691 H668 0.950 . S
C691 C690 1.334 . S
C691 C692 1.287 . S
C692 C691 1.287 . S
C692 C693 1.524 . S
C692 H711 0.913 . S
C693 H669 0.950 . S
C693 C692 1.524 . S
C693 C694 1.415 . S
C694 H670 0.950 . S
C694 C689 1.363 . S
C694 C693 1.415 . S
C695 H671 0.951 . S
C695 C696 1.366 . S
C695 C697 1.388 . S
C696 C695 1.366 . S
C696 C700 1.385 . S
C697 H672 0.951 . S
C697 C695 1.388 . S
C697 C698 1.366 . S
C698 C697 1.366 . S
C698 C699 1.414 . S
C698 C701 1.499 . S
C699 H673 0.950 . S
C699 C698 1.414 . S
C699 C700 1.374 . S
C700 H674 0.950 . S
C700 C696 1.385 . S
C700 C699 1.374 . S
C701 C698 1.499 . S
C701 C702 1.373 . S
C701 C703 1.389 . S
C702 H675 0.950 . S
C702 C688 1.377 . S
C702 C701 1.373 . S
C703 C687 1.377 . S
C703 C701 1.389 . S
C703 C704 1.524 . S
C704 C703 1.524 . S
C704 C705 1.397 . S
C704 C709 1.363 . S
C705 H676 0.950 . S
C705 C704 1.397 . S
C705 C706 1.334 . S
C706 H677 0.950 . S
C706 C705 1.334 . S
C706 C707 1.287 . S
C707 C706 1.287 . S
C707 C708 1.524 . S
C707 H710 0.999 . S
C708 H678 0.950 . S
C708 C707 1.524 . S
C708 C709 1.415 . S
C709 H679 0.950 . S
C709 C704 1.363 . S
C709 C708 1.415 . S
H710 C707 0.999 . S
H711 C692 0.913 . S
H712 C730 0.951 . S
H713 C732 0.951 . S
H714 C734 0.950 . S
H715 C735 0.950 . S
H716 C737 0.950 . S
H717 C740 0.950 . S
H718 C741 0.950 . S
H719 C743 0.950 . S
H720 C744 0.950 . S
H721 C745 0.951 . S
H722 C747 0.951 . S
H723 C749 0.950 . S
H724 C750 0.950 . S
H725 C752 0.950 . S
H726 C755 0.950 . S
H727 C756 0.950 . S
H728 C758 0.950 . S
H729 C759 0.950 . S
C730 H712 0.951 . S
C730 C731 1.366 . S
C730 C732 1.388 . S
C731 C730 1.366 . S
C731 C735 1.385 . S
C732 H713 0.951 . S
C732 C730 1.388 . S
C732 C733 1.366 . S
C733 C732 1.366 . S
C733 C734 1.414 . S
C733 C736 1.499 . S
C734 H714 0.950 . S
C734 C733 1.414 . S
C734 C735 1.374 . S
C735 H715 0.950 . S
C735 C731 1.385 . S
C735 C734 1.374 . S
C736 C733 1.499 . S
C736 C737 1.373 . S
C736 C738 1.389 . S
C737 H716 0.950 . S
C737 C736 1.373 . S
C737 C753 1.377 . S
C738 C736 1.389 . S
C738 C739 1.524 . S
C738 C752 1.377 . S
C739 C738 1.524 . S
C739 C740 1.397 . S
C739 C744 1.363 . S
C740 H717 0.950 . S
C740 C739 1.397 . S
C740 C741 1.334 . S
C741 H718 0.950 . S
C741 C740 1.334 . S
C741 C742 1.287 . S
C742 C741 1.287 . S
C742 C743 1.524 . S
C742 H761 0.913 . S
C743 H719 0.950 . S
C743 C742 1.524 . S
C743 C744 1.415 . S
C744 H720 0.950 . S
C744 C739 1.363 . S
C744 C743 1.415 . S
C745 H721 0.951 . S
C745 C746 1.366 . S
C745 C747 1.388 . S
C746 C745 1.366 . S
C746 C750 1.385 . S
C747 H722 0.951 . S
C747 C745 1.388 . S
C747 C748 1.366 . S
C748 C747 1.366 . S
C748 C749 1.414 . S
C748 C751 1.499 . S
C749 H723 0.950 . S
C749 C748 1.414 . S
C749 C750 1.374 . S
C750 H724 0.950 . S
C750 C746 1.385 . S
C750 C749 1.374 . S
C751 C748 1.499 . S
C751 C752 1.373 . S
C751 C753 1.389 . S
C752 H725 0.950 . S
C752 C738 1.377 . S
C752 C751 1.373 . S
C753 C737 1.377 . S
C753 C751 1.389 . S
C753 C754 1.524 . S
C754 C753 1.524 . S
C754 C755 1.397 . S
C754 C759 1.363 . S
C755 H726 0.950 . S
C755 C754 1.397 . S
C755 C756 1.334 . S
C756 H727 0.950 . S
C756 C755 1.334 . S
C756 C757 1.287 . S
C757 C756 1.287 . S
C757 C758 1.524 . S
C757 H760 0.999 . S
C758 H728 0.950 . S
C758 C757 1.524 . S
C758 C759 1.415 . S
C759 H729 0.950 . S
C759 C754 1.363 . S
C759 C758 1.415 . S
H760 C757 0.999 . S
H761 C742 0.913 . S
H762 C780 0.951 . S
H763 C782 0.951 . S
H764 C784 0.950 . S
H765 C785 0.950 . S
H766 C787 0.950 . S
H767 C790 0.950 . S
H768 C791 0.950 . S
H769 C793 0.950 . S
H770 C794 0.950 . S
H771 C795 0.951 . S
H772 C797 0.951 . S
H773 C799 0.950 . S
H774 C800 0.950 . S
H775 C802 0.950 . S
H776 C805 0.950 . S
H777 C806 0.950 . S
H778 C808 0.950 . S
H779 C809 0.950 . S
C780 H762 0.951 . S
C780 C781 1.366 . S
C780 C782 1.388 . S
C781 C780 1.366 . S
C781 C785 1.385 . S
C782 H763 0.951 . S
C782 C780 1.388 . S
C782 C783 1.366 . S
C783 C782 1.366 . S
C783 C784 1.414 . S
C783 C786 1.499 . S
C784 H764 0.950 . S
C784 C783 1.414 . S
C784 C785 1.374 . S
C785 H765 0.950 . S
C785 C781 1.385 . S
C785 C784 1.374 . S
C786 C783 1.499 . S
C786 C787 1.373 . S
C786 C788 1.389 . S
C787 H766 0.950 . S
C787 C786 1.373 . S
C787 C803 1.377 . S
C788 C786 1.389 . S
C788 C789 1.524 . S
C788 C802 1.377 . S
C789 C788 1.524 . S
C789 C790 1.397 . S
C789 C794 1.363 . S
C790 H767 0.950 . S
C790 C789 1.397 . S
C790 C791 1.334 . S
C791 H768 0.950 . S
C791 C790 1.334 . S
C791 C792 1.287 1_455 S
C792 C791 1.287 1_655 S
C792 C793 1.524 . S
C792 H811 0.913 . S
C793 H769 0.950 . S
C793 C792 1.524 . S
C793 C794 1.415 1_655 S
C794 H770 0.950 . S
C794 C789 1.363 . S
C794 C793 1.415 1_455 S
C795 H771 0.951 . S
C795 C796 1.366 . S
C795 C797 1.388 . S
C796 C795 1.366 . S
C796 C800 1.385 . S
C797 H772 0.951 . S
C797 C795 1.388 . S
C797 C798 1.366 . S
C798 C797 1.366 . S
C798 C799 1.414 . S
C798 C801 1.499 . S
C799 H773 0.950 . S
C799 C798 1.414 . S
C799 C800 1.374 . S
C800 H774 0.950 . S
C800 C796 1.385 . S
C800 C799 1.374 . S
C801 C798 1.499 . S
C801 C802 1.373 . S
C801 C803 1.389 . S
C802 H775 0.950 . S
C802 C788 1.377 . S
C802 C801 1.373 . S
C803 C787 1.377 . S
C803 C801 1.389 . S
C803 C804 1.524 . S
C804 C803 1.524 . S
C804 C805 1.397 . S
C804 C809 1.363 . S
C805 H776 0.950 . S
C805 C804 1.397 . S
C805 C806 1.334 . S
C806 H777 0.950 . S
C806 C805 1.334 . S
C806 C807 1.287 . S
C807 C806 1.287 . S
C807 C808 1.524 . S
C807 H810 0.999 . S
C808 H778 0.950 . S
C808 C807 1.524 . S
C808 C809 1.415 . S
C809 H779 0.950 . S
C809 C804 1.363 . S
C809 C808 1.415 . S
H810 C807 0.999 . S
H811 C792 0.913 . S
H812 C830 0.951 . S
H813 C832 0.951 . S
H814 C834 0.950 . S
H815 C835 0.950 . S
H816 C837 0.950 . S
H817 C840 0.950 . S
H818 C841 0.950 . S
H819 C843 0.950 . S
H820 C844 0.950 . S
H821 C845 0.951 . S
H822 C847 0.951 . S
H823 C849 0.950 . S
H824 C850 0.950 . S
H825 C852 0.950 . S
H826 C855 0.950 . S
H827 C856 0.950 . S
H828 C858 0.950 . S
H829 C859 0.950 . S
C830 H812 0.951 . S
C830 C831 1.366 . S
C830 C832 1.388 . S
C831 C830 1.366 . S
C831 C835 1.385 . S
C832 H813 0.951 . S
C832 C830 1.388 . S
C832 C833 1.366 . S
C833 C832 1.366 . S
C833 C834 1.414 . S
C833 C836 1.499 . S
C834 H814 0.950 . S
C834 C833 1.414 . S
C834 C835 1.374 . S
C835 H815 0.950 . S
C835 C831 1.385 . S
C835 C834 1.374 . S
C836 C833 1.499 . S
C836 C837 1.373 . S
C836 C838 1.389 . S
C837 H816 0.950 . S
C837 C836 1.373 . S
C837 C853 1.377 . S
C838 C836 1.389 . S
C838 C839 1.524 . S
C838 C852 1.377 . S
C839 C838 1.524 . S
C839 C840 1.397 . S
C839 C844 1.363 . S
C840 H817 0.950 . S
C840 C839 1.397 . S
C840 C841 1.334 . S
C841 H818 0.950 . S
C841 C840 1.334 . S
C841 C842 1.287 . S
C842 C841 1.287 . S
C842 C843 1.524 . S
C842 H861 0.913 . S
C843 H819 0.950 . S
C843 C842 1.524 . S
C843 C844 1.415 . S
C844 H820 0.950 . S
C844 C839 1.363 . S
C844 C843 1.415 . S
C845 H821 0.951 . S
C845 C846 1.366 . S
C845 C847 1.388 . S
C846 C845 1.366 . S
C846 C850 1.385 . S
C847 H822 0.951 . S
C847 C845 1.388 . S
C847 C848 1.366 . S
C848 C847 1.366 . S
C848 C849 1.414 . S
C848 C851 1.499 1_545 S
C849 H823 0.950 . S
C849 C848 1.414 . S
C849 C850 1.374 . S
C850 H824 0.950 . S
C850 C846 1.385 . S
C850 C849 1.374 . S
C851 C848 1.499 1_565 S
C851 C852 1.373 . S
C851 C853 1.389 . S
C852 H825 0.950 . S
C852 C838 1.377 . S
C852 C851 1.373 . S
C853 C837 1.377 . S
C853 C851 1.389 . S
C853 C854 1.524 . S
C854 C853 1.524 . S
C854 C855 1.397 1_565 S
C854 C859 1.363 . S
C855 H826 0.950 . S
C855 C854 1.397 1_545 S
C855 C856 1.334 . S
C856 H827 0.950 . S
C856 C855 1.334 . S
C856 C857 1.287 1_655 S
C857 C856 1.287 1_455 S
C857 C858 1.524 1_545 S
C857 H860 0.999 . S
C858 H828 0.950 . S
C858 C857 1.524 1_565 S
C858 C859 1.415 1_455 S
C859 H829 0.950 . S
C859 C854 1.363 . S
C859 C858 1.415 1_655 S
H860 C857 0.999 . S
H861 C842 0.913 . S
H862 C880 0.951 . S
H863 C882 0.951 . S
H864 C884 0.950 . S
H865 C885 0.950 . S
H866 C887 0.950 . S
H867 C890 0.950 . S
H868 C891 0.950 . S
H869 C893 0.950 . S
H870 C894 0.950 . S
H871 C895 0.951 . S
H872 C897 0.951 . S
H873 C899 0.950 . S
H874 C900 0.950 . S
H875 C902 0.950 . S
H876 C905 0.950 . S
H877 C906 0.950 . S
H878 C908 0.950 . S
H879 C909 0.950 . S
C880 H862 0.951 . S
C880 C881 1.366 . S
C880 C882 1.388 . S
C881 C880 1.366 . S
C881 C885 1.385 . S
C882 H863 0.951 . S
C882 C880 1.388 . S
C882 C883 1.366 . S
C883 C882 1.366 . S
C883 C884 1.414 . S
C883 C886 1.499 . S
C884 H864 0.950 . S
C884 C883 1.414 . S
C884 C885 1.374 . S
C885 H865 0.950 . S
C885 C881 1.385 . S
C885 C884 1.374 . S
C886 C883 1.499 . S
C886 C887 1.373 . S
C886 C888 1.389 . S
C887 H866 0.950 . S
C887 C886 1.373 . S
C887 C903 1.377 . S
C888 C886 1.389 . S
C888 C889 1.524 . S
C888 C902 1.377 . S
C889 C888 1.524 . S
C889 C890 1.397 . S
C889 C894 1.363 . S
C890 H867 0.950 . S
C890 C889 1.397 . S
C890 C891 1.334 . S
C891 H868 0.950 . S
C891 C890 1.334 . S
C891 C892 1.287 . S
C892 C891 1.287 . S
C892 C893 1.524 . S
C892 H911 0.913 . S
C893 H869 0.950 . S
C893 C892 1.524 . S
C893 C894 1.415 . S
C894 H870 0.950 . S
C894 C889 1.363 . S
C894 C893 1.415 . S
C895 H871 0.951 . S
C895 C896 1.366 . S
C895 C897 1.388 . S
C896 C895 1.366 . S
C896 C900 1.385 . S
C897 H872 0.951 . S
C897 C895 1.388 . S
C897 C898 1.366 . S
C898 C897 1.366 . S
C898 C899 1.414 . S
C898 C901 1.499 . S
C899 H873 0.950 . S
C899 C898 1.414 . S
C899 C900 1.374 . S
C900 H874 0.950 . S
C900 C896 1.385 . S
C900 C899 1.374 . S
C901 C898 1.499 . S
C901 C902 1.373 . S
C901 C903 1.389 . S
C902 H875 0.950 . S
C902 C888 1.377 . S
C902 C901 1.373 . S
C903 C887 1.377 . S
C903 C901 1.389 . S
C903 C904 1.524 . S
C904 C903 1.524 . S
C904 C905 1.397 . S
C904 C909 1.363 . S
C905 H876 0.950 . S
C905 C904 1.397 . S
C905 C906 1.334 . S
C906 H877 0.950 . S
C906 C905 1.334 . S
C906 C907 1.287 . S
C907 C906 1.287 . S
C907 C908 1.524 . S
C907 H910 0.999 . S
C908 H878 0.950 . S
C908 C907 1.524 . S
C908 C909 1.415 . S
C909 H879 0.950 . S
C909 C904 1.363 . S
C909 C908 1.415 . S
H910 C907 0.999 . S
H911 C892 0.913 . S
H912 C930 0.951 . S
H913 C932 0.951 . S
H914 C934 0.950 . S
H915 C935 0.950 . S
H916 C937 0.950 . S
H917 C940 0.950 . S
H918 C941 0.950 . S
H919 C943 0.950 . S
H920 C944 0.950 . S
H921 C945 0.951 . S
H922 C947 0.951 . S
H923 C949 0.950 . S
H924 C950 0.950 . S
H925 C952 0.950 . S
H926 C955 0.950 . S
H927 C956 0.950 . S
H928 C958 0.950 . S
H929 C959 0.950 . S
C930 H912 0.951 . S
C930 C931 1.366 . S
C930 C932 1.388 . S
C931 C930 1.366 . S
C931 C935 1.385 . S
C932 H913 0.951 . S
C932 C930 1.388 . S
C932 C933 1.366 . S
C933 C932 1.366 . S
C933 C934 1.414 . S
C933 C936 1.499 1_554 S
C934 H914 0.950 . S
C934 C933 1.414 . S
C934 C935 1.374 . S
C935 H915 0.950 . S
C935 C931 1.385 . S
C935 C934 1.374 . S
C936 C933 1.499 1_556 S
C936 C937 1.373 . S
C936 C938 1.389 . S
C937 H916 0.950 . S
C937 C936 1.373 . S
C937 C953 1.377 . S
C938 C936 1.389 . S
C938 C939 1.524 . S
C938 C952 1.377 . S
C939 C938 1.524 . S
C939 C940 1.397 1_556 S
C939 C944 1.363 . S
C940 H917 0.950 . S
C940 C939 1.397 1_554 S
C940 C941 1.334 . S
C941 H918 0.950 . S
C941 C940 1.334 . S
C941 C942 1.287 . S
C942 C941 1.287 . S
C942 C943 1.524 1_554 S
C942 H961 0.913 . S
C943 H919 0.950 . S
C943 C942 1.524 1_556 S
C943 C944 1.415 . S
C944 H920 0.950 . S
C944 C939 1.363 . S
C944 C943 1.415 . S
C945 H921 0.951 . S
C945 C946 1.366 . S
C945 C947 1.388 . S
C946 C945 1.366 . S
C946 C950 1.385 . S
C947 H922 0.951 . S
C947 C945 1.388 . S
C947 C948 1.366 . S
C948 C947 1.366 . S
C948 C949 1.414 . S
C948 C951 1.499 . S
C949 H923 0.950 . S
C949 C948 1.414 . S
C949 C950 1.374 . S
C950 H924 0.950 . S
C950 C946 1.385 . S
C950 C949 1.374 . S
C951 C948 1.499 . S
C951 C952 1.373 . S
C951 C953 1.389 . S
C952 H925 0.950 . S
C952 C938 1.377 . S
C952 C951 1.373 . S
C953 C937 1.377 . S
C953 C951 1.389 . S
C953 C954 1.524 . S
C954 C953 1.524 . S
C954 C955 1.397 . S
C954 C959 1.363 . S
C955 H926 0.950 . S
C955 C954 1.397 . S
C955 C956 1.334 . S
C956 H927 0.950 . S
C956 C955 1.334 . S
C956 C957 1.287 . S
C957 C956 1.287 . S
C957 C958 1.524 . S
C957 H960 0.999 . S
C958 H928 0.950 . S
C958 C957 1.524 . S
C958 C959 1.415 . S
C959 H929 0.950 . S
C959 C954 1.363 . S
C959 C958 1.415 . S
H960 C957 0.999 . S
H961 C942 0.913 . S
H962 C980 0.951 . S
H963 C982 0.951 . S
H964 C984 0.950 . S
H965 C985 0.950 . S
H966 C987 0.950 . S
H967 C990 0.950 . S
H968 C991 0.950 . S
H969 C993 0.950 . S
H970 C994 0.949 1_556 S
H971 C995 0.951 . S
H972 C997 0.951 . S
H973 C999 0.950 . S
H974 C1000 0.950 . S
H975 C1002 0.950 . S
H976 C1005 0.950 . S
H977 C1006 0.950 . S
H978 C1008 0.950 . S
H979 C1009 0.950 . S
C980 H962 0.951 . S
C980 C981 1.366 . S
C980 C982 1.388 . S
C981 C980 1.366 . S
C981 C985 1.385 . S
C982 H963 0.951 . S
C982 C980 1.388 . S
C982 C983 1.366 . S
C983 C982 1.366 . S
C983 C984 1.414 . S
C983 C986 1.499 1_554 S
C984 H964 0.950 . S
C984 C983 1.414 . S
C984 C985 1.374 . S
C985 H965 0.950 . S
C985 C981 1.385 . S
C985 C984 1.374 . S
C986 C983 1.499 1_556 S
C986 C987 1.373 . S
C986 C988 1.389 . S
C987 H966 0.950 . S
C987 C986 1.373 . S
C987 C1003 1.377 . S
C988 C986 1.389 . S
C988 C989 1.524 1_556 S
C988 C1002 1.377 . S
C989 C988 1.524 1_554 S
C989 C990 1.397 . S
C989 C994 1.363 . S
C990 H967 0.950 . S
C990 C989 1.397 . S
C990 C991 1.334 . S
C991 H968 0.950 . S
C991 C990 1.334 . S
C991 C992 1.287 . S
C992 C991 1.287 . S
C992 C993 1.524 . S
C992 H1011 0.913 . S
C993 H969 0.950 . S
C993 C992 1.524 . S
C993 C994 1.416 . S
C994 H970 0.949 1_554 S
C994 C989 1.363 . S
C994 C993 1.416 . S
C995 H971 0.951 . S
C995 C996 1.366 . S
C995 C997 1.388 . S
C996 C995 1.366 . S
C996 C1000 1.385 . S
C997 H972 0.951 . S
C997 C995 1.388 . S
C997 C998 1.366 . S
C998 C997 1.366 . S
C998 C999 1.414 . S
C998 C1001 1.499 . S
C999 H973 0.950 . S
C999 C998 1.414 . S
C999 C1000 1.374 . S
C1000 H974 0.950 . S
C1000 C996 1.385 . S
C1000 C999 1.374 . S
C1001 C998 1.499 . S
C1001 C1002 1.373 . S
C1001 C1003 1.389 . S
C1002 H975 0.950 . S
C1002 C988 1.377 . S
C1002 C1001 1.373 . S
C1003 C987 1.377 . S
C1003 C1001 1.389 . S
C1003 C1004 1.524 . S
C1004 C1003 1.524 . S
C1004 C1005 1.397 . S
C1004 C1009 1.363 . S
C1005 H976 0.950 . S
C1005 C1004 1.397 . S
C1005 C1006 1.334 . S
C1006 H977 0.950 . S
C1006 C1005 1.334 . S
C1006 C1007 1.287 1_565 S
C1007 C1006 1.287 1_545 S
C1007 C1008 1.524 . S
C1007 H1010 0.999 . S
C1008 H978 0.950 . S
C1008 C1007 1.524 . S
C1008 C1009 1.415 1_545 S
C1009 H979 0.950 . S
C1009 C1004 1.363 . S
C1009 C1008 1.415 1_565 S
H1010 C1007 0.999 . S
H1011 C992 0.913 . S
H1012 C1030 0.951 . S
H1013 C1032 0.951 . S
H1014 C1034 0.950 . S
H1015 C1035 0.950 . S
H1016 C1037 0.950 . S
H1017 C1040 0.950 . S
H1018 C1041 0.950 . S
H1019 C1043 0.950 . S
H1020 C1044 0.950 . S
H1021 C1045 0.951 . S
H1022 C1047 0.951 . S
H1023 C1049 0.950 . S
H1024 C1050 0.950 . S
H1025 C1052 0.950 . S
H1026 C1055 0.950 . S
H1027 C1056 0.950 . S
H1028 C1058 0.950 . S
H1029 C1059 0.950 . S
C1030 H1012 0.951 . S
C1030 C1031 1.366 . S
C1030 C1032 1.388 . S
C1031 C1030 1.366 . S
C1031 C1035 1.385 . S
C1032 H1013 0.951 . S
C1032 C1030 1.388 . S
C1032 C1033 1.366 . S
C1033 C1032 1.366 . S
C1033 C1034 1.414 . S
C1033 C1036 1.499 . S
C1034 H1014 0.950 . S
C1034 C1033 1.414 . S
C1034 C1035 1.374 . S
C1035 H1015 0.950 . S
C1035 C1031 1.385 . S
C1035 C1034 1.374 . S
C1036 C1033 1.499 . S
C1036 C1037 1.373 . S
C1036 C1038 1.389 . S
C1037 H1016 0.950 . S
C1037 C1036 1.373 . S
C1037 C1053 1.377 . S
C1038 C1036 1.389 . S
C1038 C1039 1.524 . S
C1038 C1052 1.377 . S
C1039 C1038 1.524 . S
C1039 C1040 1.397 . S
C1039 C1044 1.363 . S
C1040 H1017 0.950 . S
C1040 C1039 1.397 . S
C1040 C1041 1.334 . S
C1041 H1018 0.950 . S
C1041 C1040 1.334 . S
C1041 C1042 1.287 . S
C1042 C1041 1.287 . S
C1042 C1043 1.524 . S
C1042 H1061 0.913 . S
C1043 H1019 0.950 . S
C1043 C1042 1.524 . S
C1043 C1044 1.415 . S
C1044 H1020 0.950 . S
C1044 C1039 1.363 . S
C1044 C1043 1.415 . S
C1045 H1021 0.951 . S
C1045 C1046 1.366 . S
C1045 C1047 1.388 . S
C1046 C1045 1.366 . S
C1046 C1050 1.385 . S
C1047 H1022 0.951 . S
C1047 C1045 1.388 . S
C1047 C1048 1.366 . S
C1048 C1047 1.366 . S
C1048 C1049 1.414 . S
C1048 C1051 1.499 . S
C1049 H1023 0.950 . S
C1049 C1048 1.414 . S
C1049 C1050 1.374 . S
C1050 H1024 0.950 . S
C1050 C1046 1.385 . S
C1050 C1049 1.374 . S
C1051 C1048 1.499 . S
C1051 C1052 1.373 . S
C1051 C1053 1.389 . S
C1052 H1025 0.950 . S
C1052 C1038 1.377 . S
C1052 C1051 1.373 . S
C1053 C1037 1.377 . S
C1053 C1051 1.389 . S
C1053 C1054 1.524 . S
C1054 C1053 1.524 . S
C1054 C1055 1.397 . S
C1054 C1059 1.363 . S
C1055 H1026 0.950 . S
C1055 C1054 1.397 . S
C1055 C1056 1.334 . S
C1056 H1027 0.950 . S
C1056 C1055 1.334 . S
C1056 C1057 1.287 . S
C1057 C1056 1.287 . S
C1057 C1058 1.524 . S
C1057 H1060 0.999 . S
C1058 H1028 0.950 . S
C1058 C1057 1.524 . S
C1058 C1059 1.415 . S
C1059 H1029 0.950 . S
C1059 C1054 1.363 . S
C1059 C1058 1.415 . S
H1060 C1057 0.999 . S
H1061 C1042 0.913 . S
H1062 C1080 0.951 . S
H1063 C1082 0.951 . S
H1064 C1084 0.950 . S
H1065 C1085 0.950 . S
H1066 C1087 0.950 . S
H1067 C1090 0.950 . S
H1068 C1091 0.946 1_565 S
H1069 C1093 0.950 . S
H1070 C1094 0.950 . S
H1071 C1095 0.951 . S
H1072 C1097 0.951 . S
H1073 C1099 0.950 . S
H1074 C1100 0.950 . S
H1075 C1102 0.950 . S
H1076 C1105 0.950 . S
H1077 C1106 0.950 . S
H1078 C1108 0.950 . S
H1079 C1109 0.950 . S
C1080 H1062 0.951 . S
C1080 C1081 1.366 . S
C1080 C1082 1.388 . S
C1081 C1080 1.366 . S
C1081 C1085 1.385 . S
C1082 H1063 0.951 . S
C1082 C1080 1.388 . S
C1082 C1083 1.366 . S
C1083 C1082 1.366 . S
C1083 C1084 1.414 . S
C1083 C1086 1.499 . S
C1084 H1064 0.950 . S
C1084 C1083 1.414 . S
C1084 C1085 1.374 . S
C1085 H1065 0.950 . S
C1085 C1081 1.385 . S
C1085 C1084 1.374 . S
C1086 C1083 1.499 . S
C1086 C1087 1.373 . S
C1086 C1088 1.389 . S
C1087 H1066 0.950 . S
C1087 C1086 1.373 . S
C1087 C1103 1.377 . S
C1088 C1086 1.389 . S
C1088 C1089 1.524 . S
C1088 C1102 1.377 . S
C1089 C1088 1.524 . S
C1089 C1090 1.397 . S
C1089 C1094 1.363 . S
C1090 H1067 0.950 . S
C1090 C1089 1.397 . S
C1090 C1091 1.354 . S
C1091 H1068 0.946 1_545 S
C1091 C1090 1.354 . S
C1091 C1092 1.272 1_545 S
C1092 C1091 1.272 1_565 S
C1092 C1093 1.524 . S
C1092 H1111 0.913 . S
C1093 H1069 0.950 . S
C1093 C1092 1.524 . S
C1093 C1094 1.415 1_565 S
C1094 H1070 0.950 . S
C1094 C1089 1.363 . S
C1094 C1093 1.415 1_545 S
C1095 H1071 0.951 . S
C1095 C1096 1.366 . S
C1095 C1097 1.388 . S
C1096 C1095 1.366 . S
C1096 C1100 1.385 . S
C1097 H1072 0.951 . S
C1097 C1095 1.388 . S
C1097 C1098 1.366 . S
C1098 C1097 1.366 . S
C1098 C1099 1.414 . S
C1098 C1101 1.499 . S
C1099 H1073 0.950 . S
C1099 C1098 1.414 . S
C1099 C1100 1.374 . S
C1100 H1074 0.950 . S
C1100 C1096 1.385 . S
C1100 C1099 1.374 . S
C1101 C1098 1.499 . S
C1101 C1102 1.373 . S
C1101 C1103 1.389 . S
C1102 H1075 0.950 . S
C1102 C1088 1.377 . S
C1102 C1101 1.373 . S
C1103 C1087 1.377 . S
C1103 C1101 1.389 . S
C1103 C1104 1.524 . S
C1104 C1103 1.524 . S
C1104 C1105 1.397 . S
C1104 C1109 1.363 . S
C1105 H1076 0.950 . S
C1105 C1104 1.397 . S
C1105 C1106 1.334 . S
C1106 H1077 0.950 . S
C1106 C1105 1.334 . S
C1106 C1107 1.287 . S
C1107 C1106 1.287 . S
C1107 C1108 1.524 . S
C1107 H1110 0.999 . S
C1108 H1078 0.950 . S
C1108 C1107 1.524 . S
C1108 C1109 1.415 . S
C1109 H1079 0.950 . S
C1109 C1104 1.363 . S
C1109 C1108 1.415 . S
H1110 C1107 0.999 . S
H1111 C1092 0.913 . S
H1112 C1130 0.951 . S
H1113 C1132 0.951 . S
H1114 C1134 0.950 . S
H1115 C1135 0.950 . S
H1116 C1137 0.950 . S
H1117 C1140 0.950 . S
H1118 C1141 0.950 . S
H1119 C1143 0.950 . S
H1120 C1144 0.950 . S
H1121 C1145 0.951 . S
H1122 C1147 0.951 . S
H1123 C1149 0.950 . S
H1124 C1150 0.950 . S
H1125 C1152 0.950 . S
H1126 C1155 0.950 . S
H1127 C1156 0.950 . S
H1128 C1158 0.950 . S
H1129 C1159 0.950 . S
C1130 H1112 0.951 . S
C1130 C1131 1.366 . S
C1130 C1132 1.388 . S
C1131 C1130 1.366 . S
C1131 C1135 1.385 . S
C1132 H1113 0.951 . S
C1132 C1130 1.388 . S
C1132 C1133 1.366 . S
C1133 C1132 1.366 . S
C1133 C1134 1.414 . S
C1133 C1136 1.499 1_455 S
C1134 H1114 0.950 . S
C1134 C1133 1.414 . S
C1134 C1135 1.374 . S
C1135 H1115 0.950 . S
C1135 C1131 1.385 . S
C1135 C1134 1.374 . S
C1136 C1133 1.499 1_655 S
C1136 C1137 1.373 . S
C1136 C1138 1.389 . S
C1137 H1116 0.950 . S
C1137 C1136 1.373 . S
C1137 C1153 1.377 . S
C1138 C1136 1.389 . S
C1138 C1139 1.524 . S
C1138 C1152 1.377 . S
C1139 C1138 1.524 . S
C1139 C1140 1.397 1_655 S
C1139 C1144 1.363 . S
C1140 H1117 0.950 . S
C1140 C1139 1.397 1_455 S
C1140 C1141 1.334 . S
C1141 H1118 0.950 . S
C1141 C1140 1.334 . S
C1141 C1142 1.287 . S
C1142 C1141 1.287 . S
C1142 C1143 1.524 1_455 S
C1142 H1161 0.913 . S
C1143 H1119 0.950 . S
C1143 C1142 1.524 1_655 S
C1143 C1144 1.415 . S
C1144 H1120 0.950 . S
C1144 C1139 1.363 . S
C1144 C1143 1.415 . S
C1145 H1121 0.951 . S
C1145 C1146 1.366 . S
C1145 C1147 1.388 . S
C1146 C1145 1.366 . S
C1146 C1150 1.385 . S
C1147 H1122 0.951 . S
C1147 C1145 1.388 . S
C1147 C1148 1.366 . S
C1148 C1147 1.366 . S
C1148 C1149 1.414 . S
C1148 C1151 1.499 . S
C1149 H1123 0.950 . S
C1149 C1148 1.414 . S
C1149 C1150 1.374 . S
C1150 H1124 0.950 . S
C1150 C1146 1.385 . S
C1150 C1149 1.374 . S
C1151 C1148 1.499 . S
C1151 C1152 1.373 . S
C1151 C1153 1.389 . S
C1152 H1125 0.950 . S
C1152 C1138 1.377 . S
C1152 C1151 1.373 . S
C1153 C1137 1.377 . S
C1153 C1151 1.389 . S
C1153 C1154 1.524 . S
C1154 C1153 1.524 . S
C1154 C1155 1.397 . S
C1154 C1159 1.363 . S
C1155 H1126 0.950 . S
C1155 C1154 1.397 . S
C1155 C1156 1.334 . S
C1156 H1127 0.950 . S
C1156 C1155 1.334 . S
C1156 C1157 1.287 . S
C1157 C1156 1.287 . S
C1157 C1158 1.524 . S
C1157 H1160 0.999 . S
C1158 H1128 0.950 . S
C1158 C1157 1.524 . S
C1158 C1159 1.415 . S
C1159 H1129 0.950 . S
C1159 C1154 1.363 . S
C1159 C1158 1.415 . S
H1160 C1157 0.999 . S
H1161 C1142 0.913 . S
H1162 C1180 0.951 . S
H1163 C1182 0.951 . S
H1164 C1184 0.950 . S
H1165 C1185 0.950 . S
H1166 C1187 0.950 1_655 S
H1167 C1190 0.950 . S
H1168 C1191 0.950 . S
H1169 C1193 0.950 . S
H1170 C1194 0.950 . S
H1171 C1195 0.951 . S
H1172 C1197 0.951 . S
H1173 C1199 0.950 . S
H1174 C1200 0.950 . S
H1175 C1202 0.950 . S
H1176 C1205 0.950 . S
H1177 C1206 0.950 . S
H1178 C1208 0.950 . S
H1179 C1209 0.950 . S
C1180 H1162 0.951 . S
C1180 C1181 1.366 . S
C1180 C1182 1.388 . S
C1181 C1180 1.366 . S
C1181 C1185 1.385 . S
C1182 H1163 0.951 . S
C1182 C1180 1.388 . S
C1182 C1183 1.366 . S
C1183 C1182 1.366 . S
C1183 C1184 1.414 . S
C1183 C1186 1.499 1_655 S
C1184 H1164 0.950 . S
C1184 C1183 1.414 . S
C1184 C1185 1.374 . S
C1185 H1165 0.950 . S
C1185 C1181 1.385 . S
C1185 C1184 1.374 . S
C1186 C1183 1.499 1_455 S
C1186 C1187 1.373 . S
C1186 C1188 1.389 . S
C1187 H1166 0.950 1_455 S
C1187 C1186 1.373 . S
C1187 C1203 1.377 . S
C1188 C1186 1.389 . S
C1188 C1189 1.524 . S
C1188 C1202 1.377 . S
C1189 C1188 1.524 . S
C1189 C1190 1.397 . S
C1189 C1194 1.363 . S
C1190 H1167 0.950 . S
C1190 C1189 1.397 . S
C1190 C1191 1.334 . S
C1191 H1168 0.950 . S
C1191 C1190 1.334 . S
C1191 C1192 1.287 . S
C1192 C1191 1.287 . S
C1192 C1193 1.524 . S
C1192 H1211 0.913 . S
C1193 H1169 0.950 . S
C1193 C1192 1.524 . S
C1193 C1194 1.415 . S
C1194 H1170 0.950 . S
C1194 C1189 1.363 . S
C1194 C1193 1.415 . S
C1195 H1171 0.951 . S
C1195 C1196 1.366 . S
C1195 C1197 1.388 . S
C1196 C1195 1.366 . S
C1196 C1200 1.385 . S
C1197 H1172 0.951 . S
C1197 C1195 1.388 . S
C1197 C1198 1.366 . S
C1198 C1197 1.366 . S
C1198 C1199 1.414 . S
C1198 C1201 1.499 . S
C1199 H1173 0.950 . S
C1199 C1198 1.414 . S
C1199 C1200 1.374 . S
C1200 H1174 0.950 . S
C1200 C1196 1.385 . S
C1200 C1199 1.374 . S
C1201 C1198 1.499 . S
C1201 C1202 1.373 . S
C1201 C1203 1.389 . S
C1202 H1175 0.950 . S
C1202 C1188 1.377 . S
C1202 C1201 1.373 . S
C1203 C1187 1.377 . S
C1203 C1201 1.389 . S
C1203 C1204 1.524 . S
C1204 C1203 1.524 . S
C1204 C1205 1.397 . S
C1204 C1209 1.363 . S
C1205 H1176 0.950 . S
C1205 C1204 1.397 . S
C1205 C1206 1.334 1_565 S
C1206 H1177 0.950 . S
C1206 C1205 1.334 1_545 S
C1206 C1207 1.287 . S
C1207 C1206 1.287 . S
C1207 C1208 1.524 1_545 S
C1207 H1210 0.999 . S
C1208 H1178 0.950 . S
C1208 C1207 1.524 1_565 S
C1208 C1209 1.415 . S
C1209 H1179 0.950 . S
C1209 C1204 1.363 . S
C1209 C1208 1.415 . S
H1210 C1207 0.999 . S
H1211 C1192 0.913 . S
H1212 C1230 0.951 . S
H1213 C1232 0.951 . S
H1214 C1234 0.950 . S
H1215 C1235 0.950 . S
H1216 C1237 0.950 . S
H1217 C1240 0.950 . S
H1218 C1241 0.950 . S
H1219 C1243 0.950 . S
H1220 C1244 0.950 1_655 S
H1221 C1245 0.951 . S
H1222 C1247 0.951 . S
H1223 C1249 0.950 . S
H1224 C1250 0.950 . S
H1225 C1252 0.950 . S
H1226 C1255 0.950 . S
H1227 C1256 0.950 . S
H1228 C1258 0.950 . S
H1229 C1259 0.950 . S
C1230 H1212 0.951 . S
C1230 C1231 1.366 . S
C1230 C1232 1.388 . S
C1231 C1230 1.366 . S
C1231 C1235 1.385 . S
C1232 H1213 0.951 . S
C1232 C1230 1.388 . S
C1232 C1233 1.366 . S
C1233 C1232 1.366 . S
C1233 C1234 1.414 . S
C1233 C1236 1.499 1_455 S
C1234 H1214 0.950 . S
C1234 C1233 1.414 . S
C1234 C1235 1.374 . S
C1235 H1215 0.950 . S
C1235 C1231 1.385 . S
C1235 C1234 1.374 . S
C1236 C1233 1.499 1_655 S
C1236 C1237 1.373 . S
C1236 C1238 1.389 . S
C1237 H1216 0.950 . S
C1237 C1236 1.373 . S
C1237 C1253 1.377 . S
C1238 C1236 1.389 . S
C1238 C1239 1.524 1_655 S
C1238 C1252 1.377 . S
C1239 C1238 1.524 1_455 S
C1239 C1240 1.397 . S
C1239 C1244 1.363 . S
C1240 H1217 0.950 . S
C1240 C1239 1.397 . S
C1240 C1241 1.334 . S
C1241 H1218 0.950 . S
C1241 C1240 1.334 . S
C1241 C1242 1.287 . S
C1242 C1241 1.287 . S
C1242 C1243 1.524 . S
C1242 H1261 0.913 . S
C1243 H1219 0.950 . S
C1243 C1242 1.524 . S
C1243 C1244 1.415 . S
C1244 H1220 0.950 1_455 S
C1244 C1239 1.363 . S
C1244 C1243 1.415 . S
C1245 H1221 0.951 . S
C1245 C1246 1.366 . S
C1245 C1247 1.388 . S
C1246 C1245 1.366 . S
C1246 C1250 1.385 . S
C1247 H1222 0.951 . S
C1247 C1245 1.388 . S
C1247 C1248 1.366 . S
C1248 C1247 1.366 . S
C1248 C1249 1.414 . S
C1248 C1251 1.499 . S
C1249 H1223 0.950 . S
C1249 C1248 1.414 . S
C1249 C1250 1.374 . S
C1250 H1224 0.950 . S
C1250 C1246 1.385 . S
C1250 C1249 1.374 . S
C1251 C1248 1.499 . S
C1251 C1252 1.373 . S
C1251 C1253 1.389 . S
C1252 H1225 0.950 . S
C1252 C1238 1.377 . S
C1252 C1251 1.373 . S
C1253 C1237 1.377 . S
C1253 C1251 1.389 . S
C1253 C1254 1.524 . S
C1254 C1253 1.524 . S
C1254 C1255 1.397 . S
C1254 C1259 1.363 . S
C1255 H1226 0.950 . S
C1255 C1254 1.397 . S
C1255 C1256 1.334 . S
C1256 H1227 0.950 . S
C1256 C1255 1.334 . S
C1256 C1257 1.287 1_556 S
C1257 C1256 1.287 1_554 S
C1257 C1258 1.524 . S
C1257 H1260 0.999 . S
C1258 H1228 0.950 . S
C1258 C1257 1.524 . S
C1258 C1259 1.415 1_554 S
C1259 H1229 0.950 . S
C1259 C1254 1.363 . S
C1259 C1258 1.415 1_556 S
H1260 C1257 0.999 . S
H1261 C1242 0.913 . S
H1262 C1280 0.951 . S
H1263 C1282 0.951 . S
H1264 C1284 0.950 . S
H1265 C1285 0.950 . S
H1266 C1287 0.950 . S
H1267 C1290 0.950 . S
H1268 C1291 0.950 . S
H1269 C1293 0.950 . S
H1270 C1294 0.950 . S
H1271 C1295 0.951 . S
H1272 C1297 0.951 . S
H1273 C1299 0.950 . S
H1274 C1300 0.950 . S
H1275 C1302 0.950 . S
H1276 C1305 0.950 . S
H1277 C1306 0.950 . S
H1278 C1308 0.950 . S
H1279 C1309 0.953 . S
C1280 H1262 0.951 . S
C1280 C1281 1.366 . S
C1280 C1282 1.388 . S
C1281 C1280 1.366 . S
C1281 C1285 1.385 . S
C1282 H1263 0.951 . S
C1282 C1280 1.388 . S
C1282 C1283 1.366 . S
C1283 C1282 1.366 . S
C1283 C1284 1.414 . S
C1283 C1286 1.499 . S
C1284 H1264 0.950 . S
C1284 C1283 1.414 . S
C1284 C1285 1.374 . S
C1285 H1265 0.950 . S
C1285 C1281 1.385 . S
C1285 C1284 1.374 . S
C1286 C1283 1.499 . S
C1286 C1287 1.373 . S
C1286 C1288 1.389 . S
C1287 H1266 0.950 . S
C1287 C1286 1.373 . S
C1287 C1303 1.377 . S
C1288 C1286 1.389 . S
C1288 C1289 1.524 . S
C1288 C1302 1.377 . S
C1289 C1288 1.524 . S
C1289 C1290 1.397 . S
C1289 C1294 1.363 . S
C1290 H1267 0.950 . S
C1290 C1289 1.397 . S
C1290 C1291 1.334 . S
C1291 H1268 0.950 . S
C1291 C1290 1.334 . S
C1291 C1292 1.287 . S
C1292 C1291 1.287 . S
C1292 C1293 1.524 . S
C1292 H1311 0.913 . S
C1293 H1269 0.950 . S
C1293 C1292 1.524 . S
C1293 C1294 1.415 . S
C1294 H1270 0.950 . S
C1294 C1289 1.363 . S
C1294 C1293 1.415 . S
C1295 H1271 0.951 . S
C1295 C1296 1.366 . S
C1295 C1297 1.388 . S
C1296 C1295 1.366 . S
C1296 C1300 1.385 . S
C1297 H1272 0.951 . S
C1297 C1295 1.388 . S
C1297 C1298 1.366 . S
C1298 C1297 1.366 . S
C1298 C1299 1.414 . S
C1298 C1301 1.499 1_655 S
C1299 H1273 0.950 . S
C1299 C1298 1.414 . S
C1299 C1300 1.374 . S
C1300 H1274 0.950 . S
C1300 C1296 1.385 . S
C1300 C1299 1.374 . S
C1301 C1298 1.499 1_455 S
C1301 C1302 1.373 . S
C1301 C1303 1.389 . S
C1302 H1275 0.950 . S
C1302 C1288 1.377 . S
C1302 C1301 1.373 . S
C1303 C1287 1.377 . S
C1303 C1301 1.389 . S
C1303 C1304 1.524 . S
C1304 C1303 1.524 . S
C1304 C1305 1.397 1_455 S
C1304 C1309 1.375 . S
C1305 H1276 0.950 . S
C1305 C1304 1.397 1_655 S
C1305 C1306 1.334 1_556 S
C1306 H1277 0.950 . S
C1306 C1305 1.334 1_554 S
C1306 C1307 1.287 . S
C1307 C1306 1.287 . S
C1307 C1308 1.524 1_655 S
C1307 H1310 0.999 . S
C1308 H1278 0.950 . S
C1308 C1307 1.524 1_455 S
C1308 C1309 1.400 1_554 S
C1309 H1279 0.953 . S
C1309 C1304 1.375 . S
C1309 C1308 1.400 1_556 S
H1310 C1307 0.999 . S
H1311 C1292 0.913 . S
H1312 C1330 0.951 . S
H1313 C1332 0.951 . S
H1314 C1334 0.950 . S
H1315 C1335 0.950 . S
H1316 C1337 0.950 . S
H1317 C1340 0.950 . S
H1318 C1341 0.950 . S
H1319 C1343 0.950 . S
H1320 C1344 0.950 . S
H1321 C1345 0.951 . S
H1322 C1347 0.951 . S
H1323 C1349 0.950 . S
H1324 C1350 0.950 . S
H1325 C1352 0.950 . S
H1326 C1355 0.950 . S
H1327 C1356 0.950 . S
H1328 C1358 0.950 . S
H1329 C1359 0.950 . S
C1330 H1312 0.951 . S
C1330 C1331 1.366 . S
C1330 C1332 1.388 . S
C1331 C1330 1.366 . S
C1331 C1335 1.385 . S
C1332 H1313 0.951 . S
C1332 C1330 1.388 . S
C1332 C1333 1.366 . S
C1333 C1332 1.366 . S
C1333 C1334 1.414 . S
C1333 C1336 1.499 1_545 S
C1334 H1314 0.950 . S
C1334 C1333 1.414 . S
C1334 C1335 1.374 . S
C1335 H1315 0.950 . S
C1335 C1331 1.385 . S
C1335 C1334 1.374 . S
C1336 C1333 1.499 1_565 S
C1336 C1337 1.373 . S
C1336 C1338 1.389 . S
C1337 H1316 0.950 . S
C1337 C1336 1.373 . S
C1337 C1353 1.377 . S
C1338 C1336 1.389 . S
C1338 C1339 1.524 1_565 S
C1338 C1352 1.377 . S
C1339 C1338 1.524 1_545 S
C1339 C1340 1.397 . S
C1339 C1344 1.363 . S
C1340 H1317 0.950 . S
C1340 C1339 1.397 . S
C1340 C1341 1.334 . S
C1341 H1318 0.950 . S
C1341 C1340 1.334 . S
C1341 C1342 1.287 . S
C1342 C1341 1.287 . S
C1342 C1343 1.524 . S
C1342 H1361 0.913 . S
C1343 H1319 0.950 . S
C1343 C1342 1.524 . S
C1343 C1344 1.415 . S
C1344 H1320 0.950 . S
C1344 C1339 1.363 . S
C1344 C1343 1.415 . S
C1345 H1321 0.951 . S
C1345 C1346 1.366 . S
C1345 C1347 1.388 . S
C1346 C1345 1.366 . S
C1346 C1350 1.385 . S
C1347 H1322 0.951 . S
C1347 C1345 1.388 . S
C1347 C1348 1.366 . S
C1348 C1347 1.366 . S
C1348 C1349 1.414 . S
C1348 C1351 1.499 . S
C1349 H1323 0.950 . S
C1349 C1348 1.414 . S
C1349 C1350 1.374 . S
C1350 H1324 0.950 . S
C1350 C1346 1.385 . S
C1350 C1349 1.374 . S
C1351 C1348 1.499 . S
C1351 C1352 1.373 . S
C1351 C1353 1.389 . S
C1352 H1325 0.950 . S
C1352 C1338 1.377 . S
C1352 C1351 1.373 . S
C1353 C1337 1.377 . S
C1353 C1351 1.389 . S
C1353 C1354 1.524 . S
C1354 C1353 1.524 . S
C1354 C1355 1.397 . S
C1354 C1359 1.363 . S
C1355 H1326 0.950 . S
C1355 C1354 1.397 . S
C1355 C1356 1.334 . S
C1356 H1327 0.950 . S
C1356 C1355 1.334 . S
C1356 C1357 1.287 . S
C1357 C1356 1.287 . S
C1357 C1358 1.524 . S
C1357 H1360 0.999 . S
C1358 H1328 0.950 . S
C1358 C1357 1.524 . S
C1358 C1359 1.415 . S
C1359 H1329 0.950 . S
C1359 C1354 1.363 . S
C1359 C1358 1.415 . S
H1360 C1357 0.999 . S
H1361 C1342 0.913 . S
H1362 C1380 0.951 . S
H1363 C1382 0.951 . S
H1364 C1384 0.950 . S
H1365 C1385 0.950 . S
H1366 C1387 0.950 . S
H1367 C1390 0.950 . S
H1368 C1391 0.950 . S
H1369 C1393 0.950 . S
H1370 C1394 0.950 . S
H1371 C1395 0.951 . S
H1372 C1397 0.951 . S
H1373 C1399 0.950 . S
H1374 C1400 0.950 . S
H1375 C1402 0.950 1_565 S
H1376 C1405 0.978 . S
H1377 C1406 0.925 1_565 S
H1378 C1408 0.950 . S
H1379 C1409 0.950 . S
C1380 H1362 0.951 . S
C1380 C1381 1.366 . S
C1380 C1382 1.388 . S
C1381 C1380 1.366 . S
C1381 C1385 1.385 . S
C1382 H1363 0.951 . S
C1382 C1380 1.388 . S
C1382 C1383 1.366 . S
C1383 C1382 1.366 . S
C1383 C1384 1.414 . S
C1383 C1386 1.499 . S
C1384 H1364 0.950 . S
C1384 C1383 1.414 . S
C1384 C1385 1.374 . S
C1385 H1365 0.950 . S
C1385 C1381 1.385 . S
C1385 C1384 1.374 . S
C1386 C1383 1.499 . S
C1386 C1387 1.373 . S
C1386 C1388 1.389 . S
C1387 H1366 0.950 . S
C1387 C1386 1.373 . S
C1387 C1403 1.377 . S
C1388 C1386 1.389 . S
C1388 C1389 1.524 . S
C1388 C1402 1.377 . S
C1389 C1388 1.524 . S
C1389 C1390 1.397 . S
C1389 C1394 1.363 . S
C1390 H1367 0.950 . S
C1390 C1389 1.397 . S
C1390 C1391 1.334 . S
C1391 H1368 0.950 . S
C1391 C1390 1.334 . S
C1391 C1392 1.287 . S
C1392 C1391 1.287 . S
C1392 C1393 1.524 1_556 S
C1392 H1411 0.913 1_556 S
C1393 H1369 0.950 . S
C1393 C1392 1.524 1_554 S
C1393 C1394 1.415 1_554 S
C1394 H1370 0.950 . S
C1394 C1389 1.363 . S
C1394 C1393 1.415 1_556 S
C1395 H1371 0.951 . S
C1395 C1396 1.366 . S
C1395 C1397 1.388 . S
C1396 C1395 1.366 . S
C1396 C1400 1.385 . S
C1397 H1372 0.951 . S
C1397 C1395 1.388 . S
C1397 C1398 1.366 . S
C1398 C1397 1.366 . S
C1398 C1399 1.414 . S
C1398 C1401 1.499 1_565 S
C1399 H1373 0.950 . S
C1399 C1398 1.414 . S
C1399 C1400 1.374 . S
C1400 H1374 0.950 . S
C1400 C1396 1.385 . S
C1400 C1399 1.374 . S
C1401 C1398 1.499 1_545 S
C1401 C1402 1.373 . S
C1401 C1403 1.389 . S
C1402 H1375 0.950 1_545 S
C1402 C1388 1.377 . S
C1402 C1401 1.373 . S
C1403 C1387 1.377 . S
C1403 C1401 1.389 . S
C1403 C1404 1.524 . S
C1404 C1403 1.524 . S
C1404 C1405 1.397 . S
C1404 C1409 1.363 . S
C1405 H1376 0.978 . S
C1405 C1404 1.397 . S
C1405 C1406 1.334 . S
C1406 H1377 0.925 1_545 S
C1406 C1405 1.334 . S
C1406 C1407 1.287 . S
C1407 C1406 1.287 . S
C1407 C1408 1.524 . S
C1407 H1410 0.999 . S
C1408 H1378 0.950 . S
C1408 C1407 1.524 . S
C1408 C1409 1.415 . S
C1409 H1379 0.950 . S
C1409 C1404 1.363 . S
C1409 C1408 1.415 . S
H1410 C1407 0.999 . S
H1411 C1392 0.913 1_554 S
H1412 C1430 0.951 . S
H1413 C1432 0.951 . S
H1414 C1434 0.950 . S
H1415 C1435 0.950 . S
H1416 C1437 0.950 . S
H1417 C1440 0.950 . S
H1418 C1441 0.950 . S
H1419 C1443 0.950 . S
H1420 C1444 0.950 . S
H1421 C1445 0.951 . S
H1422 C1447 0.951 . S
H1423 C1449 0.950 . S
H1424 C1450 0.950 . S
H1425 C1452 0.950 . S
H1426 C1455 0.950 . S
H1427 C1456 0.954 . S
H1428 C1458 0.950 . S
H1429 C1459 0.950 . S
C1430 H1412 0.951 . S
C1430 C1431 1.366 . S
C1430 C1432 1.388 . S
C1431 C1430 1.366 . S
C1431 C1435 1.385 . S
C1432 H1413 0.951 . S
C1432 C1430 1.388 . S
C1432 C1433 1.366 . S
C1433 C1432 1.366 . S
C1433 C1434 1.414 . S
C1433 C1436 1.499 . S
C1434 H1414 0.950 . S
C1434 C1433 1.414 . S
C1434 C1435 1.374 . S
C1435 H1415 0.950 . S
C1435 C1431 1.385 . S
C1435 C1434 1.374 . S
C1436 C1433 1.499 . S
C1436 C1437 1.373 . S
C1436 C1438 1.389 . S
C1437 H1416 0.950 . S
C1437 C1436 1.373 . S
C1437 C1453 1.377 . S
C1438 C1436 1.389 . S
C1438 C1439 1.524 . S
C1438 C1452 1.377 . S
C1439 C1438 1.524 . S
C1439 C1440 1.397 . S
C1439 C1444 1.363 . S
C1440 H1417 0.950 . S
C1440 C1439 1.397 . S
C1440 C1441 1.334 . S
C1441 H1418 0.950 . S
C1441 C1440 1.334 . S
C1441 C1442 1.287 . S
C1442 C1441 1.287 . S
C1442 C1443 1.524 . S
C1442 H1461 0.913 . S
C1443 H1419 0.950 . S
C1443 C1442 1.524 . S
C1443 C1444 1.415 . S
C1444 H1420 0.950 . S
C1444 C1439 1.363 . S
C1444 C1443 1.415 . S
C1445 H1421 0.951 . S
C1445 C1446 1.366 . S
C1445 C1447 1.388 . S
C1446 C1445 1.366 . S
C1446 C1450 1.385 . S
C1447 H1422 0.951 . S
C1447 C1445 1.388 . S
C1447 C1448 1.366 . S
C1448 C1447 1.366 . S
C1448 C1449 1.414 . S
C1448 C1451 1.499 . S
C1449 H1423 0.950 . S
C1449 C1448 1.414 . S
C1449 C1450 1.374 . S
C1450 H1424 0.950 . S
C1450 C1446 1.385 . S
C1450 C1449 1.374 . S
C1451 C1448 1.499 . S
C1451 C1452 1.373 . S
C1451 C1453 1.389 . S
C1452 H1425 0.950 . S
C1452 C1438 1.377 . S
C1452 C1451 1.373 . S
C1453 C1437 1.377 . S
C1453 C1451 1.389 . S
C1453 C1454 1.524 . S
C1454 C1453 1.524 . S
C1454 C1455 1.397 . S
C1454 C1459 1.363 . S
C1455 H1426 0.950 . S
C1455 C1454 1.397 . S
C1455 C1456 1.326 1_556 S
C1456 H1427 0.954 . S
C1456 C1455 1.326 1_554 S
C1456 C1457 1.292 . S
C1457 C1456 1.292 . S
C1457 C1458 1.524 . S
C1457 H1460 0.999 . S
C1458 H1428 0.950 . S
C1458 C1457 1.524 . S
C1458 C1459 1.415 1_554 S
C1459 H1429 0.950 . S
C1459 C1454 1.363 . S
C1459 C1458 1.415 1_556 S
H1460 C1457 0.999 . S
H1461 C1442 0.913 . S
H1462 C1480 0.951 . S
H1463 C1482 0.951 . S
H1464 C1484 0.950 . S
H1465 C1485 0.950 . S
H1466 C1487 0.950 . S
H1467 C1490 0.950 . S
H1468 C1491 0.950 . S
H1469 C1493 0.952 1_556 S
H1470 C1494 0.950 . S
H1471 C1495 0.951 . S
H1472 C1497 0.951 . S
H1473 C1499 0.950 . S
H1474 C1500 0.950 . S
H1475 C1502 0.950 1_565 S
H1476 C1505 0.950 . S
H1477 C1506 0.950 . S
H1478 C1508 0.950 . S
H1479 C1509 0.950 . S
C1480 H1462 0.951 . S
C1480 C1481 1.366 . S
C1480 C1482 1.388 . S
C1481 C1480 1.366 . S
C1481 C1485 1.385 . S
C1482 H1463 0.951 . S
C1482 C1480 1.388 . S
C1482 C1483 1.366 . S
C1483 C1482 1.366 . S
C1483 C1484 1.414 . S
C1483 C1486 1.499 . S
C1484 H1464 0.950 . S
C1484 C1483 1.414 . S
C1484 C1485 1.374 . S
C1485 H1465 0.950 . S
C1485 C1481 1.385 . S
C1485 C1484 1.374 . S
C1486 C1483 1.499 . S
C1486 C1487 1.373 . S
C1486 C1488 1.389 . S
C1487 H1466 0.950 . S
C1487 C1486 1.373 . S
C1487 C1503 1.377 . S
C1488 C1486 1.389 . S
C1488 C1489 1.524 . S
C1488 C1502 1.377 . S
C1489 C1488 1.524 . S
C1489 C1490 1.397 . S
C1489 C1494 1.363 . S
C1490 H1467 0.950 . S
C1490 C1489 1.397 . S
C1490 C1491 1.334 . S
C1491 H1468 0.950 . S
C1491 C1490 1.334 . S
C1491 C1492 1.287 . S
C1492 C1491 1.287 . S
C1492 C1493 1.524 . S
C1492 H1511 0.890 1_554 S
C1493 H1469 0.952 1_554 S
C1493 C1492 1.524 . S
C1493 C1494 1.415 . S
C1494 H1470 0.950 . S
C1494 C1489 1.363 . S
C1494 C1493 1.415 . S
C1495 H1471 0.951 . S
C1495 C1496 1.366 . S
C1495 C1497 1.388 . S
C1496 C1495 1.366 . S
C1496 C1500 1.385 . S
C1497 H1472 0.951 . S
C1497 C1495 1.388 . S
C1497 C1498 1.366 . S
C1498 C1497 1.366 . S
C1498 C1499 1.414 . S
C1498 C1501 1.499 1_565 S
C1499 H1473 0.950 . S
C1499 C1498 1.414 . S
C1499 C1500 1.374 . S
C1500 H1474 0.950 . S
C1500 C1496 1.385 . S
C1500 C1499 1.374 . S
C1501 C1498 1.499 1_545 S
C1501 C1502 1.373 . S
C1501 C1503 1.389 . S
C1502 H1475 0.950 1_545 S
C1502 C1488 1.377 . S
C1502 C1501 1.373 . S
C1503 C1487 1.377 . S
C1503 C1501 1.389 . S
C1503 C1504 1.524 . S
C1504 C1503 1.524 . S
C1504 C1505 1.397 . S
C1504 C1509 1.363 . S
C1505 H1476 0.950 . S
C1505 C1504 1.397 . S
C1505 C1506 1.334 1_655 S
C1506 H1477 0.950 . S
C1506 C1505 1.334 1_455 S
C1506 C1507 1.281 1_455 S
C1507 C1506 1.281 1_655 S
C1507 C1508 1.556 . S
C1507 H1510 0.974 1_655 S
C1508 H1478 0.950 . S
C1508 C1507 1.556 . S
C1508 C1509 1.415 . S
C1509 H1479 0.950 . S
C1509 C1504 1.363 . S
C1509 C1508 1.415 . S
H1510 C1507 0.974 1_455 S
H1511 C1492 0.890 1_556 S
H1512 C1530 0.951 . S
H1513 C1532 0.951 . S
H1514 C1534 0.950 . S
H1515 C1535 0.950 . S
H1516 C1537 0.950 . S
H1517 C1540 0.950 . S
H1518 C1541 0.950 . S
H1519 C1543 0.950 . S
H1520 C1544 0.950 . S
H1521 C1545 0.951 . S
H1522 C1547 0.951 . S
H1523 C1549 0.950 . S
H1524 C1550 0.950 . S
H1525 C1552 0.950 . S
H1526 C1555 0.950 . S
H1527 C1556 0.950 . S
H1528 C1558 0.950 . S
H1529 C1559 0.950 . S
C1530 H1512 0.951 . S
C1530 C1531 1.366 1_455 S
C1530 C1532 1.388 . S
C1531 C1530 1.366 1_655 S
C1531 C1535 1.385 . S
C1532 H1513 0.951 . S
C1532 C1530 1.388 . S
C1532 C1533 1.366 1_455 S
C1533 C1532 1.366 1_655 S
C1533 C1534 1.414 . S
C1533 C1536 1.502 . S
C1534 H1514 0.950 . S
C1534 C1533 1.414 . S
C1534 C1535 1.374 . S
C1535 H1515 0.950 . S
C1535 C1531 1.385 . S
C1535 C1534 1.374 . S
C1536 C1533 1.502 . S
C1536 C1537 1.400 . S
C1536 C1538 1.361 1_655 S
C1537 H1516 0.950 . S
C1537 C1536 1.400 . S
C1537 C1553 1.377 . S
C1538 C1536 1.361 1_455 S
C1538 C1539 1.524 . S
C1538 C1552 1.377 . S
C1539 C1538 1.524 . S
C1539 C1540 1.397 . S
C1539 C1544 1.363 . S
C1540 H1517 0.950 . S
C1540 C1539 1.397 . S
C1540 C1541 1.334 . S
C1541 H1518 0.950 . S
C1541 C1540 1.334 . S
C1541 C1542 1.287 . S
C1542 C1541 1.287 . S
C1542 C1543 1.524 . S
C1542 H1561 0.913 . S
C1543 H1519 0.950 . S
C1543 C1542 1.524 . S
C1543 C1544 1.415 . S
C1544 H1520 0.950 . S
C1544 C1539 1.363 . S
C1544 C1543 1.415 . S
C1545 H1521 0.951 . S
C1545 C1546 1.366 1_655 S
C1545 C1547 1.388 . S
C1546 C1545 1.366 1_455 S
C1546 C1550 1.385 . S
C1547 H1522 0.951 . S
C1547 C1545 1.388 . S
C1547 C1548 1.366 1_655 S
C1548 C1547 1.366 1_455 S
C1548 C1549 1.414 . S
C1548 C1551 1.499 . S
C1549 H1523 0.950 . S
C1549 C1548 1.414 . S
C1549 C1550 1.374 . S
C1550 H1524 0.950 . S
C1550 C1546 1.385 . S
C1550 C1549 1.374 . S
C1551 C1548 1.499 . S
C1551 C1552 1.373 . S
C1551 C1553 1.389 1_455 S
C1552 H1525 0.950 . S
C1552 C1538 1.377 . S
C1552 C1551 1.373 . S
C1553 C1537 1.377 . S
C1553 C1551 1.389 1_655 S
C1553 C1554 1.524 . S
C1554 C1553 1.524 . S
C1554 C1555 1.397 . S
C1554 C1559 1.363 . S
C1555 H1526 0.950 . S
C1555 C1554 1.397 . S
C1555 C1556 1.334 . S
C1556 H1527 0.950 . S
C1556 C1555 1.334 . S
C1556 C1557 1.287 . S
C1557 C1556 1.287 . S
C1557 C1558 1.524 . S
C1557 H1560 0.999 . S
C1558 H1528 0.950 . S
C1558 C1557 1.524 . S
C1558 C1559 1.415 . S
C1559 H1529 0.950 . S
C1559 C1554 1.363 . S
C1559 C1558 1.415 . S
H1560 C1557 0.999 . S
H1561 C1542 0.913 . S
H1562 C1580 0.951 . S
H1563 C1582 0.951 . S
H1564 C1584 0.950 . S
H1565 C1585 0.950 . S
H1566 C1587 0.950 . S
H1567 C1590 0.950 . S
H1568 C1591 0.950 . S
H1569 C1593 0.950 . S
H1570 C1594 0.950 . S
H1571 C1595 0.951 . S
H1572 C1597 0.951 . S
H1573 C1599 0.950 . S
H1574 C1600 0.950 . S
H1575 C1602 0.950 . S
H1576 C1605 0.950 . S
H1577 C1606 0.950 . S
H1578 C1608 0.950 . S
H1579 C1609 0.950 . S
C1580 H1562 0.951 . S
C1580 C1581 1.366 . S
C1580 C1582 1.388 . S
C1581 C1580 1.366 . S
C1581 C1585 1.385 1_455 S
C1582 H1563 0.951 . S
C1582 C1580 1.388 . S
C1582 C1583 1.366 . S
C1583 C1582 1.366 . S
C1583 C1584 1.414 1_455 S
C1583 C1586 1.499 . S
C1584 H1564 0.950 . S
C1584 C1583 1.414 1_655 S
C1584 C1585 1.374 . S
C1585 H1565 0.950 . S
C1585 C1581 1.385 1_655 S
C1585 C1584 1.374 . S
C1586 C1583 1.499 . S
C1586 C1587 1.373 1_455 S
C1586 C1588 1.389 . S
C1587 H1566 0.950 . S
C1587 C1586 1.373 1_655 S
C1587 C1603 1.377 . S
C1588 C1586 1.389 . S
C1588 C1589 1.524 . S
C1588 C1602 1.377 . S
C1589 C1588 1.524 . S
C1589 C1590 1.397 . S
C1589 C1594 1.363 . S
C1590 H1567 0.950 . S
C1590 C1589 1.397 . S
C1590 C1591 1.334 . S
C1591 H1568 0.950 . S
C1591 C1590 1.334 . S
C1591 C1592 1.287 . S
C1592 C1591 1.287 . S
C1592 C1593 1.524 . S
C1592 H1611 0.913 . S
C1593 H1569 0.950 . S
C1593 C1592 1.524 . S
C1593 C1594 1.415 . S
C1594 H1570 0.950 . S
C1594 C1589 1.363 . S
C1594 C1593 1.415 . S
C1595 H1571 0.951 . S
C1595 C1596 1.366 . S
C1595 C1597 1.388 . S
C1596 C1595 1.366 . S
C1596 C1600 1.385 1_655 S
C1597 H1572 0.951 . S
C1597 C1595 1.388 . S
C1597 C1598 1.366 . S
C1598 C1597 1.366 . S
C1598 C1599 1.414 1_655 S
C1598 C1601 1.499 . S
C1599 H1573 0.950 . S
C1599 C1598 1.414 1_455 S
C1599 C1600 1.374 . S
C1600 H1574 0.950 . S
C1600 C1596 1.385 1_455 S
C1600 C1599 1.374 . S
C1601 C1598 1.499 . S
C1601 C1602 1.373 1_655 S
C1601 C1603 1.389 . S
C1602 H1575 0.950 . S
C1602 C1588 1.377 . S
C1602 C1601 1.373 1_455 S
C1603 C1587 1.377 . S
C1603 C1601 1.389 . S
C1603 C1604 1.524 . S
C1604 C1603 1.524 . S
C1604 C1605 1.397 . S
C1604 C1609 1.363 . S
C1605 H1576 0.950 . S
C1605 C1604 1.397 . S
C1605 C1606 1.334 . S
C1606 H1577 0.950 . S
C1606 C1605 1.334 . S
C1606 C1607 1.287 . S
C1607 C1606 1.287 . S
C1607 C1608 1.524 . S
C1607 H1610 0.999 . S
C1608 H1578 0.950 . S
C1608 C1607 1.524 . S
C1608 C1609 1.415 . S
C1609 H1579 0.950 . S
C1609 C1604 1.363 . S
C1609 C1608 1.415 . S
H1610 C1607 0.999 . S
H1611 C1592 0.913 . S
H1612 C1630 0.951 . S
H1613 C1632 0.951 . S
H1614 C1634 0.950 . S
H1615 C1635 0.950 . S
H1616 C1637 0.950 . S
H1617 C1640 0.950 . S
H1618 C1641 0.950 . S
H1619 C1643 0.950 . S
H1620 C1644 0.950 . S
H1621 C1645 0.951 . S
H1622 C1647 0.951 . S
H1623 C1649 0.950 . S
H1624 C1650 0.950 . S
H1625 C1652 0.950 . S
H1626 C1655 0.950 . S
H1627 C1656 0.950 . S
H1628 C1658 0.950 . S
H1629 C1659 0.950 . S
C1630 H1612 0.951 . S
C1630 C1631 1.366 . S
C1630 C1632 1.388 . S
C1631 C1630 1.366 . S
C1631 C1635 1.385 1_565 S
C1632 H1613 0.951 . S
C1632 C1630 1.388 . S
C1632 C1633 1.366 . S
C1633 C1632 1.366 . S
C1633 C1634 1.414 1_565 S
C1633 C1636 1.499 . S
C1634 H1614 0.950 . S
C1634 C1633 1.414 1_545 S
C1634 C1635 1.374 . S
C1635 H1615 0.950 . S
C1635 C1631 1.385 1_545 S
C1635 C1634 1.374 . S
C1636 C1633 1.499 . S
C1636 C1637 1.373 1_565 S
C1636 C1638 1.389 . S
C1637 H1616 0.950 . S
C1637 C1636 1.373 1_545 S
C1637 C1653 1.377 . S
C1638 C1636 1.389 . S
C1638 C1639 1.524 . S
C1638 C1652 1.377 . S
C1639 C1638 1.524 . S
C1639 C1640 1.397 . S
C1639 C1644 1.363 . S
C1640 H1617 0.950 . S
C1640 C1639 1.397 . S
C1640 C1641 1.334 . S
C1641 H1618 0.950 . S
C1641 C1640 1.334 . S
C1641 C1642 1.287 . S
C1642 C1641 1.287 . S
C1642 C1643 1.524 . S
C1642 H1661 0.913 . S
C1643 H1619 0.950 . S
C1643 C1642 1.524 . S
C1643 C1644 1.415 . S
C1644 H1620 0.950 . S
C1644 C1639 1.363 . S
C1644 C1643 1.415 . S
C1645 H1621 0.951 . S
C1645 C1646 1.366 . S
C1645 C1647 1.388 . S
C1646 C1645 1.366 . S
C1646 C1650 1.385 1_545 S
C1647 H1622 0.951 . S
C1647 C1645 1.388 . S
C1647 C1648 1.366 . S
C1648 C1647 1.366 . S
C1648 C1649 1.414 1_545 S
C1648 C1651 1.499 . S
C1649 H1623 0.950 . S
C1649 C1648 1.414 1_565 S
C1649 C1650 1.374 . S
C1650 H1624 0.950 . S
C1650 C1646 1.385 1_565 S
C1650 C1649 1.374 . S
C1651 C1648 1.499 . S
C1651 C1652 1.373 1_545 S
C1651 C1653 1.389 . S
C1652 H1625 0.950 . S
C1652 C1638 1.377 . S
C1652 C1651 1.373 1_565 S
C1653 C1637 1.377 . S
C1653 C1651 1.389 . S
C1653 C1654 1.524 . S
C1654 C1653 1.524 . S
C1654 C1655 1.397 . S
C1654 C1659 1.363 . S
C1655 H1626 0.950 . S
C1655 C1654 1.397 . S
C1655 C1656 1.334 . S
C1656 H1627 0.950 . S
C1656 C1655 1.334 . S
C1656 C1657 1.287 . S
C1657 C1656 1.287 . S
C1657 C1658 1.524 . S
C1657 H1660 0.999 . S
C1658 H1628 0.950 . S
C1658 C1657 1.524 . S
C1658 C1659 1.415 . S
C1659 H1629 0.950 . S
C1659 C1654 1.363 . S
C1659 C1658 1.415 . S
H1660 C1657 0.999 . S
H1661 C1642 0.913 . S
H1662 C1680 0.951 . S
H1663 C1682 0.951 . S
H1664 C1684 0.950 . S
H1665 C1685 0.950 . S
H1666 C1687 0.950 . S
H1667 C1690 0.950 . S
H1668 C1691 0.950 . S
H1669 C1693 0.950 . S
H1670 C1694 0.950 . S
H1671 C1695 0.951 . S
H1672 C1697 0.951 . S
H1673 C1699 0.950 . S
H1674 C1700 0.950 . S
H1675 C1702 0.950 . S
H1676 C1705 0.950 . S
H1677 C1706 0.950 . S
H1678 C1708 0.950 . S
H1679 C1709 0.950 . S
C1680 H1662 0.951 . S
C1680 C1681 1.366 . S
C1680 C1682 1.388 . S
C1681 C1680 1.366 . S
C1681 C1685 1.385 . S
C1682 H1663 0.951 . S
C1682 C1680 1.388 . S
C1682 C1683 1.366 . S
C1683 C1682 1.366 . S
C1683 C1684 1.414 . S
C1683 C1686 1.499 . S
C1684 H1664 0.950 . S
C1684 C1683 1.414 . S
C1684 C1685 1.374 . S
C1685 H1665 0.950 . S
C1685 C1681 1.385 . S
C1685 C1684 1.374 . S
C1686 C1683 1.499 . S
C1686 C1687 1.373 . S
C1686 C1688 1.389 . S
C1687 H1666 0.950 . S
C1687 C1686 1.373 . S
C1687 C1703 1.377 . S
C1688 C1686 1.389 . S
C1688 C1689 1.524 . S
C1688 C1702 1.377 . S
C1689 C1688 1.524 . S
C1689 C1690 1.397 . S
C1689 C1694 1.363 . S
C1690 H1667 0.950 . S
C1690 C1689 1.397 . S
C1690 C1691 1.334 . S
C1691 H1668 0.950 . S
C1691 C1690 1.334 . S
C1691 C1692 1.287 . S
C1692 C1691 1.287 . S
C1692 C1693 1.524 . S
C1692 H1711 0.913 . S
C1693 H1669 0.950 . S
C1693 C1692 1.524 . S
C1693 C1694 1.415 . S
C1694 H1670 0.950 . S
C1694 C1689 1.363 . S
C1694 C1693 1.415 . S
C1695 H1671 0.951 . S
C1695 C1696 1.366 . S
C1695 C1697 1.388 . S
C1696 C1695 1.366 . S
C1696 C1700 1.385 . S
C1697 H1672 0.951 . S
C1697 C1695 1.388 . S
C1697 C1698 1.366 . S
C1698 C1697 1.366 . S
C1698 C1699 1.414 . S
C1698 C1701 1.499 . S
C1699 H1673 0.950 . S
C1699 C1698 1.414 . S
C1699 C1700 1.374 . S
C1700 H1674 0.950 . S
C1700 C1696 1.385 . S
C1700 C1699 1.374 . S
C1701 C1698 1.499 . S
C1701 C1702 1.373 . S
C1701 C1703 1.389 . S
C1702 H1675 0.950 . S
C1702 C1688 1.377 . S
C1702 C1701 1.373 . S
C1703 C1687 1.377 . S
C1703 C1701 1.389 . S
C1703 C1704 1.524 . S
C1704 C1703 1.524 . S
C1704 C1705 1.397 . S
C1704 C1709 1.363 . S
C1705 H1676 0.950 . S
C1705 C1704 1.397 . S
C1705 C1706 1.334 . S
C1706 H1677 0.950 . S
C1706 C1705 1.334 . S
C1706 C1707 1.287 . S
C1707 C1706 1.287 . S
C1707 C1708 1.524 . S
C1707 H1710 0.999 . S
C1708 H1678 0.950 . S
C1708 C1707 1.524 . S
C1708 C1709 1.415 . S
C1709 H1679 0.950 . S
C1709 C1704 1.363 . S
C1709 C1708 1.415 . S
H1710 C1707 0.999 . S
H1711 C1692 0.913 . S
H1712 C1730 0.951 . S
H1713 C1732 0.951 . S
H1714 C1734 0.950 . S
H1715 C1735 0.950 . S
H1716 C1737 0.950 . S
H1717 C1740 0.950 . S
H1718 C1741 0.950 . S
H1719 C1743 0.950 . S
H1720 C1744 0.950 . S
H1721 C1745 0.951 . S
H1722 C1747 0.951 . S
H1723 C1749 0.950 . S
H1724 C1750 0.950 . S
H1725 C1752 0.950 . S
H1726 C1755 0.950 . S
H1727 C1756 0.950 . S
H1728 C1758 0.950 . S
H1729 C1759 0.950 . S
C1730 H1712 0.951 . S
C1730 C1731 1.366 1_556 S
C1730 C1732 1.388 . S
C1731 C1730 1.366 1_554 S
C1731 C1735 1.385 . S
C1732 H1713 0.951 . S
C1732 C1730 1.388 . S
C1732 C1733 1.366 1_556 S
C1733 C1732 1.366 1_554 S
C1733 C1734 1.414 . S
C1733 C1736 1.499 . S
C1734 H1714 0.950 . S
C1734 C1733 1.414 . S
C1734 C1735 1.374 . S
C1735 H1715 0.950 . S
C1735 C1731 1.385 . S
C1735 C1734 1.374 . S
C1736 C1733 1.499 . S
C1736 C1737 1.373 . S
C1736 C1738 1.389 1_554 S
C1737 H1716 0.950 . S
C1737 C1736 1.373 . S
C1737 C1753 1.377 . S
C1738 C1736 1.389 1_556 S
C1738 C1739 1.524 . S
C1738 C1752 1.377 . S
C1739 C1738 1.524 . S
C1739 C1740 1.397 . S
C1739 C1744 1.363 . S
C1740 H1717 0.950 . S
C1740 C1739 1.397 . S
C1740 C1741 1.334 . S
C1741 H1718 0.950 . S
C1741 C1740 1.334 . S
C1741 C1742 1.287 . S
C1742 C1741 1.287 . S
C1742 C1743 1.524 . S
C1742 H1761 0.913 . S
C1743 H1719 0.950 . S
C1743 C1742 1.524 . S
C1743 C1744 1.415 . S
C1744 H1720 0.950 . S
C1744 C1739 1.363 . S
C1744 C1743 1.415 . S
C1745 H1721 0.951 . S
C1745 C1746 1.366 1_554 S
C1745 C1747 1.388 . S
C1746 C1745 1.366 1_556 S
C1746 C1750 1.385 . S
C1747 H1722 0.951 . S
C1747 C1745 1.388 . S
C1747 C1748 1.366 1_554 S
C1748 C1747 1.366 1_556 S
C1748 C1749 1.414 . S
C1748 C1751 1.499 . S
C1749 H1723 0.950 . S
C1749 C1748 1.414 . S
C1749 C1750 1.374 . S
C1750 H1724 0.950 . S
C1750 C1746 1.385 . S
C1750 C1749 1.374 . S
C1751 C1748 1.499 . S
C1751 C1752 1.373 . S
C1751 C1753 1.389 1_556 S
C1752 H1725 0.950 . S
C1752 C1738 1.377 . S
C1752 C1751 1.373 . S
C1753 C1737 1.377 . S
C1753 C1751 1.389 1_554 S
C1753 C1754 1.524 . S
C1754 C1753 1.524 . S
C1754 C1755 1.397 . S
C1754 C1759 1.363 . S
C1755 H1726 0.950 . S
C1755 C1754 1.397 . S
C1755 C1756 1.334 . S
C1756 H1727 0.950 . S
C1756 C1755 1.334 . S
C1756 C1757 1.287 . S
C1757 C1756 1.287 . S
C1757 C1758 1.524 . S
C1757 H1760 0.999 . S
C1758 H1728 0.950 . S
C1758 C1757 1.524 . S
C1758 C1759 1.415 . S
C1759 H1729 0.950 . S
C1759 C1754 1.363 . S
C1759 C1758 1.415 . S
H1760 C1757 0.999 . S
H1761 C1742 0.913 . S
H1762 C1780 0.951 . S
H1763 C1782 0.951 . S
H1764 C1784 0.950 . S
H1765 C1785 0.950 . S
H1766 C1787 0.950 . S
H1767 C1790 0.950 . S
H1768 C1791 0.950 . S
H1769 C1793 0.950 . S
H1770 C1794 0.950 . S
H1771 C1795 0.951 . S
H1772 C1797 0.951 . S
H1773 C1799 0.950 . S
H1774 C1800 0.950 . S
H1775 C1802 0.950 . S
H1776 C1805 0.950 . S
H1777 C1806 0.950 . S
H1778 C1808 0.950 . S
H1779 C1809 0.950 . S
C1780 H1762 0.951 . S
C1780 C1781 1.366 . S
C1780 C1782 1.388 . S
C1781 C1780 1.366 . S
C1781 C1785 1.385 . S
C1782 H1763 0.951 . S
C1782 C1780 1.388 . S
C1782 C1783 1.366 . S
C1783 C1782 1.366 . S
C1783 C1784 1.414 . S
C1783 C1786 1.499 . S
C1784 H1764 0.950 . S
C1784 C1783 1.414 . S
C1784 C1785 1.374 . S
C1785 H1765 0.950 . S
C1785 C1781 1.385 . S
C1785 C1784 1.374 . S
C1786 C1783 1.499 . S
C1786 C1787 1.373 . S
C1786 C1788 1.389 . S
C1787 H1766 0.950 . S
C1787 C1786 1.373 . S
C1787 C1803 1.377 . S
C1788 C1786 1.389 . S
C1788 C1789 1.524 . S
C1788 C1802 1.377 . S
C1789 C1788 1.524 . S
C1789 C1790 1.397 . S
C1789 C1794 1.363 . S
C1790 H1767 0.950 . S
C1790 C1789 1.397 . S
C1790 C1791 1.334 . S
C1791 H1768 0.950 . S
C1791 C1790 1.334 . S
C1791 C1792 1.287 . S
C1792 C1791 1.287 . S
C1792 C1793 1.524 . S
C1792 H1811 0.913 . S
C1793 H1769 0.950 . S
C1793 C1792 1.524 . S
C1793 C1794 1.415 . S
C1794 H1770 0.950 . S
C1794 C1789 1.363 . S
C1794 C1793 1.415 . S
C1795 H1771 0.951 . S
C1795 C1796 1.366 . S
C1795 C1797 1.388 . S
C1796 C1795 1.366 . S
C1796 C1800 1.385 . S
C1797 H1772 0.951 . S
C1797 C1795 1.388 . S
C1797 C1798 1.366 . S
C1798 C1797 1.366 . S
C1798 C1799 1.414 . S
C1798 C1801 1.499 . S
C1799 H1773 0.950 . S
C1799 C1798 1.414 . S
C1799 C1800 1.374 . S
C1800 H1774 0.950 . S
C1800 C1796 1.385 . S
C1800 C1799 1.374 . S
C1801 C1798 1.499 . S
C1801 C1802 1.373 . S
C1801 C1803 1.389 . S
C1802 H1775 0.950 . S
C1802 C1788 1.377 . S
C1802 C1801 1.373 . S
C1803 C1787 1.377 . S
C1803 C1801 1.389 . S
C1803 C1804 1.524 . S
C1804 C1803 1.524 . S
C1804 C1805 1.397 . S
C1804 C1809 1.363 . S
C1805 H1776 0.950 . S
C1805 C1804 1.397 . S
C1805 C1806 1.334 . S
C1806 H1777 0.950 . S
C1806 C1805 1.334 . S
C1806 C1807 1.287 . S
C1807 C1806 1.287 . S
C1807 C1808 1.524 . S
C1807 H1810 0.999 . S
C1808 H1778 0.950 . S
C1808 C1807 1.524 . S
C1808 C1809 1.415 . S
C1809 H1779 0.950 . S
C1809 C1804 1.363 . S
C1809 C1808 1.415 . S
H1810 C1807 0.999 . S
H1811 C1792 0.913 . S
H1812 C1830 0.951 . S
H1813 C1832 0.951 . S
H1814 C1834 0.950 . S
H1815 C1835 0.950 . S
H1816 C1837 0.950 . S
H1817 C1840 0.950 . S
H1818 C1841 0.950 . S
H1819 C1843 0.950 . S
H1820 C1844 0.950 . S
H1821 C1845 0.951 . S
H1822 C1847 0.951 . S
H1823 C1849 0.950 . S
H1824 C1850 0.950 . S
H1825 C1852 0.950 . S
H1826 C1855 0.950 . S
H1827 C1856 0.950 . S
H1828 C1858 0.950 . S
H1829 C1859 0.950 . S
C1830 H1812 0.951 . S
C1830 C1831 1.366 . S
C1830 C1832 1.388 . S
C1831 C1830 1.366 . S
C1831 C1835 1.385 . S
C1832 H1813 0.951 . S
C1832 C1830 1.388 . S
C1832 C1833 1.366 . S
C1833 C1832 1.366 . S
C1833 C1834 1.414 . S
C1833 C1836 1.499 . S
C1834 H1814 0.950 . S
C1834 C1833 1.414 . S
C1834 C1835 1.374 . S
C1835 H1815 0.950 . S
C1835 C1831 1.385 . S
C1835 C1834 1.374 . S
C1836 C1833 1.499 . S
C1836 C1837 1.373 . S
C1836 C1838 1.389 . S
C1837 H1816 0.950 . S
C1837 C1836 1.373 . S
C1837 C1853 1.377 . S
C1838 C1836 1.389 . S
C1838 C1839 1.524 . S
C1838 C1852 1.377 . S
C1839 C1838 1.524 . S
C1839 C1840 1.397 . S
C1839 C1844 1.363 . S
C1840 H1817 0.950 . S
C1840 C1839 1.397 . S
C1840 C1841 1.334 . S
C1841 H1818 0.950 . S
C1841 C1840 1.334 . S
C1841 C1842 1.287 . S
C1842 C1841 1.287 . S
C1842 C1843 1.524 . S
C1842 H1861 0.913 . S
C1843 H1819 0.950 . S
C1843 C1842 1.524 . S
C1843 C1844 1.415 . S
C1844 H1820 0.950 . S
C1844 C1839 1.363 . S
C1844 C1843 1.415 . S
C1845 H1821 0.951 . S
C1845 C1846 1.366 . S
C1845 C1847 1.388 . S
C1846 C1845 1.366 . S
C1846 C1850 1.385 . S
C1847 H1822 0.951 . S
C1847 C1845 1.388 . S
C1847 C1848 1.366 . S
C1848 C1847 1.366 . S
C1848 C1849 1.414 . S
C1848 C1851 1.499 . S
C1849 H1823 0.950 . S
C1849 C1848 1.414 . S
C1849 C1850 1.374 . S
C1850 H1824 0.950 . S
C1850 C1846 1.385 . S
C1850 C1849 1.374 . S
C1851 C1848 1.499 . S
C1851 C1852 1.373 . S
C1851 C1853 1.389 . S
C1852 H1825 0.950 . S
C1852 C1838 1.377 . S
C1852 C1851 1.373 . S
C1853 C1837 1.377 . S
C1853 C1851 1.389 . S
C1853 C1854 1.524 . S
C1854 C1853 1.524 . S
C1854 C1855 1.397 . S
C1854 C1859 1.363 . S
C1855 H1826 0.950 . S
C1855 C1854 1.397 . S
C1855 C1856 1.334 . S
C1856 H1827 0.950 . S
C1856 C1855 1.334 . S
C1856 C1857 1.287 . S
C1857 C1856 1.287 . S
C1857 C1858 1.524 . S
C1857 H1860 0.999 . S
C1858 H1828 0.950 . S
C1858 C1857 1.524 . S
C1858 C1859 1.415 . S
C1859 H1829 0.950 . S
C1859 C1854 1.363 . S
C1859 C1858 1.415 . S
H1860 C1857 0.999 . S
H1861 C1842 0.913 . S
H1862 C1880 0.951 . S
H1863 C1882 0.951 . S
H1864 C1884 0.950 . S
H1865 C1885 0.950 . S
H1866 C1887 0.950 . S
H1867 C1890 0.950 . S
H1868 C1891 0.950 . S
H1869 C1893 0.950 . S
H1870 C1894 0.950 . S
H1871 C1895 0.951 . S
H1872 C1897 0.951 . S
H1873 C1899 0.950 . S
H1874 C1900 0.950 . S
H1875 C1902 0.950 . S
H1876 C1905 0.950 . S
H1877 C1906 0.950 . S
H1878 C1908 0.950 . S
H1879 C1909 0.950 . S
C1880 H1862 0.951 . S
C1880 C1881 1.366 . S
C1880 C1882 1.388 . S
C1881 C1880 1.366 . S
C1881 C1885 1.385 . S
C1882 H1863 0.951 . S
C1882 C1880 1.388 . S
C1882 C1883 1.366 . S
C1883 C1882 1.366 . S
C1883 C1884 1.414 . S
C1883 C1886 1.499 . S
C1884 H1864 0.950 . S
C1884 C1883 1.414 . S
C1884 C1885 1.374 . S
C1885 H1865 0.950 . S
C1885 C1881 1.385 . S
C1885 C1884 1.374 . S
C1886 C1883 1.499 . S
C1886 C1887 1.373 . S
C1886 C1888 1.389 . S
C1887 H1866 0.950 . S
C1887 C1886 1.373 . S
C1887 C1903 1.377 . S
C1888 C1886 1.389 . S
C1888 C1889 1.524 . S
C1888 C1902 1.377 . S
C1889 C1888 1.524 . S
C1889 C1890 1.397 . S
C1889 C1894 1.363 . S
C1890 H1867 0.950 . S
C1890 C1889 1.397 . S
C1890 C1891 1.334 . S
C1891 H1868 0.950 . S
C1891 C1890 1.334 . S
C1891 C1892 1.287 . S
C1892 C1891 1.287 . S
C1892 C1893 1.524 . S
C1892 H1911 0.913 . S
C1893 H1869 0.950 . S
C1893 C1892 1.524 . S
C1893 C1894 1.415 . S
C1894 H1870 0.950 . S
C1894 C1889 1.363 . S
C1894 C1893 1.415 . S
C1895 H1871 0.951 . S
C1895 C1896 1.366 . S
C1895 C1897 1.388 . S
C1896 C1895 1.366 . S
C1896 C1900 1.385 . S
C1897 H1872 0.951 . S
C1897 C1895 1.388 . S
C1897 C1898 1.366 . S
C1898 C1897 1.366 . S
C1898 C1899 1.414 . S
C1898 C1901 1.499 . S
C1899 H1873 0.950 . S
C1899 C1898 1.414 . S
C1899 C1900 1.374 . S
C1900 H1874 0.950 . S
C1900 C1896 1.385 . S
C1900 C1899 1.374 . S
C1901 C1898 1.499 . S
C1901 C1902 1.373 . S
C1901 C1903 1.389 . S
C1902 H1875 0.950 . S
C1902 C1888 1.377 . S
C1902 C1901 1.373 . S
C1903 C1887 1.377 . S
C1903 C1901 1.389 . S
C1903 C1904 1.524 . S
C1904 C1903 1.524 . S
C1904 C1905 1.397 . S
C1904 C1909 1.363 . S
C1905 H1876 0.950 . S
C1905 C1904 1.397 . S
C1905 C1906 1.334 . S
C1906 H1877 0.950 . S
C1906 C1905 1.334 . S
C1906 C1907 1.287 . S
C1907 C1906 1.287 . S
C1907 C1908 1.524 . S
C1907 H1910 0.999 . S
C1908 H1878 0.950 . S
C1908 C1907 1.524 . S
C1908 C1909 1.415 . S
C1909 H1879 0.950 . S
C1909 C1904 1.363 . S
C1909 C1908 1.415 . S
H1910 C1907 0.999 . S
H1911 C1892 0.913 . S
H1912 C1930 0.951 . S
H1913 C1932 0.951 . S
H1914 C1934 0.950 . S
H1915 C1935 0.950 . S
H1916 C1937 0.950 . S
H1917 C1940 0.950 . S
H1918 C1941 0.950 . S
H1919 C1943 0.950 . S
H1920 C1944 0.950 . S
H1921 C1945 0.951 . S
H1922 C1947 0.951 . S
H1923 C1949 0.950 . S
H1924 C1950 0.950 . S
H1925 C1952 0.950 . S
H1926 C1955 0.950 . S
H1927 C1956 0.950 . S
H1928 C1958 0.950 . S
H1929 C1959 0.950 . S
C1930 H1912 0.951 . S
C1930 C1931 1.366 . S
C1930 C1932 1.388 . S
C1931 C1930 1.366 . S
C1931 C1935 1.385 . S
C1932 H1913 0.951 . S
C1932 C1930 1.388 . S
C1932 C1933 1.366 . S
C1933 C1932 1.366 . S
C1933 C1934 1.414 . S
C1933 C1936 1.499 . S
C1934 H1914 0.950 . S
C1934 C1933 1.414 . S
C1934 C1935 1.374 . S
C1935 H1915 0.950 . S
C1935 C1931 1.385 . S
C1935 C1934 1.374 . S
C1936 C1933 1.499 . S
C1936 C1937 1.373 . S
C1936 C1938 1.389 . S
C1937 H1916 0.950 . S
C1937 C1936 1.373 . S
C1937 C1953 1.377 . S
C1938 C1936 1.389 . S
C1938 C1939 1.524 . S
C1938 C1952 1.377 . S
C1939 C1938 1.524 . S
C1939 C1940 1.397 . S
C1939 C1944 1.363 . S
C1940 H1917 0.950 . S
C1940 C1939 1.397 . S
C1940 C1941 1.334 . S
C1941 H1918 0.950 . S
C1941 C1940 1.334 . S
C1941 C1942 1.287 . S
C1942 C1941 1.287 . S
C1942 C1943 1.524 . S
C1942 H1961 0.913 . S
C1943 H1919 0.950 . S
C1943 C1942 1.524 . S
C1943 C1944 1.415 . S
C1944 H1920 0.950 . S
C1944 C1939 1.363 . S
C1944 C1943 1.415 . S
C1945 H1921 0.951 . S
C1945 C1946 1.366 . S
C1945 C1947 1.388 . S
C1946 C1945 1.366 . S
C1946 C1950 1.385 . S
C1947 H1922 0.951 . S
C1947 C1945 1.388 . S
C1947 C1948 1.366 . S
C1948 C1947 1.366 . S
C1948 C1949 1.414 . S
C1948 C1951 1.499 . S
C1949 H1923 0.950 . S
C1949 C1948 1.414 . S
C1949 C1950 1.374 . S
C1950 H1924 0.950 . S
C1950 C1946 1.385 . S
C1950 C1949 1.374 . S
C1951 C1948 1.499 . S
C1951 C1952 1.373 . S
C1951 C1953 1.389 . S
C1952 H1925 0.950 . S
C1952 C1938 1.377 . S
C1952 C1951 1.373 . S
C1953 C1937 1.377 . S
C1953 C1951 1.389 . S
C1953 C1954 1.524 . S
C1954 C1953 1.524 . S
C1954 C1955 1.397 . S
C1954 C1959 1.363 . S
C1955 H1926 0.950 . S
C1955 C1954 1.397 . S
C1955 C1956 1.334 . S
C1956 H1927 0.950 . S
C1956 C1955 1.334 . S
C1956 C1957 1.287 . S
C1957 C1956 1.287 . S
C1957 C1958 1.524 . S
C1957 H1960 0.999 . S
C1958 H1928 0.950 . S
C1958 C1957 1.524 . S
C1958 C1959 1.415 . S
C1959 H1929 0.950 . S
C1959 C1954 1.363 . S
C1959 C1958 1.415 . S
H1960 C1957 0.999 . S
H1961 C1942 0.913 . S
H1962 C1980 0.951 . S
H1963 C1982 0.951 . S
H1964 C1984 0.950 . S
H1965 C1985 0.950 . S
H1966 C1987 0.950 . S
H1967 C1990 0.950 . S
H1968 C1991 0.950 . S
H1969 C1993 0.950 . S
H1970 C1994 0.950 . S
H1971 C1995 0.951 . S
H1972 C1997 0.951 . S
H1973 C1999 0.950 . S
H1974 C2000 0.950 . S
H1975 C2002 0.950 . S
H1976 C2005 0.950 . S
H1977 C2006 0.950 . S
H1978 C2008 0.950 . S
H1979 C2009 0.950 . S
C1980 H1962 0.951 . S
C1980 C1981 1.366 . S
C1980 C1982 1.388 . S
C1981 C1980 1.366 . S
C1981 C1985 1.385 . S
C1982 H1963 0.951 . S
C1982 C1980 1.388 . S
C1982 C1983 1.366 . S
C1983 C1982 1.366 . S
C1983 C1984 1.414 . S
C1983 C1986 1.499 . S
C1984 H1964 0.950 . S
C1984 C1983 1.414 . S
C1984 C1985 1.374 . S
C1985 H1965 0.950 . S
C1985 C1981 1.385 . S
C1985 C1984 1.374 . S
C1986 C1983 1.499 . S
C1986 C1987 1.373 . S
C1986 C1988 1.389 . S
C1987 H1966 0.950 . S
C1987 C1986 1.373 . S
C1987 C2003 1.377 . S
C1988 C1986 1.389 . S
C1988 C1989 1.524 . S
C1988 C2002 1.377 . S
C1989 C1988 1.524 . S
C1989 C1990 1.397 . S
C1989 C1994 1.363 . S
C1990 H1967 0.950 . S
C1990 C1989 1.397 . S
C1990 C1991 1.334 . S
C1991 H1968 0.950 . S
C1991 C1990 1.334 . S
C1991 C1992 1.287 . S
C1992 C1991 1.287 . S
C1992 C1993 1.524 . S
C1992 H2011 0.913 . S
C1993 H1969 0.950 . S
C1993 C1992 1.524 . S
C1993 C1994 1.415 . S
C1994 H1970 0.950 . S
C1994 C1989 1.363 . S
C1994 C1993 1.415 . S
C1995 H1971 0.951 . S
C1995 C1996 1.366 . S
C1995 C1997 1.388 . S
C1996 C1995 1.366 . S
C1996 C2000 1.385 . S
C1997 H1972 0.951 . S
C1997 C1995 1.388 . S
C1997 C1998 1.366 . S
C1998 C1997 1.366 . S
C1998 C1999 1.414 . S
C1998 C2001 1.499 . S
C1999 H1973 0.950 . S
C1999 C1998 1.414 . S
C1999 C2000 1.374 . S
C2000 H1974 0.950 . S
C2000 C1996 1.385 . S
C2000 C1999 1.374 . S
C2001 C1998 1.499 . S
C2001 C2002 1.373 . S
C2001 C2003 1.389 . S
C2002 H1975 0.950 . S
C2002 C1988 1.377 . S
C2002 C2001 1.373 . S
C2003 C1987 1.377 . S
C2003 C2001 1.389 . S
C2003 C2004 1.524 . S
C2004 C2003 1.524 . S
C2004 C2005 1.397 . S
C2004 C2009 1.363 . S
C2005 H1976 0.950 . S
C2005 C2004 1.397 . S
C2005 C2006 1.334 . S
C2006 H1977 0.950 . S
C2006 C2005 1.334 . S
C2006 C2007 1.287 . S
C2007 C2006 1.287 . S
C2007 C2008 1.524 . S
C2007 H2010 0.999 . S
C2008 H1978 0.950 . S
C2008 C2007 1.524 . S
C2008 C2009 1.415 . S
C2009 H1979 0.950 . S
C2009 C2004 1.363 . S
C2009 C2008 1.415 . S
H2010 C2007 0.999 . S
H2011 C1992 0.913 . S
H2012 C2030 0.951 . S
H2013 C2032 0.951 . S
H2014 C2034 0.950 . S
H2015 C2035 0.950 . S
H2016 C2037 0.950 . S
H2017 C2040 0.950 . S
H2018 C2041 0.950 . S
H2019 C2043 0.950 . S
H2020 C2044 0.950 1_565 S
H2021 C2045 0.951 . S
H2022 C2047 0.951 . S
H2023 C2049 0.950 . S
H2024 C2050 0.950 . S
H2025 C2052 0.950 . S
H2026 C2055 0.950 . S
H2027 C2056 0.950 . S
H2028 C2058 0.950 . S
H2029 C2059 0.950 1_545 S
C2030 H2012 0.951 . S
C2030 C2031 1.366 1_565 S
C2030 C2032 1.388 . S
C2031 C2030 1.366 1_545 S
C2031 C2035 1.385 . S
C2032 H2013 0.951 . S
C2032 C2030 1.388 . S
C2032 C2033 1.366 1_565 S
C2033 C2032 1.366 1_545 S
C2033 C2034 1.414 . S
C2033 C2036 1.499 . S
C2034 H2014 0.950 . S
C2034 C2033 1.414 . S
C2034 C2035 1.374 . S
C2035 H2015 0.950 . S
C2035 C2031 1.385 . S
C2035 C2034 1.374 . S
C2036 C2033 1.499 . S
C2036 C2037 1.373 1_545 S
C2036 C2038 1.389 . S
C2037 H2016 0.950 . S
C2037 C2036 1.373 1_565 S
C2037 C2053 1.377 . S
C2038 C2036 1.389 . S
C2038 C2039 1.524 . S
C2038 C2052 1.377 . S
C2039 C2038 1.524 . S
C2039 C2040 1.397 . S
C2039 C2044 1.363 . S
C2040 H2017 0.950 . S
C2040 C2039 1.397 . S
C2040 C2041 1.334 . S
C2041 H2018 0.950 . S
C2041 C2040 1.334 . S
C2041 C2042 1.287 . S
C2042 C2041 1.287 . S
C2042 C2043 1.524 . S
C2042 H2061 0.913 . S
C2043 H2019 0.950 . S
C2043 C2042 1.524 . S
C2043 C2044 1.415 . S
C2044 H2020 0.950 1_545 S
C2044 C2039 1.363 . S
C2044 C2043 1.415 . S
C2045 H2021 0.951 . S
C2045 C2046 1.366 1_545 S
C2045 C2047 1.388 . S
C2046 C2045 1.366 1_565 S
C2046 C2050 1.385 . S
C2047 H2022 0.951 . S
C2047 C2045 1.388 . S
C2047 C2048 1.366 1_545 S
C2048 C2047 1.366 1_565 S
C2048 C2049 1.414 . S
C2048 C2051 1.499 . S
C2049 H2023 0.950 . S
C2049 C2048 1.414 . S
C2049 C2050 1.374 . S
C2050 H2024 0.950 . S
C2050 C2046 1.385 . S
C2050 C2049 1.374 . S
C2051 C2048 1.499 . S
C2051 C2052 1.373 1_565 S
C2051 C2053 1.389 . S
C2052 H2025 0.950 . S
C2052 C2038 1.377 . S
C2052 C2051 1.373 1_545 S
C2053 C2037 1.377 . S
C2053 C2051 1.389 . S
C2053 C2054 1.524 . S
C2054 C2053 1.524 . S
C2054 C2055 1.397 . S
C2054 C2059 1.363 . S
C2055 H2026 0.950 . S
C2055 C2054 1.397 . S
C2055 C2056 1.334 . S
C2056 H2027 0.950 . S
C2056 C2055 1.334 . S
C2056 C2057 1.287 . S
C2057 C2056 1.287 . S
C2057 C2058 1.524 . S
C2057 H2060 0.999 . S
C2058 H2028 0.950 . S
C2058 C2057 1.524 . S
C2058 C2059 1.415 . S
C2059 H2029 0.950 1_565 S
C2059 C2054 1.363 . S
C2059 C2058 1.415 . S
H2060 C2057 0.999 . S
H2061 C2042 0.913 . S
H2062 C2080 0.951 . S
H2063 C2082 0.951 . S
H2064 C2084 0.950 . S
H2065 C2085 0.950 . S
H2066 C2087 0.950 . S
H2067 C2090 0.950 . S
H2068 C2091 0.950 . S
H2069 C2093 0.950 . S
H2070 C2094 0.950 . S
H2071 C2095 0.951 . S
H2072 C2097 0.951 . S
H2073 C2099 0.950 . S
H2074 C2100 0.950 . S
H2075 C2102 0.950 . S
H2076 C2105 0.950 . S
H2077 C2106 0.950 . S
H2078 C2108 0.950 . S
H2079 C2109 0.950 . S
C2080 H2062 0.951 . S
C2080 C2081 1.366 1_554 S
C2080 C2082 1.388 . S
C2081 C2080 1.366 1_556 S
C2081 C2085 1.385 . S
C2082 H2063 0.951 . S
C2082 C2080 1.388 . S
C2082 C2083 1.366 1_554 S
C2083 C2082 1.366 1_556 S
C2083 C2084 1.414 . S
C2083 C2086 1.499 . S
C2084 H2064 0.950 . S
C2084 C2083 1.414 . S
C2084 C2085 1.374 . S
C2085 H2065 0.950 . S
C2085 C2081 1.385 . S
C2085 C2084 1.374 . S
C2086 C2083 1.499 . S
C2086 C2087 1.373 . S
C2086 C2088 1.389 1_556 S
C2087 H2066 0.950 . S
C2087 C2086 1.373 . S
C2087 C2103 1.377 . S
C2088 C2086 1.389 1_554 S
C2088 C2089 1.524 . S
C2088 C2102 1.377 . S
C2089 C2088 1.524 . S
C2089 C2090 1.397 . S
C2089 C2094 1.363 . S
C2090 H2067 0.950 . S
C2090 C2089 1.397 . S
C2090 C2091 1.334 . S
C2091 H2068 0.950 . S
C2091 C2090 1.334 . S
C2091 C2092 1.287 . S
C2092 C2091 1.287 . S
C2092 C2093 1.524 . S
C2092 H2111 0.913 . S
C2093 H2069 0.950 . S
C2093 C2092 1.524 . S
C2093 C2094 1.415 . S
C2094 H2070 0.950 . S
C2094 C2089 1.363 . S
C2094 C2093 1.415 . S
C2095 H2071 0.951 . S
C2095 C2096 1.366 1_556 S
C2095 C2097 1.388 . S
C2096 C2095 1.366 1_554 S
C2096 C2100 1.385 . S
C2097 H2072 0.951 . S
C2097 C2095 1.388 . S
C2097 C2098 1.366 1_556 S
C2098 C2097 1.366 1_554 S
C2098 C2099 1.414 . S
C2098 C2101 1.499 . S
C2099 H2073 0.950 . S
C2099 C2098 1.414 . S
C2099 C2100 1.374 . S
C2100 H2074 0.950 . S
C2100 C2096 1.385 . S
C2100 C2099 1.374 . S
C2101 C2098 1.499 . S
C2101 C2102 1.373 . S
C2101 C2103 1.389 1_554 S
C2102 H2075 0.950 . S
C2102 C2088 1.377 . S
C2102 C2101 1.373 . S
C2103 C2087 1.377 . S
C2103 C2101 1.389 1_556 S
C2103 C2104 1.524 . S
C2104 C2103 1.524 . S
C2104 C2105 1.397 . S
C2104 C2109 1.363 . S
C2105 H2076 0.950 . S
C2105 C2104 1.397 . S
C2105 C2106 1.334 . S
C2106 H2077 0.950 . S
C2106 C2105 1.334 . S
C2106 C2107 1.287 . S
C2107 C2106 1.287 . S
C2107 C2108 1.524 . S
C2107 H2110 0.999 . S
C2108 H2078 0.950 . S
C2108 C2107 1.524 . S
C2108 C2109 1.415 . S
C2109 H2079 0.950 . S
C2109 C2104 1.363 . S
C2109 C2108 1.415 . S
H2110 C2107 0.999 . S
H2111 C2092 0.913 . S
H2112 C2130 0.951 . S
H2113 C2132 0.951 . S
H2114 C2134 0.950 . S
H2115 C2135 0.950 . S
H2116 C2137 0.950 . S
H2117 C2140 0.950 . S
H2118 C2141 0.950 . S
H2119 C2143 0.950 . S
H2120 C2144 0.954 . S
H2121 C2145 0.951 . S
H2122 C2147 0.951 . S
H2123 C2149 0.950 . S
H2124 C2150 0.950 . S
H2125 C2152 0.950 . S
H2126 C2155 0.950 . S
H2127 C2156 0.950 . S
H2128 C2158 0.950 . S
H2129 C2159 0.950 . S
C2130 H2112 0.951 . S
C2130 C2131 1.366 1_655 S
C2130 C2132 1.388 . S
C2131 C2130 1.366 1_455 S
C2131 C2135 1.385 . S
C2132 H2113 0.951 . S
C2132 C2130 1.388 . S
C2132 C2133 1.366 1_655 S
C2133 C2132 1.366 1_455 S
C2133 C2134 1.414 . S
C2133 C2136 1.499 . S
C2134 H2114 0.950 . S
C2134 C2133 1.414 . S
C2134 C2135 1.374 . S
C2135 H2115 0.950 . S
C2135 C2131 1.385 . S
C2135 C2134 1.374 . S
C2136 C2133 1.499 . S
C2136 C2137 1.373 . S
C2136 C2138 1.425 1_455 S
C2137 H2116 0.950 . S
C2137 C2136 1.373 . S
C2137 C2153 1.377 . S
C2138 C2136 1.425 1_655 S
C2138 C2139 1.518 1_565 S
C2138 C2152 1.346 1_565 S
C2139 C2138 1.518 1_545 S
C2139 C2140 1.397 . S
C2139 C2144 1.363 . S
C2140 H2117 0.950 . S
C2140 C2139 1.397 . S
C2140 C2141 1.334 . S
C2141 H2118 0.950 . S
C2141 C2140 1.334 . S
C2141 C2142 1.287 . S
C2142 C2141 1.287 . S
C2142 C2143 1.524 . S
C2142 H2161 0.913 . S
C2143 H2119 0.950 . S
C2143 C2142 1.524 . S
C2143 C2144 1.415 . S
C2144 H2120 0.954 . S
C2144 C2139 1.363 . S
C2144 C2143 1.415 . S
C2145 H2121 0.951 . S
C2145 C2146 1.366 . S
C2145 C2147 1.388 . S
C2146 C2145 1.366 . S
C2146 C2150 1.385 1_455 S
C2147 H2122 0.951 . S
C2147 C2145 1.388 . S
C2147 C2148 1.366 . S
C2148 C2147 1.366 . S
C2148 C2149 1.414 1_455 S
C2148 C2151 1.499 . S
C2149 H2123 0.950 . S
C2149 C2148 1.414 1_655 S
C2149 C2150 1.374 . S
C2150 H2124 0.950 . S
C2150 C2146 1.385 1_655 S
C2150 C2149 1.374 . S
C2151 C2148 1.499 . S
C2151 C2152 1.373 1_455 S
C2151 C2153 1.389 1_545 S
C2152 H2125 0.950 . S
C2152 C2138 1.346 1_545 S
C2152 C2151 1.373 1_655 S
C2153 C2137 1.377 . S
C2153 C2151 1.389 1_565 S
C2153 C2154 1.524 . S
C2154 C2153 1.524 . S
C2154 C2155 1.397 . S
C2154 C2159 1.363 . S
C2155 H2126 0.950 . S
C2155 C2154 1.397 . S
C2155 C2156 1.334 . S
C2156 H2127 0.950 . S
C2156 C2155 1.334 . S
C2156 C2157 1.287 . S
C2157 C2156 1.287 . S
C2157 C2158 1.524 . S
C2157 H2160 0.999 . S
C2158 H2128 0.950 . S
C2158 C2157 1.524 . S
C2158 C2159 1.415 . S
C2159 H2129 0.950 . S
C2159 C2154 1.363 . S
C2159 C2158 1.415 . S
H2160 C2157 0.999 . S
H2161 C2142 0.913 . S
H2162 C2180 0.951 . S
H2163 C2182 0.951 . S
H2164 C2184 0.950 . S
H2165 C2185 0.950 . S
H2166 C2187 0.950 . S
H2167 C2190 0.950 . S
H2168 C2191 0.950 1_655 S
H2169 C2193 0.950 . S
H2170 C2194 0.950 . S
H2171 C2195 0.951 . S
H2172 C2197 0.951 . S
H2173 C2199 0.950 . S
H2174 C2200 0.950 . S
H2175 C2202 0.950 . S
H2176 C2205 0.989 . S
H2177 C2206 0.950 . S
H2178 C2208 0.950 . S
H2179 C2209 0.950 . S
C2180 H2162 0.951 . S
C2180 C2181 1.366 1_455 S
C2180 C2182 1.388 . S
C2181 C2180 1.366 1_655 S
C2181 C2185 1.385 . S
C2182 H2163 0.951 . S
C2182 C2180 1.388 . S
C2182 C2183 1.366 1_455 S
C2183 C2182 1.366 1_655 S
C2183 C2184 1.414 . S
C2183 C2186 1.499 . S
C2184 H2164 0.950 . S
C2184 C2183 1.414 . S
C2184 C2185 1.374 . S
C2185 H2165 0.950 . S
C2185 C2181 1.385 . S
C2185 C2184 1.374 . S
C2186 C2183 1.499 . S
C2186 C2187 1.373 . S
C2186 C2188 1.377 1_655 S
C2187 H2166 0.950 . S
C2187 C2186 1.373 . S
C2187 C2203 1.377 . S
C2188 C2186 1.377 1_455 S
C2188 C2189 1.536 . S
C2188 C2202 1.378 . S
C2189 C2188 1.536 . S
C2189 C2190 1.397 1_455 S
C2189 C2194 1.363 . S
C2190 H2167 0.950 . S
C2190 C2189 1.397 1_655 S
C2190 C2191 1.334 1_655 S
C2191 H2168 0.950 1_455 S
C2191 C2190 1.334 1_455 S
C2191 C2192 1.287 . S
C2192 C2191 1.287 . S
C2192 C2193 1.524 . S
C2192 H2211 0.913 . S
C2193 H2169 0.950 . S
C2193 C2192 1.524 . S
C2193 C2194 1.415 . S
C2194 H2170 0.950 . S
C2194 C2189 1.363 . S
C2194 C2193 1.415 . S
C2195 H2171 0.951 . S
C2195 C2196 1.366 . S
C2195 C2197 1.388 . S
C2196 C2195 1.366 . S
C2196 C2200 1.385 1_655 S
C2197 H2172 0.951 . S
C2197 C2195 1.388 . S
C2197 C2198 1.366 . S
C2198 C2197 1.366 . S
C2198 C2199 1.414 1_655 S
C2198 C2201 1.499 . S
C2199 H2173 0.950 . S
C2199 C2198 1.414 1_455 S
C2199 C2200 1.374 . S
C2200 H2174 0.950 . S
C2200 C2196 1.385 1_455 S
C2200 C2199 1.374 . S
C2201 C2198 1.499 . S
C2201 C2202 1.373 1_655 S
C2201 C2203 1.389 . S
C2202 H2175 0.950 . S
C2202 C2188 1.378 . S
C2202 C2201 1.373 1_455 S
C2203 C2187 1.377 . S
C2203 C2201 1.389 . S
C2203 C2204 1.524 . S
C2204 C2203 1.524 . S
C2204 C2205 1.397 . S
C2204 C2209 1.363 . S
C2205 H2176 0.989 . S
C2205 C2204 1.397 . S
C2205 C2206 1.334 . S
C2206 H2177 0.950 . S
C2206 C2205 1.334 . S
C2206 C2207 1.287 . S
C2207 C2206 1.287 . S
C2207 C2208 1.524 . S
C2207 H2210 0.999 . S
C2208 H2178 0.950 . S
C2208 C2207 1.524 . S
C2208 C2209 1.415 . S
C2209 H2179 0.950 . S
C2209 C2204 1.363 . S
C2209 C2208 1.415 . S
H2210 C2207 0.999 . S
H2211 C2192 0.913 . S
H2212 C2230 0.951 . S
H2213 C2232 0.951 . S
H2214 C2234 0.950 . S
H2215 C2235 0.950 . S
H2216 C2237 0.952 . S
H2217 C2240 0.950 . S
H2218 C2241 0.950 . S
H2219 C2243 0.950 . S
H2220 C2244 0.950 . S
H2221 C2245 0.951 . S
H2222 C2247 0.951 . S
H2223 C2249 0.950 . S
H2224 C2250 0.950 . S
H2225 C2252 0.950 . S
H2226 C2255 0.950 . S
H2227 C2256 0.950 . S
H2228 C2258 0.950 . S
H2229 C2259 0.950 . S
C2230 H2212 0.951 . S
C2230 C2231 1.366 . S
C2230 C2232 1.388 . S
C2231 C2230 1.366 . S
C2231 C2235 1.385 . S
C2232 H2213 0.951 . S
C2232 C2230 1.388 . S
C2232 C2233 1.366 . S
C2233 C2232 1.366 . S
C2233 C2234 1.414 . S
C2233 C2236 1.499 . S
C2234 H2214 0.950 . S
C2234 C2233 1.414 . S
C2234 C2235 1.374 . S
C2235 H2215 0.950 . S
C2235 C2231 1.385 . S
C2235 C2234 1.374 . S
C2236 C2233 1.499 . S
C2236 C2237 1.373 . S
C2236 C2238 1.389 1_545 S
C2237 H2216 0.952 . S
C2237 C2236 1.373 . S
C2237 C2253 1.377 1_556 S
C2238 C2236 1.389 1_565 S
C2238 C2239 1.524 . S
C2238 C2252 1.377 . S
C2239 C2238 1.524 . S
C2239 C2240 1.397 . S
C2239 C2244 1.363 . S
C2240 H2217 0.950 . S
C2240 C2239 1.397 . S
C2240 C2241 1.334 . S
C2241 H2218 0.950 . S
C2241 C2240 1.334 . S
C2241 C2242 1.287 . S
C2242 C2241 1.287 . S
C2242 C2243 1.524 . S
C2242 H2261 0.913 . S
C2243 H2219 0.950 . S
C2243 C2242 1.524 . S
C2243 C2244 1.415 . S
C2244 H2220 0.950 . S
C2244 C2239 1.363 . S
C2244 C2243 1.415 . S
C2245 H2221 0.951 . S
C2245 C2246 1.366 . S
C2245 C2247 1.388 . S
C2246 C2245 1.366 . S
C2246 C2250 1.385 . S
C2247 H2222 0.951 . S
C2247 C2245 1.388 . S
C2247 C2248 1.366 . S
C2248 C2247 1.366 . S
C2248 C2249 1.414 . S
C2248 C2251 1.499 . S
C2249 H2223 0.950 . S
C2249 C2248 1.414 . S
C2249 C2250 1.374 . S
C2250 H2224 0.950 . S
C2250 C2246 1.385 . S
C2250 C2249 1.374 . S
C2251 C2248 1.499 . S
C2251 C2252 1.373 1_544 S
C2251 C2253 1.389 . S
C2252 H2225 0.950 . S
C2252 C2238 1.377 . S
C2252 C2251 1.373 1_566 S
C2253 C2237 1.377 1_554 S
C2253 C2251 1.389 . S
C2253 C2254 1.524 . S
C2254 C2253 1.524 . S
C2254 C2255 1.397 . S
C2254 C2259 1.363 . S
C2255 H2226 0.950 . S
C2255 C2254 1.397 . S
C2255 C2256 1.334 . S
C2256 H2227 0.950 . S
C2256 C2255 1.334 . S
C2256 C2257 1.287 . S
C2257 C2256 1.287 . S
C2257 C2258 1.524 . S
C2257 H2260 0.999 . S
C2258 H2228 0.950 . S
C2258 C2257 1.524 . S
C2258 C2259 1.415 . S
C2259 H2229 0.950 . S
C2259 C2254 1.363 . S
C2259 C2258 1.415 . S
H2260 C2257 0.999 . S
H2261 C2242 0.913 . S
H2262 C2280 0.951 . S
H2263 C2282 0.951 . S
H2264 C2284 0.950 . S
H2265 C2285 0.950 . S
H2266 C2287 0.950 . S
H2267 C2290 0.950 . S
H2268 C2291 0.950 . S
H2269 C2293 0.950 . S
H2270 C2294 0.950 . S
H2271 C2295 0.951 . S
H2272 C2297 0.951 . S
H2273 C2299 0.950 . S
H2274 C2300 0.950 . S
H2275 C2302 0.950 . S
H2276 C2305 0.950 . S
H2277 C2306 0.950 . S
H2278 C2308 0.950 . S
H2279 C2309 0.950 . S
C2280 H2262 0.951 . S
C2280 C2281 1.366 . S
C2280 C2282 1.388 . S
C2281 C2280 1.366 . S
C2281 C2285 1.385 . S
C2282 H2263 0.951 . S
C2282 C2280 1.388 . S
C2282 C2283 1.366 . S
C2283 C2282 1.366 . S
C2283 C2284 1.414 . S
C2283 C2286 1.499 . S
C2284 H2264 0.950 . S
C2284 C2283 1.414 . S
C2284 C2285 1.374 . S
C2285 H2265 0.950 . S
C2285 C2281 1.385 . S
C2285 C2284 1.374 . S
C2286 C2283 1.499 . S
C2286 C2287 1.373 1_554 S
C2286 C2288 1.389 . S
C2287 H2266 0.950 . S
C2287 C2286 1.373 1_556 S
C2287 C2303 1.377 . S
C2288 C2286 1.389 . S
C2288 C2289 1.524 . S
C2288 C2302 1.377 . S
C2289 C2288 1.524 . S
C2289 C2290 1.397 . S
C2289 C2294 1.363 . S
C2290 H2267 0.950 . S
C2290 C2289 1.397 . S
C2290 C2291 1.334 . S
C2291 H2268 0.950 . S
C2291 C2290 1.334 . S
C2291 C2292 1.287 . S
C2292 C2291 1.287 . S
C2292 C2293 1.524 . S
C2292 H2311 0.913 . S
C2293 H2269 0.950 . S
C2293 C2292 1.524 . S
C2293 C2294 1.415 . S
C2294 H2270 0.950 . S
C2294 C2289 1.363 . S
C2294 C2293 1.415 . S
C2295 H2271 0.951 . S
C2295 C2296 1.366 . S
C2295 C2297 1.388 . S
C2296 C2295 1.366 . S
C2296 C2300 1.385 . S
C2297 H2272 0.951 . S
C2297 C2295 1.388 . S
C2297 C2298 1.366 . S
C2298 C2297 1.366 . S
C2298 C2299 1.414 . S
C2298 C2301 1.499 . S
C2299 H2273 0.950 . S
C2299 C2298 1.414 . S
C2299 C2300 1.374 . S
C2300 H2274 0.950 . S
C2300 C2296 1.385 . S
C2300 C2299 1.374 . S
C2301 C2298 1.499 . S
C2301 C2302 1.373 1_556 S
C2301 C2303 1.389 . S
C2302 H2275 0.950 . S
C2302 C2288 1.377 . S
C2302 C2301 1.373 1_554 S
C2303 C2287 1.377 . S
C2303 C2301 1.389 . S
C2303 C2304 1.524 . S
C2304 C2303 1.524 . S
C2304 C2305 1.397 . S
C2304 C2309 1.363 . S
C2305 H2276 0.950 . S
C2305 C2304 1.397 . S
C2305 C2306 1.334 . S
C2306 H2277 0.950 . S
C2306 C2305 1.334 . S
C2306 C2307 1.287 . S
C2307 C2306 1.287 . S
C2307 C2308 1.524 . S
C2307 H2310 0.999 . S
C2308 H2278 0.950 . S
C2308 C2307 1.524 . S
C2308 C2309 1.415 . S
C2309 H2279 0.950 . S
C2309 C2304 1.363 . S
C2309 C2308 1.415 . S
H2310 C2307 0.999 . S
H2311 C2292 0.913 . S
H2312 C2330 0.951 . S
H2313 C2332 0.951 . S
H2314 C2334 0.950 . S
H2315 C2335 0.950 . S
H2316 C2337 0.950 . S
H2317 C2340 0.950 . S
H2318 C2341 0.950 . S
H2319 C2343 0.950 . S
H2320 C2344 0.950 . S
H2321 C2345 0.951 . S
H2322 C2347 0.951 . S
H2323 C2349 0.950 . S
H2324 C2350 0.950 . S
H2325 C2352 0.950 . S
H2326 C2355 0.950 . S
H2327 C2356 0.950 . S
H2328 C2358 0.950 . S
H2329 C2359 0.950 . S
C2330 H2312 0.951 . S
C2330 C2331 1.366 . S
C2330 C2332 1.388 . S
C2331 C2330 1.366 . S
C2331 C2335 1.385 . S
C2332 H2313 0.951 . S
C2332 C2330 1.388 . S
C2332 C2333 1.366 . S
C2333 C2332 1.366 . S
C2333 C2334 1.414 . S
C2333 C2336 1.499 . S
C2334 H2314 0.950 . S
C2334 C2333 1.414 . S
C2334 C2335 1.374 . S
C2335 H2315 0.950 . S
C2335 C2331 1.385 . S
C2335 C2334 1.374 . S
C2336 C2333 1.499 . S
C2336 C2337 1.373 . S
C2336 C2338 1.389 1_565 S
C2337 H2316 0.950 . S
C2337 C2336 1.373 . S
C2337 C2353 1.377 . S
C2338 C2336 1.389 1_545 S
C2338 C2339 1.524 . S
C2338 C2352 1.377 . S
C2339 C2338 1.524 . S
C2339 C2340 1.397 . S
C2339 C2344 1.363 . S
C2340 H2317 0.950 . S
C2340 C2339 1.397 . S
C2340 C2341 1.334 . S
C2341 H2318 0.950 . S
C2341 C2340 1.334 . S
C2341 C2342 1.287 . S
C2342 C2341 1.287 . S
C2342 C2343 1.524 . S
C2342 H2361 0.913 . S
C2343 H2319 0.950 . S
C2343 C2342 1.524 . S
C2343 C2344 1.415 . S
C2344 H2320 0.950 . S
C2344 C2339 1.363 . S
C2344 C2343 1.415 . S
C2345 H2321 0.951 . S
C2345 C2346 1.366 . S
C2345 C2347 1.388 . S
C2346 C2345 1.366 . S
C2346 C2350 1.385 . S
C2347 H2322 0.951 . S
C2347 C2345 1.388 . S
C2347 C2348 1.366 . S
C2348 C2347 1.366 . S
C2348 C2349 1.414 . S
C2348 C2351 1.499 . S
C2349 H2323 0.950 . S
C2349 C2348 1.414 . S
C2349 C2350 1.374 . S
C2350 H2324 0.950 . S
C2350 C2346 1.385 . S
C2350 C2349 1.374 . S
C2351 C2348 1.499 . S
C2351 C2352 1.373 1_565 S
C2351 C2353 1.389 . S
C2352 H2325 0.950 . S
C2352 C2338 1.377 . S
C2352 C2351 1.373 1_545 S
C2353 C2337 1.377 . S
C2353 C2351 1.389 . S
C2353 C2354 1.524 . S
C2354 C2353 1.524 . S
C2354 C2355 1.397 . S
C2354 C2359 1.363 . S
C2355 H2326 0.950 . S
C2355 C2354 1.397 . S
C2355 C2356 1.334 . S
C2356 H2327 0.950 . S
C2356 C2355 1.334 . S
C2356 C2357 1.287 . S
C2357 C2356 1.287 . S
C2357 C2358 1.524 . S
C2357 H2360 0.999 . S
C2358 H2328 0.950 . S
C2358 C2357 1.524 . S
C2358 C2359 1.415 . S
C2359 H2329 0.950 . S
C2359 C2354 1.363 . S
C2359 C2358 1.415 . S
H2360 C2357 0.999 . S
H2361 C2342 0.913 . S
H2362 C2380 0.951 . S
H2363 C2382 0.951 . S
H2364 C2384 0.950 . S
H2365 C2385 0.950 . S
H2366 C2387 0.950 . S
H2367 C2390 0.950 . S
H2368 C2391 0.950 . S
H2369 C2393 0.950 . S
H2370 C2394 0.950 . S
H2371 C2395 0.951 . S
H2372 C2397 0.951 . S
H2373 C2399 0.950 . S
H2374 C2400 0.950 . S
H2375 C2402 0.950 . S
H2376 C2405 0.950 . S
H2377 C2406 0.950 . S
H2378 C2408 0.950 . S
H2379 C2409 0.950 . S
C2380 H2362 0.951 . S
C2380 C2381 1.366 . S
C2380 C2382 1.388 . S
C2381 C2380 1.366 . S
C2381 C2385 1.385 . S
C2382 H2363 0.951 . S
C2382 C2380 1.388 . S
C2382 C2383 1.366 . S
C2383 C2382 1.366 . S
C2383 C2384 1.414 . S
C2383 C2386 1.499 . S
C2384 H2364 0.950 . S
C2384 C2383 1.414 . S
C2384 C2385 1.374 . S
C2385 H2365 0.950 . S
C2385 C2381 1.385 . S
C2385 C2384 1.374 . S
C2386 C2383 1.499 . S
C2386 C2387 1.373 . S
C2386 C2388 1.389 . S
C2387 H2366 0.950 . S
C2387 C2386 1.373 . S
C2387 C2403 1.377 . S
C2388 C2386 1.389 . S
C2388 C2389 1.524 . S
C2388 C2402 1.377 . S
C2389 C2388 1.524 . S
C2389 C2390 1.397 . S
C2389 C2394 1.363 . S
C2390 H2367 0.950 . S
C2390 C2389 1.397 . S
C2390 C2391 1.334 . S
C2391 H2368 0.950 . S
C2391 C2390 1.334 . S
C2391 C2392 1.287 . S
C2392 C2391 1.287 . S
C2392 C2393 1.524 . S
C2392 H2411 0.913 . S
C2393 H2369 0.950 . S
C2393 C2392 1.524 . S
C2393 C2394 1.415 . S
C2394 H2370 0.950 . S
C2394 C2389 1.363 . S
C2394 C2393 1.415 . S
C2395 H2371 0.951 . S
C2395 C2396 1.366 . S
C2395 C2397 1.388 . S
C2396 C2395 1.366 . S
C2396 C2400 1.385 . S
C2397 H2372 0.951 . S
C2397 C2395 1.388 . S
C2397 C2398 1.366 . S
C2398 C2397 1.366 . S
C2398 C2399 1.414 . S
C2398 C2401 1.499 . S
C2399 H2373 0.950 . S
C2399 C2398 1.414 . S
C2399 C2400 1.374 . S
C2400 H2374 0.950 . S
C2400 C2396 1.385 . S
C2400 C2399 1.374 . S
C2401 C2398 1.499 . S
C2401 C2402 1.373 . S
C2401 C2403 1.389 . S
C2402 H2375 0.950 . S
C2402 C2388 1.377 . S
C2402 C2401 1.373 . S
C2403 C2387 1.377 . S
C2403 C2401 1.389 . S
C2403 C2404 1.524 . S
C2404 C2403 1.524 . S
C2404 C2405 1.397 . S
C2404 C2409 1.363 . S
C2405 H2376 0.950 . S
C2405 C2404 1.397 . S
C2405 C2406 1.334 . S
C2406 H2377 0.950 . S
C2406 C2405 1.334 . S
C2406 C2407 1.287 . S
C2407 C2406 1.287 . S
C2407 C2408 1.524 . S
C2407 H2410 0.999 . S
C2408 H2378 0.950 . S
C2408 C2407 1.524 . S
C2408 C2409 1.415 . S
C2409 H2379 0.950 . S
C2409 C2404 1.363 . S
C2409 C2408 1.415 . S
H2410 C2407 0.999 . S
H2411 C2392 0.913 . S
H2412 C2430 0.967 . S
H2413 C2432 0.951 . S
H2414 C2434 0.950 . S
H2415 C2435 0.950 . S
H2416 C2437 0.950 . S
H2417 C2440 0.950 . S
H2418 C2441 0.950 . S
H2419 C2443 0.950 . S
H2420 C2444 0.950 . S
H2421 C2445 0.951 . S
H2422 C2447 0.951 . S
H2423 C2449 0.944 1_556 S
H2424 C2450 0.945 1_556 S
H2425 C2452 0.950 . S
H2426 C2455 0.950 . S
H2427 C2456 0.950 . S
H2428 C2458 0.950 . S
H2429 C2459 0.950 . S
C2430 H2412 0.967 . S
C2430 C2431 1.351 1_556 S
C2430 C2432 1.389 . S
C2431 C2430 1.351 1_554 S
C2431 C2435 1.385 . S
C2432 H2413 0.951 . S
C2432 C2430 1.389 . S
C2432 C2433 1.366 1_556 S
C2433 C2432 1.366 1_554 S
C2433 C2434 1.414 . S
C2433 C2436 1.499 . S
C2434 H2414 0.950 . S
C2434 C2433 1.414 . S
C2434 C2435 1.374 . S
C2435 H2415 0.950 . S
C2435 C2431 1.385 . S
C2435 C2434 1.374 . S
C2436 C2433 1.499 . S
C2436 C2437 1.373 . S
C2436 C2438 1.389 1_554 S
C2437 H2416 0.950 . S
C2437 C2436 1.373 . S
C2437 C2453 1.377 1_455 S
C2438 C2436 1.389 1_556 S
C2438 C2439 1.524 . S
C2438 C2452 1.377 1_455 S
C2439 C2438 1.524 . S
C2439 C2440 1.397 . S
C2439 C2444 1.363 . S
C2440 H2417 0.950 . S
C2440 C2439 1.397 . S
C2440 C2441 1.334 . S
C2441 H2418 0.950 . S
C2441 C2440 1.334 . S
C2441 C2442 1.287 . S
C2442 C2441 1.287 . S
C2442 C2443 1.524 . S
C2442 H2461 0.913 . S
C2443 H2419 0.950 . S
C2443 C2442 1.524 . S
C2443 C2444 1.415 . S
C2444 H2420 0.950 . S
C2444 C2439 1.363 . S
C2444 C2443 1.415 . S
C2445 H2421 0.951 . S
C2445 C2446 1.366 . S
C2445 C2447 1.388 . S
C2446 C2445 1.366 . S
C2446 C2450 1.390 . S
C2447 H2422 0.951 . S
C2447 C2445 1.388 . S
C2447 C2448 1.366 . S
C2448 C2447 1.366 . S
C2448 C2449 1.420 . S
C2448 C2451 1.499 . S
C2449 H2423 0.944 1_554 S
C2449 C2448 1.420 . S
C2449 C2450 1.374 . S
C2450 H2424 0.945 1_554 S
C2450 C2446 1.390 . S
C2450 C2449 1.374 . S
C2451 C2448 1.499 . S
C2451 C2452 1.373 1_554 S
C2451 C2453 1.389 . S
C2452 H2425 0.950 . S
C2452 C2438 1.377 1_655 S
C2452 C2451 1.373 1_556 S
C2453 C2437 1.377 1_655 S
C2453 C2451 1.389 . S
C2453 C2454 1.524 . S
C2454 C2453 1.524 . S
C2454 C2455 1.397 . S
C2454 C2459 1.363 . S
C2455 H2426 0.950 . S
C2455 C2454 1.397 . S
C2455 C2456 1.334 . S
C2456 H2427 0.950 . S
C2456 C2455 1.334 . S
C2456 C2457 1.287 . S
C2457 C2456 1.287 . S
C2457 C2458 1.524 . S
C2457 H2460 0.999 . S
C2458 H2428 0.950 . S
C2458 C2457 1.524 . S
C2458 C2459 1.415 . S
C2459 H2429 0.950 . S
C2459 C2454 1.363 . S
C2459 C2458 1.415 . S
H2460 C2457 0.999 . S
H2461 C2442 0.913 . S
H2462 C2480 0.951 . S
H2463 C2482 0.951 . S
H2464 C2484 0.950 . S
H2465 C2485 0.950 . S
H2466 C2487 0.950 . S
H2467 C2490 0.950 . S
H2468 C2491 0.950 . S
H2469 C2493 0.950 . S
H2470 C2494 0.950 . S
H2471 C2495 0.951 . S
H2472 C2497 0.951 . S
H2473 C2499 0.950 . S
H2474 C2500 0.950 . S
H2475 C2502 0.950 . S
H2476 C2505 0.950 . S
H2477 C2506 0.950 . S
H2478 C2508 0.950 . S
H2479 C2509 0.950 . S
C2480 H2462 0.951 . S
C2480 C2481 1.366 . S
C2480 C2482 1.388 . S
C2481 C2480 1.366 . S
C2481 C2485 1.385 . S
C2482 H2463 0.951 . S
C2482 C2480 1.388 . S
C2482 C2483 1.366 . S
C2483 C2482 1.366 . S
C2483 C2484 1.414 . S
C2483 C2486 1.499 . S
C2484 H2464 0.950 . S
C2484 C2483 1.414 . S
C2484 C2485 1.374 . S
C2485 H2465 0.950 . S
C2485 C2481 1.385 . S
C2485 C2484 1.374 . S
C2486 C2483 1.499 . S
C2486 C2487 1.373 1_455 S
C2486 C2488 1.389 . S
C2487 H2466 0.950 . S
C2487 C2486 1.373 1_655 S
C2487 C2503 1.377 . S
C2488 C2486 1.389 . S
C2488 C2489 1.524 . S
C2488 C2502 1.377 1_455 S
C2489 C2488 1.524 . S
C2489 C2490 1.397 . S
C2489 C2494 1.363 . S
C2490 H2467 0.950 . S
C2490 C2489 1.397 . S
C2490 C2491 1.334 . S
C2491 H2468 0.950 . S
C2491 C2490 1.334 . S
C2491 C2492 1.287 . S
C2492 C2491 1.287 . S
C2492 C2493 1.524 . S
C2492 H2511 0.913 . S
C2493 H2469 0.950 . S
C2493 C2492 1.524 . S
C2493 C2494 1.415 . S
C2494 H2470 0.950 . S
C2494 C2489 1.363 . S
C2494 C2493 1.415 . S
C2495 H2471 0.951 . S
C2495 C2496 1.366 . S
C2495 C2497 1.388 . S
C2496 C2495 1.366 . S
C2496 C2500 1.385 . S
C2497 H2472 0.951 . S
C2497 C2495 1.388 . S
C2497 C2498 1.366 . S
C2498 C2497 1.366 . S
C2498 C2499 1.414 . S
C2498 C2501 1.499 . S
C2499 H2473 0.950 . S
C2499 C2498 1.414 . S
C2499 C2500 1.374 . S
C2500 H2474 0.950 . S
C2500 C2496 1.385 . S
C2500 C2499 1.374 . S
C2501 C2498 1.499 . S
C2501 C2502 1.373 . S
C2501 C2503 1.389 . S
C2502 H2475 0.950 . S
C2502 C2488 1.377 1_655 S
C2502 C2501 1.373 . S
C2503 C2487 1.377 . S
C2503 C2501 1.389 . S
C2503 C2504 1.524 . S
C2504 C2503 1.524 . S
C2504 C2505 1.397 . S
C2504 C2509 1.363 . S
C2505 H2476 0.950 . S
C2505 C2504 1.397 . S
C2505 C2506 1.334 . S
C2506 H2477 0.950 . S
C2506 C2505 1.334 . S
C2506 C2507 1.287 . S
C2507 C2506 1.287 . S
C2507 C2508 1.524 . S
C2507 H2510 0.999 . S
C2508 H2478 0.950 . S
C2508 C2507 1.524 . S
C2508 C2509 1.415 . S
C2509 H2479 0.950 . S
C2509 C2504 1.363 . S
C2509 C2508 1.415 . S
H2510 C2507 0.999 . S
H2511 C2492 0.913 . S
H2512 C2530 0.951 . S
H2513 C2532 0.951 . S
H2514 C2534 0.950 . S
H2515 C2535 0.950 . S
H2516 C2537 0.950 . S
H2517 C2540 0.950 . S
H2518 C2541 0.950 . S
H2519 C2543 0.950 . S
H2520 C2544 0.950 . S
H2521 C2545 0.951 . S
H2522 C2547 0.951 . S
H2523 C2549 0.950 . S
H2524 C2550 0.950 . S
H2525 C2552 0.950 . S
H2526 C2555 0.950 . S
H2527 C2556 0.950 . S
H2528 C2558 0.950 . S
H2529 C2559 0.950 . S
C2530 H2512 0.951 . S
C2530 C2531 1.366 . S
C2530 C2532 1.388 . S
C2531 C2530 1.366 . S
C2531 C2535 1.385 . S
C2532 H2513 0.951 . S
C2532 C2530 1.388 . S
C2532 C2533 1.366 . S
C2533 C2532 1.366 . S
C2533 C2534 1.414 . S
C2533 C2536 1.499 . S
C2534 H2514 0.950 . S
C2534 C2533 1.414 . S
C2534 C2535 1.374 . S
C2535 H2515 0.950 . S
C2535 C2531 1.385 . S
C2535 C2534 1.374 . S
C2536 C2533 1.499 . S
C2536 C2537 1.373 . S
C2536 C2538 1.389 . S
C2537 H2516 0.950 . S
C2537 C2536 1.373 . S
C2537 C2553 1.377 . S
C2538 C2536 1.389 . S
C2538 C2539 1.524 . S
C2538 C2552 1.377 . S
C2539 C2538 1.524 . S
C2539 C2540 1.397 . S
C2539 C2544 1.363 . S
C2540 H2517 0.950 . S
C2540 C2539 1.397 . S
C2540 C2541 1.334 . S
C2541 H2518 0.950 . S
C2541 C2540 1.334 . S
C2541 C2542 1.287 . S
C2542 C2541 1.287 . S
C2542 C2543 1.524 . S
C2542 H2561 0.913 . S
C2543 H2519 0.950 . S
C2543 C2542 1.524 . S
C2543 C2544 1.415 . S
C2544 H2520 0.950 . S
C2544 C2539 1.363 . S
C2544 C2543 1.415 . S
C2545 H2521 0.951 . S
C2545 C2546 1.366 . S
C2545 C2547 1.388 . S
C2546 C2545 1.366 . S
C2546 C2550 1.385 . S
C2547 H2522 0.951 . S
C2547 C2545 1.388 . S
C2547 C2548 1.366 . S
C2548 C2547 1.366 . S
C2548 C2549 1.414 . S
C2548 C2551 1.499 . S
C2549 H2523 0.950 . S
C2549 C2548 1.414 . S
C2549 C2550 1.374 . S
C2550 H2524 0.950 . S
C2550 C2546 1.385 . S
C2550 C2549 1.374 . S
C2551 C2548 1.499 . S
C2551 C2552 1.373 . S
C2551 C2553 1.389 . S
C2552 H2525 0.950 . S
C2552 C2538 1.377 . S
C2552 C2551 1.373 . S
C2553 C2537 1.377 . S
C2553 C2551 1.389 . S
C2553 C2554 1.524 . S
C2554 C2553 1.524 . S
C2554 C2555 1.397 . S
C2554 C2559 1.363 . S
C2555 H2526 0.950 . S
C2555 C2554 1.397 . S
C2555 C2556 1.334 . S
C2556 H2527 0.950 . S
C2556 C2555 1.334 . S
C2556 C2557 1.287 . S
C2557 C2556 1.287 . S
C2557 C2558 1.524 . S
C2557 H2560 0.999 . S
C2558 H2528 0.950 . S
C2558 C2557 1.524 . S
C2558 C2559 1.415 . S
C2559 H2529 0.950 . S
C2559 C2554 1.363 . S
C2559 C2558 1.415 . S
H2560 C2557 0.999 . S
H2561 C2542 0.913 . S
H2562 C2580 0.951 . S
H2563 C2582 0.951 . S
H2564 C2584 0.950 . S
H2565 C2585 0.950 . S
H2566 C2587 0.950 . S
H2567 C2590 0.950 . S
H2568 C2591 0.950 . S
H2569 C2593 0.950 . S
H2570 C2594 0.950 . S
H2571 C2595 0.951 . S
H2572 C2597 0.951 . S
H2573 C2599 0.950 . S
H2574 C2600 0.950 . S
H2575 C2602 0.950 . S
H2576 C2605 0.950 . S
H2577 C2606 0.950 . S
H2578 C2608 0.950 . S
H2579 C2609 0.950 . S
C2580 H2562 0.951 . S
C2580 C2581 1.366 . S
C2580 C2582 1.388 . S
C2581 C2580 1.366 . S
C2581 C2585 1.385 . S
C2582 H2563 0.951 . S
C2582 C2580 1.388 . S
C2582 C2583 1.366 . S
C2583 C2582 1.366 . S
C2583 C2584 1.414 . S
C2583 C2586 1.499 . S
C2584 H2564 0.950 . S
C2584 C2583 1.414 . S
C2584 C2585 1.374 . S
C2585 H2565 0.950 . S
C2585 C2581 1.385 . S
C2585 C2584 1.374 . S
C2586 C2583 1.499 . S
C2586 C2587 1.373 . S
C2586 C2588 1.389 . S
C2587 H2566 0.950 . S
C2587 C2586 1.373 . S
C2587 C2603 1.377 . S
C2588 C2586 1.389 . S
C2588 C2589 1.524 . S
C2588 C2602 1.377 . S
C2589 C2588 1.524 . S
C2589 C2590 1.397 . S
C2589 C2594 1.363 . S
C2590 H2567 0.950 . S
C2590 C2589 1.397 . S
C2590 C2591 1.334 . S
C2591 H2568 0.950 . S
C2591 C2590 1.334 . S
C2591 C2592 1.287 . S
C2592 C2591 1.287 . S
C2592 C2593 1.524 . S
C2592 H2611 0.913 . S
C2593 H2569 0.950 . S
C2593 C2592 1.524 . S
C2593 C2594 1.415 . S
C2594 H2570 0.950 . S
C2594 C2589 1.363 . S
C2594 C2593 1.415 . S
C2595 H2571 0.951 . S
C2595 C2596 1.366 . S
C2595 C2597 1.388 . S
C2596 C2595 1.366 . S
C2596 C2600 1.385 . S
C2597 H2572 0.951 . S
C2597 C2595 1.388 . S
C2597 C2598 1.366 . S
C2598 C2597 1.366 . S
C2598 C2599 1.414 . S
C2598 C2601 1.499 . S
C2599 H2573 0.950 . S
C2599 C2598 1.414 . S
C2599 C2600 1.374 . S
C2600 H2574 0.950 . S
C2600 C2596 1.385 . S
C2600 C2599 1.374 . S
C2601 C2598 1.499 . S
C2601 C2602 1.373 . S
C2601 C2603 1.389 . S
C2602 H2575 0.950 . S
C2602 C2588 1.377 . S
C2602 C2601 1.373 . S
C2603 C2587 1.377 . S
C2603 C2601 1.389 . S
C2603 C2604 1.524 . S
C2604 C2603 1.524 . S
C2604 C2605 1.397 . S
C2604 C2609 1.363 . S
C2605 H2576 0.950 . S
C2605 C2604 1.397 . S
C2605 C2606 1.334 . S
C2606 H2577 0.950 . S
C2606 C2605 1.334 . S
C2606 C2607 1.287 . S
C2607 C2606 1.287 . S
C2607 C2608 1.524 . S
C2607 H2610 0.999 . S
C2608 H2578 0.950 . S
C2608 C2607 1.524 . S
C2608 C2609 1.415 . S
C2609 H2579 0.950 . S
C2609 C2604 1.363 . S
C2609 C2608 1.415 . S
H2610 C2607 0.999 . S
H2611 C2592 0.913 . S
H2612 C2630 0.951 . S
H2613 C2632 0.951 . S
H2614 C2634 0.950 . S
H2615 C2635 0.950 . S
H2616 C2637 0.950 . S
H2617 C2640 0.950 . S
H2618 C2641 0.950 . S
H2619 C2643 0.950 . S
H2620 C2644 0.969 . S
H2621 C2645 0.951 . S
H2622 C2647 0.951 . S
H2623 C2649 0.950 . S
H2624 C2650 0.950 . S
H2625 C2652 0.950 . S
H2626 C2655 0.950 . S
H2627 C2656 0.950 . S
H2628 C2658 0.950 . S
H2629 C2659 0.950 1_565 S
C2630 H2612 0.951 . S
C2630 C2631 1.366 . S
C2630 C2632 1.388 . S
C2631 C2630 1.366 . S
C2631 C2635 1.385 . S
C2632 H2613 0.951 . S
C2632 C2630 1.388 . S
C2632 C2633 1.366 . S
C2633 C2632 1.366 . S
C2633 C2634 1.414 . S
C2633 C2636 1.499 . S
C2634 H2614 0.950 . S
C2634 C2633 1.414 . S
C2634 C2635 1.374 . S
C2635 H2615 0.950 . S
C2635 C2631 1.385 . S
C2635 C2634 1.374 . S
C2636 C2633 1.499 . S
C2636 C2637 1.373 . S
C2636 C2638 1.389 . S
C2637 H2616 0.950 . S
C2637 C2636 1.373 . S
C2637 C2653 1.377 1_565 S
C2638 C2636 1.389 . S
C2638 C2639 1.524 . S
C2638 C2652 1.377 1_565 S
C2639 C2638 1.524 . S
C2639 C2640 1.397 . S
C2639 C2644 1.363 . S
C2640 H2617 0.950 . S
C2640 C2639 1.397 . S
C2640 C2641 1.334 . S
C2641 H2618 0.950 . S
C2641 C2640 1.334 . S
C2641 C2642 1.287 . S
C2642 C2641 1.287 . S
C2642 C2643 1.524 . S
C2642 H2661 0.913 . S
C2643 H2619 0.950 . S
C2643 C2642 1.524 . S
C2643 C2644 1.415 . S
C2644 H2620 0.969 . S
C2644 C2639 1.363 . S
C2644 C2643 1.415 . S
C2645 H2621 0.951 . S
C2645 C2646 1.366 . S
C2645 C2647 1.388 . S
C2646 C2645 1.366 . S
C2646 C2650 1.385 . S
C2647 H2622 0.951 . S
C2647 C2645 1.388 . S
C2647 C2648 1.366 . S
C2648 C2647 1.366 . S
C2648 C2649 1.414 . S
C2648 C2651 1.499 . S
C2649 H2623 0.950 . S
C2649 C2648 1.414 . S
C2649 C2650 1.374 . S
C2650 H2624 0.950 . S
C2650 C2646 1.385 . S
C2650 C2649 1.374 . S
C2651 C2648 1.499 . S
C2651 C2652 1.373 . S
C2651 C2653 1.389 . S
C2652 H2625 0.950 . S
C2652 C2638 1.377 1_545 S
C2652 C2651 1.373 . S
C2653 C2637 1.377 1_545 S
C2653 C2651 1.389 . S
C2653 C2654 1.524 . S
C2654 C2653 1.524 . S
C2654 C2655 1.397 . S
C2654 C2659 1.363 . S
C2655 H2626 0.950 . S
C2655 C2654 1.397 . S
C2655 C2656 1.334 . S
C2656 H2627 0.950 . S
C2656 C2655 1.334 . S
C2656 C2657 1.287 . S
C2657 C2656 1.287 . S
C2657 C2658 1.524 . S
C2657 H2660 0.999 . S
C2658 H2628 0.950 . S
C2658 C2657 1.524 . S
C2658 C2659 1.415 . S
C2659 H2629 0.950 1_545 S
C2659 C2654 1.363 . S
C2659 C2658 1.415 . S
H2660 C2657 0.999 . S
H2661 C2642 0.913 . S
H2662 C2680 0.951 . S
H2663 C2682 0.951 . S
H2664 C2684 0.950 . S
H2665 C2685 0.950 . S
H2666 C2687 0.950 . S
H2667 C2690 0.950 . S
H2668 C2691 0.950 . S
H2669 C2693 0.950 . S
H2670 C2694 0.950 . S
H2671 C2695 0.951 . S
H2672 C2697 0.951 . S
H2673 C2699 0.950 . S
H2674 C2700 0.950 . S
H2675 C2702 0.950 . S
H2676 C2705 0.950 . S
H2677 C2706 0.950 . S
H2678 C2708 0.950 . S
H2679 C2709 0.950 . S
C2680 H2662 0.951 . S
C2680 C2681 1.366 . S
C2680 C2682 1.388 . S
C2681 C2680 1.366 . S
C2681 C2685 1.385 . S
C2682 H2663 0.951 . S
C2682 C2680 1.388 . S
C2682 C2683 1.366 . S
C2683 C2682 1.366 . S
C2683 C2684 1.414 . S
C2683 C2686 1.499 . S
C2684 H2664 0.950 . S
C2684 C2683 1.414 . S
C2684 C2685 1.374 . S
C2685 H2665 0.950 . S
C2685 C2681 1.385 . S
C2685 C2684 1.374 . S
C2686 C2683 1.499 . S
C2686 C2687 1.373 . S
C2686 C2688 1.389 1_556 S
C2687 H2666 0.950 . S
C2687 C2686 1.373 . S
C2687 C2703 1.377 . S
C2688 C2686 1.389 1_554 S
C2688 C2689 1.524 . S
C2688 C2702 1.377 . S
C2689 C2688 1.524 . S
C2689 C2690 1.397 . S
C2689 C2694 1.363 . S
C2690 H2667 0.950 . S
C2690 C2689 1.397 . S
C2690 C2691 1.334 . S
C2691 H2668 0.950 . S
C2691 C2690 1.334 . S
C2691 C2692 1.287 . S
C2692 C2691 1.287 . S
C2692 C2693 1.524 . S
C2692 H2711 0.913 . S
C2693 H2669 0.950 . S
C2693 C2692 1.524 . S
C2693 C2694 1.415 . S
C2694 H2670 0.950 . S
C2694 C2689 1.363 . S
C2694 C2693 1.415 . S
C2695 H2671 0.951 . S
C2695 C2696 1.366 . S
C2695 C2697 1.388 . S
C2696 C2695 1.366 . S
C2696 C2700 1.385 . S
C2697 H2672 0.951 . S
C2697 C2695 1.388 . S
C2697 C2698 1.366 . S
C2698 C2697 1.366 . S
C2698 C2699 1.414 . S
C2698 C2701 1.499 . S
C2699 H2673 0.950 . S
C2699 C2698 1.414 . S
C2699 C2700 1.374 . S
C2700 H2674 0.950 . S
C2700 C2696 1.385 . S
C2700 C2699 1.374 . S
C2701 C2698 1.499 . S
C2701 C2702 1.373 1_556 S
C2701 C2703 1.389 . S
C2702 H2675 0.950 . S
C2702 C2688 1.377 . S
C2702 C2701 1.373 1_554 S
C2703 C2687 1.377 . S
C2703 C2701 1.389 . S
C2703 C2704 1.524 . S
C2704 C2703 1.524 . S
C2704 C2705 1.397 . S
C2704 C2709 1.363 . S
C2705 H2676 0.950 . S
C2705 C2704 1.397 . S
C2705 C2706 1.334 . S
C2706 H2677 0.950 . S
C2706 C2705 1.334 . S
C2706 C2707 1.287 . S
C2707 C2706 1.287 . S
C2707 C2708 1.524 . S
C2707 H2710 0.999 . S
C2708 H2678 0.950 . S
C2708 C2707 1.524 . S
C2708 C2709 1.415 . S
C2709 H2679 0.950 . S
C2709 C2704 1.363 . S
C2709 C2708 1.415 . S
H2710 C2707 0.999 . S
H2711 C2692 0.913 . S
C331 C226 0.590 . S
C346 C8 0.565 . S
C381 C21 0.559 . S
C396 C213 0.650 . S
C431 C34 0.581 . S
C446 C252 0.596 . S
C481 C47 0.576 . S
C496 C239 0.638 . S
C531 C60 0.575 . S
C546 C278 0.593 . S
C581 C73 0.554 . S
C596 C291 0.584 . S
C631 C265 0.649 . S
C646 C86 0.556 . S
C681 C148 0.635 . S
C696 C99 0.551 . S
C731 C112 0.574 . S
C746 C44 0.589 . S
C781 C18 0.581 . S
C796 C125 0.551 . S
C831 C138 0.595 . S
C846 C5 0.620 . S
C881 C151 0.554 . S
C896 C187 0.636 . S
C931 C70 0.653 . S
C946 C164 0.607 . S
C981 C57 0.612 . S
C996 C177 0.595 . S
C1031 C190 0.553 . S
C1046 C96 0.636 . S
C1081 C203 0.553 . S
C1096 C83 0.582 . S
C1131 C122 0.652 . S
C1146 C216 0.606 . S
C1181 C135 0.644 . S
C1196 C229 0.574 . S
C1231 C109 0.612 . S
C1246 C242 0.595 . S
C1281 C255 0.578 . S
C1296 C304 0.595 . S
C1331 C200 0.653 . S
C1346 C268 0.604 . S
C1381 C281 0.579 . S
C1396 C174 0.642 . S
C1431 C161 0.651 . S
C1446 C294 0.558 . S
C1481 C307 0.580 . S
C1496 C31 0.596 . S
C1531 C0 1.502 . S
C1546 C13 1.507 . S
C1581 C39 1.431 . S
C1596 C26 1.427 . S
C1631 C52 1.502 . S
C1646 C78 1.506 . S
C1681 C65 1.618 . S
C1696 C91 1.621 . S
C1731 C286 1.506 . S
C1746 C104 1.503 . S
C1781 C117 1.618 . S
C1796 C143 1.621 . S
C1831 C260 1.549 . S
C1846 C130 1.546 . S
C1881 C169 1.547 . S
C1896 C156 1.549 . S
C1931 C182 1.621 . S
C1946 C195 1.618 . S
C1981 C234 1.546 . S
C1996 C208 1.548 . S
C2031 C221 1.431 . S
C2046 C247 1.428 . S
C2081 C299 1.427 . S
C2096 C273 1.432 . S
C2131 C36 1.119 . S
C2146 C10 1.120 . S
C2181 C23 1.250 . S
C2196 C49 1.249 . S
C2231 C257 1.118 . S
C2246 C62 1.119 . S
C2281 C75 1.210 . S
C2296 C244 1.210 . S
C2331 C88 1.249 . S
C2346 C231 1.248 . S
C2381 C218 1.345 . S
C2396 C101 1.346 . S
C2431 C114 1.119 . S
C2446 C309 1.119 . S
C2481 C127 1.210 . S
C2496 C140 1.211 . S
C2531 C270 1.345 . S
C2546 C153 1.345 . S
C2581 C166 1.345 . S
C2596 C192 1.345 . S
C2631 C179 1.210 . S
C2646 C205 1.210 . S
C2681 C296 1.249 . S
C2696 C283 1.248 . S
