# Generated by pormake.
# Topology acs-h, (5)-cn, num edge types: 1
# Building blocks:
#     Node 0, Type 0, BuildingBlock: XOMCOT_clean_sbu_0, # of connection points: 5
#     Node 1, Type 0, BuildingBlock: XOMCOT_clean_sbu_0, # of connection points: 5
#     Node 2, Type 0, BuildingBlock: XOMCOT_clean_sbu_0, # of connection points: 5
#     Node 3, Type 0, BuildingBlock: XOMCOT_clean_sbu_0, # of connection points: 5
#     Node 4, Type 0, BuildingBlock: XOMCOT_clean_sbu_0, # of connection points: 5
#     Node 5, Type 0, BuildingBlock: XOMCOT_clean_sbu_0, # of connection points: 5
#     Node 6, Type 0, BuildingBlock: XOMCOT_clean_sbu_0, # of connection points: 5
#     Node 7, Type 0, BuildingBlock: XOMCOT_clean_sbu_0, # of connection points: 5
#     Node 8, Type 0, BuildingBlock: XOMCOT_clean_sbu_0, # of connection points: 5
#     Node 9, Type 0, BuildingBlock: XOMCOT_clean_sbu_0, # of connection points: 5
#     Node 10, Type 0, BuildingBlock: XOMCOT_clean_sbu_0, # of connection points: 5
#     Node 11, Type 0, BuildingBlock: XOMCOT_clean_sbu_0, # of connection points: 5
#     Edge 12, Type (0, 0), BuildingBlock: KIFKEQ_clean_linker_1, # of connection points: 2
#     Edge 13, Type (0, 0), BuildingBlock: KIFKEQ_clean_linker_1, # of connection points: 2
#     Edge 14, Type (0, 0), BuildingBlock: KIFKEQ_clean_linker_1, # of connection points: 2
#     Edge 15, Type (0, 0), BuildingBlock: KIFKEQ_clean_linker_1, # of connection points: 2
#     Edge 16, Type (0, 0), BuildingBlock: KIFKEQ_clean_linker_1, # of connection points: 2
#     Edge 17, Type (0, 0), BuildingBlock: KIFKEQ_clean_linker_1, # of connection points: 2
#     Edge 18, Type (0, 0), BuildingBlock: KIFKEQ_clean_linker_1, # of connection points: 2
#     Edge 19, Type (0, 0), BuildingBlock: KIFKEQ_clean_linker_1, # of connection points: 2
#     Edge 20, Type (0, 0), BuildingBlock: KIFKEQ_clean_linker_1, # of connection points: 2
#     Edge 21, Type (0, 0), BuildingBlock: KIFKEQ_clean_linker_1, # of connection points: 2
#     Edge 22, Type (0, 0), BuildingBlock: KIFKEQ_clean_linker_1, # of connection points: 2
#     Edge 23, Type (0, 0), BuildingBlock: KIFKEQ_clean_linker_1, # of connection points: 2
#     Edge 24, Type (0, 0), BuildingBlock: KIFKEQ_clean_linker_1, # of connection points: 2
#     Edge 25, Type (0, 0), BuildingBlock: KIFKEQ_clean_linker_1, # of connection points: 2
#     Edge 26, Type (0, 0), BuildingBlock: KIFKEQ_clean_linker_1, # of connection points: 2
#     Edge 27, Type (0, 0), BuildingBlock: KIFKEQ_clean_linker_1, # of connection points: 2
#     Edge 28, Type (0, 0), BuildingBlock: KIFKEQ_clean_linker_1, # of connection points: 2
#     Edge 29, Type (0, 0), BuildingBlock: KIFKEQ_clean_linker_1, # of connection points: 2
#     Edge 30, Type (0, 0), BuildingBlock: KIFKEQ_clean_linker_1, # of connection points: 2
#     Edge 31, Type (0, 0), BuildingBlock: KIFKEQ_clean_linker_1, # of connection points: 2
#     Edge 32, Type (0, 0), BuildingBlock: KIFKEQ_clean_linker_1, # of connection points: 2
#     Edge 33, Type (0, 0), BuildingBlock: KIFKEQ_clean_linker_1, # of connection points: 2
#     Edge 34, Type (0, 0), BuildingBlock: KIFKEQ_clean_linker_1, # of connection points: 2
#     Edge 35, Type (0, 0), BuildingBlock: KIFKEQ_clean_linker_1, # of connection points: 2
#     Edge 36, Type (0, 0), BuildingBlock: KIFKEQ_clean_linker_1, # of connection points: 2
#     Edge 37, Type (0, 0), BuildingBlock: KIFKEQ_clean_linker_1, # of connection points: 2
#     Edge 38, Type (0, 0), BuildingBlock: KIFKEQ_clean_linker_1, # of connection points: 2
#     Edge 39, Type (0, 0), BuildingBlock: KIFKEQ_clean_linker_1, # of connection points: 2
#     Edge 40, Type (0, 0), BuildingBlock: KIFKEQ_clean_linker_1, # of connection points: 2
#     Edge 41, Type (0, 0), BuildingBlock: KIFKEQ_clean_linker_1, # of connection points: 2
# Relax obj value: 0.874
# Max RMSD: 0.273
# Mean RMSD: 0.273
data_MOF--net-acs-h--node1-XOMCOT_clean_sbu_0--edge1-KIFKEQ_clean_linker_1
_symmetry_space_group_name_H-M    P1
_symmetry_Int_Tables_number       1
_symmetry_cell_setting            triclinic
loop_
_symmetry_equiv_pos_as_xyz
'x, y, z'
_cell_length_a     48.581793
_cell_length_b     48.582924
_cell_length_c     40.904514
_cell_angle_alpha  90.125837
_cell_angle_beta   90.073743
_cell_angle_gamma 119.85003
loop_
_atom_site_label
_atom_site_type_symbol
_atom_site_fract_x
_atom_site_fract_y
_atom_site_fract_z
_atom_type_partial_charge
Co0 Co 0.47125 0.16024 0.11275 0.0
C1 C 0.54269 0.19562 0.10939 0.0
C2 C 0.52238 0.14505 0.10967 0.0
C3 C 0.55475 0.15858 0.10891 0.0
N4 N 0.51456 0.16812 0.10951 0.0
N5 N 0.56744 0.1903 0.10884 0.0
H6 H 0.54537 0.21905 0.10972 0.0
H7 H 0.50576 0.11992 0.11102 0.0
C8 C 0.46351 0.13701 0.17997 0.0
O9 O 0.45983 0.16111 0.18818 0.0
N10 N 0.42764 0.15144 0.1169 0.0
C11 C 0.40052 0.12688 0.10484 0.0
C12 C 0.37485 0.12765 0.1183 0.0
C13 C 0.41787 0.16715 0.13664 0.0
N14 N 0.38608 0.15324 0.13786 0.0
C15 C 0.47083 0.13485 0.05049 0.0
C16 C 0.44638 0.07264 0.07035 0.0
C17 C 0.46253 0.08242 0.04054 0.0
C18 C 0.47312 0.11336 0.02979 0.0
C19 C 0.44474 0.09501 0.09052 0.0
N20 N 0.45873 0.12612 0.08122 0.0
H21 H 0.48196 0.15932 0.04298 0.0
H22 H 0.43421 0.08766 0.11441 0.0
H23 H 0.39891 0.10883 0.08831 0.0
H24 H 0.43344 0.18727 0.15172 0.0
O25 O 0.48004 0.19436 0.08294 0.0
O26 O 0.4867 0.19981 0.13652 0.0
O27 O 0.46561 0.13139 0.14997 0.0
C28 C 0.48881 0.21298 0.10828 0.0
H29 H 0.568 0.14608 0.10924 0.0
H30 H 0.35002 0.11027 0.11493 0.0
H31 H 0.43767 0.04875 0.07929 0.0
H32 H 0.48535 0.12155 0.00666 0.0
Co33 Co 0.85731 0.33764 0.09288 0.0
C34 C 0.84776 0.39209 0.07842 0.0
C35 C 0.89659 0.40647 0.08692 0.0
C36 C 0.8937 0.43327 0.08521 0.0
N37 N 0.86772 0.38064 0.08279 0.0
N38 N 0.86287 0.42404 0.08033 0.0
H39 H 0.82237 0.37757 0.07574 0.0
H40 H 0.91784 0.4058 0.09338 0.0
C41 C 0.87287 0.35823 0.15883 0.0
O42 O 0.89917 0.35918 0.1494 0.0
N43 N 0.84815 0.29509 0.10367 0.0
C44 C 0.86591 0.28172 0.09614 0.0
C45 C 0.85245 0.25202 0.11011 0.0
C46 C 0.82437 0.27346 0.12233 0.0
N47 N 0.82626 0.24691 0.12648 0.0
C48 C 0.85763 0.32453 0.02422 0.0
C49 C 0.9229 0.36181 0.02045 0.0
C50 C 0.90449 0.35578 0.99206 0.0
C51 C 0.87178 0.33477 0.99372 0.0
C52 C 0.90775 0.35146 0.05044 0.0
N53 N 0.87554 0.33543 0.05199 0.0
H54 H 0.83213 0.31046 0.0253 0.0
H55 H 0.92151 0.35936 0.07277 0.0
H56 H 0.88762 0.29296 0.08216 0.0
H57 H 0.8068 0.27742 0.13414 0.0
O58 O 0.81385 0.32055 0.07444 0.0
O59 O 0.82265 0.33337 0.1243 0.0
O60 O 0.84864 0.34564 0.13948 0.0
C61 C 0.80185 0.32207 0.10118 0.0
H62 H 0.91229 0.45738 0.09003 0.0
H63 H 0.86154 0.23574 0.10875 0.0
H64 H 0.94828 0.37801 0.02016 0.0
H65 H 0.85695 0.32935 0.97216 0.0
Co66 Co 0.69256 0.53691 0.10322 0.0
C67 C 0.65207 0.46761 0.09562 0.0
C68 C 0.67765 0.48769 0.05148 0.0
C69 C 0.65909 0.45544 0.04716 0.0
N70 N 0.67206 0.49564 0.08142 0.0
N71 N 0.64273 0.4429 0.07491 0.0
H72 H 0.64513 0.46515 0.121 0.0
H73 H 0.69507 0.50356 0.03427 0.0
C74 C 0.62517 0.50661 0.12549 0.0
O75 O 0.61696 0.50074 0.09452 0.0
N76 N 0.71346 0.57699 0.12569 0.0
C77 C 0.73215 0.60582 0.11257 0.0
C78 C 0.74932 0.62661 0.13742 0.0
C79 C 0.71905 0.58056 0.15803 0.0
N80 N 0.74107 0.61055 0.16593 0.0
C81 C 0.67792 0.55179 0.03979 0.0
C82 C 0.63278 0.56559 0.06286 0.0
C83 C 0.63028 0.55428 0.03082 0.0
C84 C 0.655 0.55047 0.01834 0.0
C85 C 0.65595 0.56605 0.08345 0.0
N86 N 0.6747 0.55437 0.07253 0.0
H87 H 0.69649 0.54805 0.03051 0.0
H88 H 0.65569 0.57134 0.1091 0.0
H89 H 0.73517 0.61069 0.08664 0.0
H90 H 0.71002 0.56078 0.17486 0.0
O91 O 0.73168 0.54746 0.0809 0.0
O92 O 0.71637 0.52259 0.12852 0.0
O93 O 0.65463 0.52189 0.13346 0.0
C94 C 0.73718 0.53341 0.10508 0.0
H95 H 0.65792 0.44235 0.02528 0.0
H96 H 0.76825 0.65087 0.13445 0.0
H97 H 0.61466 0.56983 0.0731 0.0
H98 H 0.65483 0.54351 0.99313 0.0
Co99 Co 0.8539 0.50837 0.39358 0.0
C100 C 0.82412 0.44051 0.41512 0.0
C101 C 0.87459 0.46296 0.41035 0.0
C102 C 0.86325 0.43171 0.41805 0.0
N103 N 0.85017 0.46871 0.40865 0.0
N104 N 0.83147 0.41751 0.42083 0.0
H105 H 0.80015 0.43637 0.41441 0.0
H106 H 0.89891 0.47989 0.40447 0.0
C107 C 0.88405 0.5146 0.32659 0.0
O108 O 0.8797 0.53791 0.31724 0.0
N109 N 0.85796 0.54819 0.37893 0.0
C110 C 0.8724 0.57642 0.39473 0.0
C111 C 0.86599 0.59744 0.3784 0.0
C112 C 0.84208 0.5522 0.35404 0.0
N113 N 0.84724 0.58207 0.35272 0.0
C114 C 0.88931 0.52428 0.45246 0.0
C115 C 0.94711 0.54789 0.42107 0.0
C116 C 0.94343 0.5354 0.45261 0.0
C117 C 0.91514 0.52633 0.46949 0.0
C118 C 0.92081 0.54595 0.40516 0.0
N119 N 0.89181 0.53092 0.41988 0.0
H120 H 0.86629 0.51285 0.46404 0.0
H121 H 0.92295 0.55283 0.3798 0.0
H122 H 0.88597 0.58134 0.41708 0.0
H123 H 0.82685 0.53357 0.33715 0.0
O124 O 0.82187 0.50478 0.42437 0.0
O125 O 0.81282 0.48562 0.37376 0.0
O126 O 0.87849 0.50448 0.35591 0.0
C127 C 0.8015 0.48941 0.40108 0.0
H128 H 0.87713 0.41989 0.41905 0.0
H129 H 0.87453 0.62204 0.38471 0.0
H130 H 0.9689 0.55552 0.4076 0.0
H131 H 0.9116 0.51662 0.49394 0.0
Co132 Co 0.47667 0.34041 0.36388 0.0
C133 C 0.54391 0.37241 0.38874 0.0
C134 C 0.52945 0.40492 0.37145 0.0
C135 C 0.56003 0.42212 0.38263 0.0
N136 N 0.51918 0.37372 0.37522 0.0
N137 N 0.56915 0.40173 0.39351 0.0
H138 H 0.54367 0.35072 0.3951 0.0
H139 H 0.51564 0.41467 0.36119 0.0
C140 C 0.48274 0.35736 0.2944 0.0
O141 O 0.47857 0.32896 0.28862 0.0
N142 N 0.43366 0.30771 0.3524 0.0
C143 C 0.40574 0.30502 0.36191 0.0
C144 C 0.3812 0.27937 0.34622 0.0
C145 C 0.42543 0.28296 0.33196 0.0
N146 N 0.39379 0.26555 0.32771 0.0
C147 C 0.46619 0.36564 0.42189 0.0
C148 C 0.44701 0.40434 0.3919 0.0
C149 C 0.45547 0.40905 0.42505 0.0
C150 C 0.4637 0.38837 0.44038 0.0
C151 C 0.44959 0.38109 0.37429 0.0
N152 N 0.46068 0.36328 0.38905 0.0
H153 H 0.47525 0.35182 0.43349 0.0
H154 H 0.44405 0.37854 0.34851 0.0
H155 H 0.40291 0.32048 0.37883 0.0
H156 H 0.44214 0.2781 0.31946 0.0
O157 O 0.47779 0.31271 0.39752 0.0
O158 O 0.49342 0.31489 0.34635 0.0
O159 O 0.48011 0.36529 0.32344 0.0
C160 C 0.48929 0.30222 0.3751 0.0
H161 H 0.57477 0.44769 0.38176 0.0
H162 H 0.35616 0.27163 0.34802 0.0
H163 H 0.43993 0.41946 0.37938 0.0
H164 H 0.47069 0.39135 0.46587 0.0
Co165 Co 0.64959 0.13601 0.38098 0.0
C166 C 0.60813 0.16293 0.39252 0.0
C167 C 0.6233 0.15409 0.43843 0.0
C168 C 0.6053 0.16827 0.44425 0.0
N169 N 0.62418 0.14964 0.4059 0.0
N170 N 0.59583 0.17383 0.41531 0.0
H171 H 0.60613 0.16523 0.36645 0.0
H172 H 0.63657 0.14992 0.45689 0.0
C173 C 0.58519 0.10168 0.35162 0.0
O174 O 0.57446 0.09391 0.38162 0.0
N175 N 0.67531 0.12398 0.35584 0.0
C176 C 0.69483 0.11402 0.3674 0.0
C177 C 0.71274 0.113 0.34183 0.0
C178 C 0.68129 0.1287 0.32365 0.0
N179 N 0.70411 0.12222 0.31443 0.0
C180 C 0.63269 0.09394 0.43644 0.0
C181 C 0.5932 0.04051 0.4003 0.0
C182 C 0.5876 0.04122 0.43376 0.0
C183 C 0.60987 0.06689 0.45253 0.0
C184 C 0.61621 0.06817 0.38547 0.0
N185 N 0.63175 0.09554 0.40328 0.0
H186 H 0.6493 0.11425 0.45048 0.0
H187 H 0.61842 0.0686 0.35915 0.0
H188 H 0.69703 0.10947 0.39287 0.0
H189 H 0.67091 0.13899 0.30788 0.0
O190 O 0.68547 0.16188 0.4091 0.0
O191 O 0.67262 0.17795 0.36364 0.0
O192 O 0.61514 0.11749 0.34645 0.0
C193 C 0.69129 0.18483 0.38881 0.0
H194 H 0.60119 0.17571 0.46784 0.0
H195 H 0.73162 0.10734 0.34349 0.0
H196 H 0.5773 0.02043 0.38524 0.0
H197 H 0.60735 0.06764 0.47877 0.0
Co198 Co 0.51336 0.84759 0.88835 0.0
C199 C 0.44598 0.81401 0.91238 0.0
C200 C 0.4628 0.86262 0.90005 0.0
C201 C 0.43165 0.84924 0.90935 0.0
N202 N 0.47202 0.84068 0.90203 0.0
N203 N 0.42099 0.81861 0.917 0.0
H204 H 0.44482 0.79143 0.9157 0.0
H205 H 0.47724 0.8865 0.89106 0.0
C206 C 0.5037 0.8551 0.81871 0.0
O207 O 0.50582 0.82956 0.8136 0.0
N208 N 0.55493 0.85528 0.87431 0.0
C209 C 0.5839 0.87992 0.88187 0.0
C210 C 0.60682 0.87566 0.86661 0.0
C211 C 0.56086 0.83621 0.85511 0.0
N212 N 0.59216 0.84805 0.85003 0.0
C213 C 0.5305 0.88736 0.9442 0.0
C214 C 0.54373 0.94199 0.91081 0.0
C215 C 0.5371 0.93999 0.94441 0.0
C216 C 0.53314 0.91326 0.96148 0.0
C217 C 0.54179 0.91581 0.89456 0.0
N218 N 0.53246 0.88808 0.91095 0.0
H219 H 0.52384 0.86574 0.95737 0.0
H220 H 0.54523 0.91718 0.86843 0.0
H221 H 0.58854 0.89965 0.89758 0.0
H222 H 0.5427 0.81415 0.84458 0.0
O223 O 0.51382 0.82098 0.92334 0.0
O224 O 0.49407 0.80402 0.87389 0.0
O225 O 0.50792 0.86691 0.84734 0.0
C226 C 0.49985 0.79738 0.90297 0.0
H227 H 0.41746 0.86073 0.90856 0.0
H228 H 0.63223 0.89137 0.86794 0.0
H229 H 0.54754 0.96232 0.89654 0.0
H230 H 0.52943 0.91122 0.98766 0.0
Co231 Co 0.13758 0.64122 0.8825 0.0
C232 C 0.16197 0.6014 0.91319 0.0
C233 C 0.11597 0.57376 0.89141 0.0
C234 C 0.12466 0.5534 0.90498 0.0
N235 N 0.13936 0.60391 0.89638 0.0
N236 N 0.15361 0.57077 0.91865 0.0
H237 H 0.18395 0.62138 0.92157 0.0
H238 H 0.09384 0.56696 0.87895 0.0
C239 C 0.10725 0.62151 0.81392 0.0
O240 O 0.10495 0.64697 0.80912 0.0
N241 N 0.13534 0.67816 0.86936 0.0
C242 C 0.12281 0.69292 0.88674 0.0
C243 C 0.1297 0.72075 0.87116 0.0
C244 C 0.15048 0.69757 0.84416 0.0
N245 N 0.14675 0.72324 0.84432 0.0
C246 C 0.09494 0.61512 0.93559 0.0
C247 C 0.04168 0.58854 0.89589 0.0
C248 C 0.04079 0.57413 0.92585 0.0
C249 C 0.06669 0.59001 0.94733 0.0
C250 C 0.07016 0.61424 0.88558 0.0
N251 N 0.09696 0.62419 0.90383 0.0
H252 H 0.11619 0.6241 0.95035 0.0
H253 H 0.07136 0.62352 0.86144 0.0
H254 H 0.11026 0.68451 0.90961 0.0
H255 H 0.16417 0.69315 0.82617 0.0
O256 O 0.16605 0.66659 0.91761 0.0
O257 O 0.18053 0.66067 0.86781 0.0
O258 O 0.11753 0.61692 0.84092 0.0
C259 C 0.18883 0.67341 0.89666 0.0
H260 H 0.11096 0.52776 0.90405 0.0
H261 H 0.12272 0.73774 0.87881 0.0
H262 H 0.02206 0.57801 0.87879 0.0
H263 H 0.06645 0.58078 0.97147 0.0
Co264 Co 0.33552 0.47896 0.92762 0.0
C265 C 0.36989 0.54417 0.95539 0.0
C266 C 0.39889 0.52257 0.95436 0.0
C267 C 0.41783 0.5541 0.96169 0.0
N268 N 0.36849 0.51588 0.95087 0.0
N269 N 0.3997 0.56786 0.96181 0.0
H270 H 0.35025 0.54815 0.95102 0.0
H271 H 0.40781 0.50692 0.94788 0.0
C272 C 0.36601 0.48804 0.85975 0.0
O273 O 0.34437 0.46058 0.84783 0.0
N274 N 0.30315 0.44305 0.90354 0.0
C275 C 0.28943 0.41193 0.91086 0.0
C276 C 0.26487 0.39508 0.88911 0.0
C277 C 0.28628 0.44475 0.87827 0.0
N278 N 0.26293 0.41587 0.86875 0.0
C279 C 0.36 0.45344 0.97486 0.0
C280 C 0.39173 0.43758 0.92919 0.0
C281 C 0.40325 0.44456 0.96128 0.0
C282 C 0.38514 0.44923 0.98502 0.0
C283 C 0.36666 0.44212 0.9202 0.0
N284 N 0.35406 0.45379 0.94229 0.0
H285 H 0.34894 0.46153 0.99244 0.0
H286 H 0.35976 0.43938 0.89493 0.0
H287 H 0.29613 0.4022 0.93109 0.0
H288 H 0.29131 0.46686 0.8669 0.0
O289 O 0.30511 0.46989 0.96243 0.0
O290 O 0.31282 0.50112 0.91957 0.0
O291 O 0.36494 0.49592 0.88924 0.0
C292 C 0.29749 0.48827 0.94635 0.0
H293 H 0.4435 0.56658 0.96267 0.0
H294 H 0.24911 0.36964 0.88893 0.0
H295 H 0.40443 0.43261 0.91045 0.0
H296 H 0.39303 0.45423 0.01022 0.0
Co297 Co 0.1584 0.46983 0.59657 0.0
C298 C 0.17791 0.53713 0.58684 0.0
C299 C 0.17402 0.51501 0.5405 0.0
C300 C 0.18362 0.54649 0.53532 0.0
N301 N 0.16901 0.50869 0.57282 0.0
N302 N 0.18596 0.56026 0.56453 0.0
H303 H 0.17884 0.54097 0.61298 0.0
H304 H 0.17311 0.49896 0.52182 0.0
C305 C 0.119 0.49377 0.62822 0.0
O306 O 0.11 0.49675 0.59874 0.0
N307 N 0.14933 0.43248 0.62093 0.0
C308 C 0.1437 0.40417 0.60936 0.0
C309 C 0.14463 0.38646 0.63527 0.0
C310 C 0.15335 0.43168 0.65335 0.0
N311 N 0.15064 0.40389 0.66283 0.0
C312 C 0.11768 0.44461 0.54036 0.0
C313 C 0.06224 0.42459 0.57473 0.0
C314 C 0.06314 0.43269 0.5416 0.0
C315 C 0.09051 0.43947 0.52369 0.0
C316 C 0.09042 0.43117 0.59037 0.0
N317 N 0.11833 0.44558 0.57356 0.0
H318 H 0.13877 0.45025 0.52676 0.0
H319 H 0.09035 0.42814 0.61656 0.0
H320 H 0.14094 0.39762 0.58377 0.0
H321 H 0.16064 0.452 0.66928 0.0
O322 O 0.18591 0.46296 0.56763 0.0
O323 O 0.20067 0.49076 0.61398 0.0
O324 O 0.13764 0.48244 0.63193 0.0
C325 C 0.20841 0.48035 0.58827 0.0
H326 H 0.18998 0.55869 0.51207 0.0
H327 H 0.14244 0.3632 0.63378 0.0
H328 H 0.04096 0.41642 0.58921 0.0
H329 H 0.09237 0.44395 0.4977 0.0
Co330 Co 0.52068 0.67707 0.63678 0.0
C331 C 0.45832 0.63804 0.60324 0.0
C332 C 0.45435 0.65744 0.64911 0.0
C333 C 0.42452 0.63972 0.63601 0.0
N334 N 0.47555 0.6565 0.62857 0.0
N335 N 0.42715 0.6276 0.60734 0.0
H336 H 0.46802 0.63167 0.58269 0.0
H337 H 0.46011 0.66946 0.67251 0.0
C338 C 0.5148 0.65657 0.70571 0.0
O339 O 0.52927 0.68645 0.71493 0.0
N340 N 0.56575 0.69748 0.64628 0.0
C341 C 0.58211 0.68234 0.65256 0.0
C342 C 0.60923 0.70248 0.66982 0.0
C343 C 0.5836 0.72674 0.65916 0.0
N344 N 0.60991 0.73032 0.67419 0.0
C345 C 0.53915 0.6553 0.58028 0.0
C346 C 0.50561 0.59158 0.59627 0.0
C347 C 0.52017 0.60045 0.56567 0.0
C348 C 0.53749 0.63278 0.55778 0.0
C349 C 0.5074 0.6146 0.61768 0.0
N350 N 0.5236 0.646 0.60944 0.0
H351 H 0.55196 0.68016 0.57389 0.0
H352 H 0.4938 0.60663 0.63986 0.0
H353 H 0.57322 0.65732 0.64844 0.0
H354 H 0.57557 0.74376 0.6617 0.0
O355 O 0.52716 0.70846 0.60424 0.0
O356 O 0.5179 0.71156 0.65682 0.0
O357 O 0.51154 0.64932 0.67556 0.0
C358 C 0.52162 0.72334 0.62756 0.0
H359 H 0.40238 0.63461 0.64743 0.0
H360 H 0.62528 0.69597 0.68128 0.0
H361 H 0.49135 0.56682 0.60296 0.0
H362 H 0.54909 0.64047 0.5343 0.0
Co363 Co 0.32215 0.8446 0.60608 0.0
C364 C 0.37135 0.82584 0.60181 0.0
C365 C 0.35407 0.82713 0.55404 0.0
C366 C 0.37735 0.81907 0.55101 0.0
N367 N 0.35118 0.83277 0.58586 0.0
N368 N 0.38835 0.81854 0.58107 0.0
H369 H 0.37379 0.82643 0.62813 0.0
H370 H 0.33962 0.82724 0.53417 0.0
C371 C 0.38477 0.88621 0.63797 0.0
O372 O 0.39695 0.89394 0.60848 0.0
N373 N 0.29317 0.85547 0.62622 0.0
C374 C 0.27404 0.86412 0.61104 0.0
C375 C 0.25404 0.86557 0.63392 0.0
C376 C 0.28486 0.85192 0.65787 0.0
N377 N 0.2609 0.85784 0.66329 0.0
C378 C 0.33425 0.87923 0.54618 0.0
C379 C 0.37044 0.9383 0.57408 0.0
C380 C 0.37474 0.93412 0.54084 0.0
C381 C 0.3537 0.90477 0.5263 0.0
C382 C 0.35124 0.91172 0.59298 0.0
N383 N 0.3374 0.8822 0.57922 0.0
H384 H 0.31843 0.85661 0.5351 0.0
H385 H 0.35 0.91456 0.61906 0.0
H386 H 0.2736 0.86754 0.58497 0.0
H387 H 0.29442 0.84271 0.67599 0.0
O388 O 0.28842 0.8141 0.57834 0.0
O389 O 0.30134 0.8039 0.62713 0.0
O390 O 0.35473 0.86844 0.64148 0.0
C391 C 0.28366 0.79348 0.6011 0.0
H392 H 0.38487 0.81304 0.52852 0.0
H393 H 0.23485 0.87026 0.62906 0.0
H394 H 0.38407 0.96112 0.58601 0.0
H395 H 0.35427 0.90032 0.50047 0.0
H396 H 0.59805 0.11442 0.28651 0.0
H397 H 0.52131 0.07808 0.35646 0.0
H398 H 0.56227 0.11432 0.24454 0.0
H399 H 0.48569 0.07807 0.31443 0.0
H400 H 0.48736 0.0971 0.1706 0.0
H401 H 0.51249 0.08035 0.21152 0.0
H402 H 0.48564 0.12452 0.28714 0.0
H403 H 0.46058 0.14143 0.24633 0.0
C404 C 0.57344 0.10583 0.29277 0.0
C405 C 0.56264 0.09665 0.3249 0.0
C406 C 0.5529 0.1056 0.26869 0.0
C407 C 0.52127 0.0964 0.27634 0.0
C408 C 0.51004 0.08557 0.30799 0.0
C409 C 0.53047 0.08551 0.33198 0.0
C410 C 0.48615 0.10264 0.19604 0.0
C411 C 0.47235 0.12102 0.20519 0.0
C412 C 0.5007 0.09316 0.2194 0.0
C413 C 0.50131 0.10144 0.2524 0.0
C414 C 0.48539 0.11766 0.26188 0.0
C415 C 0.47114 0.12746 0.23848 0.0
H416 H 0.91724 0.38345 0.20742 0.0
H417 H 0.83142 0.37944 0.17207 0.0
H418 H 0.92355 0.42326 0.2479 0.0
H419 H 0.83777 0.41911 0.21253 0.0
H420 H 0.8787 0.51608 0.26013 0.0
H421 H 0.87649 0.47722 0.22077 0.0
H422 H 0.89711 0.4295 0.29781 0.0
H423 H 0.89952 0.46839 0.33722 0.0
C424 C 0.89946 0.39068 0.20864 0.0
C425 C 0.87382 0.37824 0.18658 0.0
C426 C 0.90313 0.41351 0.23177 0.0
C427 C 0.88142 0.42461 0.23304 0.0
C428 C 0.85519 0.41139 0.21172 0.0
C429 C 0.85133 0.38834 0.18884 0.0
C430 C 0.88345 0.49774 0.26859 0.0
C431 C 0.88909 0.49525 0.30187 0.0
C432 C 0.88179 0.47525 0.24611 0.0
C433 C 0.88605 0.45002 0.25635 0.0
C434 C 0.89366 0.44866 0.28922 0.0
C435 C 0.89506 0.47097 0.31177 0.0
H436 H 0.56179 0.46669 0.11604 0.0
H437 H 0.63275 0.50918 0.19213 0.0
H438 H 0.52265 0.43347 0.15648 0.0
H439 H 0.59339 0.4757 0.23261 0.0
H440 H 0.51053 0.42194 0.3011 0.0
H441 H 0.54183 0.462 0.26023 0.0
H442 H 0.51804 0.38801 0.1886 0.0
H443 H 0.48686 0.34806 0.22926 0.0
C444 C 0.56896 0.46937 0.14146 0.0
C445 C 0.60054 0.49039 0.1508 0.0
C446 C 0.5465 0.4502 0.1646 0.0
C447 C 0.555 0.45177 0.19764 0.0
C448 C 0.58607 0.47412 0.20733 0.0
C449 C 0.60866 0.4932 0.18412 0.0
C450 C 0.51145 0.41425 0.27647 0.0
C451 C 0.49646 0.38176 0.26852 0.0
C452 C 0.52955 0.43721 0.25315 0.0
C453 C 0.5326 0.42814 0.22131 0.0
C454 C 0.51597 0.39579 0.21286 0.0
C455 C 0.49818 0.37286 0.23622 0.0
H456 H 0.50221 0.84349 0.75328 0.0
H457 H 0.47834 0.89412 0.82441 0.0
H458 H 0.47692 0.85815 0.7105 0.0
H459 H 0.45278 0.90856 0.78149 0.0
H460 H 0.44836 0.90736 0.63636 0.0
H461 H 0.4813 0.90607 0.68061 0.0
H462 H 0.40257 0.8747 0.74728 0.0
H463 H 0.36934 0.87574 0.70293 0.0
C464 C 0.49198 0.85813 0.75969 0.0
C465 C 0.49216 0.86752 0.79223 0.0
C466 C 0.47763 0.86666 0.73517 0.0
C467 C 0.46282 0.88443 0.74273 0.0
C468 C 0.46388 0.89471 0.77506 0.0
C469 C 0.47866 0.88657 0.79954 0.0
C470 C 0.43818 0.90086 0.66058 0.0
C471 C 0.4061 0.8914 0.66605 0.0
C472 C 0.45706 0.89995 0.68586 0.0
C473 C 0.44441 0.89002 0.71726 0.0
C474 C 0.41298 0.88261 0.72332 0.0
C475 C 0.39394 0.88313 0.69791 0.0
H476 H 0.07992 0.51923 0.62907 0.0
H477 H 0.13968 0.49912 0.69133 0.0
H478 H 0.07071 0.54637 0.67433 0.0
H479 H 0.13113 0.52686 0.73622 0.0
H480 H 0.1032 0.6303 0.74835 0.0
H481 H 0.10096 0.59565 0.70393 0.0
H482 H 0.0934 0.52607 0.77438 0.0
H483 H 0.09653 0.56099 0.81862 0.0
C484 C 0.09091 0.52038 0.65248 0.0
C485 C 0.1107 0.50717 0.65654 0.0
C486 C 0.08577 0.53611 0.67836 0.0
C487 C 0.1003 0.53898 0.70887 0.0
C488 C 0.11919 0.52476 0.7132 0.0
C489 C 0.12426 0.50897 0.68737 0.0
C490 C 0.10048 0.60736 0.75431 0.0
C491 C 0.10046 0.59859 0.78701 0.0
C492 C 0.09911 0.58743 0.72884 0.0
C493 C 0.09746 0.55823 0.7356 0.0
C494 C 0.09543 0.54869 0.76832 0.0
C495 C 0.09704 0.56867 0.7937 0.0
H496 H 0.4665 0.59727 0.6929 0.0
H497 H 0.52388 0.65749 0.77219 0.0
H498 H 0.43448 0.55598 0.73111 0.0
H499 H 0.49243 0.61504 0.81097 0.0
H500 H 0.40264 0.55144 0.87046 0.0
H501 H 0.44218 0.59093 0.83471 0.0
H502 H 0.42913 0.51684 0.76692 0.0
H503 H 0.38795 0.47738 0.80211 0.0
C504 C 0.47285 0.60141 0.71854 0.0
C505 C 0.4978 0.63073 0.72952 0.0
C506 C 0.45447 0.57748 0.74058 0.0
C507 C 0.46075 0.58192 0.77429 0.0
C508 C 0.48651 0.61091 0.78524 0.0
C509 C 0.50469 0.6352 0.76307 0.0
C510 C 0.40831 0.54351 0.84798 0.0
C511 C 0.39186 0.51131 0.83884 0.0
C512 C 0.43132 0.56622 0.82756 0.0
C513 C 0.43889 0.55727 0.79769 0.0
C514 C 0.42343 0.52478 0.78933 0.0
C515 C 0.3999 0.50208 0.80952 0.0
H516 H 0.42674 0.02044 0.02134 0.0
H517 H 0.52252 0.09958 0.02297 0.0
H518 H 0.4459 0.98704 0.99714 0.0
H519 H 0.54199 0.06622 0.0003 0.0
H520 H 0.56345 0.00424 0.93346 0.0
H521 H 0.54438 0.03884 0.95382 0.0
H522 H 0.47461 0.96204 0.01275 0.0
H523 H 0.49164 0.92696 0.99047 0.0
C524 C 0.45184 0.0306 0.01638 0.0
C525 C 0.47312 0.06251 0.02362 0.0
C526 C 0.46293 0.01153 0.00284 0.0
C527 C 0.49558 0.02389 0.99698 0.0
C528 C 0.51669 0.05601 0.00391 0.0
C529 C 0.50554 0.07513 0.01693 0.0
C530 C 0.54396 0.99471 0.95065 0.0
C531 C 0.52922 0.96274 0.96027 0.0
C532 C 0.53319 0.01465 0.96258 0.0
C533 C 0.50769 0.00315 0.98469 0.0
C534 C 0.49379 0.97155 0.99519 0.0
C535 C 0.50418 0.95156 0.98294 0.0
H536 H 0.8809 0.39175 0.96921 0.0
H537 H 0.95861 0.37356 0.95667 0.0
H538 H 0.91216 0.44375 0.94549 0.0
H539 H 0.98962 0.4252 0.93056 0.0
H540 H 0.05089 0.52937 0.95441 0.0
H541 H 0.01507 0.4733 0.95852 0.0
H542 H 0.94236 0.48394 0.9086 0.0
H543 H 0.97768 0.54121 0.90722 0.0
C544 C 0.90407 0.39817 0.9595 0.0
C545 C 0.91765 0.37897 0.96527 0.0
C546 C 0.92215 0.42819 0.94592 0.0
C547 C 0.95392 0.43923 0.93732 0.0
C548 C 0.96564 0.4179 0.93828 0.0
C549 C 0.9478 0.38812 0.95268 0.0
C550 C 0.02699 0.52014 0.94517 0.0
C551 C 0.0171 0.54017 0.93108 0.0
C552 C 0.00665 0.48757 0.94652 0.0
C553 C 0.97594 0.47378 0.93319 0.0
C554 C 0.96586 0.49369 0.9191 0.0
C555 C 0.98615 0.52656 0.91826 0.0
H556 H 0.45229 0.48867 0.92628 0.0
H557 H 0.4307 0.42872 0.01123 0.0
H558 H 0.50854 0.51538 0.94021 0.0
H559 H 0.48764 0.45532 0.02476 0.0
H560 H 0.59746 0.49356 0.01034 0.0
H561 H 0.54236 0.46445 0.99159 0.0
H562 H 0.53714 0.55045 0.99686 0.0
H563 H 0.59231 0.57964 0.01657 0.0
C564 C 0.45971 0.48055 0.94741 0.0
C565 C 0.43725 0.45625 0.96746 0.0
C566 C 0.4918 0.49612 0.9555 0.0
C567 C 0.50212 0.48735 0.98348 0.0
C568 C 0.47999 0.46227 0.00295 0.0
C569 C 0.44763 0.44706 0.99522 0.0
C570 C 0.58477 0.50641 0.00675 0.0
C571 C 0.59915 0.53894 0.01431 0.0
C572 C 0.55325 0.48967 0.99646 0.0
C573 C 0.53579 0.5053 0.993 0.0
C574 C 0.5504 0.53805 -0.00065 0.0
C575 C 0.58181 0.55471 0.0104 0.0
H576 H 0.02738 0.45305 0.5749 0.0
H577 H 0.04518 0.4315 0.47703 0.0
H578 H -0.00208 0.47633 0.55265 0.0
H579 H 0.01939 0.4588 0.45478 0.0
H580 H 0.95141 0.49101 0.42204 0.0
H581 H 0.97546 0.46158 0.44351 0.0
H582 H 0.0063 0.52236 0.52917 0.0
H583 H 0.97913 0.54972 0.50852 0.0
C584 C 0.0248 0.45274 0.54862 0.0
C585 C 0.03938 0.44055 0.52791 0.0
C586 C 0.00854 0.46715 0.53576 0.0
C587 C 0.00709 0.47068 0.50183 0.0
C588 C 0.01992 0.45677 0.48107 0.0
C589 C 0.03529 0.44139 0.49394 0.0
C590 C 0.96373 0.49828 0.44528 0.0
C591 C 0.96381 0.52277 0.46357 0.0
C592 C 0.97766 0.48142 0.45765 0.0
C593 C 0.99284 0.48925 0.4883 0.0
C594 C 0.99408 0.51489 0.50593 0.0
C595 C 0.97914 0.53109 0.49394 0.0
H596 H 0.4845 0.46983 0.40256 0.0
H597 H 0.43786 0.41299 0.4875 0.0
H598 H 0.50123 0.51805 0.43456 0.0
H599 H 0.45452 0.46121 0.51948 0.0
H600 H 0.50157 0.59625 0.50197 0.0
H601 H 0.48319 0.5502 0.46571 0.0
H602 H 0.50709 0.50208 0.53959 0.0
H603 H 0.52522 0.54787 0.57568 0.0
C604 C 0.47706 0.46764 0.42783 0.0
C605 C 0.46004 0.43766 0.44264 0.0
C606 C 0.4868 0.49526 0.44617 0.0
C607 C 0.47972 0.49336 0.47963 0.0
C608 C 0.46101 0.46337 0.4939 0.0
C609 C 0.4513 0.43579 0.4756 0.0
C610 C 0.50353 0.57607 0.51006 0.0
C611 C 0.51461 0.57545 0.54164 0.0
C612 C 0.49283 0.54969 0.48944 0.0
C613 C 0.49306 0.52233 0.50015 0.0
C614 C 0.50579 0.5225 0.53105 0.0
C615 C 0.51643 0.54877 0.55158 0.0
H616 H 0.56891 0.00646 0.4903 0.0
H617 H 0.53389 0.03382 0.40662 0.0
H618 H 0.51623 0.9825 0.51499 0.0
H619 H 0.48236 0.01234 0.43186 0.0
H620 H 0.38497 0.94652 0.47467 0.0
H621 H 0.43574 0.96899 0.4474 0.0
H622 H 0.48365 -0.00205 0.54087 0.0
H623 H 0.43324 0.97231 0.56828 0.0
C624 C 0.5498 0.00694 0.47712 0.0
C625 C 0.55524 0.02151 0.44649 0.0
C626 C 0.51979 0.99381 0.49139 0.0
C627 C 0.49505 0.99597 0.4757 0.0
C628 C 0.50049 0.00974 0.44455 0.0
C629 C 0.53012 0.02204 0.43 0.0
C630 C 0.40627 0.95757 0.4895 0.0
C631 C 0.40462 0.95661 0.52383 0.0
C632 C 0.43557 0.97085 0.47376 0.0
C633 C 0.46394 0.98446 0.49197 0.0
C634 C 0.46232 0.98649 0.52608 0.0
C635 C 0.43311 0.97247 0.54183 0.0
H636 H 0.34946 0.25876 0.28373 0.0
H637 H 0.40351 0.21639 0.31873 0.0
H638 H 0.33219 0.22306 0.23615 0.0
H639 H 0.38599 0.1804 0.27182 0.0
H640 H 0.35156 0.11684 0.18785 0.0
H641 H 0.33919 0.13677 0.23769 0.0
H642 H 0.37259 0.22769 0.19133 0.0
H643 H 0.38544 0.20775 0.14215 0.0
C644 C 0.35656 0.24094 0.28181 0.0
C645 C 0.37794 0.24029 0.30449 0.0
C646 C 0.34677 0.22063 0.25469 0.0
C647 C 0.35774 0.19901 0.25039 0.0
C648 C 0.37682 0.19653 0.27474 0.0
C649 C 0.38707 0.21722 0.30139 0.0
C650 C 0.35469 0.14052 0.18799 0.0
C651 C 0.36926 0.16089 0.16147 0.0
C652 C 0.34784 0.15197 0.21642 0.0
C653 C 0.35506 0.18377 0.21833 0.0
C654 C 0.3664 0.20298 0.1904 0.0
C655 C 0.37379 0.19169 0.16231 0.0
H656 H 0.76706 0.14827 0.30428 0.0
H657 H 0.67747 0.11501 0.25495 0.0
H658 H 0.79509 0.17121 0.25356 0.0
H659 H 0.7053 0.13679 0.20353 0.0
H660 H 0.76504 0.22659 0.14192 0.0
H661 H 0.73419 0.18897 0.18403 0.0
H662 H 0.80986 0.16784 0.19919 0.0
H663 H 0.84168 0.20728 0.15819 0.0
C664 C 0.75337 0.14494 0.28224 0.0
C665 C 0.72016 0.13025 0.2835 0.0
C666 C 0.76941 0.158 0.25306 0.0
C667 C 0.7525 0.15627 0.22443 0.0
C668 C 0.71911 0.13927 0.22526 0.0
C669 C 0.70313 0.12667 0.25458 0.0
C670 C 0.77514 0.21393 0.15417 0.0
C671 C 0.80617 0.22058 0.14725 0.0
C672 C 0.75717 0.19184 0.17803 0.0
C673 C 0.76959 0.17548 0.19534 0.0
C674 C 0.79978 0.18045 0.18677 0.0
C675 C 0.81792 0.20283 0.163 0.0
H676 H 0.85012 0.57466 0.28827 0.0
H677 H 0.81923 0.61769 0.36099 0.0
H678 H 0.82778 0.5924 0.24513 0.0
H679 H 0.79585 0.63492 0.31762 0.0
H680 H 0.71758 0.59486 0.22686 0.0
H681 H 0.74775 0.59708 0.27581 0.0
H682 H 0.83487 0.64667 0.22113 0.0
H683 H 0.80478 0.64471 0.17242 0.0
C684 C 0.83873 0.5882 0.29484 0.0
C685 C 0.83617 0.5948 0.3277 0.0
C686 C 0.82624 0.59858 0.27026 0.0
C687 C 0.81038 0.61521 0.27815 0.0
C688 C 0.80821 0.62232 0.31104 0.0
C689 C 0.82149 0.61255 0.33569 0.0
C690 C 0.74325 0.60725 0.22577 0.0
C691 C 0.75886 0.61942 0.19594 0.0
C692 C 0.76048 0.60864 0.2537 0.0
C693 C 0.79353 0.62183 0.252 0.0
C694 C 0.80937 0.63637 0.22293 0.0
C695 C 0.79218 0.63541 0.19516 0.0
H696 H 0.57224 0.78584 0.84293 0.0
H697 H 0.64389 0.87892 0.81135 0.0
H698 H 0.59052 0.76165 0.80274 0.0
H699 H 0.66278 0.85469 0.77105 0.0
H700 H 0.62926 0.79268 0.67237 0.0
H701 H 0.63655 0.82569 0.72015 0.0
H702 H 0.63279 0.75228 0.78254 0.0
H703 H 0.62473 0.71907 0.7347 0.0
C704 C 0.59231 0.80109 0.82769 0.0
C705 C 0.60632 0.8342 0.82984 0.0
C706 C 0.60314 0.78728 0.80497 0.0
C707 C 0.62816 0.80627 0.78366 0.0
C708 C 0.64341 0.83947 0.78708 0.0
C709 C 0.6327 0.85332 0.81016 0.0
C710 C 0.63132 0.78423 0.69621 0.0
C711 C 0.62583 0.75315 0.69986 0.0
C712 C 0.63559 0.80313 0.72363 0.0
C713 C 0.63446 0.79123 0.75519 0.0
C714 C 0.63316 0.76181 0.75852 0.0
C715 C 0.62891 0.74291 0.73106 0.0
H716 H 0.14255 0.71448 0.7796 0.0
H717 H 0.1767 0.78651 0.85464 0.0
H718 H 0.16638 0.75536 0.73772 0.0
H719 H 0.2014 0.82792 0.81255 0.0
H720 H 0.28147 0.86427 0.72556 0.0
H721 H 0.24859 0.83712 0.773 0.0
H722 H 0.16432 0.80409 0.71375 0.0
H723 H 0.19711 0.83108 0.66639 0.0
C724 C 0.15489 0.7392 0.78693 0.0
C725 C 0.15813 0.74758 0.82006 0.0
C726 C 0.1682 0.76256 0.76308 0.0
C727 C 0.18548 0.79473 0.77202 0.0
C728 C 0.18797 0.80324 0.80518 0.0
C729 C 0.17395 0.77974 0.82909 0.0
C730 C 0.25588 0.85201 0.72303 0.0
C731 C 0.24183 0.84928 0.69229 0.0
C732 C 0.2371 0.83675 0.75016 0.0
C733 C 0.20403 0.81832 0.74677 0.0
C734 C 0.18982 0.81811 0.71681 0.0
C735 C 0.20859 0.83365 0.68979 0.0
H736 H 0.18313 0.37345 0.67648 0.0
H737 H 0.13726 0.42061 0.72087 0.0
H738 H 0.20533 0.37155 0.7294 0.0
H739 H 0.15849 0.41792 0.77412 0.0
H740 H 0.24253 0.4546 0.84517 0.0
H741 H 0.21005 0.44615 0.79714 0.0
H742 H 0.19889 0.35273 0.78474 0.0
H743 H 0.23303 0.36201 0.83226 0.0
C744 C 0.17702 0.38251 0.6978 0.0
C745 C 0.15881 0.3975 0.69461 0.0
C746 C 0.18969 0.38142 0.72818 0.0
C747 C 0.18412 0.39504 0.756 0.0
C748 C 0.16394 0.40793 0.75308 0.0
C749 C 0.15163 0.40935 0.72268 0.0
C750 C 0.2333 0.43229 0.83219 0.0
C751 C 0.24085 0.40921 0.84227 0.0
C752 C 0.21416 0.42719 0.80486 0.0
C753 C 0.20178 0.39872 0.78696 0.0
C754 C 0.20832 0.37507 0.79774 0.0
C755 C 0.22763 0.38025 0.82515 0.0
H756 H 0.50118 0.24617 0.05157 0.0
H757 H 0.51454 0.25821 0.15619 0.0
H758 H 0.53672 0.30286 0.04409 0.0
H759 H 0.55032 0.31508 0.14859 0.0
H760 H 0.63668 0.39072 0.044 0.0
H761 H 0.5955 0.3359 0.05249 0.0
H762 H 0.55394 0.36585 0.12796 0.0
H763 H 0.59479 0.42089 0.11913 0.0
C764 C 0.51125 0.261 0.07302 0.0
C765 C 0.50531 0.24774 0.10446 0.0
C766 C 0.53179 0.29341 0.06869 0.0
C767 C 0.54664 0.31321 0.09572 0.0
C768 C 0.53914 0.30032 0.12733 0.0
C769 C 0.51868 0.2678 0.13167 0.0
C770 C 0.61867 0.38575 0.0622 0.0
C771 C 0.61914 0.4103 0.08085 0.0
C772 C 0.59504 0.35433 0.06703 0.0
C773 C 0.5714 0.34669 0.0907 0.0
C774 C 0.572 0.37108 0.10968 0.0
C775 C 0.59554 0.40258 0.10471 0.0
H776 H 0.76029 0.30954 0.05211 0.0
H777 H 0.76634 0.3082 0.15741 0.0
H778 H 0.70272 0.28177 0.05524 0.0
H779 H 0.70793 0.28006 0.16049 0.0
H780 H 0.59758 0.24663 0.14111 0.0
H781 H 0.65517 0.28431 0.14159 0.0
H782 H 0.66928 0.22279 0.07588 0.0
H783 H 0.6124 0.1855 0.07559 0.0
C784 C 0.74927 0.30376 0.07601 0.0
C785 C 0.76766 0.31051 0.10453 0.0
C786 C 0.71633 0.28791 0.07774 0.0
C787 C 0.70104 0.2785 0.10803 0.0
C788 C 0.71932 0.28721 0.13685 0.0
C789 C 0.75258 0.30317 0.13511 0.0
C790 C 0.61313 0.24147 0.12666 0.0
C791 C 0.60072 0.21325 0.1083 0.0
C792 C 0.64591 0.26278 0.12716 0.0
C793 C 0.66645 0.25637 0.10871 0.0
C794 C 0.65387 0.22834 0.09015 0.0
C795 C 0.62142 0.20696 0.09009 0.0
H796 H 0.80682 0.40676 0.10944 0.0
H797 H 0.8858 0.48491 0.06088 0.0
H798 H 0.78171 0.43877 0.1169 0.0
H799 H 0.86063 0.51758 0.06887 0.0
H800 H 0.77632 0.54064 0.05375 0.0
H801 H 0.8111 0.51783 0.04882 0.0
H802 H 0.79086 0.48597 0.14891 0.0
H803 H 0.75595 0.50834 0.15375 0.0
C804 C 0.81871 0.43076 0.10009 0.0
C805 C 0.8481 0.44322 0.08416 0.0
C806 C 0.80455 0.4493 0.10484 0.0
C807 C 0.81935 0.48079 0.09374 0.0
C808 C 0.84871 0.49336 0.07766 0.0
C809 C 0.86312 0.47478 0.07317 0.0
C810 C 0.77993 0.52944 0.07492 0.0
C811 C 0.76308 0.52586 0.10399 0.0
C812 C 0.79987 0.51642 0.07209 0.0
C813 C 0.80321 0.49963 0.09829 0.0
C814 C 0.78821 0.49822 0.12809 0.0
C815 C 0.76834 0.51117 0.13091 0.0
H816 H 0.75592 0.44945 0.35914 0.0
H817 H 0.76888 0.49516 0.45315 0.0
H818 H 0.69893 0.42463 0.36492 0.0
H819 H 0.71102 0.46975 0.45911 0.0
H820 H 0.61178 0.45607 0.4237 0.0
H821 H 0.66807 0.47477 0.43157 0.0
H822 H 0.65411 0.38471 0.39664 0.0
H823 H 0.59801 0.36646 0.3876 0.0
C824 C 0.74657 0.45411 0.38119 0.0
C825 C 0.76689 0.47449 0.4056 0.0
C826 C 0.71381 0.43949 0.38468 0.0
C827 C 0.70045 0.44494 0.41262 0.0
C828 C 0.72071 0.46514 0.43729 0.0
C829 C 0.75373 0.47968 0.43389 0.0
C830 C 0.62068 0.44016 0.418 0.0
C831 C 0.60061 0.41009 0.40424 0.0
C832 C 0.65286 0.45073 0.42292 0.0
C833 C 0.66559 0.4314 0.4142 0.0
C834 C 0.64502 0.40034 0.40303 0.0
C835 C 0.61282 0.38977 0.3981 0.0
H836 H 0.55076 0.17362 0.45426 0.0
H837 H 0.60157 0.2114 0.36406 0.0
H838 H 0.52134 0.20162 0.4451 0.0
H839 H 0.57293 0.23988 0.35515 0.0
H840 H 0.49952 0.26634 0.33127 0.0
H841 H 0.52244 0.23259 0.34136 0.0
H842 H 0.52766 0.25371 0.44469 0.0
H843 H 0.50346 0.28657 0.43453 0.0
C844 C 0.55575 0.18807 0.43259 0.0
C845 C 0.57837 0.1902 0.40982 0.0
C846 C 0.53895 0.20416 0.42734 0.0
C847 C 0.54459 0.22293 0.3993 0.0
C848 C 0.56735 0.22508 0.37663 0.0
C849 C 0.58389 0.2088 0.38175 0.0
C850 C 0.50524 0.26346 0.35619 0.0
C851 C 0.4999 0.27919 0.38211 0.0
C852 C 0.51861 0.24431 0.36197 0.0
C853 C 0.52743 0.24079 0.39378 0.0
C854 C 0.52096 0.25564 0.41991 0.0
C855 C 0.50716 0.27454 0.41413 0.0
H856 H 0.8426 0.37335 0.44861 0.0
H857 H 0.77155 0.38498 0.3966 0.0
H858 H 0.80982 0.31577 0.44308 0.0
H859 H 0.73857 0.32781 0.39225 0.0
H860 H 0.71281 0.23384 0.34647 0.0
H861 H 0.74637 0.2899 0.35846 0.0
H862 H 0.75744 0.26754 0.45806 0.0
H863 H 0.72374 0.21081 0.44589 0.0
C864 C 0.81985 0.36365 0.43643 0.0
C865 C 0.80998 0.38382 0.42258 0.0
C866 C 0.80101 0.33071 0.43352 0.0
C867 C 0.772 0.31743 0.41668 0.0
C868 C 0.7612 0.33749 0.40476 0.0
C869 C 0.77997 0.37031 0.40764 0.0
C870 C 0.72264 0.24078 0.37086 0.0
C871 C 0.71549 0.21802 0.39534 0.0
C872 C 0.74163 0.27291 0.37779 0.0
C873 C 0.75386 0.28306 0.40938 0.0
C874 C 0.74815 0.26029 0.43353 0.0
C875 C 0.72901 0.22791 0.42655 0.0
H876 H 0.37407 0.59715 0.92686 0.0
H877 H 0.45293 0.61502 0.98958 0.0
H878 H 0.39872 0.65346 0.91519 0.0
H879 H 0.47831 0.67151 0.9768 0.0
H880 H 0.50079 0.7755 0.96428 0.0
H881 H 0.47487 0.7202 0.98212 0.0
H882 H 0.44491 0.68936 0.88276 0.0
H883 H 0.47024 0.74438 0.8651 0.0
C884 C 0.39635 0.61309 0.93872 0.0
C885 C 0.41162 0.6015 0.95907 0.0
C886 C 0.41075 0.64538 0.93158 0.0
C887 C 0.44074 0.66683 0.94456 0.0
C888 C 0.4552 0.65557 0.96639 0.0
C889 C 0.44077 0.62322 0.97356 0.0
C890 C 0.48892 0.75686 0.94624 0.0
C891 C 0.48744 0.76422 0.91332 0.0
C892 C 0.47407 0.72523 0.95646 0.0
C893 C 0.45745 0.70045 0.93393 0.0
C894 C 0.45688 0.70792 0.90085 0.0
C895 C 0.47168 0.73945 0.89067 0.0
H896 H 0.21585 0.70751 0.95302 0.0
H897 H 0.23861 0.68318 0.85908 0.0
H898 H 0.27281 0.74008 0.96518 0.0
H899 H 0.29463 0.71543 0.87096 0.0
H900 H 0.39254 0.7553 0.90462 0.0
H901 H 0.33603 0.71743 0.90656 0.0
H902 H 0.31832 0.79037 0.94391 0.0
H903 H 0.37515 0.82809 0.94332 0.0
C904 C 0.23294 0.70903 0.9351 0.0
C905 C 0.22278 0.69293 0.90507 0.0
C906 C 0.26545 0.72762 0.94202 0.0
C907 C 0.28818 0.73002 0.91916 0.0
C908 C 0.2778 0.71356 0.88939 0.0
C909 C 0.24558 0.69531 0.88244 0.0
C910 C 0.37684 0.76316 0.91416 0.0
C911 C 0.38841 0.79499 0.92319 0.0
C912 C 0.34435 0.74146 0.91498 0.0
C913 C 0.32269 0.7511 0.92476 0.0
C914 C 0.3344 0.78223 0.93621 0.0
C915 C 0.36694 0.80394 0.93546 0.0
H916 H 0.13253 0.51305 0.9466 0.0
H917 H 0.21781 0.60104 0.92406 0.0
H918 H 0.16474 0.49009 0.96417 0.0
H919 H 0.24979 0.57828 0.94209 0.0
H920 H 0.30352 0.53623 0.98498 0.0
H921 H 0.26587 0.55581 0.98796 0.0
H922 H 0.19837 0.47499 0.93121 0.0
H923 H 0.23611 0.45568 0.92843 0.0
C924 C 0.15809 0.52761 0.94564 0.0
C925 C 0.17253 0.55875 0.93335 0.0
C926 C 0.17651 0.51449 0.95591 0.0
C927 C 0.20975 0.53232 0.95439 0.0
C928 C 0.22421 0.56405 0.944 0.0
C929 C 0.20582 0.57711 0.93356 0.0
C930 C 0.28013 0.52216 0.97432 0.0
C931 C 0.27232 0.49439 0.95681 0.0
C932 C 0.25873 0.53343 0.97576 0.0
C933 C 0.22931 0.51708 0.95958 0.0
C934 C 0.22068 0.48792 0.94426 0.0
C935 C 0.24217 0.47679 0.94269 0.0
H936 H 0.38187 0.6329 0.5757 0.0
H937 H 0.41304 0.56701 0.60185 0.0
H938 H 0.3299 0.58869 0.55986 0.0
H939 H 0.36058 0.52239 0.58716 0.0
H940 H 0.25281 0.48484 0.63111 0.0
H941 H 0.31028 0.5153 0.62376 0.0
H942 H 0.29697 0.53391 0.52354 0.0
H943 H 0.23919 0.50221 0.53062 0.0
C944 C 0.37783 0.6089 0.57666 0.0
C945 C 0.40109 0.60304 0.58967 0.0
C946 C 0.34828 0.58366 0.5676 0.0
C947 C 0.3414 0.55224 0.57232 0.0
C948 C 0.36553 0.54645 0.58305 0.0
C949 C 0.39539 0.57181 0.59134 0.0
C950 C 0.26225 0.49433 0.60717 0.0
C951 C 0.24188 0.4913 0.58141 0.0
C952 C 0.29504 0.51158 0.60289 0.0
C953 C 0.30789 0.52681 0.57306 0.0
C954 C 0.28751 0.52208 0.54663 0.0
C955 C 0.2546 0.50397 0.55066 0.0
H956 H 0.39348 0.79051 0.63601 0.0
H957 H 0.43965 0.83156 0.54451 0.0
H958 H 0.43351 0.77576 0.64788 0.0
H959 H 0.48032 0.81757 0.55658 0.0
H960 H 0.51024 0.74067 0.56806 0.0
H961 H 0.48289 0.77016 0.5578 0.0
H962 H 0.48723 0.79194 0.66088 0.0
H963 H 0.51361 0.76126 0.67123 0.0
C964 C 0.41255 0.79689 0.61872 0.0
C965 C 0.41317 0.81173 0.58912 0.0
C966 C 0.43568 0.78865 0.62558 0.0
C967 C 0.46017 0.79538 0.60312 0.0
C968 C 0.4615 0.81149 0.57414 0.0
C969 C 0.43818 0.81944 0.56717 0.0
C970 C 0.50618 0.75251 0.58841 0.0
C971 C 0.51363 0.74828 0.62049 0.0
C972 C 0.49049 0.76951 0.58254 0.0
C973 C 0.48224 0.78292 0.60862 0.0
C974 C 0.49245 0.78118 0.64035 0.0
C975 C 0.50786 0.76389 0.64625 0.0
H976 H 0.25675 0.748 0.6478 0.0
H977 H 0.26329 0.76175 0.5433 0.0
H978 H 0.22832 0.69069 0.63976 0.0
H979 H 0.23647 0.70456 0.535 0.0
H980 H 0.17304 0.59857 0.52794 0.0
H981 H 0.19089 0.65456 0.53777 0.0
H982 H 0.2411 0.6522 0.62422 0.0
H983 H 0.22196 0.59607 0.61491 0.0
C984 C 0.25182 0.73867 0.62309 0.0
C985 C 0.26226 0.75921 0.59617 0.0
C986 C 0.23583 0.70583 0.61843 0.0
C987 C 0.23055 0.69282 0.58672 0.0
C988 C 0.23975 0.71354 0.55978 0.0
C989 C 0.25521 0.74639 0.56449 0.0
C990 C 0.18784 0.61018 0.54904 0.0
C991 C 0.19621 0.59312 0.57064 0.0
C992 C 0.19815 0.64225 0.55469 0.0
C993 C 0.21752 0.65811 0.5818 0.0
C994 C 0.22565 0.64078 0.60349 0.0
C995 C 0.21488 0.60861 0.59811 0.0
loop_
_geom_bond_atom_site_label_1
_geom_bond_atom_site_label_2
_geom_bond_distance
_geom_bond_site_symmetry_2
_ccdc_geom_bond_type
Co0 N4 2.148 . S
Co0 N10 2.128 . S
Co0 N20 2.194 . S
Co0 O25 2.351 . S
Co0 O26 2.155 . S
Co0 O27 2.096 . S
C1 N4 1.301 . S
C1 N5 1.328 . S
C1 H6 0.930 . S
C2 C3 1.333 . S
C2 N4 1.317 . S
C2 H7 0.930 . S
C3 C2 1.333 . S
C3 N5 1.350 . S
C3 H29 0.931 . S
N4 Co0 2.148 . S
N4 C1 1.301 . S
N4 C2 1.317 . S
N5 C1 1.328 . S
N5 C3 1.350 . S
H6 C1 0.930 . S
H7 C2 0.930 . S
C8 O9 1.224 . S
C8 O27 1.247 . S
O9 C8 1.224 . S
N10 Co0 2.128 . S
N10 C11 1.355 . S
N10 C13 1.311 . S
C11 N10 1.355 . S
C11 C12 1.363 . S
C11 H23 0.929 . S
C12 C11 1.363 . S
C12 N14 1.375 . S
C12 H30 0.931 . S
C13 N10 1.311 . S
C13 N14 1.347 . S
C13 H24 0.929 . S
N14 C12 1.375 . S
N14 C13 1.347 . S
C15 C18 1.365 . S
C15 N20 1.328 . S
C15 H21 0.929 . S
C16 C17 1.362 . S
C16 C19 1.378 . S
C16 H31 0.929 . S
C17 C16 1.362 . S
C17 C18 1.366 . S
C18 C15 1.365 . S
C18 C17 1.366 . S
C18 H32 0.930 1_554 S
C19 C16 1.378 . S
C19 N20 1.315 . S
C19 H22 0.930 . S
N20 Co0 2.194 . S
N20 C15 1.328 . S
N20 C19 1.315 . S
H21 C15 0.929 . S
H22 C19 0.930 . S
H23 C11 0.929 . S
H24 C13 0.929 . S
O25 Co0 2.351 . S
O25 C28 1.244 . S
O26 Co0 2.155 . S
O26 C28 1.240 . S
O27 Co0 2.096 . S
O27 C8 1.247 . S
C28 O25 1.244 . S
C28 O26 1.240 . S
H29 C3 0.931 . S
H30 C12 0.931 . S
H31 C16 0.929 . S
H32 C18 0.930 1_556 S
Co33 N37 2.148 . S
Co33 N43 2.128 . S
Co33 N53 2.194 . S
Co33 O58 2.351 . S
Co33 O59 2.155 . S
Co33 O60 2.096 . S
C34 N37 1.301 . S
C34 N38 1.328 . S
C34 H39 0.930 . S
C35 C36 1.333 . S
C35 N37 1.317 . S
C35 H40 0.930 . S
C36 C35 1.333 . S
C36 N38 1.350 . S
C36 H62 0.931 . S
N37 Co33 2.148 . S
N37 C34 1.301 . S
N37 C35 1.317 . S
N38 C34 1.328 . S
N38 C36 1.350 . S
H39 C34 0.930 . S
H40 C35 0.930 . S
C41 O42 1.224 . S
C41 O60 1.247 . S
O42 C41 1.224 . S
N43 Co33 2.128 . S
N43 C44 1.355 . S
N43 C46 1.311 . S
C44 N43 1.355 . S
C44 C45 1.363 . S
C44 H56 0.929 . S
C45 C44 1.363 . S
C45 N47 1.375 . S
C45 H63 0.931 . S
C46 N43 1.311 . S
C46 N47 1.347 . S
C46 H57 0.929 . S
N47 C45 1.375 . S
N47 C46 1.347 . S
C48 C51 1.365 . S
C48 N53 1.328 . S
C48 H54 0.929 . S
C49 C50 1.362 . S
C49 C52 1.378 . S
C49 H64 0.929 . S
C50 C49 1.362 . S
C50 C51 1.366 . S
C51 C48 1.365 . S
C51 C50 1.366 . S
C51 H65 0.930 1_554 S
C52 C49 1.378 . S
C52 N53 1.315 . S
C52 H55 0.930 . S
N53 Co33 2.194 . S
N53 C48 1.328 . S
N53 C52 1.315 . S
H54 C48 0.929 . S
H55 C52 0.930 . S
H56 C44 0.929 . S
H57 C46 0.929 . S
O58 Co33 2.351 . S
O58 C61 1.244 . S
O59 Co33 2.155 . S
O59 C61 1.240 . S
O60 Co33 2.096 . S
O60 C41 1.247 . S
C61 O58 1.244 . S
C61 O59 1.240 . S
H62 C36 0.931 . S
H63 C45 0.931 . S
H64 C49 0.929 . S
H65 C51 0.930 1_556 S
Co66 N70 2.148 . S
Co66 N76 2.128 . S
Co66 N86 2.194 . S
Co66 O91 2.351 . S
Co66 O92 2.155 . S
Co66 O93 2.096 . S
C67 N70 1.301 . S
C67 N71 1.328 . S
C67 H72 0.930 . S
C68 C69 1.333 . S
C68 N70 1.317 . S
C68 H73 0.930 . S
C69 C68 1.333 . S
C69 N71 1.350 . S
C69 H95 0.931 . S
N70 Co66 2.148 . S
N70 C67 1.301 . S
N70 C68 1.317 . S
N71 C67 1.328 . S
N71 C69 1.350 . S
H72 C67 0.930 . S
H73 C68 0.930 . S
C74 O75 1.224 . S
C74 O93 1.247 . S
O75 C74 1.224 . S
N76 Co66 2.128 . S
N76 C77 1.355 . S
N76 C79 1.311 . S
C77 N76 1.355 . S
C77 C78 1.363 . S
C77 H89 0.929 . S
C78 C77 1.363 . S
C78 N80 1.375 . S
C78 H96 0.931 . S
C79 N76 1.311 . S
C79 N80 1.347 . S
C79 H90 0.929 . S
N80 C78 1.375 . S
N80 C79 1.347 . S
C81 C84 1.365 . S
C81 N86 1.328 . S
C81 H87 0.929 . S
C82 C83 1.362 . S
C82 C85 1.378 . S
C82 H97 0.929 . S
C83 C82 1.362 . S
C83 C84 1.366 . S
C84 C81 1.365 . S
C84 C83 1.366 . S
C84 H98 0.930 1_554 S
C85 C82 1.378 . S
C85 N86 1.315 . S
C85 H88 0.930 . S
N86 Co66 2.194 . S
N86 C81 1.328 . S
N86 C85 1.315 . S
H87 C81 0.929 . S
H88 C85 0.930 . S
H89 C77 0.929 . S
H90 C79 0.929 . S
O91 Co66 2.351 . S
O91 C94 1.244 . S
O92 Co66 2.155 . S
O92 C94 1.240 . S
O93 Co66 2.096 . S
O93 C74 1.247 . S
C94 O91 1.244 . S
C94 O92 1.240 . S
H95 C69 0.931 . S
H96 C78 0.931 . S
H97 C82 0.929 . S
H98 C84 0.930 1_556 S
Co99 N103 2.148 . S
Co99 N109 2.128 . S
Co99 N119 2.194 . S
Co99 O124 2.351 . S
Co99 O125 2.155 . S
Co99 O126 2.096 . S
C100 N103 1.301 . S
C100 N104 1.328 . S
C100 H105 0.930 . S
C101 C102 1.333 . S
C101 N103 1.317 . S
C101 H106 0.930 . S
C102 C101 1.333 . S
C102 N104 1.350 . S
C102 H128 0.931 . S
N103 Co99 2.148 . S
N103 C100 1.301 . S
N103 C101 1.317 . S
N104 C100 1.328 . S
N104 C102 1.350 . S
H105 C100 0.930 . S
H106 C101 0.930 . S
C107 O108 1.224 . S
C107 O126 1.247 . S
O108 C107 1.224 . S
N109 Co99 2.128 . S
N109 C110 1.355 . S
N109 C112 1.311 . S
C110 N109 1.355 . S
C110 C111 1.363 . S
C110 H122 0.929 . S
C111 C110 1.363 . S
C111 N113 1.375 . S
C111 H129 0.931 . S
C112 N109 1.311 . S
C112 N113 1.347 . S
C112 H123 0.929 . S
N113 C111 1.375 . S
N113 C112 1.347 . S
C114 C117 1.365 . S
C114 N119 1.328 . S
C114 H120 0.929 . S
C115 C116 1.362 . S
C115 C118 1.378 . S
C115 H130 0.929 . S
C116 C115 1.362 . S
C116 C117 1.366 . S
C117 C114 1.365 . S
C117 C116 1.366 . S
C117 H131 0.930 . S
C118 C115 1.378 . S
C118 N119 1.315 . S
C118 H121 0.930 . S
N119 Co99 2.194 . S
N119 C114 1.328 . S
N119 C118 1.315 . S
H120 C114 0.929 . S
H121 C118 0.930 . S
H122 C110 0.929 . S
H123 C112 0.929 . S
O124 Co99 2.351 . S
O124 C127 1.244 . S
O125 Co99 2.155 . S
O125 C127 1.240 . S
O126 Co99 2.096 . S
O126 C107 1.247 . S
C127 O124 1.244 . S
C127 O125 1.240 . S
H128 C102 0.931 . S
H129 C111 0.931 . S
H130 C115 0.929 . S
H131 C117 0.930 . S
Co132 N136 2.148 . S
Co132 N142 2.128 . S
Co132 N152 2.194 . S
Co132 O157 2.351 . S
Co132 O158 2.155 . S
Co132 O159 2.096 . S
C133 N136 1.301 . S
C133 N137 1.328 . S
C133 H138 0.930 . S
C134 C135 1.333 . S
C134 N136 1.317 . S
C134 H139 0.930 . S
C135 C134 1.333 . S
C135 N137 1.350 . S
C135 H161 0.931 . S
N136 Co132 2.148 . S
N136 C133 1.301 . S
N136 C134 1.317 . S
N137 C133 1.328 . S
N137 C135 1.350 . S
H138 C133 0.930 . S
H139 C134 0.930 . S
C140 O141 1.224 . S
C140 O159 1.247 . S
O141 C140 1.224 . S
N142 Co132 2.128 . S
N142 C143 1.355 . S
N142 C145 1.311 . S
C143 N142 1.355 . S
C143 C144 1.363 . S
C143 H155 0.929 . S
C144 C143 1.363 . S
C144 N146 1.375 . S
C144 H162 0.931 . S
C145 N142 1.311 . S
C145 N146 1.347 . S
C145 H156 0.929 . S
N146 C144 1.375 . S
N146 C145 1.347 . S
C147 C150 1.365 . S
C147 N152 1.328 . S
C147 H153 0.929 . S
C148 C149 1.362 . S
C148 C151 1.378 . S
C148 H163 0.929 . S
C149 C148 1.362 . S
C149 C150 1.366 . S
C150 C147 1.365 . S
C150 C149 1.366 . S
C150 H164 0.930 . S
C151 C148 1.378 . S
C151 N152 1.315 . S
C151 H154 0.930 . S
N152 Co132 2.194 . S
N152 C147 1.328 . S
N152 C151 1.315 . S
H153 C147 0.929 . S
H154 C151 0.930 . S
H155 C143 0.929 . S
H156 C145 0.929 . S
O157 Co132 2.351 . S
O157 C160 1.244 . S
O158 Co132 2.155 . S
O158 C160 1.240 . S
O159 Co132 2.096 . S
O159 C140 1.247 . S
C160 O157 1.244 . S
C160 O158 1.240 . S
H161 C135 0.931 . S
H162 C144 0.931 . S
H163 C148 0.929 . S
H164 C150 0.930 . S
Co165 N169 2.148 . S
Co165 N175 2.128 . S
Co165 N185 2.194 . S
Co165 O190 2.351 . S
Co165 O191 2.155 . S
Co165 O192 2.096 . S
C166 N169 1.301 . S
C166 N170 1.328 . S
C166 H171 0.930 . S
C167 C168 1.333 . S
C167 N169 1.317 . S
C167 H172 0.930 . S
C168 C167 1.333 . S
C168 N170 1.350 . S
C168 H194 0.931 . S
N169 Co165 2.148 . S
N169 C166 1.301 . S
N169 C167 1.317 . S
N170 C166 1.328 . S
N170 C168 1.350 . S
H171 C166 0.930 . S
H172 C167 0.930 . S
C173 O174 1.224 . S
C173 O192 1.247 . S
O174 C173 1.224 . S
N175 Co165 2.128 . S
N175 C176 1.355 . S
N175 C178 1.311 . S
C176 N175 1.355 . S
C176 C177 1.363 . S
C176 H188 0.929 . S
C177 C176 1.363 . S
C177 N179 1.375 . S
C177 H195 0.931 . S
C178 N175 1.311 . S
C178 N179 1.347 . S
C178 H189 0.929 . S
N179 C177 1.375 . S
N179 C178 1.347 . S
C180 C183 1.365 . S
C180 N185 1.328 . S
C180 H186 0.929 . S
C181 C182 1.362 . S
C181 C184 1.378 . S
C181 H196 0.929 . S
C182 C181 1.362 . S
C182 C183 1.366 . S
C183 C180 1.365 . S
C183 C182 1.366 . S
C183 H197 0.930 . S
C184 C181 1.378 . S
C184 N185 1.315 . S
C184 H187 0.930 . S
N185 Co165 2.194 . S
N185 C180 1.328 . S
N185 C184 1.315 . S
H186 C180 0.929 . S
H187 C184 0.930 . S
H188 C176 0.929 . S
H189 C178 0.929 . S
O190 Co165 2.351 . S
O190 C193 1.244 . S
O191 Co165 2.155 . S
O191 C193 1.240 . S
O192 Co165 2.096 . S
O192 C173 1.247 . S
C193 O190 1.244 . S
C193 O191 1.240 . S
H194 C168 0.931 . S
H195 C177 0.931 . S
H196 C181 0.929 . S
H197 C183 0.930 . S
Co198 N202 2.148 . S
Co198 N208 2.128 . S
Co198 N218 2.194 . S
Co198 O223 2.351 . S
Co198 O224 2.155 . S
Co198 O225 2.096 . S
C199 N202 1.301 . S
C199 N203 1.328 . S
C199 H204 0.930 . S
C200 C201 1.333 . S
C200 N202 1.317 . S
C200 H205 0.930 . S
C201 C200 1.333 . S
C201 N203 1.350 . S
C201 H227 0.931 . S
N202 Co198 2.148 . S
N202 C199 1.301 . S
N202 C200 1.317 . S
N203 C199 1.328 . S
N203 C201 1.350 . S
H204 C199 0.930 . S
H205 C200 0.930 . S
C206 O207 1.224 . S
C206 O225 1.247 . S
O207 C206 1.224 . S
N208 Co198 2.128 . S
N208 C209 1.355 . S
N208 C211 1.311 . S
C209 N208 1.355 . S
C209 C210 1.363 . S
C209 H221 0.929 . S
C210 C209 1.363 . S
C210 N212 1.375 . S
C210 H228 0.931 . S
C211 N208 1.311 . S
C211 N212 1.347 . S
C211 H222 0.929 . S
N212 C210 1.375 . S
N212 C211 1.347 . S
C213 C216 1.365 . S
C213 N218 1.328 . S
C213 H219 0.929 . S
C214 C215 1.362 . S
C214 C217 1.378 . S
C214 H229 0.929 . S
C215 C214 1.362 . S
C215 C216 1.366 . S
C216 C213 1.365 . S
C216 C215 1.366 . S
C216 H230 0.930 1_556 S
C217 C214 1.378 . S
C217 N218 1.315 . S
C217 H220 0.930 . S
N218 Co198 2.194 . S
N218 C213 1.328 . S
N218 C217 1.315 . S
H219 C213 0.929 . S
H220 C217 0.930 . S
H221 C209 0.929 . S
H222 C211 0.929 . S
O223 Co198 2.351 . S
O223 C226 1.244 . S
O224 Co198 2.155 . S
O224 C226 1.240 . S
O225 Co198 2.096 . S
O225 C206 1.247 . S
C226 O223 1.244 . S
C226 O224 1.240 . S
H227 C201 0.931 . S
H228 C210 0.931 . S
H229 C214 0.929 . S
H230 C216 0.930 1_554 S
Co231 N235 2.148 . S
Co231 N241 2.128 . S
Co231 N251 2.194 . S
Co231 O256 2.351 . S
Co231 O257 2.155 . S
Co231 O258 2.096 . S
C232 N235 1.301 . S
C232 N236 1.328 . S
C232 H237 0.930 . S
C233 C234 1.333 . S
C233 N235 1.317 . S
C233 H238 0.930 . S
C234 C233 1.333 . S
C234 N236 1.350 . S
C234 H260 0.931 . S
N235 Co231 2.148 . S
N235 C232 1.301 . S
N235 C233 1.317 . S
N236 C232 1.328 . S
N236 C234 1.350 . S
H237 C232 0.930 . S
H238 C233 0.930 . S
C239 O240 1.224 . S
C239 O258 1.247 . S
O240 C239 1.224 . S
N241 Co231 2.128 . S
N241 C242 1.355 . S
N241 C244 1.311 . S
C242 N241 1.355 . S
C242 C243 1.363 . S
C242 H254 0.929 . S
C243 C242 1.363 . S
C243 N245 1.375 . S
C243 H261 0.931 . S
C244 N241 1.311 . S
C244 N245 1.347 . S
C244 H255 0.929 . S
N245 C243 1.375 . S
N245 C244 1.347 . S
C246 C249 1.365 . S
C246 N251 1.328 . S
C246 H252 0.929 . S
C247 C248 1.362 . S
C247 C250 1.378 . S
C247 H262 0.929 . S
C248 C247 1.362 . S
C248 C249 1.366 . S
C249 C246 1.365 . S
C249 C248 1.366 . S
C249 H263 0.930 1_556 S
C250 C247 1.378 . S
C250 N251 1.315 . S
C250 H253 0.930 . S
N251 Co231 2.194 . S
N251 C246 1.328 . S
N251 C250 1.315 . S
H252 C246 0.929 . S
H253 C250 0.930 . S
H254 C242 0.929 . S
H255 C244 0.929 . S
O256 Co231 2.351 . S
O256 C259 1.244 . S
O257 Co231 2.155 . S
O257 C259 1.240 . S
O258 Co231 2.096 . S
O258 C239 1.247 . S
C259 O256 1.244 . S
C259 O257 1.240 . S
H260 C234 0.931 . S
H261 C243 0.931 . S
H262 C247 0.929 . S
H263 C249 0.930 1_554 S
Co264 N268 2.148 . S
Co264 N274 2.128 . S
Co264 N284 2.194 . S
Co264 O289 2.351 . S
Co264 O290 2.155 . S
Co264 O291 2.096 . S
C265 N268 1.301 . S
C265 N269 1.328 . S
C265 H270 0.930 . S
C266 C267 1.333 . S
C266 N268 1.317 . S
C266 H271 0.930 . S
C267 C266 1.333 . S
C267 N269 1.350 . S
C267 H293 0.931 . S
N268 Co264 2.148 . S
N268 C265 1.301 . S
N268 C266 1.317 . S
N269 C265 1.328 . S
N269 C267 1.350 . S
H270 C265 0.930 . S
H271 C266 0.930 . S
C272 O273 1.224 . S
C272 O291 1.247 . S
O273 C272 1.224 . S
N274 Co264 2.128 . S
N274 C275 1.355 . S
N274 C277 1.311 . S
C275 N274 1.355 . S
C275 C276 1.363 . S
C275 H287 0.929 . S
C276 C275 1.363 . S
C276 N278 1.375 . S
C276 H294 0.931 . S
C277 N274 1.311 . S
C277 N278 1.347 . S
C277 H288 0.929 . S
N278 C276 1.375 . S
N278 C277 1.347 . S
C279 C282 1.365 . S
C279 N284 1.328 . S
C279 H285 0.929 . S
C280 C281 1.362 . S
C280 C283 1.378 . S
C280 H295 0.929 . S
C281 C280 1.362 . S
C281 C282 1.366 . S
C282 C279 1.365 . S
C282 C281 1.366 . S
C282 H296 0.930 1_556 S
C283 C280 1.378 . S
C283 N284 1.315 . S
C283 H286 0.930 . S
N284 Co264 2.194 . S
N284 C279 1.328 . S
N284 C283 1.315 . S
H285 C279 0.929 . S
H286 C283 0.930 . S
H287 C275 0.929 . S
H288 C277 0.929 . S
O289 Co264 2.351 . S
O289 C292 1.244 . S
O290 Co264 2.155 . S
O290 C292 1.240 . S
O291 Co264 2.096 . S
O291 C272 1.247 . S
C292 O289 1.244 . S
C292 O290 1.240 . S
H293 C267 0.931 . S
H294 C276 0.931 . S
H295 C280 0.929 . S
H296 C282 0.930 1_554 S
Co297 N301 2.148 . S
Co297 N307 2.128 . S
Co297 N317 2.194 . S
Co297 O322 2.351 . S
Co297 O323 2.155 . S
Co297 O324 2.096 . S
C298 N301 1.301 . S
C298 N302 1.328 . S
C298 H303 0.930 . S
C299 C300 1.333 . S
C299 N301 1.317 . S
C299 H304 0.930 . S
C300 C299 1.333 . S
C300 N302 1.350 . S
C300 H326 0.931 . S
N301 Co297 2.148 . S
N301 C298 1.301 . S
N301 C299 1.317 . S
N302 C298 1.328 . S
N302 C300 1.350 . S
H303 C298 0.930 . S
H304 C299 0.930 . S
C305 O306 1.224 . S
C305 O324 1.247 . S
O306 C305 1.224 . S
N307 Co297 2.128 . S
N307 C308 1.355 . S
N307 C310 1.311 . S
C308 N307 1.355 . S
C308 C309 1.363 . S
C308 H320 0.929 . S
C309 C308 1.363 . S
C309 N311 1.375 . S
C309 H327 0.931 . S
C310 N307 1.311 . S
C310 N311 1.347 . S
C310 H321 0.929 . S
N311 C309 1.375 . S
N311 C310 1.347 . S
C312 C315 1.365 . S
C312 N317 1.328 . S
C312 H318 0.929 . S
C313 C314 1.362 . S
C313 C316 1.378 . S
C313 H328 0.929 . S
C314 C313 1.362 . S
C314 C315 1.366 . S
C315 C312 1.365 . S
C315 C314 1.366 . S
C315 H329 0.930 . S
C316 C313 1.378 . S
C316 N317 1.315 . S
C316 H319 0.930 . S
N317 Co297 2.194 . S
N317 C312 1.328 . S
N317 C316 1.315 . S
H318 C312 0.929 . S
H319 C316 0.930 . S
H320 C308 0.929 . S
H321 C310 0.929 . S
O322 Co297 2.351 . S
O322 C325 1.244 . S
O323 Co297 2.155 . S
O323 C325 1.240 . S
O324 Co297 2.096 . S
O324 C305 1.247 . S
C325 O322 1.244 . S
C325 O323 1.240 . S
H326 C300 0.931 . S
H327 C309 0.931 . S
H328 C313 0.929 . S
H329 C315 0.930 . S
Co330 N334 2.148 . S
Co330 N340 2.128 . S
Co330 N350 2.194 . S
Co330 O355 2.351 . S
Co330 O356 2.155 . S
Co330 O357 2.096 . S
C331 N334 1.301 . S
C331 N335 1.328 . S
C331 H336 0.930 . S
C332 C333 1.333 . S
C332 N334 1.317 . S
C332 H337 0.930 . S
C333 C332 1.333 . S
C333 N335 1.350 . S
C333 H359 0.931 . S
N334 Co330 2.148 . S
N334 C331 1.301 . S
N334 C332 1.317 . S
N335 C331 1.328 . S
N335 C333 1.350 . S
H336 C331 0.930 . S
H337 C332 0.930 . S
C338 O339 1.224 . S
C338 O357 1.247 . S
O339 C338 1.224 . S
N340 Co330 2.128 . S
N340 C341 1.355 . S
N340 C343 1.311 . S
C341 N340 1.355 . S
C341 C342 1.363 . S
C341 H353 0.929 . S
C342 C341 1.363 . S
C342 N344 1.375 . S
C342 H360 0.931 . S
C343 N340 1.311 . S
C343 N344 1.347 . S
C343 H354 0.929 . S
N344 C342 1.375 . S
N344 C343 1.347 . S
C345 C348 1.365 . S
C345 N350 1.328 . S
C345 H351 0.929 . S
C346 C347 1.362 . S
C346 C349 1.378 . S
C346 H361 0.929 . S
C347 C346 1.362 . S
C347 C348 1.366 . S
C348 C345 1.365 . S
C348 C347 1.366 . S
C348 H362 0.930 . S
C349 C346 1.378 . S
C349 N350 1.315 . S
C349 H352 0.930 . S
N350 Co330 2.194 . S
N350 C345 1.328 . S
N350 C349 1.315 . S
H351 C345 0.929 . S
H352 C349 0.930 . S
H353 C341 0.929 . S
H354 C343 0.929 . S
O355 Co330 2.351 . S
O355 C358 1.244 . S
O356 Co330 2.155 . S
O356 C358 1.240 . S
O357 Co330 2.096 . S
O357 C338 1.247 . S
C358 O355 1.244 . S
C358 O356 1.240 . S
H359 C333 0.931 . S
H360 C342 0.931 . S
H361 C346 0.929 . S
H362 C348 0.930 . S
Co363 N367 2.148 . S
Co363 N373 2.128 . S
Co363 N383 2.194 . S
Co363 O388 2.351 . S
Co363 O389 2.155 . S
Co363 O390 2.096 . S
C364 N367 1.301 . S
C364 N368 1.328 . S
C364 H369 0.930 . S
C365 C366 1.333 . S
C365 N367 1.317 . S
C365 H370 0.930 . S
C366 C365 1.333 . S
C366 N368 1.350 . S
C366 H392 0.931 . S
N367 Co363 2.148 . S
N367 C364 1.301 . S
N367 C365 1.317 . S
N368 C364 1.328 . S
N368 C366 1.350 . S
H369 C364 0.930 . S
H370 C365 0.930 . S
C371 O372 1.224 . S
C371 O390 1.247 . S
O372 C371 1.224 . S
N373 Co363 2.128 . S
N373 C374 1.355 . S
N373 C376 1.311 . S
C374 N373 1.355 . S
C374 C375 1.363 . S
C374 H386 0.929 . S
C375 C374 1.363 . S
C375 N377 1.375 . S
C375 H393 0.931 . S
C376 N373 1.311 . S
C376 N377 1.347 . S
C376 H387 0.929 . S
N377 C375 1.375 . S
N377 C376 1.347 . S
C378 C381 1.365 . S
C378 N383 1.328 . S
C378 H384 0.929 . S
C379 C380 1.362 . S
C379 C382 1.378 . S
C379 H394 0.929 . S
C380 C379 1.362 . S
C380 C381 1.366 . S
C381 C378 1.365 . S
C381 C380 1.366 . S
C381 H395 0.930 . S
C382 C379 1.378 . S
C382 N383 1.315 . S
C382 H385 0.930 . S
N383 Co363 2.194 . S
N383 C378 1.328 . S
N383 C382 1.315 . S
H384 C378 0.929 . S
H385 C382 0.930 . S
H386 C374 0.929 . S
H387 C376 0.929 . S
O388 Co363 2.351 . S
O388 C391 1.244 . S
O389 Co363 2.155 . S
O389 C391 1.240 . S
O390 Co363 2.096 . S
O390 C371 1.247 . S
C391 O388 1.244 . S
C391 O389 1.240 . S
H392 C366 0.931 . S
H393 C375 0.931 . S
H394 C379 0.929 . S
H395 C381 0.930 . S
H396 C404 0.950 . S
H397 C409 0.950 . S
H398 C406 0.950 . S
H399 C408 0.950 . S
H400 C410 0.950 . S
H401 C412 0.950 . S
H402 C414 0.950 . S
H403 C415 0.950 . S
C404 H396 0.950 . S
C404 C405 1.386 . S
C404 C406 1.391 . S
C405 C404 1.386 . S
C405 C409 1.393 . S
C406 H398 0.950 . S
C406 C404 1.391 . S
C406 C407 1.400 . S
C407 C406 1.400 . S
C407 C408 1.398 . S
C407 C413 1.491 . S
C408 H399 0.950 . S
C408 C407 1.398 . S
C408 C409 1.391 . S
C409 H397 0.950 . S
C409 C405 1.393 . S
C409 C408 1.391 . S
C410 H400 0.950 . S
C410 C411 1.386 . S
C410 C412 1.391 . S
C411 C410 1.386 . S
C411 C415 1.393 . S
C412 H401 0.950 . S
C412 C410 1.391 . S
C412 C413 1.400 . S
C413 C407 1.491 . S
C413 C412 1.400 . S
C413 C414 1.398 . S
C414 H402 0.950 . S
C414 C413 1.398 . S
C414 C415 1.391 . S
C415 H403 0.950 . S
C415 C411 1.393 . S
C415 C414 1.391 . S
H416 C424 0.950 . S
H417 C429 0.950 . S
H418 C426 0.950 . S
H419 C428 0.950 . S
H420 C430 0.950 . S
H421 C432 0.950 . S
H422 C434 0.950 . S
H423 C435 0.950 . S
C424 H416 0.950 . S
C424 C425 1.386 . S
C424 C426 1.391 . S
C425 C424 1.386 . S
C425 C429 1.393 . S
C426 H418 0.950 . S
C426 C424 1.391 . S
C426 C427 1.400 . S
C427 C426 1.400 . S
C427 C428 1.398 . S
C427 C433 1.491 . S
C428 H419 0.950 . S
C428 C427 1.398 . S
C428 C429 1.391 . S
C429 H417 0.950 . S
C429 C425 1.393 . S
C429 C428 1.391 . S
C430 H420 0.950 . S
C430 C431 1.386 . S
C430 C432 1.391 . S
C431 C430 1.386 . S
C431 C435 1.393 . S
C432 H421 0.950 . S
C432 C430 1.391 . S
C432 C433 1.400 . S
C433 C427 1.491 . S
C433 C432 1.400 . S
C433 C434 1.398 . S
C434 H422 0.950 . S
C434 C433 1.398 . S
C434 C435 1.391 . S
C435 H423 0.950 . S
C435 C431 1.393 . S
C435 C434 1.391 . S
H436 C444 0.950 . S
H437 C449 0.950 . S
H438 C446 0.950 . S
H439 C448 0.950 . S
H440 C450 0.950 . S
H441 C452 0.950 . S
H442 C454 0.950 . S
H443 C455 0.950 . S
C444 H436 0.950 . S
C444 C445 1.386 . S
C444 C446 1.391 . S
C445 C444 1.386 . S
C445 C449 1.393 . S
C446 H438 0.950 . S
C446 C444 1.391 . S
C446 C447 1.400 . S
C447 C446 1.400 . S
C447 C448 1.398 . S
C447 C453 1.491 . S
C448 H439 0.950 . S
C448 C447 1.398 . S
C448 C449 1.391 . S
C449 H437 0.950 . S
C449 C445 1.393 . S
C449 C448 1.391 . S
C450 H440 0.950 . S
C450 C451 1.386 . S
C450 C452 1.391 . S
C451 C450 1.386 . S
C451 C455 1.393 . S
C452 H441 0.950 . S
C452 C450 1.391 . S
C452 C453 1.400 . S
C453 C447 1.491 . S
C453 C452 1.400 . S
C453 C454 1.398 . S
C454 H442 0.950 . S
C454 C453 1.398 . S
C454 C455 1.391 . S
C455 H443 0.950 . S
C455 C451 1.393 . S
C455 C454 1.391 . S
H456 C464 0.950 . S
H457 C469 0.950 . S
H458 C466 0.950 . S
H459 C468 0.950 . S
H460 C470 0.950 . S
H461 C472 0.950 . S
H462 C474 0.950 . S
H463 C475 0.950 . S
C464 H456 0.950 . S
C464 C465 1.386 . S
C464 C466 1.391 . S
C465 C464 1.386 . S
C465 C469 1.393 . S
C466 H458 0.950 . S
C466 C464 1.391 . S
C466 C467 1.400 . S
C467 C466 1.400 . S
C467 C468 1.398 . S
C467 C473 1.491 . S
C468 H459 0.950 . S
C468 C467 1.398 . S
C468 C469 1.391 . S
C469 H457 0.950 . S
C469 C465 1.393 . S
C469 C468 1.391 . S
C470 H460 0.950 . S
C470 C471 1.386 . S
C470 C472 1.391 . S
C471 C470 1.386 . S
C471 C475 1.393 . S
C472 H461 0.950 . S
C472 C470 1.391 . S
C472 C473 1.400 . S
C473 C467 1.491 . S
C473 C472 1.400 . S
C473 C474 1.398 . S
C474 H462 0.950 . S
C474 C473 1.398 . S
C474 C475 1.391 . S
C475 H463 0.950 . S
C475 C471 1.393 . S
C475 C474 1.391 . S
H476 C484 0.950 . S
H477 C489 0.950 . S
H478 C486 0.950 . S
H479 C488 0.950 . S
H480 C490 0.950 . S
H481 C492 0.950 . S
H482 C494 0.950 . S
H483 C495 0.950 . S
C484 H476 0.950 . S
C484 C485 1.386 . S
C484 C486 1.391 . S
C485 C484 1.386 . S
C485 C489 1.393 . S
C486 H478 0.950 . S
C486 C484 1.391 . S
C486 C487 1.400 . S
C487 C486 1.400 . S
C487 C488 1.398 . S
C487 C493 1.491 . S
C488 H479 0.950 . S
C488 C487 1.398 . S
C488 C489 1.391 . S
C489 H477 0.950 . S
C489 C485 1.393 . S
C489 C488 1.391 . S
C490 H480 0.950 . S
C490 C491 1.386 . S
C490 C492 1.391 . S
C491 C490 1.386 . S
C491 C495 1.393 . S
C492 H481 0.950 . S
C492 C490 1.391 . S
C492 C493 1.400 . S
C493 C487 1.491 . S
C493 C492 1.400 . S
C493 C494 1.398 . S
C494 H482 0.950 . S
C494 C493 1.398 . S
C494 C495 1.391 . S
C495 H483 0.950 . S
C495 C491 1.393 . S
C495 C494 1.391 . S
H496 C504 0.950 . S
H497 C509 0.950 . S
H498 C506 0.950 . S
H499 C508 0.950 . S
H500 C510 0.950 . S
H501 C512 0.950 . S
H502 C514 0.950 . S
H503 C515 0.950 . S
C504 H496 0.950 . S
C504 C505 1.386 . S
C504 C506 1.391 . S
C505 C504 1.386 . S
C505 C509 1.393 . S
C506 H498 0.950 . S
C506 C504 1.391 . S
C506 C507 1.400 . S
C507 C506 1.400 . S
C507 C508 1.398 . S
C507 C513 1.491 . S
C508 H499 0.950 . S
C508 C507 1.398 . S
C508 C509 1.391 . S
C509 H497 0.950 . S
C509 C505 1.393 . S
C509 C508 1.391 . S
C510 H500 0.950 . S
C510 C511 1.386 . S
C510 C512 1.391 . S
C511 C510 1.386 . S
C511 C515 1.393 . S
C512 H501 0.950 . S
C512 C510 1.391 . S
C512 C513 1.400 . S
C513 C507 1.491 . S
C513 C512 1.400 . S
C513 C514 1.398 . S
C514 H502 0.950 . S
C514 C513 1.398 . S
C514 C515 1.391 . S
C515 H503 0.950 . S
C515 C511 1.393 . S
C515 C514 1.391 . S
H516 C524 0.950 . S
H517 C529 0.950 . S
H518 C526 0.950 . S
H519 C528 0.950 . S
H520 C530 0.950 . S
H521 C532 0.950 . S
H522 C534 0.950 . S
H523 C535 0.950 . S
C524 H516 0.950 . S
C524 C525 1.386 . S
C524 C526 1.391 . S
C525 C524 1.386 . S
C525 C529 1.393 1_554 S
C526 H518 0.950 . S
C526 C524 1.391 . S
C526 C527 1.400 . S
C527 C526 1.400 . S
C527 C528 1.398 1_554 S
C527 C533 1.491 1_544 S
C528 H519 0.950 . S
C528 C527 1.398 1_556 S
C528 C529 1.391 . S
C529 H517 0.950 . S
C529 C525 1.393 1_556 S
C529 C528 1.391 . S
C530 H520 0.950 . S
C530 C531 1.386 . S
C530 C532 1.391 . S
C531 C530 1.386 . S
C531 C535 1.393 1_556 S
C532 H521 0.950 . S
C532 C530 1.391 . S
C532 C533 1.400 . S
C533 C527 1.491 1_566 S
C533 C532 1.400 . S
C533 C534 1.398 1_556 S
C534 H522 0.950 . S
C534 C533 1.398 1_554 S
C534 C535 1.391 . S
C535 H523 0.950 . S
C535 C531 1.393 1_554 S
C535 C534 1.391 . S
H536 C544 0.950 . S
H537 C549 0.950 . S
H538 C546 0.952 . S
H539 C548 0.950 . S
H540 C550 0.950 . S
H541 C552 0.952 . S
H542 C554 0.950 . S
H543 C555 0.950 . S
C544 H536 0.950 . S
C544 C545 1.386 . S
C544 C546 1.391 . S
C545 C544 1.386 . S
C545 C549 1.393 . S
C546 H538 0.952 . S
C546 C544 1.391 . S
C546 C547 1.400 . S
C547 C546 1.400 . S
C547 C548 1.398 1_655 S
C547 C553 1.491 1_654 S
C548 H539 0.950 . S
C548 C547 1.398 1_455 S
C548 C549 1.391 1_455 S
C549 H537 0.950 . S
C549 C545 1.393 . S
C549 C548 1.391 1_655 S
C550 H540 0.950 . S
C550 C551 1.386 . S
C550 C552 1.391 . S
C551 C550 1.386 . S
C551 C555 1.393 . S
C552 H541 0.952 . S
C552 C550 1.391 . S
C552 C553 1.400 . S
C553 C547 1.491 1_456 S
C553 C552 1.400 . S
C553 C554 1.398 1_455 S
C554 H542 0.950 . S
C554 C553 1.398 1_655 S
C554 C555 1.391 1_655 S
C555 H543 0.950 . S
C555 C551 1.393 . S
C555 C554 1.391 1_455 S
H556 C564 0.950 . S
H557 C569 0.950 . S
H558 C566 0.950 . S
H559 C568 0.950 . S
H560 C570 0.950 . S
H561 C572 0.950 . S
H562 C574 0.950 . S
H563 C575 0.950 . S
C564 H556 0.950 . S
C564 C565 1.386 1_554 S
C564 C566 1.391 . S
C565 C564 1.386 1_556 S
C565 C569 1.393 . S
C566 H558 0.950 . S
C566 C564 1.391 . S
C566 C567 1.400 1_554 S
C567 C566 1.400 1_556 S
C567 C568 1.398 . S
C567 C573 1.491 1_556 S
C568 H559 0.950 . S
C568 C567 1.398 . S
C568 C569 1.391 . S
C569 H557 0.950 . S
C569 C565 1.393 . S
C569 C568 1.391 . S
C570 H560 0.950 . S
C570 C571 1.386 1_556 S
C570 C572 1.391 . S
C571 C570 1.386 1_554 S
C571 C575 1.393 . S
C572 H561 0.950 . S
C572 C570 1.391 . S
C572 C573 1.400 1_556 S
C573 C567 1.491 1_554 S
C573 C572 1.400 1_554 S
C573 C574 1.398 . S
C574 H562 0.950 . S
C574 C573 1.398 . S
C574 C575 1.391 . S
C575 H563 0.950 . S
C575 C571 1.393 . S
C575 C574 1.391 . S
H576 C584 0.950 . S
H577 C589 0.950 . S
H578 C586 0.950 . S
H579 C588 0.950 1_655 S
H580 C590 0.950 . S
H581 C592 0.950 . S
H582 C594 0.950 1_455 S
H583 C595 0.950 . S
C584 H576 0.950 . S
C584 C585 1.386 . S
C584 C586 1.391 . S
C585 C584 1.386 . S
C585 C589 1.393 . S
C586 H578 0.950 . S
C586 C584 1.391 . S
C586 C587 1.400 . S
C587 C586 1.400 . S
C587 C588 1.398 . S
C587 C593 1.491 1_455 S
C588 H579 0.950 1_455 S
C588 C587 1.398 . S
C588 C589 1.391 . S
C589 H577 0.950 . S
C589 C585 1.393 . S
C589 C588 1.391 . S
C590 H580 0.950 . S
C590 C591 1.386 . S
C590 C592 1.391 . S
C591 C590 1.386 . S
C591 C595 1.393 . S
C592 H581 0.950 . S
C592 C590 1.391 . S
C592 C593 1.400 . S
C593 C587 1.491 1_655 S
C593 C592 1.400 . S
C593 C594 1.398 . S
C594 H582 0.950 1_655 S
C594 C593 1.398 . S
C594 C595 1.391 . S
C595 H583 0.950 . S
C595 C591 1.393 . S
C595 C594 1.391 . S
H596 C604 0.950 . S
H597 C609 0.950 . S
H598 C606 0.950 . S
H599 C608 0.950 . S
H600 C610 0.950 . S
H601 C612 0.950 . S
H602 C614 0.950 . S
H603 C615 0.950 . S
C604 H596 0.950 . S
C604 C605 1.386 . S
C604 C606 1.391 . S
C605 C604 1.386 . S
C605 C609 1.393 . S
C606 H598 0.950 . S
C606 C604 1.391 . S
C606 C607 1.400 . S
C607 C606 1.400 . S
C607 C608 1.398 . S
C607 C613 1.491 . S
C608 H599 0.950 . S
C608 C607 1.398 . S
C608 C609 1.391 . S
C609 H597 0.950 . S
C609 C605 1.393 . S
C609 C608 1.391 . S
C610 H600 0.950 . S
C610 C611 1.386 . S
C610 C612 1.391 . S
C611 C610 1.386 . S
C611 C615 1.393 . S
C612 H601 0.950 . S
C612 C610 1.391 . S
C612 C613 1.400 . S
C613 C607 1.491 . S
C613 C612 1.400 . S
C613 C614 1.398 . S
C614 H602 0.950 . S
C614 C613 1.398 . S
C614 C615 1.391 . S
C615 H603 0.950 . S
C615 C611 1.393 . S
C615 C614 1.391 . S
H616 C624 0.950 . S
H617 C629 0.950 . S
H618 C626 0.950 1_565 S
H619 C628 0.950 . S
H620 C630 0.950 . S
H621 C632 0.950 1_545 S
H622 C634 0.950 . S
H623 C635 0.950 . S
C624 H616 0.950 . S
C624 C625 1.386 . S
C624 C626 1.391 . S
C625 C624 1.386 . S
C625 C629 1.393 . S
C626 H618 0.950 1_545 S
C626 C624 1.391 . S
C626 C627 1.400 . S
C627 C626 1.400 . S
C627 C628 1.398 . S
C627 C633 1.491 1_545 S
C628 H619 0.950 . S
C628 C627 1.398 . S
C628 C629 1.391 . S
C629 H617 0.950 . S
C629 C625 1.393 . S
C629 C628 1.391 . S
C630 H620 0.950 . S
C630 C631 1.386 . S
C630 C632 1.391 . S
C631 C630 1.386 . S
C631 C635 1.393 . S
C632 H621 0.950 1_565 S
C632 C630 1.391 . S
C632 C633 1.400 . S
C633 C627 1.491 1_565 S
C633 C632 1.400 . S
C633 C634 1.398 . S
C634 H622 0.950 . S
C634 C633 1.398 . S
C634 C635 1.391 . S
C635 H623 0.950 . S
C635 C631 1.393 . S
C635 C634 1.391 . S
H636 C644 0.950 . S
H637 C649 0.950 . S
H638 C646 0.950 . S
H639 C648 0.950 . S
H640 C650 0.950 . S
H641 C652 0.950 . S
H642 C654 0.950 . S
H643 C655 0.950 . S
C644 H636 0.950 . S
C644 C645 1.386 . S
C644 C646 1.391 . S
C645 C644 1.386 . S
C645 C649 1.393 . S
C646 H638 0.950 . S
C646 C644 1.391 . S
C646 C647 1.400 . S
C647 C646 1.400 . S
C647 C648 1.398 . S
C647 C653 1.491 . S
C648 H639 0.950 . S
C648 C647 1.398 . S
C648 C649 1.391 . S
C649 H637 0.950 . S
C649 C645 1.393 . S
C649 C648 1.391 . S
C650 H640 0.950 . S
C650 C651 1.386 . S
C650 C652 1.391 . S
C651 C650 1.386 . S
C651 C655 1.393 . S
C652 H641 0.950 . S
C652 C650 1.391 . S
C652 C653 1.400 . S
C653 C647 1.491 . S
C653 C652 1.400 . S
C653 C654 1.398 . S
C654 H642 0.950 . S
C654 C653 1.398 . S
C654 C655 1.391 . S
C655 H643 0.950 . S
C655 C651 1.393 . S
C655 C654 1.391 . S
H656 C664 0.950 . S
H657 C669 0.950 . S
H658 C666 0.950 . S
H659 C668 0.950 . S
H660 C670 0.950 . S
H661 C672 0.950 . S
H662 C674 0.950 . S
H663 C675 0.950 . S
C664 H656 0.950 . S
C664 C665 1.386 . S
C664 C666 1.391 . S
C665 C664 1.386 . S
C665 C669 1.393 . S
C666 H658 0.950 . S
C666 C664 1.391 . S
C666 C667 1.400 . S
C667 C666 1.400 . S
C667 C668 1.398 . S
C667 C673 1.491 . S
C668 H659 0.950 . S
C668 C667 1.398 . S
C668 C669 1.391 . S
C669 H657 0.950 . S
C669 C665 1.393 . S
C669 C668 1.391 . S
C670 H660 0.950 . S
C670 C671 1.386 . S
C670 C672 1.391 . S
C671 C670 1.386 . S
C671 C675 1.393 . S
C672 H661 0.950 . S
C672 C670 1.391 . S
C672 C673 1.400 . S
C673 C667 1.491 . S
C673 C672 1.400 . S
C673 C674 1.398 . S
C674 H662 0.950 . S
C674 C673 1.398 . S
C674 C675 1.391 . S
C675 H663 0.950 . S
C675 C671 1.393 . S
C675 C674 1.391 . S
H676 C684 0.950 . S
H677 C689 0.950 . S
H678 C686 0.950 . S
H679 C688 0.950 . S
H680 C690 0.950 . S
H681 C692 0.950 . S
H682 C694 0.950 . S
H683 C695 0.950 . S
C684 H676 0.950 . S
C684 C685 1.386 . S
C684 C686 1.391 . S
C685 C684 1.386 . S
C685 C689 1.393 . S
C686 H678 0.950 . S
C686 C684 1.391 . S
C686 C687 1.400 . S
C687 C686 1.400 . S
C687 C688 1.398 . S
C687 C693 1.491 . S
C688 H679 0.950 . S
C688 C687 1.398 . S
C688 C689 1.391 . S
C689 H677 0.950 . S
C689 C685 1.393 . S
C689 C688 1.391 . S
C690 H680 0.950 . S
C690 C691 1.386 . S
C690 C692 1.391 . S
C691 C690 1.386 . S
C691 C695 1.393 . S
C692 H681 0.950 . S
C692 C690 1.391 . S
C692 C693 1.400 . S
C693 C687 1.491 . S
C693 C692 1.400 . S
C693 C694 1.398 . S
C694 H682 0.950 . S
C694 C693 1.398 . S
C694 C695 1.391 . S
C695 H683 0.950 . S
C695 C691 1.393 . S
C695 C694 1.391 . S
H696 C704 0.950 . S
H697 C709 0.950 . S
H698 C706 0.950 . S
H699 C708 0.950 . S
H700 C710 0.950 . S
H701 C712 0.950 . S
H702 C714 0.950 . S
H703 C715 0.950 . S
C704 H696 0.950 . S
C704 C705 1.386 . S
C704 C706 1.391 . S
C705 C704 1.386 . S
C705 C709 1.393 . S
C706 H698 0.950 . S
C706 C704 1.391 . S
C706 C707 1.400 . S
C707 C706 1.400 . S
C707 C708 1.398 . S
C707 C713 1.491 . S
C708 H699 0.950 . S
C708 C707 1.398 . S
C708 C709 1.391 . S
C709 H697 0.950 . S
C709 C705 1.393 . S
C709 C708 1.391 . S
C710 H700 0.950 . S
C710 C711 1.386 . S
C710 C712 1.391 . S
C711 C710 1.386 . S
C711 C715 1.393 . S
C712 H701 0.950 . S
C712 C710 1.391 . S
C712 C713 1.400 . S
C713 C707 1.491 . S
C713 C712 1.400 . S
C713 C714 1.398 . S
C714 H702 0.950 . S
C714 C713 1.398 . S
C714 C715 1.391 . S
C715 H703 0.950 . S
C715 C711 1.393 . S
C715 C714 1.391 . S
H716 C724 0.950 . S
H717 C729 0.950 . S
H718 C726 0.950 . S
H719 C728 0.950 . S
H720 C730 0.950 . S
H721 C732 0.950 . S
H722 C734 0.950 . S
H723 C735 0.950 . S
C724 H716 0.950 . S
C724 C725 1.386 . S
C724 C726 1.391 . S
C725 C724 1.386 . S
C725 C729 1.393 . S
C726 H718 0.950 . S
C726 C724 1.391 . S
C726 C727 1.400 . S
C727 C726 1.400 . S
C727 C728 1.398 . S
C727 C733 1.491 . S
C728 H719 0.950 . S
C728 C727 1.398 . S
C728 C729 1.391 . S
C729 H717 0.950 . S
C729 C725 1.393 . S
C729 C728 1.391 . S
C730 H720 0.950 . S
C730 C731 1.386 . S
C730 C732 1.391 . S
C731 C730 1.386 . S
C731 C735 1.393 . S
C732 H721 0.950 . S
C732 C730 1.391 . S
C732 C733 1.400 . S
C733 C727 1.491 . S
C733 C732 1.400 . S
C733 C734 1.398 . S
C734 H722 0.950 . S
C734 C733 1.398 . S
C734 C735 1.391 . S
C735 H723 0.950 . S
C735 C731 1.393 . S
C735 C734 1.391 . S
H736 C744 0.950 . S
H737 C749 0.950 . S
H738 C746 0.950 . S
H739 C748 0.950 . S
H740 C750 0.950 . S
H741 C752 0.950 . S
H742 C754 0.950 . S
H743 C755 0.950 . S
C744 H736 0.950 . S
C744 C745 1.386 . S
C744 C746 1.391 . S
C745 C744 1.386 . S
C745 C749 1.393 . S
C746 H738 0.950 . S
C746 C744 1.391 . S
C746 C747 1.400 . S
C747 C746 1.400 . S
C747 C748 1.398 . S
C747 C753 1.491 . S
C748 H739 0.950 . S
C748 C747 1.398 . S
C748 C749 1.391 . S
C749 H737 0.950 . S
C749 C745 1.393 . S
C749 C748 1.391 . S
C750 H740 0.950 . S
C750 C751 1.386 . S
C750 C752 1.391 . S
C751 C750 1.386 . S
C751 C755 1.393 . S
C752 H741 0.950 . S
C752 C750 1.391 . S
C752 C753 1.400 . S
C753 C747 1.491 . S
C753 C752 1.400 . S
C753 C754 1.398 . S
C754 H742 0.950 . S
C754 C753 1.398 . S
C754 C755 1.391 . S
C755 H743 0.950 . S
C755 C751 1.393 . S
C755 C754 1.391 . S
H756 C764 0.950 . S
H757 C769 0.950 . S
H758 C766 0.950 . S
H759 C768 0.950 . S
H760 C770 0.950 . S
H761 C772 0.950 . S
H762 C774 0.950 . S
H763 C775 0.950 . S
C764 H756 0.950 . S
C764 C765 1.386 . S
C764 C766 1.391 . S
C765 C764 1.386 . S
C765 C769 1.393 . S
C766 H758 0.950 . S
C766 C764 1.391 . S
C766 C767 1.400 . S
C767 C766 1.400 . S
C767 C768 1.398 . S
C767 C773 1.491 . S
C768 H759 0.950 . S
C768 C767 1.398 . S
C768 C769 1.391 . S
C769 H757 0.950 . S
C769 C765 1.393 . S
C769 C768 1.391 . S
C770 H760 0.950 . S
C770 C771 1.386 . S
C770 C772 1.391 . S
C771 C770 1.386 . S
C771 C775 1.393 . S
C772 H761 0.950 . S
C772 C770 1.391 . S
C772 C773 1.400 . S
C773 C767 1.491 . S
C773 C772 1.400 . S
C773 C774 1.398 . S
C774 H762 0.950 . S
C774 C773 1.398 . S
C774 C775 1.391 . S
C775 H763 0.950 . S
C775 C771 1.393 . S
C775 C774 1.391 . S
H776 C784 0.950 . S
H777 C789 0.950 . S
H778 C786 0.950 1_556 S
H779 C788 0.950 . S
H780 C790 0.950 . S
H781 C792 0.950 . S
H782 C794 0.950 . S
H783 C795 0.950 . S
C784 H776 0.950 . S
C784 C785 1.386 . S
C784 C786 1.391 . S
C785 C784 1.386 . S
C785 C789 1.393 . S
C786 H778 0.950 1_554 S
C786 C784 1.391 . S
C786 C787 1.400 . S
C787 C786 1.400 . S
C787 C788 1.398 . S
C787 C793 1.491 . S
C788 H779 0.950 . S
C788 C787 1.398 . S
C788 C789 1.391 . S
C789 H777 0.950 . S
C789 C785 1.393 . S
C789 C788 1.391 . S
C790 H780 0.950 . S
C790 C791 1.386 . S
C790 C792 1.391 . S
C791 C790 1.386 . S
C791 C795 1.393 1_554 S
C792 H781 0.950 . S
C792 C790 1.391 . S
C792 C793 1.400 . S
C793 C787 1.491 . S
C793 C792 1.400 . S
C793 C794 1.398 1_554 S
C794 H782 0.950 . S
C794 C793 1.398 1_556 S
C794 C795 1.391 . S
C795 H783 0.950 . S
C795 C791 1.393 1_556 S
C795 C794 1.391 . S
H796 C804 0.950 . S
H797 C809 0.950 . S
H798 C806 0.950 . S
H799 C808 0.950 1_556 S
H800 C810 0.950 . S
H801 C812 0.950 1_556 S
H802 C814 0.950 . S
H803 C815 0.950 . S
C804 H796 0.950 . S
C804 C805 1.386 . S
C804 C806 1.391 . S
C805 C804 1.386 . S
C805 C809 1.393 1_554 S
C806 H798 0.950 . S
C806 C804 1.391 . S
C806 C807 1.400 . S
C807 C806 1.400 . S
C807 C808 1.398 . S
C807 C813 1.491 . S
C808 H799 0.950 1_554 S
C808 C807 1.398 . S
C808 C809 1.391 1_554 S
C809 H797 0.950 . S
C809 C805 1.393 1_556 S
C809 C808 1.391 1_556 S
C810 H800 0.950 . S
C810 C811 1.386 . S
C810 C812 1.391 . S
C811 C810 1.386 . S
C811 C815 1.393 . S
C812 H801 0.950 1_554 S
C812 C810 1.391 . S
C812 C813 1.400 . S
C813 C807 1.491 . S
C813 C812 1.400 . S
C813 C814 1.398 . S
C814 H802 0.950 . S
C814 C813 1.398 . S
C814 C815 1.391 . S
C815 H803 0.950 . S
C815 C811 1.393 . S
C815 C814 1.391 . S
H816 C824 0.950 . S
H817 C829 0.950 . S
H818 C826 0.950 . S
H819 C828 0.950 . S
H820 C830 0.950 . S
H821 C832 0.950 . S
H822 C834 0.950 . S
H823 C835 0.950 . S
C824 H816 0.950 . S
C824 C825 1.386 . S
C824 C826 1.391 . S
C825 C824 1.386 . S
C825 C829 1.393 . S
C826 H818 0.950 . S
C826 C824 1.391 . S
C826 C827 1.400 . S
C827 C826 1.400 . S
C827 C828 1.398 . S
C827 C833 1.491 . S
C828 H819 0.950 . S
C828 C827 1.398 . S
C828 C829 1.391 . S
C829 H817 0.950 . S
C829 C825 1.393 . S
C829 C828 1.391 . S
C830 H820 0.950 . S
C830 C831 1.386 . S
C830 C832 1.391 . S
C831 C830 1.386 . S
C831 C835 1.393 . S
C832 H821 0.950 . S
C832 C830 1.391 . S
C832 C833 1.400 . S
C833 C827 1.491 . S
C833 C832 1.400 . S
C833 C834 1.398 . S
C834 H822 0.950 . S
C834 C833 1.398 . S
C834 C835 1.391 . S
C835 H823 0.950 . S
C835 C831 1.393 . S
C835 C834 1.391 . S
H836 C844 0.950 . S
H837 C849 0.950 . S
H838 C846 0.950 . S
H839 C848 0.950 . S
H840 C850 0.950 . S
H841 C852 0.950 . S
H842 C854 0.950 . S
H843 C855 0.950 . S
C844 H836 0.950 . S
C844 C845 1.386 . S
C844 C846 1.391 . S
C845 C844 1.386 . S
C845 C849 1.393 . S
C846 H838 0.950 . S
C846 C844 1.391 . S
C846 C847 1.400 . S
C847 C846 1.400 . S
C847 C848 1.398 . S
C847 C853 1.491 . S
C848 H839 0.950 . S
C848 C847 1.398 . S
C848 C849 1.391 . S
C849 H837 0.950 . S
C849 C845 1.393 . S
C849 C848 1.391 . S
C850 H840 0.950 . S
C850 C851 1.386 . S
C850 C852 1.391 . S
C851 C850 1.386 . S
C851 C855 1.393 . S
C852 H841 0.950 . S
C852 C850 1.391 . S
C852 C853 1.400 . S
C853 C847 1.491 . S
C853 C852 1.400 . S
C853 C854 1.398 . S
C854 H842 0.950 . S
C854 C853 1.398 . S
C854 C855 1.391 . S
C855 H843 0.950 . S
C855 C851 1.393 . S
C855 C854 1.391 . S
H856 C864 0.950 . S
H857 C869 0.950 . S
H858 C866 0.950 . S
H859 C868 0.950 . S
H860 C870 0.950 . S
H861 C872 0.950 . S
H862 C874 0.950 . S
H863 C875 0.950 . S
C864 H856 0.950 . S
C864 C865 1.386 . S
C864 C866 1.391 . S
C865 C864 1.386 . S
C865 C869 1.393 . S
C866 H858 0.950 . S
C866 C864 1.391 . S
C866 C867 1.400 . S
C867 C866 1.400 . S
C867 C868 1.398 . S
C867 C873 1.491 . S
C868 H859 0.950 . S
C868 C867 1.398 . S
C868 C869 1.391 . S
C869 H857 0.950 . S
C869 C865 1.393 . S
C869 C868 1.391 . S
C870 H860 0.950 . S
C870 C871 1.386 . S
C870 C872 1.391 . S
C871 C870 1.386 . S
C871 C875 1.393 . S
C872 H861 0.950 . S
C872 C870 1.391 . S
C872 C873 1.400 . S
C873 C867 1.491 . S
C873 C872 1.400 . S
C873 C874 1.398 . S
C874 H862 0.950 . S
C874 C873 1.398 . S
C874 C875 1.391 . S
C875 H863 0.950 . S
C875 C871 1.393 . S
C875 C874 1.391 . S
H876 C884 0.950 . S
H877 C889 0.950 . S
H878 C886 0.950 . S
H879 C888 0.950 . S
H880 C890 0.953 . S
H881 C892 0.950 1_554 S
H882 C894 0.950 . S
H883 C895 0.950 . S
C884 H876 0.950 . S
C884 C885 1.386 . S
C884 C886 1.391 . S
C885 C884 1.386 . S
C885 C889 1.393 1_556 S
C886 H878 0.950 . S
C886 C884 1.391 . S
C886 C887 1.400 . S
C887 C886 1.400 . S
C887 C888 1.398 1_556 S
C887 C893 1.491 . S
C888 H879 0.950 . S
C888 C887 1.398 1_554 S
C888 C889 1.391 . S
C889 H877 0.950 . S
C889 C885 1.393 1_554 S
C889 C888 1.391 . S
C890 H880 0.953 . S
C890 C891 1.386 . S
C890 C892 1.391 . S
C891 C890 1.386 . S
C891 C895 1.393 . S
C892 H881 0.950 1_556 S
C892 C890 1.391 . S
C892 C893 1.400 . S
C893 C887 1.491 . S
C893 C892 1.400 . S
C893 C894 1.398 . S
C894 H882 0.950 . S
C894 C893 1.398 . S
C894 C895 1.391 . S
C895 H883 0.950 . S
C895 C891 1.393 . S
C895 C894 1.391 . S
H896 C904 0.950 . S
H897 C909 0.950 . S
H898 C906 0.950 1_554 S
H899 C908 0.950 . S
H900 C910 0.950 . S
H901 C912 0.950 . S
H902 C914 0.926 1_554 S
H903 C915 0.950 . S
C904 H896 0.950 . S
C904 C905 1.386 . S
C904 C906 1.391 . S
C905 C904 1.386 . S
C905 C909 1.393 . S
C906 H898 0.950 1_556 S
C906 C904 1.391 . S
C906 C907 1.400 . S
C907 C906 1.400 . S
C907 C908 1.398 . S
C907 C913 1.491 . S
C908 H899 0.950 . S
C908 C907 1.398 . S
C908 C909 1.391 . S
C909 H897 0.950 . S
C909 C905 1.393 . S
C909 C908 1.391 . S
C910 H900 0.950 . S
C910 C911 1.386 . S
C910 C912 1.391 . S
C911 C910 1.386 . S
C911 C915 1.393 1_556 S
C912 H901 0.950 . S
C912 C910 1.391 . S
C912 C913 1.400 . S
C913 C907 1.491 . S
C913 C912 1.400 . S
C913 C914 1.429 . S
C914 H902 0.926 1_556 S
C914 C913 1.429 . S
C914 C915 1.384 1_556 S
C915 H903 0.950 . S
C915 C911 1.393 1_554 S
C915 C914 1.384 1_554 S
H916 C924 0.950 . S
H917 C929 0.950 . S
H918 C926 0.950 . S
H919 C928 0.950 . S
H920 C930 0.950 . S
H921 C932 0.950 . S
H922 C934 0.950 . S
H923 C935 0.950 . S
C924 H916 0.950 . S
C924 C925 1.386 . S
C924 C926 1.391 . S
C925 C924 1.386 . S
C925 C929 1.393 . S
C926 H918 0.950 . S
C926 C924 1.391 . S
C926 C927 1.400 . S
C927 C926 1.400 . S
C927 C928 1.398 . S
C927 C933 1.491 . S
C928 H919 0.950 . S
C928 C927 1.398 . S
C928 C929 1.391 . S
C929 H917 0.950 . S
C929 C925 1.393 . S
C929 C928 1.391 . S
C930 H920 0.950 . S
C930 C931 1.386 . S
C930 C932 1.391 . S
C931 C930 1.386 . S
C931 C935 1.393 . S
C932 H921 0.950 . S
C932 C930 1.391 . S
C932 C933 1.400 . S
C933 C927 1.491 . S
C933 C932 1.400 . S
C933 C934 1.398 . S
C934 H922 0.950 . S
C934 C933 1.398 . S
C934 C935 1.391 . S
C935 H923 0.950 . S
C935 C931 1.393 . S
C935 C934 1.391 . S
H936 C944 0.950 . S
H937 C949 0.950 . S
H938 C946 0.950 . S
H939 C948 0.950 . S
H940 C950 0.950 . S
H941 C952 0.950 . S
H942 C954 0.950 . S
H943 C955 0.950 . S
C944 H936 0.950 . S
C944 C945 1.386 . S
C944 C946 1.391 . S
C945 C944 1.386 . S
C945 C949 1.393 . S
C946 H938 0.950 . S
C946 C944 1.391 . S
C946 C947 1.400 . S
C947 C946 1.400 . S
C947 C948 1.398 . S
C947 C953 1.491 . S
C948 H939 0.950 . S
C948 C947 1.398 . S
C948 C949 1.391 . S
C949 H937 0.950 . S
C949 C945 1.393 . S
C949 C948 1.391 . S
C950 H940 0.950 . S
C950 C951 1.386 . S
C950 C952 1.391 . S
C951 C950 1.386 . S
C951 C955 1.393 . S
C952 H941 0.950 . S
C952 C950 1.391 . S
C952 C953 1.400 . S
C953 C947 1.491 . S
C953 C952 1.400 . S
C953 C954 1.398 . S
C954 H942 0.950 . S
C954 C953 1.398 . S
C954 C955 1.391 . S
C955 H943 0.950 . S
C955 C951 1.393 . S
C955 C954 1.391 . S
H956 C964 0.950 . S
H957 C969 0.950 . S
H958 C966 0.950 . S
H959 C968 0.950 . S
H960 C970 0.950 . S
H961 C972 0.950 . S
H962 C974 0.950 . S
H963 C975 0.950 . S
C964 H956 0.950 . S
C964 C965 1.386 . S
C964 C966 1.391 . S
C965 C964 1.386 . S
C965 C969 1.393 . S
C966 H958 0.950 . S
C966 C964 1.391 . S
C966 C967 1.400 . S
C967 C966 1.400 . S
C967 C968 1.398 . S
C967 C973 1.491 . S
C968 H959 0.950 . S
C968 C967 1.398 . S
C968 C969 1.391 . S
C969 H957 0.950 . S
C969 C965 1.393 . S
C969 C968 1.391 . S
C970 H960 0.950 . S
C970 C971 1.386 . S
C970 C972 1.391 . S
C971 C970 1.386 . S
C971 C975 1.393 . S
C972 H961 0.950 . S
C972 C970 1.391 . S
C972 C973 1.400 . S
C973 C967 1.491 . S
C973 C972 1.400 . S
C973 C974 1.398 . S
C974 H962 0.950 . S
C974 C973 1.398 . S
C974 C975 1.391 . S
C975 H963 0.950 . S
C975 C971 1.393 . S
C975 C974 1.391 . S
H976 C984 0.950 . S
H977 C989 0.950 . S
H978 C986 0.950 . S
H979 C988 0.950 . S
H980 C990 0.950 . S
H981 C992 0.950 . S
H982 C994 0.950 . S
H983 C995 0.950 . S
C984 H976 0.950 . S
C984 C985 1.386 . S
C984 C986 1.391 . S
C985 C984 1.386 . S
C985 C989 1.393 . S
C986 H978 0.950 . S
C986 C984 1.391 . S
C986 C987 1.400 . S
C987 C986 1.400 . S
C987 C988 1.398 . S
C987 C993 1.491 . S
C988 H979 0.950 . S
C988 C987 1.398 . S
C988 C989 1.391 . S
C989 H977 0.950 . S
C989 C985 1.393 . S
C989 C988 1.391 . S
C990 H980 0.950 . S
C990 C991 1.386 . S
C990 C992 1.391 . S
C991 C990 1.386 . S
C991 C995 1.393 . S
C992 H981 0.950 . S
C992 C990 1.391 . S
C992 C993 1.400 . S
C993 C987 1.491 . S
C993 C992 1.400 . S
C993 C994 1.398 . S
C994 H982 0.950 . S
C994 C993 1.398 . S
C994 C995 1.391 . S
C995 H983 0.950 . S
C995 C991 1.393 . S
C995 C994 1.391 . S
C405 C173 1.574 . S
C411 C8 1.574 . S
C425 C41 1.565 . S
C431 C107 1.565 . S
C445 C74 1.572 . S
C451 C140 1.572 . S
C465 C206 1.565 . S
C471 C371 1.565 . S
C485 C305 1.571 . S
C491 C239 1.572 . S
C505 C338 1.573 . S
C511 C272 1.573 . S
C525 C17 2.176 . S
C531 C215 2.176 . S
C545 C50 2.154 . S
C551 C248 2.154 . S
C565 C281 2.176 . S
C571 C83 2.176 . S
C585 C314 2.157 . S
C591 C116 2.157 . S
C605 C149 2.159 . S
C611 C347 2.159 . S
C625 C182 2.152 . S
C631 C380 2.152 . S
C645 N146 1.780 . S
C651 N14 1.795 . S
C665 N179 1.793 . S
C671 N47 1.784 . S
C685 N113 1.767 . S
C691 N80 1.786 . S
C705 N212 1.779 . S
C711 N344 1.795 . S
C725 N245 1.791 . S
C731 N377 1.769 . S
C745 N311 1.768 . S
C751 N278 1.780 . S
C765 C28 0.380 . S
C771 N71 0.739 . S
C785 C61 0.423 . S
C791 N5 0.712 . S
C805 N38 0.676 . S
C811 C94 0.386 . S
C825 C127 0.419 . S
C831 N137 0.646 . S
C845 N170 0.696 . S
C851 C160 0.433 . S
C865 N104 0.725 . S
C871 C193 0.410 . S
C885 N269 0.693 . S
C891 C226 0.435 . S
C905 C259 0.383 . S
C911 N203 0.680 . S
C925 N236 0.647 . S
C931 C292 0.441 . S
C945 N335 0.735 . S
C951 C325 0.368 . S
C965 N368 0.716 . S
C971 C358 0.419 . S
C985 C391 0.440 . S
C991 N302 0.681 . S
