# Generated by pormake.
# Topology qdl, (4)-cn, num edge types: 1
# Building blocks:
#     Node 0, Type 0, BuildingBlock: NAWXER_clean_sbu_0, # of connection points: 4
#     Node 1, Type 0, BuildingBlock: NAWXER_clean_sbu_0, # of connection points: 4
#     Node 2, Type 0, BuildingBlock: NAWXER_clean_sbu_0, # of connection points: 4
#     Node 3, Type 0, BuildingBlock: NAWXER_clean_sbu_0, # of connection points: 4
#     Node 4, Type 0, BuildingBlock: NAWXER_clean_sbu_0, # of connection points: 4
#     Node 5, Type 0, BuildingBlock: NAWXER_clean_sbu_0, # of connection points: 4
#     Edge 6, Type (0, 0), BuildingBlock: TEMPAE_clean_linker_10, # of connection points: 2
#     Edge 7, Type (0, 0), BuildingBlock: TEMPAE_clean_linker_10, # of connection points: 2
#     Edge 8, Type (0, 0), BuildingBlock: TEMPAE_clean_linker_10, # of connection points: 2
#     Edge 9, Type (0, 0), BuildingBlock: TEMPAE_clean_linker_10, # of connection points: 2
#     Edge 10, Type (0, 0), BuildingBlock: TEMPAE_clean_linker_10, # of connection points: 2
#     Edge 11, Type (0, 0), BuildingBlock: TEMPAE_clean_linker_10, # of connection points: 2
#     Edge 12, Type (0, 0), BuildingBlock: TEMPAE_clean_linker_10, # of connection points: 2
#     Edge 13, Type (0, 0), BuildingBlock: TEMPAE_clean_linker_10, # of connection points: 2
#     Edge 14, Type (0, 0), BuildingBlock: TEMPAE_clean_linker_10, # of connection points: 2
#     Edge 15, Type (0, 0), BuildingBlock: TEMPAE_clean_linker_10, # of connection points: 2
#     Edge 16, Type (0, 0), BuildingBlock: TEMPAE_clean_linker_10, # of connection points: 2
#     Edge 17, Type (0, 0), BuildingBlock: TEMPAE_clean_linker_10, # of connection points: 2
# Relax obj value: 0.000
# Max RMSD: 0.023
# Mean RMSD: 0.019
data_MOF--net-qdl--node1-NAWXER_clean_sbu_0--edge1-TEMPAE_clean_linker_10
_symmetry_space_group_name_H-M    P1
_symmetry_Int_Tables_number       1
_symmetry_cell_setting            triclinic
loop_
_symmetry_equiv_pos_as_xyz
'x, y, z'
_cell_length_a     14.905978
_cell_length_b     14.918471
_cell_length_c     89.202587
_cell_angle_alpha  94.846967
_cell_angle_beta   94.92509
_cell_angle_gamma 120.04858
loop_
_atom_site_label
_atom_site_type_symbol
_atom_site_fract_x
_atom_site_fract_y
_atom_site_fract_z
_atom_type_partial_charge
C0 C 0.03552 0.88238 0.08763 0.0
C1 C 0.03129 0.20818 0.09017 0.0
O2 O 0.12824 0.96332 0.08961 0.0
Zn3 Zn 0.19841 0.13189 0.09238 0.0
O4 O 0.95631 0.89369 0.08662 0.0
Zn5 Zn 0.03247 0.04433 0.08877 0.0
O6 O 0.10423 0.07614 0.06844 0.0
O7 O 0.27546 0.17028 0.07538 0.0
O8 O 0.95345 0.11516 0.0876 0.0
O9 O 0.12458 0.22403 0.09222 0.0
O10 O 0.27648 0.17758 0.11267 0.0
O11 O 0.10492 0.0849 0.11219 0.0
C12 C 0.19694 0.12535 0.0649 0.0
C13 C 0.19791 0.13558 0.11969 0.0
C14 C 0.23376 0.9505 0.42171 0.0
C15 C 0.90426 0.94758 0.41869 0.0
O16 O 0.1412 0.87191 0.41867 0.0
Zn17 Zn 0.06922 0.94847 0.42028 0.0
O18 O 0.24822 0.04315 0.42434 0.0
Zn19 Zn 0.15172 0.1138 0.42473 0.0
O20 O 0.18714 0.18608 0.44526 0.0
O21 O 0.10908 1.01424 0.444 0.0
O22 O 0.98403 0.04075 0.42107 0.0
O23 O 0.91749 0.8697 0.41767 0.0
O24 O 0.10555 0.02672 0.40049 0.0
O25 O 0.19149 0.19681 0.40842 0.0
C26 C 0.15245 0.10551 0.45189 0.0
C27 C 0.15276 0.12112 0.39756 0.0
C28 C 0.10711 0.13444 0.78504 0.0
C29 C 0.07757 0.10384 0.72982 0.0
O30 O 0.05597 0.17515 0.77947 0.0
Zn31 Zn 1.00977 0.19984 0.75732 0.0
O32 O 0.14553 0.09526 0.7763 0.0
Zn33 Zn 0.09419 0.12074 0.75751 0.0
O34 O 0.18912 0.28786 0.75924 0.0
O35 O 0.08288 0.35062 0.75824 0.0
O36 O 0.12415 0.0736 0.73885 0.0
O37 O 0.03174 0.15008 0.73522 0.0
O38 O 0.85983 0.12602 0.75637 0.0
O39 O 0.92547 0.02187 0.75577 0.0
C40 C 0.17512 0.3659 0.75924 0.0
C41 C 0.8463 0.03455 0.75563 0.0
C42 C 0.08505 0.03451 0.6164 0.0
C43 C 0.09042 0.06006 0.56238 0.0
O44 O 0.12784 0.11634 0.61008 0.0
Zn45 Zn 0.08916 0.04736 0.58938 0.0
O46 O 0.03679 0.94414 0.60814 0.0
Zn47 Zn 1.00127 0.8825 0.58422 0.0
O48 O 0.07168 0.80358 0.58222 0.0
O49 O 0.18098 0.97348 0.58872 0.0
O50 O 0.03767 0.96478 0.56479 0.0
O51 O 0.13534 0.13372 0.57355 0.0
O52 O 0.92041 0.97802 0.58567 0.0
O53 O 0.85045 0.80628 0.58133 0.0
C54 C 0.16481 0.88061 0.58568 0.0
C55 C 0.83928 0.88542 0.58289 0.0
C56 C 0.21148 0.20009 0.95404 0.0
C57 C 0.17094 0.17792 0.89882 0.0
O58 O 0.16456 0.24668 0.94916 0.0
Zn59 Zn 0.11172 0.27235 0.92758 0.0
O60 O 0.24017 0.15454 0.94457 0.0
Zn61 Zn 0.19001 0.18712 0.92635 0.0
O62 O 0.28938 0.35576 0.92846 0.0
O63 O 0.18625 0.42245 0.929 0.0
O64 O 0.21145 0.138 0.90703 0.0
O65 O 0.13187 0.22873 0.90502 0.0
O66 O 0.96132 0.19985 0.92723 0.0
O67 O 0.02293 0.09291 0.92515 0.0
C68 C 0.27734 0.43539 0.92919 0.0
C69 C 0.94545 0.10742 0.92575 0.0
C70 C 0.15813 0.18926 0.28625 0.0
C71 C 0.17903 0.17631 0.23194 0.0
O72 O 0.06747 0.14071 0.27804 0.0
Zn73 Zn 1.00385 0.09927 0.25421 0.0
O74 O 0.23989 0.2274 0.27985 0.0
Zn75 Zn 0.1696 0.18192 0.2591 0.0
O76 O 0.09952 0.27765 0.25657 0.0
O77 O 0.92746 0.17167 0.25265 0.0
O78 O 0.25397 0.2113 0.24286 0.0
O79 O 0.0843 0.13447 0.23467 0.0
O80 O 0.92558 0.9473 0.2512 0.0
O81 O 0.09582 0.0151 0.25758 0.0
C82 C 1.00683 0.26363 0.25424 0.0
C83 C 1.00304 0.93499 0.2544 0.0
C84 C 0.94313 0.69988 0.09384 0.0
C85 C 0.02208 0.77706 0.08703 0.0
C86 C 0.93567 0.60255 0.09449 0.0
C87 C 1.00665 0.58096 0.08771 0.0
C88 C 0.08361 0.65732 0.08024 0.0
C89 C 0.09163 0.75516 0.08024 0.0
C90 C 0.85481 0.5247 0.10298 0.0
C91 C 0.15875 0.63638 0.07246 0.0
C92 C 0.07916 0.3878 0.10123 0.0
C93 C 1.01637 0.2988 0.09037 0.0
C94 C 0.07269 0.4783 0.10093 0.0
C95 C 1.00483 0.48121 0.0891 0.0
C96 C 0.94019 0.3908 0.07819 0.0
C97 C 0.94542 0.29983 0.07913 0.0
C98 C 0.14035 0.57162 0.11308 0.0
C99 C 0.86937 0.39178 0.06514 0.0
H100 H 0.88996 0.71726 0.09921 0.0
H101 H 0.15223 0.81466 0.07488 0.0
H102 H 0.8055 0.44816 0.09557 0.0
H103 H 0.89479 0.51142 0.11288 0.0
H104 H 0.80305 0.55184 0.10715 0.0
H105 H 0.20703 0.69981 0.06594 0.0
H106 H 0.2121 0.62898 0.08105 0.0
H107 H 0.11499 0.56129 0.06457 0.0
H108 H 0.13367 0.3866 0.10997 0.0
H109 H 0.8978 0.2312 0.07063 0.0
H110 H 0.0922 0.60032 0.11813 0.0
H111 H 0.20092 0.6365 0.10797 0.0
H112 H 0.18035 0.55294 0.12233 0.0
H113 H 0.81676 0.4171 0.06944 0.0
H114 H 0.82071 0.3138 0.05801 0.0
H115 H 0.91754 0.44919 0.05783 0.0
C116 C 0.41661 1.00225 0.43197 0.0
C117 C 0.32504 0.93657 0.42167 0.0
C118 C 0.50626 0.99422 0.43154 0.0
C119 C 0.50545 0.92144 0.42016 0.0
C120 C 0.41263 0.85421 0.40981 0.0
C121 C 0.32282 0.8614 0.41086 0.0
C122 C 0.60248 0.06505 0.4431 0.0
C123 C 0.40955 0.77798 0.39722 0.0
C124 C 0.77531 0.99928 0.41031 0.0
C125 C 0.79829 0.93271 0.41778 0.0
C126 C 0.67809 0.99265 0.41037 0.0
C127 C 0.60371 0.92047 0.41861 0.0
C128 C 0.62613 0.852 0.42601 0.0
C129 C 0.72272 0.85774 0.42528 0.0
C130 C 0.65603 0.06468 0.40191 0.0
C131 C 0.55038 0.77633 0.4353 0.0
H132 H 0.41798 0.05989 0.4404 0.0
H133 H 0.25218 0.81128 0.4028 0.0
H134 H 0.63147 0.01845 0.44859 0.0
H135 H 0.66606 0.12169 0.43735 0.0
H136 H 0.58697 0.10967 0.45208 0.0
H137 H 0.33018 0.72832 0.39048 0.0
H138 H 0.46533 0.82178 0.38943 0.0
H139 H 0.4347 0.72639 0.40197 0.0
H140 H 0.83379 0.05693 0.40445 0.0
H141 H 0.7412 0.80712 0.4312 0.0
H142 H 0.65195 0.12214 0.41013 0.0
H143 H 0.57904 0.01922 0.39446 0.0
H144 H 0.71736 0.10837 0.39481 0.0
H145 H 0.54092 0.82069 0.44506 0.0
H146 H 0.57736 0.72518 0.43978 0.0
H147 H 0.472 0.72622 0.42837 0.0
C148 C 0.67276 0.94857 0.7648 0.0
C149 C 0.74084 0.94304 0.75537 0.0
C150 C 0.57645 0.85902 0.76581 0.0
C151 C 0.54625 0.76288 0.75676 0.0
C152 C 0.61298 0.75844 0.7467 0.0
C153 C 0.71048 0.84814 0.74636 0.0
C154 C 0.50936 0.8662 0.77706 0.0
C155 C 0.58232 0.65841 0.73649 0.0
C156 C 0.36173 0.50055 0.76857 0.0
C157 C 0.2665 0.47183 0.75974 0.0
C158 C 0.45215 0.59738 0.76824 0.0
C159 C 0.44807 0.66536 0.7584 0.0
C160 C 0.35151 0.63723 0.7496 0.0
C161 C 0.26127 0.54132 0.75058 0.0
C162 C 0.55261 0.62579 0.77818 0.0
C163 C 0.34459 0.70599 0.73863 0.0
H164 H 0.69701 0.02188 0.7719 0.0
H165 H 0.7631 0.84422 0.73901 0.0
H166 H 0.42884 0.83708 0.77127 0.0
H167 H 0.50298 0.81565 0.78584 0.0
H168 H 0.54199 0.94755 0.78283 0.0
H169 H 0.63794 0.67073 0.72826 0.0
H170 H 0.58005 0.59946 0.74348 0.0
H171 H 0.50261 0.62515 0.73005 0.0
H172 H 0.36552 0.44687 0.77572 0.0
H173 H 0.18775 0.51843 0.74362 0.0
H174 H 0.5877 0.70529 0.78474 0.0
H175 H 0.61026 0.62724 0.77098 0.0
H176 H 0.54011 0.56938 0.78629 0.0
H177 H 0.3758 0.78644 0.74458 0.0
H178 H 0.26292 0.67518 0.73311 0.0
H179 H 0.39358 0.71184 0.72964 0.0
C180 C 0.25687 0.79709 0.57412 0.0
C181 C 0.25533 0.86555 0.58571 0.0
C182 C 0.34788 0.79206 0.57305 0.0
C183 C 0.43778 0.85433 0.58415 0.0
C184 C 0.43437 0.91963 0.5963 0.0
C185 C 0.34384 0.92595 0.59676 0.0
C186 C 0.34945 0.72403 0.55967 0.0
C187 C 0.52718 0.98472 0.60864 0.0
C188 C 0.65535 0.79086 0.58847 0.0
C189 C 0.73378 0.87178 0.5821 0.0
C190 C 0.55788 0.78324 0.58908 0.0
C191 C 0.53748 0.85616 0.58269 0.0
C192 C 0.61506 0.9351 0.57562 0.0
C193 C 0.71304 0.94316 0.57568 0.0
C194 C 0.47865 0.70018 0.59715 0.0
C195 C 0.59535 1.01236 0.56825 0.0
H196 H 0.18866 0.75135 0.56547 0.0
H197 H 0.34227 0.97854 0.60576 0.0
H198 H 0.40765 0.77406 0.5526 0.0
H199 H 0.37416 0.67017 0.56364 0.0
H200 H 0.27176 0.67693 0.5524 0.0
H201 H 0.50815 0.02296 0.61806 0.0
H202 H 0.55516 0.93517 0.61339 0.0
H203 H 0.59277 0.0465 0.60379 0.0
H204 H 0.67191 0.73628 0.59357 0.0
H205 H 0.77357 1.00531 0.57066 0.0
H206 H 0.40247 0.65272 0.58957 0.0
H207 H 0.46489 0.73807 0.60723 0.0
H208 H 0.5049 0.64698 0.60098 0.0
H209 H 0.52063 0.97037 0.56025 0.0
H210 H 0.65958 0.06201 0.56195 0.0
H211 H 0.58776 0.0642 0.57707 0.0
C212 C 0.36205 0.61175 0.9209 0.0
C213 C 0.3691 0.54083 0.92956 0.0
C214 C 0.45144 0.70835 0.91996 0.0
C215 C 0.5491 0.73581 0.92832 0.0
C216 C 0.55525 0.66608 0.93762 0.0
C217 C 0.46553 0.56849 0.93789 0.0
C218 C 0.4423 0.77881 0.90951 0.0
C219 C 0.65704 0.69366 0.94709 0.0
C220 C 0.80811 0.92284 0.91584 0.0
C221 C 0.83951 0.01628 0.92535 0.0
C222 C 0.71129 0.8324 0.91617 0.0
C223 C 0.64623 0.83447 0.92671 0.0
C224 C 0.6771 0.92925 0.93622 0.0
C225 C 0.7728 0.01971 0.93523 0.0
C226 C 0.67982 0.73399 0.90549 0.0
C227 C 0.61158 0.93386 0.94792 0.0
H228 H 0.28753 0.58965 0.91432 0.0
H229 H 0.47066 0.51369 0.94465 0.0
H230 H 0.47328 0.85826 0.91582 0.0
H231 H 0.49035 0.78711 0.9003 0.0
H232 H 0.36006 0.74795 0.90425 0.0
H233 H 0.6463 0.6356 0.95483 0.0
H234 H 0.71377 0.69734 0.93953 0.0
H235 H 0.69228 0.77207 0.954 0.0
H236 H 0.85967 0.9205 0.90814 0.0
H237 H 0.79784 0.09182 0.94271 0.0
H238 H 0.59922 0.70093 0.89939 0.0
H239 H 0.67946 0.67401 0.91207 0.0
H240 H 0.73391 0.74831 0.89696 0.0
H241 H 0.53023 0.90454 0.94247 0.0
H242 H 0.64418 1.01449 0.95397 0.0
H243 H 0.60733 0.88219 0.95643 0.0
C244 C 0.06472 0.43899 0.24664 0.0
C245 C 0.99367 0.35477 0.25335 0.0
C246 C 0.05634 0.52827 0.24614 0.0
C247 C 0.97725 0.53501 0.253 0.0
C248 C 0.90462 0.44959 0.25968 0.0
C249 C 0.91265 0.35954 0.25954 0.0
C250 C 0.13344 0.61619 0.2385 0.0
C251 C 0.82132 0.45504 0.26752 0.0
C252 C 0.04811 0.81428 0.26596 0.0
C253 C 0.9882 0.82974 0.25464 0.0
C254 C 0.04111 0.717 0.26595 0.0
C255 C 0.97548 0.63428 0.254 0.0
C256 C 0.91363 0.64912 0.24263 0.0
C257 C 0.91941 0.74647 0.24323 0.0
C258 C 0.10588 0.7036 0.27856 0.0
C259 C 0.8452 0.56396 0.22946 0.0
H260 H 0.12671 0.43471 0.2417 0.0
H261 H 0.85811 0.29452 0.26481 0.0
H262 H 0.09119 0.63903 0.23025 0.0
H263 H 0.18522 0.686 0.24712 0.0
H264 H 0.18327 0.59437 0.23241 0.0
H265 H 0.76819 0.38036 0.27159 0.0
H266 H 0.85907 0.51846 0.27742 0.0
H267 H 0.77372 0.47452 0.25971 0.0
H268 H 0.1007 0.87867 0.27485 0.0
H269 H 0.87381 0.75895 0.23441 0.0
H270 H 0.16756 0.69373 0.27391 0.0
H271 H 0.05598 0.63204 0.28354 0.0
H272 H 0.14434 0.7718 0.28779 0.0
H273 H 0.89501 0.54715 0.22256 0.0
H274 H 0.7982 0.58606 0.22197 0.0
H275 H 0.79115 0.49048 0.23368 0.0
C276 C 0.13926 0.2064 0.20589 0.0
C277 C 0.19918 0.18348 0.21607 0.0
C278 C 0.1514 0.20674 0.19048 0.0
C279 C 0.22253 0.17973 0.18504 0.0
C280 C 0.28484 0.15845 0.19536 0.0
C281 C 0.2736 0.1623 0.21086 0.0
C282 C 0.08577 0.23306 0.17996 0.0
C283 C 0.35933 0.12651 0.18993 0.0
C284 C 0.14314 0.06094 0.14342 0.0
C285 C 0.21186 0.14473 0.13642 0.0
C286 C 0.14987 0.06968 0.1593 0.0
C287 C 0.22483 0.16586 0.16838 0.0
C288 C 0.29587 0.25026 0.16137 0.0
C289 C 0.28957 0.23807 0.14544 0.0
C290 C 0.07464 0.97678 0.16632 0.0
C291 C 0.37487 0.35486 0.17062 0.0
H292 H 0.08247 0.22387 0.20999 0.0
H293 H 0.3194 0.14392 0.21876 0.0
H294 H 0.13592 0.29249 0.17306 0.0
H295 H 0.02752 0.16204 0.17196 0.0
H296 H 0.04306 0.26348 0.18626 0.0
H297 H 0.40738 0.1198 0.19951 0.0
H298 H 0.31402 0.04967 0.18247 0.0
H299 H 0.41252 0.18381 0.18305 0.0
H300 H 0.0837 0.98836 0.13643 0.0
H301 H 0.34223 0.30309 0.13999 0.0
H302 H 1.01878 0.99389 0.1715 0.0
H303 H 0.11786 0.96145 0.17554 0.0
H304 H 0.02906 0.90468 0.15783 0.0
H305 H 0.33317 0.39046 0.17593 0.0
H306 H 0.42915 0.41009 0.16358 0.0
H307 H 0.42162 0.34484 0.17997 0.0
C308 C 1.01874 0.02039 0.53486 0.0
C309 C 0.10183 0.08241 0.54664 0.0
C310 C 0.03045 0.03496 0.51966 0.0
C311 C 0.12887 0.11081 0.51615 0.0
C312 C 0.21263 0.17491 0.52806 0.0
C313 C 0.19752 0.16103 0.54322 0.0
C314 C 0.93819 0.96727 0.50734 0.0
C315 C 0.3195 0.25445 0.52476 0.0
C316 C 0.1744 0.04665 0.47649 0.0
C317 C 0.15724 0.11505 0.46856 0.0
C318 C 0.17072 0.0484 0.49217 0.0
C319 C 0.14536 0.1176 0.49996 0.0
C320 C 0.12958 0.18811 0.49203 0.0
C321 C 0.13745 0.18716 0.47643 0.0
C322 C 0.19131 0.97423 0.50029 0.0
C323 C 0.09934 0.26081 0.49983 0.0
H324 H 0.94447 0.96011 0.53753 0.0
H325 H 0.26207 0.20833 0.55235 0.0
H326 H 0.92632 0.01656 0.49969 0.0
H327 H 0.95389 0.91313 0.5003 0.0
H328 H 0.86456 0.91999 0.51207 0.0
H329 H 0.37456 0.30215 0.53531 0.0
H330 H 0.35322 0.21358 0.51852 0.0
H331 H 0.31328 0.30773 0.51735 0.0
H332 H 0.19037 0.99134 0.47039 0.0
H333 H 0.1231 0.2393 0.47024 0.0
H334 H 0.11802 0.91437 0.50394 0.0
H335 H 0.24977 0.01735 0.51068 0.0
H336 H 0.22052 0.93344 0.49296 0.0
H337 H 0.02139 0.21402 0.50345 0.0
H338 H 0.09565 0.31484 0.49229 0.0
H339 H 0.15604 0.30792 0.51023 0.0
C340 C 0.21367 0.15118 0.80945 0.0
C341 C 0.11902 0.13204 0.80155 0.0
C342 C 0.22733 0.15599 0.82535 0.0
C343 C 0.14297 0.13745 0.83337 0.0
C344 C 0.04579 0.11356 0.82528 0.0
C345 C 0.03567 0.11313 0.8095 0.0
C346 C 0.33306 0.18497 0.83362 0.0
C347 C 0.9529 0.09005 0.83332 0.0
C348 C 0.14802 0.07428 0.87379 0.0
C349 C 0.16995 0.16833 0.88222 0.0
C350 C 0.1397 0.06298 0.85784 0.0
C351 C 0.15752 0.14907 0.85029 0.0
C352 C 0.18407 0.24552 0.85888 0.0
C353 C 0.188 0.25331 0.87472 0.0
C354 C 0.10791 0.95799 0.84904 0.0
C355 C 0.20685 0.34014 0.85133 0.0
H356 H 0.27824 0.16639 0.80327 0.0
H357 H 0.96206 0.09717 0.80333 0.0
H358 H 0.3662 0.26008 0.84135 0.0
H359 H 0.32504 0.1248 0.84077 0.0
H360 H 0.38945 0.1935 0.82568 0.0
H361 H 0.88035 0.06307 0.82522 0.0
H362 H 0.93851 0.02885 0.84062 0.0
H363 H 0.9695 0.16132 0.84085 0.0
H364 H 0.13338 1.00841 0.87963 0.0
H365 H 0.20602 0.3264 0.8813 0.0
H366 H 0.16618 0.9664 0.84149 0.0
H367 H 0.03169 0.92684 0.84165 0.0
H368 H 0.10013 0.89993 0.85663 0.0
H369 H 0.26637 0.35526 0.84369 0.0
H370 H 0.23577 0.41164 0.85973 0.0
H371 H 0.13466 0.32529 0.84421 0.0
C372 C 0.12455 0.07137 0.03724 0.0
C373 C 0.21068 0.13248 0.04869 0.0
C374 C 0.13334 0.08194 0.02188 0.0
C375 C 0.23053 0.15598 0.01784 0.0
C376 C 0.3187 0.2158 0.02928 0.0
C377 C 0.30783 0.20308 0.04458 0.0
C378 C 0.03758 0.016 0.01002 0.0
C379 C 0.42348 0.29577 0.0254 0.0
C380 C 0.2564 0.12707 0.9759 0.0
C381 C 0.22679 0.19567 0.97054 0.0
C382 C 0.26155 0.11576 0.99139 0.0
C383 C 0.2372 0.17496 1.00174 0.0
C384 C 0.21151 0.24741 0.99649 0.0
C385 C 0.20628 0.2566 0.98097 0.0
C386 C 0.28889 0.03746 0.99656 0.0
C387 C 0.18579 0.31263 0.00718 0.0
H388 H 0.04936 0.01599 0.04028 0.0
H389 H 0.37477 0.25062 0.05336 0.0
H390 H 1.01463 0.06719 1.00459 0.0
H391 H 0.05531 0.97425 1.00094 0.0
H392 H 0.96973 0.95736 0.01493 0.0
H393 H 0.48607 0.33031 0.03543 0.0
H394 H 0.44712 0.25965 0.01636 0.0
H395 H 0.41721 0.35982 0.02089 0.0
H396 H 0.27238 0.07969 0.96793 0.0
H397 H 0.18418 0.31045 0.97696 0.0
H398 H 0.2196 0.97246 1.00032 0.0
H399 H 0.35239 0.07463 1.00645 0.0
H400 H 0.31422 1.00401 0.98738 0.0
H401 H 0.11262 0.26084 0.01168 0.0
H402 H 0.17499 0.37079 1.00151 0.0
H403 H 0.24908 0.35485 0.01705 0.0
C404 C 0.07731 0.1712 0.31004 0.0
C405 C 0.16595 0.19572 0.30302 0.0
C406 C 0.08023 0.16829 0.32574 0.0
C407 C 0.17374 0.18924 0.33464 0.0
C408 C 0.26451 0.21724 0.32773 0.0
C409 C 0.25971 0.22074 0.31199 0.0
C410 C 0.98206 0.13927 0.3327 0.0
C411 C 0.36542 0.2393 0.33683 0.0
C412 C 0.19435 0.24043 0.3777 0.0
C413 C 0.16184 0.14052 0.38158 0.0
C414 C 0.2001 0.2581 0.36248 0.0
C415 C 0.17377 0.17411 0.35093 0.0
C416 C 0.14308 0.07371 0.35483 0.0
C417 C 0.13696 0.05805 0.37008 0.0
C418 C 0.23225 0.366 0.35872 0.0
C419 C 0.1153 0.98227 0.34287 0.0
H420 H 1.00479 0.15266 0.30321 0.0
H421 H 0.32847 0.23956 0.30665 0.0
H422 H 0.95323 0.06269 0.33682 0.0
H423 H 0.99928 0.19808 0.34268 0.0
H424 H 0.91843 0.13352 0.32447 0.0
H425 H 0.43091 0.26733 0.33 0.0
H426 H 0.38814 0.29895 0.34694 0.0
H427 H 0.35394 0.16688 0.34103 0.0
H428 H 0.21362 0.30454 0.38651 0.0
H429 H 0.11262 0.98078 0.37298 0.0
H430 H 0.1669 0.36281 0.35126 0.0
H431 H 0.2999 0.39412 0.35236 0.0
H432 H 0.25391 0.42379 0.36907 0.0
H433 H 0.04583 0.96471 0.33477 0.0
H434 H 0.09763 0.91047 0.34788 0.0
H435 H 0.18085 1.00229 0.33624 0.0
C436 C 0.02334 0.95441 0.63974 0.0
C437 C 0.08799 0.04273 0.63313 0.0
C438 C 0.02195 0.9614 0.6555 0.0
C439 C 0.08767 0.0588 0.66492 0.0
C440 C 0.15458 0.14784 0.65836 0.0
C441 C 0.1535 0.13888 0.64253 0.0
C442 C 0.94867 0.86497 0.66205 0.0
C443 C 0.22654 0.25282 0.66805 0.0
C444 C 1.01276 0.10646 0.70315 0.0
C445 C 0.07818 0.08888 0.7132 0.0
C446 C 1.01442 0.09594 0.68741 0.0
C447 C 0.084 0.06826 0.68157 0.0
C448 C 0.14999 0.04998 0.69163 0.0
C449 C 0.14587 0.05991 0.70732 0.0
C450 C 0.94189 0.11484 0.67704 0.0
C451 C 0.22583 0.02117 0.68582 0.0
H452 H 0.97213 0.87987 0.63257 0.0
H453 H 0.20404 0.20736 0.63752 0.0
H454 H 0.99353 0.84855 0.67085 0.0
H455 H 0.8921 0.87854 0.66768 0.0
H456 H 0.90404 0.79468 0.65322 0.0
H457 H 0.27682 0.31336 0.66128 0.0
H458 H 0.17959 0.28006 0.67382 0.0
H459 H 0.27769 0.24557 0.67706 0.0
H460 H 0.95989 0.12843 0.70758 0.0
H461 H 0.19703 0.04668 0.71501 0.0
H462 H 0.89142 0.04455 0.66842 0.0
H463 H 0.98834 0.18067 0.67081 0.0
H464 H 0.89084 0.13354 0.68336 0.0
H465 H 0.18277 0.94827 0.67748 0.0
H466 H 0.27165 1.00934 0.69512 0.0
H467 H 0.28119 0.08381 0.6798 0.0
loop_
_geom_bond_atom_site_label_1
_geom_bond_atom_site_label_2
_geom_bond_distance
_geom_bond_site_symmetry_2
_ccdc_geom_bond_type
C0 O2 1.247 1_565 S
C0 O4 1.258 . S
C1 O8 1.247 . S
C1 O9 1.258 . S
O2 C0 1.247 1_545 S
O2 Zn3 2.028 . S
Zn3 O2 2.028 . S
Zn3 O7 2.035 . S
Zn3 O9 2.035 . S
Zn3 O10 2.028 . S
O4 C0 1.258 . S
O4 Zn5 2.035 1_565 S
Zn5 O4 2.035 1_545 S
Zn5 O6 2.028 . S
Zn5 O8 2.028 . S
Zn5 O11 2.035 . S
O6 Zn5 2.028 . S
O6 C12 1.247 . S
O7 Zn3 2.035 . S
O7 C12 1.258 . S
O8 C1 1.247 . S
O8 Zn5 2.028 . S
O9 C1 1.258 . S
O9 Zn3 2.035 . S
O10 Zn3 2.028 . S
O10 C13 1.247 . S
O11 Zn5 2.035 . S
O11 C13 1.258 . S
C12 O6 1.247 . S
C12 O7 1.258 . S
C13 O10 1.247 . S
C13 O11 1.258 . S
C14 O16 1.247 1_545 S
C14 O18 1.258 . S
C15 O22 1.247 . S
C15 O23 1.258 1_545 S
O16 C14 1.247 1_565 S
O16 Zn17 2.028 . S
Zn17 O16 2.028 . S
Zn17 O21 2.035 . S
Zn17 O23 2.035 1_455 S
Zn17 O24 2.028 . S
O18 C14 1.258 . S
O18 Zn19 2.035 . S
Zn19 O18 2.035 . S
Zn19 O20 2.028 . S
Zn19 O22 2.028 1_455 S
Zn19 O25 2.035 . S
O20 Zn19 2.028 . S
O20 C26 1.247 . S
O21 Zn17 2.035 . S
O21 C26 1.258 1_565 S
O22 C15 1.247 . S
O22 Zn19 2.028 1_655 S
O23 C15 1.258 1_565 S
O23 Zn17 2.035 1_655 S
O24 Zn17 2.028 . S
O24 C27 1.247 1_565 S
O25 Zn19 2.035 . S
O25 C27 1.258 . S
C26 O20 1.247 . S
C26 O21 1.258 1_545 S
C27 O24 1.247 1_545 S
C27 O25 1.258 . S
C28 O30 1.247 1_455 S
C28 O32 1.258 . S
C29 O36 1.247 . S
C29 O37 1.258 1_455 S
O30 C28 1.247 1_655 S
O30 Zn31 2.028 . S
Zn31 O30 2.028 . S
Zn31 O35 2.035 1_655 S
Zn31 O37 2.035 . S
Zn31 O38 2.029 1_545 S
O32 C28 1.258 . S
O32 Zn33 2.035 . S
Zn33 O32 2.035 . S
Zn33 O34 2.028 . S
Zn33 O36 2.028 . S
Zn33 O39 2.035 1_445 S
O34 Zn33 2.028 . S
O34 C40 1.247 . S
O35 Zn31 2.035 1_455 S
O35 C40 1.258 . S
O36 C29 1.247 . S
O36 Zn33 2.028 . S
O37 C29 1.258 1_655 S
O37 Zn31 2.035 . S
O38 Zn31 2.029 1_565 S
O38 C41 1.245 . S
O39 Zn33 2.035 1_665 S
O39 C41 1.258 . S
C40 O34 1.247 . S
C40 O35 1.258 . S
C41 O38 1.245 . S
C41 O39 1.258 . S
C42 O44 1.247 . S
C42 O46 1.258 1_445 S
C43 O50 1.247 1_455 S
C43 O51 1.258 1_565 S
O44 C42 1.247 . S
O44 Zn45 2.028 . S
Zn45 O44 2.028 . S
Zn45 O49 2.035 . S
Zn45 O51 2.035 . S
Zn45 O52 2.028 1_455 S
O46 C42 1.258 1_665 S
O46 Zn47 2.035 . S
Zn47 O46 2.035 . S
Zn47 O48 2.028 1_655 S
Zn47 O50 2.028 . S
Zn47 O53 2.035 . S
O48 Zn47 2.028 1_455 S
O48 C54 1.240 1_565 S
O49 Zn45 2.035 . S
O49 C54 1.271 . S
O50 C43 1.247 1_655 S
O50 Zn47 2.028 . S
O51 C43 1.258 1_545 S
O51 Zn45 2.035 . S
O52 Zn45 2.028 1_655 S
O52 C55 1.247 . S
O53 Zn47 2.035 . S
O53 C55 1.258 1_565 S
C54 O48 1.240 1_545 S
C54 O49 1.271 . S
C55 O52 1.247 . S
C55 O53 1.258 1_545 S
C56 O58 1.247 . S
C56 O60 1.258 . S
C57 O64 1.247 . S
C57 O65 1.258 1_455 S
O58 C56 1.247 . S
O58 Zn59 2.029 . S
Zn59 O58 2.029 . S
Zn59 O63 2.039 . S
Zn59 O65 2.036 1_455 S
Zn59 O66 2.026 1_455 S
O60 C56 1.258 . S
O60 Zn61 2.035 . S
Zn61 O60 2.035 . S
Zn61 O62 2.028 . S
Zn61 O64 2.028 . S
Zn61 O67 2.035 1_445 S
O62 Zn61 2.028 . S
O62 C68 1.247 . S
O63 Zn59 2.039 . S
O63 C68 1.258 . S
O64 C57 1.247 . S
O64 Zn61 2.028 . S
O65 C57 1.258 1_655 S
O65 Zn59 2.036 1_655 S
O66 Zn59 2.026 1_655 S
O66 C69 1.247 1_545 S
O67 Zn61 2.035 1_665 S
O67 C69 1.258 . S
C68 O62 1.247 . S
C68 O63 1.258 . S
C69 O66 1.247 1_565 S
C69 O67 1.258 . S
C70 O72 1.247 . S
C70 O74 1.258 . S
C71 O78 1.247 . S
C71 O79 1.258 . S
O72 C70 1.247 . S
O72 Zn73 2.028 . S
Zn73 O72 2.028 . S
Zn73 O77 2.035 . S
Zn73 O79 2.035 . S
Zn73 O80 2.028 1_545 S
O74 C70 1.258 . S
O74 Zn75 2.035 . S
Zn75 O74 2.035 . S
Zn75 O76 2.028 . S
Zn75 O78 2.028 . S
Zn75 O81 2.035 . S
O76 Zn75 2.028 . S
O76 C82 1.247 . S
O77 Zn73 2.035 . S
O77 C82 1.258 . S
O78 C71 1.247 . S
O78 Zn75 2.028 . S
O79 C71 1.258 . S
O79 Zn73 2.035 . S
O80 Zn73 2.028 1_565 S
O80 C83 1.247 . S
O81 Zn75 2.035 . S
O81 C83 1.258 1_545 S
C82 O76 1.247 . S
C82 O77 1.258 . S
C83 O80 1.247 . S
C83 O81 1.258 1_565 S
C84 C85 1.391 . S
C84 C86 1.394 . S
C84 H100 0.931 1_455 S
C85 C84 1.391 . S
C85 C89 1.376 . S
C86 C84 1.394 . S
C86 C87 1.369 . S
C86 C90 1.531 1_455 S
C87 C86 1.369 . S
C87 C88 1.410 . S
C87 C95 1.503 . S
C88 C87 1.410 . S
C88 C89 1.392 . S
C88 C91 1.511 . S
C89 C85 1.376 . S
C89 C88 1.392 . S
C89 H101 0.929 . S
C90 C86 1.531 1_655 S
C90 H102 0.960 . S
C90 H103 0.962 . S
C90 H104 0.960 . S
C91 C88 1.511 . S
C91 H105 0.961 . S
C91 H106 0.961 . S
C91 H107 0.961 . S
C92 C93 1.370 . S
C92 C94 1.363 . S
C92 H108 0.931 . S
C93 C92 1.370 . S
C93 C97 1.408 . S
C94 C92 1.363 . S
C94 C95 1.370 . S
C94 C98 1.524 . S
C95 C87 1.503 . S
C95 C94 1.370 . S
C95 C96 1.403 . S
C96 C95 1.403 . S
C96 C97 1.404 . S
C96 C99 1.539 . S
C97 C93 1.408 . S
C97 C96 1.404 . S
C97 H109 0.930 . S
C98 C94 1.524 . S
C98 H110 0.956 . S
C98 H111 0.961 . S
C98 H112 0.961 . S
C99 C96 1.539 . S
C99 H113 0.958 . S
C99 H114 0.961 . S
C99 H115 0.960 . S
H100 C84 0.931 1_655 S
H101 C89 0.929 . S
H102 C90 0.960 . S
H103 C90 0.962 . S
H104 C90 0.960 . S
H105 C91 0.961 . S
H106 C91 0.961 . S
H107 C91 0.961 . S
H108 C92 0.931 . S
H109 C97 0.930 . S
H110 C98 0.956 . S
H111 C98 0.961 . S
H112 C98 0.961 . S
H113 C99 0.958 . S
H114 C99 0.961 . S
H115 C99 0.960 . S
C116 C117 1.391 . S
C116 C118 1.394 . S
C116 H132 0.931 . S
C117 C116 1.391 . S
C117 C121 1.376 1_545 S
C118 C116 1.394 . S
C118 C119 1.369 1_545 S
C118 C122 1.531 . S
C119 C118 1.369 1_565 S
C119 C120 1.410 . S
C119 C127 1.503 1_565 S
C120 C119 1.410 . S
C120 C121 1.392 . S
C120 C123 1.511 . S
C121 C117 1.376 1_565 S
C121 C120 1.392 . S
C121 H133 0.929 . S
C122 C118 1.531 . S
C122 H134 0.960 . S
C122 H135 0.962 . S
C122 H136 0.960 . S
C123 C120 1.511 . S
C123 H137 0.961 . S
C123 H138 0.961 . S
C123 H139 0.961 . S
C124 C125 1.370 . S
C124 C126 1.363 . S
C124 H140 0.931 . S
C125 C124 1.370 . S
C125 C129 1.408 1_545 S
C126 C124 1.363 . S
C126 C127 1.370 . S
C126 C130 1.524 . S
C127 C119 1.503 1_545 S
C127 C126 1.370 . S
C127 C128 1.403 1_545 S
C128 C127 1.403 1_565 S
C128 C129 1.404 . S
C128 C131 1.539 . S
C129 C125 1.408 1_565 S
C129 C128 1.404 . S
C129 H141 0.930 . S
C130 C126 1.524 . S
C130 H142 0.956 . S
C130 H143 0.961 . S
C130 H144 0.961 . S
C131 C128 1.539 . S
C131 H145 0.958 . S
C131 H146 0.961 . S
C131 H147 0.960 . S
H132 C116 0.931 . S
H133 C121 0.929 . S
H134 C122 0.960 . S
H135 C122 0.962 . S
H136 C122 0.960 . S
H137 C123 0.961 . S
H138 C123 0.961 . S
H139 C123 0.961 . S
H140 C124 0.931 . S
H141 C129 0.930 . S
H142 C130 0.956 . S
H143 C130 0.961 . S
H144 C130 0.961 . S
H145 C131 0.958 . S
H146 C131 0.961 . S
H147 C131 0.960 . S
C148 C149 1.391 . S
C148 C150 1.394 . S
C148 H164 0.931 . S
C149 C148 1.391 . S
C149 C153 1.376 . S
C150 C148 1.394 . S
C150 C151 1.369 . S
C150 C154 1.531 . S
C151 C150 1.369 . S
C151 C152 1.410 . S
C151 C159 1.503 . S
C152 C151 1.410 . S
C152 C153 1.392 . S
C152 C155 1.511 . S
C153 C149 1.376 . S
C153 C152 1.392 . S
C153 H165 0.929 . S
C154 C150 1.531 . S
C154 H166 0.960 . S
C154 H167 0.962 . S
C154 H168 0.960 . S
C155 C152 1.511 . S
C155 H169 0.961 . S
C155 H170 0.961 . S
C155 H171 0.961 . S
C156 C157 1.370 . S
C156 C158 1.363 . S
C156 H172 0.931 . S
C157 C156 1.370 . S
C157 C161 1.408 . S
C158 C156 1.363 . S
C158 C159 1.370 . S
C158 C162 1.524 . S
C159 C151 1.503 . S
C159 C158 1.370 . S
C159 C160 1.403 . S
C160 C159 1.403 . S
C160 C161 1.404 . S
C160 C163 1.539 . S
C161 C157 1.408 . S
C161 C160 1.404 . S
C161 H173 0.930 . S
C162 C158 1.524 . S
C162 H174 0.956 . S
C162 H175 0.961 . S
C162 H176 0.961 . S
C163 C160 1.539 . S
C163 H177 0.958 . S
C163 H178 0.961 . S
C163 H179 0.960 . S
H164 C148 0.931 . S
H165 C153 0.929 . S
H166 C154 0.960 . S
H167 C154 0.962 . S
H168 C154 0.960 . S
H169 C155 0.961 . S
H170 C155 0.961 . S
H171 C155 0.961 . S
H172 C156 0.931 . S
H173 C161 0.930 . S
H174 C162 0.956 . S
H175 C162 0.961 . S
H176 C162 0.961 . S
H177 C163 0.958 . S
H178 C163 0.961 . S
H179 C163 0.960 . S
C180 C181 1.391 1_565 S
C180 C182 1.394 . S
C180 H196 0.931 . S
C181 C180 1.391 1_545 S
C181 C185 1.376 . S
C182 C180 1.394 . S
C182 C183 1.369 1_565 S
C182 C186 1.531 . S
C183 C182 1.369 1_545 S
C183 C184 1.410 . S
C183 C191 1.503 . S
C184 C183 1.410 . S
C184 C185 1.392 . S
C184 C187 1.511 . S
C185 C181 1.376 . S
C185 C184 1.392 . S
C185 H197 0.929 . S
C186 C182 1.531 . S
C186 H198 0.960 . S
C186 H199 0.962 . S
C186 H200 0.960 . S
C187 C184 1.511 . S
C187 H201 0.961 . S
C187 H202 0.961 . S
C187 H203 0.961 . S
C188 C189 1.370 1_565 S
C188 C190 1.363 . S
C188 H204 0.931 . S
C189 C188 1.370 1_545 S
C189 C193 1.408 . S
C190 C188 1.363 . S
C190 C191 1.370 1_565 S
C190 C194 1.524 . S
C191 C183 1.503 . S
C191 C190 1.370 1_545 S
C191 C192 1.403 . S
C192 C191 1.403 . S
C192 C193 1.404 . S
C192 C195 1.539 . S
C193 C189 1.408 . S
C193 C192 1.404 . S
C193 H205 0.930 . S
C194 C190 1.524 . S
C194 H206 0.956 . S
C194 H207 0.956 1_565 S
C194 H208 0.961 . S
C195 C192 1.539 . S
C195 H209 0.958 . S
C195 H210 0.961 . S
C195 H211 0.960 . S
H196 C180 0.931 . S
H197 C185 0.929 . S
H198 C186 0.960 . S
H199 C186 0.962 . S
H200 C186 0.960 . S
H201 C187 0.961 . S
H202 C187 0.961 . S
H203 C187 0.961 . S
H204 C188 0.931 . S
H205 C193 0.930 . S
H206 C194 0.956 . S
H207 C194 0.956 1_545 S
H208 C194 0.961 . S
H209 C195 0.958 . S
H210 C195 0.961 . S
H211 C195 0.960 . S
C212 C213 1.391 . S
C212 C214 1.394 . S
C212 H228 0.931 . S
C213 C212 1.391 . S
C213 C217 1.376 . S
C214 C212 1.394 . S
C214 C215 1.369 . S
C214 C218 1.531 . S
C215 C214 1.369 . S
C215 C216 1.410 . S
C215 C223 1.503 . S
C216 C215 1.410 . S
C216 C217 1.392 . S
C216 C219 1.511 . S
C217 C213 1.376 . S
C217 C216 1.392 . S
C217 H229 0.929 . S
C218 C214 1.531 . S
C218 H230 0.960 . S
C218 H231 0.962 . S
C218 H232 0.960 . S
C219 C216 1.511 . S
C219 H233 0.961 . S
C219 H234 0.961 . S
C219 H235 0.961 . S
C220 C221 1.370 . S
C220 C222 1.363 . S
C220 H236 0.931 . S
C221 C220 1.370 . S
C221 C225 1.408 . S
C222 C220 1.363 . S
C222 C223 1.370 . S
C222 C226 1.524 . S
C223 C215 1.503 . S
C223 C222 1.370 . S
C223 C224 1.403 . S
C224 C223 1.403 . S
C224 C225 1.404 . S
C224 C227 1.539 . S
C225 C221 1.408 . S
C225 C224 1.404 . S
C225 H237 0.930 . S
C226 C222 1.524 . S
C226 H238 0.956 . S
C226 H239 0.961 . S
C226 H240 0.961 . S
C227 C224 1.539 . S
C227 H241 0.958 . S
C227 H242 0.961 . S
C227 H243 0.960 . S
H228 C212 0.931 . S
H229 C217 0.929 . S
H230 C218 0.960 . S
H231 C218 0.962 . S
H232 C218 0.960 . S
H233 C219 0.961 . S
H234 C219 0.961 . S
H235 C219 0.961 . S
H236 C220 0.931 . S
H237 C225 0.930 . S
H238 C226 0.956 . S
H239 C226 0.961 . S
H240 C226 0.961 . S
H241 C227 0.958 . S
H242 C227 0.961 . S
H243 C227 0.960 . S
C244 C245 1.391 . S
C244 C246 1.394 . S
C244 H260 0.931 . S
C245 C244 1.391 . S
C245 C249 1.376 . S
C246 C244 1.394 . S
C246 C247 1.369 . S
C246 C250 1.531 . S
C247 C246 1.369 . S
C247 C248 1.410 . S
C247 C255 1.503 . S
C248 C247 1.410 . S
C248 C249 1.392 . S
C248 C251 1.511 1_455 S
C249 C245 1.376 . S
C249 C248 1.392 . S
C249 H261 0.929 . S
C250 C246 1.531 . S
C250 H262 0.960 . S
C250 H263 0.962 . S
C250 H264 0.960 . S
C251 C248 1.511 1_655 S
C251 H265 0.961 . S
C251 H266 0.961 . S
C251 H267 0.961 . S
C252 C253 1.370 . S
C252 C254 1.363 . S
C252 H268 0.931 . S
C253 C252 1.370 . S
C253 C257 1.408 . S
C254 C252 1.363 . S
C254 C255 1.370 . S
C254 C258 1.524 . S
C255 C247 1.503 . S
C255 C254 1.370 . S
C255 C256 1.403 . S
C256 C255 1.403 . S
C256 C257 1.404 . S
C256 C259 1.539 . S
C257 C253 1.408 . S
C257 C256 1.404 . S
C257 H269 0.930 . S
C258 C254 1.524 . S
C258 H270 0.956 . S
C258 H271 0.961 . S
C258 H272 0.961 . S
C259 C256 1.539 . S
C259 H273 0.958 . S
C259 H274 0.961 . S
C259 H275 0.960 . S
H260 C244 0.931 . S
H261 C249 0.929 . S
H262 C250 0.960 . S
H263 C250 0.962 . S
H264 C250 0.960 . S
H265 C251 0.961 . S
H266 C251 0.961 . S
H267 C251 0.961 . S
H268 C252 0.931 . S
H269 C257 0.930 . S
H270 C258 0.956 . S
H271 C258 0.961 . S
H272 C258 0.961 . S
H273 C259 0.958 . S
H274 C259 0.961 . S
H275 C259 0.960 . S
C276 C277 1.391 . S
C276 C278 1.394 . S
C276 H292 0.931 . S
C277 C276 1.391 . S
C277 C281 1.376 . S
C278 C276 1.394 . S
C278 C279 1.369 . S
C278 C282 1.531 . S
C279 C278 1.369 . S
C279 C280 1.410 . S
C279 C287 1.503 . S
C280 C279 1.410 . S
C280 C281 1.392 . S
C280 C283 1.511 . S
C281 C277 1.376 . S
C281 C280 1.392 . S
C281 H293 0.929 . S
C282 C278 1.531 . S
C282 H294 0.960 . S
C282 H295 0.962 . S
C282 H296 0.960 . S
C283 C280 1.511 . S
C283 H297 0.961 1_545 S
C283 H298 0.961 1_545 S
C283 H299 0.961 . S
C284 C285 1.370 . S
C284 C286 1.363 . S
C284 H300 0.931 . S
C285 C284 1.370 . S
C285 C289 1.408 . S
C286 C284 1.363 . S
C286 C287 1.370 . S
C286 C290 1.524 1_455 S
C287 C279 1.503 . S
C287 C286 1.370 . S
C287 C288 1.403 . S
C288 C287 1.403 . S
C288 C289 1.404 . S
C288 C291 1.539 . S
C289 C285 1.408 . S
C289 C288 1.404 . S
C289 H301 0.930 . S
C290 C286 1.524 1_655 S
C290 H302 0.956 . S
C290 H303 0.961 1_645 S
C290 H304 0.961 1_545 S
C291 C288 1.539 . S
C291 H305 0.958 . S
C291 H306 0.961 . S
C291 H307 0.960 . S
H292 C276 0.931 . S
H293 C281 0.929 . S
H294 C282 0.960 . S
H295 C282 0.962 . S
H296 C282 0.960 . S
H297 C283 0.961 1_565 S
H298 C283 0.961 1_565 S
H299 C283 0.961 . S
H300 C284 0.931 . S
H301 C289 0.930 . S
H302 C290 0.956 . S
H303 C290 0.961 1_465 S
H304 C290 0.961 1_565 S
H305 C291 0.958 . S
H306 C291 0.961 . S
H307 C291 0.960 . S
C308 C309 1.393 1_655 S
C308 C310 1.394 . S
C308 H324 0.931 . S
C309 C308 1.393 1_455 S
C309 C313 1.373 1_565 S
C310 C308 1.394 . S
C310 C311 1.369 1_665 S
C310 C314 1.531 . S
C311 C310 1.369 1_445 S
C311 C312 1.410 . S
C311 C319 1.503 . S
C312 C311 1.410 . S
C312 C313 1.392 . S
C312 C315 1.511 . S
C313 C309 1.373 1_545 S
C313 C312 1.392 . S
C313 H325 0.929 . S
C314 C310 1.531 . S
C314 H326 0.960 . S
C314 H327 0.962 . S
C314 H328 0.960 . S
C315 C312 1.511 . S
C315 H329 0.961 . S
C315 H330 0.961 . S
C315 H331 0.961 . S
C316 C317 1.370 1_565 S
C316 C318 1.363 . S
C316 H332 0.931 . S
C317 C316 1.370 1_545 S
C317 C321 1.408 . S
C318 C316 1.363 . S
C318 C319 1.370 1_565 S
C318 C322 1.524 . S
C319 C311 1.503 . S
C319 C318 1.370 1_545 S
C319 C320 1.403 1_455 S
C320 C319 1.403 1_655 S
C320 C321 1.404 1_655 S
C320 C323 1.539 . S
C321 C317 1.408 . S
C321 C320 1.404 1_455 S
C321 H333 0.930 1_455 S
C322 C318 1.524 . S
C322 H334 0.956 . S
C322 H335 0.961 . S
C322 H336 0.961 . S
C323 C320 1.539 . S
C323 H337 0.958 . S
C323 H338 0.961 . S
C323 H339 0.960 . S
H324 C308 0.931 . S
H325 C313 0.929 . S
H326 C314 0.960 . S
H327 C314 0.962 . S
H328 C314 0.960 . S
H329 C315 0.961 . S
H330 C315 0.961 . S
H331 C315 0.961 . S
H332 C316 0.931 . S
H333 C321 0.930 1_655 S
H334 C322 0.956 . S
H335 C322 0.961 . S
H336 C322 0.961 . S
H337 C323 0.958 . S
H338 C323 0.961 . S
H339 C323 0.960 . S
C340 C341 1.391 . S
C340 C342 1.394 . S
C340 H356 0.931 . S
C341 C340 1.391 . S
C341 C345 1.376 1_455 S
C342 C340 1.394 . S
C342 C343 1.369 . S
C342 C346 1.531 . S
C343 C342 1.369 . S
C343 C344 1.410 1_455 S
C343 C351 1.503 . S
C344 C343 1.410 1_655 S
C344 C345 1.392 . S
C344 C347 1.511 . S
C345 C341 1.376 1_655 S
C345 C344 1.392 . S
C345 H357 0.929 . S
C346 C342 1.531 . S
C346 H358 0.960 . S
C346 H359 0.962 . S
C346 H360 0.960 . S
C347 C344 1.511 . S
C347 H361 0.961 . S
C347 H362 0.961 . S
C347 H363 0.961 . S
C348 C349 1.370 . S
C348 C350 1.363 . S
C348 H364 0.931 1_545 S
C349 C348 1.370 . S
C349 C353 1.408 . S
C350 C348 1.363 . S
C350 C351 1.370 . S
C350 C354 1.524 1_445 S
C351 C343 1.503 . S
C351 C350 1.370 . S
C351 C352 1.403 . S
C352 C351 1.403 . S
C352 C353 1.404 . S
C352 C355 1.539 . S
C353 C349 1.408 . S
C353 C352 1.404 . S
C353 H365 0.930 . S
C354 C350 1.524 1_665 S
C354 H366 0.956 1_655 S
C354 H367 0.961 . S
C354 H368 0.961 . S
C355 C352 1.539 . S
C355 H369 0.958 . S
C355 H370 0.961 . S
C355 H371 0.960 . S
H356 C340 0.931 . S
H357 C345 0.929 . S
H358 C346 0.960 . S
H359 C346 0.962 . S
H360 C346 0.960 . S
H361 C347 0.961 . S
H362 C347 0.961 . S
H363 C347 0.961 . S
H364 C348 0.931 1_565 S
H365 C353 0.930 . S
H366 C354 0.956 1_455 S
H367 C354 0.961 . S
H368 C354 0.961 . S
H369 C355 0.958 . S
H370 C355 0.961 . S
H371 C355 0.960 . S
C372 C373 1.391 . S
C372 C374 1.394 . S
C372 H388 0.931 . S
C373 C372 1.391 . S
C373 C377 1.376 . S
C374 C372 1.394 . S
C374 C375 1.369 . S
C374 C378 1.531 1_455 S
C375 C374 1.369 . S
C375 C376 1.410 . S
C375 C383 1.503 1_554 S
C376 C375 1.410 . S
C376 C377 1.392 . S
C376 C379 1.511 . S
C377 C373 1.376 . S
C377 C376 1.392 . S
C377 H389 0.929 . S
C378 C374 1.531 1_655 S
C378 H390 0.960 1_655 S
C378 H391 0.962 . S
C378 H392 0.960 . S
C379 C376 1.511 . S
C379 H393 0.961 . S
C379 H394 0.961 1_554 S
C379 H395 0.961 . S
C380 C381 1.370 . S
C380 C382 1.363 . S
C380 H396 0.931 1_455 S
C381 C380 1.370 . S
C381 C385 1.408 . S
C382 C380 1.363 . S
C382 C383 1.370 . S
C382 C386 1.524 1_445 S
C383 C375 1.503 1_556 S
C383 C382 1.370 . S
C383 C384 1.403 . S
C384 C383 1.403 . S
C384 C385 1.404 . S
C384 C387 1.539 . S
C385 C381 1.408 . S
C385 C384 1.404 . S
C385 H397 0.930 . S
C386 C382 1.524 1_665 S
C386 H398 0.956 . S
C386 H399 0.961 1_655 S
C386 H400 0.961 . S
C387 C384 1.539 . S
C387 H401 0.958 . S
C387 H402 0.961 . S
C387 H403 0.960 1_556 S
H388 C372 0.931 . S
H389 C377 0.929 . S
H390 C378 0.960 1_455 S
H391 C378 0.962 . S
H392 C378 0.960 . S
H393 C379 0.961 . S
H394 C379 0.961 1_556 S
H395 C379 0.961 . S
H396 C380 0.931 1_655 S
H397 C385 0.930 . S
H398 C386 0.956 . S
H399 C386 0.961 1_455 S
H400 C386 0.961 . S
H401 C387 0.958 . S
H402 C387 0.961 . S
H403 C387 0.960 1_554 S
C404 C405 1.391 . S
C404 C406 1.394 1_545 S
C404 H420 0.931 1_445 S
C405 C404 1.391 . S
C405 C409 1.376 . S
C406 C404 1.394 1_565 S
C406 C407 1.369 1_565 S
C406 C410 1.531 1_455 S
C407 C406 1.369 1_545 S
C407 C408 1.410 . S
C407 C415 1.503 . S
C408 C407 1.410 . S
C408 C409 1.392 . S
C408 C411 1.511 . S
C409 C405 1.376 . S
C409 C408 1.392 . S
C409 H421 0.929 . S
C410 C406 1.531 1_655 S
C410 H422 0.960 . S
C410 H423 0.962 . S
C410 H424 0.960 . S
C411 C408 1.511 . S
C411 H425 0.961 . S
C411 H426 0.961 . S
C411 H427 0.961 . S
C412 C413 1.370 . S
C412 C414 1.363 . S
C412 H428 0.931 . S
C413 C412 1.370 . S
C413 C417 1.408 1_545 S
C414 C412 1.363 . S
C414 C415 1.370 . S
C414 C418 1.524 . S
C415 C407 1.503 . S
C415 C414 1.370 . S
C415 C416 1.403 1_545 S
C416 C415 1.403 1_565 S
C416 C417 1.404 . S
C416 C419 1.539 . S
C417 C413 1.408 1_565 S
C417 C416 1.404 . S
C417 H429 0.930 . S
C418 C414 1.524 . S
C418 H430 0.956 1_455 S
C418 H431 0.961 . S
C418 H432 0.961 . S
C419 C416 1.539 . S
C419 H433 0.958 . S
C419 H434 0.961 . S
C419 H435 0.960 . S
H420 C404 0.931 1_665 S
H421 C409 0.929 . S
H422 C410 0.960 . S
H423 C410 0.962 . S
H424 C410 0.960 . S
H425 C411 0.961 . S
H426 C411 0.961 . S
H427 C411 0.961 . S
H428 C412 0.931 . S
H429 C417 0.930 . S
H430 C418 0.956 1_655 S
H431 C418 0.961 . S
H432 C418 0.961 . S
H433 C419 0.958 . S
H434 C419 0.961 . S
H435 C419 0.960 . S
C436 C437 1.391 1_665 S
C436 C438 1.394 . S
C436 H452 0.931 . S
C437 C436 1.391 1_445 S
C437 C441 1.376 . S
C438 C436 1.394 . S
C438 C439 1.376 1_565 S
C438 C442 1.531 . S
C439 C438 1.376 1_545 S
C439 C440 1.401 1_655 S
C439 C447 1.505 1_655 S
C440 C439 1.401 1_455 S
C440 C441 1.392 . S
C440 C443 1.511 . S
C441 C437 1.376 . S
C441 C440 1.392 . S
C441 H453 0.929 . S
C442 C438 1.531 . S
C442 H454 0.960 . S
C442 H455 0.962 1_565 S
C442 H456 0.960 . S
C443 C440 1.511 . S
C443 H457 0.961 . S
C443 H458 0.961 . S
C443 H459 0.961 1_545 S
C444 C445 1.370 . S
C444 C446 1.363 . S
C444 H460 0.931 . S
C445 C444 1.370 . S
C445 C449 1.408 1_445 S
C446 C444 1.363 . S
C446 C447 1.370 . S
C446 C450 1.524 . S
C447 C439 1.505 1_455 S
C447 C446 1.370 . S
C447 C448 1.403 1_445 S
C448 C447 1.403 1_665 S
C448 C449 1.404 . S
C448 C451 1.539 . S
C449 C445 1.408 1_665 S
C449 C448 1.404 . S
C449 H461 0.930 . S
C450 C446 1.524 . S
C450 H462 0.956 . S
C450 H463 0.961 . S
C450 H464 0.961 . S
C451 C448 1.539 . S
C451 H465 0.958 . S
C451 H466 0.961 . S
C451 H467 0.960 . S
H452 C436 0.931 . S
H453 C441 0.929 . S
H454 C442 0.960 . S
H455 C442 0.962 1_545 S
H456 C442 0.960 . S
H457 C443 0.961 . S
H458 C443 0.961 . S
H459 C443 0.961 1_565 S
H460 C444 0.931 . S
H461 C449 0.930 . S
H462 C450 0.956 . S
H463 C450 0.961 . S
H464 C450 0.961 . S
H465 C451 0.958 . S
H466 C451 0.961 . S
H467 C451 0.960 . S
C85 C0 1.488 . S
C93 C1 1.500 . S
C117 C14 1.490 . S
C125 C15 1.499 . S
C149 C41 1.493 . S
C157 C40 1.498 . S
C181 C54 1.493 . S
C189 C55 1.496 . S
C213 C68 1.493 . S
C221 C69 1.498 . S
C245 C82 1.499 . S
C253 C83 1.496 . S
C277 C71 1.503 . S
C285 C13 1.505 . S
C309 C43 1.495 . S
C317 C26 1.505 . S
C341 C28 1.497 . S
C349 C57 1.506 . S
C373 C12 1.509 . S
C381 C56 1.504 . S
C405 C70 1.506 . S
C413 C27 1.507 . S
C437 C42 1.504 . S
C445 C29 1.501 . S
