# Generated by pormake.
# Topology sra, (4)-cn, num edge types: 1
# Building blocks:
#     Node 0, Type 0, BuildingBlock: GALJAG_clean_sbu_0, # of connection points: 4
#     Node 1, Type 0, BuildingBlock: GALJAG_clean_sbu_0, # of connection points: 4
#     Node 2, Type 0, BuildingBlock: GALJAG_clean_sbu_0, # of connection points: 4
#     Node 3, Type 0, BuildingBlock: GALJAG_clean_sbu_0, # of connection points: 4
#     Node 4, Type 0, BuildingBlock: GALJAG_clean_sbu_0, # of connection points: 4
#     Node 5, Type 0, BuildingBlock: GALJAG_clean_sbu_0, # of connection points: 4
#     Node 6, Type 0, BuildingBlock: GALJAG_clean_sbu_0, # of connection points: 4
#     Node 7, Type 0, BuildingBlock: GALJAG_clean_sbu_0, # of connection points: 4
#     Edge 8, Type (0, 0), BuildingBlock: AJUNOK_clean_linker_0, # of connection points: 2
#     Edge 9, Type (0, 0), BuildingBlock: AJUNOK_clean_linker_0, # of connection points: 2
#     Edge 10, Type (0, 0), BuildingBlock: AJUNOK_clean_linker_0, # of connection points: 2
#     Edge 11, Type (0, 0), BuildingBlock: AJUNOK_clean_linker_0, # of connection points: 2
#     Edge 12, Type (0, 0), BuildingBlock: AJUNOK_clean_linker_0, # of connection points: 2
#     Edge 13, Type (0, 0), BuildingBlock: AJUNOK_clean_linker_0, # of connection points: 2
#     Edge 14, Type (0, 0), BuildingBlock: AJUNOK_clean_linker_0, # of connection points: 2
#     Edge 15, Type (0, 0), BuildingBlock: AJUNOK_clean_linker_0, # of connection points: 2
#     Edge 16, Type (0, 0), BuildingBlock: AJUNOK_clean_linker_0, # of connection points: 2
#     Edge 17, Type (0, 0), BuildingBlock: AJUNOK_clean_linker_0, # of connection points: 2
#     Edge 18, Type (0, 0), BuildingBlock: AJUNOK_clean_linker_0, # of connection points: 2
#     Edge 19, Type (0, 0), BuildingBlock: AJUNOK_clean_linker_0, # of connection points: 2
#     Edge 20, Type (0, 0), BuildingBlock: AJUNOK_clean_linker_0, # of connection points: 2
#     Edge 21, Type (0, 0), BuildingBlock: AJUNOK_clean_linker_0, # of connection points: 2
#     Edge 22, Type (0, 0), BuildingBlock: AJUNOK_clean_linker_0, # of connection points: 2
#     Edge 23, Type (0, 0), BuildingBlock: AJUNOK_clean_linker_0, # of connection points: 2
# Relax obj value: 0.076
# Max RMSD: 0.110
# Mean RMSD: 0.110
data_MOF--net-sra--node1-GALJAG_clean_sbu_0--edge1-AJUNOK_clean_linker_0
_symmetry_space_group_name_H-M    P1
_symmetry_Int_Tables_number       1
_symmetry_cell_setting            triclinic
loop_
_symmetry_equiv_pos_as_xyz
'x, y, z'
_cell_length_a     20.895343
_cell_length_b     40.113099
_cell_length_c     21.346329
_cell_angle_alpha  89.974726
_cell_angle_beta   90.005418
_cell_angle_gamma 89.881373
loop_
_atom_site_label
_atom_site_type_symbol
_atom_site_fract_x
_atom_site_fract_y
_atom_site_fract_z
_atom_type_partial_charge
In0 In 0.03306 0.1037 0.14809 0.0
O1 O 0.03343 0.08187 0.0498 0.0
O2 O 0.03439 0.04855 0.12778 0.0
C3 C 0.03358 0.17045 0.13682 0.0
C4 C 0.91268 0.09614 0.19051 0.0
C5 C 0.15139 0.09606 0.19592 0.0
O6 O 0.03603 0.15166 0.08921 0.0
O7 O 0.0308 0.15535 0.18859 0.0
O8 O 0.10153 0.09148 0.22855 0.0
O9 O 0.14098 0.10414 0.13968 0.0
C10 C 0.03396 0.05197 0.06897 0.0
O11 O 0.96088 0.09225 0.22582 0.0
O12 O 0.92576 0.10374 0.13462 0.0
In13 In 0.03829 0.3821 0.15251 0.0
O14 O 0.03843 0.40394 0.05414 0.0
O15 O 0.03778 0.4373 0.13188 0.0
C16 C 0.0373 0.31542 0.1392 0.0
C17 C 0.15721 0.38928 0.1994 0.0
C18 C 0.91965 0.38943 0.2 0.0
O19 O 0.03821 0.33463 0.09215 0.0
O20 O 0.03708 0.33004 0.19147 0.0
O21 O 0.96942 0.39335 0.23299 0.0
O22 O 0.93019 0.38226 0.14337 0.0
C23 C 0.03809 0.43384 0.0731 0.0
O24 O 0.10759 0.39413 0.2322 0.0
O25 O 0.14638 0.3811 0.14333 0.0
In26 In 0.03399 0.8814 0.83403 0.0
O27 O 0.96606 0.89268 0.75291 0.0
O28 O 0.92614 0.88325 0.84311 0.0
C29 C 0.15459 0.88709 0.79093 0.0
C30 C 0.03306 0.93517 0.90808 0.0
C31 C 0.02699 0.81495 0.848 0.0
O32 O 0.10642 0.89083 0.75558 0.0
O33 O 0.14146 0.88022 0.84715 0.0
O34 O 0.03289 0.83396 0.89504 0.0
O35 O 0.02628 0.82959 0.79574 0.0
C36 C 0.91606 0.88988 0.7861 0.0
O37 O 0.03228 0.90586 0.93035 0.0
O38 O 0.03439 0.93686 0.84906 0.0
In39 In 0.0381 0.60404 0.83675 0.0
O40 O 0.0356 0.57974 0.93327 0.0
O41 O 0.04052 0.54863 0.85229 0.0
C42 C 0.02937 0.67049 0.84957 0.0
C43 C 0.1591 0.59864 0.79453 0.0
C44 C 0.92069 0.59542 0.78792 0.0
O45 O 0.03553 0.65174 0.897 0.0
O46 O 0.02938 0.65561 0.79758 0.0
O47 O 0.97091 0.5934 0.75483 0.0
O48 O 0.93028 0.60115 0.84532 0.0
C49 C 0.0381 0.5504 0.91128 0.0
O50 O 0.11121 0.59381 0.75932 0.0
O51 O 0.14548 0.60645 0.85021 0.0
In52 In 0.53862 0.60347 0.65189 0.0
O53 O 0.47054 0.59273 0.73345 0.0
O54 O 0.43069 0.60368 0.64391 0.0
C55 C 0.65951 0.59613 0.69352 0.0
C56 C 0.53679 0.55162 0.57296 0.0
C57 C 0.53794 0.67012 0.63937 0.0
O58 O 0.61157 0.59103 0.7286 0.0
O59 O 0.64584 0.60474 0.63827 0.0
O60 O 0.53667 0.65106 0.59211 0.0
O61 O 0.5396 0.65532 0.69151 0.0
C62 C 0.42053 0.59677 0.70072 0.0
O63 O 0.53568 0.5815 0.5538 0.0
O64 O 0.5387 0.54823 0.63176 0.0
In65 In 0.53461 0.88178 0.64941 0.0
O66 O 0.60659 0.89389 0.72707 0.0
O67 O 0.64191 0.88187 0.63624 0.0
C68 C 0.41603 0.88854 0.6972 0.0
C69 C 0.53288 0.93329 0.56969 0.0
C70 C 0.53576 0.81507 0.63806 0.0
O71 O 0.46575 0.89344 0.72986 0.0
O72 O 0.42669 0.88067 0.64091 0.0
O73 O 0.53374 0.8339 0.59046 0.0
O74 O 0.53719 0.83011 0.68992 0.0
C75 C 0.65488 0.88985 0.69195 0.0
O76 O 0.53321 0.90334 0.55093 0.0
O77 O 0.53299 0.9369 0.62847 0.0
In78 In 0.5382 0.38136 0.33724 0.0
O79 O 0.46702 0.39186 0.25809 0.0
O80 O 0.43098 0.38206 0.34973 0.0
C81 C 0.65836 0.3884 0.29411 0.0
C82 C 0.53739 0.43499 0.41154 0.0
C83 C 0.53703 0.31471 0.34948 0.0
O84 O 0.61004 0.39219 0.25888 0.0
O85 O 0.64545 0.38106 0.3502 0.0
O86 O 0.53768 0.33362 0.39703 0.0
O87 O 0.53716 0.32967 0.29748 0.0
C88 C 0.4185 0.38886 0.2933 0.0
O89 O 0.53807 0.40564 0.43369 0.0
O90 O 0.53741 0.43677 0.35248 0.0
In91 In 0.53305 0.10312 0.33249 0.0
O92 O 0.60144 0.09239 0.25135 0.0
O93 O 0.64101 0.10322 0.34103 0.0
C94 C 0.41272 0.096 0.28972 0.0
C95 C 0.53437 0.0495 0.40709 0.0
C96 C 0.53335 0.16969 0.34697 0.0
O97 O 0.46093 0.093 0.25415 0.0
O98 O 0.42572 0.1026 0.34609 0.0
O99 O 0.53529 0.15029 0.39379 0.0
O100 O 0.53116 0.15526 0.29453 0.0
C101 C 0.65134 0.09619 0.28429 0.0
O102 O 0.53417 0.07887 0.42902 0.0
O103 O 0.53414 0.04766 0.34806 0.0
C104 C 0.03093 0.2601 0.19094 0.0
C105 C 0.03611 0.27857 0.13519 0.0
C106 C 0.02994 0.22534 0.19036 0.0
C107 C 0.03416 0.20734 0.134 0.0
H108 H 0.02756 0.27254 0.23586 0.0
H109 H 0.02593 0.21252 0.23487 0.0
S110 S 0.04858 0.24363 0.9747 0.0
N111 N 0.04549 0.27632 0.02166 0.0
N112 N 0.04372 0.21055 0.02057 0.0
C113 C 0.03923 0.22535 0.07762 0.0
C114 C 0.04017 0.26104 0.07821 0.0
C115 C 0.04683 0.76049 0.90338 0.0
C116 C 0.02154 0.77827 0.85212 0.0
C117 C 0.0474 0.72539 0.90378 0.0
C118 C 0.0227 0.70715 0.85293 0.0
H119 H 0.06833 0.77373 0.94224 0.0
H120 H 0.06933 0.71253 0.94293 0.0
S121 S 0.94174 0.74203 0.71254 0.0
N122 N 0.96465 0.77497 0.7529 0.0
N123 N 0.96571 0.70948 0.75365 0.0
C124 C 0.99411 0.72474 0.80327 0.0
C125 C 0.99353 0.7602 0.80286 0.0
C126 C 0.53795 0.72533 0.69178 0.0
C127 C 0.53738 0.70697 0.63571 0.0
C128 C 0.53742 0.7601 0.69147 0.0
C129 C 0.53629 0.7782 0.63506 0.0
H130 H 0.53879 0.71281 0.73675 0.0
H131 H 0.53787 0.77284 0.73621 0.0
S132 S 0.53458 0.7422 0.47495 0.0
N133 N 0.53572 0.70942 0.52183 0.0
N134 N 0.53471 0.7752 0.52123 0.0
C135 C 0.53571 0.76029 0.57837 0.0
C136 C 0.53626 0.7246 0.5787 0.0
C137 C 0.5328 0.25987 0.29597 0.0
C138 C 0.53588 0.27781 0.35245 0.0
C139 C 0.53183 0.22512 0.29537 0.0
C140 C 0.53395 0.20655 0.35121 0.0
H141 H 0.53111 0.27271 0.25134 0.0
H142 H 0.5295 0.21276 0.2503 0.0
S143 S 0.54215 0.2413 0.51209 0.0
N144 N 0.54089 0.27446 0.46615 0.0
N145 N 0.53914 0.20866 0.46501 0.0
C146 C 0.53691 0.22401 0.40832 0.0
C147 C 0.53785 0.25973 0.40895 0.0
C148 C 0.33293 0.09547 0.20246 0.0
C149 C 0.34593 0.09348 0.26693 0.0
C150 C 0.26987 0.09567 0.18007 0.0
C151 C 0.21731 0.09353 0.22121 0.0
H152 H 0.37167 0.09777 0.16901 0.0
H153 H 0.26236 0.09795 0.13004 0.0
S154 S 0.2257 0.08536 0.39416 0.0
N155 N 0.30114 0.08763 0.37161 0.0
N156 N 0.18271 0.0877 0.32941 0.0
C157 C 0.22968 0.09039 0.28567 0.0
C158 C 0.29394 0.09047 0.30855 0.0
C159 C 0.73805 0.39087 0.20674 0.0
C160 C 0.72519 0.39103 0.27136 0.0
C161 C 0.8011 0.39097 0.18424 0.0
C162 C 0.85376 0.39158 0.22545 0.0
H163 H 0.69921 0.38985 0.17319 0.0
H164 H 0.80854 0.39015 0.13404 0.0
S165 S 0.84588 0.39433 0.39902 0.0
N166 N 0.77036 0.3933 0.37641 0.0
N167 N 0.88866 0.39377 0.33403 0.0
C168 C 0.84155 0.3928 0.29016 0.0
C169 C 0.77734 0.39243 0.31312 0.0
C170 C 0.23446 0.88775 0.70373 0.0
C171 C 0.22141 0.88956 0.7682 0.0
C172 C 0.29753 0.888 0.68135 0.0
C173 C 0.35004 0.89045 0.7225 0.0
H174 H 0.19576 0.88533 0.67027 0.0
H175 H 0.30509 0.88588 0.63131 0.0
S176 S 0.34142 0.89822 0.8955 0.0
N177 N 0.26605 0.89547 0.87292 0.0
N178 N 0.38447 0.89627 0.83075 0.0
C179 C 0.33758 0.89333 0.78698 0.0
C180 C 0.27333 0.89277 0.80985 0.0
C181 C 0.73956 0.58975 0.77997 0.0
C182 C 0.72661 0.59362 0.71575 0.0
C183 C 0.80257 0.58964 0.80258 0.0
C184 C 0.85514 0.59305 0.76181 0.0
H185 H 0.70073 0.58754 0.81333 0.0
H186 H 0.81002 0.58725 0.8526 0.0
S187 S 0.84741 0.60241 0.58908 0.0
N188 N 0.7719 0.59988 0.61128 0.0
N189 N 0.89013 0.5994 0.65388 0.0
C190 C 0.84302 0.59598 0.6973 0.0
C191 C 0.77882 0.59636 0.67427 0.0
C192 C 0.73458 0.89289 0.77922 0.0
C193 C 0.72172 0.89256 0.7146 0.0
C194 C 0.79761 0.89273 0.80173 0.0
C195 C 0.85029 0.89255 0.76052 0.0
H196 H 0.69571 0.89239 0.81278 0.0
H197 H 0.80501 0.89225 0.85195 0.0
S198 S 0.84247 0.89399 0.58689 0.0
N199 N 0.76693 0.89369 0.60951 0.0
N200 N 0.88525 0.89363 0.65191 0.0
C201 C 0.83812 0.89337 0.69578 0.0
C202 C 0.7739 0.89328 0.67282 0.0
C203 C 0.30208 0.59542 0.68513 0.0
C204 C 0.3547 0.595 0.72639 0.0
C205 C 0.23904 0.59582 0.70754 0.0
C206 C 0.22608 0.59621 0.77212 0.0
H207 H 0.30952 0.59578 0.63491 0.0
H208 H 0.20024 0.59658 0.67389 0.0
S209 S 0.34661 0.5937 0.89999 0.0
N210 N 0.38951 0.59365 0.83504 0.0
N211 N 0.2711 0.59474 0.87729 0.0
C212 C 0.27818 0.59511 0.81399 0.0
C213 C 0.34244 0.59438 0.79111 0.0
C214 C 0.76981 0.0946 0.30013 0.0
C215 C 0.71721 0.09378 0.25886 0.0
C216 C 0.83288 0.09434 0.27773 0.0
C217 C 0.84583 0.09362 0.21316 0.0
H218 H 0.76235 0.09584 0.35029 0.0
H219 H 0.87168 0.09559 0.31131 0.0
S220 S 0.72538 0.08935 0.08543 0.0
N221 N 0.68246 0.09063 0.15032 0.0
N222 N 0.80087 0.09046 0.10813 0.0
C223 C 0.79375 0.09196 0.17136 0.0
C224 C 0.7295 0.09194 0.19422 0.0
C225 C 0.27576 0.38885 0.1834 0.0
C226 C 0.22323 0.39166 0.22446 0.0
C227 C 0.33885 0.38898 0.2058 0.0
C228 C 0.35184 0.39158 0.27019 0.0
H229 H 0.2682 0.38607 0.13348 0.0
H230 H 0.3776 0.38613 0.1725 0.0
S231 S 0.23171 0.40171 0.39706 0.0
N232 N 0.18871 0.39885 0.33241 0.0
N233 N 0.30711 0.39881 0.3746 0.0
C234 C 0.29988 0.3953 0.31166 0.0
C235 C 0.23564 0.39544 0.28878 0.0
C236 C 0.03713 0.99049 0.05185 0.0
C237 C 0.0337 0.02286 0.02652 0.0
C238 C 0.03669 0.96229 0.01326 0.0
C239 C 0.03284 0.96537 0.94781 0.0
H240 H 0.04029 0.98679 0.10204 0.0
H241 H 0.03962 0.93793 0.03498 0.0
S242 S 0.0216 0.04454 0.85795 0.0
N243 N 0.02549 0.05637 0.93189 0.0
N244 N 0.02465 0.00343 0.85917 0.0
C245 C 0.02913 -0.0024 0.92178 0.0
C246 C 0.02956 0.02633 0.96115 0.0
C247 C 0.03554 0.52346 0.01674 0.0
C248 C 0.03813 0.52026 0.95125 0.0
C249 C 0.03554 0.49533 0.05557 0.0
C250 C 0.03806 0.4629 0.03045 0.0
H251 H 0.03351 0.54787 0.03832 0.0
H252 H 0.03349 0.49912 0.10578 0.0
S253 S 0.0456 0.44086 0.86182 0.0
N254 N 0.04343 0.48199 0.86277 0.0
N255 N 0.04336 0.4292 0.93593 0.0
C256 C 0.04066 0.4593 0.96503 0.0
C257 C 0.04071 0.48796 0.92542 0.0
C258 C 0.54027 0.46198 0.5169 0.0
C259 C 0.5367 0.46513 0.45144 0.0
C260 C 0.54012 0.49013 0.55565 0.0
C261 C 0.53636 0.52252 0.53046 0.0
H262 H 0.54342 0.4376 0.53852 0.0
H263 H 0.54317 0.48638 0.60583 0.0
S264 S 0.52497 0.5444 0.36191 0.0
N265 N 0.5285 0.50329 0.36296 0.0
N266 N 0.52824 0.55612 0.43593 0.0
C267 C 0.53246 0.52607 0.46508 0.0
C268 C 0.53262 0.49739 0.42556 0.0
C269 C 0.53168 -0.00526 0.55173 0.0
C270 C 0.53303 0.96225 0.52682 0.0
C271 C 0.53228 0.02278 0.5127 0.0
C272 C 0.53426 0.01944 0.44722 0.0
H273 H 0.53014 -0.00135 0.60193 0.0
H274 H 0.53108 0.04724 0.53414 0.0
S275 S 0.53885 0.93984 0.35828 0.0
N276 N 0.53673 0.92833 0.43249 0.0
N277 N 0.53787 0.98098 0.35897 0.0
C278 C 0.53571 0.98708 0.42159 0.0
C279 C 0.53508 0.9585 0.4614 0.0
loop_
_geom_bond_atom_site_label_1
_geom_bond_atom_site_label_2
_geom_bond_distance
_geom_bond_site_symmetry_2
_ccdc_geom_bond_type
In0 O1 2.294 . S
In0 O2 2.326 . S
In0 O6 2.266 . S
In0 O7 2.326 . S
In0 O8 2.266 . S
In0 O9 2.326 . S
In0 O11 2.294 1_455 S
In0 O12 2.326 1_455 S
O1 In0 2.294 . S
O1 C10 1.240 . S
O2 In0 2.326 . S
O2 C10 1.252 . S
C3 O6 1.252 . S
C3 O7 1.260 . S
C4 O11 1.240 . S
C4 O12 1.252 . S
C5 O8 1.252 . S
C5 O9 1.260 . S
O6 In0 2.266 . S
O6 C3 1.252 . S
O7 In0 2.326 . S
O7 C3 1.260 . S
O8 In0 2.266 . S
O8 C5 1.252 . S
O9 In0 2.326 . S
O9 C5 1.260 . S
C10 O1 1.240 . S
C10 O2 1.252 . S
O11 In0 2.294 1_655 S
O11 C4 1.240 . S
O12 In0 2.326 1_655 S
O12 C4 1.252 . S
In13 O14 2.294 . S
In13 O15 2.326 . S
In13 O19 2.266 . S
In13 O20 2.326 . S
In13 O21 2.266 1_455 S
In13 O22 2.326 1_455 S
In13 O24 2.294 . S
In13 O25 2.326 . S
O14 In13 2.294 . S
O14 C23 1.240 . S
O15 In13 2.326 . S
O15 C23 1.252 . S
C16 O19 1.252 . S
C16 O20 1.260 . S
C17 O24 1.240 . S
C17 O25 1.252 . S
C18 O21 1.252 . S
C18 O22 1.260 . S
O19 In13 2.266 . S
O19 C16 1.252 . S
O20 In13 2.326 . S
O20 C16 1.260 . S
O21 In13 2.266 1_655 S
O21 C18 1.252 . S
O22 In13 2.326 1_655 S
O22 C18 1.260 . S
C23 O14 1.240 . S
C23 O15 1.252 . S
O24 In13 2.294 . S
O24 C17 1.240 . S
O25 In13 2.326 . S
O25 C17 1.252 . S
In26 O27 2.294 1_455 S
In26 O28 2.326 1_455 S
In26 O32 2.266 . S
In26 O33 2.326 . S
In26 O34 2.266 . S
In26 O35 2.326 . S
In26 O37 2.294 . S
In26 O38 2.326 . S
O27 In26 2.294 1_655 S
O27 C36 1.240 . S
O28 In26 2.326 1_655 S
O28 C36 1.252 . S
C29 O32 1.252 . S
C29 O33 1.260 . S
C30 O37 1.240 . S
C30 O38 1.252 . S
C31 O34 1.252 . S
C31 O35 1.260 . S
O32 In26 2.266 . S
O32 C29 1.252 . S
O33 In26 2.326 . S
O33 C29 1.260 . S
O34 In26 2.266 . S
O34 C31 1.252 . S
O35 In26 2.326 . S
O35 C31 1.260 . S
C36 O27 1.240 . S
C36 O28 1.252 . S
O37 In26 2.294 . S
O37 C30 1.240 . S
O38 In26 2.326 . S
O38 C30 1.252 . S
In39 O40 2.294 . S
In39 O41 2.326 . S
In39 O45 2.266 . S
In39 O46 2.326 . S
In39 O47 2.266 1_455 S
In39 O48 2.326 1_455 S
In39 O50 2.294 . S
In39 O51 2.326 . S
O40 In39 2.294 . S
O40 C49 1.240 . S
O41 In39 2.326 . S
O41 C49 1.252 . S
C42 O45 1.252 . S
C42 O46 1.260 . S
C43 O50 1.240 . S
C43 O51 1.252 . S
C44 O47 1.252 . S
C44 O48 1.260 . S
O45 In39 2.266 . S
O45 C42 1.252 . S
O46 In39 2.326 . S
O46 C42 1.260 . S
O47 In39 2.266 1_655 S
O47 C44 1.252 . S
O48 In39 2.326 1_655 S
O48 C44 1.260 . S
C49 O40 1.240 . S
C49 O41 1.252 . S
O50 In39 2.294 . S
O50 C43 1.240 . S
O51 In39 2.326 . S
O51 C43 1.252 . S
In52 O53 2.294 . S
In52 O54 2.326 . S
In52 O58 2.266 . S
In52 O59 2.326 . S
In52 O60 2.266 . S
In52 O61 2.326 . S
In52 O63 2.294 . S
In52 O64 2.326 . S
O53 In52 2.294 . S
O53 C62 1.240 . S
O54 In52 2.326 . S
O54 C62 1.252 . S
C55 O58 1.252 . S
C55 O59 1.260 . S
C56 O63 1.240 . S
C56 O64 1.252 . S
C57 O60 1.252 . S
C57 O61 1.260 . S
O58 In52 2.266 . S
O58 C55 1.252 . S
O59 In52 2.326 . S
O59 C55 1.260 . S
O60 In52 2.266 . S
O60 C57 1.252 . S
O61 In52 2.326 . S
O61 C57 1.260 . S
C62 O53 1.240 . S
C62 O54 1.252 . S
O63 In52 2.294 . S
O63 C56 1.240 . S
O64 In52 2.326 . S
O64 C56 1.252 . S
In65 O66 2.294 . S
In65 O67 2.326 . S
In65 O71 2.266 . S
In65 O72 2.326 . S
In65 O73 2.266 . S
In65 O74 2.326 . S
In65 O76 2.294 . S
In65 O77 2.326 . S
O66 In65 2.294 . S
O66 C75 1.240 . S
O67 In65 2.326 . S
O67 C75 1.252 . S
C68 O71 1.252 . S
C68 O72 1.260 . S
C69 O76 1.240 . S
C69 O77 1.252 . S
C70 O73 1.252 . S
C70 O74 1.260 . S
O71 In65 2.266 . S
O71 C68 1.252 . S
O72 In65 2.326 . S
O72 C68 1.260 . S
O73 In65 2.266 . S
O73 C70 1.252 . S
O74 In65 2.326 . S
O74 C70 1.260 . S
C75 O66 1.240 . S
C75 O67 1.252 . S
O76 In65 2.294 . S
O76 C69 1.240 . S
O77 In65 2.326 . S
O77 C69 1.252 . S
In78 O79 2.294 . S
In78 O80 2.326 . S
In78 O84 2.266 . S
In78 O85 2.326 . S
In78 O86 2.266 . S
In78 O87 2.326 . S
In78 O89 2.294 . S
In78 O90 2.326 . S
O79 In78 2.294 . S
O79 C88 1.240 . S
O80 In78 2.326 . S
O80 C88 1.252 . S
C81 O84 1.252 . S
C81 O85 1.260 . S
C82 O89 1.240 . S
C82 O90 1.252 . S
C83 O86 1.252 . S
C83 O87 1.260 . S
O84 In78 2.266 . S
O84 C81 1.252 . S
O85 In78 2.326 . S
O85 C81 1.260 . S
O86 In78 2.266 . S
O86 C83 1.252 . S
O87 In78 2.326 . S
O87 C83 1.260 . S
C88 O79 1.240 . S
C88 O80 1.252 . S
O89 In78 2.294 . S
O89 C82 1.240 . S
O90 In78 2.326 . S
O90 C82 1.252 . S
In91 O92 2.294 . S
In91 O93 2.326 . S
In91 O97 2.266 . S
In91 O98 2.326 . S
In91 O99 2.266 . S
In91 O100 2.326 . S
In91 O102 2.294 . S
In91 O103 2.326 . S
O92 In91 2.294 . S
O92 C101 1.240 . S
O93 In91 2.326 . S
O93 C101 1.252 . S
C94 O97 1.252 . S
C94 O98 1.260 . S
C95 O102 1.240 . S
C95 O103 1.252 . S
C96 O99 1.252 . S
C96 O100 1.260 . S
O97 In91 2.266 . S
O97 C94 1.252 . S
O98 In91 2.326 . S
O98 C94 1.260 . S
O99 In91 2.266 . S
O99 C96 1.252 . S
O100 In91 2.326 . S
O100 C96 1.260 . S
C101 O92 1.240 . S
C101 O93 1.252 . S
O102 In91 2.294 . S
O102 C95 1.240 . S
O103 In91 2.326 . S
O103 C95 1.252 . S
C104 C105 1.369 1_655 S
C104 C106 1.419 . S
C104 H108 0.930 . S
C105 C104 1.369 1_455 S
C105 C114 1.429 . S
C106 C104 1.419 . S
C106 C107 1.363 1_655 S
C106 H109 0.929 . S
C107 C106 1.363 1_455 S
C107 C113 1.428 . S
H108 C104 0.930 . S
H109 C106 0.929 . S
S110 N111 1.613 . S
S110 N112 1.610 . S
N111 S110 1.613 . S
N111 C114 1.350 . S
N112 S110 1.610 . S
N112 C113 1.351 . S
C113 C107 1.428 . S
C113 N112 1.351 . S
C113 C114 1.434 . S
C114 C105 1.429 . S
C114 N111 1.350 . S
C114 C113 1.434 . S
C115 C116 1.369 . S
C115 C117 1.419 . S
C115 H119 0.930 . S
C116 C115 1.369 . S
C116 C125 1.429 1_455 S
C117 C115 1.419 . S
C117 C118 1.363 . S
C117 H120 0.929 . S
C118 C117 1.363 . S
C118 C124 1.428 1_455 S
H119 C115 0.930 . S
H120 C117 0.929 . S
S121 N122 1.613 . S
S121 N123 1.610 . S
N122 S121 1.613 . S
N122 C125 1.350 . S
N123 S121 1.610 . S
N123 C124 1.351 . S
C124 C118 1.428 1_655 S
C124 N123 1.351 . S
C124 C125 1.434 . S
C125 C116 1.429 1_655 S
C125 N122 1.350 . S
C125 C124 1.434 . S
C126 C127 1.369 . S
C126 C128 1.419 . S
C126 H130 0.930 . S
C127 C126 1.369 . S
C127 C136 1.429 . S
C128 C126 1.419 . S
C128 C129 1.363 . S
C128 H131 0.929 . S
C129 C128 1.363 . S
C129 C135 1.428 . S
H130 C126 0.930 . S
H131 C128 0.929 . S
S132 N133 1.613 . S
S132 N134 1.610 . S
N133 S132 1.613 . S
N133 C136 1.350 . S
N134 S132 1.610 . S
N134 C135 1.351 . S
C135 C129 1.428 . S
C135 N134 1.351 . S
C135 C136 1.434 . S
C136 C127 1.429 . S
C136 N133 1.350 . S
C136 C135 1.434 . S
C137 C138 1.369 . S
C137 C139 1.419 . S
C137 H141 0.930 . S
C138 C137 1.369 . S
C138 C147 1.429 . S
C139 C137 1.419 . S
C139 C140 1.363 . S
C139 H142 0.929 . S
C140 C139 1.363 . S
C140 C146 1.428 . S
H141 C137 0.930 . S
H142 C139 0.929 . S
S143 N144 1.613 . S
S143 N145 1.610 . S
N144 S143 1.613 . S
N144 C147 1.350 . S
N145 S143 1.610 . S
N145 C146 1.351 . S
C146 C140 1.428 . S
C146 N145 1.351 . S
C146 C147 1.434 . S
C147 C138 1.429 . S
C147 N144 1.350 . S
C147 C146 1.434 . S
C148 C149 1.369 . S
C148 C150 1.419 . S
C148 H152 0.930 . S
C149 C148 1.369 . S
C149 C158 1.429 . S
C150 C148 1.419 . S
C150 C151 1.363 . S
C150 H153 0.929 . S
C151 C150 1.363 . S
C151 C157 1.428 . S
H152 C148 0.930 . S
H153 C150 0.929 . S
S154 N155 1.613 . S
S154 N156 1.610 . S
N155 S154 1.613 . S
N155 C158 1.350 . S
N156 S154 1.610 . S
N156 C157 1.351 . S
C157 C151 1.428 . S
C157 N156 1.351 . S
C157 C158 1.434 . S
C158 C149 1.429 . S
C158 N155 1.350 . S
C158 C157 1.434 . S
C159 C160 1.369 . S
C159 C161 1.419 . S
C159 H163 0.930 . S
C160 C159 1.369 . S
C160 C169 1.429 . S
C161 C159 1.419 . S
C161 C162 1.363 . S
C161 H164 0.929 . S
C162 C161 1.363 . S
C162 C168 1.428 . S
H163 C159 0.930 . S
H164 C161 0.929 . S
S165 N166 1.613 . S
S165 N167 1.610 . S
N166 S165 1.613 . S
N166 C169 1.350 . S
N167 S165 1.610 . S
N167 C168 1.351 . S
C168 C162 1.428 . S
C168 N167 1.351 . S
C168 C169 1.434 . S
C169 C160 1.429 . S
C169 N166 1.350 . S
C169 C168 1.434 . S
C170 C171 1.369 . S
C170 C172 1.419 . S
C170 H174 0.930 . S
C171 C170 1.369 . S
C171 C180 1.429 . S
C172 C170 1.419 . S
C172 C173 1.363 . S
C172 H175 0.929 . S
C173 C172 1.363 . S
C173 C179 1.428 . S
H174 C170 0.930 . S
H175 C172 0.929 . S
S176 N177 1.613 . S
S176 N178 1.610 . S
N177 S176 1.613 . S
N177 C180 1.350 . S
N178 S176 1.610 . S
N178 C179 1.351 . S
C179 C173 1.428 . S
C179 N178 1.351 . S
C179 C180 1.434 . S
C180 C171 1.429 . S
C180 N177 1.350 . S
C180 C179 1.434 . S
C181 C182 1.369 . S
C181 C183 1.419 . S
C181 H185 0.930 . S
C182 C181 1.369 . S
C182 C191 1.429 . S
C183 C181 1.419 . S
C183 C184 1.363 . S
C183 H186 0.929 . S
C184 C183 1.363 . S
C184 C190 1.428 . S
H185 C181 0.930 . S
H186 C183 0.929 . S
S187 N188 1.613 . S
S187 N189 1.610 . S
N188 S187 1.613 . S
N188 C191 1.350 . S
N189 S187 1.610 . S
N189 C190 1.351 . S
C190 C184 1.428 . S
C190 N189 1.351 . S
C190 C191 1.434 . S
C191 C182 1.429 . S
C191 N188 1.350 . S
C191 C190 1.434 . S
C192 C193 1.369 . S
C192 C194 1.419 . S
C192 H196 0.930 . S
C193 C192 1.369 . S
C193 C202 1.429 . S
C194 C192 1.419 . S
C194 C195 1.363 . S
C194 H197 0.929 . S
C195 C194 1.363 . S
C195 C201 1.428 . S
H196 C192 0.930 . S
H197 C194 0.929 . S
S198 N199 1.613 . S
S198 N200 1.610 . S
N199 S198 1.613 . S
N199 C202 1.350 . S
N200 S198 1.610 . S
N200 C201 1.351 . S
C201 C195 1.428 . S
C201 N200 1.351 . S
C201 C202 1.434 . S
C202 C193 1.429 . S
C202 N199 1.350 . S
C202 C201 1.434 . S
C203 C204 1.369 . S
C203 C205 1.419 . S
C203 H207 0.930 . S
C204 C203 1.369 . S
C204 C213 1.429 . S
C205 C203 1.419 . S
C205 C206 1.363 . S
C205 H208 0.929 . S
C206 C205 1.363 . S
C206 C212 1.428 . S
H207 C203 0.930 . S
H208 C205 0.929 . S
S209 N210 1.613 . S
S209 N211 1.610 . S
N210 S209 1.613 . S
N210 C213 1.350 . S
N211 S209 1.610 . S
N211 C212 1.351 . S
C212 C206 1.428 . S
C212 N211 1.351 . S
C212 C213 1.434 . S
C213 C204 1.429 . S
C213 N210 1.350 . S
C213 C212 1.434 . S
C214 C215 1.369 . S
C214 C216 1.419 . S
C214 H218 0.930 . S
C215 C214 1.369 . S
C215 C224 1.429 . S
C216 C214 1.419 . S
C216 C217 1.363 . S
C216 H219 0.929 . S
C217 C216 1.363 . S
C217 C223 1.428 . S
H218 C214 0.930 . S
H219 C216 0.929 . S
S220 N221 1.613 . S
S220 N222 1.610 . S
N221 S220 1.613 . S
N221 C224 1.350 . S
N222 S220 1.610 . S
N222 C223 1.351 . S
C223 C217 1.428 . S
C223 N222 1.351 . S
C223 C224 1.434 . S
C224 C215 1.429 . S
C224 N221 1.350 . S
C224 C223 1.434 . S
C225 C226 1.369 . S
C225 C227 1.419 . S
C225 H229 0.930 . S
C226 C225 1.369 . S
C226 C235 1.429 . S
C227 C225 1.419 . S
C227 C228 1.363 . S
C227 H230 0.929 . S
C228 C227 1.363 . S
C228 C234 1.428 . S
H229 C225 0.930 . S
H230 C227 0.929 . S
S231 N232 1.613 . S
S231 N233 1.610 . S
N232 S231 1.613 . S
N232 C235 1.350 . S
N233 S231 1.610 . S
N233 C234 1.351 . S
C234 C228 1.428 . S
C234 N233 1.351 . S
C234 C235 1.434 . S
C235 C226 1.429 . S
C235 N232 1.350 . S
C235 C234 1.434 . S
C236 C237 1.369 . S
C236 C238 1.419 1_544 S
C236 H240 0.930 . S
C237 C236 1.369 . S
C237 C246 1.429 1_455 S
C238 C236 1.419 1_566 S
C238 C239 1.363 . S
C238 H241 0.930 . S
C239 C238 1.363 . S
C239 C245 1.428 1_455 S
H240 C236 0.930 . S
H241 C238 0.930 . S
S242 N243 1.621 . S
S242 N244 1.610 1_545 S
N243 S242 1.621 . S
N243 C246 1.349 1_556 S
N244 S242 1.610 1_565 S
N244 C245 1.351 . S
C245 C239 1.428 1_655 S
C245 N244 1.351 . S
C245 C246 1.434 1_566 S
C246 C237 1.429 1_655 S
C246 N243 1.349 1_554 S
C246 C245 1.434 1_544 S
C247 C248 1.369 1_554 S
C247 C249 1.419 . S
C247 H251 0.930 . S
C248 C247 1.369 1_556 S
C248 C257 1.429 . S
C249 C247 1.419 . S
C249 C250 1.363 . S
C249 H252 0.929 . S
C250 C249 1.363 . S
C250 C256 1.428 1_554 S
H251 C247 0.930 . S
H252 C249 0.929 . S
S253 N254 1.613 . S
S253 N255 1.610 . S
N254 S253 1.613 . S
N254 C257 1.350 . S
N255 S253 1.610 . S
N255 C256 1.351 . S
C256 C250 1.428 1_556 S
C256 N255 1.351 . S
C256 C257 1.434 . S
C257 C248 1.429 . S
C257 N254 1.350 . S
C257 C256 1.434 . S
C258 C259 1.369 . S
C258 C260 1.419 . S
C258 H262 0.930 . S
C259 C258 1.369 . S
C259 C268 1.429 . S
C260 C258 1.419 . S
C260 C261 1.363 . S
C260 H263 0.929 . S
C261 C260 1.363 . S
C261 C267 1.428 . S
H262 C258 0.930 . S
H263 C260 0.929 . S
S264 N265 1.613 . S
S264 N266 1.610 . S
N265 S264 1.613 . S
N265 C268 1.350 . S
N266 S264 1.610 . S
N266 C267 1.351 . S
C267 C261 1.428 . S
C267 N266 1.351 . S
C267 C268 1.434 . S
C268 C259 1.429 . S
C268 N265 1.350 . S
C268 C267 1.434 . S
C269 C270 1.369 1_545 S
C269 C271 1.419 . S
C269 H273 0.930 . S
C270 C269 1.369 1_565 S
C270 C279 1.429 . S
C271 C269 1.419 . S
C271 C272 1.363 . S
C271 H274 0.929 . S
C272 C271 1.363 . S
C272 C278 1.428 1_545 S
H273 C269 0.930 . S
H274 C271 0.929 . S
S275 N276 1.613 . S
S275 N277 1.610 . S
N276 S275 1.613 . S
N276 C279 1.350 . S
N277 S275 1.610 . S
N277 C278 1.351 . S
C278 C272 1.428 1_565 S
C278 N277 1.351 . S
C278 C279 1.434 . S
C279 C270 1.429 . S
C279 N276 1.350 . S
C279 C278 1.434 . S
C105 C16 1.479 . S
C107 C3 1.479 . S
C116 C31 1.477 . S
C118 C42 1.480 . S
C127 C57 1.480 . S
C129 C70 1.479 . S
C138 C83 1.480 . S
C140 C96 1.479 . S
C149 C94 1.636 . S
C151 C5 1.638 . S
C160 C81 1.635 . S
C162 C18 1.638 . S
C171 C29 1.637 . S
C173 C68 1.637 . S
C182 C55 1.635 . S
C184 C44 1.637 . S
C193 C75 1.285 . S
C195 C36 1.286 . S
C204 C62 1.288 . S
C206 C43 1.287 . S
C215 C101 1.287 . S
C217 C4 1.286 . S
C226 C17 1.288 . S
C228 C88 1.287 . S
C237 C10 1.443 . S
C239 C30 1.442 . S
C248 C49 1.441 . S
C250 C23 1.442 . S
C259 C82 1.442 . S
C261 C56 1.443 . S
C270 C69 1.443 . S
C272 C95 1.442 . S
