# Generated by pormake.
# Topology wmi, (6)-cn, num edge types: 1
# Building blocks:
#     Node 0, Type 0, BuildingBlock: KUMBUR_clean_sbu_1, # of connection points: 6
#     Node 1, Type 0, BuildingBlock: KUMBUR_clean_sbu_1, # of connection points: 6
#     Node 2, Type 0, BuildingBlock: KUMBUR_clean_sbu_1, # of connection points: 6
#     Node 3, Type 0, BuildingBlock: KUMBUR_clean_sbu_1, # of connection points: 6
#     Node 4, Type 0, BuildingBlock: KUMBUR_clean_sbu_1, # of connection points: 6
#     Node 5, Type 0, BuildingBlock: KUMBUR_clean_sbu_1, # of connection points: 6
#     Node 6, Type 0, BuildingBlock: KUMBUR_clean_sbu_1, # of connection points: 6
#     Node 7, Type 0, BuildingBlock: KUMBUR_clean_sbu_1, # of connection points: 6
#     Node 8, Type 0, BuildingBlock: KUMBUR_clean_sbu_1, # of connection points: 6
#     Node 9, Type 0, BuildingBlock: KUMBUR_clean_sbu_1, # of connection points: 6
#     Node 10, Type 0, BuildingBlock: KUMBUR_clean_sbu_1, # of connection points: 6
#     Node 11, Type 0, BuildingBlock: KUMBUR_clean_sbu_1, # of connection points: 6
#     Node 12, Type 0, BuildingBlock: KUMBUR_clean_sbu_1, # of connection points: 6
#     Node 13, Type 0, BuildingBlock: KUMBUR_clean_sbu_1, # of connection points: 6
#     Node 14, Type 0, BuildingBlock: KUMBUR_clean_sbu_1, # of connection points: 6
#     Node 15, Type 0, BuildingBlock: KUMBUR_clean_sbu_1, # of connection points: 6
#     Node 16, Type 0, BuildingBlock: KUMBUR_clean_sbu_1, # of connection points: 6
#     Node 17, Type 0, BuildingBlock: KUMBUR_clean_sbu_1, # of connection points: 6
#     Edge 18, Type (0, 0), BuildingBlock: ZUJKAS_clean_linker_0, # of connection points: 2
#     Edge 19, Type (0, 0), BuildingBlock: ZUJKAS_clean_linker_0, # of connection points: 2
#     Edge 20, Type (0, 0), BuildingBlock: ZUJKAS_clean_linker_0, # of connection points: 2
#     Edge 21, Type (0, 0), BuildingBlock: ZUJKAS_clean_linker_0, # of connection points: 2
#     Edge 22, Type (0, 0), BuildingBlock: ZUJKAS_clean_linker_0, # of connection points: 2
#     Edge 23, Type (0, 0), BuildingBlock: ZUJKAS_clean_linker_0, # of connection points: 2
#     Edge 24, Type (0, 0), BuildingBlock: ZUJKAS_clean_linker_0, # of connection points: 2
#     Edge 25, Type (0, 0), BuildingBlock: ZUJKAS_clean_linker_0, # of connection points: 2
#     Edge 26, Type (0, 0), BuildingBlock: ZUJKAS_clean_linker_0, # of connection points: 2
#     Edge 27, Type (0, 0), BuildingBlock: ZUJKAS_clean_linker_0, # of connection points: 2
#     Edge 28, Type (0, 0), BuildingBlock: ZUJKAS_clean_linker_0, # of connection points: 2
#     Edge 29, Type (0, 0), BuildingBlock: ZUJKAS_clean_linker_0, # of connection points: 2
#     Edge 30, Type (0, 0), BuildingBlock: ZUJKAS_clean_linker_0, # of connection points: 2
#     Edge 31, Type (0, 0), BuildingBlock: ZUJKAS_clean_linker_0, # of connection points: 2
#     Edge 32, Type (0, 0), BuildingBlock: ZUJKAS_clean_linker_0, # of connection points: 2
#     Edge 33, Type (0, 0), BuildingBlock: ZUJKAS_clean_linker_0, # of connection points: 2
#     Edge 34, Type (0, 0), BuildingBlock: ZUJKAS_clean_linker_0, # of connection points: 2
#     Edge 35, Type (0, 0), BuildingBlock: ZUJKAS_clean_linker_0, # of connection points: 2
#     Edge 36, Type (0, 0), BuildingBlock: ZUJKAS_clean_linker_0, # of connection points: 2
#     Edge 37, Type (0, 0), BuildingBlock: ZUJKAS_clean_linker_0, # of connection points: 2
#     Edge 38, Type (0, 0), BuildingBlock: ZUJKAS_clean_linker_0, # of connection points: 2
#     Edge 39, Type (0, 0), BuildingBlock: ZUJKAS_clean_linker_0, # of connection points: 2
#     Edge 40, Type (0, 0), BuildingBlock: ZUJKAS_clean_linker_0, # of connection points: 2
#     Edge 41, Type (0, 0), BuildingBlock: ZUJKAS_clean_linker_0, # of connection points: 2
#     Edge 42, Type (0, 0), BuildingBlock: ZUJKAS_clean_linker_0, # of connection points: 2
#     Edge 43, Type (0, 0), BuildingBlock: ZUJKAS_clean_linker_0, # of connection points: 2
#     Edge 44, Type (0, 0), BuildingBlock: ZUJKAS_clean_linker_0, # of connection points: 2
#     Edge 45, Type (0, 0), BuildingBlock: ZUJKAS_clean_linker_0, # of connection points: 2
#     Edge 46, Type (0, 0), BuildingBlock: ZUJKAS_clean_linker_0, # of connection points: 2
#     Edge 47, Type (0, 0), BuildingBlock: ZUJKAS_clean_linker_0, # of connection points: 2
#     Edge 48, Type (0, 0), BuildingBlock: ZUJKAS_clean_linker_0, # of connection points: 2
#     Edge 49, Type (0, 0), BuildingBlock: ZUJKAS_clean_linker_0, # of connection points: 2
#     Edge 50, Type (0, 0), BuildingBlock: ZUJKAS_clean_linker_0, # of connection points: 2
#     Edge 51, Type (0, 0), BuildingBlock: ZUJKAS_clean_linker_0, # of connection points: 2
#     Edge 52, Type (0, 0), BuildingBlock: ZUJKAS_clean_linker_0, # of connection points: 2
#     Edge 53, Type (0, 0), BuildingBlock: ZUJKAS_clean_linker_0, # of connection points: 2
#     Edge 54, Type (0, 0), BuildingBlock: ZUJKAS_clean_linker_0, # of connection points: 2
#     Edge 55, Type (0, 0), BuildingBlock: ZUJKAS_clean_linker_0, # of connection points: 2
#     Edge 56, Type (0, 0), BuildingBlock: ZUJKAS_clean_linker_0, # of connection points: 2
#     Edge 57, Type (0, 0), BuildingBlock: ZUJKAS_clean_linker_0, # of connection points: 2
#     Edge 58, Type (0, 0), BuildingBlock: ZUJKAS_clean_linker_0, # of connection points: 2
#     Edge 59, Type (0, 0), BuildingBlock: ZUJKAS_clean_linker_0, # of connection points: 2
#     Edge 60, Type (0, 0), BuildingBlock: ZUJKAS_clean_linker_0, # of connection points: 2
#     Edge 61, Type (0, 0), BuildingBlock: ZUJKAS_clean_linker_0, # of connection points: 2
#     Edge 62, Type (0, 0), BuildingBlock: ZUJKAS_clean_linker_0, # of connection points: 2
#     Edge 63, Type (0, 0), BuildingBlock: ZUJKAS_clean_linker_0, # of connection points: 2
#     Edge 64, Type (0, 0), BuildingBlock: ZUJKAS_clean_linker_0, # of connection points: 2
#     Edge 65, Type (0, 0), BuildingBlock: ZUJKAS_clean_linker_0, # of connection points: 2
#     Edge 66, Type (0, 0), BuildingBlock: ZUJKAS_clean_linker_0, # of connection points: 2
#     Edge 67, Type (0, 0), BuildingBlock: ZUJKAS_clean_linker_0, # of connection points: 2
#     Edge 68, Type (0, 0), BuildingBlock: ZUJKAS_clean_linker_0, # of connection points: 2
#     Edge 69, Type (0, 0), BuildingBlock: ZUJKAS_clean_linker_0, # of connection points: 2
#     Edge 70, Type (0, 0), BuildingBlock: ZUJKAS_clean_linker_0, # of connection points: 2
#     Edge 71, Type (0, 0), BuildingBlock: ZUJKAS_clean_linker_0, # of connection points: 2
# Relax obj value: 0.064
# Max RMSD: 0.171
# Mean RMSD: 0.171
data_MOF--net-wmi--node1-KUMBUR_clean_sbu_1--edge1-ZUJKAS_clean_linker_0
_symmetry_space_group_name_H-M    P1
_symmetry_Int_Tables_number       1
_symmetry_cell_setting            triclinic
loop_
_symmetry_equiv_pos_as_xyz
'x, y, z'
_cell_length_a     48.151153
_cell_length_b     48.161969
_cell_length_c     103.87108
_cell_angle_alpha  90.02071
_cell_angle_beta   90.067314
_cell_angle_gamma 120.03986
loop_
_atom_site_label
_atom_site_type_symbol
_atom_site_fract_x
_atom_site_fract_y
_atom_site_fract_z
_atom_type_partial_charge
Tb0 Tb 0.45296 0.99864 0.10411 0.0
C1 C 0.57882 0.01722 0.12959 0.0
N2 N 0.5583 0.02787 0.13265 0.0
C3 C 0.55875 0.01364 0.15476 0.0
C4 C 0.58893 1.00294 0.13894 0.0
C5 C 0.54936 0.02758 0.14515 0.0
C6 C 0.57828 1.00087 0.15162 0.0
C7 C 0.61112 0.01013 0.1135 0.0
C8 C 0.58966 0.02074 0.11702 0.0
C9 C 0.62071 0.99522 0.1227 0.0
C10 C 0.60962 0.99162 0.13539 0.0
Tb11 Tb 0.5449 0.05051 0.11623 0.0
N12 N 0.57938 0.03476 0.10829 0.0
C13 C 0.62228 0.01479 0.10082 0.0
C14 C 0.5916 0.04078 0.09607 0.0
C15 C 0.61271 0.03045 0.09212 0.0
H16 H 0.53545 0.03851 0.14791 0.0
H17 H 0.62197 0.035 0.08239 0.0
H18 H 0.45941 1.00157 0.07176 0.0
H19 H 0.38295 0.02911 0.13526 0.0
H20 H 0.58615 0.0544 0.08934 0.0
H21 H 0.63871 1.00691 0.09772 0.0
H22 H 0.4136 1.00235 0.12932 0.0
H23 H 0.55122 0.01308 0.16462 0.0
H24 H 0.63691 0.98664 0.12013 0.0
H25 H 0.61748 0.98037 0.14242 0.0
H26 H 0.45144 0.03089 0.0542 0.0
H27 H 0.58558 0.99016 0.1591 0.0
H28 H 0.37465 0.06223 0.11917 0.0
N29 N 0.44488 0.02244 0.0865 0.0
C30 C 0.42941 0.03904 0.08893 0.0
C31 C 0.44598 0.03411 0.06397 0.0
C32 C 0.4233 0.05536 0.07906 0.0
C33 C 0.45128 0.01813 0.07407 0.0
C34 C 0.43263 0.05342 0.0665 0.0
N35 N 0.42402 0.0218 0.11045 0.0
C36 C 0.41063 0.01731 0.12239 0.0
C37 C 0.40048 0.05357 0.10411 0.0
C38 C 0.41794 0.03808 0.10124 0.0
C39 C 0.38824 0.05071 0.11657 0.0
C40 C 0.39298 0.03212 0.1257 0.0
H41 H 0.42827 0.06549 0.05862 0.0
H42 H 0.40243 0.08496 0.07451 0.0
H43 H 0.38256 0.0835 0.09648 0.0
O44 O 0.41757 0.95695 0.11334 0.0
O45 O 0.4728 0.04774 0.11182 0.0
O46 O 0.52306 0.07049 0.1038 0.0
O47 O 0.41332 0.96521 0.09332 0.0
O48 O 0.4645 0.9925 0.12371 0.0
O49 O 0.50579 0.04181 0.13025 0.0
O50 O 0.59337 0.08809 0.11498 0.0
O51 O 0.52014 0.99827 0.11875 0.0
O52 O 0.48299 0.9765 0.10216 0.0
O53 O 0.55991 0.09078 0.1283 0.0
O54 O 0.53697 0.05002 0.09498 0.0
O55 O 0.48922 1.0029 0.09024 0.0
C56 C 0.49875 0.07313 0.10763 0.0
C57 C 0.39685 0.91239 0.09961 0.0
C58 C 0.36434 0.85423 0.10181 0.0
C59 C 0.38617 0.85103 0.09379 0.0
C60 C 0.41838 0.90862 0.09172 0.0
C61 C 0.41308 0.87807 0.08889 0.0
C62 C 0.37023 0.88527 0.10479 0.0
C63 C 0.47856 0.0146 0.13256 0.0
C64 C 0.4023 0.94453 0.10266 0.0
C65 C 0.40703 0.07201 0.08195 0.0
C66 C 0.39561 0.07108 0.09445 0.0
C67 C 0.50296 0.97523 0.1105 0.0
C68 C 0.61492 0.13629 0.12851 0.0
C69 C 0.66945 0.1827 0.1274 0.0
C70 C 0.66298 0.19542 0.13839 0.0
C71 C 0.60923 0.14983 0.13946 0.0
C72 C 0.64533 0.15295 0.12243 0.0
C73 C 0.63311 0.17911 0.14435 0.0
C74 C 0.51783 0.02663 0.08695 0.0
C75 C 0.58915 0.10453 0.12388 0.0
H76 H 0.38216 0.82765 0.09099 0.0
H77 H 0.43918 0.92926 0.08767 0.0
H78 H 0.42964 0.8753 0.08272 0.0
H79 H 0.35422 0.88853 0.11113 0.0
H80 H 0.68117 0.21817 0.14234 0.0
H81 H 0.58633 0.13764 0.14436 0.0
H82 H 0.65024 0.14296 0.11397 0.0
H83 H 0.62845 0.1892 0.15283 0.0
Tb84 Tb 0.06227 0.48434 0.10337 0.0
C85 C 0.02456 0.57439 0.1332 0.0
N86 N 0.01556 0.54294 0.13472 0.0
C87 C 0.02238 0.55048 0.1576 0.0
C88 C 0.0336 0.59531 0.14386 0.0
C89 C 0.01371 0.53064 0.14676 0.0
C90 C 0.03249 0.58298 0.15615 0.0
C91 C 0.03592 0.61852 0.11884 0.0
C92 C 0.0257 0.58581 0.12082 0.0
C93 C 0.04487 0.63942 0.12943 0.0
C94 C 0.04367 0.62785 0.1419 0.0
Tb95 Tb 1.00043 0.51281 0.11632 0.0
N96 N 0.01734 0.56497 0.11075 0.0
C97 C 0.03682 0.62926 0.10626 0.0
C98 C 0.01701 0.57524 0.09851 0.0
C99 C 0.02713 0.60748 0.09608 0.0
H100 H 1.00444 0.50536 0.14821 0.0
H101 H 0.02703 0.61544 0.08634 0.0
H102 H 0.06444 0.49059 0.07113 0.0
H103 H 0.04669 0.38665 0.13348 0.0
H104 H 1.00819 0.55884 0.09054 0.0
H105 H 0.04453 0.6542 0.10433 0.0
H106 H 0.06473 0.44318 0.12815 0.0
H107 H 0.02085 0.54058 0.1671 0.0
H108 H 0.05276 0.66461 0.12807 0.0
H109 H 0.05071 0.64428 0.14997 0.0
H110 H 0.04562 0.45408 0.05259 0.0
H111 H 0.03917 0.59826 0.16458 0.0
H112 H 0.02205 0.3449 0.11657 0.0
N113 N 0.04697 0.45313 0.08513 0.0
C114 C 0.03548 0.42128 0.08701 0.0
C115 C 0.04205 0.44444 0.06225 0.0
C116 C 0.02532 0.39951 0.07663 0.0
C117 C 0.05207 0.46508 0.07287 0.0
C118 C 0.02801 0.41143 0.06414 0.0
N119 N 0.04787 0.43303 0.10889 0.0
C120 C 0.053 0.42497 0.1209 0.0
C121 C 0.0264 0.37849 0.10175 0.0
C122 C 0.03632 0.41089 0.09931 0.0
C123 C 0.02942 0.36959 0.11428 0.0
C124 C 0.04325 0.39306 0.12386 0.0
H125 H 0.02061 0.39554 0.05588 0.0
H126 H 1.00594 0.34971 0.07116 0.0
H127 H 1.00661 0.33124 0.09322 0.0
O128 O 0.10534 0.49521 0.11297 0.0
O129 O 0.01387 0.44677 0.10967 0.0
O130 O 0.98723 0.47207 0.10374 0.0
O131 O 0.10293 0.49603 0.09237 0.0
O132 O 0.06322 0.49789 0.12351 0.0
O133 O 1.01098 0.48195 0.12926 0.0
O134 O 0.96072 0.51792 0.11173 0.0
O135 O 0.05189 0.54513 0.11966 0.0
O136 O 0.07239 0.53379 0.10197 0.0
O137 O 0.95805 0.48737 0.1273 0.0
O138 O 1.00174 0.50808 0.09491 0.0
O139 O 0.0501 0.5107 0.08924 0.0
C140 C 0.98673 0.44598 0.10729 0.0
C141 C 0.13872 0.48174 0.101 0.0
C142 C 0.19012 0.48406 0.10227 0.0
C143 C 0.17719 0.45482 0.09562 0.0
C144 C 0.12584 0.45224 0.0945 0.0
C145 C 0.14504 0.43883 0.09187 0.0
C146 C 0.17073 0.49731 0.10508 0.0
C147 C 0.03952 0.48511 0.13181 0.0
C148 C 0.12044 0.4984 0.10223 0.0
C149 C 0.01414 0.36686 0.079 0.0
C150 C 0.01461 0.35635 0.09155 0.0
C151 C 0.07556 0.55261 0.11162 0.0
C152 C 0.92616 0.51273 0.12866 0.0
C153 C 0.88311 0.52573 0.13004 0.0
C154 C 0.89308 0.53706 0.14263 0.0
C155 C 0.93538 0.52396 0.14129 0.0
C156 C 0.9001 0.51395 0.12301 0.0
C157 C 0.91909 0.53628 0.14816 0.0
C158 C 0.02397 0.51186 0.08636 0.0
C159 C 0.94337 0.49994 0.12114 0.0
H160 H 0.192 0.44441 0.09334 0.0
H161 H 0.10134 0.4401 0.09109 0.0
H162 H 0.13515 0.41632 0.08671 0.0
H163 H 0.18092 0.52032 0.10993 0.0
H164 H 0.88076 0.54664 0.1482 0.0
H165 H 0.95499 0.52311 0.1459 0.0
H166 H 0.89266 0.50515 0.11328 0.0
H167 H 0.92652 0.54506 0.15788 0.0
Tb168 Tb 0.57616 0.60147 0.10149 0.0
C169 C 0.47445 0.48054 0.132 0.0
N170 N 0.50595 0.49982 0.13496 0.0
C171 C 0.49241 0.50041 0.15714 0.0
C172 C 0.45053 0.47078 0.14152 0.0
C173 C 0.51525 0.50979 0.14734 0.0
C174 C 0.4599 0.48085 0.15423 0.0
C175 C 0.43373 0.45253 0.11572 0.0
C176 C 0.46625 0.47196 0.11923 0.0
C177 C 0.40975 0.44277 0.12516 0.0
C178 C 0.41813 0.45186 0.13803 0.0
Tb179 Tb 0.54137 0.51397 0.1183 0.0
N180 N 0.49016 0.48247 0.11031 0.0
C181 C 0.42631 0.443 0.10288 0.0
C182 C 0.48296 0.47059 0.09804 0.0
C183 C 0.45108 0.45158 0.09406 0.0
H184 H 0.54033 0.52469 0.14971 0.0
H185 H 0.44568 0.44291 0.08425 0.0
H186 H 0.57241 0.59002 0.06998 0.0
H187 H 0.67604 0.67353 0.13348 0.0
H188 H 0.50133 0.47423 0.09128 0.0
H189 H 0.40165 0.42806 0.09979 0.0
H190 H 0.61942 0.6418 0.12762 0.0
H191 H 0.49989 0.50829 0.16694 0.0
H192 H 0.38466 0.42798 0.12262 0.0
H193 H 0.39938 0.44419 0.1452 0.0
H194 H 0.6103 0.60606 0.05183 0.0
H195 H 0.44226 0.47382 0.16183 0.0
H196 H 0.71787 0.68718 0.11697 0.0
N197 N 0.60886 0.61345 0.08406 0.0
C198 C 0.64074 0.63265 0.08637 0.0
C199 C 0.61923 0.61295 0.06153 0.0
C200 C 0.66332 0.64177 0.07634 0.0
C201 C 0.59781 0.60374 0.07184 0.0
C202 C 0.65216 0.63167 0.06379 0.0
N203 N 0.62811 0.63299 0.10836 0.0
C204 C 0.63692 0.64529 0.1205 0.0
C205 C 0.68366 0.66182 0.10174 0.0
C206 C 0.65072 0.64244 0.09894 0.0
C207 C 0.69282 0.67223 0.11441 0.0
C208 C 0.6693 0.66436 0.12378 0.0
H209 H 0.66869 0.63851 0.05578 0.0
H210 H 0.7139 0.66779 0.07157 0.0
H211 H 0.73172 0.68534 0.09381 0.0
O212 O 0.57343 0.64261 0.10738 0.0
O213 O 0.60509 0.5775 0.0998 0.0
O214 O 0.59187 0.55008 0.11867 0.0
O215 O 0.56728 0.62686 0.0874 0.0
O216 O 0.56685 0.59859 0.12221 0.0
O217 O 0.57198 0.55645 0.13063 0.0
O218 O 0.54505 0.47334 0.11231 0.0
O219 O 0.51324 0.53781 0.12089 0.0
O220 O 0.52451 0.5673 0.1024 0.0
O221 O 0.54957 0.48777 0.13235 0.0
O222 O 0.55125 0.51844 0.09713 0.0
O223 O 0.54114 0.55864 0.09137 0.0
C224 C 0.61007 0.56069 0.10851 0.0
C225 C 0.56302 0.67393 0.09122 0.0
C226 C 0.55335 0.7182 0.09538 0.0
C227 C 0.55286 0.7229 0.08207 0.0
C228 C 0.56235 0.67913 0.07792 0.0
C229 C 0.55725 0.70341 0.0734 0.0
C230 C 0.55825 0.69349 0.1 0.0
C231 C 0.57092 0.5834 0.13194 0.0
C232 C 0.56781 0.64745 0.09555 0.0
C233 C 0.69616 0.66065 0.07914 0.0
C234 C 0.7063 0.67059 0.09181 0.0
C235 C 0.50735 0.55515 0.11285 0.0
C236 C 0.55475 0.44112 0.12832 0.0
C237 C 0.54946 0.38816 0.12567 0.0
C238 C 0.56491 0.39207 0.13755 0.0
C239 C 0.57013 0.44425 0.14019 0.0
C240 C 0.5444 0.41282 0.12099 0.0
C241 C 0.57516 0.41993 0.14474 0.0
C242 C 0.54509 0.53446 0.08828 0.0
C243 C 0.54913 0.46732 0.12414 0.0
H244 H 0.54887 0.74166 0.07837 0.0
H245 H 0.56575 0.66437 0.07094 0.0
H246 H 0.5567 0.70714 0.06315 0.0
H247 H 0.55844 0.68968 0.11028 0.0
H248 H 0.56892 0.37336 0.14129 0.0
H249 H 0.57833 0.46563 0.14602 0.0
H250 H 0.53229 0.40986 0.11186 0.0
H251 H 0.58698 0.42264 0.1539 0.0
Tb252 Tb 1.00354 0.45587 0.93574 0.0
C253 C 0.02968 0.57686 0.90407 0.0
N254 N 0.04161 0.55713 0.90153 0.0
C255 C 0.03025 0.55746 0.87906 0.0
C256 C 0.01707 0.58732 0.89417 0.0
C257 C 0.04217 0.5474 0.88923 0.0
C258 C 0.01759 0.57745 0.88154 0.0
C259 C 0.01651 0.60553 0.91982 0.0
C260 C 0.02925 0.5856 0.91674 0.0
C261 C 1.00365 0.61585 0.91002 0.0
C262 C 1.00399 0.60682 0.89722 0.0
Tb263 Tb 0.06039 0.54197 0.91874 0.0
N264 N 0.04129 0.5745 0.92601 0.0
C265 C 0.01751 0.61488 0.93263 0.0
C266 C 0.04494 0.58611 0.93828 0.0
C267 C 0.03234 0.60561 0.94185 0.0
H268 H 0.05219 0.5322 0.88721 0.0
H269 H 0.03474 0.61407 0.95167 0.0
H270 H 0.01167 0.46924 0.96721 0.0
H271 H 0.02093 0.37437 0.90536 0.0
H272 H 0.05857 0.58179 0.94535 0.0
H273 H 1.00796 0.63014 0.93541 0.0
H274 H 1.00172 0.41146 0.91043 0.0
H275 H 0.03081 0.54978 0.86932 0.0
H276 H 0.99359 0.63101 0.91223 0.0
H277 H 0.99403 0.615 0.88976 0.0
H278 H 0.03305 0.45359 0.9857 0.0
H279 H 1.00819 0.58503 0.87365 0.0
H280 H 0.04583 0.35805 0.92238 0.0
N281 N 0.02162 0.44238 0.95362 0.0
C282 C 0.03169 0.4209 0.95176 0.0
C283 C 0.03309 0.44445 0.97619 0.0
C284 C 0.04368 0.41091 0.96205 0.0
C285 C 0.02151 0.45372 0.96566 0.0
C286 C 0.04444 0.42312 0.97437 0.0
N287 N 0.0192 0.42007 0.92968 0.0
C288 C 0.01439 0.40657 0.91773 0.0
C289 C 0.04088 0.38721 0.93705 0.0
C290 C 0.03054 0.40944 0.93938 0.0
C291 C 0.03822 0.37522 0.92457 0.0
C292 C 0.02443 0.38457 0.91492 0.0
H293 H 0.05344 0.416 0.98254 0.0
H294 H 0.0639 0.38128 0.9675 0.0
H295 H 0.0613 0.3604 0.94563 0.0
O296 O 0.95784 0.4177 0.92955 0.0
O297 O 0.05615 0.47573 0.93732 0.0
O298 O 0.07219 0.50407 0.91867 0.0
O299 O 0.96842 0.4323 0.94965 0.0
O300 O 0.9984 0.45892 0.91482 0.0
O301 O 0.04719 0.49895 0.90651 0.0
O302 O 0.10447 0.58011 0.92551 0.0
O303 O 1.00849 0.52017 0.91603 0.0
O304 O 0.98984 0.49288 0.93489 0.0
O305 O 0.09748 0.56846 0.90547 0.0
O306 O 0.06559 0.53778 0.93997 0.0
O307 O 0.01461 0.49963 0.94592 0.0
C308 C 0.07873 0.4928 0.92891 0.0
C309 C 0.91456 0.39014 0.94553 0.0
C310 C 0.86156 0.34441 0.9415 0.0
C311 C 0.85235 0.34703 0.95405 0.0
C312 C 0.90481 0.39245 0.95806 0.0
C313 C 0.87386 0.37104 0.96226 0.0
C314 C 0.89263 0.36618 0.93716 0.0
C315 C 0.01864 0.47249 0.90518 0.0
C316 C 0.94724 0.4136 0.94133 0.0
C317 C 0.05452 0.38919 0.95972 0.0
C318 C 0.0531 0.37735 0.94726 0.0
C319 C 0.98543 0.50531 0.9244 0.0
C320 C 0.12966 0.62352 0.91095 0.0
C321 C 0.17096 0.67974 0.91393 0.0
C322 C 0.15388 0.68891 0.90568 0.0
C323 C 0.11348 0.63341 0.90248 0.0
C324 C 0.15879 0.64694 0.91658 0.0
C325 C 0.12541 0.66585 0.89996 0.0
C326 C 0.0436 0.52235 0.94892 0.0
C327 C 0.11618 0.58906 0.91401 0.0
H328 H 0.82836 0.33051 0.95747 0.0
H329 H 0.92104 0.41097 0.96464 0.0
H330 H 0.86654 0.37305 0.9719 0.0
H331 H 0.8997 0.36422 0.92745 0.0
H332 H 0.16291 0.71401 0.90352 0.0
H333 H 0.09172 0.61618 0.8977 0.0
H334 H 0.17177 0.63974 0.92303 0.0
H335 H 0.11261 0.67312 0.89348 0.0
Tb336 Tb 0.61217 0.57723 0.9335 0.0
C337 C 0.48458 0.47559 0.90729 0.0
N338 N 0.50361 0.50739 0.90487 0.0
C339 C 0.49979 0.49667 0.88217 0.0
C340 C 0.4732 0.45289 0.89722 0.0
C341 C 0.51074 0.51825 0.89249 0.0
C342 C 0.48114 0.46383 0.88454 0.0
C343 C 0.45784 0.43293 0.92291 0.0
C344 C 0.47708 0.4658 0.91998 0.0
C345 C 0.44682 0.41016 0.91293 0.0
C346 C 0.45442 0.42013 0.90011 0.0
Tb347 Tb 0.51994 0.54045 0.92241 0.0
N348 N 0.48835 0.48854 0.92941 0.0
C349 C 0.44984 0.42393 0.93576 0.0
C350 C 0.47869 0.47987 0.94186 0.0
C351 C 0.45995 0.44754 0.94525 0.0
H352 H 0.5241 0.54357 0.89041 0.0
H353 H 0.45284 0.4409 0.95516 0.0
H354 H 0.60654 0.5705 0.96584 0.0
H355 H 0.68338 0.68089 0.90403 0.0
H356 H 0.48426 0.49752 0.94925 0.0
H357 H 0.43514 0.39892 0.93842 0.0
H358 H 0.65216 0.62278 0.90895 0.0
H359 H 0.50555 0.50542 0.87239 0.0
H360 H 0.43213 0.3848 0.91501 0.0
H361 H 0.44557 0.40232 0.89251 0.0
H362 H 0.61309 0.60554 0.98415 0.0
H363 H 0.47276 0.44717 0.87653 0.0
H364 H 0.69135 0.72064 0.9209 0.0
N365 N 0.62044 0.60726 0.95177 0.0
C366 C 0.63598 0.63957 0.94991 0.0
C367 C 0.61894 0.61538 0.97452 0.0
C368 C 0.64179 0.66092 0.96019 0.0
C369 C 0.61419 0.59529 0.96401 0.0
C370 C 0.63212 0.64828 0.97256 0.0
N371 N 0.64188 0.62999 0.92814 0.0
C372 C 0.65546 0.64009 0.91628 0.0
C373 C 0.66526 0.68461 0.93544 0.0
C374 C 0.64783 0.65139 0.93776 0.0
C375 C 0.67776 0.69526 0.92309 0.0
C376 C 0.67324 0.67289 0.91352 0.0
H377 H 0.63612 0.66384 0.98074 0.0
H378 H 0.66238 0.7109 0.96561 0.0
H379 H 0.68276 0.73163 0.9439 0.0
O380 O 0.64618 0.56953 0.92385 0.0
O381 O 0.59407 0.60836 0.92636 0.0
O382 O 0.54466 0.58194 0.93493 0.0
O383 O 0.65232 0.58306 0.94376 0.0
O384 O 0.6004 0.56299 0.91351 0.0
O385 O 0.55826 0.57136 0.90816 0.0
O386 O 0.47352 0.53117 0.92688 0.0
O387 O 0.54433 0.51348 0.91792 0.0
O388 O 0.58026 0.52487 0.93456 0.0
O389 O 0.50094 0.56493 0.91205 0.0
O390 O 0.52971 0.5466 0.94351 0.0
O391 O 0.57605 0.54397 0.94712 0.0
C392 C 0.56877 0.60855 0.93079 0.0
C393 C 0.66821 0.54656 0.93735 0.0
C394 C 0.7026 0.52312 0.93643 0.0
C395 C 0.68018 0.49707 0.94381 0.0
C396 C 0.64595 0.52039 0.94472 0.0
C397 C 0.65186 0.49565 0.94784 0.0
C398 C 0.69631 0.54767 0.93308 0.0
C399 C 0.58502 0.57092 0.90518 0.0
C400 C 0.66248 0.57297 0.93428 0.0
C401 C 0.65804 0.69413 0.95786 0.0
C402 C 0.66977 0.70596 0.94551 0.0
C403 C 0.56033 0.50519 0.92576 0.0
C404 C 0.44355 0.53834 0.91065 0.0
C405 C 0.38774 0.52608 0.90959 0.0
C406 C 0.38642 0.51697 0.89667 0.0
C407 C 0.44163 0.52911 0.89772 0.0
C408 C 0.41631 0.53649 0.91661 0.0
C409 C 0.41314 0.5183 0.89082 0.0
C410 C 0.54843 0.54059 0.95099 0.0
C411 C 0.47356 0.55036 0.91812 0.0
H412 H 0.68461 0.47786 0.94645 0.0
H413 H 0.62425 0.51932 0.94819 0.0
H414 H 0.63464 0.47553 0.95352 0.0
H415 H 0.71364 0.56799 0.92748 0.0
H416 H 0.36466 0.5089 0.89111 0.0
H417 H 0.46212 0.53054 0.89289 0.0
H418 H 0.41755 0.54375 0.92657 0.0
H419 H 0.41187 0.51123 0.88085 0.0
Tb420 Tb 0.49005 0.05771 0.93681 0.0
C421 C 0.59067 0.04033 0.90565 0.0
N422 N 0.55909 0.0276 0.90274 0.0
C423 C 0.57237 0.04312 0.88066 0.0
C424 C 0.6145 0.05547 0.89616 0.0
C425 C 0.54961 0.02861 0.89043 0.0
C426 C 0.60497 0.05669 0.88353 0.0
C427 C 0.63155 0.05257 0.92179 0.0
C428 C 0.59899 0.03932 0.91834 0.0
C429 C 0.65545 0.06765 0.91238 0.0
C430 C 0.64696 0.06922 0.8996 0.0
Tb431 Tb 0.52382 1.00538 0.9194 0.0
N432 N 0.57513 0.02493 0.92723 0.0
C433 C 0.63909 0.04966 0.93452 0.0
C434 C 0.58245 0.01924 0.93932 0.0
C435 C 0.61439 0.03235 0.94326 0.0
H436 H 0.52445 0.01801 0.8881 0.0
H437 H 0.61989 0.02838 0.95296 0.0
H438 H 0.49874 0.05201 0.96823 0.0
H439 H 0.38519 0.02404 0.90713 0.0
H440 H 0.56413 1.00358 0.94592 0.0
H441 H 0.6638 0.05953 0.93757 0.0
H442 H 0.44272 0.04999 0.91158 0.0
H443 H 0.56476 0.04388 0.87092 0.0
H444 H 0.68057 0.07802 0.91486 0.0
H445 H 0.66567 0.08107 0.89246 0.0
H446 H 0.46356 0.02835 0.98709 0.0
H447 H 0.62255 0.06811 0.87596 0.0
H448 H 0.3461 0.99764 0.92473 0.0
N449 N 0.46021 0.03762 0.95502 0.0
C450 C 0.42798 0.02432 0.95349 0.0
C451 C 0.45322 0.02675 0.97768 0.0
C452 C 0.40696 0.01087 0.96401 0.0
C453 C 0.47309 0.0396 0.96694 0.0
C454 C 0.41998 0.01214 0.9762 0.0
N455 N 0.43712 0.03555 0.9312 0.0
C456 C 0.42637 0.03712 0.91921 0.0
C457 C 0.3827 0.00878 0.93916 0.0
C458 C 0.41604 0.02317 0.94119 0.0
C459 C 0.37154 0.00845 0.9267 0.0
C460 C 0.39351 0.02309 0.91672 0.0
H461 H 0.40463 1.00211 0.98454 0.0
H462 H 0.35715 0.9858 0.96996 0.0
H463 H 0.33593 0.98403 0.94823 0.0
O464 O 0.4906 0.10037 0.93062 0.0
O465 O 0.46113 1.00458 0.93824 0.0
O466 O 0.47322 0.99003 0.91916 0.0
O467 O 0.49818 0.09235 0.95064 0.0
O468 O 0.498 0.06405 0.91602 0.0
O469 O 0.4925 0.01685 0.90733 0.0
O470 O 0.5199 0.96095 0.92535 0.0
O471 O 0.5508 0.05731 0.91667 0.0
O472 O 0.5422 0.0773 0.93542 0.0
O473 O 0.5162 0.97125 0.90528 0.0
O474 O 0.51495 1.00049 0.94065 0.0
O475 O 0.52611 0.05106 0.94659 0.0
C476 C 0.45545 0.98271 0.92943 0.0
C477 C 0.49924 0.14208 0.94655 0.0
C478 C 0.51263 0.1973 0.94249 0.0
C479 C 0.50938 0.20122 0.9557 0.0
C480 C 0.49593 0.14661 0.95971 0.0
C481 C 0.50088 0.17596 0.96422 0.0
C482 C 0.50712 0.16746 0.93785 0.0
C483 C 0.493 0.04465 0.90622 0.0
C484 C 0.49613 0.11136 0.94237 0.0
C485 C 0.37372 0.99635 0.962 0.0
C486 C 0.36163 0.9953 0.94962 0.0
C487 C 0.55924 0.08043 0.92506 0.0
C488 C 0.51045 0.91917 0.90929 0.0
C489 C 0.51802 0.87268 0.91125 0.0
C490 C 0.50085 0.86042 0.89974 0.0
C491 C 0.49325 0.90612 0.89783 0.0
C492 C 0.52257 0.90208 0.91615 0.0
C493 C 0.48842 0.87694 0.89314 0.0
C494 C 0.52262 0.02305 0.94948 0.0
C495 C 0.51621 0.95104 0.91349 0.0
H496 H 0.51325 0.22392 0.95942 0.0
H497 H 0.48973 0.12748 0.96659 0.0
H498 H 0.49834 0.1792 0.97438 0.0
H499 H 0.5099 0.1644 0.92769 0.0
H500 H 0.49704 0.83788 0.89586 0.0
H501 H 0.48354 0.91858 0.89243 0.0
H502 H 0.53606 0.91187 0.92496 0.0
H503 H 0.47518 0.86719 0.88429 0.0
Tb504 Tb 0.12276 0.33042 0.43488 0.0
C505 C 0.24426 0.35069 0.46402 0.0
N506 N 0.22481 0.36264 0.46702 0.0
C507 C 0.22455 0.34846 0.48918 0.0
C508 C 0.25425 0.33662 0.4735 0.0
C509 C 0.21497 0.36186 0.47942 0.0
C510 C 0.24424 0.33574 0.48622 0.0
C511 C 0.27229 0.33835 0.44768 0.0
C512 C 0.25272 0.3512 0.45123 0.0
C513 C 0.28235 0.3243 0.45708 0.0
C514 C 0.27332 0.3234 0.46996 0.0
Tb515 Tb 0.21067 0.38419 0.45043 0.0
N516 N 0.24212 0.36463 0.44235 0.0
C517 C 0.28173 0.34059 0.43483 0.0
C518 C 0.25402 0.36958 0.43009 0.0
C519 C 0.27305 0.35682 0.42606 0.0
H520 H 0.20003 0.37194 0.48184 0.0
H521 H 0.28169 0.36024 0.41625 0.0
H522 H 0.13462 0.34295 0.4035 0.0
H523 H 0.04541 0.34746 0.4679 0.0
H524 H 0.25033 0.38441 0.42339 0.0
H525 H 0.29671 0.33099 0.43171 0.0
H526 H 0.07824 0.32458 0.4608 0.0
H527 H 0.21673 0.34793 0.49899 0.0
H528 H 0.29729 0.31423 0.45451 0.0
H529 H 0.28116 0.31237 0.4771 0.0
H530 H 0.12125 0.37017 0.38648 0.0
H531 H 0.25143 0.32516 0.49379 0.0
H532 H 0.03325 0.37965 0.45278 0.0
N533 N 0.11028 0.35297 0.4182 0.0
C534 C 0.09081 0.36498 0.42111 0.0
C535 C 0.11273 0.36904 0.3962 0.0
C536 C 0.08224 0.38038 0.41169 0.0
C537 C 0.12071 0.35411 0.4059 0.0
C538 C 0.09358 0.38242 0.39912 0.0
N539 N 0.08954 0.34788 0.44256 0.0
C540 C 0.07553 0.34064 0.45444 0.0
C541 C 0.06044 0.37509 0.43716 0.0
C542 C 0.08049 0.36275 0.43374 0.0
C543 C 0.04875 0.37057 0.44976 0.0
C544 C 0.05578 0.35266 0.45835 0.0
H545 H 0.08757 0.39409 0.3916 0.0
H546 H 0.05631 0.40559 0.40806 0.0
H547 H 0.03695 0.4007 0.43033 0.0
O548 O 0.08304 0.28574 0.44077 0.0
O549 O 0.14711 0.38345 0.4326 0.0
O550 O 0.17631 0.40076 0.45114 0.0
O551 O 0.09628 0.29684 0.4206 0.0
O552 O 0.12739 0.32589 0.45572 0.0
O553 O 0.16926 0.3749 0.46286 0.0
O554 O 0.25106 0.42878 0.44425 0.0
O555 O 0.18623 0.33246 0.4539 0.0
O556 O 0.15628 0.31217 0.43558 0.0
O557 O 0.2382 0.41797 0.46438 0.0
O558 O 0.20479 0.38765 0.42914 0.0
O559 O 0.16416 0.33684 0.42409 0.0
C560 C 0.16283 0.40597 0.44124 0.0
C561 C 0.05108 0.24407 0.42476 0.0
C562 C 1.00676 0.1905 0.42947 0.0
C563 C 1.00441 0.18286 0.41633 0.0
C564 C 0.0482 0.23586 0.41163 0.0
C565 C 0.02502 0.20544 0.40748 0.0
C566 C 0.03016 0.22115 0.43373 0.0
C567 C 0.14237 0.3473 0.46485 0.0
C568 C 0.07725 0.2758 0.42889 0.0
C569 C 0.06302 0.39349 0.41515 0.0
C570 C 0.05212 0.39084 0.42784 0.0
C571 C 0.1702 0.30879 0.44585 0.0
C572 C 0.28404 0.47006 0.46051 0.0
C573 C 0.33604 0.51886 0.45779 0.0
C574 C 0.33237 0.52948 0.46992 0.0
C575 C 0.28117 0.48136 0.47265 0.0
C576 C 0.31181 0.48892 0.45306 0.0
C577 C 0.30518 0.5108 0.47729 0.0
C578 C 0.18862 0.36443 0.42063 0.0
C579 C 0.25795 0.43839 0.45614 0.0
H580 H 0.98657 0.15926 0.41294 0.0
H581 H 0.06415 0.25282 0.40454 0.0
H582 H 0.02314 0.1993 0.39737 0.0
H583 H 0.0322 0.22692 0.4439 0.0
H584 H 0.35087 0.55224 0.47376 0.0
H585 H 0.26023 0.46742 0.4786 0.0
H586 H 0.31458 0.48046 0.44375 0.0
H587 H 0.30271 0.51916 0.48666 0.0
Tb588 Tb 0.7287 0.81018 0.43818 0.0
C589 C 0.70565 0.91231 0.46399 0.0
N590 N 0.69182 0.88054 0.4667 0.0
C591 C 0.70193 0.89257 0.48922 0.0
C592 C 0.71933 0.93562 0.47378 0.0
C593 C 0.68913 0.87036 0.47914 0.0
C594 C 0.71736 0.92536 0.48652 0.0
C595 C 0.72163 0.95409 0.44798 0.0
C596 C 0.70682 0.92132 0.45126 0.0
C597 C 0.73578 0.9775 0.45766 0.0
C598 C 0.73457 0.96828 0.47054 0.0
Tb599 Tb 0.67235 0.8462 0.44957 0.0
N600 N 0.69323 0.89793 0.44214 0.0
C601 C 0.72141 0.96235 0.4351 0.0
C602 C 0.69092 0.906 0.42971 0.0
C603 C 0.70553 0.93818 0.42597 0.0
H604 H 0.67661 0.84512 0.48142 0.0
H605 H 0.7041 0.94431 0.41607 0.0
H606 H 0.72798 0.81625 0.40585 0.0
H607 H 0.70213 0.70849 0.46792 0.0
H608 H 0.67714 0.888 0.42262 0.0
H609 H 0.73258 0.98724 0.43218 0.0
H610 H 0.72598 0.76615 0.46283 0.0
H611 H 0.6998 0.88437 0.49906 0.0
H612 H 0.74747 1.00279 0.45531 0.0
H613 H 0.74543 0.98658 0.47791 0.0
H614 H 0.70112 0.78004 0.38768 0.0
H615 H 0.72741 0.9425 0.49434 0.0
H616 H 0.67238 0.6677 0.4511 0.0
N617 N 0.70772 0.77939 0.42001 0.0
C618 C 0.69281 0.74712 0.42192 0.0
C619 C 0.69782 0.77052 0.39731 0.0
C620 C 0.67814 0.72531 0.41169 0.0
C621 C 0.71228 0.79116 0.40776 0.0
C622 C 0.68 0.73748 0.39931 0.0
N623 N 0.70831 0.75778 0.44365 0.0
C624 C 0.71251 0.74845 0.45555 0.0
C625 C 0.68004 0.70287 0.43646 0.0
C626 C 0.69385 0.73595 0.43408 0.0
C627 C 0.68268 0.69292 0.44885 0.0
C628 C 0.69933 0.71587 0.4584 0.0
H629 H 0.66914 0.72157 0.39117 0.0
H630 H 0.6515 0.67504 0.40635 0.0
H631 H 0.65305 0.65539 0.42808 0.0
O632 O 0.77058 0.81876 0.44791 0.0
O633 O 0.67905 0.77744 0.44458 0.0
O634 O 0.65673 0.80539 0.43686 0.0
O635 O 0.76478 0.80775 0.42774 0.0
O636 O 0.72936 0.82197 0.45848 0.0
O637 O 0.67872 0.81397 0.4636 0.0
O638 O 0.63512 0.85568 0.44544 0.0
O639 O 0.72332 0.87106 0.45468 0.0
O640 O 0.74728 0.86216 0.43733 0.0
O641 O 0.62914 0.82208 0.46019 0.0
O642 O 0.67574 0.84011 0.42835 0.0
O643 O 0.72486 0.8431 0.42457 0.0
C644 C 0.65357 0.77846 0.44091 0.0
C645 C 0.81633 0.84518 0.43503 0.0
C646 C 0.87439 0.87121 0.43718 0.0
C647 C 0.87722 0.89894 0.43142 0.0
C648 C 0.81959 0.87292 0.42915 0.0
C649 C 0.84993 0.89971 0.42742 0.0
C650 C 0.84372 0.84438 0.439 0.0
C651 C 0.70532 0.81305 0.46656 0.0
C652 C 0.7845 0.81739 0.43742 0.0
C653 C 0.66319 0.69217 0.41407 0.0
C654 C 0.66419 0.68097 0.42643 0.0
C655 C 0.74703 0.8808 0.44651 0.0
C656 C 0.59926 0.84958 0.46204 0.0
C657 C 0.55809 0.86541 0.46361 0.0
C658 C 0.56862 0.87626 0.47622 0.0
C659 C 0.60892 0.86038 0.47468 0.0
C660 C 0.57349 0.85182 0.45657 0.0
C661 C 0.59368 0.87362 0.48169 0.0
C662 C 0.7003 0.84607 0.42073 0.0
C663 C 0.6162 0.83676 0.4543 0.0
H664 H 0.90058 0.91981 0.42975 0.0
H665 H 0.79877 0.87388 0.42587 0.0
H666 H 0.85231 0.92105 0.42291 0.0
H667 H 0.84111 0.82301 0.44361 0.0
H668 H 0.55712 0.88646 0.48194 0.0
H669 H 0.62819 0.8586 0.47916 0.0
H670 H 0.56588 0.84359 0.44679 0.0
H671 H 0.60134 0.8819 0.49143 0.0
Tb672 Tb 0.24209 0.93423 0.43603 0.0
C673 C 0.14479 0.81317 0.46485 0.0
N674 N 0.17658 0.8323 0.46738 0.0
C675 C 0.16511 0.83306 0.4898 0.0
C676 C 0.12171 0.80445 0.47466 0.0
C677 C 0.1871 0.8414 0.47971 0.0
C678 C 0.13225 0.81479 0.48725 0.0
C679 C 0.10276 0.78388 0.4492 0.0
C680 C 0.13556 0.80318 0.45227 0.0
C681 C 0.07954 0.77556 0.45888 0.0
C682 C 0.089 0.78578 0.47159 0.0
Tb683 Tb 0.2105 0.84485 0.4503 0.0
N684 N 0.15877 0.81213 0.44311 0.0
C685 C 0.09428 0.77315 0.43653 0.0
C686 C 0.15054 0.79975 0.43095 0.0
C687 C 0.1183 0.78071 0.42743 0.0
H688 H 0.21243 0.85496 0.48184 0.0
H689 H 0.11202 0.77148 0.41771 0.0
H690 H 0.23339 0.92757 0.40402 0.0
H691 H 0.34303 0.01591 0.46505 0.0
H692 H 0.16844 0.80345 0.42391 0.0
H693 H 0.06935 0.75828 0.43377 0.0
H694 H 0.28591 0.97837 0.4604 0.0
H695 H 0.17353 0.84065 0.49953 0.0
H696 H 0.05423 0.76093 0.45668 0.0
H697 H 0.07085 0.77897 0.47897 0.0
H698 H 0.2684 0.94452 0.38502 0.0
H699 H 0.11529 0.8085 0.49507 0.0
H700 H 0.38325 0.03185 0.44766 0.0
N701 N 0.272 0.94849 0.41751 0.0
C702 C 0.30402 0.96873 0.41902 0.0
C703 C 0.27882 0.95103 0.39455 0.0
C704 C 0.32495 0.97975 0.40838 0.0
C705 C 0.25905 0.94087 0.40542 0.0
C706 C 0.31199 0.97007 0.39604 0.0
N707 N 0.29409 0.97052 0.441 0.0
C708 C 0.30336 0.98408 0.45292 0.0
C709 C 0.34818 1.00255 0.43323 0.0
C710 C 0.31546 0.98034 0.43119 0.0
C711 C 0.35828 0.01479 0.44566 0.0
C712 C 0.33566 1.00581 0.45551 0.0
H713 H 0.3272 0.97816 0.38759 0.0
H714 H 0.37436 0.00962 0.40231 0.0
H715 H 0.39477 0.0293 0.42414 0.0
O716 O 0.23185 0.96732 0.44522 0.0
O717 O 0.27854 0.92154 0.44226 0.0
O718 O 0.25144 0.86845 0.43756 0.0
O719 O 0.23153 0.96344 0.42464 0.0
O720 O 0.23196 0.92626 0.45665 0.0
O721 O 0.24276 0.88636 0.46309 0.0
O722 O 0.19936 0.79644 0.44915 0.0
O723 O 0.18431 0.87008 0.45426 0.0
O724 O 0.19189 0.89618 0.43526 0.0
O725 O 0.23658 0.83021 0.46211 0.0
O726 O 0.21703 0.84966 0.42884 0.0
O727 O 0.21314 0.89428 0.42277 0.0
C728 C 0.2781 0.89424 0.44063 0.0
C729 C 0.245 0.01376 0.43292 0.0
C730 C 0.24328 0.06294 0.43545 0.0
C731 C 0.27114 0.07931 0.42798 0.0
C732 C 0.27311 0.0304 0.42556 0.0
C733 C 0.28602 0.06305 0.42308 0.0
C734 C 0.23022 0.03017 0.43791 0.0
C735 C 0.2427 0.91366 0.46519 0.0
C736 C 0.22886 0.97885 0.43433 0.0
C737 C 0.35785 1.00108 0.41036 0.0
C738 C 0.36947 0.01237 0.42278 0.0
C739 C 0.17448 0.88236 0.44541 0.0
C740 C 0.22674 0.7751 0.46221 0.0
C741 C 0.21746 0.72021 0.4609 0.0
C742 C 0.23621 0.72607 0.47202 0.0
C743 C 0.24571 0.78029 0.47321 0.0
C744 C 0.21283 0.74492 0.45594 0.0
C745 C 0.25037 0.75593 0.47805 0.0
C746 C 0.21284 0.86739 0.42004 0.0
C747 C 0.2207 0.80088 0.45779 0.0
H748 H 0.2812 0.10459 0.42589 0.0
H749 H 0.28461 0.01806 0.42146 0.0
H750 H 0.30736 0.07568 0.41723 0.0
H751 H 0.20828 0.01739 0.44345 0.0
H752 H 0.24015 0.7075 0.47597 0.0
H753 H 0.25663 0.80309 0.47821 0.0
H754 H 0.19815 0.74046 0.44743 0.0
H755 H 0.26488 0.76016 0.48659 0.0
Tb756 Tb 0.66958 0.78976 0.2716 0.0
C757 C 0.69349 0.90854 0.23753 0.0
N758 N 0.70668 0.8898 0.23538 0.0
C759 C 0.69878 0.89142 0.21264 0.0
C760 C 0.68191 0.91913 0.22728 0.0
C761 C 0.70979 0.88143 0.22314 0.0
C762 C 0.68462 0.91023 0.21472 0.0
C763 C 0.67842 0.93676 0.25274 0.0
C764 C 0.69162 0.91701 0.25009 0.0
C765 C 0.66635 0.94699 0.24261 0.0
C766 C 0.66812 0.93821 0.2299 0.0
Tb767 Tb 0.72356 0.87422 0.25307 0.0
N768 N 0.7033 0.90632 0.25966 0.0
C769 C 0.67846 0.94628 0.26545 0.0
C770 C 0.70601 0.91815 0.27185 0.0
C771 C 0.69287 0.93742 0.275 0.0
H772 H 0.72165 0.86783 0.22145 0.0
H773 H 0.69461 0.94609 0.28475 0.0
H774 H 0.66818 0.80498 0.3027 0.0
H775 H 0.71458 0.72246 0.24587 0.0
H776 H 0.71945 0.91434 0.27916 0.0
H777 H 0.66859 0.96148 0.2679 0.0
H778 H 0.68955 0.75563 0.24784 0.0
H779 H 0.70142 0.8848 0.20296 0.0
H780 H 0.65601 0.96205 0.24447 0.0
H781 H 0.65899 0.94651 0.22217 0.0
H782 H 0.68552 0.79229 0.32311 0.0
H783 H 0.67612 0.91796 0.20658 0.0
H784 H 0.73236 0.70622 0.26537 0.0
N785 N 0.68491 0.78004 0.2911 0.0
C786 C 0.69808 0.76083 0.29088 0.0
C787 C 0.68963 0.78366 0.31411 0.0
C788 C 0.70816 0.75277 0.30232 0.0
C789 C 0.68026 0.79122 0.30251 0.0
C790 C 0.70383 0.76451 0.31402 0.0
N791 N 0.69311 0.75914 0.26822 0.0
C792 C 0.69706 0.74909 0.25643 0.0
C793 C 0.71668 0.73072 0.2784 0.0
C794 C 0.70211 0.74981 0.27908 0.0
C795 C 0.72121 0.72086 0.26631 0.0
C796 C 0.71129 0.73005 0.25528 0.0
H797 H 0.71113 0.75875 0.32303 0.0
H798 H 0.7302 0.72693 0.31039 0.0
H799 H 0.73779 0.70776 0.28945 0.0
O800 O 0.62695 0.74874 0.26456 0.0
O801 O 0.72243 0.81183 0.2725 0.0
O802 O 0.73641 0.83701 0.25306 0.0
O803 O 0.63248 0.76414 0.28457 0.0
O804 O 0.66364 0.78889 0.25069 0.0
O805 O 0.70863 0.83094 0.24067 0.0
O806 O 0.76682 0.91309 0.26011 0.0
O807 O 0.67149 0.85165 0.25054 0.0
O808 O 0.65369 0.82493 0.2696 0.0
O809 O 0.76188 0.90017 0.24022 0.0
O810 O 0.72929 0.87135 0.27437 0.0
O811 O 0.67844 0.83404 0.28059 0.0
C812 C 0.74367 0.82645 0.26334 0.0
C813 C 0.58175 0.71761 0.27946 0.0
C814 C 0.52852 0.67393 0.27382 0.0
C815 C 0.51951 0.67111 0.28681 0.0
C816 C 0.57216 0.71418 0.29244 0.0
C817 C 0.54127 0.69108 0.29605 0.0
C818 C 0.55976 0.69716 0.2701 0.0
C819 C 0.68148 0.80256 0.24043 0.0
C820 C 0.61402 0.74383 0.27596 0.0
C821 C 0.72231 0.73341 0.30171 0.0
C822 C 0.72659 0.72245 0.28978 0.0
C823 C 0.6483 0.83546 0.25877 0.0
C824 C 0.7936 0.95561 0.24523 0.0
C825 C 0.83484 0.01208 0.2479 0.0
C826 C 0.81844 0.02063 0.23901 0.0
C827 C 0.77815 0.96495 0.23616 0.0
C828 C 0.82238 0.97941 0.25099 0.0
C829 C 0.79041 0.99719 0.23314 0.0
C830 C 0.70729 0.85715 0.28343 0.0
C831 C 0.77972 0.92133 0.24876 0.0
H832 H 0.49552 0.65328 0.28978 0.0
H833 H 0.58845 0.72959 0.29984 0.0
H834 H 0.53411 0.68876 0.30605 0.0
H835 H 0.56663 0.69955 0.26005 0.0
H836 H 0.82768 0.04554 0.23644 0.0
H837 H 0.7567 0.94745 0.23129 0.0
H838 H 0.83482 0.97263 0.2579 0.0
H839 H 0.7782 1.00402 0.22617 0.0
Tb840 Tb 0.26986 0.90069 0.26847 0.0
C841 C 0.14815 0.80456 0.23812 0.0
N842 N 0.16812 0.8359 0.23515 0.0
C843 C 0.16751 0.82203 0.21293 0.0
C844 C 0.13743 0.78054 0.22859 0.0
C845 C 0.17785 0.84497 0.22275 0.0
C846 C 0.14724 0.78967 0.21585 0.0
C847 C 0.11989 0.7642 0.25445 0.0
C848 C 0.13991 0.79658 0.25092 0.0
C849 C 0.10918 0.74011 0.245 0.0
C850 C 0.11791 0.74826 0.2321 0.0
Tb851 Tb 0.1837 0.87148 0.25182 0.0
N852 N 0.15134 0.82056 0.25985 0.0
C853 C 0.11072 0.75706 0.26733 0.0
C854 C 0.13971 0.81375 0.27215 0.0
C855 C 0.12016 0.78201 0.27616 0.0
H856 H 0.19337 0.86995 0.22039 0.0
H857 H 0.11174 0.77689 0.286 0.0
H858 H 0.25862 0.8875 0.29987 0.0
H859 H 0.34667 1.00738 0.24097 0.0
H860 H 0.14397 0.83237 0.27888 0.0
H861 H 0.09538 0.73251 0.27044 0.0
H862 H 0.31016 0.94986 0.24411 0.0
H863 H 0.17522 0.82932 0.20311 0.0
H864 H 0.09394 0.71512 0.24756 0.0
H865 H 0.1095 0.72943 0.22492 0.0
H866 H 0.2745 0.91997 0.31978 0.0
H867 H 0.13949 0.77194 0.20824 0.0
H868 H 0.36404 0.04421 0.25966 0.0
N869 N 0.28384 0.92773 0.28754 0.0
C870 C 0.30416 0.95988 0.28672 0.0
C871 C 0.28287 0.93152 0.31053 0.0
C872 C 0.31431 0.97929 0.29782 0.0
C873 C 0.27359 0.91324 0.29923 0.0
C874 C 0.30316 0.96472 0.30983 0.0
N875 N 0.30406 0.95371 0.26417 0.0
C876 C 0.31608 0.96547 0.25225 0.0
C877 C 0.33642 1.00644 0.27337 0.0
C878 C 0.31493 0.97328 0.27465 0.0
C879 C 0.34741 0.01887 0.26106 0.0
C880 C 0.3375 0.9982 0.25048 0.0
H881 H 0.31036 0.9788 0.3186 0.0
H882 H 0.34336 0.02781 0.305 0.0
H883 H 0.36282 0.05156 0.2836 0.0
O884 O 0.30637 0.89468 0.26012 0.0
O885 O 0.25086 0.93427 0.26987 0.0
O886 O 0.22052 0.92168 0.25164 0.0
O887 O 0.29624 0.88723 0.28041 0.0
O888 O 0.26686 0.89418 0.24748 0.0
O889 O 0.22603 0.90187 0.23938 0.0
O890 O 0.14338 0.8753 0.25794 0.0
O891 O 0.20631 0.84228 0.24861 0.0
O892 O 0.23254 0.85014 0.26766 0.0
O893 O 0.15818 0.88132 0.23792 0.0
O894 O 0.18889 0.88204 0.27302 0.0
O895 O 0.22631 0.86809 0.27877 0.0
C896 C 0.23318 0.93981 0.26174 0.0
C897 C 0.34917 0.90413 0.27395 0.0
C898 C 0.39914 0.90318 0.27291 0.0
C899 C 0.41376 0.93046 0.28084 0.0
C900 C 0.36415 0.9316 0.28175 0.0
C901 C 0.39638 0.94474 0.28513 0.0
C902 C 0.36688 0.89028 0.26937 0.0
C903 C 0.25309 0.90101 0.23798 0.0
C904 C 0.31474 0.88819 0.27114 0.0
C905 C 0.33533 0.01246 0.29659 0.0
C906 C 0.3464 0.02599 0.28439 0.0
C907 C 0.221 0.83383 0.25699 0.0
C908 C 0.11164 0.88655 0.24235 0.0
C909 C 0.05854 0.88059 0.24534 0.0
C910 C 0.06234 0.89705 0.23374 0.0
C911 C 0.11476 0.90298 0.23078 0.0
C912 C 0.08336 0.87546 0.24972 0.0
C913 C 0.0903 0.90822 0.22655 0.0
C914 C 0.20433 0.87525 0.28192 0.0
C915 C 0.1377 0.88045 0.24621 0.0
H916 H 0.43868 0.94078 0.28366 0.0
H917 H 0.3509 0.94252 0.28542 0.0
H918 H 0.40779 0.96579 0.29122 0.0
H919 H 0.3553 0.86888 0.26343 0.0
H920 H 0.04349 0.90117 0.23024 0.0
H921 H 0.13618 0.91178 0.22495 0.0
H922 H 0.08043 0.86252 0.25861 0.0
H923 H 0.09297 0.92085 0.21761 0.0
Tb924 Tb 0.15195 0.39192 0.26731 0.0
C925 C 0.24847 0.36438 0.23718 0.0
N926 N 0.21702 0.355 0.23523 0.0
C927 C 0.22743 0.36584 0.21261 0.0
C928 C 0.27077 0.37565 0.22698 0.0
C929 C 0.20612 0.35429 0.22299 0.0
C930 C 0.25996 0.37693 0.21463 0.0
C931 C 0.28978 0.3682 0.25169 0.0
C932 C 0.25786 0.36044 0.24929 0.0
C933 C 0.3123 0.38037 0.24167 0.0
C934 C 0.30281 0.38407 0.22933 0.0
Tb935 Tb 0.1843 0.33475 0.25298 0.0
N936 N 0.23544 0.34867 0.25873 0.0
C937 C 0.29798 0.3632 0.26406 0.0
C938 C 0.243 0.34254 0.27069 0.0
C939 C 0.27441 0.35015 0.27358 0.0
H940 H 0.1809 0.34379 0.22093 0.0
H941 H 0.28034 0.3456 0.28311 0.0
H942 H 0.15305 0.38281 0.29876 0.0
H943 H 0.05546 0.36983 0.23437 0.0
H944 H 0.22485 0.33145 0.27801 0.0
H945 H 0.32225 0.36889 0.2663 0.0
H946 H 0.11165 0.39353 0.24103 0.0
H947 H 0.21859 0.36544 0.20299 0.0
H948 H 0.33696 0.38654 0.24331 0.0
H949 H 0.32026 0.39281 0.22161 0.0
H950 H 0.11371 0.35805 0.31632 0.0
H951 H 0.27628 0.3853 0.20652 0.0
H952 H 0.01205 0.34019 0.25017 0.0
N953 N 0.11772 0.37026 0.28423 0.0
C954 C 0.08614 0.35846 0.28158 0.0
C955 C 0.10559 0.35765 0.30656 0.0
C956 C 0.06276 0.34439 0.29129 0.0
C957 C 0.12784 0.37119 0.29657 0.0
C958 C 0.07285 0.34388 0.3039 0.0
N959 N 0.10082 0.37357 0.25987 0.0
C960 C 0.09327 0.37869 0.24776 0.0
C961 C 0.04475 0.34684 0.26574 0.0
C962 C 0.07735 0.35957 0.26894 0.0
C963 C 0.03682 0.34966 0.25303 0.0
C964 C 0.06124 0.36615 0.24407 0.0
H965 H 0.05564 0.33328 0.31165 0.0
H966 H 0.01182 0.31996 0.29539 0.0
H967 H 0.99604 0.32218 0.27303 0.0
O968 O 0.14339 0.43063 0.26538 0.0
O969 O 0.12386 0.33932 0.2707 0.0
O970 O 0.13546 0.32475 0.25189 0.0
O971 O 0.17363 0.42953 0.28088 0.0
O972 O 0.16189 0.3969 0.24656 0.0
O973 O 0.15648 0.34846 0.23951 0.0
O974 O 0.17529 0.29023 0.26089 0.0
O975 O 0.21993 0.38283 0.2594 0.0
O976 O 0.19676 0.41416 0.25596 0.0
O977 O 0.17397 0.2964 0.2406 0.0
O978 O 0.17573 0.33387 0.27426 0.0
O979 O 0.18628 0.38549 0.27869 0.0
C980 C 0.11763 0.31712 0.26207 0.0
C981 C 0.16651 0.47602 0.28004 0.0
C982 C 0.17869 0.53075 0.27595 0.0
C983 C 0.18018 0.53615 0.28929 0.0
C984 C 0.16818 0.48185 0.29332 0.0
C985 C 0.17469 0.51173 0.29791 0.0
C986 C 0.17124 0.50039 0.27132 0.0
C987 C 0.15716 0.37609 0.23736 0.0
C988 C 0.16114 0.44498 0.27536 0.0
C989 C 0.03021 0.3311 0.28808 0.0
C990 C 0.02123 0.33228 0.27534 0.0
C991 C 0.22211 0.41054 0.25685 0.0
C992 C 0.19587 0.26461 0.24726 0.0
C993 C 0.21075 0.22324 0.25023 0.0
C994 C 0.23643 0.23977 0.24169 0.0
C995 C 0.22154 0.28017 0.23854 0.0
C996 C 0.19034 0.23569 0.25304 0.0
C997 C 0.24169 0.26798 0.23587 0.0
C998 C 0.18455 0.3585 0.28229 0.0
C999 C 0.17437 0.278 0.24962 0.0
H1000 H 0.1855 0.55932 0.29303 0.0
H1001 H 0.16442 0.46327 0.30014 0.0
H1002 H 0.17577 0.51608 0.30817 0.0
H1003 H 0.17025 0.49614 0.26104 0.0
H1004 H 0.25219 0.23048 0.23936 0.0
H1005 H 0.22582 0.30155 0.23352 0.0
H1006 H 0.17036 0.22295 0.25959 0.0
H1007 H 0.26126 0.28028 0.22913 0.0
Tb1008 Tb 0.79089 0.66512 0.7684 0.0
C1009 C 0.915 0.69555 0.80149 0.0
N1010 N 0.89263 0.70446 0.80337 0.0
C1011 C 0.89306 0.69554 0.82608 0.0
C1012 C 0.92711 0.68595 0.81188 0.0
C1013 C 0.88179 0.70493 0.81547 0.0
C1014 C 0.91576 0.68594 0.82428 0.0
C1015 C 0.9488 0.68684 0.78671 0.0
C1016 C 0.92547 0.69579 0.78905 0.0
C1017 C 0.96087 0.67713 0.79702 0.0
C1018 C 0.95004 0.67667 0.80957 0.0
Tb1019 Tb 0.87689 0.72048 0.7855 0.0
N1020 N 0.91281 0.70481 0.77929 0.0
C1021 C 0.95965 0.68835 0.77412 0.0
C1022 C 0.9253 0.70867 0.76716 0.0
C1023 C 0.94816 0.69975 0.76434 0.0
H1024 H 0.865 0.71321 0.81706 0.0
H1025 H 0.95749 0.70244 0.75467 0.0
H1026 H 0.80584 0.67373 0.73705 0.0
H1027 H 0.71719 0.69384 0.79877 0.0
H1028 H 0.91915 0.7199 0.75965 0.0
H1029 H 0.97757 0.68174 0.77192 0.0
H1030 H 0.74905 0.66855 0.79366 0.0
H1031 H 0.88442 0.69597 0.83565 0.0
H1032 H 0.97875 0.67012 0.79539 0.0
H1033 H 0.95963 0.6692 0.81742 0.0
H1034 H 0.7948 0.69918 0.71866 0.0
H1035 H 0.92449 0.67875 0.83252 0.0
H1036 H 0.70556 0.72263 0.78181 0.0
N1037 N 0.78136 0.68678 0.75059 0.0
C1038 C 0.76227 0.69978 0.75243 0.0
C1039 C 0.78578 0.69982 0.72814 0.0
C1040 C 0.75501 0.71428 0.7422 0.0
C1041 C 0.79253 0.68594 0.73861 0.0
C1042 C 0.76712 0.71425 0.72994 0.0
N1043 N 0.75938 0.68605 0.77448 0.0
C1044 C 0.74619 0.68265 0.7864 0.0
C1045 C 0.73196 0.7136 0.76713 0.0
C1046 C 0.75114 0.69963 0.76478 0.0
C1047 C 0.7204 0.71222 0.7796 0.0
C1048 C 0.72714 0.69623 0.78922 0.0
H1049 H 0.76202 0.7251 0.72182 0.0
H1050 H 0.73043 0.73988 0.73681 0.0
H1051 H 0.71014 0.73917 0.75861 0.0
O1052 O 0.74792 0.62245 0.77372 0.0
O1053 O 0.81564 0.718 0.76631 0.0
O1054 O 0.83938 0.7328 0.78586 0.0
O1055 O 0.76629 0.63102 0.75409 0.0
O1056 O 0.79305 0.65839 0.78918 0.0
O1057 O 0.83367 0.70643 0.79767 0.0
O1058 O 0.91461 0.76437 0.77825 0.0
O1059 O 0.85764 0.66867 0.78782 0.0
O1060 O 0.82291 0.64526 0.7706 0.0
O1061 O 0.90217 0.75918 0.7982 0.0
O1062 O 0.87215 0.72232 0.7641 0.0
O1063 O 0.83332 0.67095 0.75873 0.0
C1064 C 0.82857 0.73939 0.77551 0.0
C1065 C 0.71714 0.58111 0.75742 0.0
C1066 C 0.67556 0.52571 0.76119 0.0
C1067 C 0.66994 0.5215 0.74787 0.0
C1068 C 0.71092 0.57639 0.74413 0.0
C1069 C 0.68737 0.54679 0.73942 0.0
C1070 C 0.69894 0.55576 0.766 0.0
C1071 C 0.80718 0.67797 0.79895 0.0
C1072 C 0.74415 0.61176 0.76195 0.0
C1073 C 0.73621 0.72853 0.74454 0.0
C1074 C 0.72473 0.72819 0.75697 0.0
C1075 C 0.83895 0.6437 0.78061 0.0
C1076 C 0.95736 0.79203 0.79321 0.0
C1077 C 0.01333 0.83519 0.79135 0.0
C1078 C 0.02188 0.82055 0.80103 0.0
C1079 C 0.96675 0.77843 0.80308 0.0
C1080 C 0.98101 0.82058 0.78727 0.0
C1081 C 0.99875 0.79231 0.8068 0.0
C1082 C 0.85822 0.69855 0.75567 0.0
C1083 C 0.92293 0.77731 0.78962 0.0
H1084 H 0.65182 0.49858 0.74401 0.0
H1085 H 0.72453 0.59553 0.73734 0.0
H1086 H 0.68282 0.54335 0.72917 0.0
H1087 H 0.70365 0.55898 0.77626 0.0
H1088 H 0.04655 0.83131 0.80426 0.0
H1089 H 0.94936 0.75742 0.8082 0.0
H1090 H 0.9742 0.83184 0.77984 0.0
H1091 H 1.00555 0.78146 0.81438 0.0
Tb1092 Tb 0.39261 0.15135 0.76697 0.0
C1093 C 0.37779 0.25324 0.79893 0.0
N1094 N 0.36342 0.22163 0.80197 0.0
C1095 C 0.37666 0.23507 0.82424 0.0
C1096 C 0.39285 0.27715 0.80843 0.0
C1097 C 0.36242 0.21227 0.81444 0.0
C1098 C 0.3921 0.26768 0.82122 0.0
C1099 C 0.39305 0.29402 0.78255 0.0
C1100 C 0.37814 0.26143 0.78615 0.0
C1101 C 0.4085 0.31801 0.79193 0.0
C1102 C 0.40838 0.30959 0.80484 0.0
Tb1103 Tb 0.34195 0.18597 0.78532 0.0
N1104 N 0.36326 0.23744 0.77732 0.0
C1105 C 0.39125 0.30152 0.7697 0.0
C1106 C 0.3584 0.24493 0.76513 0.0
C1107 C 0.37318 0.27685 0.76103 0.0
H1108 H 0.35013 0.18716 0.81688 0.0
H1109 H 0.36989 0.28241 0.75124 0.0
H1110 H 0.39531 0.16758 0.73581 0.0
H1111 H 0.34136 0.03894 0.79313 0.0
H1112 H 0.34213 0.22687 0.75857 0.0
H1113 H 0.40242 0.32624 0.76653 0.0
H1114 H 0.3684 0.0972 0.79096 0.0
H1115 H 0.37571 0.22746 0.83411 0.0
H1116 H 0.42021 0.34315 0.78932 0.0
H1117 H 0.42023 0.32833 0.81199 0.0
H1118 H 0.37724 0.13701 0.71544 0.0
H1119 H 0.40329 0.2853 0.82881 0.0
H1120 H 0.32399 1.0046 0.77371 0.0
N1121 N 0.37747 0.12596 0.74753 0.0
C1122 C 0.36314 0.09345 0.74787 0.0
C1123 C 0.37305 0.1245 0.72451 0.0
C1124 C 0.35278 0.07509 0.73648 0.0
C1125 C 0.38288 0.14169 0.73607 0.0
C1126 C 0.35788 0.09106 0.72471 0.0
N1127 N 0.3669 0.09704 0.77052 0.0
C1128 C 0.36134 0.08308 0.78239 0.0
C1129 C 0.34206 0.04473 0.76053 0.0
C1130 C 0.35794 0.07848 0.75973 0.0
C1131 C 0.33616 0.03044 0.77269 0.0
C1132 C 0.34585 0.04973 0.78366 0.0
H1133 H 0.35024 0.07782 0.71574 0.0
H1134 H 0.32939 0.02698 0.72855 0.0
H1135 H 0.31995 1.0004 0.74961 0.0
O1136 O 0.43323 0.14943 0.77415 0.0
O1137 O 0.33948 0.12191 0.76607 0.0
O1138 O 0.32621 0.13515 0.78524 0.0
O1139 O 0.43103 0.16397 0.75459 0.0
O1140 O 0.39868 0.15677 0.78785 0.0
O1141 O 0.355 0.15642 0.79791 0.0
O1142 O 0.29855 0.18478 0.77966 0.0
O1143 O 0.39399 0.212 0.78807 0.0
O1144 O 0.41097 0.2032 0.76875 0.0
O1145 O 0.30712 0.17632 0.79937 0.0
O1146 O 0.33482 0.17599 0.76413 0.0
O1147 O 0.38499 0.18741 0.75783 0.0
C1148 C 0.31809 0.11707 0.775 0.0
C1149 C 0.47483 0.15559 0.75901 0.0
C1150 C 0.53016 0.16823 0.7622 0.0
C1151 C 0.53125 0.15991 0.74934 0.0
C1152 C 0.47622 0.14679 0.74621 0.0
C1153 C 0.50432 0.14893 0.74145 0.0
C1154 C 0.50177 0.16572 0.76707 0.0
C1155 C 0.38109 0.15334 0.79811 0.0
C1156 C 0.4483 0.16029 0.76327 0.0
C1157 C 0.33745 0.04149 0.7372 0.0
C1158 C 0.3321 0.02635 0.7492 0.0
C1159 C 0.41656 0.21962 0.77949 0.0
C1160 C 0.25629 0.17398 0.79566 0.0
C1161 C 0.20717 0.1766 0.79248 0.0
C1162 C 0.19692 0.16353 0.80481 0.0
C1163 C 0.24522 0.16101 0.80797 0.0
C1164 C 0.23714 0.18204 0.78789 0.0
C1165 C 0.21584 0.15591 0.81248 0.0
C1166 C 0.35641 0.1824 0.75502 0.0
C1167 C 0.28786 0.17889 0.7914 0.0
H1168 H 0.55299 0.16182 0.74542 0.0
H1169 H 0.45602 0.13937 0.73976 0.0
H1170 H 0.50545 0.14269 0.73153 0.0
H1171 H 0.50123 0.1732 0.77687 0.0
H1172 H 0.17414 0.15937 0.80855 0.0
H1173 H 0.25928 0.15464 0.81417 0.0
H1174 H 0.24528 0.19217 0.77839 0.0
H1175 H 0.20766 0.14593 0.82198 0.0
Tb1176 Tb 0.90683 0.26717 0.76796 0.0
C1177 C 0.80812 0.14758 0.79871 0.0
N1178 N 0.83973 0.16678 0.80152 0.0
C1179 C 0.82695 0.16737 0.82379 0.0
C1180 C 0.78452 0.13794 0.80836 0.0
C1181 C 0.84946 0.17669 0.81386 0.0
C1182 C 0.79433 0.14795 0.82103 0.0
C1183 C 0.76682 0.11994 0.78259 0.0
C1184 C 0.79947 0.13906 0.78596 0.0
C1185 C 0.74316 0.11025 0.79216 0.0
C1186 C 0.75199 0.11921 0.80501 0.0
Tb1187 Tb 0.87453 0.18055 0.78466 0.0
N1188 N 0.82307 0.14949 0.7769 0.0
C1189 C 0.75894 0.1107 0.76975 0.0
C1190 C 0.81544 0.13786 0.76462 0.0
C1191 C 0.7834 0.1192 0.76077 0.0
H1192 H 0.87464 0.19148 0.81611 0.0
H1193 H 0.77764 0.11074 0.75094 0.0
H1194 H 0.90164 0.25392 0.73647 0.0
H1195 H 1.0062 0.34764 0.79848 0.0
H1196 H 0.83359 0.14146 0.75777 0.0
H1197 H 0.73416 0.09606 0.76676 0.0
H1198 H 0.94976 0.31103 0.79333 0.0
H1199 H 0.83476 0.17521 0.83357 0.0
H1200 H 0.71797 0.09567 0.78973 0.0
H1201 H 0.73347 0.11162 0.81228 0.0
H1202 H 0.93884 0.26845 0.71811 0.0
H1203 H 0.77694 0.14099 0.82873 0.0
H1204 H 0.04744 0.36343 0.78154 0.0
N1205 N 0.93857 0.27951 0.75019 0.0
C1206 C 0.97027 0.30056 0.75213 0.0
C1207 C 0.94806 0.27734 0.72765 0.0
C1208 C 0.99234 0.31013 0.74189 0.0
C1209 C 0.92709 0.26857 0.73812 0.0
C1210 C 0.98088 0.29797 0.72957 0.0
N1211 N 0.95855 0.30188 0.77417 0.0
C1212 C 0.96731 0.31553 0.78609 0.0
C1213 C 0.01322 0.33434 0.76685 0.0
C1214 C 0.98056 0.31222 0.76449 0.0
C1215 C 0.02259 0.34642 0.77932 0.0
C1216 C 0.99944 0.33734 0.78893 0.0
H1217 H 0.99707 0.30477 0.72144 0.0
H1218 H 0.04235 0.33915 0.73654 0.0
H1219 H 0.0606 0.36047 0.75836 0.0
O1220 O 0.90191 0.30669 0.7742 0.0
O1221 O 0.93842 0.24595 0.76659 0.0
O1222 O 0.92561 0.21491 0.78476 0.0
O1223 O 0.89781 0.29281 0.754 0.0
O1224 O 0.89859 0.26384 0.78882 0.0
O1225 O 0.90607 0.22289 0.79688 0.0
O1226 O 0.87575 0.13868 0.77862 0.0
O1227 O 0.84674 0.20482 0.78755 0.0
O1228 O 0.85516 0.23256 0.76871 0.0
O1229 O 0.88326 0.15433 0.79856 0.0
O1230 O 0.88478 0.18514 0.76354 0.0
O1231 O 0.87295 0.22407 0.75767 0.0
C1232 C 0.94374 0.22809 0.7747 0.0
C1233 C 0.89175 0.33862 0.75838 0.0
C1234 C 0.87999 0.38103 0.76329 0.0
C1235 C 0.87959 0.38688 0.75008 0.0
C1236 C 0.89132 0.3449 0.74517 0.0
C1237 C 0.88529 0.36892 0.74108 0.0
C1238 C 0.88618 0.35695 0.76748 0.0
C1239 C 0.90543 0.25002 0.7983 0.0
C1240 C 0.89723 0.31244 0.76237 0.0
C1241 C 0.02499 0.33159 0.74427 0.0
C1242 C 0.03538 0.34371 0.7567 0.0
C1243 C 0.83815 0.21932 0.77912 0.0
C1244 C 0.88584 0.10622 0.79434 0.0
C1245 C 0.87898 0.05272 0.79132 0.0
C1246 C 0.89414 0.05572 0.80319 0.0
C1247 C 0.90099 0.10849 0.80618 0.0
C1248 C 0.87497 0.07816 0.7868 0.0
C1249 C 0.90514 0.08346 0.81054 0.0
C1250 C 0.87831 0.20078 0.75465 0.0
C1251 C 0.88108 0.13309 0.79035 0.0
H1252 H 0.87482 0.40542 0.74675 0.0
H1253 H 0.89555 0.33117 0.73797 0.0
H1254 H 0.88494 0.37354 0.7309 0.0
H1255 H 0.88629 0.35234 0.77769 0.0
H1256 H 0.89743 0.03644 0.8068 0.0
H1257 H 0.90967 0.12971 0.81215 0.0
H1258 H 0.86309 0.07588 0.77767 0.0
H1259 H 0.91681 0.08551 0.81969 0.0
Tb1260 Tb 0.3355 0.11483 0.59935 0.0
C1261 C 0.3603 0.23876 0.57203 0.0
N1262 N 0.37346 0.21998 0.56981 0.0
C1263 C 0.36424 0.22079 0.54713 0.0
C1264 C 0.34747 0.24832 0.56188 0.0
C1265 C 0.3763 0.21158 0.55752 0.0
C1266 C 0.34952 0.23902 0.54932 0.0
C1267 C 0.34445 0.26618 0.58737 0.0
C1268 C 0.3589 0.2476 0.58461 0.0
C1269 C 0.33131 0.27548 0.57731 0.0
C1270 C 0.33288 0.26663 0.5646 0.0
Tb1271 Tb 0.39245 0.2065 0.5875 0.0
N1272 N 0.37146 0.23774 0.59412 0.0
C1273 C 0.34379 0.27499 0.60013 0.0
C1274 C 0.37259 0.24804 0.60648 0.0
C1275 C 0.35828 0.26621 0.6097 0.0
H1276 H 0.38869 0.19861 0.55554 0.0
H1277 H 0.35882 0.27381 0.61955 0.0
H1278 H 0.32636 0.11599 0.63145 0.0
H1279 H 0.36514 0.03995 0.57093 0.0
H1280 H 0.38514 0.24319 0.61391 0.0
H1281 H 0.3328 0.28913 0.60266 0.0
H1282 H 0.34078 0.07379 0.57518 0.0
H1283 H 0.36653 0.21402 0.53742 0.0
H1284 H 0.32005 0.28968 0.57926 0.0
H1285 H 0.32272 0.27407 0.55695 0.0
H1286 H 0.34674 0.10229 0.65071 0.0
H1287 H 0.34008 0.246 0.54126 0.0
H1288 H 0.39221 0.02807 0.58862 0.0
N1289 N 0.35068 0.1015 0.61824 0.0
C1290 C 0.36637 0.08477 0.61687 0.0
C1291 C 0.35296 0.09776 0.64124 0.0
C1292 C 0.37761 0.0755 0.62765 0.0
C1293 C 0.34201 0.10613 0.63024 0.0
C1294 C 0.37154 0.0831 0.63994 0.0
N1295 N 0.35624 0.08275 0.59464 0.0
C1296 C 0.35331 0.06931 0.58279 0.0
C1297 C 0.38247 0.05502 0.60284 0.0
C1298 C 0.36868 0.07449 0.60469 0.0
C1299 C 0.38189 0.04316 0.59045 0.0
C1300 C 0.36671 0.04988 0.58043 0.0
H1301 H 0.37973 0.07638 0.64847 0.0
H1302 H 0.40232 0.05065 0.63397 0.0
H1303 H 0.40666 0.03281 0.61222 0.0
O1304 O 0.2933 0.08599 0.58876 0.0
O1305 O 0.38499 0.13051 0.59292 0.0
O1306 O 0.40942 0.18184 0.59989 0.0
O1307 O 0.29831 0.07385 0.60814 0.0
O1308 O 0.33498 0.1268 0.57911 0.0
O1309 O 0.38609 0.16754 0.57383 0.0
O1310 O 0.42947 0.25314 0.59193 0.0
O1311 O 0.34053 0.18116 0.58396 0.0
O1312 O 0.31844 0.14899 0.60164 0.0
O1313 O 0.4352 0.22669 0.57658 0.0
O1314 O 0.39095 0.19863 0.60876 0.0
O1315 O 0.34292 0.15179 0.61365 0.0
C1316 C 0.41115 0.15692 0.59626 0.0
C1317 C 0.24719 0.06271 0.60168 0.0
C1318 C 0.18894 0.02951 0.60039 0.0
C1319 C 0.18623 0.05112 0.60874 0.0
C1320 C 0.244 0.08406 0.6099 0.0
C1321 C 0.21359 0.07834 0.61333 0.0
C1322 C 0.21979 0.03596 0.59677 0.0
C1323 C 0.35903 0.14054 0.57099 0.0
C1324 C 0.2789 0.06743 0.5985 0.0
C1325 C 0.39313 0.05764 0.62582 0.0
C1326 C 0.39553 0.04739 0.61344 0.0
C1327 C 0.31803 0.16813 0.59273 0.0
C1328 C 0.46395 0.28414 0.57519 0.0
C1329 C 0.50421 0.34149 0.57386 0.0
C1330 C 0.49297 0.3421 0.56142 0.0
C1331 C 0.4535 0.28561 0.56274 0.0
C1332 C 0.48959 0.31218 0.5807 0.0
C1333 C 0.46792 0.31441 0.55593 0.0
C1334 C 0.3682 0.1794 0.61696 0.0
C1335 C 0.44802 0.25399 0.58272 0.0
H1336 H 0.16304 0.0467 0.61202 0.0
H1337 H 0.26496 0.10482 0.61382 0.0
H1338 H 0.21122 0.0947 0.61977 0.0
H1339 H 0.22271 0.02011 0.59021 0.0
H1340 H 0.50391 0.364 0.55582 0.0
H1341 H 0.43428 0.26458 0.55823 0.0
H1342 H 0.49775 0.31129 0.59034 0.0
H1343 H 0.45968 0.31526 0.54632 0.0
Tb1344 Tb 0.94356 0.24469 0.60236 0.0
C1345 C 0.82489 0.13977 0.57346 0.0
N1346 N 0.84337 0.17116 0.57019 0.0
C1347 C 0.84458 0.15628 0.54824 0.0
C1348 C 0.81599 0.11527 0.56424 0.0
C1349 C 0.85302 0.17975 0.55774 0.0
C1350 C 0.82608 0.12389 0.5515 0.0
C1351 C 0.7966 0.10005 0.59001 0.0
C1352 C 0.81583 0.13234 0.58624 0.0
C1353 C 0.78791 0.07547 0.5809 0.0
C1354 C 0.7976 0.08307 0.56805 0.0
Tb1355 Tb 0.85544 0.20738 0.58644 0.0
N1356 N 0.82525 0.15679 0.59487 0.0
C1357 C 0.78597 0.09344 0.60275 0.0
C1358 C 0.81214 0.15039 0.60692 0.0
C1359 C 0.7932 0.11876 0.61116 0.0
H1360 H 0.86677 0.20471 0.55505 0.0
H1361 H 0.78358 0.11396 0.62083 0.0
H1362 H 0.93758 0.23178 0.63393 0.0
H1363 H 1.00073 0.35313 0.57387 0.0
H1364 H 0.81495 0.16931 0.61325 0.0
H1365 H 0.77108 0.06897 0.60603 0.0
H1366 H 0.97167 0.29497 0.57731 0.0
H1367 H 0.85226 0.16319 0.53839 0.0
H1368 H 0.77336 0.05053 0.58365 0.0
H1369 H 0.79062 0.06387 0.56112 0.0
H1370 H 0.95358 0.26473 0.65372 0.0
H1371 H 0.81969 0.10577 0.54413 0.0
H1372 H 0.01822 0.38998 0.59255 0.0
N1373 N 0.95729 0.27202 0.62135 0.0
C1374 C 0.97426 0.3045 0.6203 0.0
C1375 C 0.95943 0.27621 0.64438 0.0
C1376 C 0.98407 0.32422 0.63132 0.0
C1377 C 0.95011 0.25763 0.63316 0.0
C1378 C 0.97633 0.30964 0.64346 0.0
N1379 N 0.9704 0.29818 0.59767 0.0
C1380 C 0.97807 0.31042 0.58552 0.0
C1381 C 0.99852 0.35162 0.60659 0.0
C1382 C 0.98138 0.31804 0.60808 0.0
C1383 C 1.00511 0.3643 0.59412 0.0
C1384 C 0.9951 0.34358 0.58355 0.0
H1385 H 0.98341 0.32396 0.65217 0.0
H1386 H 1.00879 0.37329 0.63824 0.0
H1387 H 0.02144 0.39725 0.61659 0.0
O1388 O 0.98194 0.24401 0.59292 0.0
O1389 O 0.9192 0.27344 0.60356 0.0
O1390 O 0.8884 0.25845 0.58534 0.0
O1391 O 0.97865 0.24212 0.61352 0.0
O1392 O 0.93898 0.23503 0.58161 0.0
O1393 O 0.89604 0.23926 0.57363 0.0
O1394 O 0.81547 0.21182 0.59273 0.0
O1395 O 0.88173 0.18155 0.58422 0.0
O1396 O 0.91128 0.19255 0.60282 0.0
O1397 O 0.82391 0.20754 0.57264 0.0
O1398 O 0.86133 0.21791 0.60762 0.0
O1399 O 0.90321 0.21027 0.61388 0.0
C1400 C 0.90071 0.27736 0.59527 0.0
C1401 C 0.99918 0.21228 0.60363 0.0
C1402 C 0.03339 0.18957 0.59891 0.0
C1403 C 1.00881 0.1595 0.60316 0.0
C1404 C 0.9754 0.18227 0.60817 0.0
C1405 C 0.98009 0.15599 0.60782 0.0
C1406 C 0.0283 0.21595 0.59909 0.0
C1407 C 0.92345 0.23924 0.57206 0.0
C1408 C 0.99352 0.23963 0.60356 0.0
C1409 C 1.00111 0.35772 0.62988 0.0
C1410 C 1.00832 0.37138 0.61755 0.0
C1411 C 0.8965 0.174 0.5929 0.0
C1412 C 0.78183 0.21905 0.57689 0.0
C1413 C 0.72896 0.21456 0.57866 0.0
C1414 C 0.73485 0.23179 0.56714 0.0
C1415 C 0.78708 0.23635 0.56538 0.0
C1416 C 0.75247 0.20799 0.5835 0.0
C1417 C 0.76365 0.24253 0.56055 0.0
C1418 C 0.87779 0.21254 0.61658 0.0
C1419 C 0.80456 0.20852 0.58104 0.0
H1420 H 0.01219 0.13888 0.60329 0.0
H1421 H 0.95334 0.17929 0.61211 0.0
H1422 H 0.96163 0.13294 0.61136 0.0
H1423 H 0.0469 0.2392 0.59572 0.0
H1424 H 0.71688 0.23661 0.56315 0.0
H1425 H 0.80898 0.24446 0.55994 0.0
H1426 H 0.74774 0.19395 0.59221 0.0
H1427 H 0.76767 0.25541 0.55158 0.0
Tb1428 Tb 0.81941 0.72541 0.60088 0.0
C1429 C 0.91256 0.69046 0.57231 0.0
N1430 N 0.88095 0.68036 0.57048 0.0
C1431 C 0.88937 0.68688 0.54764 0.0
C1432 C 0.93403 0.70003 0.56185 0.0
C1433 C 0.86903 0.67787 0.55832 0.0
C1434 C 0.92204 0.69816 0.54941 0.0
C1435 C 0.95636 0.70345 0.58711 0.0
C1436 C 0.92352 0.69217 0.58481 0.0
C1437 C 0.97787 0.71316 0.57673 0.0
C1438 C 0.96673 0.71139 0.56412 0.0
Tb1439 Tb 0.8498 0.66513 0.58856 0.0
N1440 N 0.90201 0.68281 0.59465 0.0
C1441 C 0.9666 0.70439 0.59978 0.0
C1442 C 0.91181 0.68204 0.60696 0.0
C1443 C 0.94417 0.69332 0.60971 0.0
H1444 H 0.8437 0.66797 0.55668 0.0
H1445 H 0.95171 0.69295 0.6195 0.0
H1446 H 0.81974 0.71583 0.63304 0.0
H1447 H 0.72694 0.71812 0.56962 0.0
H1448 H 0.89505 0.67187 0.61475 0.0
H1449 H 0.99161 0.71292 0.60195 0.0
H1450 H 0.78243 0.73393 0.5759 0.0
H1451 H 0.87977 0.68482 0.53804 0.0
H1452 H 1.00317 0.72194 0.57833 0.0
H1453 H 0.9836 0.71892 0.55621 0.0
H1454 H 0.78 0.68943 0.65009 0.0
H1455 H 0.93774 0.70519 0.54111 0.0
H1456 H 0.68262 0.68954 0.58521 0.0
N1457 N 0.78529 0.7039 0.61809 0.0
C1458 C 0.75385 0.69352 0.61552 0.0
C1459 C 0.77221 0.68979 0.64034 0.0
C1460 C 0.73019 0.67954 0.62514 0.0
C1461 C 0.79481 0.70391 0.63049 0.0
C1462 C 0.73968 0.67702 0.63761 0.0
N1463 N 0.76922 0.71238 0.59436 0.0
C1464 C 0.76311 0.72052 0.58256 0.0
C1465 C 0.71367 0.68936 0.60027 0.0
C1466 C 0.7456 0.69839 0.60329 0.0
C1467 C 0.70686 0.69603 0.58792 0.0
C1468 C 0.73178 0.71204 0.57907 0.0
H1469 H 0.72226 0.66647 0.6453 0.0
H1470 H 0.67951 0.65851 0.62936 0.0
H1471 H 0.66505 0.66708 0.60756 0.0
O1472 O 0.83357 0.77034 0.5925 0.0
O1473 O 0.78324 0.67671 0.59443 0.0
O1474 O 0.80974 0.65233 0.60141 0.0
O1475 O 0.82377 0.76253 0.61278 0.0
O1476 O 0.8313 0.72634 0.58054 0.0
O1477 O 0.81846 0.67441 0.5752 0.0
O1478 O 0.85603 0.62589 0.59273 0.0
O1479 O 0.87978 0.71626 0.58407 0.0
O1480 O 0.86982 0.73829 0.60167 0.0
O1481 O 0.82302 0.62222 0.57801 0.0
O1482 O 0.84591 0.66802 0.60998 0.0
O1483 O 0.84935 0.7171 0.61458 0.0
C1484 C 0.7832 0.65031 0.59746 0.0
C1485 C 0.81412 0.80065 0.6028 0.0
C1486 C 0.81576 0.85101 0.59879 0.0
C1487 C 0.78307 0.83657 0.60187 0.0
C1488 C 0.78153 0.78646 0.60606 0.0
C1489 C 0.76608 0.8044 0.60554 0.0
C1490 C 0.83124 0.83302 0.59927 0.0
C1491 C 0.82015 0.70224 0.57236 0.0
C1492 C 0.83105 0.78255 0.6033 0.0
C1493 C 0.69806 0.66949 0.62211 0.0
C1494 C 0.68982 0.67443 0.6097 0.0
C1495 C 0.88793 0.74051 0.59188 0.0
C1496 C 0.84807 0.59024 0.57578 0.0
C1497 C 0.86136 0.54746 0.57393 0.0
C1498 C 0.86919 0.55566 0.56092 0.0
C1499 C 0.85566 0.59758 0.56273 0.0
C1500 C 0.85122 0.56524 0.58138 0.0
C1501 C 0.86644 0.58058 0.55541 0.0
C1502 C 0.8517 0.69191 0.61801 0.0
C1503 C 0.83662 0.60798 0.58373 0.0
H1504 H 0.7709 0.85035 0.60161 0.0
H1505 H 0.76814 0.76174 0.60912 0.0
H1506 H 0.74097 0.79342 0.60808 0.0
H1507 H 0.85653 0.84422 0.5969 0.0
H1508 H 0.8775 0.54277 0.555 0.0
H1509 H 0.85303 0.6162 0.55813 0.0
H1510 H 0.84504 0.55915 0.59142 0.0
H1511 H 0.87242 0.58656 0.54537 0.0
H1512 H 0.45589 0.91703 0.11881 0.0
H1513 H 0.45943 0.86802 0.12143 0.0
H1514 H 0.556 0.91804 0.10654 0.0
H1515 H 0.55166 0.96606 0.10336 0.0
H1516 H 0.47459 0.8349 0.10188 0.0
H1517 H 0.56396 0.87982 0.14145 0.0
H1518 H 0.53986 0.89777 0.13748 0.0
H1519 H 0.57464 0.9068 0.12804 0.0
C1520 C 0.47777 0.91732 0.11612 0.0
C1521 C 0.50409 0.94544 0.11136 0.0
C1522 C 0.47984 0.88953 0.11767 0.0
C1523 C 0.50838 0.88981 0.1146 0.0
C1524 C 0.5342 0.91769 0.10942 0.0
H1525 H 0.59394 0.78134 0.09907 0.0
H1526 H 0.5798 0.82009 0.1074 0.0
C1527 C 0.53192 0.94519 0.10772 0.0
C1528 C 0.51104 0.86069 0.11611 0.0
H1529 H 0.55778 0.83394 0.12982 0.0
C1530 C 0.49223 0.83424 0.10819 0.0
C1531 C 0.53412 0.86012 0.12436 0.0
C1532 C 0.55413 0.88752 0.13341 0.0
C1533 C 0.49746 0.8081 0.1076 0.0
C1534 C 0.5216 0.80811 0.11543 0.0
C1535 C 0.53918 0.83385 0.12389 0.0
C1536 C 0.53212 0.78425 0.11348 0.0
C1537 C 0.47869 0.78185 0.09791 0.0
C1538 C 0.51077 0.75117 0.1149 0.0
C1539 C 0.51893 0.72895 0.11015 0.0
C1540 C 0.54859 0.7397 0.10404 0.0
C1541 C 0.57102 0.77262 0.10381 0.0
C1542 C 0.56289 0.79472 0.10853 0.0
H1543 H 0.46512 0.78838 0.09108 0.0
H1544 H 0.49494 0.77633 0.09228 0.0
H1545 H 0.46123 0.75973 0.10304 0.0
H1546 H 0.48711 0.74259 0.11892 0.0
H1547 H 0.50121 0.70363 0.11032 0.0
H1548 H 0.35694 0.79576 0.10874 0.0
H1549 H 0.30687 0.74626 0.11305 0.0
H1550 H 0.25503 0.79766 0.11097 0.0
H1551 H 0.30438 0.84668 0.10557 0.0
H1552 H 0.25969 0.7249 0.13094 0.0
H1553 H 0.21195 0.73184 0.08306 0.0
H1554 H 0.25309 0.75834 0.08766 0.0
H1555 H 0.22194 0.76564 0.09325 0.0
C1556 C 0.33489 0.79658 0.10906 0.0
C1557 C 0.33478 0.82522 0.10645 0.0
C1558 C 0.30632 0.76829 0.11171 0.0
C1559 C 0.27713 0.76813 0.11199 0.0
C1560 C 0.2772 0.79709 0.11044 0.0
H1561 H 0.09173 0.59875 0.13025 0.0
H1562 H 0.14034 0.65146 0.13134 0.0
C1563 C 0.30564 0.82527 0.10753 0.0
C1564 C 0.24653 0.7373 0.11291 0.0
H1565 H 0.17745 0.68885 0.09644 0.0
C1566 C 0.2416 0.71705 0.12344 0.0
C1567 C 0.22321 0.72693 0.103 0.0
C1568 C 0.22786 0.74665 0.09105 0.0
C1569 C 0.21398 0.68661 0.12429 0.0
C1570 C 0.19061 0.67653 0.11445 0.0
C1571 C 0.19539 0.69687 0.10401 0.0
C1572 C 0.1618 0.64423 0.1143 0.0
C1573 C 0.21048 0.66499 0.13542 0.0
C1574 C 0.15767 0.62296 0.1043 0.0
C1575 C 0.1298 0.5931 0.10354 0.0
C1576 C 0.1054 0.58396 0.11276 0.0
C1577 C 0.10983 0.60516 0.12291 0.0
C1578 C 0.13775 0.63516 0.12363 0.0
H1579 H 0.23321 0.67402 0.14092 0.0
H1580 H 0.19179 0.66351 0.14209 0.0
H1581 H 0.20275 0.64036 0.13195 0.0
H1582 H 0.17598 0.6296 0.097 0.0
H1583 H 0.12731 0.57733 0.09563 0.0
H1584 H 0.24101 0.50888 0.08618 0.0
H1585 H 0.29762 0.53129 0.09207 0.0
H1586 H 0.27205 0.51911 0.13229 0.0
H1587 H 0.21529 0.49717 0.12641 0.0
H1588 H 0.34113 0.58497 0.1131 0.0
H1589 H 0.31124 0.45804 0.12015 0.0
H1590 H 0.28693 0.46798 0.11005 0.0
H1591 H 0.28586 0.47157 0.12719 0.0
C1592 C 0.24768 0.51159 0.09626 0.0
C1593 C 0.22417 0.50112 0.10588 0.0
C1594 C 0.27984 0.52452 0.09961 0.0
C1595 C 0.28871 0.52669 0.11258 0.0
C1596 C 0.26545 0.5177 0.12223 0.0
H1597 H 0.46901 0.53775 0.1341 0.0
H1598 H 0.41707 0.53471 0.1362 0.0
C1599 C 0.23324 0.50515 0.11889 0.0
C1600 C 0.32149 0.53421 0.11575 0.0
H1601 H 0.36552 0.4976 0.12061 0.0
C1602 C 0.34658 0.56605 0.11496 0.0
C1603 C 0.3282 0.50932 0.11818 0.0
C1604 C 0.30179 0.47472 0.11893 0.0
C1605 C 0.37862 0.57355 0.11617 0.0
C1606 C 0.3854 0.54842 0.1179 0.0
C1607 C 0.36016 0.51678 0.11927 0.0
C1608 C 0.4183 0.55378 0.11722 0.0
C1609 C 0.40492 0.60816 0.11541 0.0
C1610 C 0.43609 0.56548 0.10584 0.0
C1611 C 0.46555 0.56681 0.10453 0.0
C1612 C 0.47749 0.55614 0.11455 0.0
C1613 C 0.46009 0.54544 0.1261 0.0
C1614 C 0.43059 0.544 0.12738 0.0
H1615 H 0.39603 0.62462 0.11819 0.0
H1616 H 0.42544 0.61284 0.12173 0.0
H1617 H 0.41374 0.61382 0.10535 0.0
H1618 H 0.42662 0.57244 0.09778 0.0
H1619 H 0.47842 0.57525 0.09552 0.0
H1620 H 0.96527 0.52447 0.90332 0.0
H1621 H 0.9188 0.53214 0.90178 0.0
H1622 H 0.8929 0.49908 0.94084 0.0
H1623 H 0.93978 0.49229 0.94266 0.0
H1624 H 0.84262 0.46983 0.91766 0.0
H1625 H 0.90726 0.60239 0.92515 0.0
H1626 H 0.92397 0.58425 0.91485 0.0
H1627 H 0.92255 0.57807 0.93188 0.0
C1628 C 0.94997 0.51928 0.91165 0.0
C1629 C 0.95653 0.50834 0.92319 0.0
C1630 C 0.92338 0.52348 0.9107 0.0
C1631 C 0.90279 0.51637 0.92123 0.0
C1632 C 0.90879 0.5048 0.93265 0.0
H1633 H 0.74599 0.52069 0.95226 0.0
H1634 H 0.79582 0.52201 0.94622 0.0
C1635 C 0.93549 0.50087 0.93365 0.0
C1636 C 0.87453 0.52042 0.92041 0.0
H1637 H 0.85062 0.57541 0.92516 0.0
C1638 C 0.84429 0.49294 0.91904 0.0
C1639 C 0.87712 0.5507 0.92218 0.0
C1640 C 0.90939 0.5807 0.92362 0.0
C1641 C 0.81625 0.4948 0.91996 0.0
C1642 C 0.81875 0.5248 0.92241 0.0
C1643 C 0.84902 0.55252 0.92322 0.0
C1644 C 0.79018 0.52682 0.92582 0.0
C1645 C 0.78402 0.46459 0.91895 0.0
C1646 C 0.77101 0.52949 0.9163 0.0
C1647 C 0.74265 0.52892 0.91974 0.0
C1648 C 0.73312 0.52523 0.9327 0.0
C1649 C 0.75274 0.52315 0.9422 0.0
C1650 C 0.78116 0.5241 0.93878 0.0
H1651 H 0.78619 0.4433 0.9165 0.0
H1652 H 0.77107 0.46007 0.92824 0.0
H1653 H 0.76926 0.46761 0.91147 0.0
H1654 H 0.77768 0.53141 0.90624 0.0
H1655 H 0.72775 0.53051 0.91228 0.0
H1656 H 0.56841 0.25389 0.94267 0.0
H1657 H 0.57663 0.30475 0.93408 0.0
H1658 H 0.48456 0.25471 0.91517 0.0
H1659 H 0.47624 0.2036 0.92386 0.0
H1660 H 0.57294 0.33255 0.90955 0.0
H1661 H 0.47555 0.30955 0.94427 0.0
H1662 H 0.49536 0.28617 0.94424 0.0
H1663 H 0.46625 0.2797 0.93205 0.0
C1664 C 0.55053 0.25366 0.93625 0.0
C1665 C 0.52164 0.22504 0.93396 0.0
C1666 C 0.55522 0.28268 0.93136 0.0
C1667 C 0.53095 0.28352 0.9242 0.0
C1668 C 0.50343 0.25454 0.92079 0.0
H1669 H 0.53961 0.46576 0.90469 0.0
H1670 H 0.53143 0.41143 0.90288 0.0
C1671 C 0.49878 0.22538 0.92566 0.0
C1672 C 0.5324 0.31472 0.92231 0.0
H1673 H 0.50159 0.35979 0.93425 0.0
C1674 C 0.55702 0.33841 0.91474 0.0
C1675 C 0.51194 0.32241 0.92933 0.0
C1676 C 0.48589 0.29831 0.93802 0.0
C1677 C 0.56198 0.36976 0.91419 0.0
C1678 C 0.54186 0.37746 0.92141 0.0
C1679 C 0.51685 0.35364 0.92871 0.0
C1680 C 0.5476 0.41059 0.92223 0.0
C1681 C 0.58944 0.39487 0.90637 0.0
C1682 C 0.55897 0.42784 0.93377 0.0
C1683 C 0.56334 0.45869 0.93489 0.0
C1684 C 0.55628 0.47278 0.92449 0.0
C1685 C 0.54494 0.45543 0.91292 0.0
C1686 C 0.54056 0.42454 0.91181 0.0
H1687 H 0.60471 0.38579 0.90229 0.0
H1688 H 0.57983 0.40274 0.89832 0.0
H1689 H 0.60459 0.41624 0.91243 0.0
H1690 H 0.5643 0.41732 0.94195 0.0
H1691 H 0.57165 0.47122 0.94397 0.0
H1692 H 0.59175 0.10476 0.90269 0.0
H1693 H 0.64533 0.15143 0.90002 0.0
H1694 H 0.65204 0.16713 0.94109 0.0
H1695 H 0.59821 0.12083 0.94379 0.0
H1696 H 0.6708 0.22205 0.92732 0.0
H1697 H 0.73021 0.15671 0.90836 0.0
H1698 H 0.69488 0.15028 0.89992 0.0
H1699 H 0.69168 0.13663 0.91623 0.0
C1700 C 0.60474 0.11815 0.91115 0.0
C1701 C 0.59096 0.10922 0.92346 0.0
C1702 C 0.63537 0.14467 0.90961 0.0
C1703 C 0.65281 0.16241 0.92037 0.0
C1704 C 0.63892 0.1537 0.93266 0.0
H1705 H 0.83846 0.28116 0.94475 0.0
H1706 H 0.78915 0.23779 0.93542 0.0
C1707 C 0.60818 0.12736 0.93419 0.0
C1708 C 0.68537 0.19049 0.91897 0.0
H1709 H 0.76255 0.21238 0.91122 0.0
C1710 C 0.69084 0.22012 0.92364 0.0
C1711 C 0.71134 0.18772 0.91413 0.0
C1712 C 0.70698 0.15613 0.90944 0.0
C1713 C 0.72185 0.24673 0.92427 0.0
C1714 C 0.74799 0.24379 0.91975 0.0
C1715 C 0.74234 0.21459 0.91447 0.0
C1716 C 0.7814 0.26875 0.92262 0.0
C1717 C 0.72657 0.27706 0.93059 0.0
C1718 C 0.7943 0.30018 0.91794 0.0
C1719 C 0.82258 0.32501 0.92328 0.0
C1720 C 0.83808 0.3184 0.93326 0.0
C1721 C 0.82678 0.28659 0.93703 0.0
C1722 C 0.79869 0.2619 0.9317 0.0
H1723 H 0.70437 0.27356 0.93533 0.0
H1724 H 0.74593 0.2857 0.93793 0.0
H1725 H 0.73371 0.29606 0.9232 0.0
H1726 H 0.78144 0.3058 0.9108 0.0
H1727 H 0.83093 0.34951 0.92033 0.0
H1728 H 0.25873 0.09885 0.45707 0.0
H1729 H 0.23881 0.13476 0.46357 0.0
H1730 H 0.1744 0.10287 0.43098 0.0
H1731 H 0.19395 0.06657 0.42467 0.0
H1732 H 0.24768 0.18336 0.44779 0.0
H1733 H 0.11857 0.10846 0.45919 0.0
H1734 H 0.14555 0.0926 0.45892 0.0
H1735 H 0.12883 0.09749 0.44416 0.0
C1736 C 0.23969 0.09901 0.45156 0.0
C1737 C 0.22774 0.08027 0.44042 0.0
C1738 C 0.22833 0.11937 0.45525 0.0
C1739 C 0.20493 0.12122 0.44783 0.0
C1740 C 0.1919 0.10126 0.43702 0.0
H1741 H 0.15675 0.26212 0.42798 0.0
H1742 H 0.16354 0.21529 0.43033 0.0
C1743 C 0.20319 0.08078 0.43335 0.0
C1744 C 0.19792 0.14737 0.45012 0.0
H1745 H 0.13687 0.16352 0.45336 0.0
C1746 C 0.22353 0.17903 0.44927 0.0
C1747 C 0.1664 0.14161 0.45204 0.0
C1748 C 0.13831 0.10818 0.45376 0.0
C1749 C 0.21826 0.20506 0.44966 0.0
C1750 C 0.18661 0.19919 0.45095 0.0
C1751 C 0.16108 0.16771 0.45228 0.0
C1752 C 0.17969 0.2256 0.4501 0.0
C1753 C 0.24632 0.23867 0.44824 0.0
C1754 C 0.1861 0.24634 0.46054 0.0
C1755 C 0.18201 0.2729 0.45927 0.0
C1756 C 0.17196 0.27932 0.44748 0.0
C1757 C 0.16462 0.25786 0.43717 0.0
C1758 C 0.16845 0.23114 0.43848 0.0
H1759 H 0.26914 0.23897 0.44629 0.0
H1760 H 0.24177 0.25133 0.4403 0.0
H1761 H 0.24917 0.25227 0.45725 0.0
H1762 H 0.19473 0.24224 0.46957 0.0
H1763 H 0.18698 0.28852 0.46749 0.0
H1764 H 0.01561 0.14662 0.44243 0.0
H1765 H 0.97264 0.0951 0.45063 0.0
H1766 H 0.90363 0.12542 0.44334 0.0
H1767 H 0.94663 0.17704 0.43536 0.0
H1768 H 0.8875 0.08294 0.4648 0.0
H1769 H 0.91719 0.0385 0.42048 0.0
H1770 H 0.94967 0.05814 0.43176 0.0
H1771 H 0.93394 0.08059 0.42388 0.0
C1772 C 0.99148 0.14275 0.44318 0.0
C1773 C 0.98421 0.16558 0.43834 0.0
C1774 C 0.96695 0.11329 0.44774 0.0
C1775 C 0.93489 0.10624 0.44732 0.0
C1776 C 0.92817 0.13036 0.44372 0.0
H1777 H 0.77224 0.92417 0.42724 0.0
H1778 H 0.81652 0.97957 0.42865 0.0
C1779 C 0.9527 0.15983 0.43921 0.0
C1780 C 0.9082 0.07267 0.44843 0.0
H1781 H 0.87511 1.00034 0.43314 0.0
C1782 C 0.88474 0.06473 0.45794 0.0
C1783 C 0.90433 0.04927 0.43926 0.0
C1784 C 0.9274 0.05698 0.42819 0.0
C1785 C 0.85734 0.03396 0.45848 0.0
C1786 C 0.85382 0.01031 0.44944 0.0
C1787 C 0.87766 0.01832 0.44008 0.0
C1788 C 0.82523 0.97745 0.44902 0.0
C1789 C 0.83199 0.02771 0.46841 0.0
C1790 C 0.81494 0.95775 0.46 0.0
C1791 C 0.7889 0.92645 0.45926 0.0
C1792 C 0.7737 0.91394 0.44742 0.0
C1793 C 0.78401 0.93334 0.43643 0.0
C1794 C 0.80925 0.96494 0.43726 0.0
H1795 H 0.83342 0.05034 0.4717 0.0
H1796 H 0.80754 0.01163 0.46457 0.0
H1797 H 0.83574 0.01614 0.47695 0.0
H1798 H 0.82737 0.96625 0.46909 0.0
H1799 H 0.78125 0.91169 0.46783 0.0
H1800 H 0.14933 0.8975 0.4657 0.0
H1801 H 0.09639 0.89354 0.46676 0.0
H1802 H 0.07475 0.85309 0.42851 0.0
H1803 H 0.12792 0.85787 0.4273 0.0
H1804 H 0.06887 0.91246 0.43483 0.0
H1805 H 1.00334 0.80743 0.46748 0.0
H1806 H 0.04478 0.83647 0.47073 0.0
H1807 H 0.03475 0.81104 0.45689 0.0
C1808 C 0.13301 0.88752 0.45761 0.0
C1809 C 0.14238 0.87824 0.44638 0.0
C1810 C 0.10295 0.88519 0.45823 0.0
C1811 C 0.08184 0.87289 0.44773 0.0
C1812 C 0.0909 0.86274 0.43666 0.0
H1813 H 0.88702 0.82264 0.43297 0.0
H1814 H 0.93724 0.82305 0.43718 0.0
C1815 C 0.12113 0.86558 0.43596 0.0
C1816 C 0.05111 0.87254 0.44789 0.0
H1817 H 0.97479 0.83197 0.45963 0.0
C1818 C 0.0483 0.89505 0.4403 0.0
C1819 C 0.02454 0.8496 0.455 0.0
C1820 C 0.02667 0.82459 0.46299 0.0
C1821 C 0.01928 0.89505 0.43951 0.0
C1822 C 0.99258 0.87217 0.44666 0.0
C1823 C 0.99545 0.84967 0.45429 0.0
C1824 C 0.96113 0.8704 0.44572 0.0
C1825 C 0.01718 0.91891 0.43072 0.0
C1826 C 0.9577 0.89647 0.44953 0.0
C1827 C 0.92915 0.89638 0.44708 0.0
C1828 C 0.90347 0.87005 0.44092 0.0
C1829 C 0.90638 0.84322 0.43777 0.0
C1830 C 0.93502 0.84341 0.44016 0.0
H1831 H 0.03742 0.92975 0.42378 0.0
H1832 H 0.99431 0.90738 0.42522 0.0
H1833 H 0.01799 0.93856 0.43659 0.0
H1834 H 0.97743 0.91725 0.45407 0.0
H1835 H 0.92731 0.91709 0.44984 0.0
H1836 H 0.42886 0.88009 0.288 0.0
H1837 H 0.46426 0.85999 0.28111 0.0
H1838 H 0.44666 0.87233 0.24138 0.0
H1839 H 0.41065 0.89204 0.24827 0.0
H1840 H 0.453 0.80697 0.26028 0.0
H1841 H 0.54791 0.93373 0.25106 0.0
H1842 H 0.51475 0.92424 0.26173 0.0
H1843 H 0.50807 0.91899 0.24471 0.0
C1844 C 0.43226 0.87808 0.27781 0.0
C1845 C 0.41752 0.88789 0.26864 0.0
C1846 C 0.45223 0.86646 0.27389 0.0
C1847 C 0.45806 0.86489 0.26077 0.0
C1848 C 0.4423 0.87337 0.25155 0.0
H1849 H 0.6283 0.8557 0.2379 0.0
H1850 H 0.57969 0.85945 0.23603 0.0
C1851 C 0.42189 0.88461 0.25548 0.0
C1852 C 0.48324 0.85761 0.25699 0.0
H1853 H 0.56345 0.89478 0.25083 0.0
C1854 C 0.47705 0.826 0.25798 0.0
C1855 C 0.51442 0.88254 0.25392 0.0
C1856 C 0.522 0.91688 0.2528 0.0
C1857 C 0.50174 0.81882 0.25643 0.0
C1858 C 0.53344 0.8441 0.25424 0.0
C1859 C 0.53917 0.87546 0.25257 0.0
C1860 C 0.56142 0.83922 0.25483 0.0
C1861 C 0.49371 0.78432 0.25734 0.0
C1862 C 0.56738 0.82679 0.26605 0.0
C1863 C 0.59523 0.82485 0.26719 0.0
C1864 C 0.6179 0.8357 0.25719 0.0
C1865 C 0.61159 0.84758 0.24586 0.0
C1866 C 0.58371 0.84955 0.24473 0.0
H1867 H 0.46849 0.76771 0.25439 0.0
H1868 H 0.50988 0.77969 0.25123 0.0
H1869 H 0.49638 0.77876 0.26748 0.0
H1870 H 0.55096 0.81948 0.27411 0.0
H1871 H 0.5993 0.81555 0.27605 0.0
H1872 H 0.20376 0.79597 0.23547 0.0
H1873 H 0.19567 0.74172 0.23363 0.0
H1874 H 0.22692 0.74692 0.27292 0.0
H1875 H 0.2342 0.80071 0.27498 0.0
H1876 H 0.24082 0.71772 0.23873 0.0
H1877 H 0.13437 0.66672 0.2708 0.0
H1878 H 0.14987 0.70523 0.26304 0.0
H1879 H 0.16922 0.70133 0.27717 0.0
C1880 C 0.20871 0.78549 0.24374 0.0
C1881 C 0.21886 0.80232 0.25547 0.0
C1882 C 0.20438 0.75465 0.24262 0.0
C1883 C 0.21031 0.74029 0.25319 0.0
C1884 C 0.22181 0.75754 0.26472 0.0
H1885 H 0.23441 0.58687 0.27348 0.0
H1886 H 0.24156 0.63594 0.26345 0.0
C1887 C 0.22603 0.78829 0.26586 0.0
C1888 C 0.20324 0.70674 0.25247 0.0
H1889 H 0.15708 0.63372 0.26645 0.0
C1890 C 0.22224 0.69915 0.24463 0.0
C1891 C 0.17858 0.68256 0.25999 0.0
C1892 C 0.1566 0.68919 0.26814 0.0
C1893 C 0.21838 0.66822 0.24474 0.0
C1894 C 0.19506 0.64461 0.25291 0.0
C1895 C 0.17492 0.65184 0.26016 0.0
C1896 C 0.19356 0.61367 0.25551 0.0
C1897 C 0.23964 0.66119 0.23634 0.0
C1898 C 0.16454 0.58462 0.25401 0.0
C1899 C 0.1605 0.55651 0.25972 0.0
C1900 C 0.18527 0.55736 0.26714 0.0
C1901 C 0.21504 0.5858 0.26778 0.0
C1902 C 0.21919 0.61374 0.26197 0.0
H1903 H 0.24928 0.67804 0.22808 0.0
H1904 H 0.26027 0.66393 0.24212 0.0
H1905 H 0.22639 0.63623 0.23261 0.0
H1906 H 0.1444 0.58418 0.24915 0.0
H1907 H 0.1373 0.53481 0.25918 0.0
H1908 H 0.51879 0.61599 0.26638 0.0
H1909 H 0.46799 0.5719 0.25817 0.0
H1910 H 0.43171 0.63697 0.25353 0.0
H1911 H 0.48248 0.68104 0.26183 0.0
H1912 H 0.41278 0.56572 0.27486 0.0
H1913 H 0.39406 0.56817 0.22203 0.0
H1914 H 0.43343 0.5823 0.22891 0.0
H1915 H 0.41406 0.60555 0.23079 0.0
C1916 C 0.50058 0.62113 0.26294 0.0
C1917 C 0.50444 0.65177 0.26457 0.0
C1918 C 0.47158 0.59598 0.25831 0.0
C1919 C 0.44623 0.60128 0.2552 0.0
C1920 C 0.45119 0.63255 0.25567 0.0
H1921 H 0.23927 0.47091 0.24793 0.0
H1922 H 0.29356 0.5179 0.24693 0.0
C1923 C 0.48016 0.65769 0.26037 0.0
C1924 C 0.41319 0.57371 0.25447 0.0
H1925 H 0.35004 0.52981 0.23429 0.0
C1926 C 0.39908 0.55774 0.26598 0.0
C1927 C 0.39534 0.56396 0.24292 0.0
C1928 C 0.40983 0.58069 0.23039 0.0
C1929 C 0.36747 0.53214 0.2663 0.0
C1930 C 0.34972 0.52157 0.25469 0.0
C1931 C 0.36371 0.53786 0.24316 0.0
C1932 C 0.31706 0.49299 0.25444 0.0
C1933 C 0.35326 0.51709 0.27916 0.0
C1934 C 0.31235 0.46345 0.25884 0.0
C1935 C 0.28154 0.43706 0.25976 0.0
C1936 C 0.25466 0.43907 0.2558 0.0
C1937 C 0.25944 0.46849 0.25104 0.0
C1938 C 0.29043 0.49527 0.25037 0.0
H1939 H 0.36587 0.53388 0.28724 0.0
H1940 H 0.32739 0.50952 0.27965 0.0
H1941 H 0.3558 0.49564 0.28057 0.0
H1942 H 0.33253 0.46095 0.26186 0.0
H1943 H 0.27887 0.4153 0.26389 0.0
H1944 H 0.79587 0.58422 0.77158 0.0
H1945 H 0.79777 0.53475 0.77377 0.0
H1946 H 0.88563 0.58558 0.79559 0.0
H1947 H 0.88223 0.63398 0.79435 0.0
H1948 H 0.83927 0.5229 0.76423 0.0
H1949 H 0.84339 0.50787 0.81684 0.0
H1950 H 0.83412 0.53669 0.80998 0.0
H1951 H 0.87522 0.54619 0.81176 0.0
C1952 C 0.81536 0.58476 0.77701 0.0
C1953 C 0.83932 0.61342 0.78259 0.0
C1954 C 0.81639 0.55641 0.77828 0.0
C1955 C 0.84164 0.55618 0.78499 0.0
C1956 C 0.86533 0.58468 0.7907 0.0
H1957 H 0.92354 0.43692 0.77439 0.0
H1958 H 0.91215 0.47769 0.78295 0.0
C1959 C 0.86375 0.61276 0.78976 0.0
C1960 C 0.84484 0.52707 0.78486 0.0
H1961 H 0.86038 0.4779 0.80357 0.0
C1962 C 0.84332 0.51283 0.77289 0.0
C1963 C 0.8504 0.51394 0.79614 0.0
C1964 C 0.85055 0.52682 0.8094 0.0
C1965 C 0.8478 0.48639 0.77183 0.0
C1966 C 0.85415 0.47387 0.78303 0.0
C1967 C 0.85549 0.48772 0.79504 0.0
C1968 C 0.8606 0.44709 0.78204 0.0
C1969 C 0.84633 0.47228 0.75868 0.0
C1970 C 0.83533 0.41608 0.77939 0.0
C1971 C 0.84181 0.39289 0.77453 0.0
C1972 C 0.87361 0.40054 0.77236 0.0
C1973 C 0.89889 0.43053 0.7762 0.0
C1974 C 0.8924 0.45374 0.78106 0.0
H1975 H 0.8446 0.48696 0.75081 0.0
H1976 H 0.86791 0.47004 0.75704 0.0
H1977 H 0.82501 0.44785 0.75814 0.0
H1978 H 0.81066 0.41072 0.78001 0.0
H1979 H 0.82206 0.36998 0.77143 0.0
H1980 H 0.6326 0.52009 0.7795 0.0
H1981 H 0.59082 0.46967 0.78906 0.0
H1982 H 0.63286 0.41887 0.77087 0.0
H1983 H 0.67437 0.46899 0.7614 0.0
H1984 H 0.54995 0.42235 0.77242 0.0
H1985 H 0.60467 0.37309 0.80542 0.0
H1986 H 0.62435 0.41507 0.80113 0.0
H1987 H 0.62624 0.38647 0.79054 0.0
C1988 C 0.63355 0.49831 0.77802 0.0
C1989 C 0.65645 0.49816 0.76973 0.0
C1990 C 0.60969 0.46957 0.78343 0.0
C1991 C 0.60882 0.44054 0.78073 0.0
C1992 C 0.63336 0.44099 0.7733 0.0
H1993 H 0.45894 0.25551 0.76057 0.0
H1994 H 0.50502 0.30982 0.76256 0.0
C1995 C 0.65696 0.46957 0.76783 0.0
C1996 C 0.57967 0.40941 0.78349 0.0
H1997 H 0.55468 0.33431 0.79523 0.0
C1998 C 0.55082 0.40332 0.77767 0.0
C1999 C 0.58078 0.3846 0.79034 0.0
C2000 C 0.61063 0.39022 0.79732 0.0
C2001 C 0.52363 0.37261 0.77784 0.0
C2002 C 0.52547 0.34733 0.78389 0.0
C2003 C 0.5536 0.35373 0.79042 0.0
C2004 C 0.49878 0.31388 0.78296 0.0
C2005 C 0.49338 0.36717 0.77123 0.0
C2006 C 0.48067 0.29804 0.79386 0.0
C2007 C 0.45445 0.267 0.79277 0.0
C2008 C 0.44592 0.25132 0.78076 0.0
C2009 C 0.46482 0.26692 0.76995 0.0
C2010 C 0.49102 0.29798 0.77105 0.0
H2011 H 0.49333 0.38999 0.76976 0.0
H2012 H 0.4915 0.35611 0.76166 0.0
H2013 H 0.47186 0.35055 0.7769 0.0
H2014 H 0.48641 0.30993 0.80314 0.0
H2015 H 0.44063 0.2554 0.80132 0.0
H2016 H 0.53867 0.13827 0.78275 0.0
H2017 H 0.59043 0.14992 0.79198 0.0
H2018 H 0.63867 0.23468 0.76834 0.0
H2019 H 0.58715 0.22301 0.75916 0.0
H2020 H 0.63462 0.14906 0.77581 0.0
H2021 H 0.69032 0.26516 0.80148 0.0
H2022 H 0.64777 0.24226 0.79818 0.0
H2023 H 0.67528 0.26788 0.78601 0.0
C2024 C 0.56027 0.16002 0.77994 0.0
C2025 C 0.55919 0.1797 0.77024 0.0
C2026 C 0.58977 0.16662 0.78518 0.0
C2027 C 0.61844 0.19324 0.78089 0.0
C2028 C 0.61692 0.21434 0.77197 0.0
H2029 H 0.80251 0.22774 0.76067 0.0
H2030 H 0.74871 0.22063 0.76301 0.0
C2031 C 0.58752 0.20759 0.76667 0.0
C2032 C 0.64987 0.1959 0.78377 0.0
H2033 H 0.72705 0.24943 0.7925 0.0
C2034 C 0.65462 0.17072 0.77975 0.0
C2035 C 0.67601 0.22415 0.7889 0.0
C2036 C 0.67202 0.25125 0.79401 0.0
C2037 C 0.68517 0.17384 0.78001 0.0
C2038 C 0.71156 0.20285 0.78433 0.0
C2039 C 0.70667 0.22735 0.78904 0.0
C2040 C 0.74459 0.20861 0.78323 0.0
C2041 C 0.68942 0.14661 0.77522 0.0
C2042 C 0.75998 0.20448 0.79389 0.0
C2043 C 0.79069 0.20856 0.7926 0.0
C2044 C 0.80639 0.2167 0.78061 0.0
C2045 C 0.79108 0.22147 0.77002 0.0
C2046 C 0.76037 0.21737 0.77133 0.0
H2047 H 0.6661 0.12426 0.77371 0.0
H2048 H 0.70262 0.15353 0.76595 0.0
H2049 H 0.70397 0.14172 0.78218 0.0
H2050 H 0.74807 0.19771 0.80315 0.0
H2051 H 0.80209 0.20526 0.80099 0.0
H2052 H 0.04443 0.15102 0.58297 0.0
H2053 H 0.09527 0.15207 0.57968 0.0
H2054 H 0.14387 0.23708 0.60321 0.0
H2055 H 0.09313 0.23641 0.6064 0.0
H2056 H 0.18095 0.23762 0.58237 0.0
H2057 H 0.12981 0.1235 0.60971 0.0
H2058 H 0.10692 0.12134 0.59571 0.0
H2059 H 0.11039 0.14719 0.60887 0.0
C2060 C 0.06605 0.17018 0.58729 0.0
C2061 C 0.06478 0.19336 0.5951 0.0
C2062 C 0.09504 0.17073 0.58542 0.0
C2063 C 0.12314 0.19418 0.59147 0.0
C2064 C 0.12239 0.21865 0.59853 0.0
H2065 H 0.28144 0.16707 0.61285 0.0
H2066 H 0.23594 0.17631 0.61228 0.0
C2067 C 0.09342 0.21829 0.60031 0.0
C2068 C 0.15253 0.19156 0.59138 0.0
H2069 H 0.1809 0.14225 0.60045 0.0
C2070 C 0.18104 0.21681 0.58632 0.0
C2071 C 0.15269 0.16467 0.59679 0.0
C2072 C 0.12343 0.13777 0.6032 0.0
C2073 C 0.20968 0.2157 0.58638 0.0
C2074 C 0.2095 0.18827 0.59141 0.0
C2075 C 0.18099 0.16318 0.59653 0.0
C2076 C 0.23859 0.18505 0.59174 0.0
C2077 C 0.23996 0.24426 0.58143 0.0
C2078 C 0.25523 0.18685 0.58039 0.0
C2079 C 0.28137 0.18177 0.58073 0.0
C2080 C 0.291 0.17433 0.59238 0.0
C2081 C 0.27437 0.17254 0.60372 0.0
C2082 C 0.24847 0.17794 0.60341 0.0
H2083 H 0.23815 0.26636 0.58146 0.0
H2084 H 0.26106 0.24863 0.5873 0.0
H2085 H 0.24415 0.23963 0.57135 0.0
H2086 H 0.24755 0.19136 0.57122 0.0
H2087 H 0.29351 0.18282 0.57181 0.0
H2088 H 0.85815 0.90013 0.61374 0.0
H2089 H 0.8802 0.95761 0.60961 0.0
H2090 H 0.83601 0.93548 0.572 0.0
H2091 H 0.81302 0.87799 0.57635 0.0
H2092 H 0.91757 1.00308 0.59055 0.0
H2093 H 0.79082 0.97603 0.59102 0.0
H2094 H 0.80218 0.94721 0.59597 0.0
H2095 H 0.79956 0.9544 0.57914 0.0
C2096 C 0.85375 0.90777 0.60452 0.0
C2097 C 0.83364 0.88511 0.5954 0.0
C2098 C 0.86639 0.94044 0.60215 0.0
C2099 C 0.85911 0.9506 0.59061 0.0
C2100 C 0.8413 0.92797 0.58106 0.0
H2101 H 0.88796 0.13941 0.57108 0.0
H2102 H 0.8814 0.08572 0.56937 0.0
C2103 C 0.82828 0.89531 0.58351 0.0
C2104 C 0.86652 0.98413 0.58931 0.0
H2105 H 0.83059 0.02973 0.58767 0.0
C2106 C 0.89863 0.00895 0.58981 0.0
C2107 C 0.84161 0.9916 0.58853 0.0
C2108 C 0.8066 0.96598 0.58875 0.0
C2109 C 0.90642 0.0412 0.58958 0.0
C2110 C 0.88147 0.04844 0.58887 0.0
C2111 C 0.84952 0.02376 0.58812 0.0
C2112 C 0.88769 0.08149 0.58975 0.0
C2113 C 0.94107 0.06741 0.59032 0.0
C2114 C 0.89268 0.09624 0.60182 0.0
C2115 C 0.89569 0.12648 0.60287 0.0
C2116 C 0.89418 0.14248 0.59184 0.0
C2117 C 0.88928 0.1276 0.57974 0.0
C2118 C 0.88582 0.09716 0.57872 0.0
H2119 H 0.95776 0.05806 0.58886 0.0
H2120 H 0.94616 0.08616 0.583 0.0
H2121 H 0.94584 0.07899 0.59993 0.0
H2122 H 0.8935 0.084 0.61044 0.0
H2123 H 0.89851 0.13702 0.61234 0.0
H2124 H 0.12895 0.02034 0.59495 0.0
H2125 H 0.08003 0.96969 0.59061 0.0
H2126 H 0.13423 0.92057 0.59038 0.0
H2127 H 0.18268 0.9703 0.59586 0.0
H2128 H 0.05924 0.92419 0.57189 0.0
H2129 H 0.07042 0.87354 0.61842 0.0
H2130 H 0.09571 0.91522 0.61435 0.0
H2131 H 0.10377 0.88539 0.60777 0.0
C2132 C 0.13052 0.99877 0.59414 0.0
C2133 C 0.15985 0.99954 0.59606 0.0
C2134 C 0.10255 0.96988 0.59147 0.0
C2135 C 0.1034 0.94127 0.59047 0.0
C2136 C 0.13291 0.94226 0.59144 0.0
H2137 H 0.93135 0.75643 0.57218 0.0
H2138 H 0.98462 0.80423 0.57061 0.0
C2139 C 0.16077 0.97096 0.5944 0.0
C2140 C 0.07309 0.91025 0.58938 0.0
H2141 H 0.02662 0.83981 0.60524 0.0
C2142 C 0.05214 0.90561 0.57913 0.0
C2143 C 0.06382 0.88622 0.59892 0.0
C2144 C 0.08443 0.89036 0.61055 0.0
C2145 C 0.02186 0.87777 0.57829 0.0
C2146 C 0.0127 0.8539 0.58785 0.0
C2147 C 0.03392 0.85819 0.5979 0.0
C2148 C 0.98022 0.82541 0.58831 0.0
C2149 C 0.99942 0.87466 0.56752 0.0
C2150 C 0.96039 0.82139 0.59885 0.0
C2151 C 0.93031 0.79396 0.59989 0.0
C2152 C 0.91948 0.7699 0.59042 0.0
C2153 C 0.93919 0.77423 0.57974 0.0
C2154 C 0.96947 0.80171 0.57874 0.0
H2155 H 1.00796 0.8976 0.56226 0.0
H2156 H 0.99755 0.85632 0.56056 0.0
H2157 H 0.97502 0.86665 0.57133 0.0
H2158 H 0.96832 0.83947 0.60633 0.0
H2159 H 0.91574 0.79152 0.60822 0.0
H2160 H 0.55527 0.07851 0.07123 0.0
H2161 H 0.56166 0.07732 0.04769 0.0
H2162 H 0.50644 0.97409 0.04823 0.0
H2163 H 0.50029 0.97502 0.07152 0.0
H2164 H 0.5832 0.0341 0.03112 0.0
H2165 H 0.45834 0.00978 0.02368 0.0
H2166 H 0.48351 0.03523 0.03652 0.0
H2167 H 0.46698 0.99263 0.03747 0.0
C2168 C 0.54517 0.0556 0.06635 0.0
C2169 C 0.52703 0.02689 0.07324 0.0
C2170 C 0.54866 0.05493 0.0529 0.0
C2171 C 0.53412 0.02559 0.04618 0.0
C2172 C 0.51759 0.99698 0.05317 0.0
H2173 H 0.48893 0.97051 0.96513 0.0
H2174 H 0.49367 0.9692 0.98872 0.0
C2175 C 0.51416 0.99761 0.06651 0.0
C2176 C 0.53451 0.02435 0.03183 0.0
H2177 H 0.48639 0.00888 1.00543 0.0
C2178 C 0.56213 0.02874 0.02548 0.0
C2179 C 0.5069 0.017 0.02448 0.0
C2180 C 0.47711 0.01338 0.03079 0.0
C2181 C 0.56271 0.02566 1.01199 0.0
C2182 C 0.53505 0.0184 1.00461 0.0
C2183 C 0.50746 0.014 1.01102 0.0
C2184 C 0.53466 0.01719 0.99021 0.0
C2185 C 0.5928 0.02959 1.0058 0.0
C2186 C 0.55634 0.04426 0.98313 0.0
C2187 C 0.55376 0.04487 0.96974 0.0
C2188 C 0.52928 0.01855 0.96305 0.0
C2189 C 0.5084 0.99084 0.97 0.0
C2190 C 0.51091 0.99028 0.98349 0.0
H2191 H 0.6073 0.02454 1.01273 0.0
H2192 H 0.58711 0.0135 0.99735 0.0
H2193 H 0.60776 0.05475 1.0025 0.0
H2194 H 0.57435 0.06561 0.98801 0.0
H2195 H 0.57001 0.06669 0.96465 0.0
H2196 H 1.00783 0.54097 0.96243 0.0
H2197 H 1.00634 0.54626 0.98575 0.0
H2198 H 0.08538 0.52849 0.98965 0.0
H2199 H 0.08823 0.52558 0.96615 0.0
H2200 H 0.99015 0.50373 1.00227 0.0
H2201 H 0.11322 0.59557 1.01594 0.0
H2202 H 0.10004 0.58874 0.99941 0.0
H2203 H 0.11355 0.56391 1.00702 0.0
C2204 C 0.02583 0.53966 0.96826 0.0
C2205 C 0.04865 0.53363 0.96246 0.0
C2206 C 0.0247 0.54222 0.98164 0.0
C2207 C 0.04583 0.538 0.98967 0.0
C2208 C 0.0694 0.53295 0.98382 0.0
H2209 H 0.99098 0.46647 0.06836 0.0
H2210 H 0.99596 0.47317 0.04501 0.0
C2211 C 0.07114 0.53134 0.97034 0.0
C2212 C 0.0411 0.53609 1.00403 0.0
H2213 H 0.08016 0.56121 0.03291 0.0
C2214 C 1.0099 0.51672 1.00892 0.0
C2215 C 0.06648 0.55322 1.0129 0.0
C2216 C 0.1001 0.57679 1.00854 0.0
C2217 C 1.00344 0.5138 0.02223 0.0
C2218 C 0.02913 0.52924 0.03113 0.0
C2219 C 0.0603 0.54895 0.02624 0.0
C2220 C 0.02443 0.52512 0.04546 0.0
C2221 C 0.96887 0.49489 0.02648 0.0
C2222 C 0.03946 0.55179 0.05378 0.0
C2223 C 0.03763 0.54772 0.0672 0.0
C2224 C 0.0199 0.51701 0.07262 0.0
C2225 C 1.00387 0.49049 0.0644 0.0
C2226 C 1.00666 0.4944 0.051 0.0
H2227 H 0.95255 0.49543 0.01904 0.0
H2228 H 0.96211 0.46942 0.02787 0.0
H2229 H 0.96483 0.50429 0.03561 0.0
H2230 H 0.05344 0.57578 0.04991 0.0
H2231 H 0.051 0.56847 0.07333 0.0
H2232 H 0.56563 0.50495 0.96566 0.0
H2233 H 0.55963 0.49634 0.98888 0.0
H2234 H 0.5056 0.5455 0.99067 0.0
H2235 H 0.51195 0.5547 0.96727 0.0
H2236 H 0.58334 0.5504 1.00676 0.0
H2237 H 0.45383 0.4617 1.01319 0.0
H2238 H 0.47458 0.46606 0.99818 0.0
H2239 H 0.46378 0.4953 1.00278 0.0
C2240 C 0.55203 0.51356 0.97094 0.0
C2241 C 0.53957 0.53087 0.96464 0.0
C2242 C 0.54864 0.50859 0.98423 0.0
C2243 C 0.5322 0.52025 0.99153 0.0
C2244 C 0.51816 0.53604 0.9852 0.0
H2245 H 0.50486 0.54032 0.07173 0.0
H2246 H 0.50214 0.5341 0.04844 0.0
C2247 C 0.52174 0.54124 0.97184 0.0
C2248 C 0.53237 0.51821 1.00583 0.0
H2249 H 0.48457 0.48397 0.03208 0.0
C2250 C 0.56177 0.53563 1.0123 0.0
C2251 C 0.50427 0.4991 1.01303 0.0
C2252 C 0.47225 0.47923 1.0065 0.0
C2253 C 0.56385 0.53512 0.02579 0.0
C2254 C 0.53566 0.51607 0.0331 0.0
C2255 C 0.50624 0.49836 0.02655 0.0
C2256 C 0.53543 0.51639 0.04749 0.0
C2257 C 0.59634 0.55651 0.03177 0.0
C2258 C 0.55388 0.50699 0.05491 0.0
C2259 C 0.55585 0.51096 0.06838 0.0
C2260 C 0.53902 0.52395 0.0746 0.0
C2261 C 0.51858 0.53074 0.06722 0.0
C2262 C 0.51695 0.52717 0.05386 0.0
H2263 H 0.61338 0.54889 0.02839 0.0
H2264 H 0.60577 0.58152 0.02839 0.0
H2265 H 0.59637 0.55667 0.04239 0.0
H2266 H 0.56783 0.49792 0.05023 0.0
H2267 H 0.57169 0.50544 0.07381 0.0
H2268 H 0.21381 0.41725 0.4044 0.0
H2269 H 0.21883 0.41653 0.38074 0.0
H2270 H 0.18939 0.3161 0.38221 0.0
H2271 H 0.18453 0.31669 0.40555 0.0
H2272 H 0.25396 0.39417 0.36341 0.0
H2273 H 0.12155 0.32102 0.35876 0.0
H2274 H 0.141 0.34173 0.37344 0.0
H2275 H 0.13932 0.30472 0.36934 0.0
C2276 C 0.20927 0.39531 0.39968 0.0
C2277 C 0.19859 0.36702 0.40687 0.0
C2278 C 0.21187 0.39481 0.38615 0.0
C2279 C 0.2038 0.36604 0.37963 0.0
C2280 C 0.19515 0.33842 0.38693 0.0
H2281 H 0.16436 0.30556 0.29828 0.0
H2282 H 0.17188 0.3062 0.32178 0.0
C2283 C 0.19256 0.33889 0.40032 0.0
C2284 C 0.20289 0.36406 0.36522 0.0
H2285 H 0.15172 0.32898 0.33977 0.0
C2286 C 0.23161 0.38007 0.35823 0.0
C2287 C 0.17382 0.34511 0.35841 0.0
C2288 C 0.14209 0.32732 0.36533 0.0
C2289 C 0.23211 0.37739 0.34469 0.0
C2290 C 0.20288 0.35909 0.33781 0.0
C2291 C 0.1742 0.34293 0.34488 0.0
C2292 C 0.20113 0.35792 0.32332 0.0
C2293 C 0.26425 0.39353 0.33803 0.0
C2294 C 0.21528 0.38649 0.31619 0.0
C2295 C 0.21161 0.38604 0.30282 0.0
C2296 C 0.19278 0.35706 0.29609 0.0
C2297 C 0.17924 0.32825 0.30309 0.0
C2298 C 0.1833 0.32869 0.31657 0.0
H2299 H 0.28343 0.3952 0.34449 0.0
H2300 H 0.26394 0.3805 0.32916 0.0
H2301 H 0.27066 0.41836 0.3354 0.0
H2302 H 0.22824 0.40948 0.32099 0.0
H2303 H 0.22246 0.40881 0.29781 0.0
H2304 H 0.64909 0.8289 0.40431 0.0
H2305 H 0.65147 0.83742 0.38082 0.0
H2306 H 0.75467 0.89161 0.3827 0.0
H2307 H 0.75253 0.88343 0.40599 0.0
H2308 H 0.7018 0.90988 0.36508 0.0
H2309 H 0.71351 0.80161 0.35755 0.0
H2310 H 0.68724 0.80233 0.36977 0.0
H2311 H 0.72991 0.82593 0.37182 0.0
C2312 C 0.6722 0.84323 0.39974 0.0
C2313 C 0.7006 0.85526 0.407 0.0
C2314 C 0.67356 0.84796 0.38632 0.0
C2315 C 0.70329 0.86498 0.38 0.0
C2316 C 0.7315 0.87836 0.38735 0.0
H2317 H 0.75813 0.86987 0.29924 0.0
H2318 H 0.75969 0.87588 0.32284 0.0
C2319 C 0.73019 0.87364 0.40068 0.0
C2320 C 0.70541 0.86719 0.36569 0.0
H2321 H 0.7169 0.83169 0.33931 0.0
C2322 C 0.70485 0.89269 0.3594 0.0
C2323 C 0.70993 0.84508 0.35832 0.0
C2324 C 0.71024 0.81707 0.36461 0.0
C2325 C 0.70863 0.89657 0.34593 0.0
C2326 C 0.71284 0.87418 0.33852 0.0
C2327 C 0.71374 0.84892 0.34489 0.0
C2328 C 0.71448 0.87525 0.32412 0.0
C2329 C 0.70874 0.92503 0.33982 0.0
C2330 C 0.68897 0.87352 0.31691 0.0
C2331 C 0.68828 0.87041 0.30351 0.0
C2332 C 0.71292 0.86868 0.29695 0.0
C2333 C 0.73923 0.87189 0.30402 0.0
C2334 C 0.73988 0.87491 0.31751 0.0
H2335 H 0.71595 0.94492 0.34683 0.0
H2336 H 0.72524 0.9341 0.33145 0.0
H2337 H 0.68417 0.91773 0.33642 0.0
H2338 H 0.66868 0.87287 0.32169 0.0
H2339 H 0.66747 0.86755 0.29832 0.0
H2340 H 0.20497 0.91885 0.29913 0.0
H2341 H 0.20283 0.91382 0.32274 0.0
H2342 H 0.17893 0.81504 0.31916 0.0
H2343 H 0.18321 0.8208 0.29577 0.0
H2344 H 0.16355 0.88155 0.34109 0.0
H2345 H 0.25571 0.84544 0.34091 0.0
H2346 H 0.24448 0.85816 0.3265 0.0
H2347 H 0.221 0.81732 0.33205 0.0
C2348 C 0.19839 0.89587 0.30342 0.0
C2349 C 0.19404 0.87016 0.29562 0.0
C2350 C 0.19748 0.89303 0.31694 0.0
C2351 C 0.19184 0.86432 0.32289 0.0
C2352 C 0.18469 0.83788 0.31497 0.0
H2353 H 0.15648 0.83799 0.4067 0.0
H2354 H 0.14982 0.83366 0.38326 0.0
C2355 C 0.18647 0.84097 0.30154 0.0
C2356 C 0.19447 0.86225 0.33726 0.0
H2357 H 0.22845 0.83889 0.36075 0.0
C2358 C 0.17791 0.87238 0.34538 0.0
C2359 C 0.21378 0.851 0.34302 0.0
C2360 C 0.23502 0.84273 0.33516 0.0
C2361 C 0.17978 0.87131 0.35893 0.0
C2362 C 0.19759 0.85828 0.36469 0.0
C2363 C 0.21434 0.84841 0.35653 0.0
C2364 C 0.20066 0.85621 0.37907 0.0
C2365 C 0.16356 0.88546 0.36681 0.0
C2366 C 0.23101 0.8672 0.38477 0.0
C2367 C 0.2345 0.8676 0.3982 0.0
C2368 C 0.20788 0.85775 0.4063 0.0
C2369 C 0.17738 0.84536 0.40068 0.0
C2370 C 0.17371 0.84375 0.38724 0.0
H2371 H 0.16048 0.90338 0.3612 0.0
H2372 H 0.13929 0.86609 0.36963 0.0
H2373 H 0.17746 0.89734 0.37565 0.0
H2374 H 0.25236 0.87688 0.37885 0.0
H2375 H 0.25837 0.87788 0.40228 0.0
H2376 H 0.85851 0.65255 0.74088 0.0
H2377 H 0.8641 0.6524 0.71754 0.0
H2378 H 0.88627 0.75086 0.71601 0.0
H2379 H 0.88066 0.75109 0.73959 0.0
H2380 H 0.82484 0.66306 0.70049 0.0
H2381 H 0.95394 0.74924 0.69186 0.0
H2382 H 0.93878 0.73135 0.70743 0.0
H2383 H 0.93314 0.76346 0.70183 0.0
C2384 C 0.86541 0.67449 0.73563 0.0
C2385 C 0.86925 0.7019 0.7421 0.0
C2386 C 0.86842 0.67429 0.72226 0.0
C2387 C 0.87561 0.70156 0.71496 0.0
C2388 C 0.88113 0.72962 0.72143 0.0
H2389 H 0.88473 0.74312 0.63384 0.0
H2390 H 0.89089 0.7433 0.65704 0.0
C2391 C 0.87813 0.72984 0.73492 0.0
C2392 C 0.87474 0.69941 0.70059 0.0
H2393 H 0.92059 0.72892 0.67351 0.0
C2394 C 0.8458 0.67738 0.69457 0.0
C2395 C 0.90201 0.71811 0.69287 0.0
C2396 C 0.93385 0.74174 0.69878 0.0
C2397 C 0.84311 0.67412 0.68107 0.0
C2398 C 0.87051 0.69263 0.67328 0.0
C2399 C 0.89956 0.71446 0.67937 0.0
C2400 C 0.869 0.69177 0.65883 0.0
C2401 C 0.81051 0.65181 0.67535 0.0
C2402 C 0.85579 0.66283 0.65178 0.0
C2403 C 0.85149 0.66259 0.63835 0.0
C2404 C 0.86086 0.69136 0.6317 0.0
C2405 C 0.87657 0.72038 0.63865 0.0
C2406 C 0.88026 0.72055 0.65199 0.0
H2407 H 0.7909 0.64658 0.68227 0.0
H2408 H 0.80634 0.66211 0.6665 0.0
H2409 H 0.80897 0.62868 0.67285 0.0
H2410 H 0.84807 0.64031 0.65668 0.0
H2411 H 0.83971 0.63987 0.63329 0.0
H2412 H 0.4018 0.169 0.63541 0.0
H2413 H 0.39672 0.17177 0.65872 0.0
H2414 H 0.33747 0.21465 0.65295 0.0
H2415 H 0.3392 0.20769 0.62966 0.0
H2416 H 0.41192 0.21056 0.6758 0.0
H2417 H 0.27959 0.15106 0.67679 0.0
H2418 H 0.30102 0.15451 0.66216 0.0
H2419 H 0.29624 0.18744 0.66773 0.0
C2420 C 0.38781 0.17913 0.63917 0.0
C2421 C 0.37094 0.18816 0.63076 0.0
C2422 C 0.38484 0.18074 0.65255 0.0
C2423 C 0.36575 0.19248 0.65787 0.0
C2424 C 0.35098 0.20392 0.64932 0.0
H2425 H 0.39195 0.23552 0.74069 0.0
H2426 H 0.39219 0.24 0.71726 0.0
C2427 C 0.35269 0.20081 0.63594 0.0
C2428 C 0.36164 0.19263 0.67227 0.0
H2429 H 0.30656 0.17504 0.69634 0.0
C2430 C 0.3887 0.20245 0.68021 0.0
C2431 C 0.3314 0.18171 0.67831 0.0
C2432 C 0.30042 0.16777 0.6708 0.0
C2433 C 0.38652 0.20143 0.69374 0.0
C2434 C 0.35665 0.19227 0.69975 0.0
C2435 C 0.32958 0.18255 0.69186 0.0
C2436 C 0.35288 0.19166 0.71413 0.0
C2437 C 0.41628 0.20903 0.70134 0.0
C2438 C 0.32863 0.16426 0.72043 0.0
C2439 C 0.32746 0.16232 0.73396 0.0
C2440 C 0.35077 0.18758 0.74142 0.0
C2441 C 0.37357 0.21573 0.73517 0.0
C2442 C 0.37415 0.21802 0.72173 0.0
H2443 H 0.43271 0.20388 0.69565 0.0
H2444 H 0.42951 0.23497 0.70374 0.0
H2445 H 0.4104 0.19505 0.71041 0.0
H2446 H 0.31166 0.1436 0.7149 0.0
H2447 H 0.31006 0.14013 0.73852 0.0
H2448 H 0.88662 0.25778 0.63434 0.0
H2449 H 0.88465 0.2515 0.65775 0.0
H2450 H 0.84241 0.14908 0.65306 0.0
H2451 H 0.84892 0.15626 0.62978 0.0
H2452 H 0.84882 0.22944 0.67564 0.0
H2453 H 0.90812 0.15672 0.676 0.0
H2454 H 0.90319 0.1737 0.66137 0.0
H2455 H 0.87109 0.13597 0.66738 0.0
C2456 C 0.87644 0.2339 0.63836 0.0
C2457 C 0.86754 0.20748 0.63023 0.0
C2458 C 0.87544 0.23022 0.6518 0.0
C2459 C 0.86449 0.19982 0.65746 0.0
C2460 C 0.8527 0.17306 0.6492 0.0
H2461 H 0.8253 0.18466 0.74039 0.0
H2462 H 0.8205 0.18091 0.71696 0.0
C2463 C 0.85537 0.177 0.63579 0.0
C2464 C 0.86577 0.19643 0.67187 0.0
H2465 H 0.8841 0.15887 0.69571 0.0
C2466 C 0.8569 0.21419 0.67993 0.0
C2467 C 0.87695 0.17714 0.67779 0.0
C2468 C 0.89072 0.16016 0.67017 0.0
C2469 C 0.85879 0.2133 0.69345 0.0
C2470 C 0.86758 0.19218 0.69934 0.0
C2471 C 0.87666 0.17455 0.69134 0.0
C2472 C 0.86837 0.18881 0.71372 0.0
C2473 C 0.8527 0.23629 0.70118 0.0
C2474 C 0.89549 0.19103 0.71994 0.0
C2475 C 0.89753 0.1914 0.73347 0.0
C2476 C 0.87274 0.19019 0.741 0.0
C2477 C 0.8448 0.18569 0.73481 0.0
C2478 C 0.84235 0.18427 0.72137 0.0
H2479 H 0.85777 0.25777 0.69543 0.0
H2480 H 0.82706 0.22424 0.70401 0.0
H2481 H 0.86775 0.24451 0.71001 0.0
H2482 H 0.91586 0.19421 0.71436 0.0
H2483 H 0.91954 0.19543 0.73798 0.0
H2484 H 0.29227 0.88048 0.22855 0.0
H2485 H 0.33095 0.90329 0.21104 0.0
H2486 H 0.29673 0.96843 0.20222 0.0
H2487 H 0.25727 0.94516 0.21982 0.0
H2488 H 0.31055 0.94406 0.18007 0.0
H2489 H 0.41296 0.9892 0.21401 0.0
H2490 H 0.3859 0.94686 0.21537 0.0
H2491 H 0.3723 0.97444 0.21938 0.0
C2492 C 0.29257 0.89938 0.22279 0.0
C2493 C 0.27168 0.91108 0.22568 0.0
C2494 C 0.31504 0.91268 0.21283 0.0
C2495 C 0.31767 0.93838 0.2055 0.0
C2496 C 0.29555 0.9489 0.20782 0.0
H2497 H 0.477 0.05608 0.1509 0.0
H2498 H 0.43921 0.04087 0.16917 0.0
C2499 C 0.27276 0.9354 0.21781 0.0
C2500 C 0.34383 0.95425 0.19564 0.0
H2501 H 0.42538 0.99011 0.19166 0.0
C2502 C 0.33565 0.95449 0.18266 0.0
C2503 C 0.37681 0.96811 0.19892 0.0
C2504 C 0.38761 0.96996 0.21269 0.0
C2505 C 0.35923 0.96696 0.17292 0.0
C2506 C 0.39201 0.97972 0.17615 0.0
C2507 C 0.40034 0.98046 0.18915 0.0
C2508 C 0.41734 0.98973 0.16601 0.0
C2509 C 0.34893 0.96585 0.15912 0.0
C2510 C 0.41859 0.96619 0.15853 0.0
C2511 C 0.4403 0.97475 0.14834 0.0
C2512 C 0.4614 1.0072 0.14519 0.0
C2513 C 0.46141 0.03094 0.15311 0.0
C2514 C 0.43957 0.02224 0.16346 0.0
H2515 H 0.3239 0.96112 0.15839 0.0
H2516 H 0.36518 0.9888 0.15417 0.0
H2517 H 0.35039 0.94643 0.15397 0.0
H2518 H 0.40209 0.94101 0.16037 0.0
H2519 H 0.43962 0.95568 0.14256 0.0
H2520 H 1.00118 0.43138 0.14657 0.0
H2521 H 0.01873 0.41062 0.1647 0.0
H2522 H 0.11294 0.49435 0.16288 0.0
H2523 H 0.0957 0.5149 0.14496 0.0
H2524 H 0.07254 0.39806 0.16381 0.0
H2525 H 0.09142 0.48728 0.20159 0.0
H2526 H 0.06695 0.48134 0.18752 0.0
H2527 H 0.10994 0.50408 0.18639 0.0
C2528 C 0.02528 0.44576 0.15032 0.0
C2529 C 0.04686 0.475 0.14439 0.0
C2530 C 0.03547 0.43371 0.16059 0.0
C2531 C 0.06721 0.45096 0.16529 0.0
C2532 C 0.08828 0.48068 0.15964 0.0
H2533 H 0.18464 0.43322 0.22492 0.0
H2534 H 0.16283 0.4492 0.20699 0.0
C2535 C 0.0783 0.49245 0.14936 0.0
C2536 C 0.07915 0.43758 0.17561 0.0
H2537 H 0.11257 0.45308 0.20574 0.0
C2538 C 0.08097 0.40986 0.17305 0.0
C2539 C 0.09083 0.45323 0.1876 0.0
C2540 C 0.08953 0.483 0.19103 0.0
C2541 C 0.09483 0.39795 0.18191 0.0
C2542 C 0.10627 0.41339 0.194 0.0
C2543 C 0.10398 0.44095 0.19658 0.0
C2544 C 0.12128 0.40214 0.20401 0.0
C2545 C 0.09837 0.36978 0.17789 0.0
C2546 C 0.1061 0.37001 0.20831 0.0
C2547 C 0.11932 0.36056 0.21836 0.0
C2548 C 0.14758 0.3832 0.22464 0.0
C2549 C 0.16311 0.41506 0.22017 0.0
C2550 C 0.15034 0.42431 0.20998 0.0
H2551 H 0.0987 0.3678 0.16724 0.0
H2552 H 0.12072 0.37167 0.1818 0.0
H2553 H 0.07758 0.34734 0.18152 0.0
H2554 H 0.08321 0.3524 0.20431 0.0
H2555 H 0.10619 0.33611 0.22185 0.0
H2556 H 0.63427 0.73989 0.23863 0.0
H2557 H 0.61809 0.70421 0.22053 0.0
H2558 H 0.68499 0.78165 0.19629 0.0
H2559 H 0.70436 0.81721 0.21507 0.0
H2560 H 0.58902 0.69876 0.20077 0.0
H2561 H 0.70705 0.71891 0.18406 0.0
H2562 H 0.7029 0.73612 0.19883 0.0
H2563 H 0.7041 0.75451 0.18356 0.0
C2564 C 0.64612 0.74975 0.22955 0.0
C2565 C 0.67103 0.78197 0.22853 0.0
C2566 C 0.63651 0.72897 0.21905 0.0
C2567 C 0.65039 0.73963 0.20688 0.0
C2568 C 0.67445 0.77213 0.20559 0.0
H2569 H 0.55037 0.62348 0.13995 0.0
H2570 H 0.56976 0.66049 0.15801 0.0
C2571 C 0.68517 0.79285 0.21636 0.0
C2572 C 0.63857 0.71628 0.19581 0.0
H2573 H 0.66192 0.68517 0.17115 0.0
C2574 C 0.60521 0.69581 0.19441 0.0
C2575 C 0.65927 0.71182 0.18739 0.0
C2576 C 0.6953 0.73128 0.18859 0.0
C2577 C 0.59214 0.67103 0.18523 0.0
C2578 C 0.61273 0.66732 0.17656 0.0
C2579 C 0.64604 0.68788 0.17778 0.0
C2580 C 0.60004 0.64327 0.16584 0.0
C2581 C 0.5563 0.64843 0.18524 0.0
C2582 C 0.61072 0.62112 0.16398 0.0
C2583 C 0.59977 0.59984 0.15343 0.0
C2584 C 0.57819 0.6006 0.1445 0.0
C2585 C 0.5669 0.62211 0.14666 0.0
C2586 C 0.57789 0.64331 0.15706 0.0
H2587 H 0.5459 0.64703 0.19493 0.0
H2588 H 0.54482 0.65746 0.17846 0.0
H2589 H 0.5501 0.62385 0.18225 0.0
H2590 H 0.62792 0.62065 0.17057 0.0
H2591 H 0.60933 0.58396 0.15194 0.0
H2592 H 0.95809 0.43226 0.89658 0.0
H2593 H 0.94121 0.3944 0.8787 0.0
H2594 H 0.03994 0.43206 0.86775 0.0
H2595 H 0.05721 0.47037 0.88584 0.0
H2596 H 0.9964 0.41857 0.84643 0.0
H2597 H 0.95169 0.31455 0.87949 0.0
H2598 H 0.93568 0.34048 0.88262 0.0
H2599 H 0.97785 0.35529 0.88479 0.0
C2600 C 0.97634 0.43287 0.8903 0.0
C2601 C 1.00911 0.45427 0.89276 0.0
C2602 C 0.96658 0.41093 0.88011 0.0
C2603 C 0.98925 0.40963 0.87204 0.0
C2604 C 0.02196 0.43228 0.87393 0.0
H2605 H 0.9458 0.25092 0.8176 0.0
H2606 H 0.96726 0.28871 0.83587 0.0
C2607 C 0.03183 0.45438 0.88421 0.0
C2608 C 0.9785 0.38422 0.86186 0.0
H2609 H 0.93707 0.3027 0.85737 0.0
C2610 C 0.98372 0.39326 0.84884 0.0
C2611 C 0.96206 0.35105 0.86493 0.0
C2612 C 0.95669 0.33965 0.87871 0.0
C2613 C 0.9721 0.37021 0.83888 0.0
C2614 C 0.9546 0.33707 0.84195 0.0
C2615 C 0.9503 0.32799 0.85497 0.0
C2616 C 0.93953 0.31178 0.83174 0.0
C2617 C 0.97858 0.38157 0.8251 0.0
C2618 C 0.91571 0.31102 0.82372 0.0
C2619 C 0.90329 0.28938 0.81344 0.0
C2620 C 0.9143 0.26779 0.81082 0.0
C2621 C 0.93671 0.26709 0.81934 0.0
C2622 C 0.94917 0.28888 0.82972 0.0
H2623 H 0.99904 0.40651 0.82436 0.0
H2624 H 0.98379 0.36564 0.8191 0.0
H2625 H 0.95701 0.38117 0.82108 0.0
H2626 H 0.90722 0.32778 0.82522 0.0
H2627 H 0.88578 0.29042 0.8072 0.0
H2628 H 0.59429 0.62103 0.88921 0.0
H2629 H 0.63212 0.64239 0.87095 0.0
H2630 H 0.65055 0.56392 0.87458 0.0
H2631 H 0.61299 0.54258 0.8925 0.0
H2632 H 0.70712 0.62584 0.87483 0.0
H2633 H 0.62755 0.60933 0.83318 0.0
H2634 H 0.62282 0.62836 0.84728 0.0
H2635 H 0.61262 0.58711 0.848 0.0
C2636 C 0.60549 0.60776 0.88576 0.0
C2637 C 0.60036 0.57996 0.89224 0.0
C2638 C 0.62741 0.62014 0.87542 0.0
C2639 C 0.64445 0.60488 0.8714 0.0
C2640 C 0.63799 0.57631 0.87749 0.0
H2641 H 0.76004 0.61835 0.8061 0.0
H2642 H 0.72259 0.60357 0.82398 0.0
C2643 C 0.61622 0.56398 0.88769 0.0
C2644 C 0.67022 0.61903 0.86135 0.0
H2645 H 0.68306 0.63417 0.82904 0.0
C2646 C 0.70191 0.62803 0.86484 0.0
C2647 C 0.66346 0.62141 0.84826 0.0
C2648 C 0.62978 0.61088 0.84384 0.0
C2649 C 0.72679 0.63919 0.85566 0.0
C2650 C 0.72004 0.64164 0.84259 0.0
C2651 C 0.6884 0.63273 0.83908 0.0
C2652 C 0.74485 0.65108 0.83226 0.0
C2653 C 0.75997 0.64719 0.85987 0.0
C2654 C 0.77059 0.68274 0.83104 0.0
C2655 C 0.79224 0.69151 0.82065 0.0
C2656 C 0.78858 0.66871 0.8113 0.0
C2657 C 0.76366 0.63673 0.813 0.0
C2658 C 0.74201 0.62816 0.82323 0.0
H2659 H 0.76048 0.64026 0.87003 0.0
H2660 H 0.76906 0.63481 0.8536 0.0
H2661 H 0.77656 0.67338 0.85889 0.0
H2662 H 0.77331 0.70092 0.83787 0.0
H2663 H 0.81089 0.71634 0.81964 0.0
H2664 H 0.42484 0.13329 0.79968 0.0
H2665 H 0.44099 0.11413 0.81789 0.0
H2666 H 0.37973 0.13222 0.84255 0.0
H2667 H 0.36045 0.14853 0.82374 0.0
H2668 H 0.47293 0.13984 0.83712 0.0
H2669 H 0.35466 0.04729 0.85606 0.0
H2670 H 0.35844 0.06729 0.84096 0.0
H2671 H 0.35979 0.08678 0.85596 0.0
C2672 C 0.41424 0.13311 0.80889 0.0
C2673 C 0.39102 0.14272 0.81003 0.0
C2674 C 0.42382 0.1221 0.81944 0.0
C2675 C 0.41157 0.12116 0.83177 0.0
C2676 C 0.38901 0.13158 0.83315 0.0
H2677 H 0.51301 0.10529 0.89829 0.0
H2678 H 0.49315 0.12287 0.88036 0.0
C2679 C 0.37835 0.14157 0.82236 0.0
C2680 C 0.42357 0.10991 0.84287 0.0
H2681 H 0.40045 0.05736 0.86822 0.0
C2682 C 0.45683 0.12163 0.84383 0.0
C2683 C 0.40297 0.08596 0.85173 0.0
C2684 C 0.36698 0.07086 0.85108 0.0
C2685 C 0.46985 0.10989 0.85302 0.0
C2686 C 0.44939 0.08666 0.86207 0.0
C2687 C 0.41621 0.07509 0.86129 0.0
C2688 C 0.46223 0.07528 0.87272 0.0
C2689 C 0.50545 0.12193 0.85267 0.0
C2690 C 0.45144 0.04243 0.8746 0.0
C2691 C 0.46281 0.03213 0.88501 0.0
C2692 C 0.48486 0.05452 0.89382 0.0
C2693 C 0.49611 0.08734 0.89168 0.0
C2694 C 0.48482 0.09752 0.88136 0.0
H2695 H 0.51553 0.13066 0.84292 0.0
H2696 H 0.5179 0.14235 0.85945 0.0
H2697 H 0.51084 0.1029 0.85551 0.0
H2698 H 0.43391 0.02473 0.8681 0.0
H2699 H 0.45329 1.00669 0.8865 0.0
H2700 H 0.92714 0.28235 0.55368 0.0
H2701 H 0.964 0.30228 0.53512 0.0
H2702 H 0.99585 0.23521 0.54383 0.0
H2703 H 0.95967 0.21563 0.56232 0.0
H2704 H 0.0385 0.32582 0.53863 0.0
H2705 H 0.9723 0.22733 0.50329 0.0
H2706 H 0.95196 0.23645 0.51579 0.0
H2707 H 0.97387 0.21656 0.51977 0.0
C2708 C 0.9414 0.27134 0.55141 0.0
C2709 C 0.94036 0.24733 0.55944 0.0
C2710 C 0.96269 0.28295 0.5409 0.0
C2711 C 0.98275 0.27027 0.53809 0.0
C2712 C 0.98061 0.24532 0.54576 0.0
H2713 H 0.11744 0.29167 0.4782 0.0
H2714 H 0.08099 0.27528 0.49659 0.0
C2715 C 0.95981 0.2341 0.55632 0.0
C2716 C 1.00714 0.28385 0.5276 0.0
H2717 H 0.02503 0.26676 0.49787 0.0
C2718 C 0.03553 0.31314 0.52964 0.0
C2719 C 1.00355 0.26692 0.51603 0.0
C2720 C 0.97376 0.23511 0.51346 0.0
C2721 C 0.06069 0.32564 0.52056 0.0
C2722 C 0.05696 0.309 0.50881 0.0
C2723 C 0.02823 0.27977 0.50678 0.0
C2724 C 0.08247 0.32079 0.49857 0.0
C2725 C 0.09149 0.35578 0.52398 0.0
C2726 C 0.09662 0.35226 0.49363 0.0
C2727 C 0.11856 0.36203 0.48336 0.0
C2728 C 0.12598 0.34022 0.47753 0.0
C2729 C 0.11243 0.30909 0.48261 0.0
C2730 C 0.09126 0.29961 0.49306 0.0
H2731 H 0.09449 0.35912 0.53458 0.0
H2732 H 0.11271 0.3554 0.52003 0.0
H2733 H 0.0909 0.37682 0.51997 0.0
H2734 H 0.0897 0.36893 0.49731 0.0
H2735 H 0.12789 0.38586 0.47939 0.0
H2736 H 0.66581 0.75796 0.48036 0.0
H2737 H 0.68199 0.73628 0.4986 0.0
H2738 H 0.77491 0.82202 0.49908 0.0
H2739 H 0.75878 0.84357 0.48116 0.0
H2740 H 0.7328 0.72321 0.49914 0.0
H2741 H 0.7533 0.81256 0.53694 0.0
H2742 H 0.73123 0.80909 0.52239 0.0
H2743 H 0.77441 0.83036 0.52229 0.0
C2744 C 0.68914 0.77267 0.48474 0.0
C2745 C 0.71066 0.80287 0.47949 0.0
C2746 C 0.69865 0.76006 0.49504 0.0
C2747 C 0.72969 0.77755 0.50044 0.0
C2748 C 0.75065 0.80814 0.49542 0.0
H2749 H 0.84858 0.75678 0.55825 0.0
H2750 H 0.8259 0.77233 0.54054 0.0
C2751 C 0.74131 0.82055 0.48514 0.0
C2752 C 0.74108 0.76357 0.5108 0.0
H2753 H 0.7752 0.77862 0.54084 0.0
C2754 C 0.74167 0.73511 0.50833 0.0
C2755 C 0.75323 0.77916 0.52278 0.0
C2756 C 0.75279 0.80932 0.52633 0.0
C2757 C 0.7548 0.72249 0.51724 0.0
C2758 C 0.76701 0.73813 0.52923 0.0
C2759 C 0.76597 0.76637 0.53174 0.0
C2760 C 0.78196 0.72659 0.53916 0.0
C2761 C 0.75671 0.69327 0.51345 0.0
C2762 C 0.76556 0.6952 0.54428 0.0
C2763 C 0.77896 0.68596 0.55438 0.0
C2764 C 0.80889 0.70807 0.55973 0.0
C2765 C 0.82563 0.73899 0.5543 0.0
C2766 C 0.81247 0.74806 0.5442 0.0
H2767 H 0.75537 0.68991 0.50284 0.0
H2768 H 0.77929 0.69495 0.51696 0.0
H2769 H 0.7362 0.67167 0.51776 0.0
H2770 H 0.74171 0.67819 0.54089 0.0
H2771 H 0.76501 0.6623 0.55856 0.0
H2772 H 0.21662 0.94472 0.47765 0.0
H2773 H 0.23897 0.98258 0.49553 0.0
H2774 H 0.31628 0.96233 0.49897 0.0
H2775 H 0.29384 0.92419 0.48084 0.0
H2776 H 0.25313 0.97737 0.52112 0.0
H2777 H 0.36437 0.06051 0.49467 0.0
H2778 H 0.32929 0.02908 0.48674 0.0
H2779 H 0.35541 0.01957 0.49567 0.0
C2780 C 0.23812 0.94784 0.48233 0.0
C2781 C 0.25335 0.93122 0.47778 0.0
C2782 C 0.25099 0.96971 0.49258 0.0
C2783 C 0.2798 0.9761 0.49854 0.0
C2784 C 0.29438 0.95846 0.49442 0.0
H2785 H 0.39586 0.12013 0.55813 0.0
H2786 H 0.37753 0.08035 0.54056 0.0
C2787 C 0.28126 0.93619 0.48418 0.0
C2788 C 0.2944 1.00159 0.50884 0.0
H2789 H 0.35972 0.07501 0.51588 0.0
C2790 C 0.27652 0.99863 0.51998 0.0
C2791 C 0.32487 0.02962 0.50744 0.0
C2792 C 0.34463 0.03523 0.49546 0.0
C2793 C 0.28825 0.02236 0.52972 0.0
C2794 C 0.31858 0.05073 0.52824 0.0
C2795 C 0.33659 0.05352 0.51715 0.0
C2796 C 0.33162 0.07775 0.53798 0.0
C2797 C 0.26807 0.01624 0.54163 0.0
C2798 C 0.31305 0.09124 0.54202 0.0
C2799 C 0.32347 0.11376 0.55207 0.0
C2800 C 0.35325 0.12439 0.55817 0.0
C2801 C 0.37313 0.11302 0.55347 0.0
C2802 C 0.36238 0.08989 0.54351 0.0
H2803 H 0.25171 0.99016 0.54321 0.0
H2804 H 0.28319 0.02647 0.55035 0.0
H2805 H 0.25292 0.02743 0.54043 0.0
H2806 H 0.28986 0.08358 0.53769 0.0
H2807 H 0.30749 0.12192 0.55547 0.0
H2808 H 0.58544 0.37325 0.11023 0.0
H2809 H 0.57353 0.3192 0.10411 0.0
H2810 H 0.47928 0.27974 0.12083 0.0
H2811 H 0.49107 0.33392 0.12668 0.0
H2812 H 0.56298 0.27476 0.1219 0.0
H2813 H 0.45864 0.22512 0.08886 0.0
H2814 H 0.48239 0.26746 0.09234 0.0
H2815 H 0.45194 0.24091 0.10343 0.0
C2816 C 0.56169 0.35312 0.11204 0.0
C2817 C 0.5389 0.35771 0.11866 0.0
C2818 C 0.55498 0.3222 0.10867 0.0
C2819 C 0.52541 0.29525 0.11192 0.0
C2820 C 0.50197 0.30004 0.11793 0.0
H2821 H 0.45928 0.09122 0.1195 0.0
H2822 H 0.46496 0.14471 0.11995 0.0
C2823 C 0.50866 0.33103 0.12125 0.0
C2824 C 0.52081 0.26235 0.11057 0.0
H2825 H 0.4709 0.18731 0.09845 0.0
C2826 C 0.54301 0.25578 0.11664 0.0
C2827 C 0.4946 0.23738 0.10383 0.0
C2828 C 0.4707 0.24309 0.09664 0.0
C2829 C 0.5395 0.22502 0.11634 0.0
C2830 C 0.51323 0.20006 0.10967 0.0
C2831 C 0.49098 0.20648 0.10359 0.0
C2832 C 0.5088 0.16727 0.10884 0.0
C2833 C 0.5636 0.21926 0.12339 0.0
C2834 C 0.53128 0.16207 0.10229 0.0
C2835 C 0.52784 0.13149 0.10188 0.0
C2836 C 0.50178 0.10536 0.10798 0.0
C2837 C 0.4792 0.1106 0.11447 0.0
C2838 C 0.48252 0.14121 0.1148 0.0
H2839 H 0.57796 0.23869 0.1304 0.0
H2840 H 0.55145 0.19602 0.1286 0.0
H2841 H 0.58037 0.21828 0.11633 0.0
H2842 H 0.55157 0.18176 0.09752 0.0
H2843 H 0.54568 0.12836 0.09676 0.0
H2844 H 0.72408 0.18192 0.1335 0.0
H2845 H 0.77927 0.22321 0.12806 0.0
H2846 H 0.7426 0.26932 0.1033 0.0
H2847 H 0.68747 0.22811 0.10878 0.0
H2848 H 0.81567 0.25058 0.10389 0.0
H2849 H 0.79403 0.33609 0.13206 0.0
H2850 H 0.76777 0.29321 0.13298 0.0
H2851 H 0.76577 0.31514 0.11937 0.0
C2852 C 0.7279 0.20023 0.12653 0.0
C2853 C 0.7016 0.20164 0.12141 0.0
C2854 C 0.7594 0.22392 0.12349 0.0
C2855 C 0.76512 0.24965 0.11542 0.0
C2856 C 0.7388 0.24989 0.10965 0.0
H2857 H 0.92853 0.4365 0.09966 0.0
H2858 H 0.87641 0.38803 0.10123 0.0
C2859 C 0.70733 0.22618 0.11266 0.0
C2860 C 0.7982 0.27769 0.11405 0.0
H2861 H 0.84402 0.35713 0.12172 0.0
C2862 C 0.82195 0.2739 0.10779 0.0
C2863 C 0.80644 0.3081 0.11918 0.0
C2864 C 0.78232 0.31351 0.12637 0.0
C2865 C 0.85344 0.29991 0.10622 0.0
C2866 C 0.86167 0.33035 0.11139 0.0
C2867 C 0.83789 0.33392 0.11775 0.0
C2868 C 0.89431 0.35925 0.10996 0.0
C2869 C 0.87723 0.29473 0.09869 0.0
C2870 C 0.92217 0.35958 0.11437 0.0
C2871 C 0.95241 0.38749 0.11337 0.0
C2872 C 0.9553 0.41572 0.1081 0.0
C2873 C 0.92736 0.41526 0.10376 0.0
C2874 C 0.89737 0.38745 0.10466 0.0
H2875 H 0.86505 0.27324 0.09238 0.0
H2876 H 0.89275 0.31589 0.09262 0.0
H2877 H 0.8928 0.29093 0.10549 0.0
H2878 H 0.92052 0.33849 0.11882 0.0
H2879 H 0.97336 0.38712 0.11693 0.0
H2880 H 0.62578 0.52673 0.12497 0.0
H2881 H 0.67284 0.52048 0.12458 0.0
H2882 H 0.70576 0.57745 0.09002 0.0
H2883 H 0.65843 0.58406 0.09036 0.0
H2884 H 0.69371 0.49377 0.10609 0.0
H2885 H 0.78359 0.62256 0.114 0.0
H2886 H 0.74118 0.6067 0.11643 0.0
H2887 H 0.75729 0.61371 0.10042 0.0
C2888 C 0.643 0.53813 0.11727 0.0
C2889 C 0.63851 0.55641 0.10779 0.0
C2890 C 0.66991 0.53438 0.11706 0.0
C2891 C 0.69312 0.54886 0.10739 0.0
C2892 C 0.68849 0.56658 0.09772 0.0
H2893 H 0.87753 0.54982 0.10678 0.0
H2894 H 0.83152 0.55424 0.099 0.0
C2895 C 0.66138 0.5703 0.09791 0.0
C2896 C 0.72202 0.54519 0.10769 0.0
H2897 H 0.80302 0.58648 0.11293 0.0
C2898 C 0.71767 0.51409 0.10743 0.0
C2899 C 0.7533 0.57171 0.10942 0.0
C2900 C 0.75931 0.60558 0.11019 0.0
C2901 C 0.74352 0.50872 0.10924 0.0
C2902 C 0.77455 0.5351 0.11149 0.0
C2903 C 0.77921 0.5663 0.11117 0.0
C2904 C 0.80167 0.53059 0.11554 0.0
C2905 C 0.73732 0.47477 0.10896 0.0
C2906 C 0.8001 0.5158 0.12736 0.0
C2907 C 0.82625 0.51349 0.13183 0.0
C2908 C 0.85459 0.52584 0.12456 0.0
C2909 C 0.85591 0.5399 0.11253 0.0
C2910 C 0.82974 0.54255 0.10812 0.0
H2911 H 0.71498 0.45856 0.1036 0.0
H2912 H 0.75768 0.47367 0.10448 0.0
H2913 H 0.73453 0.46572 0.11897 0.0
H2914 H 0.77888 0.50677 0.13333 0.0
H2915 H 0.82448 0.50239 0.14109 0.0
H2916 H 0.36516 0.56615 0.90421 0.0
H2917 H 0.31387 0.5608 0.91082 0.0
H2918 H 0.29386 0.47812 0.93372 0.0
H2919 H 0.34579 0.48411 0.92734 0.0
H2920 H 0.25668 0.50798 0.90472 0.0
H2921 H 0.26457 0.52556 0.95775 0.0
H2922 H 0.29961 0.53798 0.94781 0.0
H2923 H 0.27447 0.49645 0.95193 0.0
C2924 C 0.35014 0.54738 0.91092 0.0
C2925 C 0.35937 0.52566 0.91534 0.0
C2926 C 0.32083 0.54426 0.91468 0.0
C2927 C 0.29999 0.51918 0.92285 0.0
C2928 C 0.30974 0.49807 0.92765 0.0
H2929 H 0.09863 0.45641 0.94256 0.0
H2930 H 0.15191 0.46117 0.9418 0.0
C2931 C 0.33932 0.50141 0.92397 0.0
C2932 C 0.26688 0.5133 0.92504 0.0
H2933 H 0.21403 0.50898 0.94806 0.0
C2934 C 0.24744 0.50825 0.91421 0.0
C2935 C 0.25453 0.5131 0.93743 0.0
C2936 C 0.27439 0.5188 0.94941 0.0
C2937 C 0.21628 0.50338 0.91536 0.0
C2938 C 0.20426 0.5043 0.9277 0.0
C2939 C 0.22329 0.50844 0.93861 0.0
C2940 C 0.1727 0.50262 0.92926 0.0
C2941 C 0.19648 0.49702 0.90329 0.0
C2942 C 0.16698 0.52494 0.92289 0.0
C2943 C 0.13662 0.52186 0.92309 0.0
C2944 C 0.11129 0.49685 0.92995 0.0
C2945 C 0.11748 0.47568 0.93707 0.0
C2946 C 0.14795 0.47845 0.93666 0.0
H2947 H 0.20456 0.4868 0.89553 0.0
H2948 H 0.17063 0.48024 0.90514 0.0
H2949 H 0.19928 0.51998 0.89968 0.0
H2950 H 0.1859 0.54443 0.91746 0.0
H2951 H 0.13292 0.53896 0.9177 0.0
H2952 H 0.56927 0.86779 0.90374 0.0
H2953 H 0.58137 0.82586 0.91 0.0
H2954 H 0.50647 0.79163 0.93855 0.0
H2955 H 0.49425 0.83359 0.9322 0.0
H2956 H 0.59668 0.80441 0.93323 0.0
H2957 H 0.4772 0.71532 0.9136 0.0
H2958 H 0.49477 0.75784 0.91092 0.0
H2959 H 0.47662 0.74071 0.92615 0.0
C2960 C 0.5562 0.85199 0.91166 0.0
C2961 C 0.53107 0.85405 0.91759 0.0
C2962 C 0.56297 0.82793 0.91518 0.0
C2963 C 0.54444 0.80519 0.92457 0.0
C2964 C 0.52079 0.80863 0.93115 0.0
H2965 H 0.52503 0.6195 0.94303 0.0
H2966 H 0.52055 0.66784 0.94237 0.0
C2967 C 0.51408 0.83282 0.92765 0.0
C2968 C 0.54796 0.77644 0.92654 0.0
H2969 H 0.50874 0.69514 0.92222 0.0
C2970 C 0.57742 0.78049 0.93088 0.0
C2971 C 0.5229 0.7452 0.92339 0.0
C2972 C 0.49116 0.73935 0.91815 0.0
C2973 C 0.58235 0.75417 0.9323 0.0
C2974 C 0.55738 0.72299 0.929 0.0
C2975 C 0.52787 0.71897 0.92476 0.0
C2976 C 0.56123 0.69416 0.92975 0.0
C2977 C 0.61407 0.75994 0.93753 0.0
C2978 C 0.58538 0.69255 0.92276 0.0
C2979 C 0.58801 0.66486 0.92313 0.0
C2980 C 0.56643 0.63813 0.93044 0.0
C2981 C 0.54212 0.63968 0.93733 0.0
C2982 C 0.53955 0.66736 0.93698 0.0
H2983 H 0.62658 0.78268 0.94309 0.0
H2984 H 0.61084 0.73993 0.94384 0.0
H2985 H 0.6298 0.76178 0.92939 0.0
H2986 H 0.60183 0.71245 0.91679 0.0
H2987 H 0.60652 0.66418 0.91748 0.0
H2988 H 0.44104 0.93178 0.91383 0.0
H2989 H 0.39372 0.87845 0.91428 0.0
H2990 H 0.35827 0.90509 0.94738 0.0
H2991 H 0.40604 0.95873 0.94713 0.0
H2992 H 0.36848 0.8313 0.93502 0.0
H2993 H 0.28541 0.87391 0.91959 0.0
H2994 H 0.32835 0.89787 0.91762 0.0
H2995 H 0.31078 0.89383 0.93322 0.0
C2996 C 0.42327 0.92647 0.92124 0.0
C2997 C 0.42713 0.94992 0.93031 0.0
C2998 C 0.39626 0.89582 0.9215 0.0
C2999 C 0.3723 0.88792 0.93075 0.0
C3000 C 0.37632 0.91088 0.94004 0.0
H3001 H 0.17923 0.72208 0.93283 0.0
H3002 H 0.22919 0.77081 0.93872 0.0
C3003 C 0.40361 0.94157 0.93988 0.0
C3004 C 0.34281 0.85587 0.93033 0.0
H3005 H 0.26299 0.81862 0.92311 0.0
C3006 C 0.34531 0.82844 0.93252 0.0
C3007 C 0.31272 0.85227 0.927 0.0
C3008 C 0.30894 0.88092 0.92412 0.0
C3009 C 0.31841 0.79742 0.93156 0.0
C3010 C 0.28833 0.79373 0.92798 0.0
C3011 C 0.28591 0.82131 0.92592 0.0
C3012 C 0.25917 0.76172 0.92589 0.0
C3013 C 0.32252 0.76904 0.93456 0.0
C3014 C 0.25934 0.73982 0.91695 0.0
C3015 C 0.23085 0.71164 0.9138 0.0
C3016 C 0.20167 0.70511 0.91938 0.0
C3017 C 0.20159 0.7264 0.92858 0.0
C3018 C 0.23007 0.75433 0.93186 0.0
H3019 H 0.34316 0.77582 0.94114 0.0
H3020 H 0.30061 0.74924 0.93903 0.0
H3021 H 0.32742 0.76007 0.92549 0.0
H3022 H 0.28114 0.74526 0.91191 0.0
H3023 H 0.2313 0.69592 0.90644 0.0
H3024 H 0.23228 0.70488 0.43755 0.0
H3025 H 0.21775 0.65093 0.42984 0.0
H3026 H 0.158 0.60942 0.46326 0.0
H3027 H 0.17265 0.66314 0.47095 0.0
H3028 H 0.23246 0.61068 0.44382 0.0
H3029 H 0.10186 0.54936 0.43435 0.0
H3030 H 0.12644 0.59251 0.43531 0.0
H3031 H 0.11262 0.56887 0.44976 0.0
C3032 C 0.21521 0.68412 0.44298 0.0
C3033 C 0.20331 0.68808 0.45477 0.0
C3034 C 0.20706 0.65334 0.43863 0.0
C3035 C 0.18649 0.62598 0.44589 0.0
C3036 C 0.17336 0.62996 0.45734 0.0
H3037 H 0.1841 0.45179 0.45988 0.0
H3038 H 0.18901 0.50442 0.4591 0.0
C3039 C 0.18179 0.66067 0.46175 0.0
C3040 C 0.18184 0.59383 0.44246 0.0
H3041 H 0.12443 0.51523 0.43786 0.0
C3042 C 0.20887 0.58995 0.44228 0.0
C3043 C 0.15112 0.56669 0.44037 0.0
C3044 C 0.12136 0.56954 0.43983 0.0
C3045 C 0.20588 0.55957 0.44074 0.0
C3046 C 0.175 0.53215 0.43945 0.0
C3047 C 0.14808 0.53618 0.43894 0.0
C3048 C 0.17028 0.49913 0.43978 0.0
C3049 C 0.23588 0.55702 0.44078 0.0
C3050 C 0.15703 0.47795 0.42929 0.0
C3051 C 0.1541 0.44739 0.42968 0.0
C3052 C 0.16405 0.43744 0.44063 0.0
C3053 C 0.17641 0.45853 0.45121 0.0
C3054 C 0.17937 0.48884 0.45079 0.0
H3055 H 0.2573 0.58003 0.43796 0.0
H3056 H 0.24006 0.55102 0.45065 0.0
H3057 H 0.23352 0.53786 0.43415 0.0
H3058 H 0.14965 0.48533 0.42071 0.0
H3059 H 0.14473 0.43192 0.42134 0.0
H3060 H 0.5965 0.77416 0.43454 0.0
H3061 H 0.54297 0.72703 0.43545 0.0
H3062 H 0.5835 0.67012 0.44888 0.0
H3063 H 0.63681 0.71775 0.44891 0.0
H3064 H 0.51625 0.67232 0.42308 0.0
H3065 H 0.51556 0.64647 0.47507 0.0
H3066 H 0.54653 0.68293 0.46789 0.0
H3067 H 0.54813 0.64642 0.46677 0.0
C3068 C 0.59406 0.75167 0.4378 0.0
C3069 C 0.62111 0.74969 0.44154 0.0
C3070 C 0.56337 0.72466 0.43825 0.0
C3071 C 0.55898 0.69496 0.44237 0.0
C3072 C 0.58603 0.69283 0.44595 0.0
H3073 H 0.3859 0.50853 0.4533 0.0
H3074 H 0.44083 0.54957 0.44736 0.0
C3075 C 0.61668 0.72003 0.44575 0.0
C3076 C 0.52612 0.66635 0.44282 0.0
H3077 H 0.4725 0.60708 0.46263 0.0
C3078 C 0.50672 0.65808 0.43174 0.0
C3079 C 0.51347 0.64778 0.45414 0.0
C3080 C 0.53187 0.65652 0.46667 0.0
C3081 C 0.47525 0.63181 0.43166 0.0
C3082 C 0.46284 0.61314 0.44291 0.0
C3083 C 0.48227 0.62112 0.45393 0.0
C3084 C 0.429 0.58676 0.4439 0.0
C3085 C 0.45547 0.62422 0.41954 0.0
C3086 C 0.40402 0.59379 0.44354 0.0
C3087 C 0.37281 0.57045 0.44691 0.0
C3088 C 0.36597 0.53963 0.45064 0.0
C3089 C 0.39048 0.53193 0.45019 0.0
C3090 C 0.42184 0.55541 0.44692 0.0
H3091 H 0.47071 0.63543 0.41093 0.0
H3092 H 0.44095 0.5979 0.41799 0.0
H3093 H 0.43875 0.63367 0.42046 0.0
H3094 H 0.40903 0.61791 0.44148 0.0
H3095 H 0.35439 0.57707 0.44743 0.0
H3096 H 0.50295 0.81925 0.45176 0.0
H3097 H 0.45564 0.82328 0.44568 0.0
H3098 H 0.50468 0.92243 0.45749 0.0
H3099 H 0.55171 0.91855 0.46349 0.0
H3100 H 0.41999 0.83915 0.46285 0.0
H3101 H 0.46702 0.92575 0.4225 0.0
H3102 H 0.48645 0.90409 0.42798 0.0
H3103 H 0.49225 0.9391 0.43652 0.0
C3104 C 0.50383 0.84206 0.45278 0.0
C3105 C 0.53107 0.86857 0.45814 0.0
C3106 C 0.47673 0.84431 0.44938 0.0
C3107 C 0.47659 0.87326 0.45103 0.0
C3108 C 0.50425 0.89998 0.45593 0.0
H3109 H 0.33952 0.9415 0.44719 0.0
H3110 H 0.38721 0.93577 0.44961 0.0
C3111 C 0.53109 0.89767 0.45944 0.0
C3112 C 0.44699 0.87519 0.44863 0.0
H3113 H 0.41839 0.91724 0.43215 0.0
C3114 C 0.41952 0.85597 0.45603 0.0
C3115 C 0.44635 0.89727 0.4398 0.0
C3116 C 0.47448 0.91753 0.43115 0.0
C3117 C 0.39193 0.85896 0.45516 0.0
C3118 C 0.39147 0.88141 0.44645 0.0
C3119 C 0.41877 0.90027 0.43891 0.0
C3120 C 0.36268 0.88519 0.44486 0.0
C3121 C 0.36393 0.83873 0.4639 0.0
C3122 C 0.33314 0.85893 0.44117 0.0
C3123 C 0.306 0.86214 0.43981 0.0
C3124 C 0.30764 0.89183 0.44195 0.0
C3125 C 0.33736 0.91834 0.44544 0.0
C3126 C 0.36463 0.91506 0.44683 0.0
H3127 H 0.37142 0.83015 0.47243 0.0
H3128 H 0.35229 0.8523 0.4673 0.0
H3129 H 0.34585 0.81733 0.45853 0.0
H3130 H 0.33103 0.83584 0.43927 0.0
H3131 H 0.28363 0.84113 0.43706 0.0
H3132 H 0.78237 0.83359 0.2431 0.0
H3133 H 0.83521 0.83863 0.24349 0.0
H3134 H 0.82978 0.8286 0.28484 0.0
H3135 H 0.77582 0.82209 0.28442 0.0
H3136 H 0.88764 0.88391 0.25386 0.0
H3137 H 0.8614 0.7684 0.27597 0.0
H3138 H 0.83013 0.7758 0.27047 0.0
H3139 H 0.84963 0.79158 0.28568 0.0
C3140 C 0.7922 0.83209 0.25229 0.0
C3141 C 0.77493 0.82751 0.26374 0.0
C3142 C 0.82251 0.83501 0.2525 0.0
C3143 C 0.83658 0.83379 0.26417 0.0
C3144 C 0.81926 0.8289 0.27566 0.0
H3145 H 0.04478 0.91212 0.26365 0.0
H3146 H 0.99099 0.89959 0.27061 0.0
C3147 C 0.7885 0.8254 0.27543 0.0
C3148 C 0.86999 0.83938 0.26413 0.0
H3149 H 0.91619 0.8063 0.2721 0.0
C3150 C 0.89383 0.86694 0.2579 0.0
C3151 C 0.87815 0.81717 0.26931 0.0
C3152 C 0.85345 0.78643 0.27563 0.0
C3153 C 0.92523 0.87263 0.25648 0.0
C3154 C 0.93355 0.85071 0.26181 0.0
C3155 C 0.9099 0.8233 0.26818 0.0
C3156 C 0.96613 0.855 0.25998 0.0
C3157 C 0.94889 0.90143 0.24878 0.0
C3158 C 0.97014 0.83315 0.25237 0.0
C3159 C 1.00086 0.84012 0.24854 0.0
C3160 C 0.02802 0.86886 0.25238 0.0
C3161 C 0.02419 0.88957 0.26076 0.0
C3162 C 0.99349 0.88258 0.26461 0.0
H3163 H 0.93678 0.91157 0.24291 0.0
H3164 H 0.96575 0.92042 0.25546 0.0
H3165 H 0.9631 0.89508 0.24225 0.0
H3166 H 0.94942 0.81174 0.24868 0.0
H3167 H 1.00326 0.82411 0.24189 0.0
H3168 H 0.26611 0.99274 0.27761 0.0
H3169 H 0.25994 0.04041 0.27863 0.0
H3170 H 0.18561 0.9992 0.24979 0.0
H3171 H 0.19158 0.95206 0.24866 0.0
H3172 H 0.2668 0.08212 0.25747 0.0
H3173 H 0.14418 0.02597 0.27806 0.0
H3174 H 0.16896 0.00768 0.27924 0.0
H3175 H 0.14821 1.00514 0.2645 0.0
C3176 C 0.24839 0.9938 0.27154 0.0
C3177 C 0.22953 0.96858 0.263 0.0
C3178 C 0.24483 0.02102 0.27214 0.0
C3179 C 0.22193 0.02317 0.26443 0.0
C3180 C 0.20298 0.99789 0.25602 0.0
H3181 H 0.16623 0.16237 0.24319 0.0
H3182 H 0.16833 0.11338 0.24782 0.0
C3183 C 0.20668 0.97099 0.25532 0.0
C3184 C 0.21878 0.05239 0.26452 0.0
H3185 H 0.16496 0.07816 0.26913 0.0
C3186 C 0.24471 0.08141 0.26021 0.0
C3187 C 0.18973 0.05128 0.26786 0.0
C3188 C 0.16122 0.02092 0.27278 0.0
C3189 C 0.24214 0.10908 0.25878 0.0
C3190 C 0.21309 0.10806 0.26216 0.0
C3191 C 0.18725 0.07907 0.26661 0.0
C3192 C 0.20894 0.13661 0.26078 0.0
C3193 C 0.27014 0.13873 0.2531 0.0
C3194 C 0.22994 0.1656 0.26701 0.0
C3195 C 0.22871 0.19347 0.26437 0.0
C3196 C 0.206 0.19275 0.25568 0.0
C3197 C 0.18352 0.16335 0.25013 0.0
C3198 C 0.18492 0.13547 0.25269 0.0
H3199 H 0.2866 0.13297 0.24776 0.0
H3200 H 0.26182 0.15111 0.24644 0.0
H3201 H 0.28406 0.15558 0.26098 0.0
H3202 H 0.24816 0.16699 0.27353 0.0
H3203 H 0.24658 0.21597 0.26861 0.0
H3204 H 0.89555 0.023 0.24401 0.0
H3205 H 0.94597 0.07248 0.24918 0.0
H3206 H 0.89262 0.10957 0.26887 0.0
H3207 H 0.84231 0.06052 0.26353 0.0
H3208 H 0.95121 0.13683 0.24068 0.0
H3209 H 0.97432 0.12908 0.29271 0.0
H3210 H 0.9531 0.09381 0.28268 0.0
H3211 H 0.93369 0.11553 0.28764 0.0
C3212 C 0.89477 0.04131 0.24981 0.0
C3213 C 0.86517 0.03793 0.2535 0.0
C3214 C 0.92349 0.06958 0.25269 0.0
C3215 C 0.92301 0.09457 0.25949 0.0
C3216 C 0.89356 0.09043 0.26377 0.0
H3217 H 0.06591 0.29279 0.27874 0.0
H3218 H 0.01868 0.23867 0.27847 0.0
C3219 C 0.86488 0.06244 0.26074 0.0
C3220 C 0.95254 0.12642 0.26072 0.0
H3221 H 1.00791 0.17838 0.28227 0.0
C3222 C 0.96379 0.14587 0.24974 0.0
C3223 C 0.9684 0.13833 0.27261 0.0
C3224 C 0.95702 0.11819 0.28463 0.0
C3225 C 0.99031 0.17709 0.25034 0.0
C3226 C 1.00685 0.18888 0.26218 0.0
C3227 C 0.99542 0.1694 0.2732 0.0
C3228 C 0.0363 0.22109 0.26315 0.0
C3229 C 0.99963 0.19741 0.23832 0.0
C3230 C 0.06241 0.22899 0.25499 0.0
C3231 C 0.08885 0.25997 0.25492 0.0
C3232 C 0.09043 0.28374 0.26327 0.0
C3233 C 0.06527 0.27531 0.27205 0.0
C3234 C 0.03832 0.24428 0.27194 0.0
H3235 H 0.97902 0.18923 0.23159 0.0
H3236 H 1.00878 0.22306 0.24064 0.0
H3237 H 0.01875 0.19536 0.2332 0.0
H3238 H 0.06208 0.21132 0.24845 0.0
H3239 H 0.10791 0.26534 0.24812 0.0
H3240 H 0.8207 0.76884 0.75418 0.0
H3241 H 0.8272 0.82282 0.75311 0.0
H3242 H 0.84501 0.83404 0.79401 0.0
H3243 H 0.83941 0.78103 0.7951 0.0
H3244 H 0.79681 0.85155 0.7647 0.0
H3245 H 0.92346 0.91219 0.78055 0.0
H3246 H 0.902 0.87051 0.77588 0.0
H3247 H 0.8976 0.88233 0.79186 0.0
C3248 C 0.82592 0.78285 0.76293 0.0
C3249 C 0.83002 0.77083 0.77468 0.0
C3250 C 0.82966 0.81368 0.76231 0.0
C3251 C 0.8375 0.8329 0.77342 0.0
C3252 C 0.84005 0.82019 0.78523 0.0
H3253 H 0.82324 0.99687 0.79482 0.0
H3254 H 0.81161 0.9435 0.78786 0.0
C3255 C 0.83665 0.78971 0.78583 0.0
C3256 C 0.8433 0.86631 0.77285 0.0
H3257 H 0.89705 0.94309 0.78192 0.0
C3258 C 0.81889 0.87166 0.7683 0.0
C3259 C 0.87233 0.89274 0.77734 0.0
C3260 C 0.90045 0.88923 0.78155 0.0
C3261 C 0.82217 0.90241 0.76866 0.0
C3262 C 0.85039 0.92842 0.77392 0.0
C3263 C 0.87529 0.92324 0.77795 0.0
C3264 C 0.85418 0.96078 0.77608 0.0
C3265 C 0.79535 0.90669 0.76342 0.0
C3266 C 0.88171 0.98849 0.77165 0.0
C3267 C 0.88832 0.01902 0.77564 0.0
C3268 C 0.86752 0.02238 0.78411 0.0
C3269 C 0.83917 0.99488 0.788 0.0
C3270 C 0.83255 0.96436 0.78402 0.0
H3271 H 0.78123 0.88825 0.75602 0.0
H3272 H 0.77881 0.90395 0.77137 0.0
H3273 H 0.80466 0.93083 0.75909 0.0
H3274 H 0.89892 0.98641 0.76562 0.0
H3275 H 0.91072 0.03983 0.77279 0.0
H3276 H 0.29178 0.07002 0.75632 0.0
H3277 H 0.23737 0.02328 0.7558 0.0
H3278 H 0.21606 0.05284 0.79187 0.0
H3279 H 0.26974 0.09946 0.7924 0.0
H3280 H 0.20731 0.97335 0.77282 0.0
H3281 H 0.14028 0.03873 0.77038 0.0
H3282 H 0.18294 0.05815 0.76755 0.0
H3283 H 0.16757 0.05157 0.78373 0.0
C3284 C 0.27547 0.06661 0.76411 0.0
C3285 C 0.28526 0.08857 0.7744 0.0
C3286 C 0.24434 0.03989 0.76379 0.0
C3287 C 0.2223 0.03484 0.77366 0.0
C3288 C 0.23221 0.05659 0.78397 0.0
H3289 H 0.04363 0.89156 0.80416 0.0
H3290 H 0.09296 0.94028 0.79788 0.0
C3291 C 0.26316 0.08318 0.7843 0.0
C3292 C 0.18938 1.00623 0.77358 0.0
H3293 H 0.11013 0.9835 0.77694 0.0
C3294 C 0.186 0.97553 0.77348 0.0
C3295 C 0.16151 0.00904 0.77446 0.0
C3296 C 0.16319 0.04116 0.77391 0.0
C3297 C 0.15579 0.94771 0.77489 0.0
C3298 C 0.12806 0.9506 0.77623 0.0
C3299 C 0.13133 0.98125 0.7759 0.0
C3300 C 0.09599 0.92241 0.77913 0.0
C3301 C 0.15398 0.91555 0.77559 0.0
C3302 C 0.08049 0.89658 0.77047 0.0
C3303 C 0.05201 0.86876 0.77403 0.0
C3304 C 0.03867 0.86646 0.78627 0.0
C3305 C 0.05332 0.89293 0.79462 0.0
C3306 C 0.08155 0.92069 0.79106 0.0
H3307 H 0.17801 0.91797 0.77686 0.0
H3308 H 0.13837 0.90111 0.78368 0.0
H3309 H 0.1434 0.90215 0.76653 0.0
H3310 H 0.09094 0.89755 0.76114 0.0
H3311 H 0.04136 0.84848 0.7675 0.0
H3312 H 0.14867 0.13419 0.78299 0.0
H3313 H 0.10648 0.14552 0.77646 0.0
H3314 H 0.17328 0.24697 0.77958 0.0
H3315 H 0.21574 0.23556 0.78607 0.0
H3316 H 0.08932 0.1798 0.79431 0.0
H3317 H 0.12043 0.2387 0.74631 0.0
H3318 H 0.13627 0.21389 0.75199 0.0
H3319 H 0.15177 0.25368 0.75824 0.0
C3320 C 0.15466 0.15891 0.78177 0.0
C3321 C 0.18552 0.184 0.78489 0.0
C3322 C 0.1305 0.16538 0.77812 0.0
C3323 C 0.13664 0.19708 0.7775 0.0
C3324 C 0.16805 0.22233 0.77979 0.0
H3325 H 1.00619 0.27357 0.7692 0.0
H3326 H 0.05326 0.26668 0.76963 0.0
C3327 C 0.19236 0.21583 0.78344 0.0
C3328 C 0.10927 0.20313 0.77627 0.0
H3329 H 0.07538 0.23541 0.75683 0.0
C3330 C 0.08622 0.19189 0.7861 0.0
C3331 C 0.10555 0.21942 0.76568 0.0
C3332 C 0.12965 0.23202 0.75488 0.0
C3333 C 0.05962 0.19648 0.78568 0.0
C3334 C 0.05509 0.21172 0.77484 0.0
C3335 C 0.0785 0.22345 0.76508 0.0
C3336 C 0.02629 0.21566 0.77354 0.0
C3337 C 0.03729 0.1857 0.79712 0.0
C3338 C 0.99521 0.18927 0.7751 0.0
C3339 C 0.9685 0.19345 0.77518 0.0
C3340 C 0.97199 0.22388 0.77316 0.0
C3341 C 1.00273 0.24991 0.77071 0.0
C3342 C 0.02967 0.24591 0.771 0.0
H3343 H 0.04971 0.18502 0.80604 0.0
H3344 H 0.02731 0.20175 0.79883 0.0
H3345 H 0.01716 0.16102 0.79537 0.0
H3346 H 0.99159 0.16541 0.77652 0.0
H3347 H 0.94501 0.17285 0.77691 0.0
H3348 H 0.42642 0.1123 0.58749 0.0
H3349 H 0.47926 0.11652 0.58733 0.0
H3350 H 0.52138 0.21214 0.60298 0.0
H3351 H 0.46867 0.20748 0.60374 0.0
H3352 H 0.53258 0.15718 0.57463 0.0
H3353 H 0.55947 0.17474 0.62677 0.0
H3354 H 0.51992 0.16181 0.62044 0.0
H3355 H 0.55017 0.20365 0.62033 0.0
C3356 C 0.44679 0.13389 0.59117 0.0
C3357 C 0.44306 0.15917 0.5959 0.0
C3358 C 0.47708 0.1364 0.59099 0.0
C3359 C 0.50431 0.16433 0.59548 0.0
C3360 C 0.5007 0.1899 0.59989 0.0
H3361 H 0.7084 0.2512 0.59038 0.0
H3362 H 0.65299 0.2354 0.59601 0.0
C3363 C 0.47046 0.18728 0.60019 0.0
C3364 C 0.53673 0.16752 0.59493 0.0
H3365 H 0.60409 0.18795 0.61279 0.0
C3366 C 0.54799 0.16339 0.58303 0.0
C3367 C 0.55701 0.17577 0.60587 0.0
C3368 C 0.54591 0.17893 0.61909 0.0
C3369 C 0.57922 0.16838 0.58166 0.0
C3370 C 0.59971 0.17731 0.59253 0.0
C3371 C 0.58834 0.18095 0.60448 0.0
C3372 C 0.63373 0.18527 0.59136 0.0
C3373 C 0.59051 0.16534 0.56846 0.0
C3374 C 0.64161 0.16204 0.58753 0.0
C3375 C 0.67341 0.17103 0.58444 0.0
C3376 C 0.6977 0.20337 0.58515 0.0
C3377 C 0.69009 0.22611 0.58985 0.0
C3378 C 0.65845 0.21711 0.59301 0.0
H3379 H 0.5741 0.16442 0.56073 0.0
H3380 H 0.61493 0.18577 0.56652 0.0
H3381 H 0.59165 0.14291 0.568 0.0
H3382 H 0.62296 0.13725 0.58635 0.0
H3383 H 0.67863 0.15313 0.58072 0.0
H3384 H 0.92713 0.32753 0.61271 0.0
H3385 H 0.91995 0.37457 0.61318 0.0
H3386 H 0.85674 0.33762 0.58037 0.0
H3387 H 0.86364 0.29107 0.57979 0.0
H3388 H 0.93373 0.4202 0.59359 0.0
H3389 H 0.8045 0.35779 0.60552 0.0
H3390 H 0.82894 0.33942 0.60772 0.0
H3391 H 0.81297 0.3398 0.59209 0.0
C3392 C 0.91175 0.32947 0.6056 0.0
C3393 C 0.89629 0.30564 0.59613 0.0
C3394 C 0.90757 0.35629 0.60591 0.0
C3395 C 0.8874 0.35936 0.59693 0.0
C3396 C 0.87187 0.33549 0.58757 0.0
H3397 H 0.83735 0.48784 0.56362 0.0
H3398 H 0.84406 0.44366 0.57139 0.0
C3399 C 0.87613 0.30895 0.5872 0.0
C3400 C 0.8834 0.38801 0.59679 0.0
H3401 H 0.82604 0.40994 0.59572 0.0
C3402 C 0.91032 0.41816 0.59434 0.0
C3403 C 0.85279 0.38526 0.59776 0.0
C3404 C 0.82321 0.35386 0.60105 0.0
C3405 C 0.90718 0.44526 0.59206 0.0
C3406 C 0.87635 0.44215 0.59241 0.0
C3407 C 0.84964 0.41229 0.59543 0.0
C3408 C 0.87095 0.46869 0.58839 0.0
C3409 C 0.93658 0.47661 0.58859 0.0
C3410 C 0.88319 0.49725 0.59553 0.0
C3411 C 0.87924 0.52262 0.59111 0.0
C3412 C 0.86324 0.51988 0.57942 0.0
C3413 C 0.8502 0.49085 0.57255 0.0
C3414 C 0.85389 0.46553 0.57701 0.0
H3415 H 0.95783 0.47383 0.58688 0.0
H3416 H 0.93204 0.48692 0.57982 0.0
H3417 H 0.94234 0.49399 0.59657 0.0
H3418 H 0.89609 0.50003 0.60443 0.0
H3419 H 0.88956 0.5447 0.59661 0.0
H3420 H 0.51155 0.40152 0.57372 0.0
H3421 H 0.55889 0.45215 0.57982 0.0
H3422 H 0.60576 0.40078 0.59267 0.0
H3423 H 0.5584 0.34981 0.58635 0.0
H3424 H 0.59283 0.47613 0.60303 0.0
H3425 H 0.66821 0.46318 0.56565 0.0
H3426 H 0.62511 0.43812 0.56595 0.0
H3427 H 0.64947 0.43078 0.57699 0.0
C3428 C 0.53187 0.40093 0.57789 0.0
C3429 C 0.53134 0.3716 0.57936 0.0
C3430 C 0.5589 0.42993 0.58143 0.0
C3431 C 0.5862 0.43043 0.58646 0.0
C3432 C 0.58522 0.40109 0.58858 0.0
H3433 H 0.77768 0.59193 0.60193 0.0
H3434 H 0.73008 0.53896 0.59993 0.0
C3435 C 0.55802 0.37193 0.58508 0.0
C3436 C 0.6159 0.46183 0.58889 0.0
H3437 H 0.69305 0.50961 0.57854 0.0
C3438 C 0.61477 0.48341 0.5977 0.0
C3439 C 0.64459 0.47142 0.58194 0.0
C3440 C 0.64705 0.44986 0.57202 0.0
C3441 C 0.64148 0.51416 0.59976 0.0
C3442 C 0.6699 0.52396 0.59261 0.0
C3443 C 0.67122 0.5022 0.58397 0.0
C3444 C 0.69865 0.55658 0.59397 0.0
C3445 C 0.63919 0.53573 0.60973 0.0
C3446 C 0.6971 0.58434 0.59111 0.0
C3447 C 0.72448 0.61486 0.59219 0.0
C3448 C 0.75395 0.61823 0.59615 0.0
C3449 C 0.75541 0.59035 0.5989 0.0
C3450 C 0.72816 0.55994 0.59776 0.0
H3451 H 0.61946 0.52193 0.61667 0.0
H3452 H 0.66204 0.54925 0.61515 0.0
H3453 H 0.63428 0.55332 0.60484 0.0
H3454 H 0.67479 0.58239 0.5879 0.0
H3455 H 0.72255 0.63574 0.58986 0.0
loop_
_geom_bond_atom_site_label_1
_geom_bond_atom_site_label_2
_geom_bond_distance
_geom_bond_site_symmetry_2
_ccdc_geom_bond_type
Tb0 N29 2.622 . S
Tb0 N35 2.572 . S
Tb0 O44 2.465 . S
Tb0 O45 2.387 1_565 S
Tb0 O47 2.428 . S
Tb0 O48 2.308 . S
Tb0 O52 2.349 . S
Tb0 O55 2.393 . S
Tb0 C64 2.802 . S
C1 N2 1.379 . S
C1 C4 1.416 1_545 S
C1 C8 1.424 . S
N2 C1 1.379 . S
N2 C5 1.334 . S
N2 Tb11 2.617 . S
C3 C5 1.390 . S
C3 C6 1.339 1_545 S
C3 H23 0.930 . S
C4 C1 1.416 1_565 S
C4 C6 1.416 . S
C4 C10 1.448 . S
C5 N2 1.334 . S
C5 C3 1.390 . S
C5 H16 0.930 . S
C6 C3 1.339 1_565 S
C6 C4 1.416 . S
C6 H27 0.930 . S
C7 C8 1.413 1_565 S
C7 C9 1.427 . S
C7 C13 1.416 . S
C8 C1 1.424 . S
C8 C7 1.413 1_545 S
C8 N12 1.361 . S
C9 C7 1.427 . S
C9 C10 1.328 . S
C9 H24 0.929 . S
C10 C4 1.448 . S
C10 C9 1.328 . S
C10 H25 0.930 . S
Tb11 N2 2.617 . S
Tb11 N12 2.572 . S
Tb11 O46 2.349 . S
Tb11 O49 2.393 . S
Tb11 O50 2.465 . S
Tb11 O51 2.387 1_545 S
Tb11 O53 2.428 . S
Tb11 O54 2.308 . S
Tb11 C75 2.802 . S
N12 C8 1.361 . S
N12 Tb11 2.572 . S
N12 C14 1.340 . S
C13 C7 1.416 . S
C13 C15 1.332 1_565 S
C13 H21 0.931 . S
C14 N12 1.340 . S
C14 C15 1.407 . S
C14 H20 0.930 . S
C15 C13 1.332 1_545 S
C15 C14 1.407 . S
C15 H17 0.929 . S
H16 C5 0.930 . S
H17 C15 0.929 . S
H18 C33 0.919 1_565 S
H19 C40 0.929 . S
H20 C14 0.930 . S
H21 C13 0.931 . S
H22 C36 0.930 . S
H23 C3 0.930 . S
H24 C9 0.929 . S
H25 C10 0.930 . S
H26 C31 0.930 . S
H27 C6 0.930 . S
H28 C39 0.931 . S
N29 Tb0 2.622 . S
N29 C30 1.372 1_565 S
N29 C33 1.338 1_565 S
C30 N29 1.372 1_545 S
C30 C32 1.416 . S
C30 C38 1.424 . S
C31 H26 0.930 . S
C31 C33 1.399 . S
C31 C34 1.339 . S
C32 C30 1.416 . S
C32 C34 1.416 . S
C32 C65 1.448 . S
C33 H18 0.919 1_545 S
C33 N29 1.338 1_545 S
C33 C31 1.399 . S
C34 C31 1.339 . S
C34 C32 1.416 . S
C34 H41 0.930 . S
N35 Tb0 2.572 . S
N35 C36 1.340 . S
N35 C38 1.361 1_565 S
C36 H22 0.930 . S
C36 N35 1.340 . S
C36 C40 1.407 1_565 S
C37 C38 1.413 . S
C37 C39 1.416 . S
C37 C66 1.427 . S
C38 C30 1.424 . S
C38 N35 1.361 1_545 S
C38 C37 1.413 . S
C39 H28 0.931 . S
C39 C37 1.416 . S
C39 C40 1.332 . S
C40 H19 0.929 . S
C40 C36 1.407 1_545 S
C40 C39 1.332 . S
H41 C34 0.930 . S
H42 C65 0.930 . S
H43 C66 0.929 . S
O44 Tb0 2.465 . S
O44 C64 1.264 . S
O45 Tb0 2.387 1_545 S
O45 C56 1.264 . S
O46 Tb11 2.349 . S
O46 C56 1.243 . S
O47 Tb0 2.428 . S
O47 C64 1.256 . S
O48 Tb0 2.308 . S
O48 C63 1.266 . S
O49 Tb11 2.393 . S
O49 C63 1.248 1_545 S
O50 Tb11 2.465 . S
O50 C75 1.264 . S
O51 Tb11 2.387 1_565 S
O51 C67 1.264 . S
O52 Tb0 2.349 . S
O52 C67 1.243 . S
O53 Tb11 2.428 . S
O53 C75 1.256 . S
O54 Tb11 2.308 . S
O54 C74 1.266 . S
O55 Tb0 2.393 . S
O55 C74 1.248 1_565 S
C56 O45 1.264 . S
C56 O46 1.243 . S
C57 C60 1.399 . S
C57 C62 1.383 . S
C57 C64 1.496 . S
C58 C59 1.399 . S
C58 C62 1.389 . S
C59 C58 1.399 . S
C59 C61 1.380 . S
C59 H76 0.929 . S
C60 C57 1.399 . S
C60 C61 1.392 . S
C60 H77 0.929 . S
C61 C59 1.380 . S
C61 C60 1.392 . S
C61 H78 0.929 . S
C62 C57 1.383 . S
C62 C58 1.389 . S
C62 H79 0.931 . S
C63 O48 1.266 . S
C63 O49 1.248 1_565 S
C64 Tb0 2.802 . S
C64 O44 1.264 . S
C64 O47 1.256 . S
C64 C57 1.496 . S
C65 C32 1.448 . S
C65 H42 0.930 . S
C65 C66 1.328 . S
C66 C37 1.427 . S
C66 H43 0.929 . S
C66 C65 1.328 . S
C67 O51 1.264 . S
C67 O52 1.243 . S
C68 C71 1.399 . S
C68 C72 1.383 . S
C68 C75 1.496 . S
C69 C70 1.399 . S
C69 C72 1.389 . S
C70 C69 1.399 . S
C70 C73 1.380 . S
C70 H80 0.929 . S
C71 C68 1.399 . S
C71 C73 1.392 . S
C71 H81 0.929 . S
C72 C68 1.383 . S
C72 C69 1.389 . S
C72 H82 0.931 . S
C73 C70 1.380 . S
C73 C71 1.392 . S
C73 H83 0.929 . S
C74 O54 1.266 . S
C74 O55 1.248 1_545 S
C75 Tb11 2.802 . S
C75 O50 1.264 . S
C75 O53 1.256 . S
C75 C68 1.496 . S
H76 C59 0.929 . S
H77 C60 0.929 . S
H78 C61 0.929 . S
H79 C62 0.931 . S
H80 C70 0.929 . S
H81 C71 0.929 . S
H82 C72 0.931 . S
H83 C73 0.929 . S
Tb84 N113 2.617 . S
Tb84 N119 2.572 . S
Tb84 O128 2.465 . S
Tb84 O129 2.387 . S
Tb84 O131 2.428 . S
Tb84 O132 2.308 . S
Tb84 O136 2.349 . S
Tb84 O139 2.393 . S
Tb84 C148 2.802 . S
C85 N86 1.379 . S
C85 C88 1.416 . S
C85 C92 1.424 . S
N86 C85 1.379 . S
N86 C89 1.334 . S
N86 Tb95 2.617 . S
C87 C89 1.390 . S
C87 C90 1.339 . S
C87 H107 0.930 . S
C88 C85 1.416 . S
C88 C90 1.416 . S
C88 C94 1.448 . S
C89 N86 1.334 . S
C89 C87 1.390 . S
C89 H100 0.930 . S
C90 C87 1.339 . S
C90 C88 1.416 . S
C90 H111 0.930 . S
C91 C92 1.413 . S
C91 C93 1.427 . S
C91 C97 1.416 . S
C92 C85 1.424 . S
C92 C91 1.413 . S
C92 N96 1.361 . S
C93 C91 1.427 . S
C93 C94 1.328 . S
C93 H108 0.929 . S
C94 C88 1.448 . S
C94 C93 1.328 . S
C94 H109 0.930 . S
Tb95 N86 2.617 . S
Tb95 N96 2.572 . S
Tb95 O130 2.349 1_455 S
Tb95 O133 2.393 . S
Tb95 O134 2.465 1_455 S
Tb95 O135 2.387 . S
Tb95 O137 2.428 1_455 S
Tb95 O138 2.308 . S
Tb95 C159 2.802 1_455 S
N96 C92 1.361 . S
N96 Tb95 2.572 . S
N96 C98 1.340 . S
C97 C91 1.416 . S
C97 C99 1.332 . S
C97 H105 0.931 . S
C98 N96 1.340 . S
C98 C99 1.407 . S
C98 H104 0.930 . S
C99 C97 1.332 . S
C99 C98 1.407 . S
C99 H101 0.929 . S
H100 C89 0.930 . S
H101 C99 0.929 . S
H102 C117 0.930 . S
H103 C124 0.929 . S
H104 C98 0.930 . S
H105 C97 0.931 . S
H106 C120 0.930 . S
H107 C87 0.930 . S
H108 C93 0.929 . S
H109 C94 0.930 . S
H110 C115 0.930 . S
H111 C90 0.930 . S
H112 C123 0.931 . S
N113 Tb84 2.617 . S
N113 C114 1.379 . S
N113 C117 1.334 . S
C114 N113 1.379 . S
C114 C116 1.416 . S
C114 C122 1.424 . S
C115 H110 0.930 . S
C115 C117 1.390 . S
C115 C118 1.339 . S
C116 C114 1.416 . S
C116 C118 1.416 . S
C116 C149 1.448 . S
C117 H102 0.930 . S
C117 N113 1.334 . S
C117 C115 1.390 . S
C118 C115 1.339 . S
C118 C116 1.416 . S
C118 H125 0.930 . S
N119 Tb84 2.572 . S
N119 C120 1.340 . S
N119 C122 1.361 . S
C120 H106 0.930 . S
C120 N119 1.340 . S
C120 C124 1.407 . S
C121 C122 1.413 . S
C121 C123 1.416 . S
C121 C150 1.427 . S
C122 C114 1.424 . S
C122 N119 1.361 . S
C122 C121 1.413 . S
C123 H112 0.931 . S
C123 C121 1.416 . S
C123 C124 1.332 . S
C124 H103 0.929 . S
C124 C120 1.407 . S
C124 C123 1.332 . S
H125 C118 0.930 . S
H126 C149 0.930 1_655 S
H127 C150 0.929 1_655 S
O128 Tb84 2.465 . S
O128 C148 1.264 . S
O129 Tb84 2.387 . S
O129 C140 1.264 1_455 S
O130 Tb95 2.349 1_655 S
O130 C140 1.243 . S
O131 Tb84 2.428 . S
O131 C148 1.256 . S
O132 Tb84 2.308 . S
O132 C147 1.266 . S
O133 Tb95 2.393 . S
O133 C147 1.248 . S
O134 Tb95 2.465 1_655 S
O134 C159 1.264 . S
O135 Tb95 2.387 . S
O135 C151 1.264 . S
O136 Tb84 2.349 . S
O136 C151 1.243 . S
O137 Tb95 2.428 1_655 S
O137 C159 1.256 . S
O138 Tb95 2.308 . S
O138 C158 1.266 . S
O139 Tb84 2.393 . S
O139 C158 1.248 . S
C140 O129 1.264 1_655 S
C140 O130 1.243 . S
C141 C144 1.399 . S
C141 C146 1.383 . S
C141 C148 1.496 . S
C142 C143 1.399 . S
C142 C146 1.389 . S
C143 C142 1.399 . S
C143 C145 1.380 . S
C143 H160 0.929 . S
C144 C141 1.399 . S
C144 C145 1.392 . S
C144 H161 0.929 . S
C145 C143 1.380 . S
C145 C144 1.392 . S
C145 H162 0.929 . S
C146 C141 1.383 . S
C146 C142 1.389 . S
C146 H163 0.931 . S
C147 O132 1.266 . S
C147 O133 1.248 . S
C148 Tb84 2.802 . S
C148 O128 1.264 . S
C148 O131 1.256 . S
C148 C141 1.496 . S
C149 C116 1.448 . S
C149 H126 0.930 1_455 S
C149 C150 1.328 . S
C150 C121 1.427 . S
C150 H127 0.929 1_455 S
C150 C149 1.328 . S
C151 O135 1.264 . S
C151 O136 1.243 . S
C152 C155 1.399 . S
C152 C156 1.383 . S
C152 C159 1.496 . S
C153 C154 1.399 . S
C153 C156 1.389 . S
C154 C153 1.399 . S
C154 C157 1.380 . S
C154 H164 0.929 . S
C155 C152 1.399 . S
C155 C157 1.392 . S
C155 H165 0.929 . S
C156 C152 1.383 . S
C156 C153 1.389 . S
C156 H166 0.931 . S
C157 C154 1.380 . S
C157 C155 1.392 . S
C157 H167 0.929 . S
C158 O138 1.266 . S
C158 O139 1.248 . S
C159 Tb95 2.802 1_655 S
C159 O134 1.264 . S
C159 O137 1.256 . S
C159 C152 1.496 . S
H160 C143 0.929 . S
H161 C144 0.929 . S
H162 C145 0.929 . S
H163 C146 0.931 . S
H164 C154 0.929 . S
H165 C155 0.929 . S
H166 C156 0.931 . S
H167 C157 0.929 . S
Tb168 N197 2.617 . S
Tb168 N203 2.572 . S
Tb168 O212 2.465 . S
Tb168 O213 2.387 . S
Tb168 O215 2.428 . S
Tb168 O216 2.308 . S
Tb168 O220 2.349 . S
Tb168 O223 2.393 . S
Tb168 C232 2.802 . S
C169 N170 1.379 . S
C169 C172 1.416 . S
C169 C176 1.424 . S
N170 C169 1.379 . S
N170 C173 1.334 . S
N170 Tb179 2.617 . S
C171 C173 1.390 . S
C171 C174 1.339 . S
C171 H191 0.930 . S
C172 C169 1.416 . S
C172 C174 1.416 . S
C172 C178 1.448 . S
C173 N170 1.334 . S
C173 C171 1.390 . S
C173 H184 0.930 . S
C174 C171 1.339 . S
C174 C172 1.416 . S
C174 H195 0.930 . S
C175 C176 1.413 . S
C175 C177 1.427 . S
C175 C181 1.416 . S
C176 C169 1.424 . S
C176 C175 1.413 . S
C176 N180 1.361 . S
C177 C175 1.427 . S
C177 C178 1.328 . S
C177 H192 0.929 . S
C178 C172 1.448 . S
C178 C177 1.328 . S
C178 H193 0.930 . S
Tb179 N170 2.617 . S
Tb179 N180 2.572 . S
Tb179 O214 2.349 . S
Tb179 O217 2.393 . S
Tb179 O218 2.465 . S
Tb179 O219 2.387 . S
Tb179 O221 2.428 . S
Tb179 O222 2.308 . S
Tb179 C243 2.802 . S
N180 C176 1.361 . S
N180 Tb179 2.572 . S
N180 C182 1.340 . S
C181 C175 1.416 . S
C181 C183 1.332 . S
C181 H189 0.931 . S
C182 N180 1.340 . S
C182 C183 1.407 . S
C182 H188 0.930 . S
C183 C181 1.332 . S
C183 C182 1.407 . S
C183 H185 0.929 . S
H184 C173 0.930 . S
H185 C183 0.929 . S
H186 C201 0.930 . S
H187 C208 0.929 . S
H188 C182 0.930 . S
H189 C181 0.931 . S
H190 C204 0.930 . S
H191 C171 0.930 . S
H192 C177 0.929 . S
H193 C178 0.930 . S
H194 C199 0.930 . S
H195 C174 0.930 . S
H196 C207 0.931 . S
N197 Tb168 2.617 . S
N197 C198 1.379 . S
N197 C201 1.334 . S
C198 N197 1.379 . S
C198 C200 1.416 . S
C198 C206 1.424 . S
C199 H194 0.930 . S
C199 C201 1.390 . S
C199 C202 1.339 . S
C200 C198 1.416 . S
C200 C202 1.416 . S
C200 C233 1.448 . S
C201 H186 0.930 . S
C201 N197 1.334 . S
C201 C199 1.390 . S
C202 C199 1.339 . S
C202 C200 1.416 . S
C202 H209 0.930 . S
N203 Tb168 2.572 . S
N203 C204 1.340 . S
N203 C206 1.361 . S
C204 H190 0.930 . S
C204 N203 1.340 . S
C204 C208 1.407 . S
C205 C206 1.413 . S
C205 C207 1.416 . S
C205 C234 1.427 . S
C206 C198 1.424 . S
C206 N203 1.361 . S
C206 C205 1.413 . S
C207 H196 0.931 . S
C207 C205 1.416 . S
C207 C208 1.332 . S
C208 H187 0.929 . S
C208 C204 1.407 . S
C208 C207 1.332 . S
H209 C202 0.930 . S
H210 C233 0.930 . S
H211 C234 0.929 . S
O212 Tb168 2.465 . S
O212 C232 1.264 . S
O213 Tb168 2.387 . S
O213 C224 1.264 . S
O214 Tb179 2.349 . S
O214 C224 1.243 . S
O215 Tb168 2.428 . S
O215 C232 1.256 . S
O216 Tb168 2.308 . S
O216 C231 1.266 . S
O217 Tb179 2.393 . S
O217 C231 1.248 . S
O218 Tb179 2.465 . S
O218 C243 1.264 . S
O219 Tb179 2.387 . S
O219 C235 1.264 . S
O220 Tb168 2.349 . S
O220 C235 1.243 . S
O221 Tb179 2.428 . S
O221 C243 1.256 . S
O222 Tb179 2.308 . S
O222 C242 1.266 . S
O223 Tb168 2.393 . S
O223 C242 1.248 . S
C224 O213 1.264 . S
C224 O214 1.243 . S
C225 C228 1.399 . S
C225 C230 1.383 . S
C225 C232 1.496 . S
C226 C227 1.399 . S
C226 C230 1.389 . S
C227 C226 1.399 . S
C227 C229 1.380 . S
C227 H244 0.929 . S
C228 C225 1.399 . S
C228 C229 1.392 . S
C228 H245 0.929 . S
C229 C227 1.380 . S
C229 C228 1.392 . S
C229 H246 0.929 . S
C230 C225 1.383 . S
C230 C226 1.389 . S
C230 H247 0.931 . S
C231 O216 1.266 . S
C231 O217 1.248 . S
C232 Tb168 2.802 . S
C232 O212 1.264 . S
C232 O215 1.256 . S
C232 C225 1.496 . S
C233 C200 1.448 . S
C233 H210 0.930 . S
C233 C234 1.328 . S
C234 C205 1.427 . S
C234 H211 0.929 . S
C234 C233 1.328 . S
C235 O219 1.264 . S
C235 O220 1.243 . S
C236 C239 1.399 . S
C236 C240 1.383 . S
C236 C243 1.496 . S
C237 C238 1.399 . S
C237 C240 1.389 . S
C238 C237 1.399 . S
C238 C241 1.380 . S
C238 H248 0.929 . S
C239 C236 1.399 . S
C239 C241 1.392 . S
C239 H249 0.929 . S
C240 C236 1.383 . S
C240 C237 1.389 . S
C240 H250 0.931 . S
C241 C238 1.380 . S
C241 C239 1.392 . S
C241 H251 0.929 . S
C242 O222 1.266 . S
C242 O223 1.248 . S
C243 Tb179 2.802 . S
C243 O218 1.264 . S
C243 O221 1.256 . S
C243 C236 1.496 . S
H244 C227 0.929 . S
H245 C228 0.929 . S
H246 C229 0.929 . S
H247 C230 0.931 . S
H248 C238 0.929 . S
H249 C239 0.929 . S
H250 C240 0.931 . S
H251 C241 0.929 . S
Tb252 N281 2.622 . S
Tb252 N287 2.572 . S
Tb252 O296 2.465 . S
Tb252 O297 2.387 1_655 S
Tb252 O299 2.428 . S
Tb252 O300 2.308 . S
Tb252 O304 2.349 . S
Tb252 O307 2.393 . S
Tb252 C316 2.802 . S
C253 N254 1.379 . S
C253 C256 1.416 1_455 S
C253 C260 1.424 . S
N254 C253 1.379 . S
N254 C257 1.334 . S
N254 Tb263 2.617 . S
C255 C257 1.390 . S
C255 C258 1.339 1_455 S
C255 H275 0.930 . S
C256 C253 1.416 1_655 S
C256 C258 1.416 . S
C256 C262 1.448 . S
C257 N254 1.334 . S
C257 C255 1.390 . S
C257 H268 0.930 . S
C258 C255 1.339 1_655 S
C258 C256 1.416 . S
C258 H279 0.930 . S
C259 C260 1.413 1_655 S
C259 C261 1.427 . S
C259 C265 1.416 . S
C260 C253 1.424 . S
C260 C259 1.413 1_455 S
C260 N264 1.361 . S
C261 C259 1.427 . S
C261 C262 1.328 . S
C261 H276 0.929 . S
C262 C256 1.448 . S
C262 C261 1.328 . S
C262 H277 0.930 . S
Tb263 N254 2.617 . S
Tb263 N264 2.572 . S
Tb263 O298 2.349 . S
Tb263 O301 2.393 . S
Tb263 O302 2.465 . S
Tb263 O303 2.387 1_455 S
Tb263 O305 2.428 . S
Tb263 O306 2.308 . S
Tb263 C327 2.802 . S
N264 C260 1.361 . S
N264 Tb263 2.572 . S
N264 C266 1.340 . S
C265 C259 1.416 . S
C265 C267 1.332 1_655 S
C265 H273 0.931 . S
C266 N264 1.340 . S
C266 C267 1.407 . S
C266 H272 0.930 . S
C267 C265 1.332 1_455 S
C267 C266 1.407 . S
C267 H269 0.929 . S
H268 C257 0.930 . S
H269 C267 0.929 . S
H270 C285 0.919 1_655 S
H271 C292 0.929 . S
H272 C266 0.930 . S
H273 C265 0.931 . S
H274 C288 0.930 . S
H275 C255 0.930 . S
H276 C261 0.929 . S
H277 C262 0.930 . S
H278 C283 0.930 . S
H279 C258 0.930 . S
H280 C291 0.931 . S
N281 Tb252 2.622 . S
N281 C282 1.372 1_655 S
N281 C285 1.338 1_655 S
C282 N281 1.372 1_455 S
C282 C284 1.416 . S
C282 C290 1.424 . S
C283 H278 0.930 . S
C283 C285 1.399 . S
C283 C286 1.339 . S
C284 C282 1.416 . S
C284 C286 1.416 . S
C284 C317 1.448 . S
C285 H270 0.919 1_455 S
C285 N281 1.338 1_455 S
C285 C283 1.399 . S
C286 C283 1.339 . S
C286 C284 1.416 . S
C286 H293 0.930 . S
N287 Tb252 2.572 . S
N287 C288 1.340 . S
N287 C290 1.361 1_655 S
C288 H274 0.930 . S
C288 N287 1.340 . S
C288 C292 1.407 1_655 S
C289 C290 1.413 . S
C289 C291 1.416 . S
C289 C318 1.427 . S
C290 C282 1.424 . S
C290 N287 1.361 1_455 S
C290 C289 1.413 . S
C291 H280 0.931 . S
C291 C289 1.416 . S
C291 C292 1.332 . S
C292 H271 0.929 . S
C292 C288 1.407 1_455 S
C292 C291 1.332 . S
H293 C286 0.930 . S
H294 C317 0.930 . S
H295 C318 0.929 . S
O296 Tb252 2.465 . S
O296 C316 1.264 . S
O297 Tb252 2.387 1_455 S
O297 C308 1.264 . S
O298 Tb263 2.349 . S
O298 C308 1.243 . S
O299 Tb252 2.428 . S
O299 C316 1.256 . S
O300 Tb252 2.308 . S
O300 C315 1.266 . S
O301 Tb263 2.393 . S
O301 C315 1.248 1_455 S
O302 Tb263 2.465 . S
O302 C327 1.264 . S
O303 Tb263 2.387 1_655 S
O303 C319 1.264 . S
O304 Tb252 2.349 . S
O304 C319 1.243 . S
O305 Tb263 2.428 . S
O305 C327 1.256 . S
O306 Tb263 2.308 . S
O306 C326 1.266 . S
O307 Tb252 2.393 . S
O307 C326 1.248 1_655 S
C308 O297 1.264 . S
C308 O298 1.243 . S
C309 C312 1.399 . S
C309 C314 1.383 . S
C309 C316 1.496 . S
C310 C311 1.399 . S
C310 C314 1.389 . S
C311 C310 1.399 . S
C311 C313 1.380 . S
C311 H328 0.929 . S
C312 C309 1.399 . S
C312 C313 1.392 . S
C312 H329 0.929 . S
C313 C311 1.380 . S
C313 C312 1.392 . S
C313 H330 0.929 . S
C314 C309 1.383 . S
C314 C310 1.389 . S
C314 H331 0.931 . S
C315 O300 1.266 . S
C315 O301 1.248 1_655 S
C316 Tb252 2.802 . S
C316 O296 1.264 . S
C316 O299 1.256 . S
C316 C309 1.496 . S
C317 C284 1.448 . S
C317 H294 0.930 . S
C317 C318 1.328 . S
C318 C289 1.427 . S
C318 H295 0.929 . S
C318 C317 1.328 . S
C319 O303 1.264 . S
C319 O304 1.243 . S
C320 C323 1.399 . S
C320 C324 1.383 . S
C320 C327 1.496 . S
C321 C322 1.399 . S
C321 C324 1.389 . S
C322 C321 1.399 . S
C322 C325 1.380 . S
C322 H332 0.929 . S
C323 C320 1.399 . S
C323 C325 1.392 . S
C323 H333 0.929 . S
C324 C320 1.383 . S
C324 C321 1.389 . S
C324 H334 0.931 . S
C325 C322 1.380 . S
C325 C323 1.392 . S
C325 H335 0.929 . S
C326 O306 1.266 . S
C326 O307 1.248 1_455 S
C327 Tb263 2.802 . S
C327 O302 1.264 . S
C327 O305 1.256 . S
C327 C320 1.496 . S
H328 C311 0.929 . S
H329 C312 0.929 . S
H330 C313 0.929 . S
H331 C314 0.931 . S
H332 C322 0.929 . S
H333 C323 0.929 . S
H334 C324 0.931 . S
H335 C325 0.929 . S
Tb336 N365 2.617 . S
Tb336 N371 2.572 . S
Tb336 O380 2.465 . S
Tb336 O381 2.387 . S
Tb336 O383 2.428 . S
Tb336 O384 2.308 . S
Tb336 O388 2.349 . S
Tb336 O391 2.393 . S
Tb336 C400 2.802 . S
C337 N338 1.379 . S
C337 C340 1.416 . S
C337 C344 1.424 . S
N338 C337 1.379 . S
N338 C341 1.334 . S
N338 Tb347 2.617 . S
C339 C341 1.390 . S
C339 C342 1.339 . S
C339 H359 0.930 . S
C340 C337 1.416 . S
C340 C342 1.416 . S
C340 C346 1.448 . S
C341 N338 1.334 . S
C341 C339 1.390 . S
C341 H352 0.930 . S
C342 C339 1.339 . S
C342 C340 1.416 . S
C342 H363 0.930 . S
C343 C344 1.413 . S
C343 C345 1.427 . S
C343 C349 1.416 . S
C344 C337 1.424 . S
C344 C343 1.413 . S
C344 N348 1.361 . S
C345 C343 1.427 . S
C345 C346 1.328 . S
C345 H360 0.929 . S
C346 C340 1.448 . S
C346 C345 1.328 . S
C346 H361 0.930 . S
Tb347 N338 2.617 . S
Tb347 N348 2.572 . S
Tb347 O382 2.349 . S
Tb347 O385 2.393 . S
Tb347 O386 2.465 . S
Tb347 O387 2.387 . S
Tb347 O389 2.428 . S
Tb347 O390 2.308 . S
Tb347 C411 2.802 . S
N348 C344 1.361 . S
N348 Tb347 2.572 . S
N348 C350 1.340 . S
C349 C343 1.416 . S
C349 C351 1.332 . S
C349 H357 0.931 . S
C350 N348 1.340 . S
C350 C351 1.407 . S
C350 H356 0.930 . S
C351 C349 1.332 . S
C351 C350 1.407 . S
C351 H353 0.929 . S
H352 C341 0.930 . S
H353 C351 0.929 . S
H354 C369 0.930 . S
H355 C376 0.929 . S
H356 C350 0.930 . S
H357 C349 0.931 . S
H358 C372 0.930 . S
H359 C339 0.930 . S
H360 C345 0.929 . S
H361 C346 0.930 . S
H362 C367 0.930 . S
H363 C342 0.930 . S
H364 C375 0.931 . S
N365 Tb336 2.617 . S
N365 C366 1.379 . S
N365 C369 1.334 . S
C366 N365 1.379 . S
C366 C368 1.416 . S
C366 C374 1.424 . S
C367 H362 0.930 . S
C367 C369 1.390 . S
C367 C370 1.339 . S
C368 C366 1.416 . S
C368 C370 1.416 . S
C368 C401 1.448 . S
C369 H354 0.930 . S
C369 N365 1.334 . S
C369 C367 1.390 . S
C370 C367 1.339 . S
C370 C368 1.416 . S
C370 H377 0.930 . S
N371 Tb336 2.572 . S
N371 C372 1.340 . S
N371 C374 1.361 . S
C372 H358 0.930 . S
C372 N371 1.340 . S
C372 C376 1.407 . S
C373 C374 1.413 . S
C373 C375 1.416 . S
C373 C402 1.427 . S
C374 C366 1.424 . S
C374 N371 1.361 . S
C374 C373 1.413 . S
C375 H364 0.931 . S
C375 C373 1.416 . S
C375 C376 1.332 . S
C376 H355 0.929 . S
C376 C372 1.407 . S
C376 C375 1.332 . S
H377 C370 0.930 . S
H378 C401 0.930 . S
H379 C402 0.929 . S
O380 Tb336 2.465 . S
O380 C400 1.264 . S
O381 Tb336 2.387 . S
O381 C392 1.264 . S
O382 Tb347 2.349 . S
O382 C392 1.243 . S
O383 Tb336 2.428 . S
O383 C400 1.256 . S
O384 Tb336 2.308 . S
O384 C399 1.266 . S
O385 Tb347 2.393 . S
O385 C399 1.248 . S
O386 Tb347 2.465 . S
O386 C411 1.264 . S
O387 Tb347 2.387 . S
O387 C403 1.264 . S
O388 Tb336 2.349 . S
O388 C403 1.243 . S
O389 Tb347 2.428 . S
O389 C411 1.256 . S
O390 Tb347 2.308 . S
O390 C410 1.266 . S
O391 Tb336 2.393 . S
O391 C410 1.248 . S
C392 O381 1.264 . S
C392 O382 1.243 . S
C393 C396 1.399 . S
C393 C398 1.383 . S
C393 C400 1.496 . S
C394 C395 1.399 . S
C394 C398 1.389 . S
C395 C394 1.399 . S
C395 C397 1.380 . S
C395 H412 0.929 . S
C396 C393 1.399 . S
C396 C397 1.392 . S
C396 H413 0.929 . S
C397 C395 1.380 . S
C397 C396 1.392 . S
C397 H414 0.929 . S
C398 C393 1.383 . S
C398 C394 1.389 . S
C398 H415 0.931 . S
C399 O384 1.266 . S
C399 O385 1.248 . S
C400 Tb336 2.802 . S
C400 O380 1.264 . S
C400 O383 1.256 . S
C400 C393 1.496 . S
C401 C368 1.448 . S
C401 H378 0.930 . S
C401 C402 1.328 . S
C402 C373 1.427 . S
C402 H379 0.929 . S
C402 C401 1.328 . S
C403 O387 1.264 . S
C403 O388 1.243 . S
C404 C407 1.399 . S
C404 C408 1.383 . S
C404 C411 1.496 . S
C405 C406 1.399 . S
C405 C408 1.389 . S
C406 C405 1.399 . S
C406 C409 1.380 . S
C406 H416 0.929 . S
C407 C404 1.399 . S
C407 C409 1.392 . S
C407 H417 0.929 . S
C408 C404 1.383 . S
C408 C405 1.389 . S
C408 H418 0.931 . S
C409 C406 1.380 . S
C409 C407 1.392 . S
C409 H419 0.929 . S
C410 O390 1.266 . S
C410 O391 1.248 . S
C411 Tb347 2.802 . S
C411 O386 1.264 . S
C411 O389 1.256 . S
C411 C404 1.496 . S
H412 C395 0.929 . S
H413 C396 0.929 . S
H414 C397 0.929 . S
H415 C398 0.931 . S
H416 C406 0.929 . S
H417 C407 0.929 . S
H418 C408 0.931 . S
H419 C409 0.929 . S
Tb420 N449 2.617 . S
Tb420 N455 2.572 . S
Tb420 O464 2.465 . S
Tb420 O465 2.387 . S
Tb420 O467 2.428 . S
Tb420 O468 2.308 . S
Tb420 O472 2.349 . S
Tb420 O475 2.393 . S
Tb420 C484 2.802 . S
C421 N422 1.379 . S
C421 C424 1.416 . S
C421 C428 1.424 . S
N422 C421 1.379 . S
N422 C425 1.334 . S
N422 Tb431 2.617 . S
C423 C425 1.390 . S
C423 C426 1.339 . S
C423 H443 0.930 . S
C424 C421 1.416 . S
C424 C426 1.416 . S
C424 C430 1.448 . S
C425 N422 1.334 . S
C425 C423 1.390 . S
C425 H436 0.930 . S
C426 C423 1.339 . S
C426 C424 1.416 . S
C426 H447 0.930 . S
C427 C428 1.413 . S
C427 C429 1.427 . S
C427 C433 1.416 . S
C428 C421 1.424 . S
C428 C427 1.413 . S
C428 N432 1.361 . S
C429 C427 1.427 . S
C429 C430 1.328 . S
C429 H444 0.929 . S
C430 C424 1.448 . S
C430 C429 1.328 . S
C430 H445 0.930 . S
Tb431 N422 2.617 . S
Tb431 N432 2.572 . S
Tb431 O466 2.349 1_545 S
Tb431 O469 2.393 . S
Tb431 O470 2.465 1_545 S
Tb431 O471 2.387 . S
Tb431 O473 2.428 1_545 S
Tb431 O474 2.308 . S
Tb431 C495 2.802 1_545 S
N432 C428 1.361 . S
N432 Tb431 2.572 . S
N432 C434 1.340 . S
C433 C427 1.416 . S
C433 C435 1.332 . S
C433 H441 0.931 . S
C434 N432 1.340 . S
C434 C435 1.407 . S
C434 H440 0.930 . S
C435 C433 1.332 . S
C435 C434 1.407 . S
C435 H437 0.929 . S
H436 C425 0.930 . S
H437 C435 0.929 . S
H438 C453 0.930 . S
H439 C460 0.929 . S
H440 C434 0.930 . S
H441 C433 0.931 . S
H442 C456 0.930 . S
H443 C423 0.930 . S
H444 C429 0.929 . S
H445 C430 0.930 . S
H446 C451 0.930 . S
H447 C426 0.930 . S
H448 C459 0.931 . S
N449 Tb420 2.617 . S
N449 C450 1.379 . S
N449 C453 1.334 . S
C450 N449 1.379 . S
C450 C452 1.416 . S
C450 C458 1.424 . S
C451 H446 0.930 . S
C451 C453 1.390 . S
C451 C454 1.339 . S
C452 C450 1.416 . S
C452 C454 1.416 . S
C452 C485 1.448 . S
C453 H438 0.930 . S
C453 N449 1.334 . S
C453 C451 1.390 . S
C454 C451 1.339 . S
C454 C452 1.416 . S
C454 H461 0.930 . S
N455 Tb420 2.572 . S
N455 C456 1.340 . S
N455 C458 1.361 . S
C456 H442 0.930 . S
C456 N455 1.340 . S
C456 C460 1.407 . S
C457 C458 1.413 . S
C457 C459 1.416 . S
C457 C486 1.427 . S
C458 C450 1.424 . S
C458 N455 1.361 . S
C458 C457 1.413 . S
C459 H448 0.931 . S
C459 C457 1.416 . S
C459 C460 1.332 . S
C460 H439 0.929 . S
C460 C456 1.407 . S
C460 C459 1.332 . S
H461 C454 0.930 . S
H462 C485 0.930 1_565 S
H463 C486 0.929 1_565 S
O464 Tb420 2.465 . S
O464 C484 1.264 . S
O465 Tb420 2.387 . S
O465 C476 1.264 1_545 S
O466 Tb431 2.349 1_565 S
O466 C476 1.243 . S
O467 Tb420 2.428 . S
O467 C484 1.256 . S
O468 Tb420 2.308 . S
O468 C483 1.266 . S
O469 Tb431 2.393 . S
O469 C483 1.248 . S
O470 Tb431 2.465 1_565 S
O470 C495 1.264 . S
O471 Tb431 2.387 . S
O471 C487 1.264 . S
O472 Tb420 2.349 . S
O472 C487 1.243 . S
O473 Tb431 2.428 1_565 S
O473 C495 1.256 . S
O474 Tb431 2.308 . S
O474 C494 1.266 . S
O475 Tb420 2.393 . S
O475 C494 1.248 . S
C476 O465 1.264 1_565 S
C476 O466 1.243 . S
C477 C480 1.399 . S
C477 C482 1.383 . S
C477 C484 1.496 . S
C478 C479 1.399 . S
C478 C482 1.389 . S
C479 C478 1.399 . S
C479 C481 1.380 . S
C479 H496 0.929 . S
C480 C477 1.399 . S
C480 C481 1.392 . S
C480 H497 0.929 . S
C481 C479 1.380 . S
C481 C480 1.392 . S
C481 H498 0.929 . S
C482 C477 1.383 . S
C482 C478 1.389 . S
C482 H499 0.931 . S
C483 O468 1.266 . S
C483 O469 1.248 . S
C484 Tb420 2.802 . S
C484 O464 1.264 . S
C484 O467 1.256 . S
C484 C477 1.496 . S
C485 C452 1.448 . S
C485 H462 0.930 1_545 S
C485 C486 1.328 . S
C486 C457 1.427 . S
C486 H463 0.929 1_545 S
C486 C485 1.328 . S
C487 O471 1.264 . S
C487 O472 1.243 . S
C488 C491 1.399 . S
C488 C492 1.383 . S
C488 C495 1.496 . S
C489 C490 1.399 . S
C489 C492 1.389 . S
C490 C489 1.399 . S
C490 C493 1.380 . S
C490 H500 0.929 . S
C491 C488 1.399 . S
C491 C493 1.392 . S
C491 H501 0.929 . S
C492 C488 1.383 . S
C492 C489 1.389 . S
C492 H502 0.931 . S
C493 C490 1.380 . S
C493 C491 1.392 . S
C493 H503 0.929 . S
C494 O474 1.266 . S
C494 O475 1.248 . S
C495 Tb431 2.802 1_565 S
C495 O470 1.264 . S
C495 O473 1.256 . S
C495 C488 1.496 . S
H496 C479 0.929 . S
H497 C480 0.929 . S
H498 C481 0.929 . S
H499 C482 0.931 . S
H500 C490 0.929 . S
H501 C491 0.929 . S
H502 C492 0.931 . S
H503 C493 0.929 . S
Tb504 N533 2.617 . S
Tb504 N539 2.572 . S
Tb504 O548 2.465 . S
Tb504 O549 2.387 . S
Tb504 O551 2.428 . S
Tb504 O552 2.308 . S
Tb504 O556 2.349 . S
Tb504 O559 2.393 . S
Tb504 C568 2.802 . S
C505 N506 1.379 . S
C505 C508 1.416 . S
C505 C512 1.424 . S
N506 C505 1.379 . S
N506 C509 1.334 . S
N506 Tb515 2.617 . S
C507 C509 1.390 . S
C507 C510 1.339 . S
C507 H527 0.930 . S
C508 C505 1.416 . S
C508 C510 1.416 . S
C508 C514 1.448 . S
C509 N506 1.334 . S
C509 C507 1.390 . S
C509 H520 0.930 . S
C510 C507 1.339 . S
C510 C508 1.416 . S
C510 H531 0.930 . S
C511 C512 1.413 . S
C511 C513 1.427 . S
C511 C517 1.416 . S
C512 C505 1.424 . S
C512 C511 1.413 . S
C512 N516 1.361 . S
C513 C511 1.427 . S
C513 C514 1.328 . S
C513 H528 0.929 . S
C514 C508 1.448 . S
C514 C513 1.328 . S
C514 H529 0.930 . S
Tb515 N506 2.617 . S
Tb515 N516 2.572 . S
Tb515 O550 2.349 . S
Tb515 O553 2.393 . S
Tb515 O554 2.465 . S
Tb515 O555 2.387 . S
Tb515 O557 2.428 . S
Tb515 O558 2.308 . S
Tb515 C579 2.802 . S
N516 C512 1.361 . S
N516 Tb515 2.572 . S
N516 C518 1.340 . S
C517 C511 1.416 . S
C517 C519 1.332 . S
C517 H525 0.931 . S
C518 N516 1.340 . S
C518 C519 1.407 . S
C518 H524 0.930 . S
C519 C517 1.332 . S
C519 C518 1.407 . S
C519 H521 0.929 . S
H520 C509 0.930 . S
H521 C519 0.929 . S
H522 C537 0.930 . S
H523 C544 0.929 . S
H524 C518 0.930 . S
H525 C517 0.931 . S
H526 C540 0.930 . S
H527 C507 0.930 . S
H528 C513 0.929 . S
H529 C514 0.930 . S
H530 C535 0.930 . S
H531 C510 0.930 . S
H532 C543 0.931 . S
N533 Tb504 2.617 . S
N533 C534 1.379 . S
N533 C537 1.334 . S
C534 N533 1.379 . S
C534 C536 1.416 . S
C534 C542 1.424 . S
C535 H530 0.930 . S
C535 C537 1.390 . S
C535 C538 1.339 . S
C536 C534 1.416 . S
C536 C538 1.416 . S
C536 C569 1.448 . S
C537 H522 0.930 . S
C537 N533 1.334 . S
C537 C535 1.390 . S
C538 C535 1.339 . S
C538 C536 1.416 . S
C538 H545 0.930 . S
N539 Tb504 2.572 . S
N539 C540 1.340 . S
N539 C542 1.361 . S
C540 H526 0.930 . S
C540 N539 1.340 . S
C540 C544 1.407 . S
C541 C542 1.413 . S
C541 C543 1.416 . S
C541 C570 1.427 . S
C542 C534 1.424 . S
C542 N539 1.361 . S
C542 C541 1.413 . S
C543 H532 0.931 . S
C543 C541 1.416 . S
C543 C544 1.332 . S
C544 H523 0.929 . S
C544 C540 1.407 . S
C544 C543 1.332 . S
H545 C538 0.930 . S
H546 C569 0.930 . S
H547 C570 0.929 . S
O548 Tb504 2.465 . S
O548 C568 1.264 . S
O549 Tb504 2.387 . S
O549 C560 1.264 . S
O550 Tb515 2.349 . S
O550 C560 1.243 . S
O551 Tb504 2.428 . S
O551 C568 1.256 . S
O552 Tb504 2.308 . S
O552 C567 1.266 . S
O553 Tb515 2.393 . S
O553 C567 1.248 . S
O554 Tb515 2.465 . S
O554 C579 1.264 . S
O555 Tb515 2.387 . S
O555 C571 1.264 . S
O556 Tb504 2.349 . S
O556 C571 1.243 . S
O557 Tb515 2.428 . S
O557 C579 1.256 . S
O558 Tb515 2.308 . S
O558 C578 1.266 . S
O559 Tb504 2.393 . S
O559 C578 1.248 . S
C560 O549 1.264 . S
C560 O550 1.243 . S
C561 C564 1.399 . S
C561 C566 1.383 . S
C561 C568 1.496 . S
C562 C563 1.395 1_455 S
C562 C566 1.402 . S
C563 C562 1.395 1_655 S
C563 C565 1.380 1_655 S
C563 H580 0.929 . S
C564 C561 1.399 . S
C564 C565 1.392 . S
C564 H581 0.929 . S
C565 C563 1.380 1_455 S
C565 C564 1.392 . S
C565 H582 0.928 1_455 S
C566 C561 1.383 . S
C566 C562 1.402 . S
C566 H583 0.931 . S
C567 O552 1.266 . S
C567 O553 1.248 . S
C568 Tb504 2.802 . S
C568 O548 1.264 . S
C568 O551 1.256 . S
C568 C561 1.496 . S
C569 C536 1.448 . S
C569 H546 0.930 . S
C569 C570 1.328 . S
C570 C541 1.427 . S
C570 H547 0.929 . S
C570 C569 1.328 . S
C571 O555 1.264 . S
C571 O556 1.243 . S
C572 C575 1.399 . S
C572 C576 1.383 . S
C572 C579 1.496 . S
C573 C574 1.399 . S
C573 C576 1.389 . S
C574 C573 1.399 . S
C574 C577 1.380 . S
C574 H584 0.929 . S
C575 C572 1.399 . S
C575 C577 1.392 . S
C575 H585 0.929 . S
C576 C572 1.383 . S
C576 C573 1.389 . S
C576 H586 0.931 . S
C577 C574 1.380 . S
C577 C575 1.392 . S
C577 H587 0.929 . S
C578 O558 1.266 . S
C578 O559 1.248 . S
C579 Tb515 2.802 . S
C579 O554 1.264 . S
C579 O557 1.256 . S
C579 C572 1.496 . S
H580 C563 0.929 . S
H581 C564 0.929 . S
H582 C565 0.928 1_655 S
H583 C566 0.931 . S
H584 C574 0.929 . S
H585 C575 0.929 . S
H586 C576 0.931 . S
H587 C577 0.929 . S
Tb588 N617 2.617 . S
Tb588 N623 2.572 . S
Tb588 O632 2.465 . S
Tb588 O633 2.387 . S
Tb588 O635 2.428 . S
Tb588 O636 2.308 . S
Tb588 O640 2.349 . S
Tb588 O643 2.393 . S
Tb588 C652 2.802 . S
C589 N590 1.379 . S
C589 C592 1.416 . S
C589 C596 1.424 . S
N590 C589 1.379 . S
N590 C593 1.334 . S
N590 Tb599 2.617 . S
C591 C593 1.390 . S
C591 C594 1.339 . S
C591 H611 0.930 . S
C592 C589 1.416 . S
C592 C594 1.416 . S
C592 C598 1.448 . S
C593 N590 1.334 . S
C593 C591 1.390 . S
C593 H604 0.930 . S
C594 C591 1.339 . S
C594 C592 1.416 . S
C594 H615 0.930 . S
C595 C596 1.413 . S
C595 C597 1.427 1_565 S
C595 C601 1.416 . S
C596 C589 1.424 . S
C596 C595 1.413 . S
C596 N600 1.361 . S
C597 C595 1.427 1_545 S
C597 C598 1.328 1_545 S
C597 H612 0.929 . S
C598 C592 1.448 . S
C598 C597 1.328 1_565 S
C598 H613 0.930 1_565 S
Tb599 N590 2.617 . S
Tb599 N600 2.572 . S
Tb599 O634 2.349 . S
Tb599 O637 2.393 . S
Tb599 O638 2.465 . S
Tb599 O639 2.387 . S
Tb599 O641 2.428 . S
Tb599 O642 2.308 . S
Tb599 C663 2.802 . S
N600 C596 1.361 . S
N600 Tb599 2.572 . S
N600 C602 1.340 . S
C601 C595 1.416 . S
C601 C603 1.332 . S
C601 H609 0.931 1_565 S
C602 N600 1.340 . S
C602 C603 1.407 . S
C602 H608 0.930 . S
C603 C601 1.332 . S
C603 C602 1.407 . S
C603 H605 0.929 . S
H604 C593 0.930 . S
H605 C603 0.929 . S
H606 C621 0.930 . S
H607 C628 0.929 . S
H608 C602 0.930 . S
H609 C601 0.931 1_545 S
H610 C624 0.930 . S
H611 C591 0.930 . S
H612 C597 0.929 . S
H613 C598 0.930 1_545 S
H614 C619 0.930 . S
H615 C594 0.930 . S
H616 C627 0.931 . S
N617 Tb588 2.617 . S
N617 C618 1.379 . S
N617 C621 1.334 . S
C618 N617 1.379 . S
C618 C620 1.416 . S
C618 C626 1.424 . S
C619 H614 0.930 . S
C619 C621 1.390 . S
C619 C622 1.339 . S
C620 C618 1.416 . S
C620 C622 1.416 . S
C620 C653 1.448 . S
C621 H606 0.930 . S
C621 N617 1.334 . S
C621 C619 1.390 . S
C622 C619 1.339 . S
C622 C620 1.416 . S
C622 H629 0.930 . S
N623 Tb588 2.572 . S
N623 C624 1.340 . S
N623 C626 1.361 . S
C624 H610 0.930 . S
C624 N623 1.340 . S
C624 C628 1.407 . S
C625 C626 1.413 . S
C625 C627 1.416 . S
C625 C654 1.427 . S
C626 C618 1.424 . S
C626 N623 1.361 . S
C626 C625 1.413 . S
C627 H616 0.931 . S
C627 C625 1.416 . S
C627 C628 1.332 . S
C628 H607 0.929 . S
C628 C624 1.407 . S
C628 C627 1.332 . S
H629 C622 0.930 . S
H630 C653 0.930 . S
H631 C654 0.929 . S
O632 Tb588 2.465 . S
O632 C652 1.264 . S
O633 Tb588 2.387 . S
O633 C644 1.264 . S
O634 Tb599 2.349 . S
O634 C644 1.243 . S
O635 Tb588 2.428 . S
O635 C652 1.256 . S
O636 Tb588 2.308 . S
O636 C651 1.266 . S
O637 Tb599 2.393 . S
O637 C651 1.248 . S
O638 Tb599 2.465 . S
O638 C663 1.264 . S
O639 Tb599 2.387 . S
O639 C655 1.264 . S
O640 Tb588 2.349 . S
O640 C655 1.243 . S
O641 Tb599 2.428 . S
O641 C663 1.256 . S
O642 Tb599 2.308 . S
O642 C662 1.266 . S
O643 Tb588 2.393 . S
O643 C662 1.248 . S
C644 O633 1.264 . S
C644 O634 1.243 . S
C645 C648 1.399 . S
C645 C650 1.383 . S
C645 C652 1.496 . S
C646 C647 1.399 . S
C646 C650 1.389 . S
C647 C646 1.399 . S
C647 C649 1.380 . S
C647 H664 0.929 . S
C648 C645 1.399 . S
C648 C649 1.392 . S
C648 H665 0.929 . S
C649 C647 1.380 . S
C649 C648 1.392 . S
C649 H666 0.929 . S
C650 C645 1.383 . S
C650 C646 1.389 . S
C650 H667 0.931 . S
C651 O636 1.266 . S
C651 O637 1.248 . S
C652 Tb588 2.802 . S
C652 O632 1.264 . S
C652 O635 1.256 . S
C652 C645 1.496 . S
C653 C620 1.448 . S
C653 H630 0.930 . S
C653 C654 1.328 . S
C654 C625 1.427 . S
C654 H631 0.929 . S
C654 C653 1.328 . S
C655 O639 1.264 . S
C655 O640 1.243 . S
C656 C659 1.399 . S
C656 C660 1.383 . S
C656 C663 1.496 . S
C657 C658 1.399 . S
C657 C660 1.389 . S
C658 C657 1.399 . S
C658 C661 1.380 . S
C658 H668 0.929 . S
C659 C656 1.399 . S
C659 C661 1.392 . S
C659 H669 0.929 . S
C660 C656 1.383 . S
C660 C657 1.389 . S
C660 H670 0.931 . S
C661 C658 1.380 . S
C661 C659 1.392 . S
C661 H671 0.929 . S
C662 O642 1.266 . S
C662 O643 1.248 . S
C663 Tb599 2.802 . S
C663 O638 1.264 . S
C663 O641 1.256 . S
C663 C656 1.496 . S
H664 C647 0.929 . S
H665 C648 0.929 . S
H666 C649 0.929 . S
H667 C650 0.931 . S
H668 C658 0.929 . S
H669 C659 0.929 . S
H670 C660 0.931 . S
H671 C661 0.929 . S
Tb672 N701 2.617 . S
Tb672 N707 2.572 . S
Tb672 O716 2.465 . S
Tb672 O717 2.387 . S
Tb672 O719 2.428 . S
Tb672 O720 2.308 . S
Tb672 O724 2.349 . S
Tb672 O727 2.393 . S
Tb672 C736 2.802 . S
C673 N674 1.379 . S
C673 C676 1.416 . S
C673 C680 1.424 . S
N674 C673 1.379 . S
N674 C677 1.334 . S
N674 Tb683 2.617 . S
C675 C677 1.390 . S
C675 C678 1.339 . S
C675 H695 0.930 . S
C676 C673 1.416 . S
C676 C678 1.416 . S
C676 C682 1.448 . S
C677 N674 1.334 . S
C677 C675 1.390 . S
C677 H688 0.930 . S
C678 C675 1.339 . S
C678 C676 1.416 . S
C678 H699 0.930 . S
C679 C680 1.413 . S
C679 C681 1.427 . S
C679 C685 1.416 . S
C680 C673 1.424 . S
C680 C679 1.413 . S
C680 N684 1.361 . S
C681 C679 1.427 . S
C681 C682 1.328 . S
C681 H696 0.929 . S
C682 C676 1.448 . S
C682 C681 1.328 . S
C682 H697 0.930 . S
Tb683 N674 2.617 . S
Tb683 N684 2.572 . S
Tb683 O718 2.349 . S
Tb683 O721 2.393 . S
Tb683 O722 2.465 . S
Tb683 O723 2.387 . S
Tb683 O725 2.428 . S
Tb683 O726 2.308 . S
Tb683 C747 2.802 . S
N684 C680 1.361 . S
N684 Tb683 2.572 . S
N684 C686 1.340 . S
C685 C679 1.416 . S
C685 C687 1.332 . S
C685 H693 0.931 . S
C686 N684 1.340 . S
C686 C687 1.407 . S
C686 H692 0.930 . S
C687 C685 1.332 . S
C687 C686 1.407 . S
C687 H689 0.929 . S
H688 C677 0.930 . S
H689 C687 0.929 . S
H690 C705 0.930 . S
H691 C712 0.929 . S
H692 C686 0.930 . S
H693 C685 0.931 . S
H694 C708 0.930 . S
H695 C675 0.930 . S
H696 C681 0.929 . S
H697 C682 0.930 . S
H698 C703 0.930 . S
H699 C678 0.930 . S
H700 C711 0.931 1_545 S
N701 Tb672 2.617 . S
N701 C702 1.379 . S
N701 C705 1.334 . S
C702 N701 1.379 . S
C702 C704 1.416 . S
C702 C710 1.424 . S
C703 H698 0.930 . S
C703 C705 1.390 . S
C703 C706 1.339 . S
C704 C702 1.416 . S
C704 C706 1.416 . S
C704 C737 1.448 . S
C705 H690 0.930 . S
C705 N701 1.334 . S
C705 C703 1.390 . S
C706 C703 1.339 . S
C706 C704 1.416 . S
C706 H713 0.930 . S
N707 Tb672 2.572 . S
N707 C708 1.340 . S
N707 C710 1.361 . S
C708 H694 0.930 . S
C708 N707 1.340 . S
C708 C712 1.407 . S
C709 C710 1.413 . S
C709 C711 1.416 . S
C709 C738 1.426 . S
C710 C702 1.424 . S
C710 N707 1.361 . S
C710 C709 1.413 . S
C711 H700 0.931 1_565 S
C711 C709 1.416 . S
C711 C712 1.332 . S
C712 H691 0.929 . S
C712 C708 1.407 . S
C712 C711 1.332 . S
H713 C706 0.930 . S
H714 C737 0.930 . S
H715 C738 0.928 1_545 S
O716 Tb672 2.465 . S
O716 C736 1.264 . S
O717 Tb672 2.387 . S
O717 C728 1.264 . S
O718 Tb683 2.349 . S
O718 C728 1.243 . S
O719 Tb672 2.428 . S
O719 C736 1.256 . S
O720 Tb672 2.308 . S
O720 C735 1.266 . S
O721 Tb683 2.393 . S
O721 C735 1.248 . S
O722 Tb683 2.465 . S
O722 C747 1.264 . S
O723 Tb683 2.387 . S
O723 C739 1.264 . S
O724 Tb672 2.349 . S
O724 C739 1.243 . S
O725 Tb683 2.428 . S
O725 C747 1.256 . S
O726 Tb683 2.308 . S
O726 C746 1.266 . S
O727 Tb672 2.393 . S
O727 C746 1.248 . S
C728 O717 1.264 . S
C728 O718 1.243 . S
C729 C732 1.399 1_565 S
C729 C734 1.383 1_565 S
C729 C736 1.496 . S
C730 C731 1.399 . S
C730 C734 1.389 . S
C731 C730 1.399 . S
C731 C733 1.380 . S
C731 H748 0.929 . S
C732 C729 1.399 1_545 S
C732 C733 1.392 . S
C732 H749 0.929 1_545 S
C733 C731 1.380 . S
C733 C732 1.392 . S
C733 H750 0.929 . S
C734 C729 1.383 1_545 S
C734 C730 1.389 . S
C734 H751 0.931 . S
C735 O720 1.266 . S
C735 O721 1.248 . S
C736 Tb672 2.802 . S
C736 O716 1.264 . S
C736 O719 1.256 . S
C736 C729 1.496 . S
C737 C704 1.448 . S
C737 H714 0.930 . S
C737 C738 1.330 . S
C738 C709 1.426 . S
C738 H715 0.928 1_565 S
C738 C737 1.330 . S
C739 O723 1.264 . S
C739 O724 1.243 . S
C740 C743 1.399 . S
C740 C744 1.383 . S
C740 C747 1.496 . S
C741 C742 1.399 . S
C741 C744 1.389 . S
C742 C741 1.399 . S
C742 C745 1.380 . S
C742 H752 0.929 . S
C743 C740 1.399 . S
C743 C745 1.392 . S
C743 H753 0.929 . S
C744 C740 1.383 . S
C744 C741 1.389 . S
C744 H754 0.931 . S
C745 C742 1.380 . S
C745 C743 1.392 . S
C745 H755 0.929 . S
C746 O726 1.266 . S
C746 O727 1.248 . S
C747 Tb683 2.802 . S
C747 O722 1.264 . S
C747 O725 1.256 . S
C747 C740 1.496 . S
H748 C731 0.929 . S
H749 C732 0.929 1_565 S
H750 C733 0.929 . S
H751 C734 0.931 . S
H752 C742 0.929 . S
H753 C743 0.929 . S
H754 C744 0.931 . S
H755 C745 0.929 . S
Tb756 N785 2.617 . S
Tb756 N791 2.572 . S
Tb756 O800 2.465 . S
Tb756 O801 2.387 . S
Tb756 O803 2.428 . S
Tb756 O804 2.308 . S
Tb756 O808 2.349 . S
Tb756 O811 2.393 . S
Tb756 C820 2.802 . S
C757 N758 1.379 . S
C757 C760 1.416 . S
C757 C764 1.424 . S
N758 C757 1.379 . S
N758 C761 1.334 . S
N758 Tb767 2.617 . S
C759 C761 1.390 . S
C759 C762 1.339 . S
C759 H779 0.930 . S
C760 C757 1.416 . S
C760 C762 1.416 . S
C760 C766 1.448 . S
C761 N758 1.334 . S
C761 C759 1.390 . S
C761 H772 0.930 . S
C762 C759 1.339 . S
C762 C760 1.416 . S
C762 H783 0.930 . S
C763 C764 1.413 . S
C763 C765 1.427 . S
C763 C769 1.416 . S
C764 C757 1.424 . S
C764 C763 1.413 . S
C764 N768 1.361 . S
C765 C763 1.427 . S
C765 C766 1.328 . S
C765 H780 0.929 . S
C766 C760 1.448 . S
C766 C765 1.328 . S
C766 H781 0.930 . S
Tb767 N758 2.617 . S
Tb767 N768 2.572 . S
Tb767 O802 2.349 . S
Tb767 O805 2.393 . S
Tb767 O806 2.465 . S
Tb767 O807 2.387 . S
Tb767 O809 2.428 . S
Tb767 O810 2.308 . S
Tb767 C831 2.802 . S
N768 C764 1.361 . S
N768 Tb767 2.572 . S
N768 C770 1.340 . S
C769 C763 1.416 . S
C769 C771 1.332 . S
C769 H777 0.931 . S
C770 N768 1.340 . S
C770 C771 1.407 . S
C770 H776 0.930 . S
C771 C769 1.332 . S
C771 C770 1.407 . S
C771 H773 0.929 . S
H772 C761 0.930 . S
H773 C771 0.929 . S
H774 C789 0.930 . S
H775 C796 0.929 . S
H776 C770 0.930 . S
H777 C769 0.931 . S
H778 C792 0.930 . S
H779 C759 0.930 . S
H780 C765 0.929 . S
H781 C766 0.930 . S
H782 C787 0.930 . S
H783 C762 0.930 . S
H784 C795 0.931 . S
N785 Tb756 2.617 . S
N785 C786 1.379 . S
N785 C789 1.334 . S
C786 N785 1.379 . S
C786 C788 1.416 . S
C786 C794 1.424 . S
C787 H782 0.930 . S
C787 C789 1.390 . S
C787 C790 1.339 . S
C788 C786 1.416 . S
C788 C790 1.416 . S
C788 C821 1.448 . S
C789 H774 0.930 . S
C789 N785 1.334 . S
C789 C787 1.390 . S
C790 C787 1.339 . S
C790 C788 1.416 . S
C790 H797 0.930 . S
N791 Tb756 2.572 . S
N791 C792 1.340 . S
N791 C794 1.361 . S
C792 H778 0.930 . S
C792 N791 1.340 . S
C792 C796 1.407 . S
C793 C794 1.413 . S
C793 C795 1.416 . S
C793 C822 1.427 . S
C794 C786 1.424 . S
C794 N791 1.361 . S
C794 C793 1.413 . S
C795 H784 0.931 . S
C795 C793 1.416 . S
C795 C796 1.332 . S
C796 H775 0.929 . S
C796 C792 1.407 . S
C796 C795 1.332 . S
H797 C790 0.930 . S
H798 C821 0.930 . S
H799 C822 0.929 . S
O800 Tb756 2.465 . S
O800 C820 1.264 . S
O801 Tb756 2.387 . S
O801 C812 1.264 . S
O802 Tb767 2.349 . S
O802 C812 1.243 . S
O803 Tb756 2.428 . S
O803 C820 1.256 . S
O804 Tb756 2.308 . S
O804 C819 1.266 . S
O805 Tb767 2.393 . S
O805 C819 1.248 . S
O806 Tb767 2.465 . S
O806 C831 1.264 . S
O807 Tb767 2.387 . S
O807 C823 1.264 . S
O808 Tb756 2.349 . S
O808 C823 1.243 . S
O809 Tb767 2.428 . S
O809 C831 1.256 . S
O810 Tb767 2.308 . S
O810 C830 1.266 . S
O811 Tb756 2.393 . S
O811 C830 1.248 . S
C812 O801 1.264 . S
C812 O802 1.243 . S
C813 C816 1.399 . S
C813 C818 1.383 . S
C813 C820 1.496 . S
C814 C815 1.399 . S
C814 C818 1.389 . S
C815 C814 1.399 . S
C815 C817 1.380 . S
C815 H832 0.929 . S
C816 C813 1.399 . S
C816 C817 1.392 . S
C816 H833 0.929 . S
C817 C815 1.380 . S
C817 C816 1.392 . S
C817 H834 0.929 . S
C818 C813 1.383 . S
C818 C814 1.389 . S
C818 H835 0.931 . S
C819 O804 1.266 . S
C819 O805 1.248 . S
C820 Tb756 2.802 . S
C820 O800 1.264 . S
C820 O803 1.256 . S
C820 C813 1.496 . S
C821 C788 1.448 . S
C821 H798 0.930 . S
C821 C822 1.328 . S
C822 C793 1.427 . S
C822 H799 0.929 . S
C822 C821 1.328 . S
C823 O807 1.264 . S
C823 O808 1.243 . S
C824 C827 1.399 . S
C824 C828 1.383 . S
C824 C831 1.496 . S
C825 C826 1.399 . S
C825 C828 1.389 1_545 S
C826 C825 1.399 . S
C826 C829 1.381 1_545 S
C826 H836 0.929 . S
C827 C824 1.399 . S
C827 C829 1.391 . S
C827 H837 0.929 . S
C828 C824 1.383 . S
C828 C825 1.389 1_565 S
C828 H838 0.931 . S
C829 C826 1.381 1_565 S
C829 C827 1.391 . S
C829 H839 0.930 1_565 S
C830 O810 1.266 . S
C830 O811 1.248 . S
C831 Tb767 2.802 . S
C831 O806 1.264 . S
C831 O809 1.256 . S
C831 C824 1.496 . S
H832 C815 0.929 . S
H833 C816 0.929 . S
H834 C817 0.929 . S
H835 C818 0.931 . S
H836 C826 0.929 . S
H837 C827 0.929 . S
H838 C828 0.931 . S
H839 C829 0.930 1_545 S
Tb840 N869 2.617 . S
Tb840 N875 2.572 . S
Tb840 O884 2.465 . S
Tb840 O885 2.387 . S
Tb840 O887 2.428 . S
Tb840 O888 2.308 . S
Tb840 O892 2.349 . S
Tb840 O895 2.393 . S
Tb840 C904 2.802 . S
C841 N842 1.379 . S
C841 C844 1.416 . S
C841 C848 1.424 . S
N842 C841 1.379 . S
N842 C845 1.334 . S
N842 Tb851 2.617 . S
C843 C845 1.390 . S
C843 C846 1.339 . S
C843 H863 0.930 . S
C844 C841 1.416 . S
C844 C846 1.416 . S
C844 C850 1.448 . S
C845 N842 1.334 . S
C845 C843 1.390 . S
C845 H856 0.930 . S
C846 C843 1.339 . S
C846 C844 1.416 . S
C846 H867 0.930 . S
C847 C848 1.413 . S
C847 C849 1.427 . S
C847 C853 1.416 . S
C848 C841 1.424 . S
C848 C847 1.413 . S
C848 N852 1.361 . S
C849 C847 1.427 . S
C849 C850 1.328 . S
C849 H864 0.929 . S
C850 C844 1.448 . S
C850 C849 1.328 . S
C850 H865 0.930 . S
Tb851 N842 2.617 . S
Tb851 N852 2.572 . S
Tb851 O886 2.349 . S
Tb851 O889 2.393 . S
Tb851 O890 2.465 . S
Tb851 O891 2.387 . S
Tb851 O893 2.428 . S
Tb851 O894 2.308 . S
Tb851 C915 2.802 . S
N852 C848 1.361 . S
N852 Tb851 2.572 . S
N852 C854 1.340 . S
C853 C847 1.416 . S
C853 C855 1.332 . S
C853 H861 0.931 . S
C854 N852 1.340 . S
C854 C855 1.407 . S
C854 H860 0.930 . S
C855 C853 1.332 . S
C855 C854 1.407 . S
C855 H857 0.929 . S
H856 C845 0.930 . S
H857 C855 0.929 . S
H858 C873 0.930 . S
H859 C880 0.929 . S
H860 C854 0.930 . S
H861 C853 0.931 . S
H862 C876 0.930 . S
H863 C843 0.930 . S
H864 C849 0.929 . S
H865 C850 0.930 . S
H866 C871 0.930 . S
H867 C846 0.930 . S
H868 C879 0.931 . S
N869 Tb840 2.617 . S
N869 C870 1.379 . S
N869 C873 1.334 . S
C870 N869 1.379 . S
C870 C872 1.416 . S
C870 C878 1.424 . S
C871 H866 0.930 . S
C871 C873 1.390 . S
C871 C874 1.339 . S
C872 C870 1.416 . S
C872 C874 1.416 . S
C872 C905 1.448 1_565 S
C873 H858 0.930 . S
C873 N869 1.334 . S
C873 C871 1.390 . S
C874 C871 1.339 . S
C874 C872 1.416 . S
C874 H881 0.930 . S
N875 Tb840 2.572 . S
N875 C876 1.340 . S
N875 C878 1.361 . S
C876 H862 0.930 . S
C876 N875 1.340 . S
C876 C880 1.407 . S
C877 C878 1.413 . S
C877 C879 1.416 1_565 S
C877 C906 1.427 1_565 S
C878 C870 1.424 . S
C878 N875 1.361 . S
C878 C877 1.413 . S
C879 H868 0.931 . S
C879 C877 1.416 1_545 S
C879 C880 1.332 1_545 S
C880 H859 0.929 . S
C880 C876 1.407 . S
C880 C879 1.332 1_565 S
H881 C874 0.930 . S
H882 C905 0.930 . S
H883 C906 0.929 . S
O884 Tb840 2.465 . S
O884 C904 1.264 . S
O885 Tb840 2.387 . S
O885 C896 1.264 . S
O886 Tb851 2.349 . S
O886 C896 1.243 . S
O887 Tb840 2.428 . S
O887 C904 1.256 . S
O888 Tb840 2.308 . S
O888 C903 1.266 . S
O889 Tb851 2.393 . S
O889 C903 1.248 . S
O890 Tb851 2.465 . S
O890 C915 1.264 . S
O891 Tb851 2.387 . S
O891 C907 1.264 . S
O892 Tb840 2.349 . S
O892 C907 1.243 . S
O893 Tb851 2.428 . S
O893 C915 1.256 . S
O894 Tb851 2.308 . S
O894 C914 1.266 . S
O895 Tb840 2.393 . S
O895 C914 1.248 . S
C896 O885 1.264 . S
C896 O886 1.243 . S
C897 C900 1.399 . S
C897 C902 1.383 . S
C897 C904 1.496 . S
C898 C899 1.399 . S
C898 C902 1.389 . S
C899 C898 1.399 . S
C899 C901 1.380 . S
C899 H916 0.929 . S
C900 C897 1.399 . S
C900 C901 1.392 . S
C900 H917 0.929 . S
C901 C899 1.380 . S
C901 C900 1.392 . S
C901 H918 0.929 . S
C902 C897 1.383 . S
C902 C898 1.389 . S
C902 H919 0.931 . S
C903 O888 1.266 . S
C903 O889 1.248 . S
C904 Tb840 2.802 . S
C904 O884 1.264 . S
C904 O887 1.256 . S
C904 C897 1.496 . S
C905 C872 1.448 1_545 S
C905 H882 0.930 . S
C905 C906 1.328 . S
C906 C877 1.427 1_545 S
C906 H883 0.929 . S
C906 C905 1.328 . S
C907 O891 1.264 . S
C907 O892 1.243 . S
C908 C911 1.399 . S
C908 C912 1.383 . S
C908 C915 1.496 . S
C909 C910 1.399 . S
C909 C912 1.389 . S
C910 C909 1.399 . S
C910 C913 1.380 . S
C910 H920 0.929 . S
C911 C908 1.399 . S
C911 C913 1.392 . S
C911 H921 0.929 . S
C912 C908 1.383 . S
C912 C909 1.389 . S
C912 H922 0.931 . S
C913 C910 1.380 . S
C913 C911 1.392 . S
C913 H923 0.929 . S
C914 O894 1.266 . S
C914 O895 1.248 . S
C915 Tb851 2.802 . S
C915 O890 1.264 . S
C915 O893 1.256 . S
C915 C908 1.496 . S
H916 C899 0.929 . S
H917 C900 0.929 . S
H918 C901 0.929 . S
H919 C902 0.931 . S
H920 C910 0.929 . S
H921 C911 0.929 . S
H922 C912 0.931 . S
H923 C913 0.929 . S
Tb924 N953 2.617 . S
Tb924 N959 2.572 . S
Tb924 O968 2.465 . S
Tb924 O969 2.387 . S
Tb924 O971 2.428 . S
Tb924 O972 2.308 . S
Tb924 O976 2.349 . S
Tb924 O979 2.393 . S
Tb924 C988 2.802 . S
C925 N926 1.379 . S
C925 C928 1.416 . S
C925 C932 1.424 . S
N926 C925 1.379 . S
N926 C929 1.334 . S
N926 Tb935 2.617 . S
C927 C929 1.390 . S
C927 C930 1.339 . S
C927 H947 0.930 . S
C928 C925 1.416 . S
C928 C930 1.416 . S
C928 C934 1.448 . S
C929 N926 1.334 . S
C929 C927 1.390 . S
C929 H940 0.930 . S
C930 C927 1.339 . S
C930 C928 1.416 . S
C930 H951 0.930 . S
C931 C932 1.413 . S
C931 C933 1.427 . S
C931 C937 1.416 . S
C932 C925 1.424 . S
C932 C931 1.413 . S
C932 N936 1.361 . S
C933 C931 1.427 . S
C933 C934 1.328 . S
C933 H948 0.929 . S
C934 C928 1.448 . S
C934 C933 1.328 . S
C934 H949 0.930 . S
Tb935 N926 2.617 . S
Tb935 N936 2.572 . S
Tb935 O970 2.349 . S
Tb935 O973 2.393 . S
Tb935 O974 2.465 . S
Tb935 O975 2.387 . S
Tb935 O977 2.428 . S
Tb935 O978 2.308 . S
Tb935 C999 2.802 . S
N936 C932 1.361 . S
N936 Tb935 2.572 . S
N936 C938 1.340 . S
C937 C931 1.416 . S
C937 C939 1.332 . S
C937 H945 0.931 . S
C938 N936 1.340 . S
C938 C939 1.407 . S
C938 H944 0.930 . S
C939 C937 1.332 . S
C939 C938 1.407 . S
C939 H941 0.929 . S
H940 C929 0.930 . S
H941 C939 0.929 . S
H942 C957 0.930 . S
H943 C964 0.929 . S
H944 C938 0.930 . S
H945 C937 0.931 . S
H946 C960 0.930 . S
H947 C927 0.930 . S
H948 C933 0.929 . S
H949 C934 0.930 . S
H950 C955 0.930 . S
H951 C930 0.930 . S
H952 C963 0.931 . S
N953 Tb924 2.617 . S
N953 C954 1.379 . S
N953 C957 1.334 . S
C954 N953 1.379 . S
C954 C956 1.416 . S
C954 C962 1.424 . S
C955 H950 0.930 . S
C955 C957 1.390 . S
C955 C958 1.339 . S
C956 C954 1.416 . S
C956 C958 1.416 . S
C956 C989 1.448 . S
C957 H942 0.930 . S
C957 N953 1.334 . S
C957 C955 1.390 . S
C958 C955 1.339 . S
C958 C956 1.416 . S
C958 H965 0.930 . S
N959 Tb924 2.572 . S
N959 C960 1.340 . S
N959 C962 1.361 . S
C960 H946 0.930 . S
C960 N959 1.340 . S
C960 C964 1.407 . S
C961 C962 1.413 . S
C961 C963 1.416 . S
C961 C990 1.427 . S
C962 C954 1.424 . S
C962 N959 1.361 . S
C962 C961 1.413 . S
C963 H952 0.931 . S
C963 C961 1.416 . S
C963 C964 1.332 . S
C964 H943 0.929 . S
C964 C960 1.407 . S
C964 C963 1.332 . S
H965 C958 0.930 . S
H966 C989 0.930 . S
H967 C990 0.929 . S
O968 Tb924 2.465 . S
O968 C988 1.264 . S
O969 Tb924 2.387 . S
O969 C980 1.264 . S
O970 Tb935 2.349 . S
O970 C980 1.243 . S
O971 Tb924 2.428 . S
O971 C988 1.256 . S
O972 Tb924 2.308 . S
O972 C987 1.266 . S
O973 Tb935 2.393 . S
O973 C987 1.248 . S
O974 Tb935 2.465 . S
O974 C999 1.264 . S
O975 Tb935 2.387 . S
O975 C991 1.264 . S
O976 Tb924 2.349 . S
O976 C991 1.243 . S
O977 Tb935 2.428 . S
O977 C999 1.256 . S
O978 Tb935 2.308 . S
O978 C998 1.266 . S
O979 Tb924 2.393 . S
O979 C998 1.248 . S
C980 O969 1.264 . S
C980 O970 1.243 . S
C981 C984 1.399 . S
C981 C986 1.383 . S
C981 C988 1.496 . S
C982 C983 1.399 . S
C982 C986 1.389 . S
C983 C982 1.399 . S
C983 C985 1.380 . S
C983 H1000 0.929 . S
C984 C981 1.399 . S
C984 C985 1.392 . S
C984 H1001 0.929 . S
C985 C983 1.380 . S
C985 C984 1.392 . S
C985 H1002 0.929 . S
C986 C981 1.383 . S
C986 C982 1.389 . S
C986 H1003 0.931 . S
C987 O972 1.266 . S
C987 O973 1.248 . S
C988 Tb924 2.802 . S
C988 O968 1.264 . S
C988 O971 1.256 . S
C988 C981 1.496 . S
C989 C956 1.448 . S
C989 H966 0.930 . S
C989 C990 1.328 . S
C990 C961 1.427 . S
C990 H967 0.929 . S
C990 C989 1.328 . S
C991 O975 1.264 . S
C991 O976 1.243 . S
C992 C995 1.399 . S
C992 C996 1.383 . S
C992 C999 1.496 . S
C993 C994 1.399 . S
C993 C996 1.389 . S
C994 C993 1.399 . S
C994 C997 1.380 . S
C994 H1004 0.929 . S
C995 C992 1.399 . S
C995 C997 1.392 . S
C995 H1005 0.929 . S
C996 C992 1.383 . S
C996 C993 1.389 . S
C996 H1006 0.931 . S
C997 C994 1.380 . S
C997 C995 1.392 . S
C997 H1007 0.929 . S
C998 O978 1.266 . S
C998 O979 1.248 . S
C999 Tb935 2.802 . S
C999 O974 1.264 . S
C999 O977 1.256 . S
C999 C992 1.496 . S
H1000 C983 0.929 . S
H1001 C984 0.929 . S
H1002 C985 0.929 . S
H1003 C986 0.931 . S
H1004 C994 0.929 . S
H1005 C995 0.929 . S
H1006 C996 0.931 . S
H1007 C997 0.929 . S
Tb1008 N1037 2.617 . S
Tb1008 N1043 2.572 . S
Tb1008 O1052 2.465 . S
Tb1008 O1053 2.387 . S
Tb1008 O1055 2.428 . S
Tb1008 O1056 2.308 . S
Tb1008 O1060 2.349 . S
Tb1008 O1063 2.393 . S
Tb1008 C1072 2.802 . S
C1009 N1010 1.379 . S
C1009 C1012 1.416 . S
C1009 C1016 1.424 . S
N1010 C1009 1.379 . S
N1010 C1013 1.334 . S
N1010 Tb1019 2.617 . S
C1011 C1013 1.390 . S
C1011 C1014 1.339 . S
C1011 H1031 0.930 . S
C1012 C1009 1.416 . S
C1012 C1014 1.416 . S
C1012 C1018 1.448 . S
C1013 N1010 1.334 . S
C1013 C1011 1.390 . S
C1013 H1024 0.930 . S
C1014 C1011 1.339 . S
C1014 C1012 1.416 . S
C1014 H1035 0.930 . S
C1015 C1016 1.413 . S
C1015 C1017 1.427 . S
C1015 C1021 1.416 . S
C1016 C1009 1.424 . S
C1016 C1015 1.413 . S
C1016 N1020 1.361 . S
C1017 C1015 1.427 . S
C1017 C1018 1.328 . S
C1017 H1032 0.929 . S
C1018 C1012 1.448 . S
C1018 C1017 1.328 . S
C1018 H1033 0.930 . S
Tb1019 N1010 2.617 . S
Tb1019 N1020 2.572 . S
Tb1019 O1054 2.349 . S
Tb1019 O1057 2.393 . S
Tb1019 O1058 2.465 . S
Tb1019 O1059 2.387 . S
Tb1019 O1061 2.428 . S
Tb1019 O1062 2.308 . S
Tb1019 C1083 2.802 . S
N1020 C1016 1.361 . S
N1020 Tb1019 2.572 . S
N1020 C1022 1.340 . S
C1021 C1015 1.416 . S
C1021 C1023 1.332 . S
C1021 H1029 0.931 . S
C1022 N1020 1.340 . S
C1022 C1023 1.407 . S
C1022 H1028 0.930 . S
C1023 C1021 1.332 . S
C1023 C1022 1.407 . S
C1023 H1025 0.929 . S
H1024 C1013 0.930 . S
H1025 C1023 0.929 . S
H1026 C1041 0.930 . S
H1027 C1048 0.929 . S
H1028 C1022 0.930 . S
H1029 C1021 0.931 . S
H1030 C1044 0.930 . S
H1031 C1011 0.930 . S
H1032 C1017 0.929 . S
H1033 C1018 0.930 . S
H1034 C1039 0.930 . S
H1035 C1014 0.930 . S
H1036 C1047 0.931 . S
N1037 Tb1008 2.617 . S
N1037 C1038 1.379 . S
N1037 C1041 1.334 . S
C1038 N1037 1.379 . S
C1038 C1040 1.416 . S
C1038 C1046 1.424 . S
C1039 H1034 0.930 . S
C1039 C1041 1.390 . S
C1039 C1042 1.339 . S
C1040 C1038 1.416 . S
C1040 C1042 1.416 . S
C1040 C1073 1.448 . S
C1041 H1026 0.930 . S
C1041 N1037 1.334 . S
C1041 C1039 1.390 . S
C1042 C1039 1.339 . S
C1042 C1040 1.416 . S
C1042 H1049 0.930 . S
N1043 Tb1008 2.572 . S
N1043 C1044 1.340 . S
N1043 C1046 1.361 . S
C1044 H1030 0.930 . S
C1044 N1043 1.340 . S
C1044 C1048 1.407 . S
C1045 C1046 1.413 . S
C1045 C1047 1.416 . S
C1045 C1074 1.427 . S
C1046 C1038 1.424 . S
C1046 N1043 1.361 . S
C1046 C1045 1.413 . S
C1047 H1036 0.931 . S
C1047 C1045 1.416 . S
C1047 C1048 1.332 . S
C1048 H1027 0.929 . S
C1048 C1044 1.407 . S
C1048 C1047 1.332 . S
H1049 C1042 0.930 . S
H1050 C1073 0.930 . S
H1051 C1074 0.929 . S
O1052 Tb1008 2.465 . S
O1052 C1072 1.264 . S
O1053 Tb1008 2.387 . S
O1053 C1064 1.264 . S
O1054 Tb1019 2.349 . S
O1054 C1064 1.243 . S
O1055 Tb1008 2.428 . S
O1055 C1072 1.256 . S
O1056 Tb1008 2.308 . S
O1056 C1071 1.266 . S
O1057 Tb1019 2.393 . S
O1057 C1071 1.248 . S
O1058 Tb1019 2.465 . S
O1058 C1083 1.264 . S
O1059 Tb1019 2.387 . S
O1059 C1075 1.264 . S
O1060 Tb1008 2.349 . S
O1060 C1075 1.243 . S
O1061 Tb1019 2.428 . S
O1061 C1083 1.256 . S
O1062 Tb1019 2.308 . S
O1062 C1082 1.266 . S
O1063 Tb1008 2.393 . S
O1063 C1082 1.248 . S
C1064 O1053 1.264 . S
C1064 O1054 1.243 . S
C1065 C1068 1.399 . S
C1065 C1070 1.383 . S
C1065 C1072 1.496 . S
C1066 C1067 1.399 . S
C1066 C1070 1.389 . S
C1067 C1066 1.399 . S
C1067 C1069 1.380 . S
C1067 H1084 0.929 . S
C1068 C1065 1.399 . S
C1068 C1069 1.392 . S
C1068 H1085 0.929 . S
C1069 C1067 1.380 . S
C1069 C1068 1.392 . S
C1069 H1086 0.929 . S
C1070 C1065 1.383 . S
C1070 C1066 1.389 . S
C1070 H1087 0.931 . S
C1071 O1056 1.266 . S
C1071 O1057 1.248 . S
C1072 Tb1008 2.802 . S
C1072 O1052 1.264 . S
C1072 O1055 1.256 . S
C1072 C1065 1.496 . S
C1073 C1040 1.448 . S
C1073 H1050 0.930 . S
C1073 C1074 1.328 . S
C1074 C1045 1.427 . S
C1074 H1051 0.929 . S
C1074 C1073 1.328 . S
C1075 O1059 1.264 . S
C1075 O1060 1.243 . S
C1076 C1079 1.399 . S
C1076 C1080 1.383 . S
C1076 C1083 1.496 . S
C1077 C1078 1.399 . S
C1077 C1080 1.389 1_455 S
C1078 C1077 1.399 . S
C1078 C1081 1.381 1_455 S
C1078 H1088 0.929 . S
C1079 C1076 1.399 . S
C1079 C1081 1.391 . S
C1079 H1089 0.929 . S
C1080 C1076 1.383 . S
C1080 C1077 1.389 1_655 S
C1080 H1090 0.931 . S
C1081 C1078 1.381 1_655 S
C1081 C1079 1.391 . S
C1081 H1091 0.930 1_655 S
C1082 O1062 1.266 . S
C1082 O1063 1.248 . S
C1083 Tb1019 2.802 . S
C1083 O1058 1.264 . S
C1083 O1061 1.256 . S
C1083 C1076 1.496 . S
H1084 C1067 0.929 . S
H1085 C1068 0.929 . S
H1086 C1069 0.929 . S
H1087 C1070 0.931 . S
H1088 C1078 0.929 . S
H1089 C1079 0.929 . S
H1090 C1080 0.931 . S
H1091 C1081 0.930 1_455 S
Tb1092 N1121 2.617 . S
Tb1092 N1127 2.572 . S
Tb1092 O1136 2.465 . S
Tb1092 O1137 2.387 . S
Tb1092 O1139 2.428 . S
Tb1092 O1140 2.308 . S
Tb1092 O1144 2.349 . S
Tb1092 O1147 2.393 . S
Tb1092 C1156 2.802 . S
C1093 N1094 1.379 . S
C1093 C1096 1.416 . S
C1093 C1100 1.424 . S
N1094 C1093 1.379 . S
N1094 C1097 1.334 . S
N1094 Tb1103 2.617 . S
C1095 C1097 1.390 . S
C1095 C1098 1.339 . S
C1095 H1115 0.930 . S
C1096 C1093 1.416 . S
C1096 C1098 1.416 . S
C1096 C1102 1.448 . S
C1097 N1094 1.334 . S
C1097 C1095 1.390 . S
C1097 H1108 0.930 . S
C1098 C1095 1.339 . S
C1098 C1096 1.416 . S
C1098 H1119 0.930 . S
C1099 C1100 1.413 . S
C1099 C1101 1.427 . S
C1099 C1105 1.416 . S
C1100 C1093 1.424 . S
C1100 C1099 1.413 . S
C1100 N1104 1.361 . S
C1101 C1099 1.427 . S
C1101 C1102 1.328 . S
C1101 H1116 0.929 . S
C1102 C1096 1.448 . S
C1102 C1101 1.328 . S
C1102 H1117 0.930 . S
Tb1103 N1094 2.617 . S
Tb1103 N1104 2.572 . S
Tb1103 O1138 2.349 . S
Tb1103 O1141 2.393 . S
Tb1103 O1142 2.465 . S
Tb1103 O1143 2.387 . S
Tb1103 O1145 2.428 . S
Tb1103 O1146 2.308 . S
Tb1103 C1167 2.802 . S
N1104 C1100 1.361 . S
N1104 Tb1103 2.572 . S
N1104 C1106 1.340 . S
C1105 C1099 1.416 . S
C1105 C1107 1.332 . S
C1105 H1113 0.931 . S
C1106 N1104 1.340 . S
C1106 C1107 1.407 . S
C1106 H1112 0.930 . S
C1107 C1105 1.332 . S
C1107 C1106 1.407 . S
C1107 H1109 0.929 . S
H1108 C1097 0.930 . S
H1109 C1107 0.929 . S
H1110 C1125 0.930 . S
H1111 C1132 0.929 . S
H1112 C1106 0.930 . S
H1113 C1105 0.931 . S
H1114 C1128 0.930 . S
H1115 C1095 0.930 . S
H1116 C1101 0.929 . S
H1117 C1102 0.930 . S
H1118 C1123 0.930 . S
H1119 C1098 0.930 . S
H1120 C1131 0.931 . S
N1121 Tb1092 2.617 . S
N1121 C1122 1.379 . S
N1121 C1125 1.334 . S
C1122 N1121 1.379 . S
C1122 C1124 1.416 . S
C1122 C1130 1.424 . S
C1123 H1118 0.930 . S
C1123 C1125 1.390 . S
C1123 C1126 1.339 . S
C1124 C1122 1.416 . S
C1124 C1126 1.416 . S
C1124 C1157 1.448 . S
C1125 H1110 0.930 . S
C1125 N1121 1.334 . S
C1125 C1123 1.390 . S
C1126 C1123 1.339 . S
C1126 C1124 1.416 . S
C1126 H1133 0.930 . S
N1127 Tb1092 2.572 . S
N1127 C1128 1.340 . S
N1127 C1130 1.361 . S
C1128 H1114 0.930 . S
C1128 N1127 1.340 . S
C1128 C1132 1.407 . S
C1129 C1130 1.413 . S
C1129 C1131 1.416 . S
C1129 C1158 1.427 . S
C1130 C1122 1.424 . S
C1130 N1127 1.361 . S
C1130 C1129 1.413 . S
C1131 H1120 0.931 . S
C1131 C1129 1.416 . S
C1131 C1132 1.332 . S
C1132 H1111 0.929 . S
C1132 C1128 1.407 . S
C1132 C1131 1.332 . S
H1133 C1126 0.930 . S
H1134 C1157 0.930 . S
H1135 C1158 0.929 . S
O1136 Tb1092 2.465 . S
O1136 C1156 1.264 . S
O1137 Tb1092 2.387 . S
O1137 C1148 1.264 . S
O1138 Tb1103 2.349 . S
O1138 C1148 1.243 . S
O1139 Tb1092 2.428 . S
O1139 C1156 1.256 . S
O1140 Tb1092 2.308 . S
O1140 C1155 1.266 . S
O1141 Tb1103 2.393 . S
O1141 C1155 1.248 . S
O1142 Tb1103 2.465 . S
O1142 C1167 1.264 . S
O1143 Tb1103 2.387 . S
O1143 C1159 1.264 . S
O1144 Tb1092 2.349 . S
O1144 C1159 1.243 . S
O1145 Tb1103 2.428 . S
O1145 C1167 1.256 . S
O1146 Tb1103 2.308 . S
O1146 C1166 1.266 . S
O1147 Tb1092 2.393 . S
O1147 C1166 1.248 . S
C1148 O1137 1.264 . S
C1148 O1138 1.243 . S
C1149 C1152 1.399 . S
C1149 C1154 1.383 . S
C1149 C1156 1.496 . S
C1150 C1151 1.399 . S
C1150 C1154 1.389 . S
C1151 C1150 1.399 . S
C1151 C1153 1.380 . S
C1151 H1168 0.929 . S
C1152 C1149 1.399 . S
C1152 C1153 1.392 . S
C1152 H1169 0.929 . S
C1153 C1151 1.380 . S
C1153 C1152 1.392 . S
C1153 H1170 0.929 . S
C1154 C1149 1.383 . S
C1154 C1150 1.389 . S
C1154 H1171 0.931 . S
C1155 O1140 1.266 . S
C1155 O1141 1.248 . S
C1156 Tb1092 2.802 . S
C1156 O1136 1.264 . S
C1156 O1139 1.256 . S
C1156 C1149 1.496 . S
C1157 C1124 1.448 . S
C1157 H1134 0.930 . S
C1157 C1158 1.328 . S
C1158 C1129 1.427 . S
C1158 H1135 0.929 . S
C1158 C1157 1.328 . S
C1159 O1143 1.264 . S
C1159 O1144 1.243 . S
C1160 C1163 1.399 . S
C1160 C1164 1.383 . S
C1160 C1167 1.496 . S
C1161 C1162 1.399 . S
C1161 C1164 1.389 . S
C1162 C1161 1.399 . S
C1162 C1165 1.380 . S
C1162 H1172 0.929 . S
C1163 C1160 1.399 . S
C1163 C1165 1.392 . S
C1163 H1173 0.929 . S
C1164 C1160 1.383 . S
C1164 C1161 1.389 . S
C1164 H1174 0.931 . S
C1165 C1162 1.380 . S
C1165 C1163 1.392 . S
C1165 H1175 0.929 . S
C1166 O1146 1.266 . S
C1166 O1147 1.248 . S
C1167 Tb1103 2.802 . S
C1167 O1142 1.264 . S
C1167 O1145 1.256 . S
C1167 C1160 1.496 . S
H1168 C1151 0.929 . S
H1169 C1152 0.929 . S
H1170 C1153 0.929 . S
H1171 C1154 0.931 . S
H1172 C1162 0.929 . S
H1173 C1163 0.929 . S
H1174 C1164 0.931 . S
H1175 C1165 0.929 . S
Tb1176 N1205 2.617 . S
Tb1176 N1211 2.572 . S
Tb1176 O1220 2.465 . S
Tb1176 O1221 2.387 . S
Tb1176 O1223 2.428 . S
Tb1176 O1224 2.308 . S
Tb1176 O1228 2.349 . S
Tb1176 O1231 2.393 . S
Tb1176 C1240 2.802 . S
C1177 N1178 1.379 . S
C1177 C1180 1.416 . S
C1177 C1184 1.424 . S
N1178 C1177 1.379 . S
N1178 C1181 1.334 . S
N1178 Tb1187 2.617 . S
C1179 C1181 1.390 . S
C1179 C1182 1.339 . S
C1179 H1199 0.930 . S
C1180 C1177 1.416 . S
C1180 C1182 1.416 . S
C1180 C1186 1.448 . S
C1181 N1178 1.334 . S
C1181 C1179 1.390 . S
C1181 H1192 0.930 . S
C1182 C1179 1.339 . S
C1182 C1180 1.416 . S
C1182 H1203 0.930 . S
C1183 C1184 1.413 . S
C1183 C1185 1.427 . S
C1183 C1189 1.416 . S
C1184 C1177 1.424 . S
C1184 C1183 1.413 . S
C1184 N1188 1.361 . S
C1185 C1183 1.427 . S
C1185 C1186 1.328 . S
C1185 H1200 0.929 . S
C1186 C1180 1.448 . S
C1186 C1185 1.328 . S
C1186 H1201 0.930 . S
Tb1187 N1178 2.617 . S
Tb1187 N1188 2.572 . S
Tb1187 O1222 2.349 . S
Tb1187 O1225 2.393 . S
Tb1187 O1226 2.465 . S
Tb1187 O1227 2.387 . S
Tb1187 O1229 2.428 . S
Tb1187 O1230 2.308 . S
Tb1187 C1251 2.802 . S
N1188 C1184 1.361 . S
N1188 Tb1187 2.572 . S
N1188 C1190 1.340 . S
C1189 C1183 1.416 . S
C1189 C1191 1.332 . S
C1189 H1197 0.931 . S
C1190 N1188 1.340 . S
C1190 C1191 1.407 . S
C1190 H1196 0.930 . S
C1191 C1189 1.332 . S
C1191 C1190 1.407 . S
C1191 H1193 0.929 . S
H1192 C1181 0.930 . S
H1193 C1191 0.929 . S
H1194 C1209 0.930 . S
H1195 C1216 0.929 . S
H1196 C1190 0.930 . S
H1197 C1189 0.931 . S
H1198 C1212 0.930 . S
H1199 C1179 0.930 . S
H1200 C1185 0.929 . S
H1201 C1186 0.930 . S
H1202 C1207 0.930 . S
H1203 C1182 0.930 . S
H1204 C1215 0.931 . S
N1205 Tb1176 2.617 . S
N1205 C1206 1.379 . S
N1205 C1209 1.334 . S
C1206 N1205 1.379 . S
C1206 C1208 1.416 . S
C1206 C1214 1.424 . S
C1207 H1202 0.930 . S
C1207 C1209 1.390 . S
C1207 C1210 1.339 . S
C1208 C1206 1.416 . S
C1208 C1210 1.416 . S
C1208 C1241 1.448 1_655 S
C1209 H1194 0.930 . S
C1209 N1205 1.334 . S
C1209 C1207 1.390 . S
C1210 C1207 1.339 . S
C1210 C1208 1.416 . S
C1210 H1217 0.930 . S
N1211 Tb1176 2.572 . S
N1211 C1212 1.340 . S
N1211 C1214 1.361 . S
C1212 H1198 0.930 . S
C1212 N1211 1.340 . S
C1212 C1216 1.407 . S
C1213 C1214 1.413 . S
C1213 C1215 1.416 1_655 S
C1213 C1242 1.427 1_655 S
C1214 C1206 1.424 . S
C1214 N1211 1.361 . S
C1214 C1213 1.413 . S
C1215 H1204 0.931 . S
C1215 C1213 1.416 1_455 S
C1215 C1216 1.332 1_455 S
C1216 H1195 0.929 . S
C1216 C1212 1.407 . S
C1216 C1215 1.332 1_655 S
H1217 C1210 0.930 . S
H1218 C1241 0.930 . S
H1219 C1242 0.929 . S
O1220 Tb1176 2.465 . S
O1220 C1240 1.264 . S
O1221 Tb1176 2.387 . S
O1221 C1232 1.264 . S
O1222 Tb1187 2.349 . S
O1222 C1232 1.243 . S
O1223 Tb1176 2.428 . S
O1223 C1240 1.256 . S
O1224 Tb1176 2.308 . S
O1224 C1239 1.266 . S
O1225 Tb1187 2.393 . S
O1225 C1239 1.248 . S
O1226 Tb1187 2.465 . S
O1226 C1251 1.264 . S
O1227 Tb1187 2.387 . S
O1227 C1243 1.264 . S
O1228 Tb1176 2.349 . S
O1228 C1243 1.243 . S
O1229 Tb1187 2.428 . S
O1229 C1251 1.256 . S
O1230 Tb1187 2.308 . S
O1230 C1250 1.266 . S
O1231 Tb1176 2.393 . S
O1231 C1250 1.248 . S
C1232 O1221 1.264 . S
C1232 O1222 1.243 . S
C1233 C1236 1.399 . S
C1233 C1238 1.383 . S
C1233 C1240 1.496 . S
C1234 C1235 1.399 . S
C1234 C1238 1.389 . S
C1235 C1234 1.399 . S
C1235 C1237 1.380 . S
C1235 H1252 0.929 . S
C1236 C1233 1.399 . S
C1236 C1237 1.392 . S
C1236 H1253 0.929 . S
C1237 C1235 1.380 . S
C1237 C1236 1.392 . S
C1237 H1254 0.929 . S
C1238 C1233 1.383 . S
C1238 C1234 1.389 . S
C1238 H1255 0.931 . S
C1239 O1224 1.266 . S
C1239 O1225 1.248 . S
C1240 Tb1176 2.802 . S
C1240 O1220 1.264 . S
C1240 O1223 1.256 . S
C1240 C1233 1.496 . S
C1241 C1208 1.448 1_455 S
C1241 H1218 0.930 . S
C1241 C1242 1.328 . S
C1242 C1213 1.427 1_455 S
C1242 H1219 0.929 . S
C1242 C1241 1.328 . S
C1243 O1227 1.264 . S
C1243 O1228 1.243 . S
C1244 C1247 1.399 . S
C1244 C1248 1.383 . S
C1244 C1251 1.496 . S
C1245 C1246 1.399 . S
C1245 C1248 1.389 . S
C1246 C1245 1.399 . S
C1246 C1249 1.380 . S
C1246 H1256 0.929 . S
C1247 C1244 1.399 . S
C1247 C1249 1.392 . S
C1247 H1257 0.929 . S
C1248 C1244 1.383 . S
C1248 C1245 1.389 . S
C1248 H1258 0.931 . S
C1249 C1246 1.380 . S
C1249 C1247 1.392 . S
C1249 H1259 0.929 . S
C1250 O1230 1.266 . S
C1250 O1231 1.248 . S
C1251 Tb1187 2.802 . S
C1251 O1226 1.264 . S
C1251 O1229 1.256 . S
C1251 C1244 1.496 . S
H1252 C1235 0.929 . S
H1253 C1236 0.929 . S
H1254 C1237 0.929 . S
H1255 C1238 0.931 . S
H1256 C1246 0.929 . S
H1257 C1247 0.929 . S
H1258 C1248 0.931 . S
H1259 C1249 0.929 . S
Tb1260 N1289 2.617 . S
Tb1260 N1295 2.572 . S
Tb1260 O1304 2.465 . S
Tb1260 O1305 2.387 . S
Tb1260 O1307 2.428 . S
Tb1260 O1308 2.308 . S
Tb1260 O1312 2.349 . S
Tb1260 O1315 2.393 . S
Tb1260 C1324 2.802 . S
C1261 N1262 1.379 . S
C1261 C1264 1.416 . S
C1261 C1268 1.424 . S
N1262 C1261 1.379 . S
N1262 C1265 1.334 . S
N1262 Tb1271 2.617 . S
C1263 C1265 1.390 . S
C1263 C1266 1.339 . S
C1263 H1283 0.930 . S
C1264 C1261 1.416 . S
C1264 C1266 1.416 . S
C1264 C1270 1.448 . S
C1265 N1262 1.334 . S
C1265 C1263 1.390 . S
C1265 H1276 0.930 . S
C1266 C1263 1.339 . S
C1266 C1264 1.416 . S
C1266 H1287 0.930 . S
C1267 C1268 1.413 . S
C1267 C1269 1.427 . S
C1267 C1273 1.416 . S
C1268 C1261 1.424 . S
C1268 C1267 1.413 . S
C1268 N1272 1.361 . S
C1269 C1267 1.427 . S
C1269 C1270 1.328 . S
C1269 H1284 0.929 . S
C1270 C1264 1.448 . S
C1270 C1269 1.328 . S
C1270 H1285 0.930 . S
Tb1271 N1262 2.617 . S
Tb1271 N1272 2.572 . S
Tb1271 O1306 2.349 . S
Tb1271 O1309 2.393 . S
Tb1271 O1310 2.465 . S
Tb1271 O1311 2.387 . S
Tb1271 O1313 2.428 . S
Tb1271 O1314 2.308 . S
Tb1271 C1335 2.802 . S
N1272 C1268 1.361 . S
N1272 Tb1271 2.572 . S
N1272 C1274 1.340 . S
C1273 C1267 1.416 . S
C1273 C1275 1.332 . S
C1273 H1281 0.931 . S
C1274 N1272 1.340 . S
C1274 C1275 1.407 . S
C1274 H1280 0.930 . S
C1275 C1273 1.332 . S
C1275 C1274 1.407 . S
C1275 H1277 0.929 . S
H1276 C1265 0.930 . S
H1277 C1275 0.929 . S
H1278 C1293 0.930 . S
H1279 C1300 0.929 . S
H1280 C1274 0.930 . S
H1281 C1273 0.931 . S
H1282 C1296 0.930 . S
H1283 C1263 0.930 . S
H1284 C1269 0.929 . S
H1285 C1270 0.930 . S
H1286 C1291 0.930 . S
H1287 C1266 0.930 . S
H1288 C1299 0.931 . S
N1289 Tb1260 2.617 . S
N1289 C1290 1.379 . S
N1289 C1293 1.334 . S
C1290 N1289 1.379 . S
C1290 C1292 1.416 . S
C1290 C1298 1.424 . S
C1291 H1286 0.930 . S
C1291 C1293 1.390 . S
C1291 C1294 1.339 . S
C1292 C1290 1.416 . S
C1292 C1294 1.416 . S
C1292 C1325 1.448 . S
C1293 H1278 0.930 . S
C1293 N1289 1.334 . S
C1293 C1291 1.390 . S
C1294 C1291 1.339 . S
C1294 C1292 1.416 . S
C1294 H1301 0.930 . S
N1295 Tb1260 2.572 . S
N1295 C1296 1.340 . S
N1295 C1298 1.361 . S
C1296 H1282 0.930 . S
C1296 N1295 1.340 . S
C1296 C1300 1.407 . S
C1297 C1298 1.413 . S
C1297 C1299 1.416 . S
C1297 C1326 1.427 . S
C1298 C1290 1.424 . S
C1298 N1295 1.361 . S
C1298 C1297 1.413 . S
C1299 H1288 0.931 . S
C1299 C1297 1.416 . S
C1299 C1300 1.332 . S
C1300 H1279 0.929 . S
C1300 C1296 1.407 . S
C1300 C1299 1.332 . S
H1301 C1294 0.930 . S
H1302 C1325 0.930 . S
H1303 C1326 0.929 . S
O1304 Tb1260 2.465 . S
O1304 C1324 1.264 . S
O1305 Tb1260 2.387 . S
O1305 C1316 1.264 . S
O1306 Tb1271 2.349 . S
O1306 C1316 1.243 . S
O1307 Tb1260 2.428 . S
O1307 C1324 1.256 . S
O1308 Tb1260 2.308 . S
O1308 C1323 1.266 . S
O1309 Tb1271 2.393 . S
O1309 C1323 1.248 . S
O1310 Tb1271 2.465 . S
O1310 C1335 1.264 . S
O1311 Tb1271 2.387 . S
O1311 C1327 1.264 . S
O1312 Tb1260 2.349 . S
O1312 C1327 1.243 . S
O1313 Tb1271 2.428 . S
O1313 C1335 1.256 . S
O1314 Tb1271 2.308 . S
O1314 C1334 1.266 . S
O1315 Tb1260 2.393 . S
O1315 C1334 1.248 . S
C1316 O1305 1.264 . S
C1316 O1306 1.243 . S
C1317 C1320 1.399 . S
C1317 C1322 1.383 . S
C1317 C1324 1.496 . S
C1318 C1319 1.395 1_545 S
C1318 C1322 1.402 . S
C1319 C1318 1.395 1_565 S
C1319 C1321 1.380 1_565 S
C1319 H1336 0.929 . S
C1320 C1317 1.399 . S
C1320 C1321 1.392 . S
C1320 H1337 0.929 . S
C1321 C1319 1.380 1_545 S
C1321 C1320 1.392 . S
C1321 H1338 0.928 1_545 S
C1322 C1317 1.383 . S
C1322 C1318 1.402 . S
C1322 H1339 0.931 . S
C1323 O1308 1.266 . S
C1323 O1309 1.248 . S
C1324 Tb1260 2.802 . S
C1324 O1304 1.264 . S
C1324 O1307 1.256 . S
C1324 C1317 1.496 . S
C1325 C1292 1.448 . S
C1325 H1302 0.930 . S
C1325 C1326 1.328 . S
C1326 C1297 1.427 . S
C1326 H1303 0.929 . S
C1326 C1325 1.328 . S
C1327 O1311 1.264 . S
C1327 O1312 1.243 . S
C1328 C1331 1.399 . S
C1328 C1332 1.383 . S
C1328 C1335 1.496 . S
C1329 C1330 1.399 . S
C1329 C1332 1.389 . S
C1330 C1329 1.399 . S
C1330 C1333 1.380 . S
C1330 H1340 0.929 . S
C1331 C1328 1.399 . S
C1331 C1333 1.392 . S
C1331 H1341 0.929 . S
C1332 C1328 1.383 . S
C1332 C1329 1.389 . S
C1332 H1342 0.931 . S
C1333 C1330 1.380 . S
C1333 C1331 1.392 . S
C1333 H1343 0.929 . S
C1334 O1314 1.266 . S
C1334 O1315 1.248 . S
C1335 Tb1271 2.802 . S
C1335 O1310 1.264 . S
C1335 O1313 1.256 . S
C1335 C1328 1.496 . S
H1336 C1319 0.929 . S
H1337 C1320 0.929 . S
H1338 C1321 0.928 1_565 S
H1339 C1322 0.931 . S
H1340 C1330 0.929 . S
H1341 C1331 0.929 . S
H1342 C1332 0.931 . S
H1343 C1333 0.929 . S
Tb1344 N1373 2.617 . S
Tb1344 N1379 2.572 . S
Tb1344 O1388 2.465 . S
Tb1344 O1389 2.387 . S
Tb1344 O1391 2.428 . S
Tb1344 O1392 2.308 . S
Tb1344 O1396 2.349 . S
Tb1344 O1399 2.393 . S
Tb1344 C1408 2.802 . S
C1345 N1346 1.379 . S
C1345 C1348 1.416 . S
C1345 C1352 1.424 . S
N1346 C1345 1.379 . S
N1346 C1349 1.334 . S
N1346 Tb1355 2.617 . S
C1347 C1349 1.390 . S
C1347 C1350 1.339 . S
C1347 H1367 0.930 . S
C1348 C1345 1.416 . S
C1348 C1350 1.416 . S
C1348 C1354 1.448 . S
C1349 N1346 1.334 . S
C1349 C1347 1.390 . S
C1349 H1360 0.930 . S
C1350 C1347 1.339 . S
C1350 C1348 1.416 . S
C1350 H1371 0.930 . S
C1351 C1352 1.413 . S
C1351 C1353 1.427 . S
C1351 C1357 1.416 . S
C1352 C1345 1.424 . S
C1352 C1351 1.413 . S
C1352 N1356 1.361 . S
C1353 C1351 1.427 . S
C1353 C1354 1.328 . S
C1353 H1368 0.929 . S
C1354 C1348 1.448 . S
C1354 C1353 1.328 . S
C1354 H1369 0.930 . S
Tb1355 N1346 2.617 . S
Tb1355 N1356 2.572 . S
Tb1355 O1390 2.349 . S
Tb1355 O1393 2.393 . S
Tb1355 O1394 2.465 . S
Tb1355 O1395 2.387 . S
Tb1355 O1397 2.428 . S
Tb1355 O1398 2.308 . S
Tb1355 C1419 2.802 . S
N1356 C1352 1.361 . S
N1356 Tb1355 2.572 . S
N1356 C1358 1.340 . S
C1357 C1351 1.416 . S
C1357 C1359 1.332 . S
C1357 H1365 0.931 . S
C1358 N1356 1.340 . S
C1358 C1359 1.407 . S
C1358 H1364 0.930 . S
C1359 C1357 1.332 . S
C1359 C1358 1.407 . S
C1359 H1361 0.929 . S
H1360 C1349 0.930 . S
H1361 C1359 0.929 . S
H1362 C1377 0.930 . S
H1363 C1384 0.929 . S
H1364 C1358 0.930 . S
H1365 C1357 0.931 . S
H1366 C1380 0.930 . S
H1367 C1347 0.930 . S
H1368 C1353 0.929 . S
H1369 C1354 0.930 . S
H1370 C1375 0.930 . S
H1371 C1350 0.930 . S
H1372 C1383 0.931 1_455 S
N1373 Tb1344 2.617 . S
N1373 C1374 1.379 . S
N1373 C1377 1.334 . S
C1374 N1373 1.379 . S
C1374 C1376 1.416 . S
C1374 C1382 1.424 . S
C1375 H1370 0.930 . S
C1375 C1377 1.390 . S
C1375 C1378 1.339 . S
C1376 C1374 1.416 . S
C1376 C1378 1.416 . S
C1376 C1409 1.448 . S
C1377 H1362 0.930 . S
C1377 N1373 1.334 . S
C1377 C1375 1.390 . S
C1378 C1375 1.339 . S
C1378 C1376 1.416 . S
C1378 H1385 0.930 . S
N1379 Tb1344 2.572 . S
N1379 C1380 1.340 . S
N1379 C1382 1.361 . S
C1380 H1366 0.930 . S
C1380 N1379 1.340 . S
C1380 C1384 1.407 . S
C1381 C1382 1.413 . S
C1381 C1383 1.416 . S
C1381 C1410 1.426 . S
C1382 C1374 1.424 . S
C1382 N1379 1.361 . S
C1382 C1381 1.413 . S
C1383 H1372 0.931 1_655 S
C1383 C1381 1.416 . S
C1383 C1384 1.332 . S
C1384 H1363 0.929 . S
C1384 C1380 1.407 . S
C1384 C1383 1.332 . S
H1385 C1378 0.930 . S
H1386 C1409 0.930 . S
H1387 C1410 0.928 1_455 S
O1388 Tb1344 2.465 . S
O1388 C1408 1.264 . S
O1389 Tb1344 2.387 . S
O1389 C1400 1.264 . S
O1390 Tb1355 2.349 . S
O1390 C1400 1.243 . S
O1391 Tb1344 2.428 . S
O1391 C1408 1.256 . S
O1392 Tb1344 2.308 . S
O1392 C1407 1.266 . S
O1393 Tb1355 2.393 . S
O1393 C1407 1.248 . S
O1394 Tb1355 2.465 . S
O1394 C1419 1.264 . S
O1395 Tb1355 2.387 . S
O1395 C1411 1.264 . S
O1396 Tb1344 2.349 . S
O1396 C1411 1.243 . S
O1397 Tb1355 2.428 . S
O1397 C1419 1.256 . S
O1398 Tb1355 2.308 . S
O1398 C1418 1.266 . S
O1399 Tb1344 2.393 . S
O1399 C1418 1.248 . S
C1400 O1389 1.264 . S
C1400 O1390 1.243 . S
C1401 C1404 1.399 1_655 S
C1401 C1406 1.383 1_655 S
C1401 C1408 1.496 . S
C1402 C1403 1.399 . S
C1402 C1406 1.389 . S
C1403 C1402 1.399 . S
C1403 C1405 1.380 . S
C1403 H1420 0.929 . S
C1404 C1401 1.399 1_455 S
C1404 C1405 1.392 . S
C1404 H1421 0.929 1_455 S
C1405 C1403 1.380 . S
C1405 C1404 1.392 . S
C1405 H1422 0.929 . S
C1406 C1401 1.383 1_455 S
C1406 C1402 1.389 . S
C1406 H1423 0.931 . S
C1407 O1392 1.266 . S
C1407 O1393 1.248 . S
C1408 Tb1344 2.802 . S
C1408 O1388 1.264 . S
C1408 O1391 1.256 . S
C1408 C1401 1.496 . S
C1409 C1376 1.448 . S
C1409 H1386 0.930 . S
C1409 C1410 1.330 . S
C1410 C1381 1.426 . S
C1410 H1387 0.928 1_655 S
C1410 C1409 1.330 . S
C1411 O1395 1.264 . S
C1411 O1396 1.243 . S
C1412 C1415 1.399 . S
C1412 C1416 1.383 . S
C1412 C1419 1.496 . S
C1413 C1414 1.399 . S
C1413 C1416 1.389 . S
C1414 C1413 1.399 . S
C1414 C1417 1.380 . S
C1414 H1424 0.929 . S
C1415 C1412 1.399 . S
C1415 C1417 1.392 . S
C1415 H1425 0.929 . S
C1416 C1412 1.383 . S
C1416 C1413 1.389 . S
C1416 H1426 0.931 . S
C1417 C1414 1.380 . S
C1417 C1415 1.392 . S
C1417 H1427 0.929 . S
C1418 O1398 1.266 . S
C1418 O1399 1.248 . S
C1419 Tb1355 2.802 . S
C1419 O1394 1.264 . S
C1419 O1397 1.256 . S
C1419 C1412 1.496 . S
H1420 C1403 0.929 . S
H1421 C1404 0.929 1_655 S
H1422 C1405 0.929 . S
H1423 C1406 0.931 . S
H1424 C1414 0.929 . S
H1425 C1415 0.929 . S
H1426 C1416 0.931 . S
H1427 C1417 0.929 . S
Tb1428 N1457 2.617 . S
Tb1428 N1463 2.572 . S
Tb1428 O1472 2.465 . S
Tb1428 O1473 2.387 . S
Tb1428 O1475 2.428 . S
Tb1428 O1476 2.308 . S
Tb1428 O1480 2.349 . S
Tb1428 O1483 2.393 . S
Tb1428 C1492 2.802 . S
C1429 N1430 1.379 . S
C1429 C1432 1.416 . S
C1429 C1436 1.424 . S
N1430 C1429 1.379 . S
N1430 C1433 1.334 . S
N1430 Tb1439 2.617 . S
C1431 C1433 1.390 . S
C1431 C1434 1.339 . S
C1431 H1451 0.930 . S
C1432 C1429 1.416 . S
C1432 C1434 1.416 . S
C1432 C1438 1.448 . S
C1433 N1430 1.334 . S
C1433 C1431 1.390 . S
C1433 H1444 0.930 . S
C1434 C1431 1.339 . S
C1434 C1432 1.416 . S
C1434 H1455 0.930 . S
C1435 C1436 1.413 . S
C1435 C1437 1.427 1_655 S
C1435 C1441 1.416 . S
C1436 C1429 1.424 . S
C1436 C1435 1.413 . S
C1436 N1440 1.361 . S
C1437 C1435 1.427 1_455 S
C1437 C1438 1.328 1_455 S
C1437 H1452 0.929 . S
C1438 C1432 1.448 . S
C1438 C1437 1.328 1_655 S
C1438 H1453 0.930 1_655 S
Tb1439 N1430 2.617 . S
Tb1439 N1440 2.572 . S
Tb1439 O1474 2.349 . S
Tb1439 O1477 2.393 . S
Tb1439 O1478 2.465 . S
Tb1439 O1479 2.387 . S
Tb1439 O1481 2.428 . S
Tb1439 O1482 2.308 . S
Tb1439 C1503 2.802 . S
N1440 C1436 1.361 . S
N1440 Tb1439 2.572 . S
N1440 C1442 1.340 . S
C1441 C1435 1.416 . S
C1441 C1443 1.332 . S
C1441 H1449 0.931 1_655 S
C1442 N1440 1.340 . S
C1442 C1443 1.407 . S
C1442 H1448 0.930 . S
C1443 C1441 1.332 . S
C1443 C1442 1.407 . S
C1443 H1445 0.929 . S
H1444 C1433 0.930 . S
H1445 C1443 0.929 . S
H1446 C1461 0.930 . S
H1447 C1468 0.929 . S
H1448 C1442 0.930 . S
H1449 C1441 0.931 1_455 S
H1450 C1464 0.930 . S
H1451 C1431 0.930 . S
H1452 C1437 0.929 . S
H1453 C1438 0.930 1_455 S
H1454 C1459 0.930 . S
H1455 C1434 0.930 . S
H1456 C1467 0.931 . S
N1457 Tb1428 2.617 . S
N1457 C1458 1.379 . S
N1457 C1461 1.334 . S
C1458 N1457 1.379 . S
C1458 C1460 1.416 . S
C1458 C1466 1.424 . S
C1459 H1454 0.930 . S
C1459 C1461 1.390 . S
C1459 C1462 1.339 . S
C1460 C1458 1.416 . S
C1460 C1462 1.416 . S
C1460 C1493 1.448 . S
C1461 H1446 0.930 . S
C1461 N1457 1.334 . S
C1461 C1459 1.390 . S
C1462 C1459 1.339 . S
C1462 C1460 1.416 . S
C1462 H1469 0.930 . S
N1463 Tb1428 2.572 . S
N1463 C1464 1.340 . S
N1463 C1466 1.361 . S
C1464 H1450 0.930 . S
C1464 N1463 1.340 . S
C1464 C1468 1.407 . S
C1465 C1466 1.413 . S
C1465 C1467 1.416 . S
C1465 C1494 1.427 . S
C1466 C1458 1.424 . S
C1466 N1463 1.361 . S
C1466 C1465 1.413 . S
C1467 H1456 0.931 . S
C1467 C1465 1.416 . S
C1467 C1468 1.332 . S
C1468 H1447 0.929 . S
C1468 C1464 1.407 . S
C1468 C1467 1.332 . S
H1469 C1462 0.930 . S
H1470 C1493 0.930 . S
H1471 C1494 0.929 . S
O1472 Tb1428 2.465 . S
O1472 C1492 1.264 . S
O1473 Tb1428 2.387 . S
O1473 C1484 1.264 . S
O1474 Tb1439 2.349 . S
O1474 C1484 1.243 . S
O1475 Tb1428 2.428 . S
O1475 C1492 1.256 . S
O1476 Tb1428 2.308 . S
O1476 C1491 1.266 . S
O1477 Tb1439 2.393 . S
O1477 C1491 1.248 . S
O1478 Tb1439 2.465 . S
O1478 C1503 1.264 . S
O1479 Tb1439 2.387 . S
O1479 C1495 1.264 . S
O1480 Tb1428 2.349 . S
O1480 C1495 1.243 . S
O1481 Tb1439 2.428 . S
O1481 C1503 1.256 . S
O1482 Tb1439 2.308 . S
O1482 C1502 1.266 . S
O1483 Tb1428 2.393 . S
O1483 C1502 1.248 . S
C1484 O1473 1.264 . S
C1484 O1474 1.243 . S
C1485 C1488 1.399 . S
C1485 C1490 1.383 . S
C1485 C1492 1.496 . S
C1486 C1487 1.399 . S
C1486 C1490 1.389 . S
C1487 C1486 1.399 . S
C1487 C1489 1.380 . S
C1487 H1504 0.929 . S
C1488 C1485 1.399 . S
C1488 C1489 1.392 . S
C1488 H1505 0.929 . S
C1489 C1487 1.380 . S
C1489 C1488 1.392 . S
C1489 H1506 0.929 . S
C1490 C1485 1.383 . S
C1490 C1486 1.389 . S
C1490 H1507 0.931 . S
C1491 O1476 1.266 . S
C1491 O1477 1.248 . S
C1492 Tb1428 2.802 . S
C1492 O1472 1.264 . S
C1492 O1475 1.256 . S
C1492 C1485 1.496 . S
C1493 C1460 1.448 . S
C1493 H1470 0.930 . S
C1493 C1494 1.328 . S
C1494 C1465 1.427 . S
C1494 H1471 0.929 . S
C1494 C1493 1.328 . S
C1495 O1479 1.264 . S
C1495 O1480 1.243 . S
C1496 C1499 1.399 . S
C1496 C1500 1.383 . S
C1496 C1503 1.496 . S
C1497 C1498 1.399 . S
C1497 C1500 1.389 . S
C1498 C1497 1.399 . S
C1498 C1501 1.380 . S
C1498 H1508 0.929 . S
C1499 C1496 1.399 . S
C1499 C1501 1.392 . S
C1499 H1509 0.929 . S
C1500 C1496 1.383 . S
C1500 C1497 1.389 . S
C1500 H1510 0.931 . S
C1501 C1498 1.380 . S
C1501 C1499 1.392 . S
C1501 H1511 0.929 . S
C1502 O1482 1.266 . S
C1502 O1483 1.248 . S
C1503 Tb1439 2.802 . S
C1503 O1478 1.264 . S
C1503 O1481 1.256 . S
C1503 C1496 1.496 . S
H1504 C1487 0.929 . S
H1505 C1488 0.929 . S
H1506 C1489 0.929 . S
H1507 C1490 0.931 . S
H1508 C1498 0.929 . S
H1509 C1499 0.929 . S
H1510 C1500 0.931 . S
H1511 C1501 0.929 . S
H1512 C1520 0.929 . S
H1513 C1522 0.930 . S
H1514 C1524 0.930 . S
H1515 C1527 0.929 . S
H1516 C1530 0.930 . S
H1517 C1532 0.960 . S
H1518 C1532 0.960 . S
H1519 C1532 0.960 . S
C1520 H1512 0.929 . S
C1520 C1521 1.377 . S
C1520 C1522 1.384 . S
C1521 C1520 1.377 . S
C1521 C1527 1.390 . S
C1522 H1513 0.930 . S
C1522 C1520 1.384 . S
C1522 C1523 1.372 . S
C1523 C1522 1.372 . S
C1523 C1524 1.400 . S
C1523 C1528 1.490 . S
C1524 H1514 0.930 . S
C1524 C1523 1.400 . S
C1524 C1527 1.386 . S
H1525 C1541 0.930 . S
H1526 C1542 0.931 . S
C1527 H1515 0.929 . S
C1527 C1521 1.390 . S
C1527 C1524 1.386 . S
C1528 C1523 1.490 . S
C1528 C1530 1.395 . S
C1528 C1531 1.403 . S
H1529 C1535 0.930 . S
C1530 H1516 0.930 . S
C1530 C1528 1.395 . S
C1530 C1533 1.403 . S
C1531 C1528 1.403 . S
C1531 C1532 1.524 . S
C1531 C1535 1.400 . S
C1532 H1517 0.960 . S
C1532 H1518 0.960 . S
C1532 H1519 0.960 . S
C1532 C1531 1.524 . S
C1533 C1530 1.403 . S
C1533 C1534 1.392 . S
C1533 C1537 1.495 . S
C1534 C1533 1.392 . S
C1534 C1535 1.385 . S
C1534 C1536 1.478 . S
C1535 H1529 0.930 . S
C1535 C1531 1.400 . S
C1535 C1534 1.385 . S
C1536 C1534 1.478 . S
C1536 C1538 1.381 . S
C1536 C1542 1.383 . S
C1537 C1533 1.495 . S
C1537 H1543 0.959 . S
C1537 H1544 0.961 . S
C1537 H1545 0.960 . S
C1538 C1536 1.381 . S
C1538 C1539 1.394 . S
C1538 H1546 0.930 . S
C1539 C1538 1.394 . S
C1539 C1540 1.383 . S
C1539 H1547 0.929 . S
C1540 C1539 1.383 . S
C1540 C1541 1.377 . S
C1541 H1525 0.930 . S
C1541 C1540 1.377 . S
C1541 C1542 1.379 . S
C1542 H1526 0.931 . S
C1542 C1536 1.383 . S
C1542 C1541 1.379 . S
H1543 C1537 0.959 . S
H1544 C1537 0.961 . S
H1545 C1537 0.960 . S
H1546 C1538 0.930 . S
H1547 C1539 0.929 . S
H1548 C1556 0.929 . S
H1549 C1558 0.930 . S
H1550 C1560 0.930 . S
H1551 C1563 0.929 . S
H1552 C1566 0.930 . S
H1553 C1568 0.960 . S
H1554 C1568 0.960 . S
H1555 C1568 0.960 . S
C1556 H1548 0.929 . S
C1556 C1557 1.377 . S
C1556 C1558 1.384 . S
C1557 C1556 1.377 . S
C1557 C1563 1.390 . S
C1558 H1549 0.930 . S
C1558 C1556 1.384 . S
C1558 C1559 1.372 . S
C1559 C1558 1.372 . S
C1559 C1560 1.400 . S
C1559 C1564 1.490 . S
C1560 H1550 0.930 . S
C1560 C1559 1.400 . S
C1560 C1563 1.386 . S
H1561 C1577 0.930 . S
H1562 C1578 0.931 . S
C1563 H1551 0.929 . S
C1563 C1557 1.390 . S
C1563 C1560 1.386 . S
C1564 C1559 1.490 . S
C1564 C1566 1.395 . S
C1564 C1567 1.403 . S
H1565 C1571 0.930 . S
C1566 H1552 0.930 . S
C1566 C1564 1.395 . S
C1566 C1569 1.403 . S
C1567 C1564 1.403 . S
C1567 C1568 1.524 . S
C1567 C1571 1.400 . S
C1568 H1553 0.960 . S
C1568 H1554 0.960 . S
C1568 H1555 0.960 . S
C1568 C1567 1.524 . S
C1569 C1566 1.403 . S
C1569 C1570 1.392 . S
C1569 C1573 1.495 . S
C1570 C1569 1.392 . S
C1570 C1571 1.385 . S
C1570 C1572 1.478 . S
C1571 H1565 0.930 . S
C1571 C1567 1.400 . S
C1571 C1570 1.385 . S
C1572 C1570 1.478 . S
C1572 C1574 1.381 . S
C1572 C1578 1.383 . S
C1573 C1569 1.495 . S
C1573 H1579 0.959 . S
C1573 H1580 0.961 . S
C1573 H1581 0.960 . S
C1574 C1572 1.381 . S
C1574 C1575 1.394 . S
C1574 H1582 0.930 . S
C1575 C1574 1.394 . S
C1575 C1576 1.383 . S
C1575 H1583 0.929 . S
C1576 C1575 1.383 . S
C1576 C1577 1.377 . S
C1577 H1561 0.930 . S
C1577 C1576 1.377 . S
C1577 C1578 1.379 . S
C1578 H1562 0.931 . S
C1578 C1572 1.383 . S
C1578 C1577 1.379 . S
H1579 C1573 0.959 . S
H1580 C1573 0.961 . S
H1581 C1573 0.960 . S
H1582 C1574 0.930 . S
H1583 C1575 0.929 . S
H1584 C1592 0.929 . S
H1585 C1594 0.930 . S
H1586 C1596 0.930 . S
H1587 C1599 0.929 . S
H1588 C1602 0.930 . S
H1589 C1604 0.960 . S
H1590 C1604 0.960 . S
H1591 C1604 0.960 . S
C1592 H1584 0.929 . S
C1592 C1593 1.377 . S
C1592 C1594 1.384 . S
C1593 C1592 1.377 . S
C1593 C1599 1.390 . S
C1594 H1585 0.930 . S
C1594 C1592 1.384 . S
C1594 C1595 1.372 . S
C1595 C1594 1.372 . S
C1595 C1596 1.400 . S
C1595 C1600 1.490 . S
C1596 H1586 0.930 . S
C1596 C1595 1.400 . S
C1596 C1599 1.386 . S
H1597 C1613 0.930 . S
H1598 C1614 0.931 . S
C1599 H1587 0.929 . S
C1599 C1593 1.390 . S
C1599 C1596 1.386 . S
C1600 C1595 1.490 . S
C1600 C1602 1.395 . S
C1600 C1603 1.403 . S
H1601 C1607 0.930 . S
C1602 H1588 0.930 . S
C1602 C1600 1.395 . S
C1602 C1605 1.403 . S
C1603 C1600 1.403 . S
C1603 C1604 1.524 . S
C1603 C1607 1.400 . S
C1604 H1589 0.960 . S
C1604 H1590 0.960 . S
C1604 H1591 0.960 . S
C1604 C1603 1.524 . S
C1605 C1602 1.403 . S
C1605 C1606 1.392 . S
C1605 C1609 1.495 . S
C1606 C1605 1.392 . S
C1606 C1607 1.385 . S
C1606 C1608 1.478 . S
C1607 H1601 0.930 . S
C1607 C1603 1.400 . S
C1607 C1606 1.385 . S
C1608 C1606 1.478 . S
C1608 C1610 1.381 . S
C1608 C1614 1.383 . S
C1609 C1605 1.495 . S
C1609 H1615 0.959 . S
C1609 H1616 0.961 . S
C1609 H1617 0.960 . S
C1610 C1608 1.381 . S
C1610 C1611 1.394 . S
C1610 H1618 0.930 . S
C1611 C1610 1.394 . S
C1611 C1612 1.383 . S
C1611 H1619 0.929 . S
C1612 C1611 1.383 . S
C1612 C1613 1.377 . S
C1613 H1597 0.930 . S
C1613 C1612 1.377 . S
C1613 C1614 1.379 . S
C1614 H1598 0.931 . S
C1614 C1608 1.383 . S
C1614 C1613 1.379 . S
H1615 C1609 0.959 . S
H1616 C1609 0.961 . S
H1617 C1609 0.960 . S
H1618 C1610 0.930 . S
H1619 C1611 0.929 . S
H1620 C1628 0.929 . S
H1621 C1630 0.930 . S
H1622 C1632 0.930 . S
H1623 C1635 0.929 . S
H1624 C1638 0.930 . S
H1625 C1640 0.960 . S
H1626 C1640 0.960 . S
H1627 C1640 0.960 . S
C1628 H1620 0.929 . S
C1628 C1629 1.377 . S
C1628 C1630 1.384 . S
C1629 C1628 1.377 . S
C1629 C1635 1.390 . S
C1630 H1621 0.930 . S
C1630 C1628 1.384 . S
C1630 C1631 1.372 . S
C1631 C1630 1.372 . S
C1631 C1632 1.400 . S
C1631 C1636 1.490 . S
C1632 H1622 0.930 . S
C1632 C1631 1.400 . S
C1632 C1635 1.386 . S
H1633 C1649 0.930 . S
H1634 C1650 0.931 . S
C1635 H1623 0.929 . S
C1635 C1629 1.390 . S
C1635 C1632 1.386 . S
C1636 C1631 1.490 . S
C1636 C1638 1.395 . S
C1636 C1639 1.403 . S
H1637 C1643 0.930 . S
C1638 H1624 0.930 . S
C1638 C1636 1.395 . S
C1638 C1641 1.403 . S
C1639 C1636 1.403 . S
C1639 C1640 1.524 . S
C1639 C1643 1.400 . S
C1640 H1625 0.960 . S
C1640 H1626 0.960 . S
C1640 H1627 0.960 . S
C1640 C1639 1.524 . S
C1641 C1638 1.403 . S
C1641 C1642 1.392 . S
C1641 C1645 1.495 . S
C1642 C1641 1.392 . S
C1642 C1643 1.385 . S
C1642 C1644 1.478 . S
C1643 H1637 0.930 . S
C1643 C1639 1.400 . S
C1643 C1642 1.385 . S
C1644 C1642 1.478 . S
C1644 C1646 1.381 . S
C1644 C1650 1.383 . S
C1645 C1641 1.495 . S
C1645 H1651 0.959 . S
C1645 H1652 0.961 . S
C1645 H1653 0.960 . S
C1646 C1644 1.381 . S
C1646 C1647 1.394 . S
C1646 H1654 0.930 . S
C1647 C1646 1.394 . S
C1647 C1648 1.383 . S
C1647 H1655 0.929 . S
C1648 C1647 1.383 . S
C1648 C1649 1.377 . S
C1649 H1633 0.930 . S
C1649 C1648 1.377 . S
C1649 C1650 1.379 . S
C1650 H1634 0.931 . S
C1650 C1644 1.383 . S
C1650 C1649 1.379 . S
H1651 C1645 0.959 . S
H1652 C1645 0.961 . S
H1653 C1645 0.960 . S
H1654 C1646 0.930 . S
H1655 C1647 0.929 . S
H1656 C1664 0.929 . S
H1657 C1666 0.930 . S
H1658 C1668 0.930 . S
H1659 C1671 0.929 . S
H1660 C1674 0.930 . S
H1661 C1676 0.960 . S
H1662 C1676 0.960 . S
H1663 C1676 0.960 . S
C1664 H1656 0.929 . S
C1664 C1665 1.377 . S
C1664 C1666 1.384 . S
C1665 C1664 1.377 . S
C1665 C1671 1.390 . S
C1666 H1657 0.930 . S
C1666 C1664 1.384 . S
C1666 C1667 1.372 . S
C1667 C1666 1.372 . S
C1667 C1668 1.400 . S
C1667 C1672 1.490 . S
C1668 H1658 0.930 . S
C1668 C1667 1.400 . S
C1668 C1671 1.386 . S
H1669 C1685 0.930 . S
H1670 C1686 0.931 . S
C1671 H1659 0.929 . S
C1671 C1665 1.390 . S
C1671 C1668 1.386 . S
C1672 C1667 1.490 . S
C1672 C1674 1.395 . S
C1672 C1675 1.403 . S
H1673 C1679 0.930 . S
C1674 H1660 0.930 . S
C1674 C1672 1.395 . S
C1674 C1677 1.403 . S
C1675 C1672 1.403 . S
C1675 C1676 1.524 . S
C1675 C1679 1.400 . S
C1676 H1661 0.960 . S
C1676 H1662 0.960 . S
C1676 H1663 0.960 . S
C1676 C1675 1.524 . S
C1677 C1674 1.403 . S
C1677 C1678 1.392 . S
C1677 C1681 1.495 . S
C1678 C1677 1.392 . S
C1678 C1679 1.385 . S
C1678 C1680 1.478 . S
C1679 H1673 0.930 . S
C1679 C1675 1.400 . S
C1679 C1678 1.385 . S
C1680 C1678 1.478 . S
C1680 C1682 1.381 . S
C1680 C1686 1.383 . S
C1681 C1677 1.495 . S
C1681 H1687 0.959 . S
C1681 H1688 0.961 . S
C1681 H1689 0.960 . S
C1682 C1680 1.381 . S
C1682 C1683 1.394 . S
C1682 H1690 0.930 . S
C1683 C1682 1.394 . S
C1683 C1684 1.383 . S
C1683 H1691 0.929 . S
C1684 C1683 1.383 . S
C1684 C1685 1.377 . S
C1685 H1669 0.930 . S
C1685 C1684 1.377 . S
C1685 C1686 1.379 . S
C1686 H1670 0.931 . S
C1686 C1680 1.383 . S
C1686 C1685 1.379 . S
H1687 C1681 0.959 . S
H1688 C1681 0.961 . S
H1689 C1681 0.960 . S
H1690 C1682 0.930 . S
H1691 C1683 0.929 . S
H1692 C1700 0.929 . S
H1693 C1702 0.930 . S
H1694 C1704 0.930 . S
H1695 C1707 0.929 . S
H1696 C1710 0.930 . S
H1697 C1712 0.960 . S
H1698 C1712 0.960 . S
H1699 C1712 0.960 . S
C1700 H1692 0.929 . S
C1700 C1701 1.377 . S
C1700 C1702 1.384 . S
C1701 C1700 1.377 . S
C1701 C1707 1.390 . S
C1702 H1693 0.930 . S
C1702 C1700 1.384 . S
C1702 C1703 1.372 . S
C1703 C1702 1.372 . S
C1703 C1704 1.400 . S
C1703 C1708 1.490 . S
C1704 H1694 0.930 . S
C1704 C1703 1.400 . S
C1704 C1707 1.386 . S
H1705 C1721 0.930 . S
H1706 C1722 0.931 . S
C1707 H1695 0.929 . S
C1707 C1701 1.390 . S
C1707 C1704 1.386 . S
C1708 C1703 1.490 . S
C1708 C1710 1.395 . S
C1708 C1711 1.403 . S
H1709 C1715 0.930 . S
C1710 H1696 0.930 . S
C1710 C1708 1.395 . S
C1710 C1713 1.403 . S
C1711 C1708 1.403 . S
C1711 C1712 1.524 . S
C1711 C1715 1.400 . S
C1712 H1697 0.960 . S
C1712 H1698 0.960 . S
C1712 H1699 0.960 . S
C1712 C1711 1.524 . S
C1713 C1710 1.403 . S
C1713 C1714 1.392 . S
C1713 C1717 1.495 . S
C1714 C1713 1.392 . S
C1714 C1715 1.385 . S
C1714 C1716 1.478 . S
C1715 H1709 0.930 . S
C1715 C1711 1.400 . S
C1715 C1714 1.385 . S
C1716 C1714 1.478 . S
C1716 C1718 1.381 . S
C1716 C1722 1.383 . S
C1717 C1713 1.495 . S
C1717 H1723 0.959 . S
C1717 H1724 0.961 . S
C1717 H1725 0.960 . S
C1718 C1716 1.381 . S
C1718 C1719 1.394 . S
C1718 H1726 0.930 . S
C1719 C1718 1.394 . S
C1719 C1720 1.383 . S
C1719 H1727 0.929 . S
C1720 C1719 1.383 . S
C1720 C1721 1.377 . S
C1721 H1705 0.930 . S
C1721 C1720 1.377 . S
C1721 C1722 1.379 . S
C1722 H1706 0.931 . S
C1722 C1716 1.383 . S
C1722 C1721 1.379 . S
H1723 C1717 0.959 . S
H1724 C1717 0.961 . S
H1725 C1717 0.960 . S
H1726 C1718 0.930 . S
H1727 C1719 0.929 . S
H1728 C1736 0.929 . S
H1729 C1738 0.930 . S
H1730 C1740 0.930 . S
H1731 C1743 0.929 . S
H1732 C1746 0.930 . S
H1733 C1748 0.960 . S
H1734 C1748 0.960 . S
H1735 C1748 0.960 . S
C1736 H1728 0.929 . S
C1736 C1737 1.377 . S
C1736 C1738 1.384 . S
C1737 C1736 1.377 . S
C1737 C1743 1.390 . S
C1738 H1729 0.930 . S
C1738 C1736 1.384 . S
C1738 C1739 1.372 . S
C1739 C1738 1.372 . S
C1739 C1740 1.400 . S
C1739 C1744 1.490 . S
C1740 H1730 0.930 . S
C1740 C1739 1.400 . S
C1740 C1743 1.386 . S
H1741 C1757 0.930 . S
H1742 C1758 0.931 . S
C1743 H1731 0.929 . S
C1743 C1737 1.390 . S
C1743 C1740 1.386 . S
C1744 C1739 1.490 . S
C1744 C1746 1.395 . S
C1744 C1747 1.403 . S
H1745 C1751 0.930 . S
C1746 H1732 0.930 . S
C1746 C1744 1.395 . S
C1746 C1749 1.403 . S
C1747 C1744 1.403 . S
C1747 C1748 1.524 . S
C1747 C1751 1.400 . S
C1748 H1733 0.960 . S
C1748 H1734 0.960 . S
C1748 H1735 0.960 . S
C1748 C1747 1.524 . S
C1749 C1746 1.403 . S
C1749 C1750 1.392 . S
C1749 C1753 1.495 . S
C1750 C1749 1.392 . S
C1750 C1751 1.385 . S
C1750 C1752 1.478 . S
C1751 H1745 0.930 . S
C1751 C1747 1.400 . S
C1751 C1750 1.385 . S
C1752 C1750 1.478 . S
C1752 C1754 1.381 . S
C1752 C1758 1.383 . S
C1753 C1749 1.495 . S
C1753 H1759 0.959 . S
C1753 H1760 0.961 . S
C1753 H1761 0.960 . S
C1754 C1752 1.381 . S
C1754 C1755 1.394 . S
C1754 H1762 0.930 . S
C1755 C1754 1.394 . S
C1755 C1756 1.383 . S
C1755 H1763 0.929 . S
C1756 C1755 1.383 . S
C1756 C1757 1.377 . S
C1757 H1741 0.930 . S
C1757 C1756 1.377 . S
C1757 C1758 1.379 . S
C1758 H1742 0.931 . S
C1758 C1752 1.383 . S
C1758 C1757 1.379 . S
H1759 C1753 0.959 . S
H1760 C1753 0.961 . S
H1761 C1753 0.960 . S
H1762 C1754 0.930 . S
H1763 C1755 0.929 . S
H1764 C1772 0.929 1_455 S
H1765 C1774 0.930 . S
H1766 C1776 0.930 . S
H1767 C1779 0.929 . S
H1768 C1782 0.930 . S
H1769 C1784 0.960 . S
H1770 C1784 0.960 . S
H1771 C1784 0.960 . S
C1772 H1764 0.929 1_655 S
C1772 C1773 1.377 . S
C1772 C1774 1.384 . S
C1773 C1772 1.377 . S
C1773 C1779 1.390 . S
C1774 H1765 0.930 . S
C1774 C1772 1.384 . S
C1774 C1775 1.372 . S
C1775 C1774 1.372 . S
C1775 C1776 1.400 . S
C1775 C1780 1.490 . S
C1776 H1766 0.930 . S
C1776 C1775 1.400 . S
C1776 C1779 1.386 . S
H1777 C1793 0.930 . S
H1778 C1794 0.931 . S
C1779 H1767 0.929 . S
C1779 C1773 1.390 . S
C1779 C1776 1.386 . S
C1780 C1775 1.490 . S
C1780 C1782 1.395 . S
C1780 C1783 1.403 . S
H1781 C1787 0.930 . S
C1782 H1768 0.930 . S
C1782 C1780 1.395 . S
C1782 C1785 1.403 . S
C1783 C1780 1.403 . S
C1783 C1784 1.524 . S
C1783 C1787 1.400 . S
C1784 H1769 0.960 . S
C1784 H1770 0.960 . S
C1784 H1771 0.960 . S
C1784 C1783 1.524 . S
C1785 C1782 1.403 . S
C1785 C1786 1.392 . S
C1785 C1789 1.495 . S
C1786 C1785 1.392 . S
C1786 C1787 1.385 . S
C1786 C1788 1.478 1_545 S
C1787 H1781 0.930 . S
C1787 C1783 1.400 . S
C1787 C1786 1.385 . S
C1788 C1786 1.478 1_565 S
C1788 C1790 1.381 . S
C1788 C1794 1.383 . S
C1789 C1785 1.495 . S
C1789 H1795 0.959 . S
C1789 H1796 0.961 . S
C1789 H1797 0.960 . S
C1790 C1788 1.381 . S
C1790 C1791 1.394 . S
C1790 H1798 0.930 . S
C1791 C1790 1.394 . S
C1791 C1792 1.383 . S
C1791 H1799 0.929 . S
C1792 C1791 1.383 . S
C1792 C1793 1.377 . S
C1793 H1777 0.930 . S
C1793 C1792 1.377 . S
C1793 C1794 1.379 . S
C1794 H1778 0.931 . S
C1794 C1788 1.383 . S
C1794 C1793 1.379 . S
H1795 C1789 0.959 . S
H1796 C1789 0.961 . S
H1797 C1789 0.960 . S
H1798 C1790 0.930 . S
H1799 C1791 0.929 . S
H1800 C1808 0.929 . S
H1801 C1810 0.930 . S
H1802 C1812 0.930 . S
H1803 C1815 0.929 . S
H1804 C1818 0.930 . S
H1805 C1820 0.960 1_655 S
H1806 C1820 0.960 . S
H1807 C1820 0.960 . S
C1808 H1800 0.929 . S
C1808 C1809 1.377 . S
C1808 C1810 1.384 . S
C1809 C1808 1.377 . S
C1809 C1815 1.390 . S
C1810 H1801 0.930 . S
C1810 C1808 1.384 . S
C1810 C1811 1.372 . S
C1811 C1810 1.372 . S
C1811 C1812 1.400 . S
C1811 C1816 1.490 . S
C1812 H1802 0.930 . S
C1812 C1811 1.400 . S
C1812 C1815 1.386 . S
H1813 C1829 0.930 . S
H1814 C1830 0.931 . S
C1815 H1803 0.929 . S
C1815 C1809 1.390 . S
C1815 C1812 1.386 . S
C1816 C1811 1.490 . S
C1816 C1818 1.395 . S
C1816 C1819 1.403 . S
H1817 C1823 0.930 . S
C1818 H1804 0.930 . S
C1818 C1816 1.395 . S
C1818 C1821 1.403 1_455 S
C1819 C1816 1.403 . S
C1819 C1820 1.524 . S
C1819 C1823 1.400 1_455 S
C1820 H1805 0.960 1_455 S
C1820 H1806 0.960 . S
C1820 H1807 0.960 . S
C1820 C1819 1.524 . S
C1821 C1818 1.403 1_655 S
C1821 C1822 1.392 . S
C1821 C1825 1.495 . S
C1822 C1821 1.392 . S
C1822 C1823 1.385 . S
C1822 C1824 1.478 . S
C1823 H1817 0.930 . S
C1823 C1819 1.400 1_655 S
C1823 C1822 1.385 . S
C1824 C1822 1.478 . S
C1824 C1826 1.381 . S
C1824 C1830 1.383 . S
C1825 C1821 1.495 . S
C1825 H1831 0.959 1_655 S
C1825 H1832 0.961 . S
C1825 H1833 0.960 . S
C1826 C1824 1.381 . S
C1826 C1827 1.394 . S
C1826 H1834 0.930 . S
C1827 C1826 1.394 . S
C1827 C1828 1.383 . S
C1827 H1835 0.929 . S
C1828 C1827 1.383 . S
C1828 C1829 1.377 . S
C1829 H1813 0.930 . S
C1829 C1828 1.377 . S
C1829 C1830 1.379 . S
C1830 H1814 0.931 . S
C1830 C1824 1.383 . S
C1830 C1829 1.379 . S
H1831 C1825 0.959 1_455 S
H1832 C1825 0.961 . S
H1833 C1825 0.960 . S
H1834 C1826 0.930 . S
H1835 C1827 0.929 . S
H1836 C1844 0.929 . S
H1837 C1846 0.930 . S
H1838 C1848 0.930 . S
H1839 C1851 0.929 . S
H1840 C1854 0.930 . S
H1841 C1856 0.960 . S
H1842 C1856 0.960 . S
H1843 C1856 0.960 . S
C1844 H1836 0.929 . S
C1844 C1845 1.377 . S
C1844 C1846 1.384 . S
C1845 C1844 1.377 . S
C1845 C1851 1.390 . S
C1846 H1837 0.930 . S
C1846 C1844 1.384 . S
C1846 C1847 1.372 . S
C1847 C1846 1.372 . S
C1847 C1848 1.400 . S
C1847 C1852 1.490 . S
C1848 H1838 0.930 . S
C1848 C1847 1.400 . S
C1848 C1851 1.386 . S
H1849 C1865 0.930 . S
H1850 C1866 0.931 . S
C1851 H1839 0.929 . S
C1851 C1845 1.390 . S
C1851 C1848 1.386 . S
C1852 C1847 1.490 . S
C1852 C1854 1.395 . S
C1852 C1855 1.403 . S
H1853 C1859 0.930 . S
C1854 H1840 0.930 . S
C1854 C1852 1.395 . S
C1854 C1857 1.403 . S
C1855 C1852 1.403 . S
C1855 C1856 1.524 . S
C1855 C1859 1.400 . S
C1856 H1841 0.960 . S
C1856 H1842 0.960 . S
C1856 H1843 0.960 . S
C1856 C1855 1.524 . S
C1857 C1854 1.403 . S
C1857 C1858 1.392 . S
C1857 C1861 1.495 . S
C1858 C1857 1.392 . S
C1858 C1859 1.385 . S
C1858 C1860 1.478 . S
C1859 H1853 0.930 . S
C1859 C1855 1.400 . S
C1859 C1858 1.385 . S
C1860 C1858 1.478 . S
C1860 C1862 1.381 . S
C1860 C1866 1.383 . S
C1861 C1857 1.495 . S
C1861 H1867 0.959 . S
C1861 H1868 0.961 . S
C1861 H1869 0.960 . S
C1862 C1860 1.381 . S
C1862 C1863 1.394 . S
C1862 H1870 0.930 . S
C1863 C1862 1.394 . S
C1863 C1864 1.383 . S
C1863 H1871 0.929 . S
C1864 C1863 1.383 . S
C1864 C1865 1.377 . S
C1865 H1849 0.930 . S
C1865 C1864 1.377 . S
C1865 C1866 1.379 . S
C1866 H1850 0.931 . S
C1866 C1860 1.383 . S
C1866 C1865 1.379 . S
H1867 C1861 0.959 . S
H1868 C1861 0.961 . S
H1869 C1861 0.960 . S
H1870 C1862 0.930 . S
H1871 C1863 0.929 . S
H1872 C1880 0.929 . S
H1873 C1882 0.930 . S
H1874 C1884 0.930 . S
H1875 C1887 0.929 . S
H1876 C1890 0.930 . S
H1877 C1892 0.960 . S
H1878 C1892 0.960 . S
H1879 C1892 0.960 . S
C1880 H1872 0.929 . S
C1880 C1881 1.377 . S
C1880 C1882 1.384 . S
C1881 C1880 1.377 . S
C1881 C1887 1.390 . S
C1882 H1873 0.930 . S
C1882 C1880 1.384 . S
C1882 C1883 1.372 . S
C1883 C1882 1.372 . S
C1883 C1884 1.400 . S
C1883 C1888 1.490 . S
C1884 H1874 0.930 . S
C1884 C1883 1.400 . S
C1884 C1887 1.386 . S
H1885 C1901 0.930 . S
H1886 C1902 0.931 . S
C1887 H1875 0.929 . S
C1887 C1881 1.390 . S
C1887 C1884 1.386 . S
C1888 C1883 1.490 . S
C1888 C1890 1.395 . S
C1888 C1891 1.403 . S
H1889 C1895 0.930 . S
C1890 H1876 0.930 . S
C1890 C1888 1.395 . S
C1890 C1893 1.403 . S
C1891 C1888 1.403 . S
C1891 C1892 1.524 . S
C1891 C1895 1.400 . S
C1892 H1877 0.960 . S
C1892 H1878 0.960 . S
C1892 H1879 0.960 . S
C1892 C1891 1.524 . S
C1893 C1890 1.403 . S
C1893 C1894 1.392 . S
C1893 C1897 1.495 . S
C1894 C1893 1.392 . S
C1894 C1895 1.385 . S
C1894 C1896 1.478 . S
C1895 H1889 0.930 . S
C1895 C1891 1.400 . S
C1895 C1894 1.385 . S
C1896 C1894 1.478 . S
C1896 C1898 1.381 . S
C1896 C1902 1.383 . S
C1897 C1893 1.495 . S
C1897 H1903 0.959 . S
C1897 H1904 0.961 . S
C1897 H1905 0.960 . S
C1898 C1896 1.381 . S
C1898 C1899 1.394 . S
C1898 H1906 0.930 . S
C1899 C1898 1.394 . S
C1899 C1900 1.383 . S
C1899 H1907 0.929 . S
C1900 C1899 1.383 . S
C1900 C1901 1.377 . S
C1901 H1885 0.930 . S
C1901 C1900 1.377 . S
C1901 C1902 1.379 . S
C1902 H1886 0.931 . S
C1902 C1896 1.383 . S
C1902 C1901 1.379 . S
H1903 C1897 0.959 . S
H1904 C1897 0.961 . S
H1905 C1897 0.960 . S
H1906 C1898 0.930 . S
H1907 C1899 0.929 . S
H1908 C1916 0.929 . S
H1909 C1918 0.930 . S
H1910 C1920 0.930 . S
H1911 C1923 0.929 . S
H1912 C1926 0.930 . S
H1913 C1928 0.960 . S
H1914 C1928 0.960 . S
H1915 C1928 0.960 . S
C1916 H1908 0.929 . S
C1916 C1917 1.377 . S
C1916 C1918 1.384 . S
C1917 C1916 1.377 . S
C1917 C1923 1.390 . S
C1918 H1909 0.930 . S
C1918 C1916 1.384 . S
C1918 C1919 1.372 . S
C1919 C1918 1.372 . S
C1919 C1920 1.400 . S
C1919 C1924 1.490 . S
C1920 H1910 0.930 . S
C1920 C1919 1.400 . S
C1920 C1923 1.386 . S
H1921 C1937 0.930 . S
H1922 C1938 0.931 . S
C1923 H1911 0.929 . S
C1923 C1917 1.390 . S
C1923 C1920 1.386 . S
C1924 C1919 1.490 . S
C1924 C1926 1.395 . S
C1924 C1927 1.403 . S
H1925 C1931 0.930 . S
C1926 H1912 0.930 . S
C1926 C1924 1.395 . S
C1926 C1929 1.403 . S
C1927 C1924 1.403 . S
C1927 C1928 1.524 . S
C1927 C1931 1.400 . S
C1928 H1913 0.960 . S
C1928 H1914 0.960 . S
C1928 H1915 0.960 . S
C1928 C1927 1.524 . S
C1929 C1926 1.403 . S
C1929 C1930 1.392 . S
C1929 C1933 1.495 . S
C1930 C1929 1.392 . S
C1930 C1931 1.385 . S
C1930 C1932 1.478 . S
C1931 H1925 0.930 . S
C1931 C1927 1.400 . S
C1931 C1930 1.385 . S
C1932 C1930 1.478 . S
C1932 C1934 1.381 . S
C1932 C1938 1.383 . S
C1933 C1929 1.495 . S
C1933 H1939 0.959 . S
C1933 H1940 0.961 . S
C1933 H1941 0.960 . S
C1934 C1932 1.381 . S
C1934 C1935 1.394 . S
C1934 H1942 0.930 . S
C1935 C1934 1.394 . S
C1935 C1936 1.383 . S
C1935 H1943 0.929 . S
C1936 C1935 1.383 . S
C1936 C1937 1.377 . S
C1937 H1921 0.930 . S
C1937 C1936 1.377 . S
C1937 C1938 1.379 . S
C1938 H1922 0.931 . S
C1938 C1932 1.383 . S
C1938 C1937 1.379 . S
H1939 C1933 0.959 . S
H1940 C1933 0.961 . S
H1941 C1933 0.960 . S
H1942 C1934 0.930 . S
H1943 C1935 0.929 . S
H1944 C1952 0.929 . S
H1945 C1954 0.930 . S
H1946 C1956 0.930 . S
H1947 C1959 0.929 . S
H1948 C1962 0.930 . S
H1949 C1964 0.960 . S
H1950 C1964 0.960 . S
H1951 C1964 0.960 . S
C1952 H1944 0.929 . S
C1952 C1953 1.377 . S
C1952 C1954 1.384 . S
C1953 C1952 1.377 . S
C1953 C1959 1.390 . S
C1954 H1945 0.930 . S
C1954 C1952 1.384 . S
C1954 C1955 1.372 . S
C1955 C1954 1.372 . S
C1955 C1956 1.400 . S
C1955 C1960 1.490 . S
C1956 H1946 0.930 . S
C1956 C1955 1.400 . S
C1956 C1959 1.386 . S
H1957 C1973 0.930 . S
H1958 C1974 0.931 . S
C1959 H1947 0.929 . S
C1959 C1953 1.390 . S
C1959 C1956 1.386 . S
C1960 C1955 1.490 . S
C1960 C1962 1.395 . S
C1960 C1963 1.403 . S
H1961 C1967 0.930 . S
C1962 H1948 0.930 . S
C1962 C1960 1.395 . S
C1962 C1965 1.403 . S
C1963 C1960 1.403 . S
C1963 C1964 1.524 . S
C1963 C1967 1.400 . S
C1964 H1949 0.960 . S
C1964 H1950 0.960 . S
C1964 H1951 0.960 . S
C1964 C1963 1.524 . S
C1965 C1962 1.403 . S
C1965 C1966 1.392 . S
C1965 C1969 1.495 . S
C1966 C1965 1.392 . S
C1966 C1967 1.385 . S
C1966 C1968 1.478 . S
C1967 H1961 0.930 . S
C1967 C1963 1.400 . S
C1967 C1966 1.385 . S
C1968 C1966 1.478 . S
C1968 C1970 1.381 . S
C1968 C1974 1.383 . S
C1969 C1965 1.495 . S
C1969 H1975 0.959 . S
C1969 H1976 0.961 . S
C1969 H1977 0.960 . S
C1970 C1968 1.381 . S
C1970 C1971 1.394 . S
C1970 H1978 0.930 . S
C1971 C1970 1.394 . S
C1971 C1972 1.383 . S
C1971 H1979 0.929 . S
C1972 C1971 1.383 . S
C1972 C1973 1.377 . S
C1973 H1957 0.930 . S
C1973 C1972 1.377 . S
C1973 C1974 1.379 . S
C1974 H1958 0.931 . S
C1974 C1968 1.383 . S
C1974 C1973 1.379 . S
H1975 C1969 0.959 . S
H1976 C1969 0.961 . S
H1977 C1969 0.960 . S
H1978 C1970 0.930 . S
H1979 C1971 0.929 . S
H1980 C1988 0.929 . S
H1981 C1990 0.930 . S
H1982 C1992 0.930 . S
H1983 C1995 0.929 . S
H1984 C1998 0.930 . S
H1985 C2000 0.960 . S
H1986 C2000 0.960 . S
H1987 C2000 0.960 . S
C1988 H1980 0.929 . S
C1988 C1989 1.377 . S
C1988 C1990 1.384 . S
C1989 C1988 1.377 . S
C1989 C1995 1.390 . S
C1990 H1981 0.930 . S
C1990 C1988 1.384 . S
C1990 C1991 1.372 . S
C1991 C1990 1.372 . S
C1991 C1992 1.400 . S
C1991 C1996 1.490 . S
C1992 H1982 0.930 . S
C1992 C1991 1.400 . S
C1992 C1995 1.386 . S
H1993 C2009 0.930 . S
H1994 C2010 0.931 . S
C1995 H1983 0.929 . S
C1995 C1989 1.390 . S
C1995 C1992 1.386 . S
C1996 C1991 1.490 . S
C1996 C1998 1.395 . S
C1996 C1999 1.403 . S
H1997 C2003 0.930 . S
C1998 H1984 0.930 . S
C1998 C1996 1.395 . S
C1998 C2001 1.403 . S
C1999 C1996 1.403 . S
C1999 C2000 1.524 . S
C1999 C2003 1.400 . S
C2000 H1985 0.960 . S
C2000 H1986 0.960 . S
C2000 H1987 0.960 . S
C2000 C1999 1.524 . S
C2001 C1998 1.403 . S
C2001 C2002 1.392 . S
C2001 C2005 1.495 . S
C2002 C2001 1.392 . S
C2002 C2003 1.385 . S
C2002 C2004 1.478 . S
C2003 H1997 0.930 . S
C2003 C1999 1.400 . S
C2003 C2002 1.385 . S
C2004 C2002 1.478 . S
C2004 C2006 1.381 . S
C2004 C2010 1.383 . S
C2005 C2001 1.495 . S
C2005 H2011 0.959 . S
C2005 H2012 0.961 . S
C2005 H2013 0.960 . S
C2006 C2004 1.381 . S
C2006 C2007 1.394 . S
C2006 H2014 0.930 . S
C2007 C2006 1.394 . S
C2007 C2008 1.383 . S
C2007 H2015 0.929 . S
C2008 C2007 1.383 . S
C2008 C2009 1.377 . S
C2009 H1993 0.930 . S
C2009 C2008 1.377 . S
C2009 C2010 1.379 . S
C2010 H1994 0.931 . S
C2010 C2004 1.383 . S
C2010 C2009 1.379 . S
H2011 C2005 0.959 . S
H2012 C2005 0.961 . S
H2013 C2005 0.960 . S
H2014 C2006 0.930 . S
H2015 C2007 0.929 . S
H2016 C2024 0.929 . S
H2017 C2026 0.930 . S
H2018 C2028 0.930 . S
H2019 C2031 0.929 . S
H2020 C2034 0.930 . S
H2021 C2036 0.960 . S
H2022 C2036 0.960 . S
H2023 C2036 0.960 . S
C2024 H2016 0.929 . S
C2024 C2025 1.377 . S
C2024 C2026 1.384 . S
C2025 C2024 1.377 . S
C2025 C2031 1.390 . S
C2026 H2017 0.930 . S
C2026 C2024 1.384 . S
C2026 C2027 1.372 . S
C2027 C2026 1.372 . S
C2027 C2028 1.400 . S
C2027 C2032 1.490 . S
C2028 H2018 0.930 . S
C2028 C2027 1.400 . S
C2028 C2031 1.386 . S
H2029 C2045 0.930 . S
H2030 C2046 0.931 . S
C2031 H2019 0.929 . S
C2031 C2025 1.390 . S
C2031 C2028 1.386 . S
C2032 C2027 1.490 . S
C2032 C2034 1.395 . S
C2032 C2035 1.403 . S
H2033 C2039 0.930 . S
C2034 H2020 0.930 . S
C2034 C2032 1.395 . S
C2034 C2037 1.403 . S
C2035 C2032 1.403 . S
C2035 C2036 1.524 . S
C2035 C2039 1.400 . S
C2036 H2021 0.960 . S
C2036 H2022 0.960 . S
C2036 H2023 0.960 . S
C2036 C2035 1.524 . S
C2037 C2034 1.403 . S
C2037 C2038 1.392 . S
C2037 C2041 1.495 . S
C2038 C2037 1.392 . S
C2038 C2039 1.385 . S
C2038 C2040 1.478 . S
C2039 H2033 0.930 . S
C2039 C2035 1.400 . S
C2039 C2038 1.385 . S
C2040 C2038 1.478 . S
C2040 C2042 1.381 . S
C2040 C2046 1.383 . S
C2041 C2037 1.495 . S
C2041 H2047 0.959 . S
C2041 H2048 0.961 . S
C2041 H2049 0.960 . S
C2042 C2040 1.381 . S
C2042 C2043 1.394 . S
C2042 H2050 0.930 . S
C2043 C2042 1.394 . S
C2043 C2044 1.383 . S
C2043 H2051 0.929 . S
C2044 C2043 1.383 . S
C2044 C2045 1.377 . S
C2045 H2029 0.930 . S
C2045 C2044 1.377 . S
C2045 C2046 1.379 . S
C2046 H2030 0.931 . S
C2046 C2040 1.383 . S
C2046 C2045 1.379 . S
H2047 C2041 0.959 . S
H2048 C2041 0.961 . S
H2049 C2041 0.960 . S
H2050 C2042 0.930 . S
H2051 C2043 0.929 . S
H2052 C2060 0.929 . S
H2053 C2062 0.930 . S
H2054 C2064 0.930 . S
H2055 C2067 0.929 . S
H2056 C2070 0.930 . S
H2057 C2072 0.960 . S
H2058 C2072 0.960 . S
H2059 C2072 0.960 . S
C2060 H2052 0.929 . S
C2060 C2061 1.377 . S
C2060 C2062 1.384 . S
C2061 C2060 1.377 . S
C2061 C2067 1.390 . S
C2062 H2053 0.930 . S
C2062 C2060 1.384 . S
C2062 C2063 1.372 . S
C2063 C2062 1.372 . S
C2063 C2064 1.400 . S
C2063 C2068 1.490 . S
C2064 H2054 0.930 . S
C2064 C2063 1.400 . S
C2064 C2067 1.386 . S
H2065 C2081 0.930 . S
H2066 C2082 0.931 . S
C2067 H2055 0.929 . S
C2067 C2061 1.390 . S
C2067 C2064 1.386 . S
C2068 C2063 1.490 . S
C2068 C2070 1.395 . S
C2068 C2071 1.403 . S
H2069 C2075 0.930 . S
C2070 H2056 0.930 . S
C2070 C2068 1.395 . S
C2070 C2073 1.403 . S
C2071 C2068 1.403 . S
C2071 C2072 1.524 . S
C2071 C2075 1.400 . S
C2072 H2057 0.960 . S
C2072 H2058 0.960 . S
C2072 H2059 0.960 . S
C2072 C2071 1.524 . S
C2073 C2070 1.403 . S
C2073 C2074 1.392 . S
C2073 C2077 1.495 . S
C2074 C2073 1.392 . S
C2074 C2075 1.385 . S
C2074 C2076 1.478 . S
C2075 H2069 0.930 . S
C2075 C2071 1.400 . S
C2075 C2074 1.385 . S
C2076 C2074 1.478 . S
C2076 C2078 1.381 . S
C2076 C2082 1.383 . S
C2077 C2073 1.495 . S
C2077 H2083 0.959 . S
C2077 H2084 0.961 . S
C2077 H2085 0.960 . S
C2078 C2076 1.381 . S
C2078 C2079 1.394 . S
C2078 H2086 0.930 . S
C2079 C2078 1.394 . S
C2079 C2080 1.383 . S
C2079 H2087 0.929 . S
C2080 C2079 1.383 . S
C2080 C2081 1.377 . S
C2081 H2065 0.930 . S
C2081 C2080 1.377 . S
C2081 C2082 1.379 . S
C2082 H2066 0.931 . S
C2082 C2076 1.383 . S
C2082 C2081 1.379 . S
H2083 C2077 0.959 . S
H2084 C2077 0.961 . S
H2085 C2077 0.960 . S
H2086 C2078 0.930 . S
H2087 C2079 0.929 . S
H2088 C2096 0.929 . S
H2089 C2098 0.930 . S
H2090 C2100 0.930 . S
H2091 C2103 0.929 . S
H2092 C2106 0.930 . S
H2093 C2108 0.960 . S
H2094 C2108 0.960 . S
H2095 C2108 0.960 . S
C2096 H2088 0.929 . S
C2096 C2097 1.377 . S
C2096 C2098 1.384 . S
C2097 C2096 1.377 . S
C2097 C2103 1.390 . S
C2098 H2089 0.930 . S
C2098 C2096 1.384 . S
C2098 C2099 1.372 . S
C2099 C2098 1.372 . S
C2099 C2100 1.400 . S
C2099 C2104 1.490 . S
C2100 H2090 0.930 . S
C2100 C2099 1.400 . S
C2100 C2103 1.386 . S
H2101 C2117 0.930 . S
H2102 C2118 0.931 . S
C2103 H2091 0.929 . S
C2103 C2097 1.390 . S
C2103 C2100 1.386 . S
C2104 C2099 1.490 . S
C2104 C2106 1.395 . S
C2104 C2107 1.403 . S
H2105 C2111 0.930 . S
C2106 H2092 0.930 . S
C2106 C2104 1.395 . S
C2106 C2109 1.403 1_565 S
C2107 C2104 1.403 . S
C2107 C2108 1.524 . S
C2107 C2111 1.400 1_565 S
C2108 H2093 0.960 . S
C2108 H2094 0.960 . S
C2108 H2095 0.960 . S
C2108 C2107 1.524 . S
C2109 C2106 1.403 1_545 S
C2109 C2110 1.392 . S
C2109 C2113 1.495 . S
C2110 C2109 1.392 . S
C2110 C2111 1.385 . S
C2110 C2112 1.478 . S
C2111 H2105 0.930 . S
C2111 C2107 1.400 1_545 S
C2111 C2110 1.385 . S
C2112 C2110 1.478 . S
C2112 C2114 1.381 . S
C2112 C2118 1.383 . S
C2113 C2109 1.495 . S
C2113 H2119 0.959 . S
C2113 H2120 0.961 . S
C2113 H2121 0.960 . S
C2114 C2112 1.381 . S
C2114 C2115 1.394 . S
C2114 H2122 0.930 . S
C2115 C2114 1.394 . S
C2115 C2116 1.383 . S
C2115 H2123 0.929 . S
C2116 C2115 1.383 . S
C2116 C2117 1.377 . S
C2117 H2101 0.930 . S
C2117 C2116 1.377 . S
C2117 C2118 1.379 . S
C2118 H2102 0.931 . S
C2118 C2112 1.383 . S
C2118 C2117 1.379 . S
H2119 C2113 0.959 . S
H2120 C2113 0.961 . S
H2121 C2113 0.960 . S
H2122 C2114 0.930 . S
H2123 C2115 0.929 . S
H2124 C2132 0.929 1_545 S
H2125 C2134 0.930 . S
H2126 C2136 0.930 . S
H2127 C2139 0.929 . S
H2128 C2142 0.930 . S
H2129 C2144 0.960 . S
H2130 C2144 0.960 . S
H2131 C2144 0.960 . S
C2132 H2124 0.929 1_565 S
C2132 C2133 1.377 . S
C2132 C2134 1.384 . S
C2133 C2132 1.377 . S
C2133 C2139 1.390 . S
C2134 H2125 0.930 . S
C2134 C2132 1.384 . S
C2134 C2135 1.372 . S
C2135 C2134 1.372 . S
C2135 C2136 1.400 . S
C2135 C2140 1.490 . S
C2136 H2126 0.930 . S
C2136 C2135 1.400 . S
C2136 C2139 1.386 . S
H2137 C2153 0.930 . S
H2138 C2154 0.931 . S
C2139 H2127 0.929 . S
C2139 C2133 1.390 . S
C2139 C2136 1.386 . S
C2140 C2135 1.490 . S
C2140 C2142 1.395 . S
C2140 C2143 1.403 . S
H2141 C2147 0.930 . S
C2142 H2128 0.930 . S
C2142 C2140 1.395 . S
C2142 C2145 1.403 . S
C2143 C2140 1.403 . S
C2143 C2144 1.524 . S
C2143 C2147 1.400 . S
C2144 H2129 0.960 . S
C2144 H2130 0.960 . S
C2144 H2131 0.960 . S
C2144 C2143 1.524 . S
C2145 C2142 1.403 . S
C2145 C2146 1.392 . S
C2145 C2149 1.495 1_455 S
C2146 C2145 1.392 . S
C2146 C2147 1.385 . S
C2146 C2148 1.478 1_455 S
C2147 H2141 0.930 . S
C2147 C2143 1.400 . S
C2147 C2146 1.385 . S
C2148 C2146 1.478 1_655 S
C2148 C2150 1.381 . S
C2148 C2154 1.383 . S
C2149 C2145 1.495 1_655 S
C2149 H2155 0.959 1_655 S
C2149 H2156 0.961 . S
C2149 H2157 0.960 . S
C2150 C2148 1.381 . S
C2150 C2151 1.394 . S
C2150 H2158 0.930 . S
C2151 C2150 1.394 . S
C2151 C2152 1.383 . S
C2151 H2159 0.929 . S
C2152 C2151 1.383 . S
C2152 C2153 1.377 . S
C2153 H2137 0.930 . S
C2153 C2152 1.377 . S
C2153 C2154 1.379 . S
C2154 H2138 0.931 . S
C2154 C2148 1.383 . S
C2154 C2153 1.379 . S
H2155 C2149 0.959 1_455 S
H2156 C2149 0.961 . S
H2157 C2149 0.960 . S
H2158 C2150 0.930 . S
H2159 C2151 0.929 . S
H2160 C2168 0.929 . S
H2161 C2170 0.930 . S
H2162 C2172 0.930 . S
H2163 C2175 0.929 . S
H2164 C2178 0.930 . S
H2165 C2180 0.960 . S
H2166 C2180 0.960 . S
H2167 C2180 0.962 1_565 S
C2168 H2160 0.929 . S
C2168 C2169 1.377 . S
C2168 C2170 1.384 . S
C2169 C2168 1.377 . S
C2169 C2175 1.390 1_545 S
C2170 H2161 0.930 . S
C2170 C2168 1.384 . S
C2170 C2171 1.372 . S
C2171 C2170 1.372 . S
C2171 C2172 1.400 1_545 S
C2171 C2176 1.490 . S
C2172 H2162 0.930 . S
C2172 C2171 1.400 1_565 S
C2172 C2175 1.386 . S
H2173 C2189 0.930 . S
H2174 C2190 0.931 . S
C2175 H2163 0.929 . S
C2175 C2169 1.390 1_565 S
C2175 C2172 1.386 . S
C2176 C2171 1.490 . S
C2176 C2178 1.395 . S
C2176 C2179 1.403 . S
H2177 C2183 0.930 . S
C2178 H2164 0.930 . S
C2178 C2176 1.395 . S
C2178 C2181 1.403 1_554 S
C2179 C2176 1.403 . S
C2179 C2180 1.524 . S
C2179 C2183 1.400 1_554 S
C2180 H2165 0.960 . S
C2180 H2166 0.960 . S
C2180 H2167 0.962 1_545 S
C2180 C2179 1.524 . S
C2181 C2178 1.403 1_556 S
C2181 C2182 1.392 . S
C2181 C2185 1.495 . S
C2182 C2181 1.392 . S
C2182 C2183 1.385 . S
C2182 C2184 1.478 . S
C2183 H2177 0.930 . S
C2183 C2179 1.400 1_556 S
C2183 C2182 1.385 . S
C2184 C2182 1.478 . S
C2184 C2186 1.381 . S
C2184 C2190 1.383 1_545 S
C2185 C2181 1.495 . S
C2185 H2191 0.959 . S
C2185 H2192 0.961 . S
C2185 H2193 0.960 . S
C2186 C2184 1.381 . S
C2186 C2187 1.394 . S
C2186 H2194 0.930 . S
C2187 C2186 1.394 . S
C2187 C2188 1.383 . S
C2187 H2195 0.929 . S
C2188 C2187 1.383 . S
C2188 C2189 1.377 1_545 S
C2189 H2173 0.930 . S
C2189 C2188 1.377 1_565 S
C2189 C2190 1.379 . S
C2190 H2174 0.931 . S
C2190 C2184 1.383 1_565 S
C2190 C2189 1.379 . S
H2191 C2185 0.959 . S
H2192 C2185 0.961 . S
H2193 C2185 0.960 . S
H2194 C2186 0.930 . S
H2195 C2187 0.929 . S
H2196 C2204 0.929 . S
H2197 C2206 0.930 . S
H2198 C2208 0.930 . S
H2199 C2211 0.929 . S
H2200 C2214 0.930 . S
H2201 C2216 0.960 . S
H2202 C2216 0.960 . S
H2203 C2216 0.960 . S
C2204 H2196 0.929 . S
C2204 C2205 1.377 . S
C2204 C2206 1.384 . S
C2205 C2204 1.377 . S
C2205 C2211 1.390 . S
C2206 H2197 0.930 . S
C2206 C2204 1.384 . S
C2206 C2207 1.372 . S
C2207 C2206 1.372 . S
C2207 C2208 1.400 . S
C2207 C2212 1.490 . S
C2208 H2198 0.930 . S
C2208 C2207 1.400 . S
C2208 C2211 1.386 . S
H2209 C2225 0.930 . S
H2210 C2226 0.931 . S
C2211 H2199 0.929 . S
C2211 C2205 1.390 . S
C2211 C2208 1.386 . S
C2212 C2207 1.490 . S
C2212 C2214 1.395 1_455 S
C2212 C2215 1.403 . S
H2213 C2219 0.930 . S
C2214 H2200 0.930 . S
C2214 C2212 1.395 1_655 S
C2214 C2217 1.403 1_556 S
C2215 C2212 1.403 . S
C2215 C2216 1.524 . S
C2215 C2219 1.400 1_556 S
C2216 H2201 0.960 . S
C2216 H2202 0.960 . S
C2216 H2203 0.960 . S
C2216 C2215 1.524 . S
C2217 C2214 1.403 1_554 S
C2217 C2218 1.392 1_655 S
C2217 C2221 1.495 . S
C2218 C2217 1.392 1_455 S
C2218 C2219 1.385 . S
C2218 C2220 1.478 . S
C2219 H2213 0.930 . S
C2219 C2215 1.400 1_554 S
C2219 C2218 1.385 . S
C2220 C2218 1.478 . S
C2220 C2222 1.381 . S
C2220 C2226 1.383 . S
C2221 C2217 1.495 . S
C2221 H2227 0.959 . S
C2221 H2228 0.961 . S
C2221 H2229 0.960 . S
C2222 C2220 1.381 . S
C2222 C2223 1.394 . S
C2222 H2230 0.911 1_455 S
C2223 C2222 1.394 . S
C2223 C2224 1.383 . S
C2223 H2231 0.929 . S
C2224 C2223 1.383 . S
C2224 C2225 1.377 . S
C2225 H2209 0.930 . S
C2225 C2224 1.377 . S
C2225 C2226 1.379 . S
C2226 H2210 0.931 . S
C2226 C2220 1.383 . S
C2226 C2225 1.379 . S
H2227 C2221 0.959 . S
H2228 C2221 0.961 . S
H2229 C2221 0.960 . S
H2230 C2222 0.911 1_655 S
H2231 C2223 0.929 . S
H2232 C2240 0.929 . S
H2233 C2242 0.930 . S
H2234 C2244 0.930 . S
H2235 C2247 0.929 . S
H2236 C2250 0.930 . S
H2237 C2252 0.960 . S
H2238 C2252 0.960 . S
H2239 C2252 0.960 . S
C2240 H2232 0.929 . S
C2240 C2241 1.377 . S
C2240 C2242 1.384 . S
C2241 C2240 1.377 . S
C2241 C2247 1.390 . S
C2242 H2233 0.930 . S
C2242 C2240 1.384 . S
C2242 C2243 1.372 . S
C2243 C2242 1.372 . S
C2243 C2244 1.400 . S
C2243 C2248 1.490 . S
C2244 H2234 0.930 . S
C2244 C2243 1.400 . S
C2244 C2247 1.386 . S
H2245 C2261 0.930 . S
H2246 C2262 0.931 . S
C2247 H2235 0.929 . S
C2247 C2241 1.390 . S
C2247 C2244 1.386 . S
C2248 C2243 1.490 . S
C2248 C2250 1.395 . S
C2248 C2251 1.403 . S
H2249 C2255 0.930 . S
C2250 H2236 0.930 . S
C2250 C2248 1.395 . S
C2250 C2253 1.403 1_556 S
C2251 C2248 1.403 . S
C2251 C2252 1.524 . S
C2251 C2255 1.400 1_556 S
C2252 H2237 0.960 . S
C2252 H2238 0.960 . S
C2252 H2239 0.960 . S
C2252 C2251 1.524 . S
C2253 C2250 1.403 1_554 S
C2253 C2254 1.392 . S
C2253 C2257 1.495 . S
C2254 C2253 1.392 . S
C2254 C2255 1.385 . S
C2254 C2256 1.478 . S
C2255 H2249 0.930 . S
C2255 C2251 1.400 1_554 S
C2255 C2254 1.385 . S
C2256 C2254 1.478 . S
C2256 C2258 1.381 . S
C2256 C2262 1.383 . S
C2257 C2253 1.495 . S
C2257 H2263 0.959 . S
C2257 H2264 0.961 . S
C2257 H2265 0.960 . S
C2258 C2256 1.381 . S
C2258 C2259 1.394 . S
C2258 H2266 0.930 . S
C2259 C2258 1.394 . S
C2259 C2260 1.383 . S
C2259 H2267 0.929 . S
C2260 C2259 1.383 . S
C2260 C2261 1.377 . S
C2261 H2245 0.930 . S
C2261 C2260 1.377 . S
C2261 C2262 1.379 . S
C2262 H2246 0.931 . S
C2262 C2256 1.383 . S
C2262 C2261 1.379 . S
H2263 C2257 0.959 . S
H2264 C2257 0.961 . S
H2265 C2257 0.960 . S
H2266 C2258 0.930 . S
H2267 C2259 0.929 . S
H2268 C2276 0.929 . S
H2269 C2278 0.930 . S
H2270 C2280 0.930 . S
H2271 C2283 0.929 . S
H2272 C2286 0.930 . S
H2273 C2288 0.960 . S
H2274 C2288 0.960 . S
H2275 C2288 0.960 . S
C2276 H2268 0.929 . S
C2276 C2277 1.377 . S
C2276 C2278 1.384 . S
C2277 C2276 1.377 . S
C2277 C2283 1.390 . S
C2278 H2269 0.930 . S
C2278 C2276 1.384 . S
C2278 C2279 1.372 . S
C2279 C2278 1.372 . S
C2279 C2280 1.400 . S
C2279 C2284 1.490 . S
C2280 H2270 0.930 . S
C2280 C2279 1.400 . S
C2280 C2283 1.386 . S
H2281 C2297 0.930 . S
H2282 C2298 0.931 . S
C2283 H2271 0.929 . S
C2283 C2277 1.390 . S
C2283 C2280 1.386 . S
C2284 C2279 1.490 . S
C2284 C2286 1.395 . S
C2284 C2287 1.403 . S
H2285 C2291 0.930 . S
C2286 H2272 0.930 . S
C2286 C2284 1.395 . S
C2286 C2289 1.403 . S
C2287 C2284 1.403 . S
C2287 C2288 1.524 . S
C2287 C2291 1.400 . S
C2288 H2273 0.960 . S
C2288 H2274 0.960 . S
C2288 H2275 0.960 . S
C2288 C2287 1.524 . S
C2289 C2286 1.403 . S
C2289 C2290 1.392 . S
C2289 C2293 1.495 . S
C2290 C2289 1.392 . S
C2290 C2291 1.385 . S
C2290 C2292 1.478 . S
C2291 H2285 0.930 . S
C2291 C2287 1.400 . S
C2291 C2290 1.385 . S
C2292 C2290 1.478 . S
C2292 C2294 1.381 . S
C2292 C2298 1.383 . S
C2293 C2289 1.495 . S
C2293 H2299 0.959 . S
C2293 H2300 0.961 . S
C2293 H2301 0.960 . S
C2294 C2292 1.381 . S
C2294 C2295 1.394 . S
C2294 H2302 0.930 . S
C2295 C2294 1.394 . S
C2295 C2296 1.383 . S
C2295 H2303 0.929 . S
C2296 C2295 1.383 . S
C2296 C2297 1.377 . S
C2297 H2281 0.930 . S
C2297 C2296 1.377 . S
C2297 C2298 1.379 . S
C2298 H2282 0.931 . S
C2298 C2292 1.383 . S
C2298 C2297 1.379 . S
H2299 C2293 0.959 . S
H2300 C2293 0.961 . S
H2301 C2293 0.960 . S
H2302 C2294 0.930 . S
H2303 C2295 0.929 . S
H2304 C2312 0.929 . S
H2305 C2314 0.930 . S
H2306 C2316 0.930 . S
H2307 C2319 0.929 . S
H2308 C2322 0.930 . S
H2309 C2324 0.960 . S
H2310 C2324 0.960 . S
H2311 C2324 0.960 . S
C2312 H2304 0.929 . S
C2312 C2313 1.377 . S
C2312 C2314 1.384 . S
C2313 C2312 1.377 . S
C2313 C2319 1.390 . S
C2314 H2305 0.930 . S
C2314 C2312 1.384 . S
C2314 C2315 1.372 . S
C2315 C2314 1.372 . S
C2315 C2316 1.400 . S
C2315 C2320 1.490 . S
C2316 H2306 0.930 . S
C2316 C2315 1.400 . S
C2316 C2319 1.386 . S
H2317 C2333 0.930 . S
H2318 C2334 0.931 . S
C2319 H2307 0.929 . S
C2319 C2313 1.390 . S
C2319 C2316 1.386 . S
C2320 C2315 1.490 . S
C2320 C2322 1.395 . S
C2320 C2323 1.403 . S
H2321 C2327 0.930 . S
C2322 H2308 0.930 . S
C2322 C2320 1.395 . S
C2322 C2325 1.403 . S
C2323 C2320 1.403 . S
C2323 C2324 1.524 . S
C2323 C2327 1.400 . S
C2324 H2309 0.960 . S
C2324 H2310 0.960 . S
C2324 H2311 0.960 . S
C2324 C2323 1.524 . S
C2325 C2322 1.403 . S
C2325 C2326 1.392 . S
C2325 C2329 1.495 . S
C2326 C2325 1.392 . S
C2326 C2327 1.385 . S
C2326 C2328 1.478 . S
C2327 H2321 0.930 . S
C2327 C2323 1.400 . S
C2327 C2326 1.385 . S
C2328 C2326 1.478 . S
C2328 C2330 1.381 . S
C2328 C2334 1.383 . S
C2329 C2325 1.495 . S
C2329 H2335 0.959 . S
C2329 H2336 0.961 . S
C2329 H2337 0.960 . S
C2330 C2328 1.381 . S
C2330 C2331 1.394 . S
C2330 H2338 0.930 . S
C2331 C2330 1.394 . S
C2331 C2332 1.383 . S
C2331 H2339 0.929 . S
C2332 C2331 1.383 . S
C2332 C2333 1.377 . S
C2333 H2317 0.930 . S
C2333 C2332 1.377 . S
C2333 C2334 1.379 . S
C2334 H2318 0.931 . S
C2334 C2328 1.383 . S
C2334 C2333 1.379 . S
H2335 C2329 0.959 . S
H2336 C2329 0.961 . S
H2337 C2329 0.960 . S
H2338 C2330 0.930 . S
H2339 C2331 0.929 . S
H2340 C2348 0.929 . S
H2341 C2350 0.930 . S
H2342 C2352 0.930 . S
H2343 C2355 0.929 . S
H2344 C2358 0.930 . S
H2345 C2360 0.960 . S
H2346 C2360 0.960 . S
H2347 C2360 0.960 . S
C2348 H2340 0.929 . S
C2348 C2349 1.377 . S
C2348 C2350 1.384 . S
C2349 C2348 1.377 . S
C2349 C2355 1.390 . S
C2350 H2341 0.930 . S
C2350 C2348 1.384 . S
C2350 C2351 1.372 . S
C2351 C2350 1.372 . S
C2351 C2352 1.400 . S
C2351 C2356 1.490 . S
C2352 H2342 0.930 . S
C2352 C2351 1.400 . S
C2352 C2355 1.386 . S
H2353 C2369 0.930 . S
H2354 C2370 0.931 . S
C2355 H2343 0.929 . S
C2355 C2349 1.390 . S
C2355 C2352 1.386 . S
C2356 C2351 1.490 . S
C2356 C2358 1.395 . S
C2356 C2359 1.403 . S
H2357 C2363 0.930 . S
C2358 H2344 0.930 . S
C2358 C2356 1.395 . S
C2358 C2361 1.403 . S
C2359 C2356 1.403 . S
C2359 C2360 1.524 . S
C2359 C2363 1.400 . S
C2360 H2345 0.960 . S
C2360 H2346 0.960 . S
C2360 H2347 0.960 . S
C2360 C2359 1.524 . S
C2361 C2358 1.403 . S
C2361 C2362 1.392 . S
C2361 C2365 1.495 . S
C2362 C2361 1.392 . S
C2362 C2363 1.385 . S
C2362 C2364 1.478 . S
C2363 H2357 0.930 . S
C2363 C2359 1.400 . S
C2363 C2362 1.385 . S
C2364 C2362 1.478 . S
C2364 C2366 1.381 . S
C2364 C2370 1.383 . S
C2365 C2361 1.495 . S
C2365 H2371 0.959 . S
C2365 H2372 0.961 . S
C2365 H2373 0.960 . S
C2366 C2364 1.381 . S
C2366 C2367 1.394 . S
C2366 H2374 0.930 . S
C2367 C2366 1.394 . S
C2367 C2368 1.383 . S
C2367 H2375 0.929 . S
C2368 C2367 1.383 . S
C2368 C2369 1.377 . S
C2369 H2353 0.930 . S
C2369 C2368 1.377 . S
C2369 C2370 1.379 . S
C2370 H2354 0.931 . S
C2370 C2364 1.383 . S
C2370 C2369 1.379 . S
H2371 C2365 0.959 . S
H2372 C2365 0.961 . S
H2373 C2365 0.960 . S
H2374 C2366 0.930 . S
H2375 C2367 0.929 . S
H2376 C2384 0.929 . S
H2377 C2386 0.930 . S
H2378 C2388 0.930 . S
H2379 C2391 0.929 . S
H2380 C2394 0.930 . S
H2381 C2396 0.960 . S
H2382 C2396 0.960 . S
H2383 C2396 0.960 . S
C2384 H2376 0.929 . S
C2384 C2385 1.377 . S
C2384 C2386 1.384 . S
C2385 C2384 1.377 . S
C2385 C2391 1.390 . S
C2386 H2377 0.930 . S
C2386 C2384 1.384 . S
C2386 C2387 1.372 . S
C2387 C2386 1.372 . S
C2387 C2388 1.400 . S
C2387 C2392 1.490 . S
C2388 H2378 0.930 . S
C2388 C2387 1.400 . S
C2388 C2391 1.386 . S
H2389 C2405 0.930 . S
H2390 C2406 0.931 . S
C2391 H2379 0.929 . S
C2391 C2385 1.390 . S
C2391 C2388 1.386 . S
C2392 C2387 1.490 . S
C2392 C2394 1.395 . S
C2392 C2395 1.403 . S
H2393 C2399 0.930 . S
C2394 H2380 0.930 . S
C2394 C2392 1.395 . S
C2394 C2397 1.403 . S
C2395 C2392 1.403 . S
C2395 C2396 1.524 . S
C2395 C2399 1.400 . S
C2396 H2381 0.960 . S
C2396 H2382 0.960 . S
C2396 H2383 0.960 . S
C2396 C2395 1.524 . S
C2397 C2394 1.403 . S
C2397 C2398 1.392 . S
C2397 C2401 1.495 . S
C2398 C2397 1.392 . S
C2398 C2399 1.385 . S
C2398 C2400 1.478 . S
C2399 H2393 0.930 . S
C2399 C2395 1.400 . S
C2399 C2398 1.385 . S
C2400 C2398 1.478 . S
C2400 C2402 1.381 . S
C2400 C2406 1.383 . S
C2401 C2397 1.495 . S
C2401 H2407 0.959 . S
C2401 H2408 0.961 . S
C2401 H2409 0.960 . S
C2402 C2400 1.381 . S
C2402 C2403 1.394 . S
C2402 H2410 0.930 . S
C2403 C2402 1.394 . S
C2403 C2404 1.383 . S
C2403 H2411 0.929 . S
C2404 C2403 1.383 . S
C2404 C2405 1.377 . S
C2405 H2389 0.930 . S
C2405 C2404 1.377 . S
C2405 C2406 1.379 . S
C2406 H2390 0.931 . S
C2406 C2400 1.383 . S
C2406 C2405 1.379 . S
H2407 C2401 0.959 . S
H2408 C2401 0.961 . S
H2409 C2401 0.960 . S
H2410 C2402 0.930 . S
H2411 C2403 0.929 . S
H2412 C2420 0.929 . S
H2413 C2422 0.930 . S
H2414 C2424 0.930 . S
H2415 C2427 0.929 . S
H2416 C2430 0.930 . S
H2417 C2432 0.960 . S
H2418 C2432 0.960 . S
H2419 C2432 0.960 . S
C2420 H2412 0.929 . S
C2420 C2421 1.377 . S
C2420 C2422 1.384 . S
C2421 C2420 1.377 . S
C2421 C2427 1.390 . S
C2422 H2413 0.930 . S
C2422 C2420 1.384 . S
C2422 C2423 1.372 . S
C2423 C2422 1.372 . S
C2423 C2424 1.400 . S
C2423 C2428 1.490 . S
C2424 H2414 0.930 . S
C2424 C2423 1.400 . S
C2424 C2427 1.386 . S
H2425 C2441 0.930 . S
H2426 C2442 0.931 . S
C2427 H2415 0.929 . S
C2427 C2421 1.390 . S
C2427 C2424 1.386 . S
C2428 C2423 1.490 . S
C2428 C2430 1.395 . S
C2428 C2431 1.403 . S
H2429 C2435 0.930 . S
C2430 H2416 0.930 . S
C2430 C2428 1.395 . S
C2430 C2433 1.403 . S
C2431 C2428 1.403 . S
C2431 C2432 1.524 . S
C2431 C2435 1.400 . S
C2432 H2417 0.960 . S
C2432 H2418 0.960 . S
C2432 H2419 0.960 . S
C2432 C2431 1.524 . S
C2433 C2430 1.403 . S
C2433 C2434 1.392 . S
C2433 C2437 1.495 . S
C2434 C2433 1.392 . S
C2434 C2435 1.385 . S
C2434 C2436 1.478 . S
C2435 H2429 0.930 . S
C2435 C2431 1.400 . S
C2435 C2434 1.385 . S
C2436 C2434 1.478 . S
C2436 C2438 1.381 . S
C2436 C2442 1.383 . S
C2437 C2433 1.495 . S
C2437 H2443 0.959 . S
C2437 H2444 0.961 . S
C2437 H2445 0.960 . S
C2438 C2436 1.381 . S
C2438 C2439 1.394 . S
C2438 H2446 0.930 . S
C2439 C2438 1.394 . S
C2439 C2440 1.383 . S
C2439 H2447 0.929 . S
C2440 C2439 1.383 . S
C2440 C2441 1.377 . S
C2441 H2425 0.930 . S
C2441 C2440 1.377 . S
C2441 C2442 1.379 . S
C2442 H2426 0.931 . S
C2442 C2436 1.383 . S
C2442 C2441 1.379 . S
H2443 C2437 0.959 . S
H2444 C2437 0.961 . S
H2445 C2437 0.960 . S
H2446 C2438 0.930 . S
H2447 C2439 0.929 . S
H2448 C2456 0.929 . S
H2449 C2458 0.930 . S
H2450 C2460 0.930 . S
H2451 C2463 0.929 . S
H2452 C2466 0.930 . S
H2453 C2468 0.960 . S
H2454 C2468 0.960 . S
H2455 C2468 0.960 . S
C2456 H2448 0.929 . S
C2456 C2457 1.377 . S
C2456 C2458 1.384 . S
C2457 C2456 1.377 . S
C2457 C2463 1.390 . S
C2458 H2449 0.930 . S
C2458 C2456 1.384 . S
C2458 C2459 1.372 . S
C2459 C2458 1.372 . S
C2459 C2460 1.400 . S
C2459 C2464 1.490 . S
C2460 H2450 0.930 . S
C2460 C2459 1.400 . S
C2460 C2463 1.386 . S
H2461 C2477 0.930 . S
H2462 C2478 0.931 . S
C2463 H2451 0.929 . S
C2463 C2457 1.390 . S
C2463 C2460 1.386 . S
C2464 C2459 1.490 . S
C2464 C2466 1.395 . S
C2464 C2467 1.403 . S
H2465 C2471 0.930 . S
C2466 H2452 0.930 . S
C2466 C2464 1.395 . S
C2466 C2469 1.403 . S
C2467 C2464 1.403 . S
C2467 C2468 1.524 . S
C2467 C2471 1.400 . S
C2468 H2453 0.960 . S
C2468 H2454 0.960 . S
C2468 H2455 0.960 . S
C2468 C2467 1.524 . S
C2469 C2466 1.403 . S
C2469 C2470 1.392 . S
C2469 C2473 1.495 . S
C2470 C2469 1.392 . S
C2470 C2471 1.385 . S
C2470 C2472 1.478 . S
C2471 H2465 0.930 . S
C2471 C2467 1.400 . S
C2471 C2470 1.385 . S
C2472 C2470 1.478 . S
C2472 C2474 1.381 . S
C2472 C2478 1.383 . S
C2473 C2469 1.495 . S
C2473 H2479 0.959 . S
C2473 H2480 0.961 . S
C2473 H2481 0.960 . S
C2474 C2472 1.381 . S
C2474 C2475 1.394 . S
C2474 H2482 0.930 . S
C2475 C2474 1.394 . S
C2475 C2476 1.383 . S
C2475 H2483 0.929 . S
C2476 C2475 1.383 . S
C2476 C2477 1.377 . S
C2477 H2461 0.930 . S
C2477 C2476 1.377 . S
C2477 C2478 1.379 . S
C2478 H2462 0.931 . S
C2478 C2472 1.383 . S
C2478 C2477 1.379 . S
H2479 C2473 0.959 . S
H2480 C2473 0.961 . S
H2481 C2473 0.960 . S
H2482 C2474 0.930 . S
H2483 C2475 0.929 . S
H2484 C2492 0.929 . S
H2485 C2494 0.930 . S
H2486 C2496 0.930 . S
H2487 C2499 0.929 . S
H2488 C2502 0.930 . S
H2489 C2504 0.960 . S
H2490 C2504 0.960 . S
H2491 C2504 0.960 . S
C2492 H2484 0.929 . S
C2492 C2493 1.377 . S
C2492 C2494 1.384 . S
C2493 C2492 1.377 . S
C2493 C2499 1.390 . S
C2494 H2485 0.930 . S
C2494 C2492 1.384 . S
C2494 C2495 1.372 . S
C2495 C2494 1.372 . S
C2495 C2496 1.400 . S
C2495 C2500 1.490 . S
C2496 H2486 0.930 . S
C2496 C2495 1.400 . S
C2496 C2499 1.386 . S
H2497 C2513 0.930 1_545 S
H2498 C2514 0.931 . S
C2499 H2487 0.929 . S
C2499 C2493 1.390 . S
C2499 C2496 1.386 . S
C2500 C2495 1.490 . S
C2500 C2502 1.395 . S
C2500 C2503 1.403 . S
H2501 C2507 0.930 . S
C2502 H2488 0.930 . S
C2502 C2500 1.395 . S
C2502 C2505 1.403 . S
C2503 C2500 1.403 . S
C2503 C2504 1.524 . S
C2503 C2507 1.400 . S
C2504 H2489 0.960 . S
C2504 H2490 0.960 . S
C2504 H2491 0.960 . S
C2504 C2503 1.524 . S
C2505 C2502 1.403 . S
C2505 C2506 1.392 . S
C2505 C2509 1.495 . S
C2506 C2505 1.392 . S
C2506 C2507 1.385 . S
C2506 C2508 1.478 . S
C2507 H2501 0.930 . S
C2507 C2503 1.400 . S
C2507 C2506 1.385 . S
C2508 C2506 1.478 . S
C2508 C2510 1.381 . S
C2508 C2514 1.383 . S
C2509 C2505 1.495 . S
C2509 H2515 0.959 . S
C2509 H2516 0.961 . S
C2509 H2517 0.960 . S
C2510 C2508 1.381 . S
C2510 C2511 1.394 . S
C2510 H2518 0.930 . S
C2511 C2510 1.394 . S
C2511 C2512 1.383 . S
C2511 H2519 0.929 . S
C2512 C2511 1.383 . S
C2512 C2513 1.377 . S
C2513 H2497 0.930 1_565 S
C2513 C2512 1.377 . S
C2513 C2514 1.379 . S
C2514 H2498 0.931 . S
C2514 C2508 1.383 . S
C2514 C2513 1.379 . S
H2515 C2509 0.959 . S
H2516 C2509 0.961 . S
H2517 C2509 0.960 . S
H2518 C2510 0.930 . S
H2519 C2511 0.929 . S
H2520 C2528 0.929 . S
H2521 C2530 0.930 . S
H2522 C2532 0.930 . S
H2523 C2535 0.929 . S
H2524 C2538 0.930 . S
H2525 C2540 0.960 . S
H2526 C2540 0.960 . S
H2527 C2540 0.960 . S
C2528 H2520 0.929 . S
C2528 C2529 1.377 . S
C2528 C2530 1.384 . S
C2529 C2528 1.377 . S
C2529 C2535 1.390 . S
C2530 H2521 0.930 . S
C2530 C2528 1.384 . S
C2530 C2531 1.372 . S
C2531 C2530 1.372 . S
C2531 C2532 1.400 . S
C2531 C2536 1.490 . S
C2532 H2522 0.930 . S
C2532 C2531 1.400 . S
C2532 C2535 1.386 . S
H2533 C2549 0.930 . S
H2534 C2550 0.931 . S
C2535 H2523 0.929 . S
C2535 C2529 1.390 . S
C2535 C2532 1.386 . S
C2536 C2531 1.490 . S
C2536 C2538 1.395 . S
C2536 C2539 1.403 . S
H2537 C2543 0.930 . S
C2538 H2524 0.930 . S
C2538 C2536 1.395 . S
C2538 C2541 1.403 . S
C2539 C2536 1.403 . S
C2539 C2540 1.524 . S
C2539 C2543 1.400 . S
C2540 H2525 0.960 . S
C2540 H2526 0.960 . S
C2540 H2527 0.960 . S
C2540 C2539 1.524 . S
C2541 C2538 1.403 . S
C2541 C2542 1.392 . S
C2541 C2545 1.495 . S
C2542 C2541 1.392 . S
C2542 C2543 1.385 . S
C2542 C2544 1.478 . S
C2543 H2537 0.930 . S
C2543 C2539 1.400 . S
C2543 C2542 1.385 . S
C2544 C2542 1.478 . S
C2544 C2546 1.381 . S
C2544 C2550 1.383 . S
C2545 C2541 1.495 . S
C2545 H2551 0.959 . S
C2545 H2552 0.961 . S
C2545 H2553 0.960 . S
C2546 C2544 1.381 . S
C2546 C2547 1.394 . S
C2546 H2554 0.930 . S
C2547 C2546 1.394 . S
C2547 C2548 1.383 . S
C2547 H2555 0.929 . S
C2548 C2547 1.383 . S
C2548 C2549 1.377 . S
C2549 H2533 0.930 . S
C2549 C2548 1.377 . S
C2549 C2550 1.379 . S
C2550 H2534 0.931 . S
C2550 C2544 1.383 . S
C2550 C2549 1.379 . S
H2551 C2545 0.959 . S
H2552 C2545 0.961 . S
H2553 C2545 0.960 . S
H2554 C2546 0.930 . S
H2555 C2547 0.929 . S
H2556 C2564 0.929 . S
H2557 C2566 0.930 . S
H2558 C2568 0.930 . S
H2559 C2571 0.929 . S
H2560 C2574 0.930 . S
H2561 C2576 0.960 . S
H2562 C2576 0.960 . S
H2563 C2576 0.960 . S
C2564 H2556 0.929 . S
C2564 C2565 1.377 . S
C2564 C2566 1.384 . S
C2565 C2564 1.377 . S
C2565 C2571 1.390 . S
C2566 H2557 0.930 . S
C2566 C2564 1.384 . S
C2566 C2567 1.372 . S
C2567 C2566 1.372 . S
C2567 C2568 1.400 . S
C2567 C2572 1.490 . S
C2568 H2558 0.930 . S
C2568 C2567 1.400 . S
C2568 C2571 1.386 . S
H2569 C2585 0.930 . S
H2570 C2586 0.931 . S
C2571 H2559 0.929 . S
C2571 C2565 1.390 . S
C2571 C2568 1.386 . S
C2572 C2567 1.490 . S
C2572 C2574 1.395 . S
C2572 C2575 1.403 . S
H2573 C2579 0.930 . S
C2574 H2560 0.930 . S
C2574 C2572 1.395 . S
C2574 C2577 1.403 . S
C2575 C2572 1.403 . S
C2575 C2576 1.524 . S
C2575 C2579 1.400 . S
C2576 H2561 0.960 . S
C2576 H2562 0.960 . S
C2576 H2563 0.960 . S
C2576 C2575 1.524 . S
C2577 C2574 1.403 . S
C2577 C2578 1.392 . S
C2577 C2581 1.495 . S
C2578 C2577 1.392 . S
C2578 C2579 1.385 . S
C2578 C2580 1.478 . S
C2579 H2573 0.930 . S
C2579 C2575 1.400 . S
C2579 C2578 1.385 . S
C2580 C2578 1.478 . S
C2580 C2582 1.381 . S
C2580 C2586 1.383 . S
C2581 C2577 1.495 . S
C2581 H2587 0.959 . S
C2581 H2588 0.961 . S
C2581 H2589 0.960 . S
C2582 C2580 1.381 . S
C2582 C2583 1.394 . S
C2582 H2590 0.930 . S
C2583 C2582 1.394 . S
C2583 C2584 1.383 . S
C2583 H2591 0.929 . S
C2584 C2583 1.383 . S
C2584 C2585 1.377 . S
C2585 H2569 0.930 . S
C2585 C2584 1.377 . S
C2585 C2586 1.379 . S
C2586 H2570 0.931 . S
C2586 C2580 1.383 . S
C2586 C2585 1.379 . S
H2587 C2581 0.959 . S
H2588 C2581 0.961 . S
H2589 C2581 0.960 . S
H2590 C2582 0.930 . S
H2591 C2583 0.929 . S
H2592 C2600 0.929 . S
H2593 C2602 0.930 . S
H2594 C2604 0.930 . S
H2595 C2607 0.932 . S
H2596 C2610 0.930 . S
H2597 C2612 0.960 . S
H2598 C2612 0.960 . S
H2599 C2612 0.960 . S
C2600 H2592 0.929 . S
C2600 C2601 1.377 . S
C2600 C2602 1.384 . S
C2601 C2600 1.377 . S
C2601 C2607 1.390 . S
C2602 H2593 0.930 . S
C2602 C2600 1.384 . S
C2602 C2603 1.372 . S
C2603 C2602 1.372 . S
C2603 C2604 1.400 . S
C2603 C2608 1.490 . S
C2604 H2594 0.930 . S
C2604 C2603 1.400 . S
C2604 C2607 1.386 . S
H2605 C2621 0.930 . S
H2606 C2622 0.931 . S
C2607 H2595 0.932 . S
C2607 C2601 1.390 . S
C2607 C2604 1.386 . S
C2608 C2603 1.490 . S
C2608 C2610 1.395 . S
C2608 C2611 1.403 . S
H2609 C2615 0.930 . S
C2610 H2596 0.930 . S
C2610 C2608 1.395 . S
C2610 C2613 1.403 . S
C2611 C2608 1.403 . S
C2611 C2612 1.524 . S
C2611 C2615 1.400 . S
C2612 H2597 0.960 . S
C2612 H2598 0.960 . S
C2612 H2599 0.960 . S
C2612 C2611 1.524 . S
C2613 C2610 1.403 . S
C2613 C2614 1.392 . S
C2613 C2617 1.495 . S
C2614 C2613 1.392 . S
C2614 C2615 1.385 . S
C2614 C2616 1.478 . S
C2615 H2609 0.930 . S
C2615 C2611 1.400 . S
C2615 C2614 1.385 . S
C2616 C2614 1.478 . S
C2616 C2618 1.381 . S
C2616 C2622 1.383 . S
C2617 C2613 1.495 . S
C2617 H2623 0.959 . S
C2617 H2624 0.961 . S
C2617 H2625 0.960 . S
C2618 C2616 1.381 . S
C2618 C2619 1.394 . S
C2618 H2626 0.930 . S
C2619 C2618 1.394 . S
C2619 C2620 1.383 . S
C2619 H2627 0.929 . S
C2620 C2619 1.383 . S
C2620 C2621 1.377 . S
C2621 H2605 0.930 . S
C2621 C2620 1.377 . S
C2621 C2622 1.379 . S
C2622 H2606 0.931 . S
C2622 C2616 1.383 . S
C2622 C2621 1.379 . S
H2623 C2617 0.959 . S
H2624 C2617 0.961 . S
H2625 C2617 0.960 . S
H2626 C2618 0.930 . S
H2627 C2619 0.929 . S
H2628 C2636 0.929 . S
H2629 C2638 0.930 . S
H2630 C2640 0.930 . S
H2631 C2643 0.929 . S
H2632 C2646 0.930 . S
H2633 C2648 0.960 . S
H2634 C2648 0.960 . S
H2635 C2648 0.960 . S
C2636 H2628 0.929 . S
C2636 C2637 1.377 . S
C2636 C2638 1.384 . S
C2637 C2636 1.377 . S
C2637 C2643 1.390 . S
C2638 H2629 0.930 . S
C2638 C2636 1.384 . S
C2638 C2639 1.372 . S
C2639 C2638 1.372 . S
C2639 C2640 1.400 . S
C2639 C2644 1.490 . S
C2640 H2630 0.930 . S
C2640 C2639 1.400 . S
C2640 C2643 1.386 . S
H2641 C2657 0.930 . S
H2642 C2658 0.931 . S
C2643 H2631 0.929 . S
C2643 C2637 1.390 . S
C2643 C2640 1.386 . S
C2644 C2639 1.490 . S
C2644 C2646 1.395 . S
C2644 C2647 1.403 . S
H2645 C2651 0.930 . S
C2646 H2632 0.930 . S
C2646 C2644 1.395 . S
C2646 C2649 1.403 . S
C2647 C2644 1.403 . S
C2647 C2648 1.524 . S
C2647 C2651 1.400 . S
C2648 H2633 0.960 . S
C2648 H2634 0.960 . S
C2648 H2635 0.960 . S
C2648 C2647 1.524 . S
C2649 C2646 1.403 . S
C2649 C2650 1.392 . S
C2649 C2653 1.495 . S
C2650 C2649 1.392 . S
C2650 C2651 1.385 . S
C2650 C2652 1.478 . S
C2651 H2645 0.930 . S
C2651 C2647 1.400 . S
C2651 C2650 1.385 . S
C2652 C2650 1.478 . S
C2652 C2654 1.381 . S
C2652 C2658 1.383 . S
C2653 C2649 1.495 . S
C2653 H2659 0.959 . S
C2653 H2660 0.961 . S
C2653 H2661 0.960 . S
C2654 C2652 1.381 . S
C2654 C2655 1.394 . S
C2654 H2662 0.930 . S
C2655 C2654 1.394 . S
C2655 C2656 1.383 . S
C2655 H2663 0.929 . S
C2656 C2655 1.383 . S
C2656 C2657 1.377 . S
C2657 H2641 0.930 . S
C2657 C2656 1.377 . S
C2657 C2658 1.379 . S
C2658 H2642 0.931 . S
C2658 C2652 1.383 . S
C2658 C2657 1.379 . S
H2659 C2653 0.959 . S
H2660 C2653 0.961 . S
H2661 C2653 0.960 . S
H2662 C2654 0.930 . S
H2663 C2655 0.929 . S
H2664 C2672 0.929 . S
H2665 C2674 0.930 . S
H2666 C2676 0.930 . S
H2667 C2679 0.929 . S
H2668 C2682 0.930 . S
H2669 C2684 0.960 . S
H2670 C2684 0.960 . S
H2671 C2684 0.960 . S
C2672 H2664 0.929 . S
C2672 C2673 1.377 . S
C2672 C2674 1.384 . S
C2673 C2672 1.377 . S
C2673 C2679 1.390 . S
C2674 H2665 0.930 . S
C2674 C2672 1.384 . S
C2674 C2675 1.372 . S
C2675 C2674 1.372 . S
C2675 C2676 1.400 . S
C2675 C2680 1.490 . S
C2676 H2666 0.930 . S
C2676 C2675 1.400 . S
C2676 C2679 1.386 . S
H2677 C2693 0.930 . S
H2678 C2694 0.931 . S
C2679 H2667 0.929 . S
C2679 C2673 1.390 . S
C2679 C2676 1.386 . S
C2680 C2675 1.490 . S
C2680 C2682 1.395 . S
C2680 C2683 1.403 . S
H2681 C2687 0.930 . S
C2682 H2668 0.930 . S
C2682 C2680 1.395 . S
C2682 C2685 1.403 . S
C2683 C2680 1.403 . S
C2683 C2684 1.524 . S
C2683 C2687 1.400 . S
C2684 H2669 0.960 . S
C2684 H2670 0.960 . S
C2684 H2671 0.960 . S
C2684 C2683 1.524 . S
C2685 C2682 1.403 . S
C2685 C2686 1.392 . S
C2685 C2689 1.495 . S
C2686 C2685 1.392 . S
C2686 C2687 1.385 . S
C2686 C2688 1.478 . S
C2687 H2681 0.930 . S
C2687 C2683 1.400 . S
C2687 C2686 1.385 . S
C2688 C2686 1.478 . S
C2688 C2690 1.381 . S
C2688 C2694 1.383 . S
C2689 C2685 1.495 . S
C2689 H2695 0.959 . S
C2689 H2696 0.961 . S
C2689 H2697 0.960 . S
C2690 C2688 1.381 . S
C2690 C2691 1.394 . S
C2690 H2698 0.930 . S
C2691 C2690 1.394 . S
C2691 C2692 1.383 . S
C2691 H2699 0.929 . S
C2692 C2691 1.383 . S
C2692 C2693 1.377 . S
C2693 H2677 0.930 . S
C2693 C2692 1.377 . S
C2693 C2694 1.379 . S
C2694 H2678 0.931 . S
C2694 C2688 1.383 . S
C2694 C2693 1.379 . S
H2695 C2689 0.959 . S
H2696 C2689 0.961 . S
H2697 C2689 0.960 . S
H2698 C2690 0.930 . S
H2699 C2691 0.929 . S
H2700 C2708 0.929 . S
H2701 C2710 0.930 . S
H2702 C2712 0.930 . S
H2703 C2715 0.929 . S
H2704 C2718 0.930 . S
H2705 C2720 0.960 . S
H2706 C2720 0.960 . S
H2707 C2720 0.960 . S
C2708 H2700 0.929 . S
C2708 C2709 1.377 . S
C2708 C2710 1.384 . S
C2709 C2708 1.377 . S
C2709 C2715 1.390 . S
C2710 H2701 0.930 . S
C2710 C2708 1.384 . S
C2710 C2711 1.372 . S
C2711 C2710 1.372 . S
C2711 C2712 1.400 . S
C2711 C2716 1.490 . S
C2712 H2702 0.930 . S
C2712 C2711 1.400 . S
C2712 C2715 1.386 . S
H2713 C2729 0.930 . S
H2714 C2730 0.931 . S
C2715 H2703 0.929 . S
C2715 C2709 1.390 . S
C2715 C2712 1.386 . S
C2716 C2711 1.490 . S
C2716 C2718 1.395 1_655 S
C2716 C2719 1.403 . S
H2717 C2723 0.930 . S
C2718 H2704 0.930 . S
C2718 C2716 1.395 1_455 S
C2718 C2721 1.403 . S
C2719 C2716 1.403 . S
C2719 C2720 1.524 . S
C2719 C2723 1.400 1_655 S
C2720 H2705 0.960 . S
C2720 H2706 0.960 . S
C2720 H2707 0.960 . S
C2720 C2719 1.524 . S
C2721 C2718 1.403 . S
C2721 C2722 1.392 . S
C2721 C2725 1.495 . S
C2722 C2721 1.392 . S
C2722 C2723 1.385 . S
C2722 C2724 1.478 . S
C2723 H2717 0.930 . S
C2723 C2719 1.400 1_455 S
C2723 C2722 1.385 . S
C2724 C2722 1.478 . S
C2724 C2726 1.381 . S
C2724 C2730 1.383 . S
C2725 C2721 1.495 . S
C2725 H2731 0.959 . S
C2725 H2732 0.961 . S
C2725 H2733 0.960 . S
C2726 C2724 1.381 . S
C2726 C2727 1.394 . S
C2726 H2734 0.930 . S
C2727 C2726 1.394 . S
C2727 C2728 1.383 . S
C2727 H2735 0.929 . S
C2728 C2727 1.383 . S
C2728 C2729 1.377 . S
C2729 H2713 0.930 . S
C2729 C2728 1.377 . S
C2729 C2730 1.379 . S
C2730 H2714 0.931 . S
C2730 C2724 1.383 . S
C2730 C2729 1.379 . S
H2731 C2725 0.959 . S
H2732 C2725 0.961 . S
H2733 C2725 0.960 . S
H2734 C2726 0.930 . S
H2735 C2727 0.929 . S
H2736 C2744 0.929 . S
H2737 C2746 0.930 . S
H2738 C2748 0.930 . S
H2739 C2751 0.929 . S
H2740 C2754 0.930 . S
H2741 C2756 0.960 . S
H2742 C2756 0.960 . S
H2743 C2756 0.960 . S
C2744 H2736 0.929 . S
C2744 C2745 1.377 . S
C2744 C2746 1.384 . S
C2745 C2744 1.377 . S
C2745 C2751 1.390 . S
C2746 H2737 0.930 . S
C2746 C2744 1.384 . S
C2746 C2747 1.372 . S
C2747 C2746 1.372 . S
C2747 C2748 1.400 . S
C2747 C2752 1.490 . S
C2748 H2738 0.930 . S
C2748 C2747 1.400 . S
C2748 C2751 1.386 . S
H2749 C2765 0.930 . S
H2750 C2766 0.931 . S
C2751 H2739 0.929 . S
C2751 C2745 1.390 . S
C2751 C2748 1.386 . S
C2752 C2747 1.490 . S
C2752 C2754 1.395 . S
C2752 C2755 1.403 . S
H2753 C2759 0.930 . S
C2754 H2740 0.930 . S
C2754 C2752 1.395 . S
C2754 C2757 1.403 . S
C2755 C2752 1.403 . S
C2755 C2756 1.524 . S
C2755 C2759 1.400 . S
C2756 H2741 0.960 . S
C2756 H2742 0.960 . S
C2756 H2743 0.960 . S
C2756 C2755 1.524 . S
C2757 C2754 1.403 . S
C2757 C2758 1.392 . S
C2757 C2761 1.495 . S
C2758 C2757 1.392 . S
C2758 C2759 1.385 . S
C2758 C2760 1.478 . S
C2759 H2753 0.930 . S
C2759 C2755 1.400 . S
C2759 C2758 1.385 . S
C2760 C2758 1.478 . S
C2760 C2762 1.381 . S
C2760 C2766 1.383 . S
C2761 C2757 1.495 . S
C2761 H2767 0.959 . S
C2761 H2768 0.961 . S
C2761 H2769 0.960 . S
C2762 C2760 1.381 . S
C2762 C2763 1.394 . S
C2762 H2770 0.930 . S
C2763 C2762 1.394 . S
C2763 C2764 1.383 . S
C2763 H2771 0.929 . S
C2764 C2763 1.383 . S
C2764 C2765 1.377 . S
C2765 H2749 0.930 . S
C2765 C2764 1.377 . S
C2765 C2766 1.379 . S
C2766 H2750 0.931 . S
C2766 C2760 1.383 . S
C2766 C2765 1.379 . S
H2767 C2761 0.959 . S
H2768 C2761 0.961 . S
H2769 C2761 0.960 . S
H2770 C2762 0.930 . S
H2771 C2763 0.929 . S
H2772 C2780 0.929 . S
H2773 C2782 0.930 . S
H2774 C2784 0.930 . S
H2775 C2787 0.929 . S
H2776 C2790 0.930 . S
H2777 C2792 0.960 . S
H2778 C2792 0.960 . S
H2779 C2792 0.960 . S
C2780 H2772 0.929 . S
C2780 C2781 1.377 . S
C2780 C2782 1.384 . S
C2781 C2780 1.377 . S
C2781 C2787 1.390 . S
C2782 H2773 0.930 . S
C2782 C2780 1.384 . S
C2782 C2783 1.372 . S
C2783 C2782 1.372 . S
C2783 C2784 1.400 . S
C2783 C2788 1.490 . S
C2784 H2774 0.930 . S
C2784 C2783 1.400 . S
C2784 C2787 1.386 . S
H2785 C2801 0.930 . S
H2786 C2802 0.931 . S
C2787 H2775 0.929 . S
C2787 C2781 1.390 . S
C2787 C2784 1.386 . S
C2788 C2783 1.490 . S
C2788 C2790 1.395 . S
C2788 C2791 1.403 1_565 S
H2789 C2795 0.930 . S
C2790 H2776 0.930 . S
C2790 C2788 1.395 . S
C2790 C2793 1.403 1_565 S
C2791 C2788 1.403 1_545 S
C2791 C2792 1.524 . S
C2791 C2795 1.400 . S
C2792 H2777 0.960 . S
C2792 H2778 0.960 . S
C2792 H2779 0.960 . S
C2792 C2791 1.524 . S
C2793 C2790 1.403 1_545 S
C2793 C2794 1.392 . S
C2793 C2797 1.495 . S
C2794 C2793 1.392 . S
C2794 C2795 1.385 . S
C2794 C2796 1.478 . S
C2795 H2789 0.930 . S
C2795 C2791 1.400 . S
C2795 C2794 1.385 . S
C2796 C2794 1.478 . S
C2796 C2798 1.381 . S
C2796 C2802 1.383 . S
C2797 C2793 1.495 . S
C2797 H2803 0.959 1_545 S
C2797 H2804 0.961 . S
C2797 H2805 0.960 . S
C2798 C2796 1.381 . S
C2798 C2799 1.394 . S
C2798 H2806 0.930 . S
C2799 C2798 1.394 . S
C2799 C2800 1.383 . S
C2799 H2807 0.929 . S
C2800 C2799 1.383 . S
C2800 C2801 1.377 . S
C2801 H2785 0.930 . S
C2801 C2800 1.377 . S
C2801 C2802 1.379 . S
C2802 H2786 0.931 . S
C2802 C2796 1.383 . S
C2802 C2801 1.379 . S
H2803 C2797 0.959 1_565 S
H2804 C2797 0.961 . S
H2805 C2797 0.960 . S
H2806 C2798 0.930 . S
H2807 C2799 0.929 . S
H2808 C2816 0.929 . S
H2809 C2818 0.930 . S
H2810 C2820 0.930 . S
H2811 C2823 0.929 . S
H2812 C2826 0.930 . S
H2813 C2828 0.960 . S
H2814 C2828 0.960 . S
H2815 C2828 0.960 . S
C2816 H2808 0.929 . S
C2816 C2817 1.377 . S
C2816 C2818 1.384 . S
C2817 C2816 1.377 . S
C2817 C2823 1.390 . S
C2818 H2809 0.930 . S
C2818 C2816 1.384 . S
C2818 C2819 1.372 . S
C2819 C2818 1.372 . S
C2819 C2820 1.400 . S
C2819 C2824 1.490 . S
C2820 H2810 0.930 . S
C2820 C2819 1.400 . S
C2820 C2823 1.386 . S
H2821 C2837 0.930 . S
H2822 C2838 0.931 . S
C2823 H2811 0.929 . S
C2823 C2817 1.390 . S
C2823 C2820 1.386 . S
C2824 C2819 1.490 . S
C2824 C2826 1.395 . S
C2824 C2827 1.403 . S
H2825 C2831 0.930 . S
C2826 H2812 0.930 . S
C2826 C2824 1.395 . S
C2826 C2829 1.403 . S
C2827 C2824 1.403 . S
C2827 C2828 1.524 . S
C2827 C2831 1.400 . S
C2828 H2813 0.960 . S
C2828 H2814 0.960 . S
C2828 H2815 0.960 . S
C2828 C2827 1.524 . S
C2829 C2826 1.403 . S
C2829 C2830 1.392 . S
C2829 C2833 1.495 . S
C2830 C2829 1.392 . S
C2830 C2831 1.385 . S
C2830 C2832 1.478 . S
C2831 H2825 0.930 . S
C2831 C2827 1.400 . S
C2831 C2830 1.385 . S
C2832 C2830 1.478 . S
C2832 C2834 1.381 . S
C2832 C2838 1.383 . S
C2833 C2829 1.495 . S
C2833 H2839 0.959 . S
C2833 H2840 0.961 . S
C2833 H2841 0.960 . S
C2834 C2832 1.381 . S
C2834 C2835 1.394 . S
C2834 H2842 0.930 . S
C2835 C2834 1.394 . S
C2835 C2836 1.383 . S
C2835 H2843 0.929 . S
C2836 C2835 1.383 . S
C2836 C2837 1.377 . S
C2837 H2821 0.930 . S
C2837 C2836 1.377 . S
C2837 C2838 1.379 . S
C2838 H2822 0.931 . S
C2838 C2832 1.383 . S
C2838 C2837 1.379 . S
H2839 C2833 0.959 . S
H2840 C2833 0.961 . S
H2841 C2833 0.960 . S
H2842 C2834 0.930 . S
H2843 C2835 0.929 . S
H2844 C2852 0.929 . S
H2845 C2854 0.930 . S
H2846 C2856 0.930 . S
H2847 C2859 0.929 . S
H2848 C2862 0.930 . S
H2849 C2864 0.960 . S
H2850 C2864 0.960 . S
H2851 C2864 0.960 . S
C2852 H2844 0.929 . S
C2852 C2853 1.377 . S
C2852 C2854 1.384 . S
C2853 C2852 1.377 . S
C2853 C2859 1.390 . S
C2854 H2845 0.930 . S
C2854 C2852 1.384 . S
C2854 C2855 1.372 . S
C2855 C2854 1.372 . S
C2855 C2856 1.400 . S
C2855 C2860 1.490 . S
C2856 H2846 0.930 . S
C2856 C2855 1.400 . S
C2856 C2859 1.386 . S
H2857 C2873 0.930 . S
H2858 C2874 0.931 . S
C2859 H2847 0.929 . S
C2859 C2853 1.390 . S
C2859 C2856 1.386 . S
C2860 C2855 1.490 . S
C2860 C2862 1.395 . S
C2860 C2863 1.403 . S
H2861 C2867 0.930 . S
C2862 H2848 0.930 . S
C2862 C2860 1.395 . S
C2862 C2865 1.403 . S
C2863 C2860 1.403 . S
C2863 C2864 1.524 . S
C2863 C2867 1.400 . S
C2864 H2849 0.960 . S
C2864 H2850 0.960 . S
C2864 H2851 0.960 . S
C2864 C2863 1.524 . S
C2865 C2862 1.403 . S
C2865 C2866 1.392 . S
C2865 C2869 1.495 . S
C2866 C2865 1.392 . S
C2866 C2867 1.385 . S
C2866 C2868 1.478 . S
C2867 H2861 0.930 . S
C2867 C2863 1.400 . S
C2867 C2866 1.385 . S
C2868 C2866 1.478 . S
C2868 C2870 1.381 . S
C2868 C2874 1.383 . S
C2869 C2865 1.495 . S
C2869 H2875 0.959 . S
C2869 H2876 0.961 . S
C2869 H2877 0.960 . S
C2870 C2868 1.381 . S
C2870 C2871 1.394 . S
C2870 H2878 0.930 . S
C2871 C2870 1.394 . S
C2871 C2872 1.383 . S
C2871 H2879 0.929 . S
C2872 C2871 1.383 . S
C2872 C2873 1.377 . S
C2873 H2857 0.930 . S
C2873 C2872 1.377 . S
C2873 C2874 1.379 . S
C2874 H2858 0.931 . S
C2874 C2868 1.383 . S
C2874 C2873 1.379 . S
H2875 C2869 0.959 . S
H2876 C2869 0.961 . S
H2877 C2869 0.960 . S
H2878 C2870 0.930 . S
H2879 C2871 0.929 . S
H2880 C2888 0.929 . S
H2881 C2890 0.930 . S
H2882 C2892 0.930 . S
H2883 C2895 0.929 . S
H2884 C2898 0.930 . S
H2885 C2900 0.960 . S
H2886 C2900 0.960 . S
H2887 C2900 0.960 . S
C2888 H2880 0.929 . S
C2888 C2889 1.377 . S
C2888 C2890 1.384 . S
C2889 C2888 1.377 . S
C2889 C2895 1.390 . S
C2890 H2881 0.930 . S
C2890 C2888 1.384 . S
C2890 C2891 1.372 . S
C2891 C2890 1.372 . S
C2891 C2892 1.400 . S
C2891 C2896 1.490 . S
C2892 H2882 0.930 . S
C2892 C2891 1.400 . S
C2892 C2895 1.386 . S
H2893 C2909 0.930 . S
H2894 C2910 0.931 . S
C2895 H2883 0.929 . S
C2895 C2889 1.390 . S
C2895 C2892 1.386 . S
C2896 C2891 1.490 . S
C2896 C2898 1.395 . S
C2896 C2899 1.403 . S
H2897 C2903 0.930 . S
C2898 H2884 0.930 . S
C2898 C2896 1.395 . S
C2898 C2901 1.403 . S
C2899 C2896 1.403 . S
C2899 C2900 1.524 . S
C2899 C2903 1.400 . S
C2900 H2885 0.960 . S
C2900 H2886 0.960 . S
C2900 H2887 0.960 . S
C2900 C2899 1.524 . S
C2901 C2898 1.403 . S
C2901 C2902 1.392 . S
C2901 C2905 1.495 . S
C2902 C2901 1.392 . S
C2902 C2903 1.385 . S
C2902 C2904 1.478 . S
C2903 H2897 0.930 . S
C2903 C2899 1.400 . S
C2903 C2902 1.385 . S
C2904 C2902 1.478 . S
C2904 C2906 1.381 . S
C2904 C2910 1.383 . S
C2905 C2901 1.495 . S
C2905 H2911 0.959 . S
C2905 H2912 0.961 . S
C2905 H2913 0.960 . S
C2906 C2904 1.381 . S
C2906 C2907 1.394 . S
C2906 H2914 0.930 . S
C2907 C2906 1.394 . S
C2907 C2908 1.383 . S
C2907 H2915 0.929 . S
C2908 C2907 1.383 . S
C2908 C2909 1.377 . S
C2909 H2893 0.930 . S
C2909 C2908 1.377 . S
C2909 C2910 1.379 . S
C2910 H2894 0.931 . S
C2910 C2904 1.383 . S
C2910 C2909 1.379 . S
H2911 C2905 0.959 . S
H2912 C2905 0.961 . S
H2913 C2905 0.960 . S
H2914 C2906 0.930 . S
H2915 C2907 0.929 . S
H2916 C2924 0.929 . S
H2917 C2926 0.930 . S
H2918 C2928 0.930 . S
H2919 C2931 0.929 . S
H2920 C2934 0.930 . S
H2921 C2936 0.960 . S
H2922 C2936 0.960 . S
H2923 C2936 0.960 . S
C2924 H2916 0.929 . S
C2924 C2925 1.377 . S
C2924 C2926 1.384 . S
C2925 C2924 1.377 . S
C2925 C2931 1.390 . S
C2926 H2917 0.930 . S
C2926 C2924 1.384 . S
C2926 C2927 1.372 . S
C2927 C2926 1.372 . S
C2927 C2928 1.400 . S
C2927 C2932 1.490 . S
C2928 H2918 0.930 . S
C2928 C2927 1.400 . S
C2928 C2931 1.386 . S
H2929 C2945 0.930 . S
H2930 C2946 0.931 . S
C2931 H2919 0.929 . S
C2931 C2925 1.390 . S
C2931 C2928 1.386 . S
C2932 C2927 1.490 . S
C2932 C2934 1.395 . S
C2932 C2935 1.403 . S
H2933 C2939 0.930 . S
C2934 H2920 0.930 . S
C2934 C2932 1.395 . S
C2934 C2937 1.403 . S
C2935 C2932 1.403 . S
C2935 C2936 1.524 . S
C2935 C2939 1.400 . S
C2936 H2921 0.960 . S
C2936 H2922 0.960 . S
C2936 H2923 0.960 . S
C2936 C2935 1.524 . S
C2937 C2934 1.403 . S
C2937 C2938 1.392 . S
C2937 C2941 1.495 . S
C2938 C2937 1.392 . S
C2938 C2939 1.385 . S
C2938 C2940 1.478 . S
C2939 H2933 0.930 . S
C2939 C2935 1.400 . S
C2939 C2938 1.385 . S
C2940 C2938 1.478 . S
C2940 C2942 1.381 . S
C2940 C2946 1.383 . S
C2941 C2937 1.495 . S
C2941 H2947 0.959 . S
C2941 H2948 0.961 . S
C2941 H2949 0.960 . S
C2942 C2940 1.381 . S
C2942 C2943 1.394 . S
C2942 H2950 0.930 . S
C2943 C2942 1.394 . S
C2943 C2944 1.383 . S
C2943 H2951 0.929 . S
C2944 C2943 1.383 . S
C2944 C2945 1.377 . S
C2945 H2929 0.930 . S
C2945 C2944 1.377 . S
C2945 C2946 1.379 . S
C2946 H2930 0.931 . S
C2946 C2940 1.383 . S
C2946 C2945 1.379 . S
H2947 C2941 0.959 . S
H2948 C2941 0.961 . S
H2949 C2941 0.960 . S
H2950 C2942 0.930 . S
H2951 C2943 0.929 . S
H2952 C2960 0.929 . S
H2953 C2962 0.930 . S
H2954 C2964 0.930 . S
H2955 C2967 0.929 . S
H2956 C2970 0.930 . S
H2957 C2972 0.960 . S
H2958 C2972 0.960 . S
H2959 C2972 0.960 . S
C2960 H2952 0.929 . S
C2960 C2961 1.377 . S
C2960 C2962 1.384 . S
C2961 C2960 1.377 . S
C2961 C2967 1.390 . S
C2962 H2953 0.930 . S
C2962 C2960 1.384 . S
C2962 C2963 1.372 . S
C2963 C2962 1.372 . S
C2963 C2964 1.400 . S
C2963 C2968 1.490 . S
C2964 H2954 0.930 . S
C2964 C2963 1.400 . S
C2964 C2967 1.386 . S
H2965 C2981 0.930 . S
H2966 C2982 0.931 . S
C2967 H2955 0.929 . S
C2967 C2961 1.390 . S
C2967 C2964 1.386 . S
C2968 C2963 1.490 . S
C2968 C2970 1.395 . S
C2968 C2971 1.403 . S
H2969 C2975 0.930 . S
C2970 H2956 0.930 . S
C2970 C2968 1.395 . S
C2970 C2973 1.403 . S
C2971 C2968 1.403 . S
C2971 C2972 1.524 . S
C2971 C2975 1.400 . S
C2972 H2957 0.960 . S
C2972 H2958 0.960 . S
C2972 H2959 0.960 . S
C2972 C2971 1.524 . S
C2973 C2970 1.403 . S
C2973 C2974 1.392 . S
C2973 C2977 1.495 . S
C2974 C2973 1.392 . S
C2974 C2975 1.385 . S
C2974 C2976 1.478 . S
C2975 H2969 0.930 . S
C2975 C2971 1.400 . S
C2975 C2974 1.385 . S
C2976 C2974 1.478 . S
C2976 C2978 1.381 . S
C2976 C2982 1.383 . S
C2977 C2973 1.495 . S
C2977 H2983 0.959 . S
C2977 H2984 0.961 . S
C2977 H2985 0.960 . S
C2978 C2976 1.381 . S
C2978 C2979 1.394 . S
C2978 H2986 0.930 . S
C2979 C2978 1.394 . S
C2979 C2980 1.383 . S
C2979 H2987 0.929 . S
C2980 C2979 1.383 . S
C2980 C2981 1.377 . S
C2981 H2965 0.930 . S
C2981 C2980 1.377 . S
C2981 C2982 1.379 . S
C2982 H2966 0.931 . S
C2982 C2976 1.383 . S
C2982 C2981 1.379 . S
H2983 C2977 0.959 . S
H2984 C2977 0.961 . S
H2985 C2977 0.960 . S
H2986 C2978 0.930 . S
H2987 C2979 0.929 . S
H2988 C2996 0.929 . S
H2989 C2998 0.930 . S
H2990 C3000 0.930 . S
H2991 C3003 0.929 . S
H2992 C3006 0.930 . S
H2993 C3008 0.960 . S
H2994 C3008 0.960 . S
H2995 C3008 0.960 . S
C2996 H2988 0.929 . S
C2996 C2997 1.377 . S
C2996 C2998 1.384 . S
C2997 C2996 1.377 . S
C2997 C3003 1.390 . S
C2998 H2989 0.930 . S
C2998 C2996 1.384 . S
C2998 C2999 1.372 . S
C2999 C2998 1.372 . S
C2999 C3000 1.400 . S
C2999 C3004 1.490 . S
C3000 H2990 0.930 . S
C3000 C2999 1.400 . S
C3000 C3003 1.386 . S
H3001 C3017 0.930 . S
H3002 C3018 0.931 . S
C3003 H2991 0.929 . S
C3003 C2997 1.390 . S
C3003 C3000 1.386 . S
C3004 C2999 1.490 . S
C3004 C3006 1.395 . S
C3004 C3007 1.403 . S
H3005 C3011 0.930 . S
C3006 H2992 0.930 . S
C3006 C3004 1.395 . S
C3006 C3009 1.403 . S
C3007 C3004 1.403 . S
C3007 C3008 1.524 . S
C3007 C3011 1.400 . S
C3008 H2993 0.960 . S
C3008 H2994 0.960 . S
C3008 H2995 0.960 . S
C3008 C3007 1.524 . S
C3009 C3006 1.403 . S
C3009 C3010 1.392 . S
C3009 C3013 1.495 . S
C3010 C3009 1.392 . S
C3010 C3011 1.385 . S
C3010 C3012 1.478 . S
C3011 H3005 0.930 . S
C3011 C3007 1.400 . S
C3011 C3010 1.385 . S
C3012 C3010 1.478 . S
C3012 C3014 1.381 . S
C3012 C3018 1.383 . S
C3013 C3009 1.495 . S
C3013 H3019 0.959 . S
C3013 H3020 0.961 . S
C3013 H3021 0.960 . S
C3014 C3012 1.381 . S
C3014 C3015 1.394 . S
C3014 H3022 0.930 . S
C3015 C3014 1.394 . S
C3015 C3016 1.383 . S
C3015 H3023 0.929 . S
C3016 C3015 1.383 . S
C3016 C3017 1.377 . S
C3017 H3001 0.930 . S
C3017 C3016 1.377 . S
C3017 C3018 1.379 . S
C3018 H3002 0.931 . S
C3018 C3012 1.383 . S
C3018 C3017 1.379 . S
H3019 C3013 0.959 . S
H3020 C3013 0.961 . S
H3021 C3013 0.960 . S
H3022 C3014 0.930 . S
H3023 C3015 0.929 . S
H3024 C3032 0.929 . S
H3025 C3034 0.930 . S
H3026 C3036 0.930 . S
H3027 C3039 0.929 . S
H3028 C3042 0.930 . S
H3029 C3044 0.960 . S
H3030 C3044 0.960 . S
H3031 C3044 0.960 . S
C3032 H3024 0.929 . S
C3032 C3033 1.377 . S
C3032 C3034 1.384 . S
C3033 C3032 1.377 . S
C3033 C3039 1.390 . S
C3034 H3025 0.930 . S
C3034 C3032 1.384 . S
C3034 C3035 1.372 . S
C3035 C3034 1.372 . S
C3035 C3036 1.400 . S
C3035 C3040 1.490 . S
C3036 H3026 0.930 . S
C3036 C3035 1.400 . S
C3036 C3039 1.386 . S
H3037 C3053 0.930 . S
H3038 C3054 0.931 . S
C3039 H3027 0.929 . S
C3039 C3033 1.390 . S
C3039 C3036 1.386 . S
C3040 C3035 1.490 . S
C3040 C3042 1.395 . S
C3040 C3043 1.403 . S
H3041 C3047 0.930 . S
C3042 H3028 0.930 . S
C3042 C3040 1.395 . S
C3042 C3045 1.403 . S
C3043 C3040 1.403 . S
C3043 C3044 1.524 . S
C3043 C3047 1.400 . S
C3044 H3029 0.960 . S
C3044 H3030 0.960 . S
C3044 H3031 0.960 . S
C3044 C3043 1.524 . S
C3045 C3042 1.403 . S
C3045 C3046 1.392 . S
C3045 C3049 1.495 . S
C3046 C3045 1.392 . S
C3046 C3047 1.385 . S
C3046 C3048 1.478 . S
C3047 H3041 0.930 . S
C3047 C3043 1.400 . S
C3047 C3046 1.385 . S
C3048 C3046 1.478 . S
C3048 C3050 1.381 . S
C3048 C3054 1.383 . S
C3049 C3045 1.495 . S
C3049 H3055 0.959 . S
C3049 H3056 0.961 . S
C3049 H3057 0.960 . S
C3050 C3048 1.381 . S
C3050 C3051 1.394 . S
C3050 H3058 0.930 . S
C3051 C3050 1.394 . S
C3051 C3052 1.383 . S
C3051 H3059 0.929 . S
C3052 C3051 1.383 . S
C3052 C3053 1.377 . S
C3053 H3037 0.930 . S
C3053 C3052 1.377 . S
C3053 C3054 1.379 . S
C3054 H3038 0.931 . S
C3054 C3048 1.383 . S
C3054 C3053 1.379 . S
H3055 C3049 0.959 . S
H3056 C3049 0.961 . S
H3057 C3049 0.960 . S
H3058 C3050 0.930 . S
H3059 C3051 0.929 . S
H3060 C3068 0.929 . S
H3061 C3070 0.930 . S
H3062 C3072 0.930 . S
H3063 C3075 0.929 . S
H3064 C3078 0.930 . S
H3065 C3080 0.960 . S
H3066 C3080 0.960 . S
H3067 C3080 0.960 . S
C3068 H3060 0.929 . S
C3068 C3069 1.377 . S
C3068 C3070 1.384 . S
C3069 C3068 1.377 . S
C3069 C3075 1.390 . S
C3070 H3061 0.930 . S
C3070 C3068 1.384 . S
C3070 C3071 1.372 . S
C3071 C3070 1.372 . S
C3071 C3072 1.400 . S
C3071 C3076 1.490 . S
C3072 H3062 0.930 . S
C3072 C3071 1.400 . S
C3072 C3075 1.386 . S
H3073 C3089 0.930 . S
H3074 C3090 0.931 . S
C3075 H3063 0.929 . S
C3075 C3069 1.390 . S
C3075 C3072 1.386 . S
C3076 C3071 1.490 . S
C3076 C3078 1.395 . S
C3076 C3079 1.403 . S
H3077 C3083 0.930 . S
C3078 H3064 0.930 . S
C3078 C3076 1.395 . S
C3078 C3081 1.403 . S
C3079 C3076 1.403 . S
C3079 C3080 1.524 . S
C3079 C3083 1.400 . S
C3080 H3065 0.960 . S
C3080 H3066 0.960 . S
C3080 H3067 0.960 . S
C3080 C3079 1.524 . S
C3081 C3078 1.403 . S
C3081 C3082 1.392 . S
C3081 C3085 1.495 . S
C3082 C3081 1.392 . S
C3082 C3083 1.385 . S
C3082 C3084 1.478 . S
C3083 H3077 0.930 . S
C3083 C3079 1.400 . S
C3083 C3082 1.385 . S
C3084 C3082 1.478 . S
C3084 C3086 1.381 . S
C3084 C3090 1.383 . S
C3085 C3081 1.495 . S
C3085 H3091 0.959 . S
C3085 H3092 0.961 . S
C3085 H3093 0.960 . S
C3086 C3084 1.381 . S
C3086 C3087 1.394 . S
C3086 H3094 0.930 . S
C3087 C3086 1.394 . S
C3087 C3088 1.383 . S
C3087 H3095 0.929 . S
C3088 C3087 1.383 . S
C3088 C3089 1.377 . S
C3089 H3073 0.930 . S
C3089 C3088 1.377 . S
C3089 C3090 1.379 . S
C3090 H3074 0.931 . S
C3090 C3084 1.383 . S
C3090 C3089 1.379 . S
H3091 C3085 0.959 . S
H3092 C3085 0.961 . S
H3093 C3085 0.960 . S
H3094 C3086 0.930 . S
H3095 C3087 0.929 . S
H3096 C3104 0.929 . S
H3097 C3106 0.930 . S
H3098 C3108 0.930 . S
H3099 C3111 0.929 . S
H3100 C3114 0.930 . S
H3101 C3116 0.960 . S
H3102 C3116 0.960 . S
H3103 C3116 0.960 . S
C3104 H3096 0.929 . S
C3104 C3105 1.377 . S
C3104 C3106 1.384 . S
C3105 C3104 1.377 . S
C3105 C3111 1.390 . S
C3106 H3097 0.930 . S
C3106 C3104 1.384 . S
C3106 C3107 1.372 . S
C3107 C3106 1.372 . S
C3107 C3108 1.400 . S
C3107 C3112 1.490 . S
C3108 H3098 0.930 . S
C3108 C3107 1.400 . S
C3108 C3111 1.386 . S
H3109 C3125 0.930 . S
H3110 C3126 0.931 . S
C3111 H3099 0.929 . S
C3111 C3105 1.390 . S
C3111 C3108 1.386 . S
C3112 C3107 1.490 . S
C3112 C3114 1.395 . S
C3112 C3115 1.403 . S
H3113 C3119 0.930 . S
C3114 H3100 0.930 . S
C3114 C3112 1.395 . S
C3114 C3117 1.403 . S
C3115 C3112 1.403 . S
C3115 C3116 1.524 . S
C3115 C3119 1.400 . S
C3116 H3101 0.960 . S
C3116 H3102 0.960 . S
C3116 H3103 0.960 . S
C3116 C3115 1.524 . S
C3117 C3114 1.403 . S
C3117 C3118 1.392 . S
C3117 C3121 1.495 . S
C3118 C3117 1.392 . S
C3118 C3119 1.385 . S
C3118 C3120 1.478 . S
C3119 H3113 0.930 . S
C3119 C3115 1.400 . S
C3119 C3118 1.385 . S
C3120 C3118 1.478 . S
C3120 C3122 1.381 . S
C3120 C3126 1.383 . S
C3121 C3117 1.495 . S
C3121 H3127 0.959 . S
C3121 H3128 0.961 . S
C3121 H3129 0.960 . S
C3122 C3120 1.381 . S
C3122 C3123 1.394 . S
C3122 H3130 0.930 . S
C3123 C3122 1.394 . S
C3123 C3124 1.383 . S
C3123 H3131 0.929 . S
C3124 C3123 1.383 . S
C3124 C3125 1.377 . S
C3125 H3109 0.930 . S
C3125 C3124 1.377 . S
C3125 C3126 1.379 . S
C3126 H3110 0.931 . S
C3126 C3120 1.383 . S
C3126 C3125 1.379 . S
H3127 C3121 0.959 . S
H3128 C3121 0.961 . S
H3129 C3121 0.960 . S
H3130 C3122 0.930 . S
H3131 C3123 0.929 . S
H3132 C3140 0.929 . S
H3133 C3142 0.930 . S
H3134 C3144 0.930 . S
H3135 C3147 0.929 . S
H3136 C3150 0.930 . S
H3137 C3152 0.960 . S
H3138 C3152 0.960 . S
H3139 C3152 0.960 . S
C3140 H3132 0.929 . S
C3140 C3141 1.377 . S
C3140 C3142 1.384 . S
C3141 C3140 1.377 . S
C3141 C3147 1.390 . S
C3142 H3133 0.930 . S
C3142 C3140 1.384 . S
C3142 C3143 1.372 . S
C3143 C3142 1.372 . S
C3143 C3144 1.400 . S
C3143 C3148 1.490 . S
C3144 H3134 0.930 . S
C3144 C3143 1.400 . S
C3144 C3147 1.386 . S
H3145 C3161 0.930 1_455 S
H3146 C3162 0.931 . S
C3147 H3135 0.929 . S
C3147 C3141 1.390 . S
C3147 C3144 1.386 . S
C3148 C3143 1.490 . S
C3148 C3150 1.395 . S
C3148 C3151 1.403 . S
H3149 C3155 0.930 . S
C3150 H3136 0.930 . S
C3150 C3148 1.395 . S
C3150 C3153 1.403 . S
C3151 C3148 1.403 . S
C3151 C3152 1.524 . S
C3151 C3155 1.400 . S
C3152 H3137 0.960 . S
C3152 H3138 0.960 . S
C3152 H3139 0.960 . S
C3152 C3151 1.524 . S
C3153 C3150 1.403 . S
C3153 C3154 1.392 . S
C3153 C3157 1.495 . S
C3154 C3153 1.392 . S
C3154 C3155 1.385 . S
C3154 C3156 1.478 . S
C3155 H3149 0.930 . S
C3155 C3151 1.400 . S
C3155 C3154 1.385 . S
C3156 C3154 1.478 . S
C3156 C3158 1.381 . S
C3156 C3162 1.383 . S
C3157 C3153 1.495 . S
C3157 H3163 0.959 . S
C3157 H3164 0.961 . S
C3157 H3165 0.960 . S
C3158 C3156 1.381 . S
C3158 C3159 1.394 . S
C3158 H3166 0.930 . S
C3159 C3158 1.394 . S
C3159 C3160 1.383 1_655 S
C3159 H3167 0.929 . S
C3160 C3159 1.383 1_455 S
C3160 C3161 1.377 1_455 S
C3161 H3145 0.930 1_655 S
C3161 C3160 1.377 1_655 S
C3161 C3162 1.379 . S
C3162 H3146 0.931 . S
C3162 C3156 1.383 . S
C3162 C3161 1.379 . S
H3163 C3157 0.959 . S
H3164 C3157 0.961 . S
H3165 C3157 0.960 . S
H3166 C3158 0.930 . S
H3167 C3159 0.929 . S
H3168 C3176 0.929 . S
H3169 C3178 0.930 . S
H3170 C3180 0.930 . S
H3171 C3183 0.929 . S
H3172 C3186 0.930 . S
H3173 C3188 0.960 . S
H3174 C3188 0.941 1_565 S
H3175 C3188 0.960 1_565 S
C3176 H3168 0.929 . S
C3176 C3177 1.377 . S
C3176 C3178 1.384 1_565 S
C3177 C3176 1.377 . S
C3177 C3183 1.390 . S
C3178 H3169 0.930 . S
C3178 C3176 1.384 1_545 S
C3178 C3179 1.372 . S
C3179 C3178 1.372 . S
C3179 C3180 1.400 1_545 S
C3179 C3184 1.490 . S
C3180 H3170 0.930 . S
C3180 C3179 1.400 1_565 S
C3180 C3183 1.386 . S
H3181 C3197 0.930 . S
H3182 C3198 0.931 . S
C3183 H3171 0.929 . S
C3183 C3177 1.390 . S
C3183 C3180 1.386 . S
C3184 C3179 1.490 . S
C3184 C3186 1.395 . S
C3184 C3187 1.403 . S
H3185 C3191 0.930 . S
C3186 H3172 0.930 . S
C3186 C3184 1.395 . S
C3186 C3189 1.403 . S
C3187 C3184 1.403 . S
C3187 C3188 1.524 . S
C3187 C3191 1.400 . S
C3188 H3173 0.960 . S
C3188 H3174 0.941 1_545 S
C3188 H3175 0.960 1_545 S
C3188 C3187 1.524 . S
C3189 C3186 1.403 . S
C3189 C3190 1.392 . S
C3189 C3193 1.495 . S
C3190 C3189 1.392 . S
C3190 C3191 1.385 . S
C3190 C3192 1.478 . S
C3191 H3185 0.930 . S
C3191 C3187 1.400 . S
C3191 C3190 1.385 . S
C3192 C3190 1.478 . S
C3192 C3194 1.381 . S
C3192 C3198 1.383 . S
C3193 C3189 1.495 . S
C3193 H3199 0.959 . S
C3193 H3200 0.961 . S
C3193 H3201 0.960 . S
C3194 C3192 1.381 . S
C3194 C3195 1.394 . S
C3194 H3202 0.930 . S
C3195 C3194 1.394 . S
C3195 C3196 1.383 . S
C3195 H3203 0.929 . S
C3196 C3195 1.383 . S
C3196 C3197 1.377 . S
C3197 H3181 0.930 . S
C3197 C3196 1.377 . S
C3197 C3198 1.379 . S
C3198 H3182 0.931 . S
C3198 C3192 1.383 . S
C3198 C3197 1.379 . S
H3199 C3193 0.959 . S
H3200 C3193 0.961 . S
H3201 C3193 0.960 . S
H3202 C3194 0.930 . S
H3203 C3195 0.929 . S
H3204 C3212 0.929 . S
H3205 C3214 0.930 . S
H3206 C3216 0.930 . S
H3207 C3219 0.929 . S
H3208 C3222 0.930 . S
H3209 C3224 0.960 . S
H3210 C3224 0.960 . S
H3211 C3224 0.960 . S
C3212 H3204 0.929 . S
C3212 C3213 1.377 . S
C3212 C3214 1.384 . S
C3213 C3212 1.377 . S
C3213 C3219 1.390 . S
C3214 H3205 0.930 . S
C3214 C3212 1.384 . S
C3214 C3215 1.372 . S
C3215 C3214 1.372 . S
C3215 C3216 1.400 . S
C3215 C3220 1.490 . S
C3216 H3206 0.930 . S
C3216 C3215 1.400 . S
C3216 C3219 1.386 . S
H3217 C3233 0.930 . S
H3218 C3234 0.931 . S
C3219 H3207 0.929 . S
C3219 C3213 1.390 . S
C3219 C3216 1.386 . S
C3220 C3215 1.490 . S
C3220 C3222 1.395 . S
C3220 C3223 1.403 . S
H3221 C3227 0.930 1_455 S
C3222 H3208 0.930 . S
C3222 C3220 1.395 . S
C3222 C3225 1.403 . S
C3223 C3220 1.403 . S
C3223 C3224 1.524 . S
C3223 C3227 1.400 . S
C3224 H3209 0.960 . S
C3224 H3210 0.960 . S
C3224 H3211 0.960 . S
C3224 C3223 1.524 . S
C3225 C3222 1.403 . S
C3225 C3226 1.392 1_655 S
C3225 C3229 1.495 . S
C3226 C3225 1.392 1_455 S
C3226 C3227 1.385 1_455 S
C3226 C3228 1.478 . S
C3227 H3221 0.930 1_655 S
C3227 C3223 1.400 . S
C3227 C3226 1.385 1_655 S
C3228 C3226 1.478 . S
C3228 C3230 1.381 . S
C3228 C3234 1.383 . S
C3229 C3225 1.495 . S
C3229 H3235 0.959 . S
C3229 H3236 0.961 . S
C3229 H3237 0.960 1_655 S
C3230 C3228 1.381 . S
C3230 C3231 1.394 . S
C3230 H3238 0.930 . S
C3231 C3230 1.394 . S
C3231 C3232 1.383 . S
C3231 H3239 0.929 . S
C3232 C3231 1.383 . S
C3232 C3233 1.377 . S
C3233 H3217 0.930 . S
C3233 C3232 1.377 . S
C3233 C3234 1.379 . S
C3234 H3218 0.931 . S
C3234 C3228 1.383 . S
C3234 C3233 1.379 . S
H3235 C3229 0.959 . S
H3236 C3229 0.961 . S
H3237 C3229 0.960 1_455 S
H3238 C3230 0.930 . S
H3239 C3231 0.929 . S
H3240 C3248 0.929 . S
H3241 C3250 0.930 . S
H3242 C3252 0.930 . S
H3243 C3255 0.929 . S
H3244 C3258 0.930 . S
H3245 C3260 0.960 . S
H3246 C3260 0.960 . S
H3247 C3260 0.960 . S
C3248 H3240 0.929 . S
C3248 C3249 1.377 . S
C3248 C3250 1.384 . S
C3249 C3248 1.377 . S
C3249 C3255 1.390 . S
C3250 H3241 0.930 . S
C3250 C3248 1.384 . S
C3250 C3251 1.372 . S
C3251 C3250 1.372 . S
C3251 C3252 1.400 . S
C3251 C3256 1.490 . S
C3252 H3242 0.930 . S
C3252 C3251 1.400 . S
C3252 C3255 1.386 . S
H3253 C3269 0.930 . S
H3254 C3270 0.931 . S
C3255 H3243 0.929 . S
C3255 C3249 1.390 . S
C3255 C3252 1.386 . S
C3256 C3251 1.490 . S
C3256 C3258 1.395 . S
C3256 C3259 1.403 . S
H3257 C3263 0.930 . S
C3258 H3244 0.930 . S
C3258 C3256 1.395 . S
C3258 C3261 1.403 . S
C3259 C3256 1.403 . S
C3259 C3260 1.524 . S
C3259 C3263 1.400 . S
C3260 H3245 0.960 . S
C3260 H3246 0.960 . S
C3260 H3247 0.960 . S
C3260 C3259 1.524 . S
C3261 C3258 1.403 . S
C3261 C3262 1.392 . S
C3261 C3265 1.495 . S
C3262 C3261 1.392 . S
C3262 C3263 1.385 . S
C3262 C3264 1.478 . S
C3263 H3257 0.930 . S
C3263 C3259 1.400 . S
C3263 C3262 1.385 . S
C3264 C3262 1.478 . S
C3264 C3266 1.381 . S
C3264 C3270 1.383 . S
C3265 C3261 1.495 . S
C3265 H3271 0.959 . S
C3265 H3272 0.961 . S
C3265 H3273 0.960 . S
C3266 C3264 1.381 . S
C3266 C3267 1.394 . S
C3266 H3274 0.930 . S
C3267 C3266 1.394 . S
C3267 C3268 1.383 1_565 S
C3267 H3275 0.929 1_565 S
C3268 C3267 1.383 1_545 S
C3268 C3269 1.377 1_545 S
C3269 H3253 0.930 . S
C3269 C3268 1.377 1_565 S
C3269 C3270 1.379 . S
C3270 H3254 0.931 . S
C3270 C3264 1.383 . S
C3270 C3269 1.379 . S
H3271 C3265 0.959 . S
H3272 C3265 0.961 . S
H3273 C3265 0.960 . S
H3274 C3266 0.930 . S
H3275 C3267 0.929 1_545 S
H3276 C3284 0.929 . S
H3277 C3286 0.930 . S
H3278 C3288 0.930 . S
H3279 C3291 0.929 . S
H3280 C3294 0.930 . S
H3281 C3296 0.960 . S
H3282 C3296 0.960 . S
H3283 C3296 0.960 . S
C3284 H3276 0.929 . S
C3284 C3285 1.377 . S
C3284 C3286 1.384 . S
C3285 C3284 1.377 . S
C3285 C3291 1.390 . S
C3286 H3277 0.930 . S
C3286 C3284 1.384 . S
C3286 C3287 1.372 . S
C3287 C3286 1.372 . S
C3287 C3288 1.400 . S
C3287 C3292 1.490 . S
C3288 H3278 0.930 . S
C3288 C3287 1.400 . S
C3288 C3291 1.386 . S
H3289 C3305 0.930 . S
H3290 C3306 0.931 . S
C3291 H3279 0.929 . S
C3291 C3285 1.390 . S
C3291 C3288 1.386 . S
C3292 C3287 1.490 . S
C3292 C3294 1.395 1_545 S
C3292 C3295 1.403 . S
H3293 C3299 0.930 . S
C3294 H3280 0.930 . S
C3294 C3292 1.395 1_565 S
C3294 C3297 1.403 . S
C3295 C3292 1.403 . S
C3295 C3296 1.524 . S
C3295 C3299 1.400 1_545 S
C3296 H3281 0.960 . S
C3296 H3282 0.960 . S
C3296 H3283 0.960 . S
C3296 C3295 1.524 . S
C3297 C3294 1.403 . S
C3297 C3298 1.392 . S
C3297 C3301 1.495 . S
C3298 C3297 1.392 . S
C3298 C3299 1.385 . S
C3298 C3300 1.478 . S
C3299 H3293 0.930 . S
C3299 C3295 1.400 1_565 S
C3299 C3298 1.385 . S
C3300 C3298 1.478 . S
C3300 C3302 1.381 . S
C3300 C3306 1.383 . S
C3301 C3297 1.495 . S
C3301 H3307 0.959 . S
C3301 H3308 0.961 . S
C3301 H3309 0.960 . S
C3302 C3300 1.381 . S
C3302 C3303 1.394 . S
C3302 H3310 0.930 . S
C3303 C3302 1.394 . S
C3303 C3304 1.383 . S
C3303 H3311 0.929 . S
C3304 C3303 1.383 . S
C3304 C3305 1.377 . S
C3305 H3289 0.930 . S
C3305 C3304 1.377 . S
C3305 C3306 1.379 . S
C3306 H3290 0.931 . S
C3306 C3300 1.383 . S
C3306 C3305 1.379 . S
H3307 C3301 0.959 . S
H3308 C3301 0.961 . S
H3309 C3301 0.960 . S
H3310 C3302 0.930 . S
H3311 C3303 0.929 . S
H3312 C3320 0.929 . S
H3313 C3322 0.930 . S
H3314 C3324 0.930 . S
H3315 C3327 0.929 . S
H3316 C3330 0.930 . S
H3317 C3332 0.960 . S
H3318 C3332 0.960 . S
H3319 C3332 0.960 . S
C3320 H3312 0.929 . S
C3320 C3321 1.377 . S
C3320 C3322 1.384 . S
C3321 C3320 1.377 . S
C3321 C3327 1.390 . S
C3322 H3313 0.930 . S
C3322 C3320 1.384 . S
C3322 C3323 1.372 . S
C3323 C3322 1.372 . S
C3323 C3324 1.400 . S
C3323 C3328 1.490 . S
C3324 H3314 0.930 . S
C3324 C3323 1.400 . S
C3324 C3327 1.386 . S
H3325 C3341 0.930 . S
H3326 C3342 0.931 . S
C3327 H3315 0.929 . S
C3327 C3321 1.390 . S
C3327 C3324 1.386 . S
C3328 C3323 1.490 . S
C3328 C3330 1.395 . S
C3328 C3331 1.403 . S
H3329 C3335 0.930 . S
C3330 H3316 0.930 . S
C3330 C3328 1.395 . S
C3330 C3333 1.403 . S
C3331 C3328 1.403 . S
C3331 C3332 1.524 . S
C3331 C3335 1.400 . S
C3332 H3317 0.960 . S
C3332 H3318 0.960 . S
C3332 H3319 0.960 . S
C3332 C3331 1.524 . S
C3333 C3330 1.403 . S
C3333 C3334 1.392 . S
C3333 C3337 1.495 . S
C3334 C3333 1.392 . S
C3334 C3335 1.385 . S
C3334 C3336 1.478 . S
C3335 H3329 0.930 . S
C3335 C3331 1.400 . S
C3335 C3334 1.385 . S
C3336 C3334 1.478 . S
C3336 C3338 1.381 1_455 S
C3336 C3342 1.383 . S
C3337 C3333 1.495 . S
C3337 H3343 0.959 . S
C3337 H3344 0.961 . S
C3337 H3345 0.960 1_455 S
C3338 C3336 1.381 1_655 S
C3338 C3339 1.394 . S
C3338 H3346 0.930 . S
C3339 C3338 1.394 . S
C3339 C3340 1.383 . S
C3339 H3347 0.929 . S
C3340 C3339 1.383 . S
C3340 C3341 1.377 . S
C3341 H3325 0.930 . S
C3341 C3340 1.377 . S
C3341 C3342 1.379 1_655 S
C3342 H3326 0.931 . S
C3342 C3336 1.383 . S
C3342 C3341 1.379 1_455 S
H3343 C3337 0.959 . S
H3344 C3337 0.961 . S
H3345 C3337 0.960 1_655 S
H3346 C3338 0.930 . S
H3347 C3339 0.929 . S
H3348 C3356 0.929 . S
H3349 C3358 0.930 . S
H3350 C3360 0.930 . S
H3351 C3363 0.929 . S
H3352 C3366 0.930 . S
H3353 C3368 0.960 . S
H3354 C3368 0.960 . S
H3355 C3368 0.960 . S
C3356 H3348 0.929 . S
C3356 C3357 1.377 . S
C3356 C3358 1.384 . S
C3357 C3356 1.377 . S
C3357 C3363 1.390 . S
C3358 H3349 0.930 . S
C3358 C3356 1.384 . S
C3358 C3359 1.372 . S
C3359 C3358 1.372 . S
C3359 C3360 1.400 . S
C3359 C3364 1.490 . S
C3360 H3350 0.930 . S
C3360 C3359 1.400 . S
C3360 C3363 1.386 . S
H3361 C3377 0.930 . S
H3362 C3378 0.931 . S
C3363 H3351 0.929 . S
C3363 C3357 1.390 . S
C3363 C3360 1.386 . S
C3364 C3359 1.490 . S
C3364 C3366 1.395 . S
C3364 C3367 1.403 . S
H3365 C3371 0.930 . S
C3366 H3352 0.930 . S
C3366 C3364 1.395 . S
C3366 C3369 1.403 . S
C3367 C3364 1.403 . S
C3367 C3368 1.524 . S
C3367 C3371 1.400 . S
C3368 H3353 0.960 . S
C3368 H3354 0.960 . S
C3368 H3355 0.960 . S
C3368 C3367 1.524 . S
C3369 C3366 1.403 . S
C3369 C3370 1.392 . S
C3369 C3373 1.495 . S
C3370 C3369 1.392 . S
C3370 C3371 1.385 . S
C3370 C3372 1.478 . S
C3371 H3365 0.930 . S
C3371 C3367 1.400 . S
C3371 C3370 1.385 . S
C3372 C3370 1.478 . S
C3372 C3374 1.381 . S
C3372 C3378 1.383 . S
C3373 C3369 1.495 . S
C3373 H3379 0.959 . S
C3373 H3380 0.961 . S
C3373 H3381 0.960 . S
C3374 C3372 1.381 . S
C3374 C3375 1.394 . S
C3374 H3382 0.930 . S
C3375 C3374 1.394 . S
C3375 C3376 1.383 . S
C3375 H3383 0.929 . S
C3376 C3375 1.383 . S
C3376 C3377 1.377 . S
C3377 H3361 0.930 . S
C3377 C3376 1.377 . S
C3377 C3378 1.379 . S
C3378 H3362 0.931 . S
C3378 C3372 1.383 . S
C3378 C3377 1.379 . S
H3379 C3373 0.959 . S
H3380 C3373 0.961 . S
H3381 C3373 0.960 . S
H3382 C3374 0.930 . S
H3383 C3375 0.929 . S
H3384 C3392 0.929 . S
H3385 C3394 0.930 . S
H3386 C3396 0.930 . S
H3387 C3399 0.929 . S
H3388 C3402 0.930 . S
H3389 C3404 0.960 . S
H3390 C3404 0.960 . S
H3391 C3404 0.960 . S
C3392 H3384 0.929 . S
C3392 C3393 1.377 . S
C3392 C3394 1.384 . S
C3393 C3392 1.377 . S
C3393 C3399 1.390 . S
C3394 H3385 0.930 . S
C3394 C3392 1.384 . S
C3394 C3395 1.372 . S
C3395 C3394 1.372 . S
C3395 C3396 1.400 . S
C3395 C3400 1.490 . S
C3396 H3386 0.930 . S
C3396 C3395 1.400 . S
C3396 C3399 1.386 . S
H3397 C3413 0.930 . S
H3398 C3414 0.931 . S
C3399 H3387 0.929 . S
C3399 C3393 1.390 . S
C3399 C3396 1.386 . S
C3400 C3395 1.490 . S
C3400 C3402 1.395 . S
C3400 C3403 1.403 . S
H3401 C3407 0.930 . S
C3402 H3388 0.930 . S
C3402 C3400 1.395 . S
C3402 C3405 1.403 . S
C3403 C3400 1.403 . S
C3403 C3404 1.524 . S
C3403 C3407 1.400 . S
C3404 H3389 0.960 . S
C3404 H3390 0.960 . S
C3404 H3391 0.960 . S
C3404 C3403 1.524 . S
C3405 C3402 1.403 . S
C3405 C3406 1.392 . S
C3405 C3409 1.495 . S
C3406 C3405 1.392 . S
C3406 C3407 1.385 . S
C3406 C3408 1.478 . S
C3407 H3401 0.930 . S
C3407 C3403 1.400 . S
C3407 C3406 1.385 . S
C3408 C3406 1.478 . S
C3408 C3410 1.381 . S
C3408 C3414 1.383 . S
C3409 C3405 1.495 . S
C3409 H3415 0.959 . S
C3409 H3416 0.961 . S
C3409 H3417 0.960 . S
C3410 C3408 1.381 . S
C3410 C3411 1.394 . S
C3410 H3418 0.930 . S
C3411 C3410 1.394 . S
C3411 C3412 1.383 . S
C3411 H3419 0.929 . S
C3412 C3411 1.383 . S
C3412 C3413 1.377 . S
C3413 H3397 0.930 . S
C3413 C3412 1.377 . S
C3413 C3414 1.379 . S
C3414 H3398 0.931 . S
C3414 C3408 1.383 . S
C3414 C3413 1.379 . S
H3415 C3409 0.959 . S
H3416 C3409 0.961 . S
H3417 C3409 0.960 . S
H3418 C3410 0.930 . S
H3419 C3411 0.929 . S
H3420 C3428 0.929 . S
H3421 C3430 0.930 . S
H3422 C3432 0.930 . S
H3423 C3435 0.929 . S
H3424 C3438 0.930 . S
H3425 C3440 0.960 . S
H3426 C3440 0.960 . S
H3427 C3440 0.960 . S
C3428 H3420 0.929 . S
C3428 C3429 1.377 . S
C3428 C3430 1.384 . S
C3429 C3428 1.377 . S
C3429 C3435 1.390 . S
C3430 H3421 0.930 . S
C3430 C3428 1.384 . S
C3430 C3431 1.372 . S
C3431 C3430 1.372 . S
C3431 C3432 1.400 . S
C3431 C3436 1.490 . S
C3432 H3422 0.930 . S
C3432 C3431 1.400 . S
C3432 C3435 1.386 . S
H3433 C3449 0.930 . S
H3434 C3450 0.931 . S
C3435 H3423 0.929 . S
C3435 C3429 1.390 . S
C3435 C3432 1.386 . S
C3436 C3431 1.490 . S
C3436 C3438 1.395 . S
C3436 C3439 1.403 . S
H3437 C3443 0.930 . S
C3438 H3424 0.930 . S
C3438 C3436 1.395 . S
C3438 C3441 1.403 . S
C3439 C3436 1.403 . S
C3439 C3440 1.524 . S
C3439 C3443 1.400 . S
C3440 H3425 0.960 . S
C3440 H3426 0.960 . S
C3440 H3427 0.960 . S
C3440 C3439 1.524 . S
C3441 C3438 1.403 . S
C3441 C3442 1.392 . S
C3441 C3445 1.495 . S
C3442 C3441 1.392 . S
C3442 C3443 1.385 . S
C3442 C3444 1.478 . S
C3443 H3437 0.930 . S
C3443 C3439 1.400 . S
C3443 C3442 1.385 . S
C3444 C3442 1.478 . S
C3444 C3446 1.381 . S
C3444 C3450 1.383 . S
C3445 C3441 1.495 . S
C3445 H3451 0.959 . S
C3445 H3452 0.961 . S
C3445 H3453 0.960 . S
C3446 C3444 1.381 . S
C3446 C3447 1.394 . S
C3446 H3454 0.930 . S
C3447 C3446 1.394 . S
C3447 C3448 1.383 . S
C3447 H3455 0.929 . S
C3448 C3447 1.383 . S
C3448 C3449 1.377 . S
C3449 H3433 0.930 . S
C3449 C3448 1.377 . S
C3449 C3450 1.379 . S
C3450 H3434 0.931 . S
C3450 C3444 1.383 . S
C3450 C3449 1.379 . S
H3451 C3445 0.959 . S
H3452 C3445 0.961 . S
H3453 C3445 0.960 . S
H3454 C3446 0.930 . S
H3455 C3447 0.929 . S
C1521 C67 0.845 . S
C1540 C226 0.739 . S
C1557 C58 0.795 . S
C1576 C151 0.832 . S
C1593 C142 0.796 . S
C1612 C235 0.847 . S
C1629 C319 0.846 . S
C1648 C394 0.819 . S
C1665 C478 0.793 . S
C1684 C403 0.836 . S
C1701 C487 0.845 . S
C1720 C310 0.769 . S
C1737 C730 0.825 . S
C1756 C571 0.853 . S
C1773 C562 0.797 1_655 S
C1792 C655 0.831 . S
C1809 C739 0.845 . S
C1828 C646 0.750 . S
C1845 C898 0.798 . S
C1864 C823 0.851 . S
C1881 C907 0.848 . S
C1900 C982 0.869 . S
C1917 C814 0.819 . S
C1936 C991 0.866 . S
C1953 C1075 0.846 . S
C1972 C1234 0.729 . S
C1989 C1066 0.826 . S
C2008 C1159 0.859 . S
C2025 C1150 0.825 . S
C2044 C1243 0.855 . S
C2061 C1402 0.815 . S
C2080 C1327 0.838 . S
C2097 C1486 0.795 . S
C2116 C1411 0.846 . S
C2133 C1318 0.785 1_565 S
C2152 C1495 0.832 . S
C2169 C74 1.912 . S
C2188 C494 1.919 . S
C2205 C326 1.915 . S
C2224 C158 1.928 . S
C2241 C410 1.908 . S
C2260 C242 1.894 . S
C2277 C578 1.910 . S
C2296 C998 1.907 . S
C2313 C662 1.913 . S
C2332 C830 1.923 . S
C2349 C914 1.905 . S
C2368 C746 1.883 . S
C2385 C1082 1.912 . S
C2404 C1502 1.917 . S
C2421 C1334 1.904 . S
C2440 C1166 1.880 . S
C2457 C1418 1.905 . S
C2476 C1250 1.880 . S
C2493 C903 2.087 . S
C2512 C63 2.072 . S
C2529 C147 2.085 . S
C2548 C987 2.081 . S
C2565 C819 2.082 . S
C2584 C231 2.092 . S
C2601 C315 2.087 . S
C2620 C1239 2.074 . S
C2637 C399 2.082 . S
C2656 C1071 2.090 . S
C2673 C1155 2.083 . S
C2692 C483 2.092 . S
C2709 C1407 2.085 . S
C2728 C567 2.080 . S
C2745 C651 2.084 . S
C2764 C1491 2.082 . S
C2781 C735 2.085 . S
C2800 C1323 2.083 . S
C2817 C237 1.595 . S
C2836 C56 1.775 . S
C2853 C69 1.579 . S
C2872 C140 1.776 . S
C2889 C224 1.781 . S
C2908 C153 1.589 . S
C2925 C405 1.590 . S
C2944 C308 1.784 . S
C2961 C489 1.579 . S
C2980 C392 1.779 . S
C2997 C476 1.781 . S
C3016 C321 1.596 . S
C3033 C741 1.595 . S
C3052 C560 1.769 . S
C3069 C644 1.779 . S
C3088 C573 1.621 . S
C3105 C657 1.595 . S
C3124 C728 1.778 . S
C3141 C812 1.781 . S
C3160 C909 1.557 . S
C3177 C896 1.777 . S
C3196 C993 1.566 . S
C3213 C825 1.589 . S
C3232 C980 1.785 . S
C3249 C1064 1.777 . S
C3268 C1245 1.607 . S
C3285 C1148 1.776 . S
C3304 C1077 1.587 . S
C3321 C1161 1.594 . S
C3340 C1232 1.779 . S
C3357 C1316 1.779 . S
C3376 C1413 1.544 . S
C3393 C1400 1.777 . S
C3412 C1497 1.571 . S
C3429 C1329 1.580 . S
C3448 C1484 1.771 . S
