# Generated by pormake.
# Topology wmt, (6)-cn, num edge types: 1
# Building blocks:
#     Node 0, Type 0, BuildingBlock: MIFKUJ_clean_sbu_0, # of connection points: 6
#     Node 1, Type 0, BuildingBlock: MIFKUJ_clean_sbu_0, # of connection points: 6
#     Node 2, Type 0, BuildingBlock: MIFKUJ_clean_sbu_0, # of connection points: 6
#     Node 3, Type 0, BuildingBlock: MIFKUJ_clean_sbu_0, # of connection points: 6
#     Node 4, Type 0, BuildingBlock: MIFKUJ_clean_sbu_0, # of connection points: 6
#     Node 5, Type 0, BuildingBlock: MIFKUJ_clean_sbu_0, # of connection points: 6
#     Node 6, Type 0, BuildingBlock: MIFKUJ_clean_sbu_0, # of connection points: 6
#     Node 7, Type 0, BuildingBlock: MIFKUJ_clean_sbu_0, # of connection points: 6
#     Node 8, Type 0, BuildingBlock: MIFKUJ_clean_sbu_0, # of connection points: 6
#     Node 9, Type 0, BuildingBlock: MIFKUJ_clean_sbu_0, # of connection points: 6
#     Node 10, Type 0, BuildingBlock: MIFKUJ_clean_sbu_0, # of connection points: 6
#     Node 11, Type 0, BuildingBlock: MIFKUJ_clean_sbu_0, # of connection points: 6
#     Node 12, Type 0, BuildingBlock: MIFKUJ_clean_sbu_0, # of connection points: 6
#     Node 13, Type 0, BuildingBlock: MIFKUJ_clean_sbu_0, # of connection points: 6
#     Node 14, Type 0, BuildingBlock: MIFKUJ_clean_sbu_0, # of connection points: 6
#     Node 15, Type 0, BuildingBlock: MIFKUJ_clean_sbu_0, # of connection points: 6
#     Node 16, Type 0, BuildingBlock: MIFKUJ_clean_sbu_0, # of connection points: 6
#     Node 17, Type 0, BuildingBlock: MIFKUJ_clean_sbu_0, # of connection points: 6
#     Node 18, Type 0, BuildingBlock: MIFKUJ_clean_sbu_0, # of connection points: 6
#     Node 19, Type 0, BuildingBlock: MIFKUJ_clean_sbu_0, # of connection points: 6
#     Node 20, Type 0, BuildingBlock: MIFKUJ_clean_sbu_0, # of connection points: 6
#     Node 21, Type 0, BuildingBlock: MIFKUJ_clean_sbu_0, # of connection points: 6
#     Node 22, Type 0, BuildingBlock: MIFKUJ_clean_sbu_0, # of connection points: 6
#     Node 23, Type 0, BuildingBlock: MIFKUJ_clean_sbu_0, # of connection points: 6
#     Node 24, Type 0, BuildingBlock: MIFKUJ_clean_sbu_0, # of connection points: 6
#     Node 25, Type 0, BuildingBlock: MIFKUJ_clean_sbu_0, # of connection points: 6
#     Node 26, Type 0, BuildingBlock: MIFKUJ_clean_sbu_0, # of connection points: 6
#     Node 27, Type 0, BuildingBlock: MIFKUJ_clean_sbu_0, # of connection points: 6
#     Node 28, Type 0, BuildingBlock: MIFKUJ_clean_sbu_0, # of connection points: 6
#     Node 29, Type 0, BuildingBlock: MIFKUJ_clean_sbu_0, # of connection points: 6
#     Node 30, Type 0, BuildingBlock: MIFKUJ_clean_sbu_0, # of connection points: 6
#     Node 31, Type 0, BuildingBlock: MIFKUJ_clean_sbu_0, # of connection points: 6
#     Node 32, Type 0, BuildingBlock: MIFKUJ_clean_sbu_0, # of connection points: 6
#     Node 33, Type 0, BuildingBlock: MIFKUJ_clean_sbu_0, # of connection points: 6
#     Node 34, Type 0, BuildingBlock: MIFKUJ_clean_sbu_0, # of connection points: 6
#     Node 35, Type 0, BuildingBlock: MIFKUJ_clean_sbu_0, # of connection points: 6
#     Edge 36, Type (0, 0), BuildingBlock: XIVTED_clean_linker_0, # of connection points: 2
#     Edge 37, Type (0, 0), BuildingBlock: XIVTED_clean_linker_0, # of connection points: 2
#     Edge 38, Type (0, 0), BuildingBlock: XIVTED_clean_linker_0, # of connection points: 2
#     Edge 39, Type (0, 0), BuildingBlock: XIVTED_clean_linker_0, # of connection points: 2
#     Edge 40, Type (0, 0), BuildingBlock: XIVTED_clean_linker_0, # of connection points: 2
#     Edge 41, Type (0, 0), BuildingBlock: XIVTED_clean_linker_0, # of connection points: 2
#     Edge 42, Type (0, 0), BuildingBlock: XIVTED_clean_linker_0, # of connection points: 2
#     Edge 43, Type (0, 0), BuildingBlock: XIVTED_clean_linker_0, # of connection points: 2
#     Edge 44, Type (0, 0), BuildingBlock: XIVTED_clean_linker_0, # of connection points: 2
#     Edge 45, Type (0, 0), BuildingBlock: XIVTED_clean_linker_0, # of connection points: 2
#     Edge 46, Type (0, 0), BuildingBlock: XIVTED_clean_linker_0, # of connection points: 2
#     Edge 47, Type (0, 0), BuildingBlock: XIVTED_clean_linker_0, # of connection points: 2
#     Edge 48, Type (0, 0), BuildingBlock: XIVTED_clean_linker_0, # of connection points: 2
#     Edge 49, Type (0, 0), BuildingBlock: XIVTED_clean_linker_0, # of connection points: 2
#     Edge 50, Type (0, 0), BuildingBlock: XIVTED_clean_linker_0, # of connection points: 2
#     Edge 51, Type (0, 0), BuildingBlock: XIVTED_clean_linker_0, # of connection points: 2
#     Edge 52, Type (0, 0), BuildingBlock: XIVTED_clean_linker_0, # of connection points: 2
#     Edge 53, Type (0, 0), BuildingBlock: XIVTED_clean_linker_0, # of connection points: 2
#     Edge 54, Type (0, 0), BuildingBlock: XIVTED_clean_linker_0, # of connection points: 2
#     Edge 55, Type (0, 0), BuildingBlock: XIVTED_clean_linker_0, # of connection points: 2
#     Edge 56, Type (0, 0), BuildingBlock: XIVTED_clean_linker_0, # of connection points: 2
#     Edge 57, Type (0, 0), BuildingBlock: XIVTED_clean_linker_0, # of connection points: 2
#     Edge 58, Type (0, 0), BuildingBlock: XIVTED_clean_linker_0, # of connection points: 2
#     Edge 59, Type (0, 0), BuildingBlock: XIVTED_clean_linker_0, # of connection points: 2
#     Edge 60, Type (0, 0), BuildingBlock: XIVTED_clean_linker_0, # of connection points: 2
#     Edge 61, Type (0, 0), BuildingBlock: XIVTED_clean_linker_0, # of connection points: 2
#     Edge 62, Type (0, 0), BuildingBlock: XIVTED_clean_linker_0, # of connection points: 2
#     Edge 63, Type (0, 0), BuildingBlock: XIVTED_clean_linker_0, # of connection points: 2
#     Edge 64, Type (0, 0), BuildingBlock: XIVTED_clean_linker_0, # of connection points: 2
#     Edge 65, Type (0, 0), BuildingBlock: XIVTED_clean_linker_0, # of connection points: 2
#     Edge 66, Type (0, 0), BuildingBlock: XIVTED_clean_linker_0, # of connection points: 2
#     Edge 67, Type (0, 0), BuildingBlock: XIVTED_clean_linker_0, # of connection points: 2
#     Edge 68, Type (0, 0), BuildingBlock: XIVTED_clean_linker_0, # of connection points: 2
#     Edge 69, Type (0, 0), BuildingBlock: XIVTED_clean_linker_0, # of connection points: 2
#     Edge 70, Type (0, 0), BuildingBlock: XIVTED_clean_linker_0, # of connection points: 2
#     Edge 71, Type (0, 0), BuildingBlock: XIVTED_clean_linker_0, # of connection points: 2
#     Edge 72, Type (0, 0), BuildingBlock: XIVTED_clean_linker_0, # of connection points: 2
#     Edge 73, Type (0, 0), BuildingBlock: XIVTED_clean_linker_0, # of connection points: 2
#     Edge 74, Type (0, 0), BuildingBlock: XIVTED_clean_linker_0, # of connection points: 2
#     Edge 75, Type (0, 0), BuildingBlock: XIVTED_clean_linker_0, # of connection points: 2
#     Edge 76, Type (0, 0), BuildingBlock: XIVTED_clean_linker_0, # of connection points: 2
#     Edge 77, Type (0, 0), BuildingBlock: XIVTED_clean_linker_0, # of connection points: 2
#     Edge 78, Type (0, 0), BuildingBlock: XIVTED_clean_linker_0, # of connection points: 2
#     Edge 79, Type (0, 0), BuildingBlock: XIVTED_clean_linker_0, # of connection points: 2
#     Edge 80, Type (0, 0), BuildingBlock: XIVTED_clean_linker_0, # of connection points: 2
#     Edge 81, Type (0, 0), BuildingBlock: XIVTED_clean_linker_0, # of connection points: 2
#     Edge 82, Type (0, 0), BuildingBlock: XIVTED_clean_linker_0, # of connection points: 2
#     Edge 83, Type (0, 0), BuildingBlock: XIVTED_clean_linker_0, # of connection points: 2
#     Edge 84, Type (0, 0), BuildingBlock: XIVTED_clean_linker_0, # of connection points: 2
#     Edge 85, Type (0, 0), BuildingBlock: XIVTED_clean_linker_0, # of connection points: 2
#     Edge 86, Type (0, 0), BuildingBlock: XIVTED_clean_linker_0, # of connection points: 2
#     Edge 87, Type (0, 0), BuildingBlock: XIVTED_clean_linker_0, # of connection points: 2
#     Edge 88, Type (0, 0), BuildingBlock: XIVTED_clean_linker_0, # of connection points: 2
#     Edge 89, Type (0, 0), BuildingBlock: XIVTED_clean_linker_0, # of connection points: 2
#     Edge 90, Type (0, 0), BuildingBlock: XIVTED_clean_linker_0, # of connection points: 2
#     Edge 91, Type (0, 0), BuildingBlock: XIVTED_clean_linker_0, # of connection points: 2
#     Edge 92, Type (0, 0), BuildingBlock: XIVTED_clean_linker_0, # of connection points: 2
#     Edge 93, Type (0, 0), BuildingBlock: XIVTED_clean_linker_0, # of connection points: 2
#     Edge 94, Type (0, 0), BuildingBlock: XIVTED_clean_linker_0, # of connection points: 2
#     Edge 95, Type (0, 0), BuildingBlock: XIVTED_clean_linker_0, # of connection points: 2
#     Edge 96, Type (0, 0), BuildingBlock: XIVTED_clean_linker_0, # of connection points: 2
#     Edge 97, Type (0, 0), BuildingBlock: XIVTED_clean_linker_0, # of connection points: 2
#     Edge 98, Type (0, 0), BuildingBlock: XIVTED_clean_linker_0, # of connection points: 2
#     Edge 99, Type (0, 0), BuildingBlock: XIVTED_clean_linker_0, # of connection points: 2
#     Edge 100, Type (0, 0), BuildingBlock: XIVTED_clean_linker_0, # of connection points: 2
#     Edge 101, Type (0, 0), BuildingBlock: XIVTED_clean_linker_0, # of connection points: 2
#     Edge 102, Type (0, 0), BuildingBlock: XIVTED_clean_linker_0, # of connection points: 2
#     Edge 103, Type (0, 0), BuildingBlock: XIVTED_clean_linker_0, # of connection points: 2
#     Edge 104, Type (0, 0), BuildingBlock: XIVTED_clean_linker_0, # of connection points: 2
#     Edge 105, Type (0, 0), BuildingBlock: XIVTED_clean_linker_0, # of connection points: 2
#     Edge 106, Type (0, 0), BuildingBlock: XIVTED_clean_linker_0, # of connection points: 2
#     Edge 107, Type (0, 0), BuildingBlock: XIVTED_clean_linker_0, # of connection points: 2
#     Edge 108, Type (0, 0), BuildingBlock: XIVTED_clean_linker_0, # of connection points: 2
#     Edge 109, Type (0, 0), BuildingBlock: XIVTED_clean_linker_0, # of connection points: 2
#     Edge 110, Type (0, 0), BuildingBlock: XIVTED_clean_linker_0, # of connection points: 2
#     Edge 111, Type (0, 0), BuildingBlock: XIVTED_clean_linker_0, # of connection points: 2
#     Edge 112, Type (0, 0), BuildingBlock: XIVTED_clean_linker_0, # of connection points: 2
#     Edge 113, Type (0, 0), BuildingBlock: XIVTED_clean_linker_0, # of connection points: 2
#     Edge 114, Type (0, 0), BuildingBlock: XIVTED_clean_linker_0, # of connection points: 2
#     Edge 115, Type (0, 0), BuildingBlock: XIVTED_clean_linker_0, # of connection points: 2
#     Edge 116, Type (0, 0), BuildingBlock: XIVTED_clean_linker_0, # of connection points: 2
#     Edge 117, Type (0, 0), BuildingBlock: XIVTED_clean_linker_0, # of connection points: 2
#     Edge 118, Type (0, 0), BuildingBlock: XIVTED_clean_linker_0, # of connection points: 2
#     Edge 119, Type (0, 0), BuildingBlock: XIVTED_clean_linker_0, # of connection points: 2
#     Edge 120, Type (0, 0), BuildingBlock: XIVTED_clean_linker_0, # of connection points: 2
#     Edge 121, Type (0, 0), BuildingBlock: XIVTED_clean_linker_0, # of connection points: 2
#     Edge 122, Type (0, 0), BuildingBlock: XIVTED_clean_linker_0, # of connection points: 2
#     Edge 123, Type (0, 0), BuildingBlock: XIVTED_clean_linker_0, # of connection points: 2
#     Edge 124, Type (0, 0), BuildingBlock: XIVTED_clean_linker_0, # of connection points: 2
#     Edge 125, Type (0, 0), BuildingBlock: XIVTED_clean_linker_0, # of connection points: 2
#     Edge 126, Type (0, 0), BuildingBlock: XIVTED_clean_linker_0, # of connection points: 2
#     Edge 127, Type (0, 0), BuildingBlock: XIVTED_clean_linker_0, # of connection points: 2
#     Edge 128, Type (0, 0), BuildingBlock: XIVTED_clean_linker_0, # of connection points: 2
#     Edge 129, Type (0, 0), BuildingBlock: XIVTED_clean_linker_0, # of connection points: 2
#     Edge 130, Type (0, 0), BuildingBlock: XIVTED_clean_linker_0, # of connection points: 2
#     Edge 131, Type (0, 0), BuildingBlock: XIVTED_clean_linker_0, # of connection points: 2
#     Edge 132, Type (0, 0), BuildingBlock: XIVTED_clean_linker_0, # of connection points: 2
#     Edge 133, Type (0, 0), BuildingBlock: XIVTED_clean_linker_0, # of connection points: 2
#     Edge 134, Type (0, 0), BuildingBlock: XIVTED_clean_linker_0, # of connection points: 2
#     Edge 135, Type (0, 0), BuildingBlock: XIVTED_clean_linker_0, # of connection points: 2
#     Edge 136, Type (0, 0), BuildingBlock: XIVTED_clean_linker_0, # of connection points: 2
#     Edge 137, Type (0, 0), BuildingBlock: XIVTED_clean_linker_0, # of connection points: 2
#     Edge 138, Type (0, 0), BuildingBlock: XIVTED_clean_linker_0, # of connection points: 2
#     Edge 139, Type (0, 0), BuildingBlock: XIVTED_clean_linker_0, # of connection points: 2
#     Edge 140, Type (0, 0), BuildingBlock: XIVTED_clean_linker_0, # of connection points: 2
#     Edge 141, Type (0, 0), BuildingBlock: XIVTED_clean_linker_0, # of connection points: 2
#     Edge 142, Type (0, 0), BuildingBlock: XIVTED_clean_linker_0, # of connection points: 2
#     Edge 143, Type (0, 0), BuildingBlock: XIVTED_clean_linker_0, # of connection points: 2
# Relax obj value: 0.302
# Max RMSD: 0.209
# Mean RMSD: 0.209
data_MOF--net-wmt--node1-MIFKUJ_clean_sbu_0--edge1-XIVTED_clean_linker_0
_symmetry_space_group_name_H-M    P1
_symmetry_Int_Tables_number       1
_symmetry_cell_setting            triclinic
loop_
_symmetry_equiv_pos_as_xyz
'x, y, z'
_cell_length_a     80.361354
_cell_length_b     80.057375
_cell_length_c     30.255654
_cell_angle_alpha  90.130596
_cell_angle_beta   89.86343
_cell_angle_gamma 119.98221
loop_
_atom_site_label
_atom_site_type_symbol
_atom_site_fract_x
_atom_site_fract_y
_atom_site_fract_z
_atom_type_partial_charge
Zn0 Zn 0.06066 0.47092 0.97045 0.0
Zn1 Zn 0.06623 0.48875 0.10571 0.0
C2 C 0.07728 0.48943 0.89565 0.0
O3 O 0.05894 0.4839 0.89279 0.0
C4 C 0.03495 0.45466 0.14565 0.0
O5 O 0.04582 0.44705 0.13749 0.0
O6 O 0.03872 0.44787 0.93692 0.0
O7 O 0.06453 0.4666 0.03574 0.0
O8 O 0.08043 0.47389 0.09784 0.0
C9 C 0.04207 0.4403 0.90334 0.0
O10 O 0.05992 0.44507 0.89456 0.0
O11 O 0.0835 0.48507 0.92984 0.0
C12 C 0.08148 0.52691 0.1449 0.0
O13 O 0.07361 0.53022 0.1105 0.0
O14 O 0.08076 0.51074 0.14811 0.0
O15 O 0.06512 0.49684 0.04276 0.0
O16 O 0.05191 0.49046 0.97789 0.0
O17 O 0.04031 0.47167 0.13242 0.0
C18 C 0.07777 0.46689 0.05904 0.0
C19 C 0.05388 0.49821 0.01567 0.0
Zn20 Zn 0.52207 0.59706 0.95525 0.0
Zn21 Zn 0.51167 0.58547 0.0942 0.0
C22 C 0.48731 0.57529 0.90604 0.0
O23 O 0.48729 0.56095 0.92701 0.0
C24 C 0.54197 0.59694 0.15264 0.0
O25 O 0.53351 0.60624 0.16772 0.0
O26 O 0.54687 0.60646 0.91824 0.0
O27 O 0.5196 0.6061 0.01621 0.0
O28 O 0.51455 0.61176 0.08385 0.0
C29 C 0.54638 0.60966 0.87702 0.0
O30 O 0.53238 0.61213 0.86242 0.0
O31 O 0.50041 0.59245 0.91416 0.0
C32 C 0.47509 0.56581 0.14848 0.0
O33 O 0.4649 0.5651 0.11391 0.0
O34 O 0.49315 0.57297 0.14484 0.0
O35 O 0.50263 0.56982 0.03682 0.0
O36 O 0.51858 0.57218 0.97545 0.0
O37 O 0.5361 0.58771 0.11649 0.0
C38 C 0.51666 0.61643 0.04339 0.0
C39 C 0.51188 0.56417 0.0126 0.0
Zn40 Zn 0.39353 0.93996 0.99626 0.0
Zn41 Zn 0.40145 0.92052 0.10663 0.0
C42 C 0.41256 0.92916 0.93388 0.0
O43 O 0.42467 0.94761 0.93984 0.0
C44 C 0.38817 0.93759 0.17216 0.0
O45 O 0.37483 0.9196 0.17921 0.0
O46 O 0.38852 0.958 0.95636 0.0
O47 O 0.38035 0.92901 0.0537 0.0
O48 O 0.37569 0.90202 0.08098 0.0
C49 C 0.38303 0.95307 0.91641 0.0
O50 O 0.37714 0.9352 0.90436 0.0
O51 O 0.39679 0.92123 0.95544 0.0
C52 C 0.42439 0.90486 0.14353 0.0
O53 O 0.43421 0.91128 0.10664 0.0
O54 O 0.40968 0.90663 0.14963 0.0
O55 O 0.42237 0.93376 0.05912 0.0
O56 O 0.41878 0.95604 0.02258 0.0
O57 O 0.40044 0.94132 0.14169 0.0
C58 C 0.3703 0.91087 0.05542 0.0
C59 C 0.42905 0.95078 0.04367 0.0
Zn60 Zn 0.45418 0.0572 0.58548 0.0
Zn61 Zn 0.46894 0.06723 0.44853 0.0
C62 C 0.48825 0.06214 0.631 0.0
O63 O 0.48405 0.04605 0.6104 0.0
C64 C 0.43197 0.03391 0.41337 0.0
O65 O 0.42523 0.02867 0.45363 0.0
O66 O 0.43076 0.04396 0.62745 0.0
O67 O 0.45671 0.07185 0.52968 0.0
O68 O 0.46456 0.08892 0.46982 0.0
C69 C 0.43321 0.04887 0.66819 0.0
O70 O 0.44867 0.06502 0.67937 0.0
O71 O 0.47812 0.06999 0.62385 0.0
C72 C 0.50528 0.07471 0.40773 0.0
O73 O 0.50482 0.06243 0.43707 0.0
O74 O 0.49226 0.07932 0.40845 0.0
O75 O 0.47363 0.05363 0.50128 0.0
O76 O 0.4537 0.03553 0.55375 0.0
O77 O 0.44836 0.04873 0.40751 0.0
C78 C 0.46103 0.08758 0.51087 0.0
C79 C 0.4621 0.03695 0.517 0.0
Zn80 Zn 0.92723 0.40292 0.58887 0.0
Zn81 Zn 0.91752 0.41355 0.45634 0.0
C82 C 0.90828 0.41025 0.65346 0.0
O83 O 0.92647 0.42325 0.65848 0.0
C84 C 0.94738 0.41225 0.40638 0.0
O85 O 0.93845 0.39411 0.41874 0.0
O86 O 0.9466 0.39974 0.6276 0.0
O87 O 0.92338 0.39469 0.52406 0.0
O88 O 0.90559 0.38478 0.46496 0.0
C89 C 0.94159 0.39149 0.66523 0.0
O90 O 0.92326 0.38217 0.67558 0.0
O91 O 0.9035 0.39737 0.62382 0.0
C92 C 0.90018 0.43401 0.41576 0.0
O93 O 0.91186 0.44827 0.44166 0.0
O94 O 0.8995 0.41789 0.41894 0.0
O95 O 0.92078 0.42394 0.51911 0.0
O96 O 0.93961 0.43117 0.57662 0.0
O97 O 0.94192 0.42355 0.42159 0.0
C98 C 0.91017 0.38103 0.5022 0.0
C99 C 0.93522 0.43632 0.5408 0.0
Zn100 Zn 0.58385 0.53061 0.56796 0.0
Zn101 Zn 0.57497 0.5086 0.43873 0.0
C102 C 0.56118 0.50063 0.62818 0.0
O103 O 0.54925 0.50664 0.6173 0.0
C104 C 0.58364 0.53369 0.36758 0.0
O105 O 0.59304 0.52475 0.35688 0.0
O106 O 0.59179 0.55536 0.60497 0.0
O107 O 0.59429 0.52708 0.51091 0.0
O108 O 0.60291 0.51794 0.45212 0.0
C109 C 0.59602 0.55537 0.64573 0.0
O110 O 0.59969 0.54199 0.65944 0.0
O111 O 0.57783 0.50864 0.61076 0.0
C112 C 0.55121 0.46857 0.40867 0.0
O113 O 0.54351 0.46558 0.44826 0.0
O114 O 0.56475 0.48531 0.39858 0.0
O115 O 0.55823 0.50225 0.49529 0.0
O116 O 0.55937 0.52468 0.54021 0.0
O117 O 0.57427 0.52937 0.40367 0.0
C118 C 0.60728 0.52629 0.48923 0.0
C119 C 0.55087 0.51211 0.51 0.0
Zn120 Zn 0.91549 0.50513 0.94902 0.0
Zn121 Zn 0.92726 0.51389 0.08573 0.0
C122 C 0.94375 0.5378 0.89867 0.0
O123 O 0.93305 0.54552 0.90781 0.0
C124 C 0.89577 0.47945 0.12412 0.0
O125 O 0.90017 0.47045 0.09399 0.0
O126 O 0.89741 0.4841 0.90772 0.0
O127 O 0.92077 0.49523 1.00478 0.0
O128 O 0.93634 0.49595 0.06354 0.0
C129 C 0.89338 0.46666 0.91119 0.0
O130 O 0.89964 0.4615 0.9457 0.0
O131 O 0.93937 0.52148 0.91482 0.0
C132 C 0.95535 0.55082 0.13557 0.0
O133 O 0.95205 0.56139 0.10771 0.0
O134 O 0.94722 0.53265 0.12975 0.0
O135 O 0.92376 0.52563 0.02831 0.0
O136 O 0.90394 0.52057 0.97383 0.0
O137 O 0.90366 0.49771 0.12245 0.0
C138 C 0.93265 0.4915 0.02298 0.0
C139 C 0.90869 0.52522 0.01411 0.0
Zn140 Zn 0.46763 0.40362 0.9489 0.0
Zn141 Zn 0.45288 0.3936 0.08632 0.0
C142 C 0.43743 0.39067 0.88787 0.0
O143 O 0.445 0.38002 0.87672 0.0
C144 C 0.47376 0.39961 0.16151 0.0
O145 O 0.4677 0.41208 0.16359 0.0
O146 O 0.48719 0.414 0.89921 0.0
O147 O 0.47627 0.42225 1.00212 0.0
O148 O 0.47053 0.42129 0.07467 0.0
C149 C 0.50539 0.42466 0.89913 0.0
O150 O 0.51467 0.43039 0.9368 0.0
O151 O 0.44402 0.40159 0.92151 0.0
C152 C 0.42366 0.38331 0.15544 0.0
O153 O 0.43006 0.37181 0.1678 0.0
O154 O 0.4296 0.39232 0.11882 0.0
O155 O 0.45091 0.38468 0.02348 0.0
O156 O 0.46254 0.37741 0.9665 0.0
O157 O 0.46862 0.38787 0.12928 0.0
C158 C 0.4792 0.43048 0.03989 0.0
C159 C 0.45599 0.37362 0.00542 0.0
Zn160 Zn 0.58805 0.06605 0.95017 0.0
Zn161 Zn 0.58981 0.05758 0.08895 0.0
C162 C 0.59675 0.04469 0.8906 0.0
O163 O 0.60951 0.0623 0.87856 0.0
C164 C 0.5711 0.07738 0.13015 0.0
O165 O 0.55969 0.07147 0.09562 0.0
O166 O 0.57862 0.07571 0.89993 0.0
O167 O 0.57145 0.05966 1.00507 0.0
O168 O 0.56485 0.03951 0.06039 0.0
C169 C 0.566 0.08085 0.90043 0.0
O170 O 0.5585 0.08185 0.93827 0.0
O171 O 0.58692 0.04239 0.92534 0.0
C172 C 0.59983 0.044 0.16804 0.0
O173 O 0.6055 0.06177 0.18056 0.0
O174 O 0.59514 0.03947 0.12761 0.0
O175 O 0.60437 0.07 0.03135 0.0
O176 O 0.61481 0.08622 0.96997 0.0
O177 O 0.58521 0.0744 0.13155 0.0
C178 C 0.56181 0.04277 0.02089 0.0
C179 C 0.61631 0.08541 0.01162 0.0
Zn180 Zn 0.49999 0.91784 0.61405 0.0
Zn181 Zn 0.5173 0.92656 0.47867 0.0
C182 C 0.53606 0.95139 0.64353 0.0
O183 O 0.54488 0.94407 0.62091 0.0
C184 C 0.493 0.91235 0.4085 0.0
O185 O 0.49952 0.93101 0.4082 0.0
O186 O 0.47954 0.9046 0.66129 0.0
O187 O 0.48958 0.92014 0.55374 0.0
O188 O 0.5036 0.94019 0.49773 0.0
C189 C 0.46338 0.90394 0.66223 0.0
O190 O 0.45788 0.90978 0.62756 0.0
O191 O 0.51788 0.94349 0.64149 0.0
C192 C 0.54459 0.94208 0.40468 0.0
O193 O 0.53577 0.92381 0.39321 0.0
O194 O 0.54079 0.94659 0.44244 0.0
O195 O 0.51941 0.91886 0.54094 0.0
O196 O 0.51462 0.90337 0.60272 0.0
O197 O 0.49875 0.90522 0.43822 0.0
C198 C 0.49414 0.93585 0.53386 0.0
C199 C 0.52098 0.90646 0.56335 0.0
Zn200 Zn 0.06881 0.58317 0.60486 0.0
Zn201 Zn 0.05419 0.5911 0.47827 0.0
C202 C 0.0413 0.58749 0.65716 0.0
O203 O 0.0543 0.60586 0.65478 0.0
C204 C 0.07174 0.58762 0.40622 0.0
O205 O 0.05341 0.57487 0.40233 0.0
O206 O 0.08494 0.57603 0.6426 0.0
O207 O 0.06443 0.57235 0.54291 0.0
O208 O 0.04462 0.56305 0.48753 0.0
C209 C 0.08285 0.55927 0.63883 0.0
O210 O 0.07151 0.54777 0.60774 0.0
O211 O 0.04415 0.57518 0.63701 0.0
C212 C 0.03649 0.60249 0.4084 0.0
O213 O 0.05421 0.61624 0.40081 0.0
O214 O 0.03302 0.59191 0.44251 0.0
O215 O 0.05853 0.60005 0.54326 0.0
O216 O 0.08177 0.61173 0.59178 0.0
O217 O 0.07746 0.59892 0.43942 0.0
C218 C 0.0505 0.55881 0.52229 0.0
C219 C 0.07386 0.61424 0.55799 0.0
Zn220 Zn 0.39242 0.47325 0.61024 0.0
Zn221 Zn 0.38899 0.45983 0.47259 0.0
C222 C 0.38934 0.4363 0.64358 0.0
O223 O 0.38768 0.42992 0.60287 0.0
C224 C 0.41776 0.49367 0.4265 0.0
O225 O 0.42962 0.49007 0.44884 0.0
O226 O 0.40315 0.49681 0.6484 0.0
O227 O 0.40881 0.47772 0.5558 0.0
O228 O 0.41021 0.45924 0.50455 0.0
C229 C 0.41566 0.51424 0.64047 0.0
O230 O 0.42366 0.5191 0.6012 0.0
O231 O 0.391 0.45271 0.65071 0.0
C232 C 0.3763 0.43817 0.39067 0.0
O233 O 0.37592 0.45367 0.37811 0.0
O234 O 0.37843 0.43606 0.43172 0.0
O235 O 0.37495 0.46327 0.52459 0.0
O236 O 0.36642 0.46804 0.59008 0.0
O237 O 0.3998 0.48328 0.43304 0.0
C238 C 0.4153 0.46701 0.54248 0.0
C239 C 0.36343 0.46575 0.54876 0.0
Zn240 Zn 0.7231 0.80796 0.30771 0.0
Zn241 Zn 0.73216 0.82552 0.44181 0.0
C242 C 0.74035 0.82337 0.2311 0.0
O243 O 0.72242 0.81932 0.22826 0.0
C244 C 0.70816 0.7991 0.50245 0.0
O245 O 0.72554 0.80369 0.51533 0.0
O246 O 0.69997 0.78649 0.27423 0.0
O247 O 0.72569 0.80264 0.37271 0.0
O248 O 0.7439 0.80864 0.43064 0.0
C249 C 0.70121 0.77478 0.24757 0.0
O250 O 0.7172 0.77408 0.24639 0.0
O251 O 0.74614 0.81942 0.26665 0.0
C252 C 0.74699 0.86165 0.4902 0.0
O253 O 0.73848 0.86603 0.45898 0.0
O254 O 0.74716 0.8459 0.48751 0.0
O255 O 0.73201 0.83549 0.37979 0.0
O256 O 0.71798 0.8301 0.31572 0.0
O257 O 0.70632 0.80732 0.46833 0.0
C258 C 0.73795 0.80024 0.39359 0.0
C259 C 0.72042 0.83723 0.35442 0.0
Zn260 Zn 0.18509 0.92095 0.29922 0.0
Zn261 Zn 0.16675 0.91171 0.43588 0.0
C262 C 0.15526 0.90419 0.23777 0.0
O263 O 0.15917 0.89033 0.24451 0.0
C264 C 0.20068 0.9174 0.48335 0.0
O265 O 0.20689 0.93585 0.47757 0.0
O266 O 0.20934 0.92655 0.2631 0.0
O267 O 0.18544 0.93178 0.36025 0.0
O268 O 0.17975 0.94061 0.42399 0.0
C269 C 0.21106 0.9324 0.22317 0.0
O270 O 0.19938 0.93824 0.20901 0.0
O271 O 0.16483 0.92012 0.2581 0.0
C272 C 0.12844 0.88804 0.47595 0.0
O273 O 0.12528 0.87631 0.44254 0.0
O274 O 0.14435 0.9038 0.47798 0.0
O275 O 0.15893 0.89882 0.37529 0.0
O276 O 0.17517 0.89439 0.3219 0.0
O277 O 0.18475 0.90501 0.46645 0.0
C278 C 0.18542 0.94473 0.38421 0.0
C279 C 0.1657 0.889 0.3579 0.0
Zn280 Zn 0.05901 0.2741 0.31484 0.0
Zn281 Zn 0.0578 0.25603 0.43775 0.0
C282 C 0.07926 0.25949 0.26552 0.0
O283 O 0.09338 0.27657 0.27682 0.0
C284 C 0.049 0.27657 0.50147 0.0
O285 O 0.03687 0.2589 0.5144 0.0
O286 O 0.05639 0.29235 0.27067 0.0
O287 O 0.04257 0.26368 0.36854 0.0
O288 O 0.03255 0.23809 0.40884 0.0
C289 C 0.05238 0.28691 0.23044 0.0
O290 O 0.04756 0.26911 0.22026 0.0
O291 O 0.06235 0.25422 0.27916 0.0
C292 C 0.07593 0.23756 0.48648 0.0
O293 O 0.08518 0.23908 0.4495 0.0
O294 O 0.06337 0.24279 0.48735 0.0
O295 O 0.07946 0.26557 0.3921 0.0
O296 O 0.08275 0.28921 0.34815 0.0
O297 O 0.05854 0.27903 0.46618 0.0
C298 C 0.03148 0.24575 0.37322 0.0
C299 C 0.08879 0.2831 0.3796 0.0
Zn300 Zn 0.12372 0.38968 0.90106 0.0
Zn301 Zn 0.14571 0.40794 0.77499 0.0
C302 C 0.14719 0.39488 0.97217 0.0
O303 O 0.1354 0.37618 0.96984 0.0
C304 C 0.10913 0.37552 0.73778 0.0
O305 O 0.10059 0.37419 0.77573 0.0
O306 O 0.09949 0.37347 0.93872 0.0
O307 O 0.12412 0.40183 0.84328 0.0
O308 O 0.13552 0.42553 0.79741 0.0
C309 C 0.09861 0.37985 0.97689 0.0
O310 O 0.11069 0.39802 0.98611 0.0
O311 O 0.14596 0.40569 0.94306 0.0
C312 C 0.18282 0.41806 0.73787 0.0
O313 O 0.18189 0.40552 0.76708 0.0
O314 O 0.1697 0.42256 0.7376 0.0
O315 O 0.151 0.39492 0.82806 0.0
O316 O 0.13031 0.3719 0.87227 0.0
O317 O 0.12678 0.38798 0.73291 0.0
C318 C 0.12619 0.41789 0.83256 0.0
C319 C 0.14099 0.37707 0.83795 0.0
Zn320 Zn 0.59902 0.7313 0.90447 0.0
Zn321 Zn 0.58018 0.73178 0.77802 0.0
C322 C 0.58478 0.75369 0.95076 0.0
O323 O 0.59907 0.76819 0.93013 0.0
C324 C 0.59741 0.72543 0.70256 0.0
O325 O 0.57983 0.71829 0.68747 0.0
O326 O 0.6167 0.72687 0.94643 0.0
O327 O 0.58647 0.71538 0.8501 0.0
O328 O 0.56177 0.70652 0.80722 0.0
C329 C 0.61197 0.72365 0.98716 0.0
O330 O 0.59471 0.71984 0.99892 0.0
O331 O 0.58123 0.73661 0.94273 0.0
C332 C 0.5652 0.7557 0.74228 0.0
O333 O 0.57244 0.76583 0.77851 0.0
O334 O 0.5662 0.74049 0.73633 0.0
O335 O 0.59269 0.7513 0.82786 0.0
O336 O 0.61605 0.7547 0.87141 0.0
O337 O 0.60084 0.73086 0.74264 0.0
C338 C 0.56851 0.70526 0.84418 0.0
C339 C 0.61054 0.75949 0.83669 0.0
Zn340 Zn 0.25835 0.86617 0.90385 0.0
Zn341 Zn 0.24258 0.83863 0.78377 0.0
C342 C 0.23945 0.83811 0.96637 0.0
O343 O 0.23056 0.84811 0.96592 0.0
C344 C 0.2517 0.87236 0.72791 0.0
O345 O 0.2697 0.87653 0.72966 0.0
O346 O 0.26452 0.88972 0.94363 0.0
O347 O 0.26623 0.86598 0.84055 0.0
O348 O 0.27073 0.84833 0.79271 0.0
C349 C 0.26888 0.88953 0.98419 0.0
O350 O 0.27405 0.87705 0.99646 0.0
O351 O 0.25412 0.84334 0.94178 0.0
C352 C 0.21847 0.81224 0.71853 0.0
O353 O 0.21193 0.82433 0.71917 0.0
O354 O 0.23138 0.81444 0.74593 0.0
O355 O 0.22888 0.83378 0.84357 0.0
O356 O 0.2324 0.85847 0.88384 0.0
O357 O 0.23903 0.85823 0.75005 0.0
C358 C 0.27714 0.86052 0.8238 0.0
C359 C 0.22272 0.84482 0.85688 0.0
Zn360 Zn 0.58026 0.8355 0.28649 0.0
Zn361 Zn 0.59253 0.85167 0.41907 0.0
C362 C 0.60778 0.86791 0.23671 0.0
O363 O 0.59377 0.87186 0.23618 0.0
C364 C 0.57411 0.82931 0.48824 0.0
O365 O 0.59229 0.83427 0.49152 0.0
O366 O 0.56526 0.81521 0.24037 0.0
O367 O 0.58279 0.82523 0.34627 0.0
O368 O 0.60082 0.8324 0.40489 0.0
C369 C 0.56646 0.8 0.23743 0.0
O370 O 0.57525 0.79613 0.26892 0.0
O371 O 0.6056 0.85329 0.2581 0.0
C372 C 0.60861 0.87936 0.49206 0.0
O373 O 0.59031 0.8731 0.4993 0.0
O374 O 0.61339 0.87345 0.45766 0.0
O375 O 0.58942 0.85861 0.35562 0.0
O376 O 0.5679 0.85133 0.3042 0.0
O377 O 0.56873 0.83582 0.45628 0.0
C378 C 0.596 0.82431 0.36715 0.0
C379 C 0.57522 0.85959 0.34082 0.0
Zn380 Zn 0.14787 0.74235 0.28669 0.0
Zn381 Zn 0.12212 0.72511 0.41051 0.0
C382 C 0.11432 0.73796 0.23873 0.0
O383 O 0.10756 0.71937 0.24374 0.0
C384 C 0.1446 0.73192 0.48316 0.0
O385 O 0.13476 0.74066 0.491 0.0
O386 O 0.17171 0.75355 0.24888 0.0
O387 O 0.153 0.75056 0.35124 0.0
O388 O 0.13553 0.75336 0.40355 0.0
C389 C 0.17673 0.77043 0.23539 0.0
O390 O 0.16824 0.77939 0.25229 0.0
O391 O 0.13013 0.74988 0.25687 0.0
C392 C 0.09347 0.71058 0.48234 0.0
O393 O 0.10156 0.70032 0.4924 0.0
O394 O 0.09796 0.71978 0.44582 0.0
O395 O 0.12134 0.71941 0.34425 0.0
O396 O 0.13522 0.71331 0.28954 0.0
O397 O 0.14148 0.72226 0.44765 0.0
C398 C 0.14763 0.76079 0.3723 0.0
C399 C 0.12459 0.70753 0.32365 0.0
Zn400 Zn 0.24854 0.39908 0.28133 0.0
Zn401 Zn 0.25163 0.38245 0.41104 0.0
C402 C 0.2582 0.3754 0.22663 0.0
O403 O 0.27526 0.3909 0.22383 0.0
C404 C 0.23537 0.40182 0.46201 0.0
O405 O 0.21968 0.38974 0.44073 0.0
O406 O 0.23955 0.41199 0.23646 0.0
O407 O 0.23271 0.39108 0.33748 0.0
O408 O 0.22612 0.36746 0.38394 0.0
C409 C 0.22342 0.4112 0.24108 0.0
O410 O 0.21377 0.4041 0.27789 0.0
O411 O 0.24551 0.3756 0.2513 0.0
C412 C 0.26005 0.36728 0.49008 0.0
O413 O 0.26742 0.38534 0.50248 0.0
O414 O 0.25445 0.36284 0.45008 0.0
O415 O 0.2658 0.3925 0.3519 0.0
O416 O 0.2754 0.41604 0.3042 0.0
O417 O 0.25106 0.4023 0.45282 0.0
C418 C 0.2225 0.37348 0.34836 0.0
C419 C 0.27706 0.41006 0.34201 0.0
Zn420 Zn 0.16642 0.24922 0.94714 0.0
Zn421 Zn 0.18042 0.25769 0.81083 0.0
C422 C 0.20385 0.27646 0.98898 0.0
O423 O 0.20978 0.26416 0.9807 0.0
C424 C 0.14854 0.25186 0.75837 0.0
O425 O 0.15393 0.26917 0.77376 0.0
O426 O 0.14574 0.23783 0.99398 0.0
O427 O 0.15798 0.25764 0.89218 0.0
O428 O 0.17777 0.2777 0.84198 0.0
C429 C 0.129 0.23578 0.9925 0.0
O430 O 0.12314 0.23997 0.95586 0.0
O431 O 0.18736 0.27281 0.97594 0.0
C432 C 0.20308 0.26776 0.7304 0.0
O433 O 0.18861 0.251 0.71844 0.0
O434 O 0.20434 0.27273 0.77097 0.0
O435 O 0.17874 0.24282 0.86557 0.0
O436 O 0.17476 0.22995 0.93094 0.0
O437 O 0.15733 0.24319 0.77094 0.0
C438 C 0.16841 0.27476 0.87784 0.0
C439 C 0.17845 0.22995 0.89018 0.0
Zn440 Zn 0.73396 0.91809 0.94289 0.0
Zn441 Zn 0.71291 0.92443 0.82773 0.0
C442 C 0.70804 0.92464 1.00146 0.0
O443 O 0.71747 0.94294 0.99035 0.0
C444 C 0.72921 0.90711 0.77289 0.0
O445 O 0.71269 0.89192 0.78295 0.0
O446 O 0.75065 0.9101 0.97675 0.0
O447 O 0.72214 0.90113 0.88835 0.0
O448 O 0.69724 0.8989 0.85261 0.0
C449 C 0.74719 0.89279 0.97385 0.0
O450 O 0.73426 0.88114 0.94535 0.0
O451 O 0.71263 0.91299 0.98448 0.0
C452 C 0.70084 0.93418 0.74654 0.0
O453 O 0.71905 0.94079 0.7373 0.0
O454 O 0.69505 0.9287 0.78607 0.0
O455 O 0.72174 0.93617 0.88821 0.0
O456 O 0.74866 0.94597 0.92296 0.0
O457 O 0.7335 0.92341 0.78957 0.0
C458 C 0.7041 0.89238 0.88123 0.0
C459 C 0.73898 0.94904 0.89433 0.0
Zn460 Zn 0.06722 0.81325 0.9326 0.0
Zn461 Zn 0.06413 0.79224 0.80608 0.0
C462 C 0.06483 0.785 0.99394 0.0
O463 O 0.04653 0.77983 0.99317 0.0
C464 C 0.07343 0.82065 0.74378 0.0
O465 O 0.08797 0.81752 0.74381 0.0
O466 O 0.07133 0.83589 0.96996 0.0
O467 O 0.08026 0.8204 0.87289 0.0
O468 O 0.09129 0.80774 0.82489 0.0
C469 C 0.08706 0.85182 0.96874 0.0
O470 O 0.09974 0.85439 0.93817 0.0
O471 O 0.07647 0.79856 0.96886 0.0
C472 C 0.05349 0.76778 0.72804 0.0
O473 O 0.0445 0.77727 0.71903 0.0
O474 O 0.06169 0.7704 0.76556 0.0
O475 O 0.05321 0.78592 0.86924 0.0
O476 O 0.03931 0.79609 0.91539 0.0
O477 O 0.05929 0.81087 0.7696 0.0
C478 C 0.09374 0.81776 0.85948 0.0
C479 C 0.03833 0.78627 0.88133 0.0
Zn480 Zn 0.39256 0.1281 0.6358 0.0
Zn481 Zn 0.39527 0.14057 0.77513 0.0
C482 C 0.40473 0.14917 0.56076 0.0
O483 O 0.38598 0.14149 0.56086 0.0
C484 C 0.37635 0.10992 0.83804 0.0
O485 O 0.394 0.11531 0.8504 0.0
O486 O 0.3713 0.10423 0.6037 0.0
O487 O 0.3997 0.12658 0.69833 0.0
O488 O 0.41644 0.13536 0.75863 0.0
C489 C 0.37504 0.09903 0.56683 0.0
O490 O 0.39312 0.10595 0.55566 0.0
O491 O 0.41281 0.14517 0.59176 0.0
C492 C 0.41515 0.17989 0.81357 0.0
O493 O 0.419 0.1864 0.77284 0.0
O494 O 0.40563 0.16183 0.82042 0.0
O495 O 0.38379 0.14733 0.72202 0.0
O496 O 0.38044 0.14357 0.64902 0.0
O497 O 0.37371 0.11792 0.80475 0.0
C498 C 0.41513 0.13084 0.71832 0.0
C499 C 0.37797 0.15023 0.68508 0.0
Zn500 Zn 0.85379 0.25138 0.63611 0.0
Zn501 Zn 0.8325 0.24533 0.76272 0.0
C502 C 0.82851 0.24194 0.56867 0.0
O503 O 0.83495 0.22978 0.56668 0.0
C504 C 0.86329 0.25085 0.81812 0.0
O505 O 0.86547 0.26822 0.82048 0.0
O506 O 0.87658 0.25429 0.59876 0.0
O507 O 0.85755 0.26069 0.69981 0.0
O508 O 0.84748 0.2738 0.74804 0.0
C509 C 0.88037 0.2629 0.56149 0.0
O510 O 0.87156 0.27241 0.55086 0.0
O511 O 0.83521 0.25521 0.59783 0.0
C512 C 0.79788 0.22137 0.80958 0.0
O513 O 0.79784 0.20851 0.78247 0.0
O514 O 0.81093 0.23891 0.80553 0.0
O515 O 0.82357 0.23217 0.70246 0.0
O516 O 0.83823 0.224 0.65241 0.0
O517 O 0.85029 0.23834 0.79321 0.0
C518 C 0.85733 0.27544 0.71376 0.0
C519 C 0.82676 0.21957 0.68505 0.0
Zn520 Zn 0.72011 0.59984 0.65638 0.0
Zn521 Zn 0.72769 0.58209 0.77706 0.0
C522 C 0.7419 0.59281 0.59671 0.0
O523 O 0.7506 0.61164 0.60093 0.0
C524 C 0.72497 0.61367 0.82286 0.0
O525 O 0.71269 0.61238 0.79262 0.0
O526 O 0.71369 0.61599 0.61411 0.0
O527 O 0.70925 0.58991 0.71703 0.0
O528 O 0.69945 0.56572 0.7616 0.0
C529 C 0.70864 0.60972 0.5747 0.0
O530 O 0.70313 0.59157 0.56646 0.0
O531 O 0.72652 0.5825 0.61857 0.0
C532 C 0.75347 0.5687 0.80056 0.0
O533 O 0.76253 0.57833 0.76498 0.0
O534 O 0.73695 0.56634 0.80898 0.0
O535 O 0.7438 0.5944 0.72098 0.0
O536 O 0.7447 0.61823 0.68292 0.0
O537 O 0.73219 0.60275 0.82083 0.0
C538 C 0.69611 0.57352 0.72907 0.0
C539 C 0.75176 0.61239 0.71261 0.0
Zn540 Zn 0.78654 0.71651 0.23974 0.0
Zn541 Zn 0.80541 0.73646 0.11979 0.0
C542 C 0.81908 0.73443 0.29546 0.0
O543 O 0.81858 0.71829 0.28489 0.0
C544 C 0.77514 0.71294 0.06158 0.0
O545 O 0.777 0.72981 0.05211 0.0
O546 O 0.76511 0.69645 0.28065 0.0
O547 O 0.78081 0.72491 0.18289 0.0
O548 O 0.79374 0.75147 0.14537 0.0
C549 C 0.7635 0.70212 0.31916 0.0
O550 O 0.77356 0.72061 0.32828 0.0
O551 O 0.80659 0.738 0.27908 0.0
C552 C 0.84078 0.75461 0.06771 0.0
O553 O 0.84882 0.75266 0.1036 0.0
O554 O 0.82324 0.75021 0.06892 0.0
O555 O 0.8193 0.73008 0.16785 0.0
O556 O 0.80011 0.70492 0.21023 0.0
O557 O 0.78515 0.71183 0.09262 0.0
C558 C 0.78364 0.74175 0.17791 0.0
C559 C 0.81333 0.71291 0.18118 0.0
Zn560 Zn 0.26489 0.07336 0.24339 0.0
Zn561 Zn 0.24742 0.0735 0.11315 0.0
C562 C 0.24722 0.0866 0.30146 0.0
O563 O 0.26463 0.10138 0.29709 0.0
C564 C 0.27801 0.0682 0.07351 0.0
O565 O 0.27223 0.05322 0.09963 0.0
O566 O 0.28384 0.07037 0.28399 0.0
O567 O 0.25779 0.05972 0.18335 0.0
O568 O 0.23402 0.04606 0.1366 0.0
C569 C 0.27856 0.06367 0.32297 0.0
O570 O 0.26051 0.05679 0.33422 0.0
O571 O 0.24263 0.0711 0.28043 0.0
C572 C 0.22972 0.09458 0.07701 0.0
O573 O 0.23889 0.10657 0.10954 0.0
O574 O 0.23029 0.07902 0.07412 0.0
O575 O 0.25511 0.08896 0.16998 0.0
O576 O 0.27824 0.10002 0.21905 0.0
O577 O 0.27008 0.0785 0.07578 0.0
C578 C 0.24161 0.04552 0.17312 0.0
C579 C 0.27144 0.10216 0.18293 0.0
Zn580 Zn 0.92166 0.19223 0.24453 0.0
Zn581 Zn 0.90868 0.1708 0.11183 0.0
C582 C 0.90555 0.16198 0.30681 0.0
O583 O 0.89052 0.16366 0.2976 0.0
C584 C 0.91169 0.20392 0.06388 0.0
O585 O 0.92946 0.21355 0.07836 0.0
O586 O 0.92859 0.21702 0.27925 0.0
O587 O 0.93129 0.19077 0.18364 0.0
O588 O 0.93769 0.18412 0.1183 0.0
C589 C 0.93466 0.21847 0.31883 0.0
O590 O 0.94111 0.20706 0.33139 0.0
O591 O 0.92136 0.17262 0.28708 0.0
C592 C 0.88476 0.13132 0.07923 0.0
O593 O 0.87291 0.1297 0.11109 0.0
O594 O 0.90067 0.14692 0.07543 0.0
O595 O 0.89652 0.16484 0.1735 0.0
O596 O 0.89506 0.18352 0.22515 0.0
O597 O 0.9008 0.18664 0.07635 0.0
C598 C 0.94327 0.19037 0.15711 0.0
C599 C 0.88818 0.17327 0.19062 0.0
Zn600 Zn 0.24734 0.17836 0.60735 0.0
Zn601 Zn 0.26049 0.18913 0.74637 0.0
C602 C 0.27533 0.21521 0.56325 0.0
O603 O 0.26643 0.22375 0.58008 0.0
C604 C 0.24273 0.16392 0.81328 0.0
O605 O 0.2602 0.16656 0.81099 0.0
O606 O 0.23108 0.15641 0.56535 0.0
O607 O 0.25846 0.16969 0.65565 0.0
O608 O 0.26763 0.17006 0.72443 0.0
C609 C 0.22891 0.1396 0.5689 0.0
O610 O 0.2356 0.13536 0.6041 0.0
O611 O 0.26939 0.19758 0.57168 0.0
C612 C 0.28049 0.21717 0.81853 0.0
O613 O 0.26334 0.2147 0.82641 0.0
O614 O 0.28298 0.20886 0.78515 0.0
O615 O 0.25534 0.1975 0.68669 0.0
O616 O 0.23292 0.18976 0.63707 0.0
O617 O 0.23788 0.17314 0.78701 0.0
C618 C 0.26566 0.16389 0.68489 0.0
C619 C 0.2393 0.19568 0.67576 0.0
Zn620 Zn 0.81228 0.07435 0.61462 0.0
Zn621 Zn 0.79219 0.06189 0.74959 0.0
C622 C 0.77861 0.07461 0.58035 0.0
O623 O 0.7689 0.0599 0.60693 0.0
C624 C 0.81744 0.07101 0.81803 0.0
O625 O 0.81259 0.08441 0.81913 0.0
O626 O 0.8358 0.0817 0.57795 0.0
O627 O 0.8188 0.08401 0.67771 0.0
O628 O 0.80648 0.09008 0.7359 0.0
C629 C 0.85045 0.09847 0.58042 0.0
O630 O 0.85086 0.11047 0.61067 0.0
O631 O 0.79687 0.08358 0.58132 0.0
C632 C 0.76491 0.05065 0.82329 0.0
O633 O 0.7742 0.04191 0.83628 0.0
O634 O 0.76836 0.05811 0.78469 0.0
O635 O 0.79092 0.05238 0.68618 0.0
O636 O 0.79603 0.04506 0.62001 0.0
O637 O 0.80987 0.05762 0.78942 0.0
C638 C 0.81571 0.09566 0.69973 0.0
C639 C 0.78839 0.03963 0.65796 0.0
Zn640 Zn 0.90852 0.73277 0.61038 0.0
Zn641 Zn 0.91484 0.71984 0.74291 0.0
C642 C 0.91616 0.71096 0.54741 0.0
O643 O 0.93164 0.72783 0.54131 0.0
C644 C 0.88995 0.7277 0.79507 0.0
O645 O 0.87766 0.71019 0.7815 0.0
O646 O 0.9007 0.74761 0.5692 0.0
O647 O 0.89425 0.72467 0.6679 0.0
O648 O 0.89201 0.70147 0.71029 0.0
C649 C 0.88456 0.74695 0.56981 0.0
O650 O 0.87235 0.7375 0.60174 0.0
O651 O 0.90405 0.7093 0.57666 0.0
C652 C 0.92473 0.70778 0.82554 0.0
O653 O 0.92792 0.72482 0.83835 0.0
O654 O 0.92126 0.70331 0.78467 0.0
O655 O 0.93225 0.73607 0.69259 0.0
O656 O 0.9365 0.74791 0.62453 0.0
O657 O 0.90729 0.73564 0.78181 0.0
C658 C 0.88619 0.70686 0.67729 0.0
C659 C 0.94319 0.74623 0.6612 0.0
Zn660 Zn 0.83095 0.58064 0.27336 0.0
Zn661 Zn 0.8513 0.59652 0.14127 0.0
C662 C 0.86831 0.61159 0.31168 0.0
O663 O 0.87619 0.61584 0.27221 0.0
C664 C 0.82816 0.59825 0.07564 0.0
O665 O 0.8406 0.61662 0.08194 0.0
O666 O 0.8066 0.56985 0.31036 0.0
O667 O 0.82977 0.59617 0.22122 0.0
O668 O 0.85147 0.61731 0.17627 0.0
C669 C 0.80507 0.58369 0.32663 0.0
O670 O 0.81708 0.60124 0.31286 0.0
O671 O 0.85117 0.59791 0.31632 0.0
C672 C 0.87484 0.60596 0.06127 0.0
O673 O 0.86054 0.58932 0.04802 0.0
O674 O 0.87569 0.61042 0.10213 0.0
O675 O 0.84519 0.57766 0.19098 0.0
O676 O 0.83615 0.55978 0.25016 0.0
O677 O 0.82895 0.58586 0.10022 0.0
C678 C 0.84232 0.61357 0.21261 0.0
C679 C 0.84189 0.56232 0.21026 0.0
Zn680 Zn 0.39826 0.25424 0.27657 0.0
Zn681 Zn 0.39533 0.26274 0.13509 0.0
C682 C 0.3765 0.26748 0.33129 0.0
O683 O 0.39205 0.28456 0.33285 0.0
C684 C 0.40645 0.25218 0.06065 0.0
O685 O 0.38765 0.24154 0.06171 0.0
O686 O 0.4098 0.24328 0.31905 0.0
O687 O 0.38681 0.2359 0.22309 0.0
O688 O 0.38343 0.23531 0.14996 0.0
C689 C 0.40519 0.22563 0.31678 0.0
O690 O 0.39324 0.21472 0.28583 0.0
O691 O 0.37654 0.25409 0.30878 0.0
C692 C 0.37501 0.27289 0.06837 0.0
O693 O 0.39229 0.28645 0.05665 0.0
O694 O 0.37302 0.2634 0.10369 0.0
O695 O 0.40308 0.27199 0.19765 0.0
O696 O 0.41889 0.28118 0.25927 0.0
O697 O 0.41498 0.26501 0.09019 0.0
C698 C 0.38086 0.2267 0.18668 0.0
C699 C 0.41797 0.28399 0.21849 0.0
Zn700 Zn 0.73008 0.13945 0.27091 0.0
Zn701 Zn 0.72159 0.12473 0.13416 0.0
C702 C 0.72124 0.10912 0.33113 0.0
O703 O 0.70736 0.11263 0.34122 0.0
C704 C 0.73822 0.16295 0.09328 0.0
O705 O 0.75039 0.16874 0.12639 0.0
O706 O 0.73999 0.1606 0.31698 0.0
O707 O 0.74546 0.14846 0.21304 0.0
O708 O 0.74754 0.13232 0.15614 0.0
C709 C 0.75276 0.17819 0.31189 0.0
O710 O 0.7606 0.18424 0.27278 0.0
O711 O 0.73212 0.11791 0.29857 0.0
C712 C 0.71083 0.10055 0.05561 0.0
O713 O 0.70589 0.11308 0.04242 0.0
O714 O 0.71527 0.10072 0.09623 0.0
O715 O 0.71032 0.12379 0.19505 0.0
O716 O 0.70255 0.13192 0.25694 0.0
O717 O 0.72433 0.14568 0.09265 0.0
C718 C 0.75355 0.14023 0.19373 0.0
C719 C 0.69917 0.12788 0.21626 0.0
H720 H 0.09527 0.40145 0.88399 0.0
H721 H 0.10567 0.49132 1.00379 0.0
H722 H 0.14486 0.45656 0.85349 0.0
H723 H 0.0815 0.4355 0.06525 0.0
H724 H 0.12141 0.4813 0.94859 0.0
H725 H 0.08854 0.41572 0.94725 0.0
C726 C 0.10466 0.41667 0.89066 0.0
C727 C 0.12073 0.4279 0.86428 0.0
C728 C 0.11326 0.47154 0.97514 0.0
C729 C 0.11348 0.44415 0.93699 0.0
C730 C 0.10437 0.47722 0.00643 0.0
C731 C 0.09223 0.46397 0.03798 0.0
C732 C 0.10945 0.45247 0.97568 0.0
C733 C 0.09075 0.44593 0.04088 0.0
C734 C 0.10099 0.42472 0.92701 0.0
C735 C 0.13233 0.44757 0.87346 0.0
N736 N 0.09897 0.44049 0.00927 0.0
N737 N 0.1285 0.45521 0.9096 0.0
H738 H 0.57828 0.69843 0.9244 0.0
H739 H 0.49721 0.6166 0.97076 0.0
H740 H 0.52984 0.69276 0.8505 0.0
H741 H 0.52891 0.65138 0.08235 0.0
H742 H 0.50164 0.64542 0.93332 0.0
H743 H 0.55782 0.68449 0.98798 0.0
C744 C 0.56339 0.69469 0.92195 0.0
C745 C 0.55579 0.69688 0.88236 0.0
C746 C 0.50692 0.64674 0.96681 0.0
C747 C 0.53192 0.67994 0.95461 0.0
C748 C 0.50474 0.63035 0.98766 0.0
C749 C 0.51392 0.6321 0.02796 0.0
C750 C 0.51937 0.66481 0.98549 0.0
C751 C 0.52252 0.64981 0.05003 0.0
C752 C 0.55169 0.6869 0.95849 0.0
C753 C 0.53619 0.6911 0.88048 0.0
N754 N 0.52572 0.66582 0.02769 0.0
N755 N 0.52471 0.68229 0.9159 0.0
H756 H 0.35948 0.87491 0.02109 0.0
H757 H 0.30703 0.89621 0.82605 0.0
H758 H 0.35276 0.92486 0.00556 0.0
H759 H 0.28816 0.83787 0.86691 0.0
H760 H 0.33457 0.90769 0.87524 0.0
H761 H 0.34112 0.86152 0.95225 0.0
C762 C 0.35404 0.88292 1.0034 0.0
C763 C 0.35763 0.90101 0.01843 0.0
C764 C 0.32465 0.89232 0.87277 0.0
C765 C 0.3377 0.88637 0.94047 0.0
C766 C 0.30908 0.88584 0.84479 0.0
C767 C 0.29548 0.86627 0.84375 0.0
C768 C 0.32597 0.87911 0.90087 0.0
C769 C 0.2985 0.85315 0.86783 0.0
C770 C 0.34389 0.87545 0.96416 0.0
C771 C 0.35044 0.91096 0.99468 0.0
N772 N 0.31334 0.85989 0.89677 0.0
N773 N 0.34088 0.90352 0.95674 0.0
H774 H 0.48381 0.09996 0.58251 0.0
H775 H 0.43443 0.15877 0.65783 0.0
H776 H 0.45011 0.11439 0.49699 0.0
H777 H 0.43495 0.11204 0.72653 0.0
H778 H 0.45783 0.15925 0.60424 0.0
H779 H 0.48461 0.12275 0.63755 0.0
C780 C 0.47685 0.10822 0.57527 0.0
C781 C 0.46588 0.10466 0.537 0.0
C782 C 0.45329 0.1494 0.63198 0.0
C783 C 0.46708 0.1307 0.59841 0.0
C784 C 0.43975 0.14882 0.66162 0.0
C785 C 0.43219 0.13455 0.69413 0.0
C786 C 0.4594 0.13589 0.63636 0.0
C787 C 0.44018 0.12281 0.70063 0.0
C788 C 0.47766 0.12144 0.60606 0.0
C789 C 0.4581 0.11639 0.52721 0.0
N790 N 0.4532 0.12348 0.67123 0.0
N791 N 0.45832 0.12862 0.55862 0.0
H792 H 0.88059 0.37396 0.55597 0.0
H793 H 0.88806 0.28815 0.66184 0.0
H794 H 0.91209 0.34869 0.49894 0.0
H795 H 0.84297 0.2997 0.69992 0.0
H796 H 0.89785 0.3121 0.60409 0.0
H797 H 0.86552 0.34704 0.6084 0.0
C798 C 0.88381 0.36235 0.55395 0.0
C799 C 0.89749 0.36321 0.52408 0.0
C800 C 0.88576 0.30943 0.62484 0.0
C801 C 0.88102 0.3332 0.58325 0.0
C802 C 0.88034 0.29594 0.65803 0.0
C803 C 0.86468 0.29204 0.68497 0.0
C804 C 0.87542 0.31906 0.61867 0.0
C805 C 0.85519 0.30252 0.67952 0.0
C806 C 0.87535 0.34716 0.58371 0.0
C807 C 0.90152 0.34824 0.52193 0.0
N808 N 0.8607 0.31566 0.64646 0.0
N809 N 0.89345 0.33384 0.55175 0.0
H810 H 0.6378 0.56161 0.49609 0.0
H811 H 0.68255 0.53654 0.70039 0.0
H812 H 0.61569 0.50225 0.53318 0.0
H813 H 0.67581 0.58651 0.68757 0.0
H814 H 0.66366 0.52328 0.6322 0.0
H815 H 0.66135 0.57156 0.55547 0.0
C816 C 0.63856 0.5507 0.51574 0.0
C817 C 0.6251 0.53124 0.51058 0.0
C818 C 0.66619 0.53701 0.64495 0.0
C819 C 0.6508 0.54228 0.579 0.0
C820 C 0.67656 0.54434 0.6839 0.0
C821 C 0.68062 0.56257 0.69865 0.0
C822 C 0.6604 0.54829 0.62143 0.0
C823 C 0.67296 0.57244 0.67652 0.0
C824 C 0.65169 0.55631 0.54984 0.0
C825 C 0.62613 0.51743 0.53678 0.0
N826 N 0.66337 0.56526 0.63848 0.0
N827 N 0.63862 0.52325 0.571 0.0
H828 H 0.83237 0.55262 0.12489 0.0
H829 H 0.91442 0.53539 0.10054 0.0
H830 H 0.85464 0.53862 0.23981 0.0
H831 H 0.87077 0.51346 0.99928 0.0
H832 H 0.89099 0.53388 0.15332 0.0
H833 H 0.84259 0.53436 0.079 0.0
C834 C 0.83901 0.54524 0.14047 0.0
C835 C 0.84333 0.54749 0.18561 0.0
C836 C 0.88639 0.52895 0.11982 0.0
C837 C 0.85529 0.5271 0.13372 0.0
C838 C 0.89983 0.53003 0.08955 0.0
C839 C 0.89452 0.52451 0.04561 0.0
C840 C 0.86772 0.52316 0.10553 0.0
C841 C 0.87547 0.51798 0.03289 0.0
C842 C 0.84466 0.53469 0.11443 0.0
C843 C 0.85149 0.53742 0.20479 0.0
N844 N 0.86276 0.51782 0.06267 0.0
N845 N 0.85785 0.52808 0.17835 0.0
H846 H 0.43708 0.32281 0.23043 0.0
H847 H 0.43296 0.33511 0.00823 0.0
H848 H 0.43745 0.27748 0.15457 0.0
H849 H 0.48562 0.38178 0.06032 0.0
H850 H 0.43496 0.31326 0.06168 0.0
H851 H 0.45803 0.34626 0.17493 0.0
C852 C 0.44212 0.31796 0.20268 0.0
C853 C 0.43484 0.29832 0.19486 0.0
C854 C 0.44641 0.32818 0.06045 0.0
C855 C 0.45815 0.3245 0.13216 0.0
C856 C 0.44514 0.34056 0.03045 0.0
C857 C 0.45883 0.36012 0.03153 0.0
C858 C 0.46113 0.3357 0.09213 0.0
C859 C 0.47452 0.36673 0.06015 0.0
C860 C 0.45415 0.33127 0.17135 0.0
C861 C 0.44191 0.29254 0.15937 0.0
N862 N 0.47492 0.35463 0.09091 0.0
N863 N 0.45264 0.30553 0.12797 0.0
H864 H 0.60374 0.0998 0.07583 0.0
H865 H 0.71004 0.15583 0.15512 0.0
H866 H 0.65394 0.11235 1.00005 0.0
H867 H 0.66097 0.11406 0.22833 0.0
H868 H 0.68855 0.15869 0.10191 0.0
H869 H 0.62411 0.12415 0.13048 0.0
C870 C 0.6191 0.10783 0.07098 0.0
C871 C 0.62758 0.10317 0.03634 0.0
C872 C 0.68253 0.14944 0.13052 0.0
C873 C 0.65056 0.13141 0.09594 0.0
C874 C 0.69468 0.14738 0.15975 0.0
C875 C 0.68694 0.13349 0.19305 0.0
C876 C 0.66265 0.13746 0.13535 0.0
C877 C 0.66724 0.12418 0.20129 0.0
C878 C 0.63058 0.12205 0.10108 0.0
C879 C 0.64715 0.11501 0.02801 0.0
N880 N 0.65559 0.12595 0.17169 0.0
N881 N 0.6582 0.12837 0.05854 0.0
H882 H 0.53642 0.84504 0.35046 0.0
H883 H 0.55429 0.90642 0.57113 0.0
H884 H 0.5919 0.88801 0.39989 0.0
H885 H 0.49987 0.87928 0.50347 0.0
H886 H 0.56664 0.8927 0.5166 0.0
H887 H 0.52115 0.85261 0.41188 0.0
C888 C 0.54528 0.85627 0.37378 0.0
C889 C 0.56533 0.86588 0.37083 0.0
C890 C 0.55185 0.8894 0.51421 0.0
C891 C 0.54832 0.87408 0.44066 0.0
C892 C 0.5448 0.89694 0.54561 0.0
C893 C 0.52618 0.89375 0.54122 0.0
C894 C 0.54012 0.87887 0.47844 0.0
C895 C 0.51435 0.88184 0.50741 0.0
C896 C 0.53666 0.86039 0.40892 0.0
C897 C 0.57635 0.88019 0.40166 0.0
N898 N 0.52162 0.87493 0.47666 0.0
N899 N 0.56769 0.88381 0.43554 0.0
H900 H 0.05922 0.63267 0.51403 0.0
H901 H 0.14902 0.70161 0.37353 0.0
H902 H 0.11177 0.63154 0.53437 0.0
H903 H 0.09073 0.67504 0.32643 0.0
H904 H 0.13829 0.67807 0.43415 0.0
H905 H 0.07364 0.65355 0.45048 0.0
C906 C 0.07399 0.63723 0.50541 0.0
C907 C 0.08441 0.6305 0.52877 0.0
C908 C 0.12804 0.67699 0.40951 0.0
C909 C 0.10057 0.65338 0.45544 0.0
C910 C 0.13415 0.69016 0.37485 0.0
C911 C 0.12058 0.68997 0.34564 0.0
C912 C 0.10834 0.6641 0.41452 0.0
C913 C 0.10147 0.67541 0.34863 0.0
C914 C 0.08207 0.64878 0.46885 0.0
C915 C 0.10345 0.63666 0.51683 0.0
N916 N 0.09578 0.66317 0.38323 0.0
N917 N 0.11101 0.64774 0.48025 0.0
H918 H 0.36533 0.48354 0.47165 0.0
H919 H 0.28668 0.40227 0.42108 0.0
H920 H 0.32765 0.4543 0.58143 0.0
H921 H 0.28951 0.44893 0.34383 0.0
H922 H 0.30067 0.42401 0.48295 0.0
H923 H 0.33781 0.47888 0.42851 0.0
C924 C 0.35123 0.47653 0.4869 0.0
C925 C 0.34828 0.46802 0.52864 0.0
C926 C 0.29767 0.42942 0.45298 0.0
C927 C 0.31713 0.46231 0.47965 0.0
C928 C 0.29004 0.41709 0.41742 0.0
C929 C 0.28681 0.42381 0.37766 0.0
C930 C 0.30319 0.44892 0.44806 0.0
C931 C 0.29191 0.44328 0.37413 0.0
C932 C 0.33561 0.47427 0.46273 0.0
C933 C 0.33014 0.46007 0.54821 0.0
N934 N 0.30039 0.4554 0.4088 0.0
N935 N 0.3149 0.45669 0.52278 0.0
H936 H 0.80105 0.78006 0.20015 0.0
H937 H 0.71897 0.76494 0.35941 0.0
H938 H 0.75573 0.72331 0.23766 0.0
H939 H 0.77595 0.81338 0.37857 0.0
H940 H 0.73223 0.74969 0.31259 0.0
H941 H 0.79218 0.79368 0.26275 0.0
C942 C 0.78931 0.77055 0.22165 0.0
C943 C 0.77898 0.75064 0.21409 0.0
C944 C 0.74193 0.76347 0.32772 0.0
C945 C 0.76908 0.76583 0.28472 0.0
C946 C 0.73437 0.77211 0.35421 0.0
C947 C 0.74653 0.79025 0.37231 0.0
C948 C 0.76165 0.77341 0.31838 0.0
C949 C 0.76632 0.79925 0.36494 0.0
C950 C 0.78448 0.77823 0.25746 0.0
C951 C 0.76403 0.73876 0.24269 0.0
N952 N 0.77336 0.79085 0.33746 0.0
N953 N 0.75939 0.74658 0.27666 0.0
H954 H 0.1661 0.94662 0.3139 0.0
H955 H 0.25566 0.03721 0.24468 0.0
H956 H 0.20962 0.98168 0.40883 0.0
H957 H 0.20235 0.02299 0.17991 0.0
H958 H 0.23776 0.01692 0.30632 0.0
H959 H 0.17625 0.97494 0.26724 0.0
C960 C 0.17751 0.96049 0.32518 0.0
C961 C 0.18763 0.96204 0.36391 0.0
C962 C 0.22992 0.01855 0.27917 0.0
C963 C 0.19928 -0.006 0.31144 0.0
C964 C 0.24012 0.02994 0.2438 0.0
C965 C 0.2304 0.03187 0.20768 0.0
C966 C 0.20984 0.0086 0.2779 0.0
C967 C 0.21029 0.02174 0.20733 0.0
C968 C 0.18314 0.97661 0.29895 0.0
C969 C 0.20185 0.98011 0.37848 0.0
N970 N 0.20055 0.01026 0.24203 0.0
N971 N 0.20772 -0.00452 0.35139 0.0
H972 H 0.97954 0.21473 0.1282 0.0
H973 H 0.01867 0.2071 0.36126 0.0
H974 H 0.94682 0.16989 0.2228 0.0
H975 H 0.0243 0.25768 0.29643 0.0
H976 H 0.00382 0.18839 0.29369 0.0
H977 H 0.00874 0.22374 0.17118 0.0
C978 C 0.97872 0.20639 0.15714 0.0
C979 C 0.96101 0.19229 0.17374 0.0
C980 C 0.00905 0.20376 0.29413 0.0
C981 C -0.00636 0.20218 0.2219 0.0
C982 C 0.01709 0.2143 0.33266 0.0
C983 C 0.02267 0.23393 0.33408 0.0
C984 C 0.00693 0.21309 0.25724 0.0
C985 C 0.02043 0.24265 0.29638 0.0
C986 C -0.00473 0.21135 0.18127 0.0
C987 C 0.96037 0.18147 0.21054 0.0
N988 N 0.0127 0.23216 0.25949 0.0
N989 N 0.97651 0.18693 0.23425 0.0
H990 H 0.19998 0.17431 0.67972 0.0
H991 H 0.20255 0.21747 0.91719 0.0
H992 H 0.2502 0.21646 0.75006 0.0
H993 H 0.16004 0.2086 0.81914 0.0
H994 H 0.21364 0.20005 0.86972 0.0
H995 H 0.18 0.1728 0.74314 0.0
C996 C 0.20674 0.18313 0.7086 0.0
C997 C 0.22667 0.19543 0.71044 0.0
C998 C 0.20135 0.20125 0.85964 0.0
C999 C 0.20439 0.19299 0.78253 0.0
C1000 C 0.19508 0.21112 0.88653 0.0
C1001 C 0.18092 0.2148 0.8708 0.0
C1002 C 0.19324 0.19527 0.81744 0.0
C1003 C 0.17144 0.20635 0.83127 0.0
C1004 C 0.19547 0.18196 0.74477 0.0
C1005 C 0.23489 0.20655 0.74821 0.0
N1006 N 0.17806 0.19722 0.8052 0.0
N1007 N 0.2237 0.20505 0.78298 0.0
H1008 H 0.80986 0.02562 0.69123 0.0
H1009 H 0.72364 0.96668 0.8498 0.0
H1010 H 0.75169 0.01125 0.66307 0.0
H1011 H 0.77457 0.96164 0.85773 0.0
H1012 H 0.73502 0.9838 0.78046 0.0
H1013 H 0.79794 0.00029 0.74737 0.0
C1014 C 0.7945 0.01633 0.69535 0.0
C1015 C 0.78158 0.02025 0.67318 0.0
C1016 C 0.74375 0.97895 0.79714 0.0
C1017 C 0.76807 0.9923 0.73766 0.0
C1018 C 0.73744 0.96953 0.83702 0.0
C1019 C 0.74827 0.96289 0.85905 0.0
C1020 C 0.76108 0.9818 0.77926 0.0
C1021 C 0.76599 0.9668 0.84157 0.0
C1022 C 0.78773 0.00212 0.72764 0.0
C1023 C 0.76192 0.00842 0.6798 0.0
N1024 N 0.77192 0.97606 0.80223 0.0
N1025 N 0.75571 -0.00488 0.71235 0.0
H1026 H 0.02428 0.80884 0.8513 0.0
H1027 H 0.96798 0.73304 0.66224 0.0
H1028 H 0.02154 0.75405 0.83363 0.0
H1029 H 0.96323 0.78368 0.68385 0.0
H1030 H -0.00409 0.74636 0.71057 0.0
H1031 H 0.00703 0.80376 0.78124 0.0
C1032 C 0.01946 0.7955 0.83324 0.0
C1033 C 0.02382 0.7816 0.84801 0.0
C1034 C -0.01084 0.75488 0.7038 0.0
C1035 C 0.00524 0.77617 0.76805 0.0
C1036 C 0.97349 0.74742 0.67565 0.0
C1037 C 0.96349 0.75734 0.67002 0.0
C1038 C -0.0059 0.7719 0.72727 0.0
C1039 C 0.97077 0.77574 0.68807 0.0
C1040 C 0.01012 0.79283 0.79296 0.0
C1041 C 0.01806 0.76488 0.8232 0.0
N1042 N 0.98543 0.78229 0.7173 0.0
N1043 N 0.00903 0.76262 0.78429 0.0
H1044 H 0.04662 0.43159 0.81816 0.0
H1045 H 0.93542 0.38312 0.7535 0.0
H1046 H 0.00281 0.42497 0.91076 0.0
H1047 H 0.98108 0.40873 0.65716 0.0
H1048 H 0.95938 0.39261 0.81205 0.0
H1049 H 0.02223 0.41755 0.76023 0.0
C1050 C 0.03183 0.42693 0.8266 0.0
C1051 C 0.02683 0.42956 0.86962 0.0
C1052 C 0.96416 0.39602 0.77809 0.0
C1053 C -0.00126 0.41338 0.80295 0.0
C1054 C 0.95047 0.39051 0.74445 0.0
C1055 C 0.95617 0.39519 0.70008 0.0
C1056 C 0.98379 0.40611 0.76753 0.0
C1057 C 0.97597 0.40485 0.69077 0.0
C1058 C 0.01793 0.41902 0.7933 0.0
C1059 C 0.00738 0.4233 0.87817 0.0
N1060 N 0.98904 0.41 0.72416 0.0
N1061 N -0.00592 0.41553 0.8452 0.0
H1062 H 0.55061 0.61818 0.78878 0.0
H1063 H 0.60325 0.55775 0.73471 0.0
H1064 H 0.56865 0.59252 0.8893 0.0
H1065 H 0.58144 0.58 0.63448 0.0
H1066 H 0.59416 0.5735 0.79136 0.0
H1067 H 0.5653 0.60771 0.73256 0.0
C1068 C 0.55793 0.6106 0.79923 0.0
C1069 C 0.55832 0.60627 0.84412 0.0
C1070 C 0.59153 0.57514 0.75699 0.0
C1071 C 0.57509 0.59388 0.77916 0.0
C1072 C 0.5968 0.56618 0.7244 0.0
C1073 C 0.59312 0.56745 0.67939 0.0
C1074 C 0.58245 0.58555 0.74489 0.0
C1075 C 0.58465 0.5786 0.66853 0.0
C1076 C 0.56626 0.60452 0.76691 0.0
C1077 C 0.56804 0.59634 0.85528 0.0
N1078 N 0.57951 0.58707 0.70096 0.0
N1079 N 0.57586 0.59035 0.82308 0.0
H1080 H 0.40199 0.99279 0.92369 0.0
H1081 H 0.40586 0.01014 0.66124 0.0
H1082 H 0.37262 0.94686 0.82898 0.0
H1083 H 0.43426 0.05577 0.75707 0.0
H1084 H 0.39098 0.98704 0.72209 0.0
H1085 H 0.41136 0.01625 0.86349 0.0
C1086 C 0.39723 0.98761 0.89041 0.0
C1087 C 0.38652 0.96774 0.88163 0.0
C1088 C 0.40029 0.00215 0.72979 0.0
C1089 C 0.39746 -0.00535 0.81202 0.0
C1090 C 0.40871 0.01539 0.69496 0.0
C1091 C 0.42142 0.03501 0.70381 0.0
C1092 C 0.40459 0.0085 0.77394 0.0
C1093 C 0.42464 0.04083 0.7484 0.0
C1094 C 0.40269 0.00104 0.85589 0.0
C1095 C 0.38094 0.962 0.83754 0.0
N1096 N 0.41645 0.02769 0.78156 0.0
N1097 N 0.38657 0.97531 0.80452 0.0
H1098 H 0.97644 0.58929 0.15896 0.0
H1099 H 0.00397 0.56732 0.39767 0.0
H1100 H 0.96108 0.53233 0.2048 0.0
H1101 H 0.03663 0.62301 0.33551 0.0
H1102 H 0.9837 0.55543 0.33195 0.0
H1103 H -0.00518 0.60286 0.22738 0.0
C1104 C 0.97695 0.57963 0.18323 0.0
C1105 C 0.9672 0.5596 0.17588 0.0
C1106 C -0.00482 0.57031 0.33285 0.0
C1107 C 0.98794 0.57504 0.2545 0.0
C1108 C 0.00666 0.57719 0.3706 0.0
C1109 C 0.0221 0.59621 0.37218 0.0
C1110 C -0.00106 0.58255 0.29641 0.0
C1111 C 0.02494 0.60822 0.3357 0.0
C1112 C 0.98743 0.5874 0.22228 0.0
C1113 C 0.96836 0.54784 0.20876 0.0
N1114 N 0.01351 0.6012 0.29927 0.0
N1115 N 0.97843 0.55571 0.24653 0.0
H1116 H 0.4088 0.40753 0.14408 0.0
H1117 H 0.38629 0.40999 0.4017 0.0
H1118 H 0.41444 0.37137 0.24144 0.0
H1119 H 0.37284 0.43944 0.30093 0.0
H1120 H 0.39536 0.39459 0.34359 0.0
H1121 H 0.3945 0.41844 0.20073 0.0
C1122 C 0.40682 0.40168 0.17716 0.0
C1123 C 0.41285 0.38846 0.18776 0.0
C1124 C 0.39018 0.40423 0.33419 0.0
C1125 C 0.39668 0.40115 0.25329 0.0
C1126 C 0.38488 0.41296 0.36743 0.0
C1127 C 0.37878 0.42611 0.3564 0.0
C1128 C 0.38949 0.40872 0.28948 0.0
C1129 C 0.37749 0.42948 0.31123 0.0
C1130 C 0.39869 0.40796 0.20962 0.0
C1131 C 0.40999 0.38152 0.23147 0.0
N1132 N 0.38294 0.42103 0.27965 0.0
N1133 N 0.4023 0.38805 0.26256 0.0
H1134 H 0.60645 0.04933 0.25704 0.0
H1135 H 0.5504 0.93673 0.31767 0.0
H1136 H 0.58236 0.00429 0.15863 0.0
H1137 H 0.5643 0.98184 0.41341 0.0
H1138 H 0.56584 0.96117 0.26018 0.0
H1139 H 0.59515 0.02485 0.31486 0.0
C1140 C 0.599 0.03429 0.2474 0.0
C1141 C 0.59536 0.02898 0.20257 0.0
C1142 C 0.56566 0.96576 0.29379 0.0
C1143 C 0.58218 0.00064 0.26939 0.0
C1144 C 0.55691 0.95179 0.32687 0.0
C1145 C 0.55597 0.95714 0.37078 0.0
C1146 C 0.57375 0.98538 0.3044 0.0
C1147 C 0.56464 0.97695 0.38021 0.0
C1148 C 0.59245 0.02028 0.28065 0.0
C1149 C 0.58558 0.00915 0.19257 0.0
N1150 N 0.57309 0.99029 0.34738 0.0
N1151 N 0.57927 -0.00425 0.22564 0.0
H1152 H 0.67325 0.78269 0.22151 0.0
H1153 H 0.63165 0.70658 0.022 0.0
H1154 H 0.69632 0.74552 0.19139 0.0
H1155 H 0.62521 0.7567 0.03261 0.0
H1156 H 0.65303 0.71786 0.08724 0.0
H1157 H 0.65233 0.76999 0.1571 0.0
C1158 C 0.67372 0.77162 0.20179 0.0
C1159 C 0.68663 0.7652 0.21203 0.0
C1160 C 0.64711 0.72648 0.07487 0.0
C1161 C 0.66266 0.75061 0.13753 0.0
C1162 C 0.63506 0.72011 0.03757 0.0
C1163 C 0.6269 0.73088 0.02184 0.0
C1164 C 0.65074 0.74357 0.0966 0.0
C1165 C 0.63134 0.74807 0.04367 0.0
C1166 C 0.66187 0.76449 0.16466 0.0
C1167 C 0.68664 0.75094 0.18473 0.0
N1168 N 0.64285 0.75382 0.0799 0.0
N1169 N 0.67486 0.74411 0.14877 0.0
H1170 H 0.25259 0.91269 0.97461 0.0
H1171 H 0.23265 0.91446 0.23454 0.0
H1172 H 0.27376 0.88941 0.07388 0.0
H1173 H 0.21742 0.94346 0.13631 0.0
H1174 H 0.2492 0.90654 0.17696 0.0
H1175 H 0.24107 0.92548 0.0336 0.0
C1176 C 0.2551 0.91051 0.0087 0.0
C1177 C 0.26421 0.8999 0.01899 0.0
C1178 C 0.2424 0.91482 0.1681 0.0
C1179 C 0.2507 0.9143 0.08712 0.0
C1180 C 0.233 0.91943 0.2011 0.0
C1181 C 0.22351 0.92963 0.19049 0.0
C1182 C 0.24229 0.92035 0.12396 0.0
C1183 C 0.22442 0.93552 0.14628 0.0
C1184 C 0.24843 0.91775 0.04249 0.0
C1185 C 0.26685 0.89746 0.06406 0.0
N1186 N 0.23344 0.93069 0.1148 0.0
N1187 N 0.26002 0.90441 0.09624 0.0
H1188 H 0.04252 0.27853 0.14359 0.0
H1189 H 0.09736 0.38869 0.06391 0.0
H1190 H 0.06979 0.32673 0.23348 0.0
H1191 H 0.07578 0.34016 0.97472 0.0
H1192 H 0.08389 0.36641 0.12605 0.0
H1193 H 0.05107 0.30096 0.08201 0.0
C1194 C 0.05014 0.29386 0.15055 0.0
C1195 C 0.05548 0.30069 0.19402 0.0
C1196 C 0.08191 0.36062 0.09289 0.0
C1197 C 0.06549 0.32663 0.12295 0.0
C1198 C 0.08952 0.37335 0.05719 0.0
C1199 C 0.08778 0.36636 0.01372 0.0
C1200 C 0.07235 0.34064 0.08538 0.0
C1201 C 0.0775 0.34628 0.00747 0.0
C1202 C 0.05507 0.30668 0.11517 0.0
C1203 C 0.06531 0.32076 0.20066 0.0
N1204 N 0.0703 0.33417 0.04284 0.0
N1205 N 0.07011 0.333 0.16552 0.0
H1206 H 0.6482 0.89669 0.48936 0.0
H1207 H 0.66124 0.91714 0.74957 0.0
H1208 H 0.60152 0.88744 0.57561 0.0
H1209 H 0.70886 0.94022 0.65809 0.0
H1210 H 0.63905 0.90602 0.68658 0.0
H1211 H 0.67071 0.91246 0.55068 0.0
C1212 C 0.64269 0.89811 0.52099 0.0
C1213 C 0.62288 0.89065 0.52718 0.0
C1214 C 0.65437 0.91371 0.68034 0.0
C1215 C 0.64857 0.90847 0.59788 0.0
C1216 C 0.66706 0.92013 0.71636 0.0
C1217 C 0.68701 0.92963 0.70938 0.0
C1218 C 0.66163 0.91658 0.6369 0.0
C1219 C 0.69363 0.93295 0.66535 0.0
C1220 C 0.65555 0.90712 0.55605 0.0
C1221 C 0.61662 0.89294 0.56909 0.0
N1222 N 0.68103 0.92628 0.63098 0.0
N1223 N 0.62935 0.90143 0.60279 0.0
H1224 H 0.0881 0.69938 0.56928 0.0
H1225 H 0.04393 0.76574 0.64068 0.0
H1226 H 0.07694 0.7336 0.47686 0.0
H1227 H 0.06977 0.74451 0.73325 0.0
H1228 H 0.05117 0.7499 0.5807 0.0
H1229 H 0.07648 0.7114 0.62929 0.0
C1230 C 0.08293 0.70918 0.56136 0.0
C1231 C 0.08358 0.71547 0.51767 0.0
C1232 C 0.05514 0.74857 0.61414 0.0
C1233 C 0.07029 0.72943 0.58682 0.0
C1234 C 0.05093 0.75756 0.6486 0.0
C1235 C 0.05627 0.75653 0.69233 0.0
C1236 C 0.0646 0.73823 0.62322 0.0
C1237 C 0.0654 0.74575 0.70017 0.0
C1238 C 0.07641 0.71614 0.59584 0.0
C1239 C 0.07673 0.72829 0.50986 0.0
N1240 N 0.06928 0.73705 0.66601 0.0
N1241 N 0.07045 0.73487 0.54403 0.0
H1242 H 0.20288 0.26122 0.64161 0.0
H1243 H 0.27047 0.37251 0.57738 0.0
H1244 H 0.23025 0.30658 0.73849 0.0
H1245 H 0.23815 0.32762 0.48219 0.0
H1246 H 0.25908 0.34826 0.6359 0.0
H1247 H 0.21879 0.28483 0.58296 0.0
C1248 C 0.21246 0.27612 0.65073 0.0
C1249 C 0.21513 0.28182 0.69538 0.0
C1250 C 0.2546 0.34366 0.6022 0.0
C1251 C 0.23343 0.3092 0.62759 0.0
C1252 C 0.26117 0.35752 0.56857 0.0
C1253 C 0.25527 0.35218 0.5245 0.0
C1254 C 0.24198 0.32419 0.59203 0.0
C1255 C 0.24317 0.33248 0.51548 0.0
C1256 C 0.2215 0.28965 0.61701 0.0
C1257 C 0.22774 0.30143 0.70471 0.0
N1258 N 0.23685 0.31927 0.5489 0.0
N1259 N 0.2363 0.31439 0.67117 0.0
H1260 H 0.33574 0.0831 0.57543 0.0
H1261 H 0.31776 0.07882 0.31481 0.0
H1262 H 0.37972 0.09427 0.47892 0.0
H1263 H 0.27168 0.0535 0.4102 0.0
H1264 H 0.34075 0.08474 0.37435 0.0
H1265 H 0.31197 0.07212 0.51567 0.0
C1266 C 0.34038 0.08299 0.54185 0.0
C1267 C 0.35983 0.08964 0.5324 0.0
C1268 C 0.32558 0.07772 0.38215 0.0
C1269 C 0.33271 0.07745 0.46354 0.0
C1270 C 0.31244 0.07432 0.3481 0.0
C1271 C 0.29271 0.0657 0.35735 0.0
C1272 C 0.31902 0.07266 0.42594 0.0
C1273 C 0.28672 0.06024 0.40133 0.0
C1274 C 0.3268 0.07677 0.50767 0.0
C1275 C 0.36494 0.08924 0.48803 0.0
N1276 N 0.29979 0.06396 0.4339 0.0
N1277 N 0.35155 0.0835 0.45535 0.0
H1278 H 0.91634 0.23975 0.30944 0.0
H1279 H 0.90099 0.24398 0.56991 0.0
H1280 H 0.94256 0.22114 0.40733 0.0
H1281 H 0.88548 0.2738 0.47444 0.0
H1282 H 0.91665 0.23584 0.51079 0.0
H1283 H 0.90538 0.25288 0.36891 0.0
C1284 C 0.92009 0.2387 0.34327 0.0
C1285 C 0.93042 0.22927 0.35317 0.0
C1286 C 0.90998 0.24434 0.50284 0.0
C1287 C 0.91757 0.24398 0.42168 0.0
C1288 C 0.90105 0.24901 0.53668 0.0
C1289 C 0.89185 0.25959 0.52733 0.0
C1290 C 0.90956 0.25007 0.45908 0.0
C1291 C 0.89238 0.26564 0.48341 0.0
C1292 C 0.91375 0.24613 0.3773 0.0
C1293 C 0.93465 0.22824 0.39786 0.0
N1294 N 0.90088 0.26065 0.45099 0.0
N1295 N 0.92808 0.23528 0.4303 0.0
H1296 H 0.7011 0.60077 0.48681 0.0
H1297 H 0.75995 0.71064 0.40497 0.0
H1298 H 0.72687 0.64956 0.57535 0.0
H1299 H 0.74224 0.66211 0.31715 0.0
H1300 H 0.74463 0.68845 0.46634 0.0
H1301 H 0.71249 0.62286 0.42391 0.0
C1302 C 0.70892 0.61614 0.49317 0.0
C1303 C 0.713 0.62323 0.53677 0.0
C1304 C 0.74395 0.6826 0.43366 0.0
C1305 C 0.7263 0.64875 0.46425 0.0
C1306 C 0.75268 0.69529 0.39834 0.0
C1307 C 0.75248 0.68831 0.35548 0.0
C1308 C 0.73477 0.66262 0.4265 0.0
C1309 C 0.74279 0.66821 0.34944 0.0
C1310 C 0.71552 0.62876 0.45706 0.0
C1311 C 0.72327 0.64335 0.54254 0.0
N1312 N 0.73439 0.6561 0.38451 0.0
N1313 N 0.72962 0.65535 0.50681 0.0
H1314 H 0.29016 0.2507 0.86221 0.0
H1315 H 0.34729 0.23534 0.05418 0.0
H1316 H 0.30464 0.20574 0.85321 0.0
H1317 H 0.36765 0.29288 1.00498 0.0
H1318 H 0.32498 0.22243 0.99154 0.0
H1319 H 0.31284 0.26503 0.92421 0.0
C1320 C 0.29829 0.24398 0.873 0.0
C1321 C 0.29576 0.22718 0.85216 0.0
C1322 C 0.33421 0.23788 0.99481 0.0
C1323 C 0.32093 0.24295 0.92414 0.0
C1324 C 0.34678 0.2453 0.03079 0.0
C1325 C 0.35933 0.26527 0.03497 0.0
C1326 C 0.33375 0.25051 0.96337 0.0
C1327 C 0.3582 0.27742 1.00309 0.0
C1328 C 0.31113 0.25212 0.90835 0.0
C1329 C 0.30643 0.21889 0.86784 0.0
N1330 N 0.34555 0.26987 0.96882 0.0
N1331 N 0.31832 0.22667 0.90333 0.0
H1332 H 0.75853 0.04002 0.91045 0.0
H1333 H 0.70459 0.09902 0.96639 0.0
H1334 H 0.74565 0.071 0.81249 0.0
H1335 H 0.72715 0.07741 0.0664 0.0
H1336 H 0.7155 0.08503 0.90943 0.0
H1337 H 0.74327 0.0498 0.96676 0.0
C1338 C 0.75228 0.04868 0.90051 0.0
C1339 C 0.75346 0.05467 0.85633 0.0
C1340 C 0.71793 0.08318 0.94381 0.0
C1341 C 0.73589 0.06605 0.9214 0.0
C1342 C 0.7116 0.0911 0.97657 0.0
C1343 C 0.71494 0.08949 0.0216 0.0
C1344 C 0.72767 0.07341 0.95579 0.0
C1345 C 0.72417 0.07903 0.0323 0.0
C1346 C 0.74363 0.05434 0.93292 0.0
C1347 C 0.7451 0.06597 0.84593 0.0
N1348 N 0.73027 0.0715 0.99971 0.0
N1349 N 0.73676 0.07132 0.87816 0.0
H1350 H 0.93192 0.71337 0.91445 0.0
H1351 H 0.87756 0.60057 0.97265 0.0
H1352 H 0.91014 0.66848 0.81563 0.0
H1353 H 0.89837 0.6454 0.0715 0.0
H1354 H 0.89239 0.62518 0.91527 0.0
H1355 H 0.92281 0.68892 0.97195 0.0
C1356 C 0.92545 0.69838 0.90466 0.0
C1357 C 0.92177 0.69308 0.85982 0.0
C1358 C 0.89393 0.62968 0.9495 0.0
C1359 C 0.91104 0.66476 0.92623 0.0
C1360 C 0.88551 0.61558 0.98247 0.0
C1361 C 0.88666 0.6208 0.02728 0.0
C1362 C 0.90356 0.64931 0.96102 0.0
C1363 C 0.89715 0.64059 0.0376 0.0
C1364 C 0.92018 0.68438 0.93771 0.0
C1365 C 0.91333 0.67335 0.84957 0.0
N1366 N 0.90501 0.65406 1.0048 0.0
N1367 N 0.90813 0.65996 0.88243 0.0
H1368 H 0.10179 0.5769 0.71556 0.0
H1369 H 0.0809 0.47694 0.81555 0.0
H1370 H 0.08072 0.52414 0.6409 0.0
H1371 H 0.09937 0.52831 0.8933 0.0
H1372 H 0.08956 0.49637 0.74831 0.0
H1373 H 0.10888 0.56176 0.77724 0.0
C1374 C 0.09899 0.56226 0.71178 0.0
C1375 C 0.09035 0.55166 0.67323 0.0
C1376 C 0.09236 0.50357 0.78002 0.0
C1377 C 0.09837 0.53424 0.74376 0.0
C1378 C 0.08771 0.49249 0.81837 0.0
C1379 C 0.08975 0.50117 0.85968 0.0
C1380 C 0.0986 0.52336 0.78319 0.0
C1381 C 0.09796 0.52123 0.86185 0.0
C1382 C 0.10304 0.55362 0.74705 0.0
C1383 C 0.08713 0.53278 0.67017 0.0
N1384 N 0.10173 0.53165 0.824 0.0
N1385 N 0.0909 0.52461 0.70517 0.0
H1386 H 0.49195 0.59698 0.83189 0.0
H1387 H 0.39904 0.50986 0.72122 0.0
H1388 H 0.45221 0.54364 0.89638 0.0
H1389 H 0.44851 0.5499 0.64503 0.0
H1390 H 0.41373 0.52907 0.78712 0.0
H1391 H 0.47155 0.58612 0.76551 0.0
C1392 C 0.47871 0.58322 0.83244 0.0
C1393 C 0.47379 0.57102 0.86934 0.0
C1394 C 0.42125 0.53383 0.75586 0.0
C1395 C 0.45059 0.55875 0.7943 0.0
C1396 C 0.41289 0.52287 0.71817 0.0
C1397 C 0.42282 0.528 0.67777 0.0
C1398 C 0.43972 0.55 0.75333 0.0
C1399 C 0.44052 0.54526 0.6757 0.0
C1400 C 0.46719 0.57704 0.79459 0.0
C1401 C 0.4566 0.55336 0.86842 0.0
N1402 N 0.44862 0.55551 0.71327 0.0
N1403 N 0.44569 0.5477 0.8314 0.0
H1404 H 0.38856 0.90217 0.87319 0.0
H1405 H 0.47669 0.90364 0.74523 0.0
H1406 H 0.44746 0.93338 0.91679 0.0
H1407 H 0.4268 0.89744 0.67697 0.0
H1408 H 0.46211 0.90449 0.81548 0.0
H1409 H 0.39878 0.89067 0.80843 0.0
C1410 C 0.40351 0.90614 0.86974 0.0
C1411 C 0.41724 0.91878 0.9001 0.0
C1412 C 0.45421 0.9026 0.78516 0.0
C1413 C 0.42891 0.90573 0.82686 0.0
C1414 C 0.46248 0.90202 0.74497 0.0
C1415 C 0.45307 0.90073 0.70496 0.0
C1416 C 0.43629 0.90165 0.78559 0.0
C1417 C 0.43466 0.8987 0.70696 0.0
C1418 C 0.40934 0.89974 0.83273 0.0
C1419 C 0.43646 0.92373 0.89395 0.0
N1420 N 0.42692 0.89938 0.7466 0.0
N1421 N 0.44173 0.91725 0.85805 0.0
H1422 H 0.49378 0.0881 0.69687 0.0
H1423 H 0.57445 0.07397 0.81713 0.0
H1424 H 0.51582 0.05247 0.64629 0.0
H1425 H 0.53895 0.09184 0.88669 0.0
H1426 H 0.5582 0.07308 0.74849 0.0
H1427 H 0.51536 0.09639 0.76059 0.0
C1428 C 0.50335 0.08226 0.69879 0.0
C1429 C 0.50288 0.06942 0.66642 0.0
C1430 C 0.55409 0.07737 0.7787 0.0
C1431 C 0.52753 0.07888 0.739 0.0
C1432 C 0.56341 0.07797 0.81797 0.0
C1433 C 0.55792 0.08279 0.85797 0.0
C1434 C 0.53923 0.08175 0.77915 0.0
C1435 C 0.54354 0.08788 0.85674 0.0
C1436 C 0.51556 0.08692 0.73526 0.0
C1437 C 0.51558 0.06228 0.67064 0.0
N1438 N 0.5346 0.08712 0.81798 0.0
N1439 N 0.52731 0.06704 0.70632 0.0
H1440 H 0.88833 0.38655 0.72172 0.0
H1441 H 0.88362 0.47441 0.83013 0.0
H1442 H 0.89848 0.43779 0.65274 0.0
H1443 H 0.88538 0.42921 0.90382 0.0
H1444 H 0.87774 0.4555 0.76273 0.0
H1445 H 0.87566 0.39616 0.78481 0.0
C1446 C 0.88701 0.39935 0.71918 0.0
C1447 C 0.89431 0.41142 0.68234 0.0
C1448 C 0.87902 0.44953 0.79379 0.0
C1449 C 0.8806 0.42281 0.75423 0.0
C1450 C 0.88236 0.46033 0.83238 0.0
C1451 C 0.88549 0.4536 0.87258 0.0
C1452 C 0.87886 0.43192 0.79536 0.0
C1453 C 0.88344 0.43513 0.87343 0.0
C1454 C 0.88004 0.40496 0.75527 0.0
C1455 C 0.89284 0.4281 0.68073 0.0
N1456 N 0.8806 0.42508 0.83524 0.0
N1457 N 0.88643 0.43349 0.71651 0.0
H1458 H 0.49014 0.41509 0.81625 0.0
H1459 H 0.58347 0.49663 0.69172 0.0
H1460 H 0.54365 0.45118 0.88407 0.0
H1461 H 0.52537 0.47108 0.64339 0.0
H1462 H 0.5715 0.47489 0.75615 0.0
H1463 H 0.50547 0.43016 0.74674 0.0
C1464 C 0.5052 0.42607 0.81657 0.0
C1465 C 0.51551 0.43211 0.85635 0.0
C1466 C 0.56148 0.4739 0.731 0.0
C1467 C 0.5332 0.44955 0.77633 0.0
C1468 C 0.56829 0.48616 0.6942 0.0
C1469 C 0.55531 0.48572 0.66262 0.0
C1470 C 0.54164 0.46101 0.73553 0.0
C1471 C 0.53581 0.47202 0.66733 0.0
C1472 C 0.51395 0.43469 0.77673 0.0
C1473 C 0.53508 0.44624 0.85431 0.0
N1474 N 0.52958 0.46031 0.70315 0.0
N1475 N 0.54326 0.45467 0.81498 0.0
H1476 H 0.88871 0.49476 0.19803 0.0
H1477 H 0.88034 0.40931 0.34799 0.0
H1478 H 0.88358 0.44196 0.147 0.0
H1479 H 0.89985 0.46716 0.39485 0.0
H1480 H 0.87184 0.41776 0.27747 0.0
H1481 H 0.88285 0.48118 0.27238 0.0
C1482 C 0.88588 0.48013 0.20224 0.0
C1483 C 0.88704 0.46964 0.16629 0.0
C1484 C 0.87765 0.42849 0.30347 0.0
C1485 C 0.88049 0.45412 0.25138 0.0
C1486 C 0.88248 0.42369 0.34385 0.0
C1487 C 0.89122 0.4377 0.37712 0.0
C1488 C 0.8815 0.44741 0.29635 0.0
C1489 C 0.89344 0.456 0.36991 0.0
C1490 C 0.88263 0.47244 0.24478 0.0
C1491 C 0.88306 0.45068 0.17378 0.0
N1492 N 0.88887 0.46042 0.33006 0.0
N1493 N 0.88029 0.44365 0.21562 0.0
H1494 H 0.51894 0.43292 0.41487 0.0
H1495 H 0.51248 0.41885 0.15454 0.0
H1496 H 0.56394 0.46959 0.32398 0.0
H1497 H 0.46602 0.38534 0.24451 0.0
H1498 H 0.53461 0.43165 0.21731 0.0
H1499 H 0.50255 0.41018 0.35473 0.0
C1500 C 0.52554 0.43606 0.38244 0.0
C1501 C 0.54267 0.45338 0.37431 0.0
C1502 C 0.51971 0.42101 0.22334 0.0
C1503 C 0.52391 0.42739 0.30517 0.0
C1504 C 0.50717 0.41352 0.18747 0.0
C1505 C 0.48756 0.40096 0.19473 0.0
C1506 C 0.51241 0.41604 0.26657 0.0
C1507 C 0.48115 0.39488 0.23786 0.0
C1508 C 0.51616 0.42305 0.34806 0.0
C1509 C 0.5506 0.45657 0.33163 0.0
N1510 N 0.49349 0.40272 0.27232 0.0
N1511 N 0.54103 0.44384 0.29854 0.0
H1512 H 0.54259 0.08647 0.14003 0.0
H1513 H 0.53653 0.06986 0.39783 0.0
H1514 H 0.5863 0.08207 0.21321 0.0
H1515 H 0.50494 0.09297 0.33145 0.0
H1516 H 0.55592 0.07568 0.33119 0.0
H1517 H 0.52963 0.09068 0.20974 0.0
C1518 C 0.54966 0.0867 0.17065 0.0
C1519 C 0.56538 0.08362 0.17075 0.0
C1520 C 0.54494 0.07975 0.33143 0.0
C1521 C 0.55042 0.0881 0.25068 0.0
C1522 C 0.53383 0.07639 0.36947 0.0
C1523 C 0.51893 0.08073 0.37012 0.0
C1524 C 0.54094 0.08721 0.29348 0.0
C1525 C 0.51618 0.08928 0.3324 0.0
C1526 C 0.54225 0.08911 0.21047 0.0
C1527 C 0.57404 0.0842 0.21148 0.0
N1528 N 0.52687 0.09195 0.2954 0.0
N1529 N 0.56624 0.08602 0.24982 0.0
H1530 H 0.45411 0.89362 0.40664 0.0
H1531 H 0.45789 0.90369 0.14568 0.0
H1532 H 0.50384 0.90698 0.32764 0.0
H1533 H 0.40819 0.89103 0.22486 0.0
H1534 H 0.47241 0.89764 0.20991 0.0
H1535 H 0.43457 0.88471 0.33935 0.0
C1536 C 0.46069 0.89387 0.37516 0.0
C1537 C 0.48045 0.90079 0.37233 0.0
C1538 C 0.45819 0.89587 0.21311 0.0
C1539 C 0.45859 0.89155 0.29531 0.0
C1540 C 0.44987 0.89933 0.17637 0.0
C1541 C 0.43193 0.89823 0.18006 0.0
C1542 C 0.44856 0.89136 0.25395 0.0
C1543 C 0.42219 0.89236 0.22065 0.0
C1544 C 0.44963 0.88902 0.33672 0.0
C1545 C 0.48854 0.90145 0.33093 0.0
N1546 N 0.43074 0.88942 0.25615 0.0
N1547 N 0.47764 0.89719 0.29387 0.0
H1548 H 0.09355 0.52197 0.22605 0.0
H1549 H 0.08437 0.60814 0.33042 0.0
H1550 H 0.08483 0.56264 0.15051 0.0
H1551 H 0.08628 0.56374 0.40637 0.0
H1552 H 0.09412 0.59725 0.26457 0.0
H1553 H 0.09967 0.54204 0.29161 0.0
C1554 C 0.09325 0.53529 0.223 0.0
C1555 C 0.08834 0.54046 0.1828 0.0
C1556 C 0.09304 0.59027 0.29591 0.0
C1557 C 0.09531 0.5635 0.25792 0.0
C1558 C 0.08779 0.5967 0.33354 0.0
C1559 C 0.08485 0.58696 0.37365 0.0
C1560 C 0.09495 0.57377 0.29853 0.0
C1561 C 0.08876 0.57179 0.37597 0.0
C1562 C 0.09675 0.54675 0.26053 0.0
C1563 C 0.0883 0.55795 0.1809 0.0
N1564 N 0.09328 0.56541 0.33871 0.0
N1565 N 0.09146 0.5687 0.21806 0.0
H1566 H 0.49282 0.57087 0.22797 0.0
H1567 H 0.39733 0.49885 0.36046 0.0
H1568 H 0.43651 0.54348 0.16838 0.0
H1569 H 0.45505 0.52019 0.40838 0.0
H1570 H 0.41054 0.5191 0.29456 0.0
H1571 H 0.47826 0.55647 0.29849 0.0
C1572 C 0.47734 0.56183 0.22968 0.0
C1573 C 0.4659 0.55812 0.19191 0.0
C1574 C 0.42026 0.51947 0.31976 0.0
C1575 C 0.44906 0.54145 0.27307 0.0
C1576 C 0.41275 0.508 0.35747 0.0
C1577 C 0.42514 0.50768 0.38976 0.0
C1578 C 0.44027 0.53075 0.31453 0.0
C1579 C 0.44497 0.51982 0.38417 0.0
C1580 C 0.46902 0.55362 0.27011 0.0
C1581 C 0.44589 0.54657 0.19654 0.0
N1582 N 0.45189 0.53073 0.34719 0.0
N1583 N 0.43809 0.53846 0.23634 0.0
H1584 H 0.76824 0.91036 0.0486 0.0
H1585 H 0.74158 0.8092 0.15111 0.0
H1586 H 0.74322 0.85684 0.97572 0.0
H1587 H 0.76553 0.86177 0.22661 0.0
H1588 H 0.75062 0.82804 0.08297 0.0
H1589 H 0.77505 0.89466 0.10962 0.0
C1590 C 0.76453 0.89542 0.04501 0.0
C1591 C 0.75481 0.88481 0.00725 0.0
C1592 C 0.75454 0.83558 0.11432 0.0
C1593 C 0.76249 0.86673 0.07712 0.0
C1594 C 0.74965 0.8248 0.15321 0.0
C1595 C 0.75309 0.83402 0.19428 0.0
C1596 C 0.76243 0.85569 0.11667 0.0
C1597 C 0.76297 0.85421 0.19541 0.0
C1598 C 0.76841 0.88645 0.07993 0.0
C1599 C 0.75046 0.86553 1.00443 0.0
N1600 N 0.76692 0.8644 0.15712 0.0
N1601 N 0.75407 0.85706 0.0391 0.0
H1602 H 0.06615 0.84842 0.04336 0.0
H1603 H 0.12021 0.87288 0.22936 0.0
H1604 H 0.12134 0.88512 0.98257 0.0
H1605 H 0.15808 0.92796 0.16973 0.0
H1606 H 0.09933 0.86398 0.1651 0.0
H1607 H 0.07875 0.86549 0.11312 0.0
C1608 C 0.08082 0.86027 0.04441 0.0
C1609 C 0.09288 0.86495 0.00735 0.0
C1610 C 0.11175 0.87833 0.16653 0.0
C1611 C 0.10749 0.88418 0.08736 0.0
C1612 C 0.12373 0.88334 0.20315 0.0
C1613 C 0.14074 0.90114 0.20461 0.0
C1614 C 0.11709 0.89107 0.13056 0.0
C1615 C 0.14492 0.91415 0.16975 0.0
C1616 C 0.08804 0.8699 0.08438 0.0
C1617 C 0.11165 0.88073 0.01056 0.0
N1618 N 0.1334 0.90864 0.13339 0.0
N1619 N 0.11849 0.88957 0.05015 0.0
H1620 H 0.09306 0.23146 1.00405 0.0
H1621 H 0.1116 0.25728 0.25579 0.0
H1622 H 0.13952 0.2317 0.07595 0.0
H1623 H 0.05581 0.23734 0.19788 0.0
H1624 H 0.1208 0.24529 0.1915 0.0
H1625 H 0.07769 0.23089 0.07452 0.0
C1626 C 0.09989 0.23108 0.03456 0.0
C1627 C 0.11781 0.232 0.034 0.0
C1628 C 0.10639 0.24314 0.19307 0.0
C1629 C 0.10039 0.23154 0.11467 0.0
C1630 C 0.10114 0.24998 0.22982 0.0
C1631 C 0.083 0.2484 0.23189 0.0
C1632 C 0.0936 0.23514 0.15745 0.0
C1633 C 0.06996 0.23882 0.19745 0.0
C1634 C 0.09107 0.2307 0.07479 0.0
C1635 C 0.12586 0.23128 0.07463 0.0
N1636 N 0.07567 0.23292 0.16106 0.0
N1637 N 0.11727 0.23144 0.11321 0.0
H1638 H 0.18763 0.40715 0.2386 0.0
H1639 H 0.18567 0.42234 0.97734 0.0
H1640 H 0.23739 0.42324 0.15651 0.0
H1641 H 0.13636 0.38476 0.05659 0.0
H1642 H 0.20592 0.43097 0.04435 0.0
H1643 H 0.17005 0.40775 0.1737 0.0
C1644 C 0.195 0.4111 0.20707 0.0
C1645 C 0.21397 0.41484 0.20304 0.0
C1646 C 0.19062 0.42106 0.04696 0.0
C1647 C 0.19376 0.4155 0.12824 0.0
C1648 C 0.1791 0.41625 0.00895 0.0
C1649 C 0.15942 0.40274 0.01168 0.0
C1650 C 0.18219 0.41259 0.08774 0.0
C1651 C 0.15153 0.3951 0.05315 0.0
C1652 C 0.1849 0.41138 0.16994 0.0
C1653 C 0.22273 0.42005 0.16113 0.0
N1654 N 0.16292 0.40011 0.08944 0.0
N1655 N 0.21249 0.42004 0.12521 0.0
H1656 H 0.58341 0.78647 0.96723 0.0
H1657 H 0.56375 0.76504 0.22086 0.0
H1658 H 0.56566 0.73013 0.02101 0.0
H1659 H 0.55978 0.81104 0.15683 0.0
H1660 H 0.56278 0.751 0.14827 0.0
H1661 H 0.57334 0.79506 0.03574 0.0
C1662 C 0.57709 0.77579 0.99321 0.0
C1663 C 0.57554 0.75763 0.98856 0.0
C1664 C 0.56175 0.76397 0.15018 0.0
C1665 C 0.56432 0.7675 0.06748 0.0
C1666 C 0.56232 0.772 0.19161 0.0
C1667 C 0.56207 0.78937 0.19496 0.0
C1668 C 0.5613 0.77357 0.11179 0.0
C1669 C 0.56011 0.7977 0.15591 0.0
C1670 C 0.57132 0.7807 0.03232 0.0
C1671 C 0.56718 0.74433 0.02325 0.0
N1672 N 0.56017 0.78993 0.11595 0.0
N1673 N 0.56222 0.74965 0.06162 0.0
H1674 H 0.20814 0.76813 0.20609 0.0
H1675 H 0.20295 0.80948 0.97151 0.0
H1676 H 0.16938 0.78838 0.16976 0.0
H1677 H 0.25865 0.82984 0.03009 0.0
H1678 H 0.18807 0.78851 0.03515 0.0
H1679 H 0.22485 0.78002 0.13425 0.0
C1680 C 0.2032 0.77504 0.18305 0.0
C1681 C 0.18761 0.77761 0.19389 0.0
C1682 C 0.2036 0.79714 0.03351 0.0
C1683 C 0.20582 0.7902 0.11221 0.0
C1684 C 0.21208 0.80897 0.99717 0.0
C1685 C 0.23197 0.82141 0.996 0.0
C1686 C 0.21507 0.79795 0.06918 0.0
C1687 C 0.24323 0.82034 0.03002 0.0
C1688 C 0.21264 0.78172 0.14235 0.0
C1689 C 0.18155 0.78645 0.16303 0.0
N1690 N 0.23456 0.80906 0.06606 0.0
N1691 N 0.19056 0.79227 0.12354 0.0
H1692 H 0.55154 0.73986 0.66049 0.0
H1693 H 0.56532 0.83851 0.56754 0.0
H1694 H 0.5636 0.7891 0.74147 0.0
H1695 H 0.55561 0.79043 0.48572 0.0
H1696 H 0.55599 0.81757 0.63256 0.0
H1697 H 0.54515 0.75512 0.59804 0.0
C1698 C 0.55257 0.75375 0.66538 0.0
C1699 C 0.55844 0.76335 0.70617 0.0
C1700 C 0.55524 0.81137 0.60027 0.0
C1701 C 0.55121 0.78097 0.63461 0.0
C1702 C 0.56025 0.82327 0.56313 0.0
C1703 C 0.56091 0.81602 0.52144 0.0
C1704 C 0.55131 0.79225 0.59555 0.0
C1705 C 0.55492 0.79639 0.5174 0.0
C1706 C 0.54889 0.76246 0.62965 0.0
C1707 C 0.55935 0.78126 0.71054 0.0
N1708 N 0.55072 0.78524 0.55414 0.0
N1709 N 0.55606 0.78959 0.67507 0.0
H1710 H 0.18076 0.75995 0.46605 0.0
H1711 H 0.20879 0.77407 0.72181 0.0
H1712 H 0.14584 0.71797 0.56401 0.0
H1713 H 0.21525 0.81887 0.63266 0.0
H1714 H 0.1958 0.75071 0.66008 0.0
H1715 H 0.20457 0.77832 0.52319 0.0
C1716 C 0.17867 0.75406 0.49915 0.0
C1717 C 0.16152 0.73741 0.51056 0.0
C1718 C 0.20047 0.76576 0.65414 0.0
C1719 C 0.18824 0.75846 0.5759 0.0
C1720 C 0.20781 0.779 0.68912 0.0
C1721 C 0.21274 0.79824 0.68213 0.0
C1722 C 0.19873 0.7721 0.61204 0.0
C1723 C 0.21129 0.80406 0.63938 0.0
C1724 C 0.19209 0.76465 0.53178 0.0
C1725 C 0.15907 0.73067 0.55411 0.0
N1726 N 0.20439 0.79104 0.60596 0.0
N1727 N 0.17218 0.7414 0.58557 0.0
H1728 H 0.25629 0.41126 0.53891 0.0
H1729 H 0.18318 0.43645 0.66122 0.0
H1730 H 0.21014 0.41457 0.47486 0.0
H1731 H 0.21309 0.41158 0.72796 0.0
H1732 H 0.20099 0.43883 0.59375 0.0
H1733 H 0.24814 0.42136 0.60863 0.0
C1734 C 0.24481 0.41463 0.53923 0.0
C1735 C 0.23371 0.41191 0.50124 0.0
C1736 C 0.20389 0.43316 0.62341 0.0
C1737 C 0.22445 0.42349 0.58042 0.0
C1738 C 0.19378 0.43187 0.66204 0.0
C1739 C 0.19635 0.42345 0.70014 0.0
C1740 C 0.21674 0.42609 0.62285 0.0
C1741 C 0.21041 0.41789 0.69916 0.0
C1742 C 0.2401 0.42026 0.57903 0.0
C1743 C 0.21892 0.41633 0.50352 0.0
N1744 N 0.21991 0.41908 0.66094 0.0
N1745 N 0.21464 0.42178 0.54247 0.0
H1746 H 0.0633 0.23842 0.56991 0.0
H1747 H 0.1448 0.22658 0.69247 0.0
H1748 H 0.1035 0.22723 0.49932 0.0
H1749 H 0.11993 0.2597 0.74284 0.0
H1750 H 0.12377 0.21802 0.6274 0.0
H1751 H 0.07781 0.23699 0.63938 0.0
C1752 C 0.07497 0.23533 0.56896 0.0
C1753 C 0.0824 0.23327 0.52858 0.0
C1754 C 0.12276 0.2269 0.65312 0.0
C1755 C 0.09908 0.23164 0.60823 0.0
C1756 C 0.13463 0.23168 0.69028 0.0
C1757 C 0.13412 0.24395 0.72281 0.0
C1758 C 0.11016 0.2342 0.64913 0.0
C1759 C 0.12084 0.25033 0.71831 0.0
C1760 C 0.08328 0.23459 0.6087 0.0
C1761 C 0.09747 0.22914 0.52964 0.0
N1762 N 0.10944 0.24543 0.68208 0.0
N1763 N 0.10547 0.22866 0.56887 0.0
H1764 H 0.74912 0.93283 0.70656 0.0
H1765 H 0.75665 0.85161 0.56846 0.0
H1766 H 0.73419 0.87664 0.75652 0.0
H1767 H 0.74974 0.89659 0.50816 0.0
H1768 H 0.75941 0.86651 0.64057 0.0
H1769 H 0.76023 0.92525 0.6375 0.0
C1770 C 0.74878 0.91918 0.70354 0.0
C1771 C 0.7406 0.90524 0.73695 0.0
C1772 C 0.75765 0.87331 0.61143 0.0
C1773 C 0.75314 0.89653 0.65859 0.0
C1774 C 0.75613 0.86485 0.57017 0.0
C1775 C 0.75259 0.87266 0.53222 0.0
C1776 C 0.75575 0.88977 0.61484 0.0
C1777 C 0.75216 0.88991 0.53662 0.0
C1778 C 0.75495 0.91481 0.66409 0.0
C1779 C 0.74028 0.8877 0.73131 0.0
N1780 N 0.75346 0.89777 0.5773 0.0
N1781 N 0.74628 0.88377 0.69273 0.0
H1782 H 0.05047 0.81211 0.67133 0.0
H1783 H 0.13277 0.9068 0.55477 0.0
H1784 H 0.09808 0.8589 0.73894 0.0
H1785 H 0.09385 0.85452 0.48523 0.0
H1786 H 0.11378 0.89348 0.62192 0.0
H1787 H 0.05952 0.83171 0.60371 0.0
C1788 C 0.06226 0.82685 0.67242 0.0
C1789 C 0.07354 0.83403 0.71054 0.0
C1790 C 0.10921 0.88504 0.59178 0.0
C1791 C 0.08431 0.85621 0.63353 0.0
C1792 C 0.12005 0.89265 0.55334 0.0
C1793 C 0.11516 0.8816 0.51441 0.0
C1794 C 0.09334 0.86624 0.59146 0.0
C1795 C 0.09836 0.86343 0.51462 0.0
C1796 C 0.0676 0.83793 0.63375 0.0
C1797 C 0.08899 0.85298 0.71012 0.0
N1798 N 0.08822 0.8562 0.55269 0.0
N1799 N 0.0941 0.86333 0.67206 0.0
H1800 H 0.40892 0.14043 0.4771 0.0
H1801 H 0.42411 0.24154 0.3948 0.0
H1802 H 0.42266 0.18813 0.56438 0.0
H1803 H 0.40147 0.18987 0.31547 0.0
H1804 H 0.4317 0.22521 0.45318 0.0
H1805 H 0.41544 0.16169 0.41364 0.0
C1806 C 0.41416 0.15564 0.4827 0.0
C1807 C 0.41554 0.16273 0.52557 0.0
C1808 C 0.42533 0.21758 0.4227 0.0
C1809 C 0.42196 0.18685 0.45367 0.0
C1810 C 0.42099 0.22688 0.38938 0.0
C1811 C 0.41191 0.21696 0.35042 0.0
C1812 C 0.42064 0.1983 0.41682 0.0
C1813 C 0.40825 0.19801 0.34513 0.0
C1814 C 0.4176 0.16772 0.4466 0.0
C1815 C 0.42178 0.18233 0.53153 0.0
N1816 N 0.41248 0.18927 0.37807 0.0
N1817 N 0.42443 0.19371 0.49585 0.0
H1818 H 0.83169 0.26236 0.49424 0.0
H1819 H 0.73928 0.17032 0.3969 0.0
H1820 H 0.79159 0.21355 0.57143 0.0
H1821 H 0.78292 0.21544 0.31627 0.0
H1822 H 0.75398 0.18998 0.46246 0.0
H1823 H 0.80955 0.2498 0.43115 0.0
C1824 C 0.81782 0.24946 0.49838 0.0
C1825 C 0.81324 0.23902 0.5379 0.0
C1826 C 0.76022 0.19571 0.43039 0.0
C1827 C 0.78832 0.22419 0.46594 0.0
C1828 C 0.75184 0.18446 0.39286 0.0
C1829 C 0.76008 0.19108 0.35099 0.0
C1830 C 0.77706 0.21369 0.42623 0.0
C1831 C 0.77621 0.20965 0.3479 0.0
C1832 C 0.80531 0.24214 0.46229 0.0
C1833 C 0.79543 0.22208 0.54147 0.0
N1834 N 0.78434 0.22019 0.38508 0.0
N1835 N 0.78372 0.21503 0.50576 0.0
H1836 H 0.77567 0.54992 0.36354 0.0
H1837 H 0.77927 0.60532 0.58246 0.0
H1838 H 0.80729 0.61179 0.38018 0.0
H1839 H 0.72287 0.56288 0.53699 0.0
H1840 H 0.7933 0.59914 0.51738 0.0
H1841 H 0.75863 0.5473 0.43386 0.0
C1842 C 0.77893 0.56288 0.38164 0.0
C1843 C 0.79298 0.58111 0.36595 0.0
C1844 C 0.77788 0.59086 0.52209 0.0
C1845 C 0.77417 0.57811 0.44605 0.0
C1846 C 0.76987 0.59431 0.55923 0.0
C1847 C 0.7499 0.58479 0.56465 0.0
C1848 C 0.76588 0.57788 0.48981 0.0
C1849 C 0.73836 0.57052 0.53378 0.0
C1850 C 0.76925 0.56135 0.42156 0.0
C1851 C 0.79664 0.59743 0.39069 0.0
N1852 N 0.74652 0.5677 0.49689 0.0
N1853 N 0.78752 0.59551 0.42958 0.0
H1854 H 0.90387 0.76138 0.49179 0.0
H1855 H 0.81103 0.74991 0.36771 0.0
H1856 H 0.85083 0.74732 0.55813 0.0
H1857 H 0.85622 0.74411 0.30577 0.0
H1858 H 0.82991 0.76009 0.43641 0.0
H1859 H 0.8908 0.76614 0.42323 0.0
C1860 C 0.88961 0.75965 0.49224 0.0
C1861 C 0.87828 0.75353 0.53067 0.0
C1862 C 0.83589 0.7571 0.40736 0.0
C1863 C 0.86325 0.75897 0.45207 0.0
C1864 C 0.82523 0.75151 0.36811 0.0
C1865 C 0.8321 0.74609 0.33133 0.0
C1866 C 0.85355 0.75744 0.40933 0.0
C1867 C 0.85043 0.74809 0.33362 0.0
C1868 C 0.88216 0.76234 0.45299 0.0
C1869 C 0.85996 0.75171 0.52916 0.0
N1870 N 0.86044 0.75342 0.37208 0.0
N1871 N 0.85291 0.75415 0.49034 0.0
H1872 H 0.23718 0.11399 0.30486 0.0
H1873 H 0.22522 0.10367 0.56186 0.0
H1874 H 0.22994 0.0637 0.3734 0.0
H1875 H 0.21879 0.14588 0.48677 0.0
H1876 H 0.22176 0.0858 0.49361 0.0
H1877 H 0.22497 0.12271 0.36948 0.0
C1878 C 0.23236 0.10444 0.3332 0.0
C1879 C 0.23446 0.08812 0.334 0.0
C1880 C 0.2207 0.09875 0.49219 0.0
C1881 C 0.22133 0.09842 0.40898 0.0
C1882 C 0.2227 0.109 0.5312 0.0
C1883 C 0.22272 0.12656 0.52999 0.0
C1884 C 0.21892 0.10623 0.45164 0.0
C1885 C 0.21919 0.1326 0.48931 0.0
C1886 C 0.2255 0.10946 0.37025 0.0
C1887 C 0.22833 0.07633 0.37157 0.0
N1888 N 0.21779 0.12266 0.45174 0.0
N1889 N 0.22245 0.08196 0.40811 0.0
H1890 H 0.88281 0.13403 0.57215 0.0
H1891 H 0.88058 0.12402 0.31631 0.0
H1892 H 0.85048 0.07925 0.50553 0.0
H1893 H 0.9266 0.17288 0.38265 0.0
H1894 H 0.87231 0.10599 0.38551 0.0
H1895 H 0.90199 0.14749 0.50517 0.0
C1896 C 0.88 0.12471 0.54378 0.0
C1897 C 0.86473 0.10559 0.54416 0.0
C1898 C 0.88456 0.12046 0.3849 0.0
C1899 C 0.88648 0.12095 0.46736 0.0
C1900 C 0.8893 0.13068 0.34535 0.0
C1901 C 0.90427 0.1498 0.34411 0.0
C1902 C 0.89445 0.12973 0.42375 0.0
C1903 C 0.91504 0.15803 0.38249 0.0
C1904 C 0.89099 0.13241 0.50556 0.0
C1905 C 0.86189 0.09415 0.50658 0.0
N1906 N 0.90962 0.14808 0.42121 0.0
N1907 N 0.87239 0.10212 0.46944 0.0
H1908 H 0.22811 0.17193 0.88654 0.0
H1909 H 0.21547 0.07619 0.99781 0.0
H1910 H 0.22964 0.12579 0.81676 0.0
H1911 H 0.22735 0.1275 0.07024 0.0
H1912 H 0.2099 0.09 0.93147 0.0
H1913 H 0.2169 0.15156 0.95301 0.0
C1914 C 0.22524 0.1572 0.88477 0.0
C1915 C 0.22969 0.15039 0.84646 0.0
C1916 C 0.21337 0.09809 0.96209 0.0
C1917 C 0.21748 0.12734 0.92197 0.0
C1918 C 0.21653 0.09019 1.00007 0.0
C1919 C 0.22232 0.10088 0.03951 0.0
C1920 C 0.21605 0.11682 0.96345 0.0
C1921 C 0.22325 0.11888 0.0404 0.0
C1922 C 0.21908 0.14567 0.92273 0.0
C1923 C 0.22624 0.13143 0.84584 0.0
N1924 N 0.22047 0.12642 1.00276 0.0
N1925 N 0.22058 0.12064 0.88322 0.0
H1926 H 0.90384 0.13271 1.00294 0.0
H1927 H 0.80839 0.04974 0.89292 0.0
H1928 H 0.85093 0.0969 0.07342 0.0
H1929 H 0.85574 0.09495 0.82113 0.0
H1930 H 0.82812 0.05952 0.96008 0.0
H1931 H 0.89046 0.11193 0.93831 0.0
C1932 C 0.88954 0.12026 1.00519 0.0
C1933 C 0.87832 0.11679 0.04341 0.0
C1934 C 0.83442 0.06688 0.92931 0.0
C1935 C 0.86295 0.09297 0.9694 0.0
C1936 C 0.82326 0.06114 0.89098 0.0
C1937 C 0.83063 0.07154 0.85182 0.0
C1938 C 0.85292 0.08319 0.92812 0.0
C1939 C 0.84972 0.08654 0.85089 0.0
C1940 C 0.88192 0.10841 0.96821 0.0
C1941 C 0.85998 0.10031 0.04444 0.0
N1942 N 0.86017 0.09213 0.88872 0.0
N1943 N 0.85275 0.08918 0.00772 0.0
H1944 H 0.85364 0.71974 0.81366 0.0
H1945 H 0.87837 0.76509 0.05095 0.0
H1946 H 0.91248 0.75592 0.85472 0.0
H1947 H 0.82495 0.74994 0.98553 0.0
H1948 H 0.89187 0.76315 0.97969 0.0
H1949 H 0.84313 0.73134 0.87639 0.0
C1950 C 0.86437 0.73035 0.8356 0.0
C1951 C 0.88394 0.73681 0.82918 0.0
C1952 C 0.87732 0.76063 0.9809 0.0
C1953 C 0.87201 0.74996 0.90147 0.0
C1954 C 0.8696 0.76172 0.02155 0.0
C1955 C 0.85041 0.75741 0.02436 0.0
C1956 C 0.86565 0.75486 0.94309 0.0
C1957 C 0.83976 0.75323 0.9851 0.0
C1958 C 0.85838 0.73702 0.87133 0.0
C1959 C 0.89725 0.7506 0.85853 0.0
N1960 N 0.8474 0.7517 0.94628 0.0
N1961 N 0.89101 0.75649 0.89395 0.0
H1962 H 0.83151 0.61999 1.00375 0.0
H1963 H 0.73974 0.54728 0.87639 0.0
H1964 H 0.79797 0.56231 0.056 0.0
H1965 H 0.79238 0.58656 0.80886 0.0
H1966 H 0.75821 0.55216 0.94447 0.0
H1967 H 0.81389 0.60897 0.93445 0.0
C1968 C 0.82031 0.60504 1.00081 0.0
C1969 C 0.81618 0.59203 0.03561 0.0
C1970 C 0.76567 0.55931 0.91438 0.0
C1971 C 0.79613 0.57936 0.95633 0.0
C1972 C 0.7552 0.55651 0.87558 0.0
C1973 C 0.76451 0.5668 0.83714 0.0
C1974 C 0.78537 0.57279 0.91463 0.0
C1975 C 0.78457 0.57848 0.83777 0.0
C1976 C 0.81045 0.59873 0.96108 0.0
C1977 C 0.80157 0.57278 0.02983 0.0
N1978 N 0.79428 0.58155 0.87626 0.0
N1979 N 0.7919 0.567 0.99086 0.0
H1980 H 0.42935 0.21911 0.81272 0.0
H1981 H 0.40879 0.22012 0.06908 0.0
H1982 H 0.41325 0.17117 0.90119 0.0
H1983 H 0.42585 0.2693 0.98469 0.0
H1984 H 0.41702 0.20447 0.01066 0.0
H1985 H 0.43422 0.23986 0.87678 0.0
C1986 C 0.42708 0.213 0.84558 0.0
C1987 C 0.42051 0.19328 0.85155 0.0
C1988 C 0.41949 0.21889 1.00504 0.0
C1989 C 0.42608 0.21691 0.92483 0.0
C1990 C 0.41496 0.22787 0.03857 0.0
C1991 C 0.41686 0.246 0.03145 0.0
C1992 C 0.42552 0.22795 0.9637 0.0
C1993 C 0.42444 0.25536 0.99127 0.0
C1994 C 0.42988 0.22486 0.88213 0.0
C1995 C 0.41797 0.18619 0.89489 0.0
N1996 N 0.42822 0.24607 0.95843 0.0
N1997 N 0.42055 0.19793 0.92974 0.0
H1998 H 0.76596 0.18625 0.82347 0.0
H1999 H 0.76717 0.20024 0.08088 0.0
H2000 H 0.80093 0.24177 0.88505 0.0
H2001 H 0.72019 0.15252 0.01304 0.0
H2002 H 0.77864 0.21675 0.01 0.0
H2003 H 0.74798 0.17428 0.89233 0.0
C2004 C 0.76966 0.19602 0.85127 0.0
C2005 C 0.78506 0.21499 0.84859 0.0
C2006 C 0.76562 0.20282 0.01077 0.0
C2007 C 0.7647 0.20131 0.92778 0.0
C2008 C 0.75905 0.19338 0.05124 0.0
C2009 C 0.7429 0.17481 0.05283 0.0
C2010 C 0.75611 0.19348 0.97164 0.0
C2011 C 0.73287 0.1667 0.01339 0.0
C2012 C 0.75936 0.18919 0.89058 0.0
C2013 C 0.78919 0.22702 0.88567 0.0
N2014 N 0.73985 0.17592 0.97432 0.0
N2015 N 0.77928 0.21988 0.924 0.0
H2016 H 0.023 0.42108 0.1919 0.0
H2017 H 0.96279 0.44629 0.3614 0.0
H2018 H 0.01098 0.46751 0.17356 0.0
H2019 H 0.9624 0.39217 0.36517 0.0
H2020 H 0.98196 0.45479 0.29415 0.0
H2021 H 0.00103 0.40984 0.25511 0.0
C2022 C 0.01552 0.42874 0.20068 0.0
C2023 C 0.01908 0.44547 0.17789 0.0
C2024 C 0.9777 0.44105 0.30966 0.0
C2025 C -0.00573 0.43289 0.25044 0.0
C2026 C 0.96691 0.43627 0.34836 0.0
C2027 C 0.96097 0.41848 0.36894 0.0
C2028 C 0.98277 0.42805 0.2915 0.0
C2029 C 0.96667 0.40604 0.35034 0.0
C2030 C 0.00307 0.42236 0.2369 0.0
C2031 C 0.00891 0.45472 0.19056 0.0
N2032 N 0.97729 0.41106 0.31261 0.0
N2033 N -0.00284 0.44845 0.22632 0.0
H2034 H 0.59522 0.53999 0.28125 0.0
H2035 H 0.55218 0.6093 0.23775 0.0
H2036 H 0.56963 0.55814 0.38242 0.0
H2037 H 0.5599 0.57611 0.1353 0.0
H2038 H 0.56696 0.59769 0.29066 0.0
H2039 H 0.59024 0.5599 0.2277 0.0
C2040 C 0.58877 0.54834 0.29235 0.0
C2041 C 0.58257 0.54721 0.33622 0.0
C2042 C 0.56567 0.59319 0.25645 0.0
C2043 C 0.57699 0.57006 0.27522 0.0
C2044 C 0.55733 0.59988 0.22612 0.0
C2045 C 0.5545 0.5934 0.18215 0.0
C2046 C 0.57132 0.58003 0.24265 0.0
C2047 C 0.5616 0.58131 0.16898 0.0
C2048 C 0.58592 0.55967 0.26174 0.0
C2049 C 0.57439 0.55841 0.34879 0.0
N2050 N 0.56949 0.57481 0.19927 0.0
N2051 N 0.57173 0.56929 0.31834 0.0
H2052 H 0.36712 0.93445 0.24652 0.0
H2053 H 0.44293 0.04087 0.32686 0.0
H2054 H 0.41528 0.97587 0.16898 0.0
H2055 H 0.39859 -0.00138 0.41153 0.0
H2056 H 0.42932 0.01882 0.26484 0.0
H2057 H 0.37476 0.95929 0.30277 0.0
C2058 C 0.37914 0.94882 0.24103 0.0
C2059 C 0.39075 0.953 0.20327 0.0
C2060 C 0.4224 0.0144 0.29682 0.0
C2061 C 0.39961 0.9814 0.26757 0.0
C2062 C 0.43017 0.02702 0.3324 0.0
C2063 C 0.42206 0.0215 0.37477 0.0
C2064 C 0.40639 -0.00398 0.30341 0.0
C2065 C 0.40543 0.0034 0.37958 0.0
C2066 C 0.38352 0.96297 0.27322 0.0
C2067 C 0.40605 0.9719 0.19776 0.0
N2068 N 0.39825 0.99121 0.3444 0.0
N2069 N 0.41013 0.98532 0.22974 0.0
H2070 H 0.96253 0.52126 0.85975 0.0
H2071 H 0.03134 0.60961 0.70791 0.0
H2072 H 0.95906 0.5734 0.85916 0.0
H2073 H 0.01442 0.55046 0.67768 0.0
H2074 H 0.00715 0.59822 0.76684 0.0
H2075 H 0.98494 0.53369 0.79821 0.0
C2076 C 0.9666 0.53542 0.84693 0.0
C2077 C 0.95882 0.54628 0.86448 0.0
C2078 C 0.00865 0.58779 0.7469 0.0
C2079 C 0.98448 0.56055 0.79372 0.0
C2080 C 0.02241 0.59424 0.71329 0.0
C2081 C 0.02508 0.58095 0.68827 0.0
C2082 C -0.00226 0.56798 0.75572 0.0
C2083 C 0.01303 0.56123 0.69645 0.0
C2084 C 0.97927 0.54243 0.81149 0.0
C2085 C 0.96467 0.56454 0.84643 0.0
N2086 N 6e-05 0.55536 0.72985 0.0
N2087 N 0.97723 0.57117 0.81195 0.0
H2088 H 0.39146 0.403 0.64221 0.0
H2089 H 0.42176 0.41404 0.89641 0.0
H2090 H 0.39166 0.44535 0.73118 0.0
H2091 H 0.42379 0.37258 0.80833 0.0
H2092 H 0.40545 0.42182 0.83909 0.0
H2093 H 0.39833 0.3881 0.705 0.0
C2094 C 0.39273 0.40903 0.67493 0.0
C2095 C 0.39124 0.42561 0.68128 0.0
C2096 C 0.40923 0.41084 0.83244 0.0
C2097 C 0.39915 0.40871 0.75313 0.0
C2098 C 0.4185 0.40634 0.86527 0.0
C2099 C 0.42445 0.39287 0.85691 0.0
C2100 C 0.40597 0.4019 0.79082 0.0
C2101 C 0.41968 0.38325 0.81603 0.0
C2102 C 0.39666 0.40053 0.71076 0.0
C2103 C 0.39291 0.43273 0.72451 0.0
N2104 N 0.41096 0.38814 0.78426 0.0
N2105 N 0.39695 0.42437 0.7586 0.0
H2106 H 0.56403 0.00943 0.89365 0.0
H2107 H 0.57504 0.97532 0.6529 0.0
H2108 H 0.61429 0.04387 0.81347 0.0
H2109 H 0.52067 0.96012 0.71401 0.0
H2110 H 0.59161 -0.00313 0.71563 0.0
H2111 H 0.55024 0.98632 0.83315 0.0
C2112 C 0.57236 0.01195 0.86368 0.0
C2113 C 0.59026 0.02875 0.85839 0.0
C2114 C 0.57605 0.98882 0.715 0.0
C2115 C 0.57443 0.00242 0.78894 0.0
C2116 C 0.56661 0.97661 0.67926 0.0
C2117 C 0.54646 0.96598 0.67814 0.0
C2118 C 0.56522 0.98998 0.7501 0.0
C2119 C 0.53622 0.96813 0.71323 0.0
C2120 C 0.56438 -0.00116 0.82901 0.0
C2121 C 0.60037 0.0312 0.81874 0.0
N2122 N 0.54571 0.97974 0.7479 0.0
N2123 N 0.59225 0.01823 0.78529 0.0
H2124 H 0.63542 0.73973 0.72212 0.0
H2125 H 0.6698 0.78257 0.48189 0.0
H2126 H 0.59628 0.72445 0.61216 0.0
H2127 H 0.70839 0.78346 0.58213 0.0
H2128 H 0.64252 0.76047 0.52813 0.0
H2129 H 0.66237 0.75457 0.67055 0.0
C2130 C 0.63248 0.7392 0.68706 0.0
C2131 C 0.61357 0.73106 0.67149 0.0
C2132 C 0.65698 0.76538 0.53975 0.0
C2133 C 0.64436 0.74834 0.61234 0.0
C2134 C 0.67253 0.77808 0.51349 0.0
C2135 C 0.69138 0.78506 0.52842 0.0
C2136 C 0.66035 0.75988 0.58137 0.0
C2137 C 0.6941 0.77859 0.56943 0.0
C2138 C 0.64788 0.74771 0.65761 0.0
C2139 C 0.61063 0.73071 0.62567 0.0
N2140 N 0.67878 0.76655 0.59465 0.0
N2141 N 0.62587 0.73953 0.59775 0.0
H2142 H 0.27387 0.90467 0.67748 0.0
H2143 H 0.18813 0.88086 0.51297 0.0
H2144 H 0.2151 0.86027 0.70089 0.0
H2145 H 0.2349 0.9394 0.52702 0.0
H2146 H 0.20153 0.87112 0.57305 0.0
H2147 H 0.26282 0.91645 0.61539 0.0
C2148 C 0.25869 0.89751 0.66985 0.0
C2149 C 0.24541 0.88137 0.69421 0.0
C2150 C 0.2089 0.88609 0.56284 0.0
C2151 C 0.2329 0.89439 0.62304 0.0
C2152 C 0.20134 0.89165 0.52833 0.0
C2153 C 0.21027 0.91104 0.51529 0.0
C2154 C 0.22564 0.89991 0.58422 0.0
C2155 C 0.22746 0.92433 0.53631 0.0
C2156 C 0.25244 0.90421 0.63447 0.0
C2157 C 0.22589 0.87268 0.68301 0.0
N2158 N 0.23461 0.91853 0.56995 0.0
N2159 N 0.22028 0.87914 0.64793 0.0
H2160 H 0.12195 0.37683 0.65354 0.0
H2161 H 0.03223 0.27669 0.58037 0.0
H2162 H 0.0723 0.3445 0.73693 0.0
H2163 H 0.07879 0.31361 0.4931 0.0
H2164 H 0.04515 0.3022 0.63625 0.0
H2165 H 0.10526 0.35455 0.59324 0.0
C2166 C 0.10748 0.36507 0.65918 0.0
C2167 C 0.09858 0.36246 0.70057 0.0
C2168 C 0.05239 0.30481 0.60466 0.0
C2169 C 0.07931 0.33677 0.63128 0.0
C2170 C 0.04499 0.29026 0.57267 0.0
C2171 C 0.05455 0.29292 0.53215 0.0
C2172 C 0.06956 0.32206 0.59619 0.0
C2173 C 0.07098 0.31085 0.52393 0.0
C2174 C 0.09791 0.35237 0.62457 0.0
C2175 C 0.07975 0.34701 0.70567 0.0
N2176 N 0.07809 0.32461 0.55588 0.0
N2177 N 0.07079 0.33464 0.67152 0.0
H2178 H 0.69184 0.94381 0.0429 0.0
H2179 H 0.63579 0.85919 0.21765 0.0
H2180 H 0.69092 0.88939 0.04068 0.0
H2181 H 0.61789 0.90068 0.18881 0.0
H2182 H 0.66094 0.8743 0.16191 0.0
H2183 H 0.66852 0.93163 0.10407 0.0
C2184 C 0.68674 0.92935 0.05515 0.0
C2185 C 0.69336 0.91762 0.03671 0.0
C2186 C 0.65156 0.88016 0.16797 0.0
C2187 C 0.66715 0.90386 0.10668 0.0
C2188 C 0.63728 0.87162 0.19997 0.0
C2189 C 0.62458 0.87854 0.20749 0.0
C2190 C 0.65329 0.89584 0.14354 0.0
C2191 C 0.62728 0.89477 0.1837 0.0
C2192 C 0.67349 0.92245 0.08998 0.0
C2193 C 0.68626 0.89898 0.0538 0.0
N2194 N 0.64132 0.90286 0.15254 0.0
N2195 N 0.67365 0.89275 0.08792 0.0
H2196 H 0.07863 0.71795 0.20094 0.0
H2197 H 0.1022 0.79786 0.01701 0.0
H2198 H 0.13051 0.77355 0.2004 0.0
H2199 H 0.04405 0.75393 0.04793 0.0
H2200 H 0.1137 0.78633 0.07791 0.0
H2201 H 0.06623 0.72871 0.13994 0.0
C2202 C 0.08732 0.73246 0.1883 0.0
C2203 C 0.10561 0.74487 0.20579 0.0
C2204 C 0.09843 0.77921 0.07129 0.0
C2205 C 0.09173 0.75705 0.13561 0.0
C2206 C 0.09186 0.78568 0.03634 0.0
C2207 C 0.07211 0.77692 0.0276 0.0
C2208 C 0.0852 0.76374 0.09735 0.0
C2209 C 0.05938 0.76118 0.05373 0.0
C2210 C 0.08026 0.73856 0.15348 0.0
C2211 C 0.11629 0.76352 0.18811 0.0
N2212 N 0.06614 0.75507 0.08748 0.0
N2213 N 0.10926 0.76896 0.15371 0.0
H2214 H 0.19195 0.3003 0.02244 0.0
H2215 H 0.28078 0.36879 0.16856 0.0
H2216 H 0.23956 0.28955 0.02672 0.0
H2217 H 0.22201 0.34578 0.21156 0.0
H2218 H 0.26928 0.34483 0.10835 0.0
H2219 H 0.20673 0.32377 0.08145 0.0
C2220 C 0.20564 0.303 0.03538 0.0
C2221 C 0.21439 0.29268 0.02001 0.0
C2222 C 0.25906 0.34501 0.13148 0.0
C2223 C 0.23135 0.31969 0.08765 0.0
C2224 C 0.26555 0.35859 0.16574 0.0
C2225 C 0.25232 0.35942 0.19483 0.0
C2226 C 0.23926 0.33263 0.12603 0.0
C2227 C 0.23276 0.34582 0.18982 0.0
C2228 C 0.21397 0.31633 0.06929 0.0
C2229 C 0.23224 0.29705 0.03796 0.0
N2230 N 0.22682 0.33323 0.15562 0.0
N2231 N 0.2402 0.31028 0.0711 0.0
H2232 H 0.30319 0.0545 0.0662 0.0
H2233 H 0.33909 0.10104 0.82792 0.0
H2234 H 0.28476 0.09025 1.00016 0.0
H2235 H 0.37634 0.09244 0.91615 0.0
H2236 H 0.314 0.08793 0.88404 0.0
H2237 H 0.32592 0.06066 1.00531 0.0
C2238 C 0.30392 0.0636 0.03898 0.0
C2239 C 0.29219 0.07199 0.03832 0.0
C2240 C 0.3276 0.0887 0.89085 0.0
C2241 C 0.31758 0.07858 0.96871 0.0
C2242 C 0.34191 0.09607 0.85877 0.0
C2243 C 0.36001 0.09822 0.86774 0.0
C2244 C 0.33131 0.08326 0.93204 0.0
C2245 C 0.36269 0.0913 0.90817 0.0
C2246 C 0.31682 0.06706 1.00439 0.0
C2247 C 0.29363 0.08362 1.00225 0.0
N2248 N 0.34852 0.08429 0.93919 0.0
N2249 N 0.30602 0.08649 0.96883 0.0
H2250 H 0.89198 0.27383 0.87583 0.0
H2251 H 0.87958 0.18433 0.01357 0.0
H2252 H 0.85786 0.21476 0.83217 0.0
H2253 H 0.92898 0.24104 0.0318 0.0
H2254 H 0.86999 0.19627 0.95055 0.0
H2255 H 0.90518 0.2631 0.93505 0.0
C2256 C 0.88744 0.25865 0.87833 0.0
C2257 C 0.87359 0.24512 0.8494 0.0
C2258 C 0.88295 0.20613 0.96824 0.0
C2259 C 0.8884 0.23283 0.91722 0.0
C2260 C 0.88836 0.19937 1.00456 0.0
C2261 C 0.90514 0.21172 0.02804 0.0
C2262 C 0.8942 0.22546 0.95545 0.0
C2263 C 0.91595 0.23104 0.01456 0.0
C2264 C 0.89498 0.25257 0.91213 0.0
C2265 C 0.86835 0.22567 0.85395 0.0
N2266 N 0.91025 0.23738 0.97914 0.0
N2267 N 0.87558 0.22009 0.88762 0.0
H2268 H 0.71478 0.64135 0.83628 0.0
H2269 H 0.774 0.67822 0.06217 0.0
H2270 H 0.74745 0.61743 0.89389 0.0
H2271 H 0.75196 0.71005 0.99225 0.0
H2272 H 0.75988 0.65297 0.00618 0.0
H2273 H 0.72444 0.66421 0.89798 0.0
C2274 C 0.72392 0.64086 0.8619 0.0
C2275 C 0.73036 0.6275 0.85983 0.0
C2276 C 0.75799 0.6654 1.00326 0.0
C2277 C 0.74132 0.65345 0.93043 0.0
C2278 C 0.76595 0.67978 0.03539 0.0
C2279 C 0.7643 0.69636 0.03167 0.0
C2280 C 0.74824 0.66755 0.96722 0.0
C2281 C 0.75371 0.69757 0.99622 0.0
C2282 C 0.72942 0.6539 0.89706 0.0
C2283 C 0.74217 0.6275 0.89397 0.0
N2284 N 0.74617 0.68341 0.96516 0.0
N2285 N 0.74726 0.64027 0.92779 0.0
H2286 H 0.37151 0.29072 0.39131 0.0
H2287 H 0.29565 0.20061 0.52366 0.0
H2288 H 0.3443 0.23248 0.34047 0.0
H2289 H 0.29131 0.25225 0.52994 0.0
H2290 H 0.31954 0.2152 0.46577 0.0
H2291 H 0.34655 0.27973 0.44912 0.0
C2292 C 0.36021 0.27576 0.39186 0.0
C2293 C 0.36019 0.26243 0.36149 0.0
C2294 C 0.31334 0.22334 0.47978 0.0
C2295 C 0.33219 0.24993 0.42738 0.0
C2296 C 0.29974 0.21508 0.51302 0.0
C2297 C 0.2912 0.2251 0.53123 0.0
C2298 C 0.31869 0.24188 0.46471 0.0
C2299 C 0.29742 0.24397 0.51643 0.0
C2300 C 0.34605 0.26956 0.42475 0.0
C2301 C 0.34513 0.24325 0.36348 0.0
N2302 N 0.31087 0.25182 0.48375 0.0
N2303 N 0.33197 0.23754 0.3963 0.0
H2304 H 0.73995 0.06121 0.57081 0.0
H2305 H 0.75302 0.10503 0.32796 0.0
H2306 H 0.79471 0.09647 0.50683 0.0
H2307 H 0.70291 0.09056 0.40752 0.0
H2308 H 0.76581 0.09456 0.38805 0.0
H2309 H 0.72399 0.06603 0.50694 0.0
C2310 C 0.74861 0.07003 0.54353 0.0
C2311 C 0.7687 0.07856 0.54428 0.0
C2312 C 0.75193 0.09351 0.39217 0.0
C2313 C 0.75056 0.08365 0.47106 0.0
C2314 C 0.74453 0.09934 0.35775 0.0
C2315 C 0.72702 0.09903 0.36305 0.0
C2316 C 0.74172 0.08719 0.43207 0.0
C2317 C 0.71659 0.09131 0.40229 0.0
C2318 C 0.73949 0.07269 0.50712 0.0
C2319 C 0.77921 0.08975 0.50793 0.0
N2320 N 0.7242 0.08586 0.43559 0.0
N2321 N 0.77001 0.09187 0.47276 0.0
H2322 H 0.93754 0.71033 0.47733 0.0
H2323 H 0.85437 0.60737 0.39556 0.0
H2324 H 0.88489 0.67461 0.54883 0.0
H2325 H 0.9039 0.64448 0.31579 0.0
H2326 H 0.86808 0.62989 0.4566 0.0
H2327 H 0.92814 0.68448 0.42299 0.0
C2328 C 0.9241 0.69699 0.48187 0.0
C2329 C 0.91184 0.69473 0.51735 0.0
C2330 C 0.8761 0.63306 0.42597 0.0
C2331 C 0.90103 0.66518 0.45527 0.0
C2332 C 0.86829 0.62016 0.39097 0.0
C2333 C 0.87792 0.62413 0.3502 0.0
C2334 C 0.8937 0.65015 0.42041 0.0
C2335 C 0.89592 0.64092 0.3465 0.0
C2336 C 0.91875 0.68227 0.45079 0.0
C2337 C 0.8947 0.67708 0.52177 0.0
N2338 N 0.90317 0.65344 0.3811 0.0
N2339 N 0.88974 0.66307 0.49088 0.0
H2340 H 0.02208 0.47102 0.05587 0.0
H2341 H 0.96231 0.52008 0.97904 0.0
H2342 H 0.04844 0.52816 1.00061 0.0
H2343 H 0.93695 0.46042 0.01644 0.0
H2344 H -0.00605 0.52288 0.97934 0.0
H2345 H -0.00947 0.46761 0.04428 0.0
C2346 C 0.02118 0.48324 0.04357 0.0
C2347 C 0.03767 0.50002 0.0299 0.0
C2348 C 0.98143 0.50899 0.98608 0.0
C2349 C 0.0019 0.49585 0.01364 0.0
C2350 C 0.96334 0.50726 0.98462 0.0
C2351 C 0.94725 0.49002 0.99805 0.0
C2352 C 0.98312 0.49336 1.00137 0.0
C2353 C 0.9492 0.47394 0.00616 0.0
C2354 C 0.0032 0.48108 0.0355 0.0
C2355 C 0.0359 0.51516 0.01218 0.0
N2356 N 0.96698 0.47611 0.00889 0.0
N2357 N 0.01822 0.51265 1.004 0.0
H2358 H 0.51789 0.54251 0.95332 0.0
H2359 H 0.484 0.45348 0.11133 0.0
H2360 H 0.50507 0.54453 0.09141 0.0
H2361 H 0.50163 0.45551 0.97546 0.0
H2362 H 0.4974 0.48831 0.11003 0.0
H2363 H 0.51669 0.51226 0.96543 0.0
C2364 C 0.51503 0.53667 0.98652 0.0
C2365 C 0.51147 0.54599 0.02146 0.0
C2366 C 0.49864 0.48117 0.08082 0.0
C2367 C 0.51001 0.51102 0.03555 0.0
C2368 C 0.491 0.46128 0.08143 0.0
C2369 C 0.49102 0.45154 0.04276 0.0
C2370 C 0.5063 0.49121 0.04129 0.0
C2371 C 0.50073 0.46238 0.00552 0.0
C2372 C 0.51441 0.51934 0.99343 0.0
C2373 C 0.50765 0.53761 0.06354 0.0
N2374 N 0.50769 0.48164 0.00549 0.0
N2375 N 0.50685 0.52038 0.06942 0.0
H2376 H 0.5498 0.00482 0.01252 0.0
H2377 H 0.449 0.98893 0.05485 0.0
H2378 H 0.53443 0.04799 0.98255 0.0
H2379 H 0.4548 0.94027 0.01546 0.0
H2380 H 0.48171 0.0106 0.03012 0.0
H2381 H 0.51597 0.9799 0.00703 0.0
C2382 C 0.53932 0.00887 1.00286 0.0
C2383 C 0.54455 0.0283 0.99895 0.0
C2384 C 0.47581 -0.00481 0.02643 0.0
C2385 C 0.50634 0.00041 0.99448 0.0
C2386 C 0.45738 0.9829 0.04133 0.0
C2387 C 0.44954 0.963 0.03726 0.0
C2388 C 0.48642 0.98745 0.00747 0.0
C2389 C 0.46069 0.95564 0.01966 0.0
C2390 C 0.5201 -0.00527 0.99996 0.0
C2391 C 0.53077 0.03308 0.98613 0.0
N2392 N 0.47879 0.96797 1.00531 0.0
N2393 N 0.51204 0.0192 0.98578 0.0
H2394 H 0.51779 0.97252 0.55779 0.0
H2395 H 0.43622 -0.001 0.51178 0.0
H2396 H 0.45808 0.9296 0.54311 0.0
H2397 H 0.49702 0.03984 0.51081 0.0
H2398 H 0.44319 0.97313 0.52715 0.0
H2399 H 0.50936 -0.00222 0.55284 0.0
C2400 C 0.50279 0.96851 0.55537 0.0
C2401 C 0.48854 0.94922 0.55067 0.0
C2402 C 0.455 0.9877 0.52283 0.0
C2403 C 0.47891 0.97766 0.54241 0.0
C2404 C 0.45104 0.00232 0.51322 0.0
C2405 C 0.4661 0.02137 0.5096 0.0
C2406 C 0.47413 0.99238 0.52928 0.0
C2407 C 0.48506 0.02522 0.51246 0.0
C2408 C 0.49801 0.98285 0.55163 0.0
C2409 C 0.46934 0.94446 0.5471 0.0
N2410 N 0.48854 0.01083 0.52276 0.0
N2411 N 0.46506 0.95871 0.54204 0.0
H2412 H 0.93661 0.47047 0.54133 0.0
H2413 H 0.05049 0.5254 0.51604 0.0
H2414 H 0.96798 0.44218 0.50262 0.0
H2415 H 0.01896 0.5514 0.56872 0.0
H2416 H 0.02076 0.4943 0.51338 0.0
H2417 H 0.96679 0.50113 0.54503 0.0
C2418 C 0.94983 0.47098 0.53149 0.0
C2419 C 0.95004 0.45407 0.52136 0.0
C2420 C 0.02039 0.50668 0.52665 0.0
C2421 C 0.98446 0.48845 0.52816 0.0
C2422 C 0.03742 0.52426 0.52926 0.0
C2423 C 0.03699 0.54072 0.54291 0.0
C2424 C 0.00299 0.50587 0.53729 0.0
C2425 C 0.01974 0.53883 0.55858 0.0
C2426 C 0.96708 0.48831 0.53479 0.0
C2427 C 0.96743 0.45514 0.51004 0.0
N2428 N 0.00325 0.52172 0.55446 0.0
N2429 N 0.9841 0.47207 0.51447 0.0
H2430 H 0.52384 0.47384 0.51299 0.0
H2431 H 0.44364 0.49969 0.58054 0.0
H2432 H 0.5311 0.53102 0.51198 0.0
H2433 H 0.42947 0.4426 0.53788 0.0
H2434 H 0.4776 0.50972 0.57549 0.0
H2435 H 0.49017 0.4608 0.53434 0.0
C2436 C 0.51816 0.48354 0.51591 0.0
C2437 C 0.53005 0.50349 0.51056 0.0
C2438 C 0.46704 0.49487 0.5682 0.0
C2439 C 0.49224 0.48891 0.53684 0.0
C2440 C 0.44766 0.48905 0.57187 0.0
C2441 C 0.4339 0.47047 0.55832 0.0
C2442 C 0.47244 0.48193 0.55128 0.0
C2443 C 0.43983 0.45721 0.54758 0.0
C2444 C 0.49913 0.47616 0.52893 0.0
C2445 C 0.52225 0.51555 0.51586 0.0
N2446 N 0.4588 0.46332 0.54325 0.0
N2447 N 0.50382 0.50808 0.5291 0.0
H2448 H 0.60109 0.79365 0.36896 0.0
H2449 H 0.71353 0.86663 0.34774 0.0
H2450 H 0.62574 0.85201 0.32214 0.0
H2451 H 0.68937 0.80805 0.39277 0.0
H2452 H 0.68117 0.86183 0.34061 0.0
H2453 H 0.6332 0.79748 0.37162 0.0
C2454 C 0.6132 0.80687 0.35669 0.0
C2455 C 0.61093 0.82247 0.34475 0.0
C2456 C 0.68292 0.85013 0.35306 0.0
C2457 C 0.64749 0.82744 0.35036 0.0
C2458 C 0.70137 0.85307 0.35829 0.0
C2459 C 0.70391 0.83781 0.3716 0.0
C2460 C 0.66709 0.8317 0.36071 0.0
C2461 C 0.68784 0.82028 0.38359 0.0
C2462 C 0.63154 0.80926 0.35938 0.0
C2463 C 0.62695 0.83951 0.3303 0.0
N2464 N 0.66999 0.81755 0.37711 0.0
N2465 N 0.6447 0.84173 0.33447 0.0
H2466 H 0.19334 0.88198 0.38588 0.0
H2467 H 0.12312 0.77076 0.33775 0.0
H2468 H 0.13213 0.85622 0.36981 0.0
H2469 H 0.18183 0.7934 0.37874 0.0
H2470 H 0.1273 0.80307 0.34294 0.0
H2471 H 0.18987 0.84987 0.38591 0.0
C2472 C 0.17908 0.86941 0.3843 0.0
C2473 C 0.16296 0.87142 0.37782 0.0
C2474 C 0.13939 0.80107 0.3502 0.0
C2475 C 0.15898 0.83516 0.37522 0.0
C2476 C 0.13711 0.78279 0.3462 0.0
C2477 C 0.15223 0.77976 0.35757 0.0
C2478 C 0.15684 0.81619 0.36612 0.0
C2479 C 0.17 0.79546 0.36916 0.0
C2480 C 0.17713 0.85119 0.38347 0.0
C2481 C 0.1448 0.85502 0.37528 0.0
N2482 N 0.17179 0.81312 0.37379 0.0
N2483 N 0.14331 0.83743 0.37299 0.0
H2484 H 0.20726 0.33822 0.3119 0.0
H2485 H 0.10885 0.31765 0.41781 0.0
H2486 H 0.19439 0.38231 0.35105 0.0
H2487 H 0.1146 0.27353 0.34936 0.0
H2488 H 0.14193 0.34105 0.39851 0.0
H2489 H 0.17337 0.31395 0.32091 0.0
C2490 C 0.19703 0.34281 0.32022 0.0
C2491 C 0.20331 0.36203 0.33111 0.0
C2492 C 0.13607 0.32622 0.38805 0.0
C2493 C 0.16532 0.33471 0.34385 0.0
C2494 C 0.11745 0.31285 0.40009 0.0
C2495 C 0.10935 0.29389 0.38511 0.0
C2496 C 0.14637 0.32045 0.36053 0.0
C2497 C 0.12068 0.28813 0.36173 0.0
C2498 C 0.17785 0.329 0.32619 0.0
C2499 C 0.18987 0.36754 0.34214 0.0
N2500 N 0.1387 0.30153 0.34939 0.0
N2501 N 0.17143 0.35379 0.34945 0.0
H2502 H 0.1925 0.3114 0.90218 0.0
H2503 H 0.1194 0.34148 0.80482 0.0
H2504 H 0.1334 0.27115 0.87057 0.0
H2505 H 0.17678 0.38259 0.84708 0.0
H2506 H 0.12587 0.31535 0.81998 0.0
H2507 H 0.18728 0.33803 0.88295 0.0
C2508 C 0.17821 0.30831 0.89304 0.0
C2509 C 0.16332 0.2893 0.88787 0.0
C2510 C 0.13721 0.3301 0.82506 0.0
C2511 C 0.15754 0.3192 0.86333 0.0
C2512 C 0.13367 0.34495 0.81537 0.0
C2513 C 0.14758 0.36395 0.82512 0.0
C2514 C 0.1547 0.33451 0.84495 0.0
C2515 C 0.16578 0.36799 0.83909 0.0
C2516 C 0.17533 0.3234 0.88104 0.0
C2517 C 0.14512 0.28575 0.87534 0.0
N2518 N 0.16872 0.35326 0.84969 0.0
N2519 N 0.1428 0.30064 0.8625 0.0
H2520 H 0.66905 0.87339 0.91736 0.0
H2521 H 0.64648 0.77473 0.8049 0.0
H2522 H 0.71284 0.86532 0.85518 0.0
H2523 H 0.60331 0.78888 0.84336 0.0
H2524 H 0.67138 0.80793 0.82017 0.0
H2525 H 0.64505 0.84058 0.89679 0.0
C2526 C 0.67364 0.86431 0.90095 0.0
C2527 C 0.69272 0.87178 0.88774 0.0
C2528 C 0.65644 0.80391 0.8242 0.0
C2529 C 0.66554 0.83503 0.86194 0.0
C2530 C 0.64229 0.78515 0.81457 0.0
C2531 C 0.62305 0.77929 0.8234 0.0
C2532 C 0.65109 0.81651 0.84325 0.0
C2533 C 0.61809 0.79302 0.83618 0.0
C2534 C 0.65995 0.84584 0.8882 0.0
C2535 C 0.69817 0.85981 0.86612 0.0
N2536 N 0.63215 0.81101 0.84695 0.0
N2537 N 0.68449 0.84198 0.85304 0.0
H2538 H 0.10214 0.79284 0.89961 0.0
H2539 H 0.20769 0.86571 0.82712 0.0
H2540 H 0.12345 0.85315 0.8751 0.0
H2541 H 0.19288 0.81119 0.8869 0.0
H2542 H 0.17593 0.86046 0.8455 0.0
H2543 H 0.13515 0.79928 0.90503 0.0
C2544 C 0.11386 0.80761 0.89789 0.0
C2545 C 0.11038 0.82252 0.88637 0.0
C2546 C 0.17952 0.84956 0.85455 0.0
C2547 C 0.14767 0.82979 0.8902 0.0
C2548 C 0.19741 0.85236 0.84308 0.0
C2549 C 0.2025 0.83869 0.855 0.0
C2550 C 0.16674 0.83299 0.87829 0.0
C2551 C 0.18908 0.82178 0.87641 0.0
C2552 C 0.13264 0.81124 0.90022 0.0
C2553 C 0.12574 0.84136 0.88405 0.0
N2554 N 0.17167 0.81939 0.88765 0.0
N2555 N 0.14388 0.84443 0.8846 0.0
H2556 H 0.28629 0.16998 0.60954 0.0
H2557 H 0.35739 0.15242 0.75429 0.0
H2558 H 0.2708 0.13824 0.73209 0.0
H2559 H 0.36652 0.16263 0.61377 0.0
H2560 H 0.32711 0.15217 0.74721 0.0
H2561 H 0.31573 0.16812 0.60717 0.0
C2562 C 0.28867 0.16183 0.63482 0.0
C2563 C 0.27663 0.15475 0.67187 0.0
C2564 C 0.3358 0.15452 0.71796 0.0
C2565 C 0.31011 0.15324 0.67017 0.0
C2566 C 0.35326 0.15509 0.72216 0.0
C2567 C 0.36408 0.15694 0.68434 0.0
C2568 C 0.32937 0.15598 0.67582 0.0
C2569 C 0.35823 0.16064 0.64356 0.0
C2570 C 0.3056 0.1611 0.63387 0.0
C2571 C 0.28014 0.14427 0.70365 0.0
N2572 N 0.34101 0.15974 0.64016 0.0
N2573 N 0.29693 0.14426 0.70275 0.0
H2574 H 0.79244 0.18753 0.67597 0.0
H2575 H 0.84843 0.12957 0.69428 0.0
H2576 H 0.84846 0.21002 0.73426 0.0
H2577 H 0.78764 0.1014 0.66855 0.0
H2578 H 0.84935 0.16049 0.69846 0.0
H2579 H 0.78947 0.15563 0.67197 0.0
C2580 C 0.80362 0.18542 0.6902 0.0
C2581 C 0.82068 0.20113 0.70548 0.0
C2582 C 0.83586 0.1476 0.69105 0.0
C2583 C 0.81803 0.16551 0.69856 0.0
C2584 C 0.83548 0.13012 0.68742 0.0
C2585 C 0.81797 0.11323 0.68094 0.0
C2586 C 0.81855 0.14788 0.68837 0.0
C2587 C 0.80141 0.11436 0.6733 0.0
C2588 C 0.80218 0.16742 0.68686 0.0
C2589 C 0.83505 0.19805 0.72258 0.0
N2590 N 0.802 0.13147 0.67795 0.0
N2591 N 0.83361 0.18059 0.71769 0.0
H2592 H 0.85737 0.7149 0.67867 0.0
H2593 H 0.77953 0.60337 0.69658 0.0
H2594 H 0.87029 0.66957 0.65316 0.0
H2595 H 0.76996 0.64944 0.73826 0.0
H2596 H 0.81287 0.62704 0.67972 0.0
H2597 H 0.82391 0.69067 0.6916 0.0
C2598 C 0.8529 0.69982 0.67363 0.0
C2599 C 0.86636 0.69403 0.66496 0.0
C2600 C 0.80359 0.63195 0.69342 0.0
C2601 C 0.82868 0.66642 0.68191 0.0
C2602 C 0.78475 0.61842 0.70407 0.0
C2603 C 0.77226 0.62465 0.71901 0.0
C2604 C 0.80967 0.65165 0.69749 0.0
C2605 C 0.77937 0.64427 0.72683 0.0
C2606 C 0.83395 0.686 0.6822 0.0
C2607 C 0.86012 0.6744 0.6599 0.0
N2608 N 0.79763 0.65719 0.71535 0.0
N2609 N 0.84167 0.66117 0.66924 0.0
H2610 H 0.80917 0.6132 0.22974 0.0
H2611 H 0.8474 0.72366 0.22121 0.0
H2612 H 0.8708 0.6497 0.23234 0.0
H2613 H 0.80472 0.68164 0.13365 0.0
H2614 H 0.85686 0.69986 0.24229 0.0
H2615 H 0.80601 0.64175 0.22159 0.0
C2616 C 0.82199 0.6273 0.23099 0.0
C2617 C 0.84028 0.62928 0.23075 0.0
C2618 C 0.84587 0.69618 0.21748 0.0
C2619 C 0.8368 0.66152 0.21985 0.0
C2620 C 0.84077 0.70976 0.20481 0.0
C2621 C 0.82526 0.70428 0.17598 0.0
C2622 C 0.83501 0.67732 0.20148 0.0
C2623 C 0.81673 0.68618 0.15604 0.0
C2624 C 0.82021 0.6435 0.22536 0.0
C2625 C 0.85649 0.64782 0.23188 0.0
N2626 N 0.82139 0.67305 0.17008 0.0
N2627 N 0.85444 0.66344 0.22519 0.0
H2628 H 0.35224 0.20636 0.2451 0.0
H2629 H 0.30158 0.10679 0.13393 0.0
H2630 H 0.3785 0.20077 0.1256 0.0
H2631 H 0.2706 0.13499 0.17643 0.0
H2632 H 0.33117 0.13823 0.13073 0.0
H2633 H 0.32367 0.17528 0.229 0.0
C2634 C 0.35223 0.19823 0.21639 0.0
C2635 C 0.3675 0.206 0.18638 0.0
C2636 C 0.31772 0.13755 0.13898 0.0
C2637 C 0.33506 0.17117 0.1673 0.0
C2638 C 0.30085 0.11976 0.13991 0.0
C2639 C 0.2839 0.11857 0.15577 0.0
C2640 C 0.31732 0.15375 0.15504 0.0
C2641 C 0.28353 0.13553 0.16412 0.0
C2642 C 0.33585 0.18083 0.20668 0.0
C2643 C 0.36681 0.19511 0.14926 0.0
N2644 N 0.30025 0.15251 0.16532 0.0
N2645 N 0.35068 0.17813 0.14047 0.0
H2646 H 0.87517 0.19763 0.17355 0.0
H2647 H 0.76609 0.11522 0.20677 0.0
H2648 H 0.85724 0.13732 0.18505 0.0
H2649 H 0.78471 0.17585 0.20234 0.0
H2650 H 0.79951 0.12292 0.20079 0.0
H2651 H 0.84166 0.18964 0.17885 0.0
C2652 C 0.864 0.18263 0.17573 0.0
C2653 C 0.8687 0.16805 0.1785 0.0
C2654 C 0.79636 0.13459 0.20179 0.0
C2655 C 0.83072 0.15887 0.18682 0.0
C2656 C 0.77739 0.1302 0.20595 0.0
C2657 C 0.77293 0.14498 0.20536 0.0
C2658 C 0.81078 0.15387 0.19617 0.0
C2659 C 0.78778 0.16414 0.20357 0.0
C2660 C 0.84498 0.17809 0.17951 0.0
C2661 C 0.85399 0.14886 0.18194 0.0
N2662 N 0.80615 0.16807 0.19835 0.0
N2663 N 0.83556 0.14481 0.18666 0.0
loop_
_geom_bond_atom_site_label_1
_geom_bond_atom_site_label_2
_geom_bond_distance
_geom_bond_site_symmetry_2
_ccdc_geom_bond_type
Zn0 O6 1.969 . S
Zn0 O7 1.965 . S
Zn0 O11 2.024 . S
Zn0 O16 1.969 . S
Zn1 O8 1.969 . S
Zn1 O14 1.969 . S
Zn1 O15 1.965 . S
Zn1 O17 2.024 . S
C2 O3 1.229 . S
C2 O11 1.058 . S
O3 C2 1.229 . S
C4 O5 1.229 . S
C4 O17 1.058 . S
O5 C4 1.229 . S
O6 Zn0 1.969 . S
O6 C9 1.267 . S
O7 Zn0 1.965 . S
O7 C18 1.260 1_556 S
O8 Zn1 1.969 . S
O8 C18 1.258 . S
C9 O6 1.267 . S
C9 O10 1.228 . S
O10 C9 1.228 . S
O11 Zn0 2.024 . S
O11 C2 1.058 . S
C12 O13 1.228 . S
C12 O14 1.267 . S
O13 C12 1.228 . S
O14 Zn1 1.969 . S
O14 C12 1.267 . S
O15 Zn1 1.965 . S
O15 C19 1.260 . S
O16 Zn0 1.969 . S
O16 C19 1.258 1_556 S
O17 Zn1 2.024 . S
O17 C4 1.058 . S
C18 O7 1.260 1_554 S
C18 O8 1.258 . S
C19 O15 1.260 . S
C19 O16 1.258 1_554 S
Zn20 O26 1.969 . S
Zn20 O27 1.965 . S
Zn20 O31 2.024 . S
Zn20 O36 1.969 . S
Zn21 O28 1.969 . S
Zn21 O34 1.969 . S
Zn21 O35 1.965 . S
Zn21 O37 2.024 . S
C22 O23 1.229 . S
C22 O31 1.058 . S
O23 C22 1.229 . S
C24 O25 1.229 . S
C24 O37 1.058 . S
O25 C24 1.229 . S
O26 Zn20 1.969 . S
O26 C29 1.267 . S
O27 Zn20 1.965 . S
O27 C38 1.260 1_556 S
O28 Zn21 1.969 . S
O28 C38 1.258 . S
C29 O26 1.267 . S
C29 O30 1.228 . S
O30 C29 1.228 . S
O31 Zn20 2.024 . S
O31 C22 1.058 . S
C32 O33 1.228 . S
C32 O34 1.267 . S
O33 C32 1.228 . S
O34 Zn21 1.969 . S
O34 C32 1.267 . S
O35 Zn21 1.965 . S
O35 C39 1.260 . S
O36 Zn20 1.969 . S
O36 C39 1.258 1_556 S
O37 Zn21 2.024 . S
O37 C24 1.058 . S
C38 O27 1.260 1_554 S
C38 O28 1.258 . S
C39 O35 1.260 . S
C39 O36 1.258 1_554 S
Zn40 O46 1.969 . S
Zn40 O47 1.965 . S
Zn40 O51 2.024 . S
Zn40 O56 1.969 . S
Zn41 O48 1.969 . S
Zn41 O54 1.969 . S
Zn41 O55 1.965 . S
Zn41 O57 2.024 . S
C42 O43 1.229 . S
C42 O51 1.058 . S
O43 C42 1.229 . S
C44 O45 1.229 . S
C44 O57 1.058 . S
O45 C44 1.229 . S
O46 Zn40 1.969 . S
O46 C49 1.267 . S
O47 Zn40 1.965 . S
O47 C58 1.260 1_556 S
O48 Zn41 1.969 . S
O48 C58 1.258 . S
C49 O46 1.267 . S
C49 O50 1.228 . S
O50 C49 1.228 . S
O51 Zn40 2.024 . S
O51 C42 1.058 . S
C52 O53 1.228 . S
C52 O54 1.267 . S
O53 C52 1.228 . S
O54 Zn41 1.969 . S
O54 C52 1.267 . S
O55 Zn41 1.965 . S
O55 C59 1.260 . S
O56 Zn40 1.969 . S
O56 C59 1.258 1_556 S
O57 Zn41 2.024 . S
O57 C44 1.058 . S
C58 O47 1.260 1_554 S
C58 O48 1.258 . S
C59 O55 1.260 . S
C59 O56 1.258 1_554 S
Zn60 O66 1.969 . S
Zn60 O67 1.965 . S
Zn60 O71 2.024 . S
Zn60 O76 1.969 . S
Zn61 O68 1.969 . S
Zn61 O74 1.969 . S
Zn61 O75 1.965 . S
Zn61 O77 2.024 . S
C62 O63 1.229 . S
C62 O71 1.058 . S
O63 C62 1.229 . S
C64 O65 1.229 . S
C64 O77 1.058 . S
O65 C64 1.229 . S
O66 Zn60 1.969 . S
O66 C69 1.267 . S
O67 Zn60 1.965 . S
O67 C78 1.260 . S
O68 Zn61 1.969 . S
O68 C78 1.258 . S
C69 O66 1.267 . S
C69 O70 1.228 . S
O70 C69 1.228 . S
O71 Zn60 2.024 . S
O71 C62 1.058 . S
C72 O73 1.228 . S
C72 O74 1.267 . S
O73 C72 1.228 . S
O74 Zn61 1.969 . S
O74 C72 1.267 . S
O75 Zn61 1.965 . S
O75 C79 1.260 . S
O76 Zn60 1.969 . S
O76 C79 1.258 . S
O77 Zn61 2.024 . S
O77 C64 1.058 . S
C78 O67 1.260 . S
C78 O68 1.258 . S
C79 O75 1.260 . S
C79 O76 1.258 . S
Zn80 O86 1.969 . S
Zn80 O87 1.965 . S
Zn80 O91 2.024 . S
Zn80 O96 1.969 . S
Zn81 O88 1.969 . S
Zn81 O94 1.969 . S
Zn81 O95 1.965 . S
Zn81 O97 2.024 . S
C82 O83 1.229 . S
C82 O91 1.058 . S
O83 C82 1.229 . S
C84 O85 1.229 . S
C84 O97 1.058 . S
O85 C84 1.229 . S
O86 Zn80 1.969 . S
O86 C89 1.267 . S
O87 Zn80 1.965 . S
O87 C98 1.260 . S
O88 Zn81 1.969 . S
O88 C98 1.258 . S
C89 O86 1.267 . S
C89 O90 1.228 . S
O90 C89 1.228 . S
O91 Zn80 2.024 . S
O91 C82 1.058 . S
C92 O93 1.228 . S
C92 O94 1.267 . S
O93 C92 1.228 . S
O94 Zn81 1.969 . S
O94 C92 1.267 . S
O95 Zn81 1.965 . S
O95 C99 1.260 . S
O96 Zn80 1.969 . S
O96 C99 1.258 . S
O97 Zn81 2.024 . S
O97 C84 1.058 . S
C98 O87 1.260 . S
C98 O88 1.258 . S
C99 O95 1.260 . S
C99 O96 1.258 . S
Zn100 O106 1.969 . S
Zn100 O107 1.965 . S
Zn100 O111 2.024 . S
Zn100 O116 1.969 . S
Zn101 O108 1.969 . S
Zn101 O114 1.969 . S
Zn101 O115 1.965 . S
Zn101 O117 2.024 . S
C102 O103 1.229 . S
C102 O111 1.058 . S
O103 C102 1.229 . S
C104 O105 1.229 . S
C104 O117 1.058 . S
O105 C104 1.229 . S
O106 Zn100 1.969 . S
O106 C109 1.267 . S
O107 Zn100 1.965 . S
O107 C118 1.260 . S
O108 Zn101 1.969 . S
O108 C118 1.258 . S
C109 O106 1.267 . S
C109 O110 1.228 . S
O110 C109 1.228 . S
O111 Zn100 2.024 . S
O111 C102 1.058 . S
C112 O113 1.228 . S
C112 O114 1.267 . S
O113 C112 1.228 . S
O114 Zn101 1.969 . S
O114 C112 1.267 . S
O115 Zn101 1.965 . S
O115 C119 1.260 . S
O116 Zn100 1.969 . S
O116 C119 1.258 . S
O117 Zn101 2.024 . S
O117 C104 1.058 . S
C118 O107 1.260 . S
C118 O108 1.258 . S
C119 O115 1.260 . S
C119 O116 1.258 . S
Zn120 O126 1.969 . S
Zn120 O127 1.965 1_556 S
Zn120 O131 2.024 . S
Zn120 O136 1.969 . S
Zn121 O128 1.969 . S
Zn121 O134 1.969 . S
Zn121 O135 1.965 . S
Zn121 O137 2.024 . S
C122 O123 1.229 . S
C122 O131 1.058 . S
O123 C122 1.229 . S
C124 O125 1.229 . S
C124 O137 1.058 . S
O125 C124 1.229 . S
O126 Zn120 1.969 . S
O126 C129 1.267 . S
O127 Zn120 1.965 1_554 S
O127 C138 1.260 . S
O128 Zn121 1.969 . S
O128 C138 1.258 . S
C129 O126 1.267 . S
C129 O130 1.228 . S
O130 C129 1.228 . S
O131 Zn120 2.024 . S
O131 C122 1.058 . S
C132 O133 1.228 . S
C132 O134 1.267 . S
O133 C132 1.228 . S
O134 Zn121 1.969 . S
O134 C132 1.267 . S
O135 Zn121 1.965 . S
O135 C139 1.260 . S
O136 Zn120 1.969 . S
O136 C139 1.258 1_556 S
O137 Zn121 2.024 . S
O137 C124 1.058 . S
C138 O127 1.260 . S
C138 O128 1.258 . S
C139 O135 1.260 . S
C139 O136 1.258 1_554 S
Zn140 O146 1.969 . S
Zn140 O147 1.965 1_556 S
Zn140 O151 2.024 . S
Zn140 O156 1.969 . S
Zn141 O148 1.969 . S
Zn141 O154 1.969 . S
Zn141 O155 1.965 . S
Zn141 O157 2.024 . S
C142 O143 1.229 . S
C142 O151 1.058 . S
O143 C142 1.229 . S
C144 O145 1.229 . S
C144 O157 1.058 . S
O145 C144 1.229 . S
O146 Zn140 1.969 . S
O146 C149 1.267 . S
O147 Zn140 1.965 1_554 S
O147 C158 1.260 . S
O148 Zn141 1.969 . S
O148 C158 1.258 . S
C149 O146 1.267 . S
C149 O150 1.228 . S
O150 C149 1.228 . S
O151 Zn140 2.024 . S
O151 C142 1.058 . S
C152 O153 1.228 . S
C152 O154 1.267 . S
O153 C152 1.228 . S
O154 Zn141 1.969 . S
O154 C152 1.267 . S
O155 Zn141 1.965 . S
O155 C159 1.260 . S
O156 Zn140 1.969 . S
O156 C159 1.258 1_556 S
O157 Zn141 2.024 . S
O157 C144 1.058 . S
C158 O147 1.260 . S
C158 O148 1.258 . S
C159 O155 1.260 . S
C159 O156 1.258 1_554 S
Zn160 O166 1.969 . S
Zn160 O167 1.965 1_556 S
Zn160 O171 2.024 . S
Zn160 O176 1.969 . S
Zn161 O168 1.969 . S
Zn161 O174 1.969 . S
Zn161 O175 1.965 . S
Zn161 O177 2.024 . S
C162 O163 1.229 . S
C162 O171 1.058 . S
O163 C162 1.229 . S
C164 O165 1.229 . S
C164 O177 1.058 . S
O165 C164 1.229 . S
O166 Zn160 1.969 . S
O166 C169 1.267 . S
O167 Zn160 1.965 1_554 S
O167 C178 1.260 . S
O168 Zn161 1.969 . S
O168 C178 1.258 . S
C169 O166 1.267 . S
C169 O170 1.228 . S
O170 C169 1.228 . S
O171 Zn160 2.024 . S
O171 C162 1.058 . S
C172 O173 1.228 . S
C172 O174 1.267 . S
O173 C172 1.228 . S
O174 Zn161 1.969 . S
O174 C172 1.267 . S
O175 Zn161 1.965 . S
O175 C179 1.260 . S
O176 Zn160 1.969 . S
O176 C179 1.258 1_556 S
O177 Zn161 2.024 . S
O177 C164 1.058 . S
C178 O167 1.260 . S
C178 O168 1.258 . S
C179 O175 1.260 . S
C179 O176 1.258 1_554 S
Zn180 O186 1.969 . S
Zn180 O187 1.965 . S
Zn180 O191 2.024 . S
Zn180 O196 1.969 . S
Zn181 O188 1.969 . S
Zn181 O194 1.969 . S
Zn181 O195 1.965 . S
Zn181 O197 2.024 . S
C182 O183 1.229 . S
C182 O191 1.058 . S
O183 C182 1.229 . S
C184 O185 1.229 . S
C184 O197 1.058 . S
O185 C184 1.229 . S
O186 Zn180 1.969 . S
O186 C189 1.267 . S
O187 Zn180 1.965 . S
O187 C198 1.260 . S
O188 Zn181 1.969 . S
O188 C198 1.258 . S
C189 O186 1.267 . S
C189 O190 1.228 . S
O190 C189 1.228 . S
O191 Zn180 2.024 . S
O191 C182 1.058 . S
C192 O193 1.228 . S
C192 O194 1.267 . S
O193 C192 1.228 . S
O194 Zn181 1.969 . S
O194 C192 1.267 . S
O195 Zn181 1.965 . S
O195 C199 1.260 . S
O196 Zn180 1.969 . S
O196 C199 1.258 . S
O197 Zn181 2.024 . S
O197 C184 1.058 . S
C198 O187 1.260 . S
C198 O188 1.258 . S
C199 O195 1.260 . S
C199 O196 1.258 . S
Zn200 O206 1.969 . S
Zn200 O207 1.965 . S
Zn200 O211 2.024 . S
Zn200 O216 1.969 . S
Zn201 O208 1.969 . S
Zn201 O214 1.969 . S
Zn201 O215 1.965 . S
Zn201 O217 2.024 . S
C202 O203 1.229 . S
C202 O211 1.058 . S
O203 C202 1.229 . S
C204 O205 1.229 . S
C204 O217 1.058 . S
O205 C204 1.229 . S
O206 Zn200 1.969 . S
O206 C209 1.267 . S
O207 Zn200 1.965 . S
O207 C218 1.260 . S
O208 Zn201 1.969 . S
O208 C218 1.258 . S
C209 O206 1.267 . S
C209 O210 1.228 . S
O210 C209 1.228 . S
O211 Zn200 2.024 . S
O211 C202 1.058 . S
C212 O213 1.228 . S
C212 O214 1.267 . S
O213 C212 1.228 . S
O214 Zn201 1.969 . S
O214 C212 1.267 . S
O215 Zn201 1.965 . S
O215 C219 1.260 . S
O216 Zn200 1.969 . S
O216 C219 1.258 . S
O217 Zn201 2.024 . S
O217 C204 1.058 . S
C218 O207 1.260 . S
C218 O208 1.258 . S
C219 O215 1.260 . S
C219 O216 1.258 . S
Zn220 O226 1.969 . S
Zn220 O227 1.965 . S
Zn220 O231 2.024 . S
Zn220 O236 1.969 . S
Zn221 O228 1.969 . S
Zn221 O234 1.969 . S
Zn221 O235 1.965 . S
Zn221 O237 2.024 . S
C222 O223 1.229 . S
C222 O231 1.058 . S
O223 C222 1.229 . S
C224 O225 1.229 . S
C224 O237 1.058 . S
O225 C224 1.229 . S
O226 Zn220 1.969 . S
O226 C229 1.267 . S
O227 Zn220 1.965 . S
O227 C238 1.260 . S
O228 Zn221 1.969 . S
O228 C238 1.258 . S
C229 O226 1.267 . S
C229 O230 1.228 . S
O230 C229 1.228 . S
O231 Zn220 2.024 . S
O231 C222 1.058 . S
C232 O233 1.228 . S
C232 O234 1.267 . S
O233 C232 1.228 . S
O234 Zn221 1.969 . S
O234 C232 1.267 . S
O235 Zn221 1.965 . S
O235 C239 1.260 . S
O236 Zn220 1.969 . S
O236 C239 1.258 . S
O237 Zn221 2.024 . S
O237 C224 1.058 . S
C238 O227 1.260 . S
C238 O228 1.258 . S
C239 O235 1.260 . S
C239 O236 1.258 . S
Zn240 O246 1.969 . S
Zn240 O247 1.965 . S
Zn240 O251 2.024 . S
Zn240 O256 1.969 . S
Zn241 O248 1.969 . S
Zn241 O254 1.969 . S
Zn241 O255 1.965 . S
Zn241 O257 2.024 . S
C242 O243 1.229 . S
C242 O251 1.058 . S
O243 C242 1.229 . S
C244 O245 1.229 . S
C244 O257 1.058 . S
O245 C244 1.229 . S
O246 Zn240 1.969 . S
O246 C249 1.267 . S
O247 Zn240 1.965 . S
O247 C258 1.260 . S
O248 Zn241 1.969 . S
O248 C258 1.258 . S
C249 O246 1.267 . S
C249 O250 1.228 . S
O250 C249 1.228 . S
O251 Zn240 2.024 . S
O251 C242 1.058 . S
C252 O253 1.228 . S
C252 O254 1.267 . S
O253 C252 1.228 . S
O254 Zn241 1.969 . S
O254 C252 1.267 . S
O255 Zn241 1.965 . S
O255 C259 1.260 . S
O256 Zn240 1.969 . S
O256 C259 1.258 . S
O257 Zn241 2.024 . S
O257 C244 1.058 . S
C258 O247 1.260 . S
C258 O248 1.258 . S
C259 O255 1.260 . S
C259 O256 1.258 . S
Zn260 O266 1.969 . S
Zn260 O267 1.965 . S
Zn260 O271 2.024 . S
Zn260 O276 1.969 . S
Zn261 O268 1.969 . S
Zn261 O274 1.969 . S
Zn261 O275 1.965 . S
Zn261 O277 2.024 . S
C262 O263 1.229 . S
C262 O271 1.058 . S
O263 C262 1.229 . S
C264 O265 1.229 . S
C264 O277 1.058 . S
O265 C264 1.229 . S
O266 Zn260 1.969 . S
O266 C269 1.267 . S
O267 Zn260 1.965 . S
O267 C278 1.260 . S
O268 Zn261 1.969 . S
O268 C278 1.258 . S
C269 O266 1.267 . S
C269 O270 1.228 . S
O270 C269 1.228 . S
O271 Zn260 2.024 . S
O271 C262 1.058 . S
C272 O273 1.228 . S
C272 O274 1.267 . S
O273 C272 1.228 . S
O274 Zn261 1.969 . S
O274 C272 1.267 . S
O275 Zn261 1.965 . S
O275 C279 1.260 . S
O276 Zn260 1.969 . S
O276 C279 1.258 . S
O277 Zn261 2.024 . S
O277 C264 1.058 . S
C278 O267 1.260 . S
C278 O268 1.258 . S
C279 O275 1.260 . S
C279 O276 1.258 . S
Zn280 O286 1.969 . S
Zn280 O287 1.965 . S
Zn280 O291 2.024 . S
Zn280 O296 1.969 . S
Zn281 O288 1.969 . S
Zn281 O294 1.969 . S
Zn281 O295 1.965 . S
Zn281 O297 2.024 . S
C282 O283 1.229 . S
C282 O291 1.058 . S
O283 C282 1.229 . S
C284 O285 1.229 . S
C284 O297 1.058 . S
O285 C284 1.229 . S
O286 Zn280 1.969 . S
O286 C289 1.267 . S
O287 Zn280 1.965 . S
O287 C298 1.260 . S
O288 Zn281 1.969 . S
O288 C298 1.258 . S
C289 O286 1.267 . S
C289 O290 1.228 . S
O290 C289 1.228 . S
O291 Zn280 2.024 . S
O291 C282 1.058 . S
C292 O293 1.228 . S
C292 O294 1.267 . S
O293 C292 1.228 . S
O294 Zn281 1.969 . S
O294 C292 1.267 . S
O295 Zn281 1.965 . S
O295 C299 1.260 . S
O296 Zn280 1.969 . S
O296 C299 1.258 . S
O297 Zn281 2.024 . S
O297 C284 1.058 . S
C298 O287 1.260 . S
C298 O288 1.258 . S
C299 O295 1.260 . S
C299 O296 1.258 . S
Zn300 O306 1.969 . S
Zn300 O307 1.965 . S
Zn300 O311 2.024 . S
Zn300 O316 1.969 . S
Zn301 O308 1.969 . S
Zn301 O314 1.969 . S
Zn301 O315 1.965 . S
Zn301 O317 2.024 . S
C302 O303 1.229 . S
C302 O311 1.058 . S
O303 C302 1.229 . S
C304 O305 1.229 . S
C304 O317 1.058 . S
O305 C304 1.229 . S
O306 Zn300 1.969 . S
O306 C309 1.267 . S
O307 Zn300 1.965 . S
O307 C318 1.260 . S
O308 Zn301 1.969 . S
O308 C318 1.258 . S
C309 O306 1.267 . S
C309 O310 1.230 . S
O310 C309 1.230 . S
O311 Zn300 2.024 . S
O311 C302 1.058 . S
C312 O313 1.228 . S
C312 O314 1.267 . S
O313 C312 1.228 . S
O314 Zn301 1.969 . S
O314 C312 1.267 . S
O315 Zn301 1.965 . S
O315 C319 1.260 . S
O316 Zn300 1.969 . S
O316 C319 1.258 . S
O317 Zn301 2.024 . S
O317 C304 1.058 . S
C318 O307 1.260 . S
C318 O308 1.258 . S
C319 O315 1.260 . S
C319 O316 1.258 . S
Zn320 O326 1.969 . S
Zn320 O327 1.965 . S
Zn320 O331 2.024 . S
Zn320 O336 1.969 . S
Zn321 O328 1.969 . S
Zn321 O334 1.969 . S
Zn321 O335 1.965 . S
Zn321 O337 2.024 . S
C322 O323 1.229 . S
C322 O331 1.058 . S
O323 C322 1.229 . S
C324 O325 1.229 . S
C324 O337 1.058 . S
O325 C324 1.229 . S
O326 Zn320 1.969 . S
O326 C329 1.267 . S
O327 Zn320 1.965 . S
O327 C338 1.260 . S
O328 Zn321 1.969 . S
O328 C338 1.258 . S
C329 O326 1.267 . S
C329 O330 1.230 . S
O330 C329 1.230 . S
O331 Zn320 2.024 . S
O331 C322 1.058 . S
C332 O333 1.228 . S
C332 O334 1.267 . S
O333 C332 1.228 . S
O334 Zn321 1.969 . S
O334 C332 1.267 . S
O335 Zn321 1.965 . S
O335 C339 1.260 . S
O336 Zn320 1.969 . S
O336 C339 1.258 . S
O337 Zn321 2.024 . S
O337 C324 1.058 . S
C338 O327 1.260 . S
C338 O328 1.258 . S
C339 O335 1.260 . S
C339 O336 1.258 . S
Zn340 O346 1.969 . S
Zn340 O347 1.965 . S
Zn340 O351 2.024 . S
Zn340 O356 1.969 . S
Zn341 O348 1.969 . S
Zn341 O354 1.969 . S
Zn341 O355 1.965 . S
Zn341 O357 2.024 . S
C342 O343 1.229 . S
C342 O351 1.058 . S
O343 C342 1.229 . S
C344 O345 1.229 . S
C344 O357 1.058 . S
O345 C344 1.229 . S
O346 Zn340 1.969 . S
O346 C349 1.267 . S
O347 Zn340 1.965 . S
O347 C358 1.260 . S
O348 Zn341 1.969 . S
O348 C358 1.258 . S
C349 O346 1.267 . S
C349 O350 1.229 . S
O350 C349 1.229 . S
O351 Zn340 2.024 . S
O351 C342 1.058 . S
C352 O353 1.228 . S
C352 O354 1.267 . S
O353 C352 1.228 . S
O354 Zn341 1.969 . S
O354 C352 1.267 . S
O355 Zn341 1.965 . S
O355 C359 1.260 . S
O356 Zn340 1.969 . S
O356 C359 1.258 . S
O357 Zn341 2.024 . S
O357 C344 1.058 . S
C358 O347 1.260 . S
C358 O348 1.258 . S
C359 O355 1.260 . S
C359 O356 1.258 . S
Zn360 O366 1.969 . S
Zn360 O367 1.965 . S
Zn360 O371 2.024 . S
Zn360 O376 1.969 . S
Zn361 O368 1.969 . S
Zn361 O374 1.969 . S
Zn361 O375 1.965 . S
Zn361 O377 2.024 . S
C362 O363 1.229 . S
C362 O371 1.058 . S
O363 C362 1.229 . S
C364 O365 1.229 . S
C364 O377 1.058 . S
O365 C364 1.229 . S
O366 Zn360 1.969 . S
O366 C369 1.267 . S
O367 Zn360 1.965 . S
O367 C378 1.260 . S
O368 Zn361 1.969 . S
O368 C378 1.258 . S
C369 O366 1.267 . S
C369 O370 1.228 . S
O370 C369 1.228 . S
O371 Zn360 2.024 . S
O371 C362 1.058 . S
C372 O373 1.228 . S
C372 O374 1.267 . S
O373 C372 1.228 . S
O374 Zn361 1.969 . S
O374 C372 1.267 . S
O375 Zn361 1.965 . S
O375 C379 1.260 . S
O376 Zn360 1.969 . S
O376 C379 1.258 . S
O377 Zn361 2.024 . S
O377 C364 1.058 . S
C378 O367 1.260 . S
C378 O368 1.258 . S
C379 O375 1.260 . S
C379 O376 1.258 . S
Zn380 O386 1.969 . S
Zn380 O387 1.965 . S
Zn380 O391 2.024 . S
Zn380 O396 1.969 . S
Zn381 O388 1.969 . S
Zn381 O394 1.969 . S
Zn381 O395 1.965 . S
Zn381 O397 2.024 . S
C382 O383 1.229 . S
C382 O391 1.058 . S
O383 C382 1.229 . S
C384 O385 1.229 . S
C384 O397 1.058 . S
O385 C384 1.229 . S
O386 Zn380 1.969 . S
O386 C389 1.267 . S
O387 Zn380 1.965 . S
O387 C398 1.260 . S
O388 Zn381 1.969 . S
O388 C398 1.258 . S
C389 O386 1.267 . S
C389 O390 1.228 . S
O390 C389 1.228 . S
O391 Zn380 2.024 . S
O391 C382 1.058 . S
C392 O393 1.228 . S
C392 O394 1.267 . S
O393 C392 1.228 . S
O394 Zn381 1.969 . S
O394 C392 1.267 . S
O395 Zn381 1.965 . S
O395 C399 1.260 . S
O396 Zn380 1.969 . S
O396 C399 1.258 . S
O397 Zn381 2.024 . S
O397 C384 1.058 . S
C398 O387 1.260 . S
C398 O388 1.258 . S
C399 O395 1.260 . S
C399 O396 1.258 . S
Zn400 O406 1.969 . S
Zn400 O407 1.965 . S
Zn400 O411 2.024 . S
Zn400 O416 1.969 . S
Zn401 O408 1.969 . S
Zn401 O414 1.969 . S
Zn401 O415 1.965 . S
Zn401 O417 2.024 . S
C402 O403 1.229 . S
C402 O411 1.058 . S
O403 C402 1.229 . S
C404 O405 1.229 . S
C404 O417 1.058 . S
O405 C404 1.229 . S
O406 Zn400 1.969 . S
O406 C409 1.267 . S
O407 Zn400 1.965 . S
O407 C418 1.260 . S
O408 Zn401 1.969 . S
O408 C418 1.258 . S
C409 O406 1.267 . S
C409 O410 1.228 . S
O410 C409 1.228 . S
O411 Zn400 2.024 . S
O411 C402 1.058 . S
C412 O413 1.228 . S
C412 O414 1.267 . S
O413 C412 1.228 . S
O414 Zn401 1.969 . S
O414 C412 1.267 . S
O415 Zn401 1.965 . S
O415 C419 1.260 . S
O416 Zn400 1.969 . S
O416 C419 1.258 . S
O417 Zn401 2.024 . S
O417 C404 1.058 . S
C418 O407 1.260 . S
C418 O408 1.258 . S
C419 O415 1.260 . S
C419 O416 1.258 . S
Zn420 O426 1.969 . S
Zn420 O427 1.965 . S
Zn420 O431 2.024 . S
Zn420 O436 1.969 . S
Zn421 O428 1.969 . S
Zn421 O434 1.969 . S
Zn421 O435 1.965 . S
Zn421 O437 2.024 . S
C422 O423 1.229 . S
C422 O431 1.058 . S
O423 C422 1.229 . S
C424 O425 1.229 . S
C424 O437 1.058 . S
O425 C424 1.229 . S
O426 Zn420 1.969 . S
O426 C429 1.267 . S
O427 Zn420 1.965 . S
O427 C438 1.260 . S
O428 Zn421 1.969 . S
O428 C438 1.258 . S
C429 O426 1.267 . S
C429 O430 1.228 . S
O430 C429 1.228 . S
O431 Zn420 2.024 . S
O431 C422 1.058 . S
C432 O433 1.228 . S
C432 O434 1.267 . S
O433 C432 1.228 . S
O434 Zn421 1.969 . S
O434 C432 1.267 . S
O435 Zn421 1.965 . S
O435 C439 1.260 . S
O436 Zn420 1.969 . S
O436 C439 1.258 . S
O437 Zn421 2.024 . S
O437 C424 1.058 . S
C438 O427 1.260 . S
C438 O428 1.258 . S
C439 O435 1.260 . S
C439 O436 1.258 . S
Zn440 O446 1.969 . S
Zn440 O447 1.965 . S
Zn440 O451 2.024 . S
Zn440 O456 1.969 . S
Zn441 O448 1.969 . S
Zn441 O454 1.969 . S
Zn441 O455 1.965 . S
Zn441 O457 2.024 . S
C442 O443 1.229 . S
C442 O451 1.058 . S
O443 C442 1.229 . S
C444 O445 1.229 . S
C444 O457 1.058 . S
O445 C444 1.229 . S
O446 Zn440 1.969 . S
O446 C449 1.267 . S
O447 Zn440 1.965 . S
O447 C458 1.260 . S
O448 Zn441 1.969 . S
O448 C458 1.258 . S
C449 O446 1.267 . S
C449 O450 1.228 . S
O450 C449 1.228 . S
O451 Zn440 2.024 . S
O451 C442 1.058 . S
C452 O453 1.228 . S
C452 O454 1.267 . S
O453 C452 1.228 . S
O454 Zn441 1.969 . S
O454 C452 1.267 . S
O455 Zn441 1.965 . S
O455 C459 1.260 . S
O456 Zn440 1.969 . S
O456 C459 1.258 . S
O457 Zn441 2.024 . S
O457 C444 1.058 . S
C458 O447 1.260 . S
C458 O448 1.258 . S
C459 O455 1.260 . S
C459 O456 1.258 . S
Zn460 O466 1.969 . S
Zn460 O467 1.965 . S
Zn460 O471 2.024 . S
Zn460 O476 1.969 . S
Zn461 O468 1.969 . S
Zn461 O474 1.969 . S
Zn461 O475 1.965 . S
Zn461 O477 2.024 . S
C462 O463 1.229 . S
C462 O471 1.058 . S
O463 C462 1.229 . S
C464 O465 1.229 . S
C464 O477 1.058 . S
O465 C464 1.229 . S
O466 Zn460 1.969 . S
O466 C469 1.267 . S
O467 Zn460 1.965 . S
O467 C478 1.260 . S
O468 Zn461 1.969 . S
O468 C478 1.258 . S
C469 O466 1.267 . S
C469 O470 1.228 . S
O470 C469 1.228 . S
O471 Zn460 2.024 . S
O471 C462 1.058 . S
C472 O473 1.228 . S
C472 O474 1.267 . S
O473 C472 1.228 . S
O474 Zn461 1.969 . S
O474 C472 1.267 . S
O475 Zn461 1.965 . S
O475 C479 1.260 . S
O476 Zn460 1.969 . S
O476 C479 1.258 . S
O477 Zn461 2.024 . S
O477 C464 1.058 . S
C478 O467 1.260 . S
C478 O468 1.258 . S
C479 O475 1.260 . S
C479 O476 1.258 . S
Zn480 O486 1.969 . S
Zn480 O487 1.965 . S
Zn480 O491 2.024 . S
Zn480 O496 1.969 . S
Zn481 O488 1.969 . S
Zn481 O494 1.969 . S
Zn481 O495 1.965 . S
Zn481 O497 2.024 . S
C482 O483 1.229 . S
C482 O491 1.058 . S
O483 C482 1.229 . S
C484 O485 1.229 . S
C484 O497 1.058 . S
O485 C484 1.229 . S
O486 Zn480 1.969 . S
O486 C489 1.267 . S
O487 Zn480 1.965 . S
O487 C498 1.260 . S
O488 Zn481 1.969 . S
O488 C498 1.258 . S
C489 O486 1.267 . S
C489 O490 1.228 . S
O490 C489 1.228 . S
O491 Zn480 2.024 . S
O491 C482 1.058 . S
C492 O493 1.228 . S
C492 O494 1.267 . S
O493 C492 1.228 . S
O494 Zn481 1.969 . S
O494 C492 1.267 . S
O495 Zn481 1.965 . S
O495 C499 1.260 . S
O496 Zn480 1.969 . S
O496 C499 1.258 . S
O497 Zn481 2.024 . S
O497 C484 1.058 . S
C498 O487 1.260 . S
C498 O488 1.258 . S
C499 O495 1.260 . S
C499 O496 1.258 . S
Zn500 O506 1.969 . S
Zn500 O507 1.965 . S
Zn500 O511 2.024 . S
Zn500 O516 1.969 . S
Zn501 O508 1.969 . S
Zn501 O514 1.969 . S
Zn501 O515 1.965 . S
Zn501 O517 2.024 . S
C502 O503 1.229 . S
C502 O511 1.058 . S
O503 C502 1.229 . S
C504 O505 1.229 . S
C504 O517 1.058 . S
O505 C504 1.229 . S
O506 Zn500 1.969 . S
O506 C509 1.267 . S
O507 Zn500 1.965 . S
O507 C518 1.260 . S
O508 Zn501 1.969 . S
O508 C518 1.258 . S
C509 O506 1.267 . S
C509 O510 1.228 . S
O510 C509 1.228 . S
O511 Zn500 2.024 . S
O511 C502 1.058 . S
C512 O513 1.228 . S
C512 O514 1.267 . S
O513 C512 1.228 . S
O514 Zn501 1.969 . S
O514 C512 1.267 . S
O515 Zn501 1.965 . S
O515 C519 1.260 . S
O516 Zn500 1.969 . S
O516 C519 1.258 . S
O517 Zn501 2.024 . S
O517 C504 1.058 . S
C518 O507 1.260 . S
C518 O508 1.258 . S
C519 O515 1.260 . S
C519 O516 1.258 . S
Zn520 O526 1.969 . S
Zn520 O527 1.965 . S
Zn520 O531 2.024 . S
Zn520 O536 1.969 . S
Zn521 O528 1.969 . S
Zn521 O534 1.969 . S
Zn521 O535 1.965 . S
Zn521 O537 2.024 . S
C522 O523 1.229 . S
C522 O531 1.058 . S
O523 C522 1.229 . S
C524 O525 1.229 . S
C524 O537 1.058 . S
O525 C524 1.229 . S
O526 Zn520 1.969 . S
O526 C529 1.267 . S
O527 Zn520 1.965 . S
O527 C538 1.260 . S
O528 Zn521 1.969 . S
O528 C538 1.258 . S
C529 O526 1.267 . S
C529 O530 1.228 . S
O530 C529 1.228 . S
O531 Zn520 2.024 . S
O531 C522 1.058 . S
C532 O533 1.228 . S
C532 O534 1.267 . S
O533 C532 1.228 . S
O534 Zn521 1.969 . S
O534 C532 1.267 . S
O535 Zn521 1.965 . S
O535 C539 1.260 . S
O536 Zn520 1.969 . S
O536 C539 1.258 . S
O537 Zn521 2.024 . S
O537 C524 1.058 . S
C538 O527 1.260 . S
C538 O528 1.258 . S
C539 O535 1.260 . S
C539 O536 1.258 . S
Zn540 O546 1.969 . S
Zn540 O547 1.965 . S
Zn540 O551 2.024 . S
Zn540 O556 1.969 . S
Zn541 O548 1.969 . S
Zn541 O554 1.969 . S
Zn541 O555 1.965 . S
Zn541 O557 2.024 . S
C542 O543 1.229 . S
C542 O551 1.058 . S
O543 C542 1.229 . S
C544 O545 1.229 . S
C544 O557 1.058 . S
O545 C544 1.229 . S
O546 Zn540 1.969 . S
O546 C549 1.267 . S
O547 Zn540 1.965 . S
O547 C558 1.260 . S
O548 Zn541 1.969 . S
O548 C558 1.258 . S
C549 O546 1.267 . S
C549 O550 1.228 . S
O550 C549 1.228 . S
O551 Zn540 2.024 . S
O551 C542 1.058 . S
C552 O553 1.228 . S
C552 O554 1.267 . S
O553 C552 1.228 . S
O554 Zn541 1.969 . S
O554 C552 1.267 . S
O555 Zn541 1.965 . S
O555 C559 1.260 . S
O556 Zn540 1.969 . S
O556 C559 1.258 . S
O557 Zn541 2.024 . S
O557 C544 1.058 . S
C558 O547 1.260 . S
C558 O548 1.258 . S
C559 O555 1.260 . S
C559 O556 1.258 . S
Zn560 O566 1.969 . S
Zn560 O567 1.965 . S
Zn560 O571 2.024 . S
Zn560 O576 1.969 . S
Zn561 O568 1.969 . S
Zn561 O574 1.969 . S
Zn561 O575 1.965 . S
Zn561 O577 2.024 . S
C562 O563 1.229 . S
C562 O571 1.058 . S
O563 C562 1.229 . S
C564 O565 1.229 . S
C564 O577 1.058 . S
O565 C564 1.229 . S
O566 Zn560 1.969 . S
O566 C569 1.267 . S
O567 Zn560 1.965 . S
O567 C578 1.260 . S
O568 Zn561 1.969 . S
O568 C578 1.258 . S
C569 O566 1.267 . S
C569 O570 1.228 . S
O570 C569 1.228 . S
O571 Zn560 2.024 . S
O571 C562 1.058 . S
C572 O573 1.228 . S
C572 O574 1.267 . S
O573 C572 1.228 . S
O574 Zn561 1.969 . S
O574 C572 1.267 . S
O575 Zn561 1.965 . S
O575 C579 1.260 . S
O576 Zn560 1.969 . S
O576 C579 1.258 . S
O577 Zn561 2.024 . S
O577 C564 1.058 . S
C578 O567 1.260 . S
C578 O568 1.258 . S
C579 O575 1.260 . S
C579 O576 1.258 . S
Zn580 O586 1.969 . S
Zn580 O587 1.965 . S
Zn580 O591 2.024 . S
Zn580 O596 1.969 . S
Zn581 O588 1.969 . S
Zn581 O594 1.969 . S
Zn581 O595 1.965 . S
Zn581 O597 2.024 . S
C582 O583 1.229 . S
C582 O591 1.058 . S
O583 C582 1.229 . S
C584 O585 1.229 . S
C584 O597 1.058 . S
O585 C584 1.229 . S
O586 Zn580 1.969 . S
O586 C589 1.267 . S
O587 Zn580 1.965 . S
O587 C598 1.260 . S
O588 Zn581 1.969 . S
O588 C598 1.258 . S
C589 O586 1.267 . S
C589 O590 1.228 . S
O590 C589 1.228 . S
O591 Zn580 2.024 . S
O591 C582 1.058 . S
C592 O593 1.228 . S
C592 O594 1.267 . S
O593 C592 1.228 . S
O594 Zn581 1.969 . S
O594 C592 1.267 . S
O595 Zn581 1.965 . S
O595 C599 1.260 . S
O596 Zn580 1.969 . S
O596 C599 1.258 . S
O597 Zn581 2.024 . S
O597 C584 1.058 . S
C598 O587 1.260 . S
C598 O588 1.258 . S
C599 O595 1.260 . S
C599 O596 1.258 . S
Zn600 O606 1.969 . S
Zn600 O607 1.965 . S
Zn600 O611 2.024 . S
Zn600 O616 1.969 . S
Zn601 O608 1.969 . S
Zn601 O614 1.969 . S
Zn601 O615 1.965 . S
Zn601 O617 2.024 . S
C602 O603 1.229 . S
C602 O611 1.058 . S
O603 C602 1.229 . S
C604 O605 1.229 . S
C604 O617 1.058 . S
O605 C604 1.229 . S
O606 Zn600 1.969 . S
O606 C609 1.267 . S
O607 Zn600 1.965 . S
O607 C618 1.260 . S
O608 Zn601 1.969 . S
O608 C618 1.258 . S
C609 O606 1.267 . S
C609 O610 1.228 . S
O610 C609 1.228 . S
O611 Zn600 2.024 . S
O611 C602 1.058 . S
C612 O613 1.228 . S
C612 O614 1.267 . S
O613 C612 1.228 . S
O614 Zn601 1.969 . S
O614 C612 1.267 . S
O615 Zn601 1.965 . S
O615 C619 1.260 . S
O616 Zn600 1.969 . S
O616 C619 1.258 . S
O617 Zn601 2.024 . S
O617 C604 1.058 . S
C618 O607 1.260 . S
C618 O608 1.258 . S
C619 O615 1.260 . S
C619 O616 1.258 . S
Zn620 O626 1.969 . S
Zn620 O627 1.965 . S
Zn620 O631 2.024 . S
Zn620 O636 1.969 . S
Zn621 O628 1.969 . S
Zn621 O634 1.969 . S
Zn621 O635 1.965 . S
Zn621 O637 2.024 . S
C622 O623 1.229 . S
C622 O631 1.058 . S
O623 C622 1.229 . S
C624 O625 1.229 . S
C624 O637 1.058 . S
O625 C624 1.229 . S
O626 Zn620 1.969 . S
O626 C629 1.267 . S
O627 Zn620 1.965 . S
O627 C638 1.260 . S
O628 Zn621 1.969 . S
O628 C638 1.258 . S
C629 O626 1.267 . S
C629 O630 1.228 . S
O630 C629 1.228 . S
O631 Zn620 2.024 . S
O631 C622 1.058 . S
C632 O633 1.228 . S
C632 O634 1.267 . S
O633 C632 1.228 . S
O634 Zn621 1.969 . S
O634 C632 1.267 . S
O635 Zn621 1.965 . S
O635 C639 1.260 . S
O636 Zn620 1.969 . S
O636 C639 1.258 . S
O637 Zn621 2.024 . S
O637 C624 1.058 . S
C638 O627 1.260 . S
C638 O628 1.258 . S
C639 O635 1.260 . S
C639 O636 1.258 . S
Zn640 O646 1.969 . S
Zn640 O647 1.965 . S
Zn640 O651 2.024 . S
Zn640 O656 1.969 . S
Zn641 O648 1.969 . S
Zn641 O654 1.969 . S
Zn641 O655 1.965 . S
Zn641 O657 2.024 . S
C642 O643 1.229 . S
C642 O651 1.058 . S
O643 C642 1.229 . S
C644 O645 1.229 . S
C644 O657 1.058 . S
O645 C644 1.229 . S
O646 Zn640 1.969 . S
O646 C649 1.267 . S
O647 Zn640 1.965 . S
O647 C658 1.260 . S
O648 Zn641 1.969 . S
O648 C658 1.258 . S
C649 O646 1.267 . S
C649 O650 1.228 . S
O650 C649 1.228 . S
O651 Zn640 2.024 . S
O651 C642 1.058 . S
C652 O653 1.228 . S
C652 O654 1.267 . S
O653 C652 1.228 . S
O654 Zn641 1.969 . S
O654 C652 1.267 . S
O655 Zn641 1.965 . S
O655 C659 1.260 . S
O656 Zn640 1.969 . S
O656 C659 1.258 . S
O657 Zn641 2.024 . S
O657 C644 1.058 . S
C658 O647 1.260 . S
C658 O648 1.258 . S
C659 O655 1.260 . S
C659 O656 1.258 . S
Zn660 O666 1.969 . S
Zn660 O667 1.965 . S
Zn660 O671 2.024 . S
Zn660 O676 1.969 . S
Zn661 O668 1.969 . S
Zn661 O674 1.969 . S
Zn661 O675 1.965 . S
Zn661 O677 2.024 . S
C662 O663 1.229 . S
C662 O671 1.058 . S
O663 C662 1.229 . S
C664 O665 1.229 . S
C664 O677 1.058 . S
O665 C664 1.229 . S
O666 Zn660 1.969 . S
O666 C669 1.267 . S
O667 Zn660 1.965 . S
O667 C678 1.260 . S
O668 Zn661 1.969 . S
O668 C678 1.258 . S
C669 O666 1.267 . S
C669 O670 1.228 . S
O670 C669 1.228 . S
O671 Zn660 2.024 . S
O671 C662 1.058 . S
C672 O673 1.228 . S
C672 O674 1.267 . S
O673 C672 1.228 . S
O674 Zn661 1.969 . S
O674 C672 1.267 . S
O675 Zn661 1.965 . S
O675 C679 1.260 . S
O676 Zn660 1.969 . S
O676 C679 1.258 . S
O677 Zn661 2.024 . S
O677 C664 1.058 . S
C678 O667 1.260 . S
C678 O668 1.258 . S
C679 O675 1.260 . S
C679 O676 1.258 . S
Zn680 O686 1.969 . S
Zn680 O687 1.965 . S
Zn680 O691 2.024 . S
Zn680 O696 1.969 . S
Zn681 O688 1.969 . S
Zn681 O694 1.969 . S
Zn681 O695 1.965 . S
Zn681 O697 2.024 . S
C682 O683 1.229 . S
C682 O691 1.058 . S
O683 C682 1.229 . S
C684 O685 1.229 . S
C684 O697 1.058 . S
O685 C684 1.229 . S
O686 Zn680 1.969 . S
O686 C689 1.267 . S
O687 Zn680 1.965 . S
O687 C698 1.260 . S
O688 Zn681 1.969 . S
O688 C698 1.258 . S
C689 O686 1.267 . S
C689 O690 1.228 . S
O690 C689 1.228 . S
O691 Zn680 2.024 . S
O691 C682 1.058 . S
C692 O693 1.228 . S
C692 O694 1.267 . S
O693 C692 1.228 . S
O694 Zn681 1.969 . S
O694 C692 1.267 . S
O695 Zn681 1.965 . S
O695 C699 1.260 . S
O696 Zn680 1.969 . S
O696 C699 1.258 . S
O697 Zn681 2.024 . S
O697 C684 1.058 . S
C698 O687 1.260 . S
C698 O688 1.258 . S
C699 O695 1.260 . S
C699 O696 1.258 . S
Zn700 O706 1.969 . S
Zn700 O707 1.965 . S
Zn700 O711 2.024 . S
Zn700 O716 1.969 . S
Zn701 O708 1.969 . S
Zn701 O714 1.969 . S
Zn701 O715 1.965 . S
Zn701 O717 2.024 . S
C702 O703 1.229 . S
C702 O711 1.058 . S
O703 C702 1.229 . S
C704 O705 1.229 . S
C704 O717 1.058 . S
O705 C704 1.229 . S
O706 Zn700 1.969 . S
O706 C709 1.267 . S
O707 Zn700 1.965 . S
O707 C718 1.260 . S
O708 Zn701 1.969 . S
O708 C718 1.258 . S
C709 O706 1.267 . S
C709 O710 1.228 . S
O710 C709 1.228 . S
O711 Zn700 2.024 . S
O711 C702 1.058 . S
C712 O713 1.228 . S
C712 O714 1.267 . S
O713 C712 1.228 . S
O714 Zn701 1.969 . S
O714 C712 1.267 . S
O715 Zn701 1.965 . S
O715 C719 1.260 . S
O716 Zn700 1.969 . S
O716 C719 1.258 . S
O717 Zn701 2.024 . S
O717 C704 1.058 . S
C718 O707 1.260 . S
C718 O708 1.258 . S
C719 O715 1.260 . S
C719 O716 1.258 . S
H720 C726 0.930 . S
H721 C730 0.930 . S
H722 C735 0.929 . S
H723 C733 0.929 . S
H724 C728 0.929 . S
H725 C734 0.929 . S
C726 H720 0.930 . S
C726 C727 1.367 . S
C726 C734 1.378 . S
C727 C726 1.367 . S
C727 C735 1.433 . S
C728 H724 0.929 . S
C728 C730 1.378 . S
C728 C732 1.350 . S
C729 C732 1.463 . S
C729 C734 1.350 . S
C729 N737 1.427 . S
C730 H721 0.930 . S
C730 C728 1.378 . S
C730 C731 1.367 . S
C731 C730 1.367 . S
C731 C733 1.433 1_556 S
C732 C728 1.350 . S
C732 C729 1.463 . S
C732 N736 1.427 . S
C733 H723 0.929 . S
C733 C731 1.433 1_554 S
C733 N736 1.384 1_554 S
C734 H725 0.929 . S
C734 C726 1.378 . S
C734 C729 1.350 . S
C735 H722 0.929 . S
C735 C727 1.433 . S
C735 N737 1.384 . S
N736 C732 1.427 . S
N736 C733 1.384 1_556 S
N737 C729 1.427 . S
N737 C735 1.384 . S
H738 C744 0.930 . S
H739 C748 0.930 . S
H740 C753 0.929 . S
H741 C751 0.929 . S
H742 C746 0.929 . S
H743 C752 0.929 . S
C744 H738 0.930 . S
C744 C745 1.367 . S
C744 C752 1.378 . S
C745 C744 1.367 . S
C745 C753 1.433 . S
C746 H742 0.929 . S
C746 C748 1.378 . S
C746 C750 1.350 . S
C747 C750 1.463 . S
C747 C752 1.350 . S
C747 N755 1.427 . S
C748 H739 0.930 . S
C748 C746 1.378 . S
C748 C749 1.367 . S
C749 C748 1.367 . S
C749 C751 1.433 1_556 S
C750 C746 1.350 . S
C750 C747 1.463 . S
C750 N754 1.427 . S
C751 H741 0.929 . S
C751 C749 1.433 1_554 S
C751 N754 1.384 1_554 S
C752 H743 0.929 . S
C752 C744 1.378 . S
C752 C747 1.350 . S
C753 H740 0.929 . S
C753 C745 1.433 . S
C753 N755 1.384 . S
N754 C750 1.427 . S
N754 C751 1.384 1_556 S
N755 C747 1.427 . S
N755 C753 1.384 . S
H756 C762 0.930 . S
H757 C766 0.930 . S
H758 C771 0.929 . S
H759 C769 0.929 . S
H760 C764 0.929 . S
H761 C770 0.929 . S
C762 H756 0.930 . S
C762 C763 1.367 . S
C762 C770 1.378 . S
C763 C762 1.367 . S
C763 C771 1.433 . S
C764 H760 0.929 . S
C764 C766 1.378 . S
C764 C768 1.350 . S
C765 C768 1.463 . S
C765 C770 1.350 . S
C765 N773 1.427 . S
C766 H757 0.930 . S
C766 C764 1.378 . S
C766 C767 1.367 . S
C767 C766 1.367 . S
C767 C769 1.433 . S
C768 C764 1.350 . S
C768 C765 1.463 . S
C768 N772 1.427 . S
C769 H759 0.929 . S
C769 C767 1.433 . S
C769 N772 1.384 . S
C770 H761 0.929 . S
C770 C762 1.378 . S
C770 C765 1.350 . S
C771 H758 0.929 . S
C771 C763 1.433 . S
C771 N773 1.384 . S
N772 C768 1.427 . S
N772 C769 1.384 . S
N773 C765 1.427 . S
N773 C771 1.384 . S
H774 C780 0.930 . S
H775 C784 0.930 . S
H776 C789 0.929 . S
H777 C787 0.929 . S
H778 C782 0.929 . S
H779 C788 0.929 . S
C780 H774 0.930 . S
C780 C781 1.367 . S
C780 C788 1.378 . S
C781 C780 1.367 . S
C781 C789 1.433 . S
C782 H778 0.929 . S
C782 C784 1.378 . S
C782 C786 1.350 . S
C783 C786 1.463 . S
C783 C788 1.350 . S
C783 N791 1.427 . S
C784 H775 0.930 . S
C784 C782 1.378 . S
C784 C785 1.367 . S
C785 C784 1.367 . S
C785 C787 1.433 . S
C786 C782 1.350 . S
C786 C783 1.463 . S
C786 N790 1.427 . S
C787 H777 0.929 . S
C787 C785 1.433 . S
C787 N790 1.384 . S
C788 H779 0.929 . S
C788 C780 1.378 . S
C788 C783 1.350 . S
C789 H776 0.929 . S
C789 C781 1.433 . S
C789 N791 1.384 . S
N790 C786 1.427 . S
N790 C787 1.384 . S
N791 C783 1.427 . S
N791 C789 1.384 . S
H792 C798 0.930 . S
H793 C802 0.930 . S
H794 C807 0.929 . S
H795 C805 0.929 . S
H796 C800 0.929 . S
H797 C806 0.929 . S
C798 H792 0.930 . S
C798 C799 1.367 . S
C798 C806 1.378 . S
C799 C798 1.367 . S
C799 C807 1.433 . S
C800 H796 0.929 . S
C800 C802 1.378 . S
C800 C804 1.350 . S
C801 C804 1.463 . S
C801 C806 1.350 . S
C801 N809 1.427 . S
C802 H793 0.930 . S
C802 C800 1.378 . S
C802 C803 1.367 . S
C803 C802 1.367 . S
C803 C805 1.433 . S
C804 C800 1.350 . S
C804 C801 1.463 . S
C804 N808 1.427 . S
C805 H795 0.929 . S
C805 C803 1.433 . S
C805 N808 1.384 . S
C806 H797 0.929 . S
C806 C798 1.378 . S
C806 C801 1.350 . S
C807 H794 0.929 . S
C807 C799 1.433 . S
C807 N809 1.384 . S
N808 C804 1.427 . S
N808 C805 1.384 . S
N809 C801 1.427 . S
N809 C807 1.384 . S
H810 C816 0.930 . S
H811 C820 0.930 . S
H812 C825 0.929 . S
H813 C823 0.929 . S
H814 C818 0.929 . S
H815 C824 0.929 . S
C816 H810 0.930 . S
C816 C817 1.367 . S
C816 C824 1.378 . S
C817 C816 1.367 . S
C817 C825 1.433 . S
C818 H814 0.929 . S
C818 C820 1.378 . S
C818 C822 1.350 . S
C819 C822 1.463 . S
C819 C824 1.350 . S
C819 N827 1.427 . S
C820 H811 0.930 . S
C820 C818 1.378 . S
C820 C821 1.367 . S
C821 C820 1.367 . S
C821 C823 1.433 . S
C822 C818 1.350 . S
C822 C819 1.463 . S
C822 N826 1.427 . S
C823 H813 0.929 . S
C823 C821 1.433 . S
C823 N826 1.384 . S
C824 H815 0.929 . S
C824 C816 1.378 . S
C824 C819 1.350 . S
C825 H812 0.929 . S
C825 C817 1.433 . S
C825 N827 1.384 . S
N826 C822 1.427 . S
N826 C823 1.384 . S
N827 C819 1.427 . S
N827 C825 1.384 . S
H828 C834 0.930 . S
H829 C838 0.930 . S
H830 C843 0.929 . S
H831 C841 0.929 1_556 S
H832 C836 0.929 . S
H833 C842 0.929 . S
C834 H828 0.930 . S
C834 C835 1.367 . S
C834 C842 1.378 . S
C835 C834 1.367 . S
C835 C843 1.433 . S
C836 H832 0.929 . S
C836 C838 1.378 . S
C836 C840 1.350 . S
C837 C840 1.463 . S
C837 C842 1.350 . S
C837 N845 1.427 . S
C838 H829 0.930 . S
C838 C836 1.378 . S
C838 C839 1.367 . S
C839 C838 1.367 . S
C839 C841 1.433 . S
C840 C836 1.350 . S
C840 C837 1.463 . S
C840 N844 1.427 . S
C841 H831 0.929 1_554 S
C841 C839 1.433 . S
C841 N844 1.384 . S
C842 H833 0.929 . S
C842 C834 1.378 . S
C842 C837 1.350 . S
C843 H830 0.929 . S
C843 C835 1.433 . S
C843 N845 1.384 . S
N844 C840 1.427 . S
N844 C841 1.384 . S
N845 C837 1.427 . S
N845 C843 1.384 . S
H846 C852 0.930 . S
H847 C856 0.930 1_556 S
H848 C861 0.929 . S
H849 C859 0.929 . S
H850 C854 0.929 . S
H851 C860 0.929 . S
C852 H846 0.930 . S
C852 C853 1.367 . S
C852 C860 1.378 . S
C853 C852 1.367 . S
C853 C861 1.433 . S
C854 H850 0.929 . S
C854 C856 1.378 . S
C854 C858 1.350 . S
C855 C858 1.463 . S
C855 C860 1.350 . S
C855 N863 1.427 . S
C856 H847 0.930 1_554 S
C856 C854 1.378 . S
C856 C857 1.367 . S
C857 C856 1.367 . S
C857 C859 1.433 . S
C858 C854 1.350 . S
C858 C855 1.463 . S
C858 N862 1.427 . S
C859 H849 0.929 . S
C859 C857 1.433 . S
C859 N862 1.384 . S
C860 H851 0.929 . S
C860 C852 1.378 . S
C860 C855 1.350 . S
C861 H848 0.929 . S
C861 C853 1.433 . S
C861 N863 1.384 . S
N862 C858 1.427 . S
N862 C859 1.384 . S
N863 C855 1.427 . S
N863 C861 1.384 . S
H864 C870 0.930 . S
H865 C874 0.930 . S
H866 C879 0.929 1_556 S
H867 C877 0.929 . S
H868 C872 0.929 . S
H869 C878 0.929 . S
C870 H864 0.930 . S
C870 C871 1.367 . S
C870 C878 1.378 . S
C871 C870 1.367 . S
C871 C879 1.433 . S
C872 H868 0.929 . S
C872 C874 1.378 . S
C872 C876 1.350 . S
C873 C876 1.463 . S
C873 C878 1.350 . S
C873 N881 1.427 . S
C874 H865 0.930 . S
C874 C872 1.378 . S
C874 C875 1.367 . S
C875 C874 1.367 . S
C875 C877 1.433 . S
C876 C872 1.350 . S
C876 C873 1.463 . S
C876 N880 1.427 . S
C877 H867 0.929 . S
C877 C875 1.433 . S
C877 N880 1.384 . S
C878 H869 0.929 . S
C878 C870 1.378 . S
C878 C873 1.350 . S
C879 H866 0.929 1_554 S
C879 C871 1.433 . S
C879 N881 1.384 . S
N880 C876 1.427 . S
N880 C877 1.384 . S
N881 C873 1.427 . S
N881 C879 1.384 . S
H882 C888 0.930 . S
H883 C892 0.930 . S
H884 C897 0.929 . S
H885 C895 0.929 . S
H886 C890 0.929 . S
H887 C896 0.929 . S
C888 H882 0.930 . S
C888 C889 1.367 . S
C888 C896 1.378 . S
C889 C888 1.367 . S
C889 C897 1.433 . S
C890 H886 0.929 . S
C890 C892 1.378 . S
C890 C894 1.350 . S
C891 C894 1.463 . S
C891 C896 1.350 . S
C891 N899 1.427 . S
C892 H883 0.930 . S
C892 C890 1.378 . S
C892 C893 1.367 . S
C893 C892 1.367 . S
C893 C895 1.433 . S
C894 C890 1.350 . S
C894 C891 1.463 . S
C894 N898 1.427 . S
C895 H885 0.929 . S
C895 C893 1.433 . S
C895 N898 1.384 . S
C896 H887 0.929 . S
C896 C888 1.378 . S
C896 C891 1.350 . S
C897 H884 0.929 . S
C897 C889 1.433 . S
C897 N899 1.384 . S
N898 C894 1.427 . S
N898 C895 1.384 . S
N899 C891 1.427 . S
N899 C897 1.384 . S
H900 C906 0.930 . S
H901 C910 0.930 . S
H902 C915 0.929 . S
H903 C913 0.929 . S
H904 C908 0.929 . S
H905 C914 0.929 . S
C906 H900 0.930 . S
C906 C907 1.367 . S
C906 C914 1.378 . S
C907 C906 1.367 . S
C907 C915 1.433 . S
C908 H904 0.929 . S
C908 C910 1.378 . S
C908 C912 1.350 . S
C909 C912 1.463 . S
C909 C914 1.350 . S
C909 N917 1.427 . S
C910 H901 0.930 . S
C910 C908 1.378 . S
C910 C911 1.367 . S
C911 C910 1.367 . S
C911 C913 1.433 . S
C912 C908 1.350 . S
C912 C909 1.463 . S
C912 N916 1.427 . S
C913 H903 0.929 . S
C913 C911 1.433 . S
C913 N916 1.384 . S
C914 H905 0.929 . S
C914 C906 1.378 . S
C914 C909 1.350 . S
C915 H902 0.929 . S
C915 C907 1.433 . S
C915 N917 1.384 . S
N916 C912 1.427 . S
N916 C913 1.384 . S
N917 C909 1.427 . S
N917 C915 1.384 . S
H918 C924 0.930 . S
H919 C928 0.930 . S
H920 C933 0.929 . S
H921 C931 0.929 . S
H922 C926 0.929 . S
H923 C932 0.929 . S
C924 H918 0.930 . S
C924 C925 1.367 . S
C924 C932 1.378 . S
C925 C924 1.367 . S
C925 C933 1.433 . S
C926 H922 0.929 . S
C926 C928 1.378 . S
C926 C930 1.350 . S
C927 C930 1.463 . S
C927 C932 1.350 . S
C927 N935 1.427 . S
C928 H919 0.930 . S
C928 C926 1.378 . S
C928 C929 1.367 . S
C929 C928 1.367 . S
C929 C931 1.433 . S
C930 C926 1.350 . S
C930 C927 1.463 . S
C930 N934 1.427 . S
C931 H921 0.929 . S
C931 C929 1.433 . S
C931 N934 1.384 . S
C932 H923 0.929 . S
C932 C924 1.378 . S
C932 C927 1.350 . S
C933 H920 0.929 . S
C933 C925 1.433 . S
C933 N935 1.384 . S
N934 C930 1.427 . S
N934 C931 1.384 . S
N935 C927 1.427 . S
N935 C933 1.384 . S
H936 C942 0.930 . S
H937 C946 0.930 . S
H938 C951 0.929 . S
H939 C949 0.929 . S
H940 C944 0.929 . S
H941 C950 0.929 . S
C942 H936 0.930 . S
C942 C943 1.367 . S
C942 C950 1.378 . S
C943 C942 1.367 . S
C943 C951 1.433 . S
C944 H940 0.929 . S
C944 C946 1.378 . S
C944 C948 1.350 . S
C945 C948 1.463 . S
C945 C950 1.350 . S
C945 N953 1.427 . S
C946 H937 0.930 . S
C946 C944 1.378 . S
C946 C947 1.367 . S
C947 C946 1.367 . S
C947 C949 1.433 . S
C948 C944 1.350 . S
C948 C945 1.463 . S
C948 N952 1.427 . S
C949 H939 0.929 . S
C949 C947 1.433 . S
C949 N952 1.384 . S
C950 H941 0.929 . S
C950 C942 1.378 . S
C950 C945 1.350 . S
C951 H938 0.929 . S
C951 C943 1.433 . S
C951 N953 1.384 . S
N952 C948 1.427 . S
N952 C949 1.384 . S
N953 C945 1.427 . S
N953 C951 1.384 . S
H954 C960 0.930 . S
H955 C964 0.930 . S
H956 C969 0.929 . S
H957 C967 0.929 . S
H958 C962 0.929 . S
H959 C968 0.929 . S
C960 H954 0.930 . S
C960 C961 1.367 . S
C960 C968 1.378 . S
C961 C960 1.367 . S
C961 C969 1.433 . S
C962 H958 0.929 . S
C962 C964 1.378 . S
C962 C966 1.350 . S
C963 C966 1.463 1_565 S
C963 C968 1.350 . S
C963 N971 1.427 . S
C964 H955 0.930 . S
C964 C962 1.378 . S
C964 C965 1.367 . S
C965 C964 1.367 . S
C965 C967 1.433 . S
C966 C962 1.350 . S
C966 C963 1.463 1_545 S
C966 N970 1.427 . S
C967 H957 0.929 . S
C967 C965 1.433 . S
C967 N970 1.384 . S
C968 H959 0.929 . S
C968 C960 1.378 . S
C968 C963 1.350 . S
C969 H956 0.929 . S
C969 C961 1.433 . S
C969 N971 1.384 . S
N970 C966 1.427 . S
N970 C967 1.384 . S
N971 C963 1.427 . S
N971 C969 1.384 . S
H972 C978 0.930 . S
H973 C982 0.930 . S
H974 C987 0.929 . S
H975 C985 0.929 . S
H976 C980 0.929 1_655 S
H977 C986 0.929 1_455 S
C978 H972 0.930 . S
C978 C979 1.367 . S
C978 C986 1.378 . S
C979 C978 1.367 . S
C979 C987 1.433 . S
C980 H976 0.929 1_455 S
C980 C982 1.378 . S
C980 C984 1.350 . S
C981 C984 1.463 1_655 S
C981 C986 1.350 . S
C981 N989 1.427 . S
C982 H973 0.930 . S
C982 C980 1.378 . S
C982 C983 1.367 . S
C983 C982 1.367 . S
C983 C985 1.433 . S
C984 C980 1.350 . S
C984 C981 1.463 1_455 S
C984 N988 1.427 . S
C985 H975 0.929 . S
C985 C983 1.433 . S
C985 N988 1.384 . S
C986 H977 0.929 1_655 S
C986 C978 1.378 . S
C986 C981 1.350 . S
C987 H974 0.929 . S
C987 C979 1.433 . S
C987 N989 1.384 . S
N988 C984 1.427 . S
N988 C985 1.384 . S
N989 C981 1.427 . S
N989 C987 1.384 . S
H990 C996 0.930 . S
H991 C1000 0.930 . S
H992 C1005 0.929 . S
H993 C1003 0.929 . S
H994 C998 0.929 . S
H995 C1004 0.929 . S
C996 H990 0.930 . S
C996 C997 1.367 . S
C996 C1004 1.378 . S
C997 C996 1.367 . S
C997 C1005 1.433 . S
C998 H994 0.929 . S
C998 C1000 1.378 . S
C998 C1002 1.350 . S
C999 C1002 1.463 . S
C999 C1004 1.350 . S
C999 N1007 1.427 . S
C1000 H991 0.930 . S
C1000 C998 1.378 . S
C1000 C1001 1.367 . S
C1001 C1000 1.367 . S
C1001 C1003 1.433 . S
C1002 C998 1.350 . S
C1002 C999 1.463 . S
C1002 N1006 1.427 . S
C1003 H993 0.929 . S
C1003 C1001 1.433 . S
C1003 N1006 1.384 . S
C1004 H995 0.929 . S
C1004 C996 1.378 . S
C1004 C999 1.350 . S
C1005 H992 0.929 . S
C1005 C997 1.433 . S
C1005 N1007 1.384 . S
N1006 C1002 1.427 . S
N1006 C1003 1.384 . S
N1007 C999 1.427 . S
N1007 C1005 1.384 . S
H1008 C1014 0.930 . S
H1009 C1018 0.930 . S
H1010 C1023 0.929 . S
H1011 C1021 0.929 . S
H1012 C1016 0.929 . S
H1013 C1022 0.929 . S
C1014 H1008 0.930 . S
C1014 C1015 1.367 . S
C1014 C1022 1.378 . S
C1015 C1014 1.367 . S
C1015 C1023 1.433 . S
C1016 H1012 0.929 . S
C1016 C1018 1.378 . S
C1016 C1020 1.350 . S
C1017 C1020 1.463 1_545 S
C1017 C1022 1.350 . S
C1017 N1025 1.427 . S
C1018 H1009 0.930 . S
C1018 C1016 1.378 . S
C1018 C1019 1.367 . S
C1019 C1018 1.367 . S
C1019 C1021 1.433 . S
C1020 C1016 1.350 . S
C1020 C1017 1.463 1_565 S
C1020 N1024 1.427 . S
C1021 H1011 0.929 . S
C1021 C1019 1.433 . S
C1021 N1024 1.384 . S
C1022 H1013 0.929 . S
C1022 C1014 1.378 . S
C1022 C1017 1.350 . S
C1023 H1010 0.929 . S
C1023 C1015 1.433 . S
C1023 N1025 1.384 . S
N1024 C1020 1.427 . S
N1024 C1021 1.384 . S
N1025 C1017 1.427 . S
N1025 C1023 1.384 . S
H1026 C1032 0.930 . S
H1027 C1036 0.930 . S
H1028 C1041 0.929 . S
H1029 C1039 0.929 . S
H1030 C1034 0.929 . S
H1031 C1040 0.929 . S
C1032 H1026 0.930 . S
C1032 C1033 1.367 . S
C1032 C1040 1.378 . S
C1033 C1032 1.367 . S
C1033 C1041 1.433 . S
C1034 H1030 0.929 . S
C1034 C1036 1.378 . S
C1034 C1038 1.350 . S
C1035 C1038 1.463 1_455 S
C1035 C1040 1.350 . S
C1035 N1043 1.427 . S
C1036 H1027 0.930 . S
C1036 C1034 1.378 . S
C1036 C1037 1.367 . S
C1037 C1036 1.367 . S
C1037 C1039 1.433 . S
C1038 C1034 1.350 . S
C1038 C1035 1.463 1_655 S
C1038 N1042 1.427 . S
C1039 H1029 0.929 . S
C1039 C1037 1.433 . S
C1039 N1042 1.384 . S
C1040 H1031 0.929 . S
C1040 C1032 1.378 . S
C1040 C1035 1.350 . S
C1041 H1028 0.929 . S
C1041 C1033 1.433 . S
C1041 N1043 1.384 . S
N1042 C1038 1.427 . S
N1042 C1039 1.384 . S
N1043 C1035 1.427 . S
N1043 C1041 1.384 . S
H1044 C1050 0.930 . S
H1045 C1054 0.930 . S
H1046 C1059 0.929 1_655 S
H1047 C1057 0.929 1_455 S
H1048 C1052 0.929 . S
H1049 C1058 0.929 . S
C1050 H1044 0.930 . S
C1050 C1051 1.367 . S
C1050 C1058 1.378 . S
C1051 C1050 1.367 . S
C1051 C1059 1.433 . S
C1052 H1048 0.929 . S
C1052 C1054 1.378 . S
C1052 C1056 1.350 . S
C1053 C1056 1.463 1_455 S
C1053 C1058 1.350 . S
C1053 N1061 1.427 1_455 S
C1054 H1045 0.930 . S
C1054 C1052 1.378 . S
C1054 C1055 1.367 . S
C1055 C1054 1.367 . S
C1055 C1057 1.433 . S
C1056 C1052 1.350 . S
C1056 C1053 1.463 1_655 S
C1056 N1060 1.427 1_655 S
C1057 H1047 0.929 1_655 S
C1057 C1055 1.433 . S
C1057 N1060 1.384 1_655 S
C1058 H1049 0.929 . S
C1058 C1050 1.378 . S
C1058 C1053 1.350 . S
C1059 H1046 0.929 1_455 S
C1059 C1051 1.433 . S
C1059 N1061 1.384 1_455 S
N1060 C1056 1.427 1_455 S
N1060 C1057 1.384 1_455 S
N1061 C1053 1.427 1_655 S
N1061 C1059 1.384 1_655 S
H1062 C1068 0.930 . S
H1063 C1072 0.930 . S
H1064 C1077 0.929 . S
H1065 C1075 0.929 . S
H1066 C1070 0.929 . S
H1067 C1076 0.929 . S
C1068 H1062 0.930 . S
C1068 C1069 1.367 . S
C1068 C1076 1.378 . S
C1069 C1068 1.367 . S
C1069 C1077 1.433 . S
C1070 H1066 0.929 . S
C1070 C1072 1.378 . S
C1070 C1074 1.350 . S
C1071 C1074 1.463 . S
C1071 C1076 1.350 . S
C1071 N1079 1.427 . S
C1072 H1063 0.930 . S
C1072 C1070 1.378 . S
C1072 C1073 1.367 . S
C1073 C1072 1.367 . S
C1073 C1075 1.433 . S
C1074 C1070 1.350 . S
C1074 C1071 1.463 . S
C1074 N1078 1.427 . S
C1075 H1065 0.929 . S
C1075 C1073 1.433 . S
C1075 N1078 1.384 . S
C1076 H1067 0.929 . S
C1076 C1068 1.378 . S
C1076 C1071 1.350 . S
C1077 H1064 0.929 . S
C1077 C1069 1.433 . S
C1077 N1079 1.384 . S
N1078 C1074 1.427 . S
N1078 C1075 1.384 . S
N1079 C1071 1.427 . S
N1079 C1077 1.384 . S
H1080 C1086 0.930 . S
H1081 C1090 0.930 . S
H1082 C1095 0.929 . S
H1083 C1093 0.929 . S
H1084 C1088 0.951 . S
H1085 C1094 0.952 . S
C1086 H1080 0.930 . S
C1086 C1087 1.367 . S
C1086 C1094 1.353 1_565 S
C1087 C1086 1.367 . S
C1087 C1095 1.433 . S
C1088 H1084 0.951 . S
C1088 C1090 1.353 1_565 S
C1088 C1092 1.356 1_565 S
C1089 C1092 1.463 1_565 S
C1089 C1094 1.356 1_565 S
C1089 N1097 1.427 . S
C1090 H1081 0.930 . S
C1090 C1088 1.353 1_545 S
C1090 C1091 1.367 . S
C1091 C1090 1.367 . S
C1091 C1093 1.433 . S
C1092 C1088 1.356 1_545 S
C1092 C1089 1.463 1_545 S
C1092 N1096 1.427 . S
C1093 H1083 0.929 . S
C1093 C1091 1.433 . S
C1093 N1096 1.384 . S
C1094 H1085 0.952 . S
C1094 C1086 1.353 1_545 S
C1094 C1089 1.356 1_545 S
C1095 H1082 0.929 . S
C1095 C1087 1.433 . S
C1095 N1097 1.384 . S
N1096 C1092 1.427 . S
N1096 C1093 1.384 . S
N1097 C1089 1.427 . S
N1097 C1095 1.384 . S
H1098 C1104 0.930 . S
H1099 C1108 0.930 . S
H1100 C1113 0.929 . S
H1101 C1111 0.929 . S
H1102 C1106 0.929 . S
H1103 C1112 0.929 . S
C1104 H1098 0.930 . S
C1104 C1105 1.367 . S
C1104 C1112 1.378 . S
C1105 C1104 1.367 . S
C1105 C1113 1.433 . S
C1106 H1102 0.929 . S
C1106 C1108 1.378 . S
C1106 C1110 1.350 . S
C1107 C1110 1.463 1_655 S
C1107 C1112 1.350 . S
C1107 N1115 1.427 . S
C1108 H1099 0.930 . S
C1108 C1106 1.378 . S
C1108 C1109 1.367 . S
C1109 C1108 1.367 . S
C1109 C1111 1.433 . S
C1110 C1106 1.350 . S
C1110 C1107 1.463 1_455 S
C1110 N1114 1.427 . S
C1111 H1101 0.929 . S
C1111 C1109 1.433 . S
C1111 N1114 1.384 . S
C1112 H1103 0.929 . S
C1112 C1104 1.378 . S
C1112 C1107 1.350 . S
C1113 H1100 0.929 . S
C1113 C1105 1.433 . S
C1113 N1115 1.384 . S
N1114 C1110 1.427 . S
N1114 C1111 1.384 . S
N1115 C1107 1.427 . S
N1115 C1113 1.384 . S
H1116 C1122 0.930 . S
H1117 C1126 0.930 . S
H1118 C1131 0.929 . S
H1119 C1129 0.929 . S
H1120 C1124 0.929 . S
H1121 C1130 0.929 . S
C1122 H1116 0.930 . S
C1122 C1123 1.367 . S
C1122 C1130 1.378 . S
C1123 C1122 1.367 . S
C1123 C1131 1.433 . S
C1124 H1120 0.929 . S
C1124 C1126 1.378 . S
C1124 C1128 1.350 . S
C1125 C1128 1.463 . S
C1125 C1130 1.350 . S
C1125 N1133 1.427 . S
C1126 H1117 0.930 . S
C1126 C1124 1.378 . S
C1126 C1127 1.367 . S
C1127 C1126 1.367 . S
C1127 C1129 1.433 . S
C1128 C1124 1.350 . S
C1128 C1125 1.463 . S
C1128 N1132 1.427 . S
C1129 H1119 0.929 . S
C1129 C1127 1.433 . S
C1129 N1132 1.384 . S
C1130 H1121 0.929 . S
C1130 C1122 1.378 . S
C1130 C1125 1.350 . S
C1131 H1118 0.929 . S
C1131 C1123 1.433 . S
C1131 N1133 1.384 . S
N1132 C1128 1.427 . S
N1132 C1129 1.384 . S
N1133 C1125 1.427 . S
N1133 C1131 1.384 . S
H1134 C1140 0.930 . S
H1135 C1144 0.930 . S
H1136 C1149 0.929 1_565 S
H1137 C1147 0.929 1_545 S
H1138 C1142 0.929 . S
H1139 C1148 0.929 . S
C1140 H1134 0.930 . S
C1140 C1141 1.367 . S
C1140 C1148 1.378 . S
C1141 C1140 1.367 . S
C1141 C1149 1.433 . S
C1142 H1138 0.929 . S
C1142 C1144 1.378 . S
C1142 C1146 1.350 . S
C1143 C1146 1.463 1_545 S
C1143 C1148 1.350 . S
C1143 N1151 1.427 1_545 S
C1144 H1135 0.930 . S
C1144 C1142 1.378 . S
C1144 C1145 1.367 . S
C1145 C1144 1.367 . S
C1145 C1147 1.433 . S
C1146 C1142 1.350 . S
C1146 C1143 1.463 1_565 S
C1146 N1150 1.427 1_565 S
C1147 H1137 0.929 1_565 S
C1147 C1145 1.433 . S
C1147 N1150 1.384 1_565 S
C1148 H1139 0.929 . S
C1148 C1140 1.378 . S
C1148 C1143 1.350 . S
C1149 H1136 0.929 1_545 S
C1149 C1141 1.433 . S
C1149 N1151 1.384 1_545 S
N1150 C1146 1.427 1_545 S
N1150 C1147 1.384 1_545 S
N1151 C1143 1.427 1_565 S
N1151 C1149 1.384 1_565 S
H1152 C1158 0.930 . S
H1153 C1162 0.930 . S
H1154 C1167 0.929 . S
H1155 C1165 0.929 . S
H1156 C1160 0.929 . S
H1157 C1166 0.929 . S
C1158 H1152 0.930 . S
C1158 C1159 1.367 . S
C1158 C1166 1.378 . S
C1159 C1158 1.367 . S
C1159 C1167 1.433 . S
C1160 H1156 0.929 . S
C1160 C1162 1.378 . S
C1160 C1164 1.350 . S
C1161 C1164 1.463 . S
C1161 C1166 1.350 . S
C1161 N1169 1.427 . S
C1162 H1153 0.930 . S
C1162 C1160 1.378 . S
C1162 C1163 1.367 . S
C1163 C1162 1.367 . S
C1163 C1165 1.433 . S
C1164 C1160 1.350 . S
C1164 C1161 1.463 . S
C1164 N1168 1.427 . S
C1165 H1155 0.929 . S
C1165 C1163 1.433 . S
C1165 N1168 1.384 . S
C1166 H1157 0.929 . S
C1166 C1158 1.378 . S
C1166 C1161 1.350 . S
C1167 H1154 0.929 . S
C1167 C1159 1.433 . S
C1167 N1169 1.384 . S
N1168 C1164 1.427 . S
N1168 C1165 1.384 . S
N1169 C1161 1.427 . S
N1169 C1167 1.384 . S
H1170 C1176 0.930 1_556 S
H1171 C1180 0.930 . S
H1172 C1185 0.929 . S
H1173 C1183 0.929 . S
H1174 C1178 0.929 . S
H1175 C1184 0.929 . S
C1176 H1170 0.930 1_554 S
C1176 C1177 1.367 . S
C1176 C1184 1.378 . S
C1177 C1176 1.367 . S
C1177 C1185 1.433 . S
C1178 H1174 0.929 . S
C1178 C1180 1.378 . S
C1178 C1182 1.350 . S
C1179 C1182 1.463 . S
C1179 C1184 1.350 . S
C1179 N1187 1.427 . S
C1180 H1171 0.930 . S
C1180 C1178 1.378 . S
C1180 C1181 1.367 . S
C1181 C1180 1.367 . S
C1181 C1183 1.433 . S
C1182 C1178 1.350 . S
C1182 C1179 1.463 . S
C1182 N1186 1.427 . S
C1183 H1173 0.929 . S
C1183 C1181 1.433 . S
C1183 N1186 1.384 . S
C1184 H1175 0.929 . S
C1184 C1176 1.378 . S
C1184 C1179 1.350 . S
C1185 H1172 0.929 . S
C1185 C1177 1.433 . S
C1185 N1187 1.384 . S
N1186 C1182 1.427 . S
N1186 C1183 1.384 . S
N1187 C1179 1.427 . S
N1187 C1185 1.384 . S
H1188 C1194 0.930 . S
H1189 C1198 0.930 . S
H1190 C1203 0.929 . S
H1191 C1201 0.929 1_556 S
H1192 C1196 0.929 . S
H1193 C1202 0.929 . S
C1194 H1188 0.930 . S
C1194 C1195 1.367 . S
C1194 C1202 1.378 . S
C1195 C1194 1.367 . S
C1195 C1203 1.433 . S
C1196 H1192 0.929 . S
C1196 C1198 1.378 . S
C1196 C1200 1.350 . S
C1197 C1200 1.463 . S
C1197 C1202 1.350 . S
C1197 N1205 1.427 . S
C1198 H1189 0.930 . S
C1198 C1196 1.378 . S
C1198 C1199 1.367 . S
C1199 C1198 1.367 . S
C1199 C1201 1.433 . S
C1200 C1196 1.350 . S
C1200 C1197 1.463 . S
C1200 N1204 1.427 . S
C1201 H1191 0.929 1_554 S
C1201 C1199 1.433 . S
C1201 N1204 1.384 . S
C1202 H1193 0.929 . S
C1202 C1194 1.378 . S
C1202 C1197 1.350 . S
C1203 H1190 0.929 . S
C1203 C1195 1.433 . S
C1203 N1205 1.384 . S
N1204 C1200 1.427 . S
N1204 C1201 1.384 . S
N1205 C1197 1.427 . S
N1205 C1203 1.384 . S
H1206 C1212 0.930 . S
H1207 C1216 0.930 . S
H1208 C1221 0.929 . S
H1209 C1219 0.929 . S
H1210 C1214 0.929 . S
H1211 C1220 0.929 . S
C1212 H1206 0.930 . S
C1212 C1213 1.367 . S
C1212 C1220 1.378 . S
C1213 C1212 1.367 . S
C1213 C1221 1.433 . S
C1214 H1210 0.929 . S
C1214 C1216 1.378 . S
C1214 C1218 1.350 . S
C1215 C1218 1.463 . S
C1215 C1220 1.350 . S
C1215 N1223 1.427 . S
C1216 H1207 0.930 . S
C1216 C1214 1.378 . S
C1216 C1217 1.367 . S
C1217 C1216 1.367 . S
C1217 C1219 1.433 . S
C1218 C1214 1.350 . S
C1218 C1215 1.463 . S
C1218 N1222 1.427 . S
C1219 H1209 0.929 . S
C1219 C1217 1.433 . S
C1219 N1222 1.384 . S
C1220 H1211 0.929 . S
C1220 C1212 1.378 . S
C1220 C1215 1.350 . S
C1221 H1208 0.929 . S
C1221 C1213 1.433 . S
C1221 N1223 1.384 . S
N1222 C1218 1.427 . S
N1222 C1219 1.384 . S
N1223 C1215 1.427 . S
N1223 C1221 1.384 . S
H1224 C1230 0.930 . S
H1225 C1234 0.930 . S
H1226 C1239 0.929 . S
H1227 C1237 0.929 . S
H1228 C1232 0.929 . S
H1229 C1238 0.929 . S
C1230 H1224 0.930 . S
C1230 C1231 1.367 . S
C1230 C1238 1.378 . S
C1231 C1230 1.367 . S
C1231 C1239 1.433 . S
C1232 H1228 0.929 . S
C1232 C1234 1.378 . S
C1232 C1236 1.350 . S
C1233 C1236 1.463 . S
C1233 C1238 1.350 . S
C1233 N1241 1.427 . S
C1234 H1225 0.930 . S
C1234 C1232 1.378 . S
C1234 C1235 1.367 . S
C1235 C1234 1.367 . S
C1235 C1237 1.433 . S
C1236 C1232 1.350 . S
C1236 C1233 1.463 . S
C1236 N1240 1.427 . S
C1237 H1227 0.929 . S
C1237 C1235 1.433 . S
C1237 N1240 1.384 . S
C1238 H1229 0.929 . S
C1238 C1230 1.378 . S
C1238 C1233 1.350 . S
C1239 H1226 0.929 . S
C1239 C1231 1.433 . S
C1239 N1241 1.384 . S
N1240 C1236 1.427 . S
N1240 C1237 1.384 . S
N1241 C1233 1.427 . S
N1241 C1239 1.384 . S
H1242 C1248 0.930 . S
H1243 C1252 0.930 . S
H1244 C1257 0.929 . S
H1245 C1255 0.929 . S
H1246 C1250 0.929 . S
H1247 C1256 0.929 . S
C1248 H1242 0.930 . S
C1248 C1249 1.367 . S
C1248 C1256 1.378 . S
C1249 C1248 1.367 . S
C1249 C1257 1.433 . S
C1250 H1246 0.929 . S
C1250 C1252 1.378 . S
C1250 C1254 1.350 . S
C1251 C1254 1.463 . S
C1251 C1256 1.350 . S
C1251 N1259 1.427 . S
C1252 H1243 0.930 . S
C1252 C1250 1.378 . S
C1252 C1253 1.367 . S
C1253 C1252 1.367 . S
C1253 C1255 1.433 . S
C1254 C1250 1.350 . S
C1254 C1251 1.463 . S
C1254 N1258 1.427 . S
C1255 H1245 0.929 . S
C1255 C1253 1.433 . S
C1255 N1258 1.384 . S
C1256 H1247 0.929 . S
C1256 C1248 1.378 . S
C1256 C1251 1.350 . S
C1257 H1244 0.929 . S
C1257 C1249 1.433 . S
C1257 N1259 1.384 . S
N1258 C1254 1.427 . S
N1258 C1255 1.384 . S
N1259 C1251 1.427 . S
N1259 C1257 1.384 . S
H1260 C1266 0.930 . S
H1261 C1270 0.930 . S
H1262 C1275 0.929 . S
H1263 C1273 0.929 . S
H1264 C1268 0.929 . S
H1265 C1274 0.929 . S
C1266 H1260 0.930 . S
C1266 C1267 1.367 . S
C1266 C1274 1.378 . S
C1267 C1266 1.367 . S
C1267 C1275 1.433 . S
C1268 H1264 0.929 . S
C1268 C1270 1.378 . S
C1268 C1272 1.350 . S
C1269 C1272 1.463 . S
C1269 C1274 1.350 . S
C1269 N1277 1.427 . S
C1270 H1261 0.930 . S
C1270 C1268 1.378 . S
C1270 C1271 1.367 . S
C1271 C1270 1.367 . S
C1271 C1273 1.433 . S
C1272 C1268 1.350 . S
C1272 C1269 1.463 . S
C1272 N1276 1.427 . S
C1273 H1263 0.929 . S
C1273 C1271 1.433 . S
C1273 N1276 1.384 . S
C1274 H1265 0.929 . S
C1274 C1266 1.378 . S
C1274 C1269 1.350 . S
C1275 H1262 0.929 . S
C1275 C1267 1.433 . S
C1275 N1277 1.384 . S
N1276 C1272 1.427 . S
N1276 C1273 1.384 . S
N1277 C1269 1.427 . S
N1277 C1275 1.384 . S
H1278 C1284 0.930 . S
H1279 C1288 0.930 . S
H1280 C1293 0.929 . S
H1281 C1291 0.929 . S
H1282 C1286 0.929 . S
H1283 C1292 0.929 . S
C1284 H1278 0.930 . S
C1284 C1285 1.367 . S
C1284 C1292 1.378 . S
C1285 C1284 1.367 . S
C1285 C1293 1.433 . S
C1286 H1282 0.929 . S
C1286 C1288 1.378 . S
C1286 C1290 1.350 . S
C1287 C1290 1.463 . S
C1287 C1292 1.350 . S
C1287 N1295 1.427 . S
C1288 H1279 0.930 . S
C1288 C1286 1.378 . S
C1288 C1289 1.367 . S
C1289 C1288 1.367 . S
C1289 C1291 1.433 . S
C1290 C1286 1.350 . S
C1290 C1287 1.463 . S
C1290 N1294 1.427 . S
C1291 H1281 0.929 . S
C1291 C1289 1.433 . S
C1291 N1294 1.384 . S
C1292 H1283 0.929 . S
C1292 C1284 1.378 . S
C1292 C1287 1.350 . S
C1293 H1280 0.929 . S
C1293 C1285 1.433 . S
C1293 N1295 1.384 . S
N1294 C1290 1.427 . S
N1294 C1291 1.384 . S
N1295 C1287 1.427 . S
N1295 C1293 1.384 . S
H1296 C1302 0.930 . S
H1297 C1306 0.930 . S
H1298 C1311 0.929 . S
H1299 C1309 0.929 . S
H1300 C1304 0.929 . S
H1301 C1310 0.929 . S
C1302 H1296 0.930 . S
C1302 C1303 1.367 . S
C1302 C1310 1.378 . S
C1303 C1302 1.367 . S
C1303 C1311 1.433 . S
C1304 H1300 0.929 . S
C1304 C1306 1.378 . S
C1304 C1308 1.350 . S
C1305 C1308 1.463 . S
C1305 C1310 1.350 . S
C1305 N1313 1.427 . S
C1306 H1297 0.930 . S
C1306 C1304 1.378 . S
C1306 C1307 1.367 . S
C1307 C1306 1.367 . S
C1307 C1309 1.433 . S
C1308 C1304 1.350 . S
C1308 C1305 1.463 . S
C1308 N1312 1.427 . S
C1309 H1299 0.929 . S
C1309 C1307 1.433 . S
C1309 N1312 1.384 . S
C1310 H1301 0.929 . S
C1310 C1302 1.378 . S
C1310 C1305 1.350 . S
C1311 H1298 0.929 . S
C1311 C1303 1.433 . S
C1311 N1313 1.384 . S
N1312 C1308 1.427 . S
N1312 C1309 1.384 . S
N1313 C1305 1.427 . S
N1313 C1311 1.384 . S
H1314 C1320 0.930 . S
H1315 C1324 0.930 . S
H1316 C1329 0.929 . S
H1317 C1327 0.929 . S
H1318 C1322 0.929 . S
H1319 C1328 0.929 . S
C1320 H1314 0.930 . S
C1320 C1321 1.367 . S
C1320 C1328 1.378 . S
C1321 C1320 1.367 . S
C1321 C1329 1.433 . S
C1322 H1318 0.929 . S
C1322 C1324 1.378 1_556 S
C1322 C1326 1.350 . S
C1323 C1326 1.463 . S
C1323 C1328 1.350 . S
C1323 N1331 1.427 . S
C1324 H1315 0.930 . S
C1324 C1322 1.378 1_554 S
C1324 C1325 1.367 . S
C1325 C1324 1.367 . S
C1325 C1327 1.433 . S
C1326 C1322 1.350 . S
C1326 C1323 1.463 . S
C1326 N1330 1.427 . S
C1327 H1317 0.929 . S
C1327 C1325 1.433 . S
C1327 N1330 1.384 1_554 S
C1328 H1319 0.929 . S
C1328 C1320 1.378 . S
C1328 C1323 1.350 . S
C1329 H1316 0.929 . S
C1329 C1321 1.433 . S
C1329 N1331 1.384 . S
N1330 C1326 1.427 . S
N1330 C1327 1.384 1_556 S
N1331 C1323 1.427 . S
N1331 C1329 1.384 . S
H1332 C1338 0.930 . S
H1333 C1342 0.930 . S
H1334 C1347 0.929 . S
H1335 C1345 0.929 . S
H1336 C1340 0.929 . S
H1337 C1346 0.929 . S
C1338 H1332 0.930 . S
C1338 C1339 1.367 . S
C1338 C1346 1.378 . S
C1339 C1338 1.367 . S
C1339 C1347 1.433 . S
C1340 H1336 0.929 . S
C1340 C1342 1.378 . S
C1340 C1344 1.350 . S
C1341 C1344 1.463 . S
C1341 C1346 1.350 . S
C1341 N1349 1.427 . S
C1342 H1333 0.930 . S
C1342 C1340 1.378 . S
C1342 C1343 1.367 1_556 S
C1343 C1342 1.367 1_554 S
C1343 C1345 1.433 . S
C1344 C1340 1.350 . S
C1344 C1341 1.463 . S
C1344 N1348 1.427 . S
C1345 H1335 0.929 . S
C1345 C1343 1.433 . S
C1345 N1348 1.384 1_554 S
C1346 H1337 0.929 . S
C1346 C1338 1.378 . S
C1346 C1341 1.350 . S
C1347 H1334 0.929 . S
C1347 C1339 1.433 . S
C1347 N1349 1.384 . S
N1348 C1344 1.427 . S
N1348 C1345 1.384 1_556 S
N1349 C1341 1.427 . S
N1349 C1347 1.384 . S
H1350 C1356 0.930 . S
H1351 C1360 0.930 . S
H1352 C1365 0.929 . S
H1353 C1363 0.929 . S
H1354 C1358 0.929 . S
H1355 C1364 0.929 . S
C1356 H1350 0.930 . S
C1356 C1357 1.367 . S
C1356 C1364 1.378 . S
C1357 C1356 1.367 . S
C1357 C1365 1.433 . S
C1358 H1354 0.929 . S
C1358 C1360 1.378 1_556 S
C1358 C1362 1.350 . S
C1359 C1362 1.463 . S
C1359 C1364 1.350 . S
C1359 N1367 1.427 . S
C1360 H1351 0.930 . S
C1360 C1358 1.378 1_554 S
C1360 C1361 1.367 . S
C1361 C1360 1.367 . S
C1361 C1363 1.433 . S
C1362 C1358 1.350 . S
C1362 C1359 1.463 . S
C1362 N1366 1.427 . S
C1363 H1353 0.929 . S
C1363 C1361 1.433 . S
C1363 N1366 1.384 1_554 S
C1364 H1355 0.929 . S
C1364 C1356 1.378 . S
C1364 C1359 1.350 . S
C1365 H1352 0.929 . S
C1365 C1357 1.433 . S
C1365 N1367 1.384 . S
N1366 C1362 1.427 . S
N1366 C1363 1.384 1_556 S
N1367 C1359 1.427 . S
N1367 C1365 1.384 . S
H1368 C1374 0.930 . S
H1369 C1378 0.930 . S
H1370 C1383 0.929 . S
H1371 C1381 0.929 . S
H1372 C1376 0.929 . S
H1373 C1382 0.929 . S
C1374 H1368 0.930 . S
C1374 C1375 1.367 . S
C1374 C1382 1.378 . S
C1375 C1374 1.367 . S
C1375 C1383 1.433 . S
C1376 H1372 0.929 . S
C1376 C1378 1.378 . S
C1376 C1380 1.350 . S
C1377 C1380 1.463 . S
C1377 C1382 1.350 . S
C1377 N1385 1.427 . S
C1378 H1369 0.930 . S
C1378 C1376 1.378 . S
C1378 C1379 1.367 . S
C1379 C1378 1.367 . S
C1379 C1381 1.433 . S
C1380 C1376 1.350 . S
C1380 C1377 1.463 . S
C1380 N1384 1.427 . S
C1381 H1371 0.929 . S
C1381 C1379 1.433 . S
C1381 N1384 1.384 . S
C1382 H1373 0.929 . S
C1382 C1374 1.378 . S
C1382 C1377 1.350 . S
C1383 H1370 0.929 . S
C1383 C1375 1.433 . S
C1383 N1385 1.384 . S
N1384 C1380 1.427 . S
N1384 C1381 1.384 . S
N1385 C1377 1.427 . S
N1385 C1383 1.384 . S
H1386 C1392 0.930 . S
H1387 C1396 0.930 . S
H1388 C1401 0.929 . S
H1389 C1399 0.929 . S
H1390 C1394 0.929 . S
H1391 C1400 0.929 . S
C1392 H1386 0.930 . S
C1392 C1393 1.367 . S
C1392 C1400 1.378 . S
C1393 C1392 1.367 . S
C1393 C1401 1.433 . S
C1394 H1390 0.929 . S
C1394 C1396 1.378 . S
C1394 C1398 1.350 . S
C1395 C1398 1.463 . S
C1395 C1400 1.350 . S
C1395 N1403 1.427 . S
C1396 H1387 0.930 . S
C1396 C1394 1.378 . S
C1396 C1397 1.367 . S
C1397 C1396 1.367 . S
C1397 C1399 1.433 . S
C1398 C1394 1.350 . S
C1398 C1395 1.463 . S
C1398 N1402 1.427 . S
C1399 H1389 0.929 . S
C1399 C1397 1.433 . S
C1399 N1402 1.384 . S
C1400 H1391 0.929 . S
C1400 C1392 1.378 . S
C1400 C1395 1.350 . S
C1401 H1388 0.929 . S
C1401 C1393 1.433 . S
C1401 N1403 1.384 . S
N1402 C1398 1.427 . S
N1402 C1399 1.384 . S
N1403 C1395 1.427 . S
N1403 C1401 1.384 . S
H1404 C1410 0.930 . S
H1405 C1414 0.930 . S
H1406 C1419 0.929 . S
H1407 C1417 0.929 . S
H1408 C1412 0.929 . S
H1409 C1418 0.929 . S
C1410 H1404 0.930 . S
C1410 C1411 1.367 . S
C1410 C1418 1.378 . S
C1411 C1410 1.367 . S
C1411 C1419 1.433 . S
C1412 H1408 0.929 . S
C1412 C1414 1.378 . S
C1412 C1416 1.350 . S
C1413 C1416 1.463 . S
C1413 C1418 1.350 . S
C1413 N1421 1.427 . S
C1414 H1405 0.930 . S
C1414 C1412 1.378 . S
C1414 C1415 1.367 . S
C1415 C1414 1.367 . S
C1415 C1417 1.433 . S
C1416 C1412 1.350 . S
C1416 C1413 1.463 . S
C1416 N1420 1.427 . S
C1417 H1407 0.929 . S
C1417 C1415 1.433 . S
C1417 N1420 1.384 . S
C1418 H1409 0.929 . S
C1418 C1410 1.378 . S
C1418 C1413 1.350 . S
C1419 H1406 0.929 . S
C1419 C1411 1.433 . S
C1419 N1421 1.384 . S
N1420 C1416 1.427 . S
N1420 C1417 1.384 . S
N1421 C1413 1.427 . S
N1421 C1419 1.384 . S
H1422 C1428 0.930 . S
H1423 C1432 0.930 . S
H1424 C1437 0.929 . S
H1425 C1435 0.929 . S
H1426 C1430 0.929 . S
H1427 C1436 0.929 . S
C1428 H1422 0.930 . S
C1428 C1429 1.367 . S
C1428 C1436 1.378 . S
C1429 C1428 1.367 . S
C1429 C1437 1.433 . S
C1430 H1426 0.929 . S
C1430 C1432 1.378 . S
C1430 C1434 1.350 . S
C1431 C1434 1.463 . S
C1431 C1436 1.350 . S
C1431 N1439 1.427 . S
C1432 H1423 0.930 . S
C1432 C1430 1.378 . S
C1432 C1433 1.367 . S
C1433 C1432 1.367 . S
C1433 C1435 1.433 . S
C1434 C1430 1.350 . S
C1434 C1431 1.463 . S
C1434 N1438 1.427 . S
C1435 H1425 0.929 . S
C1435 C1433 1.433 . S
C1435 N1438 1.384 . S
C1436 H1427 0.929 . S
C1436 C1428 1.378 . S
C1436 C1431 1.350 . S
C1437 H1424 0.929 . S
C1437 C1429 1.433 . S
C1437 N1439 1.384 . S
N1438 C1434 1.427 . S
N1438 C1435 1.384 . S
N1439 C1431 1.427 . S
N1439 C1437 1.384 . S
H1440 C1446 0.930 . S
H1441 C1450 0.930 . S
H1442 C1455 0.929 . S
H1443 C1453 0.929 . S
H1444 C1448 0.929 . S
H1445 C1454 0.929 . S
C1446 H1440 0.930 . S
C1446 C1447 1.367 . S
C1446 C1454 1.378 . S
C1447 C1446 1.367 . S
C1447 C1455 1.433 . S
C1448 H1444 0.929 . S
C1448 C1450 1.378 . S
C1448 C1452 1.350 . S
C1449 C1452 1.463 . S
C1449 C1454 1.350 . S
C1449 N1457 1.427 . S
C1450 H1441 0.930 . S
C1450 C1448 1.378 . S
C1450 C1451 1.367 . S
C1451 C1450 1.367 . S
C1451 C1453 1.433 . S
C1452 C1448 1.350 . S
C1452 C1449 1.463 . S
C1452 N1456 1.427 . S
C1453 H1443 0.929 . S
C1453 C1451 1.433 . S
C1453 N1456 1.384 . S
C1454 H1445 0.929 . S
C1454 C1446 1.378 . S
C1454 C1449 1.350 . S
C1455 H1442 0.929 . S
C1455 C1447 1.433 . S
C1455 N1457 1.384 . S
N1456 C1452 1.427 . S
N1456 C1453 1.384 . S
N1457 C1449 1.427 . S
N1457 C1455 1.384 . S
H1458 C1464 0.930 . S
H1459 C1468 0.930 . S
H1460 C1473 0.929 . S
H1461 C1471 0.929 . S
H1462 C1466 0.929 . S
H1463 C1472 0.929 . S
C1464 H1458 0.930 . S
C1464 C1465 1.367 . S
C1464 C1472 1.378 . S
C1465 C1464 1.367 . S
C1465 C1473 1.433 . S
C1466 H1462 0.929 . S
C1466 C1468 1.378 . S
C1466 C1470 1.350 . S
C1467 C1470 1.463 . S
C1467 C1472 1.350 . S
C1467 N1475 1.427 . S
C1468 H1459 0.930 . S
C1468 C1466 1.378 . S
C1468 C1469 1.367 . S
C1469 C1468 1.367 . S
C1469 C1471 1.433 . S
C1470 C1466 1.350 . S
C1470 C1467 1.463 . S
C1470 N1474 1.427 . S
C1471 H1461 0.929 . S
C1471 C1469 1.433 . S
C1471 N1474 1.384 . S
C1472 H1463 0.929 . S
C1472 C1464 1.378 . S
C1472 C1467 1.350 . S
C1473 H1460 0.929 . S
C1473 C1465 1.433 . S
C1473 N1475 1.384 . S
N1474 C1470 1.427 . S
N1474 C1471 1.384 . S
N1475 C1467 1.427 . S
N1475 C1473 1.384 . S
H1476 C1482 0.930 . S
H1477 C1486 0.930 . S
H1478 C1491 0.929 . S
H1479 C1489 0.929 . S
H1480 C1484 0.929 . S
H1481 C1490 0.929 . S
C1482 H1476 0.930 . S
C1482 C1483 1.367 . S
C1482 C1490 1.378 . S
C1483 C1482 1.367 . S
C1483 C1491 1.433 . S
C1484 H1480 0.929 . S
C1484 C1486 1.378 . S
C1484 C1488 1.350 . S
C1485 C1488 1.463 . S
C1485 C1490 1.350 . S
C1485 N1493 1.427 . S
C1486 H1477 0.930 . S
C1486 C1484 1.378 . S
C1486 C1487 1.367 . S
C1487 C1486 1.367 . S
C1487 C1489 1.433 . S
C1488 C1484 1.350 . S
C1488 C1485 1.463 . S
C1488 N1492 1.427 . S
C1489 H1479 0.929 . S
C1489 C1487 1.433 . S
C1489 N1492 1.384 . S
C1490 H1481 0.929 . S
C1490 C1482 1.378 . S
C1490 C1485 1.350 . S
C1491 H1478 0.929 . S
C1491 C1483 1.433 . S
C1491 N1493 1.384 . S
N1492 C1488 1.427 . S
N1492 C1489 1.384 . S
N1493 C1485 1.427 . S
N1493 C1491 1.384 . S
H1494 C1500 0.930 . S
H1495 C1504 0.930 . S
H1496 C1509 0.929 . S
H1497 C1507 0.929 . S
H1498 C1502 0.929 . S
H1499 C1508 0.929 . S
C1500 H1494 0.930 . S
C1500 C1501 1.367 . S
C1500 C1508 1.378 . S
C1501 C1500 1.367 . S
C1501 C1509 1.433 . S
C1502 H1498 0.929 . S
C1502 C1504 1.378 . S
C1502 C1506 1.350 . S
C1503 C1506 1.463 . S
C1503 C1508 1.350 . S
C1503 N1511 1.427 . S
C1504 H1495 0.930 . S
C1504 C1502 1.378 . S
C1504 C1505 1.367 . S
C1505 C1504 1.367 . S
C1505 C1507 1.433 . S
C1506 C1502 1.350 . S
C1506 C1503 1.463 . S
C1506 N1510 1.427 . S
C1507 H1497 0.929 . S
C1507 C1505 1.433 . S
C1507 N1510 1.384 . S
C1508 H1499 0.929 . S
C1508 C1500 1.378 . S
C1508 C1503 1.350 . S
C1509 H1496 0.929 . S
C1509 C1501 1.433 . S
C1509 N1511 1.384 . S
N1510 C1506 1.427 . S
N1510 C1507 1.384 . S
N1511 C1503 1.427 . S
N1511 C1509 1.384 . S
H1512 C1518 0.930 . S
H1513 C1522 0.930 . S
H1514 C1527 0.929 . S
H1515 C1525 0.929 . S
H1516 C1520 0.929 . S
H1517 C1526 0.929 . S
C1518 H1512 0.930 . S
C1518 C1519 1.367 . S
C1518 C1526 1.378 . S
C1519 C1518 1.367 . S
C1519 C1527 1.433 . S
C1520 H1516 0.929 . S
C1520 C1522 1.378 . S
C1520 C1524 1.350 . S
C1521 C1524 1.463 . S
C1521 C1526 1.350 . S
C1521 N1529 1.427 . S
C1522 H1513 0.930 . S
C1522 C1520 1.378 . S
C1522 C1523 1.367 . S
C1523 C1522 1.367 . S
C1523 C1525 1.433 . S
C1524 C1520 1.350 . S
C1524 C1521 1.463 . S
C1524 N1528 1.427 . S
C1525 H1515 0.929 . S
C1525 C1523 1.433 . S
C1525 N1528 1.384 . S
C1526 H1517 0.929 . S
C1526 C1518 1.378 . S
C1526 C1521 1.350 . S
C1527 H1514 0.929 . S
C1527 C1519 1.433 . S
C1527 N1529 1.384 . S
N1528 C1524 1.427 . S
N1528 C1525 1.384 . S
N1529 C1521 1.427 . S
N1529 C1527 1.384 . S
H1530 C1536 0.930 . S
H1531 C1540 0.930 . S
H1532 C1545 0.929 . S
H1533 C1543 0.929 . S
H1534 C1538 0.929 . S
H1535 C1544 0.929 . S
C1536 H1530 0.930 . S
C1536 C1537 1.367 . S
C1536 C1544 1.378 . S
C1537 C1536 1.367 . S
C1537 C1545 1.433 . S
C1538 H1534 0.929 . S
C1538 C1540 1.378 . S
C1538 C1542 1.350 . S
C1539 C1542 1.463 . S
C1539 C1544 1.350 . S
C1539 N1547 1.427 . S
C1540 H1531 0.930 . S
C1540 C1538 1.378 . S
C1540 C1541 1.367 . S
C1541 C1540 1.367 . S
C1541 C1543 1.433 . S
C1542 C1538 1.350 . S
C1542 C1539 1.463 . S
C1542 N1546 1.427 . S
C1543 H1533 0.929 . S
C1543 C1541 1.433 . S
C1543 N1546 1.384 . S
C1544 H1535 0.929 . S
C1544 C1536 1.378 . S
C1544 C1539 1.350 . S
C1545 H1532 0.929 . S
C1545 C1537 1.433 . S
C1545 N1547 1.384 . S
N1546 C1542 1.427 . S
N1546 C1543 1.384 . S
N1547 C1539 1.427 . S
N1547 C1545 1.384 . S
H1548 C1554 0.930 . S
H1549 C1558 0.930 . S
H1550 C1563 0.929 . S
H1551 C1561 0.929 . S
H1552 C1556 0.929 . S
H1553 C1562 0.929 . S
C1554 H1548 0.930 . S
C1554 C1555 1.367 . S
C1554 C1562 1.378 . S
C1555 C1554 1.367 . S
C1555 C1563 1.433 . S
C1556 H1552 0.929 . S
C1556 C1558 1.378 . S
C1556 C1560 1.350 . S
C1557 C1560 1.463 . S
C1557 C1562 1.350 . S
C1557 N1565 1.427 . S
C1558 H1549 0.930 . S
C1558 C1556 1.378 . S
C1558 C1559 1.367 . S
C1559 C1558 1.367 . S
C1559 C1561 1.433 . S
C1560 C1556 1.350 . S
C1560 C1557 1.463 . S
C1560 N1564 1.427 . S
C1561 H1551 0.929 . S
C1561 C1559 1.433 . S
C1561 N1564 1.384 . S
C1562 H1553 0.929 . S
C1562 C1554 1.378 . S
C1562 C1557 1.350 . S
C1563 H1550 0.929 . S
C1563 C1555 1.433 . S
C1563 N1565 1.384 . S
N1564 C1560 1.427 . S
N1564 C1561 1.384 . S
N1565 C1557 1.427 . S
N1565 C1563 1.384 . S
H1566 C1572 0.930 . S
H1567 C1576 0.930 . S
H1568 C1581 0.929 . S
H1569 C1579 0.929 . S
H1570 C1574 0.929 . S
H1571 C1580 0.929 . S
C1572 H1566 0.930 . S
C1572 C1573 1.367 . S
C1572 C1580 1.378 . S
C1573 C1572 1.367 . S
C1573 C1581 1.433 . S
C1574 H1570 0.929 . S
C1574 C1576 1.378 . S
C1574 C1578 1.350 . S
C1575 C1578 1.463 . S
C1575 C1580 1.350 . S
C1575 N1583 1.427 . S
C1576 H1567 0.930 . S
C1576 C1574 1.378 . S
C1576 C1577 1.367 . S
C1577 C1576 1.367 . S
C1577 C1579 1.433 . S
C1578 C1574 1.350 . S
C1578 C1575 1.463 . S
C1578 N1582 1.427 . S
C1579 H1569 0.929 . S
C1579 C1577 1.433 . S
C1579 N1582 1.384 . S
C1580 H1571 0.929 . S
C1580 C1572 1.378 . S
C1580 C1575 1.350 . S
C1581 H1568 0.929 . S
C1581 C1573 1.433 . S
C1581 N1583 1.384 . S
N1582 C1578 1.427 . S
N1582 C1579 1.384 . S
N1583 C1575 1.427 . S
N1583 C1581 1.384 . S
H1584 C1590 0.930 . S
H1585 C1594 0.930 . S
H1586 C1599 0.929 1_556 S
H1587 C1597 0.929 . S
H1588 C1592 0.929 . S
H1589 C1598 0.929 . S
C1590 H1584 0.930 . S
C1590 C1591 1.367 . S
C1590 C1598 1.378 . S
C1591 C1590 1.367 . S
C1591 C1599 1.433 . S
C1592 H1588 0.929 . S
C1592 C1594 1.378 . S
C1592 C1596 1.350 . S
C1593 C1596 1.463 . S
C1593 C1598 1.350 . S
C1593 N1601 1.427 . S
C1594 H1585 0.930 . S
C1594 C1592 1.378 . S
C1594 C1595 1.367 . S
C1595 C1594 1.367 . S
C1595 C1597 1.433 . S
C1596 C1592 1.350 . S
C1596 C1593 1.463 . S
C1596 N1600 1.427 . S
C1597 H1587 0.929 . S
C1597 C1595 1.433 . S
C1597 N1600 1.384 . S
C1598 H1589 0.929 . S
C1598 C1590 1.378 . S
C1598 C1593 1.350 . S
C1599 H1586 0.929 1_554 S
C1599 C1591 1.433 . S
C1599 N1601 1.384 . S
N1600 C1596 1.427 . S
N1600 C1597 1.384 . S
N1601 C1593 1.427 . S
N1601 C1599 1.384 . S
H1602 C1608 0.930 . S
H1603 C1612 0.930 . S
H1604 C1617 0.929 . S
H1605 C1615 0.929 . S
H1606 C1610 0.929 . S
H1607 C1616 0.929 . S
C1608 H1602 0.930 . S
C1608 C1609 1.367 . S
C1608 C1616 1.378 . S
C1609 C1608 1.367 . S
C1609 C1617 1.433 . S
C1610 H1606 0.929 . S
C1610 C1612 1.378 . S
C1610 C1614 1.350 . S
C1611 C1614 1.463 . S
C1611 C1616 1.350 . S
C1611 N1619 1.427 . S
C1612 H1603 0.930 . S
C1612 C1610 1.378 . S
C1612 C1613 1.367 . S
C1613 C1612 1.367 . S
C1613 C1615 1.433 . S
C1614 C1610 1.350 . S
C1614 C1611 1.463 . S
C1614 N1618 1.427 . S
C1615 H1605 0.929 . S
C1615 C1613 1.433 . S
C1615 N1618 1.384 . S
C1616 H1607 0.929 . S
C1616 C1608 1.378 . S
C1616 C1611 1.350 . S
C1617 H1604 0.929 . S
C1617 C1609 1.433 . S
C1617 N1619 1.384 . S
N1618 C1614 1.427 . S
N1618 C1615 1.384 . S
N1619 C1611 1.427 . S
N1619 C1617 1.384 . S
H1620 C1626 0.930 1_556 S
H1621 C1630 0.930 . S
H1622 C1635 0.929 . S
H1623 C1633 0.929 . S
H1624 C1628 0.929 . S
H1625 C1634 0.929 . S
C1626 H1620 0.930 1_554 S
C1626 C1627 1.367 . S
C1626 C1634 1.378 . S
C1627 C1626 1.367 . S
C1627 C1635 1.433 . S
C1628 H1624 0.929 . S
C1628 C1630 1.378 . S
C1628 C1632 1.350 . S
C1629 C1632 1.463 . S
C1629 C1634 1.350 . S
C1629 N1637 1.427 . S
C1630 H1621 0.930 . S
C1630 C1628 1.378 . S
C1630 C1631 1.367 . S
C1631 C1630 1.367 . S
C1631 C1633 1.433 . S
C1632 C1628 1.350 . S
C1632 C1629 1.463 . S
C1632 N1636 1.427 . S
C1633 H1623 0.929 . S
C1633 C1631 1.433 . S
C1633 N1636 1.384 . S
C1634 H1625 0.929 . S
C1634 C1626 1.378 . S
C1634 C1629 1.350 . S
C1635 H1622 0.929 . S
C1635 C1627 1.433 . S
C1635 N1637 1.384 . S
N1636 C1632 1.427 . S
N1636 C1633 1.384 . S
N1637 C1629 1.427 . S
N1637 C1635 1.384 . S
H1638 C1644 0.930 . S
H1639 C1648 0.930 1_556 S
H1640 C1653 0.929 . S
H1641 C1651 0.929 . S
H1642 C1646 0.929 . S
H1643 C1652 0.929 . S
C1644 H1638 0.930 . S
C1644 C1645 1.367 . S
C1644 C1652 1.378 . S
C1645 C1644 1.367 . S
C1645 C1653 1.433 . S
C1646 H1642 0.929 . S
C1646 C1648 1.378 . S
C1646 C1650 1.350 . S
C1647 C1650 1.463 . S
C1647 C1652 1.350 . S
C1647 N1655 1.427 . S
C1648 H1639 0.930 1_554 S
C1648 C1646 1.378 . S
C1648 C1649 1.367 . S
C1649 C1648 1.367 . S
C1649 C1651 1.433 . S
C1650 C1646 1.350 . S
C1650 C1647 1.463 . S
C1650 N1654 1.427 . S
C1651 H1641 0.929 . S
C1651 C1649 1.433 . S
C1651 N1654 1.384 . S
C1652 H1643 0.929 . S
C1652 C1644 1.378 . S
C1652 C1647 1.350 . S
C1653 H1640 0.929 . S
C1653 C1645 1.433 . S
C1653 N1655 1.384 . S
N1654 C1650 1.427 . S
N1654 C1651 1.384 . S
N1655 C1647 1.427 . S
N1655 C1653 1.384 . S
H1656 C1662 0.930 1_556 S
H1657 C1666 0.930 . S
H1658 C1671 0.929 . S
H1659 C1669 0.929 . S
H1660 C1664 0.929 . S
H1661 C1670 0.929 . S
C1662 H1656 0.930 1_554 S
C1662 C1663 1.367 . S
C1662 C1670 1.378 . S
C1663 C1662 1.367 . S
C1663 C1671 1.433 . S
C1664 H1660 0.929 . S
C1664 C1666 1.378 . S
C1664 C1668 1.350 . S
C1665 C1668 1.463 . S
C1665 C1670 1.350 . S
C1665 N1673 1.427 . S
C1666 H1657 0.930 . S
C1666 C1664 1.378 . S
C1666 C1667 1.367 . S
C1667 C1666 1.367 . S
C1667 C1669 1.433 . S
C1668 C1664 1.350 . S
C1668 C1665 1.463 . S
C1668 N1672 1.427 . S
C1669 H1659 0.929 . S
C1669 C1667 1.433 . S
C1669 N1672 1.384 . S
C1670 H1661 0.929 . S
C1670 C1662 1.378 . S
C1670 C1665 1.350 . S
C1671 H1658 0.929 . S
C1671 C1663 1.433 . S
C1671 N1673 1.384 . S
N1672 C1668 1.427 . S
N1672 C1669 1.384 . S
N1673 C1665 1.427 . S
N1673 C1671 1.384 . S
H1674 C1680 0.930 . S
H1675 C1684 0.930 . S
H1676 C1689 0.929 . S
H1677 C1687 0.929 . S
H1678 C1682 0.929 . S
H1679 C1688 0.929 . S
C1680 H1674 0.930 . S
C1680 C1681 1.367 . S
C1680 C1688 1.378 . S
C1681 C1680 1.367 . S
C1681 C1689 1.433 . S
C1682 H1678 0.929 . S
C1682 C1684 1.378 . S
C1682 C1686 1.350 . S
C1683 C1686 1.463 . S
C1683 C1688 1.350 . S
C1683 N1691 1.427 . S
C1684 H1675 0.930 . S
C1684 C1682 1.378 . S
C1684 C1685 1.367 . S
C1685 C1684 1.367 . S
C1685 C1687 1.433 . S
C1686 C1682 1.350 . S
C1686 C1683 1.463 . S
C1686 N1690 1.427 . S
C1687 H1677 0.929 . S
C1687 C1685 1.433 . S
C1687 N1690 1.384 . S
C1688 H1679 0.929 . S
C1688 C1680 1.378 . S
C1688 C1683 1.350 . S
C1689 H1676 0.929 . S
C1689 C1681 1.433 . S
C1689 N1691 1.384 . S
N1690 C1686 1.427 . S
N1690 C1687 1.384 . S
N1691 C1683 1.427 . S
N1691 C1689 1.384 . S
H1692 C1698 0.930 . S
H1693 C1702 0.930 . S
H1694 C1707 0.929 . S
H1695 C1705 0.929 . S
H1696 C1700 0.929 . S
H1697 C1706 0.929 . S
C1698 H1692 0.930 . S
C1698 C1699 1.367 . S
C1698 C1706 1.378 . S
C1699 C1698 1.367 . S
C1699 C1707 1.433 . S
C1700 H1696 0.929 . S
C1700 C1702 1.378 . S
C1700 C1704 1.350 . S
C1701 C1704 1.463 . S
C1701 C1706 1.350 . S
C1701 N1709 1.427 . S
C1702 H1693 0.930 . S
C1702 C1700 1.378 . S
C1702 C1703 1.367 . S
C1703 C1702 1.367 . S
C1703 C1705 1.433 . S
C1704 C1700 1.350 . S
C1704 C1701 1.463 . S
C1704 N1708 1.427 . S
C1705 H1695 0.929 . S
C1705 C1703 1.433 . S
C1705 N1708 1.384 . S
C1706 H1697 0.929 . S
C1706 C1698 1.378 . S
C1706 C1701 1.350 . S
C1707 H1694 0.929 . S
C1707 C1699 1.433 . S
C1707 N1709 1.384 . S
N1708 C1704 1.427 . S
N1708 C1705 1.384 . S
N1709 C1701 1.427 . S
N1709 C1707 1.384 . S
H1710 C1716 0.930 . S
H1711 C1720 0.930 . S
H1712 C1725 0.929 . S
H1713 C1723 0.929 . S
H1714 C1718 0.929 . S
H1715 C1724 0.929 . S
C1716 H1710 0.930 . S
C1716 C1717 1.367 . S
C1716 C1724 1.378 . S
C1717 C1716 1.367 . S
C1717 C1725 1.433 . S
C1718 H1714 0.929 . S
C1718 C1720 1.378 . S
C1718 C1722 1.350 . S
C1719 C1722 1.463 . S
C1719 C1724 1.350 . S
C1719 N1727 1.427 . S
C1720 H1711 0.930 . S
C1720 C1718 1.378 . S
C1720 C1721 1.367 . S
C1721 C1720 1.367 . S
C1721 C1723 1.433 . S
C1722 C1718 1.350 . S
C1722 C1719 1.463 . S
C1722 N1726 1.427 . S
C1723 H1713 0.929 . S
C1723 C1721 1.433 . S
C1723 N1726 1.384 . S
C1724 H1715 0.929 . S
C1724 C1716 1.378 . S
C1724 C1719 1.350 . S
C1725 H1712 0.929 . S
C1725 C1717 1.433 . S
C1725 N1727 1.384 . S
N1726 C1722 1.427 . S
N1726 C1723 1.384 . S
N1727 C1719 1.427 . S
N1727 C1725 1.384 . S
H1728 C1734 0.930 . S
H1729 C1738 0.930 . S
H1730 C1743 0.929 . S
H1731 C1741 0.929 . S
H1732 C1736 0.929 . S
H1733 C1742 0.929 . S
C1734 H1728 0.930 . S
C1734 C1735 1.367 . S
C1734 C1742 1.378 . S
C1735 C1734 1.367 . S
C1735 C1743 1.433 . S
C1736 H1732 0.929 . S
C1736 C1738 1.378 . S
C1736 C1740 1.350 . S
C1737 C1740 1.463 . S
C1737 C1742 1.350 . S
C1737 N1745 1.427 . S
C1738 H1729 0.930 . S
C1738 C1736 1.378 . S
C1738 C1739 1.367 . S
C1739 C1738 1.367 . S
C1739 C1741 1.433 . S
C1740 C1736 1.350 . S
C1740 C1737 1.463 . S
C1740 N1744 1.427 . S
C1741 H1731 0.929 . S
C1741 C1739 1.433 . S
C1741 N1744 1.384 . S
C1742 H1733 0.929 . S
C1742 C1734 1.378 . S
C1742 C1737 1.350 . S
C1743 H1730 0.929 . S
C1743 C1735 1.433 . S
C1743 N1745 1.384 . S
N1744 C1740 1.427 . S
N1744 C1741 1.384 . S
N1745 C1737 1.427 . S
N1745 C1743 1.384 . S
H1746 C1752 0.930 . S
H1747 C1756 0.930 . S
H1748 C1761 0.929 . S
H1749 C1759 0.929 . S
H1750 C1754 0.929 . S
H1751 C1760 0.929 . S
C1752 H1746 0.930 . S
C1752 C1753 1.367 . S
C1752 C1760 1.378 . S
C1753 C1752 1.367 . S
C1753 C1761 1.433 . S
C1754 H1750 0.929 . S
C1754 C1756 1.378 . S
C1754 C1758 1.350 . S
C1755 C1758 1.463 . S
C1755 C1760 1.350 . S
C1755 N1763 1.427 . S
C1756 H1747 0.930 . S
C1756 C1754 1.378 . S
C1756 C1757 1.367 . S
C1757 C1756 1.367 . S
C1757 C1759 1.433 . S
C1758 C1754 1.350 . S
C1758 C1755 1.463 . S
C1758 N1762 1.427 . S
C1759 H1749 0.929 . S
C1759 C1757 1.433 . S
C1759 N1762 1.384 . S
C1760 H1751 0.929 . S
C1760 C1752 1.378 . S
C1760 C1755 1.350 . S
C1761 H1748 0.929 . S
C1761 C1753 1.433 . S
C1761 N1763 1.384 . S
N1762 C1758 1.427 . S
N1762 C1759 1.384 . S
N1763 C1755 1.427 . S
N1763 C1761 1.384 . S
H1764 C1770 0.930 . S
H1765 C1774 0.930 . S
H1766 C1779 0.929 . S
H1767 C1777 0.929 . S
H1768 C1772 0.929 . S
H1769 C1778 0.929 . S
C1770 H1764 0.930 . S
C1770 C1771 1.367 . S
C1770 C1778 1.378 . S
C1771 C1770 1.367 . S
C1771 C1779 1.433 . S
C1772 H1768 0.929 . S
C1772 C1774 1.378 . S
C1772 C1776 1.350 . S
C1773 C1776 1.463 . S
C1773 C1778 1.350 . S
C1773 N1781 1.427 . S
C1774 H1765 0.930 . S
C1774 C1772 1.378 . S
C1774 C1775 1.367 . S
C1775 C1774 1.367 . S
C1775 C1777 1.433 . S
C1776 C1772 1.350 . S
C1776 C1773 1.463 . S
C1776 N1780 1.427 . S
C1777 H1767 0.929 . S
C1777 C1775 1.433 . S
C1777 N1780 1.384 . S
C1778 H1769 0.929 . S
C1778 C1770 1.378 . S
C1778 C1773 1.350 . S
C1779 H1766 0.929 . S
C1779 C1771 1.433 . S
C1779 N1781 1.384 . S
N1780 C1776 1.427 . S
N1780 C1777 1.384 . S
N1781 C1773 1.427 . S
N1781 C1779 1.384 . S
H1782 C1788 0.930 . S
H1783 C1792 0.930 . S
H1784 C1797 0.929 . S
H1785 C1795 0.929 . S
H1786 C1790 0.929 . S
H1787 C1796 0.929 . S
C1788 H1782 0.930 . S
C1788 C1789 1.367 . S
C1788 C1796 1.378 . S
C1789 C1788 1.367 . S
C1789 C1797 1.433 . S
C1790 H1786 0.929 . S
C1790 C1792 1.378 . S
C1790 C1794 1.350 . S
C1791 C1794 1.463 . S
C1791 C1796 1.350 . S
C1791 N1799 1.427 . S
C1792 H1783 0.930 . S
C1792 C1790 1.378 . S
C1792 C1793 1.367 . S
C1793 C1792 1.367 . S
C1793 C1795 1.433 . S
C1794 C1790 1.350 . S
C1794 C1791 1.463 . S
C1794 N1798 1.427 . S
C1795 H1785 0.929 . S
C1795 C1793 1.433 . S
C1795 N1798 1.384 . S
C1796 H1787 0.929 . S
C1796 C1788 1.378 . S
C1796 C1791 1.350 . S
C1797 H1784 0.929 . S
C1797 C1789 1.433 . S
C1797 N1799 1.384 . S
N1798 C1794 1.427 . S
N1798 C1795 1.384 . S
N1799 C1791 1.427 . S
N1799 C1797 1.384 . S
H1800 C1806 0.930 . S
H1801 C1810 0.930 . S
H1802 C1815 0.929 . S
H1803 C1813 0.929 . S
H1804 C1808 0.929 . S
H1805 C1814 0.929 . S
C1806 H1800 0.930 . S
C1806 C1807 1.367 . S
C1806 C1814 1.378 . S
C1807 C1806 1.367 . S
C1807 C1815 1.433 . S
C1808 H1804 0.929 . S
C1808 C1810 1.378 . S
C1808 C1812 1.350 . S
C1809 C1812 1.463 . S
C1809 C1814 1.350 . S
C1809 N1817 1.427 . S
C1810 H1801 0.930 . S
C1810 C1808 1.378 . S
C1810 C1811 1.367 . S
C1811 C1810 1.367 . S
C1811 C1813 1.433 . S
C1812 C1808 1.350 . S
C1812 C1809 1.463 . S
C1812 N1816 1.427 . S
C1813 H1803 0.929 . S
C1813 C1811 1.433 . S
C1813 N1816 1.384 . S
C1814 H1805 0.929 . S
C1814 C1806 1.378 . S
C1814 C1809 1.350 . S
C1815 H1802 0.929 . S
C1815 C1807 1.433 . S
C1815 N1817 1.384 . S
N1816 C1812 1.427 . S
N1816 C1813 1.384 . S
N1817 C1809 1.427 . S
N1817 C1815 1.384 . S
H1818 C1824 0.930 . S
H1819 C1828 0.930 . S
H1820 C1833 0.929 . S
H1821 C1831 0.929 . S
H1822 C1826 0.929 . S
H1823 C1832 0.929 . S
C1824 H1818 0.930 . S
C1824 C1825 1.367 . S
C1824 C1832 1.378 . S
C1825 C1824 1.367 . S
C1825 C1833 1.433 . S
C1826 H1822 0.929 . S
C1826 C1828 1.378 . S
C1826 C1830 1.350 . S
C1827 C1830 1.463 . S
C1827 C1832 1.350 . S
C1827 N1835 1.427 . S
C1828 H1819 0.930 . S
C1828 C1826 1.378 . S
C1828 C1829 1.367 . S
C1829 C1828 1.367 . S
C1829 C1831 1.433 . S
C1830 C1826 1.350 . S
C1830 C1827 1.463 . S
C1830 N1834 1.427 . S
C1831 H1821 0.929 . S
C1831 C1829 1.433 . S
C1831 N1834 1.384 . S
C1832 H1823 0.929 . S
C1832 C1824 1.378 . S
C1832 C1827 1.350 . S
C1833 H1820 0.929 . S
C1833 C1825 1.433 . S
C1833 N1835 1.384 . S
N1834 C1830 1.427 . S
N1834 C1831 1.384 . S
N1835 C1827 1.427 . S
N1835 C1833 1.384 . S
H1836 C1842 0.930 . S
H1837 C1846 0.930 . S
H1838 C1851 0.929 . S
H1839 C1849 0.929 . S
H1840 C1844 0.929 . S
H1841 C1850 0.929 . S
C1842 H1836 0.930 . S
C1842 C1843 1.367 . S
C1842 C1850 1.378 . S
C1843 C1842 1.367 . S
C1843 C1851 1.433 . S
C1844 H1840 0.929 . S
C1844 C1846 1.378 . S
C1844 C1848 1.350 . S
C1845 C1848 1.463 . S
C1845 C1850 1.350 . S
C1845 N1853 1.427 . S
C1846 H1837 0.930 . S
C1846 C1844 1.378 . S
C1846 C1847 1.367 . S
C1847 C1846 1.367 . S
C1847 C1849 1.433 . S
C1848 C1844 1.350 . S
C1848 C1845 1.463 . S
C1848 N1852 1.427 . S
C1849 H1839 0.929 . S
C1849 C1847 1.433 . S
C1849 N1852 1.384 . S
C1850 H1841 0.929 . S
C1850 C1842 1.378 . S
C1850 C1845 1.350 . S
C1851 H1838 0.929 . S
C1851 C1843 1.433 . S
C1851 N1853 1.384 . S
N1852 C1848 1.427 . S
N1852 C1849 1.384 . S
N1853 C1845 1.427 . S
N1853 C1851 1.384 . S
H1854 C1860 0.930 . S
H1855 C1864 0.930 . S
H1856 C1869 0.929 . S
H1857 C1867 0.929 . S
H1858 C1862 0.929 . S
H1859 C1868 0.929 . S
C1860 H1854 0.930 . S
C1860 C1861 1.367 . S
C1860 C1868 1.378 . S
C1861 C1860 1.367 . S
C1861 C1869 1.433 . S
C1862 H1858 0.929 . S
C1862 C1864 1.378 . S
C1862 C1866 1.350 . S
C1863 C1866 1.463 . S
C1863 C1868 1.350 . S
C1863 N1871 1.427 . S
C1864 H1855 0.930 . S
C1864 C1862 1.378 . S
C1864 C1865 1.367 . S
C1865 C1864 1.367 . S
C1865 C1867 1.433 . S
C1866 C1862 1.350 . S
C1866 C1863 1.463 . S
C1866 N1870 1.427 . S
C1867 H1857 0.929 . S
C1867 C1865 1.433 . S
C1867 N1870 1.384 . S
C1868 H1859 0.929 . S
C1868 C1860 1.378 . S
C1868 C1863 1.350 . S
C1869 H1856 0.929 . S
C1869 C1861 1.433 . S
C1869 N1871 1.384 . S
N1870 C1866 1.427 . S
N1870 C1867 1.384 . S
N1871 C1863 1.427 . S
N1871 C1869 1.384 . S
H1872 C1878 0.930 . S
H1873 C1882 0.930 . S
H1874 C1887 0.929 . S
H1875 C1885 0.929 . S
H1876 C1880 0.929 . S
H1877 C1886 0.929 . S
C1878 H1872 0.930 . S
C1878 C1879 1.367 . S
C1878 C1886 1.378 . S
C1879 C1878 1.367 . S
C1879 C1887 1.433 . S
C1880 H1876 0.929 . S
C1880 C1882 1.378 . S
C1880 C1884 1.350 . S
C1881 C1884 1.463 . S
C1881 C1886 1.350 . S
C1881 N1889 1.427 . S
C1882 H1873 0.930 . S
C1882 C1880 1.378 . S
C1882 C1883 1.367 . S
C1883 C1882 1.367 . S
C1883 C1885 1.433 . S
C1884 C1880 1.350 . S
C1884 C1881 1.463 . S
C1884 N1888 1.427 . S
C1885 H1875 0.929 . S
C1885 C1883 1.433 . S
C1885 N1888 1.384 . S
C1886 H1877 0.929 . S
C1886 C1878 1.378 . S
C1886 C1881 1.350 . S
C1887 H1874 0.929 . S
C1887 C1879 1.433 . S
C1887 N1889 1.384 . S
N1888 C1884 1.427 . S
N1888 C1885 1.384 . S
N1889 C1881 1.427 . S
N1889 C1887 1.384 . S
H1890 C1896 0.930 . S
H1891 C1900 0.930 . S
H1892 C1905 0.929 . S
H1893 C1903 0.929 . S
H1894 C1898 0.929 . S
H1895 C1904 0.929 . S
C1896 H1890 0.930 . S
C1896 C1897 1.367 . S
C1896 C1904 1.378 . S
C1897 C1896 1.367 . S
C1897 C1905 1.433 . S
C1898 H1894 0.929 . S
C1898 C1900 1.378 . S
C1898 C1902 1.350 . S
C1899 C1902 1.463 . S
C1899 C1904 1.350 . S
C1899 N1907 1.427 . S
C1900 H1891 0.930 . S
C1900 C1898 1.378 . S
C1900 C1901 1.367 . S
C1901 C1900 1.367 . S
C1901 C1903 1.433 . S
C1902 C1898 1.350 . S
C1902 C1899 1.463 . S
C1902 N1906 1.427 . S
C1903 H1893 0.929 . S
C1903 C1901 1.433 . S
C1903 N1906 1.384 . S
C1904 H1895 0.929 . S
C1904 C1896 1.378 . S
C1904 C1899 1.350 . S
C1905 H1892 0.929 . S
C1905 C1897 1.433 . S
C1905 N1907 1.384 . S
N1906 C1902 1.427 . S
N1906 C1903 1.384 . S
N1907 C1899 1.427 . S
N1907 C1905 1.384 . S
H1908 C1914 0.930 . S
H1909 C1918 0.930 . S
H1910 C1923 0.929 . S
H1911 C1921 0.929 . S
H1912 C1916 0.929 . S
H1913 C1922 0.929 . S
C1914 H1908 0.930 . S
C1914 C1915 1.367 . S
C1914 C1922 1.378 . S
C1915 C1914 1.367 . S
C1915 C1923 1.433 . S
C1916 H1912 0.929 . S
C1916 C1918 1.378 . S
C1916 C1920 1.350 . S
C1917 C1920 1.463 . S
C1917 C1922 1.350 . S
C1917 N1925 1.427 . S
C1918 H1909 0.930 . S
C1918 C1916 1.378 . S
C1918 C1919 1.367 1_556 S
C1919 C1918 1.367 1_554 S
C1919 C1921 1.433 . S
C1920 C1916 1.350 . S
C1920 C1917 1.463 . S
C1920 N1924 1.427 . S
C1921 H1911 0.929 . S
C1921 C1919 1.433 . S
C1921 N1924 1.384 1_554 S
C1922 H1913 0.929 . S
C1922 C1914 1.378 . S
C1922 C1917 1.350 . S
C1923 H1910 0.929 . S
C1923 C1915 1.433 . S
C1923 N1925 1.384 . S
N1924 C1920 1.427 . S
N1924 C1921 1.384 1_556 S
N1925 C1917 1.427 . S
N1925 C1923 1.384 . S
H1926 C1932 0.930 . S
H1927 C1936 0.930 . S
H1928 C1941 0.929 . S
H1929 C1939 0.929 . S
H1930 C1934 0.929 . S
H1931 C1940 0.929 . S
C1932 H1926 0.930 . S
C1932 C1933 1.367 1_556 S
C1932 C1940 1.378 . S
C1933 C1932 1.367 1_554 S
C1933 C1941 1.433 . S
C1934 H1930 0.929 . S
C1934 C1936 1.378 . S
C1934 C1938 1.350 . S
C1935 C1938 1.463 . S
C1935 C1940 1.350 . S
C1935 N1943 1.435 . S
C1936 H1927 0.930 . S
C1936 C1934 1.378 . S
C1936 C1937 1.367 . S
C1937 C1936 1.367 . S
C1937 C1939 1.433 . S
C1938 C1934 1.350 . S
C1938 C1935 1.463 . S
C1938 N1942 1.427 . S
C1939 H1929 0.929 . S
C1939 C1937 1.433 . S
C1939 N1942 1.384 . S
C1940 H1931 0.929 . S
C1940 C1932 1.378 . S
C1940 C1935 1.350 . S
C1941 H1928 0.929 . S
C1941 C1933 1.433 . S
C1941 N1943 1.376 1_554 S
N1942 C1938 1.427 . S
N1942 C1939 1.384 . S
N1943 C1935 1.435 . S
N1943 C1941 1.376 1_556 S
H1944 C1950 0.930 . S
H1945 C1954 0.930 . S
H1946 C1959 0.929 . S
H1947 C1957 0.929 . S
H1948 C1952 0.929 . S
H1949 C1958 0.929 . S
C1950 H1944 0.930 . S
C1950 C1951 1.367 . S
C1950 C1958 1.378 . S
C1951 C1950 1.367 . S
C1951 C1959 1.433 . S
C1952 H1948 0.929 . S
C1952 C1954 1.378 1_556 S
C1952 C1956 1.350 . S
C1953 C1956 1.463 . S
C1953 C1958 1.350 . S
C1953 N1961 1.427 . S
C1954 H1945 0.930 . S
C1954 C1952 1.378 1_554 S
C1954 C1955 1.367 . S
C1955 C1954 1.367 . S
C1955 C1957 1.433 . S
C1956 C1952 1.350 . S
C1956 C1953 1.463 . S
C1956 N1960 1.427 . S
C1957 H1947 0.929 . S
C1957 C1955 1.433 . S
C1957 N1960 1.384 1_554 S
C1958 H1949 0.929 . S
C1958 C1950 1.378 . S
C1958 C1953 1.350 . S
C1959 H1946 0.929 . S
C1959 C1951 1.433 . S
C1959 N1961 1.384 . S
N1960 C1956 1.427 . S
N1960 C1957 1.384 1_556 S
N1961 C1953 1.427 . S
N1961 C1959 1.384 . S
H1962 C1968 0.930 . S
H1963 C1972 0.930 . S
H1964 C1977 0.929 . S
H1965 C1975 0.929 . S
H1966 C1970 0.929 . S
H1967 C1976 0.929 . S
C1968 H1962 0.930 . S
C1968 C1969 1.367 . S
C1968 C1976 1.378 1_554 S
C1969 C1968 1.367 . S
C1969 C1977 1.433 . S
C1970 H1966 0.929 . S
C1970 C1972 1.378 . S
C1970 C1974 1.350 . S
C1971 C1974 1.463 . S
C1971 C1976 1.350 . S
C1971 N1979 1.427 . S
C1972 H1963 0.930 . S
C1972 C1970 1.378 . S
C1972 C1973 1.367 . S
C1973 C1972 1.367 . S
C1973 C1975 1.433 . S
C1974 C1970 1.350 . S
C1974 C1971 1.463 . S
C1974 N1978 1.427 . S
C1975 H1965 0.929 . S
C1975 C1973 1.433 . S
C1975 N1978 1.384 . S
C1976 H1967 0.929 . S
C1976 C1968 1.378 1_556 S
C1976 C1971 1.350 . S
C1977 H1964 0.929 . S
C1977 C1969 1.433 . S
C1977 N1979 1.384 1_554 S
N1978 C1974 1.427 . S
N1978 C1975 1.384 . S
N1979 C1971 1.427 . S
N1979 C1977 1.384 1_556 S
H1980 C1986 0.930 . S
H1981 C1990 0.930 . S
H1982 C1995 0.929 . S
H1983 C1993 0.929 . S
H1984 C1988 0.929 . S
H1985 C1994 0.929 . S
C1986 H1980 0.930 . S
C1986 C1987 1.367 . S
C1986 C1994 1.378 . S
C1987 C1986 1.367 . S
C1987 C1995 1.433 . S
C1988 H1984 0.929 . S
C1988 C1990 1.378 1_556 S
C1988 C1992 1.350 . S
C1989 C1992 1.463 . S
C1989 C1994 1.350 . S
C1989 N1997 1.427 . S
C1990 H1981 0.930 . S
C1990 C1988 1.378 1_554 S
C1990 C1991 1.367 . S
C1991 C1990 1.367 . S
C1991 C1993 1.433 1_554 S
C1992 C1988 1.350 . S
C1992 C1989 1.463 . S
C1992 N1996 1.427 . S
C1993 H1983 0.929 . S
C1993 C1991 1.433 1_556 S
C1993 N1996 1.384 . S
C1994 H1985 0.929 . S
C1994 C1986 1.378 . S
C1994 C1989 1.350 . S
C1995 H1982 0.929 . S
C1995 C1987 1.433 . S
C1995 N1997 1.384 . S
N1996 C1992 1.427 . S
N1996 C1993 1.384 . S
N1997 C1989 1.427 . S
N1997 C1995 1.384 . S
H1998 C2004 0.930 . S
H1999 C2008 0.930 . S
H2000 C2013 0.929 . S
H2001 C2011 0.929 1_554 S
H2002 C2006 0.929 . S
H2003 C2012 0.929 . S
C2004 H1998 0.930 . S
C2004 C2005 1.367 . S
C2004 C2012 1.378 . S
C2005 C2004 1.367 . S
C2005 C2013 1.433 . S
C2006 H2002 0.929 . S
C2006 C2008 1.378 1_556 S
C2006 C2010 1.350 . S
C2007 C2010 1.463 . S
C2007 C2012 1.350 . S
C2007 N2015 1.427 . S
C2008 H1999 0.930 . S
C2008 C2006 1.378 1_554 S
C2008 C2009 1.367 . S
C2009 C2008 1.367 . S
C2009 C2011 1.433 1_554 S
C2010 C2006 1.350 . S
C2010 C2007 1.463 . S
C2010 N2014 1.427 . S
C2011 H2001 0.929 1_556 S
C2011 C2009 1.433 1_556 S
C2011 N2014 1.384 . S
C2012 H2003 0.929 . S
C2012 C2004 1.378 . S
C2012 C2007 1.350 . S
C2013 H2000 0.929 . S
C2013 C2005 1.433 . S
C2013 N2015 1.384 . S
N2014 C2010 1.427 . S
N2014 C2011 1.384 . S
N2015 C2007 1.427 . S
N2015 C2013 1.384 . S
H2016 C2022 0.930 . S
H2017 C2026 0.930 . S
H2018 C2031 0.929 . S
H2019 C2029 0.929 . S
H2020 C2024 0.929 . S
H2021 C2030 0.929 . S
C2022 H2016 0.930 . S
C2022 C2023 1.367 . S
C2022 C2030 1.378 . S
C2023 C2022 1.367 . S
C2023 C2031 1.433 . S
C2024 H2020 0.929 . S
C2024 C2026 1.378 . S
C2024 C2028 1.350 . S
C2025 C2028 1.463 1_455 S
C2025 C2030 1.350 . S
C2025 N2033 1.427 . S
C2026 H2017 0.930 . S
C2026 C2024 1.378 . S
C2026 C2027 1.367 . S
C2027 C2026 1.367 . S
C2027 C2029 1.433 . S
C2028 C2024 1.350 . S
C2028 C2025 1.463 1_655 S
C2028 N2032 1.427 . S
C2029 H2019 0.929 . S
C2029 C2027 1.433 . S
C2029 N2032 1.384 . S
C2030 H2021 0.929 . S
C2030 C2022 1.378 . S
C2030 C2025 1.350 . S
C2031 H2018 0.929 . S
C2031 C2023 1.433 . S
C2031 N2033 1.384 . S
N2032 C2028 1.427 . S
N2032 C2029 1.384 . S
N2033 C2025 1.427 . S
N2033 C2031 1.384 . S
H2034 C2040 0.930 . S
H2035 C2044 0.930 . S
H2036 C2049 0.929 . S
H2037 C2047 0.929 . S
H2038 C2042 0.929 . S
H2039 C2048 0.929 . S
C2040 H2034 0.930 . S
C2040 C2041 1.367 . S
C2040 C2048 1.378 . S
C2041 C2040 1.367 . S
C2041 C2049 1.433 . S
C2042 H2038 0.929 . S
C2042 C2044 1.378 . S
C2042 C2046 1.350 . S
C2043 C2046 1.463 . S
C2043 C2048 1.350 . S
C2043 N2051 1.427 . S
C2044 H2035 0.930 . S
C2044 C2042 1.378 . S
C2044 C2045 1.367 . S
C2045 C2044 1.367 . S
C2045 C2047 1.433 . S
C2046 C2042 1.350 . S
C2046 C2043 1.463 . S
C2046 N2050 1.427 . S
C2047 H2037 0.929 . S
C2047 C2045 1.433 . S
C2047 N2050 1.384 . S
C2048 H2039 0.929 . S
C2048 C2040 1.378 . S
C2048 C2043 1.350 . S
C2049 H2036 0.929 . S
C2049 C2041 1.433 . S
C2049 N2051 1.384 . S
N2050 C2046 1.427 . S
N2050 C2047 1.384 . S
N2051 C2043 1.427 . S
N2051 C2049 1.384 . S
H2052 C2058 0.930 . S
H2053 C2062 0.930 . S
H2054 C2067 0.922 1_545 S
H2055 C2065 0.922 1_565 S
H2056 C2060 0.929 . S
H2057 C2066 0.929 . S
C2058 H2052 0.930 . S
C2058 C2059 1.367 . S
C2058 C2066 1.378 . S
C2059 C2058 1.367 . S
C2059 C2067 1.433 . S
C2060 H2056 0.929 . S
C2060 C2062 1.378 . S
C2060 C2064 1.350 . S
C2061 C2064 1.463 1_565 S
C2061 C2066 1.350 . S
C2061 N2069 1.427 1_565 S
C2062 H2053 0.930 . S
C2062 C2060 1.378 . S
C2062 C2063 1.367 . S
C2063 C2062 1.367 . S
C2063 C2065 1.433 . S
C2064 C2060 1.350 . S
C2064 C2061 1.463 1_545 S
C2064 N2068 1.427 1_545 S
C2065 H2055 0.922 1_545 S
C2065 C2063 1.433 . S
C2065 N2068 1.384 1_545 S
C2066 H2057 0.929 . S
C2066 C2058 1.378 . S
C2066 C2061 1.350 . S
C2067 H2054 0.922 1_565 S
C2067 C2059 1.433 . S
C2067 N2069 1.384 1_565 S
N2068 C2064 1.427 1_565 S
N2068 C2065 1.384 1_565 S
N2069 C2061 1.427 1_545 S
N2069 C2067 1.384 1_545 S
H2070 C2076 0.930 . S
H2071 C2080 0.930 . S
H2072 C2085 0.929 . S
H2073 C2083 0.929 . S
H2074 C2078 0.929 . S
H2075 C2084 0.929 . S
C2076 H2070 0.930 . S
C2076 C2077 1.367 . S
C2076 C2084 1.378 . S
C2077 C2076 1.367 . S
C2077 C2085 1.433 . S
C2078 H2074 0.929 . S
C2078 C2080 1.378 . S
C2078 C2082 1.350 . S
C2079 C2082 1.463 1_655 S
C2079 C2084 1.350 . S
C2079 N2087 1.427 . S
C2080 H2071 0.930 . S
C2080 C2078 1.378 . S
C2080 C2081 1.367 . S
C2081 C2080 1.367 . S
C2081 C2083 1.433 . S
C2082 C2078 1.350 . S
C2082 C2079 1.463 1_455 S
C2082 N2086 1.427 . S
C2083 H2073 0.929 . S
C2083 C2081 1.433 . S
C2083 N2086 1.384 . S
C2084 H2075 0.929 . S
C2084 C2076 1.378 . S
C2084 C2079 1.350 . S
C2085 H2072 0.929 . S
C2085 C2077 1.433 . S
C2085 N2087 1.384 . S
N2086 C2082 1.427 . S
N2086 C2083 1.384 . S
N2087 C2079 1.427 . S
N2087 C2085 1.384 . S
H2088 C2094 0.930 . S
H2089 C2098 0.930 . S
H2090 C2103 0.929 . S
H2091 C2101 0.929 . S
H2092 C2096 0.929 . S
H2093 C2102 0.929 . S
C2094 H2088 0.930 . S
C2094 C2095 1.367 . S
C2094 C2102 1.378 . S
C2095 C2094 1.367 . S
C2095 C2103 1.433 . S
C2096 H2092 0.929 . S
C2096 C2098 1.378 . S
C2096 C2100 1.350 . S
C2097 C2100 1.463 . S
C2097 C2102 1.350 . S
C2097 N2105 1.427 . S
C2098 H2089 0.930 . S
C2098 C2096 1.378 . S
C2098 C2099 1.367 . S
C2099 C2098 1.367 . S
C2099 C2101 1.433 . S
C2100 C2096 1.350 . S
C2100 C2097 1.463 . S
C2100 N2104 1.427 . S
C2101 H2091 0.929 . S
C2101 C2099 1.433 . S
C2101 N2104 1.384 . S
C2102 H2093 0.929 . S
C2102 C2094 1.378 . S
C2102 C2097 1.350 . S
C2103 H2090 0.929 . S
C2103 C2095 1.433 . S
C2103 N2105 1.384 . S
N2104 C2100 1.427 . S
N2104 C2101 1.384 . S
N2105 C2097 1.427 . S
N2105 C2103 1.384 . S
H2106 C2112 0.931 1_565 S
H2107 C2116 0.931 1_545 S
H2108 C2121 0.929 . S
H2109 C2119 0.929 . S
H2110 C2114 0.929 . S
H2111 C2120 0.929 . S
C2112 H2106 0.931 1_545 S
C2112 C2113 1.367 . S
C2112 C2120 1.378 1_545 S
C2113 C2112 1.367 . S
C2113 C2121 1.433 . S
C2114 H2110 0.929 . S
C2114 C2116 1.378 1_545 S
C2114 C2118 1.350 1_545 S
C2115 C2118 1.463 1_545 S
C2115 C2120 1.350 1_545 S
C2115 N2123 1.427 . S
C2116 H2107 0.931 1_565 S
C2116 C2114 1.378 1_565 S
C2116 C2117 1.367 . S
C2117 C2116 1.367 . S
C2117 C2119 1.433 . S
C2118 C2114 1.350 1_565 S
C2118 C2115 1.463 1_565 S
C2118 N2122 1.427 . S
C2119 H2109 0.929 . S
C2119 C2117 1.433 . S
C2119 N2122 1.384 . S
C2120 H2111 0.929 . S
C2120 C2112 1.378 1_565 S
C2120 C2115 1.350 1_565 S
C2121 H2108 0.929 . S
C2121 C2113 1.433 . S
C2121 N2123 1.384 . S
N2122 C2118 1.427 . S
N2122 C2119 1.384 . S
N2123 C2115 1.427 . S
N2123 C2121 1.384 . S
H2124 C2130 0.930 . S
H2125 C2134 0.930 . S
H2126 C2139 0.929 . S
H2127 C2137 0.929 . S
H2128 C2132 0.929 . S
H2129 C2138 0.929 . S
C2130 H2124 0.930 . S
C2130 C2131 1.367 . S
C2130 C2138 1.378 . S
C2131 C2130 1.367 . S
C2131 C2139 1.433 . S
C2132 H2128 0.929 . S
C2132 C2134 1.378 . S
C2132 C2136 1.350 . S
C2133 C2136 1.463 . S
C2133 C2138 1.350 . S
C2133 N2141 1.427 . S
C2134 H2125 0.930 . S
C2134 C2132 1.378 . S
C2134 C2135 1.367 . S
C2135 C2134 1.367 . S
C2135 C2137 1.433 . S
C2136 C2132 1.350 . S
C2136 C2133 1.463 . S
C2136 N2140 1.427 . S
C2137 H2127 0.929 . S
C2137 C2135 1.433 . S
C2137 N2140 1.384 . S
C2138 H2129 0.929 . S
C2138 C2130 1.378 . S
C2138 C2133 1.350 . S
C2139 H2126 0.929 . S
C2139 C2131 1.433 . S
C2139 N2141 1.384 . S
N2140 C2136 1.427 . S
N2140 C2137 1.384 . S
N2141 C2133 1.427 . S
N2141 C2139 1.384 . S
H2142 C2148 0.930 . S
H2143 C2152 0.930 . S
H2144 C2157 0.929 . S
H2145 C2155 0.929 . S
H2146 C2150 0.929 . S
H2147 C2156 0.929 . S
C2148 H2142 0.930 . S
C2148 C2149 1.367 . S
C2148 C2156 1.378 . S
C2149 C2148 1.367 . S
C2149 C2157 1.433 . S
C2150 H2146 0.929 . S
C2150 C2152 1.378 . S
C2150 C2154 1.350 . S
C2151 C2154 1.463 . S
C2151 C2156 1.350 . S
C2151 N2159 1.427 . S
C2152 H2143 0.930 . S
C2152 C2150 1.378 . S
C2152 C2153 1.367 . S
C2153 C2152 1.367 . S
C2153 C2155 1.433 . S
C2154 C2150 1.350 . S
C2154 C2151 1.463 . S
C2154 N2158 1.427 . S
C2155 H2145 0.929 . S
C2155 C2153 1.433 . S
C2155 N2158 1.384 . S
C2156 H2147 0.929 . S
C2156 C2148 1.378 . S
C2156 C2151 1.350 . S
C2157 H2144 0.929 . S
C2157 C2149 1.433 . S
C2157 N2159 1.384 . S
N2158 C2154 1.427 . S
N2158 C2155 1.384 . S
N2159 C2151 1.427 . S
N2159 C2157 1.384 . S
H2160 C2166 0.930 . S
H2161 C2170 0.930 . S
H2162 C2175 0.929 . S
H2163 C2173 0.929 . S
H2164 C2168 0.929 . S
H2165 C2174 0.929 . S
C2166 H2160 0.930 . S
C2166 C2167 1.367 . S
C2166 C2174 1.378 . S
C2167 C2166 1.367 . S
C2167 C2175 1.433 . S
C2168 H2164 0.929 . S
C2168 C2170 1.378 . S
C2168 C2172 1.350 . S
C2169 C2172 1.463 . S
C2169 C2174 1.350 . S
C2169 N2177 1.427 . S
C2170 H2161 0.930 . S
C2170 C2168 1.378 . S
C2170 C2171 1.367 . S
C2171 C2170 1.367 . S
C2171 C2173 1.433 . S
C2172 C2168 1.350 . S
C2172 C2169 1.463 . S
C2172 N2176 1.427 . S
C2173 H2163 0.929 . S
C2173 C2171 1.433 . S
C2173 N2176 1.384 . S
C2174 H2165 0.929 . S
C2174 C2166 1.378 . S
C2174 C2169 1.350 . S
C2175 H2162 0.929 . S
C2175 C2167 1.433 . S
C2175 N2177 1.384 . S
N2176 C2172 1.427 . S
N2176 C2173 1.384 . S
N2177 C2169 1.427 . S
N2177 C2175 1.384 . S
H2178 C2184 0.930 . S
H2179 C2188 0.930 . S
H2180 C2193 0.929 . S
H2181 C2191 0.929 . S
H2182 C2186 0.929 . S
H2183 C2192 0.929 . S
C2184 H2178 0.930 . S
C2184 C2185 1.367 . S
C2184 C2192 1.378 . S
C2185 C2184 1.367 . S
C2185 C2193 1.433 . S
C2186 H2182 0.929 . S
C2186 C2188 1.378 . S
C2186 C2190 1.350 . S
C2187 C2190 1.463 . S
C2187 C2192 1.350 . S
C2187 N2195 1.427 . S
C2188 H2179 0.930 . S
C2188 C2186 1.378 . S
C2188 C2189 1.367 . S
C2189 C2188 1.367 . S
C2189 C2191 1.433 . S
C2190 C2186 1.350 . S
C2190 C2187 1.463 . S
C2190 N2194 1.427 . S
C2191 H2181 0.929 . S
C2191 C2189 1.433 . S
C2191 N2194 1.384 . S
C2192 H2183 0.929 . S
C2192 C2184 1.378 . S
C2192 C2187 1.350 . S
C2193 H2180 0.929 . S
C2193 C2185 1.433 . S
C2193 N2195 1.384 . S
N2194 C2190 1.427 . S
N2194 C2191 1.384 . S
N2195 C2187 1.427 . S
N2195 C2193 1.384 . S
H2196 C2202 0.930 . S
H2197 C2206 0.930 . S
H2198 C2211 0.929 . S
H2199 C2209 0.929 . S
H2200 C2204 0.929 . S
H2201 C2210 0.929 . S
C2202 H2196 0.930 . S
C2202 C2203 1.367 . S
C2202 C2210 1.378 . S
C2203 C2202 1.367 . S
C2203 C2211 1.433 . S
C2204 H2200 0.929 . S
C2204 C2206 1.378 . S
C2204 C2208 1.350 . S
C2205 C2208 1.463 . S
C2205 C2210 1.350 . S
C2205 N2213 1.427 . S
C2206 H2197 0.930 . S
C2206 C2204 1.378 . S
C2206 C2207 1.367 . S
C2207 C2206 1.367 . S
C2207 C2209 1.433 . S
C2208 C2204 1.350 . S
C2208 C2205 1.463 . S
C2208 N2212 1.427 . S
C2209 H2199 0.929 . S
C2209 C2207 1.433 . S
C2209 N2212 1.384 . S
C2210 H2201 0.929 . S
C2210 C2202 1.378 . S
C2210 C2205 1.350 . S
C2211 H2198 0.929 . S
C2211 C2203 1.433 . S
C2211 N2213 1.384 . S
N2212 C2208 1.427 . S
N2212 C2209 1.384 . S
N2213 C2205 1.427 . S
N2213 C2211 1.384 . S
H2214 C2220 0.930 . S
H2215 C2224 0.930 . S
H2216 C2229 0.929 1_556 S
H2217 C2227 0.929 . S
H2218 C2222 0.929 . S
H2219 C2228 0.929 . S
C2220 H2214 0.930 . S
C2220 C2221 1.367 . S
C2220 C2228 1.378 . S
C2221 C2220 1.367 . S
C2221 C2229 1.433 . S
C2222 H2218 0.929 . S
C2222 C2224 1.378 . S
C2222 C2226 1.350 . S
C2223 C2226 1.463 . S
C2223 C2228 1.350 . S
C2223 N2231 1.427 . S
C2224 H2215 0.930 . S
C2224 C2222 1.378 . S
C2224 C2225 1.367 . S
C2225 C2224 1.367 . S
C2225 C2227 1.433 . S
C2226 C2222 1.350 . S
C2226 C2223 1.463 . S
C2226 N2230 1.427 . S
C2227 H2217 0.929 . S
C2227 C2225 1.433 . S
C2227 N2230 1.384 . S
C2228 H2219 0.929 . S
C2228 C2220 1.378 . S
C2228 C2223 1.350 . S
C2229 H2216 0.929 1_554 S
C2229 C2221 1.433 . S
C2229 N2231 1.384 . S
N2230 C2226 1.427 . S
N2230 C2227 1.384 . S
N2231 C2223 1.427 . S
N2231 C2229 1.384 . S
H2232 C2238 0.930 . S
H2233 C2242 0.930 . S
H2234 C2247 0.929 . S
H2235 C2245 0.929 . S
H2236 C2240 0.929 . S
H2237 C2246 0.929 . S
C2238 H2232 0.930 . S
C2238 C2239 1.367 . S
C2238 C2246 1.378 1_554 S
C2239 C2238 1.367 . S
C2239 C2247 1.433 . S
C2240 H2236 0.929 . S
C2240 C2242 1.378 . S
C2240 C2244 1.350 . S
C2241 C2244 1.463 . S
C2241 C2246 1.350 . S
C2241 N2249 1.427 . S
C2242 H2233 0.930 . S
C2242 C2240 1.378 . S
C2242 C2243 1.367 . S
C2243 C2242 1.367 . S
C2243 C2245 1.433 . S
C2244 C2240 1.350 . S
C2244 C2241 1.463 . S
C2244 N2248 1.427 . S
C2245 H2235 0.929 . S
C2245 C2243 1.433 . S
C2245 N2248 1.384 . S
C2246 H2237 0.929 . S
C2246 C2238 1.378 1_556 S
C2246 C2241 1.350 . S
C2247 H2234 0.929 . S
C2247 C2239 1.433 . S
C2247 N2249 1.384 1_554 S
N2248 C2244 1.427 . S
N2248 C2245 1.384 . S
N2249 C2241 1.427 . S
N2249 C2247 1.384 1_556 S
H2250 C2256 0.930 . S
H2251 C2260 0.930 . S
H2252 C2265 0.929 . S
H2253 C2263 0.929 . S
H2254 C2258 0.929 . S
H2255 C2264 0.929 . S
C2256 H2250 0.930 . S
C2256 C2257 1.367 . S
C2256 C2264 1.378 . S
C2257 C2256 1.367 . S
C2257 C2265 1.433 . S
C2258 H2254 0.929 . S
C2258 C2260 1.378 1_556 S
C2258 C2262 1.350 . S
C2259 C2262 1.463 . S
C2259 C2264 1.350 . S
C2259 N2267 1.427 . S
C2260 H2251 0.930 . S
C2260 C2258 1.378 1_554 S
C2260 C2261 1.367 . S
C2261 C2260 1.367 . S
C2261 C2263 1.433 . S
C2262 C2258 1.350 . S
C2262 C2259 1.463 . S
C2262 N2266 1.427 . S
C2263 H2253 0.929 . S
C2263 C2261 1.433 . S
C2263 N2266 1.384 1_554 S
C2264 H2255 0.929 . S
C2264 C2256 1.378 . S
C2264 C2259 1.350 . S
C2265 H2252 0.929 . S
C2265 C2257 1.433 . S
C2265 N2267 1.384 . S
N2266 C2262 1.427 . S
N2266 C2263 1.384 1_556 S
N2267 C2259 1.427 . S
N2267 C2265 1.384 . S
H2268 C2274 0.930 . S
H2269 C2278 0.930 . S
H2270 C2283 0.929 . S
H2271 C2281 0.929 . S
H2272 C2276 0.929 . S
H2273 C2282 0.929 . S
C2274 H2268 0.930 . S
C2274 C2275 1.367 . S
C2274 C2282 1.378 . S
C2275 C2274 1.367 . S
C2275 C2283 1.433 . S
C2276 H2272 0.929 . S
C2276 C2278 1.378 1_556 S
C2276 C2280 1.350 . S
C2277 C2280 1.463 . S
C2277 C2282 1.350 . S
C2277 N2285 1.427 . S
C2278 H2269 0.930 . S
C2278 C2276 1.378 1_554 S
C2278 C2279 1.367 . S
C2279 C2278 1.367 . S
C2279 C2281 1.433 . S
C2280 C2276 1.350 . S
C2280 C2277 1.463 . S
C2280 N2284 1.427 . S
C2281 H2271 0.929 . S
C2281 C2279 1.433 . S
C2281 N2284 1.384 1_554 S
C2282 H2273 0.929 . S
C2282 C2274 1.378 . S
C2282 C2277 1.350 . S
C2283 H2270 0.929 . S
C2283 C2275 1.433 . S
C2283 N2285 1.384 . S
N2284 C2280 1.427 . S
N2284 C2281 1.384 1_556 S
N2285 C2277 1.427 . S
N2285 C2283 1.384 . S
H2286 C2292 0.930 . S
H2287 C2296 0.930 . S
H2288 C2301 0.929 . S
H2289 C2299 0.929 . S
H2290 C2294 0.929 . S
H2291 C2300 0.929 . S
C2292 H2286 0.930 . S
C2292 C2293 1.367 . S
C2292 C2300 1.378 . S
C2293 C2292 1.367 . S
C2293 C2301 1.433 . S
C2294 H2290 0.929 . S
C2294 C2296 1.378 . S
C2294 C2298 1.350 . S
C2295 C2298 1.463 . S
C2295 C2300 1.350 . S
C2295 N2303 1.427 . S
C2296 H2287 0.930 . S
C2296 C2294 1.378 . S
C2296 C2297 1.367 . S
C2297 C2296 1.367 . S
C2297 C2299 1.433 . S
C2298 C2294 1.350 . S
C2298 C2295 1.463 . S
C2298 N2302 1.427 . S
C2299 H2289 0.929 . S
C2299 C2297 1.433 . S
C2299 N2302 1.384 . S
C2300 H2291 0.929 . S
C2300 C2292 1.378 . S
C2300 C2295 1.350 . S
C2301 H2288 0.929 . S
C2301 C2293 1.433 . S
C2301 N2303 1.384 . S
N2302 C2298 1.427 . S
N2302 C2299 1.384 . S
N2303 C2295 1.427 . S
N2303 C2301 1.384 . S
H2304 C2310 0.930 . S
H2305 C2314 0.930 . S
H2306 C2319 0.929 . S
H2307 C2317 0.929 . S
H2308 C2312 0.929 . S
H2309 C2318 0.929 . S
C2310 H2304 0.930 . S
C2310 C2311 1.367 . S
C2310 C2318 1.378 . S
C2311 C2310 1.367 . S
C2311 C2319 1.433 . S
C2312 H2308 0.929 . S
C2312 C2314 1.378 . S
C2312 C2316 1.350 . S
C2313 C2316 1.463 . S
C2313 C2318 1.350 . S
C2313 N2321 1.427 . S
C2314 H2305 0.930 . S
C2314 C2312 1.378 . S
C2314 C2315 1.367 . S
C2315 C2314 1.367 . S
C2315 C2317 1.433 . S
C2316 C2312 1.350 . S
C2316 C2313 1.463 . S
C2316 N2320 1.427 . S
C2317 H2307 0.929 . S
C2317 C2315 1.433 . S
C2317 N2320 1.384 . S
C2318 H2309 0.929 . S
C2318 C2310 1.378 . S
C2318 C2313 1.350 . S
C2319 H2306 0.929 . S
C2319 C2311 1.433 . S
C2319 N2321 1.384 . S
N2320 C2316 1.427 . S
N2320 C2317 1.384 . S
N2321 C2313 1.427 . S
N2321 C2319 1.384 . S
H2322 C2328 0.930 . S
H2323 C2332 0.930 . S
H2324 C2337 0.929 . S
H2325 C2335 0.929 . S
H2326 C2330 0.929 . S
H2327 C2336 0.929 . S
C2328 H2322 0.930 . S
C2328 C2329 1.367 . S
C2328 C2336 1.378 . S
C2329 C2328 1.367 . S
C2329 C2337 1.433 . S
C2330 H2326 0.929 . S
C2330 C2332 1.378 . S
C2330 C2334 1.350 . S
C2331 C2334 1.463 . S
C2331 C2336 1.350 . S
C2331 N2339 1.427 . S
C2332 H2323 0.930 . S
C2332 C2330 1.378 . S
C2332 C2333 1.367 . S
C2333 C2332 1.367 . S
C2333 C2335 1.433 . S
C2334 C2330 1.350 . S
C2334 C2331 1.463 . S
C2334 N2338 1.427 . S
C2335 H2325 0.929 . S
C2335 C2333 1.433 . S
C2335 N2338 1.384 . S
C2336 H2327 0.929 . S
C2336 C2328 1.378 . S
C2336 C2331 1.350 . S
C2337 H2324 0.929 . S
C2337 C2329 1.433 . S
C2337 N2339 1.384 . S
N2338 C2334 1.427 . S
N2338 C2335 1.384 . S
N2339 C2331 1.427 . S
N2339 C2337 1.384 . S
H2340 C2346 0.930 . S
H2341 C2350 0.930 . S
H2342 C2355 0.929 . S
H2343 C2353 0.929 . S
H2344 C2348 0.929 1_455 S
H2345 C2354 0.929 1_655 S
C2346 H2340 0.930 . S
C2346 C2347 1.367 1_556 S
C2346 C2354 1.378 . S
C2347 C2346 1.367 1_554 S
C2347 C2355 1.433 . S
C2348 H2344 0.929 1_655 S
C2348 C2350 1.378 . S
C2348 C2352 1.350 . S
C2349 C2352 1.463 1_455 S
C2349 C2354 1.350 1_554 S
C2349 N2357 1.427 . S
C2350 H2341 0.930 . S
C2350 C2348 1.378 . S
C2350 C2351 1.367 . S
C2351 C2350 1.367 . S
C2351 C2353 1.433 1_554 S
C2352 C2348 1.350 . S
C2352 C2349 1.463 1_655 S
C2352 N2356 1.427 1_554 S
C2353 H2343 0.929 . S
C2353 C2351 1.433 1_556 S
C2353 N2356 1.384 . S
C2354 H2345 0.929 1_455 S
C2354 C2346 1.378 . S
C2354 C2349 1.350 1_556 S
C2355 H2342 0.929 . S
C2355 C2347 1.433 . S
C2355 N2357 1.384 . S
N2356 C2352 1.427 1_556 S
N2356 C2353 1.384 . S
N2357 C2349 1.427 . S
N2357 C2355 1.384 . S
H2358 C2364 0.930 . S
H2359 C2368 0.930 . S
H2360 C2373 0.929 . S
H2361 C2371 0.929 . S
H2362 C2366 0.929 . S
H2363 C2372 0.929 . S
C2364 H2358 0.930 . S
C2364 C2365 1.367 1_556 S
C2364 C2372 1.378 . S
C2365 C2364 1.367 1_554 S
C2365 C2373 1.433 . S
C2366 H2362 0.929 . S
C2366 C2368 1.378 . S
C2366 C2370 1.350 . S
C2367 C2370 1.463 . S
C2367 C2372 1.350 1_554 S
C2367 N2375 1.427 . S
C2368 H2359 0.930 . S
C2368 C2366 1.378 . S
C2368 C2369 1.367 . S
C2369 C2368 1.367 . S
C2369 C2371 1.433 1_554 S
C2370 C2366 1.350 . S
C2370 C2367 1.463 . S
C2370 N2374 1.427 1_554 S
C2371 H2361 0.929 . S
C2371 C2369 1.433 1_556 S
C2371 N2374 1.384 . S
C2372 H2363 0.929 . S
C2372 C2364 1.378 . S
C2372 C2367 1.350 1_556 S
C2373 H2360 0.929 . S
C2373 C2365 1.433 . S
C2373 N2375 1.384 . S
N2374 C2370 1.427 1_556 S
N2374 C2371 1.384 . S
N2375 C2367 1.427 . S
N2375 C2373 1.384 . S
H2376 C2382 0.930 . S
H2377 C2386 0.930 . S
H2378 C2391 0.929 . S
H2379 C2389 0.929 . S
H2380 C2384 0.929 . S
H2381 C2390 0.929 . S
C2382 H2376 0.930 . S
C2382 C2383 1.367 1_556 S
C2382 C2390 1.378 . S
C2383 C2382 1.367 1_554 S
C2383 C2391 1.433 . S
C2384 H2380 0.929 . S
C2384 C2386 1.378 . S
C2384 C2388 1.350 . S
C2385 C2388 1.463 1_545 S
C2385 C2390 1.350 1_554 S
C2385 N2393 1.427 . S
C2386 H2377 0.930 . S
C2386 C2384 1.378 . S
C2386 C2387 1.367 . S
C2387 C2386 1.367 . S
C2387 C2389 1.433 1_554 S
C2388 C2384 1.350 . S
C2388 C2385 1.463 1_565 S
C2388 N2392 1.427 1_554 S
C2389 H2379 0.929 . S
C2389 C2387 1.433 1_556 S
C2389 N2392 1.384 . S
C2390 H2381 0.929 . S
C2390 C2382 1.378 . S
C2390 C2385 1.350 1_556 S
C2391 H2378 0.929 . S
C2391 C2383 1.433 . S
C2391 N2393 1.384 . S
N2392 C2388 1.427 1_556 S
N2392 C2389 1.384 . S
N2393 C2385 1.427 . S
N2393 C2391 1.384 . S
H2394 C2400 0.930 . S
H2395 C2404 0.930 . S
H2396 C2409 0.929 . S
H2397 C2407 0.929 . S
H2398 C2402 0.929 1_565 S
H2399 C2408 0.929 1_545 S
C2400 H2394 0.930 . S
C2400 C2401 1.367 . S
C2400 C2408 1.378 . S
C2401 C2400 1.367 . S
C2401 C2409 1.433 . S
C2402 H2398 0.929 1_545 S
C2402 C2404 1.378 . S
C2402 C2406 1.350 . S
C2403 C2406 1.463 1_565 S
C2403 C2408 1.350 . S
C2403 N2411 1.427 . S
C2404 H2395 0.930 . S
C2404 C2402 1.378 . S
C2404 C2405 1.367 . S
C2405 C2404 1.367 . S
C2405 C2407 1.433 . S
C2406 C2402 1.350 . S
C2406 C2403 1.463 1_545 S
C2406 N2410 1.427 . S
C2407 H2397 0.929 . S
C2407 C2405 1.433 . S
C2407 N2410 1.384 . S
C2408 H2399 0.929 1_565 S
C2408 C2400 1.378 . S
C2408 C2403 1.350 . S
C2409 H2396 0.929 . S
C2409 C2401 1.433 . S
C2409 N2411 1.384 . S
N2410 C2406 1.427 . S
N2410 C2407 1.384 . S
N2411 C2403 1.427 . S
N2411 C2409 1.384 . S
H2412 C2418 0.930 . S
H2413 C2422 0.930 . S
H2414 C2427 0.929 . S
H2415 C2425 0.929 . S
H2416 C2420 0.929 . S
H2417 C2426 0.929 . S
C2418 H2412 0.930 . S
C2418 C2419 1.367 . S
C2418 C2426 1.378 . S
C2419 C2418 1.367 . S
C2419 C2427 1.433 . S
C2420 H2416 0.929 . S
C2420 C2422 1.378 . S
C2420 C2424 1.350 . S
C2421 C2424 1.463 1_655 S
C2421 C2426 1.350 . S
C2421 N2429 1.427 . S
C2422 H2413 0.930 . S
C2422 C2420 1.378 . S
C2422 C2423 1.367 . S
C2423 C2422 1.367 . S
C2423 C2425 1.433 . S
C2424 C2420 1.350 . S
C2424 C2421 1.463 1_455 S
C2424 N2428 1.427 . S
C2425 H2415 0.929 . S
C2425 C2423 1.433 . S
C2425 N2428 1.384 . S
C2426 H2417 0.929 . S
C2426 C2418 1.378 . S
C2426 C2421 1.350 . S
C2427 H2414 0.929 . S
C2427 C2419 1.433 . S
C2427 N2429 1.384 . S
N2428 C2424 1.427 . S
N2428 C2425 1.384 . S
N2429 C2421 1.427 . S
N2429 C2427 1.384 . S
H2430 C2436 0.930 . S
H2431 C2440 0.930 . S
H2432 C2445 0.929 . S
H2433 C2443 0.929 . S
H2434 C2438 0.929 . S
H2435 C2444 0.929 . S
C2436 H2430 0.930 . S
C2436 C2437 1.367 . S
C2436 C2444 1.378 . S
C2437 C2436 1.367 . S
C2437 C2445 1.433 . S
C2438 H2434 0.929 . S
C2438 C2440 1.378 . S
C2438 C2442 1.350 . S
C2439 C2442 1.463 . S
C2439 C2444 1.350 . S
C2439 N2447 1.427 . S
C2440 H2431 0.930 . S
C2440 C2438 1.378 . S
C2440 C2441 1.367 . S
C2441 C2440 1.367 . S
C2441 C2443 1.433 . S
C2442 C2438 1.350 . S
C2442 C2439 1.463 . S
C2442 N2446 1.427 . S
C2443 H2433 0.929 . S
C2443 C2441 1.433 . S
C2443 N2446 1.384 . S
C2444 H2435 0.929 . S
C2444 C2436 1.378 . S
C2444 C2439 1.350 . S
C2445 H2432 0.929 . S
C2445 C2437 1.433 . S
C2445 N2447 1.384 . S
N2446 C2442 1.427 . S
N2446 C2443 1.384 . S
N2447 C2439 1.427 . S
N2447 C2445 1.384 . S
H2448 C2454 0.930 . S
H2449 C2458 0.930 . S
H2450 C2463 0.929 . S
H2451 C2461 0.929 . S
H2452 C2456 0.929 . S
H2453 C2462 0.929 . S
C2454 H2448 0.930 . S
C2454 C2455 1.367 . S
C2454 C2462 1.378 . S
C2455 C2454 1.367 . S
C2455 C2463 1.433 . S
C2456 H2452 0.929 . S
C2456 C2458 1.378 . S
C2456 C2460 1.350 . S
C2457 C2460 1.463 . S
C2457 C2462 1.350 . S
C2457 N2465 1.427 . S
C2458 H2449 0.930 . S
C2458 C2456 1.378 . S
C2458 C2459 1.367 . S
C2459 C2458 1.367 . S
C2459 C2461 1.433 . S
C2460 C2456 1.350 . S
C2460 C2457 1.463 . S
C2460 N2464 1.427 . S
C2461 H2451 0.929 . S
C2461 C2459 1.433 . S
C2461 N2464 1.384 . S
C2462 H2453 0.929 . S
C2462 C2454 1.378 . S
C2462 C2457 1.350 . S
C2463 H2450 0.929 . S
C2463 C2455 1.433 . S
C2463 N2465 1.384 . S
N2464 C2460 1.427 . S
N2464 C2461 1.384 . S
N2465 C2457 1.427 . S
N2465 C2463 1.384 . S
H2466 C2472 0.930 . S
H2467 C2476 0.930 . S
H2468 C2481 0.929 . S
H2469 C2479 0.929 . S
H2470 C2474 0.929 . S
H2471 C2480 0.929 . S
C2472 H2466 0.930 . S
C2472 C2473 1.367 . S
C2472 C2480 1.378 . S
C2473 C2472 1.367 . S
C2473 C2481 1.433 . S
C2474 H2470 0.929 . S
C2474 C2476 1.378 . S
C2474 C2478 1.350 . S
C2475 C2478 1.463 . S
C2475 C2480 1.350 . S
C2475 N2483 1.427 . S
C2476 H2467 0.930 . S
C2476 C2474 1.378 . S
C2476 C2477 1.367 . S
C2477 C2476 1.367 . S
C2477 C2479 1.433 . S
C2478 C2474 1.350 . S
C2478 C2475 1.463 . S
C2478 N2482 1.427 . S
C2479 H2469 0.929 . S
C2479 C2477 1.433 . S
C2479 N2482 1.384 . S
C2480 H2471 0.929 . S
C2480 C2472 1.378 . S
C2480 C2475 1.350 . S
C2481 H2468 0.929 . S
C2481 C2473 1.433 . S
C2481 N2483 1.384 . S
N2482 C2478 1.427 . S
N2482 C2479 1.384 . S
N2483 C2475 1.427 . S
N2483 C2481 1.384 . S
H2484 C2490 0.930 . S
H2485 C2494 0.930 . S
H2486 C2499 0.929 . S
H2487 C2497 0.929 . S
H2488 C2492 0.929 . S
H2489 C2498 0.929 . S
C2490 H2484 0.930 . S
C2490 C2491 1.367 . S
C2490 C2498 1.378 . S
C2491 C2490 1.367 . S
C2491 C2499 1.433 . S
C2492 H2488 0.929 . S
C2492 C2494 1.378 . S
C2492 C2496 1.350 . S
C2493 C2496 1.463 . S
C2493 C2498 1.350 . S
C2493 N2501 1.427 . S
C2494 H2485 0.930 . S
C2494 C2492 1.378 . S
C2494 C2495 1.367 . S
C2495 C2494 1.367 . S
C2495 C2497 1.433 . S
C2496 C2492 1.350 . S
C2496 C2493 1.463 . S
C2496 N2500 1.427 . S
C2497 H2487 0.929 . S
C2497 C2495 1.433 . S
C2497 N2500 1.384 . S
C2498 H2489 0.929 . S
C2498 C2490 1.378 . S
C2498 C2493 1.350 . S
C2499 H2486 0.929 . S
C2499 C2491 1.433 . S
C2499 N2501 1.384 . S
N2500 C2496 1.427 . S
N2500 C2497 1.384 . S
N2501 C2493 1.427 . S
N2501 C2499 1.384 . S
H2502 C2508 0.930 . S
H2503 C2512 0.930 . S
H2504 C2517 0.929 . S
H2505 C2515 0.929 . S
H2506 C2510 0.929 . S
H2507 C2516 0.929 . S
C2508 H2502 0.930 . S
C2508 C2509 1.367 . S
C2508 C2516 1.378 . S
C2509 C2508 1.367 . S
C2509 C2517 1.433 . S
C2510 H2506 0.929 . S
C2510 C2512 1.378 . S
C2510 C2514 1.350 . S
C2511 C2514 1.463 . S
C2511 C2516 1.350 . S
C2511 N2519 1.427 . S
C2512 H2503 0.930 . S
C2512 C2510 1.378 . S
C2512 C2513 1.367 . S
C2513 C2512 1.367 . S
C2513 C2515 1.433 . S
C2514 C2510 1.350 . S
C2514 C2511 1.463 . S
C2514 N2518 1.427 . S
C2515 H2505 0.929 . S
C2515 C2513 1.433 . S
C2515 N2518 1.384 . S
C2516 H2507 0.929 . S
C2516 C2508 1.378 . S
C2516 C2511 1.350 . S
C2517 H2504 0.929 . S
C2517 C2509 1.433 . S
C2517 N2519 1.384 . S
N2518 C2514 1.427 . S
N2518 C2515 1.384 . S
N2519 C2511 1.427 . S
N2519 C2517 1.384 . S
H2520 C2526 0.930 . S
H2521 C2530 0.930 . S
H2522 C2535 0.929 . S
H2523 C2533 0.929 . S
H2524 C2528 0.929 . S
H2525 C2534 0.929 . S
C2526 H2520 0.930 . S
C2526 C2527 1.367 . S
C2526 C2534 1.378 . S
C2527 C2526 1.367 . S
C2527 C2535 1.433 . S
C2528 H2524 0.929 . S
C2528 C2530 1.378 . S
C2528 C2532 1.350 . S
C2529 C2532 1.463 . S
C2529 C2534 1.350 . S
C2529 N2537 1.427 . S
C2530 H2521 0.930 . S
C2530 C2528 1.378 . S
C2530 C2531 1.367 . S
C2531 C2530 1.367 . S
C2531 C2533 1.433 . S
C2532 C2528 1.350 . S
C2532 C2529 1.463 . S
C2532 N2536 1.427 . S
C2533 H2523 0.929 . S
C2533 C2531 1.433 . S
C2533 N2536 1.384 . S
C2534 H2525 0.929 . S
C2534 C2526 1.378 . S
C2534 C2529 1.350 . S
C2535 H2522 0.929 . S
C2535 C2527 1.433 . S
C2535 N2537 1.384 . S
N2536 C2532 1.427 . S
N2536 C2533 1.384 . S
N2537 C2529 1.427 . S
N2537 C2535 1.384 . S
H2538 C2544 0.930 . S
H2539 C2548 0.930 . S
H2540 C2553 0.929 . S
H2541 C2551 0.929 . S
H2542 C2546 0.929 . S
H2543 C2552 0.929 . S
C2544 H2538 0.930 . S
C2544 C2545 1.367 . S
C2544 C2552 1.378 . S
C2545 C2544 1.367 . S
C2545 C2553 1.433 . S
C2546 H2542 0.929 . S
C2546 C2548 1.378 . S
C2546 C2550 1.350 . S
C2547 C2550 1.463 . S
C2547 C2552 1.350 . S
C2547 N2555 1.427 . S
C2548 H2539 0.930 . S
C2548 C2546 1.378 . S
C2548 C2549 1.367 . S
C2549 C2548 1.367 . S
C2549 C2551 1.433 . S
C2550 C2546 1.350 . S
C2550 C2547 1.463 . S
C2550 N2554 1.427 . S
C2551 H2541 0.929 . S
C2551 C2549 1.433 . S
C2551 N2554 1.384 . S
C2552 H2543 0.929 . S
C2552 C2544 1.378 . S
C2552 C2547 1.350 . S
C2553 H2540 0.929 . S
C2553 C2545 1.433 . S
C2553 N2555 1.384 . S
N2554 C2550 1.427 . S
N2554 C2551 1.384 . S
N2555 C2547 1.427 . S
N2555 C2553 1.384 . S
H2556 C2562 0.930 . S
H2557 C2566 0.930 . S
H2558 C2571 0.929 . S
H2559 C2569 0.929 . S
H2560 C2564 0.929 . S
H2561 C2570 0.929 . S
C2562 H2556 0.930 . S
C2562 C2563 1.367 . S
C2562 C2570 1.378 . S
C2563 C2562 1.367 . S
C2563 C2571 1.433 . S
C2564 H2560 0.929 . S
C2564 C2566 1.378 . S
C2564 C2568 1.350 . S
C2565 C2568 1.463 . S
C2565 C2570 1.350 . S
C2565 N2573 1.427 . S
C2566 H2557 0.930 . S
C2566 C2564 1.378 . S
C2566 C2567 1.367 . S
C2567 C2566 1.367 . S
C2567 C2569 1.433 . S
C2568 C2564 1.350 . S
C2568 C2565 1.463 . S
C2568 N2572 1.427 . S
C2569 H2559 0.929 . S
C2569 C2567 1.433 . S
C2569 N2572 1.384 . S
C2570 H2561 0.929 . S
C2570 C2562 1.378 . S
C2570 C2565 1.350 . S
C2571 H2558 0.929 . S
C2571 C2563 1.433 . S
C2571 N2573 1.384 . S
N2572 C2568 1.427 . S
N2572 C2569 1.384 . S
N2573 C2565 1.427 . S
N2573 C2571 1.384 . S
H2574 C2580 0.930 . S
H2575 C2584 0.930 . S
H2576 C2589 0.929 . S
H2577 C2587 0.929 . S
H2578 C2582 0.929 . S
H2579 C2588 0.929 . S
C2580 H2574 0.930 . S
C2580 C2581 1.367 . S
C2580 C2588 1.378 . S
C2581 C2580 1.367 . S
C2581 C2589 1.433 . S
C2582 H2578 0.929 . S
C2582 C2584 1.378 . S
C2582 C2586 1.350 . S
C2583 C2586 1.463 . S
C2583 C2588 1.350 . S
C2583 N2591 1.427 . S
C2584 H2575 0.930 . S
C2584 C2582 1.378 . S
C2584 C2585 1.367 . S
C2585 C2584 1.367 . S
C2585 C2587 1.433 . S
C2586 C2582 1.350 . S
C2586 C2583 1.463 . S
C2586 N2590 1.427 . S
C2587 H2577 0.929 . S
C2587 C2585 1.433 . S
C2587 N2590 1.384 . S
C2588 H2579 0.929 . S
C2588 C2580 1.378 . S
C2588 C2583 1.350 . S
C2589 H2576 0.929 . S
C2589 C2581 1.433 . S
C2589 N2591 1.384 . S
N2590 C2586 1.427 . S
N2590 C2587 1.384 . S
N2591 C2583 1.427 . S
N2591 C2589 1.384 . S
H2592 C2598 0.930 . S
H2593 C2602 0.930 . S
H2594 C2607 0.929 . S
H2595 C2605 0.929 . S
H2596 C2600 0.929 . S
H2597 C2606 0.929 . S
C2598 H2592 0.930 . S
C2598 C2599 1.367 . S
C2598 C2606 1.378 . S
C2599 C2598 1.367 . S
C2599 C2607 1.433 . S
C2600 H2596 0.929 . S
C2600 C2602 1.378 . S
C2600 C2604 1.350 . S
C2601 C2604 1.463 . S
C2601 C2606 1.350 . S
C2601 N2609 1.427 . S
C2602 H2593 0.930 . S
C2602 C2600 1.378 . S
C2602 C2603 1.367 . S
C2603 C2602 1.367 . S
C2603 C2605 1.433 . S
C2604 C2600 1.350 . S
C2604 C2601 1.463 . S
C2604 N2608 1.427 . S
C2605 H2595 0.929 . S
C2605 C2603 1.433 . S
C2605 N2608 1.384 . S
C2606 H2597 0.929 . S
C2606 C2598 1.378 . S
C2606 C2601 1.350 . S
C2607 H2594 0.929 . S
C2607 C2599 1.433 . S
C2607 N2609 1.384 . S
N2608 C2604 1.427 . S
N2608 C2605 1.384 . S
N2609 C2601 1.427 . S
N2609 C2607 1.384 . S
H2610 C2616 0.930 . S
H2611 C2620 0.930 . S
H2612 C2625 0.929 . S
H2613 C2623 0.929 . S
H2614 C2618 0.929 . S
H2615 C2624 0.929 . S
C2616 H2610 0.930 . S
C2616 C2617 1.367 . S
C2616 C2624 1.378 . S
C2617 C2616 1.367 . S
C2617 C2625 1.433 . S
C2618 H2614 0.929 . S
C2618 C2620 1.378 . S
C2618 C2622 1.350 . S
C2619 C2622 1.463 . S
C2619 C2624 1.350 . S
C2619 N2627 1.427 . S
C2620 H2611 0.930 . S
C2620 C2618 1.378 . S
C2620 C2621 1.367 . S
C2621 C2620 1.367 . S
C2621 C2623 1.433 . S
C2622 C2618 1.350 . S
C2622 C2619 1.463 . S
C2622 N2626 1.427 . S
C2623 H2613 0.929 . S
C2623 C2621 1.433 . S
C2623 N2626 1.384 . S
C2624 H2615 0.929 . S
C2624 C2616 1.378 . S
C2624 C2619 1.350 . S
C2625 H2612 0.929 . S
C2625 C2617 1.433 . S
C2625 N2627 1.384 . S
N2626 C2622 1.427 . S
N2626 C2623 1.384 . S
N2627 C2619 1.427 . S
N2627 C2625 1.384 . S
H2628 C2634 0.930 . S
H2629 C2638 0.930 . S
H2630 C2643 0.929 . S
H2631 C2641 0.929 . S
H2632 C2636 0.929 . S
H2633 C2642 0.929 . S
C2634 H2628 0.930 . S
C2634 C2635 1.367 . S
C2634 C2642 1.378 . S
C2635 C2634 1.367 . S
C2635 C2643 1.433 . S
C2636 H2632 0.929 . S
C2636 C2638 1.378 . S
C2636 C2640 1.350 . S
C2637 C2640 1.463 . S
C2637 C2642 1.350 . S
C2637 N2645 1.427 . S
C2638 H2629 0.930 . S
C2638 C2636 1.378 . S
C2638 C2639 1.367 . S
C2639 C2638 1.367 . S
C2639 C2641 1.433 . S
C2640 C2636 1.350 . S
C2640 C2637 1.463 . S
C2640 N2644 1.427 . S
C2641 H2631 0.929 . S
C2641 C2639 1.433 . S
C2641 N2644 1.384 . S
C2642 H2633 0.929 . S
C2642 C2634 1.378 . S
C2642 C2637 1.350 . S
C2643 H2630 0.929 . S
C2643 C2635 1.433 . S
C2643 N2645 1.384 . S
N2644 C2640 1.427 . S
N2644 C2641 1.384 . S
N2645 C2637 1.427 . S
N2645 C2643 1.384 . S
H2646 C2652 0.930 . S
H2647 C2656 0.930 . S
H2648 C2661 0.929 . S
H2649 C2659 0.929 . S
H2650 C2654 0.929 . S
H2651 C2660 0.929 . S
C2652 H2646 0.930 . S
C2652 C2653 1.367 . S
C2652 C2660 1.378 . S
C2653 C2652 1.367 . S
C2653 C2661 1.433 . S
C2654 H2650 0.929 . S
C2654 C2656 1.378 . S
C2654 C2658 1.350 . S
C2655 C2658 1.463 . S
C2655 C2660 1.350 . S
C2655 N2663 1.427 . S
C2656 H2647 0.930 . S
C2656 C2654 1.378 . S
C2656 C2657 1.367 . S
C2657 C2656 1.367 . S
C2657 C2659 1.433 . S
C2658 C2654 1.350 . S
C2658 C2655 1.463 . S
C2658 N2662 1.427 . S
C2659 H2649 0.929 . S
C2659 C2657 1.433 . S
C2659 N2662 1.384 . S
C2660 H2651 0.929 . S
C2660 C2652 1.378 . S
C2660 C2655 1.350 . S
C2661 H2648 0.929 . S
C2661 C2653 1.433 . S
C2661 N2663 1.384 . S
N2662 C2658 1.427 . S
N2662 C2659 1.384 . S
N2663 C2655 1.427 . S
N2663 C2661 1.384 . S
C727 C318 1.005 . S
C731 C18 1.015 1_556 S
C745 C338 1.006 . S
C749 C38 1.014 1_556 S
C763 C58 1.017 1_556 S
C767 C358 1.005 . S
C781 C78 1.008 . S
C785 C498 1.009 . S
C799 C98 1.015 . S
C803 C518 1.006 . S
C817 C118 1.006 . S
C821 C538 1.018 . S
C835 C679 1.009 . S
C839 C139 1.008 . S
C853 C699 1.015 . S
C857 C159 1.012 . S
C871 C179 1.009 . S
C875 C719 1.010 . S
C889 C379 1.017 . S
C893 C199 1.007 . S
C907 C219 1.005 . S
C911 C399 1.016 . S
C925 C239 1.012 . S
C929 C419 1.007 . S
C943 C558 1.016 . S
C947 C258 1.005 . S
C961 C278 1.015 . S
C965 C578 1.005 . S
C979 C598 1.011 . S
C983 C298 1.016 . S
C997 C619 1.015 . S
C1001 C439 1.011 . S
C1015 C639 1.018 . S
C1019 C459 1.006 . S
C1033 C479 1.017 . S
C1037 C659 1.005 . S
C1051 C9 0.769 . S
C1055 C89 0.766 . S
C1069 C29 0.770 . S
C1073 C109 0.765 . S
C1087 C49 0.776 . S
C1091 C69 0.794 . S
C1105 C132 0.790 . S
C1109 C212 0.765 . S
C1123 C152 0.791 . S
C1127 C232 0.785 . S
C1141 C172 0.765 . S
C1145 C192 0.770 . S
C1159 C249 0.767 . S
C1163 C329 0.792 1_554 S
C1177 C349 0.793 1_554 S
C1181 C269 0.780 . S
C1195 C289 0.779 . S
C1199 C309 0.762 1_554 S
C1213 C372 0.790 . S
C1217 C452 0.786 . S
C1231 C392 0.779 . S
C1235 C472 0.761 . S
C1249 C432 0.762 . S
C1253 C412 0.785 . S
C1267 C489 0.791 . S
C1271 C569 0.784 . S
C1285 C589 0.789 . S
C1289 C509 0.787 . S
C1303 C529 0.773 . S
C1307 C549 0.763 . S
C1321 C612 0.792 . S
C1325 C692 0.767 . S
C1339 C632 0.771 . S
C1343 C712 0.764 . S
C1357 C652 0.762 . S
C1361 C672 0.776 . S
C1375 C209 1.417 . S
C1379 C2 1.389 . S
C1393 C22 1.405 . S
C1397 C229 1.400 . S
C1411 C42 1.409 . S
C1415 C189 1.398 . S
C1429 C62 1.409 . S
C1433 C169 1.398 . S
C1447 C82 1.401 . S
C1451 C129 1.403 . S
C1465 C149 1.398 . S
C1469 C102 1.409 . S
C1483 C124 1.406 . S
C1487 C92 1.399 . S
C1501 C112 1.411 . S
C1505 C144 1.404 . S
C1519 C164 1.411 . S
C1523 C72 1.402 . S
C1537 C184 1.410 . S
C1541 C52 1.404 . S
C1555 C12 1.407 . S
C1559 C204 1.396 . S
C1573 C32 1.398 . S
C1577 C224 1.408 . S
C1591 C449 1.417 1_554 S
C1595 C242 1.389 . S
C1609 C469 1.420 1_554 S
C1613 C262 1.389 . S
C1627 C429 1.419 1_554 S
C1631 C282 1.394 . S
C1645 C409 1.401 . S
C1649 C302 1.411 1_554 S
C1663 C322 1.396 1_554 S
C1667 C369 1.418 . S
C1681 C389 1.420 . S
C1685 C342 1.390 1_554 S
C1699 C332 1.412 . S
C1703 C364 1.392 . S
C1717 C384 1.394 . S
C1721 C352 1.419 . S
C1735 C404 1.389 . S
C1739 C312 1.418 . S
C1753 C292 1.398 . S
C1757 C424 1.409 . S
C1771 C444 1.403 . S
C1775 C252 1.402 . S
C1789 C464 1.397 . S
C1793 C272 1.407 . S
C1807 C482 1.391 . S
C1811 C689 1.414 . S
C1825 C502 1.402 . S
C1829 C709 1.402 . S
C1843 C669 1.420 . S
C1847 C522 1.390 . S
C1861 C649 1.408 . S
C1865 C542 1.395 . S
C1879 C562 1.400 . S
C1883 C609 1.415 . S
C1897 C629 1.401 . S
C1901 C582 1.412 . S
C1915 C604 1.402 . S
C1919 C572 1.402 . S
C1933 C592 1.407 . S
C1937 C624 1.396 . S
C1951 C644 1.390 . S
C1955 C552 1.420 . S
C1969 C664 1.389 . S
C1973 C532 1.420 . S
C1987 C492 1.416 . S
C1991 C684 1.398 . S
C2005 C512 1.401 . S
C2009 C704 1.412 . S
C2023 C4 1.713 . S
C2027 C84 1.700 . S
C2041 C104 1.701 . S
C2045 C24 1.703 . S
C2059 C44 1.706 . S
C2063 C64 1.699 . S
C2077 C122 1.699 . S
C2081 C202 1.711 . S
C2095 C222 1.717 . S
C2099 C142 1.710 . S
C2113 C162 1.710 . S
C2117 C182 1.717 . S
C2131 C324 1.715 . S
C2135 C244 1.713 . S
C2149 C344 1.714 . S
C2153 C264 1.701 . S
C2167 C304 1.699 . S
C2171 C284 1.705 . S
C2185 C442 1.716 1_554 S
C2189 C362 1.702 . S
C2203 C382 1.716 . S
C2207 C462 1.703 1_554 S
C2221 C422 1.699 1_554 S
C2225 C402 1.711 . S
C2239 C564 1.717 . S
C2243 C484 1.709 . S
C2257 C504 1.710 . S
C2261 C584 1.699 . S
C2275 C524 1.717 . S
C2279 C544 1.708 . S
C2293 C682 1.715 . S
C2297 C602 1.701 . S
C2311 C622 1.717 . S
C2315 C702 1.709 . S
C2329 C642 1.708 . S
C2333 C662 1.699 . S
C2347 C19 0.336 . S
C2351 C138 0.336 . S
C2365 C39 0.325 . S
C2369 C158 0.325 . S
C2383 C178 0.376 . S
C2387 C59 0.376 . S
C2401 C198 0.343 . S
C2405 C79 0.343 . S
C2419 C99 0.347 . S
C2423 C218 0.347 . S
C2437 C119 0.362 . S
C2441 C238 0.362 . S
C2455 C378 0.351 . S
C2459 C259 0.351 . S
C2473 C279 0.336 . S
C2477 C398 0.336 . S
C2491 C418 0.376 . S
C2495 C299 0.376 . S
C2509 C438 0.377 . S
C2513 C319 0.377 . S
C2527 C458 0.372 . S
C2531 C339 0.372 . S
C2545 C478 0.336 . S
C2549 C359 0.336 . S
C2563 C618 0.377 . S
C2567 C499 0.377 . S
C2581 C519 0.371 . S
C2585 C638 0.371 . S
C2599 C658 0.325 . S
C2603 C539 0.325 . S
C2617 C678 0.326 . S
C2621 C559 0.326 . S
C2635 C698 0.377 . S
C2639 C579 0.377 . S
C2653 C599 0.371 . S
C2657 C718 0.371 . S
