# Generated by pormake.
# Topology wne, (6)-cn, num edge types: 1
# Building blocks:
#     Node 0, Type 0, BuildingBlock: CIFDUS_clean_sbu_1, # of connection points: 6
#     Node 1, Type 0, BuildingBlock: CIFDUS_clean_sbu_1, # of connection points: 6
#     Node 2, Type 0, BuildingBlock: CIFDUS_clean_sbu_1, # of connection points: 6
#     Node 3, Type 0, BuildingBlock: CIFDUS_clean_sbu_1, # of connection points: 6
#     Node 4, Type 0, BuildingBlock: CIFDUS_clean_sbu_1, # of connection points: 6
#     Node 5, Type 0, BuildingBlock: CIFDUS_clean_sbu_1, # of connection points: 6
#     Node 6, Type 0, BuildingBlock: CIFDUS_clean_sbu_1, # of connection points: 6
#     Node 7, Type 0, BuildingBlock: CIFDUS_clean_sbu_1, # of connection points: 6
#     Node 8, Type 0, BuildingBlock: CIFDUS_clean_sbu_1, # of connection points: 6
#     Node 9, Type 0, BuildingBlock: CIFDUS_clean_sbu_1, # of connection points: 6
#     Node 10, Type 0, BuildingBlock: CIFDUS_clean_sbu_1, # of connection points: 6
#     Node 11, Type 0, BuildingBlock: CIFDUS_clean_sbu_1, # of connection points: 6
#     Node 12, Type 0, BuildingBlock: CIFDUS_clean_sbu_1, # of connection points: 6
#     Node 13, Type 0, BuildingBlock: CIFDUS_clean_sbu_1, # of connection points: 6
#     Node 14, Type 0, BuildingBlock: CIFDUS_clean_sbu_1, # of connection points: 6
#     Node 15, Type 0, BuildingBlock: CIFDUS_clean_sbu_1, # of connection points: 6
#     Node 16, Type 0, BuildingBlock: CIFDUS_clean_sbu_1, # of connection points: 6
#     Node 17, Type 0, BuildingBlock: CIFDUS_clean_sbu_1, # of connection points: 6
#     Node 18, Type 0, BuildingBlock: CIFDUS_clean_sbu_1, # of connection points: 6
#     Node 19, Type 0, BuildingBlock: CIFDUS_clean_sbu_1, # of connection points: 6
#     Node 20, Type 0, BuildingBlock: CIFDUS_clean_sbu_1, # of connection points: 6
#     Node 21, Type 0, BuildingBlock: CIFDUS_clean_sbu_1, # of connection points: 6
#     Node 22, Type 0, BuildingBlock: CIFDUS_clean_sbu_1, # of connection points: 6
#     Node 23, Type 0, BuildingBlock: CIFDUS_clean_sbu_1, # of connection points: 6
#     Node 24, Type 0, BuildingBlock: CIFDUS_clean_sbu_1, # of connection points: 6
#     Node 25, Type 0, BuildingBlock: CIFDUS_clean_sbu_1, # of connection points: 6
#     Node 26, Type 0, BuildingBlock: CIFDUS_clean_sbu_1, # of connection points: 6
#     Node 27, Type 0, BuildingBlock: CIFDUS_clean_sbu_1, # of connection points: 6
#     Node 28, Type 0, BuildingBlock: CIFDUS_clean_sbu_1, # of connection points: 6
#     Node 29, Type 0, BuildingBlock: CIFDUS_clean_sbu_1, # of connection points: 6
#     Node 30, Type 0, BuildingBlock: CIFDUS_clean_sbu_1, # of connection points: 6
#     Node 31, Type 0, BuildingBlock: CIFDUS_clean_sbu_1, # of connection points: 6
#     Node 32, Type 0, BuildingBlock: CIFDUS_clean_sbu_1, # of connection points: 6
#     Node 33, Type 0, BuildingBlock: CIFDUS_clean_sbu_1, # of connection points: 6
#     Node 34, Type 0, BuildingBlock: CIFDUS_clean_sbu_1, # of connection points: 6
#     Node 35, Type 0, BuildingBlock: CIFDUS_clean_sbu_1, # of connection points: 6
#     Edge 36, Type (0, 0), BuildingBlock: AJUNOK_clean_linker_0, # of connection points: 2
#     Edge 37, Type (0, 0), BuildingBlock: AJUNOK_clean_linker_0, # of connection points: 2
#     Edge 38, Type (0, 0), BuildingBlock: AJUNOK_clean_linker_0, # of connection points: 2
#     Edge 39, Type (0, 0), BuildingBlock: AJUNOK_clean_linker_0, # of connection points: 2
#     Edge 40, Type (0, 0), BuildingBlock: AJUNOK_clean_linker_0, # of connection points: 2
#     Edge 41, Type (0, 0), BuildingBlock: AJUNOK_clean_linker_0, # of connection points: 2
#     Edge 42, Type (0, 0), BuildingBlock: AJUNOK_clean_linker_0, # of connection points: 2
#     Edge 43, Type (0, 0), BuildingBlock: AJUNOK_clean_linker_0, # of connection points: 2
#     Edge 44, Type (0, 0), BuildingBlock: AJUNOK_clean_linker_0, # of connection points: 2
#     Edge 45, Type (0, 0), BuildingBlock: AJUNOK_clean_linker_0, # of connection points: 2
#     Edge 46, Type (0, 0), BuildingBlock: AJUNOK_clean_linker_0, # of connection points: 2
#     Edge 47, Type (0, 0), BuildingBlock: AJUNOK_clean_linker_0, # of connection points: 2
#     Edge 48, Type (0, 0), BuildingBlock: AJUNOK_clean_linker_0, # of connection points: 2
#     Edge 49, Type (0, 0), BuildingBlock: AJUNOK_clean_linker_0, # of connection points: 2
#     Edge 50, Type (0, 0), BuildingBlock: AJUNOK_clean_linker_0, # of connection points: 2
#     Edge 51, Type (0, 0), BuildingBlock: AJUNOK_clean_linker_0, # of connection points: 2
#     Edge 52, Type (0, 0), BuildingBlock: AJUNOK_clean_linker_0, # of connection points: 2
#     Edge 53, Type (0, 0), BuildingBlock: AJUNOK_clean_linker_0, # of connection points: 2
#     Edge 54, Type (0, 0), BuildingBlock: AJUNOK_clean_linker_0, # of connection points: 2
#     Edge 55, Type (0, 0), BuildingBlock: AJUNOK_clean_linker_0, # of connection points: 2
#     Edge 56, Type (0, 0), BuildingBlock: AJUNOK_clean_linker_0, # of connection points: 2
#     Edge 57, Type (0, 0), BuildingBlock: AJUNOK_clean_linker_0, # of connection points: 2
#     Edge 58, Type (0, 0), BuildingBlock: AJUNOK_clean_linker_0, # of connection points: 2
#     Edge 59, Type (0, 0), BuildingBlock: AJUNOK_clean_linker_0, # of connection points: 2
#     Edge 60, Type (0, 0), BuildingBlock: AJUNOK_clean_linker_0, # of connection points: 2
#     Edge 61, Type (0, 0), BuildingBlock: AJUNOK_clean_linker_0, # of connection points: 2
#     Edge 62, Type (0, 0), BuildingBlock: AJUNOK_clean_linker_0, # of connection points: 2
#     Edge 63, Type (0, 0), BuildingBlock: AJUNOK_clean_linker_0, # of connection points: 2
#     Edge 64, Type (0, 0), BuildingBlock: AJUNOK_clean_linker_0, # of connection points: 2
#     Edge 65, Type (0, 0), BuildingBlock: AJUNOK_clean_linker_0, # of connection points: 2
#     Edge 66, Type (0, 0), BuildingBlock: AJUNOK_clean_linker_0, # of connection points: 2
#     Edge 67, Type (0, 0), BuildingBlock: AJUNOK_clean_linker_0, # of connection points: 2
#     Edge 68, Type (0, 0), BuildingBlock: AJUNOK_clean_linker_0, # of connection points: 2
#     Edge 69, Type (0, 0), BuildingBlock: AJUNOK_clean_linker_0, # of connection points: 2
#     Edge 70, Type (0, 0), BuildingBlock: AJUNOK_clean_linker_0, # of connection points: 2
#     Edge 71, Type (0, 0), BuildingBlock: AJUNOK_clean_linker_0, # of connection points: 2
#     Edge 72, Type (0, 0), BuildingBlock: AJUNOK_clean_linker_0, # of connection points: 2
#     Edge 73, Type (0, 0), BuildingBlock: AJUNOK_clean_linker_0, # of connection points: 2
#     Edge 74, Type (0, 0), BuildingBlock: AJUNOK_clean_linker_0, # of connection points: 2
#     Edge 75, Type (0, 0), BuildingBlock: AJUNOK_clean_linker_0, # of connection points: 2
#     Edge 76, Type (0, 0), BuildingBlock: AJUNOK_clean_linker_0, # of connection points: 2
#     Edge 77, Type (0, 0), BuildingBlock: AJUNOK_clean_linker_0, # of connection points: 2
#     Edge 78, Type (0, 0), BuildingBlock: AJUNOK_clean_linker_0, # of connection points: 2
#     Edge 79, Type (0, 0), BuildingBlock: AJUNOK_clean_linker_0, # of connection points: 2
#     Edge 80, Type (0, 0), BuildingBlock: AJUNOK_clean_linker_0, # of connection points: 2
#     Edge 81, Type (0, 0), BuildingBlock: AJUNOK_clean_linker_0, # of connection points: 2
#     Edge 82, Type (0, 0), BuildingBlock: AJUNOK_clean_linker_0, # of connection points: 2
#     Edge 83, Type (0, 0), BuildingBlock: AJUNOK_clean_linker_0, # of connection points: 2
#     Edge 84, Type (0, 0), BuildingBlock: AJUNOK_clean_linker_0, # of connection points: 2
#     Edge 85, Type (0, 0), BuildingBlock: AJUNOK_clean_linker_0, # of connection points: 2
#     Edge 86, Type (0, 0), BuildingBlock: AJUNOK_clean_linker_0, # of connection points: 2
#     Edge 87, Type (0, 0), BuildingBlock: AJUNOK_clean_linker_0, # of connection points: 2
#     Edge 88, Type (0, 0), BuildingBlock: AJUNOK_clean_linker_0, # of connection points: 2
#     Edge 89, Type (0, 0), BuildingBlock: AJUNOK_clean_linker_0, # of connection points: 2
#     Edge 90, Type (0, 0), BuildingBlock: AJUNOK_clean_linker_0, # of connection points: 2
#     Edge 91, Type (0, 0), BuildingBlock: AJUNOK_clean_linker_0, # of connection points: 2
#     Edge 92, Type (0, 0), BuildingBlock: AJUNOK_clean_linker_0, # of connection points: 2
#     Edge 93, Type (0, 0), BuildingBlock: AJUNOK_clean_linker_0, # of connection points: 2
#     Edge 94, Type (0, 0), BuildingBlock: AJUNOK_clean_linker_0, # of connection points: 2
#     Edge 95, Type (0, 0), BuildingBlock: AJUNOK_clean_linker_0, # of connection points: 2
#     Edge 96, Type (0, 0), BuildingBlock: AJUNOK_clean_linker_0, # of connection points: 2
#     Edge 97, Type (0, 0), BuildingBlock: AJUNOK_clean_linker_0, # of connection points: 2
#     Edge 98, Type (0, 0), BuildingBlock: AJUNOK_clean_linker_0, # of connection points: 2
#     Edge 99, Type (0, 0), BuildingBlock: AJUNOK_clean_linker_0, # of connection points: 2
#     Edge 100, Type (0, 0), BuildingBlock: AJUNOK_clean_linker_0, # of connection points: 2
#     Edge 101, Type (0, 0), BuildingBlock: AJUNOK_clean_linker_0, # of connection points: 2
#     Edge 102, Type (0, 0), BuildingBlock: AJUNOK_clean_linker_0, # of connection points: 2
#     Edge 103, Type (0, 0), BuildingBlock: AJUNOK_clean_linker_0, # of connection points: 2
#     Edge 104, Type (0, 0), BuildingBlock: AJUNOK_clean_linker_0, # of connection points: 2
#     Edge 105, Type (0, 0), BuildingBlock: AJUNOK_clean_linker_0, # of connection points: 2
#     Edge 106, Type (0, 0), BuildingBlock: AJUNOK_clean_linker_0, # of connection points: 2
#     Edge 107, Type (0, 0), BuildingBlock: AJUNOK_clean_linker_0, # of connection points: 2
#     Edge 108, Type (0, 0), BuildingBlock: AJUNOK_clean_linker_0, # of connection points: 2
#     Edge 109, Type (0, 0), BuildingBlock: AJUNOK_clean_linker_0, # of connection points: 2
#     Edge 110, Type (0, 0), BuildingBlock: AJUNOK_clean_linker_0, # of connection points: 2
#     Edge 111, Type (0, 0), BuildingBlock: AJUNOK_clean_linker_0, # of connection points: 2
#     Edge 112, Type (0, 0), BuildingBlock: AJUNOK_clean_linker_0, # of connection points: 2
#     Edge 113, Type (0, 0), BuildingBlock: AJUNOK_clean_linker_0, # of connection points: 2
#     Edge 114, Type (0, 0), BuildingBlock: AJUNOK_clean_linker_0, # of connection points: 2
#     Edge 115, Type (0, 0), BuildingBlock: AJUNOK_clean_linker_0, # of connection points: 2
#     Edge 116, Type (0, 0), BuildingBlock: AJUNOK_clean_linker_0, # of connection points: 2
#     Edge 117, Type (0, 0), BuildingBlock: AJUNOK_clean_linker_0, # of connection points: 2
#     Edge 118, Type (0, 0), BuildingBlock: AJUNOK_clean_linker_0, # of connection points: 2
#     Edge 119, Type (0, 0), BuildingBlock: AJUNOK_clean_linker_0, # of connection points: 2
#     Edge 120, Type (0, 0), BuildingBlock: AJUNOK_clean_linker_0, # of connection points: 2
#     Edge 121, Type (0, 0), BuildingBlock: AJUNOK_clean_linker_0, # of connection points: 2
#     Edge 122, Type (0, 0), BuildingBlock: AJUNOK_clean_linker_0, # of connection points: 2
#     Edge 123, Type (0, 0), BuildingBlock: AJUNOK_clean_linker_0, # of connection points: 2
#     Edge 124, Type (0, 0), BuildingBlock: AJUNOK_clean_linker_0, # of connection points: 2
#     Edge 125, Type (0, 0), BuildingBlock: AJUNOK_clean_linker_0, # of connection points: 2
#     Edge 126, Type (0, 0), BuildingBlock: AJUNOK_clean_linker_0, # of connection points: 2
#     Edge 127, Type (0, 0), BuildingBlock: AJUNOK_clean_linker_0, # of connection points: 2
#     Edge 128, Type (0, 0), BuildingBlock: AJUNOK_clean_linker_0, # of connection points: 2
#     Edge 129, Type (0, 0), BuildingBlock: AJUNOK_clean_linker_0, # of connection points: 2
#     Edge 130, Type (0, 0), BuildingBlock: AJUNOK_clean_linker_0, # of connection points: 2
#     Edge 131, Type (0, 0), BuildingBlock: AJUNOK_clean_linker_0, # of connection points: 2
#     Edge 132, Type (0, 0), BuildingBlock: AJUNOK_clean_linker_0, # of connection points: 2
#     Edge 133, Type (0, 0), BuildingBlock: AJUNOK_clean_linker_0, # of connection points: 2
#     Edge 134, Type (0, 0), BuildingBlock: AJUNOK_clean_linker_0, # of connection points: 2
#     Edge 135, Type (0, 0), BuildingBlock: AJUNOK_clean_linker_0, # of connection points: 2
#     Edge 136, Type (0, 0), BuildingBlock: AJUNOK_clean_linker_0, # of connection points: 2
#     Edge 137, Type (0, 0), BuildingBlock: AJUNOK_clean_linker_0, # of connection points: 2
#     Edge 138, Type (0, 0), BuildingBlock: AJUNOK_clean_linker_0, # of connection points: 2
#     Edge 139, Type (0, 0), BuildingBlock: AJUNOK_clean_linker_0, # of connection points: 2
#     Edge 140, Type (0, 0), BuildingBlock: AJUNOK_clean_linker_0, # of connection points: 2
#     Edge 141, Type (0, 0), BuildingBlock: AJUNOK_clean_linker_0, # of connection points: 2
#     Edge 142, Type (0, 0), BuildingBlock: AJUNOK_clean_linker_0, # of connection points: 2
#     Edge 143, Type (0, 0), BuildingBlock: AJUNOK_clean_linker_0, # of connection points: 2
# Relax obj value: 0.143
# Max RMSD: 0.132
# Mean RMSD: 0.132
data_MOF--net-wne--node1-CIFDUS_clean_sbu_1--edge1-AJUNOK_clean_linker_0
_symmetry_space_group_name_H-M    P1
_symmetry_Int_Tables_number       1
_symmetry_cell_setting            triclinic
loop_
_symmetry_equiv_pos_as_xyz
'x, y, z'
_cell_length_a     49.30628
_cell_length_b     49.297727
_cell_length_c     28.466711
_cell_angle_alpha  89.797528
_cell_angle_beta   90.010567
_cell_angle_gamma 119.92424
loop_
_atom_site_label
_atom_site_type_symbol
_atom_site_fract_x
_atom_site_fract_y
_atom_site_fract_z
_atom_type_partial_charge
O0 O 0.21248 0.18514 0.13833 0.0
Mn1 Mn 0.24601 0.19793 0.0827 0.0
O2 O 0.24087 0.19923 0.20413 0.0
Mn3 Mn 0.277 0.2228 0.17196 0.0
O4 O 0.28075 0.21185 0.03037 0.0
O5 O 0.21101 0.19758 0.03712 0.0
Mn6 Mn 0.22256 0.18211 0.98964 0.0
O7 O 0.23174 0.14965 0.07132 0.0
O8 O 0.25837 0.21158 0.96317 0.0
O9 O 0.26067 0.24621 0.08964 0.0
O10 O 0.2865 0.26268 0.1565 0.0
O11 O 0.19012 0.18066 0.96372 0.0
O12 O 0.21857 0.14362 0.99576 0.0
C13 C 0.30311 0.20275 0.15906 0.0
C14 C 0.21472 0.18569 0.18366 0.0
C15 C 0.28252 0.2193 0.98686 0.0
C16 C 0.19092 0.19439 1.00295 0.0
C17 C 0.22267 0.13292 0.0336 0.0
C18 C 0.27652 0.26823 0.11904 0.0
O19 O 0.28129 0.19934 0.12803 0.0
O20 O 0.30894 0.22084 0.19507 0.0
O21 O 0.82218 0.0325 0.14404 0.0
Mn22 Mn 0.80309 0.04836 0.09089 0.0
O23 O 0.79131 0.02794 0.20448 0.0
Mn24 Mn 0.77374 0.04852 0.17541 0.0
O25 O 0.7846 0.06405 0.03923 0.0
O26 O 0.80306 0.0142 0.04255 0.0
Mn27 Mn 0.83189 0.04706 1.01013 0.0
O28 O 0.84907 0.08815 0.07682 0.0
O29 O 0.81734 0.07081 0.98104 0.0
O30 O 0.75637 0.00991 0.10016 0.0
O31 O 0.73426 0.02452 0.15355 0.0
O32 O 0.82768 0.01762 0.97268 0.0
O33 O 0.87028 0.06634 0.03685 0.0
C34 C 0.79658 0.09599 0.17535 0.0
C35 C 0.81362 0.02548 0.18719 0.0
C36 C 0.79432 0.07247 0.99715 0.0
C37 C 0.80769 0.00072 1.0048 0.0
C38 C 0.87345 0.09004 0.05722 0.0
C39 C 0.73179 0.0059 0.1219 0.0
O40 O 0.8014 0.08094 0.13995 0.0
O41 O 0.77709 0.07983 0.20839 0.0
O42 O 0.96579 0.78474 0.14615 0.0
Mn43 Mn 0.94891 0.75261 0.08902 0.0
O44 O 0.95655 0.75352 0.20863 0.0
Mn45 Mn 0.93975 0.71748 0.17483 0.0
O46 O 0.93094 0.7191 0.03538 0.0
O47 O 0.98387 0.78883 0.04624 0.0
Mn48 Mn 0.95983 0.77911 0.99514 0.0
O49 O 0.91474 0.76589 0.07354 0.0
O50 O 0.95363 0.74332 0.96893 0.0
O51 O 0.98356 0.73866 0.0996 0.0
O52 O 0.96554 0.70335 0.15618 0.0
O53 O 0.99325 0.81206 0.97376 0.0
O54 O 0.92446 0.78227 0.99907 0.0
C55 C 0.89367 0.69549 0.16203 0.0
C56 C 0.96559 0.78031 0.19097 0.0
C57 C 0.93665 0.7187 0.99162 0.0
C58 C 0.00306 0.81033 1.01537 0.0
C59 C 0.90739 0.7749 0.03526 0.0
C60 C 0.98534 0.71771 0.12457 0.0
O61 O 0.91335 0.71747 0.13227 0.0
O62 O 0.90449 0.68733 0.19755 0.0
O63 O 0.18394 0.21757 0.38526 0.0
Mn64 Mn 0.19993 0.24806 0.44446 0.0
O65 O 0.21449 0.24983 0.32768 0.0
Mn66 Mn 0.23283 0.28586 0.36201 0.0
O67 O 0.21754 0.28173 0.49877 0.0
O68 O 0.19442 0.20949 0.48709 0.0
Mn69 Mn 0.18279 0.22412 0.53603 0.0
O70 O 0.15349 0.23902 0.45695 0.0
O71 O 0.21547 0.25673 0.56399 0.0
O72 O 0.24685 0.25699 0.43596 0.0
O73 O 0.27058 0.29717 0.38727 0.0
O74 O 0.17534 0.18889 0.56031 0.0
O75 O 0.14736 0.22693 0.53269 0.0
C76 C 0.20809 0.30795 0.37258 0.0
C77 C 0.19267 0.22334 0.34169 0.0
C78 C 0.22501 0.28187 0.54195 0.0
C79 C 0.18767 0.18785 0.52057 0.0
C80 C 0.13759 0.23285 0.49541 0.0
C81 C 0.27182 0.27846 0.41597 0.0
O82 O 0.20423 0.2848 0.40086 0.0
O83 O 0.22916 0.31741 0.33984 0.0
O84 O 0.79195 0.97288 0.39018 0.0
Mn85 Mn 0.75796 0.95285 0.44529 0.0
O86 O 0.76373 0.96586 0.32516 0.0
Mn87 Mn 0.72708 0.95074 0.35709 0.0
O88 O 0.72388 0.93286 0.49833 0.0
O89 O 0.79263 0.98551 0.49167 0.0
Mn90 Mn 0.78489 0.95934 0.53937 0.0
O91 O 0.77076 0.91759 0.45627 0.0
O92 O 0.74798 0.94864 0.56717 0.0
O93 O 0.74422 0.98728 0.44066 0.0
O94 O 0.71626 0.97941 0.37618 0.0
O95 O 0.81655 0.99304 0.5628 0.0
O96 O 0.79189 0.92717 0.52795 0.0
C97 C 0.70052 0.90373 0.36625 0.0
C98 C 0.78962 0.97443 0.34516 0.0
C99 C 0.72334 0.93525 0.54317 0.0
C100 C 0.81379 0.00428 0.52291 0.0
C101 C 0.78297 0.91063 0.49137 0.0
C102 C 0.72733 0.99387 0.41392 0.0
O103 O 0.72231 0.92078 0.39824 0.0
O104 O 0.69576 0.91766 0.33119 0.0
O105 O 0.03334 0.82122 0.38498 0.0
Mn106 Mn 0.05227 0.80752 0.44165 0.0
O107 O 0.04705 0.80591 0.3199 0.0
Mn108 Mn 0.06129 0.78391 0.35294 0.0
O109 O 0.07127 0.79251 0.49589 0.0
O110 O 0.0168 0.81013 0.48269 0.0
Mn111 Mn 0.04251 0.81848 0.53143 0.0
O112 O 0.08579 0.85502 0.45501 0.0
O113 O 0.03872 0.7827 0.55377 0.0
O114 O 0.01902 0.75859 0.43324 0.0
O115 O 0.03305 0.74378 0.36867 0.0
O116 O 0.01631 0.82723 0.55765 0.0
O117 O 0.08195 0.85298 0.53235 0.0
C118 C 0.10715 0.80493 0.36865 0.0
C119 C 0.03473 0.81997 0.33982 0.0
C120 C 0.05919 0.77861 0.53488 0.0
C121 C 0.00279 0.81695 0.51738 0.0
C122 C 0.0961 0.86736 0.49561 0.0
C123 C 0.01645 0.73698 0.40509 0.0
O124 O 0.08745 0.80726 0.3983 0.0
O125 O 0.0964 0.78768 0.33151 0.0
O126 O 0.78823 0.82088 0.87956 0.0
Mn127 Mn 0.75616 0.80488 0.93808 0.0
O128 O 0.75777 0.79305 0.81921 0.0
Mn129 Mn 0.72171 0.77304 0.85337 0.0
O130 O 0.72355 0.78872 0.99359 0.0
O131 O 0.79271 0.80844 0.98378 0.0
Mn132 Mn 0.78739 0.83339 0.02389 0.0
O133 O 0.76409 0.85179 0.94762 0.0
O134 O 0.75102 0.81356 0.05711 0.0
O135 O 0.74605 0.75722 0.93266 0.0
O136 O 0.71072 0.73454 0.87676 0.0
O137 O 0.81812 0.83214 0.05148 0.0
O138 O 0.79841 0.87249 1.0052 0.0
C139 C 0.69743 0.79602 0.86236 0.0
C140 C 0.78386 0.81405 0.83517 0.0
C141 C 0.72547 0.79476 0.03773 0.0
C142 C 0.81429 0.81369 1.01663 0.0
C143 C 0.78137 0.87496 0.9749 0.0
C144 C 0.72617 0.73251 0.91031 0.0
O145 O 0.71999 0.80046 0.89242 0.0
O146 O 0.69005 0.77554 0.82926 0.0
O147 O 0.18129 0.96949 0.89192 0.0
Mn148 Mn 0.19592 0.95058 0.9477 0.0
O149 O 0.19969 0.95868 0.8271 0.0
Mn150 Mn 0.22077 0.94311 0.85952 0.0
O151 O 0.21125 0.93234 1.00151 0.0
O152 O 0.19681 0.98547 0.9922 0.0
Mn153 Mn 0.17649 0.96077 0.04073 0.0
O154 O 0.14771 0.9166 0.96274 0.0
O155 O 0.198 0.94469 0.06975 0.0
O156 O 0.24431 0.98434 0.93783 0.0
O157 O 0.26121 0.97089 0.87527 0.0
O158 O 0.18368 0.99688 0.06313 0.0
O159 O 0.13593 0.93293 0.02864 0.0
C160 C 0.19861 0.89656 0.87221 0.0
C161 C 0.18391 0.96927 0.84677 0.0
C162 C 0.21112 0.93273 0.04659 0.0
C163 C 0.19654 0.00607 0.02208 0.0
C164 C 0.12798 0.91388 0.99511 0.0
C165 C 0.2667 0.98832 0.91031 0.0
O166 O 0.1959 0.91548 0.90313 0.0
O167 O 0.21665 0.90845 0.8359 0.0
O168 O 0.03208 0.21316 0.88443 0.0
Mn169 Mn 0.04826 0.24631 0.94041 0.0
O170 O 0.03669 0.24259 0.82134 0.0
Mn171 Mn 0.05315 0.27946 0.85326 0.0
O172 O 0.0642 0.2793 0.99413 0.0
O173 O 0.01373 0.21181 0.98647 0.0
Mn174 Mn 0.04227 0.21457 0.0277 0.0
O175 O 0.08553 0.2367 0.95437 0.0
O176 O 0.06323 0.2523 0.05779 0.0
O177 O 0.01223 0.25757 0.93173 0.0
O178 O 0.02629 0.29208 0.87411 0.0
O179 O 0.00837 0.18722 0.05693 0.0
O180 O 0.06584 0.19856 1.00661 0.0
C181 C 0.10033 0.30398 0.86407 0.0
C182 C 0.03021 0.21658 0.8397 0.0
C183 C 0.06928 0.27761 0.03785 0.0
C184 C 0.99578 0.19145 0.01964 0.0
C185 C 0.08799 0.2166 0.98039 0.0
C186 C 0.00857 0.27765 0.90802 0.0
O187 O 0.08174 0.28196 0.8948 0.0
O188 O 0.08777 0.31019 0.8287 0.0
O189 O 0.81965 0.79255 0.63428 0.0
Mn190 Mn 0.80677 0.75623 0.5825 0.0
O191 O 0.80636 0.7675 0.70286 0.0
Mn192 Mn 0.78359 0.73017 0.6741 0.0
O193 O 0.79329 0.71958 0.53292 0.0
O194 O 0.8076 0.78941 0.53349 0.0
Mn195 Mn 0.82359 0.77743 0.48702 0.0
O196 O 0.855 0.77148 0.57255 0.0
O197 O 0.79428 0.74052 0.46359 0.0
O198 O 0.75809 0.74004 0.58854 0.0
O199 O 0.74294 0.71834 0.65893 0.0
O200 O 0.82399 0.80944 0.45993 0.0
O201 O 0.86198 0.78128 0.49558 0.0
C202 C 0.803 0.70248 0.66472 0.0
C203 C 0.81962 0.79261 0.67972 0.0
C204 C 0.78584 0.71692 0.48928 0.0
C205 C 0.81023 0.809 0.49903 0.0
C206 C 0.87187 0.77846 0.53504 0.0
C207 C 0.7366 0.72547 0.61948 0.0
O208 O 0.80571 0.72252 0.63095 0.0
O209 O 0.78762 0.7008 0.70258 0.0
O210 O 0.21431 0.03232 0.64859 0.0
Mn211 Mn 0.2461 0.04988 0.59029 0.0
O212 O 0.24529 0.04163 0.71108 0.0
Mn213 Mn 0.28057 0.05477 0.67614 0.0
O214 O 0.27763 0.06714 0.53417 0.0
O215 O 0.21042 0.01657 0.54589 0.0
Mn216 Mn 0.21348 0.04323 0.5009 0.0
O217 O 0.23431 0.08605 0.58036 0.0
O218 O 0.25003 0.05862 0.46827 0.0
O219 O 0.25856 0.01439 0.59593 0.0
O220 O 0.28978 0.02495 0.6572 0.0
O221 O 0.1822 0.00843 0.47913 0.0
O222 O 0.20262 0.07161 0.51823 0.0
C223 C 0.30656 0.10127 0.66247 0.0
C224 C 0.21863 0.0329 0.6935 0.0
C225 C 0.27575 0.06808 0.48928 0.0
C226 C 0.18827 0.99718 0.5164 0.0
C227 C 0.2165 0.09018 0.55135 0.0
C228 C 0.27654 0.00862 0.6216 0.0
O229 O 0.28343 0.08287 0.63337 0.0
O230 O 0.31328 0.08883 0.69751 0.0
O231 O 0.97459 0.18153 0.63793 0.0
Mn232 Mn 0.95448 0.19705 0.58603 0.0
O233 O 0.97331 0.20776 0.70092 0.0
Mn234 Mn 0.94903 0.22174 0.67357 0.0
O235 O 0.93402 0.21202 0.53549 0.0
O236 O 0.98961 0.20092 0.53825 0.0
Mn237 Mn 0.96264 0.17685 0.49468 0.0
O238 O 0.92006 0.14927 0.57047 0.0
O239 O 0.94172 0.19447 0.46743 0.0
O240 O 0.98795 0.24575 0.59619 0.0
O241 O 0.96827 0.2615 0.6521 0.0
O242 O 0.99744 0.18586 0.46621 0.0
O243 O 0.93957 0.13614 0.51078 0.0
C244 C 0.90238 0.1954 0.66972 0.0
C245 C 0.98027 0.18896 0.68155 0.0
C246 C 0.93128 0.20902 0.49074 0.0
C247 C 0.00881 0.20132 0.50486 0.0
C248 C 0.9181 0.12894 0.54013 0.0
C249 C 0.98703 0.26785 0.61871 0.0
O250 O 0.91982 0.19391 0.63493 0.0
O251 O 0.91548 0.21316 0.70578 0.0
O252 O 0.87724 0.51695 0.47465 0.0
Mn253 Mn 0.91247 0.53228 0.42179 0.0
O254 O 0.90442 0.54357 0.53777 0.0
Mn255 Mn 0.94234 0.56127 0.50882 0.0
O256 O 0.94725 0.54762 0.37064 0.0
O257 O 0.87957 0.53231 0.37276 0.0
Mn258 Mn 0.8838 0.50744 0.33199 0.0
O259 O 0.9021 0.48467 0.41007 0.0
O260 O 0.92226 0.52526 0.3043 0.0
O261 O 0.92503 0.58044 0.42727 0.0
O262 O 0.95774 0.60091 0.48661 0.0
O263 O 0.85711 0.51413 0.30109 0.0
O264 O 0.86772 0.46763 0.35236 0.0
C265 C 0.96636 0.53778 0.50577 0.0
C266 C 0.879 0.52402 0.51855 0.0
C267 C 0.94713 0.54275 0.32644 0.0
C268 C 0.8601 0.53031 0.33855 0.0
C269 C 0.88393 0.46278 0.38145 0.0
C270 C 0.94463 0.60431 0.45117 0.0
O271 O 0.94608 0.53386 0.47157 0.0
O272 O 0.97043 0.55669 0.54001 0.0
O273 O 0.48943 0.3637 0.47461 0.0
Mn274 Mn 0.47165 0.3805 0.42019 0.0
O275 O 0.46332 0.36506 0.53817 0.0
Mn276 Mn 0.44252 0.38157 0.5077 0.0
O277 O 0.45392 0.39773 0.36796 0.0
O278 O 0.47507 0.34943 0.37256 0.0
Mn279 Mn 0.49376 0.37591 0.32524 0.0
O280 O 0.51804 0.41813 0.4072 0.0
O281 O 0.46752 0.38716 0.2985 0.0
O282 O 0.42477 0.34275 0.42814 0.0
O283 O 0.40348 0.35408 0.4876 0.0
O284 O 0.49176 0.34185 0.30217 0.0
O285 O 0.53245 0.40843 0.33778 0.0
C286 C 0.46345 0.42876 0.50073 0.0
C287 C 0.48366 0.36016 0.5192 0.0
C288 C 0.45328 0.3975 0.32281 0.0
C289 C 0.47763 0.33052 0.34191 0.0
C290 C 0.53796 0.42568 0.37322 0.0
C291 C 0.40091 0.33688 0.45358 0.0
O292 O 0.46802 0.41196 0.46813 0.0
O293 O 0.44466 0.41425 0.53544 0.0
O294 O 0.63799 0.12098 0.47304 0.0
Mn295 Mn 0.61817 0.08676 0.41807 0.0
O296 O 0.62414 0.09314 0.53949 0.0
Mn297 Mn 0.60947 0.0564 0.50846 0.0
O298 O 0.59928 0.05278 0.36476 0.0
O299 O 0.65314 0.12051 0.3733 0.0
Mn300 Mn 0.62862 0.11533 0.32442 0.0
O301 O 0.58458 0.10111 0.4024 0.0
O302 O 0.61403 0.07793 0.2962 0.0
O303 O 0.65095 0.07097 0.42893 0.0
O304 O 0.63738 0.04366 0.49493 0.0
O305 O 0.66423 0.14441 0.30146 0.0
O306 O 0.5997 0.12703 0.33437 0.0
C307 C 0.56365 0.03133 0.4944 0.0
C308 C 0.63673 0.11916 0.51842 0.0
C309 C 0.60073 0.05295 0.31967 0.0
C310 C 0.67347 0.14109 0.3427 0.0
C311 C 0.58075 0.11631 0.36825 0.0
C312 C 0.65414 0.05302 0.45866 0.0
O313 O 0.58278 0.05242 0.46296 0.0
O314 O 0.57483 0.02613 0.5324 0.0
O315 O 0.84882 0.54996 0.71866 0.0
Mn316 Mn 0.86198 0.57819 0.78011 0.0
O317 O 0.86491 0.58395 0.65694 0.0
Mn318 Mn 0.88496 0.62183 0.68799 0.0
O319 O 0.87638 0.60851 0.83699 0.0
O320 O 0.86284 0.54199 0.82042 0.0
Mn321 Mn 0.8419 0.54588 0.8694 0.0
O322 O 0.81406 0.56324 0.79439 0.0
O323 O 0.86522 0.58115 0.90309 0.0
O324 O 0.90985 0.59506 0.76596 0.0
O325 O 0.92461 0.62857 0.70482 0.0
O326 O 0.84553 0.51462 0.88962 0.0
O327 O 0.80158 0.53646 0.86116 0.0
C328 C 0.84154 0.62353 0.74701 0.0
C329 C 0.85091 0.55619 0.674 0.0
C330 C 0.87734 0.60691 0.88167 0.0
C331 C 0.86088 0.52016 0.85041 0.0
C332 C 0.79444 0.54832 0.82759 0.0
C333 C 0.93093 0.61477 0.73754 0.0
O334 O 0.86228 0.61496 0.74232 0.0
O335 O 0.86174 0.6154 0.74196 0.0
O336 O 0.45958 0.3064 0.72098 0.0
Mn337 Mn 0.42493 0.28728 0.77497 0.0
O338 O 0.43133 0.30021 0.6563 0.0
Mn339 Mn 0.39388 0.28141 0.68706 0.0
O340 O 0.39092 0.26829 0.82738 0.0
O341 O 0.45659 0.32259 0.82102 0.0
Mn342 Mn 0.45548 0.2965 0.86508 0.0
O343 O 0.43896 0.25289 0.79153 0.0
O344 O 0.41754 0.27348 0.89327 0.0
O345 O 0.41023 0.32117 0.76466 0.0
O346 O 0.37807 0.30632 0.70451 0.0
O347 O 0.48017 0.3321 0.89275 0.0
O348 O 0.47448 0.27507 0.84723 0.0
C349 C 0.37094 0.23451 0.69559 0.0
C350 C 0.45727 0.30857 0.67612 0.0
C351 C 0.39209 0.26394 0.87159 0.0
C352 C 0.47572 0.34244 0.85317 0.0
C353 C 0.45962 0.2527 0.8196 0.0
C354 C 0.39046 0.32419 0.73888 0.0
O355 O 0.39141 0.25254 0.72838 0.0
O356 O 0.3655 0.24722 0.65959 0.0
O357 O 0.70087 0.14921 0.71493 0.0
Mn358 Mn 0.71703 0.13426 0.7744 0.0
O359 O 0.71258 0.12923 0.6528 0.0
Mn360 Mn 0.72401 0.10591 0.68845 0.0
O361 O 0.73442 0.11903 0.83071 0.0
O362 O 0.68264 0.13843 0.81505 0.0
Mn363 Mn 0.70744 0.1518 0.86556 0.0
O364 O 0.75244 0.18166 0.786 0.0
O365 O 0.71009 0.12062 0.89462 0.0
O366 O 0.68145 0.08648 0.76738 0.0
O367 O 0.69294 0.06698 0.7055 0.0
O368 O 0.67654 0.15603 0.8864 0.0
O369 O 0.74429 0.1888 0.86084 0.0
C370 C 0.76993 0.12572 0.70532 0.0
C371 C 0.70295 0.14654 0.66999 0.0
C372 C 0.72725 0.11229 0.87421 0.0
C373 C 0.66519 0.14353 0.84589 0.0
C374 C 0.76041 0.19827 0.82378 0.0
C375 C 0.67576 0.06338 0.74037 0.0
O376 O 0.75063 0.13002 0.73304 0.0
O377 O 0.75861 0.10698 0.66979 0.0
O378 O 0.45583 0.15147 0.22223 0.0
Mn379 Mn 0.42172 0.13647 0.27714 0.0
O380 O 0.42757 0.13387 0.15654 0.0
Mn381 Mn 0.39082 0.11219 0.18831 0.0
O382 O 0.38686 0.12035 0.33008 0.0
O383 O 0.4562 0.13623 0.32118 0.0
Mn384 Mn 0.44738 0.15103 0.37195 0.0
O385 O 0.43571 0.18439 0.29317 0.0
O386 O 0.4106 0.12253 0.3973 0.0
O387 O 0.40794 0.08842 0.26731 0.0
O388 O 0.37873 0.07177 0.20373 0.0
O389 O 0.47935 0.14851 0.39327 0.0
O390 O 0.45355 0.19036 0.36662 0.0
C391 C 0.36583 0.13355 0.19954 0.0
C392 C 0.45364 0.14925 0.17701 0.0
C393 C 0.386 0.11351 0.37389 0.0
C394 C 0.47719 0.13717 0.35148 0.0
C395 C 0.44707 0.20111 0.33083 0.0
C396 C 0.39051 0.06625 0.23904 0.0
O397 O 0.38711 0.13658 0.23144 0.0
O398 O 0.36019 0.11554 0.16348 0.0
O399 O 0.84642 0.30339 0.22635 0.0
Mn400 Mn 0.86284 0.28491 0.28041 0.0
O401 O 0.86853 0.29746 0.16163 0.0
Mn402 Mn 0.8884 0.2803 0.19293 0.0
O403 O 0.87856 0.2662 0.33246 0.0
O404 O 0.86551 0.32053 0.32702 0.0
Mn405 Mn 0.8398 0.29201 0.36826 0.0
O406 O 0.81541 0.24958 0.29582 0.0
O407 O 0.85382 0.26802 0.39647 0.0
O408 O 0.91055 0.31947 0.27077 0.0
O409 O 0.92887 0.3067 0.20946 0.0
O410 O 0.84919 0.32553 0.40027 0.0
O411 O 0.7998 0.27135 0.34848 0.0
C412 C 0.86585 0.23309 0.19981 0.0
C413 C 0.8504 0.30511 0.18136 0.0
C414 C 0.87132 0.25999 0.37592 0.0
C415 C 0.86465 0.33827 0.36195 0.0
C416 C 0.79371 0.24871 0.32223 0.0
C417 C 0.93346 0.32381 0.24444 0.0
O418 O 0.86247 0.25025 0.23342 0.0
O419 O 0.88442 0.24718 0.16476 0.0
O420 O 0.69363 0.53955 0.22333 0.0
Mn421 Mn 0.71335 0.57572 0.27508 0.0
O422 O 0.69541 0.56482 0.15675 0.0
Mn423 Mn 0.71303 0.6032 0.18365 0.0
O424 O 0.73248 0.61049 0.32646 0.0
O425 O 0.68198 0.54346 0.32596 0.0
Mn426 Mn 0.71273 0.54592 0.36166 0.0
O427 O 0.75178 0.56725 0.28596 0.0
O428 O 0.73692 0.58473 0.38801 0.0
O429 O 0.67729 0.58748 0.26846 0.0
O430 O 0.68659 0.61627 0.20415 0.0
O431 O 0.68056 0.52028 0.39591 0.0
O432 O 0.73274 0.52761 0.3348 0.0
C433 C 0.76028 0.62844 0.18998 0.0
C434 C 0.68945 0.54006 0.17857 0.0
C435 C 0.74086 0.6097 0.369 0.0
C436 C 0.66583 0.52428 0.36123 0.0
C437 C 0.75485 0.54659 0.30948 0.0
C438 C 0.67143 0.60489 0.24144 0.0
O439 O 0.74325 0.60833 0.22372 0.0
O440 O 0.74632 0.63226 0.15409 0.0
O441 O 0.48521 0.11759 0.97894 0.0
Mn442 Mn 0.47124 0.08704 0.91943 0.0
O443 O 0.46132 0.08488 0.03921 0.0
Mn444 Mn 0.44141 0.0503 1.0025 0.0
O445 O 0.45713 0.05515 0.86361 0.0
O446 O 0.47374 0.1246 0.87799 0.0
Mn447 Mn 0.48898 0.11565 0.82715 0.0
O448 O 0.51916 0.10045 0.9068 0.0
O449 O 0.45957 0.08074 0.79827 0.0
O450 O 0.42284 0.07377 0.92555 0.0
O451 O 0.40208 0.03941 0.98325 0.0
O452 O 0.48965 0.1494 0.80684 0.0
O453 O 0.52749 0.1191 0.83326 0.0
C454 C 0.46397 0.02615 0.99055 0.0
C455 C 0.48003 0.11196 0.02348 0.0
C456 C 0.45087 0.05557 0.82005 0.0
C457 C 0.47706 0.1469 0.84779 0.0
C458 C 0.5366 0.1114 0.86976 0.0
C459 C 0.39897 0.05424 0.94979 0.0
O460 O 0.46866 0.04951 0.96146 0.0
O461 O 0.4435 0.01805 0.02397 0.0
O462 O 0.87665 0.36397 0.98311 0.0
Mn463 Mn 0.91077 0.3807 0.92801 0.0
O464 O 0.9048 0.37144 0.04798 0.0
Mn465 Mn 0.94144 0.38771 1.01589 0.0
O466 O 0.94397 0.39693 0.874 0.0
O467 O 0.87553 0.34395 0.88519 0.0
Mn468 Mn 0.87881 0.37221 0.84306 0.0
O469 O 0.89992 0.4169 0.91075 0.0
O470 O 0.91583 0.39446 0.81185 0.0
O471 O 0.92445 0.34624 0.93894 0.0
O472 O 0.95586 0.36162 1.00019 0.0
O473 O 0.85381 0.33881 0.81198 0.0
O474 O 0.8603 0.39377 0.86254 0.0
C475 C 0.96699 0.43413 1.00506 0.0
C476 C 0.87894 0.36308 0.02816 0.0
C477 C 0.94168 0.4013 0.83012 0.0
C478 C 0.85609 0.32637 0.85093 0.0
C479 C 0.87878 0.41764 0.88499 0.0
C480 C 0.94483 0.34447 0.96484 0.0
O481 O 0.94594 0.41633 0.97255 0.0
O482 O 0.97107 0.42133 0.0422 0.0
O483 O 0.63417 0.51327 0.98136 0.0
Mn484 Mn 0.61875 0.53109 0.92539 0.0
O485 O 0.62916 0.53696 0.04529 0.0
Mn486 Mn 0.61457 0.55942 1.01357 0.0
O487 O 0.60358 0.54819 0.87076 0.0
O488 O 0.65304 0.52983 0.88013 0.0
Mn489 Mn 0.62195 0.50135 0.84508 0.0
O490 O 0.57991 0.48483 0.91173 0.0
O491 O 0.59799 0.51485 0.81425 0.0
O492 O 0.65582 0.57835 0.93458 0.0
O493 O 0.64354 0.59878 0.99429 0.0
O494 O 0.65313 0.50638 0.81073 0.0
O495 O 0.60203 0.46331 0.87267 0.0
C496 C 0.56754 0.53768 1.00115 0.0
C497 C 0.63552 0.51756 0.02624 0.0
C498 C 0.59501 0.53731 0.82927 0.0
C499 C 0.66826 0.52527 0.84488 0.0
C500 C 0.57818 0.46047 0.89238 0.0
C501 C 0.66108 0.60202 0.96009 0.0
O502 O 0.5864 0.53433 0.97118 0.0
O503 O 0.57979 0.55647 0.0364 0.0
O504 O 0.54194 0.84467 0.80556 0.0
Mn505 Mn 0.57639 0.86058 0.75121 0.0
O506 O 0.57014 0.86961 0.86893 0.0
Mn507 Mn 0.60754 0.88777 0.8383 0.0
O508 O 0.6109 0.87605 0.69853 0.0
O509 O 0.5429 0.86082 0.70508 0.0
Mn510 Mn 0.54751 0.84031 0.65771 0.0
O511 O 0.56396 0.813 0.73665 0.0
O512 O 0.58547 0.86187 0.63017 0.0
O513 O 0.58941 0.90868 0.75953 0.0
O514 O 0.62266 0.92785 0.81836 0.0
O515 O 0.51896 0.84763 0.63378 0.0
O516 O 0.53495 0.79982 0.67152 0.0
C517 C 0.63054 0.86365 0.83231 0.0
C518 C 0.5444 0.85049 0.85002 0.0
C519 C 0.61049 0.87481 0.65341 0.0
C520 C 0.52224 0.86043 0.67469 0.0
C521 C 0.54735 0.79287 0.70469 0.0
C522 C 0.60918 0.93207 0.78407 0.0
O523 O 0.61008 0.86065 0.79901 0.0
O524 O 0.63587 0.88243 0.86726 0.0
O525 O 0.15013 0.69487 0.80948 0.0
Mn526 Mn 0.13629 0.71463 0.75418 0.0
O527 O 0.12612 0.69944 0.87304 0.0
Mn528 Mn 0.10628 0.7164 0.84052 0.0
O529 O 0.12256 0.73564 0.70177 0.0
O530 O 0.14025 0.68141 0.70988 0.0
Mn531 Mn 0.153 0.70829 0.66203 0.0
O532 O 0.18419 0.74982 0.74416 0.0
O533 O 0.12195 0.71196 0.63592 0.0
O534 O 0.08755 0.67974 0.75704 0.0
O535 O 0.06696 0.68975 0.81885 0.0
O536 O 0.15723 0.6791 0.63578 0.0
O537 O 0.19008 0.74439 0.66778 0.0
C538 C 0.12824 0.7637 0.8335 0.0
C539 C 0.14487 0.69224 0.85409 0.0
C540 C 0.11504 0.72932 0.65856 0.0
C541 C 0.14571 0.66589 0.67601 0.0
C542 C 0.20053 0.75875 0.70588 0.0
C543 C 0.06356 0.67467 0.7817 0.0
O544 O 0.13301 0.74678 0.80135 0.0
O545 O 0.10876 0.74955 0.86757 0.0
O546 O 0.30302 0.45484 0.81302 0.0
Mn547 Mn 0.28534 0.42327 0.75529 0.0
O548 O 0.29551 0.42413 0.87561 0.0
Mn549 Mn 0.28129 0.38839 0.8413 0.0
O550 O 0.26821 0.39155 0.69892 0.0
O551 O 0.31758 0.46012 0.71163 0.0
Mn552 Mn 0.29217 0.45507 0.66378 0.0
O553 O 0.24917 0.43483 0.74625 0.0
O554 O 0.28328 0.41957 0.63267 0.0
O555 O 0.32107 0.41089 0.75955 0.0
O556 O 0.31062 0.37891 0.82027 0.0
O557 O 0.32677 0.48902 0.64555 0.0
O558 O 0.25832 0.45928 0.67679 0.0
C559 C 0.23418 0.36328 0.82919 0.0
C560 C 0.30357 0.45068 0.85775 0.0
C561 C 0.27177 0.39369 0.65399 0.0
C562 C 0.33741 0.48321 0.6837 0.0
C563 C 0.24171 0.44784 0.71304 0.0
C564 C 0.32681 0.39253 0.78453 0.0
O565 O 0.25288 0.38631 0.79989 0.0
O566 O 0.24679 0.35581 0.8631 0.0
O567 O 0.51475 0.87581 0.05091 0.0
Mn568 Mn 0.53023 0.909 0.10684 0.0
O569 O 0.53763 0.90469 0.98688 0.0
Mn570 Mn 0.5593 0.94092 0.01971 0.0
O571 O 0.54579 0.94233 0.16182 0.0
O572 O 0.52578 0.87287 0.15138 0.0
Mn573 Mn 0.50925 0.88072 0.20123 0.0
O574 O 0.48287 0.89733 0.11804 0.0
O575 O 0.53839 0.91612 0.22883 0.0
O576 O 0.578 0.92052 0.10106 0.0
O577 O 0.59845 0.95118 0.0391 0.0
O578 O 0.50885 0.84649 0.22038 0.0
O579 O 0.47166 0.87847 0.1916 0.0
C580 C 0.53885 0.96745 0.02912 0.0
C581 C 0.51902 0.87874 1.00602 0.0
C582 C 0.55004 0.94149 0.2064 0.0
C583 C 0.52265 0.85025 0.18011 0.0
C584 C 0.4644 0.88693 0.15402 0.0
C585 C 0.6017 0.93825 0.07507 0.0
O586 O 0.53396 0.94521 0.06059 0.0
O587 O 0.55801 0.97283 0.99457 0.0
O588 O 0.12233 0.6365 0.05496 0.0
Mn589 Mn 0.09055 0.619 0.11306 0.0
O590 O 0.09179 0.62755 0.99219 0.0
Mn591 Mn 0.05673 0.61454 0.02742 0.0
O592 O 0.05822 0.60059 0.16933 0.0
O593 O 0.12812 0.65278 0.15438 0.0
Mn594 Mn 0.119 0.62882 0.20531 0.0
O595 O 0.10345 0.58418 0.12489 0.0
O596 O 0.08437 0.62448 0.23358 0.0
O597 O 0.07718 0.65383 0.10799 0.0
O598 O 0.04735 0.64443 0.04538 0.0
O599 O 0.15375 0.66133 0.22429 0.0
O600 O 0.12012 0.59254 0.1993 0.0
C601 C 0.03048 0.56784 0.03946 0.0
C602 C 0.1183 0.63607 1.01007 0.0
C603 C 0.05898 0.60702 0.2132 0.0
C604 C 0.15088 0.67158 0.18358 0.0
C605 C 0.11262 0.57622 0.16246 0.0
C606 C 0.0597 0.66 0.08182 0.0
O607 O 0.05341 0.58561 0.06947 0.0
O608 O 0.024 0.58107 1.00526 0.0
O609 O 0.36508 0.48659 0.0561 0.0
Mn610 Mn 0.38162 0.47111 0.11361 0.0
O611 O 0.3751 0.46614 0.99275 0.0
Mn612 Mn 0.38921 0.44413 0.02648 0.0
O613 O 0.39781 0.45495 0.16927 0.0
O614 O 0.34766 0.47353 0.15539 0.0
Mn615 Mn 0.37003 0.48972 0.20716 0.0
O616 O 0.41674 0.51827 0.12866 0.0
O617 O 0.37765 0.46118 0.23562 0.0
O618 O 0.34652 0.4234 0.1046 0.0
O619 O 0.3599 0.40448 0.04411 0.0
O620 O 0.33454 0.488 0.22309 0.0
O621 O 0.40424 0.52844 0.19939 0.0
C622 C 0.43562 0.46597 0.04158 0.0
C623 C 0.36555 0.48323 1.01118 0.0
C624 C 0.39215 0.45019 0.21353 0.0
C625 C 0.32645 0.47519 0.18196 0.0
C626 C 0.42256 0.53648 0.16454 0.0
C627 C 0.34207 0.40042 0.07828 0.0
O628 O 0.41599 0.46904 0.07043 0.0
O629 O 0.42446 0.44736 1.00592 0.0
O630 O 0.11984 0.48283 0.55744 0.0
Mn631 Mn 0.08708 0.47126 0.61429 0.0
O632 O 0.0909 0.46927 0.49238 0.0
Mn633 Mn 0.05544 0.44562 0.52586 0.0
O634 O 0.05264 0.45834 0.66831 0.0
O635 O 0.12424 0.47411 0.65851 0.0
Mn636 Mn 0.1081 0.48682 0.70437 0.0
O637 O 0.10234 0.51929 0.62213 0.0
O638 O 0.07538 0.45392 0.73153 0.0
O639 O 0.07167 0.42287 0.60995 0.0
O640 O 0.04683 0.40618 0.54211 0.0
O641 O 0.14283 0.49512 0.73121 0.0
O642 O 0.10464 0.52215 0.69957 0.0
C643 C 0.02852 0.46509 0.5392 0.0
C644 C 0.11727 0.48252 0.51216 0.0
C645 C 0.0509 0.44818 0.71049 0.0
C646 C 0.14479 0.48125 0.69381 0.0
C647 C 0.10485 0.53407 0.66039 0.0
C648 C 0.05645 0.40099 0.58018 0.0
O649 O 0.05086 0.46904 0.56973 0.0
O650 O 0.02275 0.44664 0.50366 0.0
O651 O 0.51462 0.6346 0.55599 0.0
Mn652 Mn 0.53118 0.61587 0.60896 0.0
O653 O 0.54556 0.63795 0.49716 0.0
Mn654 Mn 0.5573 0.61237 0.52617 0.0
O655 O 0.54726 0.59568 0.6596 0.0
O656 O 0.53197 0.65048 0.6542 0.0
Mn657 Mn 0.51982 0.62667 0.70548 0.0
O658 O 0.4836 0.58259 0.62683 0.0
O659 O 0.5504 0.61979 0.72653 0.0
O660 O 0.58034 0.65025 0.59966 0.0
O661 O 0.5968 0.62949 0.54747 0.0
O662 O 0.52234 0.66085 0.72835 0.0
O663 O 0.48038 0.59254 0.70256 0.0
C664 C 0.5315 0.56551 0.52364 0.0
C665 C 0.52419 0.64215 0.51341 0.0
C666 C 0.55673 0.60248 0.70219 0.0
C667 C 0.53151 0.67019 0.68565 0.0
C668 C 0.46827 0.57629 0.66614 0.0
C669 C 0.60299 0.64853 0.58006 0.0
O670 O 0.52837 0.58032 0.56102 0.0
O671 O 0.54978 0.58152 0.48941 0.0
O672 O 0.36224 0.87605 0.55596 0.0
Mn673 Mn 0.38061 0.9108 0.60964 0.0
O674 O 0.36825 0.90402 0.49057 0.0
Mn675 Mn 0.38486 0.94152 0.52033 0.0
O676 O 0.3998 0.94594 0.6605 0.0
O677 O 0.34717 0.87804 0.65707 0.0
Mn678 Mn 0.37272 0.88364 0.70449 0.0
O679 O 0.41564 0.89799 0.62455 0.0
O680 O 0.3901 0.92219 0.73041 0.0
O681 O 0.34565 0.92381 0.6005 0.0
O682 O 0.35775 0.95452 0.53825 0.0
O683 O 0.33716 0.85528 0.72945 0.0
O684 O 0.40007 0.87055 0.69135 0.0
C685 C 0.43171 0.96568 0.52994 0.0
C686 C 0.36083 0.87836 0.5109 0.0
C687 C 0.40158 0.94655 0.70539 0.0
C688 C 0.32722 0.85786 0.68837 0.0
C689 C 0.4188 0.88141 0.65727 0.0
C690 C 0.34082 0.94199 0.57368 0.0
O691 O 0.41353 0.94472 0.56209 0.0
O692 O 0.41913 0.97133 0.494 0.0
O693 O 0.15023 0.45112 0.31168 0.0
Mn694 Mn 0.1362 0.41953 0.25354 0.0
O695 O 0.12484 0.41866 0.37212 0.0
Mn696 Mn 0.10683 0.38254 0.33831 0.0
O697 O 0.12118 0.38439 0.20171 0.0
O698 O 0.13822 0.4565 0.2096 0.0
Mn699 Mn 0.14686 0.43836 0.16167 0.0
O700 O 0.18363 0.43305 0.24012 0.0
O701 O 0.112 0.40443 0.13963 0.0
O702 O 0.08809 0.40643 0.26178 0.0
O703 O 0.06782 0.36929 0.31597 0.0
O704 O 0.153 0.47205 0.13352 0.0
O705 O 0.18339 0.43692 0.16241 0.0
C706 C 0.13279 0.36202 0.32618 0.0
C707 C 0.14381 0.44569 0.3561 0.0
C708 C 0.10728 0.38083 0.16248 0.0
C709 C 0.14299 0.47603 0.17355 0.0
C710 C 0.197 0.43683 0.19985 0.0
C711 C 0.06443 0.38541 0.28478 0.0
O712 O 0.13487 0.38428 0.29748 0.0
O713 O 0.11267 0.35233 0.3603 0.0
O714 O 0.54648 0.6973 0.30929 0.0
Mn715 Mn 0.58057 0.71641 0.25426 0.0
O716 O 0.57572 0.70409 0.37303 0.0
Mn717 Mn 0.61274 0.72317 0.34126 0.0
O718 O 0.61624 0.73655 0.20235 0.0
O719 O 0.54616 0.68117 0.20946 0.0
Mn720 Mn 0.55857 0.70687 0.1599 0.0
O721 O 0.56596 0.7495 0.23933 0.0
O722 O 0.59487 0.71241 0.13594 0.0
O723 O 0.59481 0.68239 0.26358 0.0
O724 O 0.6287 0.69892 0.32179 0.0
O725 O 0.52611 0.67505 0.13521 0.0
O726 O 0.55439 0.74149 0.16311 0.0
C727 C 0.63538 0.76999 0.33223 0.0
C728 C 0.54946 0.69539 0.3541 0.0
C729 C 0.61872 0.72964 0.1597 0.0
C730 C 0.52628 0.66329 0.17598 0.0
C731 C 0.55745 0.75645 0.20038 0.0
C732 C 0.61571 0.68064 0.28804 0.0
O733 O 0.61459 0.75161 0.29999 0.0
O734 O 0.64121 0.75752 0.36818 0.0
O735 O 0.30734 0.84776 0.31021 0.0
Mn736 Mn 0.28858 0.86255 0.25455 0.0
O737 O 0.30201 0.87113 0.3742 0.0
Mn738 Mn 0.28607 0.89219 0.34253 0.0
O739 O 0.26862 0.87818 0.20231 0.0
O740 O 0.32094 0.85756 0.2095 0.0
Mn741 Mn 0.29299 0.84798 0.1633 0.0
O742 O 0.25344 0.81513 0.24497 0.0
O743 O 0.29577 0.88294 0.1392 0.0
O744 O 0.32411 0.91071 0.25908 0.0
O745 O 0.31384 0.93127 0.32098 0.0
O746 O 0.31826 0.83855 0.13527 0.0
O747 O 0.2536 0.81368 0.16726 0.0
C748 C 0.239 0.87006 0.33234 0.0
C749 C 0.30923 0.85245 0.35502 0.0
C750 C 0.27825 0.88988 0.16122 0.0
C751 C 0.33369 0.85006 0.17385 0.0
C752 C 0.24136 0.80121 0.20597 0.0
C753 C 0.3295 0.9345 0.28437 0.0
O754 O 0.25722 0.86639 0.30157 0.0
O755 O 0.25173 0.88893 0.36738 0.0
C756 C 0.23675 0.09114 0.05136 0.0
C757 C 0.21672 0.10025 0.03046 0.0
C758 C 0.2329 0.06123 0.04283 0.0
C759 C 0.20927 0.0396 1.01262 0.0
H760 H 0.25538 0.10708 0.07437 0.0
H761 H 0.24735 0.05424 0.0622 0.0
S762 S 0.15041 0.05169 0.95016 0.0
N763 N 0.17207 0.0848 0.97849 0.0
N764 N 0.16559 0.02932 0.96259 0.0
C765 C 0.18983 0.04882 0.99063 0.0
C766 C 0.19328 0.07884 0.99969 0.0
C767 C 0.94509 0.1721 0.06126 0.0
C768 C 0.9611 0.17328 0.01924 0.0
C769 C 0.91561 0.14623 0.07265 0.0
C770 C 0.90122 0.12043 0.0425 0.0
H771 H 0.95679 0.19011 0.08756 0.0
H772 H 0.90529 0.14545 0.10657 0.0
S773 S 0.93091 0.11414 0.92509 0.0
N774 N 0.95861 0.148 0.9456 0.0
N775 N 0.90304 0.10009 0.96518 0.0
C776 C 0.91556 0.12296 0.99819 0.0
C777 C 0.94549 0.14921 0.98692 0.0
C778 C 0.84638 0.79754 0.06458 0.0
C779 C 0.83319 0.79763 0.0202 0.0
C780 C 0.86881 0.78823 0.0701 0.0
C781 C 0.87914 0.77844 0.0315 0.0
H782 H 0.84028 0.80595 0.09567 0.0
H783 H 0.87932 0.7904 0.10431 0.0
S784 S 0.8467 0.76635 0.91035 0.0
N785 N 0.82844 0.78176 0.93878 0.0
N786 N 0.87042 0.76376 0.94878 0.0
C787 C 0.86406 0.77544 0.98775 0.0
C788 C 0.84109 0.78502 0.98219 0.0
C789 C 0.05877 0.21547 0.54617 0.0
C790 C 0.04339 0.2188 0.5073 0.0
C791 C 0.0897 0.22155 0.54208 0.0
C792 C 0.1064 0.23091 0.49884 0.0
H793 H 0.04614 0.20571 0.5787 0.0
H794 H 0.09991 0.2172 0.57284 0.0
S795 S 0.07784 0.24869 0.38922 0.0
N796 N 0.0483 0.23674 0.42632 0.0
N797 N 0.10605 0.24733 0.4185 0.0
C798 C 0.09204 0.23695 0.46098 0.0
C799 C 0.06072 0.2312 0.46536 0.0
C800 C 0.79558 0.87409 0.53588 0.0
C801 C 0.78624 0.88206 0.49308 0.0
C802 C 0.80082 0.84865 0.5394 0.0
C803 C 0.79679 0.82998 0.50035 0.0
H804 H 0.79983 0.88815 0.56708 0.0
H805 H 0.80978 0.84478 0.57198 0.0
S806 S 0.76864 0.83737 0.38226 0.0
N807 N 0.77086 0.86701 0.41225 0.0
N808 N 0.77936 0.8185 0.41902 0.0
C809 C 0.78532 0.83613 0.4584 0.0
C810 C 0.78043 0.8623 0.45466 0.0
C811 C 0.12723 0.91478 0.54615 0.0
C812 C 0.12353 0.8994 0.50251 0.0
C813 C 0.15108 0.94586 0.55356 0.0
C814 C 0.17254 0.96261 0.51791 0.0
H815 H 0.11052 0.90333 0.57431 0.0
H816 H 0.15117 0.95749 0.58583 0.0
S817 S 0.17687 0.93224 0.40051 0.0
N818 N 0.14592 0.90271 0.42542 0.0
N819 N 0.19119 0.96067 0.43959 0.0
C820 C 0.17084 0.94671 0.47578 0.0
C821 C 0.14621 0.91533 0.46788 0.0
C822 C 0.78361 0.94492 0.03344 0.0
C823 C 0.79153 0.96623 0.99626 0.0
C824 C 0.77726 0.91415 0.02509 0.0
C825 C 0.77853 0.90349 0.97935 0.0
H826 H 0.78477 0.95264 0.06934 0.0
H827 H 0.77337 0.89914 0.05523 0.0
S828 S 0.79207 0.94813 0.86912 0.0
N829 N 0.79509 0.97272 0.9108 0.0
N830 N 0.78407 0.91532 0.89631 0.0
C831 C 0.78318 0.92342 0.94161 0.0
C832 C 0.78947 0.95468 0.94983 0.0
C833 C 0.08889 0.85593 0.98996 0.0
C834 C 0.09562 0.88668 0.99925 0.0
C835 C 0.05945 0.83002 1.00163 0.0
C836 C 0.036 0.83381 0.02411 0.0
H837 H 0.10644 0.85185 0.97389 0.0
H838 H 0.05437 0.80692 0.99073 0.0
S839 S 0.04145 0.90918 0.05508 0.0
N840 N 0.07577 0.91917 0.03148 0.0
N841 N 0.02141 0.87057 0.05413 0.0
C842 C 0.04278 0.86427 0.03443 0.0
C843 C 0.07221 0.89058 0.02174 0.0
C844 C 0.16574 0.22001 0.96025 0.0
C845 C 0.17051 0.20849 1.00339 0.0
C846 C 0.14006 0.22449 0.95314 0.0
C847 C 0.11828 0.21773 0.98909 0.0
H848 H 0.18089 0.22358 0.93048 0.0
H849 H 0.13625 0.23133 0.91865 0.0
S850 S 0.12317 0.19285 0.11097 0.0
N851 N 0.15337 0.19415 0.08373 0.0
N852 N 0.1061 0.20421 0.07201 0.0
C853 C 0.12471 0.20949 0.03389 0.0
C854 C 0.15063 0.20454 0.04075 0.0
C855 C 0.94653 0.78157 0.49542 0.0
C856 C 0.96966 0.8093 0.51622 0.0
C857 C 0.91461 0.77048 0.50444 0.0
C858 C 0.90481 0.78624 0.53546 0.0
H859 H 0.95309 0.76791 0.47332 0.0
H860 H 0.89735 0.74952 0.48667 0.0
S861 S 0.9558 0.8613 0.59511 0.0
N862 N 0.9802 0.85362 0.56619 0.0
N863 N 0.92044 0.83186 0.58398 0.0
C864 C 0.92757 0.81412 0.55569 0.0
C865 C 0.95988 0.8259 0.54571 0.0
C866 C 0.18103 0.11142 0.55256 0.0
C867 C 0.21207 0.1176 0.55142 0.0
C868 C 0.17305 0.13336 0.53656 0.0
C869 C 0.19571 0.16276 0.5188 0.0
H870 H 0.16243 0.08879 0.56439 0.0
H871 H 0.14888 0.12773 0.5399 0.0
S872 S 0.28036 0.19029 0.50629 0.0
N873 N 0.26559 0.15466 0.52861 0.0
N874 N 0.25074 0.19688 0.50078 0.0
C875 C 0.22691 0.16932 0.51697 0.0
C876 C 0.23505 0.14662 0.53294 0.0
C877 C 0.86362 0.0868 0.56363 0.0
C878 C 0.88885 0.09831 0.53211 0.0
C879 C 0.83689 0.05735 0.55665 0.0
C880 C 0.83414 0.03838 0.5177 0.0
H881 H 0.86502 0.09996 0.59477 0.0
H882 H 0.81909 0.0483 0.58384 0.0
S883 S 0.89136 0.05891 0.42156 0.0
N884 N 0.90737 0.08935 0.45695 0.0
N885 N 0.85739 0.03408 0.44562 0.0
C886 C 0.85786 0.05048 0.48417 0.0
C887 C 0.88517 0.08034 0.49104 0.0
C888 C 0.8936 0.41937 0.40968 0.0
C889 C 0.88522 0.43335 0.37388 0.0
C890 C 0.89064 0.38968 0.40311 0.0
C891 C 0.87937 0.37288 0.36049 0.0
H892 H 0.90064 0.43044 0.44372 0.0
H893 H 0.89502 0.37871 0.43295 0.0
S894 S 0.85988 0.40164 0.25301 0.0
N895 N 0.86995 0.43004 0.29137 0.0
N896 N 0.86359 0.37418 0.28059 0.0
C897 C 0.87387 0.38785 0.32318 0.0
C898 C 0.87687 0.41801 0.32958 0.0
C899 C 0.61327 0.49281 0.32379 0.0
C900 C 0.63118 0.50616 0.36407 0.0
C901 C 0.58234 0.46805 0.32762 0.0
C902 C 0.56819 0.45566 0.37184 0.0
H903 H 0.62384 0.49979 0.28928 0.0
H904 H 0.56993 0.45747 0.29537 0.0
S905 S 0.60322 0.48717 0.48788 0.0
N906 N 0.63092 0.50898 0.44971 0.0
N907 N 0.57307 0.46197 0.45631 0.0
C908 C 0.58479 0.47096 0.41222 0.0
C909 C 0.61622 0.49632 0.40843 0.0
C910 C 0.52664 0.1441 0.32035 0.0
C911 C 0.49818 0.12466 0.34283 0.0
C912 C 0.55312 0.1415 0.33006 0.0
C913 C 0.55233 0.11936 0.36281 0.0
H914 H 0.52916 0.16307 0.29802 0.0
H915 H 0.57472 0.15772 0.31242 0.0
S916 S 0.48198 0.06098 0.42762 0.0
N917 N 0.46975 0.0813 0.39692 0.0
N918 N 0.51942 0.0759 0.41452 0.0
C919 C 0.52346 0.09872 0.38372 0.0
C920 C 0.49644 0.10138 0.37363 0.0
C921 C 0.74992 0.54381 0.876 0.0
C922 C 0.76379 0.54715 0.83116 0.0
C923 C 0.71994 0.54014 0.88136 0.0
C924 C 0.70274 0.53978 0.84205 0.0
H925 H 0.76191 0.54298 0.90739 0.0
H926 H 0.70939 0.53532 0.916 0.0
S927 S 0.729 0.5502 0.71745 0.0
N928 N 0.75832 0.55141 0.74726 0.0
N929 N 0.70276 0.5461 0.75707 0.0
C930 C 0.71726 0.54547 0.79738 0.0
C931 C 0.74754 0.5487 0.79193 0.0
C932 C 0.44235 0.16767 0.82583 0.0
C933 C 0.46623 0.16955 0.85555 0.0
C934 C 0.44038 0.19439 0.81334 0.0
C935 C 0.46271 0.22433 0.82924 0.0
H936 H 0.42626 0.14557 0.80947 0.0
H937 H 0.42159 0.1916 0.79053 0.0
S938 S 0.5298 0.24155 0.90867 0.0
N939 N 0.51184 0.20329 0.90148 0.0
N940 N 0.50941 0.25361 0.87795 0.0
C941 C 0.48627 0.22618 0.86019 0.0
C942 C 0.48763 0.19886 0.87348 0.0
C943 C 0.81737 0.2388 0.83381 0.0
C944 C 0.7861 0.23115 0.82573 0.0
C945 C 0.84036 0.26942 0.84735 0.0
C946 C 0.83242 0.29283 0.85524 0.0
H947 H 0.82398 0.22101 0.83004 0.0
H948 H 0.86454 0.27507 0.84998 0.0
S949 S 0.75367 0.28412 0.84043 0.0
N950 N 0.74864 0.24933 0.82722 0.0
N951 N 0.791 0.30586 0.85421 0.0
C952 C 0.80102 0.28486 0.84867 0.0
C953 C 0.77815 0.25439 0.83356 0.0
C954 C 0.44087 0.24664 0.30323 0.0
C955 C 0.45251 0.23375 0.33607 0.0
C956 C 0.44625 0.27731 0.3085 0.0
C957 C 0.46316 0.29627 0.34704 0.0
H958 H 0.42811 0.23326 0.27281 0.0
H959 H 0.43848 0.28694 0.28075 0.0
S960 S 0.49808 0.27416 0.44392 0.0
N961 N 0.48146 0.24295 0.41 0.0
N962 N 0.49077 0.30004 0.41884 0.0
C963 C 0.47372 0.28345 0.38113 0.0
C964 C 0.46869 0.25243 0.37582 0.0
C965 C 0.72808 0.16364 0.31756 0.0
C966 C 0.70676 0.16232 0.35184 0.0
C967 C 0.75604 0.19151 0.30783 0.0
C968 C 0.76387 0.21913 0.33224 0.0
H969 H 0.72168 0.14366 0.29504 0.0
H970 H 0.77092 0.19167 0.27974 0.0
S971 S 0.71686 0.22679 0.4289 0.0
N972 N 0.69602 0.19001 0.4121 0.0
N973 N 0.74863 0.24226 0.3959 0.0
C974 C 0.74353 0.21736 0.36908 0.0
C975 C 0.71514 0.18894 0.37865 0.0
C976 C 0.80953 0.55942 0.28637 0.0
C977 C 0.78604 0.55009 0.32044 0.0
C978 C 0.8364 0.55715 0.29537 0.0
C979 C 0.84081 0.54561 0.33872 0.0
H980 H 0.80617 0.56635 0.25167 0.0
H981 H 0.85261 0.56188 0.26665 0.0
S982 S 0.78962 0.52506 0.44292 0.0
N983 N 0.77193 0.5347 0.4025 0.0
N984 N 0.8218 0.52947 0.41792 0.0
C985 C 0.81934 0.53972 0.37462 0.0
C986 C 0.79205 0.54209 0.36575 0.0
C987 C 0.62365 0.15725 0.84925 0.0
C988 C 0.63186 0.13424 0.83973 0.0
C989 C 0.59314 0.14931 0.86238 0.0
C990 C 0.56936 0.11795 0.86736 0.0
H991 H 0.64147 0.18179 0.84873 0.0
H992 H 0.58801 0.16799 0.86838 0.0
S993 S 0.57768 0.0485 0.84376 0.0
N994 N 0.61325 0.07852 0.83505 0.0
N995 N 0.55539 0.06354 0.85795 0.0
C996 C 0.57678 0.09457 0.8564 0.0
C997 C 0.60809 0.10271 0.84308 0.0
C998 C 0.89493 0.5019 0.88374 0.0
C999 C 0.87703 0.50209 0.84498 0.0
C1000 C 0.89653 0.47506 0.89608 0.0
C1001 C 0.88034 0.44747 0.86989 0.0
H1002 H 0.90493 0.52154 0.90773 0.0
H1003 H 0.90884 0.47537 0.92777 0.0
S1004 S 0.83623 0.43863 0.75896 0.0
N1005 N 0.84703 0.47439 0.7769 0.0
N1006 N 0.85088 0.42441 0.79755 0.0
C1007 C 0.86558 0.44887 0.82768 0.0
C1008 C 0.86392 0.47613 0.81565 0.0
C1009 C 0.54817 0.41634 0.83637 0.0
C1010 C 0.54798 0.43333 0.87641 0.0
C1011 C 0.52158 0.3887 0.82219 0.0
C1012 C 0.49372 0.37661 0.84771 0.0
H1013 H 0.56952 0.4235 0.81673 0.0
H1014 H 0.52399 0.37491 0.79465 0.0
S1015 S 0.47807 0.41516 0.94748 0.0
N1016 N 0.51544 0.43885 0.93519 0.0
N1017 N 0.46558 0.38604 0.90962 0.0
C1018 C 0.492 0.39512 0.88403 0.0
C1019 C 0.51911 0.42359 0.89831 0.0
C1020 C 0.51829 0.73761 0.67706 0.0
C1021 C 0.54471 0.76158 0.70028 0.0
C1022 C 0.51613 0.70897 0.66556 0.0
C1023 C 0.54035 0.70295 0.67644 0.0
H1024 H 0.49871 0.74085 0.66816 0.0
H1025 H 0.49438 0.69059 0.65105 0.0
S1026 S 0.61558 0.75816 0.7338 0.0
N1027 N 0.59662 0.77788 0.73073 0.0
N1028 N 0.59214 0.72354 0.71033 0.0
C1029 C 0.56736 0.72696 0.6982 0.0
C1030 C 0.56961 0.75627 0.70999 0.0
C1031 C 0.25386 0.78283 0.67151 0.0
C1032 C 0.23292 0.78559 0.70246 0.0
C1033 C 0.28348 0.80823 0.66115 0.0
C1034 C 0.29349 0.8376 0.68113 0.0
H1035 H 0.24742 0.7605 0.65551 0.0
H1036 H 0.29946 0.80426 0.64005 0.0
S1037 S 0.24737 0.85845 0.76117 0.0
N1038 N 0.22372 0.82092 0.7501 0.0
N1039 N 0.28004 0.86865 0.73189 0.0
C1040 C 0.27255 0.8411 0.71084 0.0
C1041 C 0.24222 0.81514 0.7214 0.0
C1042 C 0.19148 0.48398 0.73329 0.0
C1043 C 0.16884 0.4712 0.69688 0.0
C1044 C 0.21302 0.47386 0.74189 0.0
C1045 C 0.21322 0.4506 0.71434 0.0
H1046 H 0.193 0.50248 0.75552 0.0
H1047 H 0.23073 0.48556 0.76863 0.0
S1048 S 0.15863 0.40774 0.61686 0.0
N1049 N 0.14729 0.43235 0.635 0.0
N1050 N 0.18874 0.41414 0.65002 0.0
C1051 C 0.1906 0.43707 0.67845 0.0
C1052 C 0.16828 0.44716 0.66991 0.0
C1053 C 0.39038 0.88391 0.19668 0.0
C1054 C 0.36711 0.85826 0.17186 0.0
C1055 C 0.42233 0.89487 0.18788 0.0
C1056 C 0.43212 0.88122 0.15306 0.0
H1057 H 0.38394 0.89583 0.22244 0.0
H1058 H 0.43961 0.91381 0.20914 0.0
S1059 S 0.38096 0.81203 0.08118 0.0
N1060 N 0.35659 0.81803 0.11329 0.0
N1061 N 0.41635 0.83988 0.096 0.0
C1062 C 0.40926 0.85563 0.12833 0.0
C1063 C 0.37689 0.84383 0.13802 0.0
C1064 C 0.12899 0.54054 0.12648 0.0
C1065 C 0.11661 0.54832 0.16474 0.0
C1066 C 0.13767 0.5176 0.13068 0.0
C1067 C 0.1342 0.50102 0.17332 0.0
H1068 H 0.1331 0.55303 0.09348 0.0
H1069 H 0.14743 0.51311 0.09958 0.0
S1070 S 0.10075 0.5115 0.28356 0.0
N1071 N 0.09984 0.53697 0.24661 0.0
N1072 N 0.11598 0.49351 0.25399 0.0
C1073 C 0.12102 0.50805 0.21164 0.0
C1074 C 0.11229 0.53169 0.20746 0.0
C1075 C 0.48286 0.61593 0.21513 0.0
C1076 C 0.50524 0.62901 0.17948 0.0
C1077 C 0.45673 0.58583 0.20997 0.0
C1078 C 0.45174 0.56766 0.16877 0.0
H1079 H 0.48438 0.6297 0.24563 0.0
H1080 H 0.43972 0.5773 0.23821 0.0
S1081 S 0.50641 0.59047 0.06798 0.0
N1082 N 0.52299 0.62061 0.10396 0.0
N1083 N 0.47369 0.56451 0.09405 0.0
C1084 C 0.47518 0.5799 0.13432 0.0
C1085 C 0.50193 0.61035 0.13983 0.0
C1086 C 0.10923 0.60975 0.69949 0.0
C1087 C 0.13729 0.63251 0.67865 0.0
C1088 C 0.09789 0.57764 0.69153 0.0
C1089 C 0.11365 0.56736 0.66126 0.0
H1090 H 0.09552 0.61675 0.72066 0.0
H1091 H 0.07657 0.56065 0.70902 0.0
S1092 S 0.18955 0.61721 0.60229 0.0
N1093 N 0.18207 0.64205 0.63019 0.0
N1094 N 0.15959 0.58215 0.6136 0.0
C1095 C 0.14185 0.58976 0.64111 0.0
C1096 C 0.15398 0.62216 0.65037 0.0
C1097 C 0.41762 0.5494 0.71169 0.0
C1098 C 0.43537 0.5497 0.67215 0.0
C1099 C 0.38655 0.52543 0.71921 0.0
C1100 C 0.37193 0.50033 0.68799 0.0
H1101 H 0.42735 0.5686 0.73642 0.0
H1102 H 0.37329 0.52771 0.74774 0.0
S1103 S 0.40794 0.48768 0.58176 0.0
N1104 N 0.43585 0.52111 0.60327 0.0
N1105 N 0.3778 0.4759 0.61771 0.0
C1106 C 0.38977 0.49931 0.6499 0.0
C1107 C 0.42126 0.52397 0.64179 0.0
C1108 C 0.50279 0.89691 0.65791 0.0
C1109 C 0.50008 0.87134 0.6843 0.0
C1110 C 0.4764 0.89982 0.64716 0.0
C1111 C 0.44628 0.87671 0.66139 0.0
H1112 H 0.52525 0.91383 0.64316 0.0
H1113 H 0.47961 0.9201 0.6276 0.0
S1114 S 0.42674 0.8042 0.72869 0.0
N1115 N 0.46519 0.82266 0.72363 0.0
N1116 N 0.41553 0.82677 0.70212 0.0
C1117 C 0.44352 0.85106 0.68784 0.0
C1118 C 0.47038 0.84882 0.69987 0.0
C1119 C 0.25088 0.4738 0.17238 0.0
C1120 C 0.23011 0.44514 0.19432 0.0
C1121 C 0.28177 0.4818 0.16153 0.0
C1122 C 0.29297 0.46115 0.17101 0.0
H1123 H 0.24336 0.49056 0.16454 0.0
H1124 H 0.29764 0.5052 0.14858 0.0
S1125 S 0.24688 0.38163 0.22267 0.0
N1126 N 0.22195 0.39483 0.22102 0.0
N1127 N 0.28017 0.40989 0.20079 0.0
C1128 C 0.27186 0.43166 0.19038 0.0
C1129 C 0.24043 0.42365 0.20204 0.0
C1130 C 0.57051 0.81261 0.20541 0.0
C1131 C 0.54886 0.78108 0.19614 0.0
C1132 C 0.56363 0.83635 0.19374 0.0
C1133 C 0.53523 0.82934 0.17167 0.0
H1134 H 0.5928 0.81893 0.22148 0.0
H1135 H 0.57984 0.86015 0.20444 0.0
S1136 S 0.47103 0.75049 0.14012 0.0
N1137 N 0.49811 0.7442 0.16334 0.0
N1138 N 0.48553 0.78876 0.14167 0.0
C1139 C 0.51397 0.79805 0.16128 0.0
C1140 C 0.52068 0.77397 0.17349 0.0
C1141 C 0.18551 0.75814 0.19801 0.0
C1142 C 0.21747 0.76775 0.20297 0.0
C1143 C 0.16356 0.72709 0.18522 0.0
C1144 C 0.17306 0.70505 0.17538 0.0
H1145 H 0.17747 0.77465 0.20415 0.0
H1146 H 0.13889 0.71986 0.18551 0.0
S1147 S 0.25441 0.71964 0.17896 0.0
N1148 N 0.25765 0.75347 0.19393 0.0
N1149 N 0.21675 0.69566 0.16959 0.0
C1150 C 0.20513 0.71505 0.1781 0.0
C1151 C 0.2272 0.74619 0.19191 0.0
C1152 C 0.30244 0.15253 0.17178 0.0
C1153 C 0.31941 0.18443 0.15989 0.0
C1154 C 0.31761 0.13689 0.18968 0.0
C1155 C 0.35027 0.15257 0.19738 0.0
H1156 H 0.27715 0.13987 0.16905 0.0
H1157 H 0.30372 0.11198 0.19655 0.0
S1158 S 0.40553 0.23574 0.16921 0.0
N1159 N 0.37081 0.231 0.15587 0.0
N1160 N 0.39914 0.20138 0.18846 0.0
C1161 C 0.36747 0.18433 0.18505 0.0
C1162 C 0.35211 0.20022 0.16657 0.0
C1163 C 0.83278 0.15124 0.14657 0.0
C1164 C 0.81442 0.13089 0.18241 0.0
C1165 C 0.84889 0.18385 0.15321 0.0
C1166 C 0.84772 0.198 0.19614 0.0
H1167 H 0.83455 0.14201 0.11295 0.0
H1168 H 0.86236 0.19808 0.12366 0.0
S1169 S 0.80508 0.15522 0.30306 0.0
N1170 N 0.79733 0.1275 0.26424 0.0
N1171 N 0.82779 0.1886 0.27564 0.0
C1172 C 0.82991 0.17799 0.23259 0.0
C1173 C 0.81335 0.14463 0.22602 0.0
C1174 C 0.80764 0.64038 0.14383 0.0
C1175 C 0.79467 0.64397 0.18609 0.0
C1176 C 0.83962 0.65928 0.13313 0.0
C1177 C 0.8596 0.68309 0.16378 0.0
H1178 H 0.79278 0.62273 0.11866 0.0
H1179 H 0.84892 0.65445 0.10178 0.0
S1180 S 0.83722 0.70321 0.27759 0.0
N1181 N 0.80419 0.67371 0.25768 0.0
N1182 N 0.86416 0.70957 0.23776 0.0
C1183 C 0.84671 0.68733 0.20557 0.0
C1184 C 0.81434 0.66772 0.21677 0.0
C1185 C 0.18035 0.36588 0.36032 0.0
C1186 C 0.15538 0.3509 0.32844 0.0
C1187 C 0.19555 0.35051 0.37888 0.0
C1188 C 0.18569 0.31922 0.36749 0.0
H1189 H 0.18738 0.38929 0.37246 0.0
H1190 H 0.21561 0.36342 0.40155 0.0
S1191 S 0.12288 0.27027 0.28319 0.0
N1192 N 0.12229 0.30347 0.28497 0.0
N1193 N 0.15083 0.27462 0.31971 0.0
C1194 C 0.16101 0.30417 0.33523 0.0
C1195 C 0.14587 0.31994 0.31585 0.0
C1196 C 0.68367 0.82086 0.3467 0.0
C1197 C 0.65185 0.80476 0.33301 0.0
C1198 C 0.6988 0.85229 0.3614 0.0
C1199 C 0.68273 0.86895 0.36392 0.0
H1200 H 0.69691 0.80872 0.3469 0.0
H1201 H 0.72353 0.86404 0.36895 0.0
S1202 S 0.59904 0.83792 0.3332 0.0
N1203 N 0.6047 0.80803 0.32398 0.0
N1204 N 0.63303 0.8671 0.35095 0.0
C1205 C 0.65089 0.85321 0.35021 0.0
C1206 C 0.63552 0.82123 0.33493 0.0
C1207 C 0.19113 0.82489 0.36501 0.0
C1208 C 0.20456 0.85097 0.33454 0.0
C1209 C 0.16004 0.81188 0.38111 0.0
C1210 C 0.14148 0.82511 0.36876 0.0
H1211 H 0.20506 0.8149 0.3774 0.0
H1212 H 0.1501 0.79067 0.40209 0.0
S1213 S 0.1653 0.89305 0.2891 0.0
N1214 N 0.19684 0.88951 0.29285 0.0
N1215 N 0.13848 0.86494 0.32242 0.0
C1216 C 0.15478 0.85131 0.33862 0.0
C1217 C 0.18623 0.86429 0.32185 0.0
C1218 C 0.66362 0.81731 0.89128 0.0
C1219 C 0.6838 0.81675 0.85721 0.0
C1220 C 0.64498 0.83086 0.88127 0.0
C1221 C 0.64539 0.84396 0.83667 0.0
H1222 H 0.6615 0.80641 0.92523 0.0
H1223 H 0.63016 0.83134 0.90899 0.0
S1224 S 0.69517 0.8493 0.73604 0.0
N1225 N 0.7037 0.83109 0.77731 0.0
N1226 N 0.66862 0.85643 0.75911 0.0
C1227 C 0.66552 0.84363 0.80249 0.0
C1228 C 0.68472 0.83012 0.81269 0.0
C1229 C 0.17883 0.81387 0.84415 0.0
C1230 C 0.1463 0.79838 0.83768 0.0
C1231 C 0.19521 0.84497 0.86054 0.0
C1232 C 0.17981 0.86182 0.87194 0.0
H1233 H 0.19159 0.80161 0.8379 0.0
H1234 H 0.22047 0.85637 0.86308 0.0
S1235 S 0.09463 0.83161 0.86211 0.0
N1236 N 0.09907 0.802 0.84529 0.0
N1237 N 0.13004 0.8604 0.87509 0.0
C1238 C 0.14726 0.84639 0.86642 0.0
C1239 C 0.13056 0.81481 0.84955 0.0
C1240 C 0.15044 0.30247 0.86028 0.0
C1241 C 0.13517 0.32 0.86288 0.0
C1242 C 0.18191 0.31637 0.84545 0.0
C1243 C 0.19942 0.34826 0.83183 0.0
H1244 H 0.1377 0.27762 0.868 0.0
H1245 H 0.19289 0.30203 0.84525 0.0
S1246 S 0.17077 0.40481 0.83515 0.0
N1247 N 0.14031 0.37134 0.85204 0.0
N1248 N 0.19926 0.39717 0.82494 0.0
C1249 C 0.18449 0.36606 0.83481 0.0
C1250 C 0.15255 0.35202 0.85018 0.0
C1251 C 0.79276 0.64935 0.67995 0.0
C1252 C 0.81425 0.67945 0.66293 0.0
C1253 C 0.8026 0.63113 0.70438 0.0
C1254 C 0.83431 0.6407 0.71028 0.0
H1255 H 0.76793 0.64152 0.68003 0.0
H1256 H 0.78505 0.61029 0.72186 0.0
S1257 S 0.90049 0.71415 0.66268 0.0
N1258 N 0.86914 0.71632 0.64804 0.0
N1259 N 0.88765 0.68035 0.69041 0.0
C1260 C 0.8563 0.66886 0.6881 0.0
C1261 C 0.84622 0.68843 0.66482 0.0
C1262 C 0.30702 0.152 0.66897 0.0
C1263 C 0.32356 0.13598 0.66225 0.0
C1264 C 0.32242 0.18336 0.68414 0.0
C1265 C 0.35485 0.19987 0.69406 0.0
H1266 H 0.28186 0.13989 0.66433 0.0
H1267 H 0.30888 0.19509 0.68738 0.0
S1268 S 0.40916 0.1692 0.67857 0.0
N1269 N 0.37449 0.13941 0.66478 0.0
N1270 N 0.40317 0.19829 0.69254 0.0
C1271 C 0.37168 0.18428 0.68668 0.0
C1272 C 0.35612 0.15246 0.67094 0.0
C1273 C 0.85077 0.19205 0.67934 0.0
C1274 C 0.86792 0.17641 0.67279 0.0
C1275 C 0.81958 0.17621 0.69545 0.0
C1276 C 0.8045 0.14419 0.70664 0.0
H1277 H 0.8618 0.21697 0.67248 0.0
H1278 H 0.80677 0.18877 0.69705 0.0
S1279 S 0.84012 0.09333 0.70136 0.0
N1280 N 0.86833 0.12784 0.68318 0.0
N1281 N 0.80967 0.09778 0.71243 0.0
C1282 C 0.82178 0.12859 0.70178 0.0
C1283 C 0.85341 0.14469 0.68515 0.0
C1284 C 0.96829 0.48766 0.50192 0.0
C1285 C 0.98323 0.51983 0.511 0.0
C1286 C 0.98216 0.46977 0.51526 0.0
C1287 C 0.0116 0.48317 0.53824 0.0
H1288 H 0.94546 0.47608 0.4855 0.0
H1289 H 0.96993 0.44513 0.50638 0.0
S1290 S 0.0604 0.56664 0.57008 0.0
N1291 N 0.0292 0.56447 0.5449 0.0
N1292 N 0.05492 0.53075 0.56921 0.0
C1293 C 0.02649 0.51518 0.54813 0.0
C1294 C 0.01248 0.53347 0.5345 0.0
C1295 C 0.49323 0.51066 0.55111 0.0
C1296 C 0.51455 0.53064 0.51749 0.0
C1297 C 0.47674 0.4781 0.54444 0.0
C1298 C 0.48096 0.46373 0.50399 0.0
H1299 H 0.48927 0.52016 0.58291 0.0
H1300 H 0.46065 0.46409 0.57201 0.0
S1301 S 0.53495 0.50526 0.40548 0.0
N1302 N 0.53962 0.53328 0.44178 0.0
N1303 N 0.50851 0.4723 0.43034 0.0
C1304 C 0.50243 0.48331 0.47029 0.0
C1305 C 0.51924 0.51658 0.4768 0.0
C1306 C 0.51412 0.03084 0.50984 0.0
C1307 C 0.52919 0.01499 0.49303 0.0
C1308 C 0.48309 0.01439 0.52644 0.0
C1309 C 0.46618 0.98141 0.52843 0.0
H1310 H 0.52681 0.05616 0.51188 0.0
H1311 H 0.47195 0.0276 0.53697 0.0
S1312 S 0.49488 0.92878 0.48853 0.0
N1313 N 0.52484 0.96435 0.47969 0.0
N1314 N 0.46652 0.93356 0.51046 0.0
C1315 C 0.48096 0.9653 0.5118 0.0
C1316 C 0.51239 0.98202 0.49435 0.0
C1317 C 0.48761 0.96674 0.0272 0.0
C1318 C 0.52037 0.98377 0.02518 0.0
C1319 C 0.46965 0.98001 1.01159 0.0
C1320 C 0.48352 0.01087 0.99319 0.0
H1321 H 0.47572 0.94268 0.03936 0.0
H1322 H 0.44443 0.96608 1.01496 0.0
S1323 S 0.56859 0.06542 0.98084 0.0
N1324 N 0.56612 0.03324 1.00301 0.0
N1325 N 0.53221 0.05799 0.97475 0.0
C1326 C 0.51621 0.02801 0.99066 0.0
C1327 C 0.53457 0.01457 1.00658 0.0
C1328 C 0.9686 0.48572 1.00418 0.0
C1329 C 0.98461 0.46892 1.00585 0.0
C1330 C 0.98308 0.51711 0.01908 0.0
C1331 C 0.01407 0.53305 0.03681 0.0
H1332 H 0.94435 0.4742 0.99321 0.0
H1333 H 0.96994 0.52927 1.01604 0.0
S1334 S 0.06636 0.4996 0.04715 0.0
N1335 N 0.03342 0.47064 0.02607 0.0
N1336 N 0.06038 0.52951 0.05347 0.0
C1337 C 0.0303 0.5165 0.03853 0.0
C1338 C 0.0157 0.48463 0.02306 0.0
C1339 C 0.48287 0.51522 0.01707 0.0
C1340 C 0.47011 0.48632 0.04083 0.0
C1341 C 0.51388 0.53053 0.99993 0.0
C1342 C 0.53314 0.51705 1.00412 0.0
H1343 H 0.46836 0.52556 1.01014 0.0
H1344 H 0.52309 0.55344 0.98395 0.0
S1345 S 0.51154 0.44232 0.06497 0.0
N1346 N 0.47953 0.44507 0.06814 0.0
N1347 N 0.53768 0.47393 0.03655 0.0
C1348 C 0.52073 0.48828 0.02805 0.0
C1349 C 0.48932 0.47288 0.04595 0.0
C1350 C 0.31416 0.24751 0.91753 0.0
C1351 C 0.3119 0.23238 0.96065 0.0
C1352 C 0.33958 0.25635 0.88768 0.0
C1353 C 0.36371 0.25063 0.90021 0.0
H1354 H 0.29593 0.2523 0.90645 0.0
H1355 H 0.3407 0.26847 0.85526 0.0
S1356 S 0.36854 0.21088 1.00845 0.0
N1357 N 0.33547 0.2114 1.01394 0.0
N1358 N 0.38379 0.22835 0.95785 0.0
C1359 C 0.36184 0.23552 0.94322 0.0
C1360 C 0.33585 0.22646 0.97362 0.0
C1361 C 0.76115 0.09641 0.98297 0.0
C1362 C 0.77722 0.08202 0.96503 0.0
C1363 C 0.74464 0.10548 0.95314 0.0
C1364 C 0.74341 0.10034 0.90419 0.0
H1365 H 0.76172 0.10116 0.02021 0.0
H1366 H 0.73326 0.11721 0.96878 0.0
S1367 S 0.77888 0.06034 0.84049 0.0
N1368 N 0.78917 0.06079 0.89584 0.0
N1369 N 0.75802 0.07812 0.83968 0.0
C1370 C 0.75874 0.08525 0.88591 0.0
C1371 C 0.77566 0.076 0.91636 0.0
C1372 C 0.90227 0.63494 0.95528 0.0
C1373 C 0.89188 0.63553 0.90938 0.0
C1374 C 0.91612 0.66189 0.98269 0.0
C1375 C 0.92004 0.69004 0.96468 0.0
H1376 H 0.9001 0.61362 0.96992 0.0
H1377 H 0.92452 0.66092 0.01749 0.0
S1378 S 0.89314 0.70297 0.84919 0.0
N1379 N 0.88389 0.66586 0.84887 0.0
N1380 N 0.91007 0.71671 0.90041 0.0
C1381 C 0.90878 0.69075 0.91953 0.0
C1382 C 0.89468 0.66339 0.89175 0.0
C1383 C 0.23151 0.30895 0.61778 0.0
C1384 C 0.23899 0.31071 0.56965 0.0
C1385 C 0.2426 0.33583 0.64503 0.0
C1386 C 0.26167 0.36548 0.62519 0.0
H1387 H 0.21621 0.28663 0.63447 0.0
H1388 H 0.23561 0.33332 0.68159 0.0
S1389 S 0.29056 0.38227 0.50161 0.0
N1390 N 0.26797 0.34388 0.50386 0.0
N1391 N 0.28961 0.39488 0.5549 0.0
C1392 C 0.27023 0.36748 0.57728 0.0
C1393 C 0.25864 0.33998 0.54952 0.0
C1394 C 0.66635 0.91516 0.64316 0.0
C1395 C 0.63949 0.88904 0.62593 0.0
C1396 C 0.69309 0.93055 0.61525 0.0
C1397 C 0.69383 0.92022 0.56934 0.0
H1398 H 0.66651 0.92417 0.6779 0.0
H1399 H 0.71339 0.95074 0.62985 0.0
S1400 S 0.63003 0.85158 0.50913 0.0
N1401 N 0.61547 0.85242 0.56095 0.0
N1402 N 0.66592 0.88179 0.50857 0.0
C1403 C 0.66721 0.89401 0.55182 0.0
C1404 C 0.64002 0.87821 0.58023 0.0
C1405 C 0.05902 0.75082 0.60748 0.0
C1406 C 0.07418 0.76588 0.56518 0.0
C1407 C 0.07359 0.74134 0.64025 0.0
C1408 C 0.10337 0.74604 0.63114 0.0
H1409 H 0.03564 0.74628 0.61552 0.0
H1410 H 0.06098 0.72906 0.67167 0.0
S1411 S 0.15397 0.78555 0.52798 0.0
N1412 N 0.12144 0.78637 0.51761 0.0
N1413 N 0.14855 0.76755 0.57905 0.0
C1414 C 0.11916 0.76151 0.58978 0.0
C1415 C 0.10451 0.77149 0.55657 0.0
C1416 C 0.65258 0.73052 0.09482 0.0
C1417 C 0.64831 0.74582 0.13349 0.0
C1418 C 0.67703 0.7467 0.06285 0.0
C1419 C 0.69811 0.77868 0.06869 0.0
H1420 H 0.63639 0.70592 0.0886 0.0
H1421 H 0.67969 0.73402 0.03385 0.0
S1422 S 0.6967 0.8298 0.1631 0.0
N1423 N 0.6668 0.79481 0.17523 0.0
N1424 N 0.71318 0.82535 0.11545 0.0
C1425 C 0.69439 0.79422 0.1075 0.0
C1426 C 0.66944 0.77773 0.14 0.0
C1427 C 0.21676 0.90792 0.11867 0.0
C1428 C 0.22804 0.92081 0.07384 0.0
C1429 C 0.23391 0.89941 0.1481 0.0
C1430 C 0.26292 0.90361 0.13361 0.0
H1431 H 0.19441 0.90431 0.13108 0.0
H1432 H 0.22395 0.88872 0.18174 0.0
S1433 S 0.30389 0.9393 0.02094 0.0
N1434 N 0.27048 0.93927 0.01738 0.0
N1435 N 0.30314 0.92336 0.07237 0.0
C1436 C 0.27483 0.91733 0.08916 0.0
C1437 C 0.25719 0.92575 0.0592 0.0
C1438 C 0.11529 0.33982 0.12684 0.0
C1439 C 0.09538 0.3519 0.13601 0.0
C1440 C 0.10712 0.31627 0.09345 0.0
C1441 C 0.07909 0.30462 0.06814 0.0
H1442 H 0.13776 0.34944 0.14424 0.0
H1443 H 0.12282 0.30723 0.08716 0.0
S1444 S 0.01711 0.32525 0.08492 0.0
N1445 N 0.04552 0.34885 0.12062 0.0
N1446 N 0.02978 0.30388 0.05838 0.0
C1447 C 0.05849 0.31563 0.07837 0.0
C1448 C 0.0668 0.33957 0.11224 0.0
C1449 C 0.78103 0.66539 0.47015 0.0
C1450 C 0.77039 0.6868 0.46497 0.0
C1451 C 0.77187 0.64079 0.4381 0.0
C1452 C 0.75215 0.63719 0.39978 0.0
H1453 H 0.79761 0.66853 0.49752 0.0
H1454 H 0.78072 0.62478 0.44286 0.0
S1455 S 0.71512 0.68522 0.37557 0.0
N1456 N 0.737 0.70139 0.42223 0.0
N1457 N 0.72008 0.65547 0.36177 0.0
C1458 C 0.74049 0.65783 0.39569 0.0
C1459 C 0.74944 0.68245 0.42852 0.0
C1460 C 0.30474 0.09107 0.41482 0.0
C1461 C 0.30383 0.07899 0.46013 0.0
C1462 C 0.33078 0.10074 0.38561 0.0
C1463 C 0.35658 0.09838 0.40073 0.0
H1464 H 0.28542 0.09365 0.40214 0.0
H1465 H 0.33113 0.11112 0.35184 0.0
S1466 S 0.36388 0.06455 0.51399 0.0
N1467 N 0.3297 0.06292 0.51725 0.0
N1468 N 0.37841 0.08025 0.46223 0.0
C1469 C 0.35526 0.08491 0.44518 0.0
C1470 C 0.32899 0.07554 0.47502 0.0
C1471 C 0.92864 0.23643 0.41983 0.0
C1472 C 0.91607 0.22292 0.46384 0.0
C1473 C 0.91354 0.24757 0.39082 0.0
C1474 C 0.88526 0.24536 0.40481 0.0
H1475 H 0.95045 0.23849 0.40778 0.0
H1476 H 0.92443 0.2585 0.35772 0.0
S1477 S 0.84129 0.20904 0.51513 0.0
N1478 N 0.8732 0.20623 0.51916 0.0
N1479 N 0.84411 0.22671 0.46448 0.0
C1480 C 0.87205 0.23119 0.44849 0.0
C1481 C 0.88771 0.22016 0.47817 0.0
C1482 C 0.00113 0.57709 0.22209 0.0
C1483 C 0.03081 0.59102 0.24273 0.0
C1484 C 0.97425 0.56145 0.24967 0.0
C1485 C 0.97611 0.55903 0.29884 0.0
H1486 H 0.99861 0.57851 0.18449 0.0
H1487 H 0.95181 0.55144 0.23215 0.0
S1488 S 0.0484 0.58937 0.36973 0.0
N1489 N 0.06069 0.60013 0.31532 0.0
N1490 N 0.00987 0.57048 0.36676 0.0
C1491 C 0.00562 0.57244 0.31992 0.0
C1492 C 0.03305 0.58849 0.29194 0.0
C1493 C 0.44629 0.42096 0.25011 0.0
C1494 C 0.43675 0.41052 0.29655 0.0
C1495 C 0.43097 0.43267 0.22291 0.0
C1496 C 0.4056 0.43455 0.24117 0.0
H1497 H 0.46611 0.42047 0.23458 0.0
H1498 H 0.43969 0.44106 0.1878 0.0
S1499 S 0.3699 0.408 0.35962 0.0
N1500 N 0.39949 0.40124 0.3589 0.0
N1501 N 0.37026 0.42333 0.30778 0.0
C1502 C 0.39529 0.42356 0.28731 0.0
C1503 C 0.41106 0.41164 0.31509 0.0
C1504 C 0.57968 0.02455 0.24489 0.0
C1505 C 0.58722 0.02388 0.29256 0.0
C1506 C 0.56892 0.99819 0.21651 0.0
C1507 C 0.56527 0.97018 0.2348 0.0
H1508 H 0.58193 0.04565 0.22924 0.0
H1509 H 0.56271 0.99962 0.18044 0.0
S1510 S 0.5838 0.9569 0.35682 0.0
N1511 N 0.59153 0.99353 0.35638 0.0
N1512 N 0.57166 0.94369 0.30327 0.0
C1513 C 0.5734 0.96937 0.28233 0.0
C1514 C 0.58412 0.99624 0.31124 0.0
C1515 C 0.40767 0.99818 0.72372 0.0
C1516 C 0.41716 0.97603 0.73048 0.0
C1517 C 0.41809 0.02362 0.75408 0.0
C1518 C 0.43802 0.02727 0.79192 0.0
H1519 H 0.39127 0.99519 0.69611 0.0
H1520 H 0.41032 0.0404 0.74825 0.0
S1521 S 0.47252 0.97749 0.81997 0.0
N1522 N 0.44947 0.9604 0.7745 0.0
N1523 N 0.4692 0.00849 0.83162 0.0
C1524 C 0.44847 0.0058 0.79789 0.0
C1525 C 0.43802 0.98008 0.76695 0.0
C1526 C 0.02535 0.43921 0.78857 0.0
C1527 C 0.02239 0.43616 0.73923 0.0
C1528 C 0.99921 0.42799 0.8177 0.0
C1529 C 0.96905 0.41331 0.79868 0.0
H1530 H 0.04816 0.45061 0.80514 0.0
H1531 H 0.00272 0.43101 0.85532 0.0
S1532 S 0.94859 0.39839 0.67173 0.0
N1533 N 0.98719 0.41698 0.67267 0.0
N1534 N 0.93751 0.39543 0.72713 0.0
C1535 C 0.96568 0.41001 0.74926 0.0
C1536 C 0.99248 0.4216 0.71961 0.0
C1537 C 0.58995 0.60181 0.76625 0.0
C1538 C 0.57019 0.58626 0.728 0.0
C1539 C 0.59717 0.5856 0.79952 0.0
C1540 C 0.58515 0.55327 0.79548 0.0
H1541 H 0.59899 0.62663 0.77148 0.0
H1542 H 0.61242 0.59855 0.82843 0.0
S1543 S 0.53292 0.50172 0.70119 0.0
N1544 N 0.53909 0.53693 0.68741 0.0
N1545 N 0.55316 0.50618 0.74965 0.0
C1546 C 0.56619 0.53751 0.7565 0.0
C1547 C 0.55871 0.55411 0.72265 0.0
C1548 C 0.18155 0.17397 0.30123 0.0
C1549 C 0.17783 0.20037 0.3031 0.0
C1550 C 0.18625 0.16324 0.25774 0.0
C1551 C 0.18848 0.17933 0.21535 0.0
H1552 H 0.18547 0.16454 0.3333 0.0
H1553 H 0.19363 0.14589 0.25833 0.0
S1554 S 0.17439 0.24592 0.20179 0.0
N1555 N 0.16947 0.23754 0.25836 0.0
N1556 N 0.18185 0.21981 0.17825 0.0
C1557 C 0.17956 0.20219 0.21648 0.0
C1558 C 0.17343 0.21216 0.26023 0.0
C1559 C 0.82072 0.98517 0.2274 0.0
C1560 C 0.83048 0.01705 0.22198 0.0
C1561 C 0.81451 0.97141 0.27244 0.0
C1562 C 0.81674 0.98896 0.31289 0.0
H1563 H 0.81279 0.96993 0.19707 0.0
H1564 H 0.80229 0.94608 0.27459 0.0
S1565 S 0.85075 0.07484 0.31723 0.0
N1566 N 0.85135 0.06714 0.26096 0.0
N1567 N 0.83646 0.04088 0.34476 0.0
C1568 C 0.83248 0.0216 0.30822 0.0
C1569 C 0.84029 0.03577 0.26264 0.0
C1570 C 0.01069 0.82863 0.2222 0.0
C1571 C 0.97888 0.80608 0.2256 0.0
C1572 C 0.02908 0.83981 0.26299 0.0
C1573 C 0.0162 0.82818 0.30795 0.0
H1574 H 0.02236 0.83383 0.1884 0.0
H1575 H 0.05427 0.85325 0.25873 0.0
S1576 S 0.93222 0.77737 0.33531 0.0
N1577 N 0.93373 0.77979 0.27738 0.0
N1578 N 0.96856 0.79976 0.35353 0.0
C1579 C 0.98355 0.81096 0.31184 0.0
C1580 C 0.96476 0.80003 0.2705 0.0
C1581 C 0.80819 0.83194 0.71145 0.0
C1582 C 0.82937 0.82077 0.70917 0.0
C1583 C 0.79782 0.83657 0.75522 0.0
C1584 C 0.80813 0.82996 0.79799 0.0
H1585 H 0.79536 0.83151 0.68028 0.0
H1586 H 0.77788 0.84021 0.75539 0.0
S1587 S 0.87429 0.81513 0.80934 0.0
N1588 N 0.86884 0.81524 0.7521 0.0
N1589 N 0.84828 0.82236 0.83431 0.0
C1590 C 0.83436 0.82609 0.79565 0.0
C1591 C 0.84553 0.82232 0.75096 0.0
C1592 C 0.16138 0.97104 0.77045 0.0
C1593 C 0.17341 0.98567 0.81421 0.0
C1594 C 0.17133 0.98805 0.72805 0.0
C1595 C 0.19289 0.02026 0.72854 0.0
H1596 H 0.14886 0.94571 0.7684 0.0
H1597 H 0.16617 0.9752 0.69538 0.0
S1598 S 0.22098 0.07086 0.83407 0.0
N1599 N 0.20038 0.03502 0.85548 0.0
N1600 N 0.21794 0.06726 0.77633 0.0
C1601 C 0.19887 0.03581 0.77217 0.0
C1602 C 0.18927 0.01841 0.81516 0.0
C1603 C 0.02558 0.19033 0.7196 0.0
C1604 C 0.99297 0.17476 0.71419 0.0
C1605 C 0.03897 0.19778 0.76472 0.0
C1606 C 0.02004 0.19084 0.80531 0.0
H1607 H 0.04059 0.20148 0.68951 0.0
H1608 H 0.06389 0.21407 0.76717 0.0
S1609 S 0.934 0.14068 0.80888 0.0
N1610 N 0.94284 0.14367 0.7525 0.0
N1611 N 0.96768 0.16038 0.83687 0.0
C1612 C 0.98802 0.16967 0.80027 0.0
C1613 C 0.97459 0.16074 0.75446 0.0
C1614 C 0.82882 0.53681 0.59503 0.0
C1615 C 0.83979 0.53126 0.63784 0.0
C1616 C 0.8351 0.52716 0.55202 0.0
C1617 C 0.8519 0.51113 0.5507 0.0
H1618 H 0.81997 0.55299 0.59405 0.0
H1619 H 0.83214 0.53742 0.5202 0.0
S1620 S 0.87522 0.48106 0.65305 0.0
N1621 N 0.86089 0.50192 0.67645 0.0
N1622 N 0.87044 0.48184 0.59576 0.0
C1623 C 0.85588 0.49906 0.59349 0.0
C1624 C 0.85071 0.50992 0.63732 0.0
C1625 C 0.48809 0.31804 0.55808 0.0
C1626 C 0.49989 0.35034 0.55306 0.0
C1627 C 0.48083 0.30402 0.60292 0.0
C1628 C 0.48434 0.32185 0.64362 0.0
H1629 H 0.47918 0.303 0.52764 0.0
H1630 H 0.467 0.27871 0.60474 0.0
S1631 S 0.52508 0.40819 0.64942 0.0
N1632 N 0.52437 0.40045 0.59286 0.0
N1633 N 0.50855 0.37395 0.67658 0.0
C1634 C 0.50241 0.35444 0.63951 0.0
C1635 C 0.51094 0.36876 0.59403 0.0
C1636 C 0.64148 0.14511 0.5943 0.0
C1637 C 0.65504 0.14618 0.54995 0.0
C1638 C 0.65891 0.15123 0.63608 0.0
C1639 C 0.69062 0.15977 0.63438 0.0
H1640 H 0.61626 0.13398 0.59737 0.0
H1641 H 0.64646 0.14458 0.66926 0.0
S1642 S 0.73946 0.17852 0.52692 0.0
N1643 N 0.70356 0.16502 0.50695 0.0
N1644 N 0.73676 0.17881 0.58474 0.0
C1645 C 0.70564 0.16819 0.5901 0.0
C1646 C 0.68773 0.161 0.5478 0.0
C1647 C 0.48021 0.17163 0.10189 0.0
C1648 C 0.48076 0.15823 0.14569 0.0
C1649 C 0.48595 0.16057 0.05958 0.0
C1650 C 0.49328 0.13649 0.06024 0.0
H1651 H 0.46981 0.18645 0.09965 0.0
H1652 H 0.47995 0.16742 0.02672 0.0
S1653 S 0.50868 0.10219 0.16622 0.0
N1654 N 0.49731 0.12609 0.1873 0.0
N1655 N 0.50942 0.10624 0.10852 0.0
C1656 C 0.5007 0.12831 0.10411 0.0
C1657 C 0.49436 0.13919 0.14691 0.0
C1658 C 0.84949 0.35041 0.14674 0.0
C1659 C 0.83618 0.31781 0.14856 0.0
C1660 C 0.8565 0.36619 0.10331 0.0
C1661 C 0.85186 0.3498 0.06068 0.0
H1662 H 0.85972 0.36404 0.17801 0.0
H1663 H 0.8713 0.39143 0.10365 0.0
S1664 S 0.80686 0.26391 0.04701 0.0
N1665 N 0.80903 0.26944 0.10442 0.0
N1666 N 0.82461 0.29917 0.023 0.0
C1667 C 0.83243 0.31727 0.06207 0.0
C1668 C 0.82407 0.30121 0.10628 0.0
C1669 C 0.69249 0.51561 0.10616 0.0
C1670 C 0.6758 0.512 0.14835 0.0
C1671 C 0.6778 0.51132 0.06217 0.0
C1672 C 0.64575 0.50134 0.05965 0.0
H1673 H 0.71786 0.52825 0.10679 0.0
H1674 H 0.69235 0.52064 0.03115 0.0
S1675 S 0.58981 0.47342 0.1592 0.0
N1676 N 0.62446 0.48747 0.18428 0.0
N1677 N 0.5964 0.47696 0.10199 0.0
C1678 C 0.62797 0.48942 0.10111 0.0
C1679 C 0.64311 0.49494 0.14572 0.0
C1680 C 0.49902 0.84973 0.88701 0.0
C1681 C 0.5179 0.83597 0.88344 0.0
C1682 C 0.49208 0.85738 0.93131 0.0
C1683 C 0.50454 0.85217 0.9729 0.0
H1684 H 0.49436 0.85957 0.85601 0.0
H1685 H 0.48206 0.87258 0.93227 0.0
S1686 S 0.54444 0.8058 0.98213 0.0
N1687 N 0.53956 0.80808 0.92511 0.0
N1688 N 0.52811 0.82409 1.00797 0.0
C1689 C 0.51704 0.83223 0.96995 0.0
C1690 C 0.52324 0.82361 0.92497 0.0
C1691 C 0.13803 0.63133 0.93322 0.0
C1692 C 0.1442 0.64839 0.97552 0.0
C1693 C 0.14479 0.64659 0.88936 0.0
C1694 C 0.15876 0.67927 0.88693 0.0
H1695 H 0.12272 0.60616 0.93377 0.0
H1696 H 0.1343 0.63263 0.85825 0.0
S1697 S 0.19202 0.73427 0.98672 0.0
N1698 N 0.17387 0.69932 1.01173 0.0
N1699 N 0.18805 0.72807 0.92947 0.0
C1700 C 0.17197 0.69628 0.9285 0.0
C1701 C 0.16438 0.68076 0.9731 0.0
C1702 C 0.366 0.50602 0.93399 0.0
C1703 C 0.35066 0.49476 0.97762 0.0
C1704 C 0.34925 0.49686 0.89151 0.0
C1705 C 0.31674 0.47671 0.89184 0.0
H1706 H 0.39128 0.51717 0.93225 0.0
H1707 H 0.36226 0.5012 0.85902 0.0
S1708 S 0.26511 0.45156 0.9966 0.0
N1709 N 0.30088 0.47051 0.01841 0.0
N1710 N 0.26929 0.45415 0.93888 0.0
C1711 C 0.30094 0.47172 0.93509 0.0
C1712 C 0.318 0.48063 0.97822 0.0
C1713 C 0.14277 0.50413 0.43578 0.0
C1714 C 0.14357 0.49053 0.47932 0.0
C1715 C 0.14887 0.49373 0.3931 0.0
C1716 C 0.1569 0.47016 0.39299 0.0
H1717 H 0.13216 0.51879 0.434 0.0
H1718 H 0.14273 0.50069 0.36048 0.0
S1719 S 0.17221 0.43485 0.49767 0.0
N1720 N 0.16009 0.45793 0.51967 0.0
N1721 N 0.17351 0.43993 0.4402 0.0
C1722 C 0.16434 0.4617 0.43661 0.0
C1723 C 0.15729 0.47159 0.47981 0.0
C1724 C 0.52696 0.69917 0.42892 0.0
C1725 C 0.52291 0.68164 0.38764 0.0
C1726 C 0.52085 0.68498 0.47364 0.0
C1727 C 0.50932 0.6527 0.47814 0.0
H1728 H 0.54034 0.72451 0.42726 0.0
H1729 H 0.52986 0.69989 0.50423 0.0
S1730 S 0.48325 0.5954 0.38079 0.0
N1731 N 0.49867 0.62974 0.35407 0.0
N1732 N 0.48524 0.60281 0.43764 0.0
C1733 C 0.49827 0.63447 0.43701 0.0
C1734 C 0.50547 0.64901 0.39161 0.0
C1735 C 0.3172 0.8322 0.47415 0.0
C1736 C 0.34969 0.85158 0.47837 0.0
C1737 C 0.30313 0.82496 0.42949 0.0
C1738 C 0.32116 0.83775 0.38827 0.0
H1739 H 0.30234 0.82742 0.50469 0.0
H1740 H 0.27791 0.8146 0.42785 0.0
S1741 S 0.40744 0.8786 0.38124 0.0
N1742 N 0.39969 0.87358 0.4381 0.0
N1743 N 0.37315 0.86194 0.35452 0.0
C1744 C 0.35358 0.85061 0.3921 0.0
C1745 C 0.36789 0.85693 0.43745 0.0
C1746 C 0.29911 0.32406 0.14513 0.0
C1747 C 0.28618 0.30163 0.10877 0.0
C1748 C 0.31457 0.35638 0.13571 0.0
C1749 C 0.31794 0.36761 0.08949 0.0
H1750 H 0.29881 0.31667 0.1811 0.0
H1751 H 0.32602 0.37254 0.16437 0.0
S1752 S 0.28343 0.3194 0.98271 0.0
N1753 N 0.27396 0.29347 0.02549 0.0
N1754 N 0.30329 0.35409 1.00775 0.0
C1755 C 0.30274 0.34562 0.05338 0.0
C1756 C 0.28674 0.31269 0.063 0.0
C1757 C 0.6577 0.95846 0.0524 0.0
C1758 C 0.63437 0.9468 0.08778 0.0
C1759 C 0.68976 0.97483 0.06341 0.0
C1760 C 0.69973 0.98039 0.11029 0.0
H1761 H 0.65113 0.95675 1.01574 0.0
H1762 H 0.70661 0.98547 0.03517 0.0
S1763 S 0.6488 0.94975 0.21593 0.0
N1764 N 0.62401 0.93802 0.17148 0.0
N1765 N 0.68411 0.9689 0.19232 0.0
C1766 C 0.67685 0.96618 0.14587 0.0
C1767 C 0.64421 0.94927 0.13462 0.0
C1768 C 0.02718 0.71545 0.07545 0.0
C1769 C 0.00981 0.70847 0.1174 0.0
C1770 C 0.04577 0.70174 0.06555 0.0
C1771 C 0.04836 0.68125 0.09768 0.0
H1772 H 0.02492 0.72998 0.04889 0.0
H1773 H 0.05696 0.70594 0.03146 0.0
S1774 S 0.00952 0.65663 0.21368 0.0
N1775 N 0.99826 0.68067 0.19268 0.0
N1776 N 0.03308 0.65563 0.17349 0.0
C1777 C 0.03283 0.6757 0.14079 0.0
C1778 C 0.01364 0.68913 0.15078 0.0
C1779 C 0.35769 0.30872 0.39622 0.0
C1780 C 0.36883 0.31172 0.44226 0.0
C1781 C 0.32545 0.29445 0.38753 0.0
C1782 C 0.30331 0.28266 0.42452 0.0
H1783 H 0.37386 0.32025 0.36743 0.0
H1784 H 0.31795 0.29503 0.35193 0.0
S1785 S 0.32065 0.279 0.55002 0.0
N1786 N 0.35532 0.29697 0.52426 0.0
N1787 N 0.29477 0.27072 0.50772 0.0
C1788 C 0.31403 0.28216 0.46983 0.0
C1789 C 0.34685 0.29661 0.47872 0.0
C1790 C 0.71613 0.0379 0.4029 0.0
C1791 C 0.71453 0.01352 0.43093 0.0
C1792 C 0.69761 0.05163 0.41289 0.0
C1793 C 0.67622 0.04088 0.45065 0.0
H1794 H 0.731 0.04564 0.37203 0.0
H1795 H 0.69927 0.06997 0.38994 0.0
S1796 S 0.66184 0.97552 0.53228 0.0
N1797 N 0.68964 0.9786 0.49673 0.0
N1798 N 0.65435 0.00318 0.51544 0.0
C1799 C 0.67485 0.01654 0.47918 0.0
C1800 C 0.69408 0.00316 0.46933 0.0
C1801 C 0.9684 0.69055 0.44214 0.0
C1802 C 0.99605 0.70272 0.41518 0.0
C1803 C 0.94994 0.65799 0.45103 0.0
C1804 C 0.95823 0.63658 0.43257 0.0
H1805 H 0.96123 0.70623 0.45688 0.0
H1806 H 0.92967 0.64963 0.47372 0.0
S1807 S 0.02945 0.65612 0.36391 0.0
N1808 N 0.03153 0.69011 0.3731 0.0
N1809 N 0.99645 0.62982 0.38878 0.0
C1810 C 0.98556 0.6484 0.40567 0.0
C1811 C 0.00451 0.68118 0.39723 0.0
C1812 C 0.69131 0.64452 0.90082 0.0
C1813 C 0.68581 0.63467 0.94792 0.0
C1814 C 0.70721 0.67656 0.88908 0.0
C1815 C 0.71863 0.70015 0.92386 0.0
H1816 H 0.68102 0.62751 0.87285 0.0
H1817 H 0.70877 0.68291 0.85229 0.0
S1818 S 0.71545 0.68661 0.0523 0.0
N1819 N 0.69695 0.65109 0.02959 0.0
N1820 N 0.72691 0.71109 1.00725 0.0
C1821 C 0.71612 0.6906 0.9709 0.0
C1822 C 0.69964 0.65795 0.98295 0.0
C1823 C 0.32263 0.02024 0.88325 0.0
C1824 C 0.30024 0.01203 0.91965 0.0
C1825 C 0.35502 0.03706 0.89217 0.0
C1826 C 0.36638 0.04618 0.93796 0.0
H1827 H 0.31512 0.01215 0.84773 0.0
H1828 H 0.37109 0.04068 0.86371 0.0
S1829 S 0.31839 0.03522 0.0445 0.0
N1830 N 0.29235 0.0181 1.00231 0.0
N1831 N 0.35301 0.04924 0.01922 0.0
C1832 C 0.34444 0.04045 0.97396 0.0
C1833 C 0.31146 0.02359 0.9648 0.0
C1834 C 0.94307 0.29607 0.92998 0.0
C1835 C 0.95966 0.32567 0.95148 0.0
C1836 C 0.95827 0.27907 0.91813 0.0
C1837 C 0.99036 0.29133 0.92748 0.0
H1838 H 0.91842 0.28611 0.92219 0.0
H1839 H 0.94517 0.25681 0.90039 0.0
S1840 S 0.04494 0.36887 0.97814 0.0
N1841 N 0.0106 0.36702 0.97837 0.0
N1842 N 0.03837 0.33515 0.95646 0.0
C1843 C 0.00701 0.3208 0.94844 0.0
C1844 C 0.99187 0.33796 0.96035 0.0
C1845 C 0.68193 0.71844 0.61862 0.0
C1846 C 0.70321 0.70849 0.60553 0.0
C1847 C 0.64928 0.6991 0.61135 0.0
C1848 C 0.63695 0.66899 0.59169 0.0
H1849 H 0.69053 0.74107 0.63497 0.0
H1850 H 0.63374 0.70778 0.62091 0.0
S1851 S 0.68321 0.63103 0.55764 0.0
N1852 N 0.70967 0.6663 0.57526 0.0
N1853 N 0.64924 0.62962 0.56338 0.0
C1854 C 0.65834 0.65875 0.58014 0.0
C1855 C 0.69116 0.67854 0.58661 0.0
C1856 C 0.31147 0.9555 0.63234 0.0
C1857 C 0.31717 0.95133 0.58534 0.0
C1858 C 0.2959 0.97197 0.64368 0.0
C1859 C 0.28502 0.98455 0.60853 0.0
H1860 H 0.32116 0.94816 0.66054 0.0
H1861 H 0.29393 0.97641 0.68042 0.0
S1862 S 0.2892 0.9751 0.4801 0.0
N1863 N 0.30708 0.95748 0.50333 0.0
N1864 N 0.2776 0.98802 0.52488 0.0
C1865 C 0.28789 0.97786 0.56152 0.0
C1866 C 0.30407 0.96141 0.5499 0.0
C1867 C 0.01083 0.35319 0.60882 0.0
C1868 C 0.04209 0.36791 0.59421 0.0
C1869 C 0.99352 0.32085 0.61501 0.0
C1870 C 0.00663 0.30157 0.60686 0.0
H1871 H 0.99932 0.36679 0.61437 0.0
H1872 H 0.96936 0.3108 0.62611 0.0
S1873 S 0.08794 0.32888 0.56758 0.0
N1874 N 0.08574 0.36124 0.57055 0.0
N1875 N 0.0532 0.29986 0.58352 0.0
C1876 C 0.038 0.31594 0.59197 0.0
C1877 C 0.05575 0.34927 0.58542 0.0
C1878 C 0.9752 0.62365 0.79129 0.0
C1879 C 0.96468 0.62441 0.7456 0.0
C1880 C 0.00732 0.63777 0.80167 0.0
C1881 C 0.03055 0.65279 0.76678 0.0
H1882 H 0.95862 0.61383 0.82002 0.0
H1883 H 0.01408 0.63828 0.83802 0.0
S1884 S 0.01553 0.65692 0.64005 0.0
N1885 N 0.98027 0.63855 0.66395 0.0
N1886 N 0.04044 0.66431 0.68355 0.0
C1887 C 0.02036 0.65141 0.72026 0.0
C1888 C 0.98756 0.63752 0.70971 0.0
C1889 C 0.36232 0.35288 0.71489 0.0
C1890 C 0.38034 0.34773 0.74879 0.0
C1891 C 0.3476 0.37037 0.72505 0.0
C1892 C 0.35004 0.38334 0.76969 0.0
H1893 H 0.35821 0.34205 0.68062 0.0
H1894 H 0.33229 0.37166 0.69892 0.0
S1895 S 0.39804 0.38141 0.8687 0.0
N1896 N 0.40275 0.36079 0.82714 0.0
N1897 N 0.37459 0.39306 0.84643 0.0
C1898 C 0.36975 0.38045 0.80277 0.0
C1899 C 0.38508 0.3629 0.79229 0.0
C1900 C 0.64579 0.02001 0.79814 0.0
C1901 C 0.65103 0.03073 0.75148 0.0
C1902 C 0.62989 0.98779 0.80838 0.0
C1903 C 0.61824 0.96502 0.77244 0.0
H1904 H 0.65622 0.03646 0.82677 0.0
H1905 H 0.62831 0.98066 0.84479 0.0
S1906 S 0.62086 0.98114 0.64483 0.0
N1907 N 0.63953 0.01615 0.66918 0.0
N1908 N 0.60955 0.95576 0.68868 0.0
C1909 C 0.62057 0.97549 0.72595 0.0
C1910 C 0.63702 0.00829 0.71544 0.0
C1911 C 0.38159 0.02252 0.2944 0.0
C1912 C 0.3816 0.03295 0.24839 0.0
C1913 C 0.36697 0.99036 0.30499 0.0
C1914 C 0.35217 0.96728 0.26999 0.0
H1915 H 0.39103 0.03915 0.32296 0.0
H1916 H 0.36572 0.98346 0.34146 0.0
S1917 S 0.34978 0.98235 0.1429 0.0
N1918 N 0.36868 0.01752 0.16651 0.0
N1919 N 0.3414 0.95739 0.18677 0.0
C1920 C 0.35441 0.97743 0.22333 0.0
C1921 C 0.36902 0.01015 0.2125 0.0
C1922 C 0.98879 0.36043 0.21983 0.0
C1923 C 0.96633 0.34705 0.25616 0.0
C1924 C 0.02107 0.37602 0.22938 0.0
C1925 C 0.03191 0.37825 0.27557 0.0
H1926 H 0.98136 0.35721 0.18347 0.0
H1927 H 0.03742 0.384 0.20026 0.0
S1928 S 0.98297 0.35084 0.3836 0.0
N1929 N 0.95742 0.34013 0.34029 0.0
N1930 N 0.01781 0.36919 0.35846 0.0
C1931 C 0.00972 0.36735 0.31242 0.0
C1932 C 0.97697 0.3518 0.30269 0.0
C1933 C 0.6593 0.6695 0.28465 0.0
C1934 C 0.62748 0.65902 0.27622 0.0
C1935 C 0.67233 0.65065 0.27548 0.0
C1936 C 0.65415 0.62006 0.25889 0.0
H1937 H 0.6747 0.69306 0.29714 0.0
H1938 H 0.69738 0.66069 0.27927 0.0
S1939 S 0.57 0.58147 0.22805 0.0
N1940 N 0.57807 0.61619 0.24797 0.0
N1941 N 0.60293 0.58034 0.23132 0.0
C1942 C 0.62231 0.60905 0.2496 0.0
C1943 C 0.60889 0.62861 0.25826 0.0
loop_
_geom_bond_atom_site_label_1
_geom_bond_atom_site_label_2
_geom_bond_distance
_geom_bond_site_symmetry_2
_ccdc_geom_bond_type
O0 Mn1 2.163 . S
O0 C14 1.244 . S
Mn1 O0 2.163 . S
Mn1 O4 2.160 . S
Mn1 O5 2.221 . S
Mn1 O7 2.163 . S
Mn1 O9 2.160 . S
Mn1 O19 2.221 . S
O2 Mn3 2.087 . S
O2 C14 1.256 . S
Mn3 O2 2.087 . S
Mn3 O10 2.089 . S
Mn3 O19 2.290 . S
Mn3 O20 2.251 . S
O4 Mn1 2.160 . S
O4 C15 1.239 1_554 S
O5 Mn1 2.221 . S
O5 Mn6 2.290 1_554 S
O5 C16 1.278 . S
Mn6 O5 2.290 1_556 S
Mn6 O8 2.089 . S
Mn6 O11 2.251 . S
Mn6 O12 2.087 1_556 S
O7 Mn1 2.163 . S
O7 C17 1.244 . S
O8 Mn6 2.089 . S
O8 C15 1.256 . S
O9 Mn1 2.160 . S
O9 C18 1.239 . S
O10 Mn3 2.089 . S
O10 C18 1.256 . S
O11 Mn6 2.251 . S
O11 C16 1.241 1_556 S
O12 Mn6 2.087 1_554 S
O12 C17 1.256 . S
C13 O19 1.278 . S
C13 O20 1.241 . S
C14 O0 1.244 . S
C14 O2 1.256 . S
C15 O4 1.239 1_556 S
C15 O8 1.256 . S
C16 O5 1.278 . S
C16 O11 1.241 1_554 S
C17 O7 1.244 . S
C17 O12 1.256 . S
C18 O9 1.239 . S
C18 O10 1.256 . S
O19 Mn1 2.221 . S
O19 Mn3 2.290 . S
O19 C13 1.278 . S
O20 Mn3 2.251 . S
O20 C13 1.241 . S
O21 Mn22 2.163 . S
O21 C35 1.244 . S
Mn22 O21 2.163 . S
Mn22 O25 2.160 . S
Mn22 O26 2.221 . S
Mn22 O28 2.163 . S
Mn22 O30 2.160 . S
Mn22 O40 2.221 . S
O23 Mn24 2.087 . S
O23 C35 1.256 . S
Mn24 O23 2.087 . S
Mn24 O31 2.089 . S
Mn24 O40 2.290 . S
Mn24 O41 2.251 . S
O25 Mn22 2.160 . S
O25 C36 1.239 1_554 S
O26 Mn22 2.221 . S
O26 Mn27 2.290 1_554 S
O26 C37 1.278 1_545 S
Mn27 O26 2.290 1_556 S
Mn27 O29 2.089 . S
Mn27 O32 2.256 . S
Mn27 O33 2.087 1_556 S
O28 Mn22 2.163 . S
O28 C38 1.244 . S
O29 Mn27 2.089 . S
O29 C36 1.256 . S
O30 Mn22 2.160 . S
O30 C39 1.239 . S
O31 Mn24 2.089 . S
O31 C39 1.256 . S
O32 Mn27 2.256 . S
O32 C37 1.243 1_546 S
O33 Mn27 2.087 1_554 S
O33 C38 1.256 . S
C34 O40 1.278 . S
C34 O41 1.241 . S
C35 O21 1.244 . S
C35 O23 1.256 . S
C36 O25 1.239 1_556 S
C36 O29 1.256 . S
C37 O26 1.278 1_565 S
C37 O32 1.243 1_564 S
C38 O28 1.244 . S
C38 O33 1.256 . S
C39 O30 1.239 . S
C39 O31 1.256 . S
O40 Mn22 2.221 . S
O40 Mn24 2.290 . S
O40 C34 1.278 . S
O41 Mn24 2.251 . S
O41 C34 1.241 . S
O42 Mn43 2.163 . S
O42 C56 1.244 . S
Mn43 O42 2.163 . S
Mn43 O46 2.160 . S
Mn43 O47 2.221 . S
Mn43 O49 2.163 . S
Mn43 O51 2.160 . S
Mn43 O61 2.221 . S
O44 Mn45 2.087 . S
O44 C56 1.256 . S
Mn45 O44 2.087 . S
Mn45 O52 2.089 . S
Mn45 O61 2.290 . S
Mn45 O62 2.251 . S
O46 Mn43 2.160 . S
O46 C57 1.239 1_554 S
O47 Mn43 2.221 . S
O47 Mn48 2.290 1_554 S
O47 C58 1.278 1_655 S
Mn48 O47 2.290 1_556 S
Mn48 O50 2.089 . S
Mn48 O53 2.254 . S
Mn48 O54 2.087 1_556 S
O49 Mn43 2.163 . S
O49 C59 1.244 . S
O50 Mn48 2.089 . S
O50 C57 1.256 . S
O51 Mn43 2.160 . S
O51 C60 1.239 . S
O52 Mn45 2.089 . S
O52 C60 1.256 . S
O53 Mn48 2.254 . S
O53 C58 1.238 1_656 S
O54 Mn48 2.087 1_554 S
O54 C59 1.256 . S
C55 O61 1.278 . S
C55 O62 1.241 . S
C56 O42 1.244 . S
C56 O44 1.256 . S
C57 O46 1.239 1_556 S
C57 O50 1.256 . S
C58 O47 1.278 1_455 S
C58 O53 1.238 1_454 S
C59 O49 1.244 . S
C59 O54 1.256 . S
C60 O51 1.239 . S
C60 O52 1.256 . S
O61 Mn43 2.221 . S
O61 Mn45 2.290 . S
O61 C55 1.278 . S
O62 Mn45 2.251 . S
O62 C55 1.241 . S
O63 Mn64 2.163 . S
O63 C77 1.244 . S
Mn64 O63 2.163 . S
Mn64 O67 2.160 . S
Mn64 O68 2.221 . S
Mn64 O70 2.163 . S
Mn64 O72 2.160 . S
Mn64 O82 2.221 . S
O65 Mn66 2.087 . S
O65 C77 1.256 . S
Mn66 O65 2.087 . S
Mn66 O73 2.089 . S
Mn66 O82 2.290 . S
Mn66 O83 2.251 . S
O67 Mn64 2.160 . S
O67 C78 1.239 . S
O68 Mn64 2.221 . S
O68 Mn69 2.290 . S
O68 C79 1.278 . S
Mn69 O68 2.290 . S
Mn69 O71 2.089 . S
Mn69 O74 2.251 . S
Mn69 O75 2.087 . S
O70 Mn64 2.163 . S
O70 C80 1.244 . S
O71 Mn69 2.089 . S
O71 C78 1.256 . S
O72 Mn64 2.160 . S
O72 C81 1.239 . S
O73 Mn66 2.089 . S
O73 C81 1.256 . S
O74 Mn69 2.251 . S
O74 C79 1.241 . S
O75 Mn69 2.087 . S
O75 C80 1.256 . S
C76 O82 1.278 . S
C76 O83 1.241 . S
C77 O63 1.244 . S
C77 O65 1.256 . S
C78 O67 1.239 . S
C78 O71 1.256 . S
C79 O68 1.278 . S
C79 O74 1.241 . S
C80 O70 1.244 . S
C80 O75 1.256 . S
C81 O72 1.239 . S
C81 O73 1.256 . S
O82 Mn64 2.221 . S
O82 Mn66 2.290 . S
O82 C76 1.278 . S
O83 Mn66 2.251 . S
O83 C76 1.241 . S
O84 Mn85 2.163 . S
O84 C98 1.244 . S
Mn85 O84 2.163 . S
Mn85 O88 2.160 . S
Mn85 O89 2.221 . S
Mn85 O91 2.163 . S
Mn85 O93 2.160 . S
Mn85 O103 2.221 . S
O86 Mn87 2.087 . S
O86 C98 1.256 . S
Mn87 O86 2.087 . S
Mn87 O94 2.089 . S
Mn87 O103 2.290 . S
Mn87 O104 2.251 . S
O88 Mn85 2.160 . S
O88 C99 1.239 . S
O89 Mn85 2.221 . S
O89 Mn90 2.290 . S
O89 C100 1.278 1_565 S
Mn90 O89 2.290 . S
Mn90 O92 2.089 . S
Mn90 O95 2.254 . S
Mn90 O96 2.087 . S
O91 Mn85 2.163 . S
O91 C101 1.244 . S
O92 Mn90 2.089 . S
O92 C99 1.256 . S
O93 Mn85 2.160 . S
O93 C102 1.239 . S
O94 Mn87 2.089 . S
O94 C102 1.256 . S
O95 Mn90 2.254 . S
O95 C100 1.238 1_565 S
O96 Mn90 2.087 . S
O96 C101 1.256 . S
C97 O103 1.278 . S
C97 O104 1.241 . S
C98 O84 1.244 . S
C98 O86 1.256 . S
C99 O88 1.239 . S
C99 O92 1.256 . S
C100 O89 1.278 1_545 S
C100 O95 1.238 1_545 S
C101 O91 1.244 . S
C101 O96 1.256 . S
C102 O93 1.239 . S
C102 O94 1.256 . S
O103 Mn85 2.221 . S
O103 Mn87 2.290 . S
O103 C97 1.278 . S
O104 Mn87 2.251 . S
O104 C97 1.241 . S
O105 Mn106 2.163 . S
O105 C119 1.244 . S
Mn106 O105 2.163 . S
Mn106 O109 2.160 . S
Mn106 O110 2.221 . S
Mn106 O112 2.163 . S
Mn106 O114 2.160 . S
Mn106 O124 2.221 . S
O107 Mn108 2.087 . S
O107 C119 1.256 . S
Mn108 O107 2.087 . S
Mn108 O115 2.089 . S
Mn108 O124 2.290 . S
Mn108 O125 2.251 . S
O109 Mn106 2.160 . S
O109 C120 1.239 . S
O110 Mn106 2.221 . S
O110 Mn111 2.290 . S
O110 C121 1.278 1_455 S
Mn111 O110 2.290 . S
Mn111 O113 2.089 . S
Mn111 O116 2.256 . S
Mn111 O117 2.087 . S
O112 Mn106 2.163 . S
O112 C122 1.244 . S
O113 Mn111 2.089 . S
O113 C120 1.256 . S
O114 Mn106 2.160 . S
O114 C123 1.239 . S
O115 Mn108 2.089 . S
O115 C123 1.256 . S
O116 Mn111 2.256 . S
O116 C121 1.243 1_455 S
O117 Mn111 2.087 . S
O117 C122 1.256 . S
C118 O124 1.278 . S
C118 O125 1.241 . S
C119 O105 1.244 . S
C119 O107 1.256 . S
C120 O109 1.239 . S
C120 O113 1.256 . S
C121 O110 1.278 1_655 S
C121 O116 1.243 1_655 S
C122 O112 1.244 . S
C122 O117 1.256 . S
C123 O114 1.239 . S
C123 O115 1.256 . S
O124 Mn106 2.221 . S
O124 Mn108 2.290 . S
O124 C118 1.278 . S
O125 Mn108 2.251 . S
O125 C118 1.241 . S
O126 Mn127 2.163 . S
O126 C140 1.244 . S
Mn127 O126 2.163 . S
Mn127 O130 2.160 . S
Mn127 O131 2.221 . S
Mn127 O133 2.163 . S
Mn127 O135 2.160 . S
Mn127 O145 2.221 . S
O128 Mn129 2.087 . S
O128 C140 1.256 . S
Mn129 O128 2.087 . S
Mn129 O136 2.089 . S
Mn129 O145 2.290 . S
Mn129 O146 2.251 . S
O130 Mn127 2.160 . S
O130 C141 1.239 1_556 S
O131 Mn127 2.221 . S
O131 Mn132 2.290 1_556 S
O131 C142 1.278 . S
Mn132 O131 2.290 1_554 S
Mn132 O134 2.089 . S
Mn132 O137 2.251 . S
Mn132 O138 2.087 1_554 S
O133 Mn127 2.163 . S
O133 C143 1.244 . S
O134 Mn132 2.089 . S
O134 C141 1.256 . S
O135 Mn127 2.160 . S
O135 C144 1.239 . S
O136 Mn129 2.089 . S
O136 C144 1.256 . S
O137 Mn132 2.251 . S
O137 C142 1.241 1_554 S
O138 Mn132 2.087 1_556 S
O138 C143 1.256 . S
C139 O145 1.278 . S
C139 O146 1.241 . S
C140 O126 1.244 . S
C140 O128 1.256 . S
C141 O130 1.239 1_554 S
C141 O134 1.256 . S
C142 O131 1.278 . S
C142 O137 1.241 1_556 S
C143 O133 1.244 . S
C143 O138 1.256 . S
C144 O135 1.239 . S
C144 O136 1.256 . S
O145 Mn127 2.221 . S
O145 Mn129 2.290 . S
O145 C139 1.278 . S
O146 Mn129 2.251 . S
O146 C139 1.241 . S
O147 Mn148 2.163 . S
O147 C161 1.244 . S
Mn148 O147 2.163 . S
Mn148 O151 2.160 . S
Mn148 O152 2.221 . S
Mn148 O154 2.163 . S
Mn148 O156 2.160 . S
Mn148 O166 2.221 . S
O149 Mn150 2.087 . S
O149 C161 1.256 . S
Mn150 O149 2.087 . S
Mn150 O157 2.089 . S
Mn150 O166 2.290 . S
Mn150 O167 2.251 . S
O151 Mn148 2.160 . S
O151 C162 1.239 1_556 S
O152 Mn148 2.221 . S
O152 Mn153 2.290 1_556 S
O152 C163 1.278 1_565 S
Mn153 O152 2.290 1_554 S
Mn153 O155 2.089 . S
Mn153 O158 2.256 . S
Mn153 O159 2.087 1_554 S
O154 Mn148 2.163 . S
O154 C164 1.244 . S
O155 Mn153 2.089 . S
O155 C162 1.256 . S
O156 Mn148 2.160 . S
O156 C165 1.239 . S
O157 Mn150 2.089 . S
O157 C165 1.256 . S
O158 Mn153 2.256 . S
O158 C163 1.243 1_564 S
O159 Mn153 2.087 1_556 S
O159 C164 1.256 . S
C160 O166 1.278 . S
C160 O167 1.241 . S
C161 O147 1.244 . S
C161 O149 1.256 . S
C162 O151 1.239 1_554 S
C162 O155 1.256 . S
C163 O152 1.278 1_545 S
C163 O158 1.243 1_546 S
C164 O154 1.244 . S
C164 O159 1.256 . S
C165 O156 1.239 . S
C165 O157 1.256 . S
O166 Mn148 2.221 . S
O166 Mn150 2.290 . S
O166 C160 1.278 . S
O167 Mn150 2.251 . S
O167 C160 1.241 . S
O168 Mn169 2.163 . S
O168 C182 1.244 . S
Mn169 O168 2.163 . S
Mn169 O172 2.160 . S
Mn169 O173 2.221 . S
Mn169 O175 2.163 . S
Mn169 O177 2.160 . S
Mn169 O187 2.221 . S
O170 Mn171 2.087 . S
O170 C182 1.256 . S
Mn171 O170 2.087 . S
Mn171 O178 2.089 . S
Mn171 O187 2.290 . S
Mn171 O188 2.251 . S
O172 Mn169 2.160 . S
O172 C183 1.239 1_556 S
O173 Mn169 2.221 . S
O173 Mn174 2.290 1_556 S
O173 C184 1.278 1_455 S
Mn174 O173 2.290 1_554 S
Mn174 O176 2.089 . S
Mn174 O179 2.254 . S
Mn174 O180 2.087 1_554 S
O175 Mn169 2.163 . S
O175 C185 1.244 . S
O176 Mn174 2.089 . S
O176 C183 1.256 . S
O177 Mn169 2.160 . S
O177 C186 1.239 . S
O178 Mn171 2.089 . S
O178 C186 1.256 . S
O179 Mn174 2.254 . S
O179 C184 1.238 1_454 S
O180 Mn174 2.087 1_556 S
O180 C185 1.256 . S
C181 O187 1.278 . S
C181 O188 1.241 . S
C182 O168 1.244 . S
C182 O170 1.256 . S
C183 O172 1.239 1_554 S
C183 O176 1.256 . S
C184 O173 1.278 1_655 S
C184 O179 1.238 1_656 S
C185 O175 1.244 . S
C185 O180 1.256 . S
C186 O177 1.239 . S
C186 O178 1.256 . S
O187 Mn169 2.221 . S
O187 Mn171 2.290 . S
O187 C181 1.278 . S
O188 Mn171 2.251 . S
O188 C181 1.241 . S
O189 Mn190 2.163 . S
O189 C203 1.244 . S
Mn190 O189 2.163 . S
Mn190 O193 2.160 . S
Mn190 O194 2.221 . S
Mn190 O196 2.163 . S
Mn190 O198 2.160 . S
Mn190 O208 2.221 . S
O191 Mn192 2.087 . S
O191 C203 1.256 . S
Mn192 O191 2.087 . S
Mn192 O199 2.089 . S
Mn192 O208 2.290 . S
Mn192 O209 2.251 . S
O193 Mn190 2.160 . S
O193 C204 1.239 . S
O194 Mn190 2.221 . S
O194 Mn195 2.290 . S
O194 C205 1.278 . S
Mn195 O194 2.290 . S
Mn195 O197 2.089 . S
Mn195 O200 2.251 . S
Mn195 O201 2.087 . S
O196 Mn190 2.163 . S
O196 C206 1.244 . S
O197 Mn195 2.089 . S
O197 C204 1.256 . S
O198 Mn190 2.160 . S
O198 C207 1.239 . S
O199 Mn192 2.089 . S
O199 C207 1.256 . S
O200 Mn195 2.251 . S
O200 C205 1.241 . S
O201 Mn195 2.087 . S
O201 C206 1.256 . S
C202 O208 1.278 . S
C202 O209 1.241 . S
C203 O189 1.244 . S
C203 O191 1.256 . S
C204 O193 1.239 . S
C204 O197 1.256 . S
C205 O194 1.278 . S
C205 O200 1.241 . S
C206 O196 1.244 . S
C206 O201 1.256 . S
C207 O198 1.239 . S
C207 O199 1.256 . S
O208 Mn190 2.221 . S
O208 Mn192 2.290 . S
O208 C202 1.278 . S
O209 Mn192 2.251 . S
O209 C202 1.241 . S
O210 Mn211 2.163 . S
O210 C224 1.244 . S
Mn211 O210 2.163 . S
Mn211 O214 2.160 . S
Mn211 O215 2.221 . S
Mn211 O217 2.163 . S
Mn211 O219 2.160 . S
Mn211 O229 2.221 . S
O212 Mn213 2.087 . S
O212 C224 1.256 . S
Mn213 O212 2.087 . S
Mn213 O220 2.089 . S
Mn213 O229 2.290 . S
Mn213 O230 2.251 . S
O214 Mn211 2.160 . S
O214 C225 1.239 . S
O215 Mn211 2.221 . S
O215 Mn216 2.290 . S
O215 C226 1.278 1_545 S
Mn216 O215 2.290 . S
Mn216 O218 2.089 . S
Mn216 O221 2.254 . S
Mn216 O222 2.087 . S
O217 Mn211 2.163 . S
O217 C227 1.244 . S
O218 Mn216 2.089 . S
O218 C225 1.256 . S
O219 Mn211 2.160 . S
O219 C228 1.239 . S
O220 Mn213 2.089 . S
O220 C228 1.256 . S
O221 Mn216 2.254 . S
O221 C226 1.238 1_545 S
O222 Mn216 2.087 . S
O222 C227 1.256 . S
C223 O229 1.278 . S
C223 O230 1.241 . S
C224 O210 1.244 . S
C224 O212 1.256 . S
C225 O214 1.239 . S
C225 O218 1.256 . S
C226 O215 1.278 1_565 S
C226 O221 1.238 1_565 S
C227 O217 1.244 . S
C227 O222 1.256 . S
C228 O219 1.239 . S
C228 O220 1.256 . S
O229 Mn211 2.221 . S
O229 Mn213 2.290 . S
O229 C223 1.278 . S
O230 Mn213 2.251 . S
O230 C223 1.241 . S
O231 Mn232 2.163 . S
O231 C245 1.244 . S
Mn232 O231 2.163 . S
Mn232 O235 2.160 . S
Mn232 O236 2.221 . S
Mn232 O238 2.163 . S
Mn232 O240 2.160 . S
Mn232 O250 2.221 . S
O233 Mn234 2.087 . S
O233 C245 1.256 . S
Mn234 O233 2.087 . S
Mn234 O241 2.089 . S
Mn234 O250 2.290 . S
Mn234 O251 2.251 . S
O235 Mn232 2.160 . S
O235 C246 1.239 . S
O236 Mn232 2.221 . S
O236 Mn237 2.290 . S
O236 C247 1.278 1_655 S
Mn237 O236 2.290 . S
Mn237 O239 2.089 . S
Mn237 O242 2.256 . S
Mn237 O243 2.087 . S
O238 Mn232 2.163 . S
O238 C248 1.244 . S
O239 Mn237 2.089 . S
O239 C246 1.256 . S
O240 Mn232 2.160 . S
O240 C249 1.239 . S
O241 Mn234 2.089 . S
O241 C249 1.256 . S
O242 Mn237 2.256 . S
O242 C247 1.243 1_655 S
O243 Mn237 2.087 . S
O243 C248 1.256 . S
C244 O250 1.278 . S
C244 O251 1.241 . S
C245 O231 1.244 . S
C245 O233 1.256 . S
C246 O235 1.239 . S
C246 O239 1.256 . S
C247 O236 1.278 1_455 S
C247 O242 1.243 1_455 S
C248 O238 1.244 . S
C248 O243 1.256 . S
C249 O240 1.239 . S
C249 O241 1.256 . S
O250 Mn232 2.221 . S
O250 Mn234 2.290 . S
O250 C244 1.278 . S
O251 Mn234 2.251 . S
O251 C244 1.241 . S
O252 Mn253 2.163 . S
O252 C266 1.244 . S
Mn253 O252 2.163 . S
Mn253 O256 2.160 . S
Mn253 O257 2.221 . S
Mn253 O259 2.163 . S
Mn253 O261 2.160 . S
Mn253 O271 2.221 . S
O254 Mn255 2.087 . S
O254 C266 1.256 . S
Mn255 O254 2.087 . S
Mn255 O262 2.089 . S
Mn255 O271 2.290 . S
Mn255 O272 2.251 . S
O256 Mn253 2.160 . S
O256 C267 1.239 . S
O257 Mn253 2.221 . S
O257 Mn258 2.290 . S
O257 C268 1.278 . S
Mn258 O257 2.290 . S
Mn258 O260 2.089 . S
Mn258 O263 2.251 . S
Mn258 O264 2.087 . S
O259 Mn253 2.163 . S
O259 C269 1.244 . S
O260 Mn258 2.089 . S
O260 C267 1.256 . S
O261 Mn253 2.160 . S
O261 C270 1.239 . S
O262 Mn255 2.089 . S
O262 C270 1.256 . S
O263 Mn258 2.251 . S
O263 C268 1.241 . S
O264 Mn258 2.087 . S
O264 C269 1.256 . S
C265 O271 1.278 . S
C265 O272 1.241 . S
C266 O252 1.244 . S
C266 O254 1.256 . S
C267 O256 1.239 . S
C267 O260 1.256 . S
C268 O257 1.278 . S
C268 O263 1.241 . S
C269 O259 1.244 . S
C269 O264 1.256 . S
C270 O261 1.239 . S
C270 O262 1.256 . S
O271 Mn253 2.221 . S
O271 Mn255 2.290 . S
O271 C265 1.278 . S
O272 Mn255 2.251 . S
O272 C265 1.241 . S
O273 Mn274 2.163 . S
O273 C287 1.244 . S
Mn274 O273 2.163 . S
Mn274 O277 2.160 . S
Mn274 O278 2.221 . S
Mn274 O280 2.163 . S
Mn274 O282 2.160 . S
Mn274 O292 2.221 . S
O275 Mn276 2.087 . S
O275 C287 1.256 . S
Mn276 O275 2.087 . S
Mn276 O283 2.089 . S
Mn276 O292 2.290 . S
Mn276 O293 2.251 . S
O277 Mn274 2.160 . S
O277 C288 1.239 . S
O278 Mn274 2.221 . S
O278 Mn279 2.290 . S
O278 C289 1.278 . S
Mn279 O278 2.290 . S
Mn279 O281 2.089 . S
Mn279 O284 2.251 . S
Mn279 O285 2.087 . S
O280 Mn274 2.163 . S
O280 C290 1.244 . S
O281 Mn279 2.089 . S
O281 C288 1.256 . S
O282 Mn274 2.160 . S
O282 C291 1.239 . S
O283 Mn276 2.089 . S
O283 C291 1.256 . S
O284 Mn279 2.251 . S
O284 C289 1.241 . S
O285 Mn279 2.087 . S
O285 C290 1.256 . S
C286 O292 1.278 . S
C286 O293 1.241 . S
C287 O273 1.244 . S
C287 O275 1.256 . S
C288 O277 1.239 . S
C288 O281 1.256 . S
C289 O278 1.278 . S
C289 O284 1.241 . S
C290 O280 1.244 . S
C290 O285 1.256 . S
C291 O282 1.239 . S
C291 O283 1.256 . S
O292 Mn274 2.221 . S
O292 Mn276 2.290 . S
O292 C286 1.278 . S
O293 Mn276 2.251 . S
O293 C286 1.241 . S
O294 Mn295 2.163 . S
O294 C308 1.244 . S
Mn295 O294 2.163 . S
Mn295 O298 2.160 . S
Mn295 O299 2.221 . S
Mn295 O301 2.163 . S
Mn295 O303 2.160 . S
Mn295 O313 2.221 . S
O296 Mn297 2.087 . S
O296 C308 1.256 . S
Mn297 O296 2.087 . S
Mn297 O304 2.089 . S
Mn297 O313 2.290 . S
Mn297 O314 2.251 . S
O298 Mn295 2.160 . S
O298 C309 1.239 . S
O299 Mn295 2.221 . S
O299 Mn300 2.290 . S
O299 C310 1.278 . S
Mn300 O299 2.290 . S
Mn300 O302 2.089 . S
Mn300 O305 2.251 . S
Mn300 O306 2.087 . S
O301 Mn295 2.163 . S
O301 C311 1.244 . S
O302 Mn300 2.089 . S
O302 C309 1.256 . S
O303 Mn295 2.160 . S
O303 C312 1.239 . S
O304 Mn297 2.089 . S
O304 C312 1.256 . S
O305 Mn300 2.251 . S
O305 C310 1.241 . S
O306 Mn300 2.087 . S
O306 C311 1.256 . S
C307 O313 1.278 . S
C307 O314 1.241 . S
C308 O294 1.244 . S
C308 O296 1.256 . S
C309 O298 1.239 . S
C309 O302 1.256 . S
C310 O299 1.278 . S
C310 O305 1.241 . S
C311 O301 1.244 . S
C311 O306 1.256 . S
C312 O303 1.239 . S
C312 O304 1.256 . S
O313 Mn295 2.221 . S
O313 Mn297 2.290 . S
O313 C307 1.278 . S
O314 Mn297 2.251 . S
O314 C307 1.241 . S
O315 Mn316 2.163 . S
O315 C329 1.244 . S
Mn316 O315 2.163 . S
Mn316 O319 2.160 . S
Mn316 O320 2.221 . S
Mn316 O322 2.163 . S
Mn316 O324 2.160 . S
Mn316 O334 2.221 . S
O317 Mn318 2.087 . S
O317 C329 1.256 . S
Mn318 O317 2.087 . S
Mn318 O325 2.089 . S
Mn318 O334 2.290 . S
Mn318 O335 2.251 . S
O319 Mn316 2.160 . S
O319 C330 1.239 . S
O320 Mn316 2.221 . S
O320 Mn321 2.290 . S
O320 C331 1.278 . S
Mn321 O320 2.290 . S
Mn321 O323 2.089 . S
Mn321 O326 2.251 . S
Mn321 O327 2.087 . S
O322 Mn316 2.163 . S
O322 C332 1.244 . S
O323 Mn321 2.089 . S
O323 C330 1.256 . S
O324 Mn316 2.160 . S
O324 C333 1.239 . S
O325 Mn318 2.089 . S
O325 C333 1.256 . S
O326 Mn321 2.251 . S
O326 C331 1.241 . S
O327 Mn321 2.087 . S
O327 C332 1.256 . S
C328 O334 1.278 . S
C328 O335 1.241 . S
C329 O315 1.244 . S
C329 O317 1.256 . S
C330 O319 1.239 . S
C330 O323 1.256 . S
C331 O320 1.278 . S
C331 O326 1.241 . S
C332 O322 1.244 . S
C332 O327 1.256 . S
C333 O324 1.239 . S
C333 O325 1.256 . S
O334 Mn316 2.221 . S
O334 Mn318 2.290 . S
O334 C328 1.278 . S
O335 Mn318 2.251 . S
O335 C328 1.241 . S
O336 Mn337 2.163 . S
O336 C350 1.244 . S
Mn337 O336 2.163 . S
Mn337 O340 2.160 . S
Mn337 O341 2.221 . S
Mn337 O343 2.163 . S
Mn337 O345 2.160 . S
Mn337 O355 2.221 . S
O338 Mn339 2.087 . S
O338 C350 1.256 . S
Mn339 O338 2.087 . S
Mn339 O346 2.089 . S
Mn339 O355 2.290 . S
Mn339 O356 2.251 . S
O340 Mn337 2.160 . S
O340 C351 1.239 . S
O341 Mn337 2.221 . S
O341 Mn342 2.290 . S
O341 C352 1.278 . S
Mn342 O341 2.290 . S
Mn342 O344 2.089 . S
Mn342 O347 2.251 . S
Mn342 O348 2.087 . S
O343 Mn337 2.163 . S
O343 C353 1.244 . S
O344 Mn342 2.089 . S
O344 C351 1.256 . S
O345 Mn337 2.160 . S
O345 C354 1.239 . S
O346 Mn339 2.089 . S
O346 C354 1.256 . S
O347 Mn342 2.251 . S
O347 C352 1.241 . S
O348 Mn342 2.087 . S
O348 C353 1.256 . S
C349 O355 1.278 . S
C349 O356 1.241 . S
C350 O336 1.244 . S
C350 O338 1.256 . S
C351 O340 1.239 . S
C351 O344 1.256 . S
C352 O341 1.278 . S
C352 O347 1.241 . S
C353 O343 1.244 . S
C353 O348 1.256 . S
C354 O345 1.239 . S
C354 O346 1.256 . S
O355 Mn337 2.221 . S
O355 Mn339 2.290 . S
O355 C349 1.278 . S
O356 Mn339 2.251 . S
O356 C349 1.241 . S
O357 Mn358 2.163 . S
O357 C371 1.244 . S
Mn358 O357 2.163 . S
Mn358 O361 2.160 . S
Mn358 O362 2.221 . S
Mn358 O364 2.163 . S
Mn358 O366 2.160 . S
Mn358 O376 2.221 . S
O359 Mn360 2.087 . S
O359 C371 1.256 . S
Mn360 O359 2.087 . S
Mn360 O367 2.089 . S
Mn360 O376 2.290 . S
Mn360 O377 2.251 . S
O361 Mn358 2.160 . S
O361 C372 1.239 . S
O362 Mn358 2.221 . S
O362 Mn363 2.290 . S
O362 C373 1.278 . S
Mn363 O362 2.290 . S
Mn363 O365 2.089 . S
Mn363 O368 2.251 . S
Mn363 O369 2.087 . S
O364 Mn358 2.163 . S
O364 C374 1.244 . S
O365 Mn363 2.089 . S
O365 C372 1.256 . S
O366 Mn358 2.160 . S
O366 C375 1.239 . S
O367 Mn360 2.089 . S
O367 C375 1.256 . S
O368 Mn363 2.251 . S
O368 C373 1.241 . S
O369 Mn363 2.087 . S
O369 C374 1.256 . S
C370 O376 1.278 . S
C370 O377 1.241 . S
C371 O357 1.244 . S
C371 O359 1.256 . S
C372 O361 1.239 . S
C372 O365 1.256 . S
C373 O362 1.278 . S
C373 O368 1.241 . S
C374 O364 1.244 . S
C374 O369 1.256 . S
C375 O366 1.239 . S
C375 O367 1.256 . S
O376 Mn358 2.221 . S
O376 Mn360 2.290 . S
O376 C370 1.278 . S
O377 Mn360 2.251 . S
O377 C370 1.241 . S
O378 Mn379 2.163 . S
O378 C392 1.244 . S
Mn379 O378 2.163 . S
Mn379 O382 2.160 . S
Mn379 O383 2.221 . S
Mn379 O385 2.163 . S
Mn379 O387 2.160 . S
Mn379 O397 2.221 . S
O380 Mn381 2.087 . S
O380 C392 1.256 . S
Mn381 O380 2.087 . S
Mn381 O388 2.089 . S
Mn381 O397 2.290 . S
Mn381 O398 2.251 . S
O382 Mn379 2.160 . S
O382 C393 1.239 . S
O383 Mn379 2.221 . S
O383 Mn384 2.290 . S
O383 C394 1.278 . S
Mn384 O383 2.290 . S
Mn384 O386 2.089 . S
Mn384 O389 2.251 . S
Mn384 O390 2.087 . S
O385 Mn379 2.163 . S
O385 C395 1.244 . S
O386 Mn384 2.089 . S
O386 C393 1.256 . S
O387 Mn379 2.160 . S
O387 C396 1.239 . S
O388 Mn381 2.089 . S
O388 C396 1.256 . S
O389 Mn384 2.251 . S
O389 C394 1.241 . S
O390 Mn384 2.087 . S
O390 C395 1.256 . S
C391 O397 1.278 . S
C391 O398 1.241 . S
C392 O378 1.244 . S
C392 O380 1.256 . S
C393 O382 1.239 . S
C393 O386 1.256 . S
C394 O383 1.278 . S
C394 O389 1.241 . S
C395 O385 1.244 . S
C395 O390 1.256 . S
C396 O387 1.239 . S
C396 O388 1.256 . S
O397 Mn379 2.221 . S
O397 Mn381 2.290 . S
O397 C391 1.278 . S
O398 Mn381 2.251 . S
O398 C391 1.241 . S
O399 Mn400 2.163 . S
O399 C413 1.244 . S
Mn400 O399 2.163 . S
Mn400 O403 2.160 . S
Mn400 O404 2.221 . S
Mn400 O406 2.163 . S
Mn400 O408 2.160 . S
Mn400 O418 2.221 . S
O401 Mn402 2.087 . S
O401 C413 1.256 . S
Mn402 O401 2.087 . S
Mn402 O409 2.089 . S
Mn402 O418 2.290 . S
Mn402 O419 2.251 . S
O403 Mn400 2.160 . S
O403 C414 1.239 . S
O404 Mn400 2.221 . S
O404 Mn405 2.290 . S
O404 C415 1.278 . S
Mn405 O404 2.290 . S
Mn405 O407 2.089 . S
Mn405 O410 2.251 . S
Mn405 O411 2.087 . S
O406 Mn400 2.163 . S
O406 C416 1.244 . S
O407 Mn405 2.089 . S
O407 C414 1.256 . S
O408 Mn400 2.160 . S
O408 C417 1.239 . S
O409 Mn402 2.089 . S
O409 C417 1.256 . S
O410 Mn405 2.251 . S
O410 C415 1.241 . S
O411 Mn405 2.087 . S
O411 C416 1.256 . S
C412 O418 1.278 . S
C412 O419 1.241 . S
C413 O399 1.244 . S
C413 O401 1.256 . S
C414 O403 1.239 . S
C414 O407 1.256 . S
C415 O404 1.278 . S
C415 O410 1.241 . S
C416 O406 1.244 . S
C416 O411 1.256 . S
C417 O408 1.239 . S
C417 O409 1.256 . S
O418 Mn400 2.221 . S
O418 Mn402 2.290 . S
O418 C412 1.278 . S
O419 Mn402 2.251 . S
O419 C412 1.241 . S
O420 Mn421 2.163 . S
O420 C434 1.244 . S
Mn421 O420 2.163 . S
Mn421 O424 2.160 . S
Mn421 O425 2.221 . S
Mn421 O427 2.163 . S
Mn421 O429 2.160 . S
Mn421 O439 2.221 . S
O422 Mn423 2.087 . S
O422 C434 1.256 . S
Mn423 O422 2.087 . S
Mn423 O430 2.089 . S
Mn423 O439 2.290 . S
Mn423 O440 2.251 . S
O424 Mn421 2.160 . S
O424 C435 1.239 . S
O425 Mn421 2.221 . S
O425 Mn426 2.290 . S
O425 C436 1.278 . S
Mn426 O425 2.290 . S
Mn426 O428 2.089 . S
Mn426 O431 2.251 . S
Mn426 O432 2.087 . S
O427 Mn421 2.163 . S
O427 C437 1.244 . S
O428 Mn426 2.089 . S
O428 C435 1.256 . S
O429 Mn421 2.160 . S
O429 C438 1.239 . S
O430 Mn423 2.089 . S
O430 C438 1.256 . S
O431 Mn426 2.251 . S
O431 C436 1.241 . S
O432 Mn426 2.087 . S
O432 C437 1.256 . S
C433 O439 1.278 . S
C433 O440 1.241 . S
C434 O420 1.244 . S
C434 O422 1.256 . S
C435 O424 1.239 . S
C435 O428 1.256 . S
C436 O425 1.278 . S
C436 O431 1.241 . S
C437 O427 1.244 . S
C437 O432 1.256 . S
C438 O429 1.239 . S
C438 O430 1.256 . S
O439 Mn421 2.221 . S
O439 Mn423 2.290 . S
O439 C433 1.278 . S
O440 Mn423 2.251 . S
O440 C433 1.241 . S
O441 Mn442 2.163 . S
O441 C455 1.244 . S
Mn442 O441 2.163 . S
Mn442 O445 2.160 . S
Mn442 O446 2.221 . S
Mn442 O448 2.163 . S
Mn442 O450 2.160 . S
Mn442 O460 2.221 . S
O443 Mn444 2.087 . S
O443 C455 1.256 1_554 S
Mn444 O443 2.087 . S
Mn444 O451 2.089 1_554 S
Mn444 O460 2.290 1_554 S
Mn444 O461 2.251 . S
O445 Mn442 2.160 . S
O445 C456 1.239 . S
O446 Mn442 2.221 . S
O446 Mn447 2.290 . S
O446 C457 1.278 . S
Mn447 O446 2.290 . S
Mn447 O449 2.089 . S
Mn447 O452 2.251 . S
Mn447 O453 2.087 . S
O448 Mn442 2.163 . S
O448 C458 1.244 . S
O449 Mn447 2.089 . S
O449 C456 1.256 . S
O450 Mn442 2.160 . S
O450 C459 1.239 . S
O451 Mn444 2.089 1_556 S
O451 C459 1.256 . S
O452 Mn447 2.251 . S
O452 C457 1.241 . S
O453 Mn447 2.087 . S
O453 C458 1.256 . S
C454 O460 1.278 . S
C454 O461 1.241 1_556 S
C455 O441 1.244 . S
C455 O443 1.256 1_556 S
C456 O445 1.239 . S
C456 O449 1.256 . S
C457 O446 1.278 . S
C457 O452 1.241 . S
C458 O448 1.244 . S
C458 O453 1.256 . S
C459 O450 1.239 . S
C459 O451 1.256 . S
O460 Mn442 2.221 . S
O460 Mn444 2.290 1_556 S
O460 C454 1.278 . S
O461 Mn444 2.251 . S
O461 C454 1.241 1_554 S
O462 Mn463 2.163 . S
O462 C476 1.244 . S
Mn463 O462 2.163 . S
Mn463 O466 2.160 . S
Mn463 O467 2.221 . S
Mn463 O469 2.163 . S
Mn463 O471 2.160 . S
Mn463 O481 2.221 . S
O464 Mn465 2.087 . S
O464 C476 1.256 1_554 S
Mn465 O464 2.087 . S
Mn465 O472 2.089 1_554 S
Mn465 O481 2.290 1_554 S
Mn465 O482 2.251 . S
O466 Mn463 2.160 . S
O466 C477 1.239 . S
O467 Mn463 2.221 . S
O467 Mn468 2.290 . S
O467 C478 1.278 . S
Mn468 O467 2.290 . S
Mn468 O470 2.089 . S
Mn468 O473 2.251 . S
Mn468 O474 2.087 . S
O469 Mn463 2.163 . S
O469 C479 1.244 . S
O470 Mn468 2.089 . S
O470 C477 1.256 . S
O471 Mn463 2.160 . S
O471 C480 1.239 . S
O472 Mn465 2.089 1_556 S
O472 C480 1.256 . S
O473 Mn468 2.251 . S
O473 C478 1.241 . S
O474 Mn468 2.087 . S
O474 C479 1.256 . S
C475 O481 1.278 . S
C475 O482 1.241 1_556 S
C476 O462 1.244 . S
C476 O464 1.256 1_556 S
C477 O466 1.239 . S
C477 O470 1.256 . S
C478 O467 1.278 . S
C478 O473 1.241 . S
C479 O469 1.244 . S
C479 O474 1.256 . S
C480 O471 1.239 . S
C480 O472 1.256 . S
O481 Mn463 2.221 . S
O481 Mn465 2.290 1_556 S
O481 C475 1.278 . S
O482 Mn465 2.251 . S
O482 C475 1.241 1_554 S
O483 Mn484 2.163 . S
O483 C497 1.244 . S
Mn484 O483 2.163 . S
Mn484 O487 2.160 . S
Mn484 O488 2.221 . S
Mn484 O490 2.163 . S
Mn484 O492 2.160 . S
Mn484 O502 2.221 . S
O485 Mn486 2.087 . S
O485 C497 1.256 1_554 S
Mn486 O485 2.087 . S
Mn486 O493 2.089 1_554 S
Mn486 O502 2.290 1_554 S
Mn486 O503 2.251 . S
O487 Mn484 2.160 . S
O487 C498 1.239 . S
O488 Mn484 2.221 . S
O488 Mn489 2.290 . S
O488 C499 1.278 . S
Mn489 O488 2.290 . S
Mn489 O491 2.089 . S
Mn489 O494 2.251 . S
Mn489 O495 2.087 . S
O490 Mn484 2.163 . S
O490 C500 1.244 . S
O491 Mn489 2.089 . S
O491 C498 1.256 . S
O492 Mn484 2.160 . S
O492 C501 1.239 . S
O493 Mn486 2.089 1_556 S
O493 C501 1.256 . S
O494 Mn489 2.251 . S
O494 C499 1.241 . S
O495 Mn489 2.087 . S
O495 C500 1.256 . S
C496 O502 1.278 . S
C496 O503 1.241 1_556 S
C497 O483 1.244 . S
C497 O485 1.256 1_556 S
C498 O487 1.239 . S
C498 O491 1.256 . S
C499 O488 1.278 . S
C499 O494 1.241 . S
C500 O490 1.244 . S
C500 O495 1.256 . S
C501 O492 1.239 . S
C501 O493 1.256 . S
O502 Mn484 2.221 . S
O502 Mn486 2.290 1_556 S
O502 C496 1.278 . S
O503 Mn486 2.251 . S
O503 C496 1.241 1_554 S
O504 Mn505 2.163 . S
O504 C518 1.244 . S
Mn505 O504 2.163 . S
Mn505 O508 2.160 . S
Mn505 O509 2.221 . S
Mn505 O511 2.163 . S
Mn505 O513 2.160 . S
Mn505 O523 2.221 . S
O506 Mn507 2.087 . S
O506 C518 1.256 . S
Mn507 O506 2.087 . S
Mn507 O514 2.089 . S
Mn507 O523 2.290 . S
Mn507 O524 2.251 . S
O508 Mn505 2.160 . S
O508 C519 1.239 . S
O509 Mn505 2.221 . S
O509 Mn510 2.290 . S
O509 C520 1.278 . S
Mn510 O509 2.290 . S
Mn510 O512 2.089 . S
Mn510 O515 2.251 . S
Mn510 O516 2.087 . S
O511 Mn505 2.163 . S
O511 C521 1.244 . S
O512 Mn510 2.089 . S
O512 C519 1.256 . S
O513 Mn505 2.160 . S
O513 C522 1.239 . S
O514 Mn507 2.089 . S
O514 C522 1.256 . S
O515 Mn510 2.251 . S
O515 C520 1.241 . S
O516 Mn510 2.087 . S
O516 C521 1.256 . S
C517 O523 1.278 . S
C517 O524 1.241 . S
C518 O504 1.244 . S
C518 O506 1.256 . S
C519 O508 1.239 . S
C519 O512 1.256 . S
C520 O509 1.278 . S
C520 O515 1.241 . S
C521 O511 1.244 . S
C521 O516 1.256 . S
C522 O513 1.239 . S
C522 O514 1.256 . S
O523 Mn505 2.221 . S
O523 Mn507 2.290 . S
O523 C517 1.278 . S
O524 Mn507 2.251 . S
O524 C517 1.241 . S
O525 Mn526 2.163 . S
O525 C539 1.244 . S
Mn526 O525 2.163 . S
Mn526 O529 2.160 . S
Mn526 O530 2.221 . S
Mn526 O532 2.163 . S
Mn526 O534 2.160 . S
Mn526 O544 2.221 . S
O527 Mn528 2.087 . S
O527 C539 1.256 . S
Mn528 O527 2.087 . S
Mn528 O535 2.089 . S
Mn528 O544 2.290 . S
Mn528 O545 2.251 . S
O529 Mn526 2.160 . S
O529 C540 1.239 . S
O530 Mn526 2.221 . S
O530 Mn531 2.290 . S
O530 C541 1.278 . S
Mn531 O530 2.290 . S
Mn531 O533 2.089 . S
Mn531 O536 2.251 . S
Mn531 O537 2.087 . S
O532 Mn526 2.163 . S
O532 C542 1.244 . S
O533 Mn531 2.089 . S
O533 C540 1.256 . S
O534 Mn526 2.160 . S
O534 C543 1.239 . S
O535 Mn528 2.089 . S
O535 C543 1.256 . S
O536 Mn531 2.251 . S
O536 C541 1.241 . S
O537 Mn531 2.087 . S
O537 C542 1.256 . S
C538 O544 1.278 . S
C538 O545 1.241 . S
C539 O525 1.244 . S
C539 O527 1.256 . S
C540 O529 1.239 . S
C540 O533 1.256 . S
C541 O530 1.278 . S
C541 O536 1.241 . S
C542 O532 1.244 . S
C542 O537 1.256 . S
C543 O534 1.239 . S
C543 O535 1.256 . S
O544 Mn526 2.221 . S
O544 Mn528 2.290 . S
O544 C538 1.278 . S
O545 Mn528 2.251 . S
O545 C538 1.241 . S
O546 Mn547 2.163 . S
O546 C560 1.244 . S
Mn547 O546 2.163 . S
Mn547 O550 2.160 . S
Mn547 O551 2.221 . S
Mn547 O553 2.163 . S
Mn547 O555 2.160 . S
Mn547 O565 2.221 . S
O548 Mn549 2.087 . S
O548 C560 1.256 . S
Mn549 O548 2.087 . S
Mn549 O556 2.089 . S
Mn549 O565 2.290 . S
Mn549 O566 2.251 . S
O550 Mn547 2.160 . S
O550 C561 1.239 . S
O551 Mn547 2.221 . S
O551 Mn552 2.290 . S
O551 C562 1.278 . S
Mn552 O551 2.290 . S
Mn552 O554 2.089 . S
Mn552 O557 2.251 . S
Mn552 O558 2.087 . S
O553 Mn547 2.163 . S
O553 C563 1.244 . S
O554 Mn552 2.089 . S
O554 C561 1.256 . S
O555 Mn547 2.160 . S
O555 C564 1.239 . S
O556 Mn549 2.089 . S
O556 C564 1.256 . S
O557 Mn552 2.251 . S
O557 C562 1.241 . S
O558 Mn552 2.087 . S
O558 C563 1.256 . S
C559 O565 1.278 . S
C559 O566 1.241 . S
C560 O546 1.244 . S
C560 O548 1.256 . S
C561 O550 1.239 . S
C561 O554 1.256 . S
C562 O551 1.278 . S
C562 O557 1.241 . S
C563 O553 1.244 . S
C563 O558 1.256 . S
C564 O555 1.239 . S
C564 O556 1.256 . S
O565 Mn547 2.221 . S
O565 Mn549 2.290 . S
O565 C559 1.278 . S
O566 Mn549 2.251 . S
O566 C559 1.241 . S
O567 Mn568 2.163 . S
O567 C581 1.244 . S
Mn568 O567 2.163 . S
Mn568 O571 2.160 . S
Mn568 O572 2.221 . S
Mn568 O574 2.163 . S
Mn568 O576 2.160 . S
Mn568 O586 2.221 . S
O569 Mn570 2.087 . S
O569 C581 1.256 1_556 S
Mn570 O569 2.087 . S
Mn570 O577 2.089 1_556 S
Mn570 O586 2.290 1_556 S
Mn570 O587 2.251 . S
O571 Mn568 2.160 . S
O571 C582 1.239 . S
O572 Mn568 2.221 . S
O572 Mn573 2.290 . S
O572 C583 1.278 . S
Mn573 O572 2.290 . S
Mn573 O575 2.089 . S
Mn573 O578 2.251 . S
Mn573 O579 2.087 . S
O574 Mn568 2.163 . S
O574 C584 1.244 . S
O575 Mn573 2.089 . S
O575 C582 1.256 . S
O576 Mn568 2.160 . S
O576 C585 1.239 . S
O577 Mn570 2.089 1_554 S
O577 C585 1.256 . S
O578 Mn573 2.251 . S
O578 C583 1.241 . S
O579 Mn573 2.087 . S
O579 C584 1.256 . S
C580 O586 1.278 . S
C580 O587 1.241 1_554 S
C581 O567 1.244 . S
C581 O569 1.256 1_554 S
C582 O571 1.239 . S
C582 O575 1.256 . S
C583 O572 1.278 . S
C583 O578 1.241 . S
C584 O574 1.244 . S
C584 O579 1.256 . S
C585 O576 1.239 . S
C585 O577 1.256 . S
O586 Mn568 2.221 . S
O586 Mn570 2.290 1_554 S
O586 C580 1.278 . S
O587 Mn570 2.251 . S
O587 C580 1.241 1_556 S
O588 Mn589 2.163 . S
O588 C602 1.244 . S
Mn589 O588 2.163 . S
Mn589 O592 2.160 . S
Mn589 O593 2.221 . S
Mn589 O595 2.163 . S
Mn589 O597 2.160 . S
Mn589 O607 2.221 . S
O590 Mn591 2.087 . S
O590 C602 1.256 1_556 S
Mn591 O590 2.087 . S
Mn591 O598 2.089 1_556 S
Mn591 O607 2.290 1_556 S
Mn591 O608 2.251 . S
O592 Mn589 2.160 . S
O592 C603 1.239 . S
O593 Mn589 2.221 . S
O593 Mn594 2.290 . S
O593 C604 1.278 . S
Mn594 O593 2.290 . S
Mn594 O596 2.089 . S
Mn594 O599 2.251 . S
Mn594 O600 2.087 . S
O595 Mn589 2.163 . S
O595 C605 1.244 . S
O596 Mn594 2.089 . S
O596 C603 1.256 . S
O597 Mn589 2.160 . S
O597 C606 1.239 . S
O598 Mn591 2.089 1_554 S
O598 C606 1.256 . S
O599 Mn594 2.251 . S
O599 C604 1.241 . S
O600 Mn594 2.087 . S
O600 C605 1.256 . S
C601 O607 1.278 . S
C601 O608 1.241 1_554 S
C602 O588 1.244 . S
C602 O590 1.256 1_554 S
C603 O592 1.239 . S
C603 O596 1.256 . S
C604 O593 1.278 . S
C604 O599 1.241 . S
C605 O595 1.244 . S
C605 O600 1.256 . S
C606 O597 1.239 . S
C606 O598 1.256 . S
O607 Mn589 2.221 . S
O607 Mn591 2.290 1_554 S
O607 C601 1.278 . S
O608 Mn591 2.251 . S
O608 C601 1.241 1_556 S
O609 Mn610 2.163 . S
O609 C623 1.244 . S
Mn610 O609 2.163 . S
Mn610 O613 2.160 . S
Mn610 O614 2.221 . S
Mn610 O616 2.163 . S
Mn610 O618 2.160 . S
Mn610 O628 2.221 . S
O611 Mn612 2.087 . S
O611 C623 1.256 1_556 S
Mn612 O611 2.087 . S
Mn612 O619 2.089 1_556 S
Mn612 O628 2.290 1_556 S
Mn612 O629 2.251 . S
O613 Mn610 2.160 . S
O613 C624 1.239 . S
O614 Mn610 2.221 . S
O614 Mn615 2.290 . S
O614 C625 1.278 . S
Mn615 O614 2.290 . S
Mn615 O617 2.089 . S
Mn615 O620 2.251 . S
Mn615 O621 2.087 . S
O616 Mn610 2.163 . S
O616 C626 1.244 . S
O617 Mn615 2.089 . S
O617 C624 1.256 . S
O618 Mn610 2.160 . S
O618 C627 1.239 . S
O619 Mn612 2.089 1_554 S
O619 C627 1.256 . S
O620 Mn615 2.251 . S
O620 C625 1.241 . S
O621 Mn615 2.087 . S
O621 C626 1.256 . S
C622 O628 1.278 . S
C622 O629 1.241 1_554 S
C623 O609 1.244 . S
C623 O611 1.256 1_554 S
C624 O613 1.239 . S
C624 O617 1.256 . S
C625 O614 1.278 . S
C625 O620 1.241 . S
C626 O616 1.244 . S
C626 O621 1.256 . S
C627 O618 1.239 . S
C627 O619 1.256 . S
O628 Mn610 2.221 . S
O628 Mn612 2.290 1_554 S
O628 C622 1.278 . S
O629 Mn612 2.251 . S
O629 C622 1.241 1_556 S
O630 Mn631 2.163 . S
O630 C644 1.244 . S
Mn631 O630 2.163 . S
Mn631 O634 2.160 . S
Mn631 O635 2.221 . S
Mn631 O637 2.163 . S
Mn631 O639 2.160 . S
Mn631 O649 2.221 . S
O632 Mn633 2.087 . S
O632 C644 1.256 . S
Mn633 O632 2.087 . S
Mn633 O640 2.089 . S
Mn633 O649 2.290 . S
Mn633 O650 2.251 . S
O634 Mn631 2.160 . S
O634 C645 1.239 . S
O635 Mn631 2.221 . S
O635 Mn636 2.290 . S
O635 C646 1.278 . S
Mn636 O635 2.290 . S
Mn636 O638 2.089 . S
Mn636 O641 2.251 . S
Mn636 O642 2.087 . S
O637 Mn631 2.163 . S
O637 C647 1.244 . S
O638 Mn636 2.089 . S
O638 C645 1.256 . S
O639 Mn631 2.160 . S
O639 C648 1.239 . S
O640 Mn633 2.089 . S
O640 C648 1.256 . S
O641 Mn636 2.251 . S
O641 C646 1.241 . S
O642 Mn636 2.087 . S
O642 C647 1.256 . S
C643 O649 1.278 . S
C643 O650 1.241 . S
C644 O630 1.244 . S
C644 O632 1.256 . S
C645 O634 1.239 . S
C645 O638 1.256 . S
C646 O635 1.278 . S
C646 O641 1.241 . S
C647 O637 1.244 . S
C647 O642 1.256 . S
C648 O639 1.239 . S
C648 O640 1.256 . S
O649 Mn631 2.221 . S
O649 Mn633 2.290 . S
O649 C643 1.278 . S
O650 Mn633 2.251 . S
O650 C643 1.241 . S
O651 Mn652 2.163 . S
O651 C665 1.244 . S
Mn652 O651 2.163 . S
Mn652 O655 2.160 . S
Mn652 O656 2.221 . S
Mn652 O658 2.163 . S
Mn652 O660 2.160 . S
Mn652 O670 2.221 . S
O653 Mn654 2.087 . S
O653 C665 1.256 . S
Mn654 O653 2.087 . S
Mn654 O661 2.089 . S
Mn654 O670 2.290 . S
Mn654 O671 2.251 . S
O655 Mn652 2.160 . S
O655 C666 1.239 . S
O656 Mn652 2.221 . S
O656 Mn657 2.290 . S
O656 C667 1.278 . S
Mn657 O656 2.290 . S
Mn657 O659 2.089 . S
Mn657 O662 2.251 . S
Mn657 O663 2.087 . S
O658 Mn652 2.163 . S
O658 C668 1.244 . S
O659 Mn657 2.089 . S
O659 C666 1.256 . S
O660 Mn652 2.160 . S
O660 C669 1.239 . S
O661 Mn654 2.089 . S
O661 C669 1.256 . S
O662 Mn657 2.251 . S
O662 C667 1.241 . S
O663 Mn657 2.087 . S
O663 C668 1.256 . S
C664 O670 1.278 . S
C664 O671 1.241 . S
C665 O651 1.244 . S
C665 O653 1.256 . S
C666 O655 1.239 . S
C666 O659 1.256 . S
C667 O656 1.278 . S
C667 O662 1.241 . S
C668 O658 1.244 . S
C668 O663 1.256 . S
C669 O660 1.239 . S
C669 O661 1.256 . S
O670 Mn652 2.221 . S
O670 Mn654 2.290 . S
O670 C664 1.278 . S
O671 Mn654 2.251 . S
O671 C664 1.241 . S
O672 Mn673 2.163 . S
O672 C686 1.244 . S
Mn673 O672 2.163 . S
Mn673 O676 2.160 . S
Mn673 O677 2.221 . S
Mn673 O679 2.163 . S
Mn673 O681 2.160 . S
Mn673 O691 2.221 . S
O674 Mn675 2.087 . S
O674 C686 1.256 . S
Mn675 O674 2.087 . S
Mn675 O682 2.089 . S
Mn675 O691 2.290 . S
Mn675 O692 2.251 . S
O676 Mn673 2.160 . S
O676 C687 1.239 . S
O677 Mn673 2.221 . S
O677 Mn678 2.290 . S
O677 C688 1.278 . S
Mn678 O677 2.290 . S
Mn678 O680 2.089 . S
Mn678 O683 2.251 . S
Mn678 O684 2.087 . S
O679 Mn673 2.163 . S
O679 C689 1.244 . S
O680 Mn678 2.089 . S
O680 C687 1.256 . S
O681 Mn673 2.160 . S
O681 C690 1.239 . S
O682 Mn675 2.089 . S
O682 C690 1.256 . S
O683 Mn678 2.251 . S
O683 C688 1.241 . S
O684 Mn678 2.087 . S
O684 C689 1.256 . S
C685 O691 1.278 . S
C685 O692 1.241 . S
C686 O672 1.244 . S
C686 O674 1.256 . S
C687 O676 1.239 . S
C687 O680 1.256 . S
C688 O677 1.278 . S
C688 O683 1.241 . S
C689 O679 1.244 . S
C689 O684 1.256 . S
C690 O681 1.239 . S
C690 O682 1.256 . S
O691 Mn673 2.221 . S
O691 Mn675 2.290 . S
O691 C685 1.278 . S
O692 Mn675 2.251 . S
O692 C685 1.241 . S
O693 Mn694 2.163 . S
O693 C707 1.244 . S
Mn694 O693 2.163 . S
Mn694 O697 2.160 . S
Mn694 O698 2.221 . S
Mn694 O700 2.163 . S
Mn694 O702 2.160 . S
Mn694 O712 2.221 . S
O695 Mn696 2.087 . S
O695 C707 1.256 . S
Mn696 O695 2.087 . S
Mn696 O703 2.089 . S
Mn696 O712 2.290 . S
Mn696 O713 2.251 . S
O697 Mn694 2.160 . S
O697 C708 1.239 . S
O698 Mn694 2.221 . S
O698 Mn699 2.290 . S
O698 C709 1.278 . S
Mn699 O698 2.290 . S
Mn699 O701 2.089 . S
Mn699 O704 2.251 . S
Mn699 O705 2.087 . S
O700 Mn694 2.163 . S
O700 C710 1.244 . S
O701 Mn699 2.089 . S
O701 C708 1.256 . S
O702 Mn694 2.160 . S
O702 C711 1.239 . S
O703 Mn696 2.089 . S
O703 C711 1.256 . S
O704 Mn699 2.251 . S
O704 C709 1.241 . S
O705 Mn699 2.087 . S
O705 C710 1.256 . S
C706 O712 1.278 . S
C706 O713 1.241 . S
C707 O693 1.244 . S
C707 O695 1.256 . S
C708 O697 1.239 . S
C708 O701 1.256 . S
C709 O698 1.278 . S
C709 O704 1.241 . S
C710 O700 1.244 . S
C710 O705 1.256 . S
C711 O702 1.239 . S
C711 O703 1.256 . S
O712 Mn694 2.221 . S
O712 Mn696 2.290 . S
O712 C706 1.278 . S
O713 Mn696 2.251 . S
O713 C706 1.241 . S
O714 Mn715 2.163 . S
O714 C728 1.244 . S
Mn715 O714 2.163 . S
Mn715 O718 2.160 . S
Mn715 O719 2.221 . S
Mn715 O721 2.163 . S
Mn715 O723 2.160 . S
Mn715 O733 2.221 . S
O716 Mn717 2.087 . S
O716 C728 1.256 . S
Mn717 O716 2.087 . S
Mn717 O724 2.089 . S
Mn717 O733 2.290 . S
Mn717 O734 2.251 . S
O718 Mn715 2.160 . S
O718 C729 1.239 . S
O719 Mn715 2.221 . S
O719 Mn720 2.290 . S
O719 C730 1.278 . S
Mn720 O719 2.290 . S
Mn720 O722 2.089 . S
Mn720 O725 2.251 . S
Mn720 O726 2.087 . S
O721 Mn715 2.163 . S
O721 C731 1.244 . S
O722 Mn720 2.089 . S
O722 C729 1.256 . S
O723 Mn715 2.160 . S
O723 C732 1.239 . S
O724 Mn717 2.089 . S
O724 C732 1.256 . S
O725 Mn720 2.251 . S
O725 C730 1.241 . S
O726 Mn720 2.087 . S
O726 C731 1.256 . S
C727 O733 1.278 . S
C727 O734 1.241 . S
C728 O714 1.244 . S
C728 O716 1.256 . S
C729 O718 1.239 . S
C729 O722 1.256 . S
C730 O719 1.278 . S
C730 O725 1.241 . S
C731 O721 1.244 . S
C731 O726 1.256 . S
C732 O723 1.239 . S
C732 O724 1.256 . S
O733 Mn715 2.221 . S
O733 Mn717 2.290 . S
O733 C727 1.278 . S
O734 Mn717 2.251 . S
O734 C727 1.241 . S
O735 Mn736 2.163 . S
O735 C749 1.244 . S
Mn736 O735 2.163 . S
Mn736 O739 2.160 . S
Mn736 O740 2.221 . S
Mn736 O742 2.163 . S
Mn736 O744 2.160 . S
Mn736 O754 2.221 . S
O737 Mn738 2.087 . S
O737 C749 1.256 . S
Mn738 O737 2.087 . S
Mn738 O745 2.089 . S
Mn738 O754 2.290 . S
Mn738 O755 2.251 . S
O739 Mn736 2.160 . S
O739 C750 1.239 . S
O740 Mn736 2.221 . S
O740 Mn741 2.290 . S
O740 C751 1.278 . S
Mn741 O740 2.290 . S
Mn741 O743 2.089 . S
Mn741 O746 2.251 . S
Mn741 O747 2.087 . S
O742 Mn736 2.163 . S
O742 C752 1.244 . S
O743 Mn741 2.089 . S
O743 C750 1.256 . S
O744 Mn736 2.160 . S
O744 C753 1.239 . S
O745 Mn738 2.089 . S
O745 C753 1.256 . S
O746 Mn741 2.251 . S
O746 C751 1.241 . S
O747 Mn741 2.087 . S
O747 C752 1.256 . S
C748 O754 1.278 . S
C748 O755 1.241 . S
C749 O735 1.244 . S
C749 O737 1.256 . S
C750 O739 1.239 . S
C750 O743 1.256 . S
C751 O740 1.278 . S
C751 O746 1.241 . S
C752 O742 1.244 . S
C752 O747 1.256 . S
C753 O744 1.239 . S
C753 O745 1.256 . S
O754 Mn736 2.221 . S
O754 Mn738 2.290 . S
O754 C748 1.278 . S
O755 Mn738 2.251 . S
O755 C748 1.241 . S
C756 C757 1.369 . S
C756 C758 1.419 . S
C756 H760 0.930 . S
C757 C756 1.369 . S
C757 C766 1.429 1_554 S
C758 C756 1.419 . S
C758 C759 1.363 1_554 S
C758 H761 0.929 . S
C759 C758 1.363 1_556 S
C759 C765 1.428 . S
H760 C756 0.930 . S
H761 C758 0.929 . S
S762 N763 1.613 . S
S762 N764 1.610 . S
N763 S762 1.613 . S
N763 C766 1.350 . S
N764 S762 1.610 . S
N764 C765 1.351 . S
C765 C759 1.428 . S
C765 N764 1.351 . S
C765 C766 1.434 . S
C766 C757 1.429 1_556 S
C766 N763 1.350 . S
C766 C765 1.434 . S
C767 C768 1.369 1_554 S
C767 C769 1.419 . S
C767 H771 0.930 . S
C768 C767 1.369 1_556 S
C768 C777 1.429 . S
C769 C767 1.419 . S
C769 C770 1.363 . S
C769 H772 0.929 . S
C770 C769 1.363 . S
C770 C776 1.428 1_554 S
H771 C767 0.930 . S
H772 C769 0.929 . S
S773 N774 1.613 . S
S773 N775 1.610 . S
N774 S773 1.613 . S
N774 C777 1.350 . S
N775 S773 1.610 . S
N775 C776 1.351 . S
C776 C770 1.428 1_556 S
C776 N775 1.351 . S
C776 C777 1.434 . S
C777 C768 1.429 . S
C777 N774 1.350 . S
C777 C776 1.434 . S
C778 C779 1.369 1_554 S
C778 C780 1.419 . S
C778 H782 0.930 . S
C779 C778 1.369 1_556 S
C779 C788 1.429 . S
C780 C778 1.419 . S
C780 C781 1.363 . S
C780 H783 0.929 . S
C781 C780 1.363 . S
C781 C787 1.428 1_554 S
H782 C778 0.930 . S
H783 C780 0.929 . S
S784 N785 1.613 . S
S784 N786 1.610 . S
N785 S784 1.613 . S
N785 C788 1.350 . S
N786 S784 1.610 . S
N786 C787 1.351 . S
C787 C781 1.428 1_556 S
C787 N786 1.351 . S
C787 C788 1.434 . S
C788 C779 1.429 . S
C788 N785 1.350 . S
C788 C787 1.434 . S
C789 C790 1.369 . S
C789 C791 1.419 . S
C789 H793 0.930 . S
C790 C789 1.369 . S
C790 C799 1.429 . S
C791 C789 1.419 . S
C791 C792 1.363 . S
C791 H794 0.929 . S
C792 C791 1.363 . S
C792 C798 1.428 . S
H793 C789 0.930 . S
H794 C791 0.929 . S
S795 N796 1.613 . S
S795 N797 1.610 . S
N796 S795 1.613 . S
N796 C799 1.350 . S
N797 S795 1.610 . S
N797 C798 1.351 . S
C798 C792 1.428 . S
C798 N797 1.351 . S
C798 C799 1.434 . S
C799 C790 1.429 . S
C799 N796 1.350 . S
C799 C798 1.434 . S
C800 C801 1.369 . S
C800 C802 1.419 . S
C800 H804 0.930 . S
C801 C800 1.369 . S
C801 C810 1.429 . S
C802 C800 1.419 . S
C802 C803 1.363 . S
C802 H805 0.929 . S
C803 C802 1.363 . S
C803 C809 1.428 . S
H804 C800 0.930 . S
H805 C802 0.929 . S
S806 N807 1.613 . S
S806 N808 1.610 . S
N807 S806 1.613 . S
N807 C810 1.350 . S
N808 S806 1.610 . S
N808 C809 1.351 . S
C809 C803 1.428 . S
C809 N808 1.351 . S
C809 C810 1.434 . S
C810 C801 1.429 . S
C810 N807 1.350 . S
C810 C809 1.434 . S
C811 C812 1.369 . S
C811 C813 1.419 . S
C811 H815 0.930 . S
C812 C811 1.369 . S
C812 C821 1.429 . S
C813 C811 1.419 . S
C813 C814 1.363 . S
C813 H816 0.929 . S
C814 C813 1.363 . S
C814 C820 1.428 . S
H815 C811 0.930 . S
H816 C813 0.929 . S
S817 N818 1.613 . S
S817 N819 1.610 . S
N818 S817 1.613 . S
N818 C821 1.350 . S
N819 S817 1.610 . S
N819 C820 1.351 . S
C820 C814 1.428 . S
C820 N819 1.351 . S
C820 C821 1.434 . S
C821 C812 1.429 . S
C821 N818 1.350 . S
C821 C820 1.434 . S
C822 C823 1.369 . S
C822 C824 1.419 . S
C822 H826 0.930 . S
C823 C822 1.369 . S
C823 C832 1.429 1_554 S
C824 C822 1.419 . S
C824 C825 1.363 1_554 S
C824 H827 0.929 . S
C825 C824 1.363 1_556 S
C825 C831 1.428 . S
H826 C822 0.930 . S
H827 C824 0.929 . S
S828 N829 1.613 . S
S828 N830 1.610 . S
N829 S828 1.613 . S
N829 C832 1.350 . S
N830 S828 1.610 . S
N830 C831 1.351 . S
C831 C825 1.428 . S
C831 N830 1.351 . S
C831 C832 1.434 . S
C832 C823 1.429 1_556 S
C832 N829 1.350 . S
C832 C831 1.434 . S
C833 C834 1.369 . S
C833 C835 1.419 . S
C833 H837 0.930 . S
C834 C833 1.369 . S
C834 C843 1.429 . S
C835 C833 1.419 . S
C835 C836 1.363 1_556 S
C835 H838 0.929 . S
C836 C835 1.363 1_554 S
C836 C842 1.428 . S
H837 C833 0.930 . S
H838 C835 0.929 . S
S839 N840 1.613 1_554 S
S839 N841 1.610 . S
N840 S839 1.613 1_556 S
N840 C843 1.350 . S
N841 S839 1.610 . S
N841 C842 1.351 . S
C842 C836 1.428 . S
C842 N841 1.351 . S
C842 C843 1.434 1_554 S
C843 C834 1.429 . S
C843 N840 1.350 . S
C843 C842 1.434 1_556 S
C844 C845 1.369 1_556 S
C844 C846 1.419 . S
C844 H848 0.930 . S
C845 C844 1.369 1_554 S
C845 C854 1.429 . S
C846 C844 1.419 . S
C846 C847 1.363 . S
C846 H849 0.929 . S
C847 C846 1.363 . S
C847 C853 1.428 1_556 S
H848 C844 0.930 . S
H849 C846 0.929 . S
S850 N851 1.613 . S
S850 N852 1.610 . S
N851 S850 1.613 . S
N851 C854 1.350 . S
N852 S850 1.610 . S
N852 C853 1.351 . S
C853 C847 1.428 1_554 S
C853 N852 1.351 . S
C853 C854 1.434 . S
C854 C845 1.429 . S
C854 N851 1.350 . S
C854 C853 1.434 . S
C855 C856 1.369 . S
C855 C857 1.419 . S
C855 H859 0.930 . S
C856 C855 1.369 . S
C856 C865 1.429 . S
C857 C855 1.419 . S
C857 C858 1.363 . S
C857 H860 0.929 . S
C858 C857 1.363 . S
C858 C864 1.428 . S
H859 C855 0.930 . S
H860 C857 0.929 . S
S861 N862 1.613 . S
S861 N863 1.610 . S
N862 S861 1.613 . S
N862 C865 1.350 . S
N863 S861 1.610 . S
N863 C864 1.351 . S
C864 C858 1.428 . S
C864 N863 1.351 . S
C864 C865 1.434 . S
C865 C856 1.429 . S
C865 N862 1.350 . S
C865 C864 1.434 . S
C866 C867 1.369 . S
C866 C868 1.419 . S
C866 H870 0.930 . S
C867 C866 1.369 . S
C867 C876 1.429 . S
C868 C866 1.419 . S
C868 C869 1.363 . S
C868 H871 0.929 . S
C869 C868 1.363 . S
C869 C875 1.428 . S
H870 C866 0.930 . S
H871 C868 0.929 . S
S872 N873 1.613 . S
S872 N874 1.610 . S
N873 S872 1.613 . S
N873 C876 1.350 . S
N874 S872 1.610 . S
N874 C875 1.351 . S
C875 C869 1.428 . S
C875 N874 1.351 . S
C875 C876 1.434 . S
C876 C867 1.429 . S
C876 N873 1.350 . S
C876 C875 1.434 . S
C877 C878 1.369 . S
C877 C879 1.419 . S
C877 H881 0.930 . S
C878 C877 1.369 . S
C878 C887 1.429 . S
C879 C877 1.419 . S
C879 C880 1.363 . S
C879 H882 0.929 . S
C880 C879 1.363 . S
C880 C886 1.428 . S
H881 C877 0.930 . S
H882 C879 0.929 . S
S883 N884 1.613 . S
S883 N885 1.610 . S
N884 S883 1.613 . S
N884 C887 1.350 . S
N885 S883 1.610 . S
N885 C886 1.351 . S
C886 C880 1.428 . S
C886 N885 1.351 . S
C886 C887 1.434 . S
C887 C878 1.429 . S
C887 N884 1.350 . S
C887 C886 1.434 . S
C888 C889 1.369 . S
C888 C890 1.419 . S
C888 H892 0.930 . S
C889 C888 1.369 . S
C889 C898 1.429 . S
C890 C888 1.419 . S
C890 C891 1.363 . S
C890 H893 0.929 . S
C891 C890 1.363 . S
C891 C897 1.428 . S
H892 C888 0.930 . S
H893 C890 0.929 . S
S894 N895 1.613 . S
S894 N896 1.610 . S
N895 S894 1.613 . S
N895 C898 1.350 . S
N896 S894 1.610 . S
N896 C897 1.351 . S
C897 C891 1.428 . S
C897 N896 1.351 . S
C897 C898 1.434 . S
C898 C889 1.429 . S
C898 N895 1.350 . S
C898 C897 1.434 . S
C899 C900 1.369 . S
C899 C901 1.419 . S
C899 H903 0.930 . S
C900 C899 1.369 . S
C900 C909 1.429 . S
C901 C899 1.419 . S
C901 C902 1.363 . S
C901 H904 0.929 . S
C902 C901 1.363 . S
C902 C908 1.428 . S
H903 C899 0.930 . S
H904 C901 0.929 . S
S905 N906 1.613 . S
S905 N907 1.610 . S
N906 S905 1.613 . S
N906 C909 1.350 . S
N907 S905 1.610 . S
N907 C908 1.351 . S
C908 C902 1.428 . S
C908 N907 1.351 . S
C908 C909 1.434 . S
C909 C900 1.429 . S
C909 N906 1.350 . S
C909 C908 1.434 . S
C910 C911 1.369 . S
C910 C912 1.419 . S
C910 H914 0.930 . S
C911 C910 1.369 . S
C911 C920 1.429 . S
C912 C910 1.419 . S
C912 C913 1.363 . S
C912 H915 0.929 . S
C913 C912 1.363 . S
C913 C919 1.428 . S
H914 C910 0.930 . S
H915 C912 0.929 . S
S916 N917 1.613 . S
S916 N918 1.610 . S
N917 S916 1.613 . S
N917 C920 1.350 . S
N918 S916 1.610 . S
N918 C919 1.351 . S
C919 C913 1.428 . S
C919 N918 1.351 . S
C919 C920 1.434 . S
C920 C911 1.429 . S
C920 N917 1.350 . S
C920 C919 1.434 . S
C921 C922 1.369 . S
C921 C923 1.419 . S
C921 H925 0.930 . S
C922 C921 1.369 . S
C922 C931 1.429 . S
C923 C921 1.419 . S
C923 C924 1.363 . S
C923 H926 0.929 . S
C924 C923 1.363 . S
C924 C930 1.428 . S
H925 C921 0.930 . S
H926 C923 0.929 . S
S927 N928 1.613 . S
S927 N929 1.610 . S
N928 S927 1.613 . S
N928 C931 1.350 . S
N929 S927 1.610 . S
N929 C930 1.351 . S
C930 C924 1.428 . S
C930 N929 1.351 . S
C930 C931 1.434 . S
C931 C922 1.429 . S
C931 N928 1.350 . S
C931 C930 1.434 . S
C932 C933 1.369 . S
C932 C934 1.419 . S
C932 H936 0.930 . S
C933 C932 1.369 . S
C933 C942 1.429 . S
C934 C932 1.419 . S
C934 C935 1.363 . S
C934 H937 0.929 . S
C935 C934 1.363 . S
C935 C941 1.428 . S
H936 C932 0.930 . S
H937 C934 0.929 . S
S938 N939 1.613 . S
S938 N940 1.610 . S
N939 S938 1.613 . S
N939 C942 1.350 . S
N940 S938 1.610 . S
N940 C941 1.351 . S
C941 C935 1.428 . S
C941 N940 1.351 . S
C941 C942 1.434 . S
C942 C933 1.429 . S
C942 N939 1.350 . S
C942 C941 1.434 . S
C943 C944 1.369 . S
C943 C945 1.419 . S
C943 H947 0.930 . S
C944 C943 1.369 . S
C944 C953 1.429 . S
C945 C943 1.419 . S
C945 C946 1.363 . S
C945 H948 0.929 . S
C946 C945 1.363 . S
C946 C952 1.428 . S
H947 C943 0.930 . S
H948 C945 0.929 . S
S949 N950 1.613 . S
S949 N951 1.610 . S
N950 S949 1.613 . S
N950 C953 1.350 . S
N951 S949 1.610 . S
N951 C952 1.351 . S
C952 C946 1.428 . S
C952 N951 1.351 . S
C952 C953 1.434 . S
C953 C944 1.429 . S
C953 N950 1.350 . S
C953 C952 1.434 . S
C954 C955 1.369 . S
C954 C956 1.419 . S
C954 H958 0.930 . S
C955 C954 1.369 . S
C955 C964 1.429 . S
C956 C954 1.419 . S
C956 C957 1.363 . S
C956 H959 0.929 . S
C957 C956 1.363 . S
C957 C963 1.428 . S
H958 C954 0.930 . S
H959 C956 0.929 . S
S960 N961 1.613 . S
S960 N962 1.610 . S
N961 S960 1.613 . S
N961 C964 1.350 . S
N962 S960 1.610 . S
N962 C963 1.351 . S
C963 C957 1.428 . S
C963 N962 1.351 . S
C963 C964 1.434 . S
C964 C955 1.429 . S
C964 N961 1.350 . S
C964 C963 1.434 . S
C965 C966 1.369 . S
C965 C967 1.419 . S
C965 H969 0.930 . S
C966 C965 1.369 . S
C966 C975 1.429 . S
C967 C965 1.419 . S
C967 C968 1.363 . S
C967 H970 0.929 . S
C968 C967 1.363 . S
C968 C974 1.428 . S
H969 C965 0.930 . S
H970 C967 0.929 . S
S971 N972 1.613 . S
S971 N973 1.610 . S
N972 S971 1.613 . S
N972 C975 1.350 . S
N973 S971 1.610 . S
N973 C974 1.351 . S
C974 C968 1.428 . S
C974 N973 1.351 . S
C974 C975 1.434 . S
C975 C966 1.429 . S
C975 N972 1.350 . S
C975 C974 1.434 . S
C976 C977 1.369 . S
C976 C978 1.419 . S
C976 H980 0.930 . S
C977 C976 1.369 . S
C977 C986 1.429 . S
C978 C976 1.419 . S
C978 C979 1.363 . S
C978 H981 0.929 . S
C979 C978 1.363 . S
C979 C985 1.428 . S
H980 C976 0.930 . S
H981 C978 0.929 . S
S982 N983 1.613 . S
S982 N984 1.610 . S
N983 S982 1.613 . S
N983 C986 1.350 . S
N984 S982 1.610 . S
N984 C985 1.351 . S
C985 C979 1.428 . S
C985 N984 1.351 . S
C985 C986 1.434 . S
C986 C977 1.429 . S
C986 N983 1.350 . S
C986 C985 1.434 . S
C987 C988 1.369 . S
C987 C989 1.419 . S
C987 H991 0.930 . S
C988 C987 1.369 . S
C988 C997 1.429 . S
C989 C987 1.419 . S
C989 C990 1.363 . S
C989 H992 0.929 . S
C990 C989 1.363 . S
C990 C996 1.428 . S
H991 C987 0.930 . S
H992 C989 0.929 . S
S993 N994 1.613 . S
S993 N995 1.610 . S
N994 S993 1.613 . S
N994 C997 1.350 . S
N995 S993 1.610 . S
N995 C996 1.351 . S
C996 C990 1.428 . S
C996 N995 1.351 . S
C996 C997 1.434 . S
C997 C988 1.429 . S
C997 N994 1.350 . S
C997 C996 1.434 . S
C998 C999 1.369 . S
C998 C1000 1.419 . S
C998 H1002 0.930 . S
C999 C998 1.369 . S
C999 C1008 1.429 . S
C1000 C998 1.419 . S
C1000 C1001 1.363 . S
C1000 H1003 0.929 . S
C1001 C1000 1.363 . S
C1001 C1007 1.428 . S
H1002 C998 0.930 . S
H1003 C1000 0.929 . S
S1004 N1005 1.613 . S
S1004 N1006 1.610 . S
N1005 S1004 1.613 . S
N1005 C1008 1.350 . S
N1006 S1004 1.610 . S
N1006 C1007 1.351 . S
C1007 C1001 1.428 . S
C1007 N1006 1.351 . S
C1007 C1008 1.434 . S
C1008 C999 1.429 . S
C1008 N1005 1.350 . S
C1008 C1007 1.434 . S
C1009 C1010 1.369 . S
C1009 C1011 1.419 . S
C1009 H1013 0.930 . S
C1010 C1009 1.369 . S
C1010 C1019 1.429 . S
C1011 C1009 1.419 . S
C1011 C1012 1.363 . S
C1011 H1014 0.929 . S
C1012 C1011 1.363 . S
C1012 C1018 1.428 . S
H1013 C1009 0.930 . S
H1014 C1011 0.929 . S
S1015 N1016 1.613 . S
S1015 N1017 1.610 . S
N1016 S1015 1.613 . S
N1016 C1019 1.350 . S
N1017 S1015 1.610 . S
N1017 C1018 1.351 . S
C1018 C1012 1.428 . S
C1018 N1017 1.351 . S
C1018 C1019 1.434 . S
C1019 C1010 1.429 . S
C1019 N1016 1.350 . S
C1019 C1018 1.434 . S
C1020 C1021 1.369 . S
C1020 C1022 1.419 . S
C1020 H1024 0.930 . S
C1021 C1020 1.369 . S
C1021 C1030 1.429 . S
C1022 C1020 1.419 . S
C1022 C1023 1.363 . S
C1022 H1025 0.929 . S
C1023 C1022 1.363 . S
C1023 C1029 1.428 . S
H1024 C1020 0.930 . S
H1025 C1022 0.929 . S
S1026 N1027 1.613 . S
S1026 N1028 1.610 . S
N1027 S1026 1.613 . S
N1027 C1030 1.350 . S
N1028 S1026 1.610 . S
N1028 C1029 1.351 . S
C1029 C1023 1.428 . S
C1029 N1028 1.351 . S
C1029 C1030 1.434 . S
C1030 C1021 1.429 . S
C1030 N1027 1.350 . S
C1030 C1029 1.434 . S
C1031 C1032 1.369 . S
C1031 C1033 1.419 . S
C1031 H1035 0.930 . S
C1032 C1031 1.369 . S
C1032 C1041 1.429 . S
C1033 C1031 1.419 . S
C1033 C1034 1.363 . S
C1033 H1036 0.929 . S
C1034 C1033 1.363 . S
C1034 C1040 1.428 . S
H1035 C1031 0.930 . S
H1036 C1033 0.929 . S
S1037 N1038 1.613 . S
S1037 N1039 1.610 . S
N1038 S1037 1.613 . S
N1038 C1041 1.350 . S
N1039 S1037 1.610 . S
N1039 C1040 1.351 . S
C1040 C1034 1.428 . S
C1040 N1039 1.351 . S
C1040 C1041 1.434 . S
C1041 C1032 1.429 . S
C1041 N1038 1.350 . S
C1041 C1040 1.434 . S
C1042 C1043 1.369 . S
C1042 C1044 1.419 . S
C1042 H1046 0.930 . S
C1043 C1042 1.369 . S
C1043 C1052 1.429 . S
C1044 C1042 1.419 . S
C1044 C1045 1.363 . S
C1044 H1047 0.929 . S
C1045 C1044 1.363 . S
C1045 C1051 1.428 . S
H1046 C1042 0.930 . S
H1047 C1044 0.929 . S
S1048 N1049 1.613 . S
S1048 N1050 1.610 . S
N1049 S1048 1.613 . S
N1049 C1052 1.350 . S
N1050 S1048 1.610 . S
N1050 C1051 1.351 . S
C1051 C1045 1.428 . S
C1051 N1050 1.351 . S
C1051 C1052 1.434 . S
C1052 C1043 1.429 . S
C1052 N1049 1.350 . S
C1052 C1051 1.434 . S
C1053 C1054 1.369 . S
C1053 C1055 1.419 . S
C1053 H1057 0.930 . S
C1054 C1053 1.369 . S
C1054 C1063 1.429 . S
C1055 C1053 1.419 . S
C1055 C1056 1.363 . S
C1055 H1058 0.929 . S
C1056 C1055 1.363 . S
C1056 C1062 1.428 . S
H1057 C1053 0.930 . S
H1058 C1055 0.929 . S
S1059 N1060 1.613 . S
S1059 N1061 1.610 . S
N1060 S1059 1.613 . S
N1060 C1063 1.350 . S
N1061 S1059 1.610 . S
N1061 C1062 1.351 . S
C1062 C1056 1.428 . S
C1062 N1061 1.351 . S
C1062 C1063 1.434 . S
C1063 C1054 1.429 . S
C1063 N1060 1.350 . S
C1063 C1062 1.434 . S
C1064 C1065 1.369 . S
C1064 C1066 1.419 . S
C1064 H1068 0.930 . S
C1065 C1064 1.369 . S
C1065 C1074 1.429 . S
C1066 C1064 1.419 . S
C1066 C1067 1.363 . S
C1066 H1069 0.929 . S
C1067 C1066 1.363 . S
C1067 C1073 1.428 . S
H1068 C1064 0.930 . S
H1069 C1066 0.929 . S
S1070 N1071 1.613 . S
S1070 N1072 1.610 . S
N1071 S1070 1.613 . S
N1071 C1074 1.350 . S
N1072 S1070 1.610 . S
N1072 C1073 1.351 . S
C1073 C1067 1.428 . S
C1073 N1072 1.351 . S
C1073 C1074 1.434 . S
C1074 C1065 1.429 . S
C1074 N1071 1.350 . S
C1074 C1073 1.434 . S
C1075 C1076 1.369 . S
C1075 C1077 1.419 . S
C1075 H1079 0.930 . S
C1076 C1075 1.369 . S
C1076 C1085 1.429 . S
C1077 C1075 1.419 . S
C1077 C1078 1.363 . S
C1077 H1080 0.929 . S
C1078 C1077 1.363 . S
C1078 C1084 1.428 . S
H1079 C1075 0.930 . S
H1080 C1077 0.929 . S
S1081 N1082 1.613 . S
S1081 N1083 1.610 . S
N1082 S1081 1.613 . S
N1082 C1085 1.350 . S
N1083 S1081 1.610 . S
N1083 C1084 1.351 . S
C1084 C1078 1.428 . S
C1084 N1083 1.351 . S
C1084 C1085 1.434 . S
C1085 C1076 1.429 . S
C1085 N1082 1.350 . S
C1085 C1084 1.434 . S
C1086 C1087 1.369 . S
C1086 C1088 1.419 . S
C1086 H1090 0.930 . S
C1087 C1086 1.369 . S
C1087 C1096 1.429 . S
C1088 C1086 1.419 . S
C1088 C1089 1.363 . S
C1088 H1091 0.929 . S
C1089 C1088 1.363 . S
C1089 C1095 1.428 . S
H1090 C1086 0.930 . S
H1091 C1088 0.929 . S
S1092 N1093 1.613 . S
S1092 N1094 1.610 . S
N1093 S1092 1.613 . S
N1093 C1096 1.350 . S
N1094 S1092 1.610 . S
N1094 C1095 1.351 . S
C1095 C1089 1.428 . S
C1095 N1094 1.351 . S
C1095 C1096 1.434 . S
C1096 C1087 1.429 . S
C1096 N1093 1.350 . S
C1096 C1095 1.434 . S
C1097 C1098 1.369 . S
C1097 C1099 1.419 . S
C1097 H1101 0.930 . S
C1098 C1097 1.369 . S
C1098 C1107 1.429 . S
C1099 C1097 1.419 . S
C1099 C1100 1.363 . S
C1099 H1102 0.929 . S
C1100 C1099 1.363 . S
C1100 C1106 1.428 . S
H1101 C1097 0.930 . S
H1102 C1099 0.929 . S
S1103 N1104 1.613 . S
S1103 N1105 1.610 . S
N1104 S1103 1.613 . S
N1104 C1107 1.350 . S
N1105 S1103 1.610 . S
N1105 C1106 1.351 . S
C1106 C1100 1.428 . S
C1106 N1105 1.351 . S
C1106 C1107 1.434 . S
C1107 C1098 1.429 . S
C1107 N1104 1.350 . S
C1107 C1106 1.434 . S
C1108 C1109 1.369 . S
C1108 C1110 1.419 . S
C1108 H1112 0.930 . S
C1109 C1108 1.369 . S
C1109 C1118 1.429 . S
C1110 C1108 1.419 . S
C1110 C1111 1.363 . S
C1110 H1113 0.929 . S
C1111 C1110 1.363 . S
C1111 C1117 1.428 . S
H1112 C1108 0.930 . S
H1113 C1110 0.929 . S
S1114 N1115 1.613 . S
S1114 N1116 1.610 . S
N1115 S1114 1.613 . S
N1115 C1118 1.350 . S
N1116 S1114 1.610 . S
N1116 C1117 1.351 . S
C1117 C1111 1.428 . S
C1117 N1116 1.351 . S
C1117 C1118 1.434 . S
C1118 C1109 1.429 . S
C1118 N1115 1.350 . S
C1118 C1117 1.434 . S
C1119 C1120 1.369 . S
C1119 C1121 1.419 . S
C1119 H1123 0.930 . S
C1120 C1119 1.369 . S
C1120 C1129 1.429 . S
C1121 C1119 1.419 . S
C1121 C1122 1.363 . S
C1121 H1124 0.929 . S
C1122 C1121 1.363 . S
C1122 C1128 1.428 . S
H1123 C1119 0.930 . S
H1124 C1121 0.929 . S
S1125 N1126 1.613 . S
S1125 N1127 1.610 . S
N1126 S1125 1.613 . S
N1126 C1129 1.350 . S
N1127 S1125 1.610 . S
N1127 C1128 1.351 . S
C1128 C1122 1.428 . S
C1128 N1127 1.351 . S
C1128 C1129 1.434 . S
C1129 C1120 1.429 . S
C1129 N1126 1.350 . S
C1129 C1128 1.434 . S
C1130 C1131 1.369 . S
C1130 C1132 1.419 . S
C1130 H1134 0.930 . S
C1131 C1130 1.369 . S
C1131 C1140 1.429 . S
C1132 C1130 1.419 . S
C1132 C1133 1.363 . S
C1132 H1135 0.929 . S
C1133 C1132 1.363 . S
C1133 C1139 1.428 . S
H1134 C1130 0.930 . S
H1135 C1132 0.929 . S
S1136 N1137 1.613 . S
S1136 N1138 1.610 . S
N1137 S1136 1.613 . S
N1137 C1140 1.350 . S
N1138 S1136 1.610 . S
N1138 C1139 1.351 . S
C1139 C1133 1.428 . S
C1139 N1138 1.351 . S
C1139 C1140 1.434 . S
C1140 C1131 1.429 . S
C1140 N1137 1.350 . S
C1140 C1139 1.434 . S
C1141 C1142 1.369 . S
C1141 C1143 1.419 . S
C1141 H1145 0.930 . S
C1142 C1141 1.369 . S
C1142 C1151 1.429 . S
C1143 C1141 1.419 . S
C1143 C1144 1.363 . S
C1143 H1146 0.929 . S
C1144 C1143 1.363 . S
C1144 C1150 1.428 . S
H1145 C1141 0.930 . S
H1146 C1143 0.929 . S
S1147 N1148 1.613 . S
S1147 N1149 1.610 . S
N1148 S1147 1.613 . S
N1148 C1151 1.350 . S
N1149 S1147 1.610 . S
N1149 C1150 1.351 . S
C1150 C1144 1.428 . S
C1150 N1149 1.351 . S
C1150 C1151 1.434 . S
C1151 C1142 1.429 . S
C1151 N1148 1.350 . S
C1151 C1150 1.434 . S
C1152 C1153 1.369 . S
C1152 C1154 1.419 . S
C1152 H1156 0.930 . S
C1153 C1152 1.369 . S
C1153 C1162 1.429 . S
C1154 C1152 1.419 . S
C1154 C1155 1.363 . S
C1154 H1157 0.929 . S
C1155 C1154 1.363 . S
C1155 C1161 1.428 . S
H1156 C1152 0.930 . S
H1157 C1154 0.929 . S
S1158 N1159 1.613 . S
S1158 N1160 1.610 . S
N1159 S1158 1.613 . S
N1159 C1162 1.350 . S
N1160 S1158 1.610 . S
N1160 C1161 1.351 . S
C1161 C1155 1.428 . S
C1161 N1160 1.351 . S
C1161 C1162 1.434 . S
C1162 C1153 1.429 . S
C1162 N1159 1.350 . S
C1162 C1161 1.434 . S
C1163 C1164 1.369 . S
C1163 C1165 1.419 . S
C1163 H1167 0.930 . S
C1164 C1163 1.369 . S
C1164 C1173 1.429 . S
C1165 C1163 1.419 . S
C1165 C1166 1.363 . S
C1165 H1168 0.929 . S
C1166 C1165 1.363 . S
C1166 C1172 1.428 . S
H1167 C1163 0.930 . S
H1168 C1165 0.929 . S
S1169 N1170 1.613 . S
S1169 N1171 1.610 . S
N1170 S1169 1.613 . S
N1170 C1173 1.350 . S
N1171 S1169 1.610 . S
N1171 C1172 1.351 . S
C1172 C1166 1.428 . S
C1172 N1171 1.351 . S
C1172 C1173 1.434 . S
C1173 C1164 1.429 . S
C1173 N1170 1.350 . S
C1173 C1172 1.434 . S
C1174 C1175 1.369 . S
C1174 C1176 1.419 . S
C1174 H1178 0.930 . S
C1175 C1174 1.369 . S
C1175 C1184 1.429 . S
C1176 C1174 1.419 . S
C1176 C1177 1.363 . S
C1176 H1179 0.929 . S
C1177 C1176 1.363 . S
C1177 C1183 1.428 . S
H1178 C1174 0.930 . S
H1179 C1176 0.929 . S
S1180 N1181 1.613 . S
S1180 N1182 1.610 . S
N1181 S1180 1.613 . S
N1181 C1184 1.350 . S
N1182 S1180 1.610 . S
N1182 C1183 1.351 . S
C1183 C1177 1.428 . S
C1183 N1182 1.351 . S
C1183 C1184 1.434 . S
C1184 C1175 1.429 . S
C1184 N1181 1.350 . S
C1184 C1183 1.434 . S
C1185 C1186 1.369 . S
C1185 C1187 1.419 . S
C1185 H1189 0.930 . S
C1186 C1185 1.369 . S
C1186 C1195 1.429 . S
C1187 C1185 1.419 . S
C1187 C1188 1.363 . S
C1187 H1190 0.929 . S
C1188 C1187 1.363 . S
C1188 C1194 1.428 . S
H1189 C1185 0.930 . S
H1190 C1187 0.929 . S
S1191 N1192 1.613 . S
S1191 N1193 1.610 . S
N1192 S1191 1.613 . S
N1192 C1195 1.350 . S
N1193 S1191 1.610 . S
N1193 C1194 1.351 . S
C1194 C1188 1.428 . S
C1194 N1193 1.351 . S
C1194 C1195 1.434 . S
C1195 C1186 1.429 . S
C1195 N1192 1.350 . S
C1195 C1194 1.434 . S
C1196 C1197 1.369 . S
C1196 C1198 1.419 . S
C1196 H1200 0.930 . S
C1197 C1196 1.369 . S
C1197 C1206 1.429 . S
C1198 C1196 1.419 . S
C1198 C1199 1.363 . S
C1198 H1201 0.929 . S
C1199 C1198 1.363 . S
C1199 C1205 1.428 . S
H1200 C1196 0.930 . S
H1201 C1198 0.929 . S
S1202 N1203 1.613 . S
S1202 N1204 1.610 . S
N1203 S1202 1.613 . S
N1203 C1206 1.350 . S
N1204 S1202 1.610 . S
N1204 C1205 1.351 . S
C1205 C1199 1.428 . S
C1205 N1204 1.351 . S
C1205 C1206 1.434 . S
C1206 C1197 1.429 . S
C1206 N1203 1.350 . S
C1206 C1205 1.434 . S
C1207 C1208 1.369 . S
C1207 C1209 1.419 . S
C1207 H1211 0.930 . S
C1208 C1207 1.369 . S
C1208 C1217 1.429 . S
C1209 C1207 1.419 . S
C1209 C1210 1.363 . S
C1209 H1212 0.929 . S
C1210 C1209 1.363 . S
C1210 C1216 1.428 . S
H1211 C1207 0.930 . S
H1212 C1209 0.929 . S
S1213 N1214 1.613 . S
S1213 N1215 1.610 . S
N1214 S1213 1.613 . S
N1214 C1217 1.350 . S
N1215 S1213 1.610 . S
N1215 C1216 1.351 . S
C1216 C1210 1.428 . S
C1216 N1215 1.351 . S
C1216 C1217 1.434 . S
C1217 C1208 1.429 . S
C1217 N1214 1.350 . S
C1217 C1216 1.434 . S
C1218 C1219 1.369 . S
C1218 C1220 1.419 . S
C1218 H1222 0.930 . S
C1219 C1218 1.369 . S
C1219 C1228 1.429 . S
C1220 C1218 1.419 . S
C1220 C1221 1.363 . S
C1220 H1223 0.929 . S
C1221 C1220 1.363 . S
C1221 C1227 1.428 . S
H1222 C1218 0.930 . S
H1223 C1220 0.929 . S
S1224 N1225 1.613 . S
S1224 N1226 1.610 . S
N1225 S1224 1.613 . S
N1225 C1228 1.350 . S
N1226 S1224 1.610 . S
N1226 C1227 1.351 . S
C1227 C1221 1.428 . S
C1227 N1226 1.351 . S
C1227 C1228 1.434 . S
C1228 C1219 1.429 . S
C1228 N1225 1.350 . S
C1228 C1227 1.434 . S
C1229 C1230 1.369 . S
C1229 C1231 1.419 . S
C1229 H1233 0.930 . S
C1230 C1229 1.369 . S
C1230 C1239 1.429 . S
C1231 C1229 1.419 . S
C1231 C1232 1.363 . S
C1231 H1234 0.929 . S
C1232 C1231 1.363 . S
C1232 C1238 1.428 . S
H1233 C1229 0.930 . S
H1234 C1231 0.929 . S
S1235 N1236 1.613 . S
S1235 N1237 1.610 . S
N1236 S1235 1.613 . S
N1236 C1239 1.350 . S
N1237 S1235 1.610 . S
N1237 C1238 1.351 . S
C1238 C1232 1.428 . S
C1238 N1237 1.351 . S
C1238 C1239 1.434 . S
C1239 C1230 1.429 . S
C1239 N1236 1.350 . S
C1239 C1238 1.434 . S
C1240 C1241 1.369 . S
C1240 C1242 1.419 . S
C1240 H1244 0.930 . S
C1241 C1240 1.369 . S
C1241 C1250 1.429 . S
C1242 C1240 1.419 . S
C1242 C1243 1.363 . S
C1242 H1245 0.929 . S
C1243 C1242 1.363 . S
C1243 C1249 1.428 . S
H1244 C1240 0.930 . S
H1245 C1242 0.929 . S
S1246 N1247 1.613 . S
S1246 N1248 1.610 . S
N1247 S1246 1.613 . S
N1247 C1250 1.350 . S
N1248 S1246 1.610 . S
N1248 C1249 1.351 . S
C1249 C1243 1.428 . S
C1249 N1248 1.351 . S
C1249 C1250 1.434 . S
C1250 C1241 1.429 . S
C1250 N1247 1.350 . S
C1250 C1249 1.434 . S
C1251 C1252 1.369 . S
C1251 C1253 1.419 . S
C1251 H1255 0.930 . S
C1252 C1251 1.369 . S
C1252 C1261 1.429 . S
C1253 C1251 1.419 . S
C1253 C1254 1.363 . S
C1253 H1256 0.929 . S
C1254 C1253 1.363 . S
C1254 C1260 1.428 . S
H1255 C1251 0.930 . S
H1256 C1253 0.929 . S
S1257 N1258 1.613 . S
S1257 N1259 1.610 . S
N1258 S1257 1.613 . S
N1258 C1261 1.350 . S
N1259 S1257 1.610 . S
N1259 C1260 1.351 . S
C1260 C1254 1.428 . S
C1260 N1259 1.351 . S
C1260 C1261 1.434 . S
C1261 C1252 1.429 . S
C1261 N1258 1.350 . S
C1261 C1260 1.434 . S
C1262 C1263 1.369 . S
C1262 C1264 1.419 . S
C1262 H1266 0.930 . S
C1263 C1262 1.369 . S
C1263 C1272 1.429 . S
C1264 C1262 1.419 . S
C1264 C1265 1.363 . S
C1264 H1267 0.929 . S
C1265 C1264 1.363 . S
C1265 C1271 1.428 . S
H1266 C1262 0.930 . S
H1267 C1264 0.929 . S
S1268 N1269 1.613 . S
S1268 N1270 1.610 . S
N1269 S1268 1.613 . S
N1269 C1272 1.350 . S
N1270 S1268 1.610 . S
N1270 C1271 1.351 . S
C1271 C1265 1.428 . S
C1271 N1270 1.351 . S
C1271 C1272 1.434 . S
C1272 C1263 1.429 . S
C1272 N1269 1.350 . S
C1272 C1271 1.434 . S
C1273 C1274 1.369 . S
C1273 C1275 1.419 . S
C1273 H1277 0.930 . S
C1274 C1273 1.369 . S
C1274 C1283 1.429 . S
C1275 C1273 1.419 . S
C1275 C1276 1.363 . S
C1275 H1278 0.929 . S
C1276 C1275 1.363 . S
C1276 C1282 1.428 . S
H1277 C1273 0.930 . S
H1278 C1275 0.929 . S
S1279 N1280 1.613 . S
S1279 N1281 1.610 . S
N1280 S1279 1.613 . S
N1280 C1283 1.350 . S
N1281 S1279 1.610 . S
N1281 C1282 1.351 . S
C1282 C1276 1.428 . S
C1282 N1281 1.351 . S
C1282 C1283 1.434 . S
C1283 C1274 1.429 . S
C1283 N1280 1.350 . S
C1283 C1282 1.434 . S
C1284 C1285 1.369 . S
C1284 C1286 1.419 1_655 S
C1284 H1288 0.930 . S
C1285 C1284 1.369 . S
C1285 C1294 1.429 . S
C1286 C1284 1.419 1_455 S
C1286 C1287 1.363 . S
C1286 H1289 0.929 . S
C1287 C1286 1.363 . S
C1287 C1293 1.428 . S
H1288 C1284 0.930 . S
H1289 C1286 0.929 . S
S1290 N1291 1.613 1_455 S
S1290 N1292 1.610 . S
N1291 S1290 1.613 1_655 S
N1291 C1294 1.350 . S
N1292 S1290 1.610 . S
N1292 C1293 1.351 . S
C1293 C1287 1.428 . S
C1293 N1292 1.351 . S
C1293 C1294 1.434 1_455 S
C1294 C1285 1.429 . S
C1294 N1291 1.350 . S
C1294 C1293 1.434 1_655 S
C1295 C1296 1.369 . S
C1295 C1297 1.419 . S
C1295 H1299 0.930 . S
C1296 C1295 1.369 . S
C1296 C1305 1.429 . S
C1297 C1295 1.419 . S
C1297 C1298 1.363 . S
C1297 H1300 0.929 . S
C1298 C1297 1.363 . S
C1298 C1304 1.428 . S
H1299 C1295 0.930 . S
H1300 C1297 0.929 . S
S1301 N1302 1.613 . S
S1301 N1303 1.610 . S
N1302 S1301 1.613 . S
N1302 C1305 1.350 . S
N1303 S1301 1.610 . S
N1303 C1304 1.351 . S
C1304 C1298 1.428 . S
C1304 N1303 1.351 . S
C1304 C1305 1.434 . S
C1305 C1296 1.429 . S
C1305 N1302 1.350 . S
C1305 C1304 1.434 . S
C1306 C1307 1.369 . S
C1306 C1308 1.419 . S
C1306 H1310 0.930 . S
C1307 C1306 1.369 . S
C1307 C1316 1.429 1_545 S
C1308 C1306 1.419 . S
C1308 C1309 1.363 1_545 S
C1308 H1311 0.929 . S
C1309 C1308 1.363 1_565 S
C1309 C1315 1.428 . S
H1310 C1306 0.930 . S
H1311 C1308 0.929 . S
S1312 N1313 1.613 . S
S1312 N1314 1.610 . S
N1313 S1312 1.613 . S
N1313 C1316 1.350 . S
N1314 S1312 1.610 . S
N1314 C1315 1.351 . S
C1315 C1309 1.428 . S
C1315 N1314 1.351 . S
C1315 C1316 1.434 . S
C1316 C1307 1.429 1_565 S
C1316 N1313 1.350 . S
C1316 C1315 1.434 . S
C1317 C1318 1.369 . S
C1317 C1319 1.419 1_565 S
C1317 H1321 0.930 . S
C1318 C1317 1.369 . S
C1318 C1327 1.429 1_554 S
C1319 C1317 1.419 1_545 S
C1319 C1320 1.363 1_554 S
C1319 H1322 0.929 . S
C1320 C1319 1.363 1_556 S
C1320 C1326 1.428 . S
H1321 C1317 0.930 . S
H1322 C1319 0.929 . S
S1323 N1324 1.613 1_545 S
S1323 N1325 1.610 . S
N1324 S1323 1.613 1_565 S
N1324 C1327 1.350 . S
N1325 S1323 1.610 . S
N1325 C1326 1.351 . S
C1326 C1320 1.428 . S
C1326 N1325 1.351 . S
C1326 C1327 1.434 1_545 S
C1327 C1318 1.429 1_556 S
C1327 N1324 1.350 . S
C1327 C1326 1.434 1_565 S
C1328 C1329 1.369 . S
C1328 C1330 1.419 1_655 S
C1328 H1332 0.930 . S
C1329 C1328 1.369 . S
C1329 C1338 1.429 1_556 S
C1330 C1328 1.419 1_455 S
C1330 C1331 1.363 1_556 S
C1330 H1333 0.929 . S
C1331 C1330 1.363 1_554 S
C1331 C1337 1.428 . S
H1332 C1328 0.930 . S
H1333 C1330 0.929 . S
S1334 N1335 1.613 1_455 S
S1334 N1336 1.610 . S
N1335 S1334 1.613 1_655 S
N1335 C1338 1.350 . S
N1336 S1334 1.610 . S
N1336 C1337 1.351 . S
C1337 C1331 1.428 . S
C1337 N1336 1.351 . S
C1337 C1338 1.434 1_455 S
C1338 C1329 1.429 1_554 S
C1338 N1335 1.350 . S
C1338 C1337 1.434 1_655 S
C1339 C1340 1.369 . S
C1339 C1341 1.419 1_554 S
C1339 H1343 0.930 . S
C1340 C1339 1.369 . S
C1340 C1349 1.429 . S
C1341 C1339 1.419 1_556 S
C1341 C1342 1.363 . S
C1341 H1344 0.929 . S
C1342 C1341 1.363 . S
C1342 C1348 1.428 . S
H1343 C1339 0.930 . S
H1344 C1341 0.929 . S
S1345 N1346 1.613 . S
S1345 N1347 1.610 1_554 S
N1346 S1345 1.613 . S
N1346 C1349 1.350 . S
N1347 S1345 1.610 1_556 S
N1347 C1348 1.351 . S
C1348 C1342 1.428 . S
C1348 N1347 1.351 . S
C1348 C1349 1.434 1_556 S
C1349 C1340 1.429 . S
C1349 N1346 1.350 . S
C1349 C1348 1.434 1_554 S
C1350 C1351 1.369 . S
C1350 C1352 1.419 . S
C1350 H1354 0.930 . S
C1351 C1350 1.369 . S
C1351 C1360 1.429 . S
C1352 C1350 1.419 . S
C1352 C1353 1.363 . S
C1352 H1355 0.929 . S
C1353 C1352 1.363 . S
C1353 C1359 1.428 . S
H1354 C1350 0.930 . S
H1355 C1352 0.929 . S
S1356 N1357 1.613 1_554 S
S1356 N1358 1.595 1_554 S
N1357 S1356 1.613 1_556 S
N1357 C1360 1.350 . S
N1358 S1356 1.595 1_556 S
N1358 C1359 1.351 . S
C1359 C1353 1.428 . S
C1359 N1358 1.351 . S
C1359 C1360 1.434 . S
C1360 C1351 1.429 . S
C1360 N1357 1.350 . S
C1360 C1359 1.434 . S
C1361 C1362 1.369 . S
C1361 C1363 1.419 . S
C1361 H1365 0.930 . S
C1362 C1361 1.369 . S
C1362 C1371 1.429 . S
C1363 C1361 1.419 . S
C1363 C1364 1.363 . S
C1363 H1366 0.929 . S
C1364 C1363 1.363 . S
C1364 C1370 1.428 . S
H1365 C1361 0.930 . S
H1366 C1363 0.929 . S
S1367 N1368 1.613 . S
S1367 N1369 1.610 . S
N1368 S1367 1.613 . S
N1368 C1371 1.350 . S
N1369 S1367 1.610 . S
N1369 C1370 1.351 . S
C1370 C1364 1.428 . S
C1370 N1369 1.351 . S
C1370 C1371 1.434 . S
C1371 C1362 1.429 . S
C1371 N1368 1.350 . S
C1371 C1370 1.434 . S
C1372 C1373 1.369 . S
C1372 C1374 1.419 . S
C1372 H1376 0.930 . S
C1373 C1372 1.369 . S
C1373 C1382 1.429 . S
C1374 C1372 1.419 . S
C1374 C1375 1.363 . S
C1374 H1377 0.929 . S
C1375 C1374 1.363 . S
C1375 C1381 1.428 . S
H1376 C1372 0.930 . S
H1377 C1374 0.929 . S
S1378 N1379 1.613 . S
S1378 N1380 1.610 . S
N1379 S1378 1.613 . S
N1379 C1382 1.350 . S
N1380 S1378 1.610 . S
N1380 C1381 1.351 . S
C1381 C1375 1.428 . S
C1381 N1380 1.351 . S
C1381 C1382 1.434 . S
C1382 C1373 1.429 . S
C1382 N1379 1.350 . S
C1382 C1381 1.434 . S
C1383 C1384 1.369 . S
C1383 C1385 1.419 . S
C1383 H1387 0.930 . S
C1384 C1383 1.369 . S
C1384 C1393 1.429 . S
C1385 C1383 1.419 . S
C1385 C1386 1.363 . S
C1385 H1388 0.929 . S
C1386 C1385 1.363 . S
C1386 C1392 1.428 . S
H1387 C1383 0.930 . S
H1388 C1385 0.929 . S
S1389 N1390 1.613 . S
S1389 N1391 1.610 . S
N1390 S1389 1.613 . S
N1390 C1393 1.350 . S
N1391 S1389 1.610 . S
N1391 C1392 1.351 . S
C1392 C1386 1.428 . S
C1392 N1391 1.351 . S
C1392 C1393 1.434 . S
C1393 C1384 1.429 . S
C1393 N1390 1.350 . S
C1393 C1392 1.434 . S
C1394 C1395 1.369 . S
C1394 C1396 1.419 . S
C1394 H1398 0.930 . S
C1395 C1394 1.369 . S
C1395 C1404 1.429 . S
C1396 C1394 1.419 . S
C1396 C1397 1.363 . S
C1396 H1399 0.929 . S
C1397 C1396 1.363 . S
C1397 C1403 1.428 . S
H1398 C1394 0.930 . S
H1399 C1396 0.929 . S
S1400 N1401 1.613 . S
S1400 N1402 1.610 . S
N1401 S1400 1.613 . S
N1401 C1404 1.350 . S
N1402 S1400 1.610 . S
N1402 C1403 1.351 . S
C1403 C1397 1.428 . S
C1403 N1402 1.351 . S
C1403 C1404 1.434 . S
C1404 C1395 1.429 . S
C1404 N1401 1.350 . S
C1404 C1403 1.434 . S
C1405 C1406 1.369 . S
C1405 C1407 1.419 . S
C1405 H1409 0.930 . S
C1406 C1405 1.369 . S
C1406 C1415 1.429 . S
C1407 C1405 1.419 . S
C1407 C1408 1.363 . S
C1407 H1410 0.929 . S
C1408 C1407 1.363 . S
C1408 C1414 1.428 . S
H1409 C1405 0.930 . S
H1410 C1407 0.929 . S
S1411 N1412 1.613 . S
S1411 N1413 1.610 . S
N1412 S1411 1.613 . S
N1412 C1415 1.350 . S
N1413 S1411 1.610 . S
N1413 C1414 1.351 . S
C1414 C1408 1.428 . S
C1414 N1413 1.351 . S
C1414 C1415 1.434 . S
C1415 C1406 1.429 . S
C1415 N1412 1.350 . S
C1415 C1414 1.434 . S
C1416 C1417 1.369 . S
C1416 C1418 1.419 . S
C1416 H1420 0.930 . S
C1417 C1416 1.369 . S
C1417 C1426 1.429 . S
C1418 C1416 1.419 . S
C1418 C1419 1.363 . S
C1418 H1421 0.929 . S
C1419 C1418 1.363 . S
C1419 C1425 1.428 . S
H1420 C1416 0.930 . S
H1421 C1418 0.929 . S
S1422 N1423 1.613 . S
S1422 N1424 1.610 . S
N1423 S1422 1.613 . S
N1423 C1426 1.350 . S
N1424 S1422 1.610 . S
N1424 C1425 1.351 . S
C1425 C1419 1.428 . S
C1425 N1424 1.351 . S
C1425 C1426 1.434 . S
C1426 C1417 1.429 . S
C1426 N1423 1.350 . S
C1426 C1425 1.434 . S
C1427 C1428 1.369 . S
C1427 C1429 1.419 . S
C1427 H1431 0.930 . S
C1428 C1427 1.369 . S
C1428 C1437 1.429 . S
C1429 C1427 1.419 . S
C1429 C1430 1.363 . S
C1429 H1432 0.929 . S
C1430 C1429 1.363 . S
C1430 C1436 1.428 . S
H1431 C1427 0.930 . S
H1432 C1429 0.929 . S
S1433 N1434 1.613 . S
S1433 N1435 1.610 . S
N1434 S1433 1.613 . S
N1434 C1437 1.350 . S
N1435 S1433 1.610 . S
N1435 C1436 1.351 . S
C1436 C1430 1.428 . S
C1436 N1435 1.351 . S
C1436 C1437 1.434 . S
C1437 C1428 1.429 . S
C1437 N1434 1.350 . S
C1437 C1436 1.434 . S
C1438 C1439 1.369 . S
C1438 C1440 1.419 . S
C1438 H1442 0.930 . S
C1439 C1438 1.369 . S
C1439 C1448 1.429 . S
C1440 C1438 1.419 . S
C1440 C1441 1.363 . S
C1440 H1443 0.929 . S
C1441 C1440 1.363 . S
C1441 C1447 1.428 . S
H1442 C1438 0.930 . S
H1443 C1440 0.929 . S
S1444 N1445 1.613 . S
S1444 N1446 1.610 . S
N1445 S1444 1.613 . S
N1445 C1448 1.350 . S
N1446 S1444 1.610 . S
N1446 C1447 1.351 . S
C1447 C1441 1.428 . S
C1447 N1446 1.351 . S
C1447 C1448 1.434 . S
C1448 C1439 1.429 . S
C1448 N1445 1.350 . S
C1448 C1447 1.434 . S
C1449 C1450 1.369 . S
C1449 C1451 1.419 . S
C1449 H1453 0.930 . S
C1450 C1449 1.369 . S
C1450 C1459 1.429 . S
C1451 C1449 1.419 . S
C1451 C1452 1.363 . S
C1451 H1454 0.929 . S
C1452 C1451 1.363 . S
C1452 C1458 1.428 . S
H1453 C1449 0.930 . S
H1454 C1451 0.929 . S
S1455 N1456 1.613 . S
S1455 N1457 1.610 . S
N1456 S1455 1.613 . S
N1456 C1459 1.350 . S
N1457 S1455 1.610 . S
N1457 C1458 1.351 . S
C1458 C1452 1.428 . S
C1458 N1457 1.351 . S
C1458 C1459 1.434 . S
C1459 C1450 1.429 . S
C1459 N1456 1.350 . S
C1459 C1458 1.434 . S
C1460 C1461 1.369 . S
C1460 C1462 1.419 . S
C1460 H1464 0.930 . S
C1461 C1460 1.369 . S
C1461 C1470 1.429 . S
C1462 C1460 1.419 . S
C1462 C1463 1.363 . S
C1462 H1465 0.929 . S
C1463 C1462 1.363 . S
C1463 C1469 1.428 . S
H1464 C1460 0.930 . S
H1465 C1462 0.929 . S
S1466 N1467 1.613 . S
S1466 N1468 1.610 . S
N1467 S1466 1.613 . S
N1467 C1470 1.350 . S
N1468 S1466 1.610 . S
N1468 C1469 1.351 . S
C1469 C1463 1.428 . S
C1469 N1468 1.351 . S
C1469 C1470 1.434 . S
C1470 C1461 1.429 . S
C1470 N1467 1.350 . S
C1470 C1469 1.434 . S
C1471 C1472 1.369 . S
C1471 C1473 1.419 . S
C1471 H1475 0.930 . S
C1472 C1471 1.369 . S
C1472 C1481 1.429 . S
C1473 C1471 1.419 . S
C1473 C1474 1.363 . S
C1473 H1476 0.929 . S
C1474 C1473 1.363 . S
C1474 C1480 1.428 . S
H1475 C1471 0.930 . S
H1476 C1473 0.929 . S
S1477 N1478 1.613 . S
S1477 N1479 1.610 . S
N1478 S1477 1.613 . S
N1478 C1481 1.350 . S
N1479 S1477 1.610 . S
N1479 C1480 1.351 . S
C1480 C1474 1.428 . S
C1480 N1479 1.351 . S
C1480 C1481 1.434 . S
C1481 C1472 1.429 . S
C1481 N1478 1.350 . S
C1481 C1480 1.434 . S
C1482 C1483 1.368 1_655 S
C1482 C1484 1.420 . S
C1482 H1486 0.930 . S
C1483 C1482 1.368 1_455 S
C1483 C1492 1.429 . S
C1484 C1482 1.420 . S
C1484 C1485 1.363 . S
C1484 H1487 0.929 . S
C1485 C1484 1.363 . S
C1485 C1491 1.428 1_655 S
H1486 C1482 0.930 . S
H1487 C1484 0.929 . S
S1488 N1489 1.613 . S
S1488 N1490 1.610 . S
N1489 S1488 1.613 . S
N1489 C1492 1.350 . S
N1490 S1488 1.610 . S
N1490 C1491 1.351 . S
C1491 C1485 1.428 1_455 S
C1491 N1490 1.351 . S
C1491 C1492 1.434 . S
C1492 C1483 1.429 . S
C1492 N1489 1.350 . S
C1492 C1491 1.434 . S
C1493 C1494 1.369 . S
C1493 C1495 1.419 . S
C1493 H1497 0.930 . S
C1494 C1493 1.369 . S
C1494 C1503 1.429 . S
C1495 C1493 1.419 . S
C1495 C1496 1.363 . S
C1495 H1498 0.929 . S
C1496 C1495 1.363 . S
C1496 C1502 1.428 . S
H1497 C1493 0.930 . S
H1498 C1495 0.929 . S
S1499 N1500 1.613 . S
S1499 N1501 1.610 . S
N1500 S1499 1.613 . S
N1500 C1503 1.350 . S
N1501 S1499 1.610 . S
N1501 C1502 1.351 . S
C1502 C1496 1.428 . S
C1502 N1501 1.351 . S
C1502 C1503 1.434 . S
C1503 C1494 1.429 . S
C1503 N1500 1.350 . S
C1503 C1502 1.434 . S
C1504 C1505 1.369 . S
C1504 C1506 1.419 1_545 S
C1504 H1508 0.930 . S
C1505 C1504 1.369 . S
C1505 C1514 1.442 . S
C1506 C1504 1.419 1_565 S
C1506 C1507 1.363 . S
C1506 H1509 0.937 . S
C1507 C1506 1.363 . S
C1507 C1513 1.428 . S
H1508 C1504 0.930 . S
H1509 C1506 0.937 . S
S1510 N1511 1.613 . S
S1510 N1512 1.610 . S
N1511 S1510 1.613 . S
N1511 C1514 1.345 1_565 S
N1512 S1510 1.610 . S
N1512 C1513 1.351 . S
C1513 C1507 1.428 . S
C1513 N1512 1.351 . S
C1513 C1514 1.424 1_565 S
C1514 C1505 1.442 . S
C1514 N1511 1.345 1_545 S
C1514 C1513 1.424 1_545 S
C1515 C1516 1.369 . S
C1515 C1517 1.419 1_565 S
C1515 H1519 0.930 . S
C1516 C1515 1.369 . S
C1516 C1525 1.429 . S
C1517 C1515 1.419 1_545 S
C1517 C1518 1.363 . S
C1517 H1520 0.929 . S
C1518 C1517 1.363 . S
C1518 C1524 1.428 . S
H1519 C1515 0.930 . S
H1520 C1517 0.929 . S
S1521 N1522 1.613 . S
S1521 N1523 1.610 1_565 S
N1522 S1521 1.613 . S
N1522 C1525 1.350 . S
N1523 S1521 1.610 1_545 S
N1523 C1524 1.351 . S
C1524 C1518 1.428 . S
C1524 N1523 1.351 . S
C1524 C1525 1.434 1_545 S
C1525 C1516 1.429 . S
C1525 N1522 1.350 . S
C1525 C1524 1.434 1_565 S
C1526 C1527 1.369 . S
C1526 C1528 1.419 1_455 S
C1526 H1530 0.930 . S
C1527 C1526 1.369 . S
C1527 C1536 1.434 . S
C1528 C1526 1.419 1_655 S
C1528 C1529 1.363 . S
C1528 H1531 0.929 . S
C1529 C1528 1.363 . S
C1529 C1535 1.428 . S
H1530 C1526 0.930 . S
H1531 C1528 0.929 . S
S1532 N1533 1.613 . S
S1532 N1534 1.610 . S
N1533 S1532 1.613 . S
N1533 C1536 1.351 1_655 S
N1534 S1532 1.610 . S
N1534 C1535 1.351 . S
C1535 C1529 1.428 . S
C1535 N1534 1.351 . S
C1535 C1536 1.427 1_655 S
C1536 C1527 1.434 . S
C1536 N1533 1.351 1_455 S
C1536 C1535 1.427 1_455 S
C1537 C1538 1.369 . S
C1537 C1539 1.419 . S
C1537 H1541 0.930 . S
C1538 C1537 1.369 . S
C1538 C1547 1.429 . S
C1539 C1537 1.419 . S
C1539 C1540 1.363 . S
C1539 H1542 0.929 . S
C1540 C1539 1.363 . S
C1540 C1546 1.428 . S
H1541 C1537 0.930 . S
H1542 C1539 0.929 . S
S1543 N1544 1.613 . S
S1543 N1545 1.610 . S
N1544 S1543 1.613 . S
N1544 C1547 1.350 . S
N1545 S1543 1.610 . S
N1545 C1546 1.351 . S
C1546 C1540 1.428 . S
C1546 N1545 1.351 . S
C1546 C1547 1.434 . S
C1547 C1538 1.429 . S
C1547 N1544 1.350 . S
C1547 C1546 1.434 . S
C1548 C1549 1.369 . S
C1548 C1550 1.419 . S
C1548 H1552 0.930 . S
C1549 C1548 1.369 . S
C1549 C1558 1.429 . S
C1550 C1548 1.419 . S
C1550 C1551 1.363 . S
C1550 H1553 0.929 . S
C1551 C1550 1.363 . S
C1551 C1557 1.428 . S
H1552 C1548 0.930 . S
H1553 C1550 0.929 . S
S1554 N1555 1.613 . S
S1554 N1556 1.610 . S
N1555 S1554 1.613 . S
N1555 C1558 1.350 . S
N1556 S1554 1.610 . S
N1556 C1557 1.351 . S
C1557 C1551 1.428 . S
C1557 N1556 1.351 . S
C1557 C1558 1.434 . S
C1558 C1549 1.429 . S
C1558 N1555 1.350 . S
C1558 C1557 1.434 . S
C1559 C1560 1.369 1_565 S
C1559 C1561 1.419 . S
C1559 H1563 0.930 . S
C1560 C1559 1.369 1_545 S
C1560 C1569 1.429 . S
C1561 C1559 1.419 . S
C1561 C1562 1.363 . S
C1561 H1564 0.929 . S
C1562 C1561 1.363 . S
C1562 C1568 1.428 1_565 S
H1563 C1559 0.930 . S
H1564 C1561 0.929 . S
S1565 N1566 1.613 . S
S1565 N1567 1.610 . S
N1566 S1565 1.613 . S
N1566 C1569 1.350 . S
N1567 S1565 1.610 . S
N1567 C1568 1.351 . S
C1568 C1562 1.428 1_545 S
C1568 N1567 1.351 . S
C1568 C1569 1.434 . S
C1569 C1560 1.429 . S
C1569 N1566 1.350 . S
C1569 C1568 1.434 . S
C1570 C1571 1.369 1_455 S
C1570 C1572 1.419 . S
C1570 H1574 0.930 . S
C1571 C1570 1.369 1_655 S
C1571 C1580 1.429 . S
C1572 C1570 1.419 . S
C1572 C1573 1.363 . S
C1572 H1575 0.929 . S
C1573 C1572 1.363 . S
C1573 C1579 1.428 1_455 S
H1574 C1570 0.930 . S
H1575 C1572 0.929 . S
S1576 N1577 1.613 . S
S1576 N1578 1.610 . S
N1577 S1576 1.613 . S
N1577 C1580 1.350 . S
N1578 S1576 1.610 . S
N1578 C1579 1.351 . S
C1579 C1573 1.428 1_655 S
C1579 N1578 1.351 . S
C1579 C1580 1.434 . S
C1580 C1571 1.429 . S
C1580 N1577 1.350 . S
C1580 C1579 1.434 . S
C1581 C1582 1.369 . S
C1581 C1583 1.419 . S
C1581 H1585 0.930 . S
C1582 C1581 1.369 . S
C1582 C1591 1.429 . S
C1583 C1581 1.419 . S
C1583 C1584 1.363 . S
C1583 H1586 0.929 . S
C1584 C1583 1.363 . S
C1584 C1590 1.428 . S
H1585 C1581 0.930 . S
H1586 C1583 0.929 . S
S1587 N1588 1.613 . S
S1587 N1589 1.610 . S
N1588 S1587 1.613 . S
N1588 C1591 1.350 . S
N1589 S1587 1.610 . S
N1589 C1590 1.351 . S
C1590 C1584 1.428 . S
C1590 N1589 1.351 . S
C1590 C1591 1.434 . S
C1591 C1582 1.429 . S
C1591 N1588 1.350 . S
C1591 C1590 1.434 . S
C1592 C1593 1.369 . S
C1592 C1594 1.419 . S
C1592 H1596 0.930 . S
C1593 C1592 1.369 . S
C1593 C1602 1.429 1_565 S
C1594 C1592 1.419 . S
C1594 C1595 1.363 1_565 S
C1594 H1597 0.929 . S
C1595 C1594 1.363 1_545 S
C1595 C1601 1.428 . S
H1596 C1592 0.930 . S
H1597 C1594 0.929 . S
S1598 N1599 1.613 . S
S1598 N1600 1.610 . S
N1599 S1598 1.613 . S
N1599 C1602 1.350 . S
N1600 S1598 1.610 . S
N1600 C1601 1.351 . S
C1601 C1595 1.428 . S
C1601 N1600 1.351 . S
C1601 C1602 1.434 . S
C1602 C1593 1.429 1_545 S
C1602 N1599 1.350 . S
C1602 C1601 1.434 . S
C1603 C1604 1.369 1_455 S
C1603 C1605 1.419 . S
C1603 H1607 0.930 . S
C1604 C1603 1.369 1_655 S
C1604 C1613 1.429 . S
C1605 C1603 1.419 . S
C1605 C1606 1.363 . S
C1605 H1608 0.929 . S
C1606 C1605 1.363 . S
C1606 C1612 1.428 1_455 S
H1607 C1603 0.930 . S
H1608 C1605 0.929 . S
S1609 N1610 1.613 . S
S1609 N1611 1.610 . S
N1610 S1609 1.613 . S
N1610 C1613 1.350 . S
N1611 S1609 1.610 . S
N1611 C1612 1.351 . S
C1612 C1606 1.428 1_655 S
C1612 N1611 1.351 . S
C1612 C1613 1.434 . S
C1613 C1604 1.429 . S
C1613 N1610 1.350 . S
C1613 C1612 1.434 . S
C1614 C1615 1.369 . S
C1614 C1616 1.419 . S
C1614 H1618 0.930 . S
C1615 C1614 1.369 . S
C1615 C1624 1.429 . S
C1616 C1614 1.419 . S
C1616 C1617 1.363 . S
C1616 H1619 0.929 . S
C1617 C1616 1.363 . S
C1617 C1623 1.428 . S
H1618 C1614 0.930 . S
H1619 C1616 0.929 . S
S1620 N1621 1.613 . S
S1620 N1622 1.610 . S
N1621 S1620 1.613 . S
N1621 C1624 1.350 . S
N1622 S1620 1.610 . S
N1622 C1623 1.351 . S
C1623 C1617 1.428 . S
C1623 N1622 1.351 . S
C1623 C1624 1.434 . S
C1624 C1615 1.429 . S
C1624 N1621 1.350 . S
C1624 C1623 1.434 . S
C1625 C1626 1.369 . S
C1625 C1627 1.419 . S
C1625 H1629 0.930 . S
C1626 C1625 1.369 . S
C1626 C1635 1.429 . S
C1627 C1625 1.419 . S
C1627 C1628 1.363 . S
C1627 H1630 0.929 . S
C1628 C1627 1.363 . S
C1628 C1634 1.428 . S
H1629 C1625 0.930 . S
H1630 C1627 0.929 . S
S1631 N1632 1.613 . S
S1631 N1633 1.610 . S
N1632 S1631 1.613 . S
N1632 C1635 1.350 . S
N1633 S1631 1.610 . S
N1633 C1634 1.351 . S
C1634 C1628 1.428 . S
C1634 N1633 1.351 . S
C1634 C1635 1.434 . S
C1635 C1626 1.429 . S
C1635 N1632 1.350 . S
C1635 C1634 1.434 . S
C1636 C1637 1.369 . S
C1636 C1638 1.419 . S
C1636 H1640 0.930 . S
C1637 C1636 1.369 . S
C1637 C1646 1.429 . S
C1638 C1636 1.419 . S
C1638 C1639 1.363 . S
C1638 H1641 0.929 . S
C1639 C1638 1.363 . S
C1639 C1645 1.428 . S
H1640 C1636 0.930 . S
H1641 C1638 0.929 . S
S1642 N1643 1.613 . S
S1642 N1644 1.610 . S
N1643 S1642 1.613 . S
N1643 C1646 1.350 . S
N1644 S1642 1.610 . S
N1644 C1645 1.351 . S
C1645 C1639 1.428 . S
C1645 N1644 1.351 . S
C1645 C1646 1.434 . S
C1646 C1637 1.429 . S
C1646 N1643 1.350 . S
C1646 C1645 1.434 . S
C1647 C1648 1.369 . S
C1647 C1649 1.419 . S
C1647 H1651 0.930 . S
C1648 C1647 1.369 . S
C1648 C1657 1.429 . S
C1649 C1647 1.419 . S
C1649 C1650 1.363 . S
C1649 H1652 0.929 . S
C1650 C1649 1.363 . S
C1650 C1656 1.428 . S
H1651 C1647 0.930 . S
H1652 C1649 0.929 . S
S1653 N1654 1.613 . S
S1653 N1655 1.610 . S
N1654 S1653 1.613 . S
N1654 C1657 1.350 . S
N1655 S1653 1.610 . S
N1655 C1656 1.351 . S
C1656 C1650 1.428 . S
C1656 N1655 1.351 . S
C1656 C1657 1.434 . S
C1657 C1648 1.429 . S
C1657 N1654 1.350 . S
C1657 C1656 1.434 . S
C1658 C1659 1.369 . S
C1658 C1660 1.419 . S
C1658 H1662 0.930 . S
C1659 C1658 1.369 . S
C1659 C1668 1.429 . S
C1660 C1658 1.419 . S
C1660 C1661 1.363 . S
C1660 H1663 0.929 . S
C1661 C1660 1.363 . S
C1661 C1667 1.428 . S
H1662 C1658 0.930 . S
H1663 C1660 0.929 . S
S1664 N1665 1.613 . S
S1664 N1666 1.610 . S
N1665 S1664 1.613 . S
N1665 C1668 1.350 . S
N1666 S1664 1.610 . S
N1666 C1667 1.351 . S
C1667 C1661 1.428 . S
C1667 N1666 1.351 . S
C1667 C1668 1.434 . S
C1668 C1659 1.429 . S
C1668 N1665 1.350 . S
C1668 C1667 1.434 . S
C1669 C1670 1.369 . S
C1669 C1671 1.419 . S
C1669 H1673 0.930 . S
C1670 C1669 1.369 . S
C1670 C1679 1.429 . S
C1671 C1669 1.419 . S
C1671 C1672 1.363 . S
C1671 H1674 0.929 . S
C1672 C1671 1.363 . S
C1672 C1678 1.428 . S
H1673 C1669 0.930 . S
H1674 C1671 0.929 . S
S1675 N1676 1.613 . S
S1675 N1677 1.610 . S
N1676 S1675 1.613 . S
N1676 C1679 1.350 . S
N1677 S1675 1.610 . S
N1677 C1678 1.351 . S
C1678 C1672 1.428 . S
C1678 N1677 1.351 . S
C1678 C1679 1.434 . S
C1679 C1670 1.429 . S
C1679 N1676 1.350 . S
C1679 C1678 1.434 . S
C1680 C1681 1.369 . S
C1680 C1682 1.419 . S
C1680 H1684 0.930 . S
C1681 C1680 1.369 . S
C1681 C1690 1.429 . S
C1682 C1680 1.419 . S
C1682 C1683 1.363 . S
C1682 H1685 0.929 . S
C1683 C1682 1.363 . S
C1683 C1689 1.428 . S
H1684 C1680 0.930 . S
H1685 C1682 0.929 . S
S1686 N1687 1.613 . S
S1686 N1688 1.610 . S
N1687 S1686 1.613 . S
N1687 C1690 1.350 . S
N1688 S1686 1.610 . S
N1688 C1689 1.351 . S
C1689 C1683 1.428 . S
C1689 N1688 1.351 . S
C1689 C1690 1.434 . S
C1690 C1681 1.429 . S
C1690 N1687 1.350 . S
C1690 C1689 1.434 . S
C1691 C1692 1.369 . S
C1691 C1693 1.419 . S
C1691 H1695 0.930 . S
C1692 C1691 1.369 . S
C1692 C1701 1.429 . S
C1693 C1691 1.419 . S
C1693 C1694 1.363 . S
C1693 H1696 0.929 . S
C1694 C1693 1.363 . S
C1694 C1700 1.428 . S
H1695 C1691 0.930 . S
H1696 C1693 0.929 . S
S1697 N1698 1.613 . S
S1697 N1699 1.610 . S
N1698 S1697 1.613 . S
N1698 C1701 1.350 . S
N1699 S1697 1.610 . S
N1699 C1700 1.351 . S
C1700 C1694 1.428 . S
C1700 N1699 1.351 . S
C1700 C1701 1.434 . S
C1701 C1692 1.429 . S
C1701 N1698 1.350 . S
C1701 C1700 1.434 . S
C1702 C1703 1.369 . S
C1702 C1704 1.419 . S
C1702 H1706 0.930 . S
C1703 C1702 1.369 . S
C1703 C1712 1.429 . S
C1704 C1702 1.419 . S
C1704 C1705 1.363 . S
C1704 H1707 0.929 . S
C1705 C1704 1.363 . S
C1705 C1711 1.428 . S
H1706 C1702 0.930 . S
H1707 C1704 0.929 . S
S1708 N1709 1.613 . S
S1708 N1710 1.610 . S
N1709 S1708 1.613 . S
N1709 C1712 1.350 . S
N1710 S1708 1.610 . S
N1710 C1711 1.351 . S
C1711 C1705 1.428 . S
C1711 N1710 1.351 . S
C1711 C1712 1.434 . S
C1712 C1703 1.429 . S
C1712 N1709 1.350 . S
C1712 C1711 1.434 . S
C1713 C1714 1.369 . S
C1713 C1715 1.419 . S
C1713 H1717 0.930 . S
C1714 C1713 1.369 . S
C1714 C1723 1.429 . S
C1715 C1713 1.419 . S
C1715 C1716 1.363 . S
C1715 H1718 0.929 . S
C1716 C1715 1.363 . S
C1716 C1722 1.428 . S
H1717 C1713 0.930 . S
H1718 C1715 0.929 . S
S1719 N1720 1.613 . S
S1719 N1721 1.610 . S
N1720 S1719 1.613 . S
N1720 C1723 1.350 . S
N1721 S1719 1.610 . S
N1721 C1722 1.351 . S
C1722 C1716 1.428 . S
C1722 N1721 1.351 . S
C1722 C1723 1.434 . S
C1723 C1714 1.429 . S
C1723 N1720 1.350 . S
C1723 C1722 1.434 . S
C1724 C1725 1.369 . S
C1724 C1726 1.419 . S
C1724 H1728 0.930 . S
C1725 C1724 1.369 . S
C1725 C1734 1.429 . S
C1726 C1724 1.419 . S
C1726 C1727 1.363 . S
C1726 H1729 0.929 . S
C1727 C1726 1.363 . S
C1727 C1733 1.428 . S
H1728 C1724 0.930 . S
H1729 C1726 0.929 . S
S1730 N1731 1.613 . S
S1730 N1732 1.610 . S
N1731 S1730 1.613 . S
N1731 C1734 1.350 . S
N1732 S1730 1.610 . S
N1732 C1733 1.351 . S
C1733 C1727 1.428 . S
C1733 N1732 1.351 . S
C1733 C1734 1.434 . S
C1734 C1725 1.429 . S
C1734 N1731 1.350 . S
C1734 C1733 1.434 . S
C1735 C1736 1.369 . S
C1735 C1737 1.419 . S
C1735 H1739 0.930 . S
C1736 C1735 1.369 . S
C1736 C1745 1.429 . S
C1737 C1735 1.419 . S
C1737 C1738 1.363 . S
C1737 H1740 0.929 . S
C1738 C1737 1.363 . S
C1738 C1744 1.428 . S
H1739 C1735 0.930 . S
H1740 C1737 0.929 . S
S1741 N1742 1.613 . S
S1741 N1743 1.610 . S
N1742 S1741 1.613 . S
N1742 C1745 1.350 . S
N1743 S1741 1.610 . S
N1743 C1744 1.351 . S
C1744 C1738 1.428 . S
C1744 N1743 1.351 . S
C1744 C1745 1.434 . S
C1745 C1736 1.429 . S
C1745 N1742 1.350 . S
C1745 C1744 1.434 . S
C1746 C1747 1.369 . S
C1746 C1748 1.419 . S
C1746 H1750 0.930 . S
C1747 C1746 1.369 . S
C1747 C1756 1.429 . S
C1748 C1746 1.419 . S
C1748 C1749 1.363 . S
C1748 H1751 0.929 . S
C1749 C1748 1.363 . S
C1749 C1755 1.428 . S
H1750 C1746 0.930 . S
H1751 C1748 0.929 . S
S1752 N1753 1.613 1_556 S
S1752 N1754 1.610 1_556 S
N1753 S1752 1.613 1_554 S
N1753 C1756 1.350 . S
N1754 S1752 1.610 1_554 S
N1754 C1755 1.351 . S
C1755 C1749 1.428 . S
C1755 N1754 1.351 . S
C1755 C1756 1.434 . S
C1756 C1747 1.429 . S
C1756 N1753 1.350 . S
C1756 C1755 1.434 . S
C1757 C1758 1.369 . S
C1757 C1759 1.419 . S
C1757 H1761 0.930 . S
C1758 C1757 1.369 . S
C1758 C1767 1.429 . S
C1759 C1757 1.419 . S
C1759 C1760 1.363 . S
C1759 H1762 0.929 1_565 S
C1760 C1759 1.363 . S
C1760 C1766 1.428 . S
H1761 C1757 0.930 . S
H1762 C1759 0.929 1_545 S
S1763 N1764 1.613 . S
S1763 N1765 1.610 . S
N1764 S1763 1.613 . S
N1764 C1767 1.350 . S
N1765 S1763 1.610 . S
N1765 C1766 1.351 . S
C1766 C1760 1.428 . S
C1766 N1765 1.351 . S
C1766 C1767 1.434 . S
C1767 C1758 1.429 . S
C1767 N1764 1.350 . S
C1767 C1766 1.434 . S
C1768 C1769 1.369 . S
C1768 C1770 1.419 . S
C1768 H1772 0.930 . S
C1769 C1768 1.369 . S
C1769 C1778 1.429 1_455 S
C1770 C1768 1.419 . S
C1770 C1771 1.363 . S
C1770 H1773 0.929 . S
C1771 C1770 1.363 . S
C1771 C1777 1.428 . S
H1772 C1768 0.930 . S
H1773 C1770 0.929 . S
S1774 N1775 1.613 . S
S1774 N1776 1.610 . S
N1775 S1774 1.613 . S
N1775 C1778 1.350 . S
N1776 S1774 1.610 . S
N1776 C1777 1.351 1_655 S
C1777 C1771 1.428 . S
C1777 N1776 1.351 1_455 S
C1777 C1778 1.434 1_455 S
C1778 C1769 1.429 1_655 S
C1778 N1775 1.350 . S
C1778 C1777 1.434 1_655 S
C1779 C1780 1.369 . S
C1779 C1781 1.419 . S
C1779 H1783 0.930 . S
C1780 C1779 1.369 . S
C1780 C1789 1.429 . S
C1781 C1779 1.419 . S
C1781 C1782 1.363 . S
C1781 H1784 0.929 . S
C1782 C1781 1.363 . S
C1782 C1788 1.428 . S
H1783 C1779 0.930 . S
H1784 C1781 0.929 . S
S1785 N1786 1.613 . S
S1785 N1787 1.610 . S
N1786 S1785 1.613 . S
N1786 C1789 1.350 . S
N1787 S1785 1.610 . S
N1787 C1788 1.351 . S
C1788 C1782 1.428 . S
C1788 N1787 1.351 . S
C1788 C1789 1.434 . S
C1789 C1780 1.429 . S
C1789 N1786 1.350 . S
C1789 C1788 1.434 . S
C1790 C1791 1.369 . S
C1790 C1792 1.419 . S
C1790 H1794 0.930 . S
C1791 C1790 1.369 . S
C1791 C1800 1.429 1_545 S
C1792 C1790 1.419 . S
C1792 C1793 1.363 . S
C1792 H1795 0.929 . S
C1793 C1792 1.363 . S
C1793 C1799 1.428 . S
H1794 C1790 0.930 . S
H1795 C1792 0.929 . S
S1796 N1797 1.613 . S
S1796 N1798 1.610 . S
N1797 S1796 1.613 . S
N1797 C1800 1.350 . S
N1798 S1796 1.610 . S
N1798 C1799 1.351 1_565 S
C1799 C1793 1.428 . S
C1799 N1798 1.351 1_545 S
C1799 C1800 1.434 1_545 S
C1800 C1791 1.429 1_565 S
C1800 N1797 1.350 . S
C1800 C1799 1.434 1_565 S
C1801 C1802 1.369 . S
C1801 C1803 1.419 . S
C1801 H1805 0.930 . S
C1802 C1801 1.369 . S
C1802 C1811 1.429 1_655 S
C1803 C1801 1.419 . S
C1803 C1804 1.363 . S
C1803 H1806 0.929 . S
C1804 C1803 1.363 . S
C1804 C1810 1.428 . S
H1805 C1801 0.930 . S
H1806 C1803 0.929 . S
S1807 N1808 1.613 . S
S1807 N1809 1.610 . S
N1808 S1807 1.613 . S
N1808 C1811 1.350 . S
N1809 S1807 1.610 . S
N1809 C1810 1.351 1_455 S
C1810 C1804 1.428 . S
C1810 N1809 1.351 1_655 S
C1810 C1811 1.434 1_655 S
C1811 C1802 1.429 1_455 S
C1811 N1808 1.350 . S
C1811 C1810 1.434 1_455 S
C1812 C1813 1.369 . S
C1812 C1814 1.419 . S
C1812 H1816 0.930 . S
C1813 C1812 1.369 . S
C1813 C1822 1.429 . S
C1814 C1812 1.419 . S
C1814 C1815 1.363 . S
C1814 H1817 0.929 . S
C1815 C1814 1.363 . S
C1815 C1821 1.428 . S
H1816 C1812 0.930 . S
H1817 C1814 0.929 . S
S1818 N1819 1.613 1_554 S
S1818 N1820 1.610 1_554 S
N1819 S1818 1.613 1_556 S
N1819 C1822 1.350 . S
N1820 S1818 1.610 1_556 S
N1820 C1821 1.351 . S
C1821 C1815 1.428 . S
C1821 N1820 1.351 . S
C1821 C1822 1.434 . S
C1822 C1813 1.429 . S
C1822 N1819 1.350 . S
C1822 C1821 1.434 . S
C1823 C1824 1.369 1_565 S
C1823 C1825 1.419 1_565 S
C1823 H1827 0.930 . S
C1824 C1823 1.369 1_545 S
C1824 C1833 1.429 . S
C1825 C1823 1.419 1_545 S
C1825 C1826 1.363 . S
C1825 H1828 0.929 . S
C1826 C1825 1.363 . S
C1826 C1832 1.428 . S
H1827 C1823 0.930 . S
H1828 C1825 0.929 . S
S1829 N1830 1.613 . S
S1829 N1831 1.610 . S
N1830 S1829 1.613 . S
N1830 C1833 1.350 . S
N1831 S1829 1.610 . S
N1831 C1832 1.351 . S
C1832 C1826 1.428 . S
C1832 N1831 1.351 . S
C1832 C1833 1.434 . S
C1833 C1824 1.429 . S
C1833 N1830 1.350 . S
C1833 C1832 1.434 . S
C1834 C1835 1.369 . S
C1834 C1836 1.419 . S
C1834 H1838 0.930 . S
C1835 C1834 1.369 . S
C1835 C1844 1.429 . S
C1836 C1834 1.419 . S
C1836 C1837 1.363 . S
C1836 H1839 0.929 . S
C1837 C1836 1.363 . S
C1837 C1843 1.428 1_655 S
H1838 C1834 0.930 . S
H1839 C1836 0.929 . S
S1840 N1841 1.613 . S
S1840 N1842 1.610 . S
N1841 S1840 1.613 . S
N1841 C1844 1.350 1_455 S
N1842 S1840 1.610 . S
N1842 C1843 1.351 . S
C1843 C1837 1.428 1_455 S
C1843 N1842 1.351 . S
C1843 C1844 1.434 1_455 S
C1844 C1835 1.429 . S
C1844 N1841 1.350 1_655 S
C1844 C1843 1.434 1_655 S
C1845 C1846 1.369 . S
C1845 C1847 1.419 . S
C1845 H1849 0.930 . S
C1846 C1845 1.369 . S
C1846 C1855 1.429 . S
C1847 C1845 1.419 . S
C1847 C1848 1.363 . S
C1847 H1850 0.929 . S
C1848 C1847 1.363 . S
C1848 C1854 1.428 . S
H1849 C1845 0.930 . S
H1850 C1847 0.929 . S
S1851 N1852 1.613 . S
S1851 N1853 1.610 . S
N1852 S1851 1.613 . S
N1852 C1855 1.350 . S
N1853 S1851 1.610 . S
N1853 C1854 1.351 . S
C1854 C1848 1.428 . S
C1854 N1853 1.351 . S
C1854 C1855 1.434 . S
C1855 C1846 1.429 . S
C1855 N1852 1.350 . S
C1855 C1854 1.434 . S
C1856 C1857 1.369 . S
C1856 C1858 1.419 . S
C1856 H1860 0.930 . S
C1857 C1856 1.369 . S
C1857 C1866 1.429 . S
C1858 C1856 1.419 . S
C1858 C1859 1.363 . S
C1858 H1861 0.929 . S
C1859 C1858 1.363 . S
C1859 C1865 1.428 . S
H1860 C1856 0.930 . S
H1861 C1858 0.929 . S
S1862 N1863 1.613 . S
S1862 N1864 1.610 . S
N1863 S1862 1.613 . S
N1863 C1866 1.350 . S
N1864 S1862 1.610 . S
N1864 C1865 1.351 . S
C1865 C1859 1.428 . S
C1865 N1864 1.351 . S
C1865 C1866 1.434 . S
C1866 C1857 1.429 . S
C1866 N1863 1.350 . S
C1866 C1865 1.434 . S
C1867 C1868 1.369 . S
C1867 C1869 1.419 1_455 S
C1867 H1871 0.930 1_455 S
C1868 C1867 1.369 . S
C1868 C1877 1.429 . S
C1869 C1867 1.419 1_655 S
C1869 C1870 1.363 1_655 S
C1869 H1872 0.929 . S
C1870 C1869 1.363 1_455 S
C1870 C1876 1.428 . S
H1871 C1867 0.930 1_655 S
H1872 C1869 0.929 . S
S1873 N1874 1.613 . S
S1873 N1875 1.610 . S
N1874 S1873 1.613 . S
N1874 C1877 1.350 . S
N1875 S1873 1.610 . S
N1875 C1876 1.351 . S
C1876 C1870 1.428 . S
C1876 N1875 1.351 . S
C1876 C1877 1.434 . S
C1877 C1868 1.429 . S
C1877 N1874 1.350 . S
C1877 C1876 1.434 . S
C1878 C1879 1.369 . S
C1878 C1880 1.419 1_655 S
C1878 H1882 0.930 . S
C1879 C1878 1.369 . S
C1879 C1888 1.429 . S
C1880 C1878 1.419 1_455 S
C1880 C1881 1.363 . S
C1880 H1883 0.929 . S
C1881 C1880 1.363 . S
C1881 C1887 1.428 . S
H1882 C1878 0.930 . S
H1883 C1880 0.929 . S
S1884 N1885 1.613 1_455 S
S1884 N1886 1.610 . S
N1885 S1884 1.613 1_655 S
N1885 C1888 1.350 . S
N1886 S1884 1.610 . S
N1886 C1887 1.351 . S
C1887 C1881 1.428 . S
C1887 N1886 1.351 . S
C1887 C1888 1.434 1_455 S
C1888 C1879 1.429 . S
C1888 N1885 1.350 . S
C1888 C1887 1.434 1_655 S
C1889 C1890 1.369 . S
C1889 C1891 1.419 . S
C1889 H1893 0.930 . S
C1890 C1889 1.369 . S
C1890 C1899 1.429 . S
C1891 C1889 1.419 . S
C1891 C1892 1.363 . S
C1891 H1894 0.929 . S
C1892 C1891 1.363 . S
C1892 C1898 1.428 . S
H1893 C1889 0.930 . S
H1894 C1891 0.929 . S
S1895 N1896 1.613 . S
S1895 N1897 1.610 . S
N1896 S1895 1.613 . S
N1896 C1899 1.350 . S
N1897 S1895 1.610 . S
N1897 C1898 1.351 . S
C1898 C1892 1.428 . S
C1898 N1897 1.351 . S
C1898 C1899 1.434 . S
C1899 C1890 1.429 . S
C1899 N1896 1.350 . S
C1899 C1898 1.434 . S
C1900 C1901 1.369 . S
C1900 C1902 1.419 1_545 S
C1900 H1904 0.930 . S
C1901 C1900 1.369 . S
C1901 C1910 1.429 . S
C1902 C1900 1.419 1_565 S
C1902 C1903 1.363 . S
C1902 H1905 0.929 . S
C1903 C1902 1.363 . S
C1903 C1909 1.428 . S
H1904 C1900 0.930 . S
H1905 C1902 0.929 . S
S1906 N1907 1.613 1_565 S
S1906 N1908 1.610 . S
N1907 S1906 1.613 1_545 S
N1907 C1910 1.350 . S
N1908 S1906 1.610 . S
N1908 C1909 1.351 . S
C1909 C1903 1.428 . S
C1909 N1908 1.351 . S
C1909 C1910 1.434 1_565 S
C1910 C1901 1.429 . S
C1910 N1907 1.350 . S
C1910 C1909 1.434 1_545 S
C1911 C1912 1.369 . S
C1911 C1913 1.419 1_545 S
C1911 H1915 0.930 . S
C1912 C1911 1.369 . S
C1912 C1921 1.429 . S
C1913 C1911 1.419 1_565 S
C1913 C1914 1.363 . S
C1913 H1916 0.929 . S
C1914 C1913 1.363 . S
C1914 C1920 1.428 . S
H1915 C1911 0.930 . S
H1916 C1913 0.929 . S
S1917 N1918 1.613 1_565 S
S1917 N1919 1.610 . S
N1918 S1917 1.613 1_545 S
N1918 C1921 1.350 . S
N1919 S1917 1.610 . S
N1919 C1920 1.351 . S
C1920 C1914 1.428 . S
C1920 N1919 1.351 . S
C1920 C1921 1.434 1_565 S
C1921 C1912 1.429 . S
C1921 N1918 1.350 . S
C1921 C1920 1.434 1_545 S
C1922 C1923 1.369 . S
C1922 C1924 1.419 1_655 S
C1922 H1926 0.930 . S
C1923 C1922 1.369 . S
C1923 C1932 1.429 . S
C1924 C1922 1.419 1_455 S
C1924 C1925 1.363 . S
C1924 H1927 0.929 . S
C1925 C1924 1.363 . S
C1925 C1931 1.428 . S
H1926 C1922 0.930 . S
H1927 C1924 0.929 . S
S1928 N1929 1.613 . S
S1928 N1930 1.610 1_655 S
N1929 S1928 1.613 . S
N1929 C1932 1.350 . S
N1930 S1928 1.610 1_455 S
N1930 C1931 1.351 . S
C1931 C1925 1.428 . S
C1931 N1930 1.351 . S
C1931 C1932 1.434 1_455 S
C1932 C1923 1.429 . S
C1932 N1929 1.350 . S
C1932 C1931 1.434 1_655 S
C1933 C1934 1.369 . S
C1933 C1935 1.419 . S
C1933 H1937 0.930 . S
C1934 C1933 1.369 . S
C1934 C1943 1.429 . S
C1935 C1933 1.419 . S
C1935 C1936 1.363 . S
C1935 H1938 0.929 . S
C1936 C1935 1.363 . S
C1936 C1942 1.428 . S
H1937 C1933 0.930 . S
H1938 C1935 0.929 . S
S1939 N1940 1.613 . S
S1939 N1941 1.610 . S
N1940 S1939 1.613 . S
N1940 C1943 1.350 . S
N1941 S1939 1.610 . S
N1941 C1942 1.351 . S
C1942 C1936 1.428 . S
C1942 N1941 1.351 . S
C1942 C1943 1.434 . S
C1943 C1934 1.429 . S
C1943 N1940 1.350 . S
C1943 C1942 1.434 . S
C757 C17 1.518 . S
C759 C163 1.359 . S
C768 C184 1.368 . S
C770 C38 1.516 . S
C779 C142 1.369 . S
C781 C59 1.516 . S
C790 C247 1.352 . S
C792 C80 1.523 . S
C801 C101 1.524 . S
C803 C205 1.356 . S
C812 C122 1.524 . S
C814 C226 1.356 . S
C823 C37 1.352 . S
C825 C143 1.523 . S
C834 C164 1.516 . S
C836 C58 1.361 . S
C845 C16 1.367 . S
C847 C185 1.516 . S
C856 C121 1.352 . S
C858 C206 1.522 . S
C867 C227 1.521 . S
C869 C79 1.363 . S
C878 C248 1.515 . S
C880 C100 1.367 . S
C889 C269 1.515 . S
C891 C415 1.364 . S
C900 C436 1.353 . S
C902 C290 1.521 . S
C911 C394 1.356 . S
C913 C311 1.523 . S
C922 C332 1.524 . S
C924 C499 1.356 . S
C933 C457 1.364 . S
C935 C353 1.516 . S
C944 C374 1.523 . S
C946 C478 1.354 . S
C955 C395 1.515 . S
C957 C289 1.364 . S
C966 C310 1.358 . S
C968 C416 1.518 . S
C977 C437 1.515 . S
C979 C268 1.366 . S
C988 C373 1.366 . S
C990 C458 1.520 . S
C999 C331 1.363 . S
C1001 C479 1.516 . S
C1010 C500 1.525 . S
C1012 C352 1.357 . S
C1021 C521 1.519 . S
C1023 C667 1.365 . S
C1032 C542 1.522 . S
C1034 C688 1.362 . S
C1043 C646 1.367 . S
C1045 C563 1.518 . S
C1054 C751 1.354 . S
C1056 C584 1.520 . S
C1065 C605 1.514 . S
C1067 C709 1.365 . S
C1076 C730 1.352 . S
C1078 C626 1.523 . S
C1087 C541 1.352 . S
C1089 C647 1.522 . S
C1098 C668 1.525 . S
C1100 C562 1.356 . S
C1109 C520 1.356 . S
C1111 C689 1.518 . S
C1120 C710 1.522 . S
C1122 C625 1.361 . S
C1131 C731 1.516 . S
C1133 C583 1.361 . S
C1142 C752 1.517 . S
C1144 C604 1.359 . S
C1153 C13 1.224 . S
C1155 C391 1.215 . S
C1164 C34 1.210 . S
C1166 C412 1.225 . S
C1175 C433 1.224 . S
C1177 C55 1.213 . S
C1186 C706 1.223 . S
C1188 C76 1.214 . S
C1197 C727 1.228 . S
C1199 C97 1.211 . S
C1208 C748 1.216 . S
C1210 C118 1.220 . S
C1219 C139 1.212 . S
C1221 C517 1.223 . S
C1230 C538 1.218 . S
C1232 C160 1.219 . S
C1241 C181 1.213 . S
C1243 C559 1.222 . S
C1252 C202 1.226 . S
C1254 C328 1.212 . S
C1263 C223 1.214 . S
C1265 C349 1.221 . S
C1274 C244 1.227 . S
C1276 C370 1.212 . S
C1285 C265 1.209 . S
C1287 C643 1.225 . S
C1296 C664 1.209 . S
C1298 C286 1.226 . S
C1307 C307 1.224 . S
C1309 C685 1.214 . S
C1318 C580 1.210 . S
C1320 C454 1.225 . S
C1329 C475 1.208 . S
C1331 C601 1.226 . S
C1340 C622 1.219 . S
C1342 C496 1.219 . S
C1351 C15 1.458 . S
C1353 C351 1.458 . S
C1362 C36 1.457 . S
C1364 C372 1.457 . S
C1373 C330 1.458 . S
C1375 C57 1.458 . S
C1384 C78 1.457 . S
C1386 C561 1.457 . S
C1395 C519 1.459 . S
C1397 C99 1.459 . S
C1406 C120 1.458 . S
C1408 C540 1.458 . S
C1417 C729 1.459 . S
C1419 C141 1.459 . S
C1428 C162 1.457 . S
C1430 C750 1.457 . S
C1439 C708 1.456 . S
C1441 C183 1.457 . S
C1450 C204 1.456 . S
C1452 C435 1.457 . S
C1461 C225 1.457 . S
C1463 C393 1.457 . S
C1472 C246 1.459 . S
C1474 C414 1.459 . S
C1483 C603 1.458 . S
C1485 C267 1.458 . S
C1494 C288 1.457 . S
C1496 C624 1.457 . S
C1505 C309 1.457 . S
C1507 C582 1.457 . S
C1516 C687 1.459 . S
C1518 C456 1.459 . S
C1527 C645 1.458 . S
C1529 C477 1.458 . S
C1538 C666 1.459 . S
C1540 C498 1.459 . S
C1549 C77 1.433 . S
C1551 C14 1.439 . S
C1560 C35 1.437 . S
C1562 C98 1.444 . S
C1571 C56 1.433 . S
C1573 C119 1.440 . S
C1582 C203 1.442 . S
C1584 C140 1.445 . S
C1593 C161 1.442 . S
C1595 C224 1.435 . S
C1604 C245 1.440 . S
C1606 C182 1.446 . S
C1615 C329 1.447 . S
C1617 C266 1.440 . S
C1626 C287 1.435 . S
C1628 C350 1.444 . S
C1637 C308 1.437 . S
C1639 C371 1.435 . S
C1648 C392 1.439 . S
C1650 C455 1.435 1_554 S
C1659 C413 1.437 . S
C1661 C476 1.445 1_554 S
C1670 C434 1.447 . S
C1672 C497 1.439 1_554 S
C1681 C518 1.439 . S
C1683 C581 1.445 1_556 S
C1692 C602 1.447 1_556 S
C1694 C539 1.440 . S
C1703 C623 1.438 1_556 S
C1705 C560 1.435 . S
C1714 C644 1.440 . S
C1716 C707 1.435 . S
C1725 C728 1.445 . S
C1727 C665 1.437 . S
C1736 C686 1.434 . S
C1738 C749 1.439 . S
C1747 C18 1.564 . S
C1749 C627 1.563 . S
C1758 C585 1.563 . S
C1760 C39 1.563 1_565 S
C1769 C60 1.560 1_455 S
C1771 C606 1.561 . S
C1780 C291 1.565 . S
C1782 C81 1.565 . S
C1791 C102 1.560 1_545 S
C1793 C312 1.561 . S
C1802 C123 1.560 1_655 S
C1804 C270 1.561 . S
C1813 C501 1.563 . S
C1815 C144 1.564 . S
C1824 C165 1.565 1_545 S
C1826 C459 1.564 . S
C1835 C480 1.560 . S
C1837 C186 1.561 1_655 S
C1846 C207 1.561 . S
C1848 C669 1.561 . S
C1857 C690 1.561 . S
C1859 C228 1.562 1_565 S
C1868 C648 1.565 . S
C1870 C249 1.565 1_455 S
C1879 C333 1.563 . S
C1881 C543 1.563 . S
C1890 C354 1.564 . S
C1892 C564 1.564 . S
C1901 C375 1.564 . S
C1903 C522 1.564 . S
C1912 C396 1.561 . S
C1914 C753 1.562 . S
C1923 C417 1.563 . S
C1925 C711 1.562 . S
C1934 C732 1.565 . S
C1936 C438 1.564 . S
