# Generated by pormake.
# Topology wjd, (6)-cn, num edge types: 1
# Building blocks:
#     Node 0, Type 0, BuildingBlock: FUNLAD_clean_sbu_0, # of connection points: 6
#     Node 1, Type 0, BuildingBlock: FUNLAD_clean_sbu_0, # of connection points: 6
#     Node 2, Type 0, BuildingBlock: FUNLAD_clean_sbu_0, # of connection points: 6
#     Node 3, Type 0, BuildingBlock: FUNLAD_clean_sbu_0, # of connection points: 6
#     Node 4, Type 0, BuildingBlock: FUNLAD_clean_sbu_0, # of connection points: 6
#     Node 5, Type 0, BuildingBlock: FUNLAD_clean_sbu_0, # of connection points: 6
#     Node 6, Type 0, BuildingBlock: FUNLAD_clean_sbu_0, # of connection points: 6
#     Node 7, Type 0, BuildingBlock: FUNLAD_clean_sbu_0, # of connection points: 6
#     Node 8, Type 0, BuildingBlock: FUNLAD_clean_sbu_0, # of connection points: 6
#     Node 9, Type 0, BuildingBlock: FUNLAD_clean_sbu_0, # of connection points: 6
#     Node 10, Type 0, BuildingBlock: FUNLAD_clean_sbu_0, # of connection points: 6
#     Node 11, Type 0, BuildingBlock: FUNLAD_clean_sbu_0, # of connection points: 6
#     Edge 12, Type (0, 0), BuildingBlock: TEMPAE_clean_linker_10, # of connection points: 2
#     Edge 13, Type (0, 0), BuildingBlock: TEMPAE_clean_linker_10, # of connection points: 2
#     Edge 14, Type (0, 0), BuildingBlock: TEMPAE_clean_linker_10, # of connection points: 2
#     Edge 15, Type (0, 0), BuildingBlock: TEMPAE_clean_linker_10, # of connection points: 2
#     Edge 16, Type (0, 0), BuildingBlock: TEMPAE_clean_linker_10, # of connection points: 2
#     Edge 17, Type (0, 0), BuildingBlock: TEMPAE_clean_linker_10, # of connection points: 2
#     Edge 18, Type (0, 0), BuildingBlock: TEMPAE_clean_linker_10, # of connection points: 2
#     Edge 19, Type (0, 0), BuildingBlock: TEMPAE_clean_linker_10, # of connection points: 2
#     Edge 20, Type (0, 0), BuildingBlock: TEMPAE_clean_linker_10, # of connection points: 2
#     Edge 21, Type (0, 0), BuildingBlock: TEMPAE_clean_linker_10, # of connection points: 2
#     Edge 22, Type (0, 0), BuildingBlock: TEMPAE_clean_linker_10, # of connection points: 2
#     Edge 23, Type (0, 0), BuildingBlock: TEMPAE_clean_linker_10, # of connection points: 2
#     Edge 24, Type (0, 0), BuildingBlock: TEMPAE_clean_linker_10, # of connection points: 2
#     Edge 25, Type (0, 0), BuildingBlock: TEMPAE_clean_linker_10, # of connection points: 2
#     Edge 26, Type (0, 0), BuildingBlock: TEMPAE_clean_linker_10, # of connection points: 2
#     Edge 27, Type (0, 0), BuildingBlock: TEMPAE_clean_linker_10, # of connection points: 2
#     Edge 28, Type (0, 0), BuildingBlock: TEMPAE_clean_linker_10, # of connection points: 2
#     Edge 29, Type (0, 0), BuildingBlock: TEMPAE_clean_linker_10, # of connection points: 2
#     Edge 30, Type (0, 0), BuildingBlock: TEMPAE_clean_linker_10, # of connection points: 2
#     Edge 31, Type (0, 0), BuildingBlock: TEMPAE_clean_linker_10, # of connection points: 2
#     Edge 32, Type (0, 0), BuildingBlock: TEMPAE_clean_linker_10, # of connection points: 2
#     Edge 33, Type (0, 0), BuildingBlock: TEMPAE_clean_linker_10, # of connection points: 2
#     Edge 34, Type (0, 0), BuildingBlock: TEMPAE_clean_linker_10, # of connection points: 2
#     Edge 35, Type (0, 0), BuildingBlock: TEMPAE_clean_linker_10, # of connection points: 2
#     Edge 36, Type (0, 0), BuildingBlock: TEMPAE_clean_linker_10, # of connection points: 2
#     Edge 37, Type (0, 0), BuildingBlock: TEMPAE_clean_linker_10, # of connection points: 2
#     Edge 38, Type (0, 0), BuildingBlock: TEMPAE_clean_linker_10, # of connection points: 2
#     Edge 39, Type (0, 0), BuildingBlock: TEMPAE_clean_linker_10, # of connection points: 2
#     Edge 40, Type (0, 0), BuildingBlock: TEMPAE_clean_linker_10, # of connection points: 2
#     Edge 41, Type (0, 0), BuildingBlock: TEMPAE_clean_linker_10, # of connection points: 2
#     Edge 42, Type (0, 0), BuildingBlock: TEMPAE_clean_linker_10, # of connection points: 2
#     Edge 43, Type (0, 0), BuildingBlock: TEMPAE_clean_linker_10, # of connection points: 2
#     Edge 44, Type (0, 0), BuildingBlock: TEMPAE_clean_linker_10, # of connection points: 2
#     Edge 45, Type (0, 0), BuildingBlock: TEMPAE_clean_linker_10, # of connection points: 2
#     Edge 46, Type (0, 0), BuildingBlock: TEMPAE_clean_linker_10, # of connection points: 2
#     Edge 47, Type (0, 0), BuildingBlock: TEMPAE_clean_linker_10, # of connection points: 2
# Relax obj value: 0.161
# Max RMSD: 0.212
# Mean RMSD: 0.212
data_MOF--net-wjd--node1-FUNLAD_clean_sbu_0--edge1-TEMPAE_clean_linker_10
_symmetry_space_group_name_H-M    P1
_symmetry_Int_Tables_number       1
_symmetry_cell_setting            triclinic
loop_
_symmetry_equiv_pos_as_xyz
'x, y, z'
_cell_length_a     28.129921
_cell_length_b     28.126377
_cell_length_c     87.166402
_cell_angle_alpha  89.908699
_cell_angle_beta   90.008185
_cell_angle_gamma 119.96319
loop_
_atom_site_label
_atom_site_type_symbol
_atom_site_fract_x
_atom_site_fract_y
_atom_site_fract_z
_atom_type_partial_charge
C0 C 0.23917 0.96173 0.13878 0.0
N1 N 0.31237 0.04302 0.09771 0.0
C2 C 0.30079 0.99262 0.09262 0.0
C3 C 0.29585 0.98087 0.07695 0.0
C4 C 0.30461 0.02179 0.06617 0.0
C5 C 0.31698 0.0737 0.07179 0.0
C6 C 0.32 0.08321 0.08761 0.0
Zn7 Zn 0.31971 0.05738 0.12106 0.0
C8 C 0.25417 0.1048 0.13254 0.0
N9 N 0.33788 0.08535 0.16948 0.0
C10 C 0.33408 0.04376 0.17836 0.0
C11 C 0.34566 0.13286 0.17587 0.0
C12 C 0.34942 0.13957 0.19182 0.0
C13 C 0.34489 0.09689 0.20124 0.0
C14 C 0.33749 0.04868 0.19428 0.0
Zn15 Zn 0.33053 0.07321 0.14621 0.0
O16 O 0.25744 0.9759 0.12523 0.0
C17 C 0.40343 0.03496 0.13493 0.0
O18 O 0.26282 -0.00517 0.14976 0.0
H19 H 0.34852 0.16541 0.16861 0.0
H20 H 0.29543 0.9612 0.10073 0.0
H21 H 0.32818 0.00643 0.17309 0.0
O22 O 0.38253 0.03602 0.12208 0.0
O23 O 0.38436 0.04354 0.14712 0.0
H24 H 0.32906 0.12304 0.0918 0.0
O25 O 0.39657 0.15244 0.14233 0.0
O26 O 0.37958 0.13987 0.11757 0.0
O27 O 0.27867 0.10563 0.14484 0.0
O28 O 0.25986 0.08251 0.12051 0.0
C29 C 0.40564 0.17106 0.12872 0.0
H30 H 0.28494 0.93981 0.07342 0.0
H31 H 0.32518 0.10717 0.06409 0.0
H32 H 0.35479 0.17729 0.19672 0.0
H33 H 0.33469 0.0151 0.20108 0.0
C34 C 0.76432 0.58914 0.38891 0.0
N35 N 0.71642 0.63862 0.34912 0.0
C36 C 0.7558 0.63348 0.34146 0.0
C37 C 0.75407 0.62895 0.32546 0.0
C38 C 0.7116 0.63002 0.31725 0.0
C39 C 0.67085 0.63401 0.3255 0.0
C40 C 0.67403 0.63822 0.34148 0.0
Zn41 Zn 0.7223 0.65207 0.37238 0.0
C42 C 0.62203 0.5782 0.38873 0.0
N43 N 0.73688 0.68583 0.42052 0.0
C44 C 0.7815 0.6975 0.42927 0.0
C45 C 0.69142 0.68319 0.42687 0.0
C46 C 0.68937 0.69221 0.4425 0.0
C47 C 0.73473 0.7047 0.45187 0.0
C48 C 0.7813 0.70713 0.44506 0.0
Zn49 Zn 0.73349 0.6717 0.39728 0.0
O50 O 0.74397 0.59092 0.37603 0.0
C51 C 0.83585 0.73887 0.38093 0.0
O52 O 0.76503 0.61883 0.39997 0.0
H53 H 0.65631 0.67392 0.41978 0.0
H54 H 0.78931 0.63415 0.34773 0.0
H55 H 0.8173 0.69951 0.42402 0.0
O56 O 0.80579 0.70882 0.37009 0.0
O57 O 0.81512 0.73638 0.39409 0.0
H58 H 0.64308 0.64224 0.34776 0.0
O59 O 0.70461 0.72665 0.3941 0.0
O60 O 0.70388 0.71586 0.36921 0.0
O61 O 0.65296 0.60441 0.39993 0.0
O62 O 0.63926 0.59302 0.37513 0.0
C63 C 0.69892 0.74074 0.38071 0.0
H64 H 0.78659 0.62639 0.31956 0.0
H65 H 0.63697 0.63421 0.31966 0.0
H66 H 0.65212 0.68867 0.44721 0.0
H67 H 0.81739 0.71699 0.4518 0.0
C68 C 0.02526 0.27813 0.13597 0.0
N69 N 0.92579 0.25537 0.09801 0.0
C70 C 0.96922 0.30108 0.09196 0.0
C71 C 0.97839 0.30593 0.07617 0.0
C72 C 0.94307 0.263 0.06647 0.0
C73 C 0.89862 0.21609 0.07296 0.0
C74 C 0.89045 0.21326 0.08886 0.0
Zn75 Zn 0.91805 0.25161 0.12146 0.0
C76 C 0.88717 0.14202 0.13392 0.0
N77 N 0.91067 0.24721 0.17048 0.0
C78 C 0.95042 0.28927 0.17876 0.0
C79 C 0.86697 0.20448 0.17751 0.0
C80 C 0.86184 0.20323 0.19347 0.0
C81 C 0.90225 0.24615 0.20229 0.0
C82 C 0.94711 0.28946 0.19474 0.0
Zn83 Zn 0.91642 0.2495 0.14702 0.0
O84 O 0.00094 0.27196 0.12323 0.0
C85 C 0.94012 0.35745 0.13449 0.0
O86 O -8e-05 0.27441 0.14837 0.0
H87 H 0.83589 0.17134 0.17074 0.0
H88 H -0.00258 0.33375 0.0994 0.0
H89 H 0.98463 0.323 0.17294 0.0
O90 O 0.93922 0.3341 0.12197 0.0
O91 O 0.93304 0.33172 0.14704 0.0
H92 H 0.85621 0.17725 0.09389 0.0
O93 O 0.83212 0.22122 0.1452 0.0
O94 O 0.83452 0.22876 0.12002 0.0
O95 O 0.89754 0.16713 0.14665 0.0
O96 O 0.89336 0.16783 0.12144 0.0
C97 C 0.80761 0.21532 0.13251 0.0
H98 H 0.01355 0.34243 0.07163 0.0
H99 H 0.87036 0.18223 0.06581 0.0
H100 H 0.82689 0.1688 0.19887 0.0
H101 H 0.97885 0.32364 0.2011 0.0
C102 C 0.39384 0.17474 0.39005 0.0
N103 N 0.34524 0.08863 0.34866 0.0
C104 C 0.35128 0.13551 0.34225 0.0
C105 C 0.35724 0.14342 0.32638 0.0
C106 C 0.35713 0.10278 0.317 0.0
C107 C 0.35222 0.05547 0.32398 0.0
C108 C 0.34623 0.04917 0.33988 0.0
Zn109 Zn 0.32992 0.0746 0.37168 0.0
C110 C 0.4003 0.04136 0.38682 0.0
N111 N 0.29269 0.04441 0.41934 0.0
C112 C 0.28104 0.076 0.42869 0.0
C113 C 0.29532 0.00059 0.42495 0.0
C114 C 0.28749 0.98783 0.44052 0.0
C115 C 0.27612 0.01997 0.45048 0.0
C116 C 0.27218 0.06418 0.4444 0.0
Zn117 Zn 0.30818 0.06031 0.39635 0.0
O118 O 0.39254 0.15531 0.37679 0.0
C119 C 0.2439 0.10126 0.38134 0.0
O120 O 0.36241 0.14377 0.40059 0.0
H121 H 0.30393 0.97551 0.41735 0.0
H122 H 0.35044 0.16642 0.34943 0.0
H123 H 0.27912 0.11063 0.424 0.0
O124 O 0.27497 0.10395 0.37042 0.0
O125 O 0.24476 0.07932 0.39402 0.0
H126 H 0.34108 0.0121 0.34518 0.0
O127 O 0.25226 0.97791 0.39169 0.0
O128 O 0.2649 -0.0056 0.36702 0.0
O129 O 0.37396 0.04455 0.39823 0.0
O130 O 0.38683 0.04753 0.37338 0.0
C131 C 0.2387 0.96193 0.37797 0.0
H132 H 0.36152 0.18079 0.32149 0.0
H133 H 0.35123 0.02277 0.31719 0.0
H134 H 0.29014 0.95298 0.44475 0.0
H135 H 0.26365 0.09001 0.45177 0.0
C136 C 0.69944 0.73773 0.13468 0.0
N137 N 0.73719 0.67442 0.09722 0.0
C138 C 0.69087 0.66928 0.09071 0.0
C139 C 0.68957 0.68024 0.07521 0.0
C140 C 0.73658 0.69747 0.06614 0.0
C141 C 0.78366 0.70123 0.07299 0.0
C142 C 0.7831 0.68952 0.08867 0.0
Zn143 Zn 0.73424 0.66423 0.12063 0.0
C144 C 0.83544 0.73676 0.13639 0.0
N145 N 0.71675 0.643 0.16923 0.0
C146 C 0.67391 0.64132 0.17696 0.0
C147 C 0.75753 0.6401 0.17682 0.0
C148 C 0.75665 0.63617 0.19281 0.0
C149 C 0.71328 0.63496 0.20112 0.0
C150 C 0.67127 0.63714 0.19297 0.0
Zn151 Zn 0.72174 0.65215 0.1458 0.0
O152 O 0.70508 0.71829 0.12217 0.0
C153 C 0.62257 0.57374 0.12997 0.0
O154 O 0.70295 0.71672 0.14726 0.0
H155 H 0.79116 0.6413 0.17049 0.0
H156 H 0.65488 0.65789 0.09764 0.0
H157 H 0.64203 0.64388 0.17072 0.0
O158 O 0.65473 0.59697 0.11875 0.0
O159 O 0.63841 0.59186 0.14345 0.0
H160 H 0.81965 0.69376 0.09406 0.0
O161 O 0.74389 0.59057 0.14378 0.0
O162 O 0.76614 0.61165 0.11946 0.0
O163 O 0.80545 0.70992 0.14767 0.0
O164 O 0.81491 0.72983 0.12304 0.0
C165 C 0.76454 0.585 0.1314 0.0
H166 H 0.65196 0.67554 0.07039 0.0
H167 H 0.82089 0.71452 0.06643 0.0
H168 H 0.78952 0.63389 0.1986 0.0
H169 H 0.63735 0.63687 0.19893 0.0
C170 C 0.80183 0.22365 0.39038 0.0
N171 N 0.89217 0.25697 0.34976 0.0
C172 C 0.84737 0.21533 0.34283 0.0
C173 C 0.84275 0.21344 0.32684 0.0
C174 C 0.88441 0.25504 0.31793 0.0
C175 C 0.92934 0.2983 0.32542 0.0
C176 C 0.93252 0.29835 0.3414 0.0
Zn177 Zn 0.90276 0.25574 0.37299 0.0
C178 C 0.93842 0.36136 0.38758 0.0
N179 N 0.92762 0.2507 0.42137 0.0
C180 C 0.88709 0.2165 0.43114 0.0
C181 C 0.97761 0.28906 0.4268 0.0
C182 C 0.98855 0.29399 0.44249 0.0
C183 C 0.94713 0.26064 0.45297 0.0
C184 C 0.89579 0.22117 0.44703 0.0
Zn185 Zn 0.91483 0.24981 0.39805 0.0
O186 O 0.82207 0.23893 0.37705 0.0
C187 C 0.87148 0.1427 0.38368 0.0
O188 O 0.83191 0.22496 0.40141 0.0
H189 H 0.00922 0.31672 0.419 0.0
H190 H 0.81568 0.18287 0.34967 0.0
H191 H 0.84752 0.18627 0.42668 0.0
O192 O 0.87215 0.171 0.37224 0.0
O193 O 0.89145 0.16586 0.39646 0.0
H194 H 0.96803 0.33081 0.34711 0.0
O195 O -0.00344 0.27152 0.39394 0.0
O196 O 0.9828 0.2697 0.36917 0.0
O197 O 0.93514 0.33293 0.39931 0.0
O198 O 0.9308 0.33995 0.37435 0.0
C199 C 0.01379 0.27441 0.38034 0.0
H200 H 0.80717 0.17963 0.3215 0.0
H201 H 0.96266 0.33084 0.31898 0.0
H202 H 0.0293 0.32405 0.44629 0.0
H203 H 0.86206 0.19489 0.45452 0.0
C204 C 0.16757 0.39739 0.63229 0.0
N205 N 0.07158 0.31714 0.67067 0.0
C206 C 0.11525 0.31618 0.67707 0.0
C207 C 0.1207 0.31646 0.69303 0.0
C208 C 0.08054 0.31721 0.70244 0.0
C209 C 0.03597 0.3181 0.69551 0.0
C210 C 0.03239 0.31824 0.67957 0.0
Zn211 Zn 0.06277 0.31778 0.64738 0.0
C212 C 0.03482 0.40338 0.63828 0.0
N213 N 0.04467 0.3243 0.59886 0.0
C214 C 0.08613 0.33363 0.58907 0.0
C215 C -0.00565 0.31171 0.59345 0.0
C216 C 0.98353 0.30594 0.57774 0.0
C217 C 0.02528 0.3148 0.56728 0.0
C218 C 0.07753 0.32983 0.57321 0.0
Zn219 Zn 0.0553 0.32459 0.62221 0.0
O220 O 0.14614 0.37342 0.64485 0.0
C221 C 0.09109 0.24492 0.63127 0.0
O222 O 0.13783 0.38864 0.62048 0.0
H223 H 0.96192 0.30488 0.60136 0.0
H224 H 0.14593 0.31526 0.66979 0.0
H225 H 0.12584 0.3434 0.59355 0.0
O226 O 0.08068 0.25431 0.64474 0.0
O227 O 0.08396 0.26867 0.61982 0.0
H228 H -0.00176 0.31948 0.67428 0.0
O229 O 0.97367 0.25813 0.62453 0.0
O230 O 0.98032 0.26023 0.64956 0.0
O231 O 0.03005 0.38304 0.62498 0.0
O232 O 0.04719 0.38289 0.64952 0.0
C233 C 0.95253 0.23875 0.63755 0.0
H234 H 0.15555 0.31547 0.69795 0.0
H235 H 0.00457 0.31954 0.70235 0.0
H236 H 0.94227 0.2933 0.57395 0.0
H237 H 0.11162 0.33845 0.56573 0.0
C238 C 0.28497 0.03356 0.88236 0.0
N239 N 0.27447 0.93404 0.91964 0.0
C240 C 0.31268 0.98309 0.92563 0.0
C241 C 0.31721 0.99137 0.94147 0.0
C242 C 0.28323 0.94834 0.95148 0.0
C243 C 0.24541 0.89742 0.94495 0.0
C244 C 0.24126 0.89137 0.92898 0.0
Zn245 Zn 0.26557 0.92769 0.89612 0.0
C246 C 0.15111 0.89494 0.88681 0.0
N247 N 0.24527 0.9206 0.84739 0.0
C248 C 0.28686 0.96082 0.83906 0.0
C249 C 0.2005 0.87918 0.84038 0.0
C250 C 0.1965 0.87724 0.82435 0.0
C251 C 0.2388 0.91853 0.8155 0.0
C252 C 0.28441 0.96064 0.82308 0.0
Zn253 Zn 0.25291 0.92472 0.87085 0.0
O254 O 0.28202 0.00993 0.89504 0.0
C255 C 0.36523 0.94906 0.8801 0.0
O256 O 0.27919 0.00789 0.86994 0.0
H257 H 0.16784 0.84762 0.8472 0.0
H258 H 0.33914 0.01652 0.91809 0.0
H259 H 0.32229 0.9932 0.84481 0.0
O260 O 0.3491 0.95215 0.89349 0.0
O261 O 0.33326 0.93914 0.86877 0.0
H262 H 0.21098 0.85268 0.92405 0.0
O263 O 0.2237 0.84065 0.87218 0.0
O264 O 0.24578 0.8446 0.89658 0.0
O265 O 0.17179 0.90761 0.87345 0.0
O266 O 0.18114 0.89976 0.89827 0.0
C267 C 0.22507 0.81693 0.88443 0.0
H268 H 0.34631 0.03177 0.94571 0.0
H269 H 0.21902 0.86242 0.95204 0.0
H270 H 0.16044 0.84422 0.81896 0.0
H271 H 0.31833 0.9928 0.81671 0.0
C272 C 0.58145 0.76272 0.6325 0.0
N273 N 0.65068 0.72377 0.66969 0.0
C274 C 0.64856 0.76455 0.67749 0.0
C275 C 0.64886 0.765 0.69353 0.0
C276 C 0.65149 0.72315 0.70165 0.0
C277 C 0.65305 0.6813 0.69328 0.0
C278 C 0.65258 0.6824 0.67726 0.0
Zn279 Zn 0.65322 0.72513 0.64613 0.0
C280 C 0.5714 0.62104 0.63272 0.0
N281 N 0.66248 0.72952 0.59705 0.0
C282 C 0.67505 0.77532 0.58871 0.0
C283 C 0.65618 0.68336 0.59012 0.0
C284 C 0.66303 0.68217 0.5743 0.0
C285 C 0.6772 0.72912 0.56545 0.0
C286 C 0.68294 0.77611 0.57283 0.0
Zn287 Zn 0.65819 0.72921 0.62062 0.0
O288 O 0.59133 0.74682 0.64516 0.0
C289 C 0.73385 0.83532 0.63442 0.0
O290 O 0.60397 0.75973 0.62019 0.0
H291 H 0.6471 0.64763 0.59692 0.0
H292 H 0.64728 0.7972 0.67127 0.0
H293 H 0.67999 0.81165 0.59441 0.0
O294 O 0.71077 0.80844 0.64649 0.0
O295 O 0.72328 0.81124 0.62152 0.0
H296 H 0.65411 0.65029 0.67085 0.0
O297 O 0.71425 0.70165 0.62143 0.0
O298 O 0.7172 0.70612 0.64652 0.0
O299 O 0.591 0.64795 0.62038 0.0
O300 O 0.59338 0.64264 0.64546 0.0
C301 C 0.73561 0.69886 0.63396 0.0
H302 H 0.64821 0.79841 0.6995 0.0
H303 H 0.65434 0.64784 0.69905 0.0
H304 H 0.65889 0.64533 0.5691 0.0
H305 H 0.69346 0.81304 0.56638 0.0
C306 C 0.96311 0.24877 0.88374 0.0
N307 N 0.05775 0.32501 0.92202 0.0
C308 C 0.01584 0.33056 0.92779 0.0
C309 C 0.0042 0.32423 0.94345 0.0
C310 C 0.03531 0.31107 0.95338 0.0
C311 C 0.07907 0.30656 0.94716 0.0
C312 C 0.08974 0.31392 0.93139 0.0
Zn313 Zn 0.06708 0.32849 0.89863 0.0
C314 C 0.10288 0.25454 0.88677 0.0
N315 N 0.0803 0.33519 0.84982 0.0
C316 C 0.03963 0.33419 0.84113 0.0
C317 C 0.12483 0.33658 0.84321 0.0
C318 C 0.12934 0.33638 0.82726 0.0
C319 C 0.08784 0.33514 0.81802 0.0
C320 C 0.04267 0.33432 0.82515 0.0
Zn321 Zn 0.07313 0.33297 0.8732 0.0
O322 O 0.98406 0.27039 0.89656 0.0
C323 C 0.04557 0.41328 0.88468 0.0
O324 O 0.99135 0.26781 0.87159 0.0
H325 H 0.15681 0.33754 0.85032 0.0
H326 H 0.99051 0.33891 0.92018 0.0
H327 H 0.00446 0.33279 0.84661 0.0
O328 O 0.0509 0.39455 0.89745 0.0
O329 O 0.04842 0.39112 0.87232 0.0
H330 H 0.12277 0.30949 0.92659 0.0
O331 O 0.15542 0.39625 0.87531 0.0
O332 O 0.1512 0.38444 0.90037 0.0
O333 O 0.10074 0.27696 0.87437 0.0
O334 O 0.08636 0.26479 0.89923 0.0
C335 C 0.17878 0.40708 0.88833 0.0
H336 H 0.97085 0.32933 0.94769 0.0
H337 H 0.10392 0.29599 0.9543 0.0
H338 H 0.16508 0.33756 0.8222 0.0
H339 H 0.00948 0.33269 0.81844 0.0
C340 C 0.21165 0.80644 0.63273 0.0
N341 N 0.2458 0.92207 0.6675 0.0
C342 C 0.20115 0.88205 0.67496 0.0
C343 C 0.19876 0.88117 0.69097 0.0
C344 C 0.24281 0.9217 0.69944 0.0
C345 C 0.28845 0.96249 0.69144 0.0
C346 C 0.28904 0.96197 0.6754 0.0
Zn347 Zn 0.24722 0.92082 0.64396 0.0
C348 C 0.35321 0.93875 0.63157 0.0
N349 N 0.24683 0.91218 0.59498 0.0
C350 C 0.20272 0.87672 0.58644 0.0
C351 C 0.29182 0.95437 0.58825 0.0
C352 C 0.29314 0.96321 0.5725 0.0
C353 C 0.24731 0.92907 0.56345 0.0
C354 C 0.20204 0.88453 0.57058 0.0
Zn355 Zn 0.24556 0.91099 0.61856 0.0
O356 O 0.21846 0.83594 0.64446 0.0
C357 C 0.13778 0.88514 0.6309 0.0
O358 O 0.224 0.82809 0.61946 0.0
H359 H 0.32625 0.9827 0.59518 0.0
H360 H 0.1673 0.85047 0.6685 0.0
H361 H 0.16717 0.8436 0.59199 0.0
O362 O 0.16455 0.90198 0.64334 0.0
O363 O 0.16205 0.88544 0.61862 0.0
H364 H 0.32408 0.99345 0.66925 0.0
O365 O 0.26445 0.99299 0.61804 0.0
O366 O 0.27276 0.00509 0.64293 0.0
O367 O 0.32794 0.93324 0.61907 0.0
O368 O 0.32963 0.93687 0.6442 0.0
C369 C 0.27294 0.02355 0.6296 0.0
H370 H 0.1631 0.84855 0.69665 0.0
H371 H 0.32307 -0.00518 0.69752 0.0
H372 H 0.32951 -0.00274 0.56752 0.0
H373 H 0.16565 0.85725 0.5641 0.0
C374 C 0.74812 0.71044 0.88738 0.0
N375 N 0.66679 0.74047 0.92229 0.0
C376 C 0.66404 0.69568 0.92918 0.0
C377 C 0.67 0.69425 0.945 0.0
C378 C 0.6798 0.73966 0.95391 0.0
C379 C 0.68218 0.7854 0.94662 0.0
C380 C 0.67514 0.7848 0.93069 0.0
Zn381 Zn 0.66481 0.73961 0.89872 0.0
C382 C 0.74498 0.84562 0.88516 0.0
N383 N 0.66899 0.73251 0.84972 0.0
C384 C 0.66559 0.68839 0.8423 0.0
C385 C 0.67144 0.77538 0.84177 0.0
C386 C 0.67035 0.77487 0.82575 0.0
C387 C 0.66661 0.72978 0.81776 0.0
C388 C 0.66428 0.68614 0.82626 0.0
Zn389 Zn 0.66919 0.7345 0.87327 0.0
O390 O 0.72727 0.7201 0.89902 0.0
C391 C 0.58305 0.63039 0.88702 0.0
O392 O 0.7286 0.70955 0.87416 0.0
H393 H 0.67386 0.80999 0.84786 0.0
H394 H 0.65881 0.66135 0.92236 0.0
H395 H 0.66375 0.65477 0.84882 0.0
O396 O 0.60453 0.65763 0.89912 0.0
O397 O 0.60308 0.65184 0.87405 0.0
H398 H 0.67759 0.82018 0.92501 0.0
O399 O 0.61257 0.76276 0.87289 0.0
O400 O 0.60369 0.76157 0.89804 0.0
O401 O 0.73263 0.81748 0.87292 0.0
O402 O 0.72316 0.82287 0.89781 0.0
C403 C 0.59188 0.77148 0.88477 0.0
H404 H 0.66878 0.65858 0.95015 0.0
H405 H 0.68956 0.82118 0.95316 0.0
H406 H 0.6715 0.80908 0.81969 0.0
H407 H 0.662 0.65084 0.82059 0.0
C408 C 0.10586 0.2823 0.12281 0.0
C409 C 0.07605 0.27511 0.13635 0.0
C410 C 0.14293 0.26286 0.1217 0.0
C411 C 0.14909 0.23466 0.1343 0.0
C412 C 0.12297 0.23187 0.14842 0.0
C413 C 0.08734 0.25298 0.14934 0.0
C414 C 0.17195 0.26859 0.10666 0.0
C415 C 0.12832 0.20187 0.16211 0.0
C416 C 0.17377 0.11612 0.12664 0.0
C417 C 0.22765 0.13809 0.13179 0.0
C418 C 0.14788 0.14772 0.12713 0.0
C419 C 0.17761 0.20283 0.13235 0.0
C420 C 0.23311 0.22583 0.13676 0.0
C421 C 0.25717 0.19274 0.13669 0.0
C422 C 0.08818 0.12151 0.12263 0.0
C423 C 0.2667 0.28493 0.1418 0.0
H424 H 0.09761 0.29989 0.11278 0.0
H425 H 0.06448 0.24734 0.15985 0.0
H426 H 0.21522 0.27952 0.10862 0.0
H427 H 0.15137 0.2288 0.1005 0.0
H428 H 0.17128 0.30022 0.09916 0.0
H429 H 0.10924 0.20756 0.17259 0.0
H430 H 0.10801 0.15732 0.15955 0.0
H431 H 0.17208 0.21608 0.16456 0.0
H432 H 0.15138 0.07377 0.12286 0.0
H433 H 0.29931 0.20962 0.14047 0.0
H434 H 0.08303 0.14554 0.11334 0.0
H435 H 0.06362 0.12158 0.13259 0.0
H436 H 0.07127 0.07852 0.11866 0.0
H437 H 0.26611 0.31242 0.13275 0.0
H438 H 0.31004 0.29695 0.14424 0.0
H439 H 0.2486 0.29178 0.15228 0.0
C440 C 0.15445 0.91179 0.36228 0.0
C441 C 0.18475 0.91304 0.37519 0.0
C442 C 0.09732 0.87788 0.36197 0.0
C443 C 0.07044 0.84365 0.37471 0.0
C444 C 0.10159 0.83984 0.3869 0.0
C445 C 0.15855 0.87501 0.38706 0.0
C446 C 0.06545 0.88297 0.34874 0.0
C447 C 0.07445 0.80229 0.40043 0.0
C448 C 0.9292 0.81917 0.38535 0.0
C449 C 0.89554 0.76757 0.3789 0.0
C450 C 0.98642 0.84488 0.3838 0.0
C451 C 0.01002 0.81712 0.37613 0.0
C452 C 0.97596 0.76443 0.36989 0.0
C453 C 0.919 0.74064 0.37114 0.0
C454 C 0.02161 0.90164 0.39037 0.0
C455 C -0.00038 0.73275 0.36218 0.0
H456 H 0.17447 0.94111 0.35307 0.0
H457 H 0.18198 0.87554 0.397 0.0
H458 H 0.03354 0.84191 0.34469 0.0
H459 H 0.04419 0.90508 0.35265 0.0
H460 H 0.09246 0.90586 0.33892 0.0
H461 H 0.10442 0.79707 0.40749 0.0
H462 H 0.05494 0.81984 0.40781 0.0
H463 H 0.04172 0.76131 0.39656 0.0
H464 H 0.91075 0.83954 0.39142 0.0
H465 H 0.89269 0.69995 0.36649 0.0
H466 H 0.04836 0.93015 0.38128 0.0
H467 H 0.04881 0.90059 0.39942 0.0
H468 H -0.00327 0.91838 0.39541 0.0
H469 H 0.02591 0.75654 0.35237 0.0
H470 H 0.96726 0.69208 0.35795 0.0
H471 H 0.02604 0.72627 0.37039 0.0
C472 C 0.87515 0.05015 0.13987 0.0
C473 C 0.85453 0.08228 0.13391 0.0
C474 C 0.84203 0.99283 0.14033 0.0
C475 C 0.78649 0.96812 0.13551 0.0
C476 C 0.76523 0.00105 0.13003 0.0
C477 C 0.80007 0.05778 0.12892 0.0
C478 C 0.86688 0.95873 0.14552 0.0
C479 C 0.70578 0.97645 0.1254 0.0
C480 C 0.7257 0.82383 0.12071 0.0
C481 C 0.70568 0.79302 0.13427 0.0
C482 C 0.75084 0.88091 0.12089 0.0
C483 C 0.75255 0.90763 0.13475 0.0
C484 C 0.72596 0.87641 0.14801 0.0
C485 C 0.70388 0.81923 0.14773 0.0
C486 C 0.78029 0.91264 0.10661 0.0
C487 C 0.72391 0.90358 0.1627 0.0
H488 H 0.91732 0.06975 0.1438 0.0
H489 H 0.78441 0.08332 0.12448 0.0
H490 H 0.84471 0.93404 0.15573 0.0
H491 H 0.86262 0.9296 0.13632 0.0
H492 H 0.91105 0.98434 0.14845 0.0
H493 H 0.69581 0.00809 0.12151 0.0
H494 H 0.69564 0.94635 0.11601 0.0
H495 H 0.679 0.95383 0.13527 0.0
H496 H 0.72688 0.80403 0.11016 0.0
H497 H 0.68794 0.79562 0.1582 0.0
H498 H 0.82506 0.9367 0.10888 0.0
H499 H 0.76677 0.94219 0.10343 0.0
H500 H 0.77338 0.88539 0.09663 0.0
H501 H 0.76449 0.92245 0.16843 0.0
H502 H 0.69267 0.87368 0.17077 0.0
H503 H 0.71449 0.93678 0.1603 0.0
C504 C 0.24074 0.1833 0.37281 0.0
C505 C 0.21443 0.13169 0.37994 0.0
C506 C 0.2156 0.21536 0.37202 0.0
C507 C 0.16225 0.19434 0.37808 0.0
C508 C 0.13518 0.1418 0.38513 0.0
C509 C 0.16217 0.11139 0.38624 0.0
C510 C 0.2464 0.27189 0.36492 0.0
C511 C 0.07772 0.11771 0.39147 0.0
C512 C 0.09967 0.28 0.3899 0.0
C513 C 0.06283 0.26942 0.37782 0.0
C514 C 0.13586 0.25942 0.38959 0.0
C515 C 0.13419 0.22685 0.37703 0.0
C516 C 0.10085 0.22054 0.36417 0.0
C517 C 0.06595 0.24261 0.36464 0.0
C518 C 0.1724 0.26864 0.40327 0.0
C519 C 0.09791 0.18593 0.35058 0.0
H520 H 0.28185 0.19935 0.36825 0.0
H521 H 0.14223 0.07152 0.39179 0.0
H522 H 0.22335 0.27454 0.35495 0.0
H523 H 0.25018 0.3031 0.37336 0.0
H524 H 0.28819 0.28249 0.36105 0.0
H525 H 0.06179 0.07553 0.39604 0.0
H526 H 0.07707 0.14407 0.40082 0.0
H527 H 0.04949 0.11639 0.38237 0.0
H528 H 0.09767 0.30121 0.40005 0.0
H529 H 0.03752 0.23428 0.35527 0.0
H530 H 0.21417 0.27888 0.39954 0.0
H531 H 0.15528 0.23041 0.41017 0.0
H532 H 0.17573 0.30209 0.41076 0.0
H533 H 0.13962 0.19689 0.34662 0.0
H534 H 0.07515 0.19053 0.3408 0.0
H535 H 0.07674 0.14208 0.35404 0.0
C536 C 0.15827 0.87572 0.12937 0.0
C537 C 0.18408 0.91399 0.14115 0.0
C538 C 0.10137 0.8401 0.12958 0.0
C539 C 0.06994 0.84413 0.14165 0.0
C540 C 0.09636 0.87924 0.15421 0.0
C541 C 0.15337 0.91319 0.15393 0.0
C542 C 0.07458 0.80129 0.11631 0.0
C543 C 0.06414 0.88506 0.16722 0.0
C544 C 0.92782 0.81685 0.13117 0.0
C545 C 0.895 0.76632 0.13831 0.0
C546 C 0.98511 0.84307 0.13237 0.0
C547 C 0.00953 0.81663 0.14032 0.0
C548 C 0.97628 0.76486 0.14724 0.0
C549 C 0.91922 0.74084 0.14642 0.0
C550 C 0.01945 0.89902 0.12517 0.0
C551 C 0.00085 0.73455 0.15527 0.0
H552 H 0.182 0.87583 0.11955 0.0
H553 H 0.17308 0.94261 0.16311 0.0
H554 H 0.04255 0.76036 0.12047 0.0
H555 H 0.0542 0.81748 0.10874 0.0
H556 H 0.10489 0.79629 0.10936 0.0
H557 H 0.09101 0.90971 0.17685 0.0
H558 H 0.04174 0.90556 0.16292 0.0
H559 H 0.03313 0.84425 0.17169 0.0
H560 H 0.90865 0.83599 0.12481 0.0
H561 H 0.89342 0.70097 0.15165 0.0
H562 H 0.04622 0.89714 0.11614 0.0
H563 H 0.04659 0.92879 0.13394 0.0
H564 H -0.00608 0.91476 0.11996 0.0
H565 H 0.03009 0.73073 0.14754 0.0
H566 H 0.9691 0.69279 0.15902 0.0
H567 H 0.02431 0.75797 0.16549 0.0
C568 C 0.69084 0.81851 0.39125 0.0
C569 C 0.70139 0.79396 0.37871 0.0
C570 C 0.71049 0.87514 0.39146 0.0
C571 C 0.74208 0.90769 0.37896 0.0
C572 C 0.7479 0.88232 0.36564 0.0
C573 C 0.72678 0.82545 0.3656 0.0
C574 C 0.7017 0.90056 0.40564 0.0
C575 C 0.78134 0.9157 0.35207 0.0
C576 C 0.78688 0.05862 0.37605 0.0
C577 C 0.8393 0.08282 0.38262 0.0
C578 C 0.75387 0.00152 0.3752 0.0
C579 C 0.77481 0.96816 0.38055 0.0
C580 C 0.82796 0.99257 0.38719 0.0
C581 C 0.85929 0.04989 0.38841 0.0
C582 C 0.69673 0.97703 0.36863 0.0
C583 C 0.85196 0.9582 0.39282 0.0
H584 H 0.67072 0.79414 0.40135 0.0
H585 H 0.73507 0.80672 0.35587 0.0
H586 H 0.74002 0.92031 0.41251 0.0
H587 H 0.6917 0.93284 0.40252 0.0
H588 H 0.66825 0.86946 0.41296 0.0
H589 H 0.77628 0.88957 0.34196 0.0
H590 H 0.7697 0.94658 0.34874 0.0
H591 H 0.82542 0.93829 0.35526 0.0
H592 H 0.77121 0.08452 0.37187 0.0
H593 H 0.89979 0.06902 0.39355 0.0
H594 H 0.6663 0.94705 0.37682 0.0
H595 H 0.69375 0.95443 0.35793 0.0
H596 H 0.68534 0.00876 0.36602 0.0
H597 H 0.82577 0.93006 0.40204 0.0
H598 H 0.89428 0.98366 0.39734 0.0
H599 H 0.85292 0.93244 0.38332 0.0
C600 C 0.27605 0.10767 0.64015 0.0
C601 C 0.26768 0.07284 0.62772 0.0
C602 C 0.25519 0.14375 0.63986 0.0
C603 C 0.22374 0.14314 0.62709 0.0
C604 C 0.21947 0.11169 0.614 0.0
C605 C 0.24272 0.07792 0.61434 0.0
C606 C 0.26313 0.17924 0.65367 0.0
C607 C 0.18518 0.10878 0.6003 0.0
C608 C 0.10428 0.16515 0.63589 0.0
C609 C 0.12229 0.21661 0.6293 0.0
C610 C 0.13676 0.14035 0.63501 0.0
C611 C 0.18949 0.16935 0.62814 0.0
C612 C 0.20818 0.22203 0.62178 0.0
C613 C 0.17358 0.24442 0.62209 0.0
C614 C 0.11457 0.0831 0.64137 0.0
C615 C 0.26494 0.25507 0.61497 0.0
H616 H 0.29593 0.10441 0.65044 0.0
H617 H 0.23632 0.0514 0.60461 0.0
H618 H 0.27215 0.22082 0.65009 0.0
H619 H 0.22484 0.16075 0.66056 0.0
H620 H 0.29697 0.18322 0.66113 0.0
H621 H 0.19103 0.08726 0.59043 0.0
H622 H 0.14115 0.08631 0.60357 0.0
H623 H 0.1951 0.15037 0.59652 0.0
H624 H 0.06466 0.14421 0.64155 0.0
H625 H 0.18754 0.28481 0.61723 0.0
H626 H 0.14045 0.08384 0.65107 0.0
H627 H 0.11596 0.05577 0.63243 0.0
H628 H 0.07161 0.06514 0.6455 0.0
H629 H 0.29614 0.25915 0.62347 0.0
H630 H 0.27425 0.29678 0.61138 0.0
H631 H 0.26914 0.23365 0.60485 0.0
C632 C 0.05807 0.88197 0.8825 0.0
C633 C 0.09154 0.86288 0.88843 0.0
C634 C 0.00082 0.84883 0.88304 0.0
C635 C 0.97724 0.79458 0.8889 0.0
C636 C 0.01128 0.77486 0.89455 0.0
C637 C 0.06817 0.8099 0.8946 0.0
C638 C 0.96565 0.87196 0.87744 0.0
C639 C 0.98776 0.71666 0.90027 0.0
C640 C 0.83195 0.7372 0.90265 0.0
C641 C 0.80258 0.71525 0.88899 0.0
C642 C 0.88896 0.76069 0.90304 0.0
C643 C 0.91682 0.75971 0.88967 0.0
C644 C 0.88669 0.73101 0.87651 0.0
C645 C 0.82971 0.70979 0.87622 0.0
C646 C 0.91957 0.79186 0.91722 0.0
C647 C 0.91501 0.72657 0.86234 0.0
H648 H 0.0767 0.92289 0.87762 0.0
H649 H 0.09464 0.79512 0.89891 0.0
H650 H 0.941 0.84814 0.86742 0.0
H651 H 0.93648 0.86833 0.88656 0.0
H652 H 0.99047 0.91578 0.87402 0.0
H653 H 0.9615 0.68742 0.89128 0.0
H654 H 0.02025 0.707 0.90348 0.0
H655 H 0.96133 0.70972 0.91043 0.0
H656 H 0.81129 0.74109 0.91266 0.0
H657 H 0.80715 0.69217 0.86571 0.0
H658 H 0.94098 0.83656 0.91474 0.0
H659 H 0.95126 0.78136 0.92053 0.0
H660 H 0.89171 0.78356 0.92715 0.0
H661 H 0.93474 0.76636 0.85613 0.0
H662 H 0.8857 0.69435 0.85441 0.0
H663 H 0.94771 0.71718 0.86546 0.0
C664 C 0.81243 0.92801 0.62844 0.0
C665 C 0.76088 0.89505 0.635 0.0
C666 C 0.83707 0.98534 0.62903 0.0
C667 C 0.80791 0.00935 0.63566 0.0
C668 C 0.75472 0.97574 0.64167 0.0
C669 C 0.73239 0.91887 0.64161 0.0
C670 C 0.89473 0.02015 0.62297 0.0
C671 C 0.72156 -0.00023 0.64822 0.0
C672 C 0.8977 0.15128 0.65145 0.0
C673 C 0.90375 0.18372 0.63855 0.0
C674 C 0.86458 0.09428 0.65088 0.0
C675 C 0.83495 0.06957 0.63732 0.0
C676 C 0.83558 0.10256 0.62496 0.0
C677 C 0.87089 0.15951 0.62561 0.0
C678 C 0.86577 0.06041 0.66421 0.0
C679 C 0.80211 0.07752 0.61066 0.0
H680 H 0.83388 0.90901 0.62327 0.0
H681 H 0.69192 0.89277 0.64644 0.0
H682 H 0.89532 0.04744 0.61369 0.0
H683 H 0.92198 0.04681 0.63226 0.0
H684 H 0.91189 -0.00502 0.61842 0.0
H685 H 0.67923 0.9676 0.65136 0.0
H686 H 0.74195 0.02422 0.6586 0.0
H687 H 0.71912 0.02801 0.63976 0.0
H688 H 0.92292 0.16972 0.66151 0.0
H689 H 0.87512 0.18457 0.61567 0.0
H690 H 0.88655 0.0375 0.6606 0.0
H691 H 0.82356 0.02974 0.6678 0.0
H692 H 0.88789 0.0861 0.67429 0.0
H693 H 0.82151 0.05879 0.60371 0.0
H694 H 0.79922 0.10864 0.60348 0.0
H695 H 0.76005 0.04449 0.61364 0.0
C696 C 0.11638 0.17578 0.8932 0.0
C697 C 0.13628 0.2282 0.88708 0.0
C698 C 0.14881 0.15079 0.89275 0.0
C699 C 0.20282 0.1803 0.88667 0.0
C700 C 0.2238 0.23448 0.88126 0.0
C701 C 0.1897 0.25733 0.88121 0.0
C702 C 0.12453 0.09215 0.89815 0.0
C703 C 0.28179 0.26789 0.87528 0.0
C704 C 0.28729 0.11325 0.89559 0.0
C705 C 0.27939 0.08285 0.88215 0.0
C706 C 0.26618 0.14892 0.89685 0.0
C707 C 0.2351 0.15243 0.88459 0.0
C708 C 0.23087 0.12525 0.8706 0.0
C709 C 0.25424 0.09174 0.86944 0.0
C710 C 0.27383 0.17971 0.91165 0.0
C711 C 0.1973 0.12728 0.85733 0.0
H712 H 0.07498 0.15377 0.89775 0.0
H713 H 0.20495 0.29835 0.87666 0.0
H714 H 0.12352 0.06597 0.8885 0.0
H715 H 0.1505 0.0894 0.90728 0.0
H716 H 0.08218 0.07528 0.90267 0.0
H717 H 0.29227 0.31027 0.87206 0.0
H718 H 0.3112 0.27019 0.88414 0.0
H719 H 0.2875 0.24781 0.86507 0.0
H720 H 0.30714 0.1068 0.90539 0.0
H721 H 0.24803 0.06844 0.859 0.0
H722 H 0.23518 0.15941 0.91837 0.0
H723 H 0.28358 0.22245 0.90932 0.0
H724 H 0.30706 0.18075 0.91878 0.0
H725 H 0.15347 0.10733 0.86075 0.0
H726 H 0.2006 0.1061 0.84698 0.0
H727 H 0.21046 0.17034 0.85422 0.0
C728 C 0.04536 0.87363 0.63551 0.0
C729 C 0.07823 0.85141 0.63155 0.0
C730 C 0.98818 0.83989 0.63624 0.0
C731 C 0.96437 0.78264 0.63359 0.0
C732 C -0.00193 0.76004 0.63015 0.0
C733 C 0.05468 0.79505 0.62886 0.0
C734 C 0.95321 0.86563 0.63946 0.0
C735 C 0.97447 0.69908 0.62791 0.0
C736 C 0.81736 0.70525 0.64717 0.0
C737 C 0.78975 0.70256 0.63352 0.0
C738 C 0.87438 0.72689 0.6472 0.0
C739 C 0.90399 0.74743 0.63335 0.0
C740 C 0.87564 0.73969 0.61936 0.0
C741 C 0.81862 0.71613 0.61958 0.0
C742 C 0.90323 0.73187 0.66221 0.0
C743 C 0.90579 0.76155 0.60435 0.0
H744 H 0.06426 0.91732 0.63768 0.0
H745 H 0.08087 0.77828 0.62599 0.0
H746 H 0.92407 0.8569 0.62985 0.0
H747 H 0.92853 0.84752 0.64999 0.0
H748 H 0.97817 0.91081 0.64097 0.0
H749 H 0.00656 0.68841 0.62513 0.0
H750 H 0.95293 0.67693 0.63852 0.0
H751 H 0.9437 0.68391 0.61855 0.0
H752 H 0.79515 0.69406 0.65795 0.0
H753 H 0.79754 0.71357 0.60894 0.0
H754 H 0.92253 0.77482 0.66635 0.0
H755 H 0.93631 0.72169 0.66071 0.0
H756 H 0.87433 0.70461 0.67117 0.0
H757 H 0.92849 0.8071 0.60464 0.0
H758 H 0.87751 0.748 0.59436 0.0
H759 H 0.93636 0.74817 0.60258 0.0
C760 C 0.89638 0.16391 0.89728 0.0
C761 C 0.9134 0.19408 0.88356 0.0
C762 C 0.86295 0.10686 0.89706 0.0
C763 C 0.84436 0.07978 0.88282 0.0
C764 C 0.85562 0.11063 0.86912 0.0
C765 C 0.89079 0.16765 0.86962 0.0
C766 C 0.85212 0.07534 0.91193 0.0
C767 C 0.83406 0.08313 0.85383 0.0
C768 C 0.82706 0.93742 0.88075 0.0
C769 C 0.77134 0.90514 0.88408 0.0
C770 C 0.85137 -0.00527 0.88009 0.0
C771 C 0.81834 0.01931 0.88226 0.0
C772 C 0.76149 0.98621 0.88504 0.0
C773 C 0.73887 0.9294 0.88619 0.0
C774 C 0.91254 0.02901 0.87757 0.0
C775 C 0.72465 0.01065 0.88683 0.0
H776 H 0.91328 0.18404 0.90814 0.0
H777 H 0.90327 0.19089 0.859 0.0
H778 H 0.80776 0.04546 0.91324 0.0
H779 H 0.87403 0.05167 0.91179 0.0
H780 H 0.86608 0.10275 0.9221 0.0
H781 H 0.83786 0.11295 0.84486 0.0
H782 H 0.85765 0.06329 0.85005 0.0
H783 H 0.79037 0.0506 0.85478 0.0
H784 H 0.85164 0.91797 0.8791 0.0
H785 H 0.69554 0.90368 0.88868 0.0
H786 H 0.93188 0.05688 0.88747 0.0
H787 H 0.92117 0.05507 0.86722 0.0
H788 H 0.93219 0.00347 0.87613 0.0
H789 H 0.74003 0.04187 0.89607 0.0
H790 H 0.68162 0.97908 0.88953 0.0
H791 H 0.7249 0.03181 0.87605 0.0
C792 C 0.32844 0.12739 0.29237 0.0
C793 C 0.3597 0.10838 0.30001 0.0
C794 C 0.32744 0.12932 0.27629 0.0
C795 C 0.35844 0.11183 0.26761 0.0
C796 C 0.39125 0.09403 0.27525 0.0
C797 C 0.39144 0.09248 0.29134 0.0
C798 C 0.29181 0.14838 0.26857 0.0
C799 C 0.42507 0.07527 0.2664 0.0
C800 C 0.31082 0.05743 0.22737 0.0
C801 C 0.34734 0.10193 0.21824 0.0
C802 C 0.31372 0.06039 0.24343 0.0
C803 C 0.35413 0.10909 0.25058 0.0
C804 C 0.39062 0.15452 0.24145 0.0
C805 C 0.38674 0.15043 0.22538 0.0
C806 C 0.27381 0.01114 0.25275 0.0
C807 C 0.43426 0.20709 0.24867 0.0
H808 H 0.30328 0.13911 0.29898 0.0
H809 H 0.41627 0.07847 0.29717 0.0
H810 H 0.31627 0.18144 0.26019 0.0
H811 H 0.25852 0.11389 0.26209 0.0
H812 H 0.27294 0.16387 0.27693 0.0
H813 H 0.45063 0.06546 0.27404 0.0
H814 H 0.39759 0.03813 0.25964 0.0
H815 H 0.45236 0.10749 0.25815 0.0
H816 H 0.27969 0.02015 0.22194 0.0
H817 H 0.41539 0.18478 0.21838 0.0
H818 H 0.25041 0.02274 0.26066 0.0
H819 H 0.29655 -0.00353 0.2599 0.0
H820 H 0.24426 0.97669 0.24543 0.0
H821 H 0.41518 0.22335 0.25668 0.0
H822 H 0.45847 0.23915 0.23998 0.0
H823 H 0.46271 0.19888 0.25549 0.0
C824 C 0.7224 0.59288 0.29208 0.0
C825 C 0.71068 0.62889 0.30018 0.0
C826 C 0.72219 0.59207 0.27596 0.0
C827 C 0.71035 0.62839 0.26773 0.0
C828 C 0.69845 0.66478 0.27584 0.0
C829 C 0.69867 0.66452 0.29194 0.0
C830 C 0.73474 0.55242 0.26772 0.0
C831 C 0.68609 0.70448 0.2675 0.0
C832 C 0.7606 0.66518 0.22657 0.0
C833 C 0.71251 0.63251 0.21818 0.0
C834 C 0.76053 0.66396 0.24268 0.0
C835 C 0.71122 0.62905 0.25062 0.0
C836 C 0.66262 0.59566 0.24223 0.0
C837 C 0.6638 0.59792 0.22611 0.0
C838 C 0.81312 0.70055 0.2512 0.0
C839 C 0.60931 0.55767 0.25027 0.0
H840 H 0.73119 0.56488 0.29837 0.0
H841 H 0.6904 0.69304 0.29811 0.0
H842 H 0.70011 0.52552 0.26007 0.0
H843 H 0.77156 0.57537 0.26037 0.0
H844 H 0.74222 0.52624 0.27579 0.0
H845 H 0.67706 0.72968 0.2755 0.0
H846 H 0.72155 0.73239 0.26022 0.0
H847 H 0.65035 0.68176 0.25979 0.0
H848 H 0.79822 0.69256 0.22053 0.0
H849 H 0.62665 0.57212 0.2197 0.0
H850 H 0.82369 0.67549 0.25879 0.0
H851 H 0.80757 0.72941 0.25864 0.0
H852 H 0.84814 0.72474 0.24332 0.0
H853 H 0.61463 0.52875 0.25777 0.0
H854 H 0.57541 0.53358 0.24208 0.0
H855 H 0.5972 0.58174 0.25775 0.0
C856 C 0.8475 0.23285 0.22623 0.0
C857 C 0.89757 0.246 0.21927 0.0
C858 C 0.84281 0.23354 0.24226 0.0
C859 C 0.88921 0.24729 0.25154 0.0
C860 C 0.93974 0.26014 0.24458 0.0
C861 C 0.94336 0.25954 0.22853 0.0
C862 C 0.78838 0.22007 0.24925 0.0
C863 C 0.99001 0.27449 0.2541 0.0
C864 C 0.89636 0.29939 0.29216 0.0
C865 C 0.88246 0.25231 0.30091 0.0
C866 C 0.89764 0.29806 0.27607 0.0
C867 C 0.88514 0.24856 0.26855 0.0
C868 C 0.87028 0.20069 0.27731 0.0
C869 C 0.86893 0.2031 0.29338 0.0
C870 C 0.91312 0.34982 0.26713 0.0
C871 C 0.85712 0.14726 0.26972 0.0
H872 H 0.81216 0.22297 0.21911 0.0
H873 H 0.98197 0.2691 0.22321 0.0
H874 H 0.77416 0.18466 0.25719 0.0
H875 H 0.79314 0.25539 0.25611 0.0
H876 H 0.75621 0.21005 0.24044 0.0
H877 H 0.02599 0.28277 0.24692 0.0
H878 H 0.00094 0.31133 0.26116 0.0
H879 H 0.9813 0.24039 0.26211 0.0
H880 H 0.9063 0.33737 0.29793 0.0
H881 H 0.85883 0.16678 0.30009 0.0
H882 H 0.88057 0.34222 0.25868 0.0
H883 H 0.95143 0.36239 0.26058 0.0
H884 H 0.91954 0.38433 0.27467 0.0
H885 H 0.82349 0.13518 0.26129 0.0
H886 H 0.84471 0.11338 0.27814 0.0
H887 H 0.89352 0.1525 0.26332 0.0
C888 C 0.03871 0.28377 0.72834 0.0
C889 C 0.08494 0.31773 0.71941 0.0
C890 C 0.04112 0.28596 0.74441 0.0
C891 C 0.0909 0.32328 0.75173 0.0
C892 C 0.13804 0.35694 0.74279 0.0
C893 C 0.13455 0.3536 0.72671 0.0
C894 C 0.9901 0.249 0.75354 0.0
C895 C 0.19173 0.39745 0.75019 0.0
C896 C 0.07802 0.36697 0.79198 0.0
C897 C 0.09105 0.33383 0.80104 0.0
C898 C 0.07895 0.36476 0.77591 0.0
C899 C 0.09291 0.32825 0.76873 0.0
C900 C 0.10682 0.2952 0.77781 0.0
C901 C 0.10589 0.29852 0.79387 0.0
C902 C 0.06428 0.40097 0.76662 0.0
C903 C 0.12146 0.25546 0.77057 0.0
H904 H 0.00049 0.25547 0.72273 0.0
H905 H 0.17022 0.38026 0.71984 0.0
H906 H -0.00129 0.22427 0.76183 0.0
H907 H 0.97736 0.2742 0.76028 0.0
H908 H 0.95532 0.22068 0.74611 0.0
H909 H 0.22509 0.4191 0.74165 0.0
H910 H 0.1865 0.42843 0.75669 0.0
H911 H 0.20453 0.37613 0.75852 0.0
H912 H 0.06721 0.39482 0.79748 0.0
H913 H 0.11543 0.27241 0.80083 0.0
H914 H 0.02699 0.37522 0.7597 0.0
H915 H 0.09791 0.42636 0.75849 0.0
H916 H 0.05649 0.42864 0.77395 0.0
H917 H 0.08599 0.22416 0.76391 0.0
H918 H 0.13318 0.23413 0.77923 0.0
H919 H 0.156 0.27737 0.76241 0.0
C920 C 0.21946 0.86909 0.7903 0.0
C921 C 0.23603 0.91785 0.79845 0.0
C922 C 0.21932 0.86864 0.77418 0.0
C923 C 0.23584 0.91808 0.76601 0.0
C924 C 0.25164 0.96721 0.77419 0.0
C925 C 0.25163 0.96651 0.79029 0.0
C926 C 0.20241 0.81547 0.76587 0.0
C927 C 0.26907 0.02067 0.76592 0.0
C928 C 0.28742 0.93083 0.72504 0.0
C929 C 0.24114 0.92109 0.7165 0.0
C930 C 0.28614 0.92964 0.74115 0.0
C931 C 0.23748 0.91869 0.74893 0.0
C932 C 0.19068 0.90898 0.74038 0.0
C933 C 0.19304 0.9102 0.72428 0.0
C934 C 0.33683 0.93994 0.74985 0.0
C935 C 0.13819 0.89761 0.74824 0.0
H936 H 0.2079 0.83148 0.79654 0.0
H937 H 0.26374 0.00418 0.79652 0.0
H938 H 0.16796 0.806 0.75794 0.0
H939 H 0.23708 0.81956 0.75881 0.0
H940 H 0.18955 0.78039 0.77389 0.0
H941 H 0.27891 0.05498 0.77396 0.0
H942 H 0.30579 0.0317 0.75877 0.0
H943 H 0.23599 0.01615 0.75808 0.0
H944 H 0.32448 0.93857 0.7191 0.0
H945 H 0.15734 0.90329 0.71776 0.0
H946 H 0.32726 0.9042 0.75729 0.0
H947 H 0.35059 0.97607 0.75745 0.0
H948 H 0.37121 0.94738 0.74209 0.0
H949 H 0.12316 0.86094 0.75573 0.0
H950 H 0.10535 0.89056 0.73994 0.0
H951 H 0.14601 0.9327 0.75571 0.0
C952 C 0.61977 0.73728 0.72732 0.0
C953 C 0.65334 0.72349 0.71873 0.0
C954 C 0.62141 0.73803 0.74343 0.0
C955 C 0.65755 0.72475 0.75117 0.0
C956 C 0.69149 0.71075 0.74258 0.0
C957 C 0.68898 0.71028 0.72648 0.0
C958 C 0.58442 0.75299 0.75218 0.0
C959 C 0.73075 0.69658 0.75039 0.0
C960 C 0.69894 0.77544 0.79209 0.0
C961 C 0.66476 0.72823 0.80068 0.0
C962 C 0.69708 0.77485 0.77599 0.0
C963 C 0.66012 0.72588 0.76825 0.0
C964 C 0.62565 0.67803 0.77684 0.0
C965 C 0.6284 0.67977 0.79294 0.0
C966 C 0.73471 0.82666 0.76724 0.0
C967 C 0.58559 0.62506 0.76902 0.0
H968 H 0.59165 0.74688 0.72143 0.0
H969 H 0.71563 0.70035 0.71994 0.0
H970 H 0.55721 0.71887 0.75995 0.0
H971 H 0.60943 0.7895 0.75944 0.0
H972 H 0.55852 0.76207 0.74446 0.0
H973 H 0.754 0.68612 0.74206 0.0
H974 H 0.76042 0.7317 0.75746 0.0
H975 H 0.7079 0.66122 0.75825 0.0
H976 H 0.72767 0.81284 0.79797 0.0
H977 H 0.60135 0.64332 0.79949 0.0
H978 H 0.71016 0.83893 0.76001 0.0
H979 H 0.76145 0.8192 0.75944 0.0
H980 H 0.7611 0.86132 0.77497 0.0
H981 H 0.55635 0.63138 0.76198 0.0
H982 H 0.56189 0.5914 0.77734 0.0
H983 H 0.60785 0.61198 0.76113 0.0
C984 C 0.23964 0.92896 0.9778 0.0
C985 C 0.28652 0.95715 0.9685 0.0
C986 C 0.24201 0.93782 0.99372 0.0
C987 C 0.29199 0.97723 1.00054 0.0
C988 C 0.33936 0.00609 0.99129 0.0
C989 C 0.33632 -0.00503 0.9755 0.0
C990 C 0.19089 0.90506 1.00325 0.0
C991 C 0.39322 0.04932 0.99804 0.0
C992 C 0.28398 0.03719 0.03896 0.0
C993 C 0.30127 0.01039 0.04928 0.0
C994 C 0.28153 0.02739 0.02308 0.0
C995 C 0.2948 0.98839 0.01734 0.0
C996 C 0.31129 0.96043 0.02764 0.0
C997 C 0.31535 0.9725 0.04338 0.0
C998 C 0.26508 0.05912 0.01244 0.0
C999 C 0.32456 0.91757 0.02204 0.0
H1000 H 0.20058 0.90042 0.97266 0.0
H1001 H 0.37332 0.01615 0.96868 0.0
H1002 H 0.19941 0.88418 0.01278 0.0
H1003 H 0.17814 0.93288 1.00847 0.0
H1004 H 0.15615 0.87364 0.99637 0.0
H1005 H 0.4257 0.06976 0.98919 0.0
H1006 H 0.38755 0.08103 1.00397 0.0
H1007 H 0.40767 0.0306 1.00674 0.0
H1008 H 0.27185 0.06569 0.04323 0.0
H1009 H 0.33012 0.95233 0.05102 0.0
H1010 H 0.2268 0.03053 1.0063 0.0
H1011 H 0.29739 0.08085 1.00364 0.0
H1012 H 0.25834 0.08974 0.01864 0.0
H1013 H 0.2896 0.88578 0.01533 0.0
H1014 H 0.3336 0.89718 0.03161 0.0
H1015 H 0.36061 0.93669 0.01428 0.0
C1016 C 0.70595 0.74225 0.47387 0.0
C1017 C 0.73238 0.71417 0.46862 0.0
C1018 C 0.69887 0.74739 0.4896 0.0
C1019 C 0.7194 0.72461 0.50043 0.0
C1020 C 0.74803 0.69812 0.49526 0.0
C1021 C 0.75399 0.69301 0.47943 0.0
C1022 C 0.66799 0.77585 0.49462 0.0
C1023 C 0.77098 0.67374 0.50646 0.0
C1024 C 0.73412 0.7724 0.54192 0.0
C1025 C 0.68723 0.72907 0.54871 0.0
C1026 C 0.74541 0.77139 0.52624 0.0
C1027 C 0.70857 0.72628 0.51711 0.0
C1028 C 0.66078 0.6828 0.52388 0.0
C1029 C 0.65087 0.68459 0.5396 0.0
C1030 C 0.79706 0.81825 0.51949 0.0
C1031 C 0.62003 0.63434 0.51451 0.0
H1032 H 0.69016 0.75984 0.46565 0.0
H1033 H 0.77407 0.67088 0.47552 0.0
H1034 H 0.63017 0.7464 0.50084 0.0
H1035 H 0.69333 0.80967 0.50267 0.0
H1036 H 0.65625 0.79298 0.48478 0.0
H1037 H 0.79558 0.65805 0.50066 0.0
H1038 H 0.79723 0.7049 0.51506 0.0
H1039 H 0.7369 0.63936 0.51278 0.0
H1040 H 0.7627 0.80653 0.54896 0.0
H1041 H 0.61432 0.65124 0.54477 0.0
H1042 H 0.78656 0.83759 0.50998 0.0
H1043 H 0.82294 0.80252 0.51459 0.0
H1044 H 0.82153 0.85022 0.52814 0.0
H1045 H 0.60426 0.64865 0.50495 0.0
H1046 H 0.58467 0.60414 0.52148 0.0
H1047 H 0.64051 0.61321 0.50934 0.0
C1048 C 0.96615 0.27451 0.97476 0.0
C1049 C 0.02125 0.30119 0.97001 0.0
C1050 C 0.95204 0.26657 0.99037 0.0
C1051 C -0.00607 0.2848 1.00156 0.0
C1052 C 0.04955 0.3105 0.99688 0.0
C1053 C 0.06257 0.31872 0.98118 0.0
C1054 C 0.89226 0.23935 0.99488 0.0
C1055 C 0.09538 0.33002 1.00848 0.0
C1056 C 0.96442 0.31507 0.04178 0.0
C1057 C 0.95358 0.26729 0.04972 0.0
C1058 C 0.97701 0.321 0.02608 0.0
C1059 C 0.97959 0.27842 0.01816 0.0
C1060 C 0.96841 0.22993 0.0261 0.0
C1061 C 0.95509 0.22476 0.04178 0.0
C1062 C 0.98769 0.37292 0.01797 0.0
C1063 C 0.97145 0.18396 0.0181 0.0
H1064 H 0.93377 0.2596 0.96626 0.0
H1065 H 0.10524 0.33986 0.97769 0.0
H1066 H 0.88094 0.2022 1.00188 0.0
H1067 H 0.8851 0.26768 1.00208 0.0
H1068 H 0.86461 0.22728 0.98477 0.0
H1069 H 0.13625 0.34657 1.00297 0.0
H1070 H 0.09582 0.36261 0.01574 0.0
H1071 H 0.08851 0.29576 0.01621 0.0
H1072 H 0.96282 0.34779 0.04789 0.0
H1073 H 0.94731 0.18805 0.04795 0.0
H1074 H 0.95902 0.36271 1.00817 0.0
H1075 H 0.02994 0.39434 0.01322 0.0
H1076 H 0.98286 0.40157 0.0257 0.0
H1077 H 0.94262 0.16884 1.00827 0.0
H1078 H 0.96147 0.14891 0.0259 0.0
H1079 H 0.01333 0.19939 0.01342 0.0
C1080 C 0.22424 0.00256 0.47519 0.0
C1081 C 0.26966 0.00759 0.46714 0.0
C1082 C 0.21688 0.98844 0.49084 0.0
C1083 C 0.25639 0.98014 0.49862 0.0
C1084 C 0.3027 0.98597 0.49055 0.0
C1085 C 0.30856 -0.00074 0.4749 0.0
C1086 C 0.16666 0.98193 0.49901 0.0
C1087 C 0.3463 0.97852 0.49848 0.0
C1088 C 0.2705 -0.00377 0.54186 0.0
C1089 C 0.24661 0.94151 0.54685 0.0
C1090 C 0.27307 0.00928 0.52624 0.0
C1091 C 0.2503 0.96659 0.51528 0.0
C1092 C 0.22434 0.9112 0.52022 0.0
C1093 C 0.22306 0.89931 0.53594 0.0
C1094 C 0.30144 0.06887 0.52145 0.0
C1095 C 0.19908 0.86454 0.50887 0.0
H1096 H 0.19391 0.00851 0.46916 0.0
H1097 H 0.344 0.00369 0.46871 0.0
H1098 H 0.14299 0.94004 0.50394 0.0
H1099 H 0.17907 0.01129 0.50869 0.0
H1100 H 0.13937 0.98892 0.49126 0.0
H1101 H 0.37992 0.98477 0.49057 0.0
H1102 H 0.36421 0.008 0.50812 0.0
H1103 H 0.32782 0.93664 0.50343 0.0
H1104 H 0.28751 0.02917 0.55019 0.0
H1105 H 0.20478 0.85696 0.53963 0.0
H1106 H 0.2733 0.07711 0.51449 0.0
H1107 H 0.33742 0.07836 0.51414 0.0
H1108 H 0.31571 0.09716 0.53143 0.0
H1109 H 0.17003 0.86919 0.50126 0.0
H1110 H 0.17687 0.82387 0.51461 0.0
H1111 H 0.23161 0.86545 0.50147 0.0
C1112 C 0.70843 0.7399 0.04533 0.0
C1113 C 0.73564 0.7116 0.04972 0.0
C1114 C 0.70191 0.74878 0.02984 0.0
C1115 C 0.72378 0.72958 0.01839 0.0
C1116 C 0.75366 0.70339 0.02272 0.0
C1117 C 0.75912 0.69456 0.03834 0.0
C1118 C 0.66972 0.7768 0.02572 0.0
C1119 C 0.77805 0.68282 0.01082 0.0
C1120 C 0.65406 0.6932 0.97947 0.0
C1121 C 0.68928 0.7392 0.97064 0.0
C1122 C 0.66464 0.68988 0.99504 0.0
C1123 C 0.71195 0.73342 1.00192 0.0
C1124 C 0.74733 0.78036 0.99312 0.0
C1125 C 0.73537 0.78284 0.97758 0.0
C1126 C 0.62538 0.63952 1.00408 0.0
C1127 C 0.79836 0.82737 1.00003 0.0
H1128 H 0.6913 0.75441 0.05406 0.0
H1129 H 0.78001 0.67252 0.04161 0.0
H1130 H 0.6939 0.81181 0.01787 0.0
H1131 H 0.63166 0.74755 0.01957 0.0
H1132 H 0.65818 0.79216 0.03599 0.0
H1133 H 0.80421 0.66786 0.01604 0.0
H1134 H 0.74464 0.64867 1.00428 0.0
H1135 H 0.80306 0.71589 1.0025 0.0
H1136 H 0.61819 0.6596 0.97414 0.0
H1137 H 0.76301 0.81815 0.97072 0.0
H1138 H 0.60959 0.65156 0.01413 0.0
H1139 H 0.64716 0.6186 1.00853 0.0
H1140 H 0.58994 0.60978 0.99708 0.0
H1141 H 0.78744 0.84386 0.01015 0.0
H1142 H 0.82113 0.86129 0.99171 0.0
H1143 H 0.82603 0.81252 1.00412 0.0
C1144 C 0.0417 0.28858 0.54093 0.0
C1145 C 0.01393 0.30723 0.5504 0.0
C1146 C 0.0312 0.28103 0.5251 0.0
C1147 C 0.99049 0.29037 0.51859 0.0
C1148 C 0.96165 0.3083 0.52804 0.0
C1149 C 0.97444 0.31755 0.54372 0.0
C1150 C 0.06396 0.26336 0.51533 0.0
C1151 C 0.91705 0.31757 0.5216 0.0
C1152 C -0.00577 0.32004 0.47595 0.0
C1153 C 0.95751 0.26801 0.46989 0.0
C1154 C 0.00607 0.32757 0.49169 0.0
C1155 C 0.97889 0.28254 0.50183 0.0
C1156 C 0.94067 0.23025 0.49595 0.0
C1157 C 0.93115 0.22341 0.48006 0.0
C1158 C 0.04804 0.38378 0.49745 0.0
C1159 C 0.9097 0.18151 0.50646 0.0
H1160 H 0.07141 0.2792 0.54585 0.0
H1161 H 0.95345 0.33319 0.55068 0.0
H1162 H 0.03625 0.22306 0.50997 0.0
H1163 H 0.0845 0.2933 0.50589 0.0
H1164 H 0.09568 0.2599 0.52204 0.0
H1165 H 0.89604 0.32806 0.53066 0.0
H1166 H 0.93471 0.35138 0.51308 0.0
H1167 H 0.886 0.28018 0.51554 0.0
H1168 H 0.01379 0.35538 0.46843 0.0
H1169 H 0.90336 0.18283 0.47564 0.0
H1170 H 0.08054 0.38119 0.50399 0.0
H1171 H 0.02838 0.39956 0.5054 0.0
H1172 H 0.06767 0.41386 0.48797 0.0
H1173 H 0.93882 0.17202 0.51242 0.0
H1174 H 0.8793 0.1443 0.50018 0.0
H1175 H 0.88787 0.19128 0.51541 0.0
C1176 C 0.72241 0.13075 0.13923 0.0
C1177 C 0.74776 0.18247 0.13221 0.0
C1178 C 0.66543 0.09684 0.13884 0.0
C1179 C 0.63312 0.11657 0.13197 0.0
C1180 C 0.65868 0.16909 0.12489 0.0
C1181 C 0.71615 0.20098 0.12474 0.0
C1182 C 0.6398 0.04029 0.14593 0.0
C1183 C 0.62536 0.19256 0.1181 0.0
C1184 C 0.4818 0.03115 0.12255 0.0
C1185 C 0.45858 0.04103 0.13552 0.0
C1186 C 0.53869 0.05192 0.12168 0.0
C1187 C 0.57274 0.08524 0.13374 0.0
C1188 C 0.54907 0.09221 0.14723 0.0
C1189 C 0.49217 0.06857 0.14813 0.0
C1190 C 0.56253 0.04095 0.10752 0.0
C1191 C 0.58392 0.1288 0.16018 0.0
H1192 H 0.7474 0.11651 0.14487 0.0
H1193 H 0.73627 0.24108 0.11932 0.0
H1194 H 0.61226 0.03661 0.15551 0.0
H1195 H 0.61425 0.009 0.13727 0.0
H1196 H 0.67106 0.03069 0.15039 0.0
H1197 H 0.65161 0.23404 0.1131 0.0
H1198 H 0.59782 0.16506 0.10902 0.0
H1199 H 0.59902 0.19541 0.12712 0.0
H1200 H 0.45598 0.0096 0.11283 0.0
H1201 H 0.47469 0.07644 0.15823 0.0
H1202 H 0.59523 0.03159 0.11066 0.0
H1203 H 0.58139 0.07804 0.10013 0.0
H1204 H 0.53066 0.00626 0.10073 0.0
H1205 H 0.61276 0.11566 0.16438 0.0
H1206 H 0.55886 0.12879 0.17003 0.0
H1207 H 0.60895 0.17157 0.15593 0.0
C1208 C 0.56852 0.4964 0.40527 0.0
C1209 C 0.57325 0.52385 0.3914 0.0
C1210 C 0.53394 0.43953 0.40647 0.0
C1211 C 0.50239 0.4099 0.39363 0.0
C1212 C 0.50221 0.43829 0.38023 0.0
C1213 C 0.53815 0.49505 0.37921 0.0
C1214 C 0.53547 0.4107 0.42094 0.0
C1215 C 0.4675 0.40821 0.36649 0.0
C1216 C 0.47728 0.26618 0.38675 0.0
C1217 C 0.42387 0.23425 0.3923 0.0
C1218 C 0.50391 0.32358 0.38758 0.0
C1219 C 0.47532 0.3492 0.39351 0.0
C1220 C 0.42114 0.31686 0.39907 0.0
C1221 C 0.39634 0.25957 0.39862 0.0
C1222 C 0.56231 0.35677 0.38189 0.0
C1223 C 0.38871 0.34265 0.40492 0.0
H1224 H 0.5954 0.51838 0.41478 0.0
H1225 H 0.54123 0.51619 0.36852 0.0
H1226 H 0.49341 0.38001 0.42466 0.0
H1227 H 0.55789 0.3883 0.41863 0.0
H1228 H 0.55635 0.4399 0.4305 0.0
H1229 H 0.46489 0.43667 0.35813 0.0
H1230 H 0.4857 0.38613 0.36059 0.0
H1231 H 0.42538 0.37719 0.3701 0.0
H1232 H 0.49809 0.2462 0.38176 0.0
H1233 H 0.35435 0.23449 0.40255 0.0
H1234 H 0.58869 0.38581 0.39091 0.0
H1235 H 0.56391 0.3815 0.37177 0.0
H1236 H 0.57976 0.33047 0.37859 0.0
H1237 H 0.4115 0.37235 0.4142 0.0
H1238 H 0.3477 0.31163 0.40935 0.0
H1239 H 0.38289 0.36588 0.39551 0.0
C1240 C 0.92528 0.4251 0.12007 0.0
C1241 C 0.93624 0.40786 0.13408 0.0
C1242 C 0.90401 0.46065 0.1197 0.0
C1243 C 0.89518 0.48065 0.13365 0.0
C1244 C 0.91241 0.46874 0.14767 0.0
C1245 C 0.93234 0.43191 0.14775 0.0
C1246 C 0.88595 0.47224 0.1045 0.0
C1247 C 0.90564 0.49122 0.16271 0.0
C1248 C 0.85372 0.58904 0.12993 0.0
C1249 C 0.79681 0.55749 0.13183 0.0
C1250 C 0.88678 0.56505 0.13107 0.0
C1251 C 0.86175 0.5079 0.13364 0.0
C1252 C 0.80397 0.47586 0.13551 0.0
C1253 C 0.77214 0.50144 0.13487 0.0
C1254 C 0.94828 0.60082 0.12966 0.0
C1255 C 0.77571 0.41451 0.13791 0.0
H1256 H 0.92867 0.40715 0.10942 0.0
H1257 H 0.94144 0.41932 0.15861 0.0
H1258 H 0.84044 0.4506 0.10409 0.0
H1259 H 0.90091 0.51671 0.10317 0.0
H1260 H 0.90084 0.45836 0.09462 0.0
H1261 H 0.93022 0.48685 0.17201 0.0
H1262 H 0.91794 0.53519 0.16156 0.0
H1263 H 0.86183 0.46862 0.16617 0.0
H1264 H 0.87242 0.63281 0.12786 0.0
H1265 H 0.72804 0.47762 0.13644 0.0
H1266 H 0.96384 0.58632 0.12011 0.0
H1267 H 0.96824 0.59795 0.14032 0.0
H1268 H 0.96104 0.6446 0.12761 0.0
H1269 H 0.7851 0.39504 0.1282 0.0
H1270 H 0.73044 0.39561 0.13886 0.0
H1271 H 0.79124 0.40508 0.14851 0.0
C1272 C 0.48392 0.04277 0.37679 0.0
C1273 C 0.45384 0.04497 0.38931 0.0
C1274 C 0.54065 0.06384 0.37796 0.0
C1275 C 0.56756 0.08836 0.39188 0.0
C1276 C 0.53654 0.08524 0.40499 0.0
C1277 C 0.47974 0.06277 0.4036 0.0
C1278 C 0.5723 0.06444 0.3639 0.0
C1279 C 0.56378 0.11103 0.42004 0.0
C1280 C 0.71864 0.13713 0.39698 0.0
C1281 C 0.74232 0.19177 0.3921 0.0
C1282 C 0.66169 0.10247 0.39679 0.0
C1283 C 0.62796 0.12388 0.39214 0.0
C1284 C 0.65187 0.1797 0.3876 0.0
C1285 C 0.70914 0.21279 0.38731 0.0
C1286 C 0.63786 0.04276 0.40105 0.0
C1287 C 0.61701 0.20424 0.38288 0.0
H1288 H 0.46394 0.0283 0.36577 0.0
H1289 H 0.4567 0.06419 0.41338 0.0
H1290 H 0.5931 0.10621 0.35881 0.0
H1291 H 0.60446 0.05422 0.36694 0.0
H1292 H 0.54501 0.03508 0.35505 0.0
H1293 H 0.53372 0.09841 0.42959 0.0
H1294 H 0.59535 0.1 0.42306 0.0
H1295 H 0.58483 0.15638 0.41892 0.0
H1296 H 0.74493 0.12084 0.40027 0.0
H1297 H 0.72802 0.25496 0.38337 0.0
H1298 H 0.6146 0.01648 0.3912 0.0
H1299 H 0.60855 0.03199 0.4107 0.0
H1300 H 0.67001 0.03276 0.40438 0.0
H1301 H 0.59347 0.18358 0.37238 0.0
H1302 H 0.64198 0.24898 0.38054 0.0
H1303 H 0.58686 0.19759 0.39203 0.0
C1304 C 0.40453 0.25383 0.12034 0.0
C1305 C 0.43411 0.23034 0.12646 0.0
C1306 C 0.42657 0.31074 0.12032 0.0
C1307 C 0.4804 0.34462 0.12589 0.0
C1308 C 0.51119 0.32092 0.13158 0.0
C1309 C 0.48696 0.26367 0.13216 0.0
C1310 C 0.3918 0.33438 0.11477 0.0
C1311 C 0.5694 0.35597 0.13721 0.0
C1312 C 0.56845 0.49182 0.1137 0.0
C1313 C 0.57399 0.5191 0.12764 0.0
C1314 C 0.53518 0.43487 0.11265 0.0
C1315 C 0.5053 0.40499 0.12568 0.0
C1316 C 0.50513 0.43304 0.13914 0.0
C1317 C 0.54015 0.48998 0.14004 0.0
C1318 C 0.5369 0.40642 0.09814 0.0
C1319 C 0.47155 0.40248 0.15301 0.0
H1320 H 0.36297 0.22742 0.11628 0.0
H1321 H 0.50912 0.24492 0.13706 0.0
H1322 H 0.39004 0.36168 0.12365 0.0
H1323 H 0.41046 0.35975 0.10438 0.0
H1324 H 0.34921 0.30197 0.11198 0.0
H1325 H 0.58865 0.33111 0.14035 0.0
H1326 H 0.59483 0.38594 0.12821 0.0
H1327 H 0.56996 0.37974 0.14741 0.0
H1328 H 0.594 0.5141 0.10398 0.0
H1329 H 0.54363 0.51096 0.15076 0.0
H1330 H 0.49507 0.37458 0.09464 0.0
H1331 H 0.56087 0.3855 0.1003 0.0
H1332 H 0.55633 0.43567 0.08848 0.0
H1333 H 0.42972 0.37027 0.14956 0.0
H1334 H 0.46807 0.43046 0.16133 0.0
H1335 H 0.4913 0.38181 0.15889 0.0
C1336 C 0.85122 0.5916 0.39481 0.0
C1337 C 0.79636 0.56136 0.39011 0.0
C1338 C 0.88485 0.56805 0.39481 0.0
C1339 C 0.86223 0.51244 0.39053 0.0
C1340 C 0.80639 0.48151 0.386 0.0
C1341 C 0.77431 0.50684 0.38554 0.0
C1342 C 0.94462 0.60286 0.39909 0.0
C1343 C 0.78054 0.42171 0.38164 0.0
C1344 C 0.94036 0.44418 0.37662 0.0
C1345 C 0.93658 0.41252 0.3895 0.0
C1346 C 0.92085 0.48128 0.37719 0.0
C1347 C 0.89628 0.48582 0.39086 0.0
C1348 C 0.89779 0.45841 0.40431 0.0
C1349 C 0.9187 0.42256 0.40351 0.0
C1350 C 0.92189 0.51158 0.36277 0.0
C1351 C 0.87188 0.4621 0.4191 0.0
H1352 H 0.86831 0.63437 0.39797 0.0
H1353 H 0.73193 0.48401 0.38179 0.0
H1354 H 0.954 0.58511 0.40922 0.0
H1355 H 0.97085 0.60322 0.38953 0.0
H1356 H 0.956 0.6459 0.40172 0.0
H1357 H 0.73608 0.40304 0.37905 0.0
H1358 H 0.80145 0.41737 0.37139 0.0
H1359 H 0.7856 0.39817 0.3911 0.0
H1360 H 0.95486 0.43712 0.36581 0.0
H1361 H 0.91593 0.39848 0.41355 0.0
H1362 H 0.93299 0.55449 0.36539 0.0
H1363 H 0.88042 0.49111 0.35752 0.0
H1364 H 0.95136 0.51209 0.35419 0.0
H1365 H 0.88425 0.50529 0.42175 0.0
H1366 H 0.88309 0.44456 0.42895 0.0
H1367 H 0.82655 0.4391 0.41786 0.0
C1368 C 0.19609 0.71323 0.62681 0.0
C1369 C 0.18014 0.74674 0.63435 0.0
C1370 C 0.16472 0.65599 0.62823 0.0
C1371 C 0.11511 0.63233 0.63677 0.0
C1372 C 0.09799 0.6663 0.64392 0.0
C1373 C 0.13154 0.72328 0.64294 0.0
C1374 C 0.18518 0.62095 0.62088 0.0
C1375 C 0.04432 0.64256 0.65255 0.0
C1376 C 0.02594 0.48148 0.62797 0.0
C1377 C 0.04072 0.4582 0.63996 0.0
C1378 C 0.04612 0.53825 0.62745 0.0
C1379 C 0.08316 0.57213 0.63892 0.0
C1380 C 0.09436 0.5483 0.6517 0.0
C1381 C 0.07199 0.4914 0.65222 0.0
C1382 C 0.03109 0.56225 0.61407 0.0
C1383 C 0.13445 0.58307 0.66403 0.0
H1384 H 0.23366 0.73183 0.62013 0.0
H1385 H 0.11896 0.74964 0.64855 0.0
H1386 H 0.18974 0.59505 0.62972 0.0
H1387 H 0.15493 0.59294 0.61235 0.0
H1388 H 0.2253 0.64594 0.61503 0.0
H1389 H 0.03506 0.67475 0.65636 0.0
H1390 H 0.0102 0.61289 0.64518 0.0
H1391 H 0.04552 0.61975 0.66278 0.0
H1392 H 0.00129 0.45587 0.61855 0.0
H1393 H 0.0835 0.47373 0.66157 0.0
H1394 H 0.06591 0.58115 0.60588 0.0
H1395 H 0.02282 0.59496 0.61798 0.0
H1396 H -0.00553 0.53047 0.60786 0.0
H1397 H 0.1764 0.60563 0.65908 0.0
H1398 H 0.13487 0.55805 0.67385 0.0
H1399 H 0.12452 0.61405 0.66842 0.0
C1400 C 0.41352 0.90912 0.86617 0.0
C1401 C 0.41329 0.94182 0.87828 0.0
C1402 C 0.44756 0.88616 0.86658 0.0
C1403 C 0.48392 0.89826 0.87906 0.0
C1404 C 0.48845 0.93633 0.89038 0.0
C1405 C 0.4522 0.95697 0.89003 0.0
C1406 C 0.44055 0.84477 0.85446 0.0
C1407 C 0.52888 0.95231 0.90342 0.0
C1408 C 0.51448 0.78689 0.89124 0.0
C1409 C 0.56296 0.80233 0.88319 0.0
C1410 C 0.48809 0.81783 0.88993 0.0
C1411 C 0.51261 0.86661 0.88101 0.0
C1412 C 0.5627 0.8832 0.87331 0.0
C1413 C 0.58651 0.84992 0.87416 0.0
C1414 C 0.43354 0.79778 0.89783 0.0
C1415 C 0.59124 0.93609 0.86427 0.0
H1416 H 0.38345 0.89708 0.85706 0.0
H1417 H 0.45238 0.98257 0.89934 0.0
H1418 H 0.48081 0.85432 0.84962 0.0
H1419 H 0.42209 0.80337 0.85975 0.0
H1420 H 0.41366 0.84321 0.84491 0.0
H1421 H 0.53431 0.98933 0.90953 0.0
H1422 H 0.51397 0.91806 0.91179 0.0
H1423 H 0.56942 0.96037 0.89915 0.0
H1424 H 0.49671 0.75006 0.89824 0.0
H1425 H 0.6246 0.86203 0.86812 0.0
H1426 H 0.40198 0.79252 0.88929 0.0
H1427 H 0.43671 0.8286 0.9063 0.0
H1428 H 0.41927 0.7581 0.90386 0.0
H1429 H 0.56589 0.93386 0.85426 0.0
H1430 H 0.63223 0.94518 0.86006 0.0
H1431 H 0.59643 0.97081 0.8715 0.0
C1432 C 0.48355 0.56037 0.64584 0.0
C1433 C 0.5161 0.5724 0.63264 0.0
C1434 C 0.42662 0.52684 0.64505 0.0
C1435 C 0.40205 0.503 0.63085 0.0
C1436 C 0.43518 0.51005 0.61787 0.0
C1437 C 0.49204 0.54556 0.61885 0.0
C1438 C 0.39257 0.52083 0.65911 0.0
C1439 C 0.41037 0.48301 0.60275 0.0
C1440 C 0.25314 0.39494 0.63488 0.0
C1441 C 0.22711 0.42448 0.63081 0.0
C1442 C 0.31011 0.41891 0.63396 0.0
C1443 C 0.34162 0.47445 0.62947 0.0
C1444 C 0.31531 0.50432 0.62513 0.0
C1445 C 0.25783 0.47839 0.62555 0.0
C1446 C 0.33653 0.38521 0.63808 0.0
C1447 C 0.34788 0.56424 0.62076 0.0
H1448 H 0.50186 0.58101 0.65655 0.0
H1449 H 0.51719 0.55451 0.60866 0.0
H1450 H 0.36727 0.54033 0.65694 0.0
H1451 H 0.36402 0.4769 0.66166 0.0
H1452 H 0.41826 0.54015 0.66942 0.0
H1453 H 0.44182 0.48471 0.5947 0.0
H1454 H 0.37837 0.43947 0.60451 0.0
H1455 H 0.39035 0.50417 0.5973 0.0
H1456 H 0.22873 0.35286 0.6388 0.0
H1457 H 0.23711 0.50075 0.62241 0.0
H1458 H 0.36483 0.40391 0.64792 0.0
H1459 H 0.36139 0.38467 0.62826 0.0
H1460 H 0.30579 0.34222 0.64112 0.0
H1461 H 0.37379 0.58839 0.63058 0.0
H1462 H 0.32111 0.58112 0.61741 0.0
H1463 H 0.37581 0.57002 0.61107 0.0
C1464 C 0.21395 0.72583 0.89111 0.0
C1465 C 0.19236 0.75717 0.88519 0.0
C1466 C 0.18202 0.66839 0.89133 0.0
C1467 C 0.12684 0.64263 0.88615 0.0
C1468 C 0.1043 0.67468 0.88088 0.0
C1469 C 0.13783 0.73165 0.88016 0.0
C1470 C 0.2079 0.63526 0.89656 0.0
C1471 C 0.04512 0.64884 0.87588 0.0
C1472 C 0.07316 0.49983 0.87074 0.0
C1473 C 0.05108 0.46812 0.88403 0.0
C1474 C 0.09604 0.55677 0.87112 0.0
C1475 C 0.09455 0.58216 0.88495 0.0
C1476 C 0.06656 0.54976 0.89789 0.0
C1477 C 0.04584 0.49291 0.89737 0.0
C1478 C 0.12629 0.59 0.85713 0.0
C1479 C 0.06183 0.57542 0.91258 0.0
H1480 H 0.25615 0.74611 0.89503 0.0
H1481 H 0.1212 0.75651 0.87581 0.0
H1482 H 0.18428 0.60821 0.90626 0.0
H1483 H 0.20681 0.60842 0.88708 0.0
H1484 H 0.25119 0.66165 0.90023 0.0
H1485 H 0.01776 0.62343 0.88534 0.0
H1486 H 0.0337 0.67996 0.87253 0.0
H1487 H 0.03736 0.62114 0.86599 0.0
H1488 H 0.07731 0.48097 0.86037 0.0
H1489 H 0.02835 0.46842 0.90763 0.0
H1490 H 0.1708 0.61459 0.85972 0.0
H1491 H 0.11216 0.61916 0.85404 0.0
H1492 H 0.12076 0.56372 0.84702 0.0
H1493 H 0.10192 0.59533 0.9186 0.0
H1494 H 0.03048 0.54444 0.92042 0.0
H1495 H 0.05105 0.60763 0.91014 0.0
C1496 C 0.43072 0.93634 0.64497 0.0
C1497 C 0.4028 0.93339 0.63136 0.0
C1498 C 0.46753 0.91635 0.64553 0.0
C1499 C 0.47483 0.89141 0.63233 0.0
C1500 C 0.45012 0.89234 0.6183 0.0
C1501 C 0.41537 0.91447 0.61792 0.0
C1502 C 0.49557 0.91854 0.66049 0.0
C1503 C 0.45612 0.86536 0.60402 0.0
C1504 C 0.58282 0.84981 0.62815 0.0
C1505 C 0.55349 0.79463 0.63259 0.0
C1506 C 0.55873 0.88287 0.62883 0.0
C1507 C 0.50327 0.85921 0.63341 0.0
C1508 C 0.47339 0.80315 0.63784 0.0
C1509 C 0.49946 0.77172 0.63772 0.0
C1510 C 0.59255 0.94293 0.62469 0.0
C1511 C 0.41352 0.77598 0.64224 0.0
H1512 H 0.42164 0.95146 0.65535 0.0
H1513 H 0.39433 0.91236 0.6073 0.0
H1514 H 0.47489 0.87734 0.66591 0.0
H1515 H 0.53905 0.93027 0.6585 0.0
H1516 H 0.49415 0.94812 0.66864 0.0
H1517 H 0.43691 0.87266 0.59382 0.0
H1518 H 0.5 0.88065 0.60145 0.0
H1519 H 0.43639 0.82041 0.60592 0.0
H1520 H 0.62506 0.86733 0.6244 0.0
H1521 H 0.47733 0.72899 0.64122 0.0
H1522 H 0.59412 0.96833 0.63462 0.0
H1523 H 0.57329 0.95295 0.61506 0.0
H1524 H 0.63519 0.95477 0.62137 0.0
H1525 H 0.40822 0.79718 0.65225 0.0
H1526 H 0.39616 0.7319 0.64516 0.0
H1527 H 0.38946 0.77929 0.63262 0.0
C1528 C 0.49821 0.57236 0.90181 0.0
C1529 C 0.52792 0.58141 0.88813 0.0
C1530 C 0.44125 0.53864 0.90209 0.0
C1531 C 0.41368 0.51111 0.88856 0.0
C1532 C 0.44407 0.5147 0.87522 0.0
C1533 C 0.50102 0.55079 0.87506 0.0
C1534 C 0.4103 0.53704 0.91645 0.0
C1535 C 0.41609 0.4834 0.86084 0.0
C1536 C 0.26385 0.4065 0.89435 0.0
C1537 C 0.23856 0.43535 0.88898 0.0
C1538 C 0.32084 0.42959 0.89358 0.0
C1539 C 0.35309 0.48378 0.88802 0.0
C1540 C 0.32754 0.51349 0.88287 0.0
C1541 C 0.27015 0.48819 0.88303 0.0
C1542 C 0.34641 0.39588 0.89852 0.0
C1543 C 0.36079 0.57223 0.87744 0.0
H1544 H 0.51863 0.59555 0.91202 0.0
H1545 H 0.52384 0.55715 0.8645 0.0
H1546 H 0.38638 0.55795 0.9142 0.0
H1547 H 0.3807 0.49415 0.91977 0.0
H1548 H 0.43813 0.55761 0.92631 0.0
H1549 H 0.44576 0.4822 0.85266 0.0
H1550 H 0.38409 0.44071 0.86366 0.0
H1551 H 0.39554 0.50342 0.85505 0.0
H1552 H 0.23876 0.36509 0.8987 0.0
H1553 H 0.24998 0.50986 0.87877 0.0
H1554 H 0.37497 0.41601 0.90823 0.0
H1555 H 0.37088 0.39307 0.88894 0.0
H1556 H 0.31517 0.35368 0.90209 0.0
H1557 H 0.38991 0.59787 0.88655 0.0
H1558 H 0.33457 0.59004 0.87439 0.0
H1559 H 0.38544 0.57457 0.86725 0.0
loop_
_geom_bond_atom_site_label_1
_geom_bond_atom_site_label_2
_geom_bond_distance
_geom_bond_site_symmetry_2
_ccdc_geom_bond_type
C0 O16 1.251 . S
C0 O18 1.254 . S
N1 C2 1.333 . S
N1 C6 1.307 . S
N1 Zn7 2.020 . S
C2 N1 1.333 . S
C2 C3 1.379 . S
C2 H20 0.952 . S
C3 C2 1.379 . S
C3 C4 1.390 . S
C3 H30 0.949 . S
C4 C3 1.390 . S
C4 C5 1.357 . S
C5 C4 1.357 . S
C5 C6 1.370 . S
C5 H31 0.950 . S
C6 N1 1.307 . S
C6 C5 1.370 . S
C6 H24 0.948 . S
Zn7 N1 2.020 . S
Zn7 O16 2.039 . S
Zn7 O22 2.034 . S
Zn7 O26 2.025 . S
Zn7 O28 2.024 . S
C8 O27 1.246 . S
C8 O28 1.249 . S
N9 C10 1.307 . S
N9 C11 1.333 . S
N9 Zn15 2.020 . S
C10 N9 1.307 . S
C10 C14 1.370 . S
C10 H21 0.948 . S
C11 N9 1.333 . S
C11 C12 1.379 . S
C11 H19 0.952 . S
C12 C11 1.379 . S
C12 C13 1.390 . S
C12 H32 0.949 . S
C13 C12 1.390 . S
C13 C14 1.357 . S
C14 C10 1.370 . S
C14 C13 1.357 . S
C14 H33 0.950 . S
Zn15 N9 2.020 . S
Zn15 O18 2.025 . S
Zn15 O23 2.024 . S
Zn15 O25 2.039 . S
Zn15 O27 2.034 . S
O16 C0 1.251 . S
O16 Zn7 2.039 . S
C17 O22 1.246 . S
C17 O23 1.249 . S
O18 C0 1.254 . S
O18 Zn15 2.025 . S
H19 C11 0.952 . S
H20 C2 0.952 . S
H21 C10 0.948 . S
O22 Zn7 2.034 . S
O22 C17 1.246 . S
O23 Zn15 2.024 . S
O23 C17 1.249 . S
H24 C6 0.948 . S
O25 Zn15 2.039 . S
O25 C29 1.251 . S
O26 Zn7 2.025 . S
O26 C29 1.254 . S
O27 C8 1.246 . S
O27 Zn15 2.034 . S
O28 Zn7 2.024 . S
O28 C8 1.249 . S
C29 O25 1.251 . S
C29 O26 1.254 . S
H30 C3 0.949 . S
H31 C5 0.950 . S
H32 C12 0.949 . S
H33 C14 0.950 . S
C34 O50 1.251 . S
C34 O52 1.254 . S
N35 C36 1.333 . S
N35 C40 1.307 . S
N35 Zn41 2.020 . S
C36 N35 1.333 . S
C36 C37 1.379 . S
C36 H54 0.952 . S
C37 C36 1.379 . S
C37 C38 1.390 . S
C37 H64 0.949 . S
C38 C37 1.390 . S
C38 C39 1.357 . S
C39 C38 1.357 . S
C39 C40 1.370 . S
C39 H65 0.950 . S
C40 N35 1.307 . S
C40 C39 1.370 . S
C40 H58 0.948 . S
Zn41 N35 2.020 . S
Zn41 O50 2.039 . S
Zn41 O56 2.034 . S
Zn41 O60 2.025 . S
Zn41 O62 2.024 . S
C42 O61 1.246 . S
C42 O62 1.249 . S
N43 C44 1.307 . S
N43 C45 1.333 . S
N43 Zn49 2.020 . S
C44 N43 1.307 . S
C44 C48 1.370 . S
C44 H55 0.948 . S
C45 N43 1.333 . S
C45 C46 1.379 . S
C45 H53 0.952 . S
C46 C45 1.379 . S
C46 C47 1.390 . S
C46 H66 0.949 . S
C47 C46 1.390 . S
C47 C48 1.357 . S
C48 C44 1.370 . S
C48 C47 1.357 . S
C48 H67 0.950 . S
Zn49 N43 2.020 . S
Zn49 O52 2.025 . S
Zn49 O57 2.024 . S
Zn49 O59 2.039 . S
Zn49 O61 2.034 . S
O50 C34 1.251 . S
O50 Zn41 2.039 . S
C51 O56 1.246 . S
C51 O57 1.249 . S
O52 C34 1.254 . S
O52 Zn49 2.025 . S
H53 C45 0.952 . S
H54 C36 0.952 . S
H55 C44 0.948 . S
O56 Zn41 2.034 . S
O56 C51 1.246 . S
O57 Zn49 2.024 . S
O57 C51 1.249 . S
H58 C40 0.948 . S
O59 Zn49 2.039 . S
O59 C63 1.251 . S
O60 Zn41 2.025 . S
O60 C63 1.254 . S
O61 C42 1.246 . S
O61 Zn49 2.034 . S
O62 Zn41 2.024 . S
O62 C42 1.249 . S
C63 O59 1.251 . S
C63 O60 1.254 . S
H64 C37 0.949 . S
H65 C39 0.950 . S
H66 C46 0.949 . S
H67 C48 0.950 . S
C68 O84 1.251 . S
C68 O86 1.254 . S
N69 C70 1.333 . S
N69 C74 1.307 . S
N69 Zn75 2.020 . S
C70 N69 1.333 . S
C70 C71 1.379 . S
C70 H88 0.952 . S
C71 C70 1.379 . S
C71 C72 1.390 . S
C71 H98 0.949 . S
C72 C71 1.390 . S
C72 C73 1.357 . S
C73 C72 1.357 . S
C73 C74 1.370 . S
C73 H99 0.950 . S
C74 N69 1.307 . S
C74 C73 1.370 . S
C74 H92 0.948 . S
Zn75 N69 2.020 . S
Zn75 O84 2.039 . S
Zn75 O90 2.034 . S
Zn75 O94 2.025 . S
Zn75 O96 2.024 . S
C76 O95 1.246 . S
C76 O96 1.249 . S
N77 C78 1.307 . S
N77 C79 1.333 . S
N77 Zn83 2.020 . S
C78 N77 1.307 . S
C78 C82 1.370 . S
C78 H89 0.948 . S
C79 N77 1.333 . S
C79 C80 1.379 . S
C79 H87 0.952 . S
C80 C79 1.379 . S
C80 C81 1.390 . S
C80 H100 0.949 . S
C81 C80 1.390 . S
C81 C82 1.357 . S
C82 C78 1.370 . S
C82 C81 1.357 . S
C82 H101 0.950 . S
Zn83 N77 2.020 . S
Zn83 O86 2.025 . S
Zn83 O91 2.024 . S
Zn83 O93 2.039 . S
Zn83 O95 2.034 . S
O84 C68 1.251 . S
O84 Zn75 2.039 . S
C85 O90 1.246 . S
C85 O91 1.249 . S
O86 C68 1.254 . S
O86 Zn83 2.025 . S
H87 C79 0.952 . S
H88 C70 0.952 . S
H89 C78 0.948 . S
O90 Zn75 2.034 . S
O90 C85 1.246 . S
O91 Zn83 2.024 . S
O91 C85 1.249 . S
H92 C74 0.948 . S
O93 Zn83 2.039 . S
O93 C97 1.251 . S
O94 Zn75 2.025 . S
O94 C97 1.254 . S
O95 C76 1.246 . S
O95 Zn83 2.034 . S
O96 Zn75 2.024 . S
O96 C76 1.249 . S
C97 O93 1.251 . S
C97 O94 1.254 . S
H98 C71 0.949 . S
H99 C73 0.950 . S
H100 C80 0.949 . S
H101 C82 0.950 . S
C102 O118 1.251 . S
C102 O120 1.254 . S
N103 C104 1.333 . S
N103 C108 1.307 . S
N103 Zn109 2.020 . S
C104 N103 1.333 . S
C104 C105 1.379 . S
C104 H122 0.952 . S
C105 C104 1.379 . S
C105 C106 1.390 . S
C105 H132 0.949 . S
C106 C105 1.390 . S
C106 C107 1.357 . S
C107 C106 1.357 . S
C107 C108 1.370 . S
C107 H133 0.950 . S
C108 N103 1.307 . S
C108 C107 1.370 . S
C108 H126 0.948 . S
Zn109 N103 2.020 . S
Zn109 O118 2.039 . S
Zn109 O124 2.034 . S
Zn109 O128 2.025 . S
Zn109 O130 2.024 . S
C110 O129 1.246 . S
C110 O130 1.249 . S
N111 C112 1.307 . S
N111 C113 1.333 . S
N111 Zn117 2.020 . S
C112 N111 1.307 . S
C112 C116 1.370 . S
C112 H123 0.948 . S
C113 N111 1.333 . S
C113 C114 1.379 . S
C113 H121 0.952 . S
C114 C113 1.379 . S
C114 C115 1.390 . S
C114 H134 0.949 . S
C115 C114 1.390 . S
C115 C116 1.357 . S
C116 C112 1.370 . S
C116 C115 1.357 . S
C116 H135 0.950 . S
Zn117 N111 2.020 . S
Zn117 O120 2.025 . S
Zn117 O125 2.024 . S
Zn117 O127 2.039 . S
Zn117 O129 2.034 . S
O118 C102 1.251 . S
O118 Zn109 2.039 . S
C119 O124 1.246 . S
C119 O125 1.249 . S
O120 C102 1.254 . S
O120 Zn117 2.025 . S
H121 C113 0.952 . S
H122 C104 0.952 . S
H123 C112 0.948 . S
O124 Zn109 2.034 . S
O124 C119 1.246 . S
O125 Zn117 2.024 . S
O125 C119 1.249 . S
H126 C108 0.948 . S
O127 Zn117 2.039 . S
O127 C131 1.251 . S
O128 Zn109 2.025 . S
O128 C131 1.254 . S
O129 C110 1.246 . S
O129 Zn117 2.034 . S
O130 Zn109 2.024 . S
O130 C110 1.249 . S
C131 O127 1.251 . S
C131 O128 1.254 . S
H132 C105 0.949 . S
H133 C107 0.950 . S
H134 C114 0.949 . S
H135 C116 0.950 . S
C136 O152 1.251 . S
C136 O154 1.254 . S
N137 C138 1.333 . S
N137 C142 1.307 . S
N137 Zn143 2.020 . S
C138 N137 1.333 . S
C138 C139 1.379 . S
C138 H156 0.952 . S
C139 C138 1.379 . S
C139 C140 1.390 . S
C139 H166 0.949 . S
C140 C139 1.390 . S
C140 C141 1.357 . S
C141 C140 1.357 . S
C141 C142 1.370 . S
C141 H167 0.950 . S
C142 N137 1.307 . S
C142 C141 1.370 . S
C142 H160 0.948 . S
Zn143 N137 2.020 . S
Zn143 O152 2.039 . S
Zn143 O158 2.034 . S
Zn143 O162 2.025 . S
Zn143 O164 2.024 . S
C144 O163 1.246 . S
C144 O164 1.249 . S
N145 C146 1.307 . S
N145 C147 1.333 . S
N145 Zn151 2.020 . S
C146 N145 1.307 . S
C146 C150 1.370 . S
C146 H157 0.948 . S
C147 N145 1.333 . S
C147 C148 1.379 . S
C147 H155 0.952 . S
C148 C147 1.379 . S
C148 C149 1.390 . S
C148 H168 0.949 . S
C149 C148 1.390 . S
C149 C150 1.357 . S
C150 C146 1.370 . S
C150 C149 1.357 . S
C150 H169 0.950 . S
Zn151 N145 2.020 . S
Zn151 O154 2.025 . S
Zn151 O159 2.024 . S
Zn151 O161 2.039 . S
Zn151 O163 2.034 . S
O152 C136 1.251 . S
O152 Zn143 2.039 . S
C153 O158 1.246 . S
C153 O159 1.249 . S
O154 C136 1.254 . S
O154 Zn151 2.025 . S
H155 C147 0.952 . S
H156 C138 0.952 . S
H157 C146 0.948 . S
O158 Zn143 2.034 . S
O158 C153 1.246 . S
O159 Zn151 2.024 . S
O159 C153 1.249 . S
H160 C142 0.948 . S
O161 Zn151 2.039 . S
O161 C165 1.251 . S
O162 Zn143 2.025 . S
O162 C165 1.254 . S
O163 C144 1.246 . S
O163 Zn151 2.034 . S
O164 Zn143 2.024 . S
O164 C144 1.249 . S
C165 O161 1.251 . S
C165 O162 1.254 . S
H166 C139 0.949 . S
H167 C141 0.950 . S
H168 C148 0.949 . S
H169 C150 0.950 . S
C170 O186 1.251 . S
C170 O188 1.254 . S
N171 C172 1.333 . S
N171 C176 1.307 . S
N171 Zn177 2.020 . S
C172 N171 1.333 . S
C172 C173 1.379 . S
C172 H190 0.952 . S
C173 C172 1.379 . S
C173 C174 1.390 . S
C173 H200 0.949 . S
C174 C173 1.390 . S
C174 C175 1.357 . S
C175 C174 1.357 . S
C175 C176 1.370 . S
C175 H201 0.950 . S
C176 N171 1.307 . S
C176 C175 1.370 . S
C176 H194 0.948 . S
Zn177 N171 2.020 . S
Zn177 O186 2.039 . S
Zn177 O192 2.034 . S
Zn177 O196 2.025 . S
Zn177 O198 2.024 . S
C178 O197 1.246 . S
C178 O198 1.249 . S
N179 C180 1.307 . S
N179 C181 1.333 . S
N179 Zn185 2.020 . S
C180 N179 1.307 . S
C180 C184 1.370 . S
C180 H191 0.948 . S
C181 N179 1.333 . S
C181 C182 1.379 . S
C181 H189 0.952 . S
C182 C181 1.379 . S
C182 C183 1.390 . S
C182 H202 0.949 . S
C183 C182 1.390 . S
C183 C184 1.357 . S
C184 C180 1.370 . S
C184 C183 1.357 . S
C184 H203 0.950 . S
Zn185 N179 2.020 . S
Zn185 O188 2.025 . S
Zn185 O193 2.024 . S
Zn185 O195 2.039 . S
Zn185 O197 2.034 . S
O186 C170 1.251 . S
O186 Zn177 2.039 . S
C187 O192 1.246 . S
C187 O193 1.249 . S
O188 C170 1.254 . S
O188 Zn185 2.025 . S
H189 C181 0.952 . S
H190 C172 0.952 . S
H191 C180 0.948 . S
O192 Zn177 2.034 . S
O192 C187 1.246 . S
O193 Zn185 2.024 . S
O193 C187 1.249 . S
H194 C176 0.948 . S
O195 Zn185 2.039 . S
O195 C199 1.251 . S
O196 Zn177 2.025 . S
O196 C199 1.254 . S
O197 C178 1.246 . S
O197 Zn185 2.034 . S
O198 Zn177 2.024 . S
O198 C178 1.249 . S
C199 O195 1.251 . S
C199 O196 1.254 . S
H200 C173 0.949 . S
H201 C175 0.950 . S
H202 C182 0.949 . S
H203 C184 0.950 . S
C204 O220 1.251 . S
C204 O222 1.254 . S
N205 C206 1.333 . S
N205 C210 1.307 . S
N205 Zn211 2.020 . S
C206 N205 1.333 . S
C206 C207 1.379 . S
C206 H224 0.952 . S
C207 C206 1.379 . S
C207 C208 1.390 . S
C207 H234 0.949 . S
C208 C207 1.390 . S
C208 C209 1.357 . S
C209 C208 1.357 . S
C209 C210 1.370 . S
C209 H235 0.950 . S
C210 N205 1.307 . S
C210 C209 1.370 . S
C210 H228 0.948 . S
Zn211 N205 2.020 . S
Zn211 O220 2.039 . S
Zn211 O226 2.034 . S
Zn211 O230 2.025 . S
Zn211 O232 2.024 . S
C212 O231 1.246 . S
C212 O232 1.249 . S
N213 C214 1.307 . S
N213 C215 1.333 . S
N213 Zn219 2.020 . S
C214 N213 1.307 . S
C214 C218 1.370 . S
C214 H225 0.948 . S
C215 N213 1.333 . S
C215 C216 1.379 . S
C215 H223 0.952 . S
C216 C215 1.379 . S
C216 C217 1.390 . S
C216 H236 0.949 . S
C217 C216 1.390 . S
C217 C218 1.357 . S
C218 C214 1.370 . S
C218 C217 1.357 . S
C218 H237 0.950 . S
Zn219 N213 2.020 . S
Zn219 O222 2.025 . S
Zn219 O227 2.024 . S
Zn219 O229 2.039 . S
Zn219 O231 2.034 . S
O220 C204 1.251 . S
O220 Zn211 2.039 . S
C221 O226 1.246 . S
C221 O227 1.249 . S
O222 C204 1.254 . S
O222 Zn219 2.025 . S
H223 C215 0.952 . S
H224 C206 0.952 . S
H225 C214 0.948 . S
O226 Zn211 2.034 . S
O226 C221 1.246 . S
O227 Zn219 2.024 . S
O227 C221 1.249 . S
H228 C210 0.948 . S
O229 Zn219 2.039 . S
O229 C233 1.251 . S
O230 Zn211 2.025 . S
O230 C233 1.254 . S
O231 C212 1.246 . S
O231 Zn219 2.034 . S
O232 Zn211 2.024 . S
O232 C212 1.249 . S
C233 O229 1.251 . S
C233 O230 1.254 . S
H234 C207 0.949 . S
H235 C209 0.950 . S
H236 C216 0.949 . S
H237 C218 0.950 . S
C238 O254 1.251 . S
C238 O256 1.254 . S
N239 C240 1.333 . S
N239 C244 1.307 . S
N239 Zn245 2.020 . S
C240 N239 1.333 . S
C240 C241 1.379 . S
C240 H258 0.952 . S
C241 C240 1.379 . S
C241 C242 1.390 . S
C241 H268 0.949 . S
C242 C241 1.390 . S
C242 C243 1.357 . S
C243 C242 1.357 . S
C243 C244 1.370 . S
C243 H269 0.950 . S
C244 N239 1.307 . S
C244 C243 1.370 . S
C244 H262 0.948 . S
Zn245 N239 2.020 . S
Zn245 O254 2.039 . S
Zn245 O260 2.034 . S
Zn245 O264 2.025 . S
Zn245 O266 2.024 . S
C246 O265 1.246 . S
C246 O266 1.249 . S
N247 C248 1.307 . S
N247 C249 1.333 . S
N247 Zn253 2.020 . S
C248 N247 1.307 . S
C248 C252 1.370 . S
C248 H259 0.948 . S
C249 N247 1.333 . S
C249 C250 1.379 . S
C249 H257 0.952 . S
C250 C249 1.379 . S
C250 C251 1.390 . S
C250 H270 0.949 . S
C251 C250 1.390 . S
C251 C252 1.357 . S
C252 C248 1.370 . S
C252 C251 1.357 . S
C252 H271 0.950 . S
Zn253 N247 2.020 . S
Zn253 O256 2.025 . S
Zn253 O261 2.024 . S
Zn253 O263 2.039 . S
Zn253 O265 2.034 . S
O254 C238 1.251 . S
O254 Zn245 2.039 . S
C255 O260 1.246 . S
C255 O261 1.249 . S
O256 C238 1.254 . S
O256 Zn253 2.025 . S
H257 C249 0.952 . S
H258 C240 0.952 . S
H259 C248 0.948 . S
O260 Zn245 2.034 . S
O260 C255 1.246 . S
O261 Zn253 2.024 . S
O261 C255 1.249 . S
H262 C244 0.948 . S
O263 Zn253 2.039 . S
O263 C267 1.251 . S
O264 Zn245 2.025 . S
O264 C267 1.254 . S
O265 C246 1.246 . S
O265 Zn253 2.034 . S
O266 Zn245 2.024 . S
O266 C246 1.249 . S
C267 O263 1.251 . S
C267 O264 1.254 . S
H268 C241 0.949 . S
H269 C243 0.950 . S
H270 C250 0.949 . S
H271 C252 0.950 . S
C272 O288 1.251 . S
C272 O290 1.254 . S
N273 C274 1.333 . S
N273 C278 1.307 . S
N273 Zn279 2.020 . S
C274 N273 1.333 . S
C274 C275 1.379 . S
C274 H292 0.952 . S
C275 C274 1.379 . S
C275 C276 1.390 . S
C275 H302 0.949 . S
C276 C275 1.390 . S
C276 C277 1.357 . S
C277 C276 1.357 . S
C277 C278 1.370 . S
C277 H303 0.950 . S
C278 N273 1.307 . S
C278 C277 1.370 . S
C278 H296 0.948 . S
Zn279 N273 2.020 . S
Zn279 O288 2.039 . S
Zn279 O294 2.034 . S
Zn279 O298 2.025 . S
Zn279 O300 2.024 . S
C280 O299 1.246 . S
C280 O300 1.249 . S
N281 C282 1.307 . S
N281 C283 1.333 . S
N281 Zn287 2.020 . S
C282 N281 1.307 . S
C282 C286 1.370 . S
C282 H293 0.948 . S
C283 N281 1.333 . S
C283 C284 1.379 . S
C283 H291 0.952 . S
C284 C283 1.379 . S
C284 C285 1.390 . S
C284 H304 0.949 . S
C285 C284 1.390 . S
C285 C286 1.357 . S
C286 C282 1.370 . S
C286 C285 1.357 . S
C286 H305 0.950 . S
Zn287 N281 2.020 . S
Zn287 O290 2.025 . S
Zn287 O295 2.024 . S
Zn287 O297 2.039 . S
Zn287 O299 2.034 . S
O288 C272 1.251 . S
O288 Zn279 2.039 . S
C289 O294 1.246 . S
C289 O295 1.249 . S
O290 C272 1.254 . S
O290 Zn287 2.025 . S
H291 C283 0.952 . S
H292 C274 0.952 . S
H293 C282 0.948 . S
O294 Zn279 2.034 . S
O294 C289 1.246 . S
O295 Zn287 2.024 . S
O295 C289 1.249 . S
H296 C278 0.948 . S
O297 Zn287 2.039 . S
O297 C301 1.251 . S
O298 Zn279 2.025 . S
O298 C301 1.254 . S
O299 C280 1.246 . S
O299 Zn287 2.034 . S
O300 Zn279 2.024 . S
O300 C280 1.249 . S
C301 O297 1.251 . S
C301 O298 1.254 . S
H302 C275 0.949 . S
H303 C277 0.950 . S
H304 C284 0.949 . S
H305 C286 0.950 . S
C306 O322 1.251 . S
C306 O324 1.254 . S
N307 C308 1.333 . S
N307 C312 1.307 . S
N307 Zn313 2.020 . S
C308 N307 1.333 . S
C308 C309 1.379 . S
C308 H326 0.952 . S
C309 C308 1.379 . S
C309 C310 1.390 . S
C309 H336 0.949 . S
C310 C309 1.390 . S
C310 C311 1.357 . S
C311 C310 1.357 . S
C311 C312 1.370 . S
C311 H337 0.950 . S
C312 N307 1.307 . S
C312 C311 1.370 . S
C312 H330 0.948 . S
Zn313 N307 2.020 . S
Zn313 O322 2.039 . S
Zn313 O328 2.034 . S
Zn313 O332 2.025 . S
Zn313 O334 2.024 . S
C314 O333 1.246 . S
C314 O334 1.249 . S
N315 C316 1.307 . S
N315 C317 1.333 . S
N315 Zn321 2.020 . S
C316 N315 1.307 . S
C316 C320 1.370 . S
C316 H327 0.948 . S
C317 N315 1.333 . S
C317 C318 1.379 . S
C317 H325 0.952 . S
C318 C317 1.379 . S
C318 C319 1.390 . S
C318 H338 0.949 . S
C319 C318 1.390 . S
C319 C320 1.357 . S
C320 C316 1.370 . S
C320 C319 1.357 . S
C320 H339 0.950 . S
Zn321 N315 2.020 . S
Zn321 O324 2.025 . S
Zn321 O329 2.024 . S
Zn321 O331 2.039 . S
Zn321 O333 2.034 . S
O322 C306 1.251 . S
O322 Zn313 2.039 . S
C323 O328 1.246 . S
C323 O329 1.249 . S
O324 C306 1.254 . S
O324 Zn321 2.025 . S
H325 C317 0.952 . S
H326 C308 0.952 . S
H327 C316 0.948 . S
O328 Zn313 2.034 . S
O328 C323 1.246 . S
O329 Zn321 2.024 . S
O329 C323 1.249 . S
H330 C312 0.948 . S
O331 Zn321 2.039 . S
O331 C335 1.251 . S
O332 Zn313 2.025 . S
O332 C335 1.254 . S
O333 C314 1.246 . S
O333 Zn321 2.034 . S
O334 Zn313 2.024 . S
O334 C314 1.249 . S
C335 O331 1.251 . S
C335 O332 1.254 . S
H336 C309 0.949 . S
H337 C311 0.950 . S
H338 C318 0.949 . S
H339 C320 0.950 . S
C340 O356 1.251 . S
C340 O358 1.254 . S
N341 C342 1.333 . S
N341 C346 1.307 . S
N341 Zn347 2.020 . S
C342 N341 1.333 . S
C342 C343 1.379 . S
C342 H360 0.952 . S
C343 C342 1.379 . S
C343 C344 1.390 . S
C343 H370 0.949 . S
C344 C343 1.390 . S
C344 C345 1.357 . S
C345 C344 1.357 . S
C345 C346 1.370 . S
C345 H371 0.950 . S
C346 N341 1.307 . S
C346 C345 1.370 . S
C346 H364 0.948 . S
Zn347 N341 2.020 . S
Zn347 O356 2.039 . S
Zn347 O362 2.034 . S
Zn347 O366 2.025 . S
Zn347 O368 2.024 . S
C348 O367 1.246 . S
C348 O368 1.249 . S
N349 C350 1.307 . S
N349 C351 1.333 . S
N349 Zn355 2.020 . S
C350 N349 1.307 . S
C350 C354 1.370 . S
C350 H361 0.948 . S
C351 N349 1.333 . S
C351 C352 1.379 . S
C351 H359 0.952 . S
C352 C351 1.379 . S
C352 C353 1.390 . S
C352 H372 0.949 . S
C353 C352 1.390 . S
C353 C354 1.357 . S
C354 C350 1.370 . S
C354 C353 1.357 . S
C354 H373 0.950 . S
Zn355 N349 2.020 . S
Zn355 O358 2.025 . S
Zn355 O363 2.024 . S
Zn355 O365 2.039 . S
Zn355 O367 2.034 . S
O356 C340 1.251 . S
O356 Zn347 2.039 . S
C357 O362 1.246 . S
C357 O363 1.249 . S
O358 C340 1.254 . S
O358 Zn355 2.025 . S
H359 C351 0.952 . S
H360 C342 0.952 . S
H361 C350 0.948 . S
O362 Zn347 2.034 . S
O362 C357 1.246 . S
O363 Zn355 2.024 . S
O363 C357 1.249 . S
H364 C346 0.948 . S
O365 Zn355 2.039 . S
O365 C369 1.251 . S
O366 Zn347 2.025 . S
O366 C369 1.254 . S
O367 C348 1.246 . S
O367 Zn355 2.034 . S
O368 Zn347 2.024 . S
O368 C348 1.249 . S
C369 O365 1.251 . S
C369 O366 1.254 . S
H370 C343 0.949 . S
H371 C345 0.950 . S
H372 C352 0.949 . S
H373 C354 0.950 . S
C374 O390 1.251 . S
C374 O392 1.254 . S
N375 C376 1.333 . S
N375 C380 1.307 . S
N375 Zn381 2.020 . S
C376 N375 1.333 . S
C376 C377 1.379 . S
C376 H394 0.952 . S
C377 C376 1.379 . S
C377 C378 1.390 . S
C377 H404 0.949 . S
C378 C377 1.390 . S
C378 C379 1.357 . S
C379 C378 1.357 . S
C379 C380 1.370 . S
C379 H405 0.950 . S
C380 N375 1.307 . S
C380 C379 1.370 . S
C380 H398 0.948 . S
Zn381 N375 2.020 . S
Zn381 O390 2.039 . S
Zn381 O396 2.034 . S
Zn381 O400 2.025 . S
Zn381 O402 2.024 . S
C382 O401 1.246 . S
C382 O402 1.249 . S
N383 C384 1.307 . S
N383 C385 1.333 . S
N383 Zn389 2.020 . S
C384 N383 1.307 . S
C384 C388 1.370 . S
C384 H395 0.948 . S
C385 N383 1.333 . S
C385 C386 1.379 . S
C385 H393 0.952 . S
C386 C385 1.379 . S
C386 C387 1.390 . S
C386 H406 0.949 . S
C387 C386 1.390 . S
C387 C388 1.357 . S
C388 C384 1.370 . S
C388 C387 1.357 . S
C388 H407 0.950 . S
Zn389 N383 2.020 . S
Zn389 O392 2.025 . S
Zn389 O397 2.024 . S
Zn389 O399 2.039 . S
Zn389 O401 2.034 . S
O390 C374 1.251 . S
O390 Zn381 2.039 . S
C391 O396 1.246 . S
C391 O397 1.249 . S
O392 C374 1.254 . S
O392 Zn389 2.025 . S
H393 C385 0.952 . S
H394 C376 0.952 . S
H395 C384 0.948 . S
O396 Zn381 2.034 . S
O396 C391 1.246 . S
O397 Zn389 2.024 . S
O397 C391 1.249 . S
H398 C380 0.948 . S
O399 Zn389 2.039 . S
O399 C403 1.251 . S
O400 Zn381 2.025 . S
O400 C403 1.254 . S
O401 C382 1.246 . S
O401 Zn389 2.034 . S
O402 Zn381 2.024 . S
O402 C382 1.249 . S
C403 O399 1.251 . S
C403 O400 1.254 . S
H404 C377 0.949 . S
H405 C379 0.950 . S
H406 C386 0.949 . S
H407 C388 0.950 . S
C408 C409 1.398 . S
C408 C410 1.394 . S
C408 H424 0.931 . S
C409 C408 1.398 . S
C409 C413 1.380 1_455 S
C410 C408 1.394 . S
C410 C411 1.369 . S
C410 C414 1.531 . S
C411 C410 1.369 . S
C411 C412 1.410 . S
C411 C419 1.503 . S
C412 C411 1.410 . S
C412 C413 1.392 1_455 S
C412 C415 1.511 . S
C413 C409 1.380 1_655 S
C413 C412 1.392 1_655 S
C413 H425 0.929 . S
C414 C410 1.531 . S
C414 H426 0.960 . S
C414 H427 0.962 . S
C414 H428 0.960 . S
C415 C412 1.511 . S
C415 H429 0.961 1_455 S
C415 H430 0.961 . S
C415 H431 0.961 . S
C416 C417 1.370 . S
C416 C418 1.363 . S
C416 H432 0.931 . S
C417 C416 1.370 . S
C417 C421 1.408 . S
C418 C416 1.363 . S
C418 C419 1.370 . S
C418 C422 1.524 . S
C419 C411 1.503 . S
C419 C418 1.370 . S
C419 C420 1.403 . S
C420 C419 1.403 . S
C420 C421 1.404 . S
C420 C423 1.539 . S
C421 C417 1.408 . S
C421 C420 1.404 . S
C421 H433 0.930 . S
C422 C418 1.524 . S
C422 H434 0.956 . S
C422 H435 0.961 . S
C422 H436 0.961 . S
C423 C420 1.539 . S
C423 H437 0.958 . S
C423 H438 0.961 . S
C423 H439 0.960 . S
H424 C408 0.931 . S
H425 C413 0.929 . S
H426 C414 0.960 . S
H427 C414 0.962 . S
H428 C414 0.960 . S
H429 C415 0.961 1_655 S
H430 C415 0.961 . S
H431 C415 0.961 . S
H432 C416 0.931 . S
H433 C421 0.930 . S
H434 C422 0.956 . S
H435 C422 0.961 . S
H436 C422 0.961 . S
H437 C423 0.958 . S
H438 C423 0.961 . S
H439 C423 0.960 . S
C440 C441 1.391 . S
C440 C442 1.394 . S
C440 H456 0.931 1_565 S
C441 C440 1.391 . S
C441 C445 1.376 . S
C442 C440 1.394 . S
C442 C443 1.369 . S
C442 C446 1.531 . S
C443 C442 1.369 . S
C443 C444 1.410 . S
C443 C451 1.503 . S
C444 C443 1.410 . S
C444 C445 1.392 . S
C444 C447 1.511 . S
C445 C441 1.376 . S
C445 C444 1.392 . S
C445 H457 0.929 . S
C446 C442 1.531 . S
C446 H458 0.960 . S
C446 H459 0.962 . S
C446 H460 0.960 . S
C447 C444 1.511 . S
C447 H461 0.961 . S
C447 H462 0.961 . S
C447 H463 0.961 . S
C448 C449 1.370 . S
C448 C450 1.363 1_655 S
C448 H464 0.931 . S
C449 C448 1.370 . S
C449 C453 1.408 . S
C450 C448 1.363 1_455 S
C450 C451 1.370 . S
C450 C454 1.524 . S
C451 C443 1.503 . S
C451 C450 1.370 . S
C451 C452 1.403 . S
C452 C451 1.403 . S
C452 C453 1.404 1_455 S
C452 C455 1.539 . S
C453 C449 1.408 . S
C453 C452 1.404 1_655 S
C453 H465 0.930 . S
C454 C450 1.524 . S
C454 H466 0.956 . S
C454 H467 0.961 . S
C454 H468 0.961 . S
C455 C452 1.539 . S
C455 H469 0.958 . S
C455 H470 0.961 . S
C455 H471 0.960 . S
H456 C440 0.931 1_545 S
H457 C445 0.929 . S
H458 C446 0.960 . S
H459 C446 0.962 . S
H460 C446 0.960 . S
H461 C447 0.961 . S
H462 C447 0.961 . S
H463 C447 0.961 . S
H464 C448 0.931 . S
H465 C453 0.930 . S
H466 C454 0.956 . S
H467 C454 0.961 . S
H468 C454 0.961 . S
H469 C455 0.958 . S
H470 C455 0.961 . S
H471 C455 0.960 . S
C472 C473 1.391 . S
C472 C474 1.394 1_545 S
C472 H488 0.931 . S
C473 C472 1.391 . S
C473 C477 1.376 . S
C474 C472 1.394 1_565 S
C474 C475 1.369 . S
C474 C478 1.531 . S
C475 C474 1.369 . S
C475 C476 1.410 . S
C475 C483 1.503 . S
C476 C475 1.410 . S
C476 C477 1.392 1_565 S
C476 C479 1.511 . S
C477 C473 1.376 . S
C477 C476 1.392 1_545 S
C477 H489 0.929 . S
C478 C474 1.531 . S
C478 H490 0.960 . S
C478 H491 0.962 . S
C478 H492 0.960 . S
C479 C476 1.511 . S
C479 H493 0.961 . S
C479 H494 0.961 . S
C479 H495 0.961 . S
C480 C481 1.370 . S
C480 C482 1.363 . S
C480 H496 0.931 . S
C481 C480 1.370 . S
C481 C485 1.408 . S
C482 C480 1.363 . S
C482 C483 1.370 . S
C482 C486 1.524 . S
C483 C475 1.503 . S
C483 C482 1.370 . S
C483 C484 1.403 . S
C484 C483 1.403 . S
C484 C485 1.404 . S
C484 C487 1.539 . S
C485 C481 1.408 . S
C485 C484 1.404 . S
C485 H497 0.930 . S
C486 C482 1.524 . S
C486 H498 0.956 . S
C486 H499 0.961 . S
C486 H500 0.961 . S
C487 C484 1.539 . S
C487 H501 0.958 . S
C487 H502 0.961 . S
C487 H503 0.960 . S
H488 C472 0.931 . S
H489 C477 0.929 . S
H490 C478 0.960 . S
H491 C478 0.962 . S
H492 C478 0.960 . S
H493 C479 0.961 . S
H494 C479 0.961 . S
H495 C479 0.961 . S
H496 C480 0.931 . S
H497 C485 0.930 . S
H498 C486 0.956 . S
H499 C486 0.961 . S
H500 C486 0.961 . S
H501 C487 0.958 . S
H502 C487 0.961 . S
H503 C487 0.960 . S
C504 C505 1.391 . S
C504 C506 1.394 . S
C504 H520 0.931 . S
C505 C504 1.391 . S
C505 C509 1.376 . S
C506 C504 1.394 . S
C506 C507 1.369 . S
C506 C510 1.531 . S
C507 C506 1.369 . S
C507 C508 1.410 . S
C507 C515 1.503 . S
C508 C507 1.410 . S
C508 C509 1.392 . S
C508 C511 1.511 . S
C509 C505 1.376 . S
C509 C508 1.392 . S
C509 H521 0.929 . S
C510 C506 1.531 . S
C510 H522 0.960 . S
C510 H523 0.962 . S
C510 H524 0.960 . S
C511 C508 1.511 . S
C511 H525 0.961 . S
C511 H526 0.961 . S
C511 H527 0.961 . S
C512 C513 1.370 1_455 S
C512 C514 1.363 . S
C512 H528 0.931 . S
C513 C512 1.370 1_655 S
C513 C517 1.408 . S
C514 C512 1.363 . S
C514 C515 1.370 . S
C514 C518 1.524 . S
C515 C507 1.503 . S
C515 C514 1.370 . S
C515 C516 1.403 . S
C516 C515 1.403 . S
C516 C517 1.404 1_455 S
C516 C519 1.539 . S
C517 C513 1.408 . S
C517 C516 1.404 1_655 S
C517 H529 0.930 . S
C518 C514 1.524 . S
C518 H530 0.956 . S
C518 H531 0.961 . S
C518 H532 0.961 . S
C519 C516 1.539 . S
C519 H533 0.958 . S
C519 H534 0.961 1_455 S
C519 H535 0.960 . S
H520 C504 0.931 . S
H521 C509 0.929 . S
H522 C510 0.960 . S
H523 C510 0.962 . S
H524 C510 0.960 . S
H525 C511 0.961 . S
H526 C511 0.961 . S
H527 C511 0.961 . S
H528 C512 0.931 . S
H529 C517 0.930 . S
H530 C518 0.956 . S
H531 C518 0.961 . S
H532 C518 0.961 . S
H533 C519 0.958 . S
H534 C519 0.961 1_655 S
H535 C519 0.960 . S
C536 C537 1.391 1_565 S
C536 C538 1.394 . S
C536 H552 0.931 . S
C537 C536 1.391 1_545 S
C537 C541 1.376 . S
C538 C536 1.394 . S
C538 C539 1.369 . S
C538 C542 1.531 . S
C539 C538 1.369 . S
C539 C540 1.410 . S
C539 C547 1.503 . S
C540 C539 1.410 . S
C540 C541 1.392 1_565 S
C540 C543 1.511 . S
C541 C537 1.376 . S
C541 C540 1.392 1_545 S
C541 H553 0.929 . S
C542 C538 1.531 . S
C542 H554 0.960 . S
C542 H555 0.962 . S
C542 H556 0.960 . S
C543 C540 1.511 . S
C543 H557 0.961 1_565 S
C543 H558 0.961 . S
C543 H559 0.961 . S
C544 C545 1.370 . S
C544 C546 1.363 1_655 S
C544 H560 0.931 . S
C545 C544 1.370 . S
C545 C549 1.408 . S
C546 C544 1.363 1_455 S
C546 C547 1.370 . S
C546 C550 1.524 . S
C547 C539 1.503 . S
C547 C546 1.370 . S
C547 C548 1.403 . S
C548 C547 1.403 . S
C548 C549 1.404 1_455 S
C548 C551 1.539 . S
C549 C545 1.408 . S
C549 C548 1.404 1_655 S
C549 H561 0.930 . S
C550 C546 1.524 . S
C550 H562 0.956 . S
C550 H563 0.961 . S
C550 H564 0.961 . S
C551 C548 1.539 . S
C551 H565 0.958 . S
C551 H566 0.961 . S
C551 H567 0.960 . S
H552 C536 0.931 . S
H553 C541 0.929 . S
H554 C542 0.960 . S
H555 C542 0.962 . S
H556 C542 0.960 . S
H557 C543 0.961 1_545 S
H558 C543 0.961 . S
H559 C543 0.961 . S
H560 C544 0.931 . S
H561 C549 0.930 . S
H562 C550 0.956 . S
H563 C550 0.961 . S
H564 C550 0.961 . S
H565 C551 0.958 . S
H566 C551 0.961 . S
H567 C551 0.960 . S
C568 C569 1.391 . S
C568 C570 1.394 . S
C568 H584 0.931 . S
C569 C568 1.391 . S
C569 C573 1.376 . S
C570 C568 1.394 . S
C570 C571 1.369 . S
C570 C574 1.531 . S
C571 C570 1.369 . S
C571 C572 1.410 . S
C571 C579 1.503 . S
C572 C571 1.410 . S
C572 C573 1.392 . S
C572 C575 1.511 . S
C573 C569 1.376 . S
C573 C572 1.392 . S
C573 H585 0.929 . S
C574 C570 1.531 . S
C574 H586 0.960 . S
C574 H587 0.962 . S
C574 H588 0.960 . S
C575 C572 1.511 . S
C575 H589 0.961 . S
C575 H590 0.961 . S
C575 H591 0.961 . S
C576 C577 1.370 . S
C576 C578 1.363 1_545 S
C576 H592 0.931 . S
C577 C576 1.370 . S
C577 C581 1.408 . S
C578 C576 1.363 1_565 S
C578 C579 1.370 . S
C578 C582 1.524 . S
C579 C571 1.503 . S
C579 C578 1.370 . S
C579 C580 1.403 . S
C580 C579 1.403 . S
C580 C581 1.404 1_565 S
C580 C583 1.539 . S
C581 C577 1.408 . S
C581 C580 1.404 1_545 S
C581 H593 0.930 . S
C582 C578 1.524 . S
C582 H594 0.956 . S
C582 H595 0.961 . S
C582 H596 0.961 . S
C583 C580 1.539 . S
C583 H597 0.958 . S
C583 H598 0.961 1_565 S
C583 H599 0.960 . S
H584 C568 0.931 . S
H585 C573 0.929 . S
H586 C574 0.960 . S
H587 C574 0.962 . S
H588 C574 0.960 . S
H589 C575 0.961 . S
H590 C575 0.961 . S
H591 C575 0.961 . S
H592 C576 0.931 . S
H593 C581 0.930 . S
H594 C582 0.956 . S
H595 C582 0.961 . S
H596 C582 0.961 . S
H597 C583 0.958 . S
H598 C583 0.961 1_545 S
H599 C583 0.960 . S
C600 C601 1.391 . S
C600 C602 1.394 . S
C600 H616 0.931 . S
C601 C600 1.391 . S
C601 C605 1.376 . S
C602 C600 1.394 . S
C602 C603 1.369 . S
C602 C606 1.531 . S
C603 C602 1.369 . S
C603 C604 1.410 . S
C603 C611 1.503 . S
C604 C603 1.410 . S
C604 C605 1.392 . S
C604 C607 1.511 . S
C605 C601 1.376 . S
C605 C604 1.392 . S
C605 H617 0.929 1_545 S
C606 C602 1.531 . S
C606 H618 0.960 . S
C606 H619 0.962 . S
C606 H620 0.960 . S
C607 C604 1.511 . S
C607 H621 0.961 . S
C607 H622 0.961 . S
C607 H623 0.961 . S
C608 C609 1.370 . S
C608 C610 1.363 . S
C608 H624 0.931 . S
C609 C608 1.370 . S
C609 C613 1.408 . S
C610 C608 1.363 . S
C610 C611 1.370 . S
C610 C614 1.524 . S
C611 C603 1.503 . S
C611 C610 1.370 . S
C611 C612 1.403 . S
C612 C611 1.403 . S
C612 C613 1.404 . S
C612 C615 1.539 . S
C613 C609 1.408 . S
C613 C612 1.404 . S
C613 H625 0.930 . S
C614 C610 1.524 . S
C614 H626 0.956 . S
C614 H627 0.961 . S
C614 H628 0.961 . S
C615 C612 1.539 . S
C615 H629 0.958 . S
C615 H630 0.961 . S
C615 H631 0.960 . S
H616 C600 0.931 . S
H617 C605 0.929 1_565 S
H618 C606 0.960 . S
H619 C606 0.962 . S
H620 C606 0.960 . S
H621 C607 0.961 . S
H622 C607 0.961 . S
H623 C607 0.961 . S
H624 C608 0.931 . S
H625 C613 0.930 . S
H626 C614 0.956 . S
H627 C614 0.961 . S
H628 C614 0.961 . S
H629 C615 0.958 . S
H630 C615 0.961 . S
H631 C615 0.960 . S
C632 C633 1.391 . S
C632 C634 1.394 1_455 S
C632 H648 0.931 . S
C633 C632 1.391 . S
C633 C637 1.376 . S
C634 C632 1.394 1_655 S
C634 C635 1.369 . S
C634 C638 1.531 . S
C635 C634 1.369 . S
C635 C636 1.410 . S
C635 C643 1.503 . S
C636 C635 1.410 . S
C636 C637 1.392 1_655 S
C636 C639 1.511 . S
C637 C633 1.376 . S
C637 C636 1.392 1_455 S
C637 H649 0.929 . S
C638 C634 1.531 . S
C638 H650 0.960 . S
C638 H651 0.962 . S
C638 H652 0.960 1_655 S
C639 C636 1.511 . S
C639 H653 0.961 . S
C639 H654 0.961 . S
C639 H655 0.961 . S
C640 C641 1.370 . S
C640 C642 1.363 . S
C640 H656 0.931 . S
C641 C640 1.370 . S
C641 C645 1.408 . S
C642 C640 1.363 . S
C642 C643 1.370 . S
C642 C646 1.524 . S
C643 C635 1.503 . S
C643 C642 1.370 . S
C643 C644 1.403 . S
C644 C643 1.403 . S
C644 C645 1.404 . S
C644 C647 1.539 . S
C645 C641 1.408 . S
C645 C644 1.404 . S
C645 H657 0.930 . S
C646 C642 1.524 . S
C646 H658 0.956 . S
C646 H659 0.961 . S
C646 H660 0.961 . S
C647 C644 1.539 . S
C647 H661 0.958 . S
C647 H662 0.961 . S
C647 H663 0.960 . S
H648 C632 0.931 . S
H649 C637 0.929 . S
H650 C638 0.960 . S
H651 C638 0.962 . S
H652 C638 0.960 1_455 S
H653 C639 0.961 . S
H654 C639 0.961 . S
H655 C639 0.961 . S
H656 C640 0.931 . S
H657 C645 0.930 . S
H658 C646 0.956 . S
H659 C646 0.961 . S
H660 C646 0.961 . S
H661 C647 0.958 . S
H662 C647 0.961 . S
H663 C647 0.960 . S
C664 C665 1.391 . S
C664 C666 1.394 1_565 S
C664 H680 0.931 . S
C665 C664 1.391 . S
C665 C669 1.376 . S
C666 C664 1.394 1_545 S
C666 C667 1.369 . S
C666 C670 1.531 . S
C667 C666 1.369 . S
C667 C668 1.410 . S
C667 C675 1.503 . S
C668 C667 1.410 . S
C668 C669 1.392 1_545 S
C668 C671 1.511 . S
C669 C665 1.376 . S
C669 C668 1.392 1_565 S
C669 H681 0.929 . S
C670 C666 1.531 . S
C670 H682 0.960 . S
C670 H683 0.962 . S
C670 H684 0.960 . S
C671 C668 1.511 . S
C671 H685 0.961 . S
C671 H686 0.961 . S
C671 H687 0.961 . S
C672 C673 1.365 1_455 S
C672 C674 1.363 1_455 S
C672 H688 0.931 . S
C673 C672 1.365 1_655 S
C673 C677 1.418 . S
C674 C672 1.363 1_655 S
C674 C675 1.370 . S
C674 C678 1.524 . S
C675 C667 1.503 . S
C675 C674 1.370 . S
C675 C676 1.403 . S
C676 C675 1.403 . S
C676 C677 1.404 . S
C676 C679 1.539 . S
C677 C673 1.418 . S
C677 C676 1.404 . S
C677 H689 0.930 . S
C678 C674 1.524 . S
C678 H690 0.956 . S
C678 H691 0.961 . S
C678 H692 0.961 1_655 S
C679 C676 1.539 . S
C679 H693 0.958 . S
C679 H694 0.961 . S
C679 H695 0.960 . S
H680 C664 0.931 . S
H681 C669 0.929 . S
H682 C670 0.960 . S
H683 C670 0.962 . S
H684 C670 0.960 . S
H685 C671 0.961 . S
H686 C671 0.961 . S
H687 C671 0.961 . S
H688 C672 0.931 . S
H689 C677 0.930 . S
H690 C678 0.956 . S
H691 C678 0.961 . S
H692 C678 0.961 1_455 S
H693 C679 0.958 . S
H694 C679 0.961 . S
H695 C679 0.960 . S
C696 C697 1.391 . S
C696 C698 1.394 . S
C696 H712 0.931 . S
C697 C696 1.391 . S
C697 C701 1.376 . S
C698 C696 1.394 . S
C698 C699 1.369 . S
C698 C702 1.531 . S
C699 C698 1.369 . S
C699 C700 1.410 . S
C699 C707 1.503 . S
C700 C699 1.410 . S
C700 C701 1.392 . S
C700 C703 1.511 . S
C701 C697 1.376 . S
C701 C700 1.392 . S
C701 H713 0.929 . S
C702 C698 1.531 . S
C702 H714 0.960 . S
C702 H715 0.962 . S
C702 H716 0.960 . S
C703 C700 1.511 . S
C703 H717 0.961 . S
C703 H718 0.961 . S
C703 H719 0.961 . S
C704 C705 1.370 1_545 S
C704 C706 1.363 . S
C704 H720 0.931 . S
C705 C704 1.370 1_565 S
C705 C709 1.408 . S
C706 C704 1.363 . S
C706 C707 1.370 . S
C706 C710 1.524 . S
C707 C699 1.503 . S
C707 C706 1.370 . S
C707 C708 1.403 . S
C708 C707 1.403 . S
C708 C709 1.404 1_545 S
C708 C711 1.539 . S
C709 C705 1.408 . S
C709 C708 1.404 1_565 S
C709 H721 0.930 . S
C710 C706 1.524 . S
C710 H722 0.956 . S
C710 H723 0.961 . S
C710 H724 0.961 . S
C711 C708 1.539 . S
C711 H725 0.958 . S
C711 H726 0.961 . S
C711 H727 0.960 . S
H712 C696 0.931 . S
H713 C701 0.929 . S
H714 C702 0.960 . S
H715 C702 0.962 . S
H716 C702 0.960 . S
H717 C703 0.961 . S
H718 C703 0.961 . S
H719 C703 0.961 . S
H720 C704 0.931 . S
H721 C709 0.930 . S
H722 C710 0.956 . S
H723 C710 0.961 . S
H724 C710 0.961 . S
H725 C711 0.958 . S
H726 C711 0.961 . S
H727 C711 0.960 . S
C728 C729 1.391 . S
C728 C730 1.394 1_455 S
C728 H744 0.931 . S
C729 C728 1.391 . S
C729 C733 1.376 . S
C730 C728 1.394 1_655 S
C730 C731 1.369 . S
C730 C734 1.531 . S
C731 C730 1.369 . S
C731 C732 1.410 . S
C731 C739 1.503 . S
C732 C731 1.410 . S
C732 C733 1.392 1_655 S
C732 C735 1.511 . S
C733 C729 1.376 . S
C733 C732 1.392 1_455 S
C733 H745 0.929 . S
C734 C730 1.531 . S
C734 H746 0.960 . S
C734 H747 0.962 . S
C734 H748 0.960 1_655 S
C735 C732 1.511 . S
C735 H749 0.961 . S
C735 H750 0.961 . S
C735 H751 0.961 . S
C736 C737 1.370 . S
C736 C738 1.363 . S
C736 H752 0.931 . S
C737 C736 1.370 . S
C737 C741 1.408 . S
C738 C736 1.363 . S
C738 C739 1.370 . S
C738 C742 1.524 . S
C739 C731 1.503 . S
C739 C738 1.370 . S
C739 C740 1.403 . S
C740 C739 1.403 . S
C740 C741 1.404 . S
C740 C743 1.539 . S
C741 C737 1.408 . S
C741 C740 1.404 . S
C741 H753 0.930 . S
C742 C738 1.524 . S
C742 H754 0.956 . S
C742 H755 0.961 . S
C742 H756 0.961 . S
C743 C740 1.539 . S
C743 H757 0.958 . S
C743 H758 0.961 . S
C743 H759 0.960 . S
H744 C728 0.931 . S
H745 C733 0.929 . S
H746 C734 0.960 . S
H747 C734 0.962 . S
H748 C734 0.960 1_455 S
H749 C735 0.961 . S
H750 C735 0.961 . S
H751 C735 0.961 . S
H752 C736 0.931 . S
H753 C741 0.930 . S
H754 C742 0.956 . S
H755 C742 0.961 . S
H756 C742 0.961 . S
H757 C743 0.958 . S
H758 C743 0.961 . S
H759 C743 0.960 . S
C760 C761 1.390 1_455 S
C760 C762 1.394 1_455 S
C760 H776 0.931 . S
C761 C760 1.390 1_655 S
C761 C765 1.377 . S
C762 C760 1.394 1_655 S
C762 C763 1.369 . S
C762 C766 1.531 . S
C763 C762 1.369 . S
C763 C764 1.410 . S
C763 C771 1.503 . S
C764 C763 1.410 . S
C764 C765 1.392 . S
C764 C767 1.511 . S
C765 C761 1.377 . S
C765 C764 1.392 . S
C765 H777 0.929 . S
C766 C762 1.531 . S
C766 H778 0.960 . S
C766 H779 0.962 . S
C766 H780 0.960 . S
C767 C764 1.511 . S
C767 H781 0.961 . S
C767 H782 0.961 . S
C767 H783 0.961 . S
C768 C769 1.370 . S
C768 C770 1.363 1_565 S
C768 H784 0.931 . S
C769 C768 1.370 . S
C769 C773 1.408 . S
C770 C768 1.363 1_545 S
C770 C771 1.370 . S
C770 C774 1.524 . S
C771 C763 1.503 . S
C771 C770 1.370 . S
C771 C772 1.403 . S
C772 C771 1.403 . S
C772 C773 1.404 1_545 S
C772 C775 1.539 . S
C773 C769 1.408 . S
C773 C772 1.404 1_565 S
C773 H785 0.930 . S
C774 C770 1.524 . S
C774 H786 0.956 . S
C774 H787 0.961 . S
C774 H788 0.961 . S
C775 C772 1.539 . S
C775 H789 0.958 . S
C775 H790 0.961 . S
C775 H791 0.960 . S
H776 C760 0.931 . S
H777 C765 0.929 . S
H778 C766 0.960 . S
H779 C766 0.962 . S
H780 C766 0.960 . S
H781 C767 0.961 . S
H782 C767 0.961 . S
H783 C767 0.961 . S
H784 C768 0.931 . S
H785 C773 0.930 . S
H786 C774 0.956 . S
H787 C774 0.961 . S
H788 C774 0.961 . S
H789 C775 0.958 . S
H790 C775 0.961 . S
H791 C775 0.960 . S
C792 C793 1.391 . S
C792 C794 1.394 . S
C792 H808 0.931 . S
C793 C792 1.391 . S
C793 C797 1.376 . S
C794 C792 1.394 . S
C794 C795 1.369 . S
C794 C798 1.531 . S
C795 C794 1.369 . S
C795 C796 1.410 . S
C795 C803 1.503 . S
C796 C795 1.410 . S
C796 C797 1.392 . S
C796 C799 1.511 . S
C797 C793 1.376 . S
C797 C796 1.392 . S
C797 H809 0.929 . S
C798 C794 1.531 . S
C798 H810 0.960 . S
C798 H811 0.962 . S
C798 H812 0.960 . S
C799 C796 1.511 . S
C799 H813 0.961 . S
C799 H814 0.961 . S
C799 H815 0.961 . S
C800 C801 1.370 . S
C800 C802 1.363 . S
C800 H816 0.931 . S
C801 C800 1.370 . S
C801 C805 1.408 . S
C802 C800 1.363 . S
C802 C803 1.370 . S
C802 C806 1.524 . S
C803 C795 1.503 . S
C803 C802 1.370 . S
C803 C804 1.403 . S
C804 C803 1.403 . S
C804 C805 1.404 . S
C804 C807 1.539 . S
C805 C801 1.408 . S
C805 C804 1.404 . S
C805 H817 0.930 . S
C806 C802 1.524 . S
C806 H818 0.956 . S
C806 H819 0.961 . S
C806 H820 0.961 . S
C807 C804 1.539 . S
C807 H821 0.958 . S
C807 H822 0.961 . S
C807 H823 0.960 . S
H808 C792 0.931 . S
H809 C797 0.929 . S
H810 C798 0.960 . S
H811 C798 0.962 . S
H812 C798 0.960 . S
H813 C799 0.961 . S
H814 C799 0.961 . S
H815 C799 0.961 . S
H816 C800 0.931 . S
H817 C805 0.930 . S
H818 C806 0.956 . S
H819 C806 0.961 . S
H820 C806 0.961 . S
H821 C807 0.958 . S
H822 C807 0.961 . S
H823 C807 0.960 . S
C824 C825 1.391 . S
C824 C826 1.394 . S
C824 H840 0.931 . S
C825 C824 1.391 . S
C825 C829 1.376 . S
C826 C824 1.394 . S
C826 C827 1.369 . S
C826 C830 1.531 . S
C827 C826 1.369 . S
C827 C828 1.410 . S
C827 C835 1.503 . S
C828 C827 1.410 . S
C828 C829 1.392 . S
C828 C831 1.511 . S
C829 C825 1.376 . S
C829 C828 1.392 . S
C829 H841 0.929 . S
C830 C826 1.531 . S
C830 H842 0.960 . S
C830 H843 0.962 . S
C830 H844 0.960 . S
C831 C828 1.511 . S
C831 H845 0.961 . S
C831 H846 0.961 . S
C831 H847 0.961 . S
C832 C833 1.370 . S
C832 C834 1.363 . S
C832 H848 0.931 . S
C833 C832 1.370 . S
C833 C837 1.408 . S
C834 C832 1.363 . S
C834 C835 1.370 . S
C834 C838 1.524 . S
C835 C827 1.503 . S
C835 C834 1.370 . S
C835 C836 1.403 . S
C836 C835 1.403 . S
C836 C837 1.404 . S
C836 C839 1.539 . S
C837 C833 1.408 . S
C837 C836 1.404 . S
C837 H849 0.930 . S
C838 C834 1.524 . S
C838 H850 0.956 . S
C838 H851 0.961 . S
C838 H852 0.961 . S
C839 C836 1.539 . S
C839 H853 0.958 . S
C839 H854 0.961 . S
C839 H855 0.960 . S
H840 C824 0.931 . S
H841 C829 0.929 . S
H842 C830 0.960 . S
H843 C830 0.962 . S
H844 C830 0.960 . S
H845 C831 0.961 . S
H846 C831 0.961 . S
H847 C831 0.961 . S
H848 C832 0.931 . S
H849 C837 0.930 . S
H850 C838 0.956 . S
H851 C838 0.961 . S
H852 C838 0.961 . S
H853 C839 0.958 . S
H854 C839 0.961 . S
H855 C839 0.960 . S
C856 C857 1.391 . S
C856 C858 1.394 . S
C856 H872 0.931 . S
C857 C856 1.391 . S
C857 C861 1.376 . S
C858 C856 1.394 . S
C858 C859 1.369 . S
C858 C862 1.531 . S
C859 C858 1.369 . S
C859 C860 1.410 . S
C859 C867 1.503 . S
C860 C859 1.410 . S
C860 C861 1.392 . S
C860 C863 1.511 . S
C861 C857 1.376 . S
C861 C860 1.392 . S
C861 H873 0.929 . S
C862 C858 1.531 . S
C862 H874 0.960 . S
C862 H875 0.962 . S
C862 H876 0.960 . S
C863 C860 1.511 . S
C863 H877 0.961 . S
C863 H878 0.961 . S
C863 H879 0.961 . S
C864 C865 1.370 . S
C864 C866 1.363 . S
C864 H880 0.931 . S
C865 C864 1.370 . S
C865 C869 1.408 . S
C866 C864 1.363 . S
C866 C867 1.370 . S
C866 C870 1.524 . S
C867 C859 1.503 . S
C867 C866 1.370 . S
C867 C868 1.403 . S
C868 C867 1.403 . S
C868 C869 1.404 . S
C868 C871 1.539 . S
C869 C865 1.408 . S
C869 C868 1.404 . S
C869 H881 0.930 . S
C870 C866 1.524 . S
C870 H882 0.956 . S
C870 H883 0.961 . S
C870 H884 0.961 . S
C871 C868 1.539 . S
C871 H885 0.958 . S
C871 H886 0.961 . S
C871 H887 0.960 . S
H872 C856 0.931 . S
H873 C861 0.929 . S
H874 C862 0.960 . S
H875 C862 0.962 . S
H876 C862 0.960 . S
H877 C863 0.961 . S
H878 C863 0.961 . S
H879 C863 0.961 . S
H880 C864 0.931 . S
H881 C869 0.930 . S
H882 C870 0.956 . S
H883 C870 0.961 . S
H884 C870 0.961 . S
H885 C871 0.958 . S
H886 C871 0.961 . S
H887 C871 0.960 . S
C888 C889 1.391 . S
C888 C890 1.394 . S
C888 H904 0.931 . S
C889 C888 1.391 . S
C889 C893 1.376 . S
C890 C888 1.394 . S
C890 C891 1.369 . S
C890 C894 1.531 . S
C891 C890 1.369 . S
C891 C892 1.410 . S
C891 C899 1.503 . S
C892 C891 1.410 . S
C892 C893 1.392 . S
C892 C895 1.511 . S
C893 C889 1.376 . S
C893 C892 1.392 . S
C893 H905 0.929 . S
C894 C890 1.531 . S
C894 H906 0.960 . S
C894 H907 0.962 . S
C894 H908 0.960 . S
C895 C892 1.511 . S
C895 H909 0.961 . S
C895 H910 0.961 . S
C895 H911 0.961 . S
C896 C897 1.370 . S
C896 C898 1.363 . S
C896 H912 0.931 . S
C897 C896 1.370 . S
C897 C901 1.408 . S
C898 C896 1.363 . S
C898 C899 1.370 . S
C898 C902 1.524 . S
C899 C891 1.503 . S
C899 C898 1.370 . S
C899 C900 1.403 . S
C900 C899 1.403 . S
C900 C901 1.404 . S
C900 C903 1.539 . S
C901 C897 1.408 . S
C901 C900 1.404 . S
C901 H913 0.930 . S
C902 C898 1.524 . S
C902 H914 0.956 . S
C902 H915 0.961 . S
C902 H916 0.961 . S
C903 C900 1.539 . S
C903 H917 0.958 . S
C903 H918 0.961 . S
C903 H919 0.960 . S
H904 C888 0.931 . S
H905 C893 0.929 . S
H906 C894 0.960 . S
H907 C894 0.962 . S
H908 C894 0.960 . S
H909 C895 0.961 . S
H910 C895 0.961 . S
H911 C895 0.961 . S
H912 C896 0.931 . S
H913 C901 0.930 . S
H914 C902 0.956 . S
H915 C902 0.961 . S
H916 C902 0.961 . S
H917 C903 0.958 . S
H918 C903 0.961 . S
H919 C903 0.960 . S
C920 C921 1.391 . S
C920 C922 1.394 . S
C920 H936 0.931 . S
C921 C920 1.391 . S
C921 C925 1.376 . S
C922 C920 1.394 . S
C922 C923 1.369 . S
C922 C926 1.531 . S
C923 C922 1.369 . S
C923 C924 1.410 . S
C923 C931 1.503 . S
C924 C923 1.410 . S
C924 C925 1.392 . S
C924 C927 1.511 . S
C925 C921 1.376 . S
C925 C924 1.392 . S
C925 H937 0.929 . S
C926 C922 1.531 . S
C926 H938 0.960 . S
C926 H939 0.962 . S
C926 H940 0.960 . S
C927 C924 1.511 . S
C927 H941 0.961 . S
C927 H942 0.961 . S
C927 H943 0.961 . S
C928 C929 1.370 . S
C928 C930 1.363 . S
C928 H944 0.931 . S
C929 C928 1.370 . S
C929 C933 1.408 . S
C930 C928 1.363 . S
C930 C931 1.370 . S
C930 C934 1.524 . S
C931 C923 1.503 . S
C931 C930 1.370 . S
C931 C932 1.403 . S
C932 C931 1.403 . S
C932 C933 1.404 . S
C932 C935 1.539 . S
C933 C929 1.408 . S
C933 C932 1.404 . S
C933 H945 0.930 . S
C934 C930 1.524 . S
C934 H946 0.956 . S
C934 H947 0.961 . S
C934 H948 0.961 . S
C935 C932 1.539 . S
C935 H949 0.958 . S
C935 H950 0.961 . S
C935 H951 0.960 . S
H936 C920 0.931 . S
H937 C925 0.929 . S
H938 C926 0.960 . S
H939 C926 0.962 . S
H940 C926 0.960 . S
H941 C927 0.961 . S
H942 C927 0.961 . S
H943 C927 0.961 . S
H944 C928 0.931 . S
H945 C933 0.930 . S
H946 C934 0.956 . S
H947 C934 0.961 . S
H948 C934 0.961 . S
H949 C935 0.958 . S
H950 C935 0.961 . S
H951 C935 0.960 . S
C952 C953 1.391 . S
C952 C954 1.394 . S
C952 H968 0.931 . S
C953 C952 1.391 . S
C953 C957 1.376 . S
C954 C952 1.394 . S
C954 C955 1.369 . S
C954 C958 1.531 . S
C955 C954 1.369 . S
C955 C956 1.410 . S
C955 C963 1.503 . S
C956 C955 1.410 . S
C956 C957 1.392 . S
C956 C959 1.511 . S
C957 C953 1.376 . S
C957 C956 1.392 . S
C957 H969 0.929 . S
C958 C954 1.531 . S
C958 H970 0.960 . S
C958 H971 0.962 . S
C958 H972 0.960 . S
C959 C956 1.511 . S
C959 H973 0.961 . S
C959 H974 0.961 . S
C959 H975 0.961 . S
C960 C961 1.370 . S
C960 C962 1.363 . S
C960 H976 0.931 . S
C961 C960 1.370 . S
C961 C965 1.408 . S
C962 C960 1.363 . S
C962 C963 1.370 . S
C962 C966 1.524 . S
C963 C955 1.503 . S
C963 C962 1.370 . S
C963 C964 1.403 . S
C964 C963 1.403 . S
C964 C965 1.404 . S
C964 C967 1.539 . S
C965 C961 1.408 . S
C965 C964 1.404 . S
C965 H977 0.930 . S
C966 C962 1.524 . S
C966 H978 0.956 . S
C966 H979 0.961 . S
C966 H980 0.961 . S
C967 C964 1.539 . S
C967 H981 0.958 . S
C967 H982 0.961 . S
C967 H983 0.960 . S
H968 C952 0.931 . S
H969 C957 0.929 . S
H970 C958 0.960 . S
H971 C958 0.962 . S
H972 C958 0.960 . S
H973 C959 0.961 . S
H974 C959 0.961 . S
H975 C959 0.961 . S
H976 C960 0.931 . S
H977 C965 0.930 . S
H978 C966 0.956 . S
H979 C966 0.961 . S
H980 C966 0.961 . S
H981 C967 0.958 . S
H982 C967 0.961 . S
H983 C967 0.960 . S
C984 C985 1.391 . S
C984 C986 1.394 . S
C984 H1000 0.931 . S
C985 C984 1.391 . S
C985 C989 1.376 . S
C986 C984 1.394 . S
C986 C987 1.369 . S
C986 C990 1.509 1_556 S
C987 C986 1.369 . S
C987 C988 1.410 . S
C987 C995 1.503 1_566 S
C988 C987 1.410 . S
C988 C989 1.392 . S
C988 C991 1.511 1_565 S
C989 C985 1.376 . S
C989 C988 1.392 . S
C989 H1001 0.929 . S
C990 C986 1.509 1_554 S
C990 H1002 0.996 . S
C990 H1003 0.954 1_554 S
C990 H1004 0.952 1_554 S
C991 C988 1.511 1_545 S
C991 H1005 0.961 . S
C991 H1006 0.961 . S
C991 H1007 0.961 1_545 S
C992 C993 1.370 . S
C992 C994 1.363 . S
C992 H1008 0.931 . S
C993 C992 1.370 . S
C993 C997 1.408 . S
C994 C992 1.363 . S
C994 C995 1.370 . S
C994 C998 1.524 1_554 S
C995 C987 1.503 1_544 S
C995 C994 1.370 . S
C995 C996 1.403 1_545 S
C996 C995 1.403 1_565 S
C996 C997 1.404 1_565 S
C996 C999 1.539 . S
C997 C993 1.408 . S
C997 C996 1.404 1_545 S
C997 H1009 0.930 . S
C998 C994 1.524 1_556 S
C998 H1010 0.956 . S
C998 H1011 0.961 . S
C998 H1012 0.961 . S
C999 C996 1.539 . S
C999 H1013 0.958 . S
C999 H1014 0.961 . S
C999 H1015 0.960 . S
H1000 C984 0.931 . S
H1001 C989 0.929 . S
H1002 C990 0.996 . S
H1003 C990 0.954 1_556 S
H1004 C990 0.952 1_556 S
H1005 C991 0.961 . S
H1006 C991 0.961 . S
H1007 C991 0.961 1_565 S
H1008 C992 0.931 . S
H1009 C997 0.930 . S
H1010 C998 0.956 . S
H1011 C998 0.961 . S
H1012 C998 0.961 . S
H1013 C999 0.958 . S
H1014 C999 0.961 . S
H1015 C999 0.960 . S
C1016 C1017 1.391 . S
C1016 C1018 1.394 . S
C1016 H1032 0.931 . S
C1017 C1016 1.391 . S
C1017 C1021 1.376 . S
C1018 C1016 1.394 . S
C1018 C1019 1.369 . S
C1018 C1022 1.531 . S
C1019 C1018 1.369 . S
C1019 C1020 1.410 . S
C1019 C1027 1.503 . S
C1020 C1019 1.410 . S
C1020 C1021 1.392 . S
C1020 C1023 1.511 . S
C1021 C1017 1.376 . S
C1021 C1020 1.392 . S
C1021 H1033 0.929 . S
C1022 C1018 1.531 . S
C1022 H1034 0.960 . S
C1022 H1035 0.962 . S
C1022 H1036 0.960 . S
C1023 C1020 1.511 . S
C1023 H1037 0.961 . S
C1023 H1038 0.961 . S
C1023 H1039 0.961 . S
C1024 C1025 1.370 . S
C1024 C1026 1.363 . S
C1024 H1040 0.931 . S
C1025 C1024 1.370 . S
C1025 C1029 1.408 . S
C1026 C1024 1.363 . S
C1026 C1027 1.370 . S
C1026 C1030 1.524 . S
C1027 C1019 1.503 . S
C1027 C1026 1.370 . S
C1027 C1028 1.403 . S
C1028 C1027 1.403 . S
C1028 C1029 1.404 . S
C1028 C1031 1.539 . S
C1029 C1025 1.408 . S
C1029 C1028 1.404 . S
C1029 H1041 0.930 . S
C1030 C1026 1.524 . S
C1030 H1042 0.956 . S
C1030 H1043 0.961 . S
C1030 H1044 0.961 . S
C1031 C1028 1.539 . S
C1031 H1045 0.958 . S
C1031 H1046 0.961 . S
C1031 H1047 0.960 . S
H1032 C1016 0.931 . S
H1033 C1021 0.929 . S
H1034 C1022 0.960 . S
H1035 C1022 0.962 . S
H1036 C1022 0.960 . S
H1037 C1023 0.961 . S
H1038 C1023 0.961 . S
H1039 C1023 0.961 . S
H1040 C1024 0.931 . S
H1041 C1029 0.930 . S
H1042 C1030 0.956 . S
H1043 C1030 0.961 . S
H1044 C1030 0.961 . S
H1045 C1031 0.958 . S
H1046 C1031 0.961 . S
H1047 C1031 0.960 . S
C1048 C1049 1.391 . S
C1048 C1050 1.394 1_455 S
C1048 H1064 0.931 . S
C1049 C1048 1.391 . S
C1049 C1053 1.376 . S
C1050 C1048 1.394 1_655 S
C1050 C1051 1.369 1_655 S
C1050 C1054 1.531 . S
C1051 C1050 1.369 1_455 S
C1051 C1052 1.410 . S
C1051 C1059 1.503 1_456 S
C1052 C1051 1.410 . S
C1052 C1053 1.392 . S
C1052 C1055 1.511 1_556 S
C1053 C1049 1.376 . S
C1053 C1052 1.392 . S
C1053 H1065 0.929 . S
C1054 C1050 1.531 . S
C1054 H1066 0.960 . S
C1054 H1067 0.962 . S
C1054 H1068 0.960 . S
C1055 C1052 1.511 1_554 S
C1055 H1069 0.961 . S
C1055 H1070 0.961 . S
C1055 H1071 0.961 . S
C1056 C1057 1.370 . S
C1056 C1058 1.363 . S
C1056 H1072 0.931 . S
C1057 C1056 1.370 . S
C1057 C1061 1.408 . S
C1058 C1056 1.363 . S
C1058 C1059 1.370 . S
C1058 C1062 1.524 . S
C1059 C1051 1.503 1_654 S
C1059 C1058 1.370 . S
C1059 C1060 1.403 . S
C1060 C1059 1.403 . S
C1060 C1061 1.404 . S
C1060 C1063 1.539 . S
C1061 C1057 1.408 . S
C1061 C1060 1.404 . S
C1061 H1073 0.930 . S
C1062 C1058 1.524 . S
C1062 H1074 0.956 1_554 S
C1062 H1075 0.961 1_655 S
C1062 H1076 0.961 . S
C1063 C1060 1.539 . S
C1063 H1077 0.958 . S
C1063 H1078 0.961 . S
C1063 H1079 0.960 1_655 S
H1064 C1048 0.931 . S
H1065 C1053 0.929 . S
H1066 C1054 0.960 . S
H1067 C1054 0.962 . S
H1068 C1054 0.960 . S
H1069 C1055 0.961 . S
H1070 C1055 0.961 . S
H1071 C1055 0.961 . S
H1072 C1056 0.931 . S
H1073 C1061 0.930 . S
H1074 C1062 0.956 1_556 S
H1075 C1062 0.961 1_455 S
H1076 C1062 0.961 . S
H1077 C1063 0.958 . S
H1078 C1063 0.961 . S
H1079 C1063 0.960 1_455 S
C1080 C1081 1.391 . S
C1080 C1082 1.394 . S
C1080 H1096 0.931 . S
C1081 C1080 1.391 . S
C1081 C1085 1.376 . S
C1082 C1080 1.394 . S
C1082 C1083 1.369 . S
C1082 C1086 1.531 1_545 S
C1083 C1082 1.369 . S
C1083 C1084 1.410 . S
C1083 C1091 1.503 1_545 S
C1084 C1083 1.410 . S
C1084 C1085 1.392 . S
C1084 C1087 1.511 . S
C1085 C1081 1.376 . S
C1085 C1084 1.392 . S
C1085 H1097 0.929 . S
C1086 C1082 1.531 1_565 S
C1086 H1098 0.960 . S
C1086 H1099 0.962 . S
C1086 H1100 0.960 . S
C1087 C1084 1.511 . S
C1087 H1101 0.961 . S
C1087 H1102 0.961 . S
C1087 H1103 0.961 . S
C1088 C1089 1.370 . S
C1088 C1090 1.363 1_565 S
C1088 H1104 0.931 . S
C1089 C1088 1.370 . S
C1089 C1093 1.408 . S
C1090 C1088 1.363 1_545 S
C1090 C1091 1.370 1_545 S
C1090 C1094 1.524 . S
C1091 C1083 1.503 1_565 S
C1091 C1090 1.370 1_565 S
C1091 C1092 1.403 . S
C1092 C1091 1.403 . S
C1092 C1093 1.404 . S
C1092 C1095 1.539 . S
C1093 C1089 1.408 . S
C1093 C1092 1.404 . S
C1093 H1105 0.930 . S
C1094 C1090 1.524 . S
C1094 H1106 0.956 . S
C1094 H1107 0.961 . S
C1094 H1108 0.961 . S
C1095 C1092 1.539 . S
C1095 H1109 0.958 . S
C1095 H1110 0.961 . S
C1095 H1111 0.960 . S
H1096 C1080 0.931 . S
H1097 C1085 0.929 . S
H1098 C1086 0.960 . S
H1099 C1086 0.962 . S
H1100 C1086 0.960 . S
H1101 C1087 0.961 . S
H1102 C1087 0.961 . S
H1103 C1087 0.961 . S
H1104 C1088 0.931 . S
H1105 C1093 0.930 . S
H1106 C1094 0.956 . S
H1107 C1094 0.961 . S
H1108 C1094 0.961 . S
H1109 C1095 0.958 . S
H1110 C1095 0.961 . S
H1111 C1095 0.960 . S
C1112 C1113 1.391 . S
C1112 C1114 1.394 . S
C1112 H1128 0.931 . S
C1113 C1112 1.391 . S
C1113 C1117 1.376 . S
C1114 C1112 1.394 . S
C1114 C1115 1.369 . S
C1114 C1118 1.531 . S
C1115 C1114 1.369 . S
C1115 C1116 1.410 . S
C1115 C1123 1.503 1_554 S
C1116 C1115 1.410 . S
C1116 C1117 1.392 . S
C1116 C1119 1.511 1_554 S
C1117 C1113 1.376 . S
C1117 C1116 1.392 . S
C1117 H1129 0.929 . S
C1118 C1114 1.531 . S
C1118 H1130 0.960 . S
C1118 H1131 0.962 . S
C1118 H1132 0.960 . S
C1119 C1116 1.511 1_556 S
C1119 H1133 0.961 . S
C1119 H1134 0.961 . S
C1119 H1135 0.961 . S
C1120 C1121 1.370 . S
C1120 C1122 1.363 . S
C1120 H1136 0.931 . S
C1121 C1120 1.370 . S
C1121 C1125 1.408 . S
C1122 C1120 1.363 . S
C1122 C1123 1.370 . S
C1122 C1126 1.524 . S
C1123 C1115 1.503 1_556 S
C1123 C1122 1.370 . S
C1123 C1124 1.403 . S
C1124 C1123 1.403 . S
C1124 C1125 1.404 . S
C1124 C1127 1.539 . S
C1125 C1121 1.408 . S
C1125 C1124 1.404 . S
C1125 H1137 0.930 . S
C1126 C1122 1.524 . S
C1126 H1138 0.956 1_556 S
C1126 H1139 0.961 . S
C1126 H1140 0.961 . S
C1127 C1124 1.539 . S
C1127 H1141 0.958 1_556 S
C1127 H1142 0.961 . S
C1127 H1143 0.975 . S
H1128 C1112 0.931 . S
H1129 C1117 0.929 . S
H1130 C1118 0.960 . S
H1131 C1118 0.962 . S
H1132 C1118 0.960 . S
H1133 C1119 0.961 . S
H1134 C1119 0.961 . S
H1135 C1119 0.961 . S
H1136 C1120 0.931 . S
H1137 C1125 0.930 . S
H1138 C1126 0.956 1_554 S
H1139 C1126 0.961 . S
H1140 C1126 0.961 . S
H1141 C1127 0.958 1_554 S
H1142 C1127 0.961 . S
H1143 C1127 0.975 . S
C1144 C1145 1.391 . S
C1144 C1146 1.394 . S
C1144 H1160 0.931 . S
C1145 C1144 1.391 . S
C1145 C1149 1.376 . S
C1146 C1144 1.394 . S
C1146 C1147 1.369 . S
C1146 C1150 1.531 . S
C1147 C1146 1.369 . S
C1147 C1148 1.410 1_455 S
C1147 C1155 1.503 1_455 S
C1148 C1147 1.410 1_655 S
C1148 C1149 1.392 1_655 S
C1148 C1151 1.511 . S
C1149 C1145 1.376 . S
C1149 C1148 1.392 1_455 S
C1149 H1161 0.929 . S
C1150 C1146 1.531 . S
C1150 H1162 0.960 . S
C1150 H1163 0.962 . S
C1150 H1164 0.960 . S
C1151 C1148 1.511 . S
C1151 H1165 0.961 . S
C1151 H1166 0.961 . S
C1151 H1167 0.961 . S
C1152 C1153 1.370 . S
C1152 C1154 1.363 . S
C1152 H1168 0.931 . S
C1153 C1152 1.370 . S
C1153 C1157 1.408 . S
C1154 C1152 1.363 . S
C1154 C1155 1.370 . S
C1154 C1158 1.524 1_655 S
C1155 C1147 1.503 1_655 S
C1155 C1154 1.370 . S
C1155 C1156 1.403 . S
C1156 C1155 1.403 . S
C1156 C1157 1.404 . S
C1156 C1159 1.539 . S
C1157 C1153 1.408 . S
C1157 C1156 1.404 . S
C1157 H1169 0.930 . S
C1158 C1154 1.524 1_455 S
C1158 H1170 0.956 . S
C1158 H1171 0.961 . S
C1158 H1172 0.961 . S
C1159 C1156 1.539 . S
C1159 H1173 0.958 . S
C1159 H1174 0.961 . S
C1159 H1175 0.960 . S
H1160 C1144 0.931 . S
H1161 C1149 0.929 . S
H1162 C1150 0.960 . S
H1163 C1150 0.962 . S
H1164 C1150 0.960 . S
H1165 C1151 0.961 . S
H1166 C1151 0.961 . S
H1167 C1151 0.961 . S
H1168 C1152 0.931 . S
H1169 C1157 0.930 . S
H1170 C1158 0.956 . S
H1171 C1158 0.961 . S
H1172 C1158 0.961 . S
H1173 C1159 0.958 . S
H1174 C1159 0.961 . S
H1175 C1159 0.960 . S
C1176 C1177 1.391 . S
C1176 C1178 1.394 . S
C1176 H1192 0.931 . S
C1177 C1176 1.391 . S
C1177 C1181 1.376 . S
C1178 C1176 1.394 . S
C1178 C1179 1.369 . S
C1178 C1182 1.531 . S
C1179 C1178 1.369 . S
C1179 C1180 1.410 . S
C1179 C1187 1.503 . S
C1180 C1179 1.410 . S
C1180 C1181 1.392 . S
C1180 C1183 1.511 . S
C1181 C1177 1.376 . S
C1181 C1180 1.392 . S
C1181 H1193 0.929 . S
C1182 C1178 1.531 . S
C1182 H1194 0.960 . S
C1182 H1195 0.962 . S
C1182 H1196 0.960 . S
C1183 C1180 1.511 . S
C1183 H1197 0.961 . S
C1183 H1198 0.961 . S
C1183 H1199 0.961 . S
C1184 C1185 1.370 . S
C1184 C1186 1.363 . S
C1184 H1200 0.931 . S
C1185 C1184 1.370 . S
C1185 C1189 1.408 . S
C1186 C1184 1.363 . S
C1186 C1187 1.370 . S
C1186 C1190 1.524 . S
C1187 C1179 1.503 . S
C1187 C1186 1.370 . S
C1187 C1188 1.403 . S
C1188 C1187 1.403 . S
C1188 C1189 1.404 . S
C1188 C1191 1.539 . S
C1189 C1185 1.408 . S
C1189 C1188 1.404 . S
C1189 H1201 0.930 . S
C1190 C1186 1.524 . S
C1190 H1202 0.956 . S
C1190 H1203 0.961 . S
C1190 H1204 0.961 . S
C1191 C1188 1.539 . S
C1191 H1205 0.958 . S
C1191 H1206 0.961 . S
C1191 H1207 0.960 . S
H1192 C1176 0.931 . S
H1193 C1181 0.929 . S
H1194 C1182 0.960 . S
H1195 C1182 0.962 . S
H1196 C1182 0.960 . S
H1197 C1183 0.961 . S
H1198 C1183 0.961 . S
H1199 C1183 0.961 . S
H1200 C1184 0.931 . S
H1201 C1189 0.930 . S
H1202 C1190 0.956 . S
H1203 C1190 0.961 . S
H1204 C1190 0.961 . S
H1205 C1191 0.958 . S
H1206 C1191 0.961 . S
H1207 C1191 0.960 . S
C1208 C1209 1.391 . S
C1208 C1210 1.394 . S
C1208 H1224 0.931 . S
C1209 C1208 1.391 . S
C1209 C1213 1.376 . S
C1210 C1208 1.394 . S
C1210 C1211 1.369 . S
C1210 C1214 1.531 . S
C1211 C1210 1.369 . S
C1211 C1212 1.410 . S
C1211 C1219 1.503 . S
C1212 C1211 1.410 . S
C1212 C1213 1.392 . S
C1212 C1215 1.511 . S
C1213 C1209 1.376 . S
C1213 C1212 1.392 . S
C1213 H1225 0.929 . S
C1214 C1210 1.531 . S
C1214 H1226 0.960 . S
C1214 H1227 0.962 . S
C1214 H1228 0.960 . S
C1215 C1212 1.511 . S
C1215 H1229 0.961 . S
C1215 H1230 0.961 . S
C1215 H1231 0.961 . S
C1216 C1217 1.370 . S
C1216 C1218 1.363 . S
C1216 H1232 0.931 . S
C1217 C1216 1.370 . S
C1217 C1221 1.408 . S
C1218 C1216 1.363 . S
C1218 C1219 1.370 . S
C1218 C1222 1.524 . S
C1219 C1211 1.503 . S
C1219 C1218 1.370 . S
C1219 C1220 1.403 . S
C1220 C1219 1.403 . S
C1220 C1221 1.404 . S
C1220 C1223 1.539 . S
C1221 C1217 1.408 . S
C1221 C1220 1.404 . S
C1221 H1233 0.930 . S
C1222 C1218 1.524 . S
C1222 H1234 0.956 . S
C1222 H1235 0.961 . S
C1222 H1236 0.961 . S
C1223 C1220 1.539 . S
C1223 H1237 0.958 . S
C1223 H1238 0.961 . S
C1223 H1239 0.960 . S
H1224 C1208 0.931 . S
H1225 C1213 0.929 . S
H1226 C1214 0.960 . S
H1227 C1214 0.962 . S
H1228 C1214 0.960 . S
H1229 C1215 0.961 . S
H1230 C1215 0.961 . S
H1231 C1215 0.961 . S
H1232 C1216 0.931 . S
H1233 C1221 0.930 . S
H1234 C1222 0.956 . S
H1235 C1222 0.961 . S
H1236 C1222 0.961 . S
H1237 C1223 0.958 . S
H1238 C1223 0.961 . S
H1239 C1223 0.960 . S
C1240 C1241 1.391 . S
C1240 C1242 1.394 . S
C1240 H1256 0.931 . S
C1241 C1240 1.391 . S
C1241 C1245 1.376 . S
C1242 C1240 1.394 . S
C1242 C1243 1.369 . S
C1242 C1246 1.531 . S
C1243 C1242 1.369 . S
C1243 C1244 1.410 . S
C1243 C1251 1.503 . S
C1244 C1243 1.410 . S
C1244 C1245 1.392 . S
C1244 C1247 1.511 . S
C1245 C1241 1.376 . S
C1245 C1244 1.392 . S
C1245 H1257 0.929 . S
C1246 C1242 1.531 . S
C1246 H1258 0.960 . S
C1246 H1259 0.962 . S
C1246 H1260 0.960 . S
C1247 C1244 1.511 . S
C1247 H1261 0.961 . S
C1247 H1262 0.961 . S
C1247 H1263 0.961 . S
C1248 C1249 1.370 . S
C1248 C1250 1.363 . S
C1248 H1264 0.931 . S
C1249 C1248 1.370 . S
C1249 C1253 1.408 . S
C1250 C1248 1.363 . S
C1250 C1251 1.370 . S
C1250 C1254 1.524 . S
C1251 C1243 1.503 . S
C1251 C1250 1.370 . S
C1251 C1252 1.403 . S
C1252 C1251 1.403 . S
C1252 C1253 1.404 . S
C1252 C1255 1.539 . S
C1253 C1249 1.408 . S
C1253 C1252 1.404 . S
C1253 H1265 0.930 . S
C1254 C1250 1.524 . S
C1254 H1266 0.956 . S
C1254 H1267 0.961 . S
C1254 H1268 0.961 . S
C1255 C1252 1.539 . S
C1255 H1269 0.958 . S
C1255 H1270 0.961 . S
C1255 H1271 0.960 . S
H1256 C1240 0.931 . S
H1257 C1245 0.929 . S
H1258 C1246 0.960 . S
H1259 C1246 0.962 . S
H1260 C1246 0.960 . S
H1261 C1247 0.961 . S
H1262 C1247 0.961 . S
H1263 C1247 0.961 . S
H1264 C1248 0.931 . S
H1265 C1253 0.930 . S
H1266 C1254 0.956 . S
H1267 C1254 0.961 . S
H1268 C1254 0.961 . S
H1269 C1255 0.958 . S
H1270 C1255 0.961 . S
H1271 C1255 0.960 . S
C1272 C1273 1.391 . S
C1272 C1274 1.394 . S
C1272 H1288 0.931 . S
C1273 C1272 1.391 . S
C1273 C1277 1.376 . S
C1274 C1272 1.394 . S
C1274 C1275 1.369 . S
C1274 C1278 1.531 . S
C1275 C1274 1.369 . S
C1275 C1276 1.410 . S
C1275 C1283 1.503 . S
C1276 C1275 1.410 . S
C1276 C1277 1.392 . S
C1276 C1279 1.511 . S
C1277 C1273 1.376 . S
C1277 C1276 1.392 . S
C1277 H1289 0.929 . S
C1278 C1274 1.531 . S
C1278 H1290 0.960 . S
C1278 H1291 0.962 . S
C1278 H1292 0.960 . S
C1279 C1276 1.511 . S
C1279 H1293 0.961 . S
C1279 H1294 0.961 . S
C1279 H1295 0.961 . S
C1280 C1281 1.370 . S
C1280 C1282 1.363 . S
C1280 H1296 0.931 . S
C1281 C1280 1.370 . S
C1281 C1285 1.408 . S
C1282 C1280 1.363 . S
C1282 C1283 1.370 . S
C1282 C1286 1.524 . S
C1283 C1275 1.503 . S
C1283 C1282 1.370 . S
C1283 C1284 1.403 . S
C1284 C1283 1.403 . S
C1284 C1285 1.404 . S
C1284 C1287 1.539 . S
C1285 C1281 1.408 . S
C1285 C1284 1.404 . S
C1285 H1297 0.930 . S
C1286 C1282 1.524 . S
C1286 H1298 0.956 . S
C1286 H1299 0.961 . S
C1286 H1300 0.961 . S
C1287 C1284 1.539 . S
C1287 H1301 0.958 . S
C1287 H1302 0.961 . S
C1287 H1303 0.960 . S
H1288 C1272 0.931 . S
H1289 C1277 0.929 . S
H1290 C1278 0.960 . S
H1291 C1278 0.962 . S
H1292 C1278 0.960 . S
H1293 C1279 0.961 . S
H1294 C1279 0.961 . S
H1295 C1279 0.961 . S
H1296 C1280 0.931 . S
H1297 C1285 0.930 . S
H1298 C1286 0.956 . S
H1299 C1286 0.961 . S
H1300 C1286 0.961 . S
H1301 C1287 0.958 . S
H1302 C1287 0.961 . S
H1303 C1287 0.960 . S
C1304 C1305 1.391 . S
C1304 C1306 1.394 . S
C1304 H1320 0.931 . S
C1305 C1304 1.391 . S
C1305 C1309 1.376 . S
C1306 C1304 1.394 . S
C1306 C1307 1.369 . S
C1306 C1310 1.531 . S
C1307 C1306 1.369 . S
C1307 C1308 1.410 . S
C1307 C1315 1.503 . S
C1308 C1307 1.410 . S
C1308 C1309 1.392 . S
C1308 C1311 1.511 . S
C1309 C1305 1.376 . S
C1309 C1308 1.392 . S
C1309 H1321 0.929 . S
C1310 C1306 1.531 . S
C1310 H1322 0.960 . S
C1310 H1323 0.962 . S
C1310 H1324 0.960 . S
C1311 C1308 1.511 . S
C1311 H1325 0.961 . S
C1311 H1326 0.961 . S
C1311 H1327 0.961 . S
C1312 C1313 1.370 . S
C1312 C1314 1.363 . S
C1312 H1328 0.931 . S
C1313 C1312 1.370 . S
C1313 C1317 1.408 . S
C1314 C1312 1.363 . S
C1314 C1315 1.370 . S
C1314 C1318 1.524 . S
C1315 C1307 1.503 . S
C1315 C1314 1.370 . S
C1315 C1316 1.403 . S
C1316 C1315 1.403 . S
C1316 C1317 1.404 . S
C1316 C1319 1.539 . S
C1317 C1313 1.408 . S
C1317 C1316 1.404 . S
C1317 H1329 0.930 . S
C1318 C1314 1.524 . S
C1318 H1330 0.956 . S
C1318 H1331 0.961 . S
C1318 H1332 0.961 . S
C1319 C1316 1.539 . S
C1319 H1333 0.958 . S
C1319 H1334 0.961 . S
C1319 H1335 0.960 . S
H1320 C1304 0.931 . S
H1321 C1309 0.929 . S
H1322 C1310 0.960 . S
H1323 C1310 0.962 . S
H1324 C1310 0.960 . S
H1325 C1311 0.961 . S
H1326 C1311 0.961 . S
H1327 C1311 0.961 . S
H1328 C1312 0.931 . S
H1329 C1317 0.930 . S
H1330 C1318 0.956 . S
H1331 C1318 0.961 . S
H1332 C1318 0.961 . S
H1333 C1319 0.958 . S
H1334 C1319 0.961 . S
H1335 C1319 0.960 . S
C1336 C1337 1.391 . S
C1336 C1338 1.394 . S
C1336 H1352 0.931 . S
C1337 C1336 1.391 . S
C1337 C1341 1.376 . S
C1338 C1336 1.394 . S
C1338 C1339 1.369 . S
C1338 C1342 1.531 . S
C1339 C1338 1.369 . S
C1339 C1340 1.410 . S
C1339 C1347 1.503 . S
C1340 C1339 1.410 . S
C1340 C1341 1.392 . S
C1340 C1343 1.511 . S
C1341 C1337 1.376 . S
C1341 C1340 1.392 . S
C1341 H1353 0.929 . S
C1342 C1338 1.531 . S
C1342 H1354 0.960 . S
C1342 H1355 0.962 . S
C1342 H1356 0.960 . S
C1343 C1340 1.511 . S
C1343 H1357 0.961 . S
C1343 H1358 0.961 . S
C1343 H1359 0.961 . S
C1344 C1345 1.370 . S
C1344 C1346 1.363 . S
C1344 H1360 0.931 . S
C1345 C1344 1.370 . S
C1345 C1349 1.408 . S
C1346 C1344 1.363 . S
C1346 C1347 1.370 . S
C1346 C1350 1.524 . S
C1347 C1339 1.503 . S
C1347 C1346 1.370 . S
C1347 C1348 1.403 . S
C1348 C1347 1.403 . S
C1348 C1349 1.404 . S
C1348 C1351 1.539 . S
C1349 C1345 1.408 . S
C1349 C1348 1.404 . S
C1349 H1361 0.930 . S
C1350 C1346 1.524 . S
C1350 H1362 0.956 . S
C1350 H1363 0.961 . S
C1350 H1364 0.961 . S
C1351 C1348 1.539 . S
C1351 H1365 0.958 . S
C1351 H1366 0.961 . S
C1351 H1367 0.960 . S
H1352 C1336 0.931 . S
H1353 C1341 0.929 . S
H1354 C1342 0.960 . S
H1355 C1342 0.962 . S
H1356 C1342 0.960 . S
H1357 C1343 0.961 . S
H1358 C1343 0.961 . S
H1359 C1343 0.961 . S
H1360 C1344 0.931 . S
H1361 C1349 0.930 . S
H1362 C1350 0.956 . S
H1363 C1350 0.961 . S
H1364 C1350 0.961 . S
H1365 C1351 0.958 . S
H1366 C1351 0.961 . S
H1367 C1351 0.960 . S
C1368 C1369 1.391 . S
C1368 C1370 1.394 . S
C1368 H1384 0.931 . S
C1369 C1368 1.391 . S
C1369 C1373 1.376 . S
C1370 C1368 1.394 . S
C1370 C1371 1.369 . S
C1370 C1374 1.531 . S
C1371 C1370 1.369 . S
C1371 C1372 1.410 . S
C1371 C1379 1.503 . S
C1372 C1371 1.410 . S
C1372 C1373 1.392 . S
C1372 C1375 1.511 . S
C1373 C1369 1.376 . S
C1373 C1372 1.392 . S
C1373 H1385 0.929 . S
C1374 C1370 1.531 . S
C1374 H1386 0.960 . S
C1374 H1387 0.962 . S
C1374 H1388 0.960 . S
C1375 C1372 1.511 . S
C1375 H1389 0.961 . S
C1375 H1390 0.961 . S
C1375 H1391 0.961 . S
C1376 C1377 1.370 . S
C1376 C1378 1.363 . S
C1376 H1392 0.931 . S
C1377 C1376 1.370 . S
C1377 C1381 1.408 . S
C1378 C1376 1.363 . S
C1378 C1379 1.370 . S
C1378 C1382 1.524 . S
C1379 C1371 1.503 . S
C1379 C1378 1.370 . S
C1379 C1380 1.403 . S
C1380 C1379 1.403 . S
C1380 C1381 1.404 . S
C1380 C1383 1.539 . S
C1381 C1377 1.408 . S
C1381 C1380 1.404 . S
C1381 H1393 0.930 . S
C1382 C1378 1.524 . S
C1382 H1394 0.956 . S
C1382 H1395 0.961 . S
C1382 H1396 0.961 . S
C1383 C1380 1.539 . S
C1383 H1397 0.958 . S
C1383 H1398 0.961 . S
C1383 H1399 0.960 . S
H1384 C1368 0.931 . S
H1385 C1373 0.929 . S
H1386 C1374 0.960 . S
H1387 C1374 0.962 . S
H1388 C1374 0.960 . S
H1389 C1375 0.961 . S
H1390 C1375 0.961 . S
H1391 C1375 0.961 . S
H1392 C1376 0.931 . S
H1393 C1381 0.930 . S
H1394 C1382 0.956 . S
H1395 C1382 0.961 . S
H1396 C1382 0.961 . S
H1397 C1383 0.958 . S
H1398 C1383 0.961 . S
H1399 C1383 0.960 . S
C1400 C1401 1.391 . S
C1400 C1402 1.394 . S
C1400 H1416 0.931 . S
C1401 C1400 1.391 . S
C1401 C1405 1.376 . S
C1402 C1400 1.394 . S
C1402 C1403 1.369 . S
C1402 C1406 1.531 . S
C1403 C1402 1.369 . S
C1403 C1404 1.410 . S
C1403 C1411 1.503 . S
C1404 C1403 1.410 . S
C1404 C1405 1.392 . S
C1404 C1407 1.511 . S
C1405 C1401 1.376 . S
C1405 C1404 1.392 . S
C1405 H1417 0.929 . S
C1406 C1402 1.531 . S
C1406 H1418 0.960 . S
C1406 H1419 0.962 . S
C1406 H1420 0.960 . S
C1407 C1404 1.511 . S
C1407 H1421 0.961 . S
C1407 H1422 0.961 . S
C1407 H1423 0.961 . S
C1408 C1409 1.370 . S
C1408 C1410 1.363 . S
C1408 H1424 0.931 . S
C1409 C1408 1.370 . S
C1409 C1413 1.408 . S
C1410 C1408 1.363 . S
C1410 C1411 1.370 . S
C1410 C1414 1.524 . S
C1411 C1403 1.503 . S
C1411 C1410 1.370 . S
C1411 C1412 1.403 . S
C1412 C1411 1.403 . S
C1412 C1413 1.404 . S
C1412 C1415 1.539 . S
C1413 C1409 1.408 . S
C1413 C1412 1.404 . S
C1413 H1425 0.930 . S
C1414 C1410 1.524 . S
C1414 H1426 0.956 . S
C1414 H1427 0.961 . S
C1414 H1428 0.961 . S
C1415 C1412 1.539 . S
C1415 H1429 0.958 . S
C1415 H1430 0.961 . S
C1415 H1431 0.960 . S
H1416 C1400 0.931 . S
H1417 C1405 0.929 . S
H1418 C1406 0.960 . S
H1419 C1406 0.962 . S
H1420 C1406 0.960 . S
H1421 C1407 0.961 . S
H1422 C1407 0.961 . S
H1423 C1407 0.961 . S
H1424 C1408 0.931 . S
H1425 C1413 0.930 . S
H1426 C1414 0.956 . S
H1427 C1414 0.961 . S
H1428 C1414 0.961 . S
H1429 C1415 0.958 . S
H1430 C1415 0.961 . S
H1431 C1415 0.960 . S
C1432 C1433 1.391 . S
C1432 C1434 1.394 . S
C1432 H1448 0.931 . S
C1433 C1432 1.391 . S
C1433 C1437 1.376 . S
C1434 C1432 1.394 . S
C1434 C1435 1.369 . S
C1434 C1438 1.531 . S
C1435 C1434 1.369 . S
C1435 C1436 1.410 . S
C1435 C1443 1.503 . S
C1436 C1435 1.410 . S
C1436 C1437 1.392 . S
C1436 C1439 1.511 . S
C1437 C1433 1.376 . S
C1437 C1436 1.392 . S
C1437 H1449 0.929 . S
C1438 C1434 1.531 . S
C1438 H1450 0.960 . S
C1438 H1451 0.962 . S
C1438 H1452 0.960 . S
C1439 C1436 1.511 . S
C1439 H1453 0.961 . S
C1439 H1454 0.961 . S
C1439 H1455 0.961 . S
C1440 C1441 1.370 . S
C1440 C1442 1.363 . S
C1440 H1456 0.931 . S
C1441 C1440 1.370 . S
C1441 C1445 1.408 . S
C1442 C1440 1.363 . S
C1442 C1443 1.370 . S
C1442 C1446 1.524 . S
C1443 C1435 1.503 . S
C1443 C1442 1.370 . S
C1443 C1444 1.403 . S
C1444 C1443 1.403 . S
C1444 C1445 1.404 . S
C1444 C1447 1.539 . S
C1445 C1441 1.408 . S
C1445 C1444 1.404 . S
C1445 H1457 0.930 . S
C1446 C1442 1.524 . S
C1446 H1458 0.956 . S
C1446 H1459 0.961 . S
C1446 H1460 0.961 . S
C1447 C1444 1.539 . S
C1447 H1461 0.958 . S
C1447 H1462 0.961 . S
C1447 H1463 0.960 . S
H1448 C1432 0.931 . S
H1449 C1437 0.929 . S
H1450 C1438 0.960 . S
H1451 C1438 0.962 . S
H1452 C1438 0.960 . S
H1453 C1439 0.961 . S
H1454 C1439 0.961 . S
H1455 C1439 0.961 . S
H1456 C1440 0.931 . S
H1457 C1445 0.930 . S
H1458 C1446 0.956 . S
H1459 C1446 0.961 . S
H1460 C1446 0.961 . S
H1461 C1447 0.958 . S
H1462 C1447 0.961 . S
H1463 C1447 0.960 . S
C1464 C1465 1.391 . S
C1464 C1466 1.394 . S
C1464 H1480 0.931 . S
C1465 C1464 1.391 . S
C1465 C1469 1.376 . S
C1466 C1464 1.394 . S
C1466 C1467 1.369 . S
C1466 C1470 1.531 . S
C1467 C1466 1.369 . S
C1467 C1468 1.410 . S
C1467 C1475 1.503 . S
C1468 C1467 1.410 . S
C1468 C1469 1.392 . S
C1468 C1471 1.511 . S
C1469 C1465 1.376 . S
C1469 C1468 1.392 . S
C1469 H1481 0.929 . S
C1470 C1466 1.531 . S
C1470 H1482 0.960 . S
C1470 H1483 0.962 . S
C1470 H1484 0.960 . S
C1471 C1468 1.511 . S
C1471 H1485 0.961 . S
C1471 H1486 0.961 . S
C1471 H1487 0.961 . S
C1472 C1473 1.370 . S
C1472 C1474 1.363 . S
C1472 H1488 0.931 . S
C1473 C1472 1.370 . S
C1473 C1477 1.408 . S
C1474 C1472 1.363 . S
C1474 C1475 1.370 . S
C1474 C1478 1.524 . S
C1475 C1467 1.503 . S
C1475 C1474 1.370 . S
C1475 C1476 1.403 . S
C1476 C1475 1.403 . S
C1476 C1477 1.404 . S
C1476 C1479 1.539 . S
C1477 C1473 1.408 . S
C1477 C1476 1.404 . S
C1477 H1489 0.930 . S
C1478 C1474 1.524 . S
C1478 H1490 0.956 . S
C1478 H1491 0.961 . S
C1478 H1492 0.961 . S
C1479 C1476 1.539 . S
C1479 H1493 0.958 . S
C1479 H1494 0.961 . S
C1479 H1495 0.960 . S
H1480 C1464 0.931 . S
H1481 C1469 0.929 . S
H1482 C1470 0.960 . S
H1483 C1470 0.962 . S
H1484 C1470 0.960 . S
H1485 C1471 0.961 . S
H1486 C1471 0.961 . S
H1487 C1471 0.961 . S
H1488 C1472 0.931 . S
H1489 C1477 0.930 . S
H1490 C1478 0.956 . S
H1491 C1478 0.961 . S
H1492 C1478 0.961 . S
H1493 C1479 0.958 . S
H1494 C1479 0.961 . S
H1495 C1479 0.960 . S
C1496 C1497 1.391 . S
C1496 C1498 1.394 . S
C1496 H1512 0.931 . S
C1497 C1496 1.391 . S
C1497 C1501 1.376 . S
C1498 C1496 1.394 . S
C1498 C1499 1.369 . S
C1498 C1502 1.531 . S
C1499 C1498 1.369 . S
C1499 C1500 1.410 . S
C1499 C1507 1.503 . S
C1500 C1499 1.410 . S
C1500 C1501 1.392 . S
C1500 C1503 1.511 . S
C1501 C1497 1.376 . S
C1501 C1500 1.392 . S
C1501 H1513 0.929 . S
C1502 C1498 1.531 . S
C1502 H1514 0.960 . S
C1502 H1515 0.962 . S
C1502 H1516 0.960 . S
C1503 C1500 1.511 . S
C1503 H1517 0.961 . S
C1503 H1518 0.961 . S
C1503 H1519 0.961 . S
C1504 C1505 1.370 . S
C1504 C1506 1.363 . S
C1504 H1520 0.931 . S
C1505 C1504 1.370 . S
C1505 C1509 1.408 . S
C1506 C1504 1.363 . S
C1506 C1507 1.370 . S
C1506 C1510 1.524 . S
C1507 C1499 1.503 . S
C1507 C1506 1.370 . S
C1507 C1508 1.403 . S
C1508 C1507 1.403 . S
C1508 C1509 1.404 . S
C1508 C1511 1.539 . S
C1509 C1505 1.408 . S
C1509 C1508 1.404 . S
C1509 H1521 0.930 . S
C1510 C1506 1.524 . S
C1510 H1522 0.956 . S
C1510 H1523 0.961 . S
C1510 H1524 0.961 . S
C1511 C1508 1.539 . S
C1511 H1525 0.958 . S
C1511 H1526 0.961 . S
C1511 H1527 0.960 . S
H1512 C1496 0.931 . S
H1513 C1501 0.929 . S
H1514 C1502 0.960 . S
H1515 C1502 0.962 . S
H1516 C1502 0.960 . S
H1517 C1503 0.961 . S
H1518 C1503 0.961 . S
H1519 C1503 0.961 . S
H1520 C1504 0.931 . S
H1521 C1509 0.930 . S
H1522 C1510 0.956 . S
H1523 C1510 0.961 . S
H1524 C1510 0.961 . S
H1525 C1511 0.958 . S
H1526 C1511 0.961 . S
H1527 C1511 0.960 . S
C1528 C1529 1.391 . S
C1528 C1530 1.394 . S
C1528 H1544 0.931 . S
C1529 C1528 1.391 . S
C1529 C1533 1.376 . S
C1530 C1528 1.394 . S
C1530 C1531 1.369 . S
C1530 C1534 1.531 . S
C1531 C1530 1.369 . S
C1531 C1532 1.410 . S
C1531 C1539 1.503 . S
C1532 C1531 1.410 . S
C1532 C1533 1.392 . S
C1532 C1535 1.511 . S
C1533 C1529 1.376 . S
C1533 C1532 1.392 . S
C1533 H1545 0.929 . S
C1534 C1530 1.531 . S
C1534 H1546 0.960 . S
C1534 H1547 0.962 . S
C1534 H1548 0.960 . S
C1535 C1532 1.511 . S
C1535 H1549 0.961 . S
C1535 H1550 0.961 . S
C1535 H1551 0.961 . S
C1536 C1537 1.370 . S
C1536 C1538 1.363 . S
C1536 H1552 0.931 . S
C1537 C1536 1.370 . S
C1537 C1541 1.408 . S
C1538 C1536 1.363 . S
C1538 C1539 1.370 . S
C1538 C1542 1.524 . S
C1539 C1531 1.503 . S
C1539 C1538 1.370 . S
C1539 C1540 1.403 . S
C1540 C1539 1.403 . S
C1540 C1541 1.404 . S
C1540 C1543 1.539 . S
C1541 C1537 1.408 . S
C1541 C1540 1.404 . S
C1541 H1553 0.930 . S
C1542 C1538 1.524 . S
C1542 H1554 0.956 . S
C1542 H1555 0.961 . S
C1542 H1556 0.961 . S
C1543 C1540 1.539 . S
C1543 H1557 0.958 . S
C1543 H1558 0.961 . S
C1543 H1559 0.960 . S
H1544 C1528 0.931 . S
H1545 C1533 0.929 . S
H1546 C1534 0.960 . S
H1547 C1534 0.962 . S
H1548 C1534 0.960 . S
H1549 C1535 0.961 . S
H1550 C1535 0.961 . S
H1551 C1535 0.961 . S
H1552 C1536 0.931 . S
H1553 C1541 0.930 . S
H1554 C1542 0.956 . S
H1555 C1542 0.961 . S
H1556 C1542 0.961 . S
H1557 C1543 0.958 . S
H1558 C1543 0.961 . S
H1559 C1543 0.960 . S
C409 C68 0.899 1_455 S
C417 C8 0.897 . S
C441 C131 0.919 1_565 S
C449 C51 0.895 . S
C473 C76 0.893 . S
C481 C136 0.903 . S
C505 C119 0.901 . S
C513 C199 0.876 . S
C537 C0 0.883 . S
C545 C144 0.899 . S
C569 C63 0.858 . S
C577 C187 0.899 . S
C601 C369 0.911 1_545 S
C609 C221 0.895 . S
C633 C246 0.898 . S
C641 C374 0.895 . S
C665 C289 0.890 . S
C673 C233 0.898 1_655 S
C697 C314 0.901 . S
C705 C238 0.885 . S
C729 C357 0.896 . S
C737 C301 0.886 . S
C761 C306 0.898 1_655 S
C769 C382 0.895 . S
C793 C106 1.619 . S
C801 C13 1.617 . S
C825 C38 1.606 . S
C833 C149 1.611 . S
C857 C81 1.609 . S
C865 C174 1.612 . S
C889 C208 1.608 . S
C897 C319 1.614 . S
C921 C251 1.608 . S
C929 C344 1.612 . S
C953 C276 1.601 . S
C961 C387 1.609 . S
C985 C242 1.859 . S
C993 C4 1.841 . S
C1017 C47 1.838 . S
C1025 C285 1.848 . S
C1049 C310 1.846 . S
C1057 C72 1.847 . S
C1081 C115 1.826 . S
C1089 C353 1.853 . S
C1113 C140 1.842 . S
C1121 C378 1.848 . S
C1145 C217 1.832 . S
C1153 C183 1.854 . S
C1177 C97 1.132 . S
C1185 C17 1.124 . S
C1209 C42 1.134 . S
C1217 C102 1.141 . S
C1241 C85 1.117 . S
C1249 C165 1.140 . S
C1273 C110 1.113 . S
C1281 C170 1.138 . S
C1305 C29 1.137 . S
C1313 C153 1.137 . S
C1337 C34 1.139 . S
C1345 C178 1.123 . S
C1369 C340 1.133 . S
C1377 C212 1.132 . S
C1401 C255 1.136 . S
C1409 C403 1.138 . S
C1433 C280 1.105 . S
C1441 C204 1.139 . S
C1465 C267 1.140 . S
C1473 C323 1.134 . S
C1497 C348 1.104 . S
C1505 C272 1.139 . S
C1529 C391 1.107 . S
C1537 C335 1.139 . S
