# Generated by pormake.
# Topology ukr, (4)-cn, num edge types: 1
# Building blocks:
#     Node 0, Type 0, BuildingBlock: TATPOV_clean_sbu_0, # of connection points: 4
#     Node 1, Type 0, BuildingBlock: TATPOV_clean_sbu_0, # of connection points: 4
#     Node 2, Type 0, BuildingBlock: TATPOV_clean_sbu_0, # of connection points: 4
#     Node 3, Type 0, BuildingBlock: TATPOV_clean_sbu_0, # of connection points: 4
#     Node 4, Type 0, BuildingBlock: TATPOV_clean_sbu_0, # of connection points: 4
#     Node 5, Type 0, BuildingBlock: TATPOV_clean_sbu_0, # of connection points: 4
#     Node 6, Type 0, BuildingBlock: TATPOV_clean_sbu_0, # of connection points: 4
#     Node 7, Type 0, BuildingBlock: TATPOV_clean_sbu_0, # of connection points: 4
#     Node 8, Type 0, BuildingBlock: TATPOV_clean_sbu_0, # of connection points: 4
#     Node 9, Type 0, BuildingBlock: TATPOV_clean_sbu_0, # of connection points: 4
#     Node 10, Type 0, BuildingBlock: TATPOV_clean_sbu_0, # of connection points: 4
#     Node 11, Type 0, BuildingBlock: TATPOV_clean_sbu_0, # of connection points: 4
#     Node 12, Type 0, BuildingBlock: TATPOV_clean_sbu_0, # of connection points: 4
#     Node 13, Type 0, BuildingBlock: TATPOV_clean_sbu_0, # of connection points: 4
#     Node 14, Type 0, BuildingBlock: TATPOV_clean_sbu_0, # of connection points: 4
#     Node 15, Type 0, BuildingBlock: TATPOV_clean_sbu_0, # of connection points: 4
#     Node 16, Type 0, BuildingBlock: TATPOV_clean_sbu_0, # of connection points: 4
#     Node 17, Type 0, BuildingBlock: TATPOV_clean_sbu_0, # of connection points: 4
#     Node 18, Type 0, BuildingBlock: TATPOV_clean_sbu_0, # of connection points: 4
#     Node 19, Type 0, BuildingBlock: TATPOV_clean_sbu_0, # of connection points: 4
#     Node 20, Type 0, BuildingBlock: TATPOV_clean_sbu_0, # of connection points: 4
#     Node 21, Type 0, BuildingBlock: TATPOV_clean_sbu_0, # of connection points: 4
#     Node 22, Type 0, BuildingBlock: TATPOV_clean_sbu_0, # of connection points: 4
#     Node 23, Type 0, BuildingBlock: TATPOV_clean_sbu_0, # of connection points: 4
#     Node 24, Type 0, BuildingBlock: TATPOV_clean_sbu_0, # of connection points: 4
#     Node 25, Type 0, BuildingBlock: TATPOV_clean_sbu_0, # of connection points: 4
#     Node 26, Type 0, BuildingBlock: TATPOV_clean_sbu_0, # of connection points: 4
#     Node 27, Type 0, BuildingBlock: TATPOV_clean_sbu_0, # of connection points: 4
#     Node 28, Type 0, BuildingBlock: TATPOV_clean_sbu_0, # of connection points: 4
#     Node 29, Type 0, BuildingBlock: TATPOV_clean_sbu_0, # of connection points: 4
#     Node 30, Type 0, BuildingBlock: TATPOV_clean_sbu_0, # of connection points: 4
#     Node 31, Type 0, BuildingBlock: TATPOV_clean_sbu_0, # of connection points: 4
#     Node 32, Type 0, BuildingBlock: TATPOV_clean_sbu_0, # of connection points: 4
#     Node 33, Type 0, BuildingBlock: TATPOV_clean_sbu_0, # of connection points: 4
#     Node 34, Type 0, BuildingBlock: TATPOV_clean_sbu_0, # of connection points: 4
#     Node 35, Type 0, BuildingBlock: TATPOV_clean_sbu_0, # of connection points: 4
#     Node 36, Type 0, BuildingBlock: TATPOV_clean_sbu_0, # of connection points: 4
#     Node 37, Type 0, BuildingBlock: TATPOV_clean_sbu_0, # of connection points: 4
#     Node 38, Type 0, BuildingBlock: TATPOV_clean_sbu_0, # of connection points: 4
#     Node 39, Type 0, BuildingBlock: TATPOV_clean_sbu_0, # of connection points: 4
#     Node 40, Type 0, BuildingBlock: TATPOV_clean_sbu_0, # of connection points: 4
#     Node 41, Type 0, BuildingBlock: TATPOV_clean_sbu_0, # of connection points: 4
#     Node 42, Type 0, BuildingBlock: TATPOV_clean_sbu_0, # of connection points: 4
#     Node 43, Type 0, BuildingBlock: TATPOV_clean_sbu_0, # of connection points: 4
#     Node 44, Type 0, BuildingBlock: TATPOV_clean_sbu_0, # of connection points: 4
#     Node 45, Type 0, BuildingBlock: TATPOV_clean_sbu_0, # of connection points: 4
#     Node 46, Type 0, BuildingBlock: TATPOV_clean_sbu_0, # of connection points: 4
#     Node 47, Type 0, BuildingBlock: TATPOV_clean_sbu_0, # of connection points: 4
#     Edge 48, Type (0, 0), BuildingBlock: ZUJKAS_clean_linker_0, # of connection points: 2
#     Edge 49, Type (0, 0), BuildingBlock: ZUJKAS_clean_linker_0, # of connection points: 2
#     Edge 50, Type (0, 0), BuildingBlock: ZUJKAS_clean_linker_0, # of connection points: 2
#     Edge 51, Type (0, 0), BuildingBlock: ZUJKAS_clean_linker_0, # of connection points: 2
#     Edge 52, Type (0, 0), BuildingBlock: ZUJKAS_clean_linker_0, # of connection points: 2
#     Edge 53, Type (0, 0), BuildingBlock: ZUJKAS_clean_linker_0, # of connection points: 2
#     Edge 54, Type (0, 0), BuildingBlock: ZUJKAS_clean_linker_0, # of connection points: 2
#     Edge 55, Type (0, 0), BuildingBlock: ZUJKAS_clean_linker_0, # of connection points: 2
#     Edge 56, Type (0, 0), BuildingBlock: ZUJKAS_clean_linker_0, # of connection points: 2
#     Edge 57, Type (0, 0), BuildingBlock: ZUJKAS_clean_linker_0, # of connection points: 2
#     Edge 58, Type (0, 0), BuildingBlock: ZUJKAS_clean_linker_0, # of connection points: 2
#     Edge 59, Type (0, 0), BuildingBlock: ZUJKAS_clean_linker_0, # of connection points: 2
#     Edge 60, Type (0, 0), BuildingBlock: ZUJKAS_clean_linker_0, # of connection points: 2
#     Edge 61, Type (0, 0), BuildingBlock: ZUJKAS_clean_linker_0, # of connection points: 2
#     Edge 62, Type (0, 0), BuildingBlock: ZUJKAS_clean_linker_0, # of connection points: 2
#     Edge 63, Type (0, 0), BuildingBlock: ZUJKAS_clean_linker_0, # of connection points: 2
#     Edge 64, Type (0, 0), BuildingBlock: ZUJKAS_clean_linker_0, # of connection points: 2
#     Edge 65, Type (0, 0), BuildingBlock: ZUJKAS_clean_linker_0, # of connection points: 2
#     Edge 66, Type (0, 0), BuildingBlock: ZUJKAS_clean_linker_0, # of connection points: 2
#     Edge 67, Type (0, 0), BuildingBlock: ZUJKAS_clean_linker_0, # of connection points: 2
#     Edge 68, Type (0, 0), BuildingBlock: ZUJKAS_clean_linker_0, # of connection points: 2
#     Edge 69, Type (0, 0), BuildingBlock: ZUJKAS_clean_linker_0, # of connection points: 2
#     Edge 70, Type (0, 0), BuildingBlock: ZUJKAS_clean_linker_0, # of connection points: 2
#     Edge 71, Type (0, 0), BuildingBlock: ZUJKAS_clean_linker_0, # of connection points: 2
#     Edge 72, Type (0, 0), BuildingBlock: ZUJKAS_clean_linker_0, # of connection points: 2
#     Edge 73, Type (0, 0), BuildingBlock: ZUJKAS_clean_linker_0, # of connection points: 2
#     Edge 74, Type (0, 0), BuildingBlock: ZUJKAS_clean_linker_0, # of connection points: 2
#     Edge 75, Type (0, 0), BuildingBlock: ZUJKAS_clean_linker_0, # of connection points: 2
#     Edge 76, Type (0, 0), BuildingBlock: ZUJKAS_clean_linker_0, # of connection points: 2
#     Edge 77, Type (0, 0), BuildingBlock: ZUJKAS_clean_linker_0, # of connection points: 2
#     Edge 78, Type (0, 0), BuildingBlock: ZUJKAS_clean_linker_0, # of connection points: 2
#     Edge 79, Type (0, 0), BuildingBlock: ZUJKAS_clean_linker_0, # of connection points: 2
#     Edge 80, Type (0, 0), BuildingBlock: ZUJKAS_clean_linker_0, # of connection points: 2
#     Edge 81, Type (0, 0), BuildingBlock: ZUJKAS_clean_linker_0, # of connection points: 2
#     Edge 82, Type (0, 0), BuildingBlock: ZUJKAS_clean_linker_0, # of connection points: 2
#     Edge 83, Type (0, 0), BuildingBlock: ZUJKAS_clean_linker_0, # of connection points: 2
#     Edge 84, Type (0, 0), BuildingBlock: ZUJKAS_clean_linker_0, # of connection points: 2
#     Edge 85, Type (0, 0), BuildingBlock: ZUJKAS_clean_linker_0, # of connection points: 2
#     Edge 86, Type (0, 0), BuildingBlock: ZUJKAS_clean_linker_0, # of connection points: 2
#     Edge 87, Type (0, 0), BuildingBlock: ZUJKAS_clean_linker_0, # of connection points: 2
#     Edge 88, Type (0, 0), BuildingBlock: ZUJKAS_clean_linker_0, # of connection points: 2
#     Edge 89, Type (0, 0), BuildingBlock: ZUJKAS_clean_linker_0, # of connection points: 2
#     Edge 90, Type (0, 0), BuildingBlock: ZUJKAS_clean_linker_0, # of connection points: 2
#     Edge 91, Type (0, 0), BuildingBlock: ZUJKAS_clean_linker_0, # of connection points: 2
#     Edge 92, Type (0, 0), BuildingBlock: ZUJKAS_clean_linker_0, # of connection points: 2
#     Edge 93, Type (0, 0), BuildingBlock: ZUJKAS_clean_linker_0, # of connection points: 2
#     Edge 94, Type (0, 0), BuildingBlock: ZUJKAS_clean_linker_0, # of connection points: 2
#     Edge 95, Type (0, 0), BuildingBlock: ZUJKAS_clean_linker_0, # of connection points: 2
#     Edge 96, Type (0, 0), BuildingBlock: ZUJKAS_clean_linker_0, # of connection points: 2
#     Edge 97, Type (0, 0), BuildingBlock: ZUJKAS_clean_linker_0, # of connection points: 2
#     Edge 98, Type (0, 0), BuildingBlock: ZUJKAS_clean_linker_0, # of connection points: 2
#     Edge 99, Type (0, 0), BuildingBlock: ZUJKAS_clean_linker_0, # of connection points: 2
#     Edge 100, Type (0, 0), BuildingBlock: ZUJKAS_clean_linker_0, # of connection points: 2
#     Edge 101, Type (0, 0), BuildingBlock: ZUJKAS_clean_linker_0, # of connection points: 2
#     Edge 102, Type (0, 0), BuildingBlock: ZUJKAS_clean_linker_0, # of connection points: 2
#     Edge 103, Type (0, 0), BuildingBlock: ZUJKAS_clean_linker_0, # of connection points: 2
#     Edge 104, Type (0, 0), BuildingBlock: ZUJKAS_clean_linker_0, # of connection points: 2
#     Edge 105, Type (0, 0), BuildingBlock: ZUJKAS_clean_linker_0, # of connection points: 2
#     Edge 106, Type (0, 0), BuildingBlock: ZUJKAS_clean_linker_0, # of connection points: 2
#     Edge 107, Type (0, 0), BuildingBlock: ZUJKAS_clean_linker_0, # of connection points: 2
#     Edge 108, Type (0, 0), BuildingBlock: ZUJKAS_clean_linker_0, # of connection points: 2
#     Edge 109, Type (0, 0), BuildingBlock: ZUJKAS_clean_linker_0, # of connection points: 2
#     Edge 110, Type (0, 0), BuildingBlock: ZUJKAS_clean_linker_0, # of connection points: 2
#     Edge 111, Type (0, 0), BuildingBlock: ZUJKAS_clean_linker_0, # of connection points: 2
#     Edge 112, Type (0, 0), BuildingBlock: ZUJKAS_clean_linker_0, # of connection points: 2
#     Edge 113, Type (0, 0), BuildingBlock: ZUJKAS_clean_linker_0, # of connection points: 2
#     Edge 114, Type (0, 0), BuildingBlock: ZUJKAS_clean_linker_0, # of connection points: 2
#     Edge 115, Type (0, 0), BuildingBlock: ZUJKAS_clean_linker_0, # of connection points: 2
#     Edge 116, Type (0, 0), BuildingBlock: ZUJKAS_clean_linker_0, # of connection points: 2
#     Edge 117, Type (0, 0), BuildingBlock: ZUJKAS_clean_linker_0, # of connection points: 2
#     Edge 118, Type (0, 0), BuildingBlock: ZUJKAS_clean_linker_0, # of connection points: 2
#     Edge 119, Type (0, 0), BuildingBlock: ZUJKAS_clean_linker_0, # of connection points: 2
#     Edge 120, Type (0, 0), BuildingBlock: ZUJKAS_clean_linker_0, # of connection points: 2
#     Edge 121, Type (0, 0), BuildingBlock: ZUJKAS_clean_linker_0, # of connection points: 2
#     Edge 122, Type (0, 0), BuildingBlock: ZUJKAS_clean_linker_0, # of connection points: 2
#     Edge 123, Type (0, 0), BuildingBlock: ZUJKAS_clean_linker_0, # of connection points: 2
#     Edge 124, Type (0, 0), BuildingBlock: ZUJKAS_clean_linker_0, # of connection points: 2
#     Edge 125, Type (0, 0), BuildingBlock: ZUJKAS_clean_linker_0, # of connection points: 2
#     Edge 126, Type (0, 0), BuildingBlock: ZUJKAS_clean_linker_0, # of connection points: 2
#     Edge 127, Type (0, 0), BuildingBlock: ZUJKAS_clean_linker_0, # of connection points: 2
#     Edge 128, Type (0, 0), BuildingBlock: ZUJKAS_clean_linker_0, # of connection points: 2
#     Edge 129, Type (0, 0), BuildingBlock: ZUJKAS_clean_linker_0, # of connection points: 2
#     Edge 130, Type (0, 0), BuildingBlock: ZUJKAS_clean_linker_0, # of connection points: 2
#     Edge 131, Type (0, 0), BuildingBlock: ZUJKAS_clean_linker_0, # of connection points: 2
#     Edge 132, Type (0, 0), BuildingBlock: ZUJKAS_clean_linker_0, # of connection points: 2
#     Edge 133, Type (0, 0), BuildingBlock: ZUJKAS_clean_linker_0, # of connection points: 2
#     Edge 134, Type (0, 0), BuildingBlock: ZUJKAS_clean_linker_0, # of connection points: 2
#     Edge 135, Type (0, 0), BuildingBlock: ZUJKAS_clean_linker_0, # of connection points: 2
#     Edge 136, Type (0, 0), BuildingBlock: ZUJKAS_clean_linker_0, # of connection points: 2
#     Edge 137, Type (0, 0), BuildingBlock: ZUJKAS_clean_linker_0, # of connection points: 2
#     Edge 138, Type (0, 0), BuildingBlock: ZUJKAS_clean_linker_0, # of connection points: 2
#     Edge 139, Type (0, 0), BuildingBlock: ZUJKAS_clean_linker_0, # of connection points: 2
#     Edge 140, Type (0, 0), BuildingBlock: ZUJKAS_clean_linker_0, # of connection points: 2
#     Edge 141, Type (0, 0), BuildingBlock: ZUJKAS_clean_linker_0, # of connection points: 2
#     Edge 142, Type (0, 0), BuildingBlock: ZUJKAS_clean_linker_0, # of connection points: 2
#     Edge 143, Type (0, 0), BuildingBlock: ZUJKAS_clean_linker_0, # of connection points: 2
# Relax obj value: 0.372
# Max RMSD: 0.162
# Mean RMSD: 0.162
data_MOF--net-ukr--node1-TATPOV_clean_sbu_0--edge1-ZUJKAS_clean_linker_0
_symmetry_space_group_name_H-M    P1
_symmetry_Int_Tables_number       1
_symmetry_cell_setting            triclinic
loop_
_symmetry_equiv_pos_as_xyz
'x, y, z'
_cell_length_a     90.109584
_cell_length_b     90.058942
_cell_length_c     90.109981
_cell_angle_alpha  89.818925
_cell_angle_beta   89.951754
_cell_angle_gamma 89.980023
loop_
_atom_site_label
_atom_site_type_symbol
_atom_site_fract_x
_atom_site_fract_y
_atom_site_fract_z
_atom_type_partial_charge
Zn0 Zn 0.13827 0.25467 0.18426 0.0
Zn1 Zn 0.09126 0.26695 0.17079 0.0
O2 O 0.09119 0.24679 0.18117 0.0
O3 O 0.11491 0.25078 0.1828 0.0
O4 O 0.07041 0.27167 0.16574 0.0
O5 O 0.11884 0.26848 0.18471 0.0
O6 O 0.09913 0.2824 0.18515 0.0
C7 C 0.10387 0.24213 0.18518 0.0
C8 C 0.11764 0.26202 0.1554 0.0
O9 O 0.10432 0.2654 0.15221 0.0
O10 O 0.12084 0.26086 0.16921 0.0
C11 C 0.06299 0.26144 0.15958 0.0
O12 O 0.06976 0.24909 0.15581 0.0
C13 C 0.1122 0.27999 0.18982 0.0
Zn14 Zn 0.21841 0.62595 0.67878 0.0
Zn15 Zn 0.21572 0.59914 0.67152 0.0
O16 O 0.23559 0.5994 0.68302 0.0
O17 O 0.24018 0.62334 0.68308 0.0
O18 O 0.21337 0.57759 0.66622 0.0
O19 O 0.20356 0.62383 0.69518 0.0
O20 O 0.19688 0.60314 0.68416 0.0
C21 C 0.24443 0.61016 0.68543 0.0
C22 C 0.21486 0.62366 0.64816 0.0
O23 O 0.21752 0.61013 0.65142 0.0
O24 O 0.21226 0.63284 0.65845 0.0
C25 C 0.22466 0.56961 0.66338 0.0
O26 O 0.23785 0.57581 0.66304 0.0
C27 C 0.19468 0.61305 0.69397 0.0
Zn28 Zn 0.85241 0.71535 0.17552 0.0
Zn29 Zn 0.88117 0.71269 0.17121 0.0
O30 O 0.88038 0.73204 0.18312 0.0
O31 O 0.85635 0.73477 0.18636 0.0
O32 O 0.90295 0.70995 0.16806 0.0
O33 O 0.85124 0.69589 0.1861 0.0
O34 O 0.87534 0.69355 0.18286 0.0
C35 C 0.86948 0.73954 0.18806 0.0
C36 C 0.85994 0.71637 0.14485 0.0
O37 O 0.87313 0.71585 0.14989 0.0
O38 O 0.84899 0.71565 0.15361 0.0
C39 C 0.91021 0.71971 0.16091 0.0
O40 O 0.90316 0.7313 0.15551 0.0
C41 C 0.86306 0.68852 0.18778 0.0
Zn42 Zn 0.76004 0.35241 0.67546 0.0
Zn43 Zn 0.76426 0.38082 0.67225 0.0
O44 O 0.7449 0.38061 0.68423 0.0
O45 O 0.73958 0.35677 0.68387 0.0
O46 O 0.76786 0.4027 0.67067 0.0
O47 O 0.77825 0.34993 0.68784 0.0
O48 O 0.7832 0.37336 0.68299 0.0
C49 C 0.73601 0.37001 0.687 0.0
C50 C 0.7609 0.36059 0.64519 0.0
O51 O 0.76075 0.37362 0.65066 0.0
O52 O 0.76196 0.3494 0.65363 0.0
C53 C 0.76213 0.41044 0.66037 0.0
O54 O 0.75418 0.40389 0.65008 0.0
C55 C 0.78693 0.36093 0.68867 0.0
Zn56 Zn 0.12749 0.71593 0.80241 0.0
Zn57 Zn 0.09877 0.71539 0.80778 0.0
O58 O 0.10038 0.73504 0.79643 0.0
O59 O 0.12466 0.73691 0.79428 0.0
O60 O 0.07711 0.71373 0.81232 0.0
O61 O 0.12618 0.698 0.78939 0.0
O62 O 0.10242 0.69665 0.79506 0.0
C63 C 0.11181 0.7424 0.79253 0.0
C64 C 0.12161 0.71552 0.83314 0.0
O65 O 0.10837 0.71714 0.82847 0.0
O66 O 0.13205 0.71329 0.82401 0.0
C67 C 0.07041 0.72318 0.82032 0.0
O68 O 0.07789 0.73436 0.82591 0.0
C69 C 0.1138 0.69149 0.78845 0.0
Zn70 Zn 0.76551 0.62802 0.30421 0.0
Zn71 Zn 0.76544 0.59897 0.31023 0.0
O72 O 0.74601 0.60194 0.29858 0.0
O73 O 0.74534 0.62597 0.29421 0.0
O74 O 0.76625 0.57702 0.31457 0.0
O75 O 0.78448 0.62613 0.29286 0.0
O76 O 0.78481 0.6022 0.29814 0.0
C77 C 0.73936 0.61326 0.29328 0.0
C78 C 0.76527 0.62166 0.33542 0.0
O79 O 0.76414 0.60827 0.33108 0.0
O80 O 0.76667 0.63207 0.32606 0.0
C81 C 0.75503 0.56857 0.31337 0.0
O82 O 0.74219 0.57421 0.30943 0.0
C83 C 0.7907 0.61358 0.2921 0.0
Zn84 Zn 0.85263 0.26174 0.80631 0.0
Zn85 Zn 0.88033 0.26489 0.80589 0.0
O86 O 0.8784 0.24627 0.79313 0.0
O87 O 0.85543 0.24053 0.79906 0.0
O88 O 0.90229 0.26812 0.80633 0.0
O89 O 0.84899 0.27845 0.79225 0.0
O90 O 0.87244 0.28407 0.79572 0.0
C91 C 0.86764 0.23715 0.79297 0.0
C92 C 0.86292 0.26187 0.83502 0.0
O93 O 0.87494 0.2599 0.82784 0.0
O94 O 0.85133 0.26564 0.8281 0.0
C95 C 0.91047 0.25753 0.81079 0.0
O96 O 0.90422 0.2451 0.81524 0.0
C97 C 0.85976 0.28723 0.79026 0.0
Zn98 Zn 0.21516 0.35698 0.29786 0.0
Zn99 Zn 0.21379 0.3832 0.30634 0.0
O100 O 0.23389 0.38239 0.29534 0.0
O101 O 0.23626 0.35845 0.29149 0.0
O102 O 0.21267 0.4049 0.31113 0.0
O103 O 0.19943 0.3588 0.28285 0.0
O104 O 0.19467 0.38024 0.29349 0.0
C105 C 0.24161 0.37141 0.29089 0.0
C106 C 0.21309 0.35792 0.32881 0.0
O107 O 0.21527 0.37169 0.3263 0.0
O108 O 0.21059 0.34927 0.31807 0.0
C109 C 0.21569 0.41138 0.32325 0.0
O110 O 0.21953 0.40349 0.33492 0.0
C111 C 0.19141 0.3702 0.2841 0.0
Zn112 Zn 0.17312 0.12811 0.25795 0.0
Zn113 Zn 0.17134 0.10039 0.26324 0.0
O114 O 0.18321 0.10003 0.24384 0.0
O115 O 0.17989 0.12326 0.23699 0.0
O116 O 0.16968 0.07863 0.26819 0.0
O117 O 0.18742 0.13204 0.27424 0.0
O118 O 0.18304 0.10903 0.28117 0.0
C119 C 0.1844 0.11026 0.23414 0.0
C120 C 0.14362 0.12011 0.25995 0.0
O121 O 0.14965 0.10734 0.25908 0.0
O122 O 0.15163 0.13143 0.26192 0.0
C123 C 0.16016 0.07057 0.26166 0.0
O124 O 0.15105 0.07673 0.25207 0.0
C125 C 0.18911 0.12161 0.28351 0.0
Zn126 Zn 0.35012 0.67261 0.76046 0.0
Zn127 Zn 0.37858 0.67187 0.76466 0.0
O128 O 0.37714 0.68331 0.74509 0.0
O129 O 0.35346 0.68097 0.73974 0.0
O130 O 0.40057 0.67142 0.76807 0.0
O131 O 0.3467 0.6856 0.77799 0.0
O132 O 0.37048 0.68325 0.78301 0.0
C133 C 0.36639 0.68515 0.73613 0.0
C134 C 0.36047 0.64318 0.76211 0.0
O135 O 0.37301 0.6497 0.7616 0.0
O136 O 0.34869 0.6507 0.76324 0.0
C137 C 0.40877 0.66741 0.75732 0.0
O138 O 0.4025 0.66334 0.74481 0.0
C139 C 0.35762 0.68812 0.7864 0.0
Zn140 Zn 0.79356 0.85654 0.26548 0.0
Zn141 Zn 0.80616 0.88265 0.26617 0.0
O142 O 0.79369 0.88369 0.247 0.0
O143 O 0.7818 0.86235 0.24742 0.0
O144 O 0.81453 0.90332 0.26766 0.0
O145 O 0.78443 0.85861 0.28535 0.0
O146 O 0.79372 0.88123 0.28578 0.0
C147 C 0.78438 0.87474 0.24127 0.0
C148 C 0.82514 0.85475 0.26207 0.0
O149 O 0.82442 0.86885 0.26327 0.0
O150 O 0.81344 0.84703 0.26302 0.0
C151 C 0.82031 0.91008 0.25669 0.0
O152 O 0.82171 0.90309 0.24399 0.0
C153 C 0.78597 0.87096 0.29174 0.0
Zn154 Zn 0.62657 0.30624 0.76726 0.0
Zn155 Zn 0.59828 0.31021 0.76756 0.0
O156 O 0.60048 0.29803 0.74841 0.0
O157 O 0.6248 0.29808 0.74637 0.0
O158 O 0.57643 0.31404 0.76875 0.0
O159 O 0.62586 0.29228 0.78451 0.0
O160 O 0.60225 0.29809 0.78692 0.0
C161 C 0.61216 0.29497 0.74106 0.0
C162 C 0.62002 0.33657 0.76655 0.0
O163 O 0.60709 0.33122 0.76455 0.0
O164 O 0.63061 0.328 0.77002 0.0
C165 C 0.56932 0.31882 0.75755 0.0
O166 O 0.57651 0.32152 0.74514 0.0
C167 C 0.61375 0.29122 0.7915 0.0
Zn168 Zn 0.17404 0.85274 0.71492 0.0
Zn169 Zn 0.17046 0.88171 0.71397 0.0
O170 O 0.18128 0.87907 0.73379 0.0
O171 O 0.1832 0.85476 0.73537 0.0
O172 O 0.16903 0.90384 0.71206 0.0
O173 O 0.18721 0.85246 0.69711 0.0
O174 O 0.18283 0.87646 0.69518 0.0
C175 C 0.18522 0.8675 0.74093 0.0
C176 C 0.14343 0.86133 0.71487 0.0
O177 O 0.14887 0.87432 0.71602 0.0
O178 O 0.15192 0.85029 0.71297 0.0
C179 C 0.15892 0.91165 0.71797 0.0
O180 O 0.14839 0.90512 0.72568 0.0
C181 C 0.18887 0.86463 0.69032 0.0
Zn182 Zn 0.62529 0.67332 0.2156 0.0
Zn183 Zn 0.59874 0.66974 0.21258 0.0
O184 O 0.59983 0.68094 0.2324 0.0
O185 O 0.62334 0.67731 0.23749 0.0
O186 O 0.57666 0.66647 0.21015 0.0
O187 O 0.62662 0.69028 0.20182 0.0
O188 O 0.60457 0.68318 0.19435 0.0
C189 C 0.6106 0.68164 0.2415 0.0
C190 C 0.62106 0.6439 0.21232 0.0
O191 O 0.60801 0.64856 0.21528 0.0
O192 O 0.63087 0.65318 0.20853 0.0
C193 C 0.56876 0.66409 0.22162 0.0
O194 O 0.57527 0.66294 0.23461 0.0
C195 C 0.61597 0.69148 0.19281 0.0
Zn196 Zn 0.80519 0.13037 0.71751 0.0
Zn197 Zn 0.80762 0.1011 0.71582 0.0
O198 O 0.79691 0.10372 0.73553 0.0
O199 O 0.79594 0.12798 0.73808 0.0
O200 O 0.8085 0.07896 0.71439 0.0
O201 O 0.79292 0.13115 0.699 0.0
O202 O 0.79547 0.10691 0.69716 0.0
C203 C 0.79347 0.11507 0.74316 0.0
C204 C 0.8354 0.12064 0.71668 0.0
O205 O 0.82953 0.10779 0.71738 0.0
O206 O 0.82728 0.13207 0.71567 0.0
C207 C 0.81771 0.07142 0.72196 0.0
O208 O 0.82728 0.07828 0.73052 0.0
C209 C 0.79049 0.11918 0.69212 0.0
Zn210 Zn 0.35542 0.29988 0.21272 0.0
Zn211 Zn 0.38188 0.30797 0.21086 0.0
O212 O 0.38229 0.29513 0.23003 0.0
O213 O 0.3586 0.28978 0.2322 0.0
O214 O 0.40339 0.31362 0.20836 0.0
O215 O 0.35446 0.28892 0.194 0.0
O216 O 0.3773 0.29692 0.19075 0.0
C217 C 0.37165 0.28928 0.23733 0.0
C218 C 0.35683 0.33066 0.21511 0.0
O219 O 0.37073 0.32788 0.2151 0.0
O220 O 0.34766 0.3203 0.2129 0.0
C221 C 0.41039 0.32122 0.21793 0.0
O222 O 0.40325 0.32616 0.22964 0.0
C223 C 0.3659 0.28998 0.18599 0.0
Zn224 Zn 0.26176 0.1736 0.12793 0.0
Zn225 Zn 0.2652 0.171 0.09973 0.0
O226 O 0.24539 0.18242 0.10083 0.0
O227 O 0.24166 0.18284 0.12495 0.0
O228 O 0.26851 0.16928 0.07773 0.0
O229 O 0.27907 0.18676 0.13049 0.0
O230 O 0.2836 0.18332 0.10678 0.0
C231 C 0.23737 0.18593 0.11193 0.0
C232 C 0.26329 0.14344 0.11984 0.0
O233 O 0.26289 0.14909 0.10685 0.0
O234 O 0.264 0.15179 0.13106 0.0
C235 C 0.25916 0.16229 0.06985 0.0
O236 O 0.2477 0.15602 0.07636 0.0
C237 C 0.28711 0.18907 0.11923 0.0
Zn238 Zn 0.2652 0.80289 0.85521 0.0
Zn239 Zn 0.26398 0.80784 0.8824 0.0
O240 O 0.24589 0.79483 0.87884 0.0
O241 O 0.2434 0.79746 0.85472 0.0
O242 O 0.26215 0.81038 0.90421 0.0
O243 O 0.28073 0.78726 0.85839 0.0
O244 O 0.28409 0.79697 0.88049 0.0
C245 C 0.23832 0.7932 0.86709 0.0
C246 C 0.2655 0.83317 0.86005 0.0
O247 O 0.26129 0.82858 0.87278 0.0
O248 O 0.27093 0.82398 0.85095 0.0
C249 C 0.25392 0.81954 0.91102 0.0
O250 O 0.24651 0.82969 0.9036 0.0
C251 C 0.28807 0.78808 0.8703 0.0
Zn252 Zn 0.67584 0.76016 0.34919 0.0
Zn253 Zn 0.67161 0.76382 0.37866 0.0
O254 O 0.68455 0.74524 0.37724 0.0
O255 O 0.68819 0.74169 0.35332 0.0
O256 O 0.66915 0.76625 0.4008 0.0
O257 O 0.68507 0.78027 0.34764 0.0
O258 O 0.68192 0.78334 0.37171 0.0
C259 C 0.69009 0.73775 0.36668 0.0
C260 C 0.64523 0.75782 0.35832 0.0
O261 O 0.65035 0.75945 0.37137 0.0
O262 O 0.65377 0.75821 0.34717 0.0
C263 C 0.66828 0.75462 0.40882 0.0
O264 O 0.66853 0.74153 0.40244 0.0
C265 C 0.68645 0.78816 0.35916 0.0
Zn266 Zn 0.71619 0.17294 0.85166 0.0
Zn267 Zn 0.71464 0.1717 0.88051 0.0
O268 O 0.73379 0.18383 0.87825 0.0
O269 O 0.73626 0.18307 0.85397 0.0
O270 O 0.71216 0.1695 0.90255 0.0
O271 O 0.69739 0.18445 0.84968 0.0
O272 O 0.69531 0.18279 0.87396 0.0
C273 C 0.74126 0.18674 0.86659 0.0
C274 C 0.71788 0.14344 0.86155 0.0
O275 O 0.71852 0.14999 0.87402 0.0
O276 O 0.71551 0.15084 0.84985 0.0
C277 C 0.72157 0.16186 0.9098 0.0
O278 O 0.73279 0.15584 0.90269 0.0
C279 C 0.69021 0.18709 0.86144 0.0
Zn280 Zn 0.30128 0.21391 0.35424 0.0
Zn281 Zn 0.30716 0.21445 0.38215 0.0
O282 O 0.2943 0.23291 0.37994 0.0
O283 O 0.29221 0.23449 0.3557 0.0
O284 O 0.31041 0.21467 0.40405 0.0
O285 O 0.28877 0.1958 0.35601 0.0
O286 O 0.29639 0.19427 0.37918 0.0
C287 C 0.29012 0.23999 0.36845 0.0
C288 C 0.3318 0.21696 0.35881 0.0
O289 O 0.32731 0.21891 0.37207 0.0
O290 O 0.32287 0.21223 0.3491 0.0
C291 C 0.32236 0.21282 0.41125 0.0
O292 O 0.33479 0.21023 0.40409 0.0
C293 C 0.28918 0.18897 0.36826 0.0
Zn294 Zn 0.72007 0.80524 0.12612 0.0
Zn295 Zn 0.71561 0.80871 0.09874 0.0
O296 O 0.73471 0.796 0.09859 0.0
O297 O 0.74076 0.79771 0.12214 0.0
O298 O 0.71209 0.81203 0.07694 0.0
O299 O 0.70293 0.79173 0.12886 0.0
O300 O 0.69643 0.79775 0.10613 0.0
C301 C 0.74397 0.79385 0.10904 0.0
C302 C 0.71903 0.83531 0.1197 0.0
O303 O 0.71979 0.83009 0.10659 0.0
O304 O 0.71724 0.82663 0.13059 0.0
C305 C 0.72317 0.81609 0.06917 0.0
O306 O 0.73598 0.81828 0.07575 0.0
C307 C 0.69359 0.79122 0.11842 0.0
Zn308 Zn 0.67671 0.21756 0.62633 0.0
Zn309 Zn 0.67136 0.21484 0.5979 0.0
O310 O 0.68303 0.23445 0.59868 0.0
O311 O 0.68721 0.23695 0.62262 0.0
O312 O 0.66911 0.21185 0.57596 0.0
O313 O 0.68876 0.19923 0.62753 0.0
O314 O 0.6831 0.19573 0.60402 0.0
C315 C 0.68842 0.24178 0.60947 0.0
C316 C 0.64559 0.21831 0.61947 0.0
O317 O 0.65013 0.21811 0.60608 0.0
O318 O 0.65474 0.21719 0.63006 0.0
C319 C 0.66065 0.21984 0.56799 0.0
O320 O 0.65244 0.23008 0.57433 0.0
C321 C 0.6895 0.19147 0.61592 0.0
Zn322 Zn 0.30734 0.76587 0.62832 0.0
Zn323 Zn 0.31014 0.76697 0.59906 0.0
O324 O 0.29809 0.74796 0.60216 0.0
O325 O 0.29607 0.74639 0.62644 0.0
O326 O 0.31245 0.76806 0.5768 0.0
O327 O 0.29675 0.7852 0.62888 0.0
O328 O 0.29861 0.78639 0.60452 0.0
C329 C 0.29363 0.74107 0.61367 0.0
C330 C 0.33748 0.76403 0.61918 0.0
O331 O 0.33171 0.76383 0.60628 0.0
O332 O 0.32939 0.76565 0.63052 0.0
C333 C 0.31403 0.75613 0.56944 0.0
O334 O 0.31435 0.74336 0.57651 0.0
C335 C 0.29424 0.79193 0.61681 0.0
Zn336 Zn 0.85661 0.7125 0.79941 0.0
Zn337 Zn 0.88256 0.71278 0.80798 0.0
O338 O 0.8816 0.73224 0.79559 0.0
O339 O 0.85771 0.73291 0.79088 0.0
O340 O 0.9042 0.71169 0.81373 0.0
O341 O 0.8574 0.6949 0.78669 0.0
O342 O 0.87983 0.69275 0.79609 0.0
C343 C 0.87033 0.739 0.79031 0.0
C344 C 0.85676 0.71366 0.83021 0.0
O345 O 0.87061 0.71563 0.82783 0.0
O346 O 0.84838 0.71027 0.81953 0.0
C347 C 0.91147 0.723 0.81799 0.0
O348 O 0.90451 0.73572 0.81956 0.0
C349 C 0.86931 0.6877 0.78806 0.0
Zn350 Zn 0.76362 0.35332 0.30091 0.0
Zn351 Zn 0.76425 0.38198 0.30831 0.0
O352 O 0.74547 0.38073 0.29551 0.0
O353 O 0.74472 0.35716 0.28917 0.0
O354 O 0.76544 0.40347 0.31374 0.0
O355 O 0.78345 0.35502 0.29123 0.0
O356 O 0.78397 0.37882 0.29689 0.0
C357 C 0.73914 0.37008 0.28874 0.0
C358 C 0.76153 0.35805 0.33232 0.0
O359 O 0.76158 0.37169 0.32858 0.0
O360 O 0.7627 0.34804 0.32255 0.0
C361 C 0.75389 0.41128 0.31582 0.0
O362 O 0.74074 0.40512 0.31459 0.0
C363 C 0.78994 0.36745 0.291 0.0
Zn364 Zn 0.12778 0.26187 0.80532 0.0
Zn365 Zn 0.09889 0.26406 0.80715 0.0
O366 O 0.10051 0.24441 0.79609 0.0
O367 O 0.12471 0.24113 0.79674 0.0
O368 O 0.077 0.26717 0.80858 0.0
O369 O 0.12953 0.27999 0.79254 0.0
O370 O 0.10531 0.28237 0.79471 0.0
C371 C 0.11186 0.23642 0.79349 0.0
C372 C 0.11839 0.26247 0.83518 0.0
O373 O 0.10567 0.26155 0.82908 0.0
O374 O 0.12987 0.26409 0.82727 0.0
C375 C 0.06887 0.25844 0.8161 0.0
O376 O 0.07504 0.24735 0.82331 0.0
C377 C 0.11771 0.28702 0.78976 0.0
Zn378 Zn 0.21575 0.6281 0.30826 0.0
Zn379 Zn 0.21408 0.59955 0.30896 0.0
O380 O 0.2324 0.60193 0.29618 0.0
O381 O 0.23624 0.62587 0.29882 0.0
O382 O 0.21259 0.5774 0.31028 0.0
O383 O 0.19752 0.63017 0.29599 0.0
O384 O 0.19448 0.60608 0.29855 0.0
C385 C 0.2405 0.6133 0.29415 0.0
C386 C 0.21808 0.61839 0.33727 0.0
O387 O 0.21929 0.60614 0.33037 0.0
O388 O 0.21414 0.62993 0.33031 0.0
C389 C 0.2218 0.5705 0.31845 0.0
O390 O 0.23166 0.57801 0.32609 0.0
C391 C 0.18989 0.61862 0.29376 0.0
Zn392 Zn 0.84585 0.25996 0.17326 0.0
Zn393 Zn 0.87503 0.26392 0.17032 0.0
O394 O 0.87373 0.24425 0.18152 0.0
O395 O 0.84979 0.24115 0.18532 0.0
O396 O 0.89684 0.267 0.16932 0.0
O397 O 0.8436 0.27954 0.18334 0.0
O398 O 0.86779 0.2825 0.18166 0.0
C399 C 0.86305 0.23669 0.1868 0.0
C400 C 0.85634 0.25983 0.14279 0.0
O401 O 0.86912 0.26141 0.14852 0.0
O402 O 0.8449 0.25919 0.15094 0.0
C403 C 0.90473 0.25651 0.16422 0.0
O404 O 0.89819 0.24438 0.15946 0.0
C405 C 0.85511 0.28717 0.18584 0.0
Zn406 Zn 0.21599 0.35678 0.68293 0.0
Zn407 Zn 0.21527 0.38134 0.67152 0.0
O408 O 0.23431 0.38158 0.6846 0.0
O409 O 0.2375 0.35765 0.68794 0.0
O410 O 0.21406 0.40262 0.66429 0.0
O411 O 0.20048 0.36124 0.69805 0.0
O412 O 0.19489 0.37906 0.68234 0.0
C413 C 0.24243 0.37074 0.6887 0.0
C414 C 0.21526 0.35384 0.65234 0.0
O415 O 0.21845 0.36762 0.65322 0.0
O416 O 0.21081 0.34704 0.66381 0.0
C417 C 0.22546 0.41094 0.66401 0.0
O418 O 0.23856 0.40513 0.66668 0.0
C419 C 0.19165 0.37123 0.69368 0.0
Zn420 Zn 0.12554 0.71704 0.17425 0.0
Zn421 Zn 0.09833 0.71415 0.1726 0.0
O422 O 0.09956 0.73315 0.1851 0.0
O423 O 0.12261 0.73878 0.17947 0.0
O424 O 0.07644 0.71132 0.16992 0.0
O425 O 0.12744 0.7019 0.19027 0.0
O426 O 0.105 0.695 0.18381 0.0
C427 C 0.11025 0.74239 0.1851 0.0
C428 C 0.11835 0.71569 0.14514 0.0
O429 O 0.10598 0.71858 0.15132 0.0
O430 O 0.12901 0.71116 0.15304 0.0
C431 C 0.06896 0.72152 0.16365 0.0
O432 O 0.07584 0.73349 0.15888 0.0
C433 C 0.11683 0.69278 0.19125 0.0
Zn434 Zn 0.7605 0.6288 0.67298 0.0
Zn435 Zn 0.76242 0.59949 0.67118 0.0
O436 O 0.74328 0.60185 0.68297 0.0
O437 O 0.7401 0.62609 0.68254 0.0
O438 O 0.76447 0.57734 0.67035 0.0
O439 O 0.77937 0.62989 0.68471 0.0
O440 O 0.78148 0.60562 0.68246 0.0
C441 C 0.73548 0.61322 0.68594 0.0
C442 C 0.76018 0.61899 0.64312 0.0
O443 O 0.75955 0.60627 0.6493 0.0
O444 O 0.76175 0.63054 0.65089 0.0
C445 C 0.76009 0.56951 0.65951 0.0
O446 O 0.75411 0.57601 0.6479 0.0
C447 C 0.78649 0.61801 0.68705 0.0
Zn448 Zn 0.80087 0.85654 0.7182 0.0
Zn449 Zn 0.80477 0.88405 0.71544 0.0
O450 O 0.79113 0.88336 0.73359 0.0
O451 O 0.79463 0.85992 0.73955 0.0
O452 O 0.80735 0.90598 0.71292 0.0
O453 O 0.78575 0.85625 0.70184 0.0
O454 O 0.79481 0.87808 0.69563 0.0
C455 C 0.78982 0.87271 0.74279 0.0
C456 C 0.83084 0.86268 0.71858 0.0
O457 O 0.82544 0.87553 0.72098 0.0
O458 O 0.82245 0.85241 0.71404 0.0
C459 C 0.81917 0.91286 0.70954 0.0
O460 O 0.83148 0.90537 0.7073 0.0
C461 C 0.78655 0.86698 0.69281 0.0
Zn462 Zn 0.62615 0.29957 0.22421 0.0
Zn463 Zn 0.59839 0.30624 0.21776 0.0
O464 O 0.59697 0.2953 0.23793 0.0
O465 O 0.62019 0.29006 0.24354 0.0
O466 O 0.57683 0.30985 0.21335 0.0
O467 O 0.62831 0.28722 0.20616 0.0
O468 O 0.60576 0.29388 0.19958 0.0
C469 C 0.60653 0.28973 0.24673 0.0
C470 C 0.62088 0.33105 0.22118 0.0
O471 O 0.60735 0.32727 0.21965 0.0
O472 O 0.63085 0.32129 0.22287 0.0
C473 C 0.56917 0.31688 0.22287 0.0
O474 O 0.57577 0.322 0.2348 0.0
C475 C 0.61781 0.28692 0.19687 0.0
Zn476 Zn 0.17416 0.1287 0.72023 0.0
Zn477 Zn 0.17287 0.10038 0.71604 0.0
O478 O 0.18381 0.10115 0.73591 0.0
O479 O 0.18072 0.12471 0.74151 0.0
O480 O 0.172 0.0785 0.71234 0.0
O481 O 0.18878 0.13164 0.7037 0.0
O482 O 0.18484 0.10825 0.69804 0.0
C483 C 0.18493 0.11176 0.74511 0.0
C484 C 0.1446 0.11928 0.71721 0.0
O485 O 0.15083 0.10664 0.71842 0.0
O486 O 0.15245 0.13084 0.71591 0.0
C487 C 0.16294 0.07065 0.71976 0.0
O488 O 0.15408 0.07713 0.72935 0.0
C489 C 0.19082 0.12075 0.69509 0.0
Zn490 Zn 0.3522 0.67711 0.21315 0.0
Zn491 Zn 0.38097 0.67316 0.21232 0.0
O492 O 0.3795 0.68591 0.23099 0.0
O493 O 0.35521 0.6869 0.23335 0.0
O494 O 0.40269 0.66919 0.21058 0.0
O495 O 0.3523 0.68838 0.19407 0.0
O496 O 0.37637 0.6843 0.19269 0.0
C497 C 0.36806 0.68967 0.23836 0.0
C498 C 0.35928 0.64688 0.21518 0.0
O499 O 0.37231 0.65224 0.21628 0.0
O500 O 0.34842 0.65531 0.21239 0.0
C501 C 0.40982 0.66449 0.22179 0.0
O502 O 0.40271 0.66221 0.23433 0.0
C503 C 0.36447 0.68959 0.18719 0.0
Zn504 Zn 0.80016 0.12562 0.26208 0.0
Zn505 Zn 0.80729 0.09796 0.26354 0.0
O506 O 0.79639 0.09942 0.24337 0.0
O507 O 0.79364 0.12354 0.24084 0.0
O508 O 0.81201 0.07616 0.26519 0.0
O509 O 0.7852 0.12377 0.27827 0.0
O510 O 0.79444 0.10151 0.28246 0.0
C511 C 0.79245 0.11059 0.23558 0.0
C512 C 0.83128 0.12183 0.26464 0.0
O513 O 0.82775 0.10829 0.26254 0.0
O514 O 0.82122 0.13145 0.26652 0.0
C515 C 0.8165 0.06874 0.25408 0.0
O516 O 0.81861 0.07557 0.24135 0.0
C517 C 0.78575 0.11208 0.28604 0.0
Zn518 Zn 0.35254 0.30977 0.76424 0.0
Zn519 Zn 0.3806 0.31037 0.76697 0.0
O520 O 0.37812 0.29854 0.74789 0.0
O521 O 0.35468 0.30294 0.74288 0.0
O522 O 0.40281 0.31131 0.76907 0.0
O523 O 0.35024 0.29496 0.78047 0.0
O524 O 0.37369 0.29883 0.78587 0.0
C525 C 0.36719 0.29783 0.739 0.0
C526 C 0.36197 0.33887 0.76494 0.0
O527 O 0.37428 0.33219 0.76296 0.0
O528 O 0.35062 0.33147 0.76857 0.0
C529 C 0.41063 0.31273 0.75741 0.0
O530 O 0.40398 0.31419 0.74452 0.0
C531 C 0.36126 0.29269 0.78884 0.0
Zn532 Zn 0.17033 0.85343 0.26422 0.0
Zn533 Zn 0.16914 0.88106 0.266 0.0
O534 O 0.1805 0.8787 0.24639 0.0
O535 O 0.17755 0.8547 0.24314 0.0
O536 O 0.16822 0.90329 0.26833 0.0
O537 O 0.1854 0.85072 0.27973 0.0
O538 O 0.1815 0.87431 0.28461 0.0
C539 C 0.1821 0.86715 0.23843 0.0
C540 C 0.14102 0.86161 0.26504 0.0
O541 O 0.14728 0.87412 0.26277 0.0
O542 O 0.14885 0.85056 0.26872 0.0
C543 C 0.16045 0.91135 0.25973 0.0
O544 O 0.15235 0.90498 0.24945 0.0
C545 C 0.18784 0.86199 0.28764 0.0
Zn546 Zn 0.62618 0.67212 0.76393 0.0
Zn547 Zn 0.5972 0.66879 0.76658 0.0
O548 O 0.59844 0.6804 0.74715 0.0
O549 O 0.62258 0.68205 0.74385 0.0
O550 O 0.57534 0.66676 0.76949 0.0
O551 O 0.62748 0.68383 0.78272 0.0
O552 O 0.60332 0.6809 0.7851 0.0
C553 C 0.60947 0.68445 0.7393 0.0
C554 C 0.61757 0.64168 0.76401 0.0
O555 O 0.60454 0.64715 0.76386 0.0
O556 O 0.62875 0.65011 0.76498 0.0
C557 C 0.5674 0.66121 0.7593 0.0
O558 O 0.57383 0.65631 0.74717 0.0
C559 C 0.6156 0.68599 0.78987 0.0
Zn560 Zn 0.71336 0.8025 0.85207 0.0
Zn561 Zn 0.71219 0.80793 0.8811 0.0
O562 O 0.73117 0.79548 0.87897 0.0
O563 O 0.73299 0.79161 0.85497 0.0
O564 O 0.71114 0.81156 0.90304 0.0
O565 O 0.69367 0.79234 0.85291 0.0
O566 O 0.69242 0.79689 0.87691 0.0
C567 C 0.73823 0.79019 0.86795 0.0
C568 C 0.71445 0.83353 0.85885 0.0
O569 O 0.71469 0.82896 0.87225 0.0
O570 O 0.71338 0.82438 0.84829 0.0
C571 C 0.72289 0.81345 0.91059 0.0
O572 O 0.73581 0.81341 0.90383 0.0
C573 C 0.68675 0.79161 0.8651 0.0
Zn574 Zn 0.71546 0.17543 0.12473 0.0
Zn575 Zn 0.7127 0.1722 0.0984 0.0
O576 O 0.73254 0.18334 0.09971 0.0
O577 O 0.73758 0.17824 0.123 0.0
O578 O 0.71058 0.16889 0.07636 0.0
O579 O 0.70219 0.1928 0.12591 0.0
O580 O 0.6945 0.18558 0.10402 0.0
C581 C 0.74167 0.18311 0.11048 0.0
C582 C 0.71145 0.14631 0.12071 0.0
O583 O 0.71494 0.15094 0.10776 0.0
O584 O 0.70748 0.15565 0.13034 0.0
C585 C 0.72174 0.16461 0.06885 0.0
O586 O 0.73427 0.16181 0.07575 0.0
C587 C 0.69301 0.19389 0.11538 0.0
Zn588 Zn 0.3049 0.2118 0.62582 0.0
Zn589 Zn 0.30989 0.21109 0.5977 0.0
O590 O 0.29551 0.2285 0.59865 0.0
O591 O 0.29608 0.23242 0.62269 0.0
O592 O 0.31571 0.21078 0.5763 0.0
O593 O 0.29166 0.1941 0.62411 0.0
O594 O 0.29929 0.19093 0.60111 0.0
C595 C 0.29232 0.23655 0.60977 0.0
C596 C 0.3346 0.21545 0.62101 0.0
O597 O 0.32925 0.21714 0.60807 0.0
O598 O 0.32655 0.21006 0.63117 0.0
C599 C 0.31703 0.22312 0.56957 0.0
O600 O 0.31503 0.23559 0.57682 0.0
C601 C 0.29171 0.18662 0.61226 0.0
Zn602 Zn 0.25413 0.80257 0.13616 0.0
Zn603 Zn 0.26381 0.8096 0.09468 0.0
O604 O 0.24265 0.80215 0.0925 0.0
O605 O 0.24291 0.80038 0.11658 0.0
O606 O 0.27215 0.80813 0.07426 0.0
O607 O 0.27208 0.78948 0.13306 0.0
O608 O 0.27598 0.79549 0.10899 0.0
C609 C 0.23595 0.79901 0.10448 0.0
C610 C 0.25894 0.82976 0.11507 0.0
O611 O 0.26244 0.83143 0.1016 0.0
O612 O 0.25791 0.81658 0.11956 0.0
C613 C 0.27521 0.81933 0.06627 0.0
O614 O 0.27446 0.83267 0.07209 0.0
C615 C 0.27944 0.78845 0.12095 0.0
Zn616 Zn 0.68336 0.76236 0.6203 0.0
Zn617 Zn 0.67196 0.76471 0.59622 0.0
O618 O 0.6844 0.7453 0.5945 0.0
O619 O 0.68734 0.74069 0.61822 0.0
O620 O 0.66412 0.76683 0.57532 0.0
O621 O 0.69922 0.77728 0.61695 0.0
O622 O 0.68397 0.78442 0.59929 0.0
C623 C 0.68804 0.73642 0.60491 0.0
C624 C 0.65321 0.76388 0.62414 0.0
O625 O 0.6538 0.76124 0.61024 0.0
O626 O 0.66483 0.76803 0.6308 0.0
C627 C 0.66132 0.75515 0.56794 0.0
O628 O 0.66184 0.7422 0.57466 0.0
C629 C 0.69537 0.78674 0.60735 0.0
Zn630 Zn 0.26024 0.17485 0.85339 0.0
Zn631 Zn 0.26429 0.1723 0.88124 0.0
O632 O 0.24424 0.18344 0.88097 0.0
O633 O 0.23926 0.18193 0.85714 0.0
O634 O 0.26848 0.17008 0.90305 0.0
O635 O 0.27685 0.18906 0.85042 0.0
O636 O 0.28261 0.18444 0.87366 0.0
C637 C 0.23531 0.18538 0.87018 0.0
C638 C 0.26246 0.14491 0.86103 0.0
O639 O 0.26152 0.15056 0.87395 0.0
O640 O 0.26386 0.15329 0.84984 0.0
C641 C 0.2608 0.16112 0.91081 0.0
O642 O 0.25036 0.1533 0.90432 0.0
C643 C 0.28559 0.19067 0.86126 0.0
Zn644 Zn 0.30804 0.76555 0.35032 0.0
Zn645 Zn 0.30999 0.76604 0.37975 0.0
O646 O 0.29682 0.74797 0.37604 0.0
O647 O 0.29655 0.74608 0.35172 0.0
O648 O 0.31165 0.76696 0.40213 0.0
O649 O 0.2979 0.78523 0.34987 0.0
O650 O 0.29976 0.78606 0.37423 0.0
C651 C 0.29294 0.74107 0.36438 0.0
C652 C 0.33778 0.76237 0.36023 0.0
O653 O 0.33161 0.76178 0.37295 0.0
O654 O 0.33011 0.76496 0.34877 0.0
C655 C 0.30991 0.75545 0.41017 0.0
O656 O 0.30712 0.74265 0.40382 0.0
C657 C 0.2957 0.79194 0.36198 0.0
Zn658 Zn 0.67512 0.21906 0.35009 0.0
Zn659 Zn 0.67237 0.21409 0.37921 0.0
O660 O 0.68249 0.23442 0.37858 0.0
O661 O 0.68445 0.23909 0.35461 0.0
O662 O 0.67119 0.21008 0.4011 0.0
O663 O 0.68797 0.20115 0.34771 0.0
O664 O 0.68514 0.19653 0.37153 0.0
C665 C 0.68636 0.24292 0.36797 0.0
C666 C 0.64476 0.21643 0.35966 0.0
O667 O 0.65053 0.21563 0.37252 0.0
O668 O 0.65293 0.21719 0.34824 0.0
C669 C 0.6615 0.21667 0.40893 0.0
O670 O 0.6521 0.22576 0.40245 0.0
C671 C 0.69057 0.19308 0.35892 0.0
H672 H 0.92163 0.27926 0.17491 0.0
H673 H 0.94867 0.28156 0.17398 0.0
H674 H 0.95165 0.23919 0.15202 0.0
H675 H 0.92464 0.23676 0.15284 0.0
H676 H 0.9708 0.26051 0.18558 0.0
H677 H 0.97402 0.26959 0.12461 0.0
H678 H 0.95715 0.27229 0.1351 0.0
H679 H 0.96312 0.25387 0.13038 0.0
C680 C 0.92803 0.27044 0.16985 0.0
C681 C 0.92101 0.25788 0.16382 0.0
C682 C 0.94345 0.27177 0.16938 0.0
C683 C 0.95203 0.26063 0.16277 0.0
C684 C 0.94512 0.24799 0.15696 0.0
H685 H 0.04368 0.24095 0.14855 0.0
H686 H 0.01657 0.24182 0.14944 0.0
C687 C 0.92971 0.24661 0.15748 0.0
C688 C 0.96825 0.2622 0.16188 0.0
H689 H -0.00322 0.26531 0.13719 0.0
C690 C 0.97652 0.2617 0.17504 0.0
C691 C 0.97554 0.2638 0.14808 0.0
C692 C 0.96704 0.26505 0.13372 0.0
C693 C -0.00794 0.26225 0.1747 0.0
C694 C -0.00066 0.2635 0.16086 0.0
C695 C -0.00894 0.2643 0.14774 0.0
C696 C 0.01562 0.26345 0.15974 0.0
C697 C 0.00062 0.26102 0.18905 0.0
C698 C 0.0239 0.27553 0.16492 0.0
C699 C 0.03936 0.27512 0.16437 0.0
C700 C 0.04672 0.2626 0.15864 0.0
C701 C 0.03833 0.25074 0.15303 0.0
C702 C 0.02288 0.25119 0.15355 0.0
H703 H -0.00662 0.25785 0.19853 0.0
H704 H 0.00964 0.25268 0.18798 0.0
H705 H 0.00582 0.27188 0.19159 0.0
H706 H 0.0184 0.28516 0.16955 0.0
H707 H 0.04552 0.28445 0.16875 0.0
H708 H 0.24668 0.54887 0.66433 0.0
H709 H 0.244 0.52185 0.66389 0.0
H710 H 0.19664 0.52645 0.65898 0.0
H711 H 0.19915 0.55357 0.65955 0.0
H712 H 0.22249 0.50504 0.68532 0.0
H713 H 0.21342 0.49711 0.62465 0.0
H714 H 0.22342 0.51295 0.63177 0.0
H715 H 0.20371 0.51183 0.63411 0.0
C716 C 0.2357 0.54416 0.663 0.0
C717 C 0.22312 0.55335 0.66196 0.0
C718 C 0.2342 0.52874 0.66281 0.0
C719 C 0.22015 0.52225 0.66138 0.0
C720 C 0.20758 0.53133 0.66004 0.0
H721 H 0.20059 0.42684 0.65642 0.0
H722 H 0.19768 0.45394 0.65633 0.0
C723 C 0.20904 0.54678 0.66038 0.0
C724 C 0.2187 0.50593 0.66176 0.0
H725 H 0.21464 0.47561 0.63952 0.0
C726 C 0.22067 0.49858 0.67535 0.0
C727 C 0.21616 0.49764 0.64874 0.0
C728 C 0.21408 0.50518 0.63392 0.0
C729 C 0.22051 0.48303 0.6762 0.0
C730 C 0.21865 0.47469 0.66305 0.0
C731 C 0.21612 0.48207 0.64955 0.0
C732 C 0.22031 0.45836 0.66295 0.0
C733 C 0.22242 0.47563 0.69112 0.0
C734 C 0.23408 0.45196 0.66637 0.0
C735 C 0.23583 0.43657 0.66627 0.0
C736 C 0.22381 0.42726 0.66279 0.0
C737 C 0.21006 0.43371 0.65913 0.0
C738 C 0.20836 0.44916 0.65911 0.0
H739 H 0.21961 0.48329 0.70036 0.0
H740 H 0.21535 0.46557 0.69204 0.0
H741 H 0.23417 0.47219 0.69246 0.0
H742 H 0.24349 0.45891 0.66914 0.0
H743 H 0.24655 0.43198 0.66921 0.0
H744 H 0.04985 0.74099 0.15033 0.0
H745 H 0.0228 0.73915 0.1488 0.0
H746 H 0.02418 0.69727 0.17206 0.0
H747 H 0.05123 0.69898 0.1737 0.0
H748 H 0.0048 0.71487 0.13628 0.0
H749 H -0.0045 0.72447 0.19657 0.0
H750 H 0.01264 0.72937 0.18738 0.0
H751 H 0.00877 0.71032 0.19185 0.0
C752 C 0.04442 0.73136 0.15508 0.0
C753 C 0.05268 0.72017 0.1622 0.0
C754 C 0.02898 0.73033 0.15417 0.0
C755 C 0.02156 0.71816 0.16045 0.0
C756 C 0.02975 0.70683 0.16731 0.0
H757 H 0.92813 0.69778 0.17184 0.0
H758 H 0.95521 0.69648 0.17065 0.0
C759 C 0.04519 0.70782 0.16819 0.0
C760 C 0.0052 0.71745 0.16002 0.0
H761 H 0.97444 0.71909 0.18204 0.0
C762 C -0.00187 0.7158 0.14626 0.0
C763 C -0.00339 0.71863 0.17309 0.0
C764 C 0.0037 0.72091 0.18808 0.0
C765 C 0.9826 0.7152 0.14524 0.0
C766 C 0.97402 0.71652 0.15831 0.0
C767 C 0.9811 0.71804 0.17207 0.0
C768 C 0.95764 0.71676 0.15796 0.0
C769 C 0.97547 0.71296 0.13028 0.0
C770 C 0.9501 0.7286 0.15119 0.0
C771 C 0.93464 0.72942 0.15188 0.0
C772 C 0.92648 0.71842 0.15941 0.0
C773 C 0.93408 0.70644 0.16596 0.0
C774 C 0.94954 0.70566 0.1653 0.0
H775 H 0.98354 0.7088 0.12193 0.0
H776 H 0.9661 0.70499 0.13109 0.0
H777 H 0.97099 0.72371 0.12624 0.0
H778 H 0.95621 0.7374 0.1457 0.0
H779 H 0.92912 0.73881 0.14676 0.0
H780 H 0.76914 0.42799 0.68398 0.0
H781 H 0.76931 0.45515 0.68479 0.0
H782 H 0.75871 0.45677 0.63813 0.0
H783 H 0.75797 0.42965 0.63737 0.0
H784 H 0.78559 0.47587 0.67031 0.0
H785 H 0.72628 0.48212 0.65546 0.0
H786 H 0.73429 0.46445 0.66049 0.0
H787 H 0.73643 0.47165 0.64194 0.0
C788 C 0.76689 0.43415 0.67389 0.0
C789 C 0.76339 0.42674 0.66063 0.0
C790 C 0.76698 0.44965 0.67437 0.0
C791 C 0.76368 0.45795 0.6616 0.0
C792 C 0.76083 0.45056 0.64822 0.0
H793 H 0.75702 0.54983 0.63677 0.0
H794 H 0.75867 0.52276 0.63806 0.0
C795 C 0.76051 0.43508 0.64777 0.0
C796 C 0.76315 0.47435 0.66225 0.0
H797 H 0.74097 0.50409 0.65457 0.0
C798 C 0.77582 0.48207 0.66697 0.0
C799 C 0.75031 0.48237 0.65805 0.0
C800 C 0.73601 0.47472 0.65385 0.0
C801 C 0.77619 0.49765 0.66702 0.0
C802 C 0.7635 0.50564 0.66235 0.0
C803 C 0.75074 0.49791 0.65797 0.0
C804 C 0.76321 0.52203 0.66164 0.0
C805 C 0.79029 0.50539 0.67168 0.0
C806 C 0.76516 0.53055 0.67449 0.0
C807 C 0.76436 0.54602 0.67376 0.0
C808 C 0.76136 0.55319 0.6602 0.0
C809 C 0.75932 0.54462 0.64737 0.0
C810 C 0.76027 0.52917 0.64809 0.0
H811 H 0.80002 0.49781 0.67132 0.0
H812 H 0.79258 0.51515 0.66448 0.0
H813 H 0.78904 0.50936 0.68326 0.0
H814 H 0.76706 0.52524 0.68512 0.0
H815 H 0.76582 0.55233 0.68386 0.0
H816 H 0.93012 0.74454 0.82845 0.0
H817 H 0.95721 0.7435 0.83038 0.0
H818 H 0.95684 0.69862 0.81391 0.0
H819 H 0.92976 0.6995 0.81195 0.0
H820 H 0.97577 0.72115 0.84659 0.0
H821 H 0.9851 0.72307 0.78554 0.0
H822 H 0.96789 0.72896 0.79397 0.0
H823 H 0.97196 0.70954 0.79216 0.0
C824 C 0.93578 0.73441 0.82532 0.0
C825 C 0.92777 0.72211 0.82001 0.0
C826 C 0.95125 0.73384 0.82645 0.0
C827 C 0.95898 0.72103 0.82217 0.0
C828 C 0.95104 0.70865 0.81714 0.0
H829 H 0.05224 0.7006 0.81163 0.0
H830 H 0.02524 0.69942 0.81355 0.0
C831 C 0.93557 0.70916 0.81609 0.0
C832 C 0.97538 0.72073 0.82271 0.0
H833 H 0.00617 0.71995 0.80068 0.0
C834 C 0.98246 0.7209 0.83658 0.0
C835 C 0.984 0.72037 0.80961 0.0
C836 C 0.97692 0.72058 0.79444 0.0
C837 C -0.00199 0.72055 0.83768 0.0
C838 C 0.00662 0.72032 0.82456 0.0
C839 C -0.00049 0.7201 0.81071 0.0
C840 C 0.02304 0.72048 0.82482 0.0
C841 C 0.00508 0.72013 0.85285 0.0
C842 C 0.03077 0.73267 0.83066 0.0
C843 C 0.04623 0.73338 0.8296 0.0
C844 C 0.0542 0.72197 0.82255 0.0
C845 C 0.04644 0.70962 0.81705 0.0
C846 C 0.03101 0.70891 0.81815 0.0
H847 H -0.00292 0.71656 0.86154 0.0
H848 H 0.01475 0.71248 0.853 0.0
H849 H 0.00908 0.73141 0.85573 0.0
H850 H 0.0248 0.74185 0.83561 0.0
H851 H 0.05189 0.74306 0.83392 0.0
H852 H 0.77745 0.55382 0.32762 0.0
H853 H 0.78008 0.52686 0.33086 0.0
H854 H 0.73894 0.52006 0.30748 0.0
H855 H 0.73609 0.54689 0.30432 0.0
H856 H 0.75127 0.50513 0.34251 0.0
H857 H 0.77927 0.49599 0.28813 0.0
H858 H 0.78132 0.51306 0.29842 0.0
H859 H 0.76428 0.50923 0.28893 0.0
C860 C 0.76895 0.54657 0.32321 0.0
C861 C 0.75656 0.55244 0.31573 0.0
C862 C 0.77047 0.53123 0.3251 0.0
C863 C 0.7597 0.52162 0.31937 0.0
C864 C 0.74731 0.52741 0.31198 0.0
H865 H 0.73233 0.43245 0.31363 0.0
H866 H 0.73525 0.45931 0.31659 0.0
C867 C 0.74571 0.54271 0.31022 0.0
C868 C 0.76133 0.50543 0.32084 0.0
H869 H 0.77071 0.47467 0.30098 0.0
C870 C 0.75571 0.49843 0.33357 0.0
C871 C 0.7672 0.49687 0.30913 0.0
C872 C 0.77345 0.50409 0.29536 0.0
C873 C 0.75524 0.48289 0.33459 0.0
C874 C 0.76046 0.47434 0.32257 0.0
C875 C 0.7667 0.48136 0.31014 0.0
C876 C 0.75855 0.45813 0.32218 0.0
C877 C 0.74888 0.47564 0.34828 0.0
C878 C 0.77073 0.44872 0.32439 0.0
C879 C 0.76912 0.43341 0.32269 0.0
C880 C 0.75532 0.42732 0.31869 0.0
C881 C 0.74307 0.4368 0.31682 0.0
C882 C 0.7447 0.45211 0.31851 0.0
H883 H 0.74701 0.48374 0.35736 0.0
H884 H 0.73811 0.47035 0.34548 0.0
H885 H 0.75645 0.46676 0.3523 0.0
H886 H 0.78149 0.45326 0.3272 0.0
H887 H 0.77873 0.42635 0.3243 0.0
H888 H 0.05266 0.27894 0.80063 0.0
H889 H 0.02565 0.28144 0.79982 0.0
H890 H 0.02126 0.24488 0.83052 0.0
H891 H 0.04825 0.24229 0.83146 0.0
H892 H 0.00541 0.25888 0.79091 0.0
H893 H -0.00514 0.27794 0.84846 0.0
H894 H 0.01288 0.27917 0.83974 0.0
H895 H 0.00652 0.26179 0.84727 0.0
C896 C 0.04596 0.27151 0.80732 0.0
C897 C 0.05259 0.26041 0.81613 0.0
C898 C 0.03054 0.27296 0.80682 0.0
C899 C 0.02152 0.26346 0.81524 0.0
C900 C 0.02808 0.25248 0.82414 0.0
H901 H 0.93077 0.2383 0.82245 0.0
H902 H 0.95778 0.24097 0.82276 0.0
C903 C 0.0435 0.25097 0.82461 0.0
C904 C 0.00521 0.26446 0.81413 0.0
H905 H 0.97386 0.26929 0.83483 0.0
C906 C -0.00151 0.26134 0.80044 0.0
C907 C -0.00372 0.26777 0.82659 0.0
C908 C 0.00297 0.272 0.84132 0.0
C909 C 0.983 0.26082 0.79906 0.0
C910 C 0.97412 0.26354 0.81167 0.0
C911 C 0.9808 0.26711 0.82523 0.0
C912 C 0.95785 0.26203 0.81117 0.0
C913 C 0.97618 0.25684 0.78432 0.0
C914 C 0.94906 0.27305 0.80457 0.0
C915 C 0.93362 0.27162 0.80445 0.0
C916 C 0.92678 0.25911 0.81088 0.0
C917 C 0.93569 0.24807 0.8174 0.0
C918 C 0.9511 0.24956 0.81761 0.0
H919 H 0.98467 0.2539 0.77588 0.0
H920 H 0.96846 0.24733 0.78571 0.0
H921 H 0.96962 0.26639 0.7801 0.0
H922 H 0.95415 0.28277 0.79961 0.0
H923 H 0.92706 0.28029 0.7993 0.0
H924 H 0.21837 0.42948 0.34758 0.0
H925 H 0.21889 0.45674 0.34781 0.0
H926 H 0.21428 0.45743 0.30018 0.0
H927 H 0.21344 0.43042 0.29984 0.0
H928 H 0.23902 0.47566 0.33319 0.0
H929 H 0.18155 0.48556 0.31348 0.0
H930 H 0.18768 0.46771 0.32028 0.0
H931 H 0.19211 0.47352 0.30168 0.0
C932 C 0.21735 0.43546 0.33718 0.0
C933 C 0.21573 0.42779 0.32371 0.0
C934 C 0.21766 0.451 0.33733 0.0
C935 C 0.21635 0.45907 0.32404 0.0
C936 C 0.21492 0.45143 0.3106 0.0
H937 H 0.21542 0.55098 0.29638 0.0
H938 H 0.21507 0.52382 0.29804 0.0
C939 C 0.2145 0.43596 0.31044 0.0
C940 C 0.21698 0.47548 0.32402 0.0
H941 H 0.19777 0.50637 0.31344 0.0
C942 C 0.22997 0.48242 0.32901 0.0
C943 C 0.20519 0.48421 0.31843 0.0
C944 C 0.19079 0.47739 0.31329 0.0
C945 C 0.2317 0.49789 0.32812 0.0
C946 C 0.2199 0.50665 0.32248 0.0
C947 C 0.20683 0.49967 0.3177 0.0
C948 C 0.2208 0.52305 0.32139 0.0
C949 C 0.24635 0.50457 0.33271 0.0
C950 C 0.22409 0.53165 0.33394 0.0
C951 C 0.22468 0.5471 0.33289 0.0
C952 C 0.22143 0.55423 0.31942 0.0
C953 C 0.21785 0.5457 0.30692 0.0
C954 C 0.21767 0.53022 0.30787 0.0
H955 H 0.25547 0.49628 0.33221 0.0
H956 H 0.24936 0.51417 0.32557 0.0
H957 H 0.24552 0.50845 0.34436 0.0
H958 H 0.22602 0.52644 0.34461 0.0
H959 H 0.22729 0.5535 0.3427 0.0
H960 H 0.14178 0.93153 0.24691 0.0
H961 H 0.14289 0.95859 0.24855 0.0
H962 H 0.18159 0.95536 0.27651 0.0
H963 H 0.18035 0.92823 0.27522 0.0
H964 H 0.16107 0.97549 0.28701 0.0
H965 H 0.17216 0.98559 0.22734 0.0
H966 H 0.15604 0.97433 0.23045 0.0
H967 H 0.17403 0.96749 0.23578 0.0
C968 C 0.15055 0.93656 0.25339 0.0
C969 C 0.16099 0.92773 0.26091 0.0
C970 C 0.15122 0.95204 0.25424 0.0
C971 C 0.16248 0.95899 0.26243 0.0
C972 C 0.17284 0.95021 0.27009 0.0
H973 H 0.18052 0.05359 0.27663 0.0
H974 H 0.18156 0.02645 0.27804 0.0
C975 C 0.1721 0.93472 0.26934 0.0
C976 C 0.16322 0.97542 0.2632 0.0
H977 H 0.16484 0.00659 0.24163 0.0
C978 C 0.16203 0.98232 0.27712 0.0
C979 C 0.16463 0.98428 0.25029 0.0
C980 C 0.16695 0.97756 0.23514 0.0
C981 C 0.16155 -0.00214 0.27838 0.0
C982 C 0.1624 0.00666 0.26539 0.0
C983 C 0.16402 -0.00023 0.25155 0.0
C984 C 0.16123 0.02305 0.26575 0.0
C985 C 0.15966 0.00474 0.2935 0.0
C986 C 0.14948 0.03011 0.25836 0.0
C987 C 0.14891 0.04557 0.25743 0.0
C988 C 0.16012 0.05428 0.26385 0.0
C989 C 0.17168 0.0472 0.27162 0.0
C990 C 0.17227 0.03169 0.2725 0.0
H991 H 0.15636 -0.00359 0.30201 0.0
H992 H 0.17032 0.00979 0.29701 0.0
H993 H 0.15117 0.01368 0.29316 0.0
H994 H 0.14086 0.02362 0.25308 0.0
H995 H 0.13982 0.05067 0.25144 0.0
H996 H 0.55071 0.67214 0.78215 0.0
H997 H 0.52364 0.6731 0.78388 0.0
H998 H 0.52011 0.65155 0.74136 0.0
H999 H 0.54715 0.65043 0.73954 0.0
H1000 H 0.50401 0.6872 0.76365 0.0
H1001 H 0.49282 0.62682 0.76862 0.0
H1002 H 0.51091 0.63477 0.77194 0.0
H1003 H 0.50463 0.63164 0.75327 0.0
C1004 C 0.54418 0.66748 0.77322 0.0
C1005 C 0.55107 0.66116 0.76072 0.0
C1006 C 0.52873 0.66807 0.77423 0.0
C1007 C 0.51992 0.66225 0.76284 0.0
C1008 C 0.52674 0.65587 0.75039 0.0
H1009 H 0.42907 0.6585 0.73675 0.0
H1010 H 0.45607 0.65814 0.73915 0.0
C1011 C 0.54219 0.6553 0.74934 0.0
C1012 C 0.50359 0.66329 0.76365 0.0
H1013 H 0.47209 0.64232 0.76299 0.0
C1014 C 0.49699 0.67741 0.76369 0.0
C1015 C 0.49454 0.65048 0.76377 0.0
C1016 C 0.50106 0.63506 0.76454 0.0
C1017 C 0.48151 0.67905 0.76322 0.0
C1018 C 0.47251 0.66622 0.76282 0.0
C1019 C 0.47909 0.65212 0.7632 0.0
C1020 C 0.45622 0.66713 0.76138 0.0
C1021 C 0.47488 0.69442 0.76261 0.0
C1022 C 0.44743 0.67229 0.77313 0.0
C1023 C 0.43197 0.67245 0.77183 0.0
C1024 C 0.4251 0.66743 0.75876 0.0
C1025 C 0.434 0.66239 0.74698 0.0
C1026 C 0.44942 0.66219 0.74831 0.0
H1027 H 0.48345 0.70312 0.76084 0.0
H1028 H 0.46657 0.69517 0.75354 0.0
H1029 H 0.46908 0.69676 0.77321 0.0
H1030 H 0.45252 0.67599 0.78335 0.0
H1031 H 0.42542 0.67642 0.78109 0.0
H1032 H 0.82519 0.04947 0.23233 0.0
H1033 H 0.82772 0.02248 0.23417 0.0
H1034 H 0.81531 0.0242 0.28036 0.0
H1035 H 0.8126 0.05117 0.27862 0.0
H1036 H 0.84604 0.00514 0.25335 0.0
H1037 H 0.78599 -0.00585 0.26235 0.0
H1038 H 0.79281 0.01171 0.25547 0.0
H1039 H 0.79414 0.0073 0.27488 0.0
C1040 C 0.82303 0.04413 0.2429 0.0
C1041 C 0.81863 0.05248 0.25531 0.0
C1042 C 0.8245 0.0287 0.24393 0.0
C1043 C 0.82153 0.02135 0.25735 0.0
C1044 C 0.81742 0.02966 0.26983 0.0
H1045 H 0.81803 0.92786 0.28113 0.0
H1046 H 0.82021 0.95489 0.28207 0.0
C1047 C 0.81595 0.04508 0.26883 0.0
C1048 C 0.82265 0.00496 0.25822 0.0
H1049 H 0.80217 0.9736 0.26402 0.0
C1050 C 0.83647 -0.00178 0.25567 0.0
C1051 C 0.81012 -0.004 0.26129 0.0
C1052 C 0.79489 0.0026 0.26354 0.0
C1053 C 0.8381 0.98272 0.25619 0.0
C1054 C 0.82556 0.97377 0.25913 0.0
C1055 C 0.81178 0.98052 0.26183 0.0
C1056 C 0.82623 0.95734 0.25896 0.0
C1057 C 0.85325 0.97601 0.25376 0.0
C1058 C 0.82915 0.94976 0.2457 0.0
C1059 C 0.82788 0.93429 0.24509 0.0
C1060 C 0.82358 0.92616 0.25774 0.0
C1061 C 0.82128 0.93377 0.27116 0.0
C1062 C 0.82253 0.94922 0.27174 0.0
H1063 H 0.86222 0.98436 0.25509 0.0
H1064 H 0.85523 0.96671 0.26164 0.0
H1065 H 0.8539 0.97152 0.24233 0.0
H1066 H 0.83179 0.95585 0.23565 0.0
H1067 H 0.82971 0.92879 0.23458 0.0
H1068 H 0.55008 0.32255 0.7344 0.0
H1069 H 0.52292 0.32223 0.73538 0.0
H1070 H 0.52451 0.31766 0.78299 0.0
H1071 H 0.55164 0.31789 0.78216 0.0
H1072 H 0.50651 0.29683 0.74935 0.0
H1073 H 0.49369 0.35204 0.77392 0.0
H1074 H 0.51078 0.34837 0.76407 0.0
H1075 H 0.5082 0.34132 0.78253 0.0
C1076 C 0.54466 0.32168 0.7451 0.0
C1077 C 0.55299 0.32013 0.7582 0.0
C1078 C 0.52917 0.32148 0.74563 0.0
C1079 C 0.52179 0.31997 0.75926 0.0
C1080 C 0.53005 0.31895 0.77239 0.0
H1081 H 0.42812 0.31291 0.78226 0.0
H1082 H 0.45529 0.31338 0.78329 0.0
C1083 C 0.54553 0.31902 0.77187 0.0
C1084 C 0.50551 0.31834 0.75965 0.0
H1085 H 0.47361 0.33561 0.77043 0.0
C1086 C 0.49928 0.3053 0.75391 0.0
C1087 C 0.49623 0.32936 0.7658 0.0
C1088 C 0.50248 0.34363 0.77187 0.0
C1089 C 0.4839 0.30298 0.75416 0.0
C1090 C 0.47456 0.31414 0.76002 0.0
C1091 C 0.48083 0.32709 0.76596 0.0
C1092 C 0.45822 0.31293 0.75946 0.0
C1093 C 0.47778 0.28854 0.74832 0.0
C1094 C 0.45095 0.31255 0.74573 0.0
C1095 C 0.43548 0.31236 0.74509 0.0
C1096 C 0.42701 0.31259 0.7582 0.0
C1097 C 0.43434 0.31276 0.77197 0.0
C1098 C 0.44984 0.31303 0.77259 0.0
H1099 H 0.4864 0.27971 0.74808 0.0
H1100 H 0.46831 0.28463 0.75519 0.0
H1101 H 0.47375 0.29025 0.73681 0.0
H1102 H 0.45723 0.3127 0.73548 0.0
H1103 H 0.43018 0.31215 0.73431 0.0
H1104 H 0.14159 0.0514 0.72912 0.0
H1105 H 0.14186 0.02433 0.72752 0.0
H1106 H 0.18438 0.02593 0.70557 0.0
H1107 H 0.18407 0.05311 0.70684 0.0
H1108 H 0.16402 0.00606 0.69255 0.0
H1109 H 0.16802 -0.00244 0.75341 0.0
H1110 H 0.15302 0.00951 0.74796 0.0
H1111 H 0.17186 0.01519 0.74461 0.0
C1112 C 0.15099 0.046 0.72394 0.0
C1113 C 0.16285 0.05435 0.71819 0.0
C1114 C 0.15116 0.03055 0.72309 0.0
C1115 C 0.16327 0.02317 0.71669 0.0
C1116 C 0.17497 0.03146 0.71061 0.0
H1117 H 0.18087 0.92855 0.70557 0.0
H1118 H 0.18234 0.95561 0.70448 0.0
C1119 C 0.17476 0.04696 0.71134 0.0
C1120 C 0.16365 0.00677 0.71642 0.0
H1121 H 0.16218 0.97631 0.73895 0.0
C1122 C 0.16374 -0.00048 0.70267 0.0
C1123 C 0.16341 -0.00168 0.72967 0.0
C1124 C 0.16422 0.00552 0.74476 0.0
C1125 C 0.16297 0.98397 0.70181 0.0
C1126 C 0.16225 0.97556 0.71507 0.0
C1127 C 0.16254 0.98282 0.72881 0.0
C1128 C 0.16107 0.9592 0.71504 0.0
C1129 C 0.16248 0.97671 0.68675 0.0
C1130 C 0.14873 0.95227 0.72156 0.0
C1131 C 0.1479 0.9368 0.72234 0.0
C1132 C 0.15944 0.92801 0.71664 0.0
C1133 C 0.17174 0.935 0.70999 0.0
C1134 C 0.17258 0.95047 0.70927 0.0
H1135 H 0.15968 0.98479 0.67783 0.0
H1136 H 0.17354 0.97192 0.68421 0.0
H1137 H 0.15423 0.96756 0.68658 0.0
H1138 H 0.13977 0.95885 0.72614 0.0
H1139 H 0.13828 0.93176 0.72752 0.0
H1140 H 0.42717 0.66486 0.19695 0.0
H1141 H 0.4542 0.6629 0.19564 0.0
H1142 H 0.45617 0.65793 0.24323 0.0
H1143 H 0.42914 0.65958 0.24462 0.0
H1144 H 0.47408 0.68197 0.20886 0.0
H1145 H 0.4829 0.62439 0.22901 0.0
H1146 H 0.46504 0.63105 0.22279 0.0
H1147 H 0.47157 0.63541 0.24112 0.0
C1148 C 0.43335 0.66319 0.20712 0.0
C1149 C 0.42604 0.66239 0.2209 0.0
C1150 C 0.44878 0.66207 0.20635 0.0
C1151 C 0.45716 0.6601 0.21931 0.0
C1152 C 0.44988 0.65911 0.23306 0.0
H1153 H 0.54889 0.663 0.24444 0.0
H1154 H 0.52184 0.66221 0.24292 0.0
C1155 C 0.43444 0.66014 0.23384 0.0
C1156 C 0.47355 0.6601 0.21857 0.0
H1157 H 0.50427 0.64 0.22794 0.0
C1158 C 0.4807 0.67274 0.21287 0.0
C1159 C 0.48212 0.64803 0.22383 0.0
C1160 C 0.47504 0.63389 0.22941 0.0
C1161 C 0.49623 0.67382 0.21271 0.0
C1162 C 0.50478 0.66188 0.21825 0.0
C1163 C 0.49764 0.64914 0.22374 0.0
C1164 C 0.52116 0.66255 0.21894 0.0
C1165 C 0.50336 0.68791 0.2071 0.0
C1166 C 0.5297 0.66295 0.20592 0.0
C1167 C 0.5452 0.66341 0.20673 0.0
C1168 C 0.55238 0.66337 0.22059 0.0
C1169 C 0.54373 0.66292 0.23359 0.0
C1170 C 0.52827 0.66249 0.23276 0.0
H1171 H 0.49517 0.69703 0.20569 0.0
H1172 H 0.51217 0.69165 0.21484 0.0
H1173 H 0.50862 0.68577 0.19617 0.0
H1174 H 0.52439 0.66279 0.19514 0.0
H1175 H 0.55154 0.66373 0.19652 0.0
H1176 H 0.79474 0.05369 0.71357 0.0
H1177 H 0.79452 0.02661 0.71187 0.0
H1178 H 0.84024 0.0253 0.72608 0.0
H1179 H 0.84028 0.05233 0.72847 0.0
H1180 H 0.80989 0.00914 0.69452 0.0
H1181 H 0.82307 -0.00561 0.75269 0.0
H1182 H 0.81816 0.01302 0.74719 0.0
H1183 H 0.83688 0.00639 0.74485 0.0
C1184 C 0.8047 0.0476 0.71644 0.0
C1185 C 0.81753 0.05508 0.72116 0.0
C1186 C 0.80456 0.03214 0.71548 0.0
C1187 C 0.81729 0.02389 0.71906 0.0
C1188 C 0.83015 0.03137 0.72368 0.0
H1189 H 0.84296 0.93177 0.70834 0.0
H1190 H 0.84242 0.95898 0.70957 0.0
C1191 C 0.83021 0.04683 0.72492 0.0
C1192 C 0.81734 0.00754 0.71721 0.0
H1193 H 0.82551 0.97493 0.73484 0.0
C1194 C 0.81321 0.00167 0.70338 0.0
C1195 C 0.82156 -0.00223 0.72881 0.0
C1196 C 0.82501 0.00321 0.74425 0.0
C1197 C 0.81349 0.98633 0.70076 0.0
C1198 C 0.81817 0.97669 0.71219 0.0
C1199 C 0.82218 0.98247 0.72604 0.0
C1200 C 0.81848 0.96045 0.71022 0.0
C1201 C 0.80892 0.9805 0.68577 0.0
C1202 C 0.80518 0.95243 0.71009 0.0
C1203 C 0.80544 0.93696 0.7095 0.0
C1204 C 0.81903 0.92926 0.709 0.0
C1205 C 0.83234 0.93738 0.7087 0.0
C1206 C 0.83206 0.95288 0.70942 0.0
H1207 H 0.80768 0.98953 0.67743 0.0
H1208 H 0.81721 0.97236 0.68165 0.0
H1209 H 0.79813 0.97466 0.68682 0.0
H1210 H 0.79461 0.95812 0.71081 0.0
H1211 H 0.79498 0.93103 0.70967 0.0
H1212 H 0.55002 0.33244 0.24045 0.0
H1213 H 0.52305 0.3343 0.23805 0.0
H1214 H 0.52457 0.30702 0.19884 0.0
H1215 H 0.55157 0.30505 0.20115 0.0
H1216 H 0.50568 0.34497 0.21295 0.0
H1217 H 0.4947 0.28586 0.22731 0.0
H1218 H 0.51208 0.29491 0.23148 0.0
H1219 H 0.50816 0.28897 0.21289 0.0
C1220 C 0.54464 0.32687 0.23128 0.0
C1221 C 0.55294 0.31856 0.22101 0.0
C1222 C 0.52924 0.32797 0.22992 0.0
C1223 C 0.52184 0.32069 0.21836 0.0
C1224 C 0.53008 0.31258 0.20795 0.0
H1225 H 0.4287 0.31061 0.19618 0.0
H1226 H 0.4558 0.31174 0.19533 0.0
C1227 C 0.54551 0.31153 0.20925 0.0
C1228 C 0.50547 0.32145 0.21733 0.0
H1229 H 0.47411 0.30038 0.22007 0.0
C1230 C 0.49875 0.33524 0.21451 0.0
C1231 C 0.49652 0.30873 0.2194 0.0
C1232 C 0.50316 0.29378 0.22306 0.0
C1233 C 0.48325 0.3366 0.21358 0.0
C1234 C 0.47431 0.32388 0.21567 0.0
C1235 C 0.48104 0.31009 0.21841 0.0
C1236 C 0.45791 0.32461 0.21542 0.0
C1237 C 0.47651 0.35155 0.21016 0.0
C1238 C 0.45016 0.33162 0.22694 0.0
C1239 C 0.43466 0.33094 0.22753 0.0
C1240 C 0.42666 0.32321 0.21659 0.0
C1241 C 0.43449 0.31662 0.2048 0.0
C1242 C 0.44998 0.31725 0.20428 0.0
H1243 H 0.48494 0.35966 0.20625 0.0
H1244 H 0.46775 0.35047 0.20157 0.0
H1245 H 0.47123 0.35603 0.22034 0.0
H1246 H 0.45612 0.3372 0.23575 0.0
H1247 H 0.42898 0.33613 0.23675 0.0
H1248 H 0.28001 0.17626 0.05261 0.0
H1249 H 0.28188 0.17615 0.0255 0.0
H1250 H 0.24418 0.14678 0.02308 0.0
H1251 H 0.24205 0.14701 0.0501 0.0
H1252 H 0.28592 0.1529 0.00551 0.0
H1253 H 0.23205 0.18112 -0.0039 0.0
H1254 H 0.24088 0.18046 0.01407 0.0
H1255 H 0.23043 0.16479 0.00746 0.0
C1256 C 0.27212 0.16976 0.04631 0.0
C1257 C 0.2608 0.16174 0.05351 0.0
C1258 C 0.27323 0.1697 0.03083 0.0
C1259 C 0.26302 0.16166 0.02229 0.0
C1260 C 0.25197 0.15332 0.02946 0.0
H1261 H 0.24582 0.14355 0.93049 0.0
H1262 H 0.24791 0.14343 0.95752 0.0
C1263 C 0.25082 0.15341 0.04491 0.0
C1264 C 0.26381 0.16201 0.00586 0.0
H1265 H 0.24341 0.17007 0.97498 0.0
C1266 C 0.27669 0.15676 -0.00119 0.0
C1267 C 0.2518 0.16719 -0.00283 0.0
C1268 C 0.23807 0.17385 0.00407 0.0
C1269 C 0.27763 0.15603 0.98326 0.0
C1270 C 0.26541 0.16075 0.97463 0.0
C1271 C 0.25269 0.1663 0.98167 0.0
C1272 C 0.26537 0.15988 0.95825 0.0
C1273 C 0.29147 0.14986 0.97616 0.0
C1274 C 0.27461 0.16909 0.94973 0.0
C1275 C 0.27342 0.16924 0.93425 0.0
C1276 C 0.26292 0.1602 0.92707 0.0
C1277 C 0.25398 0.15069 0.93566 0.0
C1278 C 0.25516 0.15058 0.9511 0.0
H1279 H 0.29881 0.14431 0.98437 0.0
H1280 H 0.28855 0.14178 0.96734 0.0
H1281 H 0.29778 0.15905 0.97089 0.0
H1282 H 0.28241 0.1765 0.95507 0.0
H1283 H 0.28047 0.17669 0.92796 0.0
H1284 H 0.27182 0.79373 0.05047 0.0
H1285 H 0.26829 0.79159 0.02369 0.0
H1286 H 0.27701 0.83837 0.01851 0.0
H1287 H 0.28039 0.84075 0.04534 0.0
H1288 H 0.24492 0.8114 0.00885 0.0
H1289 H 0.30201 0.81468 0.98544 0.0
H1290 H 0.29823 0.80782 0.00394 0.0
H1291 H 0.29766 0.82739 0.00023 0.0
C1292 C 0.2733 0.80353 0.04363 0.0
C1293 C 0.2762 0.81748 0.05004 0.0
C1294 C 0.27124 0.80226 0.02836 0.0
C1295 C 0.27232 0.81484 0.01927 0.0
C1296 C 0.27618 0.82856 0.02545 0.0
H1297 H 0.24966 0.84188 0.93107 0.0
H1298 H 0.25168 0.83979 0.95822 0.0
C1299 C 0.27811 0.82989 0.04075 0.0
C1300 C 0.26811 0.81399 0.00354 0.0
H1301 H 0.28203 0.81725 0.96854 0.0
C1302 C 0.253 0.81257 -1e-05 0.0
C1303 C 0.27875 0.8154 -0.00785 0.0
C1304 C 0.29511 0.81631 -0.00447 0.0
C1305 C 0.24822 0.81304 0.98519 0.0
C1306 C 0.25884 0.81502 0.97387 0.0
C1307 C 0.27396 0.81597 0.97739 0.0
C1308 C 0.25466 0.81596 0.95816 0.0
C1309 C 0.23194 0.81161 0.98166 0.0
C1310 C 0.25536 0.80319 0.9494 0.0
C1311 C 0.25444 0.80438 0.93402 0.0
C1312 C 0.25273 0.81834 0.92723 0.0
C1313 C 0.251 0.83102 0.93608 0.0
C1314 C 0.25211 0.82984 0.95152 0.0
H1315 H 0.22509 0.80991 -0.00823 0.0
H1316 H 0.22807 0.82179 0.97584 0.0
H1317 H 0.23019 0.80211 0.97403 0.0
H1318 H 0.25734 0.79242 0.95442 0.0
H1319 H 0.25553 0.79441 0.92741 0.0
H1320 H 0.66663 0.73292 0.54833 0.0
H1321 H 0.66703 0.73445 0.52132 0.0
H1322 H 0.65323 0.78028 0.52347 0.0
H1323 H 0.65346 0.77899 0.55066 0.0
H1324 H 0.64591 0.73992 0.5017 0.0
H1325 H 0.68881 0.78396 0.49705 0.0
H1326 H 0.68467 0.77477 0.51438 0.0
H1327 H 0.6728 0.78935 0.50757 0.0
C1328 C 0.66359 0.74331 0.54308 0.0
C1329 C 0.66004 0.75586 0.55161 0.0
C1330 C 0.66387 0.74419 0.52762 0.0
C1331 C 0.66046 0.75756 0.52035 0.0
C1332 C 0.65635 0.76997 0.52883 0.0
H1333 H 0.65958 0.77849 0.42547 0.0
H1334 H 0.6571 0.77959 0.45256 0.0
C1335 C 0.65633 0.76918 0.54435 0.0
C1336 C 0.66106 0.75828 0.5039 0.0
H1337 H 0.67769 0.77597 0.47469 0.0
C1338 C 0.65286 0.74782 0.49581 0.0
C1339 C 0.67011 0.7686 0.4962 0.0
C1340 C 0.67971 0.77972 0.50423 0.0
C1341 C 0.65346 0.74735 0.48027 0.0
C1342 C 0.66266 0.75753 0.47259 0.0
C1343 C 0.67064 0.76819 0.48062 0.0
C1344 C 0.66445 0.757 0.45625 0.0
C1345 C 0.64414 0.736 0.47225 0.0
C1346 C 0.6697 0.74405 0.44939 0.0
C1347 C 0.67092 0.74333 0.43398 0.0
C1348 C 0.66722 0.75566 0.42513 0.0
C1349 C 0.66247 0.7688 0.43202 0.0
C1350 C 0.66105 0.76945 0.44747 0.0
H1351 H 0.63462 0.73224 0.47915 0.0
H1352 H 0.6398 0.7405 0.46162 0.0
H1353 H 0.65106 0.72612 0.46977 0.0
H1354 H 0.67284 0.73447 0.45598 0.0
H1355 H 0.67486 0.73313 0.429 0.0
H1356 H 0.74326 0.15489 0.04978 0.0
H1357 H 0.74197 0.15339 0.0227 0.0
H1358 H 0.69713 0.17004 0.02375 0.0
H1359 H 0.69827 0.17162 0.05084 0.0
H1360 H 0.72019 0.13708 0.00487 0.0
H1361 H 0.71995 0.19801 -0.00551 0.0
H1362 H 0.7261 0.19001 0.01183 0.0
H1363 H 0.70663 0.19131 0.00779 0.0
C1364 C 0.73309 0.15821 0.04427 0.0
C1365 C 0.72085 0.16337 0.05248 0.0
C1366 C 0.73239 0.15733 0.0288 0.0
C1367 C 0.7195 0.1617 0.02126 0.0
C1368 C 0.70723 0.16676 0.02939 0.0
H1369 H 0.69883 0.17122 0.92759 0.0
H1370 H 0.69727 0.16957 0.95464 0.0
C1371 C 0.70789 0.16759 0.04487 0.0
C1372 C 0.71889 0.16095 0.00488 0.0
H1373 H 0.71674 0.18249 0.97376 0.0
C1374 C 0.71944 0.14698 -0.00197 0.0
C1375 C 0.71786 0.1739 -0.00395 0.0
C1376 C 0.71771 0.18919 0.00285 0.0
C1377 C 0.71883 0.14562 0.98252 0.0
C1378 C 0.71798 0.15861 0.97367 0.0
C1379 C 0.71734 0.17255 0.98056 0.0
C1380 C 0.71824 0.15814 0.95724 0.0
C1381 C 0.71887 0.13031 0.97577 0.0
C1382 C 0.7305 0.15216 0.94973 0.0
C1383 C 0.73141 0.15306 0.93427 0.0
C1384 C 0.72015 0.16011 0.92606 0.0
C1385 C 0.70774 0.16581 0.93359 0.0
C1386 C 0.70681 0.16485 0.94904 0.0
H1387 H 0.71511 0.12176 0.98386 0.0
H1388 H 0.71161 0.12984 0.96583 0.0
H1389 H 0.73034 0.12744 0.97232 0.0
H1390 H 0.7396 0.14722 0.95584 0.0
H1391 H 0.74112 0.14856 0.92881 0.0
H1392 H 0.3374 0.20861 0.5528 0.0
H1393 H 0.33881 0.20814 0.52561 0.0
H1394 H 0.30016 0.23644 0.52318 0.0
H1395 H 0.29952 0.2378 0.55027 0.0
H1396 H 0.31992 0.1973 0.50692 0.0
H1397 H 0.32528 0.25736 0.49413 0.0
H1398 H 0.32719 0.2502 0.51275 0.0
H1399 H 0.30906 0.25325 0.50487 0.0
C1400 C 0.32944 0.21494 0.54636 0.0
C1401 C 0.31848 0.22338 0.55343 0.0
C1402 C 0.33019 0.21464 0.5309 0.0
C1403 C 0.31976 0.22249 0.52232 0.0
C1404 C 0.30867 0.23077 0.52949 0.0
H1405 H 0.29847 0.21905 0.42876 0.0
H1406 H 0.29776 0.22105 0.45576 0.0
C1407 C 0.30823 0.23146 0.54494 0.0
C1408 C 0.31999 0.22124 0.50594 0.0
H1409 H 0.32016 0.24137 0.47375 0.0
C1410 C 0.32013 0.20696 0.4997 0.0
C1411 C 0.32008 0.23385 0.49649 0.0
C1412 C 0.32054 0.24951 0.50241 0.0
C1413 C 0.32041 0.20495 0.48429 0.0
C1414 C 0.32051 0.21752 0.47495 0.0
C1415 C 0.32014 0.23179 0.48108 0.0
C1416 C 0.32103 0.21606 0.4587 0.0
C1417 C 0.32045 0.18944 0.47804 0.0
C1418 C 0.33441 0.21262 0.45153 0.0
C1419 C 0.33492 0.21152 0.43607 0.0
C1420 C 0.32202 0.21381 0.42761 0.0
C1421 C 0.30863 0.21721 0.43493 0.0
C1422 C 0.30816 0.21837 0.45034 0.0
H1423 H 0.3188 0.18085 0.48676 0.0
H1424 H 0.31157 0.18829 0.46958 0.0
H1425 H 0.33122 0.18732 0.47244 0.0
H1426 H 0.34445 0.21088 0.45791 0.0
H1427 H 0.34538 0.20891 0.43077 0.0
H1428 H 0.74577 0.81803 0.04917 0.0
H1429 H 0.74395 0.81902 0.02211 0.0
H1430 H 0.69623 0.81824 0.02514 0.0
H1431 H 0.69788 0.81713 0.05232 0.0
H1432 H 0.72028 0.79461 0.00488 0.0
H1433 H 0.71708 0.85589 -0.00375 0.0
H1434 H 0.72775 0.84819 0.01139 0.0
H1435 H 0.70791 0.84716 0.01184 0.0
C1436 C 0.73487 0.81821 0.04412 0.0
C1437 C 0.72196 0.81747 0.05288 0.0
C1438 C 0.73387 0.81876 0.02868 0.0
C1439 C 0.71997 0.81874 0.02175 0.0
C1440 C 0.70704 0.81828 0.03039 0.0
H1441 H 0.69825 0.81862 0.92751 0.0
H1442 H 0.69685 0.82018 0.95463 0.0
C1443 C 0.70802 0.81762 0.04586 0.0
C1444 C 0.7191 0.81846 0.00543 0.0
H1445 H 0.71814 0.84087 0.97484 0.0
C1446 C 0.71971 0.80468 -0.00172 0.0
C1447 C 0.71836 0.83167 -0.003 0.0
C1448 C 0.71773 0.84664 0.0044 0.0
C1449 C 0.71983 0.80379 0.98275 0.0
C1450 C 0.71941 0.81701 0.9743 0.0
C1451 C 0.71849 0.83079 0.98145 0.0
C1452 C 0.72034 0.81667 0.95798 0.0
C1453 C 0.72051 0.78878 0.97541 0.0
C1454 C 0.73405 0.81435 0.95102 0.0
C1455 C 0.73493 0.81357 0.93558 0.0
C1456 C 0.72206 0.81497 0.92688 0.0
C1457 C 0.70834 0.81745 0.93392 0.0
C1458 C 0.70751 0.81837 0.94937 0.0
H1459 H 0.71891 0.77956 0.98347 0.0
H1460 H 0.7119 0.78797 0.96664 0.0
H1461 H 0.73149 0.78739 0.96999 0.0
H1462 H 0.74405 0.81303 0.95757 0.0
H1463 H 0.74564 0.81159 0.93048 0.0
H1464 H 0.68045 0.20423 0.55113 0.0
H1465 H 0.68148 0.20266 0.52406 0.0
H1466 H 0.64214 0.22978 0.5209 0.0
H1467 H 0.64126 0.23177 0.54794 0.0
H1468 H 0.66194 0.19177 0.50388 0.0
H1469 H 0.67062 0.25189 0.49416 0.0
H1470 H 0.67226 0.24354 0.51231 0.0
H1471 H 0.65429 0.24822 0.50494 0.0
C1472 C 0.67199 0.20985 0.54468 0.0
C1473 C 0.66082 0.21822 0.55167 0.0
C1474 C 0.67261 0.20894 0.52921 0.0
C1475 C 0.66206 0.21634 0.52047 0.0
C1476 C 0.65063 0.22432 0.52743 0.0
H1477 H 0.64064 0.22668 0.42841 0.0
H1478 H 0.64126 0.22524 0.45548 0.0
C1479 C 0.65008 0.22536 0.54288 0.0
C1480 C 0.66292 0.21567 0.50406 0.0
H1481 H 0.6641 0.23743 0.47302 0.0
C1482 C 0.66253 0.20173 0.49711 0.0
C1483 C 0.66389 0.22868 0.49528 0.0
C1484 C 0.66545 0.24391 0.50205 0.0
C1485 C 0.66242 0.20051 0.48157 0.0
C1486 C 0.6628 0.21357 0.47284 0.0
C1487 C 0.66361 0.22745 0.47978 0.0
C1488 C 0.66203 0.21322 0.45645 0.0
C1489 C 0.66148 0.18531 0.47464 0.0
C1490 C 0.67347 0.20683 0.44805 0.0
C1491 C 0.67312 0.20758 0.43255 0.0
C1492 C 0.66139 0.21488 0.42524 0.0
C1493 C 0.64985 0.22104 0.43371 0.0
C1494 C 0.65017 0.22022 0.44917 0.0
H1495 H 0.65817 0.17668 0.48282 0.0
H1496 H 0.65342 0.18529 0.46532 0.0
H1497 H 0.67252 0.18224 0.47011 0.0
H1498 H 0.68285 0.20162 0.45347 0.0
H1499 H 0.68222 0.20279 0.42634 0.0
H1500 H 0.30145 0.73459 0.43046 0.0
H1501 H 0.30332 0.73594 0.45747 0.0
H1502 H 0.32304 0.77944 0.45389 0.0
H1503 H 0.32087 0.77834 0.42683 0.0
H1504 H 0.3285 0.73905 0.4746 0.0
H1505 H 0.29 0.78638 0.48379 0.0
H1506 H 0.291 0.77664 0.46634 0.0
H1507 H 0.30495 0.79006 0.47113 0.0
C1508 C 0.30614 0.74448 0.43541 0.0
C1509 C 0.31098 0.75638 0.42652 0.0
C1510 C 0.3072 0.74522 0.45085 0.0
C1511 C 0.31314 0.75786 0.4577 0.0
C1512 C 0.31811 0.76972 0.44885 0.0
H1513 H 0.32256 0.7793 0.55172 0.0
H1514 H 0.32388 0.77975 0.52455 0.0
C1515 C 0.31693 0.76905 0.43339 0.0
C1516 C 0.31442 0.75836 0.47408 0.0
H1517 H 0.3025 0.77697 0.5048 0.0
C1518 C 0.32283 0.74734 0.48122 0.0
C1519 C 0.30713 0.76928 0.48266 0.0
C1520 C 0.29765 0.7812 0.47563 0.0
C1521 C 0.32413 0.7469 0.49673 0.0
C1522 C 0.3165 0.75758 0.50536 0.0
C1523 C 0.30833 0.76878 0.49819 0.0
C1524 C 0.31638 0.75707 0.52183 0.0
C1525 C 0.33384 0.7351 0.50364 0.0
C1526 C 0.31164 0.74423 0.52933 0.0
C1527 C 0.31114 0.74388 0.54482 0.0
C1528 C 0.31498 0.75649 0.55309 0.0
C1529 C 0.31951 0.76942 0.5456 0.0
C1530 C 0.32027 0.76968 0.5301 0.0
H1531 H 0.34257 0.73132 0.4958 0.0
H1532 H 0.33929 0.73917 0.5139 0.0
H1533 H 0.32692 0.72531 0.50652 0.0
H1534 H 0.30809 0.73454 0.52322 0.0
H1535 H 0.3074 0.73382 0.55029 0.0
H1536 H 0.18951 0.37626 0.25492 0.0
H1537 H 0.17133 0.36461 0.23861 0.0
H1538 H 0.14549 0.3515 0.27676 0.0
H1539 H 0.16372 0.36325 0.29309 0.0
H1540 H 0.15917 0.32804 0.26056 0.0
H1541 H 0.12797 0.36596 0.22318 0.0
H1542 H 0.1474 0.37007 0.22511 0.0
H1543 H 0.13533 0.37185 0.24087 0.0
C1544 C 0.17943 0.37178 0.25972 0.0
C1545 C 0.17789 0.37069 0.27518 0.0
C1546 C 0.16908 0.36504 0.25041 0.0
C1547 C 0.15714 0.35711 0.2565 0.0
C1548 C 0.15463 0.35762 0.27187 0.0
H1549 H 0.09823 0.30033 0.20695 0.0
H1550 H 0.10934 0.31839 0.22367 0.0
C1551 C 0.16494 0.36447 0.28118 0.0
C1552 C 0.14966 0.34569 0.24744 0.0
H1553 H 0.12898 0.34045 0.21626 0.0
C1554 C 0.15238 0.33073 0.25098 0.0
C1555 C 0.14104 0.34927 0.23488 0.0
C1556 C 0.13763 0.36516 0.2308 0.0
C1557 C 0.14679 0.31921 0.24219 0.0
C1558 C 0.13838 0.32278 0.22944 0.0
C1559 C 0.13552 0.33775 0.226 0.0
C1560 C 0.13191 0.31118 0.21981 0.0
C1561 C 0.14983 0.30335 0.24672 0.0
C1562 C 0.14093 0.30098 0.21219 0.0
C1563 C 0.13457 0.29047 0.2027 0.0
C1564 C 0.11914 0.29022 0.20052 0.0
C1565 C 0.11018 0.30033 0.2083 0.0
C1566 C 0.1165 0.31068 0.21786 0.0
H1567 H 0.15326 0.30251 0.25853 0.0
H1568 H 0.1399 0.29628 0.245 0.0
H1569 H 0.15899 0.29888 0.23981 0.0
H1570 H 0.15289 0.30135 0.21336 0.0
H1571 H 0.14173 0.28286 0.19676 0.0
H1572 H 0.1031 0.69015 0.7605 0.0
H1573 H 0.10879 0.67069 0.74235 0.0
H1574 H 0.12881 0.64424 0.77692 0.0
H1575 H 0.12341 0.66382 0.79497 0.0
H1576 H 0.14139 0.66551 0.74214 0.0
H1577 H 0.10851 0.61344 0.74657 0.0
H1578 H 0.10084 0.63155 0.75065 0.0
H1579 H 0.11304 0.62272 0.76368 0.0
C1580 C 0.10805 0.67985 0.76429 0.0
C1581 C 0.11275 0.67831 0.77904 0.0
C1582 C 0.11127 0.66876 0.75396 0.0
C1583 C 0.11905 0.65597 0.75835 0.0
C1584 C 0.12251 0.65387 0.77339 0.0
H1585 H 0.19424 0.61459 0.7238 0.0
H1586 H 0.17304 0.62174 0.73916 0.0
C1587 C 0.11949 0.66506 0.78367 0.0
C1588 C 0.12701 0.64708 0.74714 0.0
H1589 H 0.13181 0.61188 0.73389 0.0
C1590 C 0.1391 0.65386 0.74008 0.0
C1591 C 0.12403 0.6319 0.74462 0.0
C1592 C 0.11084 0.62441 0.75168 0.0
C1593 C 0.14872 0.64573 0.73107 0.0
C1594 C 0.14623 0.63036 0.72911 0.0
C1595 C 0.13372 0.62365 0.73556 0.0
C1596 C 0.15727 0.62132 0.72109 0.0
C1597 C 0.1619 0.65353 0.72421 0.0
C1598 C 0.15514 0.61781 0.70608 0.0
C1599 C 0.16723 0.61345 0.69733 0.0
C1600 C 0.1815 0.61282 0.70354 0.0
C1601 C 0.1833 0.615 0.71883 0.0
C1602 C 0.17122 0.61904 0.72759 0.0
H1603 H 0.16051 0.66579 0.72418 0.0
H1604 H 0.17201 0.65084 0.73071 0.0
H1605 H 0.16372 0.64976 0.71263 0.0
H1606 H 0.14445 0.61964 0.70088 0.0
H1607 H 0.16568 0.61196 0.6855 0.0
H1608 H 0.81731 0.62467 0.30005 0.0
H1609 H 0.83759 0.63081 0.28299 0.0
H1610 H 0.81492 0.60779 0.24778 0.0
H1611 H 0.7948 0.60129 0.26499 0.0
H1612 H 0.8494 0.60934 0.24633 0.0
H1613 H 0.81851 0.66248 0.25371 0.0
H1614 H 0.8253 0.65371 0.27032 0.0
H1615 H 0.81102 0.64487 0.25963 0.0
C1616 C 0.81709 0.62026 0.28887 0.0
C1617 C 0.80462 0.61251 0.28375 0.0
C1618 C 0.82865 0.62376 0.27915 0.0
C1619 C 0.82766 0.61987 0.26412 0.0
C1620 C 0.81594 0.61078 0.25938 0.0
H1621 H 0.84142 0.66785 0.18638 0.0
H1622 H 0.83651 0.64816 0.20441 0.0
C1623 C 0.80445 0.60708 0.26918 0.0
C1624 C 0.83638 0.62824 0.25299 0.0
H1625 H 0.83799 0.66241 0.23664 0.0
C1626 C 0.84708 0.62098 0.24429 0.0
C1627 C 0.83316 0.64339 0.25029 0.0
C1628 C 0.82131 0.65161 0.25887 0.0
C1629 C 0.85452 0.62855 0.23277 0.0
C1630 C 0.85104 0.64358 0.22998 0.0
C1631 C 0.84065 0.65087 0.23894 0.0
C1632 C 0.85661 0.65183 0.21695 0.0
C1633 C 0.86566 0.62047 0.22331 0.0
C1634 C 0.86987 0.65997 0.21773 0.0
C1635 C 0.8728 0.67118 0.20728 0.0
C1636 C 0.8623 0.6745 0.19623 0.0
C1637 C 0.84964 0.66554 0.19485 0.0
C1638 C 0.84687 0.65424 0.20507 0.0
H1639 H 0.8676 0.60893 0.22724 0.0
H1640 H 0.86167 0.62013 0.21166 0.0
H1641 H 0.87637 0.62658 0.22333 0.0
H1642 H 0.87738 0.65841 0.22698 0.0
H1643 H 0.88258 0.67804 0.20861 0.0
H1644 H 0.88057 0.30756 0.78063 0.0
H1645 H 0.87634 0.32874 0.76381 0.0
H1646 H 0.8297 0.31814 0.7624 0.0
H1647 H 0.83369 0.29733 0.77904 0.0
H1648 H 0.86436 0.3265 0.73481 0.0
H1649 H 0.82932 0.36295 0.76914 0.0
H1650 H 0.84136 0.34898 0.77713 0.0
H1651 H 0.82313 0.34409 0.77053 0.0
C1652 C 0.86939 0.30993 0.7769 0.0
C1653 C 0.85747 0.30075 0.78117 0.0
C1654 C 0.86701 0.32201 0.76732 0.0
C1655 C 0.85267 0.32517 0.76212 0.0
C1656 C 0.84079 0.31617 0.76661 0.0
H1657 H 0.80168 0.33518 0.6937 0.0
H1658 H 0.82323 0.33128 0.70938 0.0
C1659 C 0.84314 0.30416 0.77605 0.0
C1660 C 0.84987 0.33678 0.75082 0.0
H1661 H 0.82333 0.36238 0.74253 0.0
C1662 C 0.85578 0.33477 0.73655 0.0
C1663 C 0.83898 0.34783 0.75314 0.0
C1664 C 0.83297 0.35119 0.76838 0.0
C1665 C 0.84959 0.34209 0.72425 0.0
C1666 C 0.83716 0.35144 0.72637 0.0
C1667 C 0.83271 0.35503 0.74084 0.0
C1668 C 0.82655 0.35459 0.71422 0.0
C1669 C 0.85567 0.33887 0.70901 0.0
C1670 C 0.82125 0.36903 0.71159 0.0
C1671 C 0.80877 0.3713 0.70258 0.0
C1672 C 0.80127 0.35911 0.6964 0.0
C1673 C 0.80711 0.34478 0.69845 0.0
C1674 C 0.81961 0.34256 0.70724 0.0
H1675 H 0.86784 0.33695 0.70948 0.0
H1676 H 0.85045 0.3286 0.70468 0.0
H1677 H 0.85335 0.34811 0.70116 0.0
H1678 H 0.82634 0.37845 0.71704 0.0
H1679 H 0.80453 0.38247 0.70113 0.0
H1680 H 0.2604 0.18659 0.37582 0.0
H1681 H 0.24402 0.16657 0.36788 0.0
H1682 H 0.28208 0.14085 0.35435 0.0
H1683 H 0.29845 0.16111 0.36207 0.0
H1684 H 0.26502 0.14941 0.33149 0.0
H1685 H 0.22856 0.12467 0.37421 0.0
H1686 H 0.22955 0.14448 0.37596 0.0
H1687 H 0.24602 0.13347 0.37871 0.0
C1688 C 0.26526 0.17629 0.37196 0.0
C1689 C 0.2806 0.17525 0.3696 0.0
C1690 C 0.2559 0.1648 0.36747 0.0
C1691 C 0.26181 0.15216 0.36053 0.0
C1692 C 0.2773 0.15045 0.35977 0.0
H1693 H 0.20181 0.10089 0.30206 0.0
H1694 H 0.21984 0.10565 0.32199 0.0
C1695 C 0.28665 0.16198 0.36422 0.0
C1696 C 0.25211 0.14325 0.35072 0.0
H1697 H 0.2183 0.12617 0.34914 0.0
C1698 C 0.25504 0.14391 0.33543 0.0
C1699 C 0.23903 0.13618 0.35579 0.0
C1700 C 0.23568 0.13452 0.37209 0.0
C1701 C 0.24481 0.13864 0.32505 0.0
C1702 C 0.23123 0.13262 0.33007 0.0
C1703 C 0.22869 0.13095 0.34536 0.0
C1704 C 0.21913 0.12953 0.3195 0.0
C1705 C 0.24829 0.14029 0.30873 0.0
C1706 C 0.21253 0.14141 0.3119 0.0
C1707 C 0.20241 0.13876 0.30055 0.0
C1708 C 0.19858 0.12416 0.29664 0.0
C1709 C 0.20458 0.11226 0.30482 0.0
C1710 C 0.21484 0.11494 0.31619 0.0
H1711 H 0.26042 0.14135 0.30675 0.0
H1712 H 0.24403 0.13068 0.30233 0.0
H1713 H 0.24285 0.1505 0.30443 0.0
H1714 H 0.21559 0.15276 0.31445 0.0
H1715 H 0.19784 0.14819 0.29462 0.0
H1716 H 0.28859 0.75874 0.87601 0.0
H1717 H 0.30854 0.74187 0.86865 0.0
H1718 H 0.33659 0.77938 0.85874 0.0
H1719 H 0.31668 0.7963 0.86643 0.0
H1720 H 0.32218 0.75988 0.83413 0.0
H1721 H 0.35541 0.72935 0.87639 0.0
H1722 H 0.33617 0.7331 0.88052 0.0
H1723 H 0.34904 0.74821 0.87914 0.0
C1724 C 0.29934 0.76332 0.87314 0.0
C1725 C 0.30124 0.77871 0.87181 0.0
C1726 C 0.31074 0.7537 0.86897 0.0
C1727 C 0.32403 0.75941 0.86321 0.0
C1728 C 0.32649 0.7748 0.86338 0.0
H1729 H 0.37758 0.70588 0.80105 0.0
H1730 H 0.3719 0.72363 0.82101 0.0
C1731 C 0.31513 0.78443 0.86775 0.0
C1732 C 0.33278 0.74997 0.85313 0.0
H1733 H 0.35529 0.7195 0.8518 0.0
C1734 C 0.32972 0.75128 0.83795 0.0
C1735 C 0.34243 0.73872 0.85823 0.0
C1736 C 0.34609 0.73721 0.87446 0.0
C1737 C 0.33546 0.74114 0.82773 0.0
C1738 C 0.34453 0.72941 0.83286 0.0
C1739 C 0.34829 0.72853 0.84796 0.0
C1740 C 0.34882 0.71729 0.82274 0.0
C1741 C 0.33119 0.74266 0.8116 0.0
C1742 C 0.33781 0.70767 0.81751 0.0
C1743 C 0.34094 0.69775 0.80611 0.0
C1744 C 0.3552 0.69714 0.79983 0.0
C1745 C 0.36651 0.70611 0.80573 0.0
C1746 C 0.3633 0.71622 0.8171 0.0
H1747 H 0.32712 0.75401 0.80895 0.0
H1748 H 0.34073 0.74005 0.80425 0.0
H1749 H 0.32213 0.73469 0.80909 0.0
H1750 H 0.32659 0.7083 0.82182 0.0
H1751 H 0.33204 0.69085 0.80191 0.0
H1752 H 0.68701 0.80648 0.33523 0.0
H1753 H 0.70349 0.82764 0.33104 0.0
H1754 H 0.72069 0.82301 0.37544 0.0
H1755 H 0.70397 0.80186 0.37982 0.0
H1756 H 0.71064 0.85642 0.35006 0.0
H1757 H 0.75495 0.8138 0.34253 0.0
H1758 H 0.73556 0.80922 0.34062 0.0
H1759 H 0.74314 0.81275 0.35865 0.0
C1760 C 0.69403 0.8102 0.34423 0.0
C1761 C 0.6943 0.80249 0.35782 0.0
C1762 C 0.70338 0.82232 0.34184 0.0
C1763 C 0.71328 0.82683 0.35292 0.0
C1764 C 0.71302 0.81971 0.36681 0.0
H1765 H 0.79382 0.86723 0.32069 0.0
H1766 H 0.77624 0.86123 0.34062 0.0
C1767 C 0.70348 0.80767 0.36929 0.0
C1768 C 0.72516 0.83748 0.34906 0.0
H1769 H 0.7606 0.83815 0.33597 0.0
C1770 C 0.7217 0.85256 0.34727 0.0
C1771 C 0.73952 0.83236 0.34543 0.0
C1772 C 0.74363 0.81616 0.34681 0.0
C1773 C 0.73215 0.86262 0.34146 0.0
C1774 C 0.74628 0.85733 0.33699 0.0
C1775 C 0.74989 0.84234 0.33952 0.0
C1776 C 0.75664 0.86616 0.32759 0.0
C1777 C 0.7278 0.87872 0.33991 0.0
C1778 C 0.75156 0.872 0.31403 0.0
C1779 C 0.76161 0.87578 0.30286 0.0
C1780 C 0.77687 0.8736 0.30496 0.0
C1781 C 0.7821 0.86926 0.31896 0.0
C1782 C 0.77203 0.86572 0.33028 0.0
H1783 H 0.72027 0.88208 0.34907 0.0
H1784 H 0.73763 0.88615 0.33988 0.0
H1785 H 0.72164 0.88028 0.32936 0.0
H1786 H 0.73984 0.87212 0.31141 0.0
H1787 H 0.75736 0.8788 0.29201 0.0
H1788 H 0.6772 0.2048 0.88259 0.0
H1789 H 0.65646 0.2222 0.87879 0.0
H1790 H 0.6515 0.20646 0.83392 0.0
H1791 H 0.67208 0.18933 0.83755 0.0
H1792 H 0.65835 0.24431 0.85622 0.0
H1793 H 0.60823 0.20998 0.84834 0.0
H1794 H 0.6244 0.20338 0.85825 0.0
H1795 H 0.62389 0.2029 0.83828 0.0
C1796 C 0.6714 0.20481 0.87207 0.0
C1797 C 0.67631 0.19578 0.86034 0.0
C1798 C 0.65958 0.21473 0.86991 0.0
C1799 C 0.6523 0.21547 0.85615 0.0
C1800 C 0.65672 0.20587 0.84474 0.0
H1801 H 0.6165 0.26176 0.78928 0.0
H1802 H 0.6216 0.24422 0.8093 0.0
C1803 C 0.6686 0.19617 0.84679 0.0
C1804 C 0.64173 0.22759 0.85263 0.0
H1805 H 0.60872 0.23359 0.83508 0.0
C1806 C 0.64727 0.24213 0.85206 0.0
C1807 C 0.6273 0.22468 0.84723 0.0
C1808 C 0.62054 0.20939 0.84819 0.0
C1809 C 0.63947 0.2535 0.84475 0.0
C1810 C 0.62554 0.25028 0.8382 0.0
C1811 C 0.61938 0.23606 0.84008 0.0
C1812 C 0.61895 0.26033 0.8269 0.0
C1813 C 0.6469 0.26841 0.84282 0.0
C1814 C 0.61495 0.27508 0.83015 0.0
C1815 C 0.61199 0.28517 0.81861 0.0
C1816 C 0.61293 0.28051 0.80379 0.0
C1817 C 0.61571 0.26553 0.80066 0.0
C1818 C 0.61859 0.25552 0.81211 0.0
H1819 H 0.65852 0.2684 0.84692 0.0
H1820 H 0.64697 0.27174 0.83095 0.0
H1821 H 0.64063 0.27693 0.84911 0.0
H1822 H 0.61493 0.27898 0.84151 0.0
H1823 H 0.60995 0.29672 0.8212 0.0
H1824 H 0.2942 0.81254 0.63852 0.0
H1825 H 0.2754 0.83146 0.64299 0.0
H1826 H 0.2545 0.82084 0.60131 0.0
H1827 H 0.27344 0.80168 0.59678 0.0
H1828 H 0.26347 0.85662 0.62809 0.0
H1829 H 0.22337 0.80969 0.63322 0.0
H1830 H 0.24313 0.80669 0.63236 0.0
H1831 H 0.23307 0.81165 0.61588 0.0
C1832 C 0.28582 0.81449 0.63011 0.0
C1833 C 0.28516 0.80556 0.61738 0.0
C1834 C 0.27511 0.82534 0.63266 0.0
C1835 C 0.26342 0.82739 0.62261 0.0
C1836 C 0.26336 0.81931 0.60928 0.0
H1837 H 0.18216 0.86558 0.6608 0.0
H1838 H 0.19945 0.86033 0.64025 0.0
C1839 C 0.27423 0.80847 0.60664 0.0
C1840 C 0.25055 0.83651 0.62729 0.0
H1841 H 0.21579 0.83279 0.64193 0.0
C1842 C 0.25288 0.85153 0.63076 0.0
C1843 C 0.23678 0.82982 0.63087 0.0
C1844 C 0.23386 0.81357 0.62801 0.0
C1845 C 0.24215 0.85976 0.6385 0.0
C1846 C 0.22881 0.85277 0.64289 0.0
C1847 C 0.22601 0.83813 0.63843 0.0
C1848 C 0.21891 0.85926 0.65428 0.0
C1849 C 0.24541 0.87564 0.64259 0.0
C1850 C 0.22419 0.86063 0.66886 0.0
C1851 C 0.21438 0.86344 0.68049 0.0
C1852 C 0.19917 0.86508 0.67772 0.0
C1853 C 0.19393 0.86458 0.66308 0.0
C1854 C 0.20375 0.86157 0.6514 0.0
H1855 H 0.2538 0.88063 0.63502 0.0
H1856 H 0.23516 0.88248 0.64227 0.0
H1857 H 0.24991 0.87599 0.65404 0.0
H1858 H 0.23575 0.8585 0.67139 0.0
H1859 H 0.21856 0.86353 0.69177 0.0
H1860 H 0.68278 0.7819 0.14487 0.0
H1861 H 0.66085 0.76715 0.14974 0.0
H1862 H 0.64996 0.76752 0.10313 0.0
H1863 H 0.67238 0.78241 0.09802 0.0
H1864 H 0.63033 0.77233 0.14376 0.0
H1865 H 0.65276 0.72276 0.11422 0.0
H1866 H 0.66467 0.73817 0.11881 0.0
H1867 H 0.65099 0.74018 0.10449 0.0
C1868 C 0.67577 0.77894 0.13557 0.0
C1869 C 0.67948 0.78316 0.121 0.0
C1870 C 0.66313 0.77057 0.13842 0.0
C1871 C 0.65382 0.76615 0.12681 0.0
C1872 C 0.6571 0.77072 0.11224 0.0
H1873 H 0.5998 0.69403 0.16675 0.0
H1874 H 0.60358 0.71264 0.14687 0.0
C1875 C 0.66986 0.77923 0.10935 0.0
C1876 C 0.64145 0.75591 0.13043 0.0
H1877 H 0.6352 0.71861 0.13294 0.0
C1878 C 0.63093 0.76065 0.14091 0.0
C1879 C 0.6422 0.74067 0.12669 0.0
C1880 C 0.65324 0.73502 0.11546 0.0
C1881 C 0.6225 0.75038 0.14905 0.0
C1882 C 0.6246 0.73505 0.14656 0.0
C1883 C 0.63363 0.7304 0.13477 0.0
C1884 C 0.62117 0.72418 0.15839 0.0
C1885 C 0.61264 0.75589 0.16139 0.0
C1886 C 0.62986 0.72454 0.17124 0.0
C1887 C 0.62788 0.71401 0.18235 0.0
C1888 C 0.61711 0.70281 0.18093 0.0
C1889 C 0.60815 0.70255 0.16814 0.0
C1890 C 0.61029 0.71313 0.15682 0.0
H1891 H 0.6087 0.76737 0.15916 0.0
H1892 H 0.6029 0.74848 0.16294 0.0
H1893 H 0.61905 0.75602 0.1719 0.0
H1894 H 0.63844 0.73287 0.17256 0.0
H1895 H 0.63493 0.71464 0.19205 0.0
H1896 H 0.77139 0.09798 0.6816 0.0
H1897 H 0.75332 0.10104 0.66134 0.0
H1898 H 0.77101 0.14459 0.65208 0.0
H1899 H 0.78874 0.14173 0.67229 0.0
H1900 H 0.73256 0.12517 0.66257 0.0
H1901 H 0.76448 0.12684 0.61028 0.0
H1902 H 0.77114 0.11751 0.6268 0.0
H1903 H 0.77333 0.13728 0.62472 0.0
C1904 C 0.77163 0.10802 0.67495 0.0
C1905 C 0.78136 0.11967 0.67854 0.0
C1906 C 0.76134 0.10974 0.66341 0.0
C1907 C 0.76098 0.12295 0.65508 0.0
C1908 C 0.77129 0.13419 0.65815 0.0
H1909 H 0.71854 0.19163 0.62187 0.0
H1910 H 0.73434 0.17033 0.62743 0.0
C1911 C 0.78133 0.1326 0.6698 0.0
C1912 C 0.74856 0.12632 0.64488 0.0
H1913 H 0.74235 0.14258 0.61123 0.0
C1914 C 0.73445 0.12841 0.65112 0.0
C1915 C 0.7511 0.13052 0.62997 0.0
C1916 C 0.76582 0.12778 0.6225 0.0
C1917 C 0.72336 0.13619 0.64343 0.0
C1918 C 0.72645 0.14177 0.62906 0.0
C1919 C 0.74002 0.13829 0.62224 0.0
C1920 C 0.71744 0.15395 0.62271 0.0
C1921 C 0.70903 0.13983 0.65132 0.0
C1922 C 0.70284 0.15175 0.61769 0.0
C1923 C 0.6938 0.16401 0.61432 0.0
C1924 C 0.69931 0.17847 0.61612 0.0
C1925 C 0.71412 0.18054 0.62036 0.0
C1926 C 0.72314 0.1684 0.6235 0.0
H1927 H 0.70854 0.13496 0.66265 0.0
H1928 H 0.70775 0.15206 0.65221 0.0
H1929 H 0.69951 0.13555 0.64482 0.0
H1930 H 0.69826 0.14065 0.61704 0.0
H1931 H 0.68233 0.16223 0.61121 0.0
H1932 H 0.30931 0.19511 0.09887 0.0
H1933 H 0.33085 0.2116 0.10243 0.0
H1934 H 0.31548 0.22182 0.14656 0.0
H1935 H 0.29436 0.20555 0.14327 0.0
H1936 H 0.33095 0.24296 0.11031 0.0
H1937 H 0.3588 0.20875 0.15295 0.0
H1938 H 0.34513 0.20121 0.14038 0.0
H1939 H 0.33941 0.21091 0.15688 0.0
C1940 C 0.31062 0.20083 0.10934 0.0
C1941 C 0.30022 0.19885 0.12084 0.0
C1942 C 0.3229 0.21022 0.11135 0.0
C1943 C 0.32491 0.21762 0.12489 0.0
C1944 C 0.31436 0.21588 0.13618 0.0
H1945 H 0.34295 0.29079 0.16714 0.0
H1946 H 0.33834 0.27406 0.14668 0.0
C1947 C 0.30223 0.20658 0.13423 0.0
C1948 C 0.33761 0.22769 0.12751 0.0
H1949 H 0.36251 0.23547 0.15478 0.0
C1950 C 0.33826 0.24117 0.1197 0.0
C1951 C 0.34738 0.22525 0.13954 0.0
C1952 C 0.34776 0.21066 0.14781 0.0
C1953 C 0.34718 0.25291 0.12476 0.0
C1954 C 0.35541 0.2511 0.13803 0.0
C1955 C 0.35614 0.237 0.14468 0.0
C1956 C 0.36018 0.26398 0.14712 0.0
C1957 C 0.34692 0.26742 0.11639 0.0
C1958 C 0.37417 0.26426 0.15408 0.0
C1959 C 0.3768 0.2739 0.16602 0.0
C1960 C 0.36537 0.28313 0.17118 0.0
C1961 C 0.35193 0.28373 0.16336 0.0
C1962 C 0.34935 0.27426 0.15149 0.0
H1963 H 0.34616 0.26542 0.10425 0.0
H1964 H 0.33692 0.27383 0.11967 0.0
H1965 H 0.35694 0.27421 0.11869 0.0
H1966 H 0.38264 0.25632 0.15099 0.0
H1967 H 0.38723 0.27319 0.17196 0.0
H1968 H 0.80991 0.63566 0.6811 0.0
H1969 H 0.83078 0.64113 0.6975 0.0
H1970 H 0.81452 0.6088 0.72901 0.0
H1971 H 0.79403 0.60275 0.71212 0.0
H1972 H 0.82464 0.65332 0.72326 0.0
H1973 H 0.8587 0.60309 0.73389 0.0
H1974 H 0.8461 0.6045 0.71835 0.0
H1975 H 0.83916 0.60028 0.73661 0.0
C1976 C 0.81114 0.62936 0.69129 0.0
C1977 C 0.80046 0.61882 0.69542 0.0
C1978 C 0.82304 0.63247 0.70065 0.0
C1979 C 0.82428 0.62537 0.7145 0.0
C1980 C 0.81404 0.61418 0.71826 0.0
H1981 H 0.85495 0.66249 0.79507 0.0
H1982 H 0.84724 0.64381 0.77702 0.0
C1983 C 0.80229 0.61079 0.70867 0.0
C1984 C 0.83447 0.63165 0.72581 0.0
H1985 H 0.86209 0.62355 0.75061 0.0
C1986 C 0.83298 0.64682 0.72903 0.0
C1987 C 0.84518 0.62312 0.73356 0.0
C1988 C 0.8475 0.60687 0.73035 0.0
C1989 C 0.84177 0.65368 0.73979 0.0
C1990 C 0.85247 0.64521 0.74754 0.0
C1991 C 0.854 0.63002 0.74447 0.0
C1992 C 0.86129 0.65219 0.75945 0.0
C1993 C 0.8393 0.66995 0.74306 0.0
C1994 C 0.87249 0.66242 0.7558 0.0
C1995 C 0.87699 0.67306 0.76617 0.0
C1996 C 0.87032 0.67349 0.78023 0.0
C1997 C 0.86045 0.66215 0.78438 0.0
C1998 C 0.856 0.6515 0.77406 0.0
H1999 H 0.82949 0.67451 0.73714 0.0
H2000 H 0.83772 0.67165 0.75516 0.0
H2001 H 0.84922 0.67639 0.7396 0.0
H2002 H 0.87656 0.66319 0.74451 0.0
H2003 H 0.88435 0.6819 0.76263 0.0
H2004 H 0.83042 0.30404 0.1892 0.0
H2005 H 0.82634 0.32359 0.20739 0.0
H2006 H 0.87206 0.32057 0.22114 0.0
H2007 H 0.87634 0.30096 0.20271 0.0
H2008 H 0.83347 0.31444 0.23862 0.0
H2009 H 0.85981 0.36727 0.2199 0.0
H2010 H 0.85324 0.35367 0.20674 0.0
H2011 H 0.86944 0.34984 0.2176 0.0
C2012 C 0.83973 0.30777 0.19582 0.0
C2013 C 0.85365 0.30086 0.19467 0.0
C2014 C 0.83739 0.31899 0.20615 0.0
C2015 C 0.84891 0.32349 0.21555 0.0
C2016 C 0.8631 0.31734 0.21383 0.0
H2017 H 0.81687 0.35722 0.29935 0.0
H2018 H 0.83645 0.34962 0.28209 0.0
C2019 C 0.86551 0.30613 0.20334 0.0
C2020 C 0.84517 0.33267 0.22855 0.0
H2021 H 0.84538 0.36813 0.24185 0.0
C2022 C 0.83629 0.32612 0.23951 0.0
C2023 C 0.84886 0.34786 0.22952 0.0
C2024 C 0.85835 0.35521 0.21784 0.0
C2025 C 0.83032 0.33452 0.25109 0.0
C2026 C 0.83368 0.34986 0.25194 0.0
C2027 C 0.84303 0.35634 0.24126 0.0
C2028 C 0.82589 0.35934 0.26282 0.0
C2029 C 0.81971 0.32704 0.26176 0.0
C2030 C 0.81428 0.36848 0.25786 0.0
C2031 C 0.80327 0.37308 0.26777 0.0
C2032 C 0.80383 0.36853 0.28266 0.0
C2033 C 0.81637 0.36097 0.28793 0.0
C2034 C 0.8275 0.35659 0.27807 0.0
H2035 H 0.81638 0.31581 0.25796 0.0
H2036 H 0.82513 0.32583 0.27276 0.0
H2037 H 0.80953 0.33383 0.26323 0.0
H2038 H 0.81283 0.37067 0.24612 0.0
H2039 H 0.79354 0.37871 0.26348 0.0
H2040 H 0.10161 0.29324 0.76485 0.0
H2041 H 0.10744 0.31247 0.74623 0.0
H2042 H 0.14159 0.32972 0.77491 0.0
H2043 H 0.13621 0.31028 0.79314 0.0
H2044 H 0.11225 0.34636 0.74632 0.0
H2045 H 0.1625 0.31187 0.73717 0.0
H2046 H 0.14636 0.30497 0.74686 0.0
H2047 H 0.15946 0.31671 0.75625 0.0
C2048 C 0.11004 0.30145 0.7673 0.0
C2049 C 0.11858 0.30031 0.7803 0.0
C2050 C 0.11334 0.3124 0.75671 0.0
C2051 C 0.12502 0.32239 0.75919 0.0
C2052 C 0.1326 0.32203 0.77278 0.0
H2053 H 0.18618 0.37902 0.722 0.0
H2054 H 0.16496 0.37037 0.73653 0.0
C2055 C 0.12955 0.31095 0.78316 0.0
C2056 C 0.13105 0.33158 0.74698 0.0
H2057 H 0.16283 0.33624 0.727 0.0
C2058 C 0.12321 0.3441 0.7419 0.0
C2059 C 0.14523 0.32838 0.74106 0.0
C2060 C 0.15384 0.31468 0.74549 0.0
C2061 C 0.12972 0.35404 0.73168 0.0
C2062 C 0.1443 0.35131 0.72666 0.0
C2063 C 0.1517 0.33836 0.73109 0.0
C2064 C 0.15288 0.36196 0.71762 0.0
C2065 C 0.12134 0.36762 0.72667 0.0
C2066 C 0.1526 0.36096 0.70208 0.0
C2067 C 0.16466 0.36615 0.69373 0.0
C2068 C 0.17711 0.37211 0.70092 0.0
C2069 C 0.17659 0.37462 0.71625 0.0
C2070 C 0.16447 0.36969 0.72454 0.0
H2071 H 0.10987 0.36791 0.73118 0.0
H2072 H 0.12735 0.37774 0.73028 0.0
H2073 H 0.12083 0.36788 0.71435 0.0
H2074 H 0.14388 0.35479 0.6966 0.0
H2075 H 0.16499 0.36388 0.68193 0.0
H2076 H 0.17454 0.59647 0.27939 0.0
H2077 H 0.15455 0.59985 0.26106 0.0
H2078 H 0.15487 0.64698 0.2693 0.0
H2079 H 0.1746 0.64378 0.28741 0.0
H2080 H 0.12481 0.63185 0.2652 0.0
H2081 H 0.16716 0.62243 0.22097 0.0
H2082 H 0.16535 0.60964 0.23631 0.0
H2083 H 0.17292 0.62779 0.23935 0.0
C2084 C 0.17008 0.60749 0.27751 0.0
C2085 C 0.17627 0.61988 0.28469 0.0
C2086 C 0.15871 0.60939 0.26705 0.0
C2087 C 0.15333 0.62367 0.26382 0.0
C2088 C 0.15883 0.63586 0.2717 0.0
H2089 H 0.13483 0.69087 0.21505 0.0
H2090 H 0.13939 0.66948 0.23092 0.0
C2091 C 0.17019 0.63401 0.28199 0.0
C2092 C 0.14339 0.62662 0.25112 0.0
H2093 H 0.1464 0.63695 0.21482 0.0
C2094 C 0.12919 0.63236 0.254 0.0
C2095 C 0.1492 0.62732 0.23655 0.0
C2096 C 0.16449 0.62148 0.23298 0.0
C2097 C 0.12136 0.64019 0.24302 0.0
C2098 C 0.12797 0.64234 0.22898 0.0
C2099 C 0.14135 0.63515 0.22561 0.0
C2100 C 0.12379 0.65517 0.21967 0.0
C2101 C 0.10685 0.64753 0.24691 0.0
C2102 C 0.11329 0.65421 0.20823 0.0
C2103 C 0.11052 0.66659 0.19911 0.0
C2104 C 0.11844 0.67988 0.20127 0.0
C2105 C 0.12868 0.68075 0.21298 0.0
C2106 C 0.13127 0.66856 0.22209 0.0
H2107 H 0.10185 0.64266 0.25709 0.0
H2108 H 0.10878 0.65955 0.24882 0.0
H2109 H 0.09887 0.64648 0.23759 0.0
H2110 H 0.10746 0.64389 0.20623 0.0
H2111 H 0.10259 0.66564 0.19014 0.0
H2112 H 0.79648 0.8636 0.66455 0.0
H2113 H 0.78136 0.85627 0.64306 0.0
H2114 H 0.74165 0.86112 0.66935 0.0
H2115 H 0.75675 0.86803 0.69086 0.0
H2116 H 0.76175 0.82957 0.65002 0.0
H2117 H 0.73139 0.87751 0.62553 0.0
H2118 H 0.74931 0.87946 0.63438 0.0
H2119 H 0.73299 0.87671 0.64545 0.0
C2120 C 0.7845 0.86363 0.6655 0.0
C2121 C 0.77768 0.86639 0.67921 0.0
C2122 C 0.77589 0.85948 0.65327 0.0
C2123 C 0.7604 0.85836 0.6546 0.0
C2124 C 0.75356 0.86221 0.66804 0.0
H2125 H 0.68651 0.81231 0.6201 0.0
H2126 H 0.70318 0.83205 0.62848 0.0
C2127 C 0.76216 0.86607 0.6803 0.0
C2128 C 0.75173 0.8502 0.64337 0.0
H2129 H 0.72303 0.85334 0.61885 0.0
C2130 C 0.7535 0.83477 0.64293 0.0
C2131 C 0.74075 0.85705 0.63454 0.0
C2132 C 0.73846 0.87362 0.63486 0.0
C2133 C 0.74416 0.82585 0.63433 0.0
C2134 C 0.73317 0.83264 0.62533 0.0
C2135 C 0.73162 0.84818 0.62553 0.0
C2136 C 0.72241 0.82353 0.61686 0.0
C2137 C 0.74558 0.80918 0.63578 0.0
C2138 C 0.72742 0.81282 0.60672 0.0
C2139 C 0.71796 0.80143 0.60214 0.0
C2140 C 0.70326 0.80096 0.6072 0.0
C2141 C 0.69777 0.81265 0.61587 0.0
C2142 C 0.70731 0.82388 0.6207 0.0
H2143 H 0.7519 0.80591 0.64586 0.0
H2144 H 0.73449 0.80382 0.63631 0.0
H2145 H 0.75159 0.80476 0.626 0.0
H2146 H 0.73897 0.81253 0.60338 0.0
H2147 H 0.72244 0.79238 0.59562 0.0
H2148 H 0.59991 0.28613 0.17196 0.0
H2149 H 0.60484 0.27265 0.14865 0.0
H2150 H 0.64564 0.25578 0.16708 0.0
H2151 H 0.64095 0.26893 0.19006 0.0
H2152 H 0.64365 0.27213 0.13441 0.0
H2153 H 0.6091 0.22248 0.14705 0.0
H2154 H 0.60316 0.24114 0.15154 0.0
H2155 H 0.61722 0.23222 0.16249 0.0
C2156 C 0.60989 0.27949 0.17101 0.0
C2157 C 0.62003 0.27863 0.18287 0.0
C2158 C 0.61269 0.27187 0.15771 0.0
C2159 C 0.62563 0.26334 0.15621 0.0
C2160 C 0.63564 0.26241 0.16804 0.0
H2161 H 0.68667 0.21048 0.13952 0.0
H2162 H 0.66668 0.22805 0.14297 0.0
C2163 C 0.6329 0.26994 0.18119 0.0
C2164 C 0.62916 0.25497 0.1426 0.0
H2165 H 0.63075 0.21868 0.13218 0.0
C2166 C 0.6403 0.26062 0.1333 0.0
C2167 C 0.6248 0.23998 0.14126 0.0
C2168 C 0.61284 0.23352 0.15104 0.0
C2169 C 0.64848 0.25116 0.12403 0.0
C2170 C 0.64541 0.23579 0.12421 0.0
C2171 C 0.63299 0.23052 0.13199 0.0
C2172 C 0.65739 0.2251 0.12107 0.0
C2173 C 0.66161 0.25726 0.11563 0.0
C2174 C 0.65874 0.21756 0.10752 0.0
C2175 C 0.67035 0.20732 0.10543 0.0
C2176 C 0.68062 0.20459 0.11691 0.0
C2177 C 0.67906 0.21227 0.13039 0.0
C2178 C 0.66761 0.22236 0.13242 0.0
H2179 H 0.66059 0.26943 0.1138 0.0
H2180 H 0.67188 0.25515 0.12212 0.0
H2181 H 0.6628 0.25163 0.10475 0.0
H2182 H 0.65088 0.21958 0.09866 0.0
H2183 H 0.67128 0.20159 0.09493 0.0
H2184 H 0.29718 0.15675 0.60958 0.0
H2185 H 0.2791 0.1369 0.61483 0.0
H2186 H 0.24447 0.16983 0.61869 0.0
H2187 H 0.26228 0.1893 0.61322 0.0
H2188 H 0.26719 0.13609 0.64114 0.0
H2189 H 0.22039 0.13709 0.60228 0.0
H2190 H 0.23806 0.14537 0.59761 0.0
H2191 H 0.22417 0.15583 0.60759 0.0
C2192 C 0.28555 0.15955 0.61087 0.0
C2193 C 0.281 0.17444 0.61103 0.0
C2194 C 0.27524 0.14826 0.61389 0.0
C2195 C 0.26034 0.1518 0.61702 0.0
C2196 C 0.25572 0.16665 0.6159 0.0
H2197 H 0.20325 0.14641 0.68493 0.0
H2198 H 0.21985 0.14966 0.66381 0.0
C2199 C 0.26595 0.17783 0.61293 0.0
C2200 C 0.25046 0.14107 0.62475 0.0
H2201 H 0.21359 0.13335 0.62901 0.0
C2202 C 0.25559 0.13493 0.63815 0.0
C2203 C 0.23529 0.13947 0.62093 0.0
C2204 C 0.22926 0.14469 0.60621 0.0
C2205 C 0.24571 0.12883 0.64852 0.0
C2206 C 0.23038 0.12884 0.64539 0.0
C2207 C 0.22538 0.13353 0.63142 0.0
C2208 C 0.21947 0.12656 0.65738 0.0
C2209 C 0.25152 0.12364 0.66335 0.0
C2210 C 0.2137 0.11247 0.66062 0.0
C2211 C 0.20416 0.11052 0.67277 0.0
C2212 C 0.20034 0.12267 0.68181 0.0
C2213 C 0.20599 0.1368 0.67827 0.0
C2214 C 0.21544 0.13871 0.66617 0.0
H2215 H 0.26379 0.12238 0.66332 0.0
H2216 H 0.24845 0.13184 0.67199 0.0
H2217 H 0.2464 0.11285 0.66644 0.0
H2218 H 0.21679 0.10297 0.65394 0.0
H2219 H 0.2 0.09951 0.67521 0.0
H2220 H 0.27945 0.75864 0.1239 0.0
H2221 H 0.30114 0.7427 0.12815 0.0
H2222 H 0.32996 0.78062 0.1232 0.0
H2223 H 0.30824 0.79654 0.11853 0.0
H2224 H 0.33499 0.74216 0.11072 0.0
H2225 H 0.32731 0.76025 0.16945 0.0
H2226 H 0.31166 0.75886 0.15708 0.0
H2227 H 0.32502 0.77335 0.15442 0.0
C2228 C 0.29047 0.76342 0.12328 0.0
C2229 C 0.29236 0.77868 0.12088 0.0
C2230 C 0.30279 0.75435 0.12562 0.0
C2231 C 0.31707 0.76054 0.12587 0.0
C2232 C 0.31901 0.77568 0.12278 0.0
H2233 H 0.38093 0.71401 0.18058 0.0
H2234 H 0.37459 0.73251 0.16153 0.0
C2235 C 0.30667 0.78472 0.12018 0.0
C2236 C 0.32939 0.75167 0.13188 0.0
H2237 H 0.34427 0.74114 0.16498 0.0
C2238 C 0.3373 0.7421 0.12252 0.0
C2239 C 0.33227 0.7517 0.14727 0.0
C2240 C 0.32366 0.76155 0.15774 0.0
C2241 C 0.34767 0.73199 0.12838 0.0
C2242 C 0.34999 0.73152 0.14388 0.0
C2243 C 0.34264 0.7417 0.15306 0.0
C2244 C 0.35759 0.71902 0.1513 0.0
C2245 C 0.35567 0.72155 0.11808 0.0
C2246 C 0.35057 0.70513 0.1514 0.0
C2247 C 0.35394 0.69476 0.1624 0.0
C2248 C 0.36458 0.69804 0.17326 0.0
C2249 C 0.37282 0.71121 0.17217 0.0
C2250 C 0.36922 0.72175 0.16131 0.0
H2251 H 0.35602 0.72598 0.10657 0.0
H2252 H 0.36719 0.71952 0.12197 0.0
H2253 H 0.34975 0.71075 0.11789 0.0
H2254 H 0.34138 0.70291 0.14398 0.0
H2255 H 0.34742 0.68468 0.16315 0.0
H2256 H 0.70116 0.17417 0.38061 0.0
H2257 H 0.7188 0.15353 0.37731 0.0
H2258 H 0.71986 0.16212 0.33024 0.0
H2259 H 0.70242 0.18249 0.3333 0.0
H2260 H 0.71521 0.12748 0.34968 0.0
H2261 H 0.7649 0.16384 0.35297 0.0
H2262 H 0.74804 0.16753 0.36325 0.0
H2263 H 0.74895 0.17161 0.34375 0.0
C2264 C 0.70507 0.17156 0.36956 0.0
C2265 C 0.70041 0.18002 0.35723 0.0
C2266 C 0.71512 0.1598 0.36772 0.0
C2267 C 0.7206 0.15643 0.35355 0.0
C2268 C 0.71574 0.16463 0.34126 0.0
H2269 H 0.75622 0.11597 0.2868 0.0
H2270 H 0.74111 0.12118 0.3086 0.0
C2271 C 0.70576 0.17628 0.34306 0.0
C2272 C 0.73173 0.14468 0.35111 0.0
H2273 H 0.76724 0.14166 0.33858 0.0
C2274 C 0.72675 0.13033 0.34778 0.0
C2275 C 0.74677 0.14841 0.3488 0.0
C2276 C 0.75258 0.16366 0.35247 0.0
C2277 C 0.73612 0.12013 0.34064 0.0
C2278 C 0.75063 0.12455 0.33662 0.0
C2279 C 0.75609 0.13825 0.34161 0.0
C2280 C 0.75879 0.11722 0.3244 0.0
C2281 C 0.73006 0.10514 0.33642 0.0
C2282 C 0.77369 0.11288 0.32602 0.0
C2283 C 0.78233 0.10968 0.31347 0.0
C2284 C 0.77619 0.11118 0.29922 0.0
C2285 C 0.7611 0.11462 0.29771 0.0
C2286 C 0.75245 0.1175 0.31018 0.0
H2287 H 0.72165 0.10131 0.34461 0.0
H2288 H 0.72451 0.10599 0.32546 0.0
H2289 H 0.73903 0.09672 0.33564 0.0
H2290 H 0.77884 0.11285 0.33688 0.0
H2291 H 0.79402 0.10726 0.31483 0.0
H2292 H 0.30682 0.19849 0.88197 0.0
H2293 H 0.32861 0.21455 0.87789 0.0
H2294 H 0.31651 0.21937 0.83185 0.0
H2295 H 0.29506 0.20356 0.83569 0.0
H2296 H 0.3486 0.21306 0.8386 0.0
H2297 H 0.32367 0.26087 0.86893 0.0
H2298 H 0.32419 0.24257 0.87712 0.0
H2299 H 0.31181 0.24632 0.86199 0.0
C2300 C 0.30889 0.20292 0.87097 0.0
C2301 C 0.29913 0.19981 0.85918 0.0
C2302 C 0.32133 0.21206 0.86868 0.0
C2303 C 0.32414 0.2181 0.85457 0.0
C2304 C 0.31459 0.21472 0.8428 0.0
H2305 H 0.33758 0.27509 0.79453 0.0
H2306 H 0.33426 0.25737 0.81455 0.0
C2307 C 0.30225 0.20572 0.84506 0.0
C2308 C 0.33629 0.22877 0.85171 0.0
H2309 H 0.34071 0.26631 0.84986 0.0
C2310 C 0.34741 0.22465 0.8416 0.0
C2311 C 0.33471 0.24386 0.85566 0.0
C2312 C 0.32299 0.24879 0.86654 0.0
C2313 C 0.35569 0.23544 0.83396 0.0
C2314 C 0.3527 0.2506 0.83652 0.0
C2315 C 0.34299 0.25464 0.84799 0.0
C2316 C 0.35553 0.26166 0.82473 0.0
C2317 C 0.36623 0.23066 0.82189 0.0
C2318 C 0.36869 0.26995 0.82385 0.0
C2319 C 0.37071 0.28021 0.81223 0.0
C2320 C 0.35952 0.28229 0.8015 0.0
C2321 C 0.34639 0.27393 0.80262 0.0
C2322 C 0.34446 0.26374 0.81406 0.0
H2323 H 0.36959 0.21886 0.8232 0.0
H2324 H 0.3607 0.23196 0.81095 0.0
H2325 H 0.37631 0.23776 0.82187 0.0
H2326 H 0.37734 0.26843 0.83205 0.0
H2327 H 0.38095 0.28647 0.81165 0.0
H2328 H 0.29643 0.81331 0.34079 0.0
H2329 H 0.27756 0.83221 0.33627 0.0
H2330 H 0.25559 0.82008 0.37707 0.0
H2331 H 0.27474 0.80123 0.38183 0.0
H2332 H 0.23954 0.8152 0.34954 0.0
H2333 H 0.2615 0.8726 0.35268 0.0
H2334 H 0.27402 0.85945 0.34441 0.0
H2335 H 0.26893 0.85742 0.3636 0.0
C2336 C 0.28792 0.81509 0.34911 0.0
C2337 C 0.28696 0.80578 0.36161 0.0
C2338 C 0.2772 0.82597 0.34657 0.0
C2339 C 0.26523 0.82761 0.35638 0.0
C2340 C 0.26485 0.81909 0.36947 0.0
H2341 H 0.18688 0.8727 0.31626 0.0
H2342 H 0.2045 0.86649 0.33639 0.0
C2343 C 0.27579 0.80836 0.37217 0.0
C2344 C 0.25187 0.83561 0.35118 0.0
H2345 H 0.24098 0.8686 0.33587 0.0
C2346 C 0.2396 0.827 0.34705 0.0
C2347 C 0.25205 0.85095 0.3478 0.0
C2348 C 0.26478 0.86071 0.35246 0.0
C2349 C 0.22808 0.83304 0.33854 0.0
C2350 C 0.22882 0.84811 0.33417 0.0
C2351 C 0.24047 0.85705 0.33929 0.0
C2352 C 0.21911 0.85374 0.32224 0.0
C2353 C 0.21579 0.82299 0.33323 0.0
C2354 C 0.22182 0.84894 0.30773 0.0
C2355 C 0.21184 0.85228 0.29646 0.0
C2356 C 0.19904 0.86066 0.29942 0.0
C2357 C 0.19673 0.86628 0.31376 0.0
C2358 C 0.20672 0.86274 0.3252 0.0
H2359 H 0.21492 0.81278 0.34014 0.0
H2360 H 0.20496 0.82887 0.33335 0.0
H2361 H 0.21813 0.81958 0.32163 0.0
H2362 H 0.23138 0.84208 0.30525 0.0
H2363 H 0.21393 0.84795 0.28544 0.0
H2364 H 0.60043 0.71152 0.79518 0.0
H2365 H 0.60666 0.73012 0.8141 0.0
H2366 H 0.63839 0.6998 0.83333 0.0
H2367 H 0.63272 0.68157 0.81405 0.0
H2368 H 0.60974 0.73263 0.84627 0.0
H2369 H 0.66335 0.73389 0.81582 0.0
H2370 H 0.64718 0.72452 0.80872 0.0
H2371 H 0.65853 0.7158 0.82268 0.0
C2372 C 0.60837 0.70871 0.80377 0.0
C2373 C 0.6162 0.69525 0.80322 0.0
C2374 C 0.6119 0.7193 0.81455 0.0
C2375 C 0.62315 0.71639 0.82495 0.0
C2376 C 0.62983 0.70231 0.82527 0.0
H2377 H 0.67861 0.76791 0.88207 0.0
H2378 H 0.65877 0.75033 0.87576 0.0
C2379 C 0.62658 0.69192 0.81431 0.0
C2380 C 0.62969 0.72863 0.83368 0.0
H2381 H 0.66198 0.7479 0.83779 0.0
C2382 C 0.62116 0.73599 0.84447 0.0
C2383 C 0.6445 0.73318 0.83105 0.0
C2384 C 0.65389 0.72656 0.81884 0.0
C2385 C 0.62728 0.74759 0.85295 0.0
C2386 C 0.6422 0.75169 0.85059 0.0
C2387 C 0.6506 0.74446 0.83972 0.0
C2388 C 0.64948 0.76408 0.85836 0.0
C2389 C 0.61791 0.7555 0.86429 0.0
C2390 C 0.65035 0.77782 0.85108 0.0
C2391 C 0.66181 0.78765 0.85444 0.0
C2392 C 0.67237 0.78396 0.86528 0.0
C2393 C 0.67046 0.77103 0.87379 0.0
C2394 C 0.65911 0.76103 0.87024 0.0
H2395 H 0.6065 0.75086 0.86499 0.0
H2396 H 0.62325 0.75467 0.87536 0.0
H2397 H 0.61719 0.76747 0.86139 0.0
H2398 H 0.64316 0.78023 0.84174 0.0
H2399 H 0.66314 0.79757 0.84773 0.0
H2400 H 0.12884 0.22486 0.18647 0.0
H2401 H 0.13093 0.19966 0.19668 0.0
H2402 H 0.08479 0.201 0.20954 0.0
H2403 H 0.08251 0.22576 0.19876 0.0
H2404 H 0.12831 0.19081 0.22351 0.0
H2405 H 0.08566 0.16085 0.19151 0.0
H2406 H 0.09187 0.17923 0.18645 0.0
H2407 H 0.07773 0.17675 0.20042 0.0
C2408 C 0.11915 0.2197 0.19141 0.0
C2409 C 0.10552 0.22723 0.19182 0.0
C2410 C 0.12031 0.20529 0.19716 0.0
C2411 C 0.10791 0.19824 0.20356 0.0
C2412 C 0.09437 0.20591 0.20417 0.0
H2413 H 0.12116 0.13606 0.27222 0.0
H2414 H 0.10696 0.15337 0.25693 0.0
C2415 C 0.09314 0.22016 0.19819 0.0
C2416 C 0.10944 0.18348 0.21084 0.0
H2417 H 0.09333 0.14921 0.21451 0.0
C2418 C 0.12072 0.18171 0.22139 0.0
C2419 C 0.0997 0.17145 0.20796 0.0
C2420 C 0.08818 0.17211 0.19584 0.0
C2421 C 0.12228 0.1685 0.22945 0.0
C2422 C 0.11188 0.1569 0.22738 0.0
C2423 C 0.10092 0.15835 0.21644 0.0
C2424 C 0.11308 0.14306 0.23617 0.0
C2425 C 0.1352 0.16705 0.24005 0.0
C2426 C 0.11941 0.13044 0.22964 0.0
C2427 C 0.1271 0.1202 0.23846 0.0
C2428 C 0.12884 0.1229 0.25371 0.0
C2429 C 0.12002 0.13381 0.26047 0.0
C2430 C 0.11203 0.14381 0.2517 0.0
H2431 H 0.14393 0.17546 0.23781 0.0
H2432 H 0.1312 0.16866 0.25158 0.0
H2433 H 0.14029 0.15584 0.2393 0.0
H2434 H 0.12019 0.12957 0.21767 0.0
H2435 H 0.13378 0.11184 0.23299 0.0
H2436 H 0.34585 0.62082 0.77608 0.0
H2437 H 0.33002 0.60397 0.76213 0.0
H2438 H 0.35323 0.61572 0.72191 0.0
H2439 H 0.36956 0.63189 0.73601 0.0
H2440 H 0.31471 0.62286 0.74453 0.0
H2441 H 0.33498 0.57621 0.71002 0.0
H2442 H 0.34478 0.58256 0.72632 0.0
H2443 H 0.34648 0.59246 0.70904 0.0
C2444 C 0.34837 0.61883 0.7645 0.0
C2445 C 0.35868 0.62782 0.75704 0.0
C2446 C 0.33922 0.60928 0.75646 0.0
C2447 C 0.34016 0.60889 0.7409 0.0
C2448 C 0.35228 0.61575 0.73389 0.0
H2449 H 0.26853 0.62803 0.68236 0.0
H2450 H 0.29266 0.62537 0.69444 0.0
C2451 C 0.36169 0.62502 0.74201 0.0
C2452 C 0.32646 0.60602 0.73224 0.0
H2453 H 0.31218 0.58802 0.7021 0.0
C2454 C 0.3141 0.61496 0.73549 0.0
C2455 C 0.32577 0.59605 0.72017 0.0
C2456 C 0.33868 0.58618 0.71623 0.0
C2457 C 0.30119 0.61437 0.72695 0.0
C2458 C 0.30057 0.60465 0.71472 0.0
C2459 C 0.31275 0.59545 0.71153 0.0
C2460 C 0.28734 0.60448 0.70507 0.0
C2461 C 0.28836 0.62444 0.73087 0.0
C2462 C 0.27658 0.59334 0.7067 0.0
C2463 C 0.26276 0.59479 0.69974 0.0
C2464 C 0.25952 0.6075 0.69126 0.0
C2465 C 0.27064 0.61822 0.68903 0.0
C2466 C 0.28446 0.61667 0.6958 0.0
H2467 H 0.28968 0.62949 0.74202 0.0
H2468 H 0.28765 0.63355 0.72257 0.0
H2469 H 0.27773 0.61822 0.73059 0.0
H2470 H 0.2786 0.58393 0.71394 0.0
H2471 H 0.25439 0.58636 0.70162 0.0
H2472 H 0.85025 0.86675 0.24916 0.0
H2473 H 0.86992 0.85277 0.23635 0.0
H2474 H 0.85028 0.81171 0.2514 0.0
H2475 H 0.83114 0.8254 0.26436 0.0
H2476 H 0.88142 0.8107 0.25046 0.0
H2477 H 0.85762 0.83255 0.19755 0.0
H2478 H 0.86484 0.8451 0.21125 0.0
H2479 H 0.84782 0.83534 0.21477 0.0
C2480 C 0.85046 0.85476 0.25011 0.0
C2481 C 0.83901 0.84716 0.25758 0.0
C2482 C 0.86162 0.84679 0.24268 0.0
C2483 C 0.8614 0.83118 0.24268 0.0
C2484 C 0.85071 0.82374 0.25123 0.0
H2485 H 0.84853 0.7586 0.19862 0.0
H2486 H 0.85226 0.78288 0.20979 0.0
C2487 C 0.83969 0.83161 0.25861 0.0
C2488 C 0.8706 0.82213 0.23247 0.0
H2489 H 0.86782 0.8087 0.19722 0.0
C2490 C 0.87903 0.81054 0.23866 0.0
C2491 C 0.86761 0.82205 0.21705 0.0
C2492 C 0.85899 0.83439 0.20966 0.0
C2493 C 0.88263 0.79787 0.23034 0.0
C2494 C 0.87782 0.79695 0.21545 0.0
C2495 C 0.87129 0.80941 0.20873 0.0
C2496 C 0.8762 0.78241 0.208 0.0
C2497 C 0.89001 0.7849 0.23796 0.0
C2498 C 0.88847 0.77405 0.2033 0.0
C2499 C 0.88637 0.76001 0.19692 0.0
C2500 C 0.87197 0.75416 0.19517 0.0
C2501 C 0.85977 0.76268 0.19985 0.0
C2502 C 0.86188 0.77663 0.20615 0.0
H2503 H 0.89285 0.78735 0.2497 0.0
H2504 H 0.88256 0.77508 0.2377 0.0
H2505 H 0.90036 0.78193 0.23198 0.0
H2506 H 0.89961 0.77836 0.20456 0.0
H2507 H 0.896 0.75378 0.19334 0.0
H2508 H 0.60883 0.35004 0.74199 0.0
H2509 H 0.62384 0.3658 0.7258 0.0
H2510 H 0.65556 0.37177 0.76102 0.0
H2511 H 0.64083 0.35569 0.77712 0.0
H2512 H 0.6508 0.3956 0.73033 0.0
H2513 H 0.66428 0.33521 0.72574 0.0
H2514 H 0.64533 0.34131 0.72754 0.0
H2515 H 0.65765 0.34252 0.7431 0.0
C2516 C 0.61847 0.3555 0.74662 0.0
C2517 C 0.62391 0.35135 0.76067 0.0
C2518 C 0.62705 0.36455 0.73733 0.0
C2519 C 0.64092 0.36969 0.74216 0.0
C2520 C 0.64489 0.36787 0.7571 0.0
H2521 H 0.72795 0.389 0.70929 0.0
H2522 H 0.70314 0.39162 0.72032 0.0
C2523 C 0.63647 0.35864 0.7663 0.0
C2524 C 0.65296 0.37181 0.73123 0.0
H2525 H 0.68017 0.35189 0.71422 0.0
C2526 C 0.65716 0.38609 0.72659 0.0
C2527 C 0.6611 0.35933 0.72632 0.0
C2528 C 0.65694 0.3437 0.73086 0.0
C2529 C 0.66963 0.38819 0.71735 0.0
C2530 C 0.6782 0.37571 0.7131 0.0
C2531 C 0.67362 0.36146 0.71744 0.0
C2532 C 0.6924 0.37679 0.70477 0.0
C2533 C 0.67346 0.40366 0.7122 0.0
C2534 C 0.69466 0.36762 0.69239 0.0
C2535 C 0.70885 0.36565 0.68656 0.0
C2536 C 0.72102 0.3731 0.69272 0.0
C2537 C 0.71869 0.38311 0.70441 0.0
C2538 C 0.70449 0.38477 0.71056 0.0
H2539 H 0.66356 0.41101 0.71231 0.0
H2540 H 0.68183 0.40848 0.71981 0.0
H2541 H 0.67819 0.40354 0.70082 0.0
H2542 H 0.68553 0.36136 0.68772 0.0
H2543 H 0.71035 0.35809 0.67734 0.0
H2544 H 0.08758 0.75438 0.77858 0.0
H2545 H 0.08598 0.7786 0.76611 0.0
H2546 H 0.13051 0.78882 0.78027 0.0
H2547 H 0.13239 0.76452 0.79224 0.0
H2548 H 0.09013 0.80915 0.77457 0.0
H2549 H 0.1332 0.78947 0.7351 0.0
H2550 H 0.12409 0.7771 0.74797 0.0
H2551 H 0.13891 0.78895 0.75415 0.0
C2552 C 0.09698 0.76185 0.7791 0.0
C2553 C 0.11023 0.75744 0.78608 0.0
C2554 C 0.09601 0.77571 0.77207 0.0
C2555 C 0.10821 0.78539 0.77207 0.0
C2556 C 0.12107 0.78139 0.77989 0.0
H2557 H 0.13133 0.86954 0.74096 0.0
H2558 H 0.11585 0.8525 0.75517 0.0
C2559 C 0.12215 0.76748 0.78667 0.0
C2560 C 0.10815 0.7989 0.76265 0.0
H2561 H 0.12638 0.81467 0.73351 0.0
C2562 C 0.09792 0.81036 0.76547 0.0
C2563 C 0.11824 0.80036 0.75072 0.0
C2564 C 0.12914 0.78827 0.74669 0.0
C2565 C 0.09785 0.82345 0.75685 0.0
C2566 C 0.10821 0.82499 0.74517 0.0
C2567 C 0.11822 0.8134 0.7423 0.0
C2568 C 0.11015 0.83878 0.73634 0.0
C2569 C 0.0868 0.83552 0.76031 0.0
C2570 C 0.11089 0.83763 0.7208 0.0
C2571 C 0.12013 0.84713 0.71273 0.0
C2572 C 0.12833 0.85809 0.7201 0.0
C2573 C 0.12508 0.86116 0.73503 0.0
C2574 C 0.11618 0.85138 0.74321 0.0
H2575 H 0.07726 0.8312 0.76683 0.0
H2576 H 0.09233 0.84426 0.76696 0.0
H2577 H 0.08259 0.84074 0.74995 0.0
H2578 H 0.1062 0.82806 0.71525 0.0
H2579 H 0.12244 0.84458 0.70121 0.0
H2580 H 0.645 0.62844 0.20274 0.0
H2581 H 0.6607 0.61399 0.21907 0.0
H2582 H 0.6256 0.61233 0.25167 0.0
H2583 H 0.61001 0.62754 0.23546 0.0
H2584 H 0.6479 0.62534 0.26311 0.0
H2585 H 0.67088 0.57564 0.23683 0.0
H2586 H 0.67273 0.59053 0.22379 0.0
H2587 H 0.65446 0.58462 0.22963 0.0
C2588 C 0.64031 0.62433 0.21304 0.0
C2589 C 0.62643 0.62945 0.21796 0.0
C2590 C 0.64933 0.61595 0.22244 0.0
C2591 C 0.64447 0.61213 0.23676 0.0
C2592 C 0.62968 0.61525 0.24073 0.0
H2593 H 0.72227 0.58812 0.29107 0.0
H2594 H 0.6975 0.58582 0.2802 0.0
C2595 C 0.62068 0.62381 0.23135 0.0
C2596 C 0.65569 0.60823 0.24827 0.0
H2597 H 0.68866 0.59 0.25234 0.0
C2598 C 0.65656 0.61726 0.26095 0.0
C2599 C 0.66695 0.59755 0.24579 0.0
C2600 C 0.66606 0.58646 0.23333 0.0
C2601 C 0.66898 0.61689 0.27032 0.0
C2602 C 0.68107 0.60755 0.26669 0.0
C2603 C 0.67959 0.59749 0.2549 0.0
C2604 C 0.69574 0.609 0.27407 0.0
C2605 C 0.66919 0.62684 0.28376 0.0
C2606 C 0.7031 0.62274 0.27409 0.0
C2607 C 0.71723 0.62411 0.28031 0.0
C2608 C 0.72443 0.6117 0.2865 0.0
C2609 C 0.71709 0.5979 0.28638 0.0
C2610 C 0.7029 0.59656 0.28021 0.0
H2611 H 0.65777 0.62879 0.288 0.0
H2612 H 0.67601 0.62203 0.29284 0.0
H2613 H 0.67391 0.63779 0.28062 0.0
H2614 H 0.69802 0.63242 0.26904 0.0
H2615 H 0.72254 0.6349 0.28015 0.0
H2616 H 0.88364 0.22993 0.76828 0.0
H2617 H 0.88518 0.20552 0.75632 0.0
H2618 H 0.85845 0.18664 0.79139 0.0
H2619 H 0.85607 0.21114 0.80274 0.0
H2620 H 0.89512 0.17851 0.76316 0.0
H2621 H 0.834 0.17602 0.7565 0.0
H2622 H 0.84329 0.19249 0.76288 0.0
H2623 H 0.83931 0.1775 0.77557 0.0
C2624 C 0.87809 0.22053 0.77337 0.0
C2625 C 0.86946 0.2224 0.78621 0.0
C2626 C 0.87904 0.2066 0.7666 0.0
C2627 C 0.87163 0.19431 0.77276 0.0
C2628 C 0.86383 0.19604 0.78614 0.0
H2629 H 0.84916 0.10904 0.74069 0.0
H2630 H 0.86546 0.12439 0.75582 0.0
C2631 C 0.8625 0.21002 0.79264 0.0
C2632 C 0.87127 0.17994 0.76475 0.0
H2633 H 0.84738 0.15455 0.75011 0.0
C2634 C 0.88469 0.17324 0.76034 0.0
C2635 C 0.85763 0.17313 0.76091 0.0
C2636 C 0.84276 0.18023 0.76406 0.0
C2637 C 0.88477 0.15995 0.75214 0.0
C2638 C 0.87116 0.15318 0.74856 0.0
C2639 C 0.85782 0.15969 0.7532 0.0
C2640 C 0.86986 0.1404 0.73845 0.0
C2641 C 0.89925 0.1533 0.74711 0.0
C2642 C 0.86823 0.14351 0.72328 0.0
C2643 C 0.85866 0.1349 0.71468 0.0
C2644 C 0.85086 0.12307 0.72121 0.0
C2645 C 0.85504 0.11814 0.73541 0.0
C2646 C 0.86437 0.12694 0.74411 0.0
H2647 H 0.90897 0.15908 0.752 0.0
H2648 H 0.89967 0.14136 0.75018 0.0
H2649 H 0.9 0.15402 0.73483 0.0
H2650 H 0.87235 0.15386 0.71871 0.0
H2651 H 0.85565 0.13886 0.70372 0.0
H2652 H 0.37027 0.35137 0.23308 0.0
H2653 H 0.35696 0.36937 0.24867 0.0
H2654 H 0.31618 0.35866 0.22602 0.0
H2655 H 0.32936 0.34151 0.21016 0.0
H2656 H 0.31678 0.38747 0.23446 0.0
H2657 H 0.33285 0.35073 0.28184 0.0
H2658 H 0.3471 0.3597 0.27112 0.0
H2659 H 0.33629 0.34508 0.26298 0.0
C2660 C 0.35861 0.35341 0.23102 0.0
C2661 C 0.35079 0.34486 0.22059 0.0
C2662 C 0.35097 0.36351 0.24009 0.0
C2663 C 0.33549 0.36502 0.23882 0.0
C2664 C 0.3281 0.35769 0.22728 0.0
H2665 H 0.25992 0.35021 0.27982 0.0
H2666 H 0.28493 0.35322 0.27028 0.0
C2667 C 0.33568 0.34783 0.21819 0.0
C2668 C 0.32627 0.37232 0.25031 0.0
H2669 H 0.31072 0.36384 0.28383 0.0
C2670 C 0.31571 0.38275 0.2455 0.0
C2671 C 0.32496 0.36613 0.26473 0.0
C2672 C 0.33584 0.35477 0.27056 0.0
C2673 C 0.30283 0.38556 0.25378 0.0
C2674 C 0.30084 0.37823 0.26752 0.0
C2675 C 0.31232 0.36937 0.27323 0.0
C2676 C 0.28598 0.37687 0.27438 0.0
C2677 C 0.29072 0.39495 0.24698 0.0
C2678 C 0.27824 0.3892 0.27991 0.0
C2679 C 0.26373 0.38754 0.28527 0.0
C2680 C 0.25686 0.37351 0.28525 0.0
C2681 C 0.26482 0.36119 0.27995 0.0
C2682 C 0.27919 0.36287 0.27458 0.0
H2683 H 0.29354 0.39873 0.23557 0.0
H2684 H 0.28019 0.38858 0.24652 0.0
H2685 H 0.28881 0.4049 0.25395 0.0
H2686 H 0.28336 0.40008 0.27998 0.0
H2687 H 0.25792 0.39721 0.28941 0.0
H2688 H 0.24042 0.12835 0.10748 0.0
H2689 H 0.22509 0.11177 0.1225 0.0
H2690 H 0.26056 0.10749 0.15424 0.0
H2691 H 0.2758 0.12424 0.13941 0.0
H2692 H 0.23213 0.08305 0.1521 0.0
H2693 H 0.22297 0.14384 0.16036 0.0
H2694 H 0.22366 0.13654 0.14182 0.0
H2695 H 0.24019 0.13703 0.15287 0.0
C2696 C 0.24537 0.12298 0.11705 0.0
C2697 C 0.25908 0.12789 0.12258 0.0
C2698 C 0.23655 0.1135 0.12567 0.0
C2699 C 0.24157 0.10878 0.13966 0.0
C2700 C 0.25646 0.11111 0.14352 0.0
H2701 H 0.20818 0.09264 0.22762 0.0
H2702 H 0.22036 0.08997 0.20344 0.0
C2703 C 0.26519 0.1207 0.13501 0.0
C2704 C 0.23075 0.1069 0.15184 0.0
H2705 H 0.21177 0.12772 0.177 0.0
C2706 C 0.22745 0.09275 0.15746 0.0
C2707 C 0.22473 0.11962 0.15879 0.0
C2708 C 0.22803 0.13515 0.15325 0.0
C2709 C 0.21828 0.09102 0.17004 0.0
C2710 C 0.21275 0.10382 0.17733 0.0
C2711 C 0.21589 0.1179 0.17141 0.0
C2712 C 0.20424 0.10327 0.19147 0.0
C2713 C 0.21458 0.07555 0.17529 0.0
C2714 C 0.19123 0.11176 0.19292 0.0
C2715 C 0.18467 0.11379 0.20679 0.0
C2716 C 0.19077 0.10706 0.21945 0.0
C2717 C 0.20326 0.09787 0.21796 0.0
C2718 C 0.2101 0.09619 0.20411 0.0
H2719 H 0.21501 0.06749 0.16599 0.0
H2720 H 0.22289 0.072 0.18367 0.0
H2721 H 0.20339 0.07508 0.18044 0.0
H2722 H 0.18647 0.11735 0.18337 0.0
H2723 H 0.17493 0.1208 0.20765 0.0
H2724 H 0.35984 0.77732 0.63432 0.0
H2725 H 0.3763 0.76309 0.65046 0.0
H2726 H 0.36342 0.72286 0.62803 0.0
H2727 H 0.3479 0.73723 0.61127 0.0
H2728 H 0.35827 0.74728 0.66671 0.0
H2729 H 0.40142 0.70895 0.646 0.0
H2730 H 0.39516 0.72477 0.6353 0.0
H2731 H 0.38478 0.70767 0.63521 0.0
C2732 C 0.36151 0.76562 0.63208 0.0
C2733 C 0.35249 0.75829 0.62177 0.0
C2734 C 0.37083 0.75744 0.64139 0.0
C2735 C 0.37079 0.74183 0.64077 0.0
C2736 C 0.36376 0.73485 0.62875 0.0
H2737 H 0.34878 0.68339 0.71161 0.0
H2738 H 0.35232 0.69594 0.68774 0.0
C2739 C 0.35484 0.74312 0.61911 0.0
C2740 C 0.37347 0.73325 0.65461 0.0
H2741 H 0.38869 0.70143 0.66878 0.0
C2742 C 0.36529 0.7375 0.6672 0.0
C2743 C 0.38225 0.72023 0.65523 0.0
C2744 C 0.3915 0.71522 0.64222 0.0
C2745 C 0.36533 0.72898 0.68017 0.0
C2746 C 0.37371 0.71578 0.68063 0.0
C2747 C 0.38224 0.7116 0.66829 0.0
C2748 C 0.37312 0.70617 0.69389 0.0
C2749 C 0.35604 0.7339 0.69322 0.0
C2750 C 0.3838 0.70765 0.70509 0.0
C2751 C 0.3818 0.70052 0.71875 0.0
C2752 C 0.36901 0.69197 0.72143 0.0
C2753 C 0.35863 0.69009 0.70995 0.0
C2754 C 0.36071 0.69709 0.69627 0.0
H2755 H 0.35124 0.74515 0.69156 0.0
H2756 H 0.34679 0.72594 0.69494 0.0
H2757 H 0.36285 0.73395 0.70349 0.0
H2758 H 0.39333 0.7148 0.70346 0.0
H2759 H 0.39001 0.70213 0.72738 0.0
H2760 H 0.75819 0.86409 0.23089 0.0
H2761 H 0.7486 0.86602 0.20559 0.0
H2762 H 0.78543 0.89408 0.19343 0.0
H2763 H 0.79508 0.89236 0.2189 0.0
H2764 H 0.74989 0.8999 0.18256 0.0
H2765 H 0.77831 0.84615 0.17109 0.0
H2766 H 0.76928 0.84839 0.18878 0.0
H2767 H 0.78539 0.85926 0.18448 0.0
C2768 C 0.7641 0.87092 0.22292 0.0
C2769 C 0.77742 0.87801 0.22682 0.0
C2770 C 0.75859 0.87204 0.20851 0.0
C2771 C 0.76635 0.88016 0.19773 0.0
C2772 C 0.77926 0.88786 0.2017 0.0
H2773 H 0.74422 0.84899 0.1106 0.0
H2774 H 0.75782 0.86639 0.12632 0.0
C2775 C 0.78472 0.88688 0.21621 0.0
C2776 C 0.76169 0.87912 0.18207 0.0
H2777 H 0.7607 0.85439 0.15362 0.0
C2778 C 0.75248 0.89013 0.17603 0.0
C2779 C 0.76522 0.86643 0.17363 0.0
C2780 C 0.77515 0.85436 0.17971 0.0
C2781 C 0.74596 0.88831 0.16197 0.0
C2782 C 0.74868 0.87511 0.15394 0.0
C2783 C 0.7587 0.8646 0.15966 0.0
C2784 C 0.7394 0.87046 0.14119 0.0
C2785 C 0.73583 0.90027 0.1561 0.0
C2786 C 0.72421 0.86796 0.14359 0.0
C2787 C 0.71646 0.85803 0.13463 0.0
C2788 C 0.7238 0.8505 0.12316 0.0
C2789 C 0.73827 0.85479 0.11929 0.0
C2790 C 0.7461 0.86465 0.12835 0.0
H2791 H 0.73929 0.91137 0.16017 0.0
H2792 H 0.73566 0.90042 0.14378 0.0
H2793 H 0.72438 0.89819 0.16017 0.0
H2794 H 0.71881 0.87212 0.15348 0.0
H2795 H 0.70533 0.8548 0.13786 0.0
H2796 H 0.634 0.29296 0.7203 0.0
H2797 H 0.63294 0.28092 0.69618 0.0
H2798 H 0.5873 0.26877 0.70411 0.0
H2799 H 0.58813 0.28131 0.72822 0.0
H2800 H 0.62889 0.25252 0.69191 0.0
H2801 H 0.58511 0.28338 0.66159 0.0
H2802 H 0.59334 0.29012 0.67854 0.0
H2803 H 0.57906 0.27619 0.6792 0.0
C2804 C 0.62367 0.28785 0.71689 0.0
C2805 C 0.61116 0.28802 0.72623 0.0
C2806 C 0.62306 0.28102 0.70305 0.0
C2807 C 0.60999 0.27406 0.69822 0.0
C2808 C 0.5974 0.27436 0.70742 0.0
H2809 H 0.62444 0.20457 0.63607 0.0
H2810 H 0.60935 0.21843 0.6538 0.0
C2811 C 0.59793 0.2814 0.72126 0.0
C2812 C 0.61021 0.26532 0.68427 0.0
H2813 H 0.59391 0.26109 0.65024 0.0
C2814 C 0.6212 0.2544 0.68284 0.0
C2815 C 0.6003 0.26792 0.67234 0.0
C2816 C 0.58888 0.28014 0.67288 0.0
C2817 C 0.62269 0.24609 0.66985 0.0
C2818 C 0.61243 0.24821 0.65811 0.0
C2819 C 0.60144 0.25918 0.65943 0.0
C2820 C 0.61418 0.23987 0.64407 0.0
C2821 C 0.63567 0.23551 0.66862 0.0
C2822 C 0.62009 0.24717 0.63162 0.0
C2823 C 0.62824 0.23915 0.62113 0.0
C2824 C 0.63079 0.22391 0.6233 0.0
C2825 C 0.62261 0.21632 0.63418 0.0
C2826 C 0.6141 0.22427 0.6444 0.0
H2827 H 0.64426 0.23769 0.67717 0.0
H2828 H 0.63169 0.22395 0.67016 0.0
H2829 H 0.64098 0.23635 0.65752 0.0
H2830 H 0.62016 0.25919 0.63107 0.0
H2831 H 0.63449 0.24525 0.61283 0.0
H2832 H 0.18473 0.89145 0.75965 0.0
H2833 H 0.19589 0.89324 0.78442 0.0
H2834 H 0.21219 0.84839 0.78043 0.0
H2835 H 0.20087 0.8464 0.75594 0.0
H2836 H 0.19862 0.85478 0.80798 0.0
H2837 H 0.2409 0.89712 0.79223 0.0
H2838 H 0.22178 0.90096 0.78794 0.0
H2839 H 0.23124 0.88618 0.77856 0.0
C2840 C 0.19075 0.882 0.76405 0.0
C2841 C 0.19203 0.86882 0.7558 0.0
C2842 C 0.19712 0.88306 0.77818 0.0
C2843 C 0.205 0.87101 0.78417 0.0
C2844 C 0.20613 0.85781 0.77601 0.0
H2845 H 0.27448 0.84711 0.83481 0.0
H2846 H 0.25816 0.8617 0.81914 0.0
C2847 C 0.19968 0.8567 0.762 0.0
C2848 C 0.2124 0.87196 0.7988 0.0
H2849 H 0.24303 0.8863 0.81575 0.0
C2850 C 0.20817 0.86185 0.80988 0.0
C2851 C 0.2248 0.88126 0.80114 0.0
C2852 C 0.23008 0.89197 0.78936 0.0
C2853 C 0.2167 0.85991 0.82277 0.0
C2854 C 0.22961 0.86872 0.82482 0.0
C2855 C 0.23311 0.87967 0.81424 0.0
C2856 C 0.24112 0.86453 0.83588 0.0
C2857 C 0.21245 0.84755 0.83334 0.0
C2858 C 0.23774 0.86255 0.85099 0.0
C2859 C 0.24704 0.8539 0.85999 0.0
C2860 C 0.25988 0.84736 0.85395 0.0
C2861 C 0.26449 0.8517 0.83968 0.0
C2862 C 0.25511 0.86007 0.83066 0.0
H2863 H 0.20346 0.84042 0.82884 0.0
H2864 H 0.22217 0.84038 0.8358 0.0
H2865 H 0.20843 0.85239 0.84391 0.0
H2866 H 0.2273 0.86647 0.85545 0.0
H2867 H 0.2433 0.85099 0.87105 0.0
H2868 H 0.58511 0.69304 0.25365 0.0
H2869 H 0.58268 0.70605 0.27743 0.0
H2870 H 0.62882 0.69756 0.2868 0.0
H2871 H 0.63143 0.68469 0.26318 0.0
H2872 H 0.59139 0.69734 0.30943 0.0
H2873 H 0.62252 0.74422 0.28408 0.0
H2874 H 0.61381 0.72993 0.27311 0.0
H2875 H 0.63124 0.72639 0.28213 0.0
C2876 C 0.59469 0.69381 0.26086 0.0
C2877 C 0.60853 0.68807 0.25642 0.0
C2878 C 0.59325 0.70115 0.27445 0.0
C2879 C 0.6056 0.70282 0.28373 0.0
C2880 C 0.61919 0.69641 0.2797 0.0
H2881 H 0.63545 0.7304 0.36457 0.0
H2882 H 0.61869 0.71725 0.34812 0.0
C2883 C 0.62066 0.68911 0.26617 0.0
C2884 C 0.60491 0.71255 0.29684 0.0
H2885 H 0.61995 0.74437 0.31022 0.0
C2886 C 0.59737 0.70779 0.30963 0.0
C2887 C 0.61251 0.72623 0.2969 0.0
C2888 C 0.62038 0.7321 0.28329 0.0
C2889 C 0.59798 0.71607 0.32284 0.0
C2890 C 0.60646 0.7293 0.32318 0.0
C2891 C 0.61327 0.73435 0.31006 0.0
C2892 C 0.61052 0.73707 0.33712 0.0
C2893 C 0.58983 0.71037 0.33631 0.0
C2894 C 0.61068 0.75269 0.33736 0.0
C2895 C 0.62071 0.76018 0.34647 0.0
C2896 C 0.63023 0.75214 0.3558 0.0
C2897 C 0.62805 0.73682 0.35757 0.0
C2898 C 0.61839 0.72926 0.34812 0.0
H2899 H 0.57952 0.70448 0.33302 0.0
H2900 H 0.59697 0.70225 0.34223 0.0
H2901 H 0.58692 0.71948 0.34405 0.0
H2902 H 0.60461 0.75897 0.32908 0.0
H2903 H 0.62231 0.772 0.34486 0.0
H2904 H 0.78314 0.08941 0.75585 0.0
H2905 H 0.77122 0.0865 0.78012 0.0
H2906 H 0.77741 0.13316 0.78867 0.0
H2907 H 0.78913 0.13626 0.76438 0.0
H2908 H 0.78056 0.0947 0.81107 0.0
H2909 H 0.73165 0.12539 0.7893 0.0
H2910 H 0.74574 0.11775 0.77728 0.0
H2911 H 0.74906 0.13483 0.787 0.0
C2912 C 0.78205 0.09904 0.76293 0.0
C2913 C 0.78685 0.11313 0.75808 0.0
C2914 C 0.77535 0.09732 0.77683 0.0
C2915 C 0.77339 0.10962 0.7861 0.0
C2916 C 0.77874 0.12355 0.78158 0.0
H2917 H 0.74555 0.13492 0.86866 0.0
H2918 H 0.75981 0.11915 0.85216 0.0
C2919 C 0.78535 0.12532 0.76767 0.0
C2920 C 0.76444 0.10832 0.79978 0.0
H2921 H 0.73248 0.12114 0.81511 0.0
C2922 C 0.76992 0.10027 0.81198 0.0
C2923 C 0.7505 0.11538 0.80079 0.0
C2924 C 0.74379 0.12372 0.78787 0.0
C2925 C 0.76205 0.09973 0.82549 0.0
C2926 C 0.74843 0.10746 0.82671 0.0
C2927 C 0.74278 0.11496 0.81422 0.0
C2928 C 0.74061 0.10998 0.841 0.0
C2929 C 0.76849 0.09112 0.83833 0.0
C2930 C 0.72504 0.10897 0.84134 0.0
C2931 C 0.71686 0.11849 0.85043 0.0
C2932 C 0.72424 0.12858 0.85964 0.0
C2933 C 0.73963 0.12717 0.86164 0.0
C2934 C 0.74784 0.11807 0.85216 0.0
H2935 H 0.77523 0.0816 0.83434 0.0
H2936 H 0.77594 0.09849 0.84476 0.0
H2937 H 0.75968 0.0869 0.84586 0.0
H2938 H 0.71921 0.10263 0.83297 0.0
H2939 H 0.70499 0.11939 0.84873 0.0
H2940 H 0.39803 0.28145 0.25081 0.0
H2941 H 0.40115 0.27066 0.27581 0.0
H2942 H 0.35381 0.27235 0.28246 0.0
H2943 H 0.35055 0.28283 0.25779 0.0
H2944 H 0.37664 0.28428 0.30724 0.0
H2945 H 0.38243 0.22633 0.28646 0.0
H2946 H 0.39204 0.24164 0.27774 0.0
H2947 H 0.37237 0.23978 0.27551 0.0
C2948 C 0.38832 0.2795 0.25763 0.0
C2949 C 0.37403 0.2828 0.25224 0.0
C2950 C 0.39013 0.27341 0.27188 0.0
C2951 C 0.3777 0.27077 0.28089 0.0
C2952 C 0.36353 0.27434 0.27564 0.0
H2953 H 0.32852 0.24447 0.34946 0.0
H2954 H 0.345 0.25834 0.33342 0.0
C2955 C 0.3617 0.28023 0.26147 0.0
C2956 C 0.37891 0.26358 0.29558 0.0
H2957 H 0.37446 0.22939 0.31113 0.0
C2958 C 0.37669 0.27227 0.30826 0.0
C2959 C 0.37914 0.24797 0.29685 0.0
C2960 C 0.38166 0.23828 0.28347 0.0
C2961 C 0.3734 0.26569 0.32201 0.0
C2962 C 0.37181 0.25005 0.32291 0.0
C2963 C 0.37559 0.24136 0.31053 0.0
C2964 C 0.36334 0.24281 0.33512 0.0
C2965 C 0.37086 0.27567 0.33518 0.0
C2966 C 0.3679 0.22917 0.34137 0.0
C2967 C 0.3581 0.22086 0.35025 0.0
C2968 C 0.34382 0.22632 0.35315 0.0
C2969 C 0.33968 0.24029 0.34769 0.0
C2970 C 0.3492 0.24832 0.3386 0.0
H2971 H 0.37871 0.28519 0.33494 0.0
H2972 H 0.35949 0.28038 0.33461 0.0
H2973 H 0.3722 0.26964 0.34586 0.0
H2974 H 0.37868 0.22458 0.33869 0.0
H2975 H 0.36135 0.20995 0.35414 0.0
H2976 H 0.22261 0.20172 0.1328 0.0
H2977 H 0.19971 0.21574 0.12998 0.0
H2978 H 0.19717 0.20313 0.08395 0.0
H2979 H 0.22046 0.18896 0.08661 0.0
H2980 H 0.19463 0.23941 0.10095 0.0
H2981 H 0.15595 0.19269 0.11302 0.0
H2982 H 0.17399 0.19232 0.12166 0.0
H2983 H 0.17252 0.19034 0.10192 0.0
C2984 C 0.21722 0.20183 0.12205 0.0
C2985 C 0.22334 0.19421 0.10992 0.0
C2986 C 0.20416 0.2099 0.12047 0.0
C2987 C 0.19685 0.21044 0.10678 0.0
C2988 C 0.20277 0.20284 0.09458 0.0
H2989 H 0.1119 0.25301 0.12706 0.0
H2990 H 0.12971 0.24243 0.10936 0.0
C2991 C 0.21602 0.19479 0.09612 0.0
C2992 C 0.183 0.21909 0.10582 0.0
H2993 H 0.14751 0.21706 0.11866 0.0
C2994 C 0.18412 0.23454 0.10425 0.0
C2995 C 0.16936 0.21265 0.11005 0.0
C2996 C 0.16774 0.19607 0.11171 0.0
C2997 C 0.17231 0.24383 0.10834 0.0
C2998 C 0.15927 0.23742 0.11425 0.0
C2999 C 0.15758 0.22194 0.11418 0.0
C3000 C 0.14882 0.24617 0.12334 0.0
C3001 C 0.17426 0.26042 0.10737 0.0
C3002 C 0.15375 0.25187 0.13695 0.0
C3003 C 0.14364 0.25763 0.14714 0.0
C3004 C 0.12844 0.2579 0.14383 0.0
C3005 C 0.12359 0.25297 0.12985 0.0
C3006 C 0.13371 0.24695 0.11974 0.0
H3007 H 0.18233 0.26348 0.09855 0.0
H3008 H 0.16351 0.26603 0.1051 0.0
H3009 H 0.1786 0.26458 0.1181 0.0
H3010 H 0.16535 0.25112 0.14004 0.0
H3011 H 0.14768 0.26142 0.15779 0.0
H3012 H 0.23098 0.76589 0.87719 0.0
H3013 H 0.20613 0.75488 0.87817 0.0
H3014 H 0.18744 0.79589 0.86159 0.0
H3015 H 0.21246 0.8064 0.8595 0.0
H3016 H 0.18167 0.76058 0.89246 0.0
H3017 H 0.17085 0.76824 0.83218 0.0
H3018 H 0.18873 0.77185 0.84025 0.0
H3019 H 0.17403 0.78532 0.84178 0.0
C3020 C 0.22152 0.77243 0.87365 0.0
C3021 C 0.22346 0.78679 0.86801 0.0
C3022 C 0.20735 0.76623 0.87432 0.0
C3023 C 0.19492 0.77446 0.8697 0.0
C3024 C 0.19688 0.78914 0.86474 0.0
H3025 H 0.10952 0.73825 0.84867 0.0
H3026 H 0.12433 0.75428 0.86461 0.0
C3027 C 0.21111 0.79516 0.86361 0.0
C3028 C 0.1801 0.76732 0.86951 0.0
H3029 H 0.1521 0.75717 0.84626 0.0
C3030 C 0.17512 0.75996 0.88239 0.0
C3031 C 0.17153 0.76653 0.85637 0.0
C3032 C 0.1766 0.77328 0.84183 0.0
C3033 C 0.1622 0.75124 0.88225 0.0
C3034 C 0.15396 0.75017 0.86903 0.0
C3035 C 0.15839 0.75826 0.85646 0.0
C3036 C 0.14249 0.73874 0.86673 0.0
C3037 C 0.15773 0.74276 0.89597 0.0
C3038 C 0.14728 0.72423 0.86377 0.0
C3039 C 0.13898 0.71515 0.85441 0.0
C3040 C 0.12576 0.7205 0.8481 0.0
C3041 C 0.11969 0.73387 0.85336 0.0
C3042 C 0.12816 0.74308 0.86249 0.0
H3043 H 0.16322 0.74718 0.90606 0.0
H3044 H 0.14551 0.74316 0.8975 0.0
H3045 H 0.16099 0.73094 0.89466 0.0
H3046 H 0.15836 0.72072 0.86688 0.0
H3047 H 0.14384 0.70485 0.85056 0.0
H3048 H 0.71965 0.73201 0.36846 0.0
H3049 H 0.73139 0.70766 0.37252 0.0
H3050 H 0.68815 0.68742 0.3764 0.0
H3051 H 0.67646 0.71174 0.37229 0.0
H3052 H 0.72913 0.68541 0.39563 0.0
H3053 H 0.70781 0.66649 0.34087 0.0
H3054 H 0.70733 0.68568 0.34644 0.0
H3055 H 0.69394 0.67279 0.35373 0.0
C3056 C 0.71274 0.72233 0.3703 0.0
C3057 C 0.69725 0.72354 0.36997 0.0
C3058 C 0.7194 0.70851 0.37272 0.0
C3059 C 0.71061 0.69576 0.37467 0.0
C3060 C 0.6951 0.69711 0.37484 0.0
H3061 H 0.7437 0.60986 0.35292 0.0
H3062 H 0.72952 0.62475 0.37056 0.0
C3063 C 0.68846 0.71093 0.37249 0.0
C3064 C 0.7177 0.68096 0.37512 0.0
H3065 H 0.72277 0.65003 0.35408 0.0
C3066 C 0.7276 0.67753 0.38668 0.0
C3067 C 0.71563 0.67071 0.36344 0.0
C3068 C 0.70571 0.67408 0.35034 0.0
C3069 C 0.73596 0.66435 0.38652 0.0
C3070 C 0.73436 0.65446 0.3745 0.0
C3071 C 0.7238 0.65751 0.36345 0.0
C3072 C 0.74538 0.64277 0.37112 0.0
C3073 C 0.7468 0.66133 0.39889 0.0
C3074 C 0.75964 0.64731 0.36678 0.0
C3075 C 0.76766 0.6389 0.35657 0.0
C3076 C 0.76153 0.62584 0.35074 0.0
C3077 C 0.74863 0.61993 0.35723 0.0
C3078 C 0.7405 0.62846 0.36732 0.0
H3079 H 0.74323 0.66678 0.40934 0.0
H3080 H 0.74805 0.64922 0.4009 0.0
H3081 H 0.75781 0.66591 0.39578 0.0
H3082 H 0.76362 0.65832 0.36949 0.0
H3083 H 0.77766 0.6436 0.3518 0.0
H3084 H 0.76203 0.18919 0.84475 0.0
H3085 H 0.78655 0.20042 0.84623 0.0
H3086 H 0.7788 0.21156 0.89211 0.0
H3087 H 0.75424 0.19988 0.89084 0.0
H3088 H 0.79201 0.22879 0.85146 0.0
H3089 H 0.82065 0.19451 0.89395 0.0
H3090 H 0.80357 0.18882 0.88518 0.0
H3091 H 0.80325 0.20216 0.89997 0.0
C3092 C 0.76552 0.19396 0.8552 0.0
C3093 C 0.75611 0.19372 0.86766 0.0
C3094 C 0.7796 0.20031 0.85605 0.0
C3095 C 0.78462 0.20666 0.86933 0.0
C3096 C 0.77532 0.20641 0.88184 0.0
H3097 H 0.84959 0.27393 0.85925 0.0
H3098 H 0.83239 0.2592 0.87416 0.0
C3099 C 0.76122 0.19988 0.88105 0.0
C3100 C 0.79901 0.2147 0.86947 0.0
H3101 H 0.83337 0.21623 0.88563 0.0
C3102 C 0.80101 0.22605 0.85898 0.0
C3103 C 0.81083 0.21099 0.87917 0.0
C3104 C 0.80958 0.19836 0.89012 0.0
C3105 C 0.81444 0.23372 0.85779 0.0
C3106 C 0.82612 0.23038 0.86777 0.0
C3107 C 0.82425 0.219 0.87828 0.0
C3108 C 0.84056 0.23809 0.86627 0.0
C3109 C 0.81616 0.24503 0.84547 0.0
C3110 C 0.85209 0.23098 0.85859 0.0
C3111 C 0.86227 0.23943 0.85043 0.0
C3112 C 0.86062 0.25493 0.84962 0.0
C3113 C 0.85102 0.26199 0.85965 0.0
C3114 C 0.8411 0.25355 0.8681 0.0
H3115 H 0.80718 0.24419 0.83708 0.0
H3116 H 0.81581 0.25638 0.85023 0.0
H3117 H 0.82697 0.24364 0.83972 0.0
H3118 H 0.85194 0.21904 0.85714 0.0
H3119 H 0.86961 0.23372 0.8428 0.0
H3120 H 0.28598 0.25609 0.39389 0.0
H3121 H 0.27508 0.28091 0.39614 0.0
H3122 H 0.26867 0.28254 0.34873 0.0
H3123 H 0.27971 0.25794 0.34633 0.0
H3124 H 0.27984 0.30933 0.36138 0.0
H3125 H 0.23002 0.28758 0.39097 0.0
H3126 H 0.24799 0.28337 0.39858 0.0
H3127 H 0.24259 0.27553 0.38112 0.0
C3128 C 0.28222 0.26173 0.38394 0.0
C3129 C 0.28347 0.25493 0.36994 0.0
C3130 C 0.27604 0.27591 0.38526 0.0
C3131 C 0.27094 0.28346 0.37263 0.0
C3132 C 0.27255 0.27687 0.35863 0.0
H3133 H 0.2054 0.33054 0.33863 0.0
H3134 H 0.22021 0.31547 0.35522 0.0
C3135 C 0.27875 0.26275 0.35729 0.0
C3136 C 0.26303 0.2978 0.37379 0.0
H3137 H 0.22902 0.31197 0.38231 0.0
C3138 C 0.26884 0.31011 0.36621 0.0
C3139 C 0.24877 0.29871 0.38025 0.0
C3140 C 0.24186 0.28562 0.38814 0.0
C3141 C 0.26018 0.32283 0.36361 0.0
C3142 C 0.24541 0.3233 0.36911 0.0
C3143 C 0.24029 0.31159 0.37809 0.0
C3144 C 0.23418 0.33357 0.36268 0.0
C3145 C 0.26652 0.33493 0.35385 0.0
C3146 C 0.23618 0.34905 0.36223 0.0
C3147 C 0.2278 0.35775 0.35239 0.0
C3148 C 0.2172 0.35102 0.34313 0.0
C3149 C 0.21368 0.336 0.34542 0.0
C3150 C 0.22219 0.32734 0.35496 0.0
H3151 H 0.27753 0.33191 0.34918 0.0
H3152 H 0.25891 0.33739 0.34448 0.0
H3153 H 0.26795 0.34521 0.36045 0.0
H3154 H 0.24495 0.35422 0.36858 0.0
H3155 H 0.23064 0.36935 0.351 0.0
H3156 H 0.76974 0.80264 0.12131 0.0
H3157 H 0.79417 0.79137 0.11859 0.0
H3158 H 0.77606 0.75943 0.0879 0.0
H3159 H 0.75161 0.77136 0.09001 0.0
H3160 H 0.79888 0.76476 0.12793 0.0
H3161 H 0.81587 0.76691 0.06891 0.0
H3162 H 0.80093 0.7781 0.07621 0.0
H3163 H 0.79777 0.75898 0.07143 0.0
C3164 C 0.77104 0.7934 0.11376 0.0
C3165 C 0.75881 0.78772 0.10601 0.0
C3166 C 0.78502 0.78702 0.11213 0.0
C3167 C 0.78703 0.77458 0.10299 0.0
C3168 C 0.77491 0.76922 0.09475 0.0
H3169 H 0.84105 0.70383 0.12517 0.0
H3170 H 0.82599 0.71874 0.10831 0.0
C3171 C 0.76091 0.77591 0.09608 0.0
C3172 C 0.80106 0.76599 0.10414 0.0
H3173 H 0.8291 0.74951 0.0845 0.0
C3174 C 0.80558 0.76168 0.11841 0.0
C3175 C 0.8098 0.76188 0.09173 0.0
C3176 C 0.80593 0.76683 0.07622 0.0
C3177 C 0.81835 0.7532 0.12065 0.0
C3178 C 0.82681 0.74864 0.10825 0.0
C3179 C 0.82253 0.75304 0.09394 0.0
C3180 C 0.83945 0.73846 0.11051 0.0
C3181 C 0.82255 0.74888 0.13633 0.0
C3182 C 0.85289 0.74416 0.11592 0.0
C3183 C 0.86169 0.73552 0.12538 0.0
C3184 C 0.85687 0.72129 0.12962 0.0
C3185 C 0.84494 0.71478 0.12205 0.0
C3186 C 0.83632 0.72332 0.11239 0.0
H3187 H 0.81473 0.7534 0.14471 0.0
H3188 H 0.82273 0.73661 0.13746 0.0
H3189 H 0.83385 0.75304 0.13892 0.0
H3190 H 0.85544 0.75585 0.11462 0.0
H3191 H 0.87081 0.7408 0.13116 0.0
H3192 H 0.73674 0.37202 0.63145 0.0
H3193 H 0.7214 0.35677 0.61515 0.0
H3194 H 0.75799 0.32657 0.60904 0.0
H3195 H 0.77324 0.34165 0.62543 0.0
H3196 H 0.73347 0.32617 0.5855 0.0
H3197 H 0.71678 0.31991 0.64486 0.0
H3198 H 0.7155 0.33813 0.63674 0.0
H3199 H 0.73335 0.32972 0.6395 0.0
C3200 C 0.74185 0.36275 0.62575 0.0
C3201 C 0.75601 0.35775 0.62992 0.0
C3202 C 0.73302 0.35398 0.61648 0.0
C3203 C 0.73846 0.34034 0.61128 0.0
C3204 C 0.75356 0.337 0.61305 0.0
H3205 H 0.71219 0.2526 0.62412 0.0
H3206 H 0.72303 0.27734 0.62202 0.0
C3207 C 0.76231 0.34566 0.6224 0.0
C3208 C 0.72818 0.32783 0.6087 0.0
H3209 H 0.70827 0.3022 0.62828 0.0
C3210 C 0.72767 0.32103 0.59472 0.0
C3211 C 0.72087 0.32107 0.6209 0.0
C3212 C 0.72165 0.32746 0.63638 0.0
C3213 C 0.72053 0.30726 0.59276 0.0
C3214 C 0.71373 0.30028 0.60512 0.0
C3215 C 0.71357 0.30754 0.61886 0.0
C3216 C 0.70807 0.28482 0.60472 0.0
C3217 C 0.72105 0.29995 0.57775 0.0
C3218 C 0.69629 0.28064 0.59543 0.0
C3219 C 0.6903 0.2663 0.59639 0.0
C3220 C 0.69578 0.25615 0.60693 0.0
C3221 C 0.70774 0.26026 0.61596 0.0
C3222 C 0.71391 0.27439 0.61477 0.0
H3223 H 0.72919 0.30537 0.57022 0.0
H3224 H 0.72394 0.28801 0.57882 0.0
H3225 H 0.70993 0.30072 0.57251 0.0
H3226 H 0.69138 0.28858 0.58784 0.0
H3227 H 0.68094 0.26341 0.58944 0.0
H3228 H 0.20458 0.64895 0.6352 0.0
H3229 H 0.21918 0.66431 0.61846 0.0
H3230 H 0.24971 0.62805 0.61175 0.0
H3231 H 0.23505 0.61256 0.62853 0.0
H3232 H 0.26146 0.65111 0.62766 0.0
H3233 H 0.23521 0.67366 0.57712 0.0
H3234 H 0.22236 0.67328 0.59234 0.0
H3235 H 0.22976 0.65611 0.58529 0.0
C3236 C 0.21391 0.64396 0.6295 0.0
C3237 C 0.21891 0.62972 0.63347 0.0
C3238 C 0.22225 0.65275 0.61983 0.0
C3239 C 0.23566 0.64739 0.614 0.0
C3240 C 0.23941 0.6324 0.61616 0.0
H3241 H 0.29259 0.72311 0.58922 0.0
H3242 H 0.28099 0.69859 0.58722 0.0
C3243 C 0.23096 0.62354 0.62574 0.0
C3244 C 0.24723 0.65829 0.60978 0.0
H3245 H 0.2518 0.69055 0.59039 0.0
C3246 C 0.25961 0.65948 0.61917 0.0
C3247 C 0.24492 0.66916 0.59869 0.0
C3248 C 0.23241 0.66791 0.58769 0.0
C3249 C 0.26889 0.67193 0.61869 0.0
C3250 C 0.2656 0.68359 0.60868 0.0
C3251 C 0.25413 0.68175 0.5983 0.0
C3252 C 0.27294 0.69826 0.60983 0.0
C3253 C 0.28174 0.67274 0.6294 0.0
C3254 C 0.27204 0.70628 0.62314 0.0
C3255 C 0.2787 0.72021 0.62436 0.0
C3256 C 0.28618 0.72652 0.6122 0.0
C3257 C 0.28683 0.71858 0.59877 0.0
C3258 C 0.28026 0.70456 0.59761 0.0
H3259 H 0.28581 0.66146 0.63237 0.0
H3260 H 0.2911 0.67926 0.62472 0.0
H3261 H 0.27798 0.67815 0.6398 0.0
H3262 H 0.26607 0.70181 0.63259 0.0
H3263 H 0.27789 0.72607 0.63481 0.0
H3264 H 0.83687 0.86376 0.74765 0.0
H3265 H 0.85263 0.84606 0.76049 0.0
H3266 H 0.87191 0.8329 0.71866 0.0
H3267 H 0.85494 0.84971 0.70569 0.0
H3268 H 0.85982 0.81084 0.72974 0.0
H3269 H 0.89126 0.83479 0.77618 0.0
H3270 H 0.87237 0.84073 0.77756 0.0
H3271 H 0.88342 0.84637 0.76179 0.0
C3272 C 0.84506 0.85768 0.74127 0.0
C3273 C 0.84474 0.85806 0.72571 0.0
C3274 C 0.85417 0.84752 0.74867 0.0
C3275 C 0.86354 0.838 0.74062 0.0
C3276 C 0.86472 0.84001 0.72515 0.0
H3277 H 0.89562 0.75459 0.78281 0.0
H3278 H 0.89682 0.77923 0.77089 0.0
C3279 C 0.85514 0.84972 0.71771 0.0
C3280 C 0.86895 0.82396 0.74758 0.0
H3281 H 0.88243 0.80906 0.77985 0.0
C3282 C 0.86524 0.81058 0.74048 0.0
C3283 C 0.8759 0.82337 0.76169 0.0
C3284 C 0.88108 0.83713 0.76963 0.0
C3285 C 0.86745 0.79682 0.74735 0.0
C3286 C 0.87326 0.79633 0.76188 0.0
C3287 C 0.87784 0.80952 0.76873 0.0
C3288 C 0.87302 0.78233 0.77047 0.0
C3289 C 0.86289 0.78289 0.73926 0.0
C3290 C 0.85929 0.77619 0.77438 0.0
C3291 C 0.85856 0.76221 0.78095 0.0
C3292 C 0.87157 0.75408 0.78387 0.0
C3293 C 0.88541 0.76053 0.78055 0.0
C3294 C 0.88612 0.7746 0.77384 0.0
H3295 H 0.86236 0.78472 0.72707 0.0
H3296 H 0.87072 0.77365 0.74159 0.0
H3297 H 0.85169 0.77946 0.74309 0.0
H3298 H 0.84907 0.78208 0.77199 0.0
H3299 H 0.84772 0.75772 0.7836 0.0
H3300 H 0.60971 0.35077 0.24101 0.0
H3301 H 0.62482 0.37014 0.25254 0.0
H3302 H 0.65781 0.36473 0.21823 0.0
H3303 H 0.64276 0.34557 0.20682 0.0
H3304 H 0.6492 0.35722 0.26266 0.0
H3305 H 0.66717 0.40627 0.23096 0.0
H3306 H 0.65014 0.39655 0.22674 0.0
H3307 H 0.66758 0.39036 0.21909 0.0
C3308 C 0.6197 0.35447 0.23541 0.0
C3309 C 0.62527 0.3466 0.22321 0.0
C3310 C 0.62837 0.36551 0.24204 0.0
C3311 C 0.64258 0.36877 0.2364 0.0
C3312 C 0.64688 0.36259 0.22277 0.0
H3313 H 0.72608 0.35218 0.26822 0.0
H3314 H 0.70167 0.35518 0.2568 0.0
C3315 C 0.63829 0.35153 0.21625 0.0
C3316 C 0.65441 0.37416 0.24648 0.0
H3317 H 0.68675 0.39395 0.2461 0.0
C3318 C 0.6571 0.36568 0.25932 0.0
C3319 C 0.66484 0.3851 0.24216 0.0
C3320 C 0.66217 0.39516 0.22904 0.0
C3321 C 0.6705 0.36682 0.26706 0.0
C3322 C 0.6815 0.3767 0.26186 0.0
C3323 C 0.67835 0.3862 0.2499 0.0
C3324 C 0.69677 0.37594 0.26776 0.0
C3325 C 0.67323 0.35672 0.28017 0.0
C3326 C 0.70217 0.38684 0.27741 0.0
C3327 C 0.71618 0.38519 0.28394 0.0
C3328 C 0.72492 0.37257 0.28093 0.0
C3329 C 0.71958 0.36194 0.27087 0.0
C3330 C 0.70567 0.36365 0.26431 0.0
H3331 H 0.66272 0.35207 0.28467 0.0
H3332 H 0.68037 0.34732 0.27665 0.0
H3333 H 0.67908 0.36276 0.28916 0.0
H3334 H 0.69539 0.39636 0.28022 0.0
H3335 H 0.71996 0.39353 0.29169 0.0
H3336 H 0.12355 0.13615 0.70368 0.0
H3337 H 0.10729 0.15192 0.7184 0.0
H3338 H 0.11572 0.1247 0.75687 0.0
H3339 H 0.13153 0.10856 0.74203 0.0
H3340 H 0.08732 0.14864 0.7554 0.0
H3341 H 0.1457 0.16685 0.74573 0.0
H3342 H 0.13536 0.16095 0.72975 0.0
H3343 H 0.14013 0.14775 0.74393 0.0
C3344 C 0.12094 0.13281 0.71494 0.0
C3345 C 0.12912 0.12148 0.72187 0.0
C3346 C 0.11165 0.14187 0.7234 0.0
C3347 C 0.11077 0.13974 0.73881 0.0
C3348 C 0.11636 0.12657 0.745 0.0
H3349 H 0.12999 0.21266 0.79745 0.0
H3350 H 0.12776 0.18807 0.7864 0.0
C3351 C 0.12541 0.1173 0.73645 0.0
C3352 C 0.10969 0.15304 0.74831 0.0
H3353 H 0.13022 0.18305 0.75858 0.0
C3354 C 0.09665 0.15619 0.7562 0.0
C3355 C 0.12207 0.16262 0.74956 0.0
C3356 C 0.13666 0.1594 0.7419 0.0
C3357 C 0.09561 0.16898 0.76512 0.0
C3358 C 0.10781 0.1789 0.76582 0.0
C3359 C 0.12086 0.17549 0.75807 0.0
C3360 C 0.10758 0.19302 0.7743 0.0
C3361 C 0.0816 0.17157 0.7739 0.0
C3362 C 0.09685 0.20398 0.7714 0.0
C3363 C 0.09799 0.21802 0.77794 0.0
C3364 C 0.11009 0.22144 0.78714 0.0
C3365 C 0.12065 0.2104 0.79023 0.0
C3366 C 0.11933 0.19631 0.78399 0.0
H3367 H 0.07558 0.16101 0.77602 0.0
H3368 H 0.08402 0.17695 0.7847 0.0
H3369 H 0.07413 0.17896 0.76746 0.0
H3370 H 0.08793 0.2019 0.76364 0.0
H3371 H 0.08971 0.22636 0.77536 0.0
H3372 H 0.34501 0.62389 0.20179 0.0
H3373 H 0.32808 0.60748 0.21536 0.0
H3374 H 0.34654 0.62278 0.25672 0.0
H3375 H 0.36427 0.63806 0.24317 0.0
H3376 H 0.33186 0.59692 0.26091 0.0
H3377 H 0.29725 0.6368 0.22858 0.0
H3378 H 0.30692 0.62345 0.2175 0.0
H3379 H 0.31718 0.6371 0.22787 0.0
C3380 C 0.34615 0.62286 0.21372 0.0
C3381 C 0.35573 0.63232 0.2215 0.0
C3382 C 0.33635 0.61367 0.22149 0.0
C3383 C 0.33553 0.61458 0.23703 0.0
C3384 C 0.34679 0.62208 0.24472 0.0
H3385 H 0.26227 0.63421 0.29169 0.0
H3386 H 0.28605 0.63189 0.27886 0.0
C3387 C 0.357 0.63078 0.23694 0.0
C3388 C 0.32142 0.61132 0.24487 0.0
H3389 H 0.28542 0.62306 0.24691 0.0
C3390 C 0.32162 0.6024 0.25771 0.0
C3391 C 0.30816 0.6189 0.24094 0.0
C3392 C 0.30733 0.6297 0.22807 0.0
C3393 C 0.30899 0.60108 0.2668 0.0
C3394 C 0.2959 0.60869 0.26279 0.0
C3395 C 0.29554 0.61719 0.2498 0.0
C3396 C 0.28261 0.60906 0.27233 0.0
C3397 C 0.30985 0.59224 0.28101 0.0
C3398 C 0.2729 0.59694 0.2729 0.0
C3399 C 0.25923 0.59824 0.28014 0.0
C3400 C 0.25507 0.61174 0.28679 0.0
C3401 C 0.26505 0.62372 0.28651 0.0
C3402 C 0.27869 0.62239 0.27932 0.0
H3403 H 0.32109 0.58753 0.28291 0.0
H3404 H 0.30687 0.59943 0.29055 0.0
H3405 H 0.3017 0.58301 0.28067 0.0
H3406 H 0.27567 0.58666 0.26734 0.0
H3407 H 0.25181 0.58878 0.28024 0.0
H3408 H 0.85124 0.11003 0.24517 0.0
H3409 H 0.86923 0.12489 0.23129 0.0
H3410 H 0.86249 0.16122 0.26167 0.0
H3411 H 0.84478 0.14641 0.27556 0.0
H3412 H 0.85573 0.14726 0.2182 0.0
H3413 H 0.90338 0.1709 0.24773 0.0
H3414 H 0.89431 0.15412 0.25404 0.0
H3415 H 0.88747 0.17213 0.25958 0.0
C3416 C 0.8543 0.12084 0.24942 0.0
C3417 C 0.84634 0.12725 0.26119 0.0
C3418 C 0.86456 0.12937 0.24142 0.0
C3419 C 0.86708 0.14428 0.24526 0.0
C3420 C 0.86091 0.14974 0.25849 0.0
H3421 H 0.84964 0.2259 0.21157 0.0
H3422 H 0.8544 0.20209 0.22397 0.0
C3423 C 0.85065 0.14127 0.26642 0.0
C3424 C 0.87203 0.15513 0.23386 0.0
H3425 H 0.88992 0.18842 0.23089 0.0
C3426 C 0.86368 0.15594 0.2207 0.0
C3427 C 0.88236 0.16651 0.23703 0.0
C3428 C 0.89247 0.16574 0.25032 0.0
C3429 C 0.86419 0.16854 0.21156 0.0
C3430 C 0.87332 0.18055 0.21565 0.0
C3431 C 0.88277 0.17921 0.22794 0.0
C3432 C 0.87146 0.19521 0.20855 0.0
C3433 C 0.8541 0.16949 0.19824 0.0
C3434 C 0.87959 0.19915 0.19588 0.0
C3435 C 0.87704 0.21283 0.18892 0.0
C3436 C 0.86613 0.22254 0.19441 0.0
C3437 C 0.85802 0.21854 0.2071 0.0
C3438 C 0.86078 0.20502 0.2142 0.0
H3439 H 0.84836 0.15881 0.196 0.0
H3440 H 0.8456 0.17821 0.20011 0.0
H3441 H 0.8606 0.17273 0.18827 0.0
H3442 H 0.88773 0.19158 0.1913 0.0
H3443 H 0.8833 0.21565 0.17904 0.0
H3444 H 0.266 0.35289 0.68375 0.0
H3445 H 0.29086 0.35492 0.69442 0.0
H3446 H 0.27825 0.39561 0.71612 0.0
H3447 H 0.25331 0.39384 0.70512 0.0
H3448 H 0.31176 0.39039 0.70106 0.0
H3449 H 0.28983 0.35004 0.74278 0.0
H3450 H 0.28588 0.34705 0.72344 0.0
H3451 H 0.27766 0.36252 0.73284 0.0
C3452 C 0.26861 0.3624 0.69061 0.0
C3453 C 0.25774 0.37311 0.69384 0.0
C3454 C 0.28282 0.36361 0.69654 0.0
C3455 C 0.28632 0.37542 0.70599 0.0
C3456 C 0.27574 0.38654 0.70867 0.0
H3457 H 0.3465 0.3621 0.77638 0.0
H3458 H 0.33028 0.37734 0.76093 0.0
C3459 C 0.26153 0.38546 0.7025 0.0
C3460 C 0.30005 0.37474 0.71486 0.0
H3461 H 0.31473 0.35691 0.74476 0.0
C3462 C 0.31245 0.38324 0.71074 0.0
C3463 C 0.30086 0.36523 0.7273 0.0
C3464 C 0.28788 0.35568 0.73197 0.0
C3465 C 0.32578 0.38241 0.71888 0.0
C3466 C 0.32652 0.37295 0.73141 0.0
C3467 C 0.31405 0.36447 0.73539 0.0
C3468 C 0.34021 0.37048 0.74019 0.0
C3469 C 0.33892 0.39154 0.71399 0.0
C3470 C 0.35222 0.36295 0.73374 0.0
C3471 C 0.36185 0.35463 0.74265 0.0
C3472 C 0.35918 0.35338 0.75798 0.0
C3473 C 0.34878 0.36289 0.76459 0.0
C3474 C 0.33942 0.37151 0.75573 0.0
H3475 H 0.33549 0.40101 0.70685 0.0
H3476 H 0.34513 0.39585 0.7237 0.0
H3477 H 0.34655 0.38443 0.70745 0.0
H3478 H 0.35301 0.36186 0.7218 0.0
H3479 H 0.36973 0.34731 0.73727 0.0
H3480 H 0.11986 0.84283 0.27565 0.0
H3481 H 0.10612 0.8265 0.25907 0.0
H3482 H 0.11685 0.85499 0.2221 0.0
H3483 H 0.13037 0.87152 0.23868 0.0
H3484 H 0.08568 0.82728 0.22853 0.0
H3485 H 0.14652 0.81577 0.22603 0.0
H3486 H 0.13839 0.82566 0.24138 0.0
H3487 H 0.1402 0.83459 0.22366 0.0
C3488 C 0.11836 0.84621 0.2642 0.0
C3489 C 0.12649 0.8582 0.25838 0.0
C3490 C 0.11056 0.8368 0.25469 0.0
C3491 C 0.11083 0.83937 0.23934 0.0
C3492 C 0.11657 0.85282 0.23394 0.0
H3493 H 0.12397 0.76779 0.17642 0.0
H3494 H 0.12212 0.79233 0.18772 0.0
C3495 C 0.12423 0.86234 0.24349 0.0
C3496 C 0.10951 0.82649 0.2293 0.0
H3497 H 0.13083 0.79942 0.21369 0.0
C3498 C 0.09551 0.82124 0.22509 0.0
C3499 C 0.1224 0.81868 0.2249 0.0
C3500 C 0.13776 0.82384 0.22922 0.0
C3501 C 0.09406 0.80823 0.21657 0.0
C3502 C 0.10695 0.8001 0.21263 0.0
C3503 C 0.12094 0.80561 0.21667 0.0
C3504 C 0.10642 0.78565 0.20469 0.0
C3505 C 0.07876 0.80347 0.21177 0.0
C3506 C 0.09808 0.77369 0.21032 0.0
C3507 C 0.09889 0.75969 0.20364 0.0
C3508 C 0.10841 0.75732 0.19153 0.0
C3509 C 0.11663 0.76929 0.18583 0.0
C3510 C 0.11554 0.78333 0.19226 0.0
H3511 H 0.07107 0.8131 0.2111 0.0
H3512 H 0.07903 0.79789 0.2008 0.0
H3513 H 0.07419 0.79559 0.22008 0.0
H3514 H 0.09135 0.775 0.22017 0.0
H3515 H 0.09255 0.75059 0.20832 0.0
H3516 H 0.71122 0.63086 0.68239 0.0
H3517 H 0.68697 0.62825 0.69442 0.0
H3518 H 0.70229 0.58897 0.71722 0.0
H3519 H 0.72648 0.59126 0.70486 0.0
H3520 H 0.67078 0.58834 0.70578 0.0
H3521 H 0.6854 0.63794 0.73957 0.0
H3522 H 0.68698 0.64 0.7198 0.0
H3523 H 0.69919 0.62752 0.72945 0.0
C3524 C 0.70939 0.62163 0.68992 0.0
C3525 C 0.72077 0.61139 0.6929 0.0
C3526 C 0.69552 0.62009 0.69667 0.0
C3527 C 0.69291 0.60846 0.70674 0.0
C3528 C 0.70408 0.59794 0.70937 0.0
H3529 H 0.63465 0.62091 0.77759 0.0
H3530 H 0.65122 0.60521 0.76315 0.0
C3531 C 0.7179 0.59933 0.70242 0.0
C3532 C 0.67922 0.60833 0.71579 0.0
H3533 H 0.66172 0.62778 0.74298 0.0
C3534 C 0.66876 0.59688 0.71399 0.0
C3535 C 0.67671 0.61949 0.72647 0.0
C3536 C 0.68768 0.6319 0.72908 0.0
C3537 C 0.65569 0.59647 0.72259 0.0
C3538 C 0.65327 0.60765 0.73326 0.0
C3539 C 0.66376 0.61903 0.73498 0.0
C3540 C 0.63968 0.60874 0.74241 0.0
C3541 C 0.64459 0.5842 0.7203 0.0
C3542 C 0.62669 0.61434 0.73588 0.0
C3543 C 0.61694 0.62303 0.74427 0.0
C3544 C 0.62044 0.62644 0.75906 0.0
C3545 C 0.63177 0.61846 0.76619 0.0
C3546 C 0.6413 0.60952 0.75789 0.0
H3547 H 0.64915 0.57511 0.71334 0.0
H3548 H 0.641 0.57955 0.73115 0.0
H3549 H 0.63461 0.58878 0.7147 0.0
H3550 H 0.62522 0.61392 0.72395 0.0
H3551 H 0.60826 0.62909 0.73854 0.0
H3552 H 0.70235 0.85077 0.83738 0.0
H3553 H 0.71688 0.86834 0.82278 0.0
H3554 H 0.75122 0.86754 0.85603 0.0
H3555 H 0.73659 0.85006 0.87082 0.0
H3556 H 0.73987 0.89515 0.82443 0.0
H3557 H 0.76091 0.83697 0.82012 0.0
H3558 H 0.74304 0.841 0.82812 0.0
H3559 H 0.75965 0.84526 0.8382 0.0
C3560 C 0.71254 0.85512 0.84205 0.0
C3561 C 0.71857 0.84884 0.85499 0.0
C3562 C 0.72083 0.8652 0.8337 0.0
C3563 C 0.73525 0.86889 0.83818 0.0
C3564 C 0.74011 0.86475 0.85241 0.0
H3565 H 0.80209 0.86542 0.76909 0.0
H3566 H 0.79116 0.86813 0.79377 0.0
C3567 C 0.73172 0.85476 0.86087 0.0
C3568 C 0.7462 0.8722 0.82645 0.0
H3569 H 0.76907 0.85392 0.80259 0.0
C3570 C 0.74656 0.88629 0.8198 0.0
C3571 C 0.75479 0.86053 0.82041 0.0
C3572 C 0.75462 0.84505 0.82697 0.0
C3573 C 0.75515 0.88893 0.80701 0.0
C3574 C 0.76309 0.87701 0.80049 0.0
C3575 C 0.76307 0.8631 0.80755 0.0
C3576 C 0.77072 0.87813 0.78591 0.0
C3577 C 0.75555 0.90442 0.80063 0.0
C3578 C 0.76307 0.88316 0.77324 0.0
C3579 C 0.76954 0.88202 0.75917 0.0
C3580 C 0.78348 0.87531 0.75754 0.0
C3581 C 0.79125 0.87053 0.77015 0.0
C3582 C 0.78503 0.87212 0.78422 0.0
H3583 H 0.75404 0.91286 0.80947 0.0
H3584 H 0.76616 0.90668 0.79478 0.0
H3585 H 0.74628 0.90577 0.79264 0.0
H3586 H 0.75185 0.88734 0.77411 0.0
H3587 H 0.76336 0.88567 0.74952 0.0
H3588 H 0.5961 0.30325 0.27159 0.0
H3589 H 0.59355 0.29182 0.29636 0.0
H3590 H 0.60455 0.24913 0.2778 0.0
H3591 H 0.60749 0.26056 0.25325 0.0
H3592 H 0.57728 0.26153 0.30815 0.0
H3593 H 0.63899 0.26449 0.30771 0.0
H3594 H 0.62764 0.27623 0.29604 0.0
H3595 H 0.63054 0.25711 0.29125 0.0
C3596 C 0.59749 0.29135 0.27281 0.0
C3597 C 0.60193 0.28268 0.26067 0.0
C3598 C 0.59599 0.28486 0.28688 0.0
C3599 C 0.59879 0.26965 0.28882 0.0
C3600 C 0.60224 0.26087 0.27646 0.0
H3601 H 0.62473 0.20337 0.3414 0.0
H3602 H 0.60576 0.21764 0.32838 0.0
C3603 C 0.60395 0.26737 0.2625 0.0
C3604 C 0.60074 0.26329 0.30381 0.0
H3605 H 0.62789 0.24949 0.32618 0.0
C3606 C 0.58831 0.25908 0.31228 0.0
C3607 C 0.61516 0.26033 0.30918 0.0
C3608 C 0.62888 0.26485 0.30066 0.0
C3609 C 0.59005 0.25108 0.32564 0.0
C3610 C 0.60447 0.24738 0.33045 0.0
C3611 C 0.61682 0.2524 0.32241 0.0
C3612 C 0.60755 0.23682 0.34261 0.0
C3613 C 0.57664 0.24623 0.33435 0.0
C3614 C 0.61358 0.24229 0.35586 0.0
C3615 C 0.62419 0.23395 0.36356 0.0
C3616 C 0.62905 0.22033 0.35776 0.0
C3617 C 0.62113 0.21385 0.34606 0.0
C3618 C 0.61025 0.22202 0.33862 0.0
H3619 H 0.56628 0.25142 0.33012 0.0
H3620 H 0.57555 0.23397 0.33369 0.0
H3621 H 0.57805 0.24915 0.34623 0.0
H3622 H 0.61173 0.25374 0.35904 0.0
H3623 H 0.63021 0.2392 0.37254 0.0
H3624 H 0.17588 0.12431 0.7709 0.0
H3625 H 0.18723 0.12167 0.79543 0.0
H3626 H 0.21925 0.09095 0.77748 0.0
H3627 H 0.20742 0.09301 0.753 0.0
H3628 H 0.21044 0.08411 0.80742 0.0
H3629 H 0.22666 0.14327 0.8 0.0
H3630 H 0.20706 0.13999 0.79907 0.0
H3631 H 0.21908 0.13238 0.78507 0.0
C3632 C 0.18523 0.11686 0.77225 0.0
C3633 C 0.19099 0.10908 0.76006 0.0
C3634 C 0.19165 0.1153 0.78625 0.0
C3635 C 0.20425 0.10634 0.78819 0.0
C3636 C 0.20952 0.09792 0.77621 0.0
H3637 H 0.27526 0.12497 0.8425 0.0
H3638 H 0.26042 0.10822 0.82737 0.0
C3639 C 0.20285 0.09918 0.76224 0.0
C3640 C 0.21299 0.10733 0.80206 0.0
H3641 H 0.23303 0.13193 0.82256 0.0
C3642 C 0.21537 0.09455 0.81079 0.0
C3643 C 0.21952 0.12095 0.80634 0.0
C3644 C 0.2181 0.1349 0.79708 0.0
C3645 C 0.2241 0.09514 0.82375 0.0
C3646 C 0.23053 0.10876 0.8279 0.0
C3647 C 0.228 0.12149 0.81928 0.0
C3648 C 0.2406 0.11052 0.84068 0.0
C3649 C 0.22662 0.08133 0.83287 0.0
C3650 C 0.23479 0.11602 0.85402 0.0
C3651 C 0.2434 0.12541 0.86289 0.0
C3652 C 0.25767 0.12958 0.85817 0.0
C3653 C 0.26427 0.12192 0.84633 0.0
C3654 C 0.25577 0.11233 0.83766 0.0
H3655 H 0.22061 0.07159 0.82832 0.0
H3656 H 0.23867 0.07879 0.83325 0.0
H3657 H 0.22289 0.08328 0.84445 0.0
H3658 H 0.22308 0.11484 0.85647 0.0
H3659 H 0.23804 0.13122 0.87194 0.0
H3660 H 0.36066 0.77538 0.34558 0.0
H3661 H 0.3759 0.76102 0.32847 0.0
H3662 H 0.3623 0.72063 0.35028 0.0
H3663 H 0.34747 0.73501 0.36775 0.0
H3664 H 0.39188 0.72149 0.32871 0.0
H3665 H 0.33671 0.74021 0.3078 0.0
H3666 H 0.34846 0.75417 0.31582 0.0
H3667 H 0.34104 0.73963 0.3273 0.0
C3668 C 0.36191 0.76356 0.3475 0.0
C3669 C 0.35267 0.75624 0.35771 0.0
C3670 C 0.3706 0.75533 0.33766 0.0
C3671 C 0.36983 0.73977 0.33786 0.0
C3672 C 0.36298 0.73263 0.34992 0.0
H3673 H 0.3485 0.68792 0.26117 0.0
H3674 H 0.35084 0.69846 0.28593 0.0
C3675 C 0.35452 0.74091 0.35997 0.0
C3676 C 0.37095 0.73178 0.32359 0.0
H3677 H 0.35159 0.72678 0.29151 0.0
C3678 C 0.38314 0.72259 0.32052 0.0
C3679 C 0.35932 0.73305 0.31311 0.0
C3680 C 0.34557 0.7422 0.31613 0.0
C3681 C 0.38402 0.71472 0.30704 0.0
C3682 C 0.37254 0.71635 0.2964 0.0
C3683 C 0.3604 0.72553 0.29963 0.0
C3684 C 0.37235 0.70845 0.28196 0.0
C3685 C 0.397 0.70447 0.30448 0.0
C3686 C 0.38373 0.71041 0.27146 0.0
C3687 C 0.38249 0.70418 0.25728 0.0
C3688 C 0.36967 0.69624 0.25328 0.0
C3689 C 0.3584 0.6942 0.26384 0.0
C3690 C 0.35978 0.70013 0.27805 0.0
H3691 H 0.40252 0.70135 0.31506 0.0
H3692 H 0.39345 0.69419 0.29872 0.0
H3693 H 0.40531 0.71019 0.29739 0.0
H3694 H 0.39335 0.71711 0.27406 0.0
H3695 H 0.39135 0.70591 0.24933 0.0
H3696 H 0.73234 0.12771 0.1086 0.0
H3697 H 0.74773 0.11068 0.12314 0.0
H3698 H 0.71843 0.1165 0.16062 0.0
H3699 H 0.70266 0.13242 0.14593 0.0
H3700 H 0.76295 0.12084 0.14383 0.0
H3701 H 0.73098 0.07663 0.1705 0.0
H3702 H 0.72367 0.08654 0.15467 0.0
H3703 H 0.72063 0.0933 0.17332 0.0
C3704 C 0.72869 0.12458 0.11963 0.0
C3705 C 0.71645 0.13166 0.12623 0.0
C3706 C 0.73762 0.11496 0.12803 0.0
C3707 C 0.73442 0.11231 0.14311 0.0
C3708 C 0.72113 0.11794 0.149 0.0
H3709 H 0.78356 0.13226 0.21639 0.0
H3710 H 0.77249 0.12936 0.19201 0.0
C3711 C 0.71209 0.12724 0.14056 0.0
C3712 C 0.74607 0.10671 0.15345 0.0
H3713 H 0.74957 0.08921 0.18691 0.0
C3714 C 0.76014 0.11349 0.15297 0.0
C3715 C 0.7428 0.09687 0.16531 0.0
C3716 C 0.72872 0.08783 0.16582 0.0
C3717 C 0.77023 0.11198 0.16472 0.0
C3718 C 0.76598 0.10389 0.17751 0.0
C3719 C 0.75269 0.09578 0.1773 0.0
C3720 C 0.77405 0.10536 0.1918 0.0
C3721 C 0.7851 0.1196 0.16355 0.0
C3722 C 0.77835 0.09281 0.20004 0.0
C3723 C 0.78456 0.09443 0.21421 0.0
C3724 C 0.78643 0.10863 0.2204 0.0
C3725 C 0.78229 0.12115 0.212 0.0
C3726 C 0.77611 0.11952 0.19793 0.0
H3727 H 0.78897 0.11993 0.15184 0.0
H3728 H 0.78402 0.13125 0.16738 0.0
H3729 H 0.79364 0.11392 0.1704 0.0
H3730 H 0.77673 0.08177 0.1956 0.0
H3731 H 0.78767 0.08457 0.22037 0.0
H3732 H 0.34681 0.29625 0.71662 0.0
H3733 H 0.34989 0.28461 0.69234 0.0
H3734 H 0.39513 0.27345 0.70316 0.0
H3735 H 0.39222 0.28507 0.72752 0.0
H3736 H 0.37458 0.28869 0.6682 0.0
H3737 H 0.37089 0.23338 0.69605 0.0
H3738 H 0.36425 0.25001 0.705 0.0
H3739 H 0.38381 0.24694 0.70296 0.0
C3740 C 0.35745 0.2914 0.71383 0.0
C3741 C 0.3692 0.29135 0.72409 0.0
C3742 C 0.35922 0.2849 0.69991 0.0
C3743 C 0.37273 0.27821 0.69604 0.0
C3744 C 0.38464 0.27859 0.706 0.0
H3745 H 0.36209 0.20825 0.63216 0.0
H3746 H 0.37784 0.22505 0.64669 0.0
C3747 C 0.38291 0.28514 0.71993 0.0
C3748 C 0.37363 0.26939 0.68232 0.0
H3749 H 0.3692 0.23395 0.67036 0.0
C3750 C 0.37372 0.27668 0.66855 0.0
C3751 C 0.37282 0.25377 0.68289 0.0
C3752 C 0.37289 0.24546 0.69747 0.0
C3753 C 0.37224 0.2687 0.65526 0.0
C3754 C 0.36995 0.25311 0.65588 0.0
C3755 C 0.37095 0.24584 0.66969 0.0
C3756 C 0.36396 0.24445 0.64316 0.0
C3757 C 0.37292 0.27719 0.64082 0.0
C3758 C 0.35156 0.2499 0.63543 0.0
C3759 C 0.34317 0.24052 0.62653 0.0
C3760 C 0.34656 0.22536 0.62569 0.0
C3761 C 0.35943 0.21997 0.63254 0.0
C3762 C 0.36831 0.22956 0.64092 0.0
H3763 H 0.38146 0.28607 0.64142 0.0
H3764 H 0.37553 0.26988 0.63127 0.0
H3765 H 0.36211 0.28276 0.63885 0.0
H3766 H 0.34743 0.26101 0.63732 0.0
H3767 H 0.33304 0.2448 0.62162 0.0
H3768 H 0.18644 0.89164 0.22073 0.0
H3769 H 0.19891 0.89241 0.19646 0.0
H3770 H 0.20771 0.84542 0.1997 0.0
H3771 H 0.195 0.84447 0.22351 0.0
H3772 H 0.22793 0.88496 0.18909 0.0
H3773 H 0.18873 0.84843 0.15928 0.0
H3774 H 0.18424 0.85661 0.177 0.0
H3775 H 0.19527 0.83994 0.17604 0.0
C3776 C 0.19099 0.88149 0.21619 0.0
C3777 C 0.18963 0.86797 0.22392 0.0
C3778 C 0.19807 0.88194 0.20235 0.0
C3779 C 0.20391 0.86891 0.19615 0.0
C3780 C 0.20286 0.85552 0.20406 0.0
H3781 H 0.26603 0.83231 0.14401 0.0
H3782 H 0.25365 0.84826 0.16206 0.0
C3783 C 0.19565 0.85501 0.21772 0.0
C3784 C 0.21163 0.86912 0.18167 0.0
H3785 H 0.21357 0.85006 0.14913 0.0
C3786 C 0.22461 0.87764 0.18016 0.0
C3787 C 0.20716 0.8597 0.16996 0.0
C3788 C 0.193 0.85078 0.1706 0.0
C3789 C 0.23391 0.87594 0.16777 0.0
C3790 C 0.23003 0.8656 0.15672 0.0
C3791 C 0.21647 0.85804 0.15765 0.0
C3792 C 0.2408 0.86024 0.14567 0.0
C3793 C 0.24818 0.88461 0.16684 0.0
C3794 C 0.23814 0.86224 0.13044 0.0
C3795 C 0.24546 0.85332 0.12007 0.0
C3796 C 0.25511 0.84208 0.12493 0.0
C3797 C 0.25864 0.84096 0.14005 0.0
C3798 C 0.25164 0.8501 0.15034 0.0
H3799 H 0.2481 0.89432 0.17442 0.0
H3800 H 0.25757 0.87728 0.16998 0.0
H3801 H 0.25012 0.88853 0.1553 0.0
H3802 H 0.22963 0.86987 0.1267 0.0
H3803 H 0.24248 0.85421 0.10846 0.0
H3804 H 0.65557 0.75354 0.65193 0.0
H3805 H 0.63704 0.74151 0.66699 0.0
H3806 H 0.60415 0.74868 0.63295 0.0
H3807 H 0.62329 0.7606 0.61712 0.0
H3808 H 0.60869 0.75412 0.67677 0.0
H3809 H 0.60337 0.70252 0.64333 0.0
H3810 H 0.6199 0.71359 0.64098 0.0
H3811 H 0.6023 0.72075 0.63501 0.0
C3812 C 0.64437 0.75292 0.64761 0.0
C3813 C 0.64085 0.75828 0.63338 0.0
C3814 C 0.63377 0.74593 0.65627 0.0
C3815 C 0.61922 0.74428 0.65115 0.0
C3816 C 0.61538 0.74982 0.63705 0.0
H3817 H 0.58349 0.69592 0.72831 0.0
H3818 H 0.58007 0.70995 0.70516 0.0
C3819 C 0.62624 0.75668 0.6281 0.0
C3820 C 0.6088 0.73625 0.66099 0.0
H3821 H 0.6013 0.70009 0.66953 0.0
C3822 C 0.60629 0.74245 0.67505 0.0
C3823 C 0.60579 0.72103 0.65869 0.0
C3824 C 0.60788 0.714 0.64368 0.0
C3825 C 0.60297 0.73344 0.68732 0.0
C3826 C 0.60174 0.71795 0.68533 0.0
C3827 C 0.60234 0.71199 0.67097 0.0
C3828 C 0.60293 0.70782 0.6982 0.0
C3829 C 0.60265 0.74026 0.70259 0.0
C3830 C 0.61687 0.70189 0.70177 0.0
C3831 C 0.61892 0.6941 0.71501 0.0
C3832 C 0.60703 0.692 0.7249 0.0
C3833 C 0.5929 0.69742 0.72097 0.0
C3834 C 0.59088 0.70536 0.70774 0.0
H3835 H 0.60331 0.75258 0.7022 0.0
H3836 H 0.59231 0.73701 0.70845 0.0
H3837 H 0.61216 0.73601 0.70919 0.0
H3838 H 0.62631 0.70378 0.69455 0.0
H3839 H 0.6299 0.68993 0.71761 0.0
H3840 H 0.82865 0.70752 0.83851 0.0
H3841 H 0.81364 0.72192 0.85518 0.0
H3842 H 0.85275 0.74438 0.87134 0.0
H3843 H 0.86792 0.73071 0.85325 0.0
H3844 H 0.80949 0.72764 0.88229 0.0
H3845 H 0.83185 0.77993 0.85739 0.0
H3846 H 0.83748 0.76217 0.8502 0.0
H3847 H 0.84405 0.76831 0.86802 0.0
C3848 C 0.83422 0.71531 0.84577 0.0
C3849 C 0.84944 0.71829 0.84418 0.0
C3850 C 0.82555 0.72357 0.85544 0.0
C3851 C 0.83189 0.73473 0.86424 0.0
C3852 C 0.84744 0.73634 0.86421 0.0
H3853 H 0.75222 0.78384 0.89428 0.0
H3854 H 0.77671 0.77248 0.89776 0.0
C3855 C 0.85617 0.72829 0.85408 0.0
C3856 C 0.82158 0.74535 0.87169 0.0
H3857 H 0.80785 0.78042 0.86671 0.0
C3858 C 0.80932 0.7393 0.87926 0.0
C3859 C 0.82143 0.76069 0.86801 0.0
C3860 C 0.83435 0.76823 0.86044 0.0
C3861 C 0.79615 0.74741 0.88113 0.0
C3862 C 0.79552 0.76225 0.87605 0.0
C3863 C 0.80838 0.76894 0.87035 0.0
C3864 C 0.78114 0.77006 0.8743 0.0
C3865 C 0.78255 0.73958 0.887 0.0
C3866 C 0.77561 0.77262 0.85996 0.0
C3867 C 0.76164 0.779 0.85792 0.0
C3868 C 0.75291 0.78307 0.8702 0.0
C3869 C 0.7586 0.78073 0.88458 0.0
C3870 C 0.7726 0.77427 0.88661 0.0
H3871 H 0.7846 0.72762 0.88925 0.0
H3872 H 0.77889 0.7449 0.89747 0.0
H3873 H 0.77332 0.74054 0.87889 0.0
H3874 H 0.78203 0.76941 0.85032 0.0
H3875 H 0.7577 0.78076 0.8467 0.0
H3876 H 0.86931 0.23608 0.13013 0.0
H3877 H 0.855 0.21988 0.11392 0.0
H3878 H 0.82456 0.25568 0.10495 0.0
H3879 H 0.83845 0.27169 0.12167 0.0
H3880 H 0.82305 0.22736 0.13127 0.0
H3881 H 0.82318 0.21768 0.07027 0.0
H3882 H 0.84018 0.2207 0.08052 0.0
H3883 H 0.82768 0.23586 0.0774 0.0
C3884 C 0.86024 0.24083 0.12381 0.0
C3885 C 0.85466 0.25493 0.12739 0.0
C3886 C 0.85205 0.23153 0.11451 0.0
C3887 C 0.83858 0.23653 0.10852 0.0
C3888 C 0.83495 0.25164 0.1095 0.0
H3889 H 0.75088 0.20536 0.09215 0.0
H3890 H 0.77564 0.21654 0.09111 0.0
C3891 C 0.84289 0.26081 0.11907 0.0
C3892 C 0.82614 0.22598 0.10763 0.0
H3893 H 0.803 0.20779 0.08401 0.0
C3894 C 0.81874 0.22285 0.12098 0.0
C3895 C 0.82057 0.22045 0.09417 0.0
C3896 C 0.82826 0.22375 0.0797 0.0
C3897 C 0.80547 0.21486 0.12119 0.0
C3898 C 0.79975 0.20926 0.10769 0.0
C3899 C 0.80745 0.21201 0.09435 0.0
C3900 C 0.78532 0.20143 0.10716 0.0
C3901 C 0.79732 0.21334 0.1358 0.0
C3902 C 0.78266 0.18901 0.11624 0.0
C3903 C 0.76845 0.18294 0.11717 0.0
C3904 C 0.75682 0.18885 0.10864 0.0
C3905 C 0.7597 0.20064 0.09884 0.0
C3906 C 0.77383 0.20697 0.09821 0.0
H3907 H 0.80103 0.22176 0.14399 0.0
H3908 H 0.78515 0.21453 0.13428 0.0
H3909 H 0.7996 0.20222 0.14062 0.0
H3910 H 0.79147 0.18427 0.12291 0.0
H3911 H 0.76654 0.17368 0.12464 0.0
H3912 H 0.2278 0.36305 0.6258 0.0
H3913 H 0.24022 0.347 0.60749 0.0
H3914 H 0.22664 0.30838 0.63245 0.0
H3915 H 0.21392 0.32391 0.65005 0.0
H3916 H 0.26356 0.3285 0.6146 0.0
H3917 H 0.21892 0.29403 0.59126 0.0
H3918 H 0.21537 0.31203 0.5994 0.0
H3919 H 0.21651 0.29564 0.61091 0.0
C3920 C 0.22702 0.35111 0.62702 0.0
C3921 C 0.2198 0.3448 0.63938 0.0
C3922 C 0.23417 0.34198 0.61661 0.0
C3923 C 0.2341 0.32646 0.61843 0.0
C3924 C 0.22639 0.32025 0.63043 0.0
H3925 H 0.28675 0.2576 0.63067 0.0
H3926 H 0.27459 0.28151 0.62728 0.0
C3927 C 0.21916 0.32924 0.64062 0.0
C3928 C 0.24352 0.31652 0.60934 0.0
H3929 H 0.24257 0.28105 0.59629 0.0
C3930 C 0.25898 0.31836 0.61003 0.0
C3931 C 0.23764 0.30341 0.60306 0.0
C3932 C 0.22118 0.30126 0.60097 0.0
C3933 C 0.26858 0.3066 0.6065 0.0
C3934 C 0.26248 0.29276 0.60238 0.0
C3935 C 0.24721 0.29161 0.59975 0.0
C3936 C 0.27114 0.27887 0.60367 0.0
C3937 C 0.28508 0.30869 0.60823 0.0
C3938 C 0.27295 0.26932 0.59155 0.0
C3939 C 0.2799 0.25553 0.59346 0.0
C3940 C 0.28488 0.25103 0.60759 0.0
C3941 C 0.28302 0.26068 0.61966 0.0
C3942 C 0.27623 0.27445 0.61771 0.0
H3943 H 0.28826 0.32051 0.60668 0.0
H3944 H 0.28843 0.30528 0.61959 0.0
H3945 H 0.29131 0.30178 0.60014 0.0
H3946 H 0.26889 0.27247 0.58067 0.0
H3947 H 0.28124 0.24837 0.58392 0.0
H3948 H 0.21925 0.79002 0.08068 0.0
H3949 H 0.19582 0.77617 0.08156 0.0
H3950 H 0.19595 0.77869 0.12936 0.0
H3951 H 0.21927 0.79229 0.12863 0.0
H3952 H 0.19309 0.75012 0.1183 0.0
H3953 H 0.15281 0.78889 0.09217 0.0
H3954 H 0.1698 0.78586 0.08209 0.0
H3955 H 0.17032 0.79491 0.09979 0.0
C3956 C 0.21413 0.78782 0.09135 0.0
C3957 C 0.22109 0.7922 0.10457 0.0
C3958 C 0.20074 0.77998 0.09183 0.0
C3959 C 0.19413 0.77651 0.10551 0.0
C3960 C 0.20086 0.78129 0.11868 0.0
H3961 H 0.11351 0.74422 0.13791 0.0
H3962 H 0.13108 0.75877 0.12348 0.0
C3963 C 0.21419 0.78906 0.11823 0.0
C3964 C 0.18093 0.76682 0.10634 0.0
H3965 H 0.14396 0.76497 0.0984 0.0
C3966 C 0.18235 0.75327 0.11386 0.0
C3967 C 0.16697 0.77114 0.10068 0.0
C3968 C 0.16475 0.78604 0.09332 0.0
C3969 C 0.17009 0.74405 0.11633 0.0
C3970 C 0.15606 0.74816 0.11042 0.0
C3971 C 0.15474 0.76162 0.10258 0.0
C3972 C 0.14242 0.7397 0.11424 0.0
C3973 C 0.17224 0.73055 0.12612 0.0
C3974 C 0.14187 0.72419 0.11258 0.0
C3975 C 0.13213 0.7158 0.12131 0.0
C3976 C 0.12235 0.72293 0.13109 0.0
C3977 C 0.12093 0.73845 0.13041 0.0
C3978 C 0.13109 0.74681 0.12221 0.0
H3979 H 0.18278 0.73108 0.13249 0.0
H3980 H 0.16298 0.72938 0.13417 0.0
H3981 H 0.17267 0.72045 0.11913 0.0
H3982 H 0.15009 0.7185 0.10592 0.0
H3983 H 0.13336 0.70384 0.12162 0.0
H3984 H 0.77475 0.63346 0.62102 0.0
H3985 H 0.76161 0.64919 0.60328 0.0
H3986 H 0.72058 0.6272 0.61433 0.0
H3987 H 0.73384 0.61095 0.63151 0.0
H3988 H 0.72124 0.64492 0.58506 0.0
H3989 H 0.73918 0.67398 0.6365 0.0
H3990 H 0.75389 0.66616 0.62559 0.0
H3991 H 0.7406 0.65416 0.63444 0.0
C3992 C 0.76316 0.63119 0.61877 0.0
C3993 C 0.75522 0.62122 0.62776 0.0
C3994 C 0.75562 0.64023 0.60866 0.0
C3995 C 0.74007 0.63966 0.6079 0.0
C3996 C 0.73258 0.62787 0.61482 0.0
H3997 H 0.68265 0.71231 0.62184 0.0
H3998 H 0.69342 0.68762 0.61935 0.0
C3999 C 0.7402 0.61854 0.62464 0.0
C4000 C 0.73178 0.65348 0.60469 0.0
H4001 H 0.72491 0.68751 0.61969 0.0
C4002 C 0.72211 0.65432 0.59249 0.0
C4003 C 0.73264 0.66554 0.61471 0.0
C4004 C 0.74202 0.66495 0.62862 0.0
C4005 C 0.71335 0.66708 0.59003 0.0
C4006 C 0.71446 0.67913 0.59998 0.0
C4007 C 0.72419 0.67825 0.61204 0.0
C4008 C 0.70512 0.69258 0.59895 0.0
C4009 C 0.70263 0.66747 0.57722 0.0
C4010 C 0.70772 0.7034 0.58799 0.0
C4011 C 0.70143 0.71758 0.58934 0.0
C4012 C 0.69279 0.72109 0.60183 0.0
C4013 C 0.68949 0.70994 0.61224 0.0
C4014 C 0.69552 0.69581 0.61076 0.0
H4015 H 0.70192 0.65661 0.57145 0.0
H4016 H 0.6914 0.67063 0.58121 0.0
H4017 H 0.70623 0.67604 0.56911 0.0
H4018 H 0.71531 0.70119 0.57894 0.0
H4019 H 0.70408 0.72603 0.58117 0.0
H4020 H 0.13439 0.27628 0.85661 0.0
H4021 H 0.15034 0.26218 0.87335 0.0
H4022 H 0.12553 0.22248 0.86373 0.0
H4023 H 0.10916 0.2367 0.84748 0.0
H4024 H 0.14616 0.22315 0.89252 0.0
H4025 H 0.17046 0.23742 0.83741 0.0
H4026 H 0.164 0.25282 0.84827 0.0
H4027 H 0.15097 0.23945 0.84131 0.0
C4028 C 0.13159 0.26482 0.85901 0.0
C4029 C 0.12081 0.25748 0.85054 0.0
C4030 C 0.14076 0.25673 0.86856 0.0
C4031 C 0.13939 0.24122 0.86936 0.0
C4032 C 0.12682 0.23443 0.86319 0.0
H4033 H 0.21131 0.18201 0.85238 0.0
H4034 H 0.18709 0.19379 0.85466 0.0
C4035 C 0.11741 0.24262 0.8539 0.0
C4036 C 0.15297 0.23222 0.87147 0.0
H4037 H 0.18514 0.22348 0.85356 0.0
C4038 C 0.15475 0.22321 0.88409 0.0
C4039 C 0.16395 0.23208 0.86022 0.0
C4040 C 0.16228 0.24084 0.84597 0.0
C4041 C 0.16743 0.21416 0.88578 0.0
C4042 C 0.17854 0.21436 0.87466 0.0
C4043 C 0.17664 0.22337 0.8621 0.0
C4044 C 0.19214 0.20507 0.87522 0.0
C4045 C 0.16868 0.20421 0.8992 0.0
C4046 C 0.20296 0.20718 0.88624 0.0
C4047 C 0.21689 0.20031 0.88501 0.0
C4048 C 0.22025 0.1915 0.87259 0.0
C4049 C 0.20916 0.18893 0.86196 0.0
C4050 C 0.19526 0.19557 0.8633 0.0
H4051 H 0.15781 0.20274 0.90485 0.0
H4052 H 0.17307 0.19313 0.89606 0.0
H4053 H 0.17653 0.20924 0.90723 0.0
H4054 H 0.20092 0.21469 0.89538 0.0
H4055 H 0.22522 0.20246 0.89338 0.0
H4056 H 0.28894 0.72014 0.34283 0.0
H4057 H 0.27725 0.69573 0.34546 0.0
H4058 H 0.26781 0.70483 0.39143 0.0
H4059 H 0.27954 0.72928 0.38899 0.0
H4060 H 0.2843 0.67266 0.37673 0.0
H4061 H 0.22812 0.69297 0.36051 0.0
H4062 H 0.24444 0.70102 0.3521 0.0
H4063 H 0.24055 0.70436 0.3713 0.0
C4064 C 0.28432 0.71701 0.35349 0.0
C4065 C 0.28514 0.72667 0.3657 0.0
C4066 C 0.27777 0.70302 0.35499 0.0
C4067 C 0.27188 0.69851 0.36867 0.0
C4068 C 0.2725 0.70812 0.38084 0.0
H4069 H 0.20826 0.62927 0.36378 0.0
H4070 H 0.22347 0.64603 0.37864 0.0
C4071 C 0.27913 0.72208 0.37939 0.0
C4072 C 0.26439 0.684 0.36998 0.0
H4073 H 0.23129 0.6674 0.36315 0.0
C4074 C 0.27264 0.67142 0.37401 0.0
C4075 C 0.24922 0.68257 0.36658 0.0
C4076 C 0.23995 0.6959 0.36239 0.0
C4077 C 0.26612 0.65723 0.37428 0.0
C4078 C 0.25104 0.65563 0.37009 0.0
C4079 C 0.24276 0.66845 0.36661 0.0
C4080 C 0.24395 0.641 0.36706 0.0
C4081 C 0.27556 0.64419 0.37893 0.0
C4082 C 0.2507 0.63116 0.35704 0.0
C4083 C 0.24213 0.62088 0.34928 0.0
C4084 C 0.22663 0.62091 0.35085 0.0
C4085 C 0.22021 0.62904 0.36242 0.0
C4086 C 0.22891 0.63879 0.37075 0.0
H4087 H 0.28357 0.64751 0.38769 0.0
H4088 H 0.26876 0.63481 0.38315 0.0
H4089 H 0.28216 0.64035 0.36927 0.0
H4090 H 0.26214 0.63263 0.35369 0.0
H4091 H 0.24731 0.61481 0.34028 0.0
H4092 H 0.74058 0.37051 0.3501 0.0
H4093 H 0.72612 0.35652 0.36839 0.0
H4094 H 0.75791 0.32076 0.36614 0.0
H4095 H 0.77219 0.3346 0.34786 0.0
H4096 H 0.71583 0.33178 0.35436 0.0
H4097 H 0.74083 0.31443 0.4074 0.0
H4098 H 0.74641 0.3312 0.39779 0.0
H4099 H 0.75424 0.3135 0.39272 0.0
C4100 C 0.74493 0.36006 0.35421 0.0
C4101 C 0.75727 0.35342 0.34739 0.0
C4102 C 0.73665 0.35207 0.36466 0.0
C4103 C 0.74083 0.33752 0.36851 0.0
C4104 C 0.7545 0.33199 0.36348 0.0
H4105 H 0.71544 0.2501 0.36682 0.0
H4106 H 0.72647 0.27476 0.37038 0.0
C4107 C 0.76264 0.33987 0.35292 0.0
C4108 C 0.72946 0.32665 0.37333 0.0
H4109 H 0.72559 0.29561 0.39476 0.0
C4110 C 0.7176 0.32417 0.36355 0.0
C4111 C 0.73188 0.31666 0.38519 0.0
C4112 C 0.74397 0.31919 0.39645 0.0
C4113 C 0.70908 0.31119 0.36436 0.0
C4114 C 0.71224 0.30063 0.37556 0.0
C4115 C 0.72326 0.3037 0.38613 0.0
C4116 C 0.70558 0.28562 0.3752 0.0
C4117 C 0.69769 0.30828 0.35242 0.0
C4118 C 0.69023 0.28356 0.37698 0.0
C4119 C 0.68398 0.26949 0.37499 0.0
C4120 C 0.693 0.25739 0.37118 0.0
C4121 C 0.70835 0.25935 0.36977 0.0
C4122 C 0.71462 0.27337 0.37187 0.0
H4123 H 0.69834 0.31651 0.34322 0.0
H4124 H 0.69919 0.297 0.3477 0.0
H4125 H 0.68641 0.30888 0.3573 0.0
H4126 H 0.6831 0.29287 0.37958 0.0
H4127 H 0.67207 0.26813 0.37604 0.0
loop_
_geom_bond_atom_site_label_1
_geom_bond_atom_site_label_2
_geom_bond_distance
_geom_bond_site_symmetry_2
_ccdc_geom_bond_type
Zn0 O3 2.031 . S
Zn0 O5 2.049 . S
Zn0 O10 2.067 . S
Zn1 O2 1.962 . S
Zn1 O4 1.986 . S
Zn1 O6 1.996 . S
Zn1 O9 1.943 . S
O2 Zn1 1.962 . S
O2 C7 1.254 . S
O3 Zn0 2.031 . S
O3 C7 1.269 . S
O4 Zn1 1.986 . S
O4 C11 1.262 . S
O5 Zn0 2.049 . S
O5 C13 1.260 . S
O6 Zn1 1.996 . S
O6 C13 1.257 . S
C7 O2 1.254 . S
C7 O3 1.269 . S
C8 O9 1.249 . S
C8 O10 1.270 . S
O9 Zn1 1.943 . S
O9 C8 1.249 . S
O10 Zn0 2.067 . S
O10 C8 1.270 . S
C11 O4 1.262 . S
C11 O12 1.232 . S
O12 C11 1.232 . S
C13 O5 1.260 . S
C13 O6 1.257 . S
Zn14 O17 2.031 . S
Zn14 O19 2.049 . S
Zn14 O24 2.067 . S
Zn15 O16 1.962 . S
Zn15 O18 1.986 . S
Zn15 O20 1.996 . S
Zn15 O23 1.943 . S
O16 Zn15 1.962 . S
O16 C21 1.254 . S
O17 Zn14 2.031 . S
O17 C21 1.269 . S
O18 Zn15 1.986 . S
O18 C25 1.262 . S
O19 Zn14 2.049 . S
O19 C27 1.260 . S
O20 Zn15 1.996 . S
O20 C27 1.257 . S
C21 O16 1.254 . S
C21 O17 1.269 . S
C22 O23 1.249 . S
C22 O24 1.270 . S
O23 Zn15 1.943 . S
O23 C22 1.249 . S
O24 Zn14 2.067 . S
O24 C22 1.270 . S
C25 O18 1.262 . S
C25 O26 1.232 . S
O26 C25 1.232 . S
C27 O19 1.260 . S
C27 O20 1.257 . S
Zn28 O31 2.031 . S
Zn28 O33 2.049 . S
Zn28 O38 2.067 . S
Zn29 O30 1.962 . S
Zn29 O32 1.986 . S
Zn29 O34 1.996 . S
Zn29 O37 1.943 . S
O30 Zn29 1.962 . S
O30 C35 1.254 . S
O31 Zn28 2.031 . S
O31 C35 1.269 . S
O32 Zn29 1.986 . S
O32 C39 1.262 . S
O33 Zn28 2.049 . S
O33 C41 1.260 . S
O34 Zn29 1.996 . S
O34 C41 1.257 . S
C35 O30 1.254 . S
C35 O31 1.269 . S
C36 O37 1.249 . S
C36 O38 1.270 . S
O37 Zn29 1.943 . S
O37 C36 1.249 . S
O38 Zn28 2.067 . S
O38 C36 1.270 . S
C39 O32 1.262 . S
C39 O40 1.232 . S
O40 C39 1.232 . S
C41 O33 1.260 . S
C41 O34 1.257 . S
Zn42 O45 2.031 . S
Zn42 O47 2.049 . S
Zn42 O52 2.067 . S
Zn43 O44 1.962 . S
Zn43 O46 1.986 . S
Zn43 O48 1.996 . S
Zn43 O51 1.943 . S
O44 Zn43 1.962 . S
O44 C49 1.254 . S
O45 Zn42 2.031 . S
O45 C49 1.269 . S
O46 Zn43 1.986 . S
O46 C53 1.262 . S
O47 Zn42 2.049 . S
O47 C55 1.260 . S
O48 Zn43 1.996 . S
O48 C55 1.257 . S
C49 O44 1.254 . S
C49 O45 1.269 . S
C50 O51 1.249 . S
C50 O52 1.270 . S
O51 Zn43 1.943 . S
O51 C50 1.249 . S
O52 Zn42 2.067 . S
O52 C50 1.270 . S
C53 O46 1.262 . S
C53 O54 1.232 . S
O54 C53 1.232 . S
C55 O47 1.260 . S
C55 O48 1.257 . S
Zn56 O59 2.031 . S
Zn56 O61 2.049 . S
Zn56 O66 2.067 . S
Zn57 O58 1.962 . S
Zn57 O60 1.986 . S
Zn57 O62 1.996 . S
Zn57 O65 1.943 . S
O58 Zn57 1.962 . S
O58 C63 1.254 . S
O59 Zn56 2.031 . S
O59 C63 1.269 . S
O60 Zn57 1.986 . S
O60 C67 1.262 . S
O61 Zn56 2.049 . S
O61 C69 1.260 . S
O62 Zn57 1.996 . S
O62 C69 1.257 . S
C63 O58 1.254 . S
C63 O59 1.269 . S
C64 O65 1.249 . S
C64 O66 1.270 . S
O65 Zn57 1.943 . S
O65 C64 1.249 . S
O66 Zn56 2.067 . S
O66 C64 1.270 . S
C67 O60 1.262 . S
C67 O68 1.232 . S
O68 C67 1.232 . S
C69 O61 1.260 . S
C69 O62 1.257 . S
Zn70 O73 2.031 . S
Zn70 O75 2.049 . S
Zn70 O80 2.067 . S
Zn71 O72 1.962 . S
Zn71 O74 1.986 . S
Zn71 O76 1.996 . S
Zn71 O79 1.943 . S
O72 Zn71 1.962 . S
O72 C77 1.254 . S
O73 Zn70 2.031 . S
O73 C77 1.269 . S
O74 Zn71 1.986 . S
O74 C81 1.262 . S
O75 Zn70 2.049 . S
O75 C83 1.260 . S
O76 Zn71 1.996 . S
O76 C83 1.257 . S
C77 O72 1.254 . S
C77 O73 1.269 . S
C78 O79 1.249 . S
C78 O80 1.270 . S
O79 Zn71 1.943 . S
O79 C78 1.249 . S
O80 Zn70 2.067 . S
O80 C78 1.270 . S
C81 O74 1.262 . S
C81 O82 1.232 . S
O82 C81 1.232 . S
C83 O75 1.260 . S
C83 O76 1.257 . S
Zn84 O87 2.031 . S
Zn84 O89 2.049 . S
Zn84 O94 2.067 . S
Zn85 O86 1.962 . S
Zn85 O88 1.986 . S
Zn85 O90 1.996 . S
Zn85 O93 1.943 . S
O86 Zn85 1.962 . S
O86 C91 1.254 . S
O87 Zn84 2.031 . S
O87 C91 1.269 . S
O88 Zn85 1.986 . S
O88 C95 1.262 . S
O89 Zn84 2.049 . S
O89 C97 1.260 . S
O90 Zn85 1.996 . S
O90 C97 1.257 . S
C91 O86 1.254 . S
C91 O87 1.269 . S
C92 O93 1.249 . S
C92 O94 1.270 . S
O93 Zn85 1.943 . S
O93 C92 1.249 . S
O94 Zn84 2.067 . S
O94 C92 1.270 . S
C95 O88 1.262 . S
C95 O96 1.232 . S
O96 C95 1.232 . S
C97 O89 1.260 . S
C97 O90 1.257 . S
Zn98 O101 2.031 . S
Zn98 O103 2.049 . S
Zn98 O108 2.067 . S
Zn99 O100 1.962 . S
Zn99 O102 1.986 . S
Zn99 O104 1.996 . S
Zn99 O107 1.943 . S
O100 Zn99 1.962 . S
O100 C105 1.254 . S
O101 Zn98 2.031 . S
O101 C105 1.269 . S
O102 Zn99 1.986 . S
O102 C109 1.262 . S
O103 Zn98 2.049 . S
O103 C111 1.260 . S
O104 Zn99 1.996 . S
O104 C111 1.257 . S
C105 O100 1.254 . S
C105 O101 1.269 . S
C106 O107 1.249 . S
C106 O108 1.270 . S
O107 Zn99 1.943 . S
O107 C106 1.249 . S
O108 Zn98 2.067 . S
O108 C106 1.270 . S
C109 O102 1.262 . S
C109 O110 1.232 . S
O110 C109 1.232 . S
C111 O103 1.260 . S
C111 O104 1.257 . S
Zn112 O115 2.031 . S
Zn112 O117 2.049 . S
Zn112 O122 2.067 . S
Zn113 O114 1.962 . S
Zn113 O116 1.986 . S
Zn113 O118 1.996 . S
Zn113 O121 1.943 . S
O114 Zn113 1.962 . S
O114 C119 1.254 . S
O115 Zn112 2.031 . S
O115 C119 1.269 . S
O116 Zn113 1.986 . S
O116 C123 1.262 . S
O117 Zn112 2.049 . S
O117 C125 1.260 . S
O118 Zn113 1.996 . S
O118 C125 1.257 . S
C119 O114 1.254 . S
C119 O115 1.269 . S
C120 O121 1.249 . S
C120 O122 1.270 . S
O121 Zn113 1.943 . S
O121 C120 1.249 . S
O122 Zn112 2.067 . S
O122 C120 1.270 . S
C123 O116 1.262 . S
C123 O124 1.232 . S
O124 C123 1.232 . S
C125 O117 1.260 . S
C125 O118 1.257 . S
Zn126 O129 2.031 . S
Zn126 O131 2.049 . S
Zn126 O136 2.067 . S
Zn127 O128 1.962 . S
Zn127 O130 1.986 . S
Zn127 O132 1.996 . S
Zn127 O135 1.943 . S
O128 Zn127 1.962 . S
O128 C133 1.254 . S
O129 Zn126 2.031 . S
O129 C133 1.269 . S
O130 Zn127 1.986 . S
O130 C137 1.262 . S
O131 Zn126 2.049 . S
O131 C139 1.260 . S
O132 Zn127 1.996 . S
O132 C139 1.257 . S
C133 O128 1.254 . S
C133 O129 1.269 . S
C134 O135 1.249 . S
C134 O136 1.270 . S
O135 Zn127 1.943 . S
O135 C134 1.249 . S
O136 Zn126 2.067 . S
O136 C134 1.270 . S
C137 O130 1.262 . S
C137 O138 1.232 . S
O138 C137 1.232 . S
C139 O131 1.260 . S
C139 O132 1.257 . S
Zn140 O143 2.031 . S
Zn140 O145 2.049 . S
Zn140 O150 2.067 . S
Zn141 O142 1.962 . S
Zn141 O144 1.986 . S
Zn141 O146 1.996 . S
Zn141 O149 1.943 . S
O142 Zn141 1.962 . S
O142 C147 1.254 . S
O143 Zn140 2.031 . S
O143 C147 1.269 . S
O144 Zn141 1.986 . S
O144 C151 1.262 . S
O145 Zn140 2.049 . S
O145 C153 1.260 . S
O146 Zn141 1.996 . S
O146 C153 1.257 . S
C147 O142 1.254 . S
C147 O143 1.269 . S
C148 O149 1.249 . S
C148 O150 1.270 . S
O149 Zn141 1.943 . S
O149 C148 1.249 . S
O150 Zn140 2.067 . S
O150 C148 1.270 . S
C151 O144 1.262 . S
C151 O152 1.232 . S
O152 C151 1.232 . S
C153 O145 1.260 . S
C153 O146 1.257 . S
Zn154 O157 2.031 . S
Zn154 O159 2.049 . S
Zn154 O164 2.067 . S
Zn155 O156 1.962 . S
Zn155 O158 1.986 . S
Zn155 O160 1.996 . S
Zn155 O163 1.943 . S
O156 Zn155 1.962 . S
O156 C161 1.254 . S
O157 Zn154 2.031 . S
O157 C161 1.269 . S
O158 Zn155 1.986 . S
O158 C165 1.262 . S
O159 Zn154 2.049 . S
O159 C167 1.260 . S
O160 Zn155 1.996 . S
O160 C167 1.257 . S
C161 O156 1.254 . S
C161 O157 1.269 . S
C162 O163 1.249 . S
C162 O164 1.270 . S
O163 Zn155 1.943 . S
O163 C162 1.249 . S
O164 Zn154 2.067 . S
O164 C162 1.270 . S
C165 O158 1.262 . S
C165 O166 1.232 . S
O166 C165 1.232 . S
C167 O159 1.260 . S
C167 O160 1.257 . S
Zn168 O171 2.031 . S
Zn168 O173 2.049 . S
Zn168 O178 2.067 . S
Zn169 O170 1.962 . S
Zn169 O172 1.986 . S
Zn169 O174 1.996 . S
Zn169 O177 1.943 . S
O170 Zn169 1.962 . S
O170 C175 1.254 . S
O171 Zn168 2.031 . S
O171 C175 1.269 . S
O172 Zn169 1.986 . S
O172 C179 1.262 . S
O173 Zn168 2.049 . S
O173 C181 1.260 . S
O174 Zn169 1.996 . S
O174 C181 1.257 . S
C175 O170 1.254 . S
C175 O171 1.269 . S
C176 O177 1.249 . S
C176 O178 1.270 . S
O177 Zn169 1.943 . S
O177 C176 1.249 . S
O178 Zn168 2.067 . S
O178 C176 1.270 . S
C179 O172 1.262 . S
C179 O180 1.232 . S
O180 C179 1.232 . S
C181 O173 1.260 . S
C181 O174 1.257 . S
Zn182 O185 2.031 . S
Zn182 O187 2.049 . S
Zn182 O192 2.067 . S
Zn183 O184 1.962 . S
Zn183 O186 1.986 . S
Zn183 O188 1.996 . S
Zn183 O191 1.943 . S
O184 Zn183 1.962 . S
O184 C189 1.254 . S
O185 Zn182 2.031 . S
O185 C189 1.269 . S
O186 Zn183 1.986 . S
O186 C193 1.262 . S
O187 Zn182 2.049 . S
O187 C195 1.260 . S
O188 Zn183 1.996 . S
O188 C195 1.257 . S
C189 O184 1.254 . S
C189 O185 1.269 . S
C190 O191 1.249 . S
C190 O192 1.270 . S
O191 Zn183 1.943 . S
O191 C190 1.249 . S
O192 Zn182 2.067 . S
O192 C190 1.270 . S
C193 O186 1.262 . S
C193 O194 1.232 . S
O194 C193 1.232 . S
C195 O187 1.260 . S
C195 O188 1.257 . S
Zn196 O199 2.031 . S
Zn196 O201 2.049 . S
Zn196 O206 2.067 . S
Zn197 O198 1.962 . S
Zn197 O200 1.986 . S
Zn197 O202 1.996 . S
Zn197 O205 1.943 . S
O198 Zn197 1.962 . S
O198 C203 1.254 . S
O199 Zn196 2.031 . S
O199 C203 1.269 . S
O200 Zn197 1.986 . S
O200 C207 1.262 . S
O201 Zn196 2.049 . S
O201 C209 1.260 . S
O202 Zn197 1.996 . S
O202 C209 1.257 . S
C203 O198 1.254 . S
C203 O199 1.269 . S
C204 O205 1.249 . S
C204 O206 1.270 . S
O205 Zn197 1.943 . S
O205 C204 1.249 . S
O206 Zn196 2.067 . S
O206 C204 1.270 . S
C207 O200 1.262 . S
C207 O208 1.232 . S
O208 C207 1.232 . S
C209 O201 1.260 . S
C209 O202 1.257 . S
Zn210 O213 2.031 . S
Zn210 O215 2.049 . S
Zn210 O220 2.067 . S
Zn211 O212 1.962 . S
Zn211 O214 1.986 . S
Zn211 O216 1.996 . S
Zn211 O219 1.943 . S
O212 Zn211 1.962 . S
O212 C217 1.254 . S
O213 Zn210 2.031 . S
O213 C217 1.269 . S
O214 Zn211 1.986 . S
O214 C221 1.262 . S
O215 Zn210 2.049 . S
O215 C223 1.260 . S
O216 Zn211 1.996 . S
O216 C223 1.257 . S
C217 O212 1.254 . S
C217 O213 1.269 . S
C218 O219 1.249 . S
C218 O220 1.270 . S
O219 Zn211 1.943 . S
O219 C218 1.249 . S
O220 Zn210 2.067 . S
O220 C218 1.270 . S
C221 O214 1.262 . S
C221 O222 1.232 . S
O222 C221 1.232 . S
C223 O215 1.260 . S
C223 O216 1.257 . S
Zn224 O227 2.031 . S
Zn224 O229 2.049 . S
Zn224 O234 2.067 . S
Zn225 O226 1.962 . S
Zn225 O228 1.986 . S
Zn225 O230 1.996 . S
Zn225 O233 1.943 . S
O226 Zn225 1.962 . S
O226 C231 1.254 . S
O227 Zn224 2.031 . S
O227 C231 1.269 . S
O228 Zn225 1.986 . S
O228 C235 1.262 . S
O229 Zn224 2.049 . S
O229 C237 1.260 . S
O230 Zn225 1.996 . S
O230 C237 1.257 . S
C231 O226 1.254 . S
C231 O227 1.269 . S
C232 O233 1.249 . S
C232 O234 1.270 . S
O233 Zn225 1.943 . S
O233 C232 1.249 . S
O234 Zn224 2.067 . S
O234 C232 1.270 . S
C235 O228 1.262 . S
C235 O236 1.232 . S
O236 C235 1.232 . S
C237 O229 1.260 . S
C237 O230 1.257 . S
Zn238 O241 2.031 . S
Zn238 O243 2.049 . S
Zn238 O248 2.067 . S
Zn239 O240 1.962 . S
Zn239 O242 1.986 . S
Zn239 O244 1.996 . S
Zn239 O247 1.943 . S
O240 Zn239 1.962 . S
O240 C245 1.254 . S
O241 Zn238 2.031 . S
O241 C245 1.269 . S
O242 Zn239 1.986 . S
O242 C249 1.262 . S
O243 Zn238 2.049 . S
O243 C251 1.260 . S
O244 Zn239 1.996 . S
O244 C251 1.257 . S
C245 O240 1.254 . S
C245 O241 1.269 . S
C246 O247 1.249 . S
C246 O248 1.270 . S
O247 Zn239 1.943 . S
O247 C246 1.249 . S
O248 Zn238 2.067 . S
O248 C246 1.270 . S
C249 O242 1.262 . S
C249 O250 1.232 . S
O250 C249 1.232 . S
C251 O243 1.260 . S
C251 O244 1.257 . S
Zn252 O255 2.031 . S
Zn252 O257 2.049 . S
Zn252 O262 2.067 . S
Zn253 O254 1.962 . S
Zn253 O256 1.986 . S
Zn253 O258 1.996 . S
Zn253 O261 1.943 . S
O254 Zn253 1.962 . S
O254 C259 1.254 . S
O255 Zn252 2.031 . S
O255 C259 1.269 . S
O256 Zn253 1.986 . S
O256 C263 1.262 . S
O257 Zn252 2.049 . S
O257 C265 1.260 . S
O258 Zn253 1.996 . S
O258 C265 1.257 . S
C259 O254 1.254 . S
C259 O255 1.269 . S
C260 O261 1.249 . S
C260 O262 1.270 . S
O261 Zn253 1.943 . S
O261 C260 1.249 . S
O262 Zn252 2.067 . S
O262 C260 1.270 . S
C263 O256 1.262 . S
C263 O264 1.232 . S
O264 C263 1.232 . S
C265 O257 1.260 . S
C265 O258 1.257 . S
Zn266 O269 2.031 . S
Zn266 O271 2.049 . S
Zn266 O276 2.067 . S
Zn267 O268 1.962 . S
Zn267 O270 1.986 . S
Zn267 O272 1.996 . S
Zn267 O275 1.943 . S
O268 Zn267 1.962 . S
O268 C273 1.254 . S
O269 Zn266 2.031 . S
O269 C273 1.269 . S
O270 Zn267 1.986 . S
O270 C277 1.262 . S
O271 Zn266 2.049 . S
O271 C279 1.260 . S
O272 Zn267 1.996 . S
O272 C279 1.257 . S
C273 O268 1.254 . S
C273 O269 1.269 . S
C274 O275 1.249 . S
C274 O276 1.270 . S
O275 Zn267 1.943 . S
O275 C274 1.249 . S
O276 Zn266 2.067 . S
O276 C274 1.270 . S
C277 O270 1.262 . S
C277 O278 1.232 . S
O278 C277 1.232 . S
C279 O271 1.260 . S
C279 O272 1.257 . S
Zn280 O283 2.031 . S
Zn280 O285 2.049 . S
Zn280 O290 2.067 . S
Zn281 O282 1.962 . S
Zn281 O284 1.986 . S
Zn281 O286 1.996 . S
Zn281 O289 1.943 . S
O282 Zn281 1.962 . S
O282 C287 1.254 . S
O283 Zn280 2.031 . S
O283 C287 1.269 . S
O284 Zn281 1.986 . S
O284 C291 1.262 . S
O285 Zn280 2.049 . S
O285 C293 1.260 . S
O286 Zn281 1.996 . S
O286 C293 1.257 . S
C287 O282 1.254 . S
C287 O283 1.269 . S
C288 O289 1.249 . S
C288 O290 1.270 . S
O289 Zn281 1.943 . S
O289 C288 1.249 . S
O290 Zn280 2.067 . S
O290 C288 1.270 . S
C291 O284 1.262 . S
C291 O292 1.232 . S
O292 C291 1.232 . S
C293 O285 1.260 . S
C293 O286 1.257 . S
Zn294 O297 2.031 . S
Zn294 O299 2.049 . S
Zn294 O304 2.067 . S
Zn295 O296 1.962 . S
Zn295 O298 1.986 . S
Zn295 O300 1.996 . S
Zn295 O303 1.943 . S
O296 Zn295 1.962 . S
O296 C301 1.254 . S
O297 Zn294 2.031 . S
O297 C301 1.269 . S
O298 Zn295 1.986 . S
O298 C305 1.262 . S
O299 Zn294 2.049 . S
O299 C307 1.260 . S
O300 Zn295 1.996 . S
O300 C307 1.257 . S
C301 O296 1.254 . S
C301 O297 1.269 . S
C302 O303 1.249 . S
C302 O304 1.270 . S
O303 Zn295 1.943 . S
O303 C302 1.249 . S
O304 Zn294 2.067 . S
O304 C302 1.270 . S
C305 O298 1.262 . S
C305 O306 1.232 . S
O306 C305 1.232 . S
C307 O299 1.260 . S
C307 O300 1.257 . S
Zn308 O311 2.031 . S
Zn308 O313 2.049 . S
Zn308 O318 2.067 . S
Zn309 O310 1.962 . S
Zn309 O312 1.986 . S
Zn309 O314 1.996 . S
Zn309 O317 1.943 . S
O310 Zn309 1.962 . S
O310 C315 1.254 . S
O311 Zn308 2.031 . S
O311 C315 1.269 . S
O312 Zn309 1.986 . S
O312 C319 1.262 . S
O313 Zn308 2.049 . S
O313 C321 1.260 . S
O314 Zn309 1.996 . S
O314 C321 1.257 . S
C315 O310 1.254 . S
C315 O311 1.269 . S
C316 O317 1.249 . S
C316 O318 1.270 . S
O317 Zn309 1.943 . S
O317 C316 1.249 . S
O318 Zn308 2.067 . S
O318 C316 1.270 . S
C319 O312 1.262 . S
C319 O320 1.232 . S
O320 C319 1.232 . S
C321 O313 1.260 . S
C321 O314 1.257 . S
Zn322 O325 2.031 . S
Zn322 O327 2.049 . S
Zn322 O332 2.067 . S
Zn323 O324 1.962 . S
Zn323 O326 1.986 . S
Zn323 O328 1.996 . S
Zn323 O331 1.943 . S
O324 Zn323 1.962 . S
O324 C329 1.254 . S
O325 Zn322 2.031 . S
O325 C329 1.269 . S
O326 Zn323 1.986 . S
O326 C333 1.262 . S
O327 Zn322 2.049 . S
O327 C335 1.260 . S
O328 Zn323 1.996 . S
O328 C335 1.257 . S
C329 O324 1.254 . S
C329 O325 1.269 . S
C330 O331 1.249 . S
C330 O332 1.270 . S
O331 Zn323 1.943 . S
O331 C330 1.249 . S
O332 Zn322 2.067 . S
O332 C330 1.270 . S
C333 O326 1.262 . S
C333 O334 1.232 . S
O334 C333 1.232 . S
C335 O327 1.260 . S
C335 O328 1.257 . S
Zn336 O339 2.031 . S
Zn336 O341 2.049 . S
Zn336 O346 2.067 . S
Zn337 O338 1.962 . S
Zn337 O340 1.986 . S
Zn337 O342 1.996 . S
Zn337 O345 1.943 . S
O338 Zn337 1.962 . S
O338 C343 1.254 . S
O339 Zn336 2.031 . S
O339 C343 1.269 . S
O340 Zn337 1.986 . S
O340 C347 1.262 . S
O341 Zn336 2.049 . S
O341 C349 1.260 . S
O342 Zn337 1.996 . S
O342 C349 1.257 . S
C343 O338 1.254 . S
C343 O339 1.269 . S
C344 O345 1.249 . S
C344 O346 1.270 . S
O345 Zn337 1.943 . S
O345 C344 1.249 . S
O346 Zn336 2.067 . S
O346 C344 1.270 . S
C347 O340 1.262 . S
C347 O348 1.232 . S
O348 C347 1.232 . S
C349 O341 1.260 . S
C349 O342 1.257 . S
Zn350 O353 2.031 . S
Zn350 O355 2.049 . S
Zn350 O360 2.067 . S
Zn351 O352 1.962 . S
Zn351 O354 1.986 . S
Zn351 O356 1.996 . S
Zn351 O359 1.943 . S
O352 Zn351 1.962 . S
O352 C357 1.254 . S
O353 Zn350 2.031 . S
O353 C357 1.269 . S
O354 Zn351 1.986 . S
O354 C361 1.262 . S
O355 Zn350 2.049 . S
O355 C363 1.260 . S
O356 Zn351 1.996 . S
O356 C363 1.257 . S
C357 O352 1.254 . S
C357 O353 1.269 . S
C358 O359 1.249 . S
C358 O360 1.270 . S
O359 Zn351 1.943 . S
O359 C358 1.249 . S
O360 Zn350 2.067 . S
O360 C358 1.270 . S
C361 O354 1.262 . S
C361 O362 1.232 . S
O362 C361 1.232 . S
C363 O355 1.260 . S
C363 O356 1.257 . S
Zn364 O367 2.031 . S
Zn364 O369 2.049 . S
Zn364 O374 2.067 . S
Zn365 O366 1.962 . S
Zn365 O368 1.986 . S
Zn365 O370 1.996 . S
Zn365 O373 1.943 . S
O366 Zn365 1.962 . S
O366 C371 1.254 . S
O367 Zn364 2.031 . S
O367 C371 1.269 . S
O368 Zn365 1.986 . S
O368 C375 1.262 . S
O369 Zn364 2.049 . S
O369 C377 1.260 . S
O370 Zn365 1.996 . S
O370 C377 1.257 . S
C371 O366 1.254 . S
C371 O367 1.269 . S
C372 O373 1.249 . S
C372 O374 1.270 . S
O373 Zn365 1.943 . S
O373 C372 1.249 . S
O374 Zn364 2.067 . S
O374 C372 1.270 . S
C375 O368 1.262 . S
C375 O376 1.232 . S
O376 C375 1.232 . S
C377 O369 1.260 . S
C377 O370 1.257 . S
Zn378 O381 2.031 . S
Zn378 O383 2.049 . S
Zn378 O388 2.067 . S
Zn379 O380 1.962 . S
Zn379 O382 1.986 . S
Zn379 O384 1.996 . S
Zn379 O387 1.943 . S
O380 Zn379 1.962 . S
O380 C385 1.254 . S
O381 Zn378 2.031 . S
O381 C385 1.269 . S
O382 Zn379 1.986 . S
O382 C389 1.262 . S
O383 Zn378 2.049 . S
O383 C391 1.260 . S
O384 Zn379 1.996 . S
O384 C391 1.257 . S
C385 O380 1.254 . S
C385 O381 1.269 . S
C386 O387 1.249 . S
C386 O388 1.270 . S
O387 Zn379 1.943 . S
O387 C386 1.249 . S
O388 Zn378 2.067 . S
O388 C386 1.270 . S
C389 O382 1.262 . S
C389 O390 1.232 . S
O390 C389 1.232 . S
C391 O383 1.260 . S
C391 O384 1.257 . S
Zn392 O395 2.031 . S
Zn392 O397 2.049 . S
Zn392 O402 2.067 . S
Zn393 O394 1.962 . S
Zn393 O396 1.986 . S
Zn393 O398 1.996 . S
Zn393 O401 1.943 . S
O394 Zn393 1.962 . S
O394 C399 1.254 . S
O395 Zn392 2.031 . S
O395 C399 1.269 . S
O396 Zn393 1.986 . S
O396 C403 1.262 . S
O397 Zn392 2.049 . S
O397 C405 1.260 . S
O398 Zn393 1.996 . S
O398 C405 1.257 . S
C399 O394 1.254 . S
C399 O395 1.269 . S
C400 O401 1.249 . S
C400 O402 1.270 . S
O401 Zn393 1.943 . S
O401 C400 1.249 . S
O402 Zn392 2.067 . S
O402 C400 1.270 . S
C403 O396 1.262 . S
C403 O404 1.232 . S
O404 C403 1.232 . S
C405 O397 1.260 . S
C405 O398 1.257 . S
Zn406 O409 2.031 . S
Zn406 O411 2.049 . S
Zn406 O416 2.067 . S
Zn407 O408 1.962 . S
Zn407 O410 1.986 . S
Zn407 O412 1.996 . S
Zn407 O415 1.943 . S
O408 Zn407 1.962 . S
O408 C413 1.254 . S
O409 Zn406 2.031 . S
O409 C413 1.269 . S
O410 Zn407 1.986 . S
O410 C417 1.262 . S
O411 Zn406 2.049 . S
O411 C419 1.260 . S
O412 Zn407 1.996 . S
O412 C419 1.257 . S
C413 O408 1.254 . S
C413 O409 1.269 . S
C414 O415 1.249 . S
C414 O416 1.270 . S
O415 Zn407 1.943 . S
O415 C414 1.249 . S
O416 Zn406 2.067 . S
O416 C414 1.270 . S
C417 O410 1.262 . S
C417 O418 1.232 . S
O418 C417 1.232 . S
C419 O411 1.260 . S
C419 O412 1.257 . S
Zn420 O423 2.031 . S
Zn420 O425 2.049 . S
Zn420 O430 2.067 . S
Zn421 O422 1.962 . S
Zn421 O424 1.986 . S
Zn421 O426 1.996 . S
Zn421 O429 1.943 . S
O422 Zn421 1.962 . S
O422 C427 1.254 . S
O423 Zn420 2.031 . S
O423 C427 1.269 . S
O424 Zn421 1.986 . S
O424 C431 1.262 . S
O425 Zn420 2.049 . S
O425 C433 1.260 . S
O426 Zn421 1.996 . S
O426 C433 1.257 . S
C427 O422 1.254 . S
C427 O423 1.269 . S
C428 O429 1.249 . S
C428 O430 1.270 . S
O429 Zn421 1.943 . S
O429 C428 1.249 . S
O430 Zn420 2.067 . S
O430 C428 1.270 . S
C431 O424 1.262 . S
C431 O432 1.232 . S
O432 C431 1.232 . S
C433 O425 1.260 . S
C433 O426 1.257 . S
Zn434 O437 2.031 . S
Zn434 O439 2.049 . S
Zn434 O444 2.067 . S
Zn435 O436 1.962 . S
Zn435 O438 1.986 . S
Zn435 O440 1.996 . S
Zn435 O443 1.943 . S
O436 Zn435 1.962 . S
O436 C441 1.254 . S
O437 Zn434 2.031 . S
O437 C441 1.269 . S
O438 Zn435 1.986 . S
O438 C445 1.262 . S
O439 Zn434 2.049 . S
O439 C447 1.260 . S
O440 Zn435 1.996 . S
O440 C447 1.257 . S
C441 O436 1.254 . S
C441 O437 1.269 . S
C442 O443 1.249 . S
C442 O444 1.270 . S
O443 Zn435 1.943 . S
O443 C442 1.249 . S
O444 Zn434 2.067 . S
O444 C442 1.270 . S
C445 O438 1.262 . S
C445 O446 1.232 . S
O446 C445 1.232 . S
C447 O439 1.260 . S
C447 O440 1.257 . S
Zn448 O451 2.031 . S
Zn448 O453 2.049 . S
Zn448 O458 2.067 . S
Zn449 O450 1.962 . S
Zn449 O452 1.986 . S
Zn449 O454 1.996 . S
Zn449 O457 1.943 . S
O450 Zn449 1.962 . S
O450 C455 1.254 . S
O451 Zn448 2.031 . S
O451 C455 1.269 . S
O452 Zn449 1.986 . S
O452 C459 1.262 . S
O453 Zn448 2.049 . S
O453 C461 1.260 . S
O454 Zn449 1.996 . S
O454 C461 1.257 . S
C455 O450 1.254 . S
C455 O451 1.269 . S
C456 O457 1.249 . S
C456 O458 1.270 . S
O457 Zn449 1.943 . S
O457 C456 1.249 . S
O458 Zn448 2.067 . S
O458 C456 1.270 . S
C459 O452 1.262 . S
C459 O460 1.232 . S
O460 C459 1.232 . S
C461 O453 1.260 . S
C461 O454 1.257 . S
Zn462 O465 2.031 . S
Zn462 O467 2.049 . S
Zn462 O472 2.067 . S
Zn463 O464 1.962 . S
Zn463 O466 1.986 . S
Zn463 O468 1.996 . S
Zn463 O471 1.943 . S
O464 Zn463 1.962 . S
O464 C469 1.254 . S
O465 Zn462 2.031 . S
O465 C469 1.269 . S
O466 Zn463 1.986 . S
O466 C473 1.262 . S
O467 Zn462 2.049 . S
O467 C475 1.260 . S
O468 Zn463 1.996 . S
O468 C475 1.257 . S
C469 O464 1.254 . S
C469 O465 1.269 . S
C470 O471 1.249 . S
C470 O472 1.270 . S
O471 Zn463 1.943 . S
O471 C470 1.249 . S
O472 Zn462 2.067 . S
O472 C470 1.270 . S
C473 O466 1.262 . S
C473 O474 1.232 . S
O474 C473 1.232 . S
C475 O467 1.260 . S
C475 O468 1.257 . S
Zn476 O479 2.031 . S
Zn476 O481 2.049 . S
Zn476 O486 2.067 . S
Zn477 O478 1.962 . S
Zn477 O480 1.986 . S
Zn477 O482 1.996 . S
Zn477 O485 1.943 . S
O478 Zn477 1.962 . S
O478 C483 1.254 . S
O479 Zn476 2.031 . S
O479 C483 1.269 . S
O480 Zn477 1.986 . S
O480 C487 1.262 . S
O481 Zn476 2.049 . S
O481 C489 1.260 . S
O482 Zn477 1.996 . S
O482 C489 1.257 . S
C483 O478 1.254 . S
C483 O479 1.269 . S
C484 O485 1.249 . S
C484 O486 1.270 . S
O485 Zn477 1.943 . S
O485 C484 1.249 . S
O486 Zn476 2.067 . S
O486 C484 1.270 . S
C487 O480 1.262 . S
C487 O488 1.232 . S
O488 C487 1.232 . S
C489 O481 1.260 . S
C489 O482 1.257 . S
Zn490 O493 2.031 . S
Zn490 O495 2.049 . S
Zn490 O500 2.067 . S
Zn491 O492 1.962 . S
Zn491 O494 1.986 . S
Zn491 O496 1.996 . S
Zn491 O499 1.943 . S
O492 Zn491 1.962 . S
O492 C497 1.254 . S
O493 Zn490 2.031 . S
O493 C497 1.269 . S
O494 Zn491 1.986 . S
O494 C501 1.262 . S
O495 Zn490 2.049 . S
O495 C503 1.260 . S
O496 Zn491 1.996 . S
O496 C503 1.257 . S
C497 O492 1.254 . S
C497 O493 1.269 . S
C498 O499 1.249 . S
C498 O500 1.270 . S
O499 Zn491 1.943 . S
O499 C498 1.249 . S
O500 Zn490 2.067 . S
O500 C498 1.270 . S
C501 O494 1.262 . S
C501 O502 1.232 . S
O502 C501 1.232 . S
C503 O495 1.260 . S
C503 O496 1.257 . S
Zn504 O507 2.031 . S
Zn504 O509 2.049 . S
Zn504 O514 2.067 . S
Zn505 O506 1.962 . S
Zn505 O508 1.986 . S
Zn505 O510 1.996 . S
Zn505 O513 1.943 . S
O506 Zn505 1.962 . S
O506 C511 1.254 . S
O507 Zn504 2.031 . S
O507 C511 1.269 . S
O508 Zn505 1.986 . S
O508 C515 1.262 . S
O509 Zn504 2.049 . S
O509 C517 1.260 . S
O510 Zn505 1.996 . S
O510 C517 1.257 . S
C511 O506 1.254 . S
C511 O507 1.269 . S
C512 O513 1.249 . S
C512 O514 1.270 . S
O513 Zn505 1.943 . S
O513 C512 1.249 . S
O514 Zn504 2.067 . S
O514 C512 1.270 . S
C515 O508 1.262 . S
C515 O516 1.232 . S
O516 C515 1.232 . S
C517 O509 1.260 . S
C517 O510 1.257 . S
Zn518 O521 2.031 . S
Zn518 O523 2.049 . S
Zn518 O528 2.067 . S
Zn519 O520 1.962 . S
Zn519 O522 1.986 . S
Zn519 O524 1.996 . S
Zn519 O527 1.943 . S
O520 Zn519 1.962 . S
O520 C525 1.254 . S
O521 Zn518 2.031 . S
O521 C525 1.269 . S
O522 Zn519 1.986 . S
O522 C529 1.262 . S
O523 Zn518 2.049 . S
O523 C531 1.260 . S
O524 Zn519 1.996 . S
O524 C531 1.257 . S
C525 O520 1.254 . S
C525 O521 1.269 . S
C526 O527 1.249 . S
C526 O528 1.270 . S
O527 Zn519 1.943 . S
O527 C526 1.249 . S
O528 Zn518 2.067 . S
O528 C526 1.270 . S
C529 O522 1.262 . S
C529 O530 1.232 . S
O530 C529 1.232 . S
C531 O523 1.260 . S
C531 O524 1.257 . S
Zn532 O535 2.031 . S
Zn532 O537 2.049 . S
Zn532 O542 2.067 . S
Zn533 O534 1.962 . S
Zn533 O536 1.986 . S
Zn533 O538 1.996 . S
Zn533 O541 1.943 . S
O534 Zn533 1.962 . S
O534 C539 1.254 . S
O535 Zn532 2.031 . S
O535 C539 1.269 . S
O536 Zn533 1.986 . S
O536 C543 1.262 . S
O537 Zn532 2.049 . S
O537 C545 1.260 . S
O538 Zn533 1.996 . S
O538 C545 1.257 . S
C539 O534 1.254 . S
C539 O535 1.269 . S
C540 O541 1.249 . S
C540 O542 1.270 . S
O541 Zn533 1.943 . S
O541 C540 1.249 . S
O542 Zn532 2.067 . S
O542 C540 1.270 . S
C543 O536 1.262 . S
C543 O544 1.232 . S
O544 C543 1.232 . S
C545 O537 1.260 . S
C545 O538 1.257 . S
Zn546 O549 2.031 . S
Zn546 O551 2.049 . S
Zn546 O556 2.067 . S
Zn547 O548 1.962 . S
Zn547 O550 1.986 . S
Zn547 O552 1.996 . S
Zn547 O555 1.943 . S
O548 Zn547 1.962 . S
O548 C553 1.254 . S
O549 Zn546 2.031 . S
O549 C553 1.269 . S
O550 Zn547 1.986 . S
O550 C557 1.262 . S
O551 Zn546 2.049 . S
O551 C559 1.260 . S
O552 Zn547 1.996 . S
O552 C559 1.257 . S
C553 O548 1.254 . S
C553 O549 1.269 . S
C554 O555 1.249 . S
C554 O556 1.270 . S
O555 Zn547 1.943 . S
O555 C554 1.249 . S
O556 Zn546 2.067 . S
O556 C554 1.270 . S
C557 O550 1.262 . S
C557 O558 1.232 . S
O558 C557 1.232 . S
C559 O551 1.260 . S
C559 O552 1.257 . S
Zn560 O563 2.031 . S
Zn560 O565 2.049 . S
Zn560 O570 2.067 . S
Zn561 O562 1.962 . S
Zn561 O564 1.986 . S
Zn561 O566 1.996 . S
Zn561 O569 1.943 . S
O562 Zn561 1.962 . S
O562 C567 1.254 . S
O563 Zn560 2.031 . S
O563 C567 1.269 . S
O564 Zn561 1.986 . S
O564 C571 1.262 . S
O565 Zn560 2.049 . S
O565 C573 1.260 . S
O566 Zn561 1.996 . S
O566 C573 1.257 . S
C567 O562 1.254 . S
C567 O563 1.269 . S
C568 O569 1.249 . S
C568 O570 1.270 . S
O569 Zn561 1.943 . S
O569 C568 1.249 . S
O570 Zn560 2.067 . S
O570 C568 1.270 . S
C571 O564 1.262 . S
C571 O572 1.232 . S
O572 C571 1.232 . S
C573 O565 1.260 . S
C573 O566 1.257 . S
Zn574 O577 2.031 . S
Zn574 O579 2.049 . S
Zn574 O584 2.067 . S
Zn575 O576 1.962 . S
Zn575 O578 1.986 . S
Zn575 O580 1.996 . S
Zn575 O583 1.943 . S
O576 Zn575 1.962 . S
O576 C581 1.254 . S
O577 Zn574 2.031 . S
O577 C581 1.269 . S
O578 Zn575 1.986 . S
O578 C585 1.262 . S
O579 Zn574 2.049 . S
O579 C587 1.260 . S
O580 Zn575 1.996 . S
O580 C587 1.257 . S
C581 O576 1.254 . S
C581 O577 1.269 . S
C582 O583 1.249 . S
C582 O584 1.270 . S
O583 Zn575 1.943 . S
O583 C582 1.249 . S
O584 Zn574 2.067 . S
O584 C582 1.270 . S
C585 O578 1.262 . S
C585 O586 1.232 . S
O586 C585 1.232 . S
C587 O579 1.260 . S
C587 O580 1.257 . S
Zn588 O591 2.031 . S
Zn588 O593 2.049 . S
Zn588 O598 2.067 . S
Zn589 O590 1.962 . S
Zn589 O592 1.986 . S
Zn589 O594 1.996 . S
Zn589 O597 1.943 . S
O590 Zn589 1.962 . S
O590 C595 1.254 . S
O591 Zn588 2.031 . S
O591 C595 1.269 . S
O592 Zn589 1.986 . S
O592 C599 1.262 . S
O593 Zn588 2.049 . S
O593 C601 1.260 . S
O594 Zn589 1.996 . S
O594 C601 1.257 . S
C595 O590 1.254 . S
C595 O591 1.269 . S
C596 O597 1.249 . S
C596 O598 1.270 . S
O597 Zn589 1.943 . S
O597 C596 1.249 . S
O598 Zn588 2.067 . S
O598 C596 1.270 . S
C599 O592 1.262 . S
C599 O600 1.232 . S
O600 C599 1.232 . S
C601 O593 1.260 . S
C601 O594 1.257 . S
Zn602 O605 2.031 . S
Zn602 O607 2.049 . S
Zn602 O612 2.067 . S
Zn603 O604 1.962 . S
Zn603 O606 1.986 . S
Zn603 O608 1.996 . S
Zn603 O611 1.943 . S
O604 Zn603 1.962 . S
O604 C609 1.254 . S
O605 Zn602 2.031 . S
O605 C609 1.269 . S
O606 Zn603 1.986 . S
O606 C613 1.262 . S
O607 Zn602 2.049 . S
O607 C615 1.260 . S
O608 Zn603 1.996 . S
O608 C615 1.257 . S
C609 O604 1.254 . S
C609 O605 1.269 . S
C610 O611 1.249 . S
C610 O612 1.270 . S
O611 Zn603 1.943 . S
O611 C610 1.249 . S
O612 Zn602 2.067 . S
O612 C610 1.270 . S
C613 O606 1.262 . S
C613 O614 1.232 . S
O614 C613 1.232 . S
C615 O607 1.260 . S
C615 O608 1.257 . S
Zn616 O619 2.031 . S
Zn616 O621 2.049 . S
Zn616 O626 2.067 . S
Zn617 O618 1.962 . S
Zn617 O620 1.986 . S
Zn617 O622 1.996 . S
Zn617 O625 1.943 . S
O618 Zn617 1.962 . S
O618 C623 1.254 . S
O619 Zn616 2.031 . S
O619 C623 1.269 . S
O620 Zn617 1.986 . S
O620 C627 1.262 . S
O621 Zn616 2.049 . S
O621 C629 1.260 . S
O622 Zn617 1.996 . S
O622 C629 1.257 . S
C623 O618 1.254 . S
C623 O619 1.269 . S
C624 O625 1.249 . S
C624 O626 1.270 . S
O625 Zn617 1.943 . S
O625 C624 1.249 . S
O626 Zn616 2.067 . S
O626 C624 1.270 . S
C627 O620 1.262 . S
C627 O628 1.232 . S
O628 C627 1.232 . S
C629 O621 1.260 . S
C629 O622 1.257 . S
Zn630 O633 2.031 . S
Zn630 O635 2.049 . S
Zn630 O640 2.067 . S
Zn631 O632 1.962 . S
Zn631 O634 1.986 . S
Zn631 O636 1.996 . S
Zn631 O639 1.943 . S
O632 Zn631 1.962 . S
O632 C637 1.254 . S
O633 Zn630 2.031 . S
O633 C637 1.269 . S
O634 Zn631 1.986 . S
O634 C641 1.262 . S
O635 Zn630 2.049 . S
O635 C643 1.260 . S
O636 Zn631 1.996 . S
O636 C643 1.257 . S
C637 O632 1.254 . S
C637 O633 1.269 . S
C638 O639 1.249 . S
C638 O640 1.270 . S
O639 Zn631 1.943 . S
O639 C638 1.249 . S
O640 Zn630 2.067 . S
O640 C638 1.270 . S
C641 O634 1.262 . S
C641 O642 1.232 . S
O642 C641 1.232 . S
C643 O635 1.260 . S
C643 O636 1.257 . S
Zn644 O647 2.031 . S
Zn644 O649 2.049 . S
Zn644 O654 2.067 . S
Zn645 O646 1.962 . S
Zn645 O648 1.986 . S
Zn645 O650 1.996 . S
Zn645 O653 1.943 . S
O646 Zn645 1.962 . S
O646 C651 1.254 . S
O647 Zn644 2.031 . S
O647 C651 1.269 . S
O648 Zn645 1.986 . S
O648 C655 1.262 . S
O649 Zn644 2.049 . S
O649 C657 1.260 . S
O650 Zn645 1.996 . S
O650 C657 1.257 . S
C651 O646 1.254 . S
C651 O647 1.269 . S
C652 O653 1.249 . S
C652 O654 1.270 . S
O653 Zn645 1.943 . S
O653 C652 1.249 . S
O654 Zn644 2.067 . S
O654 C652 1.270 . S
C655 O648 1.262 . S
C655 O656 1.232 . S
O656 C655 1.232 . S
C657 O649 1.260 . S
C657 O650 1.257 . S
Zn658 O661 2.031 . S
Zn658 O663 2.049 . S
Zn658 O668 2.067 . S
Zn659 O660 1.962 . S
Zn659 O662 1.986 . S
Zn659 O664 1.996 . S
Zn659 O667 1.943 . S
O660 Zn659 1.962 . S
O660 C665 1.254 . S
O661 Zn658 2.031 . S
O661 C665 1.269 . S
O662 Zn659 1.986 . S
O662 C669 1.262 . S
O663 Zn658 2.049 . S
O663 C671 1.260 . S
O664 Zn659 1.996 . S
O664 C671 1.257 . S
C665 O660 1.254 . S
C665 O661 1.269 . S
C666 O667 1.249 . S
C666 O668 1.270 . S
O667 Zn659 1.943 . S
O667 C666 1.249 . S
O668 Zn658 2.067 . S
O668 C666 1.270 . S
C669 O662 1.262 . S
C669 O670 1.232 . S
O670 C669 1.232 . S
C671 O663 1.260 . S
C671 O664 1.257 . S
H672 C680 0.929 . S
H673 C682 0.930 . S
H674 C684 0.930 . S
H675 C687 0.929 . S
H676 C690 0.930 . S
H677 C692 0.960 . S
H678 C692 0.960 . S
H679 C692 0.960 . S
C680 H672 0.929 . S
C680 C681 1.377 . S
C680 C682 1.384 . S
C681 C680 1.377 . S
C681 C687 1.390 . S
C682 H673 0.930 . S
C682 C680 1.384 . S
C682 C683 1.372 . S
C683 C682 1.372 . S
C683 C684 1.400 . S
C683 C688 1.490 . S
C684 H674 0.930 . S
C684 C683 1.400 . S
C684 C687 1.386 . S
H685 C701 0.930 . S
H686 C702 0.931 . S
C687 H675 0.929 . S
C687 C681 1.390 . S
C687 C684 1.386 . S
C688 C683 1.490 . S
C688 C690 1.395 . S
C688 C691 1.403 . S
H689 C695 0.930 . S
C690 H676 0.930 . S
C690 C688 1.395 . S
C690 C693 1.403 1_655 S
C691 C688 1.403 . S
C691 C692 1.524 . S
C691 C695 1.400 1_655 S
C692 H677 0.960 . S
C692 H678 0.960 . S
C692 H679 0.960 . S
C692 C691 1.524 . S
C693 C690 1.403 1_455 S
C693 C694 1.392 . S
C693 C697 1.495 . S
C694 C693 1.392 . S
C694 C695 1.385 . S
C694 C696 1.478 . S
C695 H689 0.930 . S
C695 C691 1.400 1_455 S
C695 C694 1.385 . S
C696 C694 1.478 . S
C696 C698 1.381 . S
C696 C702 1.383 . S
C697 C693 1.495 . S
C697 H703 0.959 . S
C697 H704 0.961 . S
C697 H705 0.960 . S
C698 C696 1.381 . S
C698 C699 1.394 . S
C698 H706 0.930 . S
C699 C698 1.394 . S
C699 C700 1.383 . S
C699 H707 0.929 . S
C700 C699 1.383 . S
C700 C701 1.377 . S
C701 H685 0.930 . S
C701 C700 1.377 . S
C701 C702 1.379 . S
C702 H686 0.931 . S
C702 C696 1.383 . S
C702 C701 1.379 . S
H703 C697 0.959 . S
H704 C697 0.961 . S
H705 C697 0.960 . S
H706 C698 0.930 . S
H707 C699 0.929 . S
H708 C716 0.929 . S
H709 C718 0.930 . S
H710 C720 0.930 . S
H711 C723 0.929 . S
H712 C726 0.930 . S
H713 C728 0.960 . S
H714 C728 0.960 . S
H715 C728 0.960 . S
C716 H708 0.929 . S
C716 C717 1.377 . S
C716 C718 1.384 . S
C717 C716 1.377 . S
C717 C723 1.390 . S
C718 H709 0.930 . S
C718 C716 1.384 . S
C718 C719 1.372 . S
C719 C718 1.372 . S
C719 C720 1.400 . S
C719 C724 1.490 . S
C720 H710 0.930 . S
C720 C719 1.400 . S
C720 C723 1.386 . S
H721 C737 0.930 . S
H722 C738 0.931 . S
C723 H711 0.929 . S
C723 C717 1.390 . S
C723 C720 1.386 . S
C724 C719 1.490 . S
C724 C726 1.395 . S
C724 C727 1.403 . S
H725 C731 0.930 . S
C726 H712 0.930 . S
C726 C724 1.395 . S
C726 C729 1.403 . S
C727 C724 1.403 . S
C727 C728 1.524 . S
C727 C731 1.400 . S
C728 H713 0.960 . S
C728 H714 0.960 . S
C728 H715 0.960 . S
C728 C727 1.524 . S
C729 C726 1.403 . S
C729 C730 1.392 . S
C729 C733 1.495 . S
C730 C729 1.392 . S
C730 C731 1.385 . S
C730 C732 1.478 . S
C731 H725 0.930 . S
C731 C727 1.400 . S
C731 C730 1.385 . S
C732 C730 1.478 . S
C732 C734 1.381 . S
C732 C738 1.383 . S
C733 C729 1.495 . S
C733 H739 0.959 . S
C733 H740 0.961 . S
C733 H741 0.960 . S
C734 C732 1.381 . S
C734 C735 1.394 . S
C734 H742 0.930 . S
C735 C734 1.394 . S
C735 C736 1.383 . S
C735 H743 0.929 . S
C736 C735 1.383 . S
C736 C737 1.377 . S
C737 H721 0.930 . S
C737 C736 1.377 . S
C737 C738 1.379 . S
C738 H722 0.931 . S
C738 C732 1.383 . S
C738 C737 1.379 . S
H739 C733 0.959 . S
H740 C733 0.961 . S
H741 C733 0.960 . S
H742 C734 0.930 . S
H743 C735 0.929 . S
H744 C752 0.929 . S
H745 C754 0.930 . S
H746 C756 0.930 . S
H747 C759 0.929 . S
H748 C762 0.930 . S
H749 C764 0.960 . S
H750 C764 0.960 . S
H751 C764 0.960 . S
C752 H744 0.929 . S
C752 C753 1.377 . S
C752 C754 1.384 . S
C753 C752 1.377 . S
C753 C759 1.390 . S
C754 H745 0.930 . S
C754 C752 1.384 . S
C754 C755 1.372 . S
C755 C754 1.372 . S
C755 C756 1.400 . S
C755 C760 1.490 . S
C756 H746 0.930 . S
C756 C755 1.400 . S
C756 C759 1.386 . S
H757 C773 0.930 . S
H758 C774 0.931 . S
C759 H747 0.929 . S
C759 C753 1.390 . S
C759 C756 1.386 . S
C760 C755 1.490 . S
C760 C762 1.395 . S
C760 C763 1.403 . S
H761 C767 0.930 . S
C762 H748 0.930 . S
C762 C760 1.395 . S
C762 C765 1.403 1_455 S
C763 C760 1.403 . S
C763 C764 1.524 . S
C763 C767 1.400 1_455 S
C764 H749 0.960 . S
C764 H750 0.960 . S
C764 H751 0.960 . S
C764 C763 1.524 . S
C765 C762 1.403 1_655 S
C765 C766 1.392 . S
C765 C769 1.495 . S
C766 C765 1.392 . S
C766 C767 1.385 . S
C766 C768 1.478 . S
C767 H761 0.930 . S
C767 C763 1.400 1_655 S
C767 C766 1.385 . S
C768 C766 1.478 . S
C768 C770 1.381 . S
C768 C774 1.383 . S
C769 C765 1.495 . S
C769 H775 0.959 . S
C769 H776 0.961 . S
C769 H777 0.960 . S
C770 C768 1.381 . S
C770 C771 1.394 . S
C770 H778 0.930 . S
C771 C770 1.394 . S
C771 C772 1.383 . S
C771 H779 0.929 . S
C772 C771 1.383 . S
C772 C773 1.377 . S
C773 H757 0.930 . S
C773 C772 1.377 . S
C773 C774 1.379 . S
C774 H758 0.931 . S
C774 C768 1.383 . S
C774 C773 1.379 . S
H775 C769 0.959 . S
H776 C769 0.961 . S
H777 C769 0.960 . S
H778 C770 0.930 . S
H779 C771 0.929 . S
H780 C788 0.929 . S
H781 C790 0.930 . S
H782 C792 0.930 . S
H783 C795 0.929 . S
H784 C798 0.930 . S
H785 C800 0.960 . S
H786 C800 0.960 . S
H787 C800 0.960 . S
C788 H780 0.929 . S
C788 C789 1.377 . S
C788 C790 1.384 . S
C789 C788 1.377 . S
C789 C795 1.390 . S
C790 H781 0.930 . S
C790 C788 1.384 . S
C790 C791 1.372 . S
C791 C790 1.372 . S
C791 C792 1.400 . S
C791 C796 1.490 . S
C792 H782 0.930 . S
C792 C791 1.400 . S
C792 C795 1.386 . S
H793 C809 0.930 . S
H794 C810 0.931 . S
C795 H783 0.929 . S
C795 C789 1.390 . S
C795 C792 1.386 . S
C796 C791 1.490 . S
C796 C798 1.395 . S
C796 C799 1.403 . S
H797 C803 0.930 . S
C798 H784 0.930 . S
C798 C796 1.395 . S
C798 C801 1.403 . S
C799 C796 1.403 . S
C799 C800 1.524 . S
C799 C803 1.400 . S
C800 H785 0.960 . S
C800 H786 0.960 . S
C800 H787 0.960 . S
C800 C799 1.524 . S
C801 C798 1.403 . S
C801 C802 1.392 . S
C801 C805 1.495 . S
C802 C801 1.392 . S
C802 C803 1.385 . S
C802 C804 1.478 . S
C803 H797 0.930 . S
C803 C799 1.400 . S
C803 C802 1.385 . S
C804 C802 1.478 . S
C804 C806 1.381 . S
C804 C810 1.383 . S
C805 C801 1.495 . S
C805 H811 0.959 . S
C805 H812 0.961 . S
C805 H813 0.960 . S
C806 C804 1.381 . S
C806 C807 1.394 . S
C806 H814 0.930 . S
C807 C806 1.394 . S
C807 C808 1.383 . S
C807 H815 0.929 . S
C808 C807 1.383 . S
C808 C809 1.377 . S
C809 H793 0.930 . S
C809 C808 1.377 . S
C809 C810 1.379 . S
C810 H794 0.931 . S
C810 C804 1.383 . S
C810 C809 1.379 . S
H811 C805 0.959 . S
H812 C805 0.961 . S
H813 C805 0.960 . S
H814 C806 0.930 . S
H815 C807 0.929 . S
H816 C824 0.929 . S
H817 C826 0.930 . S
H818 C828 0.930 . S
H819 C831 0.929 . S
H820 C834 0.930 . S
H821 C836 0.960 . S
H822 C836 0.960 . S
H823 C836 0.960 . S
C824 H816 0.929 . S
C824 C825 1.377 . S
C824 C826 1.384 . S
C825 C824 1.377 . S
C825 C831 1.390 . S
C826 H817 0.930 . S
C826 C824 1.384 . S
C826 C827 1.372 . S
C827 C826 1.372 . S
C827 C828 1.400 . S
C827 C832 1.490 . S
C828 H818 0.930 . S
C828 C827 1.400 . S
C828 C831 1.386 . S
H829 C845 0.930 . S
H830 C846 0.931 . S
C831 H819 0.929 . S
C831 C825 1.390 . S
C831 C828 1.386 . S
C832 C827 1.490 . S
C832 C834 1.395 . S
C832 C835 1.403 . S
H833 C839 0.930 . S
C834 H820 0.930 . S
C834 C832 1.395 . S
C834 C837 1.403 1_655 S
C835 C832 1.403 . S
C835 C836 1.524 . S
C835 C839 1.400 1_655 S
C836 H821 0.960 . S
C836 H822 0.960 . S
C836 H823 0.960 . S
C836 C835 1.524 . S
C837 C834 1.403 1_455 S
C837 C838 1.392 . S
C837 C841 1.495 . S
C838 C837 1.392 . S
C838 C839 1.385 . S
C838 C840 1.478 . S
C839 H833 0.930 . S
C839 C835 1.400 1_455 S
C839 C838 1.385 . S
C840 C838 1.478 . S
C840 C842 1.381 . S
C840 C846 1.383 . S
C841 C837 1.495 . S
C841 H847 0.959 . S
C841 H848 0.961 . S
C841 H849 0.960 . S
C842 C840 1.381 . S
C842 C843 1.394 . S
C842 H850 0.930 . S
C843 C842 1.394 . S
C843 C844 1.383 . S
C843 H851 0.929 . S
C844 C843 1.383 . S
C844 C845 1.377 . S
C845 H829 0.930 . S
C845 C844 1.377 . S
C845 C846 1.379 . S
C846 H830 0.931 . S
C846 C840 1.383 . S
C846 C845 1.379 . S
H847 C841 0.959 . S
H848 C841 0.961 . S
H849 C841 0.960 . S
H850 C842 0.930 . S
H851 C843 0.929 . S
H852 C860 0.929 . S
H853 C862 0.930 . S
H854 C864 0.930 . S
H855 C867 0.929 . S
H856 C870 0.930 . S
H857 C872 0.960 . S
H858 C872 0.960 . S
H859 C872 0.960 . S
C860 H852 0.929 . S
C860 C861 1.377 . S
C860 C862 1.384 . S
C861 C860 1.377 . S
C861 C867 1.390 . S
C862 H853 0.930 . S
C862 C860 1.384 . S
C862 C863 1.372 . S
C863 C862 1.372 . S
C863 C864 1.400 . S
C863 C868 1.490 . S
C864 H854 0.930 . S
C864 C863 1.400 . S
C864 C867 1.386 . S
H865 C881 0.930 . S
H866 C882 0.931 . S
C867 H855 0.929 . S
C867 C861 1.390 . S
C867 C864 1.386 . S
C868 C863 1.490 . S
C868 C870 1.395 . S
C868 C871 1.403 . S
H869 C875 0.930 . S
C870 H856 0.930 . S
C870 C868 1.395 . S
C870 C873 1.403 . S
C871 C868 1.403 . S
C871 C872 1.524 . S
C871 C875 1.400 . S
C872 H857 0.960 . S
C872 H858 0.960 . S
C872 H859 0.960 . S
C872 C871 1.524 . S
C873 C870 1.403 . S
C873 C874 1.392 . S
C873 C877 1.495 . S
C874 C873 1.392 . S
C874 C875 1.385 . S
C874 C876 1.478 . S
C875 H869 0.930 . S
C875 C871 1.400 . S
C875 C874 1.385 . S
C876 C874 1.478 . S
C876 C878 1.381 . S
C876 C882 1.383 . S
C877 C873 1.495 . S
C877 H883 0.959 . S
C877 H884 0.961 . S
C877 H885 0.960 . S
C878 C876 1.381 . S
C878 C879 1.394 . S
C878 H886 0.930 . S
C879 C878 1.394 . S
C879 C880 1.383 . S
C879 H887 0.929 . S
C880 C879 1.383 . S
C880 C881 1.377 . S
C881 H865 0.930 . S
C881 C880 1.377 . S
C881 C882 1.379 . S
C882 H866 0.931 . S
C882 C876 1.383 . S
C882 C881 1.379 . S
H883 C877 0.959 . S
H884 C877 0.961 . S
H885 C877 0.960 . S
H886 C878 0.930 . S
H887 C879 0.929 . S
H888 C896 0.929 . S
H889 C898 0.930 . S
H890 C900 0.930 . S
H891 C903 0.929 . S
H892 C906 0.930 . S
H893 C908 0.960 . S
H894 C908 0.960 . S
H895 C908 0.960 . S
C896 H888 0.929 . S
C896 C897 1.377 . S
C896 C898 1.384 . S
C897 C896 1.377 . S
C897 C903 1.390 . S
C898 H889 0.930 . S
C898 C896 1.384 . S
C898 C899 1.372 . S
C899 C898 1.372 . S
C899 C900 1.400 . S
C899 C904 1.490 . S
C900 H890 0.930 . S
C900 C899 1.400 . S
C900 C903 1.386 . S
H901 C917 0.930 . S
H902 C918 0.931 . S
C903 H891 0.929 . S
C903 C897 1.390 . S
C903 C900 1.386 . S
C904 C899 1.490 . S
C904 C906 1.395 . S
C904 C907 1.403 . S
H905 C911 0.930 . S
C906 H892 0.930 . S
C906 C904 1.395 . S
C906 C909 1.403 1_455 S
C907 C904 1.403 . S
C907 C908 1.524 . S
C907 C911 1.400 1_455 S
C908 H893 0.960 . S
C908 H894 0.960 . S
C908 H895 0.960 . S
C908 C907 1.524 . S
C909 C906 1.403 1_655 S
C909 C910 1.392 . S
C909 C913 1.495 . S
C910 C909 1.392 . S
C910 C911 1.385 . S
C910 C912 1.478 . S
C911 H905 0.930 . S
C911 C907 1.400 1_655 S
C911 C910 1.385 . S
C912 C910 1.478 . S
C912 C914 1.381 . S
C912 C918 1.383 . S
C913 C909 1.495 . S
C913 H919 0.959 . S
C913 H920 0.961 . S
C913 H921 0.960 . S
C914 C912 1.381 . S
C914 C915 1.394 . S
C914 H922 0.930 . S
C915 C914 1.394 . S
C915 C916 1.383 . S
C915 H923 0.929 . S
C916 C915 1.383 . S
C916 C917 1.377 . S
C917 H901 0.930 . S
C917 C916 1.377 . S
C917 C918 1.379 . S
C918 H902 0.931 . S
C918 C912 1.383 . S
C918 C917 1.379 . S
H919 C913 0.959 . S
H920 C913 0.961 . S
H921 C913 0.960 . S
H922 C914 0.930 . S
H923 C915 0.929 . S
H924 C932 0.929 . S
H925 C934 0.930 . S
H926 C936 0.930 . S
H927 C939 0.929 . S
H928 C942 0.930 . S
H929 C944 0.960 . S
H930 C944 0.960 . S
H931 C944 0.960 . S
C932 H924 0.929 . S
C932 C933 1.377 . S
C932 C934 1.384 . S
C933 C932 1.377 . S
C933 C939 1.390 . S
C934 H925 0.930 . S
C934 C932 1.384 . S
C934 C935 1.372 . S
C935 C934 1.372 . S
C935 C936 1.400 . S
C935 C940 1.490 . S
C936 H926 0.930 . S
C936 C935 1.400 . S
C936 C939 1.386 . S
H937 C953 0.930 . S
H938 C954 0.931 . S
C939 H927 0.929 . S
C939 C933 1.390 . S
C939 C936 1.386 . S
C940 C935 1.490 . S
C940 C942 1.395 . S
C940 C943 1.403 . S
H941 C947 0.930 . S
C942 H928 0.930 . S
C942 C940 1.395 . S
C942 C945 1.403 . S
C943 C940 1.403 . S
C943 C944 1.524 . S
C943 C947 1.400 . S
C944 H929 0.960 . S
C944 H930 0.960 . S
C944 H931 0.960 . S
C944 C943 1.524 . S
C945 C942 1.403 . S
C945 C946 1.392 . S
C945 C949 1.495 . S
C946 C945 1.392 . S
C946 C947 1.385 . S
C946 C948 1.478 . S
C947 H941 0.930 . S
C947 C943 1.400 . S
C947 C946 1.385 . S
C948 C946 1.478 . S
C948 C950 1.381 . S
C948 C954 1.383 . S
C949 C945 1.495 . S
C949 H955 0.959 . S
C949 H956 0.961 . S
C949 H957 0.960 . S
C950 C948 1.381 . S
C950 C951 1.394 . S
C950 H958 0.930 . S
C951 C950 1.394 . S
C951 C952 1.383 . S
C951 H959 0.929 . S
C952 C951 1.383 . S
C952 C953 1.377 . S
C953 H937 0.930 . S
C953 C952 1.377 . S
C953 C954 1.379 . S
C954 H938 0.931 . S
C954 C948 1.383 . S
C954 C953 1.379 . S
H955 C949 0.959 . S
H956 C949 0.961 . S
H957 C949 0.960 . S
H958 C950 0.930 . S
H959 C951 0.929 . S
H960 C968 0.929 . S
H961 C970 0.930 . S
H962 C972 0.930 . S
H963 C975 0.929 . S
H964 C978 0.930 . S
H965 C980 0.960 . S
H966 C980 0.960 . S
H967 C980 0.960 . S
C968 H960 0.929 . S
C968 C969 1.377 . S
C968 C970 1.384 . S
C969 C968 1.377 . S
C969 C975 1.390 . S
C970 H961 0.930 . S
C970 C968 1.384 . S
C970 C971 1.372 . S
C971 C970 1.372 . S
C971 C972 1.400 . S
C971 C976 1.490 . S
C972 H962 0.930 . S
C972 C971 1.400 . S
C972 C975 1.386 . S
H973 C989 0.930 . S
H974 C990 0.931 . S
C975 H963 0.929 . S
C975 C969 1.390 . S
C975 C972 1.386 . S
C976 C971 1.490 . S
C976 C978 1.395 . S
C976 C979 1.403 . S
H977 C983 0.930 . S
C978 H964 0.930 . S
C978 C976 1.395 . S
C978 C981 1.403 1_565 S
C979 C976 1.403 . S
C979 C980 1.524 . S
C979 C983 1.400 1_565 S
C980 H965 0.960 . S
C980 H966 0.960 . S
C980 H967 0.960 . S
C980 C979 1.524 . S
C981 C978 1.403 1_545 S
C981 C982 1.392 . S
C981 C985 1.495 . S
C982 C981 1.392 . S
C982 C983 1.385 . S
C982 C984 1.478 . S
C983 H977 0.930 . S
C983 C979 1.400 1_545 S
C983 C982 1.385 . S
C984 C982 1.478 . S
C984 C986 1.381 . S
C984 C990 1.383 . S
C985 C981 1.495 . S
C985 H991 0.959 . S
C985 H992 0.961 . S
C985 H993 0.960 . S
C986 C984 1.381 . S
C986 C987 1.394 . S
C986 H994 0.930 . S
C987 C986 1.394 . S
C987 C988 1.383 . S
C987 H995 0.929 . S
C988 C987 1.383 . S
C988 C989 1.377 . S
C989 H973 0.930 . S
C989 C988 1.377 . S
C989 C990 1.379 . S
C990 H974 0.931 . S
C990 C984 1.383 . S
C990 C989 1.379 . S
H991 C985 0.959 . S
H992 C985 0.961 . S
H993 C985 0.960 . S
H994 C986 0.930 . S
H995 C987 0.929 . S
H996 C1004 0.929 . S
H997 C1006 0.930 . S
H998 C1008 0.930 . S
H999 C1011 0.929 . S
H1000 C1014 0.930 . S
H1001 C1016 0.960 . S
H1002 C1016 0.960 . S
H1003 C1016 0.960 . S
C1004 H996 0.929 . S
C1004 C1005 1.377 . S
C1004 C1006 1.384 . S
C1005 C1004 1.377 . S
C1005 C1011 1.390 . S
C1006 H997 0.930 . S
C1006 C1004 1.384 . S
C1006 C1007 1.372 . S
C1007 C1006 1.372 . S
C1007 C1008 1.400 . S
C1007 C1012 1.490 . S
C1008 H998 0.930 . S
C1008 C1007 1.400 . S
C1008 C1011 1.386 . S
H1009 C1025 0.930 . S
H1010 C1026 0.931 . S
C1011 H999 0.929 . S
C1011 C1005 1.390 . S
C1011 C1008 1.386 . S
C1012 C1007 1.490 . S
C1012 C1014 1.395 . S
C1012 C1015 1.403 . S
H1013 C1019 0.930 . S
C1014 H1000 0.930 . S
C1014 C1012 1.395 . S
C1014 C1017 1.403 . S
C1015 C1012 1.403 . S
C1015 C1016 1.524 . S
C1015 C1019 1.400 . S
C1016 H1001 0.960 . S
C1016 H1002 0.960 . S
C1016 H1003 0.960 . S
C1016 C1015 1.524 . S
C1017 C1014 1.403 . S
C1017 C1018 1.392 . S
C1017 C1021 1.495 . S
C1018 C1017 1.392 . S
C1018 C1019 1.385 . S
C1018 C1020 1.478 . S
C1019 H1013 0.930 . S
C1019 C1015 1.400 . S
C1019 C1018 1.385 . S
C1020 C1018 1.478 . S
C1020 C1022 1.381 . S
C1020 C1026 1.383 . S
C1021 C1017 1.495 . S
C1021 H1027 0.959 . S
C1021 H1028 0.961 . S
C1021 H1029 0.960 . S
C1022 C1020 1.381 . S
C1022 C1023 1.394 . S
C1022 H1030 0.930 . S
C1023 C1022 1.394 . S
C1023 C1024 1.383 . S
C1023 H1031 0.929 . S
C1024 C1023 1.383 . S
C1024 C1025 1.377 . S
C1025 H1009 0.930 . S
C1025 C1024 1.377 . S
C1025 C1026 1.379 . S
C1026 H1010 0.931 . S
C1026 C1020 1.383 . S
C1026 C1025 1.379 . S
H1027 C1021 0.959 . S
H1028 C1021 0.961 . S
H1029 C1021 0.960 . S
H1030 C1022 0.930 . S
H1031 C1023 0.929 . S
H1032 C1040 0.929 . S
H1033 C1042 0.930 . S
H1034 C1044 0.930 . S
H1035 C1047 0.929 . S
H1036 C1050 0.930 . S
H1037 C1052 0.960 . S
H1038 C1052 0.960 . S
H1039 C1052 0.960 . S
C1040 H1032 0.929 . S
C1040 C1041 1.377 . S
C1040 C1042 1.384 . S
C1041 C1040 1.377 . S
C1041 C1047 1.390 . S
C1042 H1033 0.930 . S
C1042 C1040 1.384 . S
C1042 C1043 1.372 . S
C1043 C1042 1.372 . S
C1043 C1044 1.400 . S
C1043 C1048 1.490 . S
C1044 H1034 0.930 . S
C1044 C1043 1.400 . S
C1044 C1047 1.386 . S
H1045 C1061 0.930 . S
H1046 C1062 0.931 . S
C1047 H1035 0.929 . S
C1047 C1041 1.390 . S
C1047 C1044 1.386 . S
C1048 C1043 1.490 . S
C1048 C1050 1.395 . S
C1048 C1051 1.403 . S
H1049 C1055 0.930 . S
C1050 H1036 0.930 . S
C1050 C1048 1.395 . S
C1050 C1053 1.403 1_545 S
C1051 C1048 1.403 . S
C1051 C1052 1.524 . S
C1051 C1055 1.400 1_545 S
C1052 H1037 0.960 . S
C1052 H1038 0.960 . S
C1052 H1039 0.960 . S
C1052 C1051 1.524 . S
C1053 C1050 1.403 1_565 S
C1053 C1054 1.392 . S
C1053 C1057 1.495 . S
C1054 C1053 1.392 . S
C1054 C1055 1.385 . S
C1054 C1056 1.478 . S
C1055 H1049 0.930 . S
C1055 C1051 1.400 1_565 S
C1055 C1054 1.385 . S
C1056 C1054 1.478 . S
C1056 C1058 1.381 . S
C1056 C1062 1.383 . S
C1057 C1053 1.495 . S
C1057 H1063 0.959 . S
C1057 H1064 0.961 . S
C1057 H1065 0.960 . S
C1058 C1056 1.381 . S
C1058 C1059 1.394 . S
C1058 H1066 0.930 . S
C1059 C1058 1.394 . S
C1059 C1060 1.383 . S
C1059 H1067 0.929 . S
C1060 C1059 1.383 . S
C1060 C1061 1.377 . S
C1061 H1045 0.930 . S
C1061 C1060 1.377 . S
C1061 C1062 1.379 . S
C1062 H1046 0.931 . S
C1062 C1056 1.383 . S
C1062 C1061 1.379 . S
H1063 C1057 0.959 . S
H1064 C1057 0.961 . S
H1065 C1057 0.960 . S
H1066 C1058 0.930 . S
H1067 C1059 0.929 . S
H1068 C1076 0.929 . S
H1069 C1078 0.930 . S
H1070 C1080 0.930 . S
H1071 C1083 0.929 . S
H1072 C1086 0.930 . S
H1073 C1088 0.960 . S
H1074 C1088 0.960 . S
H1075 C1088 0.960 . S
C1076 H1068 0.929 . S
C1076 C1077 1.377 . S
C1076 C1078 1.384 . S
C1077 C1076 1.377 . S
C1077 C1083 1.390 . S
C1078 H1069 0.930 . S
C1078 C1076 1.384 . S
C1078 C1079 1.372 . S
C1079 C1078 1.372 . S
C1079 C1080 1.400 . S
C1079 C1084 1.490 . S
C1080 H1070 0.930 . S
C1080 C1079 1.400 . S
C1080 C1083 1.386 . S
H1081 C1097 0.930 . S
H1082 C1098 0.931 . S
C1083 H1071 0.929 . S
C1083 C1077 1.390 . S
C1083 C1080 1.386 . S
C1084 C1079 1.490 . S
C1084 C1086 1.395 . S
C1084 C1087 1.403 . S
H1085 C1091 0.930 . S
C1086 H1072 0.930 . S
C1086 C1084 1.395 . S
C1086 C1089 1.403 . S
C1087 C1084 1.403 . S
C1087 C1088 1.524 . S
C1087 C1091 1.400 . S
C1088 H1073 0.960 . S
C1088 H1074 0.960 . S
C1088 H1075 0.960 . S
C1088 C1087 1.524 . S
C1089 C1086 1.403 . S
C1089 C1090 1.392 . S
C1089 C1093 1.495 . S
C1090 C1089 1.392 . S
C1090 C1091 1.385 . S
C1090 C1092 1.478 . S
C1091 H1085 0.930 . S
C1091 C1087 1.400 . S
C1091 C1090 1.385 . S
C1092 C1090 1.478 . S
C1092 C1094 1.381 . S
C1092 C1098 1.383 . S
C1093 C1089 1.495 . S
C1093 H1099 0.959 . S
C1093 H1100 0.961 . S
C1093 H1101 0.960 . S
C1094 C1092 1.381 . S
C1094 C1095 1.394 . S
C1094 H1102 0.930 . S
C1095 C1094 1.394 . S
C1095 C1096 1.383 . S
C1095 H1103 0.929 . S
C1096 C1095 1.383 . S
C1096 C1097 1.377 . S
C1097 H1081 0.930 . S
C1097 C1096 1.377 . S
C1097 C1098 1.379 . S
C1098 H1082 0.931 . S
C1098 C1092 1.383 . S
C1098 C1097 1.379 . S
H1099 C1093 0.959 . S
H1100 C1093 0.961 . S
H1101 C1093 0.960 . S
H1102 C1094 0.930 . S
H1103 C1095 0.929 . S
H1104 C1112 0.929 . S
H1105 C1114 0.930 . S
H1106 C1116 0.930 . S
H1107 C1119 0.929 . S
H1108 C1122 0.930 . S
H1109 C1124 0.960 . S
H1110 C1124 0.960 . S
H1111 C1124 0.960 . S
C1112 H1104 0.929 . S
C1112 C1113 1.377 . S
C1112 C1114 1.384 . S
C1113 C1112 1.377 . S
C1113 C1119 1.390 . S
C1114 H1105 0.930 . S
C1114 C1112 1.384 . S
C1114 C1115 1.372 . S
C1115 C1114 1.372 . S
C1115 C1116 1.400 . S
C1115 C1120 1.490 . S
C1116 H1106 0.930 . S
C1116 C1115 1.400 . S
C1116 C1119 1.386 . S
H1117 C1133 0.930 . S
H1118 C1134 0.931 . S
C1119 H1107 0.929 . S
C1119 C1113 1.390 . S
C1119 C1116 1.386 . S
C1120 C1115 1.490 . S
C1120 C1122 1.395 . S
C1120 C1123 1.403 . S
H1121 C1127 0.930 . S
C1122 H1108 0.930 . S
C1122 C1120 1.395 . S
C1122 C1125 1.403 1_545 S
C1123 C1120 1.403 . S
C1123 C1124 1.524 . S
C1123 C1127 1.400 1_545 S
C1124 H1109 0.960 . S
C1124 H1110 0.960 . S
C1124 H1111 0.960 . S
C1124 C1123 1.524 . S
C1125 C1122 1.403 1_565 S
C1125 C1126 1.392 . S
C1125 C1129 1.495 . S
C1126 C1125 1.392 . S
C1126 C1127 1.385 . S
C1126 C1128 1.478 . S
C1127 H1121 0.930 . S
C1127 C1123 1.400 1_565 S
C1127 C1126 1.385 . S
C1128 C1126 1.478 . S
C1128 C1130 1.381 . S
C1128 C1134 1.383 . S
C1129 C1125 1.495 . S
C1129 H1135 0.959 . S
C1129 H1136 0.961 . S
C1129 H1137 0.960 . S
C1130 C1128 1.381 . S
C1130 C1131 1.394 . S
C1130 H1138 0.930 . S
C1131 C1130 1.394 . S
C1131 C1132 1.383 . S
C1131 H1139 0.929 . S
C1132 C1131 1.383 . S
C1132 C1133 1.377 . S
C1133 H1117 0.930 . S
C1133 C1132 1.377 . S
C1133 C1134 1.379 . S
C1134 H1118 0.931 . S
C1134 C1128 1.383 . S
C1134 C1133 1.379 . S
H1135 C1129 0.959 . S
H1136 C1129 0.961 . S
H1137 C1129 0.960 . S
H1138 C1130 0.930 . S
H1139 C1131 0.929 . S
H1140 C1148 0.929 . S
H1141 C1150 0.930 . S
H1142 C1152 0.930 . S
H1143 C1155 0.929 . S
H1144 C1158 0.930 . S
H1145 C1160 0.960 . S
H1146 C1160 0.960 . S
H1147 C1160 0.960 . S
C1148 H1140 0.929 . S
C1148 C1149 1.377 . S
C1148 C1150 1.384 . S
C1149 C1148 1.377 . S
C1149 C1155 1.390 . S
C1150 H1141 0.930 . S
C1150 C1148 1.384 . S
C1150 C1151 1.372 . S
C1151 C1150 1.372 . S
C1151 C1152 1.400 . S
C1151 C1156 1.490 . S
C1152 H1142 0.930 . S
C1152 C1151 1.400 . S
C1152 C1155 1.386 . S
H1153 C1169 0.930 . S
H1154 C1170 0.931 . S
C1155 H1143 0.929 . S
C1155 C1149 1.390 . S
C1155 C1152 1.386 . S
C1156 C1151 1.490 . S
C1156 C1158 1.395 . S
C1156 C1159 1.403 . S
H1157 C1163 0.930 . S
C1158 H1144 0.930 . S
C1158 C1156 1.395 . S
C1158 C1161 1.403 . S
C1159 C1156 1.403 . S
C1159 C1160 1.524 . S
C1159 C1163 1.400 . S
C1160 H1145 0.960 . S
C1160 H1146 0.960 . S
C1160 H1147 0.960 . S
C1160 C1159 1.524 . S
C1161 C1158 1.403 . S
C1161 C1162 1.392 . S
C1161 C1165 1.495 . S
C1162 C1161 1.392 . S
C1162 C1163 1.385 . S
C1162 C1164 1.478 . S
C1163 H1157 0.930 . S
C1163 C1159 1.400 . S
C1163 C1162 1.385 . S
C1164 C1162 1.478 . S
C1164 C1166 1.381 . S
C1164 C1170 1.383 . S
C1165 C1161 1.495 . S
C1165 H1171 0.959 . S
C1165 H1172 0.961 . S
C1165 H1173 0.960 . S
C1166 C1164 1.381 . S
C1166 C1167 1.394 . S
C1166 H1174 0.930 . S
C1167 C1166 1.394 . S
C1167 C1168 1.383 . S
C1167 H1175 0.929 . S
C1168 C1167 1.383 . S
C1168 C1169 1.377 . S
C1169 H1153 0.930 . S
C1169 C1168 1.377 . S
C1169 C1170 1.379 . S
C1170 H1154 0.931 . S
C1170 C1164 1.383 . S
C1170 C1169 1.379 . S
H1171 C1165 0.959 . S
H1172 C1165 0.961 . S
H1173 C1165 0.960 . S
H1174 C1166 0.930 . S
H1175 C1167 0.929 . S
H1176 C1184 0.929 . S
H1177 C1186 0.930 . S
H1178 C1188 0.930 . S
H1179 C1191 0.929 . S
H1180 C1194 0.930 . S
H1181 C1196 0.960 . S
H1182 C1196 0.960 . S
H1183 C1196 0.960 . S
C1184 H1176 0.929 . S
C1184 C1185 1.377 . S
C1184 C1186 1.384 . S
C1185 C1184 1.377 . S
C1185 C1191 1.390 . S
C1186 H1177 0.930 . S
C1186 C1184 1.384 . S
C1186 C1187 1.372 . S
C1187 C1186 1.372 . S
C1187 C1188 1.400 . S
C1187 C1192 1.490 . S
C1188 H1178 0.930 . S
C1188 C1187 1.400 . S
C1188 C1191 1.386 . S
H1189 C1205 0.930 . S
H1190 C1206 0.931 . S
C1191 H1179 0.929 . S
C1191 C1185 1.390 . S
C1191 C1188 1.386 . S
C1192 C1187 1.490 . S
C1192 C1194 1.395 . S
C1192 C1195 1.403 . S
H1193 C1199 0.930 . S
C1194 H1180 0.930 . S
C1194 C1192 1.395 . S
C1194 C1197 1.403 1_545 S
C1195 C1192 1.403 . S
C1195 C1196 1.524 . S
C1195 C1199 1.400 1_545 S
C1196 H1181 0.960 . S
C1196 H1182 0.960 . S
C1196 H1183 0.960 . S
C1196 C1195 1.524 . S
C1197 C1194 1.403 1_565 S
C1197 C1198 1.392 . S
C1197 C1201 1.495 . S
C1198 C1197 1.392 . S
C1198 C1199 1.385 . S
C1198 C1200 1.478 . S
C1199 H1193 0.930 . S
C1199 C1195 1.400 1_565 S
C1199 C1198 1.385 . S
C1200 C1198 1.478 . S
C1200 C1202 1.381 . S
C1200 C1206 1.383 . S
C1201 C1197 1.495 . S
C1201 H1207 0.959 . S
C1201 H1208 0.961 . S
C1201 H1209 0.960 . S
C1202 C1200 1.381 . S
C1202 C1203 1.394 . S
C1202 H1210 0.930 . S
C1203 C1202 1.394 . S
C1203 C1204 1.383 . S
C1203 H1211 0.929 . S
C1204 C1203 1.383 . S
C1204 C1205 1.377 . S
C1205 H1189 0.930 . S
C1205 C1204 1.377 . S
C1205 C1206 1.379 . S
C1206 H1190 0.931 . S
C1206 C1200 1.383 . S
C1206 C1205 1.379 . S
H1207 C1201 0.959 . S
H1208 C1201 0.961 . S
H1209 C1201 0.960 . S
H1210 C1202 0.930 . S
H1211 C1203 0.929 . S
H1212 C1220 0.929 . S
H1213 C1222 0.930 . S
H1214 C1224 0.930 . S
H1215 C1227 0.929 . S
H1216 C1230 0.930 . S
H1217 C1232 0.960 . S
H1218 C1232 0.960 . S
H1219 C1232 0.960 . S
C1220 H1212 0.929 . S
C1220 C1221 1.377 . S
C1220 C1222 1.384 . S
C1221 C1220 1.377 . S
C1221 C1227 1.390 . S
C1222 H1213 0.930 . S
C1222 C1220 1.384 . S
C1222 C1223 1.372 . S
C1223 C1222 1.372 . S
C1223 C1224 1.400 . S
C1223 C1228 1.490 . S
C1224 H1214 0.930 . S
C1224 C1223 1.400 . S
C1224 C1227 1.386 . S
H1225 C1241 0.930 . S
H1226 C1242 0.931 . S
C1227 H1215 0.929 . S
C1227 C1221 1.390 . S
C1227 C1224 1.386 . S
C1228 C1223 1.490 . S
C1228 C1230 1.395 . S
C1228 C1231 1.403 . S
H1229 C1235 0.930 . S
C1230 H1216 0.930 . S
C1230 C1228 1.395 . S
C1230 C1233 1.403 . S
C1231 C1228 1.403 . S
C1231 C1232 1.524 . S
C1231 C1235 1.400 . S
C1232 H1217 0.960 . S
C1232 H1218 0.960 . S
C1232 H1219 0.960 . S
C1232 C1231 1.524 . S
C1233 C1230 1.403 . S
C1233 C1234 1.392 . S
C1233 C1237 1.495 . S
C1234 C1233 1.392 . S
C1234 C1235 1.385 . S
C1234 C1236 1.478 . S
C1235 H1229 0.930 . S
C1235 C1231 1.400 . S
C1235 C1234 1.385 . S
C1236 C1234 1.478 . S
C1236 C1238 1.381 . S
C1236 C1242 1.383 . S
C1237 C1233 1.495 . S
C1237 H1243 0.959 . S
C1237 H1244 0.961 . S
C1237 H1245 0.960 . S
C1238 C1236 1.381 . S
C1238 C1239 1.394 . S
C1238 H1246 0.930 . S
C1239 C1238 1.394 . S
C1239 C1240 1.383 . S
C1239 H1247 0.929 . S
C1240 C1239 1.383 . S
C1240 C1241 1.377 . S
C1241 H1225 0.930 . S
C1241 C1240 1.377 . S
C1241 C1242 1.379 . S
C1242 H1226 0.931 . S
C1242 C1236 1.383 . S
C1242 C1241 1.379 . S
H1243 C1237 0.959 . S
H1244 C1237 0.961 . S
H1245 C1237 0.960 . S
H1246 C1238 0.930 . S
H1247 C1239 0.929 . S
H1248 C1256 0.929 . S
H1249 C1258 0.930 . S
H1250 C1260 0.930 . S
H1251 C1263 0.929 . S
H1252 C1266 0.930 . S
H1253 C1268 0.960 . S
H1254 C1268 0.960 . S
H1255 C1268 0.960 . S
C1256 H1248 0.929 . S
C1256 C1257 1.377 . S
C1256 C1258 1.384 . S
C1257 C1256 1.377 . S
C1257 C1263 1.390 . S
C1258 H1249 0.930 . S
C1258 C1256 1.384 . S
C1258 C1259 1.372 . S
C1259 C1258 1.372 . S
C1259 C1260 1.400 . S
C1259 C1264 1.490 . S
C1260 H1250 0.930 . S
C1260 C1259 1.400 . S
C1260 C1263 1.386 . S
H1261 C1277 0.930 . S
H1262 C1278 0.931 . S
C1263 H1251 0.929 . S
C1263 C1257 1.390 . S
C1263 C1260 1.386 . S
C1264 C1259 1.490 . S
C1264 C1266 1.395 . S
C1264 C1267 1.403 . S
H1265 C1271 0.930 . S
C1266 H1252 0.930 . S
C1266 C1264 1.395 . S
C1266 C1269 1.403 1_554 S
C1267 C1264 1.403 . S
C1267 C1268 1.524 . S
C1267 C1271 1.400 1_554 S
C1268 H1253 0.960 . S
C1268 H1254 0.960 . S
C1268 H1255 0.960 . S
C1268 C1267 1.524 . S
C1269 C1266 1.403 1_556 S
C1269 C1270 1.392 . S
C1269 C1273 1.495 . S
C1270 C1269 1.392 . S
C1270 C1271 1.385 . S
C1270 C1272 1.478 . S
C1271 H1265 0.930 . S
C1271 C1267 1.400 1_556 S
C1271 C1270 1.385 . S
C1272 C1270 1.478 . S
C1272 C1274 1.381 . S
C1272 C1278 1.383 . S
C1273 C1269 1.495 . S
C1273 H1279 0.959 . S
C1273 H1280 0.961 . S
C1273 H1281 0.960 . S
C1274 C1272 1.381 . S
C1274 C1275 1.394 . S
C1274 H1282 0.930 . S
C1275 C1274 1.394 . S
C1275 C1276 1.383 . S
C1275 H1283 0.929 . S
C1276 C1275 1.383 . S
C1276 C1277 1.377 . S
C1277 H1261 0.930 . S
C1277 C1276 1.377 . S
C1277 C1278 1.379 . S
C1278 H1262 0.931 . S
C1278 C1272 1.383 . S
C1278 C1277 1.379 . S
H1279 C1273 0.959 . S
H1280 C1273 0.961 . S
H1281 C1273 0.960 . S
H1282 C1274 0.930 . S
H1283 C1275 0.929 . S
H1284 C1292 0.929 . S
H1285 C1294 0.930 . S
H1286 C1296 0.930 . S
H1287 C1299 0.929 . S
H1288 C1302 0.930 . S
H1289 C1304 0.960 . S
H1290 C1304 0.960 . S
H1291 C1304 0.960 . S
C1292 H1284 0.929 . S
C1292 C1293 1.377 . S
C1292 C1294 1.384 . S
C1293 C1292 1.377 . S
C1293 C1299 1.390 . S
C1294 H1285 0.930 . S
C1294 C1292 1.384 . S
C1294 C1295 1.372 . S
C1295 C1294 1.372 . S
C1295 C1296 1.400 . S
C1295 C1300 1.490 . S
C1296 H1286 0.930 . S
C1296 C1295 1.400 . S
C1296 C1299 1.386 . S
H1297 C1313 0.930 . S
H1298 C1314 0.931 . S
C1299 H1287 0.929 . S
C1299 C1293 1.390 . S
C1299 C1296 1.386 . S
C1300 C1295 1.490 . S
C1300 C1302 1.395 . S
C1300 C1303 1.403 . S
H1301 C1307 0.930 . S
C1302 H1288 0.930 . S
C1302 C1300 1.395 . S
C1302 C1305 1.403 1_554 S
C1303 C1300 1.403 . S
C1303 C1304 1.524 . S
C1303 C1307 1.400 1_554 S
C1304 H1289 0.960 . S
C1304 H1290 0.960 . S
C1304 H1291 0.960 . S
C1304 C1303 1.524 . S
C1305 C1302 1.403 1_556 S
C1305 C1306 1.392 . S
C1305 C1309 1.495 . S
C1306 C1305 1.392 . S
C1306 C1307 1.385 . S
C1306 C1308 1.478 . S
C1307 H1301 0.930 . S
C1307 C1303 1.400 1_556 S
C1307 C1306 1.385 . S
C1308 C1306 1.478 . S
C1308 C1310 1.381 . S
C1308 C1314 1.383 . S
C1309 C1305 1.495 . S
C1309 H1315 0.959 . S
C1309 H1316 0.961 . S
C1309 H1317 0.960 . S
C1310 C1308 1.381 . S
C1310 C1311 1.394 . S
C1310 H1318 0.930 . S
C1311 C1310 1.394 . S
C1311 C1312 1.383 . S
C1311 H1319 0.929 . S
C1312 C1311 1.383 . S
C1312 C1313 1.377 . S
C1313 H1297 0.930 . S
C1313 C1312 1.377 . S
C1313 C1314 1.379 . S
C1314 H1298 0.931 . S
C1314 C1308 1.383 . S
C1314 C1313 1.379 . S
H1315 C1309 0.959 . S
H1316 C1309 0.961 . S
H1317 C1309 0.960 . S
H1318 C1310 0.930 . S
H1319 C1311 0.929 . S
H1320 C1328 0.929 . S
H1321 C1330 0.930 . S
H1322 C1332 0.930 . S
H1323 C1335 0.929 . S
H1324 C1338 0.930 . S
H1325 C1340 0.960 . S
H1326 C1340 0.960 . S
H1327 C1340 0.960 . S
C1328 H1320 0.929 . S
C1328 C1329 1.377 . S
C1328 C1330 1.384 . S
C1329 C1328 1.377 . S
C1329 C1335 1.390 . S
C1330 H1321 0.930 . S
C1330 C1328 1.384 . S
C1330 C1331 1.372 . S
C1331 C1330 1.372 . S
C1331 C1332 1.400 . S
C1331 C1336 1.490 . S
C1332 H1322 0.930 . S
C1332 C1331 1.400 . S
C1332 C1335 1.386 . S
H1333 C1349 0.930 . S
H1334 C1350 0.931 . S
C1335 H1323 0.929 . S
C1335 C1329 1.390 . S
C1335 C1332 1.386 . S
C1336 C1331 1.490 . S
C1336 C1338 1.395 . S
C1336 C1339 1.403 . S
H1337 C1343 0.930 . S
C1338 H1324 0.930 . S
C1338 C1336 1.395 . S
C1338 C1341 1.403 . S
C1339 C1336 1.403 . S
C1339 C1340 1.524 . S
C1339 C1343 1.400 . S
C1340 H1325 0.960 . S
C1340 H1326 0.960 . S
C1340 H1327 0.960 . S
C1340 C1339 1.524 . S
C1341 C1338 1.403 . S
C1341 C1342 1.392 . S
C1341 C1345 1.495 . S
C1342 C1341 1.392 . S
C1342 C1343 1.385 . S
C1342 C1344 1.478 . S
C1343 H1337 0.930 . S
C1343 C1339 1.400 . S
C1343 C1342 1.385 . S
C1344 C1342 1.478 . S
C1344 C1346 1.381 . S
C1344 C1350 1.383 . S
C1345 C1341 1.495 . S
C1345 H1351 0.959 . S
C1345 H1352 0.961 . S
C1345 H1353 0.960 . S
C1346 C1344 1.381 . S
C1346 C1347 1.394 . S
C1346 H1354 0.930 . S
C1347 C1346 1.394 . S
C1347 C1348 1.383 . S
C1347 H1355 0.929 . S
C1348 C1347 1.383 . S
C1348 C1349 1.377 . S
C1349 H1333 0.930 . S
C1349 C1348 1.377 . S
C1349 C1350 1.379 . S
C1350 H1334 0.931 . S
C1350 C1344 1.383 . S
C1350 C1349 1.379 . S
H1351 C1345 0.959 . S
H1352 C1345 0.961 . S
H1353 C1345 0.960 . S
H1354 C1346 0.930 . S
H1355 C1347 0.929 . S
H1356 C1364 0.929 . S
H1357 C1366 0.930 . S
H1358 C1368 0.930 . S
H1359 C1371 0.929 . S
H1360 C1374 0.930 . S
H1361 C1376 0.960 . S
H1362 C1376 0.960 . S
H1363 C1376 0.960 . S
C1364 H1356 0.929 . S
C1364 C1365 1.377 . S
C1364 C1366 1.384 . S
C1365 C1364 1.377 . S
C1365 C1371 1.390 . S
C1366 H1357 0.930 . S
C1366 C1364 1.384 . S
C1366 C1367 1.372 . S
C1367 C1366 1.372 . S
C1367 C1368 1.400 . S
C1367 C1372 1.490 . S
C1368 H1358 0.930 . S
C1368 C1367 1.400 . S
C1368 C1371 1.386 . S
H1369 C1385 0.930 . S
H1370 C1386 0.931 . S
C1371 H1359 0.929 . S
C1371 C1365 1.390 . S
C1371 C1368 1.386 . S
C1372 C1367 1.490 . S
C1372 C1374 1.395 . S
C1372 C1375 1.403 . S
H1373 C1379 0.930 . S
C1374 H1360 0.930 . S
C1374 C1372 1.395 . S
C1374 C1377 1.403 1_554 S
C1375 C1372 1.403 . S
C1375 C1376 1.524 . S
C1375 C1379 1.400 1_554 S
C1376 H1361 0.960 . S
C1376 H1362 0.960 . S
C1376 H1363 0.960 . S
C1376 C1375 1.524 . S
C1377 C1374 1.403 1_556 S
C1377 C1378 1.392 . S
C1377 C1381 1.495 . S
C1378 C1377 1.392 . S
C1378 C1379 1.385 . S
C1378 C1380 1.478 . S
C1379 H1373 0.930 . S
C1379 C1375 1.400 1_556 S
C1379 C1378 1.385 . S
C1380 C1378 1.478 . S
C1380 C1382 1.381 . S
C1380 C1386 1.383 . S
C1381 C1377 1.495 . S
C1381 H1387 0.959 . S
C1381 H1388 0.961 . S
C1381 H1389 0.960 . S
C1382 C1380 1.381 . S
C1382 C1383 1.394 . S
C1382 H1390 0.930 . S
C1383 C1382 1.394 . S
C1383 C1384 1.383 . S
C1383 H1391 0.929 . S
C1384 C1383 1.383 . S
C1384 C1385 1.377 . S
C1385 H1369 0.930 . S
C1385 C1384 1.377 . S
C1385 C1386 1.379 . S
C1386 H1370 0.931 . S
C1386 C1380 1.383 . S
C1386 C1385 1.379 . S
H1387 C1381 0.959 . S
H1388 C1381 0.961 . S
H1389 C1381 0.960 . S
H1390 C1382 0.930 . S
H1391 C1383 0.929 . S
H1392 C1400 0.929 . S
H1393 C1402 0.930 . S
H1394 C1404 0.930 . S
H1395 C1407 0.929 . S
H1396 C1410 0.930 . S
H1397 C1412 0.960 . S
H1398 C1412 0.960 . S
H1399 C1412 0.960 . S
C1400 H1392 0.929 . S
C1400 C1401 1.377 . S
C1400 C1402 1.384 . S
C1401 C1400 1.377 . S
C1401 C1407 1.390 . S
C1402 H1393 0.930 . S
C1402 C1400 1.384 . S
C1402 C1403 1.372 . S
C1403 C1402 1.372 . S
C1403 C1404 1.400 . S
C1403 C1408 1.490 . S
C1404 H1394 0.930 . S
C1404 C1403 1.400 . S
C1404 C1407 1.386 . S
H1405 C1421 0.930 . S
H1406 C1422 0.931 . S
C1407 H1395 0.929 . S
C1407 C1401 1.390 . S
C1407 C1404 1.386 . S
C1408 C1403 1.490 . S
C1408 C1410 1.395 . S
C1408 C1411 1.403 . S
H1409 C1415 0.930 . S
C1410 H1396 0.930 . S
C1410 C1408 1.395 . S
C1410 C1413 1.403 . S
C1411 C1408 1.403 . S
C1411 C1412 1.524 . S
C1411 C1415 1.400 . S
C1412 H1397 0.960 . S
C1412 H1398 0.960 . S
C1412 H1399 0.960 . S
C1412 C1411 1.524 . S
C1413 C1410 1.403 . S
C1413 C1414 1.392 . S
C1413 C1417 1.495 . S
C1414 C1413 1.392 . S
C1414 C1415 1.385 . S
C1414 C1416 1.478 . S
C1415 H1409 0.930 . S
C1415 C1411 1.400 . S
C1415 C1414 1.385 . S
C1416 C1414 1.478 . S
C1416 C1418 1.381 . S
C1416 C1422 1.383 . S
C1417 C1413 1.495 . S
C1417 H1423 0.959 . S
C1417 H1424 0.961 . S
C1417 H1425 0.960 . S
C1418 C1416 1.381 . S
C1418 C1419 1.394 . S
C1418 H1426 0.930 . S
C1419 C1418 1.394 . S
C1419 C1420 1.383 . S
C1419 H1427 0.929 . S
C1420 C1419 1.383 . S
C1420 C1421 1.377 . S
C1421 H1405 0.930 . S
C1421 C1420 1.377 . S
C1421 C1422 1.379 . S
C1422 H1406 0.931 . S
C1422 C1416 1.383 . S
C1422 C1421 1.379 . S
H1423 C1417 0.959 . S
H1424 C1417 0.961 . S
H1425 C1417 0.960 . S
H1426 C1418 0.930 . S
H1427 C1419 0.929 . S
H1428 C1436 0.929 . S
H1429 C1438 0.930 . S
H1430 C1440 0.930 . S
H1431 C1443 0.929 . S
H1432 C1446 0.930 . S
H1433 C1448 0.960 . S
H1434 C1448 0.960 . S
H1435 C1448 0.960 . S
C1436 H1428 0.929 . S
C1436 C1437 1.377 . S
C1436 C1438 1.384 . S
C1437 C1436 1.377 . S
C1437 C1443 1.390 . S
C1438 H1429 0.930 . S
C1438 C1436 1.384 . S
C1438 C1439 1.372 . S
C1439 C1438 1.372 . S
C1439 C1440 1.400 . S
C1439 C1444 1.490 . S
C1440 H1430 0.930 . S
C1440 C1439 1.400 . S
C1440 C1443 1.386 . S
H1441 C1457 0.930 . S
H1442 C1458 0.931 . S
C1443 H1431 0.929 . S
C1443 C1437 1.390 . S
C1443 C1440 1.386 . S
C1444 C1439 1.490 . S
C1444 C1446 1.395 . S
C1444 C1447 1.403 . S
H1445 C1451 0.930 . S
C1446 H1432 0.930 . S
C1446 C1444 1.395 . S
C1446 C1449 1.403 1_554 S
C1447 C1444 1.403 . S
C1447 C1448 1.524 . S
C1447 C1451 1.400 1_554 S
C1448 H1433 0.960 . S
C1448 H1434 0.960 . S
C1448 H1435 0.960 . S
C1448 C1447 1.524 . S
C1449 C1446 1.403 1_556 S
C1449 C1450 1.392 . S
C1449 C1453 1.495 . S
C1450 C1449 1.392 . S
C1450 C1451 1.385 . S
C1450 C1452 1.478 . S
C1451 H1445 0.930 . S
C1451 C1447 1.400 1_556 S
C1451 C1450 1.385 . S
C1452 C1450 1.478 . S
C1452 C1454 1.381 . S
C1452 C1458 1.383 . S
C1453 C1449 1.495 . S
C1453 H1459 0.959 . S
C1453 H1460 0.961 . S
C1453 H1461 0.960 . S
C1454 C1452 1.381 . S
C1454 C1455 1.394 . S
C1454 H1462 0.930 . S
C1455 C1454 1.394 . S
C1455 C1456 1.383 . S
C1455 H1463 0.929 . S
C1456 C1455 1.383 . S
C1456 C1457 1.377 . S
C1457 H1441 0.930 . S
C1457 C1456 1.377 . S
C1457 C1458 1.379 . S
C1458 H1442 0.931 . S
C1458 C1452 1.383 . S
C1458 C1457 1.379 . S
H1459 C1453 0.959 . S
H1460 C1453 0.961 . S
H1461 C1453 0.960 . S
H1462 C1454 0.930 . S
H1463 C1455 0.929 . S
H1464 C1472 0.929 . S
H1465 C1474 0.930 . S
H1466 C1476 0.930 . S
H1467 C1479 0.929 . S
H1468 C1482 0.930 . S
H1469 C1484 0.960 . S
H1470 C1484 0.960 . S
H1471 C1484 0.960 . S
C1472 H1464 0.929 . S
C1472 C1473 1.377 . S
C1472 C1474 1.384 . S
C1473 C1472 1.377 . S
C1473 C1479 1.390 . S
C1474 H1465 0.930 . S
C1474 C1472 1.384 . S
C1474 C1475 1.372 . S
C1475 C1474 1.372 . S
C1475 C1476 1.400 . S
C1475 C1480 1.490 . S
C1476 H1466 0.930 . S
C1476 C1475 1.400 . S
C1476 C1479 1.386 . S
H1477 C1493 0.930 . S
H1478 C1494 0.931 . S
C1479 H1467 0.929 . S
C1479 C1473 1.390 . S
C1479 C1476 1.386 . S
C1480 C1475 1.490 . S
C1480 C1482 1.395 . S
C1480 C1483 1.403 . S
H1481 C1487 0.930 . S
C1482 H1468 0.930 . S
C1482 C1480 1.395 . S
C1482 C1485 1.403 . S
C1483 C1480 1.403 . S
C1483 C1484 1.524 . S
C1483 C1487 1.400 . S
C1484 H1469 0.960 . S
C1484 H1470 0.960 . S
C1484 H1471 0.960 . S
C1484 C1483 1.524 . S
C1485 C1482 1.403 . S
C1485 C1486 1.392 . S
C1485 C1489 1.495 . S
C1486 C1485 1.392 . S
C1486 C1487 1.385 . S
C1486 C1488 1.478 . S
C1487 H1481 0.930 . S
C1487 C1483 1.400 . S
C1487 C1486 1.385 . S
C1488 C1486 1.478 . S
C1488 C1490 1.381 . S
C1488 C1494 1.383 . S
C1489 C1485 1.495 . S
C1489 H1495 0.959 . S
C1489 H1496 0.961 . S
C1489 H1497 0.960 . S
C1490 C1488 1.381 . S
C1490 C1491 1.394 . S
C1490 H1498 0.930 . S
C1491 C1490 1.394 . S
C1491 C1492 1.383 . S
C1491 H1499 0.929 . S
C1492 C1491 1.383 . S
C1492 C1493 1.377 . S
C1493 H1477 0.930 . S
C1493 C1492 1.377 . S
C1493 C1494 1.379 . S
C1494 H1478 0.931 . S
C1494 C1488 1.383 . S
C1494 C1493 1.379 . S
H1495 C1489 0.959 . S
H1496 C1489 0.961 . S
H1497 C1489 0.960 . S
H1498 C1490 0.930 . S
H1499 C1491 0.929 . S
H1500 C1508 0.929 . S
H1501 C1510 0.930 . S
H1502 C1512 0.930 . S
H1503 C1515 0.929 . S
H1504 C1518 0.930 . S
H1505 C1520 0.960 . S
H1506 C1520 0.960 . S
H1507 C1520 0.960 . S
C1508 H1500 0.929 . S
C1508 C1509 1.377 . S
C1508 C1510 1.384 . S
C1509 C1508 1.377 . S
C1509 C1515 1.390 . S
C1510 H1501 0.930 . S
C1510 C1508 1.384 . S
C1510 C1511 1.372 . S
C1511 C1510 1.372 . S
C1511 C1512 1.400 . S
C1511 C1516 1.490 . S
C1512 H1502 0.930 . S
C1512 C1511 1.400 . S
C1512 C1515 1.386 . S
H1513 C1529 0.930 . S
H1514 C1530 0.931 . S
C1515 H1503 0.929 . S
C1515 C1509 1.390 . S
C1515 C1512 1.386 . S
C1516 C1511 1.490 . S
C1516 C1518 1.395 . S
C1516 C1519 1.403 . S
H1517 C1523 0.930 . S
C1518 H1504 0.930 . S
C1518 C1516 1.395 . S
C1518 C1521 1.403 . S
C1519 C1516 1.403 . S
C1519 C1520 1.524 . S
C1519 C1523 1.400 . S
C1520 H1505 0.960 . S
C1520 H1506 0.960 . S
C1520 H1507 0.960 . S
C1520 C1519 1.524 . S
C1521 C1518 1.403 . S
C1521 C1522 1.392 . S
C1521 C1525 1.495 . S
C1522 C1521 1.392 . S
C1522 C1523 1.385 . S
C1522 C1524 1.478 . S
C1523 H1517 0.930 . S
C1523 C1519 1.400 . S
C1523 C1522 1.385 . S
C1524 C1522 1.478 . S
C1524 C1526 1.381 . S
C1524 C1530 1.383 . S
C1525 C1521 1.495 . S
C1525 H1531 0.959 . S
C1525 H1532 0.961 . S
C1525 H1533 0.960 . S
C1526 C1524 1.381 . S
C1526 C1527 1.394 . S
C1526 H1534 0.930 . S
C1527 C1526 1.394 . S
C1527 C1528 1.383 . S
C1527 H1535 0.929 . S
C1528 C1527 1.383 . S
C1528 C1529 1.377 . S
C1529 H1513 0.930 . S
C1529 C1528 1.377 . S
C1529 C1530 1.379 . S
C1530 H1514 0.931 . S
C1530 C1524 1.383 . S
C1530 C1529 1.379 . S
H1531 C1525 0.959 . S
H1532 C1525 0.961 . S
H1533 C1525 0.960 . S
H1534 C1526 0.930 . S
H1535 C1527 0.929 . S
H1536 C1544 0.929 . S
H1537 C1546 0.930 . S
H1538 C1548 0.930 . S
H1539 C1551 0.929 . S
H1540 C1554 0.930 . S
H1541 C1556 0.960 . S
H1542 C1556 0.960 . S
H1543 C1556 0.960 . S
C1544 H1536 0.929 . S
C1544 C1545 1.377 . S
C1544 C1546 1.384 . S
C1545 C1544 1.377 . S
C1545 C1551 1.390 . S
C1546 H1537 0.930 . S
C1546 C1544 1.384 . S
C1546 C1547 1.372 . S
C1547 C1546 1.372 . S
C1547 C1548 1.400 . S
C1547 C1552 1.490 . S
C1548 H1538 0.930 . S
C1548 C1547 1.400 . S
C1548 C1551 1.386 . S
H1549 C1565 0.930 . S
H1550 C1566 0.931 . S
C1551 H1539 0.929 . S
C1551 C1545 1.390 . S
C1551 C1548 1.386 . S
C1552 C1547 1.490 . S
C1552 C1554 1.395 . S
C1552 C1555 1.403 . S
H1553 C1559 0.930 . S
C1554 H1540 0.930 . S
C1554 C1552 1.395 . S
C1554 C1557 1.403 . S
C1555 C1552 1.403 . S
C1555 C1556 1.524 . S
C1555 C1559 1.400 . S
C1556 H1541 0.960 . S
C1556 H1542 0.960 . S
C1556 H1543 0.960 . S
C1556 C1555 1.524 . S
C1557 C1554 1.403 . S
C1557 C1558 1.392 . S
C1557 C1561 1.495 . S
C1558 C1557 1.392 . S
C1558 C1559 1.385 . S
C1558 C1560 1.478 . S
C1559 H1553 0.930 . S
C1559 C1555 1.400 . S
C1559 C1558 1.385 . S
C1560 C1558 1.478 . S
C1560 C1562 1.381 . S
C1560 C1566 1.383 . S
C1561 C1557 1.495 . S
C1561 H1567 0.959 . S
C1561 H1568 0.961 . S
C1561 H1569 0.960 . S
C1562 C1560 1.381 . S
C1562 C1563 1.394 . S
C1562 H1570 0.930 . S
C1563 C1562 1.394 . S
C1563 C1564 1.383 . S
C1563 H1571 0.929 . S
C1564 C1563 1.383 . S
C1564 C1565 1.377 . S
C1565 H1549 0.930 . S
C1565 C1564 1.377 . S
C1565 C1566 1.379 . S
C1566 H1550 0.931 . S
C1566 C1560 1.383 . S
C1566 C1565 1.379 . S
H1567 C1561 0.959 . S
H1568 C1561 0.961 . S
H1569 C1561 0.960 . S
H1570 C1562 0.930 . S
H1571 C1563 0.929 . S
H1572 C1580 0.929 . S
H1573 C1582 0.930 . S
H1574 C1584 0.930 . S
H1575 C1587 0.929 . S
H1576 C1590 0.930 . S
H1577 C1592 0.960 . S
H1578 C1592 0.960 . S
H1579 C1592 0.960 . S
C1580 H1572 0.929 . S
C1580 C1581 1.377 . S
C1580 C1582 1.384 . S
C1581 C1580 1.377 . S
C1581 C1587 1.390 . S
C1582 H1573 0.930 . S
C1582 C1580 1.384 . S
C1582 C1583 1.372 . S
C1583 C1582 1.372 . S
C1583 C1584 1.400 . S
C1583 C1588 1.490 . S
C1584 H1574 0.930 . S
C1584 C1583 1.400 . S
C1584 C1587 1.386 . S
H1585 C1601 0.930 . S
H1586 C1602 0.931 . S
C1587 H1575 0.929 . S
C1587 C1581 1.390 . S
C1587 C1584 1.386 . S
C1588 C1583 1.490 . S
C1588 C1590 1.395 . S
C1588 C1591 1.403 . S
H1589 C1595 0.930 . S
C1590 H1576 0.930 . S
C1590 C1588 1.395 . S
C1590 C1593 1.403 . S
C1591 C1588 1.403 . S
C1591 C1592 1.524 . S
C1591 C1595 1.400 . S
C1592 H1577 0.960 . S
C1592 H1578 0.960 . S
C1592 H1579 0.960 . S
C1592 C1591 1.524 . S
C1593 C1590 1.403 . S
C1593 C1594 1.392 . S
C1593 C1597 1.495 . S
C1594 C1593 1.392 . S
C1594 C1595 1.385 . S
C1594 C1596 1.478 . S
C1595 H1589 0.930 . S
C1595 C1591 1.400 . S
C1595 C1594 1.385 . S
C1596 C1594 1.478 . S
C1596 C1598 1.381 . S
C1596 C1602 1.383 . S
C1597 C1593 1.495 . S
C1597 H1603 0.959 . S
C1597 H1604 0.961 . S
C1597 H1605 0.960 . S
C1598 C1596 1.381 . S
C1598 C1599 1.394 . S
C1598 H1606 0.930 . S
C1599 C1598 1.394 . S
C1599 C1600 1.383 . S
C1599 H1607 0.929 . S
C1600 C1599 1.383 . S
C1600 C1601 1.377 . S
C1601 H1585 0.930 . S
C1601 C1600 1.377 . S
C1601 C1602 1.379 . S
C1602 H1586 0.931 . S
C1602 C1596 1.383 . S
C1602 C1601 1.379 . S
H1603 C1597 0.959 . S
H1604 C1597 0.961 . S
H1605 C1597 0.960 . S
H1606 C1598 0.930 . S
H1607 C1599 0.929 . S
H1608 C1616 0.929 . S
H1609 C1618 0.930 . S
H1610 C1620 0.930 . S
H1611 C1623 0.929 . S
H1612 C1626 0.930 . S
H1613 C1628 0.960 . S
H1614 C1628 0.960 . S
H1615 C1628 0.960 . S
C1616 H1608 0.929 . S
C1616 C1617 1.377 . S
C1616 C1618 1.384 . S
C1617 C1616 1.377 . S
C1617 C1623 1.390 . S
C1618 H1609 0.930 . S
C1618 C1616 1.384 . S
C1618 C1619 1.372 . S
C1619 C1618 1.372 . S
C1619 C1620 1.400 . S
C1619 C1624 1.490 . S
C1620 H1610 0.930 . S
C1620 C1619 1.400 . S
C1620 C1623 1.386 . S
H1621 C1637 0.930 . S
H1622 C1638 0.931 . S
C1623 H1611 0.929 . S
C1623 C1617 1.390 . S
C1623 C1620 1.386 . S
C1624 C1619 1.490 . S
C1624 C1626 1.395 . S
C1624 C1627 1.403 . S
H1625 C1631 0.930 . S
C1626 H1612 0.930 . S
C1626 C1624 1.395 . S
C1626 C1629 1.403 . S
C1627 C1624 1.403 . S
C1627 C1628 1.524 . S
C1627 C1631 1.400 . S
C1628 H1613 0.960 . S
C1628 H1614 0.960 . S
C1628 H1615 0.960 . S
C1628 C1627 1.524 . S
C1629 C1626 1.403 . S
C1629 C1630 1.392 . S
C1629 C1633 1.495 . S
C1630 C1629 1.392 . S
C1630 C1631 1.385 . S
C1630 C1632 1.478 . S
C1631 H1625 0.930 . S
C1631 C1627 1.400 . S
C1631 C1630 1.385 . S
C1632 C1630 1.478 . S
C1632 C1634 1.381 . S
C1632 C1638 1.383 . S
C1633 C1629 1.495 . S
C1633 H1639 0.959 . S
C1633 H1640 0.961 . S
C1633 H1641 0.960 . S
C1634 C1632 1.381 . S
C1634 C1635 1.394 . S
C1634 H1642 0.930 . S
C1635 C1634 1.394 . S
C1635 C1636 1.383 . S
C1635 H1643 0.929 . S
C1636 C1635 1.383 . S
C1636 C1637 1.377 . S
C1637 H1621 0.930 . S
C1637 C1636 1.377 . S
C1637 C1638 1.379 . S
C1638 H1622 0.931 . S
C1638 C1632 1.383 . S
C1638 C1637 1.379 . S
H1639 C1633 0.959 . S
H1640 C1633 0.961 . S
H1641 C1633 0.960 . S
H1642 C1634 0.930 . S
H1643 C1635 0.929 . S
H1644 C1652 0.929 . S
H1645 C1654 0.930 . S
H1646 C1656 0.930 . S
H1647 C1659 0.929 . S
H1648 C1662 0.930 . S
H1649 C1664 0.960 . S
H1650 C1664 0.960 . S
H1651 C1664 0.960 . S
C1652 H1644 0.929 . S
C1652 C1653 1.377 . S
C1652 C1654 1.384 . S
C1653 C1652 1.377 . S
C1653 C1659 1.390 . S
C1654 H1645 0.930 . S
C1654 C1652 1.384 . S
C1654 C1655 1.372 . S
C1655 C1654 1.372 . S
C1655 C1656 1.400 . S
C1655 C1660 1.490 . S
C1656 H1646 0.930 . S
C1656 C1655 1.400 . S
C1656 C1659 1.386 . S
H1657 C1673 0.930 . S
H1658 C1674 0.931 . S
C1659 H1647 0.929 . S
C1659 C1653 1.390 . S
C1659 C1656 1.386 . S
C1660 C1655 1.490 . S
C1660 C1662 1.395 . S
C1660 C1663 1.403 . S
H1661 C1667 0.930 . S
C1662 H1648 0.930 . S
C1662 C1660 1.395 . S
C1662 C1665 1.403 . S
C1663 C1660 1.403 . S
C1663 C1664 1.524 . S
C1663 C1667 1.400 . S
C1664 H1649 0.960 . S
C1664 H1650 0.960 . S
C1664 H1651 0.960 . S
C1664 C1663 1.524 . S
C1665 C1662 1.403 . S
C1665 C1666 1.392 . S
C1665 C1669 1.495 . S
C1666 C1665 1.392 . S
C1666 C1667 1.385 . S
C1666 C1668 1.478 . S
C1667 H1661 0.930 . S
C1667 C1663 1.400 . S
C1667 C1666 1.385 . S
C1668 C1666 1.478 . S
C1668 C1670 1.381 . S
C1668 C1674 1.383 . S
C1669 C1665 1.495 . S
C1669 H1675 0.959 . S
C1669 H1676 0.961 . S
C1669 H1677 0.960 . S
C1670 C1668 1.381 . S
C1670 C1671 1.394 . S
C1670 H1678 0.930 . S
C1671 C1670 1.394 . S
C1671 C1672 1.383 . S
C1671 H1679 0.929 . S
C1672 C1671 1.383 . S
C1672 C1673 1.377 . S
C1673 H1657 0.930 . S
C1673 C1672 1.377 . S
C1673 C1674 1.379 . S
C1674 H1658 0.931 . S
C1674 C1668 1.383 . S
C1674 C1673 1.379 . S
H1675 C1669 0.959 . S
H1676 C1669 0.961 . S
H1677 C1669 0.960 . S
H1678 C1670 0.930 . S
H1679 C1671 0.929 . S
H1680 C1688 0.929 . S
H1681 C1690 0.930 . S
H1682 C1692 0.930 . S
H1683 C1695 0.929 . S
H1684 C1698 0.930 . S
H1685 C1700 0.960 . S
H1686 C1700 0.960 . S
H1687 C1700 0.960 . S
C1688 H1680 0.929 . S
C1688 C1689 1.377 . S
C1688 C1690 1.384 . S
C1689 C1688 1.377 . S
C1689 C1695 1.390 . S
C1690 H1681 0.930 . S
C1690 C1688 1.384 . S
C1690 C1691 1.372 . S
C1691 C1690 1.372 . S
C1691 C1692 1.400 . S
C1691 C1696 1.490 . S
C1692 H1682 0.930 . S
C1692 C1691 1.400 . S
C1692 C1695 1.386 . S
H1693 C1709 0.930 . S
H1694 C1710 0.931 . S
C1695 H1683 0.929 . S
C1695 C1689 1.390 . S
C1695 C1692 1.386 . S
C1696 C1691 1.490 . S
C1696 C1698 1.395 . S
C1696 C1699 1.403 . S
H1697 C1703 0.930 . S
C1698 H1684 0.930 . S
C1698 C1696 1.395 . S
C1698 C1701 1.403 . S
C1699 C1696 1.403 . S
C1699 C1700 1.524 . S
C1699 C1703 1.400 . S
C1700 H1685 0.960 . S
C1700 H1686 0.960 . S
C1700 H1687 0.960 . S
C1700 C1699 1.524 . S
C1701 C1698 1.403 . S
C1701 C1702 1.392 . S
C1701 C1705 1.495 . S
C1702 C1701 1.392 . S
C1702 C1703 1.385 . S
C1702 C1704 1.478 . S
C1703 H1697 0.930 . S
C1703 C1699 1.400 . S
C1703 C1702 1.385 . S
C1704 C1702 1.478 . S
C1704 C1706 1.381 . S
C1704 C1710 1.383 . S
C1705 C1701 1.495 . S
C1705 H1711 0.959 . S
C1705 H1712 0.961 . S
C1705 H1713 0.960 . S
C1706 C1704 1.381 . S
C1706 C1707 1.394 . S
C1706 H1714 0.930 . S
C1707 C1706 1.394 . S
C1707 C1708 1.383 . S
C1707 H1715 0.929 . S
C1708 C1707 1.383 . S
C1708 C1709 1.377 . S
C1709 H1693 0.930 . S
C1709 C1708 1.377 . S
C1709 C1710 1.379 . S
C1710 H1694 0.931 . S
C1710 C1704 1.383 . S
C1710 C1709 1.379 . S
H1711 C1705 0.959 . S
H1712 C1705 0.961 . S
H1713 C1705 0.960 . S
H1714 C1706 0.930 . S
H1715 C1707 0.929 . S
H1716 C1724 0.929 . S
H1717 C1726 0.930 . S
H1718 C1728 0.930 . S
H1719 C1731 0.929 . S
H1720 C1734 0.930 . S
H1721 C1736 0.960 . S
H1722 C1736 0.960 . S
H1723 C1736 0.960 . S
C1724 H1716 0.929 . S
C1724 C1725 1.377 . S
C1724 C1726 1.384 . S
C1725 C1724 1.377 . S
C1725 C1731 1.390 . S
C1726 H1717 0.930 . S
C1726 C1724 1.384 . S
C1726 C1727 1.372 . S
C1727 C1726 1.372 . S
C1727 C1728 1.400 . S
C1727 C1732 1.490 . S
C1728 H1718 0.930 . S
C1728 C1727 1.400 . S
C1728 C1731 1.386 . S
H1729 C1745 0.930 . S
H1730 C1746 0.931 . S
C1731 H1719 0.929 . S
C1731 C1725 1.390 . S
C1731 C1728 1.386 . S
C1732 C1727 1.490 . S
C1732 C1734 1.395 . S
C1732 C1735 1.403 . S
H1733 C1739 0.930 . S
C1734 H1720 0.930 . S
C1734 C1732 1.395 . S
C1734 C1737 1.403 . S
C1735 C1732 1.403 . S
C1735 C1736 1.524 . S
C1735 C1739 1.400 . S
C1736 H1721 0.960 . S
C1736 H1722 0.960 . S
C1736 H1723 0.960 . S
C1736 C1735 1.524 . S
C1737 C1734 1.403 . S
C1737 C1738 1.392 . S
C1737 C1741 1.495 . S
C1738 C1737 1.392 . S
C1738 C1739 1.385 . S
C1738 C1740 1.478 . S
C1739 H1733 0.930 . S
C1739 C1735 1.400 . S
C1739 C1738 1.385 . S
C1740 C1738 1.478 . S
C1740 C1742 1.381 . S
C1740 C1746 1.383 . S
C1741 C1737 1.495 . S
C1741 H1747 0.959 . S
C1741 H1748 0.961 . S
C1741 H1749 0.960 . S
C1742 C1740 1.381 . S
C1742 C1743 1.394 . S
C1742 H1750 0.930 . S
C1743 C1742 1.394 . S
C1743 C1744 1.383 . S
C1743 H1751 0.929 . S
C1744 C1743 1.383 . S
C1744 C1745 1.377 . S
C1745 H1729 0.930 . S
C1745 C1744 1.377 . S
C1745 C1746 1.379 . S
C1746 H1730 0.931 . S
C1746 C1740 1.383 . S
C1746 C1745 1.379 . S
H1747 C1741 0.959 . S
H1748 C1741 0.961 . S
H1749 C1741 0.960 . S
H1750 C1742 0.930 . S
H1751 C1743 0.929 . S
H1752 C1760 0.929 . S
H1753 C1762 0.930 . S
H1754 C1764 0.930 . S
H1755 C1767 0.929 . S
H1756 C1770 0.930 . S
H1757 C1772 0.960 . S
H1758 C1772 0.960 . S
H1759 C1772 0.960 . S
C1760 H1752 0.929 . S
C1760 C1761 1.377 . S
C1760 C1762 1.384 . S
C1761 C1760 1.377 . S
C1761 C1767 1.390 . S
C1762 H1753 0.930 . S
C1762 C1760 1.384 . S
C1762 C1763 1.372 . S
C1763 C1762 1.372 . S
C1763 C1764 1.400 . S
C1763 C1768 1.490 . S
C1764 H1754 0.930 . S
C1764 C1763 1.400 . S
C1764 C1767 1.386 . S
H1765 C1781 0.930 . S
H1766 C1782 0.931 . S
C1767 H1755 0.929 . S
C1767 C1761 1.390 . S
C1767 C1764 1.386 . S
C1768 C1763 1.490 . S
C1768 C1770 1.395 . S
C1768 C1771 1.403 . S
H1769 C1775 0.930 . S
C1770 H1756 0.930 . S
C1770 C1768 1.395 . S
C1770 C1773 1.403 . S
C1771 C1768 1.403 . S
C1771 C1772 1.524 . S
C1771 C1775 1.400 . S
C1772 H1757 0.960 . S
C1772 H1758 0.960 . S
C1772 H1759 0.960 . S
C1772 C1771 1.524 . S
C1773 C1770 1.403 . S
C1773 C1774 1.392 . S
C1773 C1777 1.495 . S
C1774 C1773 1.392 . S
C1774 C1775 1.385 . S
C1774 C1776 1.478 . S
C1775 H1769 0.930 . S
C1775 C1771 1.400 . S
C1775 C1774 1.385 . S
C1776 C1774 1.478 . S
C1776 C1778 1.381 . S
C1776 C1782 1.383 . S
C1777 C1773 1.495 . S
C1777 H1783 0.959 . S
C1777 H1784 0.961 . S
C1777 H1785 0.960 . S
C1778 C1776 1.381 . S
C1778 C1779 1.394 . S
C1778 H1786 0.930 . S
C1779 C1778 1.394 . S
C1779 C1780 1.383 . S
C1779 H1787 0.929 . S
C1780 C1779 1.383 . S
C1780 C1781 1.377 . S
C1781 H1765 0.930 . S
C1781 C1780 1.377 . S
C1781 C1782 1.379 . S
C1782 H1766 0.931 . S
C1782 C1776 1.383 . S
C1782 C1781 1.379 . S
H1783 C1777 0.959 . S
H1784 C1777 0.961 . S
H1785 C1777 0.960 . S
H1786 C1778 0.930 . S
H1787 C1779 0.929 . S
H1788 C1796 0.929 . S
H1789 C1798 0.930 . S
H1790 C1800 0.930 . S
H1791 C1803 0.929 . S
H1792 C1806 0.930 . S
H1793 C1808 0.960 . S
H1794 C1808 0.960 . S
H1795 C1808 0.960 . S
C1796 H1788 0.929 . S
C1796 C1797 1.377 . S
C1796 C1798 1.384 . S
C1797 C1796 1.377 . S
C1797 C1803 1.390 . S
C1798 H1789 0.930 . S
C1798 C1796 1.384 . S
C1798 C1799 1.372 . S
C1799 C1798 1.372 . S
C1799 C1800 1.400 . S
C1799 C1804 1.490 . S
C1800 H1790 0.930 . S
C1800 C1799 1.400 . S
C1800 C1803 1.386 . S
H1801 C1817 0.930 . S
H1802 C1818 0.931 . S
C1803 H1791 0.929 . S
C1803 C1797 1.390 . S
C1803 C1800 1.386 . S
C1804 C1799 1.490 . S
C1804 C1806 1.395 . S
C1804 C1807 1.403 . S
H1805 C1811 0.930 . S
C1806 H1792 0.930 . S
C1806 C1804 1.395 . S
C1806 C1809 1.403 . S
C1807 C1804 1.403 . S
C1807 C1808 1.524 . S
C1807 C1811 1.400 . S
C1808 H1793 0.960 . S
C1808 H1794 0.960 . S
C1808 H1795 0.960 . S
C1808 C1807 1.524 . S
C1809 C1806 1.403 . S
C1809 C1810 1.392 . S
C1809 C1813 1.495 . S
C1810 C1809 1.392 . S
C1810 C1811 1.385 . S
C1810 C1812 1.478 . S
C1811 H1805 0.930 . S
C1811 C1807 1.400 . S
C1811 C1810 1.385 . S
C1812 C1810 1.478 . S
C1812 C1814 1.381 . S
C1812 C1818 1.383 . S
C1813 C1809 1.495 . S
C1813 H1819 0.959 . S
C1813 H1820 0.961 . S
C1813 H1821 0.960 . S
C1814 C1812 1.381 . S
C1814 C1815 1.394 . S
C1814 H1822 0.930 . S
C1815 C1814 1.394 . S
C1815 C1816 1.383 . S
C1815 H1823 0.929 . S
C1816 C1815 1.383 . S
C1816 C1817 1.377 . S
C1817 H1801 0.930 . S
C1817 C1816 1.377 . S
C1817 C1818 1.379 . S
C1818 H1802 0.931 . S
C1818 C1812 1.383 . S
C1818 C1817 1.379 . S
H1819 C1813 0.959 . S
H1820 C1813 0.961 . S
H1821 C1813 0.960 . S
H1822 C1814 0.930 . S
H1823 C1815 0.929 . S
H1824 C1832 0.929 . S
H1825 C1834 0.930 . S
H1826 C1836 0.930 . S
H1827 C1839 0.929 . S
H1828 C1842 0.930 . S
H1829 C1844 0.960 . S
H1830 C1844 0.960 . S
H1831 C1844 0.960 . S
C1832 H1824 0.929 . S
C1832 C1833 1.377 . S
C1832 C1834 1.384 . S
C1833 C1832 1.377 . S
C1833 C1839 1.390 . S
C1834 H1825 0.930 . S
C1834 C1832 1.384 . S
C1834 C1835 1.372 . S
C1835 C1834 1.372 . S
C1835 C1836 1.400 . S
C1835 C1840 1.490 . S
C1836 H1826 0.930 . S
C1836 C1835 1.400 . S
C1836 C1839 1.386 . S
H1837 C1853 0.930 . S
H1838 C1854 0.931 . S
C1839 H1827 0.929 . S
C1839 C1833 1.390 . S
C1839 C1836 1.386 . S
C1840 C1835 1.490 . S
C1840 C1842 1.395 . S
C1840 C1843 1.403 . S
H1841 C1847 0.930 . S
C1842 H1828 0.930 . S
C1842 C1840 1.395 . S
C1842 C1845 1.403 . S
C1843 C1840 1.403 . S
C1843 C1844 1.524 . S
C1843 C1847 1.400 . S
C1844 H1829 0.960 . S
C1844 H1830 0.960 . S
C1844 H1831 0.960 . S
C1844 C1843 1.524 . S
C1845 C1842 1.403 . S
C1845 C1846 1.392 . S
C1845 C1849 1.495 . S
C1846 C1845 1.392 . S
C1846 C1847 1.385 . S
C1846 C1848 1.478 . S
C1847 H1841 0.930 . S
C1847 C1843 1.400 . S
C1847 C1846 1.385 . S
C1848 C1846 1.478 . S
C1848 C1850 1.381 . S
C1848 C1854 1.383 . S
C1849 C1845 1.495 . S
C1849 H1855 0.959 . S
C1849 H1856 0.961 . S
C1849 H1857 0.960 . S
C1850 C1848 1.381 . S
C1850 C1851 1.394 . S
C1850 H1858 0.930 . S
C1851 C1850 1.394 . S
C1851 C1852 1.383 . S
C1851 H1859 0.929 . S
C1852 C1851 1.383 . S
C1852 C1853 1.377 . S
C1853 H1837 0.930 . S
C1853 C1852 1.377 . S
C1853 C1854 1.379 . S
C1854 H1838 0.931 . S
C1854 C1848 1.383 . S
C1854 C1853 1.379 . S
H1855 C1849 0.959 . S
H1856 C1849 0.961 . S
H1857 C1849 0.960 . S
H1858 C1850 0.930 . S
H1859 C1851 0.929 . S
H1860 C1868 0.929 . S
H1861 C1870 0.930 . S
H1862 C1872 0.930 . S
H1863 C1875 0.929 . S
H1864 C1878 0.930 . S
H1865 C1880 0.960 . S
H1866 C1880 0.960 . S
H1867 C1880 0.960 . S
C1868 H1860 0.929 . S
C1868 C1869 1.377 . S
C1868 C1870 1.384 . S
C1869 C1868 1.377 . S
C1869 C1875 1.390 . S
C1870 H1861 0.930 . S
C1870 C1868 1.384 . S
C1870 C1871 1.372 . S
C1871 C1870 1.372 . S
C1871 C1872 1.400 . S
C1871 C1876 1.490 . S
C1872 H1862 0.930 . S
C1872 C1871 1.400 . S
C1872 C1875 1.386 . S
H1873 C1889 0.930 . S
H1874 C1890 0.931 . S
C1875 H1863 0.929 . S
C1875 C1869 1.390 . S
C1875 C1872 1.386 . S
C1876 C1871 1.490 . S
C1876 C1878 1.395 . S
C1876 C1879 1.403 . S
H1877 C1883 0.930 . S
C1878 H1864 0.930 . S
C1878 C1876 1.395 . S
C1878 C1881 1.403 . S
C1879 C1876 1.403 . S
C1879 C1880 1.524 . S
C1879 C1883 1.400 . S
C1880 H1865 0.960 . S
C1880 H1866 0.960 . S
C1880 H1867 0.960 . S
C1880 C1879 1.524 . S
C1881 C1878 1.403 . S
C1881 C1882 1.392 . S
C1881 C1885 1.495 . S
C1882 C1881 1.392 . S
C1882 C1883 1.385 . S
C1882 C1884 1.478 . S
C1883 H1877 0.930 . S
C1883 C1879 1.400 . S
C1883 C1882 1.385 . S
C1884 C1882 1.478 . S
C1884 C1886 1.381 . S
C1884 C1890 1.383 . S
C1885 C1881 1.495 . S
C1885 H1891 0.959 . S
C1885 H1892 0.961 . S
C1885 H1893 0.960 . S
C1886 C1884 1.381 . S
C1886 C1887 1.394 . S
C1886 H1894 0.930 . S
C1887 C1886 1.394 . S
C1887 C1888 1.383 . S
C1887 H1895 0.929 . S
C1888 C1887 1.383 . S
C1888 C1889 1.377 . S
C1889 H1873 0.930 . S
C1889 C1888 1.377 . S
C1889 C1890 1.379 . S
C1890 H1874 0.931 . S
C1890 C1884 1.383 . S
C1890 C1889 1.379 . S
H1891 C1885 0.959 . S
H1892 C1885 0.961 . S
H1893 C1885 0.960 . S
H1894 C1886 0.930 . S
H1895 C1887 0.929 . S
H1896 C1904 0.929 . S
H1897 C1906 0.930 . S
H1898 C1908 0.930 . S
H1899 C1911 0.929 . S
H1900 C1914 0.930 . S
H1901 C1916 0.960 . S
H1902 C1916 0.960 . S
H1903 C1916 0.960 . S
C1904 H1896 0.929 . S
C1904 C1905 1.377 . S
C1904 C1906 1.384 . S
C1905 C1904 1.377 . S
C1905 C1911 1.390 . S
C1906 H1897 0.930 . S
C1906 C1904 1.384 . S
C1906 C1907 1.372 . S
C1907 C1906 1.372 . S
C1907 C1908 1.400 . S
C1907 C1912 1.490 . S
C1908 H1898 0.930 . S
C1908 C1907 1.400 . S
C1908 C1911 1.386 . S
H1909 C1925 0.930 . S
H1910 C1926 0.931 . S
C1911 H1899 0.929 . S
C1911 C1905 1.390 . S
C1911 C1908 1.386 . S
C1912 C1907 1.490 . S
C1912 C1914 1.395 . S
C1912 C1915 1.403 . S
H1913 C1919 0.930 . S
C1914 H1900 0.930 . S
C1914 C1912 1.395 . S
C1914 C1917 1.403 . S
C1915 C1912 1.403 . S
C1915 C1916 1.524 . S
C1915 C1919 1.400 . S
C1916 H1901 0.960 . S
C1916 H1902 0.960 . S
C1916 H1903 0.960 . S
C1916 C1915 1.524 . S
C1917 C1914 1.403 . S
C1917 C1918 1.392 . S
C1917 C1921 1.495 . S
C1918 C1917 1.392 . S
C1918 C1919 1.385 . S
C1918 C1920 1.478 . S
C1919 H1913 0.930 . S
C1919 C1915 1.400 . S
C1919 C1918 1.385 . S
C1920 C1918 1.478 . S
C1920 C1922 1.381 . S
C1920 C1926 1.383 . S
C1921 C1917 1.495 . S
C1921 H1927 0.959 . S
C1921 H1928 0.961 . S
C1921 H1929 0.960 . S
C1922 C1920 1.381 . S
C1922 C1923 1.394 . S
C1922 H1930 0.930 . S
C1923 C1922 1.394 . S
C1923 C1924 1.383 . S
C1923 H1931 0.929 . S
C1924 C1923 1.383 . S
C1924 C1925 1.377 . S
C1925 H1909 0.930 . S
C1925 C1924 1.377 . S
C1925 C1926 1.379 . S
C1926 H1910 0.931 . S
C1926 C1920 1.383 . S
C1926 C1925 1.379 . S
H1927 C1921 0.959 . S
H1928 C1921 0.961 . S
H1929 C1921 0.960 . S
H1930 C1922 0.930 . S
H1931 C1923 0.929 . S
H1932 C1940 0.929 . S
H1933 C1942 0.930 . S
H1934 C1944 0.930 . S
H1935 C1947 0.929 . S
H1936 C1950 0.930 . S
H1937 C1952 0.960 . S
H1938 C1952 0.960 . S
H1939 C1952 0.960 . S
C1940 H1932 0.929 . S
C1940 C1941 1.377 . S
C1940 C1942 1.384 . S
C1941 C1940 1.377 . S
C1941 C1947 1.390 . S
C1942 H1933 0.930 . S
C1942 C1940 1.384 . S
C1942 C1943 1.372 . S
C1943 C1942 1.372 . S
C1943 C1944 1.400 . S
C1943 C1948 1.490 . S
C1944 H1934 0.930 . S
C1944 C1943 1.400 . S
C1944 C1947 1.386 . S
H1945 C1961 0.930 . S
H1946 C1962 0.931 . S
C1947 H1935 0.929 . S
C1947 C1941 1.390 . S
C1947 C1944 1.386 . S
C1948 C1943 1.490 . S
C1948 C1950 1.395 . S
C1948 C1951 1.403 . S
H1949 C1955 0.930 . S
C1950 H1936 0.930 . S
C1950 C1948 1.395 . S
C1950 C1953 1.403 . S
C1951 C1948 1.403 . S
C1951 C1952 1.524 . S
C1951 C1955 1.400 . S
C1952 H1937 0.960 . S
C1952 H1938 0.960 . S
C1952 H1939 0.960 . S
C1952 C1951 1.524 . S
C1953 C1950 1.403 . S
C1953 C1954 1.392 . S
C1953 C1957 1.495 . S
C1954 C1953 1.392 . S
C1954 C1955 1.385 . S
C1954 C1956 1.478 . S
C1955 H1949 0.930 . S
C1955 C1951 1.400 . S
C1955 C1954 1.385 . S
C1956 C1954 1.478 . S
C1956 C1958 1.381 . S
C1956 C1962 1.383 . S
C1957 C1953 1.495 . S
C1957 H1963 0.959 . S
C1957 H1964 0.961 . S
C1957 H1965 0.960 . S
C1958 C1956 1.381 . S
C1958 C1959 1.394 . S
C1958 H1966 0.930 . S
C1959 C1958 1.394 . S
C1959 C1960 1.383 . S
C1959 H1967 0.929 . S
C1960 C1959 1.383 . S
C1960 C1961 1.377 . S
C1961 H1945 0.930 . S
C1961 C1960 1.377 . S
C1961 C1962 1.379 . S
C1962 H1946 0.931 . S
C1962 C1956 1.383 . S
C1962 C1961 1.379 . S
H1963 C1957 0.959 . S
H1964 C1957 0.961 . S
H1965 C1957 0.960 . S
H1966 C1958 0.930 . S
H1967 C1959 0.929 . S
H1968 C1976 0.929 . S
H1969 C1978 0.930 . S
H1970 C1980 0.930 . S
H1971 C1983 0.929 . S
H1972 C1986 0.930 . S
H1973 C1988 0.960 . S
H1974 C1988 0.960 . S
H1975 C1988 0.960 . S
C1976 H1968 0.929 . S
C1976 C1977 1.377 . S
C1976 C1978 1.384 . S
C1977 C1976 1.377 . S
C1977 C1983 1.390 . S
C1978 H1969 0.930 . S
C1978 C1976 1.384 . S
C1978 C1979 1.372 . S
C1979 C1978 1.372 . S
C1979 C1980 1.400 . S
C1979 C1984 1.490 . S
C1980 H1970 0.930 . S
C1980 C1979 1.400 . S
C1980 C1983 1.386 . S
H1981 C1997 0.930 . S
H1982 C1998 0.931 . S
C1983 H1971 0.929 . S
C1983 C1977 1.390 . S
C1983 C1980 1.386 . S
C1984 C1979 1.490 . S
C1984 C1986 1.395 . S
C1984 C1987 1.403 . S
H1985 C1991 0.930 . S
C1986 H1972 0.930 . S
C1986 C1984 1.395 . S
C1986 C1989 1.403 . S
C1987 C1984 1.403 . S
C1987 C1988 1.524 . S
C1987 C1991 1.400 . S
C1988 H1973 0.960 . S
C1988 H1974 0.960 . S
C1988 H1975 0.960 . S
C1988 C1987 1.524 . S
C1989 C1986 1.403 . S
C1989 C1990 1.392 . S
C1989 C1993 1.495 . S
C1990 C1989 1.392 . S
C1990 C1991 1.385 . S
C1990 C1992 1.478 . S
C1991 H1985 0.930 . S
C1991 C1987 1.400 . S
C1991 C1990 1.385 . S
C1992 C1990 1.478 . S
C1992 C1994 1.381 . S
C1992 C1998 1.383 . S
C1993 C1989 1.495 . S
C1993 H1999 0.959 . S
C1993 H2000 0.961 . S
C1993 H2001 0.960 . S
C1994 C1992 1.381 . S
C1994 C1995 1.394 . S
C1994 H2002 0.930 . S
C1995 C1994 1.394 . S
C1995 C1996 1.383 . S
C1995 H2003 0.929 . S
C1996 C1995 1.383 . S
C1996 C1997 1.377 . S
C1997 H1981 0.930 . S
C1997 C1996 1.377 . S
C1997 C1998 1.379 . S
C1998 H1982 0.931 . S
C1998 C1992 1.383 . S
C1998 C1997 1.379 . S
H1999 C1993 0.959 . S
H2000 C1993 0.961 . S
H2001 C1993 0.960 . S
H2002 C1994 0.930 . S
H2003 C1995 0.929 . S
H2004 C2012 0.929 . S
H2005 C2014 0.930 . S
H2006 C2016 0.930 . S
H2007 C2019 0.929 . S
H2008 C2022 0.930 . S
H2009 C2024 0.960 . S
H2010 C2024 0.960 . S
H2011 C2024 0.960 . S
C2012 H2004 0.929 . S
C2012 C2013 1.377 . S
C2012 C2014 1.384 . S
C2013 C2012 1.377 . S
C2013 C2019 1.390 . S
C2014 H2005 0.930 . S
C2014 C2012 1.384 . S
C2014 C2015 1.372 . S
C2015 C2014 1.372 . S
C2015 C2016 1.400 . S
C2015 C2020 1.490 . S
C2016 H2006 0.930 . S
C2016 C2015 1.400 . S
C2016 C2019 1.386 . S
H2017 C2033 0.930 . S
H2018 C2034 0.931 . S
C2019 H2007 0.929 . S
C2019 C2013 1.390 . S
C2019 C2016 1.386 . S
C2020 C2015 1.490 . S
C2020 C2022 1.395 . S
C2020 C2023 1.403 . S
H2021 C2027 0.930 . S
C2022 H2008 0.930 . S
C2022 C2020 1.395 . S
C2022 C2025 1.403 . S
C2023 C2020 1.403 . S
C2023 C2024 1.524 . S
C2023 C2027 1.400 . S
C2024 H2009 0.960 . S
C2024 H2010 0.960 . S
C2024 H2011 0.960 . S
C2024 C2023 1.524 . S
C2025 C2022 1.403 . S
C2025 C2026 1.392 . S
C2025 C2029 1.495 . S
C2026 C2025 1.392 . S
C2026 C2027 1.385 . S
C2026 C2028 1.478 . S
C2027 H2021 0.930 . S
C2027 C2023 1.400 . S
C2027 C2026 1.385 . S
C2028 C2026 1.478 . S
C2028 C2030 1.381 . S
C2028 C2034 1.383 . S
C2029 C2025 1.495 . S
C2029 H2035 0.959 . S
C2029 H2036 0.961 . S
C2029 H2037 0.960 . S
C2030 C2028 1.381 . S
C2030 C2031 1.394 . S
C2030 H2038 0.930 . S
C2031 C2030 1.394 . S
C2031 C2032 1.383 . S
C2031 H2039 0.929 . S
C2032 C2031 1.383 . S
C2032 C2033 1.377 . S
C2033 H2017 0.930 . S
C2033 C2032 1.377 . S
C2033 C2034 1.379 . S
C2034 H2018 0.931 . S
C2034 C2028 1.383 . S
C2034 C2033 1.379 . S
H2035 C2029 0.959 . S
H2036 C2029 0.961 . S
H2037 C2029 0.960 . S
H2038 C2030 0.930 . S
H2039 C2031 0.929 . S
H2040 C2048 0.929 . S
H2041 C2050 0.930 . S
H2042 C2052 0.930 . S
H2043 C2055 0.929 . S
H2044 C2058 0.930 . S
H2045 C2060 0.960 . S
H2046 C2060 0.960 . S
H2047 C2060 0.960 . S
C2048 H2040 0.929 . S
C2048 C2049 1.377 . S
C2048 C2050 1.384 . S
C2049 C2048 1.377 . S
C2049 C2055 1.390 . S
C2050 H2041 0.930 . S
C2050 C2048 1.384 . S
C2050 C2051 1.372 . S
C2051 C2050 1.372 . S
C2051 C2052 1.400 . S
C2051 C2056 1.490 . S
C2052 H2042 0.930 . S
C2052 C2051 1.400 . S
C2052 C2055 1.386 . S
H2053 C2069 0.930 . S
H2054 C2070 0.931 . S
C2055 H2043 0.929 . S
C2055 C2049 1.390 . S
C2055 C2052 1.386 . S
C2056 C2051 1.490 . S
C2056 C2058 1.395 . S
C2056 C2059 1.403 . S
H2057 C2063 0.930 . S
C2058 H2044 0.930 . S
C2058 C2056 1.395 . S
C2058 C2061 1.403 . S
C2059 C2056 1.403 . S
C2059 C2060 1.524 . S
C2059 C2063 1.400 . S
C2060 H2045 0.960 . S
C2060 H2046 0.960 . S
C2060 H2047 0.960 . S
C2060 C2059 1.524 . S
C2061 C2058 1.403 . S
C2061 C2062 1.392 . S
C2061 C2065 1.495 . S
C2062 C2061 1.392 . S
C2062 C2063 1.385 . S
C2062 C2064 1.478 . S
C2063 H2057 0.930 . S
C2063 C2059 1.400 . S
C2063 C2062 1.385 . S
C2064 C2062 1.478 . S
C2064 C2066 1.381 . S
C2064 C2070 1.383 . S
C2065 C2061 1.495 . S
C2065 H2071 0.959 . S
C2065 H2072 0.961 . S
C2065 H2073 0.960 . S
C2066 C2064 1.381 . S
C2066 C2067 1.394 . S
C2066 H2074 0.930 . S
C2067 C2066 1.394 . S
C2067 C2068 1.383 . S
C2067 H2075 0.929 . S
C2068 C2067 1.383 . S
C2068 C2069 1.377 . S
C2069 H2053 0.930 . S
C2069 C2068 1.377 . S
C2069 C2070 1.379 . S
C2070 H2054 0.931 . S
C2070 C2064 1.383 . S
C2070 C2069 1.379 . S
H2071 C2065 0.959 . S
H2072 C2065 0.961 . S
H2073 C2065 0.960 . S
H2074 C2066 0.930 . S
H2075 C2067 0.929 . S
H2076 C2084 0.929 . S
H2077 C2086 0.930 . S
H2078 C2088 0.930 . S
H2079 C2091 0.929 . S
H2080 C2094 0.930 . S
H2081 C2096 0.960 . S
H2082 C2096 0.960 . S
H2083 C2096 0.960 . S
C2084 H2076 0.929 . S
C2084 C2085 1.377 . S
C2084 C2086 1.384 . S
C2085 C2084 1.377 . S
C2085 C2091 1.390 . S
C2086 H2077 0.930 . S
C2086 C2084 1.384 . S
C2086 C2087 1.372 . S
C2087 C2086 1.372 . S
C2087 C2088 1.400 . S
C2087 C2092 1.490 . S
C2088 H2078 0.930 . S
C2088 C2087 1.400 . S
C2088 C2091 1.386 . S
H2089 C2105 0.930 . S
H2090 C2106 0.931 . S
C2091 H2079 0.929 . S
C2091 C2085 1.390 . S
C2091 C2088 1.386 . S
C2092 C2087 1.490 . S
C2092 C2094 1.395 . S
C2092 C2095 1.403 . S
H2093 C2099 0.930 . S
C2094 H2080 0.930 . S
C2094 C2092 1.395 . S
C2094 C2097 1.403 . S
C2095 C2092 1.403 . S
C2095 C2096 1.524 . S
C2095 C2099 1.400 . S
C2096 H2081 0.960 . S
C2096 H2082 0.960 . S
C2096 H2083 0.960 . S
C2096 C2095 1.524 . S
C2097 C2094 1.403 . S
C2097 C2098 1.392 . S
C2097 C2101 1.495 . S
C2098 C2097 1.392 . S
C2098 C2099 1.385 . S
C2098 C2100 1.478 . S
C2099 H2093 0.930 . S
C2099 C2095 1.400 . S
C2099 C2098 1.385 . S
C2100 C2098 1.478 . S
C2100 C2102 1.381 . S
C2100 C2106 1.383 . S
C2101 C2097 1.495 . S
C2101 H2107 0.959 . S
C2101 H2108 0.961 . S
C2101 H2109 0.960 . S
C2102 C2100 1.381 . S
C2102 C2103 1.394 . S
C2102 H2110 0.930 . S
C2103 C2102 1.394 . S
C2103 C2104 1.383 . S
C2103 H2111 0.929 . S
C2104 C2103 1.383 . S
C2104 C2105 1.377 . S
C2105 H2089 0.930 . S
C2105 C2104 1.377 . S
C2105 C2106 1.379 . S
C2106 H2090 0.931 . S
C2106 C2100 1.383 . S
C2106 C2105 1.379 . S
H2107 C2101 0.959 . S
H2108 C2101 0.961 . S
H2109 C2101 0.960 . S
H2110 C2102 0.930 . S
H2111 C2103 0.929 . S
H2112 C2120 0.929 . S
H2113 C2122 0.930 . S
H2114 C2124 0.930 . S
H2115 C2127 0.929 . S
H2116 C2130 0.930 . S
H2117 C2132 0.960 . S
H2118 C2132 0.960 . S
H2119 C2132 0.960 . S
C2120 H2112 0.929 . S
C2120 C2121 1.377 . S
C2120 C2122 1.384 . S
C2121 C2120 1.377 . S
C2121 C2127 1.390 . S
C2122 H2113 0.930 . S
C2122 C2120 1.384 . S
C2122 C2123 1.372 . S
C2123 C2122 1.372 . S
C2123 C2124 1.400 . S
C2123 C2128 1.490 . S
C2124 H2114 0.930 . S
C2124 C2123 1.400 . S
C2124 C2127 1.386 . S
H2125 C2141 0.930 . S
H2126 C2142 0.931 . S
C2127 H2115 0.929 . S
C2127 C2121 1.390 . S
C2127 C2124 1.386 . S
C2128 C2123 1.490 . S
C2128 C2130 1.395 . S
C2128 C2131 1.403 . S
H2129 C2135 0.930 . S
C2130 H2116 0.930 . S
C2130 C2128 1.395 . S
C2130 C2133 1.403 . S
C2131 C2128 1.403 . S
C2131 C2132 1.524 . S
C2131 C2135 1.400 . S
C2132 H2117 0.960 . S
C2132 H2118 0.960 . S
C2132 H2119 0.960 . S
C2132 C2131 1.524 . S
C2133 C2130 1.403 . S
C2133 C2134 1.392 . S
C2133 C2137 1.495 . S
C2134 C2133 1.392 . S
C2134 C2135 1.385 . S
C2134 C2136 1.478 . S
C2135 H2129 0.930 . S
C2135 C2131 1.400 . S
C2135 C2134 1.385 . S
C2136 C2134 1.478 . S
C2136 C2138 1.381 . S
C2136 C2142 1.383 . S
C2137 C2133 1.495 . S
C2137 H2143 0.959 . S
C2137 H2144 0.961 . S
C2137 H2145 0.960 . S
C2138 C2136 1.381 . S
C2138 C2139 1.394 . S
C2138 H2146 0.930 . S
C2139 C2138 1.394 . S
C2139 C2140 1.383 . S
C2139 H2147 0.929 . S
C2140 C2139 1.383 . S
C2140 C2141 1.377 . S
C2141 H2125 0.930 . S
C2141 C2140 1.377 . S
C2141 C2142 1.379 . S
C2142 H2126 0.931 . S
C2142 C2136 1.383 . S
C2142 C2141 1.379 . S
H2143 C2137 0.959 . S
H2144 C2137 0.961 . S
H2145 C2137 0.960 . S
H2146 C2138 0.930 . S
H2147 C2139 0.929 . S
H2148 C2156 0.929 . S
H2149 C2158 0.930 . S
H2150 C2160 0.930 . S
H2151 C2163 0.929 . S
H2152 C2166 0.930 . S
H2153 C2168 0.960 . S
H2154 C2168 0.960 . S
H2155 C2168 0.960 . S
C2156 H2148 0.929 . S
C2156 C2157 1.377 . S
C2156 C2158 1.384 . S
C2157 C2156 1.377 . S
C2157 C2163 1.390 . S
C2158 H2149 0.930 . S
C2158 C2156 1.384 . S
C2158 C2159 1.372 . S
C2159 C2158 1.372 . S
C2159 C2160 1.400 . S
C2159 C2164 1.490 . S
C2160 H2150 0.930 . S
C2160 C2159 1.400 . S
C2160 C2163 1.386 . S
H2161 C2177 0.930 . S
H2162 C2178 0.931 . S
C2163 H2151 0.929 . S
C2163 C2157 1.390 . S
C2163 C2160 1.386 . S
C2164 C2159 1.490 . S
C2164 C2166 1.395 . S
C2164 C2167 1.403 . S
H2165 C2171 0.930 . S
C2166 H2152 0.930 . S
C2166 C2164 1.395 . S
C2166 C2169 1.403 . S
C2167 C2164 1.403 . S
C2167 C2168 1.524 . S
C2167 C2171 1.400 . S
C2168 H2153 0.960 . S
C2168 H2154 0.960 . S
C2168 H2155 0.960 . S
C2168 C2167 1.524 . S
C2169 C2166 1.403 . S
C2169 C2170 1.392 . S
C2169 C2173 1.495 . S
C2170 C2169 1.392 . S
C2170 C2171 1.385 . S
C2170 C2172 1.478 . S
C2171 H2165 0.930 . S
C2171 C2167 1.400 . S
C2171 C2170 1.385 . S
C2172 C2170 1.478 . S
C2172 C2174 1.381 . S
C2172 C2178 1.383 . S
C2173 C2169 1.495 . S
C2173 H2179 0.959 . S
C2173 H2180 0.961 . S
C2173 H2181 0.960 . S
C2174 C2172 1.381 . S
C2174 C2175 1.394 . S
C2174 H2182 0.930 . S
C2175 C2174 1.394 . S
C2175 C2176 1.383 . S
C2175 H2183 0.929 . S
C2176 C2175 1.383 . S
C2176 C2177 1.377 . S
C2177 H2161 0.930 . S
C2177 C2176 1.377 . S
C2177 C2178 1.379 . S
C2178 H2162 0.931 . S
C2178 C2172 1.383 . S
C2178 C2177 1.379 . S
H2179 C2173 0.959 . S
H2180 C2173 0.961 . S
H2181 C2173 0.960 . S
H2182 C2174 0.930 . S
H2183 C2175 0.929 . S
H2184 C2192 0.929 . S
H2185 C2194 0.930 . S
H2186 C2196 0.930 . S
H2187 C2199 0.929 . S
H2188 C2202 0.930 . S
H2189 C2204 0.960 . S
H2190 C2204 0.960 . S
H2191 C2204 0.960 . S
C2192 H2184 0.929 . S
C2192 C2193 1.377 . S
C2192 C2194 1.384 . S
C2193 C2192 1.377 . S
C2193 C2199 1.390 . S
C2194 H2185 0.930 . S
C2194 C2192 1.384 . S
C2194 C2195 1.372 . S
C2195 C2194 1.372 . S
C2195 C2196 1.400 . S
C2195 C2200 1.490 . S
C2196 H2186 0.930 . S
C2196 C2195 1.400 . S
C2196 C2199 1.386 . S
H2197 C2213 0.930 . S
H2198 C2214 0.931 . S
C2199 H2187 0.929 . S
C2199 C2193 1.390 . S
C2199 C2196 1.386 . S
C2200 C2195 1.490 . S
C2200 C2202 1.395 . S
C2200 C2203 1.403 . S
H2201 C2207 0.930 . S
C2202 H2188 0.930 . S
C2202 C2200 1.395 . S
C2202 C2205 1.403 . S
C2203 C2200 1.403 . S
C2203 C2204 1.524 . S
C2203 C2207 1.400 . S
C2204 H2189 0.960 . S
C2204 H2190 0.960 . S
C2204 H2191 0.960 . S
C2204 C2203 1.524 . S
C2205 C2202 1.403 . S
C2205 C2206 1.392 . S
C2205 C2209 1.495 . S
C2206 C2205 1.392 . S
C2206 C2207 1.385 . S
C2206 C2208 1.478 . S
C2207 H2201 0.930 . S
C2207 C2203 1.400 . S
C2207 C2206 1.385 . S
C2208 C2206 1.478 . S
C2208 C2210 1.381 . S
C2208 C2214 1.383 . S
C2209 C2205 1.495 . S
C2209 H2215 0.959 . S
C2209 H2216 0.961 . S
C2209 H2217 0.960 . S
C2210 C2208 1.381 . S
C2210 C2211 1.394 . S
C2210 H2218 0.930 . S
C2211 C2210 1.394 . S
C2211 C2212 1.383 . S
C2211 H2219 0.929 . S
C2212 C2211 1.383 . S
C2212 C2213 1.377 . S
C2213 H2197 0.930 . S
C2213 C2212 1.377 . S
C2213 C2214 1.379 . S
C2214 H2198 0.931 . S
C2214 C2208 1.383 . S
C2214 C2213 1.379 . S
H2215 C2209 0.959 . S
H2216 C2209 0.961 . S
H2217 C2209 0.960 . S
H2218 C2210 0.930 . S
H2219 C2211 0.929 . S
H2220 C2228 0.929 . S
H2221 C2230 0.930 . S
H2222 C2232 0.930 . S
H2223 C2235 0.929 . S
H2224 C2238 0.930 . S
H2225 C2240 0.960 . S
H2226 C2240 0.960 . S
H2227 C2240 0.960 . S
C2228 H2220 0.929 . S
C2228 C2229 1.377 . S
C2228 C2230 1.384 . S
C2229 C2228 1.377 . S
C2229 C2235 1.390 . S
C2230 H2221 0.930 . S
C2230 C2228 1.384 . S
C2230 C2231 1.372 . S
C2231 C2230 1.372 . S
C2231 C2232 1.400 . S
C2231 C2236 1.490 . S
C2232 H2222 0.930 . S
C2232 C2231 1.400 . S
C2232 C2235 1.386 . S
H2233 C2249 0.930 . S
H2234 C2250 0.931 . S
C2235 H2223 0.929 . S
C2235 C2229 1.390 . S
C2235 C2232 1.386 . S
C2236 C2231 1.490 . S
C2236 C2238 1.395 . S
C2236 C2239 1.403 . S
H2237 C2243 0.930 . S
C2238 H2224 0.930 . S
C2238 C2236 1.395 . S
C2238 C2241 1.403 . S
C2239 C2236 1.403 . S
C2239 C2240 1.524 . S
C2239 C2243 1.400 . S
C2240 H2225 0.960 . S
C2240 H2226 0.960 . S
C2240 H2227 0.960 . S
C2240 C2239 1.524 . S
C2241 C2238 1.403 . S
C2241 C2242 1.392 . S
C2241 C2245 1.495 . S
C2242 C2241 1.392 . S
C2242 C2243 1.385 . S
C2242 C2244 1.478 . S
C2243 H2237 0.930 . S
C2243 C2239 1.400 . S
C2243 C2242 1.385 . S
C2244 C2242 1.478 . S
C2244 C2246 1.381 . S
C2244 C2250 1.383 . S
C2245 C2241 1.495 . S
C2245 H2251 0.959 . S
C2245 H2252 0.961 . S
C2245 H2253 0.960 . S
C2246 C2244 1.381 . S
C2246 C2247 1.394 . S
C2246 H2254 0.930 . S
C2247 C2246 1.394 . S
C2247 C2248 1.383 . S
C2247 H2255 0.929 . S
C2248 C2247 1.383 . S
C2248 C2249 1.377 . S
C2249 H2233 0.930 . S
C2249 C2248 1.377 . S
C2249 C2250 1.379 . S
C2250 H2234 0.931 . S
C2250 C2244 1.383 . S
C2250 C2249 1.379 . S
H2251 C2245 0.959 . S
H2252 C2245 0.961 . S
H2253 C2245 0.960 . S
H2254 C2246 0.930 . S
H2255 C2247 0.929 . S
H2256 C2264 0.929 . S
H2257 C2266 0.930 . S
H2258 C2268 0.930 . S
H2259 C2271 0.929 . S
H2260 C2274 0.930 . S
H2261 C2276 0.960 . S
H2262 C2276 0.960 . S
H2263 C2276 0.960 . S
C2264 H2256 0.929 . S
C2264 C2265 1.377 . S
C2264 C2266 1.384 . S
C2265 C2264 1.377 . S
C2265 C2271 1.390 . S
C2266 H2257 0.930 . S
C2266 C2264 1.384 . S
C2266 C2267 1.372 . S
C2267 C2266 1.372 . S
C2267 C2268 1.400 . S
C2267 C2272 1.490 . S
C2268 H2258 0.930 . S
C2268 C2267 1.400 . S
C2268 C2271 1.386 . S
H2269 C2285 0.930 . S
H2270 C2286 0.931 . S
C2271 H2259 0.929 . S
C2271 C2265 1.390 . S
C2271 C2268 1.386 . S
C2272 C2267 1.490 . S
C2272 C2274 1.395 . S
C2272 C2275 1.403 . S
H2273 C2279 0.930 . S
C2274 H2260 0.930 . S
C2274 C2272 1.395 . S
C2274 C2277 1.403 . S
C2275 C2272 1.403 . S
C2275 C2276 1.524 . S
C2275 C2279 1.400 . S
C2276 H2261 0.960 . S
C2276 H2262 0.960 . S
C2276 H2263 0.960 . S
C2276 C2275 1.524 . S
C2277 C2274 1.403 . S
C2277 C2278 1.392 . S
C2277 C2281 1.495 . S
C2278 C2277 1.392 . S
C2278 C2279 1.385 . S
C2278 C2280 1.478 . S
C2279 H2273 0.930 . S
C2279 C2275 1.400 . S
C2279 C2278 1.385 . S
C2280 C2278 1.478 . S
C2280 C2282 1.381 . S
C2280 C2286 1.383 . S
C2281 C2277 1.495 . S
C2281 H2287 0.959 . S
C2281 H2288 0.961 . S
C2281 H2289 0.960 . S
C2282 C2280 1.381 . S
C2282 C2283 1.394 . S
C2282 H2290 0.930 . S
C2283 C2282 1.394 . S
C2283 C2284 1.383 . S
C2283 H2291 0.929 . S
C2284 C2283 1.383 . S
C2284 C2285 1.377 . S
C2285 H2269 0.930 . S
C2285 C2284 1.377 . S
C2285 C2286 1.379 . S
C2286 H2270 0.931 . S
C2286 C2280 1.383 . S
C2286 C2285 1.379 . S
H2287 C2281 0.959 . S
H2288 C2281 0.961 . S
H2289 C2281 0.960 . S
H2290 C2282 0.930 . S
H2291 C2283 0.929 . S
H2292 C2300 0.929 . S
H2293 C2302 0.930 . S
H2294 C2304 0.930 . S
H2295 C2307 0.929 . S
H2296 C2310 0.930 . S
H2297 C2312 0.960 . S
H2298 C2312 0.960 . S
H2299 C2312 0.960 . S
C2300 H2292 0.929 . S
C2300 C2301 1.377 . S
C2300 C2302 1.384 . S
C2301 C2300 1.377 . S
C2301 C2307 1.390 . S
C2302 H2293 0.930 . S
C2302 C2300 1.384 . S
C2302 C2303 1.372 . S
C2303 C2302 1.372 . S
C2303 C2304 1.400 . S
C2303 C2308 1.490 . S
C2304 H2294 0.930 . S
C2304 C2303 1.400 . S
C2304 C2307 1.386 . S
H2305 C2321 0.930 . S
H2306 C2322 0.931 . S
C2307 H2295 0.929 . S
C2307 C2301 1.390 . S
C2307 C2304 1.386 . S
C2308 C2303 1.490 . S
C2308 C2310 1.395 . S
C2308 C2311 1.403 . S
H2309 C2315 0.930 . S
C2310 H2296 0.930 . S
C2310 C2308 1.395 . S
C2310 C2313 1.403 . S
C2311 C2308 1.403 . S
C2311 C2312 1.524 . S
C2311 C2315 1.400 . S
C2312 H2297 0.960 . S
C2312 H2298 0.960 . S
C2312 H2299 0.960 . S
C2312 C2311 1.524 . S
C2313 C2310 1.403 . S
C2313 C2314 1.392 . S
C2313 C2317 1.495 . S
C2314 C2313 1.392 . S
C2314 C2315 1.385 . S
C2314 C2316 1.478 . S
C2315 H2309 0.930 . S
C2315 C2311 1.400 . S
C2315 C2314 1.385 . S
C2316 C2314 1.478 . S
C2316 C2318 1.381 . S
C2316 C2322 1.383 . S
C2317 C2313 1.495 . S
C2317 H2323 0.959 . S
C2317 H2324 0.961 . S
C2317 H2325 0.960 . S
C2318 C2316 1.381 . S
C2318 C2319 1.394 . S
C2318 H2326 0.930 . S
C2319 C2318 1.394 . S
C2319 C2320 1.383 . S
C2319 H2327 0.929 . S
C2320 C2319 1.383 . S
C2320 C2321 1.377 . S
C2321 H2305 0.930 . S
C2321 C2320 1.377 . S
C2321 C2322 1.379 . S
C2322 H2306 0.931 . S
C2322 C2316 1.383 . S
C2322 C2321 1.379 . S
H2323 C2317 0.959 . S
H2324 C2317 0.961 . S
H2325 C2317 0.960 . S
H2326 C2318 0.930 . S
H2327 C2319 0.929 . S
H2328 C2336 0.929 . S
H2329 C2338 0.930 . S
H2330 C2340 0.930 . S
H2331 C2343 0.929 . S
H2332 C2346 0.930 . S
H2333 C2348 0.960 . S
H2334 C2348 0.960 . S
H2335 C2348 0.960 . S
C2336 H2328 0.929 . S
C2336 C2337 1.377 . S
C2336 C2338 1.384 . S
C2337 C2336 1.377 . S
C2337 C2343 1.390 . S
C2338 H2329 0.930 . S
C2338 C2336 1.384 . S
C2338 C2339 1.372 . S
C2339 C2338 1.372 . S
C2339 C2340 1.400 . S
C2339 C2344 1.490 . S
C2340 H2330 0.930 . S
C2340 C2339 1.400 . S
C2340 C2343 1.386 . S
H2341 C2357 0.930 . S
H2342 C2358 0.931 . S
C2343 H2331 0.929 . S
C2343 C2337 1.390 . S
C2343 C2340 1.386 . S
C2344 C2339 1.490 . S
C2344 C2346 1.395 . S
C2344 C2347 1.403 . S
H2345 C2351 0.930 . S
C2346 H2332 0.930 . S
C2346 C2344 1.395 . S
C2346 C2349 1.403 . S
C2347 C2344 1.403 . S
C2347 C2348 1.524 . S
C2347 C2351 1.400 . S
C2348 H2333 0.960 . S
C2348 H2334 0.960 . S
C2348 H2335 0.960 . S
C2348 C2347 1.524 . S
C2349 C2346 1.403 . S
C2349 C2350 1.392 . S
C2349 C2353 1.495 . S
C2350 C2349 1.392 . S
C2350 C2351 1.385 . S
C2350 C2352 1.478 . S
C2351 H2345 0.930 . S
C2351 C2347 1.400 . S
C2351 C2350 1.385 . S
C2352 C2350 1.478 . S
C2352 C2354 1.381 . S
C2352 C2358 1.383 . S
C2353 C2349 1.495 . S
C2353 H2359 0.959 . S
C2353 H2360 0.961 . S
C2353 H2361 0.960 . S
C2354 C2352 1.381 . S
C2354 C2355 1.394 . S
C2354 H2362 0.930 . S
C2355 C2354 1.394 . S
C2355 C2356 1.383 . S
C2355 H2363 0.929 . S
C2356 C2355 1.383 . S
C2356 C2357 1.377 . S
C2357 H2341 0.930 . S
C2357 C2356 1.377 . S
C2357 C2358 1.379 . S
C2358 H2342 0.931 . S
C2358 C2352 1.383 . S
C2358 C2357 1.379 . S
H2359 C2353 0.959 . S
H2360 C2353 0.961 . S
H2361 C2353 0.960 . S
H2362 C2354 0.930 . S
H2363 C2355 0.929 . S
H2364 C2372 0.929 . S
H2365 C2374 0.930 . S
H2366 C2376 0.930 . S
H2367 C2379 0.929 . S
H2368 C2382 0.930 . S
H2369 C2384 0.960 . S
H2370 C2384 0.960 . S
H2371 C2384 0.960 . S
C2372 H2364 0.929 . S
C2372 C2373 1.377 . S
C2372 C2374 1.384 . S
C2373 C2372 1.377 . S
C2373 C2379 1.390 . S
C2374 H2365 0.930 . S
C2374 C2372 1.384 . S
C2374 C2375 1.372 . S
C2375 C2374 1.372 . S
C2375 C2376 1.400 . S
C2375 C2380 1.490 . S
C2376 H2366 0.930 . S
C2376 C2375 1.400 . S
C2376 C2379 1.386 . S
H2377 C2393 0.930 . S
H2378 C2394 0.931 . S
C2379 H2367 0.929 . S
C2379 C2373 1.390 . S
C2379 C2376 1.386 . S
C2380 C2375 1.490 . S
C2380 C2382 1.395 . S
C2380 C2383 1.403 . S
H2381 C2387 0.930 . S
C2382 H2368 0.930 . S
C2382 C2380 1.395 . S
C2382 C2385 1.403 . S
C2383 C2380 1.403 . S
C2383 C2384 1.524 . S
C2383 C2387 1.400 . S
C2384 H2369 0.960 . S
C2384 H2370 0.960 . S
C2384 H2371 0.960 . S
C2384 C2383 1.524 . S
C2385 C2382 1.403 . S
C2385 C2386 1.392 . S
C2385 C2389 1.495 . S
C2386 C2385 1.392 . S
C2386 C2387 1.385 . S
C2386 C2388 1.478 . S
C2387 H2381 0.930 . S
C2387 C2383 1.400 . S
C2387 C2386 1.385 . S
C2388 C2386 1.478 . S
C2388 C2390 1.381 . S
C2388 C2394 1.383 . S
C2389 C2385 1.495 . S
C2389 H2395 0.959 . S
C2389 H2396 0.961 . S
C2389 H2397 0.960 . S
C2390 C2388 1.381 . S
C2390 C2391 1.394 . S
C2390 H2398 0.930 . S
C2391 C2390 1.394 . S
C2391 C2392 1.383 . S
C2391 H2399 0.929 . S
C2392 C2391 1.383 . S
C2392 C2393 1.377 . S
C2393 H2377 0.930 . S
C2393 C2392 1.377 . S
C2393 C2394 1.379 . S
C2394 H2378 0.931 . S
C2394 C2388 1.383 . S
C2394 C2393 1.379 . S
H2395 C2389 0.959 . S
H2396 C2389 0.961 . S
H2397 C2389 0.960 . S
H2398 C2390 0.930 . S
H2399 C2391 0.929 . S
H2400 C2408 0.929 . S
H2401 C2410 0.930 . S
H2402 C2412 0.930 . S
H2403 C2415 0.929 . S
H2404 C2418 0.930 . S
H2405 C2420 0.960 . S
H2406 C2420 0.960 . S
H2407 C2420 0.960 . S
C2408 H2400 0.929 . S
C2408 C2409 1.377 . S
C2408 C2410 1.384 . S
C2409 C2408 1.377 . S
C2409 C2415 1.390 . S
C2410 H2401 0.930 . S
C2410 C2408 1.384 . S
C2410 C2411 1.372 . S
C2411 C2410 1.372 . S
C2411 C2412 1.400 . S
C2411 C2416 1.490 . S
C2412 H2402 0.930 . S
C2412 C2411 1.400 . S
C2412 C2415 1.386 . S
H2413 C2429 0.930 . S
H2414 C2430 0.931 . S
C2415 H2403 0.929 . S
C2415 C2409 1.390 . S
C2415 C2412 1.386 . S
C2416 C2411 1.490 . S
C2416 C2418 1.395 . S
C2416 C2419 1.403 . S
H2417 C2423 0.930 . S
C2418 H2404 0.930 . S
C2418 C2416 1.395 . S
C2418 C2421 1.403 . S
C2419 C2416 1.403 . S
C2419 C2420 1.524 . S
C2419 C2423 1.400 . S
C2420 H2405 0.960 . S
C2420 H2406 0.960 . S
C2420 H2407 0.960 . S
C2420 C2419 1.524 . S
C2421 C2418 1.403 . S
C2421 C2422 1.392 . S
C2421 C2425 1.495 . S
C2422 C2421 1.392 . S
C2422 C2423 1.385 . S
C2422 C2424 1.478 . S
C2423 H2417 0.930 . S
C2423 C2419 1.400 . S
C2423 C2422 1.385 . S
C2424 C2422 1.478 . S
C2424 C2426 1.381 . S
C2424 C2430 1.383 . S
C2425 C2421 1.495 . S
C2425 H2431 0.959 . S
C2425 H2432 0.961 . S
C2425 H2433 0.960 . S
C2426 C2424 1.381 . S
C2426 C2427 1.394 . S
C2426 H2434 0.930 . S
C2427 C2426 1.394 . S
C2427 C2428 1.383 . S
C2427 H2435 0.929 . S
C2428 C2427 1.383 . S
C2428 C2429 1.377 . S
C2429 H2413 0.930 . S
C2429 C2428 1.377 . S
C2429 C2430 1.379 . S
C2430 H2414 0.931 . S
C2430 C2424 1.383 . S
C2430 C2429 1.379 . S
H2431 C2425 0.959 . S
H2432 C2425 0.961 . S
H2433 C2425 0.960 . S
H2434 C2426 0.930 . S
H2435 C2427 0.929 . S
H2436 C2444 0.929 . S
H2437 C2446 0.930 . S
H2438 C2448 0.930 . S
H2439 C2451 0.929 . S
H2440 C2454 0.930 . S
H2441 C2456 0.960 . S
H2442 C2456 0.960 . S
H2443 C2456 0.960 . S
C2444 H2436 0.929 . S
C2444 C2445 1.377 . S
C2444 C2446 1.384 . S
C2445 C2444 1.377 . S
C2445 C2451 1.390 . S
C2446 H2437 0.930 . S
C2446 C2444 1.384 . S
C2446 C2447 1.372 . S
C2447 C2446 1.372 . S
C2447 C2448 1.400 . S
C2447 C2452 1.490 . S
C2448 H2438 0.930 . S
C2448 C2447 1.400 . S
C2448 C2451 1.386 . S
H2449 C2465 0.930 . S
H2450 C2466 0.931 . S
C2451 H2439 0.929 . S
C2451 C2445 1.390 . S
C2451 C2448 1.386 . S
C2452 C2447 1.490 . S
C2452 C2454 1.395 . S
C2452 C2455 1.403 . S
H2453 C2459 0.930 . S
C2454 H2440 0.930 . S
C2454 C2452 1.395 . S
C2454 C2457 1.403 . S
C2455 C2452 1.403 . S
C2455 C2456 1.524 . S
C2455 C2459 1.400 . S
C2456 H2441 0.960 . S
C2456 H2442 0.960 . S
C2456 H2443 0.960 . S
C2456 C2455 1.524 . S
C2457 C2454 1.403 . S
C2457 C2458 1.392 . S
C2457 C2461 1.495 . S
C2458 C2457 1.392 . S
C2458 C2459 1.385 . S
C2458 C2460 1.478 . S
C2459 H2453 0.930 . S
C2459 C2455 1.400 . S
C2459 C2458 1.385 . S
C2460 C2458 1.478 . S
C2460 C2462 1.381 . S
C2460 C2466 1.383 . S
C2461 C2457 1.495 . S
C2461 H2467 0.959 . S
C2461 H2468 0.961 . S
C2461 H2469 0.960 . S
C2462 C2460 1.381 . S
C2462 C2463 1.394 . S
C2462 H2470 0.930 . S
C2463 C2462 1.394 . S
C2463 C2464 1.383 . S
C2463 H2471 0.929 . S
C2464 C2463 1.383 . S
C2464 C2465 1.377 . S
C2465 H2449 0.930 . S
C2465 C2464 1.377 . S
C2465 C2466 1.379 . S
C2466 H2450 0.931 . S
C2466 C2460 1.383 . S
C2466 C2465 1.379 . S
H2467 C2461 0.959 . S
H2468 C2461 0.961 . S
H2469 C2461 0.960 . S
H2470 C2462 0.930 . S
H2471 C2463 0.929 . S
H2472 C2480 0.929 . S
H2473 C2482 0.930 . S
H2474 C2484 0.930 . S
H2475 C2487 0.929 . S
H2476 C2490 0.930 . S
H2477 C2492 0.960 . S
H2478 C2492 0.960 . S
H2479 C2492 0.960 . S
C2480 H2472 0.929 . S
C2480 C2481 1.377 . S
C2480 C2482 1.384 . S
C2481 C2480 1.377 . S
C2481 C2487 1.390 . S
C2482 H2473 0.930 . S
C2482 C2480 1.384 . S
C2482 C2483 1.372 . S
C2483 C2482 1.372 . S
C2483 C2484 1.400 . S
C2483 C2488 1.490 . S
C2484 H2474 0.930 . S
C2484 C2483 1.400 . S
C2484 C2487 1.386 . S
H2485 C2501 0.930 . S
H2486 C2502 0.931 . S
C2487 H2475 0.929 . S
C2487 C2481 1.390 . S
C2487 C2484 1.386 . S
C2488 C2483 1.490 . S
C2488 C2490 1.395 . S
C2488 C2491 1.403 . S
H2489 C2495 0.930 . S
C2490 H2476 0.930 . S
C2490 C2488 1.395 . S
C2490 C2493 1.403 . S
C2491 C2488 1.403 . S
C2491 C2492 1.524 . S
C2491 C2495 1.400 . S
C2492 H2477 0.960 . S
C2492 H2478 0.960 . S
C2492 H2479 0.960 . S
C2492 C2491 1.524 . S
C2493 C2490 1.403 . S
C2493 C2494 1.392 . S
C2493 C2497 1.495 . S
C2494 C2493 1.392 . S
C2494 C2495 1.385 . S
C2494 C2496 1.478 . S
C2495 H2489 0.930 . S
C2495 C2491 1.400 . S
C2495 C2494 1.385 . S
C2496 C2494 1.478 . S
C2496 C2498 1.381 . S
C2496 C2502 1.383 . S
C2497 C2493 1.495 . S
C2497 H2503 0.959 . S
C2497 H2504 0.961 . S
C2497 H2505 0.960 . S
C2498 C2496 1.381 . S
C2498 C2499 1.394 . S
C2498 H2506 0.930 . S
C2499 C2498 1.394 . S
C2499 C2500 1.383 . S
C2499 H2507 0.929 . S
C2500 C2499 1.383 . S
C2500 C2501 1.377 . S
C2501 H2485 0.930 . S
C2501 C2500 1.377 . S
C2501 C2502 1.379 . S
C2502 H2486 0.931 . S
C2502 C2496 1.383 . S
C2502 C2501 1.379 . S
H2503 C2497 0.959 . S
H2504 C2497 0.961 . S
H2505 C2497 0.960 . S
H2506 C2498 0.930 . S
H2507 C2499 0.929 . S
H2508 C2516 0.929 . S
H2509 C2518 0.930 . S
H2510 C2520 0.930 . S
H2511 C2523 0.929 . S
H2512 C2526 0.930 . S
H2513 C2528 0.960 . S
H2514 C2528 0.960 . S
H2515 C2528 0.960 . S
C2516 H2508 0.929 . S
C2516 C2517 1.377 . S
C2516 C2518 1.384 . S
C2517 C2516 1.377 . S
C2517 C2523 1.390 . S
C2518 H2509 0.930 . S
C2518 C2516 1.384 . S
C2518 C2519 1.372 . S
C2519 C2518 1.372 . S
C2519 C2520 1.400 . S
C2519 C2524 1.490 . S
C2520 H2510 0.930 . S
C2520 C2519 1.400 . S
C2520 C2523 1.386 . S
H2521 C2537 0.930 . S
H2522 C2538 0.931 . S
C2523 H2511 0.929 . S
C2523 C2517 1.390 . S
C2523 C2520 1.386 . S
C2524 C2519 1.490 . S
C2524 C2526 1.395 . S
C2524 C2527 1.403 . S
H2525 C2531 0.930 . S
C2526 H2512 0.930 . S
C2526 C2524 1.395 . S
C2526 C2529 1.403 . S
C2527 C2524 1.403 . S
C2527 C2528 1.524 . S
C2527 C2531 1.400 . S
C2528 H2513 0.960 . S
C2528 H2514 0.960 . S
C2528 H2515 0.960 . S
C2528 C2527 1.524 . S
C2529 C2526 1.403 . S
C2529 C2530 1.392 . S
C2529 C2533 1.495 . S
C2530 C2529 1.392 . S
C2530 C2531 1.385 . S
C2530 C2532 1.478 . S
C2531 H2525 0.930 . S
C2531 C2527 1.400 . S
C2531 C2530 1.385 . S
C2532 C2530 1.478 . S
C2532 C2534 1.381 . S
C2532 C2538 1.383 . S
C2533 C2529 1.495 . S
C2533 H2539 0.959 . S
C2533 H2540 0.961 . S
C2533 H2541 0.960 . S
C2534 C2532 1.381 . S
C2534 C2535 1.394 . S
C2534 H2542 0.930 . S
C2535 C2534 1.394 . S
C2535 C2536 1.383 . S
C2535 H2543 0.929 . S
C2536 C2535 1.383 . S
C2536 C2537 1.377 . S
C2537 H2521 0.930 . S
C2537 C2536 1.377 . S
C2537 C2538 1.379 . S
C2538 H2522 0.931 . S
C2538 C2532 1.383 . S
C2538 C2537 1.379 . S
H2539 C2533 0.959 . S
H2540 C2533 0.961 . S
H2541 C2533 0.960 . S
H2542 C2534 0.930 . S
H2543 C2535 0.929 . S
H2544 C2552 0.929 . S
H2545 C2554 0.930 . S
H2546 C2556 0.930 . S
H2547 C2559 0.929 . S
H2548 C2562 0.930 . S
H2549 C2564 0.960 . S
H2550 C2564 0.960 . S
H2551 C2564 0.960 . S
C2552 H2544 0.929 . S
C2552 C2553 1.377 . S
C2552 C2554 1.384 . S
C2553 C2552 1.377 . S
C2553 C2559 1.390 . S
C2554 H2545 0.930 . S
C2554 C2552 1.384 . S
C2554 C2555 1.372 . S
C2555 C2554 1.372 . S
C2555 C2556 1.400 . S
C2555 C2560 1.490 . S
C2556 H2546 0.930 . S
C2556 C2555 1.400 . S
C2556 C2559 1.386 . S
H2557 C2573 0.930 . S
H2558 C2574 0.931 . S
C2559 H2547 0.929 . S
C2559 C2553 1.390 . S
C2559 C2556 1.386 . S
C2560 C2555 1.490 . S
C2560 C2562 1.395 . S
C2560 C2563 1.403 . S
H2561 C2567 0.930 . S
C2562 H2548 0.930 . S
C2562 C2560 1.395 . S
C2562 C2565 1.403 . S
C2563 C2560 1.403 . S
C2563 C2564 1.524 . S
C2563 C2567 1.400 . S
C2564 H2549 0.960 . S
C2564 H2550 0.960 . S
C2564 H2551 0.960 . S
C2564 C2563 1.524 . S
C2565 C2562 1.403 . S
C2565 C2566 1.392 . S
C2565 C2569 1.495 . S
C2566 C2565 1.392 . S
C2566 C2567 1.385 . S
C2566 C2568 1.478 . S
C2567 H2561 0.930 . S
C2567 C2563 1.400 . S
C2567 C2566 1.385 . S
C2568 C2566 1.478 . S
C2568 C2570 1.381 . S
C2568 C2574 1.383 . S
C2569 C2565 1.495 . S
C2569 H2575 0.959 . S
C2569 H2576 0.961 . S
C2569 H2577 0.960 . S
C2570 C2568 1.381 . S
C2570 C2571 1.394 . S
C2570 H2578 0.930 . S
C2571 C2570 1.394 . S
C2571 C2572 1.383 . S
C2571 H2579 0.929 . S
C2572 C2571 1.383 . S
C2572 C2573 1.377 . S
C2573 H2557 0.930 . S
C2573 C2572 1.377 . S
C2573 C2574 1.379 . S
C2574 H2558 0.931 . S
C2574 C2568 1.383 . S
C2574 C2573 1.379 . S
H2575 C2569 0.959 . S
H2576 C2569 0.961 . S
H2577 C2569 0.960 . S
H2578 C2570 0.930 . S
H2579 C2571 0.929 . S
H2580 C2588 0.929 . S
H2581 C2590 0.930 . S
H2582 C2592 0.930 . S
H2583 C2595 0.929 . S
H2584 C2598 0.930 . S
H2585 C2600 0.960 . S
H2586 C2600 0.960 . S
H2587 C2600 0.960 . S
C2588 H2580 0.929 . S
C2588 C2589 1.377 . S
C2588 C2590 1.384 . S
C2589 C2588 1.377 . S
C2589 C2595 1.390 . S
C2590 H2581 0.930 . S
C2590 C2588 1.384 . S
C2590 C2591 1.372 . S
C2591 C2590 1.372 . S
C2591 C2592 1.400 . S
C2591 C2596 1.490 . S
C2592 H2582 0.930 . S
C2592 C2591 1.400 . S
C2592 C2595 1.386 . S
H2593 C2609 0.930 . S
H2594 C2610 0.931 . S
C2595 H2583 0.929 . S
C2595 C2589 1.390 . S
C2595 C2592 1.386 . S
C2596 C2591 1.490 . S
C2596 C2598 1.395 . S
C2596 C2599 1.403 . S
H2597 C2603 0.930 . S
C2598 H2584 0.930 . S
C2598 C2596 1.395 . S
C2598 C2601 1.403 . S
C2599 C2596 1.403 . S
C2599 C2600 1.524 . S
C2599 C2603 1.400 . S
C2600 H2585 0.960 . S
C2600 H2586 0.960 . S
C2600 H2587 0.960 . S
C2600 C2599 1.524 . S
C2601 C2598 1.403 . S
C2601 C2602 1.392 . S
C2601 C2605 1.495 . S
C2602 C2601 1.392 . S
C2602 C2603 1.385 . S
C2602 C2604 1.478 . S
C2603 H2597 0.930 . S
C2603 C2599 1.400 . S
C2603 C2602 1.385 . S
C2604 C2602 1.478 . S
C2604 C2606 1.381 . S
C2604 C2610 1.383 . S
C2605 C2601 1.495 . S
C2605 H2611 0.959 . S
C2605 H2612 0.961 . S
C2605 H2613 0.960 . S
C2606 C2604 1.381 . S
C2606 C2607 1.394 . S
C2606 H2614 0.930 . S
C2607 C2606 1.394 . S
C2607 C2608 1.383 . S
C2607 H2615 0.929 . S
C2608 C2607 1.383 . S
C2608 C2609 1.377 . S
C2609 H2593 0.930 . S
C2609 C2608 1.377 . S
C2609 C2610 1.379 . S
C2610 H2594 0.931 . S
C2610 C2604 1.383 . S
C2610 C2609 1.379 . S
H2611 C2605 0.959 . S
H2612 C2605 0.961 . S
H2613 C2605 0.960 . S
H2614 C2606 0.930 . S
H2615 C2607 0.929 . S
H2616 C2624 0.929 . S
H2617 C2626 0.930 . S
H2618 C2628 0.930 . S
H2619 C2631 0.929 . S
H2620 C2634 0.930 . S
H2621 C2636 0.960 . S
H2622 C2636 0.960 . S
H2623 C2636 0.960 . S
C2624 H2616 0.929 . S
C2624 C2625 1.377 . S
C2624 C2626 1.384 . S
C2625 C2624 1.377 . S
C2625 C2631 1.390 . S
C2626 H2617 0.930 . S
C2626 C2624 1.384 . S
C2626 C2627 1.372 . S
C2627 C2626 1.372 . S
C2627 C2628 1.400 . S
C2627 C2632 1.490 . S
C2628 H2618 0.930 . S
C2628 C2627 1.400 . S
C2628 C2631 1.386 . S
H2629 C2645 0.930 . S
H2630 C2646 0.931 . S
C2631 H2619 0.929 . S
C2631 C2625 1.390 . S
C2631 C2628 1.386 . S
C2632 C2627 1.490 . S
C2632 C2634 1.395 . S
C2632 C2635 1.403 . S
H2633 C2639 0.930 . S
C2634 H2620 0.930 . S
C2634 C2632 1.395 . S
C2634 C2637 1.403 . S
C2635 C2632 1.403 . S
C2635 C2636 1.524 . S
C2635 C2639 1.400 . S
C2636 H2621 0.960 . S
C2636 H2622 0.960 . S
C2636 H2623 0.960 . S
C2636 C2635 1.524 . S
C2637 C2634 1.403 . S
C2637 C2638 1.392 . S
C2637 C2641 1.495 . S
C2638 C2637 1.392 . S
C2638 C2639 1.385 . S
C2638 C2640 1.478 . S
C2639 H2633 0.930 . S
C2639 C2635 1.400 . S
C2639 C2638 1.385 . S
C2640 C2638 1.478 . S
C2640 C2642 1.381 . S
C2640 C2646 1.383 . S
C2641 C2637 1.495 . S
C2641 H2647 0.959 . S
C2641 H2648 0.961 . S
C2641 H2649 0.960 . S
C2642 C2640 1.381 . S
C2642 C2643 1.394 . S
C2642 H2650 0.930 . S
C2643 C2642 1.394 . S
C2643 C2644 1.383 . S
C2643 H2651 0.929 . S
C2644 C2643 1.383 . S
C2644 C2645 1.377 . S
C2645 H2629 0.930 . S
C2645 C2644 1.377 . S
C2645 C2646 1.379 . S
C2646 H2630 0.931 . S
C2646 C2640 1.383 . S
C2646 C2645 1.379 . S
H2647 C2641 0.959 . S
H2648 C2641 0.961 . S
H2649 C2641 0.960 . S
H2650 C2642 0.930 . S
H2651 C2643 0.929 . S
H2652 C2660 0.929 . S
H2653 C2662 0.930 . S
H2654 C2664 0.930 . S
H2655 C2667 0.929 . S
H2656 C2670 0.930 . S
H2657 C2672 0.960 . S
H2658 C2672 0.960 . S
H2659 C2672 0.960 . S
C2660 H2652 0.929 . S
C2660 C2661 1.377 . S
C2660 C2662 1.384 . S
C2661 C2660 1.377 . S
C2661 C2667 1.390 . S
C2662 H2653 0.930 . S
C2662 C2660 1.384 . S
C2662 C2663 1.372 . S
C2663 C2662 1.372 . S
C2663 C2664 1.400 . S
C2663 C2668 1.490 . S
C2664 H2654 0.930 . S
C2664 C2663 1.400 . S
C2664 C2667 1.386 . S
H2665 C2681 0.930 . S
H2666 C2682 0.931 . S
C2667 H2655 0.929 . S
C2667 C2661 1.390 . S
C2667 C2664 1.386 . S
C2668 C2663 1.490 . S
C2668 C2670 1.395 . S
C2668 C2671 1.403 . S
H2669 C2675 0.930 . S
C2670 H2656 0.930 . S
C2670 C2668 1.395 . S
C2670 C2673 1.403 . S
C2671 C2668 1.403 . S
C2671 C2672 1.524 . S
C2671 C2675 1.400 . S
C2672 H2657 0.960 . S
C2672 H2658 0.960 . S
C2672 H2659 0.960 . S
C2672 C2671 1.524 . S
C2673 C2670 1.403 . S
C2673 C2674 1.392 . S
C2673 C2677 1.495 . S
C2674 C2673 1.392 . S
C2674 C2675 1.385 . S
C2674 C2676 1.478 . S
C2675 H2669 0.930 . S
C2675 C2671 1.400 . S
C2675 C2674 1.385 . S
C2676 C2674 1.478 . S
C2676 C2678 1.381 . S
C2676 C2682 1.383 . S
C2677 C2673 1.495 . S
C2677 H2683 0.959 . S
C2677 H2684 0.961 . S
C2677 H2685 0.960 . S
C2678 C2676 1.381 . S
C2678 C2679 1.394 . S
C2678 H2686 0.930 . S
C2679 C2678 1.394 . S
C2679 C2680 1.383 . S
C2679 H2687 0.929 . S
C2680 C2679 1.383 . S
C2680 C2681 1.377 . S
C2681 H2665 0.930 . S
C2681 C2680 1.377 . S
C2681 C2682 1.379 . S
C2682 H2666 0.931 . S
C2682 C2676 1.383 . S
C2682 C2681 1.379 . S
H2683 C2677 0.959 . S
H2684 C2677 0.961 . S
H2685 C2677 0.960 . S
H2686 C2678 0.930 . S
H2687 C2679 0.929 . S
H2688 C2696 0.929 . S
H2689 C2698 0.930 . S
H2690 C2700 0.930 . S
H2691 C2703 0.929 . S
H2692 C2706 0.930 . S
H2693 C2708 0.960 . S
H2694 C2708 0.960 . S
H2695 C2708 0.960 . S
C2696 H2688 0.929 . S
C2696 C2697 1.377 . S
C2696 C2698 1.384 . S
C2697 C2696 1.377 . S
C2697 C2703 1.390 . S
C2698 H2689 0.930 . S
C2698 C2696 1.384 . S
C2698 C2699 1.372 . S
C2699 C2698 1.372 . S
C2699 C2700 1.400 . S
C2699 C2704 1.490 . S
C2700 H2690 0.930 . S
C2700 C2699 1.400 . S
C2700 C2703 1.386 . S
H2701 C2717 0.930 . S
H2702 C2718 0.931 . S
C2703 H2691 0.929 . S
C2703 C2697 1.390 . S
C2703 C2700 1.386 . S
C2704 C2699 1.490 . S
C2704 C2706 1.395 . S
C2704 C2707 1.403 . S
H2705 C2711 0.930 . S
C2706 H2692 0.930 . S
C2706 C2704 1.395 . S
C2706 C2709 1.403 . S
C2707 C2704 1.403 . S
C2707 C2708 1.524 . S
C2707 C2711 1.400 . S
C2708 H2693 0.960 . S
C2708 H2694 0.960 . S
C2708 H2695 0.960 . S
C2708 C2707 1.524 . S
C2709 C2706 1.403 . S
C2709 C2710 1.392 . S
C2709 C2713 1.495 . S
C2710 C2709 1.392 . S
C2710 C2711 1.385 . S
C2710 C2712 1.478 . S
C2711 H2705 0.930 . S
C2711 C2707 1.400 . S
C2711 C2710 1.385 . S
C2712 C2710 1.478 . S
C2712 C2714 1.381 . S
C2712 C2718 1.383 . S
C2713 C2709 1.495 . S
C2713 H2719 0.959 . S
C2713 H2720 0.961 . S
C2713 H2721 0.960 . S
C2714 C2712 1.381 . S
C2714 C2715 1.394 . S
C2714 H2722 0.930 . S
C2715 C2714 1.394 . S
C2715 C2716 1.383 . S
C2715 H2723 0.929 . S
C2716 C2715 1.383 . S
C2716 C2717 1.377 . S
C2717 H2701 0.930 . S
C2717 C2716 1.377 . S
C2717 C2718 1.379 . S
C2718 H2702 0.931 . S
C2718 C2712 1.383 . S
C2718 C2717 1.379 . S
H2719 C2713 0.959 . S
H2720 C2713 0.961 . S
H2721 C2713 0.960 . S
H2722 C2714 0.930 . S
H2723 C2715 0.929 . S
H2724 C2732 0.929 . S
H2725 C2734 0.930 . S
H2726 C2736 0.930 . S
H2727 C2739 0.929 . S
H2728 C2742 0.930 . S
H2729 C2744 0.960 . S
H2730 C2744 0.960 . S
H2731 C2744 0.960 . S
C2732 H2724 0.929 . S
C2732 C2733 1.377 . S
C2732 C2734 1.384 . S
C2733 C2732 1.377 . S
C2733 C2739 1.390 . S
C2734 H2725 0.930 . S
C2734 C2732 1.384 . S
C2734 C2735 1.372 . S
C2735 C2734 1.372 . S
C2735 C2736 1.400 . S
C2735 C2740 1.490 . S
C2736 H2726 0.930 . S
C2736 C2735 1.400 . S
C2736 C2739 1.386 . S
H2737 C2753 0.930 . S
H2738 C2754 0.931 . S
C2739 H2727 0.929 . S
C2739 C2733 1.390 . S
C2739 C2736 1.386 . S
C2740 C2735 1.490 . S
C2740 C2742 1.395 . S
C2740 C2743 1.403 . S
H2741 C2747 0.930 . S
C2742 H2728 0.930 . S
C2742 C2740 1.395 . S
C2742 C2745 1.403 . S
C2743 C2740 1.403 . S
C2743 C2744 1.524 . S
C2743 C2747 1.400 . S
C2744 H2729 0.960 . S
C2744 H2730 0.960 . S
C2744 H2731 0.960 . S
C2744 C2743 1.524 . S
C2745 C2742 1.403 . S
C2745 C2746 1.392 . S
C2745 C2749 1.495 . S
C2746 C2745 1.392 . S
C2746 C2747 1.385 . S
C2746 C2748 1.478 . S
C2747 H2741 0.930 . S
C2747 C2743 1.400 . S
C2747 C2746 1.385 . S
C2748 C2746 1.478 . S
C2748 C2750 1.381 . S
C2748 C2754 1.383 . S
C2749 C2745 1.495 . S
C2749 H2755 0.959 . S
C2749 H2756 0.961 . S
C2749 H2757 0.960 . S
C2750 C2748 1.381 . S
C2750 C2751 1.394 . S
C2750 H2758 0.930 . S
C2751 C2750 1.394 . S
C2751 C2752 1.383 . S
C2751 H2759 0.929 . S
C2752 C2751 1.383 . S
C2752 C2753 1.377 . S
C2753 H2737 0.930 . S
C2753 C2752 1.377 . S
C2753 C2754 1.379 . S
C2754 H2738 0.931 . S
C2754 C2748 1.383 . S
C2754 C2753 1.379 . S
H2755 C2749 0.959 . S
H2756 C2749 0.961 . S
H2757 C2749 0.960 . S
H2758 C2750 0.930 . S
H2759 C2751 0.929 . S
H2760 C2768 0.929 . S
H2761 C2770 0.930 . S
H2762 C2772 0.930 . S
H2763 C2775 0.929 . S
H2764 C2778 0.930 . S
H2765 C2780 0.960 . S
H2766 C2780 0.960 . S
H2767 C2780 0.960 . S
C2768 H2760 0.929 . S
C2768 C2769 1.377 . S
C2768 C2770 1.384 . S
C2769 C2768 1.377 . S
C2769 C2775 1.390 . S
C2770 H2761 0.930 . S
C2770 C2768 1.384 . S
C2770 C2771 1.372 . S
C2771 C2770 1.372 . S
C2771 C2772 1.400 . S
C2771 C2776 1.490 . S
C2772 H2762 0.930 . S
C2772 C2771 1.400 . S
C2772 C2775 1.386 . S
H2773 C2789 0.930 . S
H2774 C2790 0.931 . S
C2775 H2763 0.929 . S
C2775 C2769 1.390 . S
C2775 C2772 1.386 . S
C2776 C2771 1.490 . S
C2776 C2778 1.395 . S
C2776 C2779 1.403 . S
H2777 C2783 0.930 . S
C2778 H2764 0.930 . S
C2778 C2776 1.395 . S
C2778 C2781 1.403 . S
C2779 C2776 1.403 . S
C2779 C2780 1.524 . S
C2779 C2783 1.400 . S
C2780 H2765 0.960 . S
C2780 H2766 0.960 . S
C2780 H2767 0.960 . S
C2780 C2779 1.524 . S
C2781 C2778 1.403 . S
C2781 C2782 1.392 . S
C2781 C2785 1.495 . S
C2782 C2781 1.392 . S
C2782 C2783 1.385 . S
C2782 C2784 1.478 . S
C2783 H2777 0.930 . S
C2783 C2779 1.400 . S
C2783 C2782 1.385 . S
C2784 C2782 1.478 . S
C2784 C2786 1.381 . S
C2784 C2790 1.383 . S
C2785 C2781 1.495 . S
C2785 H2791 0.959 . S
C2785 H2792 0.961 . S
C2785 H2793 0.960 . S
C2786 C2784 1.381 . S
C2786 C2787 1.394 . S
C2786 H2794 0.930 . S
C2787 C2786 1.394 . S
C2787 C2788 1.383 . S
C2787 H2795 0.929 . S
C2788 C2787 1.383 . S
C2788 C2789 1.377 . S
C2789 H2773 0.930 . S
C2789 C2788 1.377 . S
C2789 C2790 1.379 . S
C2790 H2774 0.931 . S
C2790 C2784 1.383 . S
C2790 C2789 1.379 . S
H2791 C2785 0.959 . S
H2792 C2785 0.961 . S
H2793 C2785 0.960 . S
H2794 C2786 0.930 . S
H2795 C2787 0.929 . S
H2796 C2804 0.929 . S
H2797 C2806 0.930 . S
H2798 C2808 0.930 . S
H2799 C2811 0.929 . S
H2800 C2814 0.930 . S
H2801 C2816 0.960 . S
H2802 C2816 0.960 . S
H2803 C2816 0.960 . S
C2804 H2796 0.929 . S
C2804 C2805 1.377 . S
C2804 C2806 1.384 . S
C2805 C2804 1.377 . S
C2805 C2811 1.390 . S
C2806 H2797 0.930 . S
C2806 C2804 1.384 . S
C2806 C2807 1.372 . S
C2807 C2806 1.372 . S
C2807 C2808 1.400 . S
C2807 C2812 1.490 . S
C2808 H2798 0.930 . S
C2808 C2807 1.400 . S
C2808 C2811 1.386 . S
H2809 C2825 0.930 . S
H2810 C2826 0.931 . S
C2811 H2799 0.929 . S
C2811 C2805 1.390 . S
C2811 C2808 1.386 . S
C2812 C2807 1.490 . S
C2812 C2814 1.395 . S
C2812 C2815 1.403 . S
H2813 C2819 0.930 . S
C2814 H2800 0.930 . S
C2814 C2812 1.395 . S
C2814 C2817 1.403 . S
C2815 C2812 1.403 . S
C2815 C2816 1.524 . S
C2815 C2819 1.400 . S
C2816 H2801 0.960 . S
C2816 H2802 0.960 . S
C2816 H2803 0.960 . S
C2816 C2815 1.524 . S
C2817 C2814 1.403 . S
C2817 C2818 1.392 . S
C2817 C2821 1.495 . S
C2818 C2817 1.392 . S
C2818 C2819 1.385 . S
C2818 C2820 1.478 . S
C2819 H2813 0.930 . S
C2819 C2815 1.400 . S
C2819 C2818 1.385 . S
C2820 C2818 1.478 . S
C2820 C2822 1.381 . S
C2820 C2826 1.383 . S
C2821 C2817 1.495 . S
C2821 H2827 0.959 . S
C2821 H2828 0.961 . S
C2821 H2829 0.960 . S
C2822 C2820 1.381 . S
C2822 C2823 1.394 . S
C2822 H2830 0.930 . S
C2823 C2822 1.394 . S
C2823 C2824 1.383 . S
C2823 H2831 0.929 . S
C2824 C2823 1.383 . S
C2824 C2825 1.377 . S
C2825 H2809 0.930 . S
C2825 C2824 1.377 . S
C2825 C2826 1.379 . S
C2826 H2810 0.931 . S
C2826 C2820 1.383 . S
C2826 C2825 1.379 . S
H2827 C2821 0.959 . S
H2828 C2821 0.961 . S
H2829 C2821 0.960 . S
H2830 C2822 0.930 . S
H2831 C2823 0.929 . S
H2832 C2840 0.929 . S
H2833 C2842 0.930 . S
H2834 C2844 0.930 . S
H2835 C2847 0.929 . S
H2836 C2850 0.930 . S
H2837 C2852 0.960 . S
H2838 C2852 0.960 . S
H2839 C2852 0.960 . S
C2840 H2832 0.929 . S
C2840 C2841 1.377 . S
C2840 C2842 1.384 . S
C2841 C2840 1.377 . S
C2841 C2847 1.390 . S
C2842 H2833 0.930 . S
C2842 C2840 1.384 . S
C2842 C2843 1.372 . S
C2843 C2842 1.372 . S
C2843 C2844 1.400 . S
C2843 C2848 1.490 . S
C2844 H2834 0.930 . S
C2844 C2843 1.400 . S
C2844 C2847 1.386 . S
H2845 C2861 0.930 . S
H2846 C2862 0.931 . S
C2847 H2835 0.929 . S
C2847 C2841 1.390 . S
C2847 C2844 1.386 . S
C2848 C2843 1.490 . S
C2848 C2850 1.395 . S
C2848 C2851 1.403 . S
H2849 C2855 0.930 . S
C2850 H2836 0.930 . S
C2850 C2848 1.395 . S
C2850 C2853 1.403 . S
C2851 C2848 1.403 . S
C2851 C2852 1.524 . S
C2851 C2855 1.400 . S
C2852 H2837 0.960 . S
C2852 H2838 0.960 . S
C2852 H2839 0.960 . S
C2852 C2851 1.524 . S
C2853 C2850 1.403 . S
C2853 C2854 1.392 . S
C2853 C2857 1.495 . S
C2854 C2853 1.392 . S
C2854 C2855 1.385 . S
C2854 C2856 1.478 . S
C2855 H2849 0.930 . S
C2855 C2851 1.400 . S
C2855 C2854 1.385 . S
C2856 C2854 1.478 . S
C2856 C2858 1.381 . S
C2856 C2862 1.383 . S
C2857 C2853 1.495 . S
C2857 H2863 0.959 . S
C2857 H2864 0.961 . S
C2857 H2865 0.960 . S
C2858 C2856 1.381 . S
C2858 C2859 1.394 . S
C2858 H2866 0.930 . S
C2859 C2858 1.394 . S
C2859 C2860 1.383 . S
C2859 H2867 0.929 . S
C2860 C2859 1.383 . S
C2860 C2861 1.377 . S
C2861 H2845 0.930 . S
C2861 C2860 1.377 . S
C2861 C2862 1.379 . S
C2862 H2846 0.931 . S
C2862 C2856 1.383 . S
C2862 C2861 1.379 . S
H2863 C2857 0.959 . S
H2864 C2857 0.961 . S
H2865 C2857 0.960 . S
H2866 C2858 0.930 . S
H2867 C2859 0.929 . S
H2868 C2876 0.929 . S
H2869 C2878 0.930 . S
H2870 C2880 0.930 . S
H2871 C2883 0.929 . S
H2872 C2886 0.930 . S
H2873 C2888 0.960 . S
H2874 C2888 0.960 . S
H2875 C2888 0.960 . S
C2876 H2868 0.929 . S
C2876 C2877 1.377 . S
C2876 C2878 1.384 . S
C2877 C2876 1.377 . S
C2877 C2883 1.390 . S
C2878 H2869 0.930 . S
C2878 C2876 1.384 . S
C2878 C2879 1.372 . S
C2879 C2878 1.372 . S
C2879 C2880 1.400 . S
C2879 C2884 1.490 . S
C2880 H2870 0.930 . S
C2880 C2879 1.400 . S
C2880 C2883 1.386 . S
H2881 C2897 0.930 . S
H2882 C2898 0.931 . S
C2883 H2871 0.929 . S
C2883 C2877 1.390 . S
C2883 C2880 1.386 . S
C2884 C2879 1.490 . S
C2884 C2886 1.395 . S
C2884 C2887 1.403 . S
H2885 C2891 0.930 . S
C2886 H2872 0.930 . S
C2886 C2884 1.395 . S
C2886 C2889 1.403 . S
C2887 C2884 1.403 . S
C2887 C2888 1.524 . S
C2887 C2891 1.400 . S
C2888 H2873 0.960 . S
C2888 H2874 0.960 . S
C2888 H2875 0.960 . S
C2888 C2887 1.524 . S
C2889 C2886 1.403 . S
C2889 C2890 1.392 . S
C2889 C2893 1.495 . S
C2890 C2889 1.392 . S
C2890 C2891 1.385 . S
C2890 C2892 1.478 . S
C2891 H2885 0.930 . S
C2891 C2887 1.400 . S
C2891 C2890 1.385 . S
C2892 C2890 1.478 . S
C2892 C2894 1.381 . S
C2892 C2898 1.383 . S
C2893 C2889 1.495 . S
C2893 H2899 0.959 . S
C2893 H2900 0.961 . S
C2893 H2901 0.960 . S
C2894 C2892 1.381 . S
C2894 C2895 1.394 . S
C2894 H2902 0.930 . S
C2895 C2894 1.394 . S
C2895 C2896 1.383 . S
C2895 H2903 0.929 . S
C2896 C2895 1.383 . S
C2896 C2897 1.377 . S
C2897 H2881 0.930 . S
C2897 C2896 1.377 . S
C2897 C2898 1.379 . S
C2898 H2882 0.931 . S
C2898 C2892 1.383 . S
C2898 C2897 1.379 . S
H2899 C2893 0.959 . S
H2900 C2893 0.961 . S
H2901 C2893 0.960 . S
H2902 C2894 0.930 . S
H2903 C2895 0.929 . S
H2904 C2912 0.929 . S
H2905 C2914 0.930 . S
H2906 C2916 0.930 . S
H2907 C2919 0.929 . S
H2908 C2922 0.930 . S
H2909 C2924 0.960 . S
H2910 C2924 0.960 . S
H2911 C2924 0.960 . S
C2912 H2904 0.929 . S
C2912 C2913 1.377 . S
C2912 C2914 1.384 . S
C2913 C2912 1.377 . S
C2913 C2919 1.390 . S
C2914 H2905 0.930 . S
C2914 C2912 1.384 . S
C2914 C2915 1.372 . S
C2915 C2914 1.372 . S
C2915 C2916 1.400 . S
C2915 C2920 1.490 . S
C2916 H2906 0.930 . S
C2916 C2915 1.400 . S
C2916 C2919 1.386 . S
H2917 C2933 0.930 . S
H2918 C2934 0.931 . S
C2919 H2907 0.929 . S
C2919 C2913 1.390 . S
C2919 C2916 1.386 . S
C2920 C2915 1.490 . S
C2920 C2922 1.395 . S
C2920 C2923 1.403 . S
H2921 C2927 0.930 . S
C2922 H2908 0.930 . S
C2922 C2920 1.395 . S
C2922 C2925 1.403 . S
C2923 C2920 1.403 . S
C2923 C2924 1.524 . S
C2923 C2927 1.400 . S
C2924 H2909 0.960 . S
C2924 H2910 0.960 . S
C2924 H2911 0.960 . S
C2924 C2923 1.524 . S
C2925 C2922 1.403 . S
C2925 C2926 1.392 . S
C2925 C2929 1.495 . S
C2926 C2925 1.392 . S
C2926 C2927 1.385 . S
C2926 C2928 1.478 . S
C2927 H2921 0.930 . S
C2927 C2923 1.400 . S
C2927 C2926 1.385 . S
C2928 C2926 1.478 . S
C2928 C2930 1.381 . S
C2928 C2934 1.383 . S
C2929 C2925 1.495 . S
C2929 H2935 0.959 . S
C2929 H2936 0.961 . S
C2929 H2937 0.960 . S
C2930 C2928 1.381 . S
C2930 C2931 1.394 . S
C2930 H2938 0.930 . S
C2931 C2930 1.394 . S
C2931 C2932 1.383 . S
C2931 H2939 0.929 . S
C2932 C2931 1.383 . S
C2932 C2933 1.377 . S
C2933 H2917 0.930 . S
C2933 C2932 1.377 . S
C2933 C2934 1.379 . S
C2934 H2918 0.931 . S
C2934 C2928 1.383 . S
C2934 C2933 1.379 . S
H2935 C2929 0.959 . S
H2936 C2929 0.961 . S
H2937 C2929 0.960 . S
H2938 C2930 0.930 . S
H2939 C2931 0.929 . S
H2940 C2948 0.929 . S
H2941 C2950 0.930 . S
H2942 C2952 0.930 . S
H2943 C2955 0.929 . S
H2944 C2958 0.930 . S
H2945 C2960 0.960 . S
H2946 C2960 0.960 . S
H2947 C2960 0.960 . S
C2948 H2940 0.929 . S
C2948 C2949 1.377 . S
C2948 C2950 1.384 . S
C2949 C2948 1.377 . S
C2949 C2955 1.390 . S
C2950 H2941 0.930 . S
C2950 C2948 1.384 . S
C2950 C2951 1.372 . S
C2951 C2950 1.372 . S
C2951 C2952 1.400 . S
C2951 C2956 1.490 . S
C2952 H2942 0.930 . S
C2952 C2951 1.400 . S
C2952 C2955 1.386 . S
H2953 C2969 0.930 . S
H2954 C2970 0.931 . S
C2955 H2943 0.929 . S
C2955 C2949 1.390 . S
C2955 C2952 1.386 . S
C2956 C2951 1.490 . S
C2956 C2958 1.395 . S
C2956 C2959 1.403 . S
H2957 C2963 0.930 . S
C2958 H2944 0.930 . S
C2958 C2956 1.395 . S
C2958 C2961 1.403 . S
C2959 C2956 1.403 . S
C2959 C2960 1.524 . S
C2959 C2963 1.400 . S
C2960 H2945 0.960 . S
C2960 H2946 0.960 . S
C2960 H2947 0.960 . S
C2960 C2959 1.524 . S
C2961 C2958 1.403 . S
C2961 C2962 1.392 . S
C2961 C2965 1.495 . S
C2962 C2961 1.392 . S
C2962 C2963 1.385 . S
C2962 C2964 1.478 . S
C2963 H2957 0.930 . S
C2963 C2959 1.400 . S
C2963 C2962 1.385 . S
C2964 C2962 1.478 . S
C2964 C2966 1.381 . S
C2964 C2970 1.383 . S
C2965 C2961 1.495 . S
C2965 H2971 0.959 . S
C2965 H2972 0.961 . S
C2965 H2973 0.960 . S
C2966 C2964 1.381 . S
C2966 C2967 1.394 . S
C2966 H2974 0.930 . S
C2967 C2966 1.394 . S
C2967 C2968 1.383 . S
C2967 H2975 0.929 . S
C2968 C2967 1.383 . S
C2968 C2969 1.377 . S
C2969 H2953 0.930 . S
C2969 C2968 1.377 . S
C2969 C2970 1.379 . S
C2970 H2954 0.931 . S
C2970 C2964 1.383 . S
C2970 C2969 1.379 . S
H2971 C2965 0.959 . S
H2972 C2965 0.961 . S
H2973 C2965 0.960 . S
H2974 C2966 0.930 . S
H2975 C2967 0.929 . S
H2976 C2984 0.929 . S
H2977 C2986 0.930 . S
H2978 C2988 0.930 . S
H2979 C2991 0.929 . S
H2980 C2994 0.930 . S
H2981 C2996 0.960 . S
H2982 C2996 0.960 . S
H2983 C2996 0.960 . S
C2984 H2976 0.929 . S
C2984 C2985 1.377 . S
C2984 C2986 1.384 . S
C2985 C2984 1.377 . S
C2985 C2991 1.390 . S
C2986 H2977 0.930 . S
C2986 C2984 1.384 . S
C2986 C2987 1.372 . S
C2987 C2986 1.372 . S
C2987 C2988 1.400 . S
C2987 C2992 1.490 . S
C2988 H2978 0.930 . S
C2988 C2987 1.400 . S
C2988 C2991 1.386 . S
H2989 C3005 0.930 . S
H2990 C3006 0.931 . S
C2991 H2979 0.929 . S
C2991 C2985 1.390 . S
C2991 C2988 1.386 . S
C2992 C2987 1.490 . S
C2992 C2994 1.395 . S
C2992 C2995 1.403 . S
H2993 C2999 0.930 . S
C2994 H2980 0.930 . S
C2994 C2992 1.395 . S
C2994 C2997 1.403 . S
C2995 C2992 1.403 . S
C2995 C2996 1.524 . S
C2995 C2999 1.400 . S
C2996 H2981 0.960 . S
C2996 H2982 0.960 . S
C2996 H2983 0.960 . S
C2996 C2995 1.524 . S
C2997 C2994 1.403 . S
C2997 C2998 1.392 . S
C2997 C3001 1.495 . S
C2998 C2997 1.392 . S
C2998 C2999 1.385 . S
C2998 C3000 1.478 . S
C2999 H2993 0.930 . S
C2999 C2995 1.400 . S
C2999 C2998 1.385 . S
C3000 C2998 1.478 . S
C3000 C3002 1.381 . S
C3000 C3006 1.383 . S
C3001 C2997 1.495 . S
C3001 H3007 0.959 . S
C3001 H3008 0.961 . S
C3001 H3009 0.960 . S
C3002 C3000 1.381 . S
C3002 C3003 1.394 . S
C3002 H3010 0.930 . S
C3003 C3002 1.394 . S
C3003 C3004 1.383 . S
C3003 H3011 0.929 . S
C3004 C3003 1.383 . S
C3004 C3005 1.377 . S
C3005 H2989 0.930 . S
C3005 C3004 1.377 . S
C3005 C3006 1.379 . S
C3006 H2990 0.931 . S
C3006 C3000 1.383 . S
C3006 C3005 1.379 . S
H3007 C3001 0.959 . S
H3008 C3001 0.961 . S
H3009 C3001 0.960 . S
H3010 C3002 0.930 . S
H3011 C3003 0.929 . S
H3012 C3020 0.929 . S
H3013 C3022 0.930 . S
H3014 C3024 0.930 . S
H3015 C3027 0.929 . S
H3016 C3030 0.930 . S
H3017 C3032 0.960 . S
H3018 C3032 0.960 . S
H3019 C3032 0.960 . S
C3020 H3012 0.929 . S
C3020 C3021 1.377 . S
C3020 C3022 1.384 . S
C3021 C3020 1.377 . S
C3021 C3027 1.390 . S
C3022 H3013 0.930 . S
C3022 C3020 1.384 . S
C3022 C3023 1.372 . S
C3023 C3022 1.372 . S
C3023 C3024 1.400 . S
C3023 C3028 1.490 . S
C3024 H3014 0.930 . S
C3024 C3023 1.400 . S
C3024 C3027 1.386 . S
H3025 C3041 0.930 . S
H3026 C3042 0.931 . S
C3027 H3015 0.929 . S
C3027 C3021 1.390 . S
C3027 C3024 1.386 . S
C3028 C3023 1.490 . S
C3028 C3030 1.395 . S
C3028 C3031 1.403 . S
H3029 C3035 0.930 . S
C3030 H3016 0.930 . S
C3030 C3028 1.395 . S
C3030 C3033 1.403 . S
C3031 C3028 1.403 . S
C3031 C3032 1.524 . S
C3031 C3035 1.400 . S
C3032 H3017 0.960 . S
C3032 H3018 0.960 . S
C3032 H3019 0.960 . S
C3032 C3031 1.524 . S
C3033 C3030 1.403 . S
C3033 C3034 1.392 . S
C3033 C3037 1.495 . S
C3034 C3033 1.392 . S
C3034 C3035 1.385 . S
C3034 C3036 1.478 . S
C3035 H3029 0.930 . S
C3035 C3031 1.400 . S
C3035 C3034 1.385 . S
C3036 C3034 1.478 . S
C3036 C3038 1.381 . S
C3036 C3042 1.383 . S
C3037 C3033 1.495 . S
C3037 H3043 0.959 . S
C3037 H3044 0.961 . S
C3037 H3045 0.960 . S
C3038 C3036 1.381 . S
C3038 C3039 1.394 . S
C3038 H3046 0.930 . S
C3039 C3038 1.394 . S
C3039 C3040 1.383 . S
C3039 H3047 0.929 . S
C3040 C3039 1.383 . S
C3040 C3041 1.377 . S
C3041 H3025 0.930 . S
C3041 C3040 1.377 . S
C3041 C3042 1.379 . S
C3042 H3026 0.931 . S
C3042 C3036 1.383 . S
C3042 C3041 1.379 . S
H3043 C3037 0.959 . S
H3044 C3037 0.961 . S
H3045 C3037 0.960 . S
H3046 C3038 0.930 . S
H3047 C3039 0.929 . S
H3048 C3056 0.929 . S
H3049 C3058 0.930 . S
H3050 C3060 0.930 . S
H3051 C3063 0.929 . S
H3052 C3066 0.930 . S
H3053 C3068 0.960 . S
H3054 C3068 0.960 . S
H3055 C3068 0.960 . S
C3056 H3048 0.929 . S
C3056 C3057 1.377 . S
C3056 C3058 1.384 . S
C3057 C3056 1.377 . S
C3057 C3063 1.390 . S
C3058 H3049 0.930 . S
C3058 C3056 1.384 . S
C3058 C3059 1.372 . S
C3059 C3058 1.372 . S
C3059 C3060 1.400 . S
C3059 C3064 1.490 . S
C3060 H3050 0.930 . S
C3060 C3059 1.400 . S
C3060 C3063 1.386 . S
H3061 C3077 0.930 . S
H3062 C3078 0.931 . S
C3063 H3051 0.929 . S
C3063 C3057 1.390 . S
C3063 C3060 1.386 . S
C3064 C3059 1.490 . S
C3064 C3066 1.395 . S
C3064 C3067 1.403 . S
H3065 C3071 0.930 . S
C3066 H3052 0.930 . S
C3066 C3064 1.395 . S
C3066 C3069 1.403 . S
C3067 C3064 1.403 . S
C3067 C3068 1.524 . S
C3067 C3071 1.400 . S
C3068 H3053 0.960 . S
C3068 H3054 0.960 . S
C3068 H3055 0.960 . S
C3068 C3067 1.524 . S
C3069 C3066 1.403 . S
C3069 C3070 1.392 . S
C3069 C3073 1.495 . S
C3070 C3069 1.392 . S
C3070 C3071 1.385 . S
C3070 C3072 1.478 . S
C3071 H3065 0.930 . S
C3071 C3067 1.400 . S
C3071 C3070 1.385 . S
C3072 C3070 1.478 . S
C3072 C3074 1.381 . S
C3072 C3078 1.383 . S
C3073 C3069 1.495 . S
C3073 H3079 0.959 . S
C3073 H3080 0.961 . S
C3073 H3081 0.960 . S
C3074 C3072 1.381 . S
C3074 C3075 1.394 . S
C3074 H3082 0.930 . S
C3075 C3074 1.394 . S
C3075 C3076 1.383 . S
C3075 H3083 0.929 . S
C3076 C3075 1.383 . S
C3076 C3077 1.377 . S
C3077 H3061 0.930 . S
C3077 C3076 1.377 . S
C3077 C3078 1.379 . S
C3078 H3062 0.931 . S
C3078 C3072 1.383 . S
C3078 C3077 1.379 . S
H3079 C3073 0.959 . S
H3080 C3073 0.961 . S
H3081 C3073 0.960 . S
H3082 C3074 0.930 . S
H3083 C3075 0.929 . S
H3084 C3092 0.929 . S
H3085 C3094 0.930 . S
H3086 C3096 0.930 . S
H3087 C3099 0.929 . S
H3088 C3102 0.930 . S
H3089 C3104 0.960 . S
H3090 C3104 0.960 . S
H3091 C3104 0.960 . S
C3092 H3084 0.929 . S
C3092 C3093 1.377 . S
C3092 C3094 1.384 . S
C3093 C3092 1.377 . S
C3093 C3099 1.390 . S
C3094 H3085 0.930 . S
C3094 C3092 1.384 . S
C3094 C3095 1.372 . S
C3095 C3094 1.372 . S
C3095 C3096 1.400 . S
C3095 C3100 1.490 . S
C3096 H3086 0.930 . S
C3096 C3095 1.400 . S
C3096 C3099 1.386 . S
H3097 C3113 0.930 . S
H3098 C3114 0.931 . S
C3099 H3087 0.929 . S
C3099 C3093 1.390 . S
C3099 C3096 1.386 . S
C3100 C3095 1.490 . S
C3100 C3102 1.395 . S
C3100 C3103 1.403 . S
H3101 C3107 0.930 . S
C3102 H3088 0.930 . S
C3102 C3100 1.395 . S
C3102 C3105 1.403 . S
C3103 C3100 1.403 . S
C3103 C3104 1.524 . S
C3103 C3107 1.400 . S
C3104 H3089 0.960 . S
C3104 H3090 0.960 . S
C3104 H3091 0.960 . S
C3104 C3103 1.524 . S
C3105 C3102 1.403 . S
C3105 C3106 1.392 . S
C3105 C3109 1.495 . S
C3106 C3105 1.392 . S
C3106 C3107 1.385 . S
C3106 C3108 1.478 . S
C3107 H3101 0.930 . S
C3107 C3103 1.400 . S
C3107 C3106 1.385 . S
C3108 C3106 1.478 . S
C3108 C3110 1.381 . S
C3108 C3114 1.383 . S
C3109 C3105 1.495 . S
C3109 H3115 0.959 . S
C3109 H3116 0.961 . S
C3109 H3117 0.960 . S
C3110 C3108 1.381 . S
C3110 C3111 1.394 . S
C3110 H3118 0.930 . S
C3111 C3110 1.394 . S
C3111 C3112 1.383 . S
C3111 H3119 0.929 . S
C3112 C3111 1.383 . S
C3112 C3113 1.377 . S
C3113 H3097 0.930 . S
C3113 C3112 1.377 . S
C3113 C3114 1.379 . S
C3114 H3098 0.931 . S
C3114 C3108 1.383 . S
C3114 C3113 1.379 . S
H3115 C3109 0.959 . S
H3116 C3109 0.961 . S
H3117 C3109 0.960 . S
H3118 C3110 0.930 . S
H3119 C3111 0.929 . S
H3120 C3128 0.929 . S
H3121 C3130 0.930 . S
H3122 C3132 0.930 . S
H3123 C3135 0.929 . S
H3124 C3138 0.930 . S
H3125 C3140 0.960 . S
H3126 C3140 0.960 . S
H3127 C3140 0.960 . S
C3128 H3120 0.929 . S
C3128 C3129 1.377 . S
C3128 C3130 1.384 . S
C3129 C3128 1.377 . S
C3129 C3135 1.390 . S
C3130 H3121 0.930 . S
C3130 C3128 1.384 . S
C3130 C3131 1.372 . S
C3131 C3130 1.372 . S
C3131 C3132 1.400 . S
C3131 C3136 1.490 . S
C3132 H3122 0.930 . S
C3132 C3131 1.400 . S
C3132 C3135 1.386 . S
H3133 C3149 0.930 . S
H3134 C3150 0.931 . S
C3135 H3123 0.929 . S
C3135 C3129 1.390 . S
C3135 C3132 1.386 . S
C3136 C3131 1.490 . S
C3136 C3138 1.395 . S
C3136 C3139 1.403 . S
H3137 C3143 0.930 . S
C3138 H3124 0.930 . S
C3138 C3136 1.395 . S
C3138 C3141 1.403 . S
C3139 C3136 1.403 . S
C3139 C3140 1.524 . S
C3139 C3143 1.400 . S
C3140 H3125 0.960 . S
C3140 H3126 0.960 . S
C3140 H3127 0.960 . S
C3140 C3139 1.524 . S
C3141 C3138 1.403 . S
C3141 C3142 1.392 . S
C3141 C3145 1.495 . S
C3142 C3141 1.392 . S
C3142 C3143 1.385 . S
C3142 C3144 1.478 . S
C3143 H3137 0.930 . S
C3143 C3139 1.400 . S
C3143 C3142 1.385 . S
C3144 C3142 1.478 . S
C3144 C3146 1.381 . S
C3144 C3150 1.383 . S
C3145 C3141 1.495 . S
C3145 H3151 0.959 . S
C3145 H3152 0.961 . S
C3145 H3153 0.960 . S
C3146 C3144 1.381 . S
C3146 C3147 1.394 . S
C3146 H3154 0.930 . S
C3147 C3146 1.394 . S
C3147 C3148 1.383 . S
C3147 H3155 0.929 . S
C3148 C3147 1.383 . S
C3148 C3149 1.377 . S
C3149 H3133 0.930 . S
C3149 C3148 1.377 . S
C3149 C3150 1.379 . S
C3150 H3134 0.931 . S
C3150 C3144 1.383 . S
C3150 C3149 1.379 . S
H3151 C3145 0.959 . S
H3152 C3145 0.961 . S
H3153 C3145 0.960 . S
H3154 C3146 0.930 . S
H3155 C3147 0.929 . S
H3156 C3164 0.929 . S
H3157 C3166 0.930 . S
H3158 C3168 0.930 . S
H3159 C3171 0.929 . S
H3160 C3174 0.930 . S
H3161 C3176 0.960 . S
H3162 C3176 0.960 . S
H3163 C3176 0.960 . S
C3164 H3156 0.929 . S
C3164 C3165 1.377 . S
C3164 C3166 1.384 . S
C3165 C3164 1.377 . S
C3165 C3171 1.390 . S
C3166 H3157 0.930 . S
C3166 C3164 1.384 . S
C3166 C3167 1.372 . S
C3167 C3166 1.372 . S
C3167 C3168 1.400 . S
C3167 C3172 1.490 . S
C3168 H3158 0.930 . S
C3168 C3167 1.400 . S
C3168 C3171 1.386 . S
H3169 C3185 0.930 . S
H3170 C3186 0.931 . S
C3171 H3159 0.929 . S
C3171 C3165 1.390 . S
C3171 C3168 1.386 . S
C3172 C3167 1.490 . S
C3172 C3174 1.395 . S
C3172 C3175 1.403 . S
H3173 C3179 0.930 . S
C3174 H3160 0.930 . S
C3174 C3172 1.395 . S
C3174 C3177 1.403 . S
C3175 C3172 1.403 . S
C3175 C3176 1.524 . S
C3175 C3179 1.400 . S
C3176 H3161 0.960 . S
C3176 H3162 0.960 . S
C3176 H3163 0.960 . S
C3176 C3175 1.524 . S
C3177 C3174 1.403 . S
C3177 C3178 1.392 . S
C3177 C3181 1.495 . S
C3178 C3177 1.392 . S
C3178 C3179 1.385 . S
C3178 C3180 1.478 . S
C3179 H3173 0.930 . S
C3179 C3175 1.400 . S
C3179 C3178 1.385 . S
C3180 C3178 1.478 . S
C3180 C3182 1.381 . S
C3180 C3186 1.383 . S
C3181 C3177 1.495 . S
C3181 H3187 0.959 . S
C3181 H3188 0.961 . S
C3181 H3189 0.960 . S
C3182 C3180 1.381 . S
C3182 C3183 1.394 . S
C3182 H3190 0.930 . S
C3183 C3182 1.394 . S
C3183 C3184 1.383 . S
C3183 H3191 0.929 . S
C3184 C3183 1.383 . S
C3184 C3185 1.377 . S
C3185 H3169 0.930 . S
C3185 C3184 1.377 . S
C3185 C3186 1.379 . S
C3186 H3170 0.931 . S
C3186 C3180 1.383 . S
C3186 C3185 1.379 . S
H3187 C3181 0.959 . S
H3188 C3181 0.961 . S
H3189 C3181 0.960 . S
H3190 C3182 0.930 . S
H3191 C3183 0.929 . S
H3192 C3200 0.929 . S
H3193 C3202 0.930 . S
H3194 C3204 0.930 . S
H3195 C3207 0.929 . S
H3196 C3210 0.930 . S
H3197 C3212 0.960 . S
H3198 C3212 0.960 . S
H3199 C3212 0.960 . S
C3200 H3192 0.929 . S
C3200 C3201 1.377 . S
C3200 C3202 1.384 . S
C3201 C3200 1.377 . S
C3201 C3207 1.390 . S
C3202 H3193 0.930 . S
C3202 C3200 1.384 . S
C3202 C3203 1.372 . S
C3203 C3202 1.372 . S
C3203 C3204 1.400 . S
C3203 C3208 1.490 . S
C3204 H3194 0.930 . S
C3204 C3203 1.400 . S
C3204 C3207 1.386 . S
H3205 C3221 0.930 . S
H3206 C3222 0.931 . S
C3207 H3195 0.929 . S
C3207 C3201 1.390 . S
C3207 C3204 1.386 . S
C3208 C3203 1.490 . S
C3208 C3210 1.395 . S
C3208 C3211 1.403 . S
H3209 C3215 0.930 . S
C3210 H3196 0.930 . S
C3210 C3208 1.395 . S
C3210 C3213 1.403 . S
C3211 C3208 1.403 . S
C3211 C3212 1.524 . S
C3211 C3215 1.400 . S
C3212 H3197 0.960 . S
C3212 H3198 0.960 . S
C3212 H3199 0.960 . S
C3212 C3211 1.524 . S
C3213 C3210 1.403 . S
C3213 C3214 1.392 . S
C3213 C3217 1.495 . S
C3214 C3213 1.392 . S
C3214 C3215 1.385 . S
C3214 C3216 1.478 . S
C3215 H3209 0.930 . S
C3215 C3211 1.400 . S
C3215 C3214 1.385 . S
C3216 C3214 1.478 . S
C3216 C3218 1.381 . S
C3216 C3222 1.383 . S
C3217 C3213 1.495 . S
C3217 H3223 0.959 . S
C3217 H3224 0.961 . S
C3217 H3225 0.960 . S
C3218 C3216 1.381 . S
C3218 C3219 1.394 . S
C3218 H3226 0.930 . S
C3219 C3218 1.394 . S
C3219 C3220 1.383 . S
C3219 H3227 0.929 . S
C3220 C3219 1.383 . S
C3220 C3221 1.377 . S
C3221 H3205 0.930 . S
C3221 C3220 1.377 . S
C3221 C3222 1.379 . S
C3222 H3206 0.931 . S
C3222 C3216 1.383 . S
C3222 C3221 1.379 . S
H3223 C3217 0.959 . S
H3224 C3217 0.961 . S
H3225 C3217 0.960 . S
H3226 C3218 0.930 . S
H3227 C3219 0.929 . S
H3228 C3236 0.929 . S
H3229 C3238 0.930 . S
H3230 C3240 0.930 . S
H3231 C3243 0.929 . S
H3232 C3246 0.930 . S
H3233 C3248 0.960 . S
H3234 C3248 0.960 . S
H3235 C3248 0.960 . S
C3236 H3228 0.929 . S
C3236 C3237 1.377 . S
C3236 C3238 1.384 . S
C3237 C3236 1.377 . S
C3237 C3243 1.390 . S
C3238 H3229 0.930 . S
C3238 C3236 1.384 . S
C3238 C3239 1.372 . S
C3239 C3238 1.372 . S
C3239 C3240 1.400 . S
C3239 C3244 1.490 . S
C3240 H3230 0.930 . S
C3240 C3239 1.400 . S
C3240 C3243 1.386 . S
H3241 C3257 0.930 . S
H3242 C3258 0.931 . S
C3243 H3231 0.929 . S
C3243 C3237 1.390 . S
C3243 C3240 1.386 . S
C3244 C3239 1.490 . S
C3244 C3246 1.395 . S
C3244 C3247 1.403 . S
H3245 C3251 0.930 . S
C3246 H3232 0.930 . S
C3246 C3244 1.395 . S
C3246 C3249 1.403 . S
C3247 C3244 1.403 . S
C3247 C3248 1.524 . S
C3247 C3251 1.400 . S
C3248 H3233 0.960 . S
C3248 H3234 0.960 . S
C3248 H3235 0.960 . S
C3248 C3247 1.524 . S
C3249 C3246 1.403 . S
C3249 C3250 1.392 . S
C3249 C3253 1.495 . S
C3250 C3249 1.392 . S
C3250 C3251 1.385 . S
C3250 C3252 1.478 . S
C3251 H3245 0.930 . S
C3251 C3247 1.400 . S
C3251 C3250 1.385 . S
C3252 C3250 1.478 . S
C3252 C3254 1.381 . S
C3252 C3258 1.383 . S
C3253 C3249 1.495 . S
C3253 H3259 0.959 . S
C3253 H3260 0.961 . S
C3253 H3261 0.960 . S
C3254 C3252 1.381 . S
C3254 C3255 1.394 . S
C3254 H3262 0.930 . S
C3255 C3254 1.394 . S
C3255 C3256 1.383 . S
C3255 H3263 0.929 . S
C3256 C3255 1.383 . S
C3256 C3257 1.377 . S
C3257 H3241 0.930 . S
C3257 C3256 1.377 . S
C3257 C3258 1.379 . S
C3258 H3242 0.931 . S
C3258 C3252 1.383 . S
C3258 C3257 1.379 . S
H3259 C3253 0.959 . S
H3260 C3253 0.961 . S
H3261 C3253 0.960 . S
H3262 C3254 0.930 . S
H3263 C3255 0.929 . S
H3264 C3272 0.929 . S
H3265 C3274 0.930 . S
H3266 C3276 0.930 . S
H3267 C3279 0.929 . S
H3268 C3282 0.930 . S
H3269 C3284 0.960 . S
H3270 C3284 0.960 . S
H3271 C3284 0.960 . S
C3272 H3264 0.929 . S
C3272 C3273 1.377 . S
C3272 C3274 1.384 . S
C3273 C3272 1.377 . S
C3273 C3279 1.390 . S
C3274 H3265 0.930 . S
C3274 C3272 1.384 . S
C3274 C3275 1.372 . S
C3275 C3274 1.372 . S
C3275 C3276 1.400 . S
C3275 C3280 1.490 . S
C3276 H3266 0.930 . S
C3276 C3275 1.400 . S
C3276 C3279 1.386 . S
H3277 C3293 0.930 . S
H3278 C3294 0.931 . S
C3279 H3267 0.929 . S
C3279 C3273 1.390 . S
C3279 C3276 1.386 . S
C3280 C3275 1.490 . S
C3280 C3282 1.395 . S
C3280 C3283 1.403 . S
H3281 C3287 0.930 . S
C3282 H3268 0.930 . S
C3282 C3280 1.395 . S
C3282 C3285 1.403 . S
C3283 C3280 1.403 . S
C3283 C3284 1.524 . S
C3283 C3287 1.400 . S
C3284 H3269 0.960 . S
C3284 H3270 0.960 . S
C3284 H3271 0.960 . S
C3284 C3283 1.524 . S
C3285 C3282 1.403 . S
C3285 C3286 1.392 . S
C3285 C3289 1.495 . S
C3286 C3285 1.392 . S
C3286 C3287 1.385 . S
C3286 C3288 1.478 . S
C3287 H3281 0.930 . S
C3287 C3283 1.400 . S
C3287 C3286 1.385 . S
C3288 C3286 1.478 . S
C3288 C3290 1.381 . S
C3288 C3294 1.383 . S
C3289 C3285 1.495 . S
C3289 H3295 0.959 . S
C3289 H3296 0.961 . S
C3289 H3297 0.960 . S
C3290 C3288 1.381 . S
C3290 C3291 1.394 . S
C3290 H3298 0.930 . S
C3291 C3290 1.394 . S
C3291 C3292 1.383 . S
C3291 H3299 0.929 . S
C3292 C3291 1.383 . S
C3292 C3293 1.377 . S
C3293 H3277 0.930 . S
C3293 C3292 1.377 . S
C3293 C3294 1.379 . S
C3294 H3278 0.931 . S
C3294 C3288 1.383 . S
C3294 C3293 1.379 . S
H3295 C3289 0.959 . S
H3296 C3289 0.961 . S
H3297 C3289 0.960 . S
H3298 C3290 0.930 . S
H3299 C3291 0.929 . S
H3300 C3308 0.929 . S
H3301 C3310 0.930 . S
H3302 C3312 0.930 . S
H3303 C3315 0.929 . S
H3304 C3318 0.930 . S
H3305 C3320 0.960 . S
H3306 C3320 0.960 . S
H3307 C3320 0.960 . S
C3308 H3300 0.929 . S
C3308 C3309 1.377 . S
C3308 C3310 1.384 . S
C3309 C3308 1.377 . S
C3309 C3315 1.390 . S
C3310 H3301 0.930 . S
C3310 C3308 1.384 . S
C3310 C3311 1.372 . S
C3311 C3310 1.372 . S
C3311 C3312 1.400 . S
C3311 C3316 1.490 . S
C3312 H3302 0.930 . S
C3312 C3311 1.400 . S
C3312 C3315 1.386 . S
H3313 C3329 0.930 . S
H3314 C3330 0.931 . S
C3315 H3303 0.929 . S
C3315 C3309 1.390 . S
C3315 C3312 1.386 . S
C3316 C3311 1.490 . S
C3316 C3318 1.395 . S
C3316 C3319 1.403 . S
H3317 C3323 0.930 . S
C3318 H3304 0.930 . S
C3318 C3316 1.395 . S
C3318 C3321 1.403 . S
C3319 C3316 1.403 . S
C3319 C3320 1.524 . S
C3319 C3323 1.400 . S
C3320 H3305 0.960 . S
C3320 H3306 0.960 . S
C3320 H3307 0.960 . S
C3320 C3319 1.524 . S
C3321 C3318 1.403 . S
C3321 C3322 1.392 . S
C3321 C3325 1.495 . S
C3322 C3321 1.392 . S
C3322 C3323 1.385 . S
C3322 C3324 1.478 . S
C3323 H3317 0.930 . S
C3323 C3319 1.400 . S
C3323 C3322 1.385 . S
C3324 C3322 1.478 . S
C3324 C3326 1.381 . S
C3324 C3330 1.383 . S
C3325 C3321 1.495 . S
C3325 H3331 0.959 . S
C3325 H3332 0.961 . S
C3325 H3333 0.960 . S
C3326 C3324 1.381 . S
C3326 C3327 1.394 . S
C3326 H3334 0.930 . S
C3327 C3326 1.394 . S
C3327 C3328 1.383 . S
C3327 H3335 0.929 . S
C3328 C3327 1.383 . S
C3328 C3329 1.377 . S
C3329 H3313 0.930 . S
C3329 C3328 1.377 . S
C3329 C3330 1.379 . S
C3330 H3314 0.931 . S
C3330 C3324 1.383 . S
C3330 C3329 1.379 . S
H3331 C3325 0.959 . S
H3332 C3325 0.961 . S
H3333 C3325 0.960 . S
H3334 C3326 0.930 . S
H3335 C3327 0.929 . S
H3336 C3344 0.929 . S
H3337 C3346 0.930 . S
H3338 C3348 0.930 . S
H3339 C3351 0.929 . S
H3340 C3354 0.930 . S
H3341 C3356 0.960 . S
H3342 C3356 0.960 . S
H3343 C3356 0.960 . S
C3344 H3336 0.929 . S
C3344 C3345 1.377 . S
C3344 C3346 1.384 . S
C3345 C3344 1.377 . S
C3345 C3351 1.390 . S
C3346 H3337 0.930 . S
C3346 C3344 1.384 . S
C3346 C3347 1.372 . S
C3347 C3346 1.372 . S
C3347 C3348 1.400 . S
C3347 C3352 1.490 . S
C3348 H3338 0.930 . S
C3348 C3347 1.400 . S
C3348 C3351 1.386 . S
H3349 C3365 0.930 . S
H3350 C3366 0.931 . S
C3351 H3339 0.929 . S
C3351 C3345 1.390 . S
C3351 C3348 1.386 . S
C3352 C3347 1.490 . S
C3352 C3354 1.395 . S
C3352 C3355 1.403 . S
H3353 C3359 0.930 . S
C3354 H3340 0.930 . S
C3354 C3352 1.395 . S
C3354 C3357 1.403 . S
C3355 C3352 1.403 . S
C3355 C3356 1.524 . S
C3355 C3359 1.400 . S
C3356 H3341 0.960 . S
C3356 H3342 0.960 . S
C3356 H3343 0.960 . S
C3356 C3355 1.524 . S
C3357 C3354 1.403 . S
C3357 C3358 1.392 . S
C3357 C3361 1.495 . S
C3358 C3357 1.392 . S
C3358 C3359 1.385 . S
C3358 C3360 1.478 . S
C3359 H3353 0.930 . S
C3359 C3355 1.400 . S
C3359 C3358 1.385 . S
C3360 C3358 1.478 . S
C3360 C3362 1.381 . S
C3360 C3366 1.383 . S
C3361 C3357 1.495 . S
C3361 H3367 0.959 . S
C3361 H3368 0.961 . S
C3361 H3369 0.960 . S
C3362 C3360 1.381 . S
C3362 C3363 1.394 . S
C3362 H3370 0.930 . S
C3363 C3362 1.394 . S
C3363 C3364 1.383 . S
C3363 H3371 0.929 . S
C3364 C3363 1.383 . S
C3364 C3365 1.377 . S
C3365 H3349 0.930 . S
C3365 C3364 1.377 . S
C3365 C3366 1.379 . S
C3366 H3350 0.931 . S
C3366 C3360 1.383 . S
C3366 C3365 1.379 . S
H3367 C3361 0.959 . S
H3368 C3361 0.961 . S
H3369 C3361 0.960 . S
H3370 C3362 0.930 . S
H3371 C3363 0.929 . S
H3372 C3380 0.929 . S
H3373 C3382 0.930 . S
H3374 C3384 0.930 . S
H3375 C3387 0.929 . S
H3376 C3390 0.930 . S
H3377 C3392 0.960 . S
H3378 C3392 0.960 . S
H3379 C3392 0.960 . S
C3380 H3372 0.929 . S
C3380 C3381 1.377 . S
C3380 C3382 1.384 . S
C3381 C3380 1.377 . S
C3381 C3387 1.390 . S
C3382 H3373 0.930 . S
C3382 C3380 1.384 . S
C3382 C3383 1.372 . S
C3383 C3382 1.372 . S
C3383 C3384 1.400 . S
C3383 C3388 1.490 . S
C3384 H3374 0.930 . S
C3384 C3383 1.400 . S
C3384 C3387 1.386 . S
H3385 C3401 0.930 . S
H3386 C3402 0.931 . S
C3387 H3375 0.929 . S
C3387 C3381 1.390 . S
C3387 C3384 1.386 . S
C3388 C3383 1.490 . S
C3388 C3390 1.395 . S
C3388 C3391 1.403 . S
H3389 C3395 0.930 . S
C3390 H3376 0.930 . S
C3390 C3388 1.395 . S
C3390 C3393 1.403 . S
C3391 C3388 1.403 . S
C3391 C3392 1.524 . S
C3391 C3395 1.400 . S
C3392 H3377 0.960 . S
C3392 H3378 0.960 . S
C3392 H3379 0.960 . S
C3392 C3391 1.524 . S
C3393 C3390 1.403 . S
C3393 C3394 1.392 . S
C3393 C3397 1.495 . S
C3394 C3393 1.392 . S
C3394 C3395 1.385 . S
C3394 C3396 1.478 . S
C3395 H3389 0.930 . S
C3395 C3391 1.400 . S
C3395 C3394 1.385 . S
C3396 C3394 1.478 . S
C3396 C3398 1.381 . S
C3396 C3402 1.383 . S
C3397 C3393 1.495 . S
C3397 H3403 0.959 . S
C3397 H3404 0.961 . S
C3397 H3405 0.960 . S
C3398 C3396 1.381 . S
C3398 C3399 1.394 . S
C3398 H3406 0.930 . S
C3399 C3398 1.394 . S
C3399 C3400 1.383 . S
C3399 H3407 0.929 . S
C3400 C3399 1.383 . S
C3400 C3401 1.377 . S
C3401 H3385 0.930 . S
C3401 C3400 1.377 . S
C3401 C3402 1.379 . S
C3402 H3386 0.931 . S
C3402 C3396 1.383 . S
C3402 C3401 1.379 . S
H3403 C3397 0.959 . S
H3404 C3397 0.961 . S
H3405 C3397 0.960 . S
H3406 C3398 0.930 . S
H3407 C3399 0.929 . S
H3408 C3416 0.929 . S
H3409 C3418 0.930 . S
H3410 C3420 0.930 . S
H3411 C3423 0.929 . S
H3412 C3426 0.930 . S
H3413 C3428 0.960 . S
H3414 C3428 0.960 . S
H3415 C3428 0.960 . S
C3416 H3408 0.929 . S
C3416 C3417 1.377 . S
C3416 C3418 1.384 . S
C3417 C3416 1.377 . S
C3417 C3423 1.390 . S
C3418 H3409 0.930 . S
C3418 C3416 1.384 . S
C3418 C3419 1.372 . S
C3419 C3418 1.372 . S
C3419 C3420 1.400 . S
C3419 C3424 1.490 . S
C3420 H3410 0.930 . S
C3420 C3419 1.400 . S
C3420 C3423 1.386 . S
H3421 C3437 0.930 . S
H3422 C3438 0.931 . S
C3423 H3411 0.929 . S
C3423 C3417 1.390 . S
C3423 C3420 1.386 . S
C3424 C3419 1.490 . S
C3424 C3426 1.395 . S
C3424 C3427 1.403 . S
H3425 C3431 0.930 . S
C3426 H3412 0.930 . S
C3426 C3424 1.395 . S
C3426 C3429 1.403 . S
C3427 C3424 1.403 . S
C3427 C3428 1.524 . S
C3427 C3431 1.400 . S
C3428 H3413 0.960 . S
C3428 H3414 0.960 . S
C3428 H3415 0.960 . S
C3428 C3427 1.524 . S
C3429 C3426 1.403 . S
C3429 C3430 1.392 . S
C3429 C3433 1.495 . S
C3430 C3429 1.392 . S
C3430 C3431 1.385 . S
C3430 C3432 1.478 . S
C3431 H3425 0.930 . S
C3431 C3427 1.400 . S
C3431 C3430 1.385 . S
C3432 C3430 1.478 . S
C3432 C3434 1.381 . S
C3432 C3438 1.383 . S
C3433 C3429 1.495 . S
C3433 H3439 0.959 . S
C3433 H3440 0.961 . S
C3433 H3441 0.960 . S
C3434 C3432 1.381 . S
C3434 C3435 1.394 . S
C3434 H3442 0.930 . S
C3435 C3434 1.394 . S
C3435 C3436 1.383 . S
C3435 H3443 0.929 . S
C3436 C3435 1.383 . S
C3436 C3437 1.377 . S
C3437 H3421 0.930 . S
C3437 C3436 1.377 . S
C3437 C3438 1.379 . S
C3438 H3422 0.931 . S
C3438 C3432 1.383 . S
C3438 C3437 1.379 . S
H3439 C3433 0.959 . S
H3440 C3433 0.961 . S
H3441 C3433 0.960 . S
H3442 C3434 0.930 . S
H3443 C3435 0.929 . S
H3444 C3452 0.929 . S
H3445 C3454 0.930 . S
H3446 C3456 0.930 . S
H3447 C3459 0.929 . S
H3448 C3462 0.930 . S
H3449 C3464 0.960 . S
H3450 C3464 0.960 . S
H3451 C3464 0.960 . S
C3452 H3444 0.929 . S
C3452 C3453 1.377 . S
C3452 C3454 1.384 . S
C3453 C3452 1.377 . S
C3453 C3459 1.390 . S
C3454 H3445 0.930 . S
C3454 C3452 1.384 . S
C3454 C3455 1.372 . S
C3455 C3454 1.372 . S
C3455 C3456 1.400 . S
C3455 C3460 1.490 . S
C3456 H3446 0.930 . S
C3456 C3455 1.400 . S
C3456 C3459 1.386 . S
H3457 C3473 0.930 . S
H3458 C3474 0.931 . S
C3459 H3447 0.929 . S
C3459 C3453 1.390 . S
C3459 C3456 1.386 . S
C3460 C3455 1.490 . S
C3460 C3462 1.395 . S
C3460 C3463 1.403 . S
H3461 C3467 0.930 . S
C3462 H3448 0.930 . S
C3462 C3460 1.395 . S
C3462 C3465 1.403 . S
C3463 C3460 1.403 . S
C3463 C3464 1.524 . S
C3463 C3467 1.400 . S
C3464 H3449 0.960 . S
C3464 H3450 0.960 . S
C3464 H3451 0.960 . S
C3464 C3463 1.524 . S
C3465 C3462 1.403 . S
C3465 C3466 1.392 . S
C3465 C3469 1.495 . S
C3466 C3465 1.392 . S
C3466 C3467 1.385 . S
C3466 C3468 1.478 . S
C3467 H3461 0.930 . S
C3467 C3463 1.400 . S
C3467 C3466 1.385 . S
C3468 C3466 1.478 . S
C3468 C3470 1.381 . S
C3468 C3474 1.383 . S
C3469 C3465 1.495 . S
C3469 H3475 0.959 . S
C3469 H3476 0.961 . S
C3469 H3477 0.960 . S
C3470 C3468 1.381 . S
C3470 C3471 1.394 . S
C3470 H3478 0.930 . S
C3471 C3470 1.394 . S
C3471 C3472 1.383 . S
C3471 H3479 0.929 . S
C3472 C3471 1.383 . S
C3472 C3473 1.377 . S
C3473 H3457 0.930 . S
C3473 C3472 1.377 . S
C3473 C3474 1.379 . S
C3474 H3458 0.931 . S
C3474 C3468 1.383 . S
C3474 C3473 1.379 . S
H3475 C3469 0.959 . S
H3476 C3469 0.961 . S
H3477 C3469 0.960 . S
H3478 C3470 0.930 . S
H3479 C3471 0.929 . S
H3480 C3488 0.929 . S
H3481 C3490 0.930 . S
H3482 C3492 0.930 . S
H3483 C3495 0.929 . S
H3484 C3498 0.930 . S
H3485 C3500 0.960 . S
H3486 C3500 0.960 . S
H3487 C3500 0.960 . S
C3488 H3480 0.929 . S
C3488 C3489 1.377 . S
C3488 C3490 1.384 . S
C3489 C3488 1.377 . S
C3489 C3495 1.390 . S
C3490 H3481 0.930 . S
C3490 C3488 1.384 . S
C3490 C3491 1.372 . S
C3491 C3490 1.372 . S
C3491 C3492 1.400 . S
C3491 C3496 1.490 . S
C3492 H3482 0.930 . S
C3492 C3491 1.400 . S
C3492 C3495 1.386 . S
H3493 C3509 0.930 . S
H3494 C3510 0.931 . S
C3495 H3483 0.929 . S
C3495 C3489 1.390 . S
C3495 C3492 1.386 . S
C3496 C3491 1.490 . S
C3496 C3498 1.395 . S
C3496 C3499 1.403 . S
H3497 C3503 0.930 . S
C3498 H3484 0.930 . S
C3498 C3496 1.395 . S
C3498 C3501 1.403 . S
C3499 C3496 1.403 . S
C3499 C3500 1.524 . S
C3499 C3503 1.400 . S
C3500 H3485 0.960 . S
C3500 H3486 0.960 . S
C3500 H3487 0.960 . S
C3500 C3499 1.524 . S
C3501 C3498 1.403 . S
C3501 C3502 1.392 . S
C3501 C3505 1.495 . S
C3502 C3501 1.392 . S
C3502 C3503 1.385 . S
C3502 C3504 1.478 . S
C3503 H3497 0.930 . S
C3503 C3499 1.400 . S
C3503 C3502 1.385 . S
C3504 C3502 1.478 . S
C3504 C3506 1.381 . S
C3504 C3510 1.383 . S
C3505 C3501 1.495 . S
C3505 H3511 0.959 . S
C3505 H3512 0.961 . S
C3505 H3513 0.960 . S
C3506 C3504 1.381 . S
C3506 C3507 1.394 . S
C3506 H3514 0.930 . S
C3507 C3506 1.394 . S
C3507 C3508 1.383 . S
C3507 H3515 0.929 . S
C3508 C3507 1.383 . S
C3508 C3509 1.377 . S
C3509 H3493 0.930 . S
C3509 C3508 1.377 . S
C3509 C3510 1.379 . S
C3510 H3494 0.931 . S
C3510 C3504 1.383 . S
C3510 C3509 1.379 . S
H3511 C3505 0.959 . S
H3512 C3505 0.961 . S
H3513 C3505 0.960 . S
H3514 C3506 0.930 . S
H3515 C3507 0.929 . S
H3516 C3524 0.929 . S
H3517 C3526 0.930 . S
H3518 C3528 0.930 . S
H3519 C3531 0.929 . S
H3520 C3534 0.930 . S
H3521 C3536 0.960 . S
H3522 C3536 0.960 . S
H3523 C3536 0.960 . S
C3524 H3516 0.929 . S
C3524 C3525 1.377 . S
C3524 C3526 1.384 . S
C3525 C3524 1.377 . S
C3525 C3531 1.390 . S
C3526 H3517 0.930 . S
C3526 C3524 1.384 . S
C3526 C3527 1.372 . S
C3527 C3526 1.372 . S
C3527 C3528 1.400 . S
C3527 C3532 1.490 . S
C3528 H3518 0.930 . S
C3528 C3527 1.400 . S
C3528 C3531 1.386 . S
H3529 C3545 0.930 . S
H3530 C3546 0.931 . S
C3531 H3519 0.929 . S
C3531 C3525 1.390 . S
C3531 C3528 1.386 . S
C3532 C3527 1.490 . S
C3532 C3534 1.395 . S
C3532 C3535 1.403 . S
H3533 C3539 0.930 . S
C3534 H3520 0.930 . S
C3534 C3532 1.395 . S
C3534 C3537 1.403 . S
C3535 C3532 1.403 . S
C3535 C3536 1.524 . S
C3535 C3539 1.400 . S
C3536 H3521 0.960 . S
C3536 H3522 0.960 . S
C3536 H3523 0.960 . S
C3536 C3535 1.524 . S
C3537 C3534 1.403 . S
C3537 C3538 1.392 . S
C3537 C3541 1.495 . S
C3538 C3537 1.392 . S
C3538 C3539 1.385 . S
C3538 C3540 1.478 . S
C3539 H3533 0.930 . S
C3539 C3535 1.400 . S
C3539 C3538 1.385 . S
C3540 C3538 1.478 . S
C3540 C3542 1.381 . S
C3540 C3546 1.383 . S
C3541 C3537 1.495 . S
C3541 H3547 0.959 . S
C3541 H3548 0.961 . S
C3541 H3549 0.960 . S
C3542 C3540 1.381 . S
C3542 C3543 1.394 . S
C3542 H3550 0.930 . S
C3543 C3542 1.394 . S
C3543 C3544 1.383 . S
C3543 H3551 0.929 . S
C3544 C3543 1.383 . S
C3544 C3545 1.377 . S
C3545 H3529 0.930 . S
C3545 C3544 1.377 . S
C3545 C3546 1.379 . S
C3546 H3530 0.931 . S
C3546 C3540 1.383 . S
C3546 C3545 1.379 . S
H3547 C3541 0.959 . S
H3548 C3541 0.961 . S
H3549 C3541 0.960 . S
H3550 C3542 0.930 . S
H3551 C3543 0.929 . S
H3552 C3560 0.929 . S
H3553 C3562 0.930 . S
H3554 C3564 0.930 . S
H3555 C3567 0.929 . S
H3556 C3570 0.930 . S
H3557 C3572 0.960 . S
H3558 C3572 0.960 . S
H3559 C3572 0.960 . S
C3560 H3552 0.929 . S
C3560 C3561 1.377 . S
C3560 C3562 1.384 . S
C3561 C3560 1.377 . S
C3561 C3567 1.390 . S
C3562 H3553 0.930 . S
C3562 C3560 1.384 . S
C3562 C3563 1.372 . S
C3563 C3562 1.372 . S
C3563 C3564 1.400 . S
C3563 C3568 1.490 . S
C3564 H3554 0.930 . S
C3564 C3563 1.400 . S
C3564 C3567 1.386 . S
H3565 C3581 0.930 . S
H3566 C3582 0.931 . S
C3567 H3555 0.929 . S
C3567 C3561 1.390 . S
C3567 C3564 1.386 . S
C3568 C3563 1.490 . S
C3568 C3570 1.395 . S
C3568 C3571 1.403 . S
H3569 C3575 0.930 . S
C3570 H3556 0.930 . S
C3570 C3568 1.395 . S
C3570 C3573 1.403 . S
C3571 C3568 1.403 . S
C3571 C3572 1.524 . S
C3571 C3575 1.400 . S
C3572 H3557 0.960 . S
C3572 H3558 0.960 . S
C3572 H3559 0.960 . S
C3572 C3571 1.524 . S
C3573 C3570 1.403 . S
C3573 C3574 1.392 . S
C3573 C3577 1.495 . S
C3574 C3573 1.392 . S
C3574 C3575 1.385 . S
C3574 C3576 1.478 . S
C3575 H3569 0.930 . S
C3575 C3571 1.400 . S
C3575 C3574 1.385 . S
C3576 C3574 1.478 . S
C3576 C3578 1.381 . S
C3576 C3582 1.383 . S
C3577 C3573 1.495 . S
C3577 H3583 0.959 . S
C3577 H3584 0.961 . S
C3577 H3585 0.960 . S
C3578 C3576 1.381 . S
C3578 C3579 1.394 . S
C3578 H3586 0.930 . S
C3579 C3578 1.394 . S
C3579 C3580 1.383 . S
C3579 H3587 0.929 . S
C3580 C3579 1.383 . S
C3580 C3581 1.377 . S
C3581 H3565 0.930 . S
C3581 C3580 1.377 . S
C3581 C3582 1.379 . S
C3582 H3566 0.931 . S
C3582 C3576 1.383 . S
C3582 C3581 1.379 . S
H3583 C3577 0.959 . S
H3584 C3577 0.961 . S
H3585 C3577 0.960 . S
H3586 C3578 0.930 . S
H3587 C3579 0.929 . S
H3588 C3596 0.929 . S
H3589 C3598 0.930 . S
H3590 C3600 0.930 . S
H3591 C3603 0.929 . S
H3592 C3606 0.930 . S
H3593 C3608 0.960 . S
H3594 C3608 0.960 . S
H3595 C3608 0.960 . S
C3596 H3588 0.929 . S
C3596 C3597 1.377 . S
C3596 C3598 1.384 . S
C3597 C3596 1.377 . S
C3597 C3603 1.390 . S
C3598 H3589 0.930 . S
C3598 C3596 1.384 . S
C3598 C3599 1.372 . S
C3599 C3598 1.372 . S
C3599 C3600 1.400 . S
C3599 C3604 1.490 . S
C3600 H3590 0.930 . S
C3600 C3599 1.400 . S
C3600 C3603 1.386 . S
H3601 C3617 0.930 . S
H3602 C3618 0.931 . S
C3603 H3591 0.929 . S
C3603 C3597 1.390 . S
C3603 C3600 1.386 . S
C3604 C3599 1.490 . S
C3604 C3606 1.395 . S
C3604 C3607 1.403 . S
H3605 C3611 0.930 . S
C3606 H3592 0.930 . S
C3606 C3604 1.395 . S
C3606 C3609 1.403 . S
C3607 C3604 1.403 . S
C3607 C3608 1.524 . S
C3607 C3611 1.400 . S
C3608 H3593 0.960 . S
C3608 H3594 0.960 . S
C3608 H3595 0.960 . S
C3608 C3607 1.524 . S
C3609 C3606 1.403 . S
C3609 C3610 1.392 . S
C3609 C3613 1.495 . S
C3610 C3609 1.392 . S
C3610 C3611 1.385 . S
C3610 C3612 1.478 . S
C3611 H3605 0.930 . S
C3611 C3607 1.400 . S
C3611 C3610 1.385 . S
C3612 C3610 1.478 . S
C3612 C3614 1.381 . S
C3612 C3618 1.383 . S
C3613 C3609 1.495 . S
C3613 H3619 0.959 . S
C3613 H3620 0.961 . S
C3613 H3621 0.960 . S
C3614 C3612 1.381 . S
C3614 C3615 1.394 . S
C3614 H3622 0.930 . S
C3615 C3614 1.394 . S
C3615 C3616 1.383 . S
C3615 H3623 0.929 . S
C3616 C3615 1.383 . S
C3616 C3617 1.377 . S
C3617 H3601 0.930 . S
C3617 C3616 1.377 . S
C3617 C3618 1.379 . S
C3618 H3602 0.931 . S
C3618 C3612 1.383 . S
C3618 C3617 1.379 . S
H3619 C3613 0.959 . S
H3620 C3613 0.961 . S
H3621 C3613 0.960 . S
H3622 C3614 0.930 . S
H3623 C3615 0.929 . S
H3624 C3632 0.929 . S
H3625 C3634 0.930 . S
H3626 C3636 0.930 . S
H3627 C3639 0.929 . S
H3628 C3642 0.930 . S
H3629 C3644 0.960 . S
H3630 C3644 0.960 . S
H3631 C3644 0.960 . S
C3632 H3624 0.929 . S
C3632 C3633 1.377 . S
C3632 C3634 1.384 . S
C3633 C3632 1.377 . S
C3633 C3639 1.390 . S
C3634 H3625 0.930 . S
C3634 C3632 1.384 . S
C3634 C3635 1.372 . S
C3635 C3634 1.372 . S
C3635 C3636 1.400 . S
C3635 C3640 1.490 . S
C3636 H3626 0.930 . S
C3636 C3635 1.400 . S
C3636 C3639 1.386 . S
H3637 C3653 0.930 . S
H3638 C3654 0.931 . S
C3639 H3627 0.929 . S
C3639 C3633 1.390 . S
C3639 C3636 1.386 . S
C3640 C3635 1.490 . S
C3640 C3642 1.395 . S
C3640 C3643 1.403 . S
H3641 C3647 0.930 . S
C3642 H3628 0.930 . S
C3642 C3640 1.395 . S
C3642 C3645 1.403 . S
C3643 C3640 1.403 . S
C3643 C3644 1.524 . S
C3643 C3647 1.400 . S
C3644 H3629 0.960 . S
C3644 H3630 0.960 . S
C3644 H3631 0.960 . S
C3644 C3643 1.524 . S
C3645 C3642 1.403 . S
C3645 C3646 1.392 . S
C3645 C3649 1.495 . S
C3646 C3645 1.392 . S
C3646 C3647 1.385 . S
C3646 C3648 1.478 . S
C3647 H3641 0.930 . S
C3647 C3643 1.400 . S
C3647 C3646 1.385 . S
C3648 C3646 1.478 . S
C3648 C3650 1.381 . S
C3648 C3654 1.383 . S
C3649 C3645 1.495 . S
C3649 H3655 0.959 . S
C3649 H3656 0.961 . S
C3649 H3657 0.960 . S
C3650 C3648 1.381 . S
C3650 C3651 1.394 . S
C3650 H3658 0.930 . S
C3651 C3650 1.394 . S
C3651 C3652 1.383 . S
C3651 H3659 0.929 . S
C3652 C3651 1.383 . S
C3652 C3653 1.377 . S
C3653 H3637 0.930 . S
C3653 C3652 1.377 . S
C3653 C3654 1.379 . S
C3654 H3638 0.931 . S
C3654 C3648 1.383 . S
C3654 C3653 1.379 . S
H3655 C3649 0.959 . S
H3656 C3649 0.961 . S
H3657 C3649 0.960 . S
H3658 C3650 0.930 . S
H3659 C3651 0.929 . S
H3660 C3668 0.929 . S
H3661 C3670 0.930 . S
H3662 C3672 0.930 . S
H3663 C3675 0.929 . S
H3664 C3678 0.930 . S
H3665 C3680 0.960 . S
H3666 C3680 0.960 . S
H3667 C3680 0.960 . S
C3668 H3660 0.929 . S
C3668 C3669 1.377 . S
C3668 C3670 1.384 . S
C3669 C3668 1.377 . S
C3669 C3675 1.390 . S
C3670 H3661 0.930 . S
C3670 C3668 1.384 . S
C3670 C3671 1.372 . S
C3671 C3670 1.372 . S
C3671 C3672 1.400 . S
C3671 C3676 1.490 . S
C3672 H3662 0.930 . S
C3672 C3671 1.400 . S
C3672 C3675 1.386 . S
H3673 C3689 0.930 . S
H3674 C3690 0.931 . S
C3675 H3663 0.929 . S
C3675 C3669 1.390 . S
C3675 C3672 1.386 . S
C3676 C3671 1.490 . S
C3676 C3678 1.395 . S
C3676 C3679 1.403 . S
H3677 C3683 0.930 . S
C3678 H3664 0.930 . S
C3678 C3676 1.395 . S
C3678 C3681 1.403 . S
C3679 C3676 1.403 . S
C3679 C3680 1.524 . S
C3679 C3683 1.400 . S
C3680 H3665 0.960 . S
C3680 H3666 0.960 . S
C3680 H3667 0.960 . S
C3680 C3679 1.524 . S
C3681 C3678 1.403 . S
C3681 C3682 1.392 . S
C3681 C3685 1.495 . S
C3682 C3681 1.392 . S
C3682 C3683 1.385 . S
C3682 C3684 1.478 . S
C3683 H3677 0.930 . S
C3683 C3679 1.400 . S
C3683 C3682 1.385 . S
C3684 C3682 1.478 . S
C3684 C3686 1.381 . S
C3684 C3690 1.383 . S
C3685 C3681 1.495 . S
C3685 H3691 0.959 . S
C3685 H3692 0.961 . S
C3685 H3693 0.960 . S
C3686 C3684 1.381 . S
C3686 C3687 1.394 . S
C3686 H3694 0.930 . S
C3687 C3686 1.394 . S
C3687 C3688 1.383 . S
C3687 H3695 0.929 . S
C3688 C3687 1.383 . S
C3688 C3689 1.377 . S
C3689 H3673 0.930 . S
C3689 C3688 1.377 . S
C3689 C3690 1.379 . S
C3690 H3674 0.931 . S
C3690 C3684 1.383 . S
C3690 C3689 1.379 . S
H3691 C3685 0.959 . S
H3692 C3685 0.961 . S
H3693 C3685 0.960 . S
H3694 C3686 0.930 . S
H3695 C3687 0.929 . S
H3696 C3704 0.929 . S
H3697 C3706 0.930 . S
H3698 C3708 0.930 . S
H3699 C3711 0.929 . S
H3700 C3714 0.930 . S
H3701 C3716 0.960 . S
H3702 C3716 0.960 . S
H3703 C3716 0.960 . S
C3704 H3696 0.929 . S
C3704 C3705 1.377 . S
C3704 C3706 1.384 . S
C3705 C3704 1.377 . S
C3705 C3711 1.390 . S
C3706 H3697 0.930 . S
C3706 C3704 1.384 . S
C3706 C3707 1.372 . S
C3707 C3706 1.372 . S
C3707 C3708 1.400 . S
C3707 C3712 1.490 . S
C3708 H3698 0.930 . S
C3708 C3707 1.400 . S
C3708 C3711 1.386 . S
H3709 C3725 0.930 . S
H3710 C3726 0.931 . S
C3711 H3699 0.929 . S
C3711 C3705 1.390 . S
C3711 C3708 1.386 . S
C3712 C3707 1.490 . S
C3712 C3714 1.395 . S
C3712 C3715 1.403 . S
H3713 C3719 0.930 . S
C3714 H3700 0.930 . S
C3714 C3712 1.395 . S
C3714 C3717 1.403 . S
C3715 C3712 1.403 . S
C3715 C3716 1.524 . S
C3715 C3719 1.400 . S
C3716 H3701 0.960 . S
C3716 H3702 0.960 . S
C3716 H3703 0.960 . S
C3716 C3715 1.524 . S
C3717 C3714 1.403 . S
C3717 C3718 1.392 . S
C3717 C3721 1.495 . S
C3718 C3717 1.392 . S
C3718 C3719 1.385 . S
C3718 C3720 1.478 . S
C3719 H3713 0.930 . S
C3719 C3715 1.400 . S
C3719 C3718 1.385 . S
C3720 C3718 1.478 . S
C3720 C3722 1.381 . S
C3720 C3726 1.383 . S
C3721 C3717 1.495 . S
C3721 H3727 0.959 . S
C3721 H3728 0.961 . S
C3721 H3729 0.960 . S
C3722 C3720 1.381 . S
C3722 C3723 1.394 . S
C3722 H3730 0.930 . S
C3723 C3722 1.394 . S
C3723 C3724 1.383 . S
C3723 H3731 0.929 . S
C3724 C3723 1.383 . S
C3724 C3725 1.377 . S
C3725 H3709 0.930 . S
C3725 C3724 1.377 . S
C3725 C3726 1.379 . S
C3726 H3710 0.931 . S
C3726 C3720 1.383 . S
C3726 C3725 1.379 . S
H3727 C3721 0.959 . S
H3728 C3721 0.961 . S
H3729 C3721 0.960 . S
H3730 C3722 0.930 . S
H3731 C3723 0.929 . S
H3732 C3740 0.929 . S
H3733 C3742 0.930 . S
H3734 C3744 0.930 . S
H3735 C3747 0.929 . S
H3736 C3750 0.930 . S
H3737 C3752 0.960 . S
H3738 C3752 0.960 . S
H3739 C3752 0.960 . S
C3740 H3732 0.929 . S
C3740 C3741 1.377 . S
C3740 C3742 1.384 . S
C3741 C3740 1.377 . S
C3741 C3747 1.390 . S
C3742 H3733 0.930 . S
C3742 C3740 1.384 . S
C3742 C3743 1.372 . S
C3743 C3742 1.372 . S
C3743 C3744 1.400 . S
C3743 C3748 1.490 . S
C3744 H3734 0.930 . S
C3744 C3743 1.400 . S
C3744 C3747 1.386 . S
H3745 C3761 0.930 . S
H3746 C3762 0.931 . S
C3747 H3735 0.929 . S
C3747 C3741 1.390 . S
C3747 C3744 1.386 . S
C3748 C3743 1.490 . S
C3748 C3750 1.395 . S
C3748 C3751 1.403 . S
H3749 C3755 0.930 . S
C3750 H3736 0.930 . S
C3750 C3748 1.395 . S
C3750 C3753 1.403 . S
C3751 C3748 1.403 . S
C3751 C3752 1.524 . S
C3751 C3755 1.400 . S
C3752 H3737 0.960 . S
C3752 H3738 0.960 . S
C3752 H3739 0.960 . S
C3752 C3751 1.524 . S
C3753 C3750 1.403 . S
C3753 C3754 1.392 . S
C3753 C3757 1.495 . S
C3754 C3753 1.392 . S
C3754 C3755 1.385 . S
C3754 C3756 1.478 . S
C3755 H3749 0.930 . S
C3755 C3751 1.400 . S
C3755 C3754 1.385 . S
C3756 C3754 1.478 . S
C3756 C3758 1.381 . S
C3756 C3762 1.383 . S
C3757 C3753 1.495 . S
C3757 H3763 0.959 . S
C3757 H3764 0.961 . S
C3757 H3765 0.960 . S
C3758 C3756 1.381 . S
C3758 C3759 1.394 . S
C3758 H3766 0.930 . S
C3759 C3758 1.394 . S
C3759 C3760 1.383 . S
C3759 H3767 0.929 . S
C3760 C3759 1.383 . S
C3760 C3761 1.377 . S
C3761 H3745 0.930 . S
C3761 C3760 1.377 . S
C3761 C3762 1.379 . S
C3762 H3746 0.931 . S
C3762 C3756 1.383 . S
C3762 C3761 1.379 . S
H3763 C3757 0.959 . S
H3764 C3757 0.961 . S
H3765 C3757 0.960 . S
H3766 C3758 0.930 . S
H3767 C3759 0.929 . S
H3768 C3776 0.929 . S
H3769 C3778 0.930 . S
H3770 C3780 0.930 . S
H3771 C3783 0.929 . S
H3772 C3786 0.930 . S
H3773 C3788 0.960 . S
H3774 C3788 0.960 . S
H3775 C3788 0.960 . S
C3776 H3768 0.929 . S
C3776 C3777 1.377 . S
C3776 C3778 1.384 . S
C3777 C3776 1.377 . S
C3777 C3783 1.390 . S
C3778 H3769 0.930 . S
C3778 C3776 1.384 . S
C3778 C3779 1.372 . S
C3779 C3778 1.372 . S
C3779 C3780 1.400 . S
C3779 C3784 1.490 . S
C3780 H3770 0.930 . S
C3780 C3779 1.400 . S
C3780 C3783 1.386 . S
H3781 C3797 0.930 . S
H3782 C3798 0.931 . S
C3783 H3771 0.929 . S
C3783 C3777 1.390 . S
C3783 C3780 1.386 . S
C3784 C3779 1.490 . S
C3784 C3786 1.395 . S
C3784 C3787 1.403 . S
H3785 C3791 0.930 . S
C3786 H3772 0.930 . S
C3786 C3784 1.395 . S
C3786 C3789 1.403 . S
C3787 C3784 1.403 . S
C3787 C3788 1.524 . S
C3787 C3791 1.400 . S
C3788 H3773 0.960 . S
C3788 H3774 0.960 . S
C3788 H3775 0.960 . S
C3788 C3787 1.524 . S
C3789 C3786 1.403 . S
C3789 C3790 1.392 . S
C3789 C3793 1.495 . S
C3790 C3789 1.392 . S
C3790 C3791 1.385 . S
C3790 C3792 1.478 . S
C3791 H3785 0.930 . S
C3791 C3787 1.400 . S
C3791 C3790 1.385 . S
C3792 C3790 1.478 . S
C3792 C3794 1.381 . S
C3792 C3798 1.383 . S
C3793 C3789 1.495 . S
C3793 H3799 0.959 . S
C3793 H3800 0.961 . S
C3793 H3801 0.960 . S
C3794 C3792 1.381 . S
C3794 C3795 1.394 . S
C3794 H3802 0.930 . S
C3795 C3794 1.394 . S
C3795 C3796 1.383 . S
C3795 H3803 0.929 . S
C3796 C3795 1.383 . S
C3796 C3797 1.377 . S
C3797 H3781 0.930 . S
C3797 C3796 1.377 . S
C3797 C3798 1.379 . S
C3798 H3782 0.931 . S
C3798 C3792 1.383 . S
C3798 C3797 1.379 . S
H3799 C3793 0.959 . S
H3800 C3793 0.961 . S
H3801 C3793 0.960 . S
H3802 C3794 0.930 . S
H3803 C3795 0.929 . S
H3804 C3812 0.929 . S
H3805 C3814 0.930 . S
H3806 C3816 0.930 . S
H3807 C3819 0.929 . S
H3808 C3822 0.930 . S
H3809 C3824 0.960 . S
H3810 C3824 0.960 . S
H3811 C3824 0.960 . S
C3812 H3804 0.929 . S
C3812 C3813 1.377 . S
C3812 C3814 1.384 . S
C3813 C3812 1.377 . S
C3813 C3819 1.390 . S
C3814 H3805 0.930 . S
C3814 C3812 1.384 . S
C3814 C3815 1.372 . S
C3815 C3814 1.372 . S
C3815 C3816 1.400 . S
C3815 C3820 1.490 . S
C3816 H3806 0.930 . S
C3816 C3815 1.400 . S
C3816 C3819 1.386 . S
H3817 C3833 0.930 . S
H3818 C3834 0.931 . S
C3819 H3807 0.929 . S
C3819 C3813 1.390 . S
C3819 C3816 1.386 . S
C3820 C3815 1.490 . S
C3820 C3822 1.395 . S
C3820 C3823 1.403 . S
H3821 C3827 0.930 . S
C3822 H3808 0.930 . S
C3822 C3820 1.395 . S
C3822 C3825 1.403 . S
C3823 C3820 1.403 . S
C3823 C3824 1.524 . S
C3823 C3827 1.400 . S
C3824 H3809 0.960 . S
C3824 H3810 0.960 . S
C3824 H3811 0.960 . S
C3824 C3823 1.524 . S
C3825 C3822 1.403 . S
C3825 C3826 1.392 . S
C3825 C3829 1.495 . S
C3826 C3825 1.392 . S
C3826 C3827 1.385 . S
C3826 C3828 1.478 . S
C3827 H3821 0.930 . S
C3827 C3823 1.400 . S
C3827 C3826 1.385 . S
C3828 C3826 1.478 . S
C3828 C3830 1.381 . S
C3828 C3834 1.383 . S
C3829 C3825 1.495 . S
C3829 H3835 0.959 . S
C3829 H3836 0.961 . S
C3829 H3837 0.960 . S
C3830 C3828 1.381 . S
C3830 C3831 1.394 . S
C3830 H3838 0.930 . S
C3831 C3830 1.394 . S
C3831 C3832 1.383 . S
C3831 H3839 0.929 . S
C3832 C3831 1.383 . S
C3832 C3833 1.377 . S
C3833 H3817 0.930 . S
C3833 C3832 1.377 . S
C3833 C3834 1.379 . S
C3834 H3818 0.931 . S
C3834 C3828 1.383 . S
C3834 C3833 1.379 . S
H3835 C3829 0.959 . S
H3836 C3829 0.961 . S
H3837 C3829 0.960 . S
H3838 C3830 0.930 . S
H3839 C3831 0.929 . S
H3840 C3848 0.929 . S
H3841 C3850 0.930 . S
H3842 C3852 0.930 . S
H3843 C3855 0.929 . S
H3844 C3858 0.930 . S
H3845 C3860 0.960 . S
H3846 C3860 0.960 . S
H3847 C3860 0.960 . S
C3848 H3840 0.929 . S
C3848 C3849 1.377 . S
C3848 C3850 1.384 . S
C3849 C3848 1.377 . S
C3849 C3855 1.390 . S
C3850 H3841 0.930 . S
C3850 C3848 1.384 . S
C3850 C3851 1.372 . S
C3851 C3850 1.372 . S
C3851 C3852 1.400 . S
C3851 C3856 1.490 . S
C3852 H3842 0.930 . S
C3852 C3851 1.400 . S
C3852 C3855 1.386 . S
H3853 C3869 0.930 . S
H3854 C3870 0.931 . S
C3855 H3843 0.929 . S
C3855 C3849 1.390 . S
C3855 C3852 1.386 . S
C3856 C3851 1.490 . S
C3856 C3858 1.395 . S
C3856 C3859 1.403 . S
H3857 C3863 0.930 . S
C3858 H3844 0.930 . S
C3858 C3856 1.395 . S
C3858 C3861 1.403 . S
C3859 C3856 1.403 . S
C3859 C3860 1.524 . S
C3859 C3863 1.400 . S
C3860 H3845 0.960 . S
C3860 H3846 0.960 . S
C3860 H3847 0.960 . S
C3860 C3859 1.524 . S
C3861 C3858 1.403 . S
C3861 C3862 1.392 . S
C3861 C3865 1.495 . S
C3862 C3861 1.392 . S
C3862 C3863 1.385 . S
C3862 C3864 1.478 . S
C3863 H3857 0.930 . S
C3863 C3859 1.400 . S
C3863 C3862 1.385 . S
C3864 C3862 1.478 . S
C3864 C3866 1.381 . S
C3864 C3870 1.383 . S
C3865 C3861 1.495 . S
C3865 H3871 0.959 . S
C3865 H3872 0.961 . S
C3865 H3873 0.960 . S
C3866 C3864 1.381 . S
C3866 C3867 1.394 . S
C3866 H3874 0.930 . S
C3867 C3866 1.394 . S
C3867 C3868 1.383 . S
C3867 H3875 0.929 . S
C3868 C3867 1.383 . S
C3868 C3869 1.377 . S
C3869 H3853 0.930 . S
C3869 C3868 1.377 . S
C3869 C3870 1.379 . S
C3870 H3854 0.931 . S
C3870 C3864 1.383 . S
C3870 C3869 1.379 . S
H3871 C3865 0.959 . S
H3872 C3865 0.961 . S
H3873 C3865 0.960 . S
H3874 C3866 0.930 . S
H3875 C3867 0.929 . S
H3876 C3884 0.929 . S
H3877 C3886 0.930 . S
H3878 C3888 0.930 . S
H3879 C3891 0.929 . S
H3880 C3894 0.930 . S
H3881 C3896 0.960 . S
H3882 C3896 0.960 . S
H3883 C3896 0.960 . S
C3884 H3876 0.929 . S
C3884 C3885 1.377 . S
C3884 C3886 1.384 . S
C3885 C3884 1.377 . S
C3885 C3891 1.390 . S
C3886 H3877 0.930 . S
C3886 C3884 1.384 . S
C3886 C3887 1.372 . S
C3887 C3886 1.372 . S
C3887 C3888 1.400 . S
C3887 C3892 1.490 . S
C3888 H3878 0.930 . S
C3888 C3887 1.400 . S
C3888 C3891 1.386 . S
H3889 C3905 0.930 . S
H3890 C3906 0.931 . S
C3891 H3879 0.929 . S
C3891 C3885 1.390 . S
C3891 C3888 1.386 . S
C3892 C3887 1.490 . S
C3892 C3894 1.395 . S
C3892 C3895 1.403 . S
H3893 C3899 0.930 . S
C3894 H3880 0.930 . S
C3894 C3892 1.395 . S
C3894 C3897 1.403 . S
C3895 C3892 1.403 . S
C3895 C3896 1.524 . S
C3895 C3899 1.400 . S
C3896 H3881 0.960 . S
C3896 H3882 0.960 . S
C3896 H3883 0.960 . S
C3896 C3895 1.524 . S
C3897 C3894 1.403 . S
C3897 C3898 1.392 . S
C3897 C3901 1.495 . S
C3898 C3897 1.392 . S
C3898 C3899 1.385 . S
C3898 C3900 1.478 . S
C3899 H3893 0.930 . S
C3899 C3895 1.400 . S
C3899 C3898 1.385 . S
C3900 C3898 1.478 . S
C3900 C3902 1.381 . S
C3900 C3906 1.383 . S
C3901 C3897 1.495 . S
C3901 H3907 0.959 . S
C3901 H3908 0.961 . S
C3901 H3909 0.960 . S
C3902 C3900 1.381 . S
C3902 C3903 1.394 . S
C3902 H3910 0.930 . S
C3903 C3902 1.394 . S
C3903 C3904 1.383 . S
C3903 H3911 0.929 . S
C3904 C3903 1.383 . S
C3904 C3905 1.377 . S
C3905 H3889 0.930 . S
C3905 C3904 1.377 . S
C3905 C3906 1.379 . S
C3906 H3890 0.931 . S
C3906 C3900 1.383 . S
C3906 C3905 1.379 . S
H3907 C3901 0.959 . S
H3908 C3901 0.961 . S
H3909 C3901 0.960 . S
H3910 C3902 0.930 . S
H3911 C3903 0.929 . S
H3912 C3920 0.929 . S
H3913 C3922 0.930 . S
H3914 C3924 0.930 . S
H3915 C3927 0.929 . S
H3916 C3930 0.930 . S
H3917 C3932 0.960 . S
H3918 C3932 0.960 . S
H3919 C3932 0.960 . S
C3920 H3912 0.929 . S
C3920 C3921 1.377 . S
C3920 C3922 1.384 . S
C3921 C3920 1.377 . S
C3921 C3927 1.390 . S
C3922 H3913 0.930 . S
C3922 C3920 1.384 . S
C3922 C3923 1.372 . S
C3923 C3922 1.372 . S
C3923 C3924 1.400 . S
C3923 C3928 1.490 . S
C3924 H3914 0.930 . S
C3924 C3923 1.400 . S
C3924 C3927 1.386 . S
H3925 C3941 0.930 . S
H3926 C3942 0.931 . S
C3927 H3915 0.929 . S
C3927 C3921 1.390 . S
C3927 C3924 1.386 . S
C3928 C3923 1.490 . S
C3928 C3930 1.395 . S
C3928 C3931 1.403 . S
H3929 C3935 0.930 . S
C3930 H3916 0.930 . S
C3930 C3928 1.395 . S
C3930 C3933 1.403 . S
C3931 C3928 1.403 . S
C3931 C3932 1.524 . S
C3931 C3935 1.400 . S
C3932 H3917 0.960 . S
C3932 H3918 0.960 . S
C3932 H3919 0.960 . S
C3932 C3931 1.524 . S
C3933 C3930 1.403 . S
C3933 C3934 1.392 . S
C3933 C3937 1.495 . S
C3934 C3933 1.392 . S
C3934 C3935 1.385 . S
C3934 C3936 1.478 . S
C3935 H3929 0.930 . S
C3935 C3931 1.400 . S
C3935 C3934 1.385 . S
C3936 C3934 1.478 . S
C3936 C3938 1.381 . S
C3936 C3942 1.383 . S
C3937 C3933 1.495 . S
C3937 H3943 0.959 . S
C3937 H3944 0.961 . S
C3937 H3945 0.960 . S
C3938 C3936 1.381 . S
C3938 C3939 1.394 . S
C3938 H3946 0.930 . S
C3939 C3938 1.394 . S
C3939 C3940 1.383 . S
C3939 H3947 0.929 . S
C3940 C3939 1.383 . S
C3940 C3941 1.377 . S
C3941 H3925 0.930 . S
C3941 C3940 1.377 . S
C3941 C3942 1.379 . S
C3942 H3926 0.931 . S
C3942 C3936 1.383 . S
C3942 C3941 1.379 . S
H3943 C3937 0.959 . S
H3944 C3937 0.961 . S
H3945 C3937 0.960 . S
H3946 C3938 0.930 . S
H3947 C3939 0.929 . S
H3948 C3956 0.929 . S
H3949 C3958 0.930 . S
H3950 C3960 0.930 . S
H3951 C3963 0.929 . S
H3952 C3966 0.930 . S
H3953 C3968 0.960 . S
H3954 C3968 0.960 . S
H3955 C3968 0.960 . S
C3956 H3948 0.929 . S
C3956 C3957 1.377 . S
C3956 C3958 1.384 . S
C3957 C3956 1.377 . S
C3957 C3963 1.390 . S
C3958 H3949 0.930 . S
C3958 C3956 1.384 . S
C3958 C3959 1.372 . S
C3959 C3958 1.372 . S
C3959 C3960 1.400 . S
C3959 C3964 1.490 . S
C3960 H3950 0.930 . S
C3960 C3959 1.400 . S
C3960 C3963 1.386 . S
H3961 C3977 0.930 . S
H3962 C3978 0.931 . S
C3963 H3951 0.929 . S
C3963 C3957 1.390 . S
C3963 C3960 1.386 . S
C3964 C3959 1.490 . S
C3964 C3966 1.395 . S
C3964 C3967 1.403 . S
H3965 C3971 0.930 . S
C3966 H3952 0.930 . S
C3966 C3964 1.395 . S
C3966 C3969 1.403 . S
C3967 C3964 1.403 . S
C3967 C3968 1.524 . S
C3967 C3971 1.400 . S
C3968 H3953 0.960 . S
C3968 H3954 0.960 . S
C3968 H3955 0.960 . S
C3968 C3967 1.524 . S
C3969 C3966 1.403 . S
C3969 C3970 1.392 . S
C3969 C3973 1.495 . S
C3970 C3969 1.392 . S
C3970 C3971 1.385 . S
C3970 C3972 1.478 . S
C3971 H3965 0.930 . S
C3971 C3967 1.400 . S
C3971 C3970 1.385 . S
C3972 C3970 1.478 . S
C3972 C3974 1.381 . S
C3972 C3978 1.383 . S
C3973 C3969 1.495 . S
C3973 H3979 0.959 . S
C3973 H3980 0.961 . S
C3973 H3981 0.960 . S
C3974 C3972 1.381 . S
C3974 C3975 1.394 . S
C3974 H3982 0.930 . S
C3975 C3974 1.394 . S
C3975 C3976 1.383 . S
C3975 H3983 0.929 . S
C3976 C3975 1.383 . S
C3976 C3977 1.377 . S
C3977 H3961 0.930 . S
C3977 C3976 1.377 . S
C3977 C3978 1.379 . S
C3978 H3962 0.931 . S
C3978 C3972 1.383 . S
C3978 C3977 1.379 . S
H3979 C3973 0.959 . S
H3980 C3973 0.961 . S
H3981 C3973 0.960 . S
H3982 C3974 0.930 . S
H3983 C3975 0.929 . S
H3984 C3992 0.929 . S
H3985 C3994 0.930 . S
H3986 C3996 0.930 . S
H3987 C3999 0.929 . S
H3988 C4002 0.930 . S
H3989 C4004 0.960 . S
H3990 C4004 0.960 . S
H3991 C4004 0.960 . S
C3992 H3984 0.929 . S
C3992 C3993 1.377 . S
C3992 C3994 1.384 . S
C3993 C3992 1.377 . S
C3993 C3999 1.390 . S
C3994 H3985 0.930 . S
C3994 C3992 1.384 . S
C3994 C3995 1.372 . S
C3995 C3994 1.372 . S
C3995 C3996 1.400 . S
C3995 C4000 1.490 . S
C3996 H3986 0.930 . S
C3996 C3995 1.400 . S
C3996 C3999 1.386 . S
H3997 C4013 0.930 . S
H3998 C4014 0.931 . S
C3999 H3987 0.929 . S
C3999 C3993 1.390 . S
C3999 C3996 1.386 . S
C4000 C3995 1.490 . S
C4000 C4002 1.395 . S
C4000 C4003 1.403 . S
H4001 C4007 0.930 . S
C4002 H3988 0.930 . S
C4002 C4000 1.395 . S
C4002 C4005 1.403 . S
C4003 C4000 1.403 . S
C4003 C4004 1.524 . S
C4003 C4007 1.400 . S
C4004 H3989 0.960 . S
C4004 H3990 0.960 . S
C4004 H3991 0.960 . S
C4004 C4003 1.524 . S
C4005 C4002 1.403 . S
C4005 C4006 1.392 . S
C4005 C4009 1.495 . S
C4006 C4005 1.392 . S
C4006 C4007 1.385 . S
C4006 C4008 1.478 . S
C4007 H4001 0.930 . S
C4007 C4003 1.400 . S
C4007 C4006 1.385 . S
C4008 C4006 1.478 . S
C4008 C4010 1.381 . S
C4008 C4014 1.383 . S
C4009 C4005 1.495 . S
C4009 H4015 0.959 . S
C4009 H4016 0.961 . S
C4009 H4017 0.960 . S
C4010 C4008 1.381 . S
C4010 C4011 1.394 . S
C4010 H4018 0.930 . S
C4011 C4010 1.394 . S
C4011 C4012 1.383 . S
C4011 H4019 0.929 . S
C4012 C4011 1.383 . S
C4012 C4013 1.377 . S
C4013 H3997 0.930 . S
C4013 C4012 1.377 . S
C4013 C4014 1.379 . S
C4014 H3998 0.931 . S
C4014 C4008 1.383 . S
C4014 C4013 1.379 . S
H4015 C4009 0.959 . S
H4016 C4009 0.961 . S
H4017 C4009 0.960 . S
H4018 C4010 0.930 . S
H4019 C4011 0.929 . S
H4020 C4028 0.929 . S
H4021 C4030 0.930 . S
H4022 C4032 0.930 . S
H4023 C4035 0.929 . S
H4024 C4038 0.930 . S
H4025 C4040 0.960 . S
H4026 C4040 0.960 . S
H4027 C4040 0.960 . S
C4028 H4020 0.929 . S
C4028 C4029 1.377 . S
C4028 C4030 1.384 . S
C4029 C4028 1.377 . S
C4029 C4035 1.390 . S
C4030 H4021 0.930 . S
C4030 C4028 1.384 . S
C4030 C4031 1.372 . S
C4031 C4030 1.372 . S
C4031 C4032 1.400 . S
C4031 C4036 1.490 . S
C4032 H4022 0.930 . S
C4032 C4031 1.400 . S
C4032 C4035 1.386 . S
H4033 C4049 0.930 . S
H4034 C4050 0.931 . S
C4035 H4023 0.929 . S
C4035 C4029 1.390 . S
C4035 C4032 1.386 . S
C4036 C4031 1.490 . S
C4036 C4038 1.395 . S
C4036 C4039 1.403 . S
H4037 C4043 0.930 . S
C4038 H4024 0.930 . S
C4038 C4036 1.395 . S
C4038 C4041 1.403 . S
C4039 C4036 1.403 . S
C4039 C4040 1.524 . S
C4039 C4043 1.400 . S
C4040 H4025 0.960 . S
C4040 H4026 0.960 . S
C4040 H4027 0.960 . S
C4040 C4039 1.524 . S
C4041 C4038 1.403 . S
C4041 C4042 1.392 . S
C4041 C4045 1.495 . S
C4042 C4041 1.392 . S
C4042 C4043 1.385 . S
C4042 C4044 1.478 . S
C4043 H4037 0.930 . S
C4043 C4039 1.400 . S
C4043 C4042 1.385 . S
C4044 C4042 1.478 . S
C4044 C4046 1.381 . S
C4044 C4050 1.383 . S
C4045 C4041 1.495 . S
C4045 H4051 0.959 . S
C4045 H4052 0.961 . S
C4045 H4053 0.960 . S
C4046 C4044 1.381 . S
C4046 C4047 1.394 . S
C4046 H4054 0.930 . S
C4047 C4046 1.394 . S
C4047 C4048 1.383 . S
C4047 H4055 0.929 . S
C4048 C4047 1.383 . S
C4048 C4049 1.377 . S
C4049 H4033 0.930 . S
C4049 C4048 1.377 . S
C4049 C4050 1.379 . S
C4050 H4034 0.931 . S
C4050 C4044 1.383 . S
C4050 C4049 1.379 . S
H4051 C4045 0.959 . S
H4052 C4045 0.961 . S
H4053 C4045 0.960 . S
H4054 C4046 0.930 . S
H4055 C4047 0.929 . S
H4056 C4064 0.929 . S
H4057 C4066 0.930 . S
H4058 C4068 0.930 . S
H4059 C4071 0.929 . S
H4060 C4074 0.930 . S
H4061 C4076 0.960 . S
H4062 C4076 0.960 . S
H4063 C4076 0.960 . S
C4064 H4056 0.929 . S
C4064 C4065 1.377 . S
C4064 C4066 1.384 . S
C4065 C4064 1.377 . S
C4065 C4071 1.390 . S
C4066 H4057 0.930 . S
C4066 C4064 1.384 . S
C4066 C4067 1.372 . S
C4067 C4066 1.372 . S
C4067 C4068 1.400 . S
C4067 C4072 1.490 . S
C4068 H4058 0.930 . S
C4068 C4067 1.400 . S
C4068 C4071 1.386 . S
H4069 C4085 0.930 . S
H4070 C4086 0.931 . S
C4071 H4059 0.929 . S
C4071 C4065 1.390 . S
C4071 C4068 1.386 . S
C4072 C4067 1.490 . S
C4072 C4074 1.395 . S
C4072 C4075 1.403 . S
H4073 C4079 0.930 . S
C4074 H4060 0.930 . S
C4074 C4072 1.395 . S
C4074 C4077 1.403 . S
C4075 C4072 1.403 . S
C4075 C4076 1.524 . S
C4075 C4079 1.400 . S
C4076 H4061 0.960 . S
C4076 H4062 0.960 . S
C4076 H4063 0.960 . S
C4076 C4075 1.524 . S
C4077 C4074 1.403 . S
C4077 C4078 1.392 . S
C4077 C4081 1.495 . S
C4078 C4077 1.392 . S
C4078 C4079 1.385 . S
C4078 C4080 1.478 . S
C4079 H4073 0.930 . S
C4079 C4075 1.400 . S
C4079 C4078 1.385 . S
C4080 C4078 1.478 . S
C4080 C4082 1.381 . S
C4080 C4086 1.383 . S
C4081 C4077 1.495 . S
C4081 H4087 0.959 . S
C4081 H4088 0.961 . S
C4081 H4089 0.960 . S
C4082 C4080 1.381 . S
C4082 C4083 1.394 . S
C4082 H4090 0.930 . S
C4083 C4082 1.394 . S
C4083 C4084 1.383 . S
C4083 H4091 0.929 . S
C4084 C4083 1.383 . S
C4084 C4085 1.377 . S
C4085 H4069 0.930 . S
C4085 C4084 1.377 . S
C4085 C4086 1.379 . S
C4086 H4070 0.931 . S
C4086 C4080 1.383 . S
C4086 C4085 1.379 . S
H4087 C4081 0.959 . S
H4088 C4081 0.961 . S
H4089 C4081 0.960 . S
H4090 C4082 0.930 . S
H4091 C4083 0.929 . S
H4092 C4100 0.929 . S
H4093 C4102 0.930 . S
H4094 C4104 0.930 . S
H4095 C4107 0.929 . S
H4096 C4110 0.930 . S
H4097 C4112 0.960 . S
H4098 C4112 0.960 . S
H4099 C4112 0.960 . S
C4100 H4092 0.929 . S
C4100 C4101 1.377 . S
C4100 C4102 1.384 . S
C4101 C4100 1.377 . S
C4101 C4107 1.390 . S
C4102 H4093 0.930 . S
C4102 C4100 1.384 . S
C4102 C4103 1.372 . S
C4103 C4102 1.372 . S
C4103 C4104 1.400 . S
C4103 C4108 1.490 . S
C4104 H4094 0.930 . S
C4104 C4103 1.400 . S
C4104 C4107 1.386 . S
H4105 C4121 0.930 . S
H4106 C4122 0.931 . S
C4107 H4095 0.929 . S
C4107 C4101 1.390 . S
C4107 C4104 1.386 . S
C4108 C4103 1.490 . S
C4108 C4110 1.395 . S
C4108 C4111 1.403 . S
H4109 C4115 0.930 . S
C4110 H4096 0.930 . S
C4110 C4108 1.395 . S
C4110 C4113 1.403 . S
C4111 C4108 1.403 . S
C4111 C4112 1.524 . S
C4111 C4115 1.400 . S
C4112 H4097 0.960 . S
C4112 H4098 0.960 . S
C4112 H4099 0.960 . S
C4112 C4111 1.524 . S
C4113 C4110 1.403 . S
C4113 C4114 1.392 . S
C4113 C4117 1.495 . S
C4114 C4113 1.392 . S
C4114 C4115 1.385 . S
C4114 C4116 1.478 . S
C4115 H4109 0.930 . S
C4115 C4111 1.400 . S
C4115 C4114 1.385 . S
C4116 C4114 1.478 . S
C4116 C4118 1.381 . S
C4116 C4122 1.383 . S
C4117 C4113 1.495 . S
C4117 H4123 0.959 . S
C4117 H4124 0.961 . S
C4117 H4125 0.960 . S
C4118 C4116 1.381 . S
C4118 C4119 1.394 . S
C4118 H4126 0.930 . S
C4119 C4118 1.394 . S
C4119 C4120 1.383 . S
C4119 H4127 0.929 . S
C4120 C4119 1.383 . S
C4120 C4121 1.377 . S
C4121 H4105 0.930 . S
C4121 C4120 1.377 . S
C4121 C4122 1.379 . S
C4122 H4106 0.931 . S
C4122 C4116 1.383 . S
C4122 C4121 1.379 . S
H4123 C4117 0.959 . S
H4124 C4117 0.961 . S
H4125 C4117 0.960 . S
H4126 C4118 0.930 . S
H4127 C4119 0.929 . S
C681 C403 0.864 . S
C700 C11 0.831 . S
C717 C25 0.855 . S
C736 C417 0.835 . S
C753 C431 0.851 . S
C772 C39 0.885 . S
C789 C53 0.850 . S
C808 C445 0.872 . S
C825 C347 0.851 . S
C844 C67 0.881 . S
C861 C81 0.864 . S
C880 C361 0.861 . S
C897 C375 0.864 . S
C916 C95 0.826 . S
C933 C109 0.865 . S
C952 C389 0.842 . S
C969 C543 0.858 . S
C988 C123 0.887 . S
C1005 C557 0.865 . S
C1024 C137 0.832 . S
C1041 C515 0.850 . S
C1060 C151 0.876 . S
C1077 C165 0.857 . S
C1096 C529 0.827 . S
C1113 C487 0.858 . S
C1132 C179 0.885 . S
C1149 C501 0.865 . S
C1168 C193 0.847 . S
C1185 C207 0.850 . S
C1204 C459 0.875 . S
C1221 C473 0.851 . S
C1240 C221 0.886 . S
C1257 C235 0.853 . S
C1276 C641 0.890 . S
C1293 C613 0.856 . S
C1312 C249 0.831 . S
C1329 C627 0.853 . S
C1348 C263 0.845 . S
C1365 C585 0.850 . S
C1384 C277 0.878 . S
C1401 C599 0.859 . S
C1420 C291 0.884 . S
C1437 C305 0.854 . S
C1456 C571 0.838 . S
C1473 C319 0.851 . S
C1492 C669 0.884 . S
C1509 C655 0.853 . S
C1528 C333 0.843 . S
C1545 C111 1.206 . S
C1564 C13 1.157 . S
C1581 C69 1.213 . S
C1600 C27 1.152 . S
C1617 C83 1.208 . S
C1636 C41 1.261 . S
C1653 C97 1.218 . S
C1672 C55 1.233 . S
C1689 C293 1.206 . S
C1708 C125 1.157 . S
C1725 C251 1.209 . S
C1744 C139 1.153 . S
C1761 C265 1.198 . S
C1780 C153 1.233 . S
C1797 C279 1.220 . S
C1816 C167 1.199 . S
C1833 C335 1.199 . S
C1852 C181 1.242 . S
C1869 C307 1.199 . S
C1888 C195 1.186 . S
C1905 C209 1.220 . S
C1924 C321 1.181 . S
C1941 C237 1.217 . S
C1960 C223 1.234 . S
C1977 C447 1.217 . S
C1996 C349 1.151 . S
C2013 C405 1.211 . S
C2032 C363 1.162 . S
C2049 C377 1.200 . S
C2068 C419 1.260 . S
C2085 C391 1.213 . S
C2104 C433 1.228 . S
C2121 C461 1.220 . S
C2140 C629 1.160 . S
C2157 C475 1.219 . S
C2176 C587 1.194 . S
C2193 C601 1.219 . S
C2212 C489 1.188 . S
C2229 C615 1.199 . S
C2248 C503 1.259 . S
C2265 C671 1.211 . S
C2284 C517 1.236 . S
C2301 C643 1.217 . S
C2320 C531 1.207 . S
C2337 C657 1.207 . S
C2356 C545 1.176 . S
C2373 C559 1.200 . S
C2392 C573 1.261 . S
C2409 C7 0.812 . S
C2428 C120 0.730 . S
C2445 C134 0.807 . S
C2464 C21 0.775 . S
C2481 C148 0.808 . S
C2500 C35 0.814 . S
C2517 C162 0.789 . S
C2536 C49 0.848 . S
C2553 C63 0.810 . S
C2572 C176 0.862 . S
C2589 C190 0.786 . S
C2608 C77 0.799 . S
C2625 C91 0.806 . S
C2644 C204 0.863 . S
C2661 C218 0.807 . S
C2680 C105 0.821 . S
C2697 C232 0.794 . S
C2716 C119 0.846 . S
C2733 C330 0.809 . S
C2752 C133 0.780 . S
C2769 C147 0.804 . S
C2788 C302 0.849 . S
C2805 C161 0.811 . S
C2824 C316 0.733 . S
C2841 C175 0.819 . S
C2860 C246 0.787 . S
C2877 C189 0.813 . S
C2896 C260 0.851 . S
C2913 C203 0.812 . S
C2932 C274 0.854 . S
C2949 C217 0.816 . S
C2968 C288 0.825 . S
C2985 C231 0.804 . S
C3004 C8 0.795 . S
C3021 C245 0.805 . S
C3040 C64 0.860 . S
C3057 C259 0.804 . S
C3076 C78 0.844 . S
C3093 C273 0.811 . S
C3112 C92 0.735 . S
C3129 C287 0.817 . S
C3148 C106 0.808 . S
C3165 C301 0.816 . S
C3184 C36 0.724 . S
C3201 C50 0.795 . S
C3220 C315 0.845 . S
C3237 C22 0.789 . S
C3256 C329 0.789 . S
C3273 C456 0.789 . S
C3292 C343 0.789 . S
C3309 C470 0.811 . S
C3328 C357 0.796 . S
C3345 C484 0.792 . S
C3364 C371 0.847 . S
C3381 C498 0.800 . S
C3400 C385 0.838 . S
C3417 C512 0.811 . S
C3436 C399 0.799 . S
C3453 C413 0.805 . S
C3472 C526 0.860 . S
C3489 C540 0.787 . S
C3508 C427 0.848 . S
C3525 C441 0.806 . S
C3544 C554 0.864 . S
C3561 C568 0.784 . S
C3580 C455 0.844 . S
C3597 C469 0.809 . S
C3616 C666 0.863 . S
C3633 C483 0.809 . S
C3652 C638 0.864 . S
C3669 C652 0.794 . S
C3688 C497 0.846 . S
C3705 C582 0.808 . S
C3724 C511 0.814 . S
C3741 C525 0.804 . S
C3760 C596 0.811 . S
C3777 C539 0.814 . S
C3796 C610 0.842 . S
C3813 C624 0.791 . S
C3832 C553 0.786 . S
C3849 C344 0.787 . S
C3868 C567 0.797 . S
C3885 C400 0.805 . S
C3904 C581 0.773 . S
C3921 C414 0.805 . S
C3940 C595 0.828 . S
C3957 C609 0.819 . S
C3976 C428 0.766 . S
C3993 C442 0.795 . S
C4012 C623 0.845 . S
C4029 C372 0.794 . S
C4048 C637 0.846 . S
C4065 C651 0.803 . S
C4084 C386 0.829 . S
C4101 C358 0.811 . S
C4120 C665 0.791 . S
