# Generated by pormake.
# Topology wne, (6)-cn, num edge types: 1
# Building blocks:
#     Node 0, Type 0, BuildingBlock: HISSIN_clean_sbu_0, # of connection points: 6
#     Node 1, Type 0, BuildingBlock: HISSIN_clean_sbu_0, # of connection points: 6
#     Node 2, Type 0, BuildingBlock: HISSIN_clean_sbu_0, # of connection points: 6
#     Node 3, Type 0, BuildingBlock: HISSIN_clean_sbu_0, # of connection points: 6
#     Node 4, Type 0, BuildingBlock: HISSIN_clean_sbu_0, # of connection points: 6
#     Node 5, Type 0, BuildingBlock: HISSIN_clean_sbu_0, # of connection points: 6
#     Node 6, Type 0, BuildingBlock: HISSIN_clean_sbu_0, # of connection points: 6
#     Node 7, Type 0, BuildingBlock: HISSIN_clean_sbu_0, # of connection points: 6
#     Node 8, Type 0, BuildingBlock: HISSIN_clean_sbu_0, # of connection points: 6
#     Node 9, Type 0, BuildingBlock: HISSIN_clean_sbu_0, # of connection points: 6
#     Node 10, Type 0, BuildingBlock: HISSIN_clean_sbu_0, # of connection points: 6
#     Node 11, Type 0, BuildingBlock: HISSIN_clean_sbu_0, # of connection points: 6
#     Node 12, Type 0, BuildingBlock: HISSIN_clean_sbu_0, # of connection points: 6
#     Node 13, Type 0, BuildingBlock: HISSIN_clean_sbu_0, # of connection points: 6
#     Node 14, Type 0, BuildingBlock: HISSIN_clean_sbu_0, # of connection points: 6
#     Node 15, Type 0, BuildingBlock: HISSIN_clean_sbu_0, # of connection points: 6
#     Node 16, Type 0, BuildingBlock: HISSIN_clean_sbu_0, # of connection points: 6
#     Node 17, Type 0, BuildingBlock: HISSIN_clean_sbu_0, # of connection points: 6
#     Node 18, Type 0, BuildingBlock: HISSIN_clean_sbu_0, # of connection points: 6
#     Node 19, Type 0, BuildingBlock: HISSIN_clean_sbu_0, # of connection points: 6
#     Node 20, Type 0, BuildingBlock: HISSIN_clean_sbu_0, # of connection points: 6
#     Node 21, Type 0, BuildingBlock: HISSIN_clean_sbu_0, # of connection points: 6
#     Node 22, Type 0, BuildingBlock: HISSIN_clean_sbu_0, # of connection points: 6
#     Node 23, Type 0, BuildingBlock: HISSIN_clean_sbu_0, # of connection points: 6
#     Node 24, Type 0, BuildingBlock: HISSIN_clean_sbu_0, # of connection points: 6
#     Node 25, Type 0, BuildingBlock: HISSIN_clean_sbu_0, # of connection points: 6
#     Node 26, Type 0, BuildingBlock: HISSIN_clean_sbu_0, # of connection points: 6
#     Node 27, Type 0, BuildingBlock: HISSIN_clean_sbu_0, # of connection points: 6
#     Node 28, Type 0, BuildingBlock: HISSIN_clean_sbu_0, # of connection points: 6
#     Node 29, Type 0, BuildingBlock: HISSIN_clean_sbu_0, # of connection points: 6
#     Node 30, Type 0, BuildingBlock: HISSIN_clean_sbu_0, # of connection points: 6
#     Node 31, Type 0, BuildingBlock: HISSIN_clean_sbu_0, # of connection points: 6
#     Node 32, Type 0, BuildingBlock: HISSIN_clean_sbu_0, # of connection points: 6
#     Node 33, Type 0, BuildingBlock: HISSIN_clean_sbu_0, # of connection points: 6
#     Node 34, Type 0, BuildingBlock: HISSIN_clean_sbu_0, # of connection points: 6
#     Node 35, Type 0, BuildingBlock: HISSIN_clean_sbu_0, # of connection points: 6
#     Edge 36, Type (0, 0), BuildingBlock: ZUJKAS_clean_linker_0, # of connection points: 2
#     Edge 37, Type (0, 0), BuildingBlock: ZUJKAS_clean_linker_0, # of connection points: 2
#     Edge 38, Type (0, 0), BuildingBlock: ZUJKAS_clean_linker_0, # of connection points: 2
#     Edge 39, Type (0, 0), BuildingBlock: ZUJKAS_clean_linker_0, # of connection points: 2
#     Edge 40, Type (0, 0), BuildingBlock: ZUJKAS_clean_linker_0, # of connection points: 2
#     Edge 41, Type (0, 0), BuildingBlock: ZUJKAS_clean_linker_0, # of connection points: 2
#     Edge 42, Type (0, 0), BuildingBlock: ZUJKAS_clean_linker_0, # of connection points: 2
#     Edge 43, Type (0, 0), BuildingBlock: ZUJKAS_clean_linker_0, # of connection points: 2
#     Edge 44, Type (0, 0), BuildingBlock: ZUJKAS_clean_linker_0, # of connection points: 2
#     Edge 45, Type (0, 0), BuildingBlock: ZUJKAS_clean_linker_0, # of connection points: 2
#     Edge 46, Type (0, 0), BuildingBlock: ZUJKAS_clean_linker_0, # of connection points: 2
#     Edge 47, Type (0, 0), BuildingBlock: ZUJKAS_clean_linker_0, # of connection points: 2
#     Edge 48, Type (0, 0), BuildingBlock: ZUJKAS_clean_linker_0, # of connection points: 2
#     Edge 49, Type (0, 0), BuildingBlock: ZUJKAS_clean_linker_0, # of connection points: 2
#     Edge 50, Type (0, 0), BuildingBlock: ZUJKAS_clean_linker_0, # of connection points: 2
#     Edge 51, Type (0, 0), BuildingBlock: ZUJKAS_clean_linker_0, # of connection points: 2
#     Edge 52, Type (0, 0), BuildingBlock: ZUJKAS_clean_linker_0, # of connection points: 2
#     Edge 53, Type (0, 0), BuildingBlock: ZUJKAS_clean_linker_0, # of connection points: 2
#     Edge 54, Type (0, 0), BuildingBlock: ZUJKAS_clean_linker_0, # of connection points: 2
#     Edge 55, Type (0, 0), BuildingBlock: ZUJKAS_clean_linker_0, # of connection points: 2
#     Edge 56, Type (0, 0), BuildingBlock: ZUJKAS_clean_linker_0, # of connection points: 2
#     Edge 57, Type (0, 0), BuildingBlock: ZUJKAS_clean_linker_0, # of connection points: 2
#     Edge 58, Type (0, 0), BuildingBlock: ZUJKAS_clean_linker_0, # of connection points: 2
#     Edge 59, Type (0, 0), BuildingBlock: ZUJKAS_clean_linker_0, # of connection points: 2
#     Edge 60, Type (0, 0), BuildingBlock: ZUJKAS_clean_linker_0, # of connection points: 2
#     Edge 61, Type (0, 0), BuildingBlock: ZUJKAS_clean_linker_0, # of connection points: 2
#     Edge 62, Type (0, 0), BuildingBlock: ZUJKAS_clean_linker_0, # of connection points: 2
#     Edge 63, Type (0, 0), BuildingBlock: ZUJKAS_clean_linker_0, # of connection points: 2
#     Edge 64, Type (0, 0), BuildingBlock: ZUJKAS_clean_linker_0, # of connection points: 2
#     Edge 65, Type (0, 0), BuildingBlock: ZUJKAS_clean_linker_0, # of connection points: 2
#     Edge 66, Type (0, 0), BuildingBlock: ZUJKAS_clean_linker_0, # of connection points: 2
#     Edge 67, Type (0, 0), BuildingBlock: ZUJKAS_clean_linker_0, # of connection points: 2
#     Edge 68, Type (0, 0), BuildingBlock: ZUJKAS_clean_linker_0, # of connection points: 2
#     Edge 69, Type (0, 0), BuildingBlock: ZUJKAS_clean_linker_0, # of connection points: 2
#     Edge 70, Type (0, 0), BuildingBlock: ZUJKAS_clean_linker_0, # of connection points: 2
#     Edge 71, Type (0, 0), BuildingBlock: ZUJKAS_clean_linker_0, # of connection points: 2
#     Edge 72, Type (0, 0), BuildingBlock: ZUJKAS_clean_linker_0, # of connection points: 2
#     Edge 73, Type (0, 0), BuildingBlock: ZUJKAS_clean_linker_0, # of connection points: 2
#     Edge 74, Type (0, 0), BuildingBlock: ZUJKAS_clean_linker_0, # of connection points: 2
#     Edge 75, Type (0, 0), BuildingBlock: ZUJKAS_clean_linker_0, # of connection points: 2
#     Edge 76, Type (0, 0), BuildingBlock: ZUJKAS_clean_linker_0, # of connection points: 2
#     Edge 77, Type (0, 0), BuildingBlock: ZUJKAS_clean_linker_0, # of connection points: 2
#     Edge 78, Type (0, 0), BuildingBlock: ZUJKAS_clean_linker_0, # of connection points: 2
#     Edge 79, Type (0, 0), BuildingBlock: ZUJKAS_clean_linker_0, # of connection points: 2
#     Edge 80, Type (0, 0), BuildingBlock: ZUJKAS_clean_linker_0, # of connection points: 2
#     Edge 81, Type (0, 0), BuildingBlock: ZUJKAS_clean_linker_0, # of connection points: 2
#     Edge 82, Type (0, 0), BuildingBlock: ZUJKAS_clean_linker_0, # of connection points: 2
#     Edge 83, Type (0, 0), BuildingBlock: ZUJKAS_clean_linker_0, # of connection points: 2
#     Edge 84, Type (0, 0), BuildingBlock: ZUJKAS_clean_linker_0, # of connection points: 2
#     Edge 85, Type (0, 0), BuildingBlock: ZUJKAS_clean_linker_0, # of connection points: 2
#     Edge 86, Type (0, 0), BuildingBlock: ZUJKAS_clean_linker_0, # of connection points: 2
#     Edge 87, Type (0, 0), BuildingBlock: ZUJKAS_clean_linker_0, # of connection points: 2
#     Edge 88, Type (0, 0), BuildingBlock: ZUJKAS_clean_linker_0, # of connection points: 2
#     Edge 89, Type (0, 0), BuildingBlock: ZUJKAS_clean_linker_0, # of connection points: 2
#     Edge 90, Type (0, 0), BuildingBlock: ZUJKAS_clean_linker_0, # of connection points: 2
#     Edge 91, Type (0, 0), BuildingBlock: ZUJKAS_clean_linker_0, # of connection points: 2
#     Edge 92, Type (0, 0), BuildingBlock: ZUJKAS_clean_linker_0, # of connection points: 2
#     Edge 93, Type (0, 0), BuildingBlock: ZUJKAS_clean_linker_0, # of connection points: 2
#     Edge 94, Type (0, 0), BuildingBlock: ZUJKAS_clean_linker_0, # of connection points: 2
#     Edge 95, Type (0, 0), BuildingBlock: ZUJKAS_clean_linker_0, # of connection points: 2
#     Edge 96, Type (0, 0), BuildingBlock: ZUJKAS_clean_linker_0, # of connection points: 2
#     Edge 97, Type (0, 0), BuildingBlock: ZUJKAS_clean_linker_0, # of connection points: 2
#     Edge 98, Type (0, 0), BuildingBlock: ZUJKAS_clean_linker_0, # of connection points: 2
#     Edge 99, Type (0, 0), BuildingBlock: ZUJKAS_clean_linker_0, # of connection points: 2
#     Edge 100, Type (0, 0), BuildingBlock: ZUJKAS_clean_linker_0, # of connection points: 2
#     Edge 101, Type (0, 0), BuildingBlock: ZUJKAS_clean_linker_0, # of connection points: 2
#     Edge 102, Type (0, 0), BuildingBlock: ZUJKAS_clean_linker_0, # of connection points: 2
#     Edge 103, Type (0, 0), BuildingBlock: ZUJKAS_clean_linker_0, # of connection points: 2
#     Edge 104, Type (0, 0), BuildingBlock: ZUJKAS_clean_linker_0, # of connection points: 2
#     Edge 105, Type (0, 0), BuildingBlock: ZUJKAS_clean_linker_0, # of connection points: 2
#     Edge 106, Type (0, 0), BuildingBlock: ZUJKAS_clean_linker_0, # of connection points: 2
#     Edge 107, Type (0, 0), BuildingBlock: ZUJKAS_clean_linker_0, # of connection points: 2
#     Edge 108, Type (0, 0), BuildingBlock: ZUJKAS_clean_linker_0, # of connection points: 2
#     Edge 109, Type (0, 0), BuildingBlock: ZUJKAS_clean_linker_0, # of connection points: 2
#     Edge 110, Type (0, 0), BuildingBlock: ZUJKAS_clean_linker_0, # of connection points: 2
#     Edge 111, Type (0, 0), BuildingBlock: ZUJKAS_clean_linker_0, # of connection points: 2
#     Edge 112, Type (0, 0), BuildingBlock: ZUJKAS_clean_linker_0, # of connection points: 2
#     Edge 113, Type (0, 0), BuildingBlock: ZUJKAS_clean_linker_0, # of connection points: 2
#     Edge 114, Type (0, 0), BuildingBlock: ZUJKAS_clean_linker_0, # of connection points: 2
#     Edge 115, Type (0, 0), BuildingBlock: ZUJKAS_clean_linker_0, # of connection points: 2
#     Edge 116, Type (0, 0), BuildingBlock: ZUJKAS_clean_linker_0, # of connection points: 2
#     Edge 117, Type (0, 0), BuildingBlock: ZUJKAS_clean_linker_0, # of connection points: 2
#     Edge 118, Type (0, 0), BuildingBlock: ZUJKAS_clean_linker_0, # of connection points: 2
#     Edge 119, Type (0, 0), BuildingBlock: ZUJKAS_clean_linker_0, # of connection points: 2
#     Edge 120, Type (0, 0), BuildingBlock: ZUJKAS_clean_linker_0, # of connection points: 2
#     Edge 121, Type (0, 0), BuildingBlock: ZUJKAS_clean_linker_0, # of connection points: 2
#     Edge 122, Type (0, 0), BuildingBlock: ZUJKAS_clean_linker_0, # of connection points: 2
#     Edge 123, Type (0, 0), BuildingBlock: ZUJKAS_clean_linker_0, # of connection points: 2
#     Edge 124, Type (0, 0), BuildingBlock: ZUJKAS_clean_linker_0, # of connection points: 2
#     Edge 125, Type (0, 0), BuildingBlock: ZUJKAS_clean_linker_0, # of connection points: 2
#     Edge 126, Type (0, 0), BuildingBlock: ZUJKAS_clean_linker_0, # of connection points: 2
#     Edge 127, Type (0, 0), BuildingBlock: ZUJKAS_clean_linker_0, # of connection points: 2
#     Edge 128, Type (0, 0), BuildingBlock: ZUJKAS_clean_linker_0, # of connection points: 2
#     Edge 129, Type (0, 0), BuildingBlock: ZUJKAS_clean_linker_0, # of connection points: 2
#     Edge 130, Type (0, 0), BuildingBlock: ZUJKAS_clean_linker_0, # of connection points: 2
#     Edge 131, Type (0, 0), BuildingBlock: ZUJKAS_clean_linker_0, # of connection points: 2
#     Edge 132, Type (0, 0), BuildingBlock: ZUJKAS_clean_linker_0, # of connection points: 2
#     Edge 133, Type (0, 0), BuildingBlock: ZUJKAS_clean_linker_0, # of connection points: 2
#     Edge 134, Type (0, 0), BuildingBlock: ZUJKAS_clean_linker_0, # of connection points: 2
#     Edge 135, Type (0, 0), BuildingBlock: ZUJKAS_clean_linker_0, # of connection points: 2
#     Edge 136, Type (0, 0), BuildingBlock: ZUJKAS_clean_linker_0, # of connection points: 2
#     Edge 137, Type (0, 0), BuildingBlock: ZUJKAS_clean_linker_0, # of connection points: 2
#     Edge 138, Type (0, 0), BuildingBlock: ZUJKAS_clean_linker_0, # of connection points: 2
#     Edge 139, Type (0, 0), BuildingBlock: ZUJKAS_clean_linker_0, # of connection points: 2
#     Edge 140, Type (0, 0), BuildingBlock: ZUJKAS_clean_linker_0, # of connection points: 2
#     Edge 141, Type (0, 0), BuildingBlock: ZUJKAS_clean_linker_0, # of connection points: 2
#     Edge 142, Type (0, 0), BuildingBlock: ZUJKAS_clean_linker_0, # of connection points: 2
#     Edge 143, Type (0, 0), BuildingBlock: ZUJKAS_clean_linker_0, # of connection points: 2
# Relax obj value: 0.340
# Max RMSD: 0.243
# Mean RMSD: 0.243
data_MOF--net-wne--node1-HISSIN_clean_sbu_0--edge1-ZUJKAS_clean_linker_0
_symmetry_space_group_name_H-M    P1
_symmetry_Int_Tables_number       1
_symmetry_cell_setting            triclinic
loop_
_symmetry_equiv_pos_as_xyz
'x, y, z'
_cell_length_a     106.50698
_cell_length_b     106.50137
_cell_length_c     44.502948
_cell_angle_alpha  90.012079
_cell_angle_beta   89.96545
_cell_angle_gamma 119.95928
loop_
_atom_site_label
_atom_site_type_symbol
_atom_site_fract_x
_atom_site_fract_y
_atom_site_fract_z
_atom_type_partial_charge
Eu0 Eu 0.27265 0.18831 0.09829 0.0
Eu1 Eu 0.2937 0.22298 0.11296 0.0
C2 C 0.2992 0.20994 0.05347 0.0
C3 C 0.25619 0.14644 0.07855 0.0
C4 C 0.26053 0.14399 0.05025 0.0
C5 C 0.2475 0.12094 0.09083 0.0
C6 C 0.25829 0.1302 0.04231 0.0
C7 C 0.24975 0.13472 0.09875 0.0
C8 C 0.25153 0.11834 0.0623 0.0
C9 C 0.2566 0.16041 0.08598 0.0
O10 O 0.27266 0.22143 0.09786 0.0
O11 O 0.26143 0.19914 0.07466 0.0
C12 C 0.26221 0.21166 0.0809 0.0
O13 O 0.26135 0.19446 0.13562 0.0
O14 O 0.30995 0.24484 0.09912 0.0
O15 O 0.3016 0.24104 0.14445 0.0
O16 O 0.28202 0.21259 0.15603 0.0
C17 C 0.26797 0.20393 0.15757 0.0
O18 O 0.29004 0.18947 0.12982 0.0
O19 O 0.30786 0.21318 0.12306 0.0
O20 O 0.29719 0.22029 0.06397 0.0
O21 O 0.26002 0.1656 0.11324 0.0
O22 O 0.26139 0.17069 0.06581 0.0
O23 O 0.29235 0.19697 0.06613 0.0
C24 C 0.30548 0.26235 0.12029 0.0
C25 C 0.2912 0.25959 0.12383 0.0
C26 C 0.31292 0.28686 0.10468 0.0
C27 C 0.28781 0.27044 0.11788 0.0
C28 C 0.31632 0.27606 0.11087 0.0
C29 C 0.29862 0.28412 0.10786 0.0
C30 C 0.30892 0.2507 0.12397 0.0
C31 C 0.30367 0.1999 0.13222 0.0
H32 H 0.26533 0.15263 0.03383 0.0
H33 H 0.24249 0.11228 0.10716 0.0
H34 H 0.26144 0.12874 1.02003 0.0
H35 H 0.24611 0.1361 0.12058 0.0
H36 H 0.28261 0.24898 0.1307 0.0
H37 H 0.32149 0.2974 0.09741 0.0
H38 H 0.27672 0.26805 0.12038 0.0
H39 H 0.32735 0.27833 0.10781 0.0
Eu40 Eu 0.8516 0.09219 0.09752 0.0
Eu41 Eu 0.81697 0.0784 0.11314 0.0
C42 C 0.82959 0.09683 0.0532 0.0
C43 C 0.8933 0.11748 0.0757 0.0
C44 C 0.9005 0.1173 0.04931 0.0
C45 C 0.914 0.14157 0.08664 0.0
C46 C 0.91425 0.12895 0.04183 0.0
C47 C 0.90022 0.12985 0.09421 0.0
C48 C 0.92138 0.14124 0.06051 0.0
C49 C 0.87946 0.1041 0.08452 0.0
O50 O 0.81867 0.05896 0.09819 0.0
O51 O 0.8407 0.07011 0.07396 0.0
C52 C 0.82833 0.05833 0.08076 0.0
O53 O 0.84568 0.07474 0.1348 0.0
O54 O 0.79494 0.07245 0.09986 0.0
O55 O 0.79914 0.06837 0.14524 0.0
O56 O 0.82772 0.07737 0.15587 0.0
C57 C 0.83632 0.0719 0.15702 0.0
O58 O 0.85044 0.10841 0.12913 0.0
O59 O 0.82665 0.10235 0.12306 0.0
O60 O 0.81928 0.08456 0.06415 0.0
O61 O 0.87439 0.10295 0.11176 0.0
O62 O 0.86909 0.09804 0.06466 0.0
O63 O 0.84267 0.10298 0.06537 0.0
C64 C 0.77769 0.05064 0.12198 0.0
C65 C 0.78051 0.03918 0.12614 0.0
C66 C 0.7532 0.03339 0.10668 0.0
C67 C 0.76969 0.02489 0.12062 0.0
C68 C 0.76396 0.04764 0.11245 0.0
C69 C 0.75601 0.0219 0.11041 0.0
C70 C 0.78931 0.06577 0.12502 0.0
C71 C 0.83996 0.11152 0.1319 0.0
H72 H 0.8956 0.10794 0.03464 0.0
H73 H 0.91906 0.15071 0.10184 0.0
H74 H 0.91932 0.12826 1.02128 0.0
H75 H 0.89512 0.13037 0.11487 0.0
H76 H 0.79114 0.04129 0.13309 0.0
H77 H 0.74265 0.03134 0.09925 0.0
H78 H 0.77212 0.01623 0.12356 0.0
H79 H 0.76164 0.05635 0.10893 0.0
Eu80 Eu 0.94789 0.76628 0.09559 0.0
Eu81 Eu 0.96149 0.74522 0.11088 0.0
C82 C 0.94254 0.73912 0.05111 0.0
C83 C 0.9224 0.78279 0.07607 0.0
C84 C 0.91499 0.77762 0.0486 0.0
C85 C 0.90618 0.79231 0.08767 0.0
C86 C 0.90342 0.77986 0.04074 0.0
C87 C 0.91773 0.79007 0.09551 0.0
C88 C 0.89889 0.78741 0.05996 0.0
C89 C 0.93595 0.7823 0.08332 0.0
O90 O 0.98099 0.76654 0.09675 0.0
O91 O 0.96995 0.7774 0.07204 0.0
C92 C 0.9817 0.77681 0.07911 0.0
O93 O 0.96548 0.778 0.13268 0.0
O94 O 0.97238 0.73354 0.0967 0.0
O95 O 0.96614 0.73267 0.14325 0.0
O96 O 0.96429 0.75786 0.15331 0.0
C97 C 0.96898 0.77179 0.15449 0.0
O98 O 0.93188 0.74904 0.12766 0.0
O99 O 0.93734 0.73108 0.11905 0.0
O100 O 0.95425 0.74003 0.0628 0.0
O101 O 0.93779 0.77891 0.11056 0.0
O102 O 0.94138 0.77744 0.06312 0.0
O103 O 0.93698 0.74676 0.06267 0.0
C104 C 0.98834 0.73384 0.13285 0.0
C105 C 0.99903 0.74851 0.13543 0.0
C106 C 1.00653 0.72696 0.14126 0.0
C107 C 1.01349 0.7524 0.14025 0.0
C108 C 0.99211 0.7231 0.13631 0.0
C109 C 1.01742 0.74166 0.14271 0.0
C110 C 0.97358 0.72981 0.12395 0.0
C111 C 0.92843 0.73531 0.12914 0.0
H112 H 0.91829 0.77207 0.03284 0.0
H113 H 0.90333 0.79836 0.10306 0.0
H114 H 0.89804 0.77567 1.01942 0.0
H115 H 0.92331 0.79445 0.11657 0.0
H116 H 0.99624 0.75694 0.13279 0.0
H117 H 1.00923 0.71843 0.1425 0.0
H118 H 1.02162 0.76378 0.14141 0.0
H119 H 0.98399 0.71175 0.13414 0.0
Eu120 Eu 0.19681 0.26496 0.45165 0.0
Eu121 Eu 0.23126 0.28586 0.43286 0.0
C122 C 0.21914 0.2937 0.49286 0.0
C123 C 0.15489 0.24821 0.47176 0.0
C124 C 0.15242 0.25273 0.49983 0.0
C125 C 0.12931 0.23913 0.45958 0.0
C126 C 0.13858 0.2504 0.5077 0.0
C127 C 0.14313 0.24149 0.45172 0.0
C128 C 0.12669 0.24335 0.48789 0.0
C129 C 0.16894 0.24875 0.4644 0.0
O130 O 0.22961 0.2649 0.44948 0.0
O131 O 0.20806 0.2543 0.47546 0.0
C132 C 0.22034 0.25488 0.46795 0.0
O133 O 0.20262 0.25304 0.41486 0.0
O134 O 0.25411 0.29791 0.44464 0.0
O135 O 0.24773 0.29659 0.39807 0.0
O136 O 0.21973 0.27333 0.39153 0.0
C137 C 0.21141 0.25925 0.39167 0.0
O138 O 0.19751 0.28237 0.42068 0.0
O139 O 0.22146 0.30009 0.42415 0.0
O140 O 0.23018 0.29431 0.47844 0.0
O141 O 0.17407 0.25206 0.43708 0.0
O142 O 0.17928 0.25376 0.48444 0.0
O143 O 0.2056 0.28417 0.48527 0.0
C144 C 0.26903 0.29594 0.40888 0.0
C145 C 0.2651 0.28124 0.40919 0.0
C146 C 0.29402 0.30255 0.40058 0.0
C147 C 0.27569 0.27723 0.40601 0.0
C148 C 0.28345 0.30653 0.40392 0.0
C149 C 0.29031 0.28788 0.40229 0.0
C150 C 0.25843 0.30033 0.41678 0.0
C151 C 0.20795 0.29591 0.4169 0.0
H152 H 0.1611 0.25777 0.51612 0.0
H153 H 0.12063 0.2339 0.44337 0.0
H154 H 0.13712 0.25371 0.52982 0.0
H155 H 0.14453 0.2377 0.43007 0.0
H156 H 0.25395 0.27293 0.41299 0.0
H157 H 0.30521 0.31104 0.3983 0.0
H158 H 0.2725 0.26586 0.40726 0.0
H159 H 0.28665 0.31792 0.40385 0.0
Eu160 Eu 0.77593 0.93937 0.44992 0.0
Eu161 Eu 0.75505 0.95297 0.43312 0.0
C162 C 0.74885 0.93456 0.49347 0.0
C163 C 0.79233 0.91395 0.47044 0.0
C164 C 0.78799 0.9072 0.49877 0.0
C165 C 0.80096 0.89707 0.45825 0.0
C166 C 0.7902 0.89563 0.50676 0.0
C167 C 0.79873 0.9086 0.45027 0.0
C168 C 0.79693 0.89047 0.48681 0.0
C169 C 0.79194 0.92753 0.46295 0.0
O170 O 0.7759 0.97236 0.44939 0.0
O171 O 0.78673 0.96126 0.47399 0.0
C172 C 0.78606 0.973 0.46722 0.0
O173 O 0.78757 0.95701 0.41309 0.0
O174 O 0.73862 0.95884 0.44372 0.0
O175 O 0.74833 0.96337 0.39954 0.0
O176 O 0.76686 0.95322 0.39098 0.0
C177 C 0.78099 0.95933 0.39029 0.0
O178 O 0.75862 0.92295 0.41848 0.0
O179 O 0.74082 0.92899 0.42369 0.0
O180 O 0.75031 0.94654 0.48189 0.0
O181 O 0.78876 0.9294 0.43555 0.0
O182 O 0.78694 0.93293 0.4829 0.0
O183 O 0.75617 0.92865 0.48196 0.0
C184 C 0.74408 0.98107 0.42076 0.0
C185 C 0.74332 0.98823 0.395 0.0
C186 C 0.75268 1.00334 0.44929 0.0
C187 C 0.74715 1.00281 0.39636 0.0
C188 C 0.74901 0.98881 0.44784 0.0
C189 C 0.75168 1.0105 0.42363 0.0
C190 C 0.74056 0.96586 0.41859 0.0
C191 C 0.74503 0.91979 0.41544 0.0
H192 H 0.78322 0.91108 0.51517 0.0
H193 H 0.80595 0.89337 0.44193 0.0
H194 H 0.78706 0.89106 0.52907 0.0
H195 H 0.80238 0.9136 0.42841 0.0
H196 H 0.7398 0.98253 0.37377 0.0
H197 H 0.75591 1.00883 0.47077 0.0
H198 H 0.74647 1.00804 0.37604 0.0
H199 H 0.74995 0.98364 0.46799 0.0
Eu200 Eu 0.10065 0.84395 0.44862 0.0
Eu201 Eu 0.08722 0.80921 0.43496 0.0
C202 C 0.10587 0.82272 0.49402 0.0
C203 C 0.12581 0.88566 0.4702 0.0
C204 C 0.12811 0.89012 0.50049 0.0
C205 C 0.14692 0.90915 0.45705 0.0
C206 C 0.13952 0.90386 0.50889 0.0
C207 C 0.13546 0.89539 0.44862 0.0
C208 C 0.14904 0.91374 0.48732 0.0
C209 C 0.11239 0.87184 0.46116 0.0
O210 O 0.06761 0.81077 0.44914 0.0
O211 O 0.07862 0.83303 0.47238 0.0
C212 C 0.0669 0.82053 0.46609 0.0
O213 O 0.08329 0.83771 0.41098 0.0
O214 O 0.08089 0.78741 0.45058 0.0
O215 O 0.07822 0.79094 0.40381 0.0
O216 O 0.0852 0.81896 0.39161 0.0
C217 C 0.08012 0.82787 0.38959 0.0
O218 O 0.11687 0.84268 0.41717 0.0
O219 O 0.1112 0.8191 0.42495 0.0
O220 O 0.09349 0.8123 0.48386 0.0
O221 O 0.11135 0.86673 0.43399 0.0
O222 O 0.10618 0.86147 0.48099 0.0
O223 O 0.11192 0.83558 0.48094 0.0
C224 C 0.05987 0.76979 0.42685 0.0
C225 C 0.04854 0.77271 0.42181 0.0
C226 C 0.04231 0.74523 0.44111 0.0
C227 C 0.03415 0.7619 0.42641 0.0
C228 C 0.05667 0.75598 0.43628 0.0
C229 C 0.03094 0.74814 0.43656 0.0
C230 C 0.07504 0.78141 0.42504 0.0
C231 C 0.12018 0.8323 0.41525 0.0
H232 H 0.12085 0.8831 0.51779 0.0
H233 H 0.15383 0.91639 0.43958 0.0
H234 H 0.14081 0.90676 0.53246 0.0
H235 H 0.13395 0.89254 0.42502 0.0
H236 H 0.05083 0.7834 0.41493 0.0
H237 H 0.0401 0.73462 0.44849 0.0
H238 H 0.02558 0.76441 0.42285 0.0
H239 H 0.06528 0.7536 0.44049 0.0
Eu240 Eu 0.75477 0.80886 0.934 0.0
Eu241 Eu 0.7756 0.84337 0.95062 0.0
C242 C 0.78054 0.8284 0.89067 0.0
C243 C 0.74234 0.76925 0.92682 0.0
C244 C 0.75654 0.77165 0.92906 0.0
C245 C 0.73298 0.74401 0.93946 0.0
C246 C 0.75894 0.76028 0.93652 0.0
C247 C 0.73059 0.75537 0.9319 0.0
C248 C 0.74717 0.74638 0.94211 0.0
C249 C 0.73977 0.78133 0.92085 0.0
O250 O 0.75838 0.84256 0.91903 0.0
O251 O 0.74063 0.81869 0.92386 0.0
C252 C 0.74482 0.8321 0.91564 0.0
O253 O 0.75093 0.81073 0.98321 0.0
O254 O 0.78844 0.86617 0.93641 0.0
O255 O 0.78642 0.86079 0.98374 0.0
O256 O 0.75578 0.8341 0.98263 0.0
C257 C 0.74891 0.82095 0.99453 0.0
O258 O 0.77566 0.81031 0.95024 0.0
O259 O 0.78675 0.83244 0.97411 0.0
O260 O 0.78713 0.83738 0.91339 0.0
O261 O 0.73724 0.78699 0.94439 0.0
O262 O 0.74876 0.79118 0.90229 0.0
O263 O 0.76643 0.82019 0.89155 0.0
C264 C 0.79194 0.88521 0.97122 0.0
C265 C 0.78741 0.88763 0.99935 0.0
C266 C 0.80084 0.91078 0.95911 0.0
C267 C 0.78966 0.90143 1.00728 0.0
C268 C 0.79857 0.89699 0.95119 0.0
C269 C 0.79661 0.91334 0.98747 0.0
C270 C 0.79151 0.8712 0.96384 0.0
C271 C 0.786 0.81997 0.96759 0.0
H272 H 0.76577 0.78234 0.92538 0.0
H273 H 0.72369 0.73334 0.94318 0.0
H274 H 0.76998 0.76243 0.93857 0.0
H275 H 0.71958 0.75335 0.93035 0.0
H276 H 0.78246 0.87894 1.01565 0.0
H277 H 0.80601 0.91948 0.9429 0.0
H278 H 0.78635 0.90285 0.02944 0.0
H279 H 0.80237 0.89564 0.9295 0.0
Eu280 Eu 0.23081 0.95328 0.937 0.0
Eu281 Eu 0.19614 0.93986 0.95178 0.0
C282 C 0.21193 0.96066 0.89253 0.0
C283 C 0.26898 0.98006 0.91492 0.0
C284 C 0.26503 0.9908 0.91296 0.0
C285 C 0.29385 0.99807 0.90417 0.0
C286 C 0.27553 1.0052 0.90741 0.0
C287 C 0.28336 0.98371 0.90995 0.0
C288 C 0.29009 1.00901 0.90345 0.0
C289 C 0.25835 0.96536 0.92445 0.0
O290 O 0.19736 0.92372 0.92014 0.0
O291 O 0.22076 0.92913 0.92889 0.0
C292 C 0.20762 0.92025 0.91877 0.0
O293 O 0.22844 0.94591 0.98508 0.0
O294 O 0.1734 0.92911 0.93721 0.0
O295 O 0.17856 0.93449 0.98418 0.0
O296 O 0.20445 0.92865 0.98461 0.0
C297 C 0.21757 0.93414 0.99645 0.0
O298 O 0.22886 0.97282 0.95005 0.0
O299 O 0.20732 0.96174 0.97587 0.0
O300 O 0.20211 0.95724 0.91411 0.0
O301 O 0.25331 0.96443 0.95153 0.0
O302 O 0.24816 0.95763 0.9052 0.0
O303 O 0.22115 0.95594 0.89422 0.0
C304 C 0.15413 0.91569 0.97304 0.0
C305 C 0.14377 0.91804 0.98758 0.0
C306 C 0.13667 0.88961 0.97443 0.0
C307 C 0.13003 0.90644 0.99519 0.0
C308 C 0.15046 0.90131 0.96661 0.0
C309 C 0.12614 0.892 0.9886 0.0
C310 C 0.16827 0.92858 0.96415 0.0
C311 C 0.21948 0.97353 0.96823 0.0
H312 H 0.25391 0.9881 0.91666 0.0
H313 H 0.30502 1.00071 0.90171 0.0
H314 H 0.27233 1.01339 0.90686 0.0
H315 H 0.28657 0.97554 0.91154 0.0
H316 H 0.14625 0.92898 0.99288 0.0
H317 H 0.13415 0.87872 0.96874 0.0
H318 H 0.12248 0.90884 1.00652 0.0
H319 H 0.15818 0.89912 0.95534 0.0
Eu320 Eu 0.08623 0.28557 0.94221 0.0
Eu321 Eu 0.10004 0.2641 0.95162 0.0
C322 C 0.07569 0.25789 0.89751 0.0
C323 C 0.05743 0.29596 0.94009 0.0
C324 C 0.0481 0.2888 0.9158 0.0
C325 C 0.0368 0.29296 0.96917 0.0
C326 C 0.03325 0.28383 0.91819 0.0
C327 C 0.05162 0.29806 0.96668 0.0
C328 C 0.02746 0.2858 0.94498 0.0
C329 C 0.07299 0.30044 0.93881 0.0
O330 O 0.11819 0.28438 0.93022 0.0
O331 O 0.10624 0.29585 0.91222 0.0
C332 C 0.11799 0.29469 0.91425 0.0
O333 O 0.10549 0.2983 0.97162 0.0
O334 O 0.11305 0.25459 0.9363 0.0
O335 O 0.10373 0.24961 0.98099 0.0
O336 O 0.1062 0.2793 0.99352 0.0
C337 C 0.10964 0.29313 0.99365 0.0
O338 O 0.07143 0.26803 0.97542 0.0
O339 O 0.07625 0.24999 0.96339 0.0
O340 O 0.08633 0.25576 0.90733 0.0
O341 O 0.0785 0.29879 0.96372 0.0
O342 O 0.07746 0.29649 0.91516 0.0
O343 O 0.07332 0.26766 0.90989 0.0
C344 C 0.1245 0.24657 0.97258 0.0
C345 C 0.13899 0.25687 0.9658 0.0
C346 C 0.13323 0.23179 0.99716 0.0
C347 C 0.15046 0.2546 0.97457 0.0
C348 C 0.12184 0.23411 0.98861 0.0
C349 C 0.14775 0.2419 0.99005 0.0
C350 C 0.11184 0.24777 0.96149 0.0
C351 C 0.06759 0.2542 0.97497 0.0
H352 H 0.0522 0.28694 0.895 0.0
H353 H 0.03268 0.29494 0.98983 0.0
H354 H 0.02629 0.27842 0.89916 0.0
H355 H 0.05855 0.30357 0.98572 0.0
H356 H 0.14144 0.26657 0.95332 0.0
H357 H 0.1306 0.222 1.00945 0.0
H358 H 0.16142 0.26263 0.96844 0.0
H359 H 0.11082 0.22593 0.9941 0.0
Eu360 Eu 0.81702 0.74564 0.61179 0.0
Eu361 Eu 0.85173 0.76677 0.59737 0.0
C362 C 0.83586 0.77192 0.65636 0.0
C363 C 0.77868 0.73381 0.63421 0.0
C364 C 0.78249 0.74838 0.63802 0.0
C365 C 0.75364 0.72649 0.64437 0.0
C366 C 0.77184 0.75201 0.64435 0.0
C367 C 0.76427 0.72289 0.63792 0.0
C368 C 0.75726 0.7411 0.64711 0.0
C369 C 0.78946 0.73006 0.62403 0.0
O370 O 0.85041 0.74931 0.62885 0.0
O371 O 0.82699 0.73146 0.61993 0.0
C372 C 0.8401 0.7356 0.63008 0.0
O373 O 0.81947 0.74067 0.56372 0.0
O374 O 0.87452 0.77881 0.61198 0.0
O375 O 0.86929 0.77873 0.56499 0.0
O376 O 0.84343 0.74729 0.56454 0.0
C377 C 0.83034 0.73972 0.55253 0.0
O378 O 0.81903 0.76716 0.59882 0.0
O379 O 0.84066 0.77763 0.57333 0.0
O380 O 0.8458 0.77825 0.63497 0.0
O381 O 0.79454 0.7346 0.59715 0.0
O382 O 0.79963 0.7323 0.64318 0.0
O383 O 0.8265 0.75803 0.65459 0.0
C384 C 0.89349 0.78329 0.57584 0.0
C385 C 0.89789 0.78521 0.54551 0.0
C386 C 0.91709 0.78593 0.58911 0.0
C387 C 0.91166 0.78757 0.53714 0.0
C388 C 0.9033 0.7836 0.59749 0.0
C389 C 0.92163 0.78819 0.5588 0.0
C390 C 0.87965 0.78288 0.58482 0.0
C391 C 0.82849 0.77728 0.58084 0.0
H392 H 0.79363 0.75694 0.63522 0.0
H393 H 0.74248 0.71783 0.6458 0.0
H394 H 0.77495 0.76333 0.64647 0.0
H395 H 0.76118 0.71161 0.63485 0.0
H396 H 0.8908 0.78526 0.52813 0.0
H397 H 0.92439 0.78647 0.60664 0.0
H398 H 0.91451 0.789 0.51354 0.0
H399 H 0.9005 0.78245 0.62112 0.0
Eu400 Eu 0.29389 0.07886 0.61135 0.0
Eu401 Eu 0.27272 0.09241 0.59761 0.0
C402 C 0.26754 0.07115 0.65623 0.0
C403 C 0.30617 0.05208 0.62799 0.0
C404 C 0.2925 0.04191 0.63946 0.0
C405 C 0.31194 0.03299 0.62131 0.0
C406 C 0.28856 0.0273 0.64174 0.0
C407 C 0.31591 0.04757 0.6193 0.0
C408 C 0.29815 0.02269 0.63206 0.0
C409 C 0.30976 0.06701 0.62181 0.0
O410 O 0.28997 0.10831 0.62971 0.0
O411 O 0.30795 0.10297 0.62027 0.0
C412 C 0.3037 0.11179 0.63087 0.0
O413 O 0.29779 0.0856 0.56281 0.0
O414 O 0.26019 0.10259 0.61272 0.0
O415 O 0.26137 0.09877 0.56531 0.0
O416 O 0.29233 0.10368 0.56505 0.0
C417 C 0.29937 0.09777 0.55224 0.0
O418 O 0.2725 0.05929 0.59808 0.0
O419 O 0.26169 0.07044 0.57367 0.0
O420 O 0.26126 0.07494 0.63504 0.0
O421 O 0.30632 0.06911 0.59497 0.0
O422 O 0.30635 0.07348 0.64245 0.0
O423 O 0.28138 0.07544 0.65427 0.0
C424 C 0.25629 0.11793 0.57809 0.0
C425 C 0.26061 0.12471 0.54978 0.0
C426 C 0.24767 0.13481 0.59044 0.0
C427 C 0.2584 0.13629 0.54188 0.0
C428 C 0.24991 0.12327 0.59833 0.0
C429 C 0.25168 0.14144 0.5619 0.0
C430 C 0.25668 0.10434 0.58553 0.0
C431 C 0.26223 0.05864 0.58058 0.0
H432 H 0.28475 0.04521 0.64585 0.0
H433 H 0.31961 0.02972 0.61414 0.0
H434 H 0.27789 0.01955 0.65007 0.0
H435 H 0.32643 0.05525 0.61018 0.0
H436 H 0.26538 0.12084 0.53333 0.0
H437 H 0.2427 0.13849 0.60682 0.0
H438 H 0.26153 0.14088 0.51958 0.0
H439 H 0.24628 0.11826 0.62018 0.0
Eu440 Eu 0.96134 0.22227 0.61262 0.0
Eu441 Eu 0.94774 0.18773 0.59677 0.0
C442 C 0.96849 0.20297 0.65583 0.0
C443 C 0.9894 0.26075 0.63103 0.0
C444 C 0.99383 0.26728 0.65936 0.0
C445 C 1.01417 0.27522 0.61305 0.0
C446 C 1.00829 0.27778 0.66444 0.0
C447 C 0.99977 0.26464 0.60807 0.0
C448 C 1.01858 0.28207 0.64115 0.0
C449 C 0.97408 0.24976 0.62581 0.0
O450 O 0.93154 0.18886 0.62854 0.0
O451 O 0.93728 0.21249 0.62145 0.0
C452 C 0.92823 0.19923 0.63072 0.0
O453 O 0.95417 0.22025 0.56442 0.0
O454 O 0.93776 0.16501 0.61152 0.0
O455 O 0.94132 0.17016 0.56411 0.0
O456 O 0.93671 0.19636 0.56441 0.0
C457 C 0.94233 0.20955 0.5529 0.0
O458 O 0.98079 0.22046 0.59814 0.0
O459 O 0.96963 0.19884 0.57254 0.0
O460 O 0.96537 0.19354 0.63362 0.0
O461 O 0.97059 0.24473 0.59856 0.0
O462 O 0.968 0.23956 0.64593 0.0
O463 O 0.96333 0.21183 0.65495 0.0
C464 C 0.92238 0.14587 0.57691 0.0
C465 C 0.9152 0.14357 0.54912 0.0
C466 C 0.90595 0.12023 0.58874 0.0
C467 C 0.90364 0.12979 0.54121 0.0
C468 C 0.91747 0.134 0.59664 0.0
C469 C 0.89894 0.11779 0.56069 0.0
C470 C 0.93592 0.15985 0.58422 0.0
C471 C 0.98144 0.21106 0.57993 0.0
H472 H 0.98608 0.26433 0.67752 0.0
H473 H 1.0217 0.2784 0.59443 0.0
H474 H 1.01135 0.28271 0.68647 0.0
H475 H 0.99676 0.25972 0.58602 0.0
H476 H 0.91873 0.15234 0.53308 0.0
H477 H 0.90261 0.11146 0.6047 0.0
H478 H 0.89872 0.12845 0.5193 0.0
H479 H 0.9228 0.13527 0.61806 0.0
Eu480 Eu 0.93948 0.52144 0.42859 0.0
Eu481 Eu 0.96073 0.55601 0.44334 0.0
C482 C 0.96651 0.54292 0.38371 0.0
C483 C 0.92288 0.47949 0.40913 0.0
C484 C 0.92708 0.47692 0.38078 0.0
C485 C 0.91427 0.45402 0.42174 0.0
C486 C 0.92482 0.4631 0.37298 0.0
C487 C 0.91655 0.46783 0.42952 0.0
C488 C 0.91817 0.45132 0.39316 0.0
C489 C 0.92334 0.4935 0.41649 0.0
O490 O 0.93939 0.55429 0.42979 0.0
O491 O 0.92865 0.53255 0.40462 0.0
C492 C 0.92919 0.54484 0.41191 0.0
O493 O 0.92792 0.52747 0.46581 0.0
O494 O 0.97239 0.57852 0.42893 0.0
O495 O 0.97365 0.57325 0.47536 0.0
O496 O 0.94821 0.5464 0.48599 0.0
C497 C 0.93426 0.53726 0.48744 0.0
O498 O 0.95674 0.52264 0.46052 0.0
O499 O 0.9748 0.54583 0.4507 0.0
O500 O 0.96549 0.55372 0.39508 0.0
O501 O 0.92682 0.49875 0.44368 0.0
O502 O 0.9281 0.50375 0.39626 0.0
O503 O 0.95898 0.5298 0.39566 0.0
C504 C 0.97249 0.59431 0.4653 0.0
C505 C 0.95786 0.59044 0.46812 0.0
C506 C 0.97956 0.61939 0.47406 0.0
C507 C 0.95408 0.60108 0.4732 0.0
C508 C 0.98331 0.60876 0.46883 0.0
C509 C 0.9649 0.61571 0.47571 0.0
C510 C 0.97639 0.58351 0.45606 0.0
C511 C 0.97053 0.53274 0.46115 0.0
H512 H 0.9318 0.48551 0.36421 0.0
H513 H 0.90935 0.44543 0.43823 0.0
H514 H 0.92786 0.46157 0.35065 0.0
H515 H 0.91301 0.46929 0.45141 0.0
H516 H 0.94936 0.57927 0.46545 0.0
H517 H 0.98815 0.63059 0.47536 0.0
H518 H 0.94272 0.59792 0.4745 0.0
H519 H 0.99463 0.6119 0.46649 0.0
Eu520 Eu 0.51885 0.42612 0.43148 0.0
Eu521 Eu 0.48413 0.41253 0.44585 0.0
C522 C 0.49741 0.43128 0.38665 0.0
C523 C 0.56073 0.45148 0.41117 0.0
C524 C 0.56319 0.45801 0.38258 0.0
C525 C 0.58623 0.46842 0.4232 0.0
C526 C 0.57698 0.46949 0.37438 0.0
C527 C 0.57246 0.45697 0.43138 0.0
C528 C 0.58884 0.47479 0.39438 0.0
C529 C 0.54675 0.43796 0.41891 0.0
O530 O 0.48587 0.39301 0.43193 0.0
O531 O 0.50782 0.40416 0.40745 0.0
C532 C 0.49549 0.39237 0.41439 0.0
O533 O 0.51275 0.40859 0.46872 0.0
O534 O 0.46218 0.40532 0.43008 0.0
O535 O 0.46605 0.40439 0.47745 0.0
O536 O 0.49392 0.41019 0.48884 0.0
C537 C 0.50299 0.40527 0.49037 0.0
O538 O 0.51759 0.44221 0.46331 0.0
O539 O 0.49402 0.43653 0.4555 0.0
O540 O 0.48703 0.4189 0.39699 0.0
O541 O 0.54161 0.43628 0.4462 0.0
O542 O 0.53642 0.43237 0.39887 0.0
O543 O 0.51033 0.43736 0.39948 0.0
C544 C 0.44469 0.38525 0.45656 0.0
C545 C 0.4475 0.37405 0.46393 0.0
C546 C 0.42007 0.36738 0.44337 0.0
C547 C 0.43661 0.35956 0.46101 0.0
C548 C 0.43089 0.38183 0.44658 0.0
C549 C 0.42289 0.35613 0.45017 0.0
C550 C 0.45636 0.40043 0.45627 0.0
C551 C 0.5072 0.4455 0.46525 0.0
H552 H 0.55455 0.45401 0.36613 0.0
H553 H 0.59488 0.47223 0.43956 0.0
H554 H 0.57843 0.47387 0.35189 0.0
H555 H 0.57108 0.45215 0.45343 0.0
H556 H 0.45819 0.3765 0.47125 0.0
H557 H 0.4095 0.365 0.43537 0.0
H558 H 0.43903 0.35106 0.4663 0.0
H559 H 0.42858 0.39033 0.44057 0.0
Eu560 Eu 0.61416 0.10134 0.43122 0.0
Eu561 Eu 0.62695 0.07967 0.44615 0.0
C562 C 0.60868 0.07461 0.38634 0.0
C563 C 0.59043 0.11953 0.40951 0.0
C564 C 0.59279 0.13241 0.39577 0.0
C565 C 0.56432 0.11065 0.40705 0.0
C566 C 0.58117 0.13448 0.38799 0.0
C567 C 0.57604 0.10861 0.415 0.0
C568 C 0.5667 0.12371 0.39362 0.0
C569 C 0.60329 0.11824 0.41837 0.0
O570 O 0.64688 0.10082 0.43305 0.0
O571 O 0.63616 0.11172 0.40742 0.0
C572 C 0.64782 0.11106 0.41504 0.0
O573 O 0.6316 0.11256 0.46873 0.0
O574 O 0.63521 0.06579 0.43056 0.0
O575 O 0.63309 0.06816 0.47822 0.0
O576 O 0.62973 0.09205 0.48898 0.0
C577 C 0.6348 0.10605 0.49044 0.0
O578 O 0.59766 0.08414 0.46269 0.0
O579 O 0.60274 0.0659 0.45414 0.0
O580 O 0.6208 0.07618 0.39724 0.0
O581 O 0.60387 0.11383 0.44547 0.0
O582 O 0.60898 0.11354 0.39847 0.0
O583 O 0.60281 0.08177 0.39874 0.0
C584 C 0.65345 0.06697 0.4613 0.0
C585 C 0.66432 0.08114 0.46851 0.0
C586 C 0.67177 0.06021 0.45362 0.0
C587 C 0.6789 0.08485 0.46802 0.0
C588 C 0.65724 0.0565 0.45433 0.0
C589 C 0.68275 0.07448 0.45987 0.0
C590 C 0.63839 0.06349 0.45747 0.0
C591 C 0.59392 0.07033 0.46391 0.0
H592 H 0.60374 0.14101 0.39118 0.0
H593 H 0.55341 0.1021 0.41199 0.0
H594 H 0.58358 0.14456 0.37725 0.0
H595 H 0.57385 0.09857 0.42563 0.0
H596 H 0.66156 0.08943 0.47355 0.0
H597 H 0.67447 0.05197 0.4477 0.0
H598 H 0.68717 0.09592 0.47283 0.0
H599 H 0.64898 0.04556 0.44848 0.0
Eu600 Eu 0.8619 0.59647 0.78183 0.0
Eu601 Eu 0.89632 0.61722 0.76422 0.0
C602 C 0.88459 0.62351 0.825 0.0
C603 C 0.81983 0.57883 0.80241 0.0
C604 C 0.81842 0.59047 0.81325 0.0
C605 C 0.79357 0.56319 0.80757 0.0
C606 C 0.80467 0.58846 0.82117 0.0
C607 C 0.80723 0.56523 0.7996 0.0
C608 C 0.79196 0.57474 0.81857 0.0
C609 C 0.83415 0.58008 0.79526 0.0
O610 O 0.8951 0.59674 0.78235 0.0
O611 O 0.87287 0.58552 0.8058 0.0
C612 C 0.88546 0.58645 0.7998 0.0
O613 O 0.86799 0.58495 0.74481 0.0
O614 O 0.9181 0.63565 0.77075 0.0
O615 O 0.9137 0.62122 0.73301 0.0
O616 O 0.88434 0.60574 0.72223 0.0
C617 C 0.87657 0.59159 0.72161 0.0
O618 O 0.86248 0.61376 0.75071 0.0
O619 O 0.88654 0.63134 0.75371 0.0
O620 O 0.89494 0.62179 0.81323 0.0
O621 O 0.83912 0.58318 0.76779 0.0
O622 O 0.84452 0.58591 0.81516 0.0
O623 O 0.87131 0.61631 0.81374 0.0
C624 C 0.93595 0.62958 0.75712 0.0
C625 C 0.9447 0.62913 0.73412 0.0
C626 C 0.94951 0.62408 0.79354 0.0
C627 C 0.95576 0.62616 0.74071 0.0
C628 C 0.93834 0.62689 0.78688 0.0
C629 C 0.95839 0.62371 0.77054 0.0
C630 C 0.92362 0.63154 0.74933 0.0
C631 C 0.87303 0.62722 0.74649 0.0
H632 H 0.82793 0.60108 0.81577 0.0
H633 H 0.7843 0.55239 0.8057 0.0
H634 H 0.80403 0.59772 0.82914 0.0
H635 H 0.80798 0.55601 0.79163 0.0
H636 H 0.94283 0.63088 0.71095 0.0
H637 H 0.95134 0.62246 0.8168 0.0
H638 H 0.96221 0.62571 0.72237 0.0
H639 H 0.93155 0.62691 0.80501 0.0
Eu640 Eu 0.44192 0.27254 0.78318 0.0
Eu641 Eu 0.42053 0.28581 0.76882 0.0
C642 C 0.41508 0.26707 0.82826 0.0
C643 C 0.45859 0.24729 0.80333 0.0
C644 C 0.45358 0.24014 0.83112 0.0
C645 C 0.46788 0.23083 0.79216 0.0
C646 C 0.45579 0.22859 0.83937 0.0
C647 C 0.46567 0.24236 0.78395 0.0
C648 C 0.46315 0.22381 0.8202 0.0
C649 C 0.45811 0.26081 0.79564 0.0
O650 O 0.44186 0.30552 0.78189 0.0
O651 O 0.45274 0.29458 0.80687 0.0
C652 C 0.45215 0.30632 0.79956 0.0
O653 O 0.45333 0.28999 0.74568 0.0
O654 O 0.40809 0.29571 0.78423 0.0
O655 O 0.40784 0.29061 0.73712 0.0
O656 O 0.43307 0.28901 0.72607 0.0
C657 C 0.44697 0.2936 0.72432 0.0
O658 O 0.42473 0.25646 0.75119 0.0
O659 O 0.40664 0.26164 0.76055 0.0
O660 O 0.41643 0.2791 0.81736 0.0
O661 O 0.4546 0.26245 0.76838 0.0
O662 O 0.45335 0.26638 0.8157 0.0
O663 O 0.42234 0.2613 0.81581 0.0
C664 C 0.40742 0.31186 0.74984 0.0
C665 C 0.4217 0.32296 0.74442 0.0
C666 C 0.39935 0.32941 0.74837 0.0
C667 C 0.42482 0.33731 0.74147 0.0
C668 C 0.39626 0.31511 0.75124 0.0
C669 C 0.4137 0.34073 0.74399 0.0
C670 C 0.40431 0.2972 0.75724 0.0
C671 C 0.41096 0.25286 0.75007 0.0
H672 H 0.44818 0.24363 0.84685 0.0
H673 H 0.47377 0.22777 0.77679 0.0
H674 H 0.45174 0.22343 0.86093 0.0
H675 H 0.46991 0.24773 0.76263 0.0
H676 H 0.43047 0.32058 0.74347 0.0
H677 H 0.39055 0.33163 0.75113 0.0
H678 H 0.43595 0.34574 0.73795 0.0
H679 H 0.38522 0.30667 0.75577 0.0
Eu680 Eu 0.76735 0.17711 0.78309 0.0
Eu681 Eu 0.75378 0.14256 0.76744 0.0
C682 C 0.77193 0.15514 0.82754 0.0
C683 C 0.79271 0.21899 0.80352 0.0
C684 C 0.79937 0.22148 0.83196 0.0
C685 C 0.80952 0.24451 0.79133 0.0
C686 C 0.81086 0.23529 0.84 0.0
C687 C 0.79808 0.23071 0.7833 0.0
C688 C 0.81602 0.24715 0.82 0.0
C689 C 0.77918 0.20499 0.79597 0.0
O690 O 0.73428 0.14417 0.78234 0.0
O691 O 0.74537 0.16606 0.80703 0.0
C692 C 0.7336 0.15371 0.80007 0.0
O693 O 0.74984 0.17107 0.74585 0.0
O694 O 0.74805 0.12059 0.78071 0.0
O695 O 0.74373 0.1247 0.73545 0.0
O696 O 0.75266 0.15325 0.72469 0.0
C697 C 0.74709 0.16176 0.72358 0.0
O698 O 0.78372 0.17611 0.7516 0.0
O699 O 0.77777 0.15235 0.75769 0.0
O700 O 0.75964 0.14488 0.81658 0.0
O701 O 0.77738 0.1999 0.76861 0.0
O702 O 0.77374 0.19461 0.81595 0.0
O703 O 0.77818 0.16819 0.8152 0.0
C704 C 0.72617 0.10326 0.759 0.0
C705 C 0.71466 0.10601 0.75497 0.0
C706 C 0.70902 0.07876 0.77453 0.0
C707 C 0.7004 0.09516 0.76064 0.0
C708 C 0.72324 0.08955 0.76862 0.0
C709 C 0.69749 0.0815 0.77087 0.0
C710 C 0.74127 0.1149 0.75568 0.0
C711 C 0.78691 0.16567 0.74888 0.0
H712 H 0.79547 0.21284 0.84842 0.0
H713 H 0.81323 0.25316 0.77496 0.0
H714 H 0.81535 0.23676 0.86239 0.0
H715 H 0.79315 0.22931 0.76136 0.0
H716 H 0.71671 0.11661 0.74796 0.0
H717 H 0.70703 0.06823 0.78198 0.0
H718 H 0.6917 0.09754 0.75776 0.0
H719 H 0.73199 0.08728 0.77205 0.0
Eu720 Eu 0.42168 0.14328 0.26577 0.0
Eu721 Eu 0.4425 0.17763 0.2838 0.0
C722 C 0.44787 0.16312 0.22404 0.0
C723 C 0.41011 0.10417 0.25199 0.0
C724 C 0.4048 0.09324 0.2302 0.0
C725 C 0.42173 0.09253 0.27754 0.0
C726 C 0.40777 0.0819 0.23223 0.0
C727 C 0.41883 0.10392 0.27535 0.0
C728 C 0.41605 0.08127 0.25625 0.0
C729 C 0.40709 0.11613 0.24945 0.0
O730 O 0.42537 0.17701 0.25216 0.0
O731 O 0.40754 0.15315 0.2565 0.0
C732 C 0.41179 0.16662 0.24868 0.0
O733 O 0.41637 0.14449 0.31437 0.0
O734 O 0.45555 0.20044 0.26977 0.0
O735 O 0.45328 0.19497 0.3171 0.0
O736 O 0.4227 0.16839 0.3158 0.0
C737 C 0.41509 0.15503 0.32652 0.0
O738 O 0.44223 0.14439 0.28327 0.0
O739 O 0.45331 0.16645 0.30748 0.0
O740 O 0.45434 0.17175 0.24723 0.0
O741 O 0.40478 0.12098 0.27451 0.0
O742 O 0.41568 0.12656 0.23155 0.0
O743 O 0.43372 0.15534 0.22426 0.0
C744 C 0.45897 0.21941 0.30457 0.0
C745 C 0.4536 0.22154 0.3319 0.0
C746 C 0.46856 0.24517 0.29333 0.0
C747 C 0.45577 0.2353 0.33989 0.0
C748 C 0.46638 0.23142 0.28537 0.0
C749 C 0.46346 0.24744 0.32092 0.0
C750 C 0.45852 0.20541 0.29725 0.0
C751 C 0.45246 0.15393 0.301 0.0
H752 H 0.39831 0.09345 0.21168 0.0
H753 H 0.428 0.09232 0.29648 0.0
H754 H 0.40345 0.07353 0.21517 0.0
H755 H 0.42326 0.11243 0.29212 0.0
H756 H 0.44793 0.21262 0.34747 0.0
H757 H 0.47471 0.25413 0.27815 0.0
H758 H 0.45144 0.23641 0.36111 0.0
H759 H 0.47091 0.23029 0.26442 0.0
Eu760 Eu 0.8968 0.28586 0.26738 0.0
Eu761 Eu 0.86227 0.27247 0.28401 0.0
C762 C 0.87747 0.2929 0.2245 0.0
C763 C 0.93558 0.31319 0.25037 0.0
C764 C 0.93208 0.32423 0.25297 0.0
C765 C 0.96104 0.33128 0.24855 0.0
C766 C 0.94305 0.33872 0.25428 0.0
C767 C 0.95007 0.31678 0.24753 0.0
C768 C 0.95765 0.34236 0.25269 0.0
C769 C 0.92427 0.29799 0.25357 0.0
O770 O 0.86308 0.25604 0.25244 0.0
O771 O 0.88677 0.26178 0.25869 0.0
C772 C 0.87343 0.25272 0.24987 0.0
O773 O 0.89485 0.27892 0.31576 0.0
O774 O 0.83953 0.26287 0.2697 0.0
O775 O 0.84484 0.26616 0.31707 0.0
O776 O 0.87096 0.26143 0.31618 0.0
C777 C 0.8842 0.26707 0.32744 0.0
O778 O 0.89519 0.30541 0.28215 0.0
O779 O 0.87366 0.29437 0.30813 0.0
O780 O 0.86826 0.29009 0.24701 0.0
O781 O 0.91925 0.29416 0.28072 0.0
O782 O 0.91395 0.29309 0.23366 0.0
O783 O 0.88603 0.28739 0.22518 0.0
C784 C 0.82016 0.24853 0.30455 0.0
C785 C 0.81836 0.23486 0.31167 0.0
C786 C 0.7942 0.23865 0.31333 0.0
C787 C 0.80457 0.22318 0.31953 0.0
C788 C 0.8079 0.25023 0.30546 0.0
C789 C 0.7922 0.22487 0.3205 0.0
C790 C 0.83451 0.26142 0.29704 0.0
C791 C 0.88588 0.30613 0.30053 0.0
H792 H 0.92091 0.32159 0.25502 0.0
H793 H 0.97221 0.33374 0.24772 0.0
H794 H 0.94014 0.34704 0.25732 0.0
H795 H 0.95292 0.30837 0.24569 0.0
H796 H 0.82761 0.23321 0.31123 0.0
H797 H 0.78521 0.24067 0.31432 0.0
H798 H 0.8036 0.21279 0.32454 0.0
H799 H 0.80895 0.26066 0.30037 0.0
Eu800 Eu 0.75411 0.61853 0.26583 0.0
Eu801 Eu 0.76726 0.59726 0.2823 0.0
C802 C 0.7466 0.5919 0.22283 0.0
C803 C 0.72771 0.62983 0.24023 0.0
C804 C 0.7171 0.61514 0.23748 0.0
C805 C 0.70985 0.63662 0.22734 0.0
C806 C 0.70281 0.6112 0.23046 0.0
C807 C 0.72409 0.64053 0.23455 0.0
C808 C 0.69899 0.62191 0.22585 0.0
C809 C 0.7422 0.63393 0.25128 0.0
O810 O 0.78373 0.61446 0.25074 0.0
O811 O 0.77832 0.63253 0.25833 0.0
C812 C 0.78726 0.6282 0.24888 0.0
O813 O 0.76153 0.6242 0.31373 0.0
O814 O 0.77743 0.58464 0.26812 0.0
O815 O 0.77283 0.58546 0.31524 0.0
O816 O 0.77831 0.61679 0.31507 0.0
C817 C 0.773 0.62479 0.32596 0.0
O818 O 0.73444 0.59725 0.27956 0.0
O819 O 0.74532 0.58684 0.30622 0.0
O820 O 0.74975 0.58561 0.24505 0.0
O821 O 0.74257 0.62975 0.27862 0.0
O822 O 0.75037 0.63157 0.23303 0.0
O823 O 0.75172 0.60591 0.22366 0.0
C824 C 0.79104 0.57905 0.30377 0.0
C825 C 0.80538 0.59069 0.30286 0.0
C826 C 0.80033 0.56335 0.32066 0.0
C827 C 0.81709 0.58864 0.31079 0.0
C828 C 0.78871 0.56542 0.31286 0.0
C829 C 0.81477 0.57488 0.31967 0.0
C830 C 0.77822 0.58046 0.29531 0.0
C831 C 0.7336 0.58726 0.29819 0.0
H832 H 0.71978 0.60673 0.24172 0.0
H833 H 0.7072 0.64513 0.22444 0.0
H834 H 0.6947 0.59981 0.22934 0.0
H835 H 0.73215 0.6519 0.23673 0.0
H836 H 0.80753 0.60133 0.29591 0.0
H837 H 0.79792 0.55266 0.32787 0.0
H838 H 0.82799 0.5978 0.30946 0.0
H839 H 0.77779 0.55625 0.31393 0.0
Eu840 Eu 0.485 0.08033 0.94989 0.0
Eu841 Eu 0.51944 0.10132 0.9325 0.0
C842 C 0.50453 0.10639 0.99236 0.0
C843 C 0.44554 0.06802 0.96094 0.0
C844 C 0.44811 0.08231 0.96013 0.0
C845 C 0.4201 0.05909 0.95136 0.0
C846 C 0.43671 0.08497 0.95481 0.0
C847 C 0.43147 0.05644 0.95681 0.0
C848 C 0.42264 0.07337 0.94991 0.0
C849 C 0.45758 0.06516 0.96403 0.0
O850 O 0.51889 0.08416 0.964 0.0
O851 O 0.49499 0.06635 0.9597 0.0
C852 C 0.50845 0.07059 0.9676 0.0
O853 O 0.48677 0.0756 0.90122 0.0
O854 O 0.54222 0.11451 0.9464 0.0
O855 O 0.53674 0.11231 0.89909 0.0
O856 O 0.51047 0.08137 0.90096 0.0
C857 C 0.49719 0.0739 0.88985 0.0
O858 O 0.48626 0.10113 0.93366 0.0
O859 O 0.50804 0.11188 0.90851 0.0
O860 O 0.51338 0.1129 0.96943 0.0
O861 O 0.46289 0.06357 0.93892 0.0
O862 O 0.46769 0.07333 0.98301 0.0
O863 O 0.49647 0.09227 0.99191 0.0
C864 C 0.5615 0.1195 0.91128 0.0
C865 C 0.56353 0.10759 0.9063 0.0
C866 C 0.58723 0.13563 0.90039 0.0
C867 C 0.57734 0.10972 0.89845 0.0
C868 C 0.57352 0.13349 0.90821 0.0
C869 C 0.58948 0.12382 0.89539 0.0
C870 C 0.54713 0.11798 0.91896 0.0
C871 C 0.49568 0.11125 0.91558 0.0
H872 H 0.45896 0.09141 0.96307 0.0
H873 H 0.4093 0.04994 0.94813 0.0
H874 H 0.43897 0.09607 0.95366 0.0
H875 H 0.42932 0.04537 0.95728 0.0
H876 H 0.55447 0.09666 0.90844 0.0
H877 H 0.59604 0.14665 0.89775 0.0
H878 H 0.57852 0.10029 0.89513 0.0
H879 H 0.57228 0.14289 0.91166 0.0
Eu880 Eu 0.96039 0.41228 0.94628 0.0
Eu881 Eu 0.93904 0.42558 0.93148 0.0
C882 C 0.93405 0.40473 0.99064 0.0
C883 C 0.97278 0.38559 0.96322 0.0
C884 C 0.95845 0.37478 0.96934 0.0
C885 C 0.97993 0.36735 0.9611 0.0
C886 C 0.95485 0.36024 0.97101 0.0
C887 C 0.98352 0.38183 0.95957 0.0
C888 C 0.96552 0.35639 0.96621 0.0
C889 C 0.9763 0.40052 0.95736 0.0
O890 O 0.95636 0.44197 0.96288 0.0
O891 O 0.97431 0.43634 0.95537 0.0
C892 C 0.97005 0.44533 0.96486 0.0
O893 O 0.96499 0.41958 0.89813 0.0
O894 O 0.92661 0.43591 0.94592 0.0
O895 O 0.92693 0.43091 0.89884 0.0
O896 O 0.95874 0.43715 0.89936 0.0
C897 C 0.96637 0.43167 0.88747 0.0
O898 O 0.93908 0.39262 0.93301 0.0
O899 O 0.92855 0.40366 0.90729 0.0
O900 O 0.9277 0.4082 0.96907 0.0
O901 O 0.97311 0.40276 0.93041 0.0
O902 O 0.97251 0.4067 0.97792 0.0
O903 O 0.94798 0.40938 0.98907 0.0
C904 C 0.92066 0.44925 0.91016 0.0
C905 C 0.93178 0.46371 0.91392 0.0
C906 C 0.90514 0.45821 0.89045 0.0
C907 C 0.92956 0.47532 0.906 0.0
C908 C 0.90739 0.4467 0.8982 0.0
C909 C 0.91612 0.47276 0.89434 0.0
C910 C 0.92218 0.4365 0.91886 0.0
C911 C 0.92897 0.39188 0.91489 0.0
H912 H 0.95 0.37754 0.9719 0.0
H913 H 0.98842 0.36468 0.95785 0.0
H914 H 0.94367 0.352 0.97491 0.0
H915 H 0.9946 0.39005 0.95467 0.0
H916 H 0.94214 0.46604 0.92314 0.0
H917 H 0.89475 0.45565 0.88107 0.0
H918 H 0.93828 0.4863 0.90957 0.0
H919 H 0.89863 0.43569 0.89493 0.0
Eu920 Eu 0.62756 0.55566 0.94666 0.0
Eu921 Eu 0.614 0.52125 0.92978 0.0
C922 C 0.63463 0.53617 0.98939 0.0
C923 C 0.65421 0.59312 0.97332 0.0
C924 C 0.66474 0.58893 0.97613 0.0
C925 C 0.672 0.61756 0.98762 0.0
C926 C 0.67897 0.59913 0.9839 0.0
C927 C 0.65782 0.60738 0.97968 0.0
C928 C 0.6828 0.61362 0.98919 0.0
C929 C 0.63979 0.58293 0.96165 0.0
O930 O 0.5978 0.52225 0.96172 0.0
O931 O 0.60337 0.54576 0.95403 0.0
C932 C 0.59438 0.53254 0.96356 0.0
O933 O 0.62015 0.55417 0.8988 0.0
O934 O 0.60397 0.49844 0.94403 0.0
O935 O 0.60759 0.50381 0.89675 0.0
O936 O 0.60312 0.53008 0.89738 0.0
C937 C 0.60857 0.54341 0.88658 0.0
O938 O 0.64702 0.55362 0.93305 0.0
O939 O 0.63588 0.53257 0.9056 0.0
O940 O 0.63149 0.52683 0.96697 0.0
O941 O 0.63962 0.57845 0.93431 0.0
O942 O 0.63133 0.57239 0.97959 0.0
O943 O 0.62959 0.54512 0.98871 0.0
C944 C 0.58861 0.47943 0.90907 0.0
C945 C 0.58158 0.47719 0.88111 0.0
C946 C 0.57203 0.45378 0.92065 0.0
C947 C 0.57003 0.46343 0.87299 0.0
C948 C 0.58355 0.46752 0.92874 0.0
C949 C 0.56514 0.45139 0.89245 0.0
C950 C 0.60215 0.4934 0.91663 0.0
C951 C 0.64772 0.54452 0.91401 0.0
H952 H 0.66206 0.57789 0.97138 0.0
H953 H 0.67465 0.62869 0.99102 0.0
H954 H 0.68704 0.59579 0.98505 0.0
H955 H 0.64981 0.61076 0.97749 0.0
H956 H 0.58518 0.486 0.86516 0.0
H957 H 0.56887 0.4449 0.93625 0.0
H958 H 0.56498 0.46224 0.85129 0.0
H959 H 0.58883 0.46872 0.9502 0.0
Eu960 Eu 0.60621 0.85473 0.7639 0.0
Eu961 Eu 0.62738 0.88913 0.78067 0.0
C962 C 0.63362 0.87663 0.72029 0.0
C963 C 0.58774 0.81253 0.74365 0.0
C964 C 0.59951 0.81055 0.7365 0.0
C965 C 0.57145 0.78659 0.7354 0.0
C966 C 0.59723 0.79667 0.72888 0.0
C967 C 0.57374 0.80038 0.74302 0.0
C968 C 0.58312 0.7844 0.72821 0.0
C969 C 0.58938 0.82698 0.75103 0.0
O970 O 0.60616 0.88759 0.76663 0.0
O971 O 0.59571 0.86621 0.74018 0.0
C972 C 0.59615 0.87839 0.74809 0.0
O973 O 0.59453 0.86065 0.80099 0.0
O974 O 0.63929 0.91181 0.76745 0.0
O975 O 0.63977 0.90598 0.81381 0.0
O976 O 0.61479 0.87878 0.82289 0.0
C977 C 0.6008 0.86987 0.82354 0.0
O978 O 0.62336 0.85542 0.7955 0.0
O979 O 0.64141 0.87893 0.78821 0.0
O980 O 0.63284 0.88741 0.73256 0.0
O981 O 0.59299 0.83202 0.77832 0.0
O982 O 0.59502 0.83727 0.73092 0.0
O983 O 0.62579 0.86333 0.7312 0.0
C984 C 0.63894 0.92725 0.80415 0.0
C985 C 0.6243 0.92343 0.80651 0.0
C986 C 0.64604 0.95231 0.81337 0.0
C987 C 0.62055 0.93409 0.81162 0.0
C988 C 0.64977 0.94166 0.80814 0.0
C989 C 0.63139 0.94868 0.81458 0.0
C990 C 0.64287 0.91648 0.7949 0.0
C991 C 0.63709 0.86565 0.79749 0.0
H992 H 0.61044 0.81972 0.73675 0.0
H993 H 0.56041 0.77767 0.73462 0.0
H994 H 0.60657 0.79555 0.72384 0.0
H995 H 0.56445 0.80157 0.74816 0.0
H996 H 0.6158 0.91229 0.80345 0.0
H997 H 0.65466 0.96348 0.81498 0.0
H998 H 0.60919 0.93097 0.81258 0.0
H999 H 0.6611 0.94477 0.80615 0.0
Eu1000 Eu 0.18617 0.76039 0.76429 0.0
Eu1001 Eu 0.15147 0.74708 0.77839 0.0
C1002 C 0.16487 0.7659 0.71907 0.0
C1003 C 0.22794 0.78539 0.74261 0.0
C1004 C 0.23439 0.79829 0.7596 0.0
C1005 C 0.24929 0.79625 0.70979 0.0
C1006 C 0.24817 0.80998 0.7518 0.0
C1007 C 0.23556 0.78465 0.71748 0.0
C1008 C 0.25598 0.80909 0.72697 0.0
C1009 C 0.21407 0.77212 0.75176 0.0
O1010 O 0.15303 0.72736 0.76505 0.0
O1011 O 0.1751 0.73827 0.74103 0.0
C1012 C 0.16268 0.72657 0.74785 0.0
O1013 O 0.18016 0.7429 0.80167 0.0
O1014 O 0.12915 0.73695 0.76282 0.0
O1015 O 0.13396 0.7426 0.80978 0.0
O1016 O 0.16059 0.74348 0.82102 0.0
C1017 C 0.17006 0.73908 0.8228 0.0
O1018 O 0.18491 0.77621 0.79673 0.0
O1019 O 0.16177 0.77123 0.78684 0.0
O1020 O 0.15417 0.75388 0.72993 0.0
O1021 O 0.20893 0.77129 0.77881 0.0
O1022 O 0.20375 0.76585 0.73186 0.0
O1023 O 0.17787 0.77163 0.73155 0.0
C1024 C 0.11251 0.72098 0.79763 0.0
C1025 C 0.11602 0.7109 0.80963 0.0
C1026 C 0.08744 0.70209 0.79351 0.0
C1027 C 0.10523 0.69641 0.81338 0.0
C1028 C 0.09816 0.71654 0.79004 0.0
C1029 C 0.09093 0.69185 0.80466 0.0
C1030 C 0.12388 0.73566 0.78976 0.0
C1031 C 0.1748 0.77989 0.7977 0.0
H1032 H 0.22894 0.79926 0.77926 0.0
H1033 H 0.2547 0.79511 0.69023 0.0
H1034 H 0.25288 0.81957 0.76583 0.0
H1035 H 0.231 0.77488 0.70399 0.0
H1036 H 0.12713 0.71414 0.81523 0.0
H1037 H 0.07643 0.69886 0.78704 0.0
H1038 H 0.10815 0.68869 0.82196 0.0
H1039 H 0.09532 0.72417 0.78056 0.0
Eu1040 Eu 0.27981 0.43518 0.76641 0.0
Eu1041 Eu 0.29316 0.4142 0.78719 0.0
C1042 C 0.27294 0.40567 0.72693 0.0
C1043 C 0.25493 0.45227 0.74677 0.0
C1044 C 0.24456 0.44321 0.72547 0.0
C1045 C 0.24143 0.46521 0.75243 0.0
C1046 C 0.23281 0.4452 0.71766 0.0
C1047 C 0.25308 0.46317 0.76029 0.0
C1048 C 0.23116 0.45639 0.7307 0.0
C1049 C 0.26837 0.45157 0.75358 0.0
O1050 O 0.3124 0.43458 0.76792 0.0
O1051 O 0.30178 0.44584 0.74304 0.0
C1052 C 0.3133 0.44481 0.74985 0.0
O1053 O 0.29758 0.44709 0.80315 0.0
O1054 O 0.30281 0.40091 0.77701 0.0
O1055 O 0.30019 0.40523 0.82345 0.0
O1056 O 0.29344 0.42682 0.82774 0.0
C1057 C 0.29973 0.44093 0.82699 0.0
O1058 O 0.26232 0.41746 0.79565 0.0
O1059 O 0.26926 0.40016 0.79726 0.0
O1060 O 0.28192 0.40378 0.74396 0.0
O1061 O 0.2704 0.44849 0.78093 0.0
O1062 O 0.27325 0.44612 0.7335 0.0
O1063 O 0.27034 0.41649 0.73155 0.0
C1064 C 0.32111 0.40409 0.81086 0.0
C1065 C 0.32421 0.39678 0.83317 0.0
C1066 C 0.34654 0.41721 0.79682 0.0
C1067 C 0.33833 0.39938 0.83677 0.0
C1068 C 0.33244 0.4147 0.79344 0.0
C1069 C 0.34955 0.40922 0.81785 0.0
C1070 C 0.306 0.4001 0.80496 0.0
C1071 C 0.25955 0.40417 0.80169 0.0
H1072 H 0.24567 0.43475 0.71442 0.0
H1073 H 0.24051 0.47377 0.76347 0.0
H1074 H 0.22526 0.43821 0.70072 0.0
H1075 H 0.26088 0.47039 0.77666 0.0
H1076 H 0.31562 0.38872 0.84712 0.0
H1077 H 0.35487 0.42479 0.78174 0.0
H1078 H 0.34036 0.39325 0.85359 0.0
H1079 H 0.3303 0.42061 0.77631 0.0
Eu1080 Eu 0.53002 0.93132 0.11799 0.0
Eu1081 Eu 0.56453 0.95222 0.10154 0.0
C1082 C 0.55192 0.95885 0.16146 0.0
C1083 C 0.48815 0.9148 0.13817 0.0
C1084 C 0.48564 0.91892 0.16666 0.0
C1085 C 0.46268 0.90627 0.12584 0.0
C1086 C 0.47184 0.91666 0.17465 0.0
C1087 C 0.47646 0.90855 0.11786 0.0
C1088 C 0.46002 0.91009 0.15455 0.0
C1089 C 0.50213 0.91523 0.13061 0.0
O1090 O 0.56257 0.93081 0.1155 0.0
O1091 O 0.54125 0.92064 0.14213 0.0
C1092 C 0.55333 0.9209 0.13417 0.0
O1093 O 0.53584 0.91955 0.08092 0.0
O1094 O 0.58722 0.96347 0.11466 0.0
O1095 O 0.58145 0.96466 0.06856 0.0
O1096 O 0.55401 0.93985 0.05924 0.0
C1097 C 0.54511 0.92585 0.05845 0.0
O1098 O 0.53112 0.94871 0.08647 0.0
O1099 O 0.5547 0.96653 0.09394 0.0
O1100 O 0.5628 0.95822 0.14924 0.0
O1101 O 0.50728 0.91864 0.10332 0.0
O1102 O 0.51246 0.92005 0.15066 0.0
O1103 O 0.53861 0.95084 0.15071 0.0
C1104 C 0.60246 0.96322 0.07733 0.0
C1105 C 0.59845 0.94854 0.07456 0.0
C1106 C 0.62739 0.97006 0.06728 0.0
C1107 C 0.60896 0.94463 0.06889 0.0
C1108 C 0.6169 0.97394 0.07307 0.0
C1109 C 0.62359 0.95537 0.06576 0.0
C1110 C 0.5919 0.96731 0.08728 0.0
C1111 C 0.54147 0.96239 0.08459 0.0
H1112 H 0.49424 0.92357 0.18317 0.0
H1113 H 0.45405 0.90141 0.10941 0.0
H1114 H 0.47034 0.91964 0.19708 0.0
H1115 H 0.47788 0.90507 0.09587 0.0
H1116 H 0.58728 0.94012 0.07779 0.0
H1117 H 0.63859 0.9786 0.06554 0.0
H1118 H 0.6057 0.93325 0.06769 0.0
H1119 H 0.62015 0.9853 0.07534 0.0
Eu1120 Eu 0.10943 0.60611 0.1149 0.0
Eu1121 Eu 0.08836 0.61967 0.09975 0.0
C1122 C 0.08259 0.6009 0.15919 0.0
C1123 C 0.12729 0.5818 0.13438 0.0
C1124 C 0.1158 0.56894 0.14626 0.0
C1125 C 0.14284 0.57101 0.13849 0.0
C1126 C 0.11783 0.55722 0.15418 0.0
C1127 C 0.14077 0.58262 0.13052 0.0
C1128 C 0.13144 0.55805 0.15055 0.0
C1129 C 0.12603 0.59486 0.12732 0.0
O1130 O 0.10947 0.63914 0.11453 0.0
O1131 O 0.12011 0.62793 0.13938 0.0
C1132 C 0.1196 0.63974 0.1324 0.0
O1133 O 0.12084 0.62377 0.07791 0.0
O1134 O 0.07275 0.62606 0.11404 0.0
O1135 O 0.07976 0.629 0.06776 0.0
O1136 O 0.10026 0.62118 0.05688 0.0
C1137 C 0.11433 0.62664 0.05575 0.0
O1138 O 0.09205 0.58974 0.08351 0.0
O1139 O 0.07425 0.59572 0.08984 0.0
O1140 O 0.08445 0.61318 0.14855 0.0
O1141 O 0.12261 0.59659 0.10005 0.0
O1142 O 0.12047 0.59954 0.14756 0.0
O1143 O 0.08967 0.59492 0.14687 0.0
C1144 C 0.07671 0.64731 0.09032 0.0
C1145 C 0.091 0.65861 0.08572 0.0
C1146 C 0.06971 0.66489 0.10451 0.0
C1147 C 0.09462 0.67301 0.09053 0.0
C1148 C 0.06608 0.65055 0.09946 0.0
C1149 C 0.08404 0.67624 0.10046 0.0
C1150 C 0.07309 0.63211 0.08843 0.0
C1151 C 0.07843 0.58658 0.08093 0.0
H1152 H 0.10528 0.56798 0.14961 0.0
H1153 H 0.15356 0.5724 0.1358 0.0
H1154 H 0.10868 0.54747 0.16299 0.0
H1155 H 0.14988 0.59244 0.12174 0.0
H1156 H 0.09943 0.6563 0.07906 0.0
H1157 H 0.0613 0.66713 0.11173 0.0
H1158 H 0.10573 0.68156 0.08734 0.0
H1159 H 0.05504 0.64195 0.10333 0.0
Eu1160 Eu 0.43391 0.51076 0.11709 0.0
Eu1161 Eu 0.42056 0.47623 0.10144 0.0
C1162 C 0.43958 0.48908 0.16114 0.0
C1163 C 0.4592 0.55259 0.13724 0.0
C1164 C 0.46633 0.55482 0.16506 0.0
C1165 C 0.4757 0.57824 0.12563 0.0
C1166 C 0.4779 0.56857 0.17311 0.0
C1167 C 0.46417 0.5645 0.1176 0.0
C1168 C 0.48267 0.58061 0.15372 0.0
C1169 C 0.44565 0.53864 0.12975 0.0
O1170 O 0.40099 0.478 0.11522 0.0
O1171 O 0.41197 0.49955 0.14104 0.0
C1172 C 0.40022 0.48735 0.1334 0.0
O1173 O 0.41634 0.50496 0.08004 0.0
O1174 O 0.40937 0.45362 0.11522 0.0
O1175 O 0.41645 0.45917 0.06911 0.0
O1176 O 0.41759 0.48607 0.05923 0.0
C1177 C 0.41282 0.49526 0.05821 0.0
O1178 O 0.45002 0.50974 0.08496 0.0
O1179 O 0.44472 0.48636 0.09335 0.0
O1180 O 0.4279 0.47825 0.14946 0.0
O1181 O 0.44389 0.53351 0.10244 0.0
O1182 O 0.44019 0.52829 0.1498 0.0
O1183 O 0.44503 0.50228 0.14968 0.0
C1184 C 0.39409 0.43811 0.07803 0.0
C1185 C 0.38337 0.44203 0.07478 0.0
C1186 C 0.3762 0.41312 0.06816 0.0
C1187 C 0.36903 0.43144 0.06892 0.0
C1188 C 0.3905 0.42369 0.07415 0.0
C1189 C 0.36525 0.41683 0.06607 0.0
C1190 C 0.40867 0.44881 0.08802 0.0
C1191 C 0.45357 0.49953 0.08337 0.0
H1192 H 0.46275 0.54601 0.18104 0.0
H1193 H 0.4791 0.58704 0.10973 0.0
H1194 H 0.48278 0.56985 0.19505 0.0
H1195 H 0.45888 0.56328 0.09614 0.0
H1196 H 0.38603 0.45318 0.07773 0.0
H1197 H 0.37362 0.40193 0.06664 0.0
H1198 H 0.36085 0.43463 0.06729 0.0
H1199 H 0.39865 0.42051 0.07681 0.0
Eu1200 Eu 0.08692 0.47721 0.60571 0.0
Eu1201 Eu 0.10919 0.51207 0.61718 0.0
C1202 C 0.11526 0.49383 0.56299 0.0
C1203 C 0.07402 0.43767 0.60175 0.0
C1204 C 0.0885 0.44091 0.59964 0.0
C1205 C 0.06666 0.41271 0.6129 0.0
C1206 C 0.09205 0.43008 0.60429 0.0
C1207 C 0.06312 0.42351 0.60808 0.0
C1208 C 0.08118 0.41594 0.61151 0.0
C1209 C 0.0705 0.4493 0.60043 0.0
O1210 O 0.08874 0.51043 0.5977 0.0
O1211 O 0.07851 0.48826 0.57443 0.0
C1212 C 0.07916 0.5008 0.57912 0.0
O1213 O 0.07477 0.48416 0.63616 0.0
O1214 O 0.11919 0.53463 0.60196 0.0
O1215 O 0.12378 0.53006 0.64677 0.0
O1216 O 0.09421 0.50292 0.65919 0.0
C1217 C 0.08024 0.49298 0.65896 0.0
O1218 O 0.10423 0.47851 0.63795 0.0
O1219 O 0.12263 0.5018 0.62999 0.0
O1220 O 0.11744 0.50663 0.57278 0.0
O1221 O 0.07234 0.45622 0.62571 0.0
O1222 O 0.07566 0.45803 0.57738 0.0
O1223 O 0.10528 0.48174 0.57511 0.0
C1224 C 0.12714 0.55396 0.63841 0.0
C1225 C 0.11664 0.55798 0.63241 0.0
C1226 C 0.14205 0.57757 0.66245 0.0
C1227 C 0.11888 0.57169 0.64127 0.0
C1228 C 0.13977 0.56389 0.65378 0.0
C1229 C 0.13174 0.58182 0.65611 0.0
C1230 C 0.12591 0.54011 0.62729 0.0
C1231 C 0.11805 0.48852 0.63961 0.0
H1232 H 0.09709 0.45189 0.5952 0.0
H1233 H 0.05805 0.40183 0.61798 0.0
H1234 H 0.10331 0.43285 0.60324 0.0
H1235 H 0.05193 0.42089 0.61001 0.0
H1236 H 0.10682 0.55063 0.62046 0.0
H1237 H 0.15196 0.58483 0.67424 0.0
H1238 H 0.11069 0.57451 0.63575 0.0
H1239 H 0.14809 0.56116 0.65868 0.0
Eu1240 Eu 0.56301 0.6195 0.602 0.0
Eu1241 Eu 0.52838 0.60595 0.61731 0.0
C1242 C 0.54392 0.62613 0.55782 0.0
C1243 C 0.60237 0.64707 0.59475 0.0
C1244 C 0.59965 0.65866 0.59185 0.0
C1245 C 0.62688 0.66393 0.61064 0.0
C1246 C 0.61052 0.67281 0.59828 0.0
C1247 C 0.61606 0.64981 0.60399 0.0
C1248 C 0.62418 0.67554 0.60811 0.0
C1249 C 0.59069 0.63205 0.59056 0.0
O1250 O 0.52946 0.58961 0.58586 0.0
O1251 O 0.55322 0.59556 0.59206 0.0
C1252 C 0.53991 0.58644 0.5832 0.0
O1253 O 0.56049 0.61351 0.65111 0.0
O1254 O 0.50559 0.59588 0.60275 0.0
O1255 O 0.51085 0.5996 0.65008 0.0
O1256 O 0.53719 0.59497 0.64921 0.0
C1257 C 0.55019 0.60116 0.66176 0.0
O1258 O 0.56135 0.63897 0.61675 0.0
O1259 O 0.53943 0.62792 0.64136 0.0
O1260 O 0.5346 0.62348 0.58004 0.0
O1261 O 0.58489 0.62489 0.61519 0.0
O1262 O 0.58099 0.62995 0.57038 0.0
O1263 O 0.55231 0.62042 0.55909 0.0
C1264 C 0.48651 0.58056 0.63774 0.0
C1265 C 0.48421 0.57366 0.66589 0.0
C1266 C 0.46087 0.5639 0.62616 0.0
C1267 C 0.47044 0.56213 0.67409 0.0
C1268 C 0.47463 0.57539 0.61797 0.0
C1269 C 0.45843 0.55716 0.65455 0.0
C1270 C 0.50049 0.59411 0.6301 0.0
C1271 C 0.5518 0.63968 0.63441 0.0
H1272 H 0.58907 0.65674 0.5851 0.0
H1273 H 0.6374 0.66578 0.61773 0.0
H1274 H 0.60816 0.68156 0.59627 0.0
H1275 H 0.6183 0.641 0.60654 0.0
H1276 H 0.49297 0.5774 0.682 0.0
H1277 H 0.45211 0.56035 0.61013 0.0
H1278 H 0.46913 0.55746 0.69626 0.0
H1279 H 0.47588 0.58049 0.59627 0.0
Eu1280 Eu 0.4214 0.9532 0.60634 0.0
Eu1281 Eu 0.4345 0.93136 0.61792 0.0
C1282 C 0.41017 0.92494 0.56374 0.0
C1283 C 0.39398 0.96493 0.5995 0.0
C1284 C 0.38327 0.95044 0.6045 0.0
C1285 C 0.37543 0.97168 0.59752 0.0
C1286 C 0.36871 0.94662 0.60646 0.0
C1287 C 0.39 0.9755 0.59573 0.0
C1288 C 0.36465 0.95723 0.60322 0.0
C1289 C 0.4093 0.96902 0.59962 0.0
O1290 O 0.45321 0.95198 0.59895 0.0
O1291 O 0.44109 0.96196 0.5755 0.0
C1292 C 0.45308 0.96153 0.58042 0.0
O1293 O 0.4402 0.96566 0.63721 0.0
O1294 O 0.44729 0.92159 0.60277 0.0
O1295 O 0.43804 0.91684 0.64752 0.0
O1296 O 0.44021 0.94643 0.65985 0.0
C1297 C 0.44385 0.96032 0.65979 0.0
O1298 O 0.40588 0.93603 0.63946 0.0
O1299 O 0.41074 0.91771 0.63033 0.0
O1300 O 0.42115 0.92324 0.57304 0.0
O1301 O 0.41409 0.96727 0.62537 0.0
O1302 O 0.4135 0.96417 0.57706 0.0
O1303 O 0.40758 0.93447 0.57653 0.0
C1304 C 0.45868 0.9136 0.63913 0.0
C1305 C 0.47319 0.92449 0.63456 0.0
C1306 C 0.46751 0.89845 0.66157 0.0
C1307 C 0.48472 0.92233 0.64336 0.0
C1308 C 0.45605 0.90065 0.65299 0.0
C1309 C 0.48208 0.90917 0.65667 0.0
C1310 C 0.44604 0.91482 0.62805 0.0
C1311 C 0.40205 0.92219 0.64058 0.0
H1312 H 0.38622 0.94214 0.60739 0.0
H1313 H 0.37266 0.98014 0.59544 0.0
H1314 H 0.36065 0.93542 0.61071 0.0
H1315 H 0.39816 0.98672 0.592 0.0
H1316 H 0.47562 0.93457 0.62379 0.0
H1317 H 0.4649 0.88828 0.67217 0.0
H1318 H 0.49573 0.93084 0.63897 0.0
H1319 H 0.44501 0.89203 0.65677 0.0
Eu1320 Eu 0.15133 0.4143 0.28527 0.0
Eu1321 Eu 0.18556 0.43461 0.26509 0.0
C1322 C 0.17176 0.44104 0.32503 0.0
C1323 C 0.11401 0.4058 0.30828 0.0
C1324 C 0.11534 0.41786 0.29261 0.0
C1325 C 0.09208 0.4026 0.33186 0.0
C1326 C 0.10486 0.42196 0.29578 0.0
C1327 C 0.10254 0.39843 0.3285 0.0
C1328 C 0.09294 0.41415 0.31487 0.0
C1329 C 0.12436 0.40074 0.30289 0.0
O1330 O 0.18491 0.41743 0.29673 0.0
O1331 O 0.16085 0.39986 0.29436 0.0
C1332 C 0.1744 0.40397 0.30118 0.0
O1333 O 0.15189 0.40604 0.23901 0.0
O1334 O 0.20842 0.44765 0.27862 0.0
O1335 O 0.20277 0.44521 0.23142 0.0
O1336 O 0.17629 0.41469 0.23338 0.0
C1337 C 0.16266 0.40575 0.2253 0.0
O1338 O 0.15323 0.43533 0.26839 0.0
O1339 O 0.17405 0.44475 0.24017 0.0
O1340 O 0.18017 0.44708 0.30129 0.0
O1341 O 0.12835 0.40122 0.27503 0.0
O1342 O 0.13525 0.40552 0.3214 0.0
O1343 O 0.16378 0.42693 0.32578 0.0
C1344 C 0.22728 0.45092 0.24356 0.0
C1345 C 0.22983 0.4469 0.215 0.0
C1346 C 0.25272 0.45939 0.25601 0.0
C1347 C 0.24364 0.44919 0.20703 0.0
C1348 C 0.23893 0.45709 0.26397 0.0
C1349 C 0.25542 0.45568 0.22723 0.0
C1350 C 0.2133 0.4505 0.25105 0.0
C1351 C 0.16215 0.44475 0.24857 0.0
H1352 H 0.12422 0.42379 0.27712 0.0
H1353 H 0.0829 0.39629 0.34647 0.0
H1354 H 0.1058 0.43093 0.28254 0.0
H1355 H 0.10143 0.38919 0.34095 0.0
H1356 H 0.22126 0.44234 0.19841 0.0
H1357 H 0.26132 0.46419 0.2725 0.0
H1358 H 0.24517 0.44629 0.18455 0.0
H1359 H 0.23748 0.4605 0.28601 0.0
Eu1360 Eu 0.62709 0.74517 0.28153 0.0
Eu1361 Eu 0.60629 0.75888 0.26478 0.0
C1362 C 0.60118 0.73884 0.32454 0.0
C1363 C 0.63949 0.71797 0.28953 0.0
C1364 C 0.62527 0.70619 0.28757 0.0
C1365 C 0.64878 0.70197 0.27748 0.0
C1366 C 0.62283 0.69237 0.28052 0.0
C1367 C 0.65121 0.71576 0.28463 0.0
C1368 C 0.63457 0.69016 0.27506 0.0
C1369 C 0.64211 0.73267 0.29495 0.0
O1370 O 0.62348 0.77524 0.2964 0.0
O1371 O 0.64124 0.76914 0.29138 0.0
C1372 C 0.63704 0.77835 0.29962 0.0
O1373 O 0.63096 0.75085 0.23231 0.0
O1374 O 0.59347 0.7689 0.27894 0.0
O1375 O 0.59544 0.76544 0.23163 0.0
O1376 O 0.62611 0.76939 0.23276 0.0
C1377 C 0.63296 0.76307 0.2209 0.0
O1378 O 0.60624 0.72578 0.2652 0.0
O1379 O 0.59526 0.73689 0.2411 0.0
O1380 O 0.59466 0.74131 0.30179 0.0
O1381 O 0.6445 0.74063 0.27109 0.0
O1382 O 0.63325 0.73374 0.31357 0.0
O1383 O 0.6153 0.74476 0.32384 0.0
C1384 C 0.58998 0.7844 0.244 0.0
C1385 C 0.5944 0.7912 0.21573 0.0
C1386 C 0.58124 0.80122 0.25601 0.0
C1387 C 0.59217 0.80275 0.20767 0.0
C1388 C 0.58347 0.78969 0.26404 0.0
C1389 C 0.58537 0.80787 0.22751 0.0
C1390 C 0.59038 0.77082 0.2515 0.0
C1391 C 0.59597 0.72515 0.24768 0.0
H1392 H 0.61606 0.70771 0.29109 0.0
H1393 H 0.65804 0.70052 0.27384 0.0
H1394 H 0.61179 0.6835 0.27864 0.0
H1395 H 0.66223 0.72473 0.28598 0.0
H1396 H 0.59934 0.78741 0.19948 0.0
H1397 H 0.57579 0.80457 0.27191 0.0
H1398 H 0.59575 0.80761 0.18571 0.0
H1399 H 0.57966 0.78459 0.28576 0.0
Eu1400 Eu 0.29469 0.88854 0.28217 0.0
Eu1401 Eu 0.28129 0.85423 0.26424 0.0
C1402 C 0.30192 0.86889 0.32355 0.0
C1403 C 0.322 0.92622 0.30748 0.0
C1404 C 0.32441 0.9354 0.33199 0.0
C1405 C 0.34794 0.9383 0.2984 0.0
C1406 C 0.33849 0.9462 0.33925 0.0
C1407 C 0.3339 0.92741 0.2914 0.0
C1408 C 0.35037 0.94811 0.32185 0.0
C1409 C 0.30709 0.9156 0.29861 0.0
O1410 O 0.26495 0.85499 0.29623 0.0
O1411 O 0.27055 0.8786 0.28985 0.0
C1412 C 0.26152 0.86526 0.29866 0.0
O1413 O 0.28683 0.88738 0.23477 0.0
O1414 O 0.27143 0.83141 0.27833 0.0
O1415 O 0.27492 0.83686 0.23105 0.0
O1416 O 0.27047 0.86308 0.23181 0.0
C1417 C 0.27555 0.87652 0.22191 0.0
O1418 O 0.3142 0.88698 0.26672 0.0
O1419 O 0.30317 0.86565 0.24009 0.0
O1420 O 0.29913 0.85991 0.30062 0.0
O1421 O 0.30523 0.91141 0.27064 0.0
O1422 O 0.29987 0.90487 0.31711 0.0
O1423 O 0.29621 0.87728 0.32359 0.0
C1424 C 0.25603 0.81245 0.24337 0.0
C1425 C 0.24909 0.81014 0.21529 0.0
C1426 C 0.23939 0.78685 0.25517 0.0
C1427 C 0.23754 0.79637 0.20722 0.0
C1428 C 0.25089 0.8006 0.26323 0.0
C1429 C 0.23261 0.78439 0.22684 0.0
C1430 C 0.26957 0.82642 0.25089 0.0
C1431 C 0.31492 0.87781 0.24791 0.0
H1432 H 0.31539 0.93446 0.34503 0.0
H1433 H 0.35675 0.93948 0.2843 0.0
H1434 H 0.34 0.95338 0.35787 0.0
H1435 H 0.33234 0.92026 0.27271 0.0
H1436 H 0.2528 0.81888 0.19913 0.0
H1437 H 0.23586 0.7781 0.27124 0.0
H1438 H 0.23282 0.79503 0.1851 0.0
H1439 H 0.25603 0.80188 0.28488 0.0
H1440 H 0.22775 0.09181 0.07658 0.0
H1441 H 0.22262 0.06756 0.06206 0.0
H1442 H 0.26245 0.08619 1.01164 0.0
H1443 H 0.26793 0.11048 0.02689 0.0
H1444 H 0.21839 0.05469 1.00718 0.0
H1445 H 0.2661 0.05619 0.06041 0.0
H1446 H 0.26085 0.06955 0.06836 0.0
H1447 H 0.27079 0.07085 0.03468 0.0
C1448 C 0.23559 0.09083 0.06281 0.0
C1449 C 0.24837 0.10333 0.05326 0.0
C1450 C 0.23255 0.07685 0.05426 0.0
C1451 C 0.24221 0.07484 0.03607 0.0
C1452 C 0.2549 0.08727 0.02621 0.0
H1453 H 0.24331 1.00017 0.95635 0.0
H1454 H 0.24825 0.0241 0.97281 0.0
C1455 C 0.25795 0.10127 0.0347 0.0
C1456 C 0.23884 0.05981 0.02693 0.0
H1457 H 0.25209 0.03633 0.02792 0.0
C1458 C 0.22574 0.05068 1.01192 0.0
C1459 C 0.24835 0.05439 0.03293 0.0
C1460 C 0.26224 0.06318 0.05023 0.0
C1461 C 0.22211 0.0366 1.00221 0.0
C1462 C 0.23165 0.0312 1.00813 0.0
C1463 C 0.24471 0.04032 1.02324 0.0
C1464 C 0.22845 0.01631 0.99837 0.0
C1465 C 0.20824 0.02783 0.98482 0.0
C1466 C 0.21573 1.00367 1.00744 0.0
C1467 C 0.21283 0.98983 0.99797 0.0
C1468 C 0.22261 0.98819 0.97928 0.0
C1469 C 0.23544 1.00086 0.97066 0.0
C1470 C 0.23832 1.01465 0.98012 0.0
H1471 H 0.20429 0.0348 0.97496 0.0
H1472 H 0.20972 0.02164 0.96643 0.0
H1473 H 0.19973 0.02 1.00022 0.0
H1474 H 0.20804 1.00447 1.02208 0.0
H1475 H 0.20288 0.98042 1.00527 0.0
H1476 H 0.04604 0.25824 0.99983 0.0
H1477 H 1.02172 0.23978 1.01625 0.0
H1478 H 0.03099 0.20617 0.99109 0.0
H1479 H 0.05533 0.22449 0.97534 0.0
H1480 H 0.9991 0.21872 0.98664 0.0
H1481 H 1.01512 0.1923 0.0734 0.0
H1482 H 0.02796 0.20935 0.05648 0.0
H1483 H 1.02283 0.19254 0.03744 0.0
C1484 C 0.04301 0.24693 0.99816 0.0
C1485 C 0.05288 0.24298 0.98652 0.0
C1486 C 0.02899 0.23632 1.00748 0.0
C1487 C 0.0244 0.22143 1.00561 0.0
C1488 C 0.03422 0.21749 0.99375 0.0
H1489 H 0.94418 0.13937 0.03575 0.0
H1490 H 0.96848 0.1589 1.02279 0.0
C1491 C 0.04822 0.22807 0.98453 0.0
C1492 C 1.00928 0.21004 1.01505 0.0
H1493 H 0.99031 0.17953 0.05832 0.0
C1494 C 0.99723 0.21025 1.00254 0.0
C1495 C 1.0066 0.19885 0.03585 0.0
C1496 C 1.01881 0.1983 0.05181 0.0
C1497 C 0.98281 0.1995 1.00944 0.0
C1498 C 0.98016 0.1882 0.02986 0.0
C1499 C 0.99219 0.18807 0.04259 0.0
C1500 C 0.96507 0.17627 0.03786 0.0
C1501 C 0.97053 0.20011 0.99399 0.0
C1502 C 0.95485 0.17929 0.05114 0.0
C1503 C 0.9408 0.16805 0.05858 0.0
C1504 C 0.93649 0.1534 0.05296 0.0
C1505 C 0.94684 0.15044 0.03998 0.0
C1506 C 0.96088 0.16166 0.03271 0.0
H1507 H 0.97426 0.20705 0.97359 0.0
H1508 H 0.96183 0.18911 0.98744 0.0
H1509 H 0.96582 0.20477 1.00965 0.0
H1510 H 0.95775 0.19038 0.05601 0.0
H1511 H 0.93325 0.17089 0.0684 0.0
H1512 H 0.81016 0.83702 1.00273 0.0
H1513 H 0.82902 0.83177 1.01938 0.0
H1514 H 0.807 0.79047 0.97432 0.0
H1515 H 0.78805 0.7955 0.95815 0.0
H1516 H 0.81627 0.78736 0.02808 0.0
H1517 H 0.86203 0.83397 0.97107 0.0
H1518 H 0.85246 0.8392 0.99676 0.0
H1519 H 0.84339 0.82877 0.96387 0.0
C1520 C 0.80929 0.8268 0.99636 0.0
C1521 C 0.79747 0.81675 0.97888 0.0
C1522 C 0.82021 0.82384 1.00572 0.0
C1523 C 0.81974 0.81079 0.99774 0.0
C1524 C 0.8078 0.80066 0.98079 0.0
H1525 H 0.89223 0.79342 1.00346 0.0
H1526 H 0.8731 0.79859 0.98917 0.0
C1527 C 0.7969 0.80359 0.97147 0.0
C1528 C 0.83147 0.80754 1.00716 0.0
H1529 H 0.86809 0.82022 1.00383 0.0
C1530 C 0.82759 0.79459 1.02274 0.0
C1531 C 0.84633 0.81674 0.99994 0.0
C1532 C 0.85133 0.83037 0.98174 0.0
C1533 C 0.83799 0.79071 0.03148 0.0
C1534 C 0.8529 0.80013 1.02507 0.0
C1535 C 0.85676 0.813 1.00917 0.0
C1536 C 0.86458 0.79673 0.0341 0.0
C1537 C 0.83278 0.77631 0.04682 0.0
C1538 C 0.86647 0.794 0.06425 0.0
C1539 C 0.87739 0.79088 0.07253 0.0
C1540 C 0.88692 0.79046 0.05098 0.0
C1541 C 0.88506 0.79332 1.02081 0.0
C1542 C 0.87413 0.79644 1.01257 0.0
H1543 H 0.82113 0.76869 0.04217 0.0
H1544 H 0.83914 0.77119 0.03949 0.0
H1545 H 0.83406 0.77801 0.07147 0.0
H1546 H 0.85956 0.79443 0.08161 0.0
H1547 H 0.87825 0.78867 0.09594 0.0
H1548 H 1.00799 0.23517 0.59068 0.0
H1549 H 0.03193 0.24023 0.5741 0.0
H1550 H 1.01258 0.19923 0.52787 0.0
H1551 H 0.98846 0.19414 0.54411 0.0
H1552 H 0.04683 0.22626 0.5854 0.0
H1553 H 0.03852 0.22587 0.46245 0.0
H1554 H 0.02601 0.22631 0.48922 0.0
H1555 H 0.02548 0.20952 0.48094 0.0
C1556 C 1.00872 0.22722 0.57679 0.0
C1557 C 0.9961 0.21423 0.56868 0.0
C1558 C 1.02253 0.23015 0.56733 0.0
C1559 C 0.02425 0.22027 0.54925 0.0
C1560 C 1.01168 0.20726 0.54117 0.0
H1561 H 0.10024 0.2193 0.47418 0.0
H1562 H 0.07595 0.2139 0.48909 0.0
C1563 C 0.99782 0.2043 0.55065 0.0
C1564 C 0.0392 0.22347 0.53979 0.0
H1565 H 0.06038 0.2272 0.4785 0.0
C1566 C 0.04977 0.22651 0.56198 0.0
C1567 C 0.04322 0.22381 0.50925 0.0
C1568 C 0.03278 0.22134 0.48404 0.0
C1569 C 0.06396 0.2296 0.55467 0.0
C1570 C 0.06802 0.23003 0.52412 0.0
C1571 C 0.05743 0.22693 0.50192 0.0
C1572 C 0.08308 0.23356 0.51475 0.0
C1573 C 0.07435 0.23198 0.57995 0.0
C1574 C 0.09545 0.24657 0.5236 0.0
C1575 C 0.10947 0.24974 0.51498 0.0
C1576 C 0.11163 0.24008 0.49691 0.0
C1577 C 0.09919 0.22717 0.48772 0.0
C1578 C 0.08518 0.224 0.49641 0.0
H1579 H 0.06854 0.22714 0.60132 0.0
H1580 H 0.08132 0.22727 0.57453 0.0
H1581 H 0.08144 0.24379 0.58365 0.0
H1582 H 0.09427 0.25441 0.537 0.0
H1583 H 0.11862 0.25992 0.52214 0.0
H1584 H 0.82064 0.88757 0.47248 0.0
H1585 H 0.82569 0.86839 0.48705 0.0
H1586 H 0.78592 0.84744 0.5377 0.0
H1587 H 0.78052 0.86631 0.5224 0.0
H1588 H 0.82996 0.85976 0.5419 0.0
H1589 H 0.78204 0.81366 0.48909 0.0
H1590 H 0.78735 0.83227 0.48107 0.0
H1591 H 0.77746 0.82372 0.51484 0.0
C1592 C 0.81279 0.87878 0.48631 0.0
C1593 C 0.80005 0.87859 0.4959 0.0
C1594 C 0.81579 0.86782 0.49489 0.0
C1595 C 0.80612 0.85619 0.51317 0.0
C1596 C 0.79348 0.85603 0.52307 0.0
H1597 H 0.80474 0.78026 0.5928 0.0
H1598 H 0.7999 0.79933 0.57642 0.0
C1599 C 0.79047 0.86701 0.51455 0.0
C1600 C 0.80945 0.8445 0.52231 0.0
H1601 H 0.79605 0.80775 0.52148 0.0
C1602 C 0.82256 0.8484 0.53724 0.0
C1603 C 0.79987 0.82958 0.51642 0.0
C1604 C 0.78596 0.82453 0.49923 0.0
C1605 C 0.82615 0.83793 0.54694 0.0
C1606 C 0.81655 0.823 0.54111 0.0
C1607 C 0.80347 0.81911 0.52609 0.0
C1608 C 0.8197 0.81126 0.55085 0.0
C1609 C 0.84003 0.84298 0.56424 0.0
C1610 C 0.83239 0.81127 0.54176 0.0
C1611 C 0.83524 0.80029 0.5512 0.0
C1612 C 0.82543 0.78888 0.56986 0.0
C1613 C 0.81263 0.78879 0.5785 0.0
C1614 C 0.8098 0.79975 0.56908 0.0
H1615 H 0.84403 0.85391 0.5741 0.0
H1616 H 0.83856 0.83531 0.58262 0.0
H1617 H 0.84851 0.84362 0.54878 0.0
H1618 H 0.8401 0.81974 0.52713 0.0
H1619 H 0.84517 0.80077 0.54387 0.0
H1620 H 0.17683 0.93025 0.46426 0.0
H1621 H 0.19574 0.95458 0.47923 0.0
H1622 H 0.16699 0.95611 0.54538 0.0
H1623 H 0.14808 0.93185 0.53064 0.0
H1624 H 0.19773 0.98082 0.47864 0.0
H1625 H 0.20196 0.96724 0.59678 0.0
H1626 H 0.19198 0.95352 0.56893 0.0
H1627 H 0.18393 0.96294 0.5869 0.0
C1628 C 0.17445 0.93573 0.48195 0.0
C1629 C 0.16081 0.92881 0.49634 0.0
C1630 C 0.18537 0.94972 0.49061 0.0
C1631 C 0.18306 0.95727 0.51399 0.0
C1632 C 0.16936 0.9505 0.52795 0.0
H1633 H 0.23734 0.05152 0.54811 0.0
H1634 H 0.21836 0.02747 0.53166 0.0
C1635 C 0.15847 0.93652 0.5194 0.0
C1636 C 0.19484 0.9722 0.52344 0.0
H1637 H 0.21419 0.99229 0.58436 0.0
C1638 C 0.20132 0.98328 0.50178 0.0
C1639 C 0.19984 0.97558 0.55354 0.0
C1640 C 0.19419 0.96417 0.57783 0.0
C1641 C 0.21235 0.99748 0.50933 0.0
C1642 C 0.21699 1.00098 0.53964 0.0
C1643 C 0.21065 0.98984 0.56119 0.0
C1644 C 0.22867 0.01592 0.5494 0.0
C1645 C 0.21918 1.00849 0.48447 0.0
C1646 C 0.24078 0.0177 0.56569 0.0
C1647 C 0.2516 0.03148 0.57543 0.0
C1648 C 0.25072 0.04401 0.56929 0.0
C1649 C 0.23857 0.04224 0.55307 0.0
C1650 C 0.22768 0.02841 0.54342 0.0
H1651 H 0.21762 1.0032 0.46219 0.0
H1652 H 0.21401 1.0153 0.48366 0.0
H1653 H 0.23097 1.01567 0.48832 0.0
H1654 H 0.24192 1.00838 0.57085 0.0
H1655 H 0.2607 0.03226 0.58791 0.0
H1656 H 0.80421 0.0317 0.09125 0.0
H1657 H 0.79936 1.00779 0.075 0.0
H1658 H 0.84024 0.02736 0.02821 0.0
H1659 H 0.84533 0.05141 0.04491 0.0
H1660 H 0.79605 0.9955 1.02057 0.0
H1661 H 0.84332 0.99685 0.07568 0.0
H1662 H 0.83794 1.01012 0.08352 0.0
H1663 H 0.8482 1.01164 0.05021 0.0
C1664 C 0.81225 0.03101 0.07754 0.0
C1665 C 0.82525 0.04368 0.06961 0.0
C1666 C 0.80942 0.01722 0.06818 0.0
C1667 C 0.8195 1.01553 0.05072 0.0
C1668 C 0.83238 0.02816 0.04228 0.0
H1669 H 0.82055 0.93989 0.97378 0.0
H1670 H 0.82564 0.96415 0.98818 0.0
C1671 C 0.83524 0.04201 0.05167 0.0
C1672 C 0.81634 1.0006 0.04111 0.0
H1673 H 0.82951 0.97703 0.04307 0.0
C1674 C 0.80338 0.99149 0.02564 0.0
C1675 C 0.8258 0.99515 0.04754 0.0
C1676 C 0.83952 1.00387 0.06539 0.0
C1677 C 0.79977 0.9774 1.01611 0.0
C1678 C 0.80922 0.97194 1.02258 0.0
C1679 C 0.8222 0.98107 0.03795 0.0
C1680 C 0.80587 0.95689 1.01356 0.0
C1681 C 0.78599 0.96862 0.99846 0.0
C1682 C 0.79311 0.94445 1.02312 0.0
C1683 C 0.79009 0.93045 1.01471 0.0
C1684 C 0.79977 0.92838 0.9965 0.0
C1685 C 0.81262 0.94088 0.98726 0.0
C1686 C 0.81564 0.95486 0.99575 0.0
H1687 H 0.7822 0.97562 0.98803 0.0
H1688 H 0.7875 0.96226 0.98048 0.0
H1689 H 0.77735 0.96095 1.01383 0.0
H1690 H 0.78547 0.94554 0.03739 0.0
H1691 H 0.78005 0.92124 1.02229 0.0
H1692 H 0.1181 0.86458 1.01034 0.0
H1693 H 0.0938 0.84498 1.02406 0.0
H1694 H 0.0758 0.87181 0.99905 0.0
H1695 H 0.0999 0.89127 0.98479 0.0
H1696 H 0.07427 0.84469 0.06718 0.0
H1697 H 0.04923 0.83432 0.95416 0.0
H1698 H 0.06859 0.84469 0.95972 0.0
H1699 H 0.05761 0.85291 0.96586 0.0
C1700 C 0.10898 0.86628 1.00735 0.0
C1701 C 0.11116 0.87966 0.99634 0.0
C1702 C 0.09503 0.85504 1.01543 0.0
C1703 C 0.08277 0.85671 1.01234 0.0
C1704 C 0.08491 0.87002 1.00128 0.0
H1705 H 0.9892 0.80235 0.04881 0.0
H1706 H 1.01343 0.82147 0.03336 0.0
C1707 C 0.09884 0.88127 0.9934 0.0
C1708 C 0.06786 0.84477 1.02141 0.0
H1709 H 0.03332 0.82275 0.99516 0.0
C1710 C 0.06536 0.83984 0.05134 0.0
C1711 C 0.05606 0.83841 1.00101 0.0
C1712 C 0.05797 0.84273 0.96833 0.0
C1713 C 0.0515 0.8291 0.06147 0.0
C1714 C 0.03968 0.82263 0.04101 0.0
C1715 C 0.04221 0.82757 1.01106 0.0
C1716 C 0.02472 0.81074 0.05014 0.0
C1717 C 0.04961 0.82517 0.09439 0.0
C1718 C 1.02267 0.79801 0.06427 0.0
C1719 C 1.0088 0.78708 0.07333 0.0
C1720 C 0.9964 0.78835 0.06816 0.0
C1721 C 0.99839 0.8009 0.05326 0.0
C1722 C 1.01232 0.8119 0.04438 0.0
H1723 H 0.05802 0.83405 0.10831 0.0
H1724 H 0.03878 0.82272 0.10264 0.0
H1725 H 0.05071 0.81544 0.09777 0.0
H1726 H 0.03182 0.79645 0.06825 0.0
H1727 H 1.00783 0.77759 0.08443 0.0
H1728 H 0.2364 0.19335 0.05185 0.0
H1729 H 0.21746 0.19858 0.03546 0.0
H1730 H 0.24278 0.24227 0.06849 0.0
H1731 H 0.2617 0.23719 0.08479 0.0
H1732 H 0.20104 0.20766 0.06976 0.0
H1733 H 0.23285 0.24895 0.98335 0.0
H1734 H 0.2386 0.23695 0.99872 0.0
H1735 H 0.24133 0.25256 1.01963 0.0
C1736 C 0.23803 0.20412 0.05541 0.0
C1737 C 0.25074 0.21483 0.06958 0.0
C1738 C 0.22712 0.2071 0.04608 0.0
C1739 C 0.22866 0.22092 0.05024 0.0
C1740 C 0.24134 0.23161 0.06435 0.0
H1741 H 0.17547 0.26109 1.01048 0.0
H1742 H 0.19466 0.25594 1.02509 0.0
C1743 C 0.25218 0.22863 0.07386 0.0
C1744 C 0.21689 0.22405 0.04073 0.0
H1745 H 0.20996 0.24616 0.99605 0.0
C1746 C 0.20299 0.21602 0.05348 0.0
C1747 C 0.21932 0.23506 1.01969 0.0
C1748 C 0.23378 0.24381 1.00431 0.0
C1749 C 0.19168 0.21883 0.04636 0.0
C1750 C 0.19405 0.22976 1.02507 0.0
C1751 C 0.20798 0.23779 1.01233 0.0
C1752 C 0.18228 0.23295 1.01566 0.0
C1753 C 0.17742 0.21033 0.06263 0.0
C1754 C 0.16886 0.22192 1.00472 0.0
C1755 C 0.15782 0.22484 0.99645 0.0
C1756 C 0.15983 0.23896 0.99837 0.0
C1757 C 0.17343 0.25009 1.0085 0.0
C1758 C 0.18445 0.24713 1.017 0.0
H1759 H 0.17876 0.20601 0.08437 0.0
H1760 H 0.17238 0.2171 0.06709 0.0
H1761 H 0.16989 0.20096 0.04859 0.0
H1762 H 0.16691 0.21097 1.00231 0.0
H1763 H 0.14771 0.21599 0.98809 0.0
H1764 H 0.05953 0.83842 0.49748 0.0
H1765 H 0.03541 0.83321 0.5139 0.0
H1766 H 1.01676 0.79015 0.47704 0.0
H1767 H 0.0407 0.79536 0.46007 0.0
H1768 H 1.00036 0.80139 0.46242 0.0
H1769 H 1.01144 0.81028 0.58435 0.0
H1770 H 1.02338 0.82578 0.56219 0.0
H1771 H 1.02394 0.80924 0.55851 0.0
C1772 C 0.05033 0.82779 0.49305 0.0
C1773 C 0.05225 0.81733 0.47747 0.0
C1774 C 0.03647 0.82477 0.50267 0.0
C1775 C 0.02408 0.81115 0.49731 0.0
C1776 C 0.026 0.80073 0.4817 0.0
H1777 H 0.93839 0.77735 0.5826 0.0
H1778 H 0.96279 0.78286 0.56778 0.0
C1779 C 0.03981 0.80375 0.47201 0.0
C1780 C 1.0091 0.80782 0.50697 0.0
H1781 H 0.9889 0.80731 0.56763 0.0
C1782 C 0.99791 0.80269 0.48548 0.0
C1783 C 1.0056 0.80923 0.53714 0.0
C1784 C 1.01667 0.81379 0.56196 0.0
C1785 C 0.98361 0.79916 0.49305 0.0
C1786 C 0.98023 0.80105 0.52299 0.0
C1787 C 0.99136 0.80597 0.5446 0.0
C1788 C 0.96525 0.79783 0.53233 0.0
C1789 C 0.97217 0.79306 0.46886 0.0
C1790 C 0.95834 0.80451 0.51792 0.0
C1791 C 0.94432 0.80137 0.52639 0.0
C1792 C 0.93672 0.79152 0.54982 0.0
C1793 C 0.94379 0.78505 0.56462 0.0
C1794 C 0.95781 0.78818 0.55606 0.0
H1795 H 0.9753 0.78824 0.4502 0.0
H1796 H 0.96158 0.78463 0.47801 0.0
H1797 H 0.97079 0.80192 0.45932 0.0
H1798 H 0.96386 0.81233 0.50019 0.0
H1799 H 0.93955 0.8069 0.5148 0.0
H1800 H 0.26802 0.16565 0.5263 0.0
H1801 H 0.26267 0.18464 0.51156 0.0
H1802 H 0.22275 0.16331 0.56168 0.0
H1803 H 0.22797 0.1443 0.57642 0.0
H1804 H 0.24074 0.18401 0.47948 0.0
H1805 H 0.23935 0.20384 0.59373 0.0
H1806 H 0.24619 0.19167 0.58654 0.0
H1807 H 0.22698 0.18481 0.58916 0.0
C1808 C 0.25806 0.16491 0.5342 0.0
C1809 C 0.24854 0.15333 0.5529 0.0
C1810 C 0.25503 0.17589 0.52579 0.0
C1811 C 0.2424 0.17573 0.53588 0.0
C1812 C 0.23278 0.16408 0.55419 0.0
H1813 H 0.20386 0.23124 0.50478 0.0
H1814 H 0.20907 0.21223 0.52071 0.0
C1815 C 0.23581 0.15312 0.56265 0.0
C1816 C 0.23915 0.18747 0.52663 0.0
H1817 H 0.2311 0.21279 0.554 0.0
C1818 C 0.23872 0.19033 0.49586 0.0
C1819 C 0.23642 0.19584 0.54775 0.0
C1820 C 0.23738 0.19401 0.58113 0.0
C1821 C 0.23543 0.20096 0.48575 0.0
C1822 C 0.23271 0.20933 0.50688 0.0
C1823 C 0.23311 0.20646 0.53764 0.0
C1824 C 0.22963 0.22117 0.49753 0.0
C1825 C 0.23451 0.20283 0.45236 0.0
C1826 C 0.23951 0.23285 0.47963 0.0
C1827 C 0.23656 0.24376 0.47048 0.0
C1828 C 0.22365 0.24346 0.4791 0.0
C1829 C 0.2139 0.23192 0.49758 0.0
C1830 C 0.21688 0.22099 0.50675 0.0
H1831 H 0.23257 0.19303 0.43972 0.0
H1832 H 0.22572 0.20518 0.44693 0.0
H1833 H 0.24493 0.21205 0.44442 0.0
H1834 H 0.24961 0.23359 0.47273 0.0
H1835 H 0.24444 0.25243 0.45645 0.0
H1836 H 0.89668 0.09128 0.57309 0.0
H1837 H 0.87771 0.06707 0.558 0.0
H1838 H 0.85516 0.08567 0.51247 0.0
H1839 H 0.87407 0.10993 0.52753 0.0
H1840 H 0.84891 0.05147 0.5695 0.0
H1841 H 0.85633 0.06034 0.44667 0.0
H1842 H 0.86916 0.07295 0.47341 0.0
H1843 H 0.8527 0.07314 0.46525 0.0
C1844 C 0.88766 0.0903 0.56005 0.0
C1845 C 0.8871 0.10279 0.55157 0.0
C1846 C 0.87678 0.07635 0.55125 0.0
C1847 C 0.86499 0.07436 0.53351 0.0
C1848 C 0.86426 0.08677 0.52538 0.0
H1849 H 0.78805 0.99948 0.45794 0.0
H1850 H 0.80686 0.02339 0.47481 0.0
C1851 C 0.87515 0.10074 0.53412 0.0
C1852 C 0.85343 0.05936 0.52402 0.0
H1853 H 0.83569 0.03851 0.46262 0.0
C1854 C 0.84611 0.04865 0.54609 0.0
C1855 C 0.84962 0.05548 0.49347 0.0
C1856 C 0.85745 0.06602 0.46829 0.0
C1857 C 0.835 0.03448 0.53864 0.0
C1858 C 0.83115 0.03063 0.50811 0.0
C1859 C 0.8385 0.04132 0.48604 0.0
C1860 C 0.81945 1.01571 0.49853 0.0
C1861 C 0.82721 0.02388 0.56375 0.0
C1862 C 0.82008 1.00317 0.50592 0.0
C1863 C 0.80923 0.98933 0.49628 0.0
C1864 C 0.79743 0.98761 0.47878 0.0
C1865 C 0.79686 1.00021 0.47141 0.0
C1866 C 0.80769 1.014 0.48103 0.0
H1867 H 0.82851 0.02949 0.58555 0.0
H1868 H 0.81546 0.0171 0.55883 0.0
H1869 H 0.83181 0.01661 0.56628 0.0
H1870 H 0.82912 1.00407 0.51876 0.0
H1871 H 0.8102 0.98 0.50224 0.0
H1872 H 0.89451 0.4248 0.40815 0.0
H1873 H 0.88937 0.4005 0.39396 0.0
H1874 H 0.92891 0.419 0.34256 0.0
H1875 H 0.93439 0.44334 0.35745 0.0
H1876 H 0.88484 0.38735 0.33931 0.0
H1877 H 0.93297 0.38928 0.39145 0.0
H1878 H 0.92771 0.40263 0.39939 0.0
H1879 H 0.93744 0.4038 0.36547 0.0
C1880 C 0.90229 0.42378 0.39423 0.0
C1881 C 0.91499 0.43626 0.3843 0.0
C1882 C 0.89924 0.40977 0.38587 0.0
C1883 C 0.90882 0.4077 0.3675 0.0
C1884 C 0.92142 0.42012 0.35726 0.0
H1885 H 0.90976 0.33276 0.2887 0.0
H1886 H 0.91475 0.35672 0.30498 0.0
C1887 C 0.92448 0.43415 0.36555 0.0
C1888 C 0.90543 0.39263 0.35857 0.0
H1889 H 0.91878 0.36923 0.35952 0.0
C1890 C 0.89225 0.38339 0.34393 0.0
C1891 C 0.91501 0.38728 0.36441 0.0
C1892 C 0.92901 0.39619 0.38129 0.0
C1893 C 0.8886 0.36928 0.33443 0.0
C1894 C 0.8982 0.36394 0.34021 0.0
C1895 C 0.91135 0.37317 0.35495 0.0
C1896 C 0.89499 0.349 0.33065 0.0
C1897 C 0.87465 0.36041 0.31738 0.0
C1898 C 0.88229 0.33637 0.33986 0.0
C1899 C 0.87935 0.32251 0.33046 0.0
C1900 C 0.88909 0.32081 0.31172 0.0
C1901 C 0.90192 0.33347 0.30303 0.0
C1902 C 0.90483 0.34729 0.3124 0.0
H1903 H 0.87064 0.36733 0.30746 0.0
H1904 H 0.87603 0.35413 0.29906 0.0
H1905 H 0.86621 0.35267 0.33302 0.0
H1906 H 0.87462 0.3372 0.35452 0.0
H1907 H 0.8694 0.31311 0.33783 0.0
H1908 H 0.72642 0.56393 0.33597 0.0
H1909 H 0.7022 0.54504 0.35213 0.0
H1910 H 0.68303 0.5658 0.30195 0.0
H1911 H 0.70705 0.58451 0.28543 0.0
H1912 H 0.68075 0.54594 0.38458 0.0
H1913 H 0.65951 0.5249 0.27099 0.0
H1914 H 0.6785 0.53716 0.27795 0.0
H1915 H 0.66612 0.54396 0.27466 0.0
C1916 C 0.71706 0.5645 0.3283 0.0
C1917 C 0.71885 0.57584 0.30917 0.0
C1918 C 0.70315 0.55363 0.33761 0.0
C1919 C 0.69058 0.55369 0.32789 0.0
C1920 C 0.69238 0.56515 0.30926 0.0
H1921 H 0.59673 0.49864 0.35761 0.0
H1922 H 0.62106 0.51742 0.34235 0.0
C1923 C 0.70625 0.576 0.29998 0.0
C1924 C 0.67566 0.54196 0.33755 0.0
H1925 H 0.64232 0.51637 0.31081 0.0
C1926 C 0.67241 0.53943 0.36838 0.0
C1927 C 0.66458 0.53336 0.31664 0.0
C1928 C 0.66735 0.53485 0.28323 0.0
C1929 C 0.65849 0.52893 0.37877 0.0
C1930 C 0.64739 0.52035 0.35787 0.0
C1931 C 0.65067 0.52286 0.32703 0.0
C1932 C 0.6324 0.50873 0.36744 0.0
C1933 C 0.65571 0.52747 0.41218 0.0
C1934 C 0.63037 0.49727 0.38638 0.0
C1935 C 0.61638 0.48643 0.39514 0.0
C1936 C 0.60387 0.48656 0.38509 0.0
C1937 C 0.60594 0.49796 0.36577 0.0
C1938 C 0.61995 0.50882 0.35705 0.0
H1939 H 0.66358 0.53743 0.42439 0.0
H1940 H 0.64458 0.52522 0.41742 0.0
H1941 H 0.65689 0.51835 0.42079 0.0
H1942 H 0.63962 0.49656 0.39413 0.0
H1943 H 0.6154 0.47775 0.40939 0.0
H1944 H 0.45316 0.1285 0.29597 0.0
H1945 H 0.47181 0.12321 0.31324 0.0
H1946 H 0.49652 0.16651 0.34877 0.0
H1947 H 0.4777 0.17177 0.3322 0.0
H1948 H 0.49939 0.13415 0.29839 0.0
H1949 H 0.4979 0.14438 0.41985 0.0
H1950 H 0.4843 0.14325 0.39413 0.0
H1951 H 0.50148 0.15975 0.39725 0.0
C1952 C 0.46247 0.13691 0.30774 0.0
C1953 C 0.46374 0.15058 0.31281 0.0
C1954 C 0.47322 0.13385 0.31759 0.0
C1955 C 0.48562 0.14432 0.33292 0.0
C1956 C 0.48696 0.15802 0.33785 0.0
H1957 H 0.56549 0.14894 0.39842 0.0
H1958 H 0.54599 0.15344 0.38354 0.0
C1959 C 0.47616 0.16107 0.32813 0.0
C1960 C 0.49727 0.141 0.34269 0.0
H1961 H 0.51756 0.1415 0.40312 0.0
C1962 C 0.50325 0.13568 0.32138 0.0
C1963 C 0.50248 0.14293 0.37269 0.0
C1964 C 0.49612 0.14775 0.39737 0.0
C1965 C 0.51432 0.13258 0.32893 0.0
C1966 C 0.5196 0.13462 0.35884 0.0
C1967 C 0.51363 0.13992 0.38018 0.0
C1968 C 0.53146 0.1316 0.36829 0.0
C1969 C 0.52057 0.12751 0.30448 0.0
C1970 C 0.52991 0.11771 0.36532 0.0
C1971 C 0.54115 0.11507 0.37382 0.0
C1972 C 0.55433 0.12625 0.38555 0.0
C1973 C 0.55571 0.14007 0.389 0.0
C1974 C 0.54445 0.14267 0.38066 0.0
H1975 H 0.51812 0.13003 0.28174 0.0
H1976 H 0.5325 0.13258 0.30687 0.0
H1977 H 0.51577 0.11558 0.30613 0.0
H1978 H 0.51995 0.10885 0.35645 0.0
H1979 H 0.53958 0.10431 0.37065 0.0
H1980 H 0.76514 0.55597 0.79355 0.0
H1981 H 0.74119 0.55117 0.80938 0.0
H1982 H 0.76065 0.58314 0.87936 0.0
H1983 H 0.7847 0.5878 0.8642 0.0
H1984 H 0.727 0.54133 0.86485 0.0
H1985 H 0.73395 0.59531 0.83828 0.0
H1986 H 0.74612 0.58947 0.82424 0.0
H1987 H 0.7477 0.59572 0.86231 0.0
C1988 C 0.76445 0.56196 0.81251 0.0
C1989 C 0.77714 0.5723 0.8275 0.0
C1990 C 0.75063 0.55923 0.82145 0.0
C1991 C 0.74894 0.56686 0.84544 0.0
C1992 C 0.76153 0.57725 0.8604 0.0
H1993 H 0.67457 0.56622 0.93216 0.0
H1994 H 0.69848 0.57107 0.91573 0.0
C1995 C 0.77539 0.57994 0.85158 0.0
C1996 C 0.73403 0.56366 0.85514 0.0
H1997 H 0.71252 0.57891 0.86416 0.0
C1998 C 0.72384 0.54955 0.86456 0.0
C1999 C 0.72976 0.57432 0.855 0.0
C2000 C 0.73988 0.58953 0.84418 0.0
C2001 C 0.70977 0.54592 0.87436 0.0
C2002 C 0.70543 0.55656 0.874 0.0
C2003 C 0.71565 0.57067 0.86452 0.0
C2004 C 0.69052 0.5534 0.88385 0.0
C2005 C 0.6999 0.5308 0.88597 0.0
C2006 C 0.67777 0.54192 0.87134 0.0
C2007 C 0.66394 0.53901 0.88094 0.0
C2008 C 0.6624 0.54763 0.90305 0.0
C2009 C 0.67518 0.55928 0.9151 0.0
C2010 C 0.68897 0.56211 0.90565 0.0
H2011 H 0.70613 0.52554 0.89343 0.0
H2012 H 0.69323 0.53085 0.9051 0.0
H2013 H 0.69252 0.52408 0.86768 0.0
H2014 H 0.67847 0.53522 0.85388 0.0
H2015 H 0.65444 0.53003 0.87089 0.0
H2016 H 0.51234 0.13496 0.87902 0.0
H2017 H 0.50701 0.15372 0.86205 0.0
H2018 H 0.46631 0.13242 0.90948 0.0
H2019 H 0.47141 0.11356 0.92603 0.0
H2020 H 0.46263 0.14117 0.85534 0.0
H2021 H 0.50999 0.18734 0.90947 0.0
H2022 H 0.51486 0.17741 0.88398 0.0
H2023 H 0.50473 0.16874 0.91745 0.0
C2024 C 0.50224 0.13422 0.88585 0.0
C2025 C 0.49238 0.12263 0.90409 0.0
C2026 C 0.49924 0.14509 0.87629 0.0
C2027 C 0.48633 0.1448 0.88483 0.0
C2028 C 0.47638 0.13309 0.90256 0.0
H2029 H 0.46954 0.21768 0.87682 0.0
H2030 H 0.47464 0.19856 0.89176 0.0
C2031 C 0.47935 0.12223 0.91209 0.0
C2032 C 0.48306 0.15649 0.87517 0.0
H2033 H 0.49604 0.19318 0.87682 0.0
C2034 C 0.46998 0.15254 0.86007 0.0
C2035 C 0.49242 0.17141 0.88161 0.0
C2036 C 0.50621 0.17651 0.89927 0.0
C2037 C 0.46613 0.16292 0.85102 0.0
C2038 C 0.4757 0.17788 0.85663 0.0
C2039 C 0.48869 0.18182 0.87209 0.0
C2040 C 0.47234 0.18954 0.84721 0.0
C2041 C 0.45161 0.15765 0.83622 0.0
C2042 C 0.4694 0.19114 0.81704 0.0
C2043 C 0.46632 0.20206 0.80839 0.0
C2044 C 0.46617 0.21186 0.82957 0.0
C2045 C 0.46924 0.21029 0.85976 0.0
C2046 C 0.47232 0.19937 0.86837 0.0
H2047 H 0.44396 0.14607 0.84146 0.0
H2048 H 0.44664 0.16416 0.84344 0.0
H2049 H 0.45309 0.15865 0.81149 0.0
H2050 H 0.46961 0.18401 0.79995 0.0
H2051 H 0.46394 0.2027 0.78499 0.0
H2052 H 0.84013 0.25514 0.85597 0.0
H2053 H 0.85878 0.2795 0.87142 0.0
H2054 H 0.83779 0.29794 0.81972 0.0
H2055 H 0.81886 0.27368 0.805 0.0
H2056 H 0.87855 0.30299 0.83908 0.0
H2057 H 0.84249 0.31811 0.89919 0.0
H2058 H 0.83657 0.29974 0.88769 0.0
H2059 H 0.83716 0.3127 0.86098 0.0
C2060 C 0.83932 0.26432 0.84812 0.0
C2061 C 0.82778 0.2622 0.82919 0.0
C2062 C 0.85012 0.27835 0.85686 0.0
C2063 C 0.84971 0.29074 0.84728 0.0
C2064 C 0.83832 0.28868 0.82811 0.0
H2065 H 0.90549 0.38485 0.87765 0.0
H2066 H 0.88676 0.36072 0.86069 0.0
C2067 C 0.82754 0.27469 0.8193 0.0
C2068 C 0.86129 0.30575 0.85681 0.0
H2069 H 0.86674 0.33691 0.89139 0.0
C2070 C 0.87593 0.31035 0.85064 0.0
C2071 C 0.85805 0.31556 0.87186 0.0
C2072 C 0.84274 0.31127 0.8806 0.0
C2073 C 0.88723 0.32435 0.8585 0.0
C2074 C 0.88401 0.33415 0.87367 0.0
C2075 C 0.86936 0.32957 0.87975 0.0
C2076 C 0.89563 0.34902 0.88384 0.0
C2077 C 0.90254 0.32864 0.8497 0.0
C2078 C 0.90691 0.35072 0.90293 0.0
C2079 C 0.91768 0.36454 0.9126 0.0
C2080 C 0.91752 0.37719 0.90374 0.0
C2081 C 0.90613 0.37547 0.88488 0.0
C2082 C 0.89533 0.36161 0.87518 0.0
H2083 H 0.90275 0.32198 0.83068 0.0
H2084 H 0.90882 0.34024 0.8432 0.0
H2085 H 0.90803 0.32687 0.86908 0.0
H2086 H 0.90731 0.34131 0.91076 0.0
H2087 H 0.92611 0.36526 0.92732 0.0
H2088 H 0.46931 0.25989 0.37755 0.0
H2089 H 0.47442 0.28414 0.39213 0.0
H2090 H 0.47041 0.29376 0.29981 0.0
H2091 H 0.46473 0.26936 0.28516 0.0
H2092 H 0.49617 0.31085 0.37731 0.0
H2093 H 0.44443 0.30615 0.33989 0.0
H2094 H 0.447 0.29067 0.34247 0.0
H2095 H 0.45373 0.30256 0.31046 0.0
C2096 C 0.46924 0.26701 0.36029 0.0
C2097 C 0.46645 0.26239 0.33006 0.0
C2098 C 0.47233 0.28103 0.3687 0.0
C2099 C 0.47263 0.2909 0.34727 0.0
C2100 C 0.46997 0.28638 0.31706 0.0
H2101 H 0.51246 0.38542 0.37858 0.0
H2102 H 0.5073 0.36134 0.36185 0.0
C2103 C 0.46689 0.27238 0.30861 0.0
C2104 C 0.47599 0.30592 0.35646 0.0
H2105 H 0.46304 0.32965 0.35416 0.0
C2106 C 0.48889 0.31492 0.37222 0.0
C2107 C 0.4665 0.31136 0.35034 0.0
C2108 C 0.45208 0.30215 0.33513 0.0
C2109 C 0.4926 0.32906 0.38159 0.0
C2110 C 0.48331 0.33465 0.37468 0.0
C2111 C 0.47033 0.32558 0.35925 0.0
C2112 C 0.48652 0.34958 0.38426 0.0
C2113 C 0.50629 0.33773 0.39958 0.0
C2114 C 0.47647 0.3513 0.40174 0.0
C2115 C 0.47935 0.3651 0.41113 0.0
C2116 C 0.49238 0.37773 0.40324 0.0
C2117 C 0.50236 0.37603 0.3853 0.0
C2118 C 0.49945 0.36218 0.37588 0.0
H2119 H 0.51002 0.33067 0.40994 0.0
H2120 H 0.51502 0.34549 0.38448 0.0
H2121 H 0.50469 0.34398 0.41765 0.0
H2122 H 0.46639 0.34188 0.40853 0.0
H2123 H 0.47133 0.36582 0.42484 0.0
H2124 H 0.65504 0.13378 0.3755 0.0
H2125 H 0.67924 0.15233 0.35861 0.0
H2126 H 0.69845 0.13316 0.4138 0.0
H2127 H 0.67441 0.11447 0.43013 0.0
H2128 H 0.70222 0.17308 0.38768 0.0
H2129 H 0.71926 0.13654 0.33696 0.0
H2130 H 0.7008 0.13025 0.34827 0.0
H2131 H 0.71415 0.1323 0.37562 0.0
C2132 C 0.66439 0.1334 0.38386 0.0
C2133 C 0.66259 0.12242 0.40405 0.0
C2134 C 0.67831 0.14409 0.3742 0.0
C2135 C 0.69087 0.14413 0.38429 0.0
C2136 C 0.68908 0.13327 0.40477 0.0
H2137 H 0.7849 0.20255 0.36146 0.0
H2138 H 0.76071 0.18326 0.3764 0.0
C2139 C 0.6752 0.12257 0.41433 0.0
C2140 C 0.7058 0.15571 0.37422 0.0
H2141 H 0.73776 0.16114 0.34363 0.0
C2142 C 0.70991 0.17041 0.37785 0.0
C2143 C 0.71606 0.15244 0.36138 0.0
C2144 C 0.71232 0.13704 0.35503 0.0
C2145 C 0.72386 0.18174 0.36971 0.0
C2146 C 0.73412 0.17846 0.35704 0.0
C2147 C 0.73004 0.16378 0.3534 0.0
C2148 C 0.74902 0.19008 0.34716 0.0
C2149 C 0.72759 0.19718 0.37549 0.0
C2150 C 0.75076 0.20029 0.3251 0.0
C2151 C 0.76463 0.2113 0.31625 0.0
C2152 C 0.77733 0.21253 0.32911 0.0
C2153 C 0.77554 0.20204 0.35071 0.0
C2154 C 0.76163 0.19098 0.35948 0.0
H2155 H 0.72026 0.19781 0.39244 0.0
H2156 H 0.73895 0.20383 0.38342 0.0
H2157 H 0.72645 0.202 0.35428 0.0
H2158 H 0.74134 0.19971 0.31449 0.0
H2159 H 0.76535 0.2188 0.29901 0.0
H2160 H 0.81768 0.55098 0.3079 0.0
H2161 H 0.83705 0.54636 0.32319 0.0
H2162 H 0.85984 0.58854 0.36443 0.0
H2163 H 0.84026 0.59309 0.35003 0.0
H2164 H 0.86593 0.55991 0.30987 0.0
H2165 H 0.85957 0.56327 0.4327 0.0
H2166 H 0.8463 0.56221 0.40608 0.0
H2167 H 0.86266 0.57916 0.41253 0.0
C2168 C 0.8267 0.55926 0.32055 0.0
C2169 C 0.82716 0.57239 0.32792 0.0
C2170 C 0.83789 0.55662 0.32912 0.0
C2171 C 0.84992 0.56694 0.34557 0.0
C2172 C 0.8506 0.5802 0.3524 0.0
H2173 H 0.92706 0.56922 0.42192 0.0
H2174 H 0.90827 0.5744 0.4051 0.0
C2175 C 0.83941 0.58288 0.34375 0.0
C2176 C 0.8617 0.56383 0.35517 0.0
H2177 H 0.87978 0.56138 0.41669 0.0
C2178 C 0.8689 0.56019 0.33327 0.0
C2179 C 0.86572 0.56416 0.38569 0.0
C2180 C 0.85809 0.56727 0.41067 0.0
C2181 C 0.88005 0.55719 0.34084 0.0
C2182 C 0.88404 0.55748 0.37138 0.0
C2183 C 0.87685 0.56113 0.39328 0.0
C2184 C 0.89571 0.5542 0.38113 0.0
C2185 C 0.88772 0.55415 0.31582 0.0
C2186 C 0.89507 0.54102 0.37369 0.0
C2187 C 0.90593 0.53802 0.38325 0.0
C2188 C 0.91772 0.54806 0.40079 0.0
C2189 C 0.91826 0.56119 0.40838 0.0
C2190 C 0.90743 0.56418 0.39878 0.0
H2191 H 0.88649 0.55848 0.29397 0.0
H2192 H 0.89945 0.55896 0.32069 0.0
H2193 H 0.88293 0.54226 0.31336 0.0
H2194 H 0.88604 0.53291 0.36082 0.0
H2195 H 0.90498 0.52774 0.37713 0.0
H2196 H 0.72664 0.17001 0.83806 0.0
H2197 H 0.70254 0.16458 0.85537 0.0
H2198 H 0.68305 0.12494 0.8042 0.0
H2199 H 0.70696 0.13008 0.78746 0.0
H2200 H 0.67907 0.16137 0.82596 0.0
H2201 H 0.66321 0.10939 0.8829 0.0
H2202 H 0.68152 0.12143 0.87049 0.0
H2203 H 0.668 0.10931 0.8443 0.0
C2204 C 0.71725 0.16006 0.83069 0.0
C2205 C 0.71894 0.15047 0.81147 0.0
C2206 C 0.7034 0.15696 0.84059 0.0
C2207 C 0.69079 0.14416 0.83174 0.0
C2208 C 0.69247 0.13468 0.81227 0.0
H2209 H 0.59682 0.10782 0.8572 0.0
H2210 H 0.62102 0.11271 0.84232 0.0
C2211 C 0.70627 0.13773 0.80246 0.0
C2212 C 0.67592 0.14093 0.84198 0.0
H2213 H 0.64441 0.11498 0.87507 0.0
C2214 C 0.67157 0.15126 0.83691 0.0
C2215 C 0.66591 0.12772 0.85625 0.0
C2216 C 0.66993 0.11639 0.86409 0.0
C2217 C 0.65762 0.14866 0.84498 0.0
C2218 C 0.6476 0.13543 0.85909 0.0
C2219 C 0.65193 0.1251 0.8642 0.0
C2220 C 0.63269 0.13219 0.86895 0.0
C2221 C 0.6536 0.16003 0.83752 0.0
C2222 C 0.63095 0.14122 0.88955 0.0
C2223 C 0.61707 0.13839 0.89834 0.0
C2224 C 0.60438 0.12637 0.8869 0.0
C2225 C 0.60618 0.11712 0.86681 0.0
C2226 C 0.6201 0.11996 0.85808 0.0
H2227 H 0.66067 0.1675 0.81964 0.0
H2228 H 0.64215 0.15497 0.83005 0.0
H2229 H 0.65491 0.16659 0.85788 0.0
H2230 H 0.64037 0.1505 0.89909 0.0
H2231 H 0.61634 0.14562 0.91443 0.0
H2232 H 0.86774 0.56138 0.83181 0.0
H2233 H 0.87324 0.54278 0.84926 0.0
H2234 H 0.91617 0.56711 0.8118 0.0
H2235 H 0.91086 0.58575 0.79467 0.0
H2236 H 0.88069 0.52528 0.81719 0.0
H2237 H 0.92546 0.5591 0.8953 0.0
H2238 H 0.91352 0.56499 0.88026 0.0
H2239 H 0.92826 0.56639 0.85797 0.0
C2240 C 0.87842 0.56289 0.82754 0.0
C2241 C 0.88884 0.57524 0.81188 0.0
C2242 C 0.88155 0.55216 0.83748 0.0
C2243 C 0.89524 0.55352 0.8324 0.0
C2244 C 0.90564 0.56584 0.81678 0.0
H2245 H 0.9348 0.49939 0.86833 0.0
H2246 H 0.92974 0.51863 0.85359 0.0
C2247 C 0.90252 0.57652 0.80676 0.0
C2248 C 0.89847 0.54186 0.84239 0.0
H2249 H 0.92201 0.53576 0.88409 0.0
C2250 C 0.88967 0.52759 0.832 0.0
C2251 C 0.91026 0.54473 0.86157 0.0
C2252 C 0.91985 0.5596 0.87468 0.0
C2253 C 0.89246 0.51631 0.83962 0.0
C2254 C 0.90421 0.51915 0.85894 0.0
C2255 C 0.91302 0.53343 0.86932 0.0
C2256 C 0.90745 0.50746 0.86874 0.0
C2257 C 0.88299 0.50153 0.82603 0.0
C2258 C 0.89682 0.49477 0.88298 0.0
C2259 C 0.89969 0.48372 0.89145 0.0
C2260 C 0.91337 0.485 0.8863 0.0
C2261 C 0.92416 0.49793 0.87288 0.0
C2262 C 0.92124 0.50897 0.86428 0.0
H2263 H 0.87763 0.50217 0.80514 0.0
H2264 H 0.88934 0.49612 0.82072 0.0
H2265 H 0.87435 0.49466 0.84228 0.0
H2266 H 0.88623 0.49339 0.88774 0.0
H2267 H 0.89116 0.47418 0.90238 0.0
H2268 H 0.54375 0.42979 0.92762 0.0
H2269 H 0.52518 0.40532 0.91292 0.0
H2270 H 0.54026 0.41438 0.82138 0.0
H2271 H 0.55922 0.43864 0.83605 0.0
H2272 H 0.50251 0.39521 0.8751 0.0
H2273 H 0.5395 0.37658 0.8339 0.0
H2274 H 0.54588 0.39315 0.85495 0.0
H2275 H 0.54223 0.39272 0.81536 0.0
C2276 C 0.54331 0.42659 0.90438 0.0
C2277 C 0.55325 0.4364 0.88321 0.0
C2278 C 0.53253 0.41252 0.89592 0.0
C2279 C 0.53133 0.4077 0.86604 0.0
C2280 C 0.54104 0.41754 0.84473 0.0
H2281 H 0.45486 0.3329 0.78733 0.0
H2282 H 0.47367 0.35687 0.80373 0.0
C2283 C 0.55183 0.43161 0.85315 0.0
C2284 C 0.51981 0.39254 0.85719 0.0
H2285 H 0.51444 0.36135 0.82292 0.0
C2286 C 0.50518 0.38783 0.86376 0.0
C2287 C 0.5231 0.38262 0.84278 0.0
C2288 C 0.53853 0.38644 0.83659 0.0
C2289 C 0.49389 0.37382 0.85588 0.0
C2290 C 0.49714 0.36411 0.84041 0.0
C2291 C 0.51179 0.3687 0.83443 0.0
C2292 C 0.48554 0.34923 0.83024 0.0
C2293 C 0.47859 0.36947 0.86484 0.0
C2294 C 0.48592 0.33667 0.83872 0.0
C2295 C 0.47512 0.32279 0.82912 0.0
C2296 C 0.46363 0.32103 0.81054 0.0
C2297 C 0.46338 0.33365 0.80184 0.0
C2298 C 0.47416 0.34748 0.81141 0.0
H2299 H 0.47839 0.37607 0.88399 0.0
H2300 H 0.47306 0.37126 0.84558 0.0
H2301 H 0.47235 0.35785 0.87122 0.0
H2302 H 0.49456 0.33758 0.85304 0.0
H2303 H 0.47583 0.31343 0.83622 0.0
H2304 H 0.59783 0.77668 0.68728 0.0
H2305 H 0.59265 0.75234 0.67282 0.0
H2306 H 0.55703 0.73357 0.73532 0.0
H2307 H 0.56224 0.75774 0.75033 0.0
H2308 H 0.59168 0.72943 0.70629 0.0
H2309 H 0.53754 0.71221 0.65778 0.0
H2310 H 0.55036 0.73091 0.66631 0.0
H2311 H 0.53973 0.71863 0.69578 0.0
C2312 C 0.58896 0.76743 0.69826 0.0
C2313 C 0.5804 0.76942 0.71988 0.0
C2314 C 0.58595 0.75342 0.68977 0.0
C2315 C 0.57422 0.74094 0.70241 0.0
C2316 C 0.56589 0.74289 0.72448 0.0
H2317 H 0.53608 0.64672 0.67392 0.0
H2318 H 0.54169 0.6709 0.69116 0.0
C2319 C 0.56891 0.75685 0.73306 0.0
C2320 C 0.57079 0.72595 0.69284 0.0
H2321 H 0.54411 0.69408 0.66255 0.0
C2322 C 0.58129 0.72175 0.6966 0.0
C2323 C 0.55721 0.71573 0.68033 0.0
C2324 C 0.54559 0.71959 0.67452 0.0
C2325 C 0.57854 0.70771 0.68881 0.0
C2326 C 0.56499 0.69751 0.67601 0.0
C2327 C 0.55448 0.70173 0.67234 0.0
C2328 C 0.56162 0.6826 0.66579 0.0
C2329 C 0.59012 0.70386 0.69526 0.0
C2330 C 0.57073 0.68086 0.64536 0.0
C2331 C 0.56759 0.66702 0.63565 0.0
C2332 C 0.55509 0.65437 0.64566 0.0
C2333 C 0.54583 0.6561 0.66576 0.0
C2334 C 0.54904 0.67 0.67562 0.0
H2335 H 0.59749 0.71071 0.71348 0.0
H2336 H 0.58532 0.69231 0.70187 0.0
H2337 H 0.59677 0.70575 0.67478 0.0
H2338 H 0.58025 0.69025 0.63649 0.0
H2339 H 0.57496 0.6663 0.61991 0.0
H2340 H 0.26722 0.83887 0.7303 0.0
H2341 H 0.29156 0.85831 0.71654 0.0
H2342 H 0.30359 0.8265 0.69298 0.0
H2343 H 0.27938 0.80709 0.70645 0.0
H2344 H 0.31848 0.86672 0.73671 0.0
H2345 H 0.31598 0.85038 0.61797 0.0
H2346 H 0.3002 0.84265 0.64188 0.0
H2347 H 0.31279 0.83603 0.64338 0.0
C2348 C 0.27503 0.83596 0.72227 0.0
C2349 C 0.27107 0.82124 0.71921 0.0
C2350 C 0.28901 0.84716 0.71427 0.0
C2351 C 0.29951 0.84404 0.7029 0.0
C2352 C 0.2957 0.82937 0.70063 0.0
H2353 H 0.39008 0.8926 0.64508 0.0
H2354 H 0.36561 0.8745 0.66083 0.0
C2355 C 0.28173 0.81819 0.70846 0.0
C2356 C 0.31445 0.85602 0.69386 0.0
H2357 H 0.33927 0.86786 0.63635 0.0
C2358 C 0.32294 0.867 0.71465 0.0
C2359 C 0.32047 0.8566 0.66504 0.0
C2360 C 0.31184 0.84587 0.64068 0.0
C2361 C 0.33723 0.8781 0.70786 0.0
C2362 C 0.34332 0.87851 0.67924 0.0
C2363 C 0.33478 0.86763 0.65836 0.0
C2364 C 0.35855 0.8899 0.67059 0.0
C2365 C 0.34585 0.88907 0.73182 0.0
C2366 C 0.363 0.90479 0.67053 0.0
C2367 C 0.37712 0.91527 0.66148 0.0
C2368 C 0.38725 0.91119 0.65212 0.0
C2369 C 0.38275 0.89628 0.65228 0.0
C2370 C 0.36865 0.88584 0.66124 0.0
H2371 H 0.3412 0.88521 0.75456 0.0
H2372 H 0.3573 0.89159 0.73184 0.0
H2373 H 0.34573 0.89925 0.72727 0.0
H2374 H 0.35545 0.90833 0.67692 0.0
H2375 H 0.38 0.92656 0.66137 0.0
H2376 H 0.14695 0.5067 0.65232 0.0
H2377 H 0.16506 0.50032 0.66818 0.0
H2378 H 0.13234 0.45513 0.6689 0.0
H2379 H 0.11413 0.46141 0.65284 0.0
H2380 H 0.16685 0.48605 0.71909 0.0
H2381 H 0.16379 0.45471 0.61707 0.0
H2382 H 0.15596 0.46631 0.61866 0.0
H2383 H 0.14679 0.44868 0.63581 0.0
C2384 C 0.14352 0.49538 0.65592 0.0
C2385 C 0.12895 0.48461 0.65123 0.0
C2386 C 0.15397 0.49174 0.66503 0.0
C2387 C 0.15026 0.4772 0.66938 0.0
C2388 C 0.13567 0.46642 0.6652 0.0
H2389 H 0.20257 0.43653 0.71658 0.0
H2390 H 0.18303 0.44125 0.70259 0.0
C2391 C 0.12517 0.47006 0.65626 0.0
C2392 C 0.16165 0.47345 0.67854 0.0
H2393 H 0.17876 0.45488 0.6565 0.0
C2394 C 0.16945 0.47925 0.70532 0.0
C2395 C 0.16511 0.46449 0.66087 0.0
C2396 C 0.15759 0.45826 0.63136 0.0
C2397 C 0.18035 0.47627 0.71499 0.0
C2398 C 0.18402 0.46753 0.69705 0.0
C2399 C 0.1761 0.4616 0.6704 0.0
C2400 C 0.19611 0.46461 0.7053 0.0
C2401 C 0.18755 0.48228 0.74487 0.0
C2402 C 0.21024 0.47608 0.71099 0.0
C2403 C 0.22146 0.47339 0.71909 0.0
C2404 C 0.21905 0.45914 0.72145 0.0
C2405 C 0.20498 0.44766 0.71496 0.0
C2406 C 0.19371 0.45036 0.70701 0.0
H2407 H 0.18055 0.48451 0.75987 0.0
H2408 H 0.19022 0.47469 0.75653 0.0
H2409 H 0.19774 0.49267 0.74115 0.0
H2410 H 0.21267 0.4872 0.7089 0.0
H2411 H 0.23214 0.48259 0.72307 0.0
H2412 H 0.34155 0.90147 0.26064 0.0
H2413 H 0.36551 0.90666 0.24381 0.0
H2414 H 0.34603 0.86674 0.19359 0.0
H2415 H 0.32192 0.86155 0.21002 0.0
H2416 H 0.38013 0.89225 0.25288 0.0
H2417 H 0.37243 0.89458 0.13034 0.0
H2418 H 0.35986 0.89457 0.15757 0.0
H2419 H 0.35919 0.87789 0.14739 0.0
C2420 C 0.34226 0.8938 0.24577 0.0
C2421 C 0.32961 0.8811 0.2366 0.0
C2422 C 0.35608 0.89679 0.23619 0.0
C2423 C 0.35777 0.88725 0.21693 0.0
C2424 C 0.34516 0.87452 0.20781 0.0
H2425 H 0.43344 0.88655 0.13935 0.0
H2426 H 0.4092 0.88124 0.15449 0.0
C2427 C 0.3313 0.8715 0.21741 0.0
C2428 C 0.37271 0.8905 0.20729 0.0
H2429 H 0.39404 0.89517 0.1457 0.0
C2430 C 0.38314 0.89294 0.22941 0.0
C2431 C 0.37684 0.89141 0.17667 0.0
C2432 C 0.36656 0.88961 0.15159 0.0
C2433 C 0.3973 0.89598 0.22192 0.0
C2434 C 0.40146 0.89695 0.1913 0.0
C2435 C 0.39102 0.89446 0.16917 0.0
C2436 C 0.4165 0.90045 0.18178 0.0
C2437 C 0.40755 0.89771 0.24705 0.0
C2438 C 0.42894 0.91319 0.19147 0.0
C2439 C 0.44293 0.91631 0.1827 0.0
C2440 C 0.44499 0.90688 0.16368 0.0
C2441 C 0.43247 0.89425 0.15365 0.0
C2442 C 0.4185 0.89112 0.16247 0.0
H2443 H 0.40162 0.89252 0.26813 0.0
H2444 H 0.41438 0.89293 0.24092 0.0
H2445 H 0.41477 0.90941 0.25167 0.0
H2446 H 0.42784 0.92084 0.20565 0.0
H2447 H 0.45214 0.92628 0.19055 0.0
H2448 H 0.14957 0.54944 0.12437 0.0
H2449 H 0.15446 0.53036 0.14027 0.0
H2450 H 0.12388 0.51909 0.21275 0.0
H2451 H 0.11914 0.53842 0.19752 0.0
H2452 H 0.16527 0.52664 0.19504 0.0
H2453 H 0.11066 0.47963 0.17348 0.0
H2454 H 0.11635 0.49746 0.15864 0.0
H2455 H 0.11079 0.49334 0.19722 0.0
C2456 C 0.14391 0.54305 0.14388 0.0
C2457 C 0.13392 0.54571 0.15956 0.0
C2458 C 0.14669 0.53199 0.15287 0.0
C2459 C 0.13947 0.52305 0.17759 0.0
C2460 C 0.12944 0.52557 0.19323 0.0
H2461 H 0.14101 0.45062 0.26746 0.0
H2462 H 0.13606 0.46945 0.2501 0.0
C2463 C 0.1267 0.53669 0.18437 0.0
C2464 C 0.14273 0.51139 0.18733 0.0
H2465 H 0.12736 0.47476 0.19859 0.0
C2466 C 0.15697 0.51529 0.19566 0.0
C2467 C 0.13199 0.49651 0.18837 0.0
C2468 C 0.11661 0.49141 0.17872 0.0
C2469 C 0.16066 0.50491 0.20555 0.0
C2470 C 0.14993 0.48999 0.20644 0.0
C2471 C 0.13569 0.4861 0.198 0.0
C2472 C 0.1531 0.47831 0.21669 0.0
C2473 C 0.17597 0.51018 0.21597 0.0
C2474 C 0.16425 0.47661 0.20364 0.0
C2475 C 0.16719 0.46578 0.21374 0.0
C2476 C 0.15894 0.45614 0.23691 0.0
C2477 C 0.14762 0.45769 0.2495 0.0
C2478 C 0.14475 0.46855 0.23955 0.0
H2479 H 0.1815 0.5218 0.22251 0.0
H2480 H 0.1762 0.50378 0.23543 0.0
H2481 H 0.18226 0.50905 0.19733 0.0
H2482 H 0.17066 0.48361 0.18542 0.0
H2483 H 0.17592 0.46494 0.20327 0.0
H2484 H 0.59377 0.69858 0.25711 0.0
H2485 H 0.57489 0.67471 0.24026 0.0
H2486 H 0.55284 0.69422 0.19618 0.0
H2487 H 0.57186 0.71826 0.21269 0.0
H2488 H 0.54604 0.65969 0.25228 0.0
H2489 H 0.55339 0.66877 0.1294 0.0
H2490 H 0.56645 0.6811 0.15619 0.0
H2491 H 0.55016 0.6817 0.14865 0.0
C2492 C 0.585 0.6979 0.24362 0.0
C2493 C 0.58453 0.71054 0.23621 0.0
C2494 C 0.57412 0.68413 0.23401 0.0
C2495 C 0.56241 0.68249 0.21646 0.0
C2496 C 0.56186 0.69507 0.20905 0.0
H2497 H 0.48507 0.6072 0.14142 0.0
H2498 H 0.50409 0.63135 0.15668 0.0
C2499 C 0.57276 0.70889 0.2187 0.0
C2500 C 0.55066 0.6676 0.20683 0.0
H2501 H 0.53291 0.64684 0.14533 0.0
C2502 C 0.54324 0.6569 0.22885 0.0
C2503 C 0.54683 0.66378 0.17627 0.0
C2504 C 0.5547 0.67438 0.15121 0.0
C2505 C 0.53209 0.64277 0.22136 0.0
C2506 C 0.52831 0.63892 0.19079 0.0
C2507 C 0.53569 0.64963 0.16876 0.0
C2508 C 0.5167 0.62395 0.18123 0.0
C2509 C 0.5242 0.63222 0.24649 0.0
C2510 C 0.51735 0.61149 0.18934 0.0
C2511 C 0.50643 0.59755 0.1805 0.0
C2512 C 0.49454 0.59558 0.16297 0.0
C2513 C 0.49405 0.60811 0.15452 0.0
C2514 C 0.50496 0.62203 0.16342 0.0
H2515 H 0.52532 0.63789 0.26813 0.0
H2516 H 0.51249 0.62534 0.24132 0.0
H2517 H 0.52889 0.62506 0.24955 0.0
H2518 H 0.52642 0.61253 0.20231 0.0
H2519 H 0.50746 0.58832 0.18708 0.0
H2520 H 0.1374 0.70041 0.7535 0.0
H2521 H 0.13237 0.67637 0.73733 0.0
H2522 H 0.17557 0.695 0.70125 0.0
H2523 H 0.18073 0.71915 0.71742 0.0
H2524 H 0.13303 0.66562 0.67969 0.0
H2525 H 0.17276 0.66232 0.755 0.0
H2526 H 0.16713 0.6756 0.7601 0.0
H2527 H 0.18016 0.67817 0.7316 0.0
C2528 C 0.14589 0.69947 0.74211 0.0
C2529 C 0.15953 0.71189 0.73692 0.0
C2530 C 0.14296 0.68563 0.73281 0.0
C2531 C 0.15361 0.68368 0.71835 0.0
C2532 C 0.16719 0.69606 0.7128 0.0
H2533 H 0.15749 0.60783 0.65352 0.0
H2534 H 0.16231 0.63199 0.66787 0.0
C2535 C 0.17011 0.70995 0.72192 0.0
C2536 C 0.15042 0.66876 0.70896 0.0
H2537 H 0.16087 0.6434 0.71964 0.0
C2538 C 0.1391 0.66076 0.68852 0.0
C2539 C 0.15829 0.66228 0.72029 0.0
C2540 C 0.17019 0.66994 0.74316 0.0
C2541 C 0.13568 0.64677 0.67869 0.0
C2542 C 0.14349 0.64022 0.69018 0.0
C2543 C 0.15481 0.64824 0.71067 0.0
C2544 C 0.14028 0.62521 0.68108 0.0
C2545 C 0.124 0.63935 0.65531 0.0
C2546 C 0.12628 0.61304 0.6838 0.0
C2547 C 0.12345 0.59908 0.67546 0.0
C2548 C 0.13459 0.59679 0.66455 0.0
C2549 C 0.14861 0.60899 0.66212 0.0
C2550 C 0.1514 0.62292 0.67027 0.0
H2551 H 0.1223 0.64728 0.64228 0.0
H2552 H 0.12667 0.63301 0.63938 0.0
H2553 H 0.11362 0.63184 0.66663 0.0
H2554 H 0.11751 0.61425 0.69286 0.0
H2555 H 0.11257 0.59003 0.6782 0.0
H2556 H 0.43177 0.55439 0.64104 0.0
H2557 H 0.40761 0.53545 0.65654 0.0
H2558 H 0.42647 0.5139 0.70494 0.0
H2559 H 0.45068 0.53277 0.68947 0.0
H2560 H 0.3922 0.50653 0.64675 0.0
H2561 H 0.40077 0.51545 0.76936 0.0
H2562 H 0.4134 0.528 0.74225 0.0
H2563 H 0.41369 0.51171 0.75163 0.0
C2564 C 0.43086 0.54559 0.65481 0.0
C2565 C 0.44343 0.54532 0.66394 0.0
C2566 C 0.41693 0.53473 0.66384 0.0
C2567 C 0.41501 0.52323 0.6825 0.0
C2568 C 0.42749 0.52278 0.6913 0.0
H2569 H 0.33982 0.4471 0.76118 0.0
H2570 H 0.36383 0.46566 0.7441 0.0
C2571 C 0.44144 0.53366 0.68232 0.0
C2572 C 0.4 0.51166 0.69222 0.0
H2573 H 0.37904 0.49455 0.75398 0.0
C2574 C 0.38935 0.504 0.67024 0.0
C2575 C 0.39605 0.50818 0.72286 0.0
C2576 C 0.40652 0.51635 0.74792 0.0
C2577 C 0.37518 0.49291 0.67788 0.0
C2578 C 0.37125 0.48941 0.70852 0.0
C2579 C 0.38189 0.49708 0.73049 0.0
C2580 C 0.35627 0.47781 0.71831 0.0
C2581 C 0.36469 0.48476 0.65286 0.0
C2582 C 0.34374 0.47826 0.7099 0.0
C2583 C 0.32985 0.46753 0.71963 0.0
C2584 C 0.32803 0.45601 0.73825 0.0
C2585 C 0.34061 0.45564 0.74671 0.0
C2586 C 0.35447 0.46636 0.737 0.0
H2587 H 0.3704 0.48572 0.63135 0.0
H2588 H 0.35785 0.47309 0.65847 0.0
H2589 H 0.35747 0.48936 0.64934 0.0
H2590 H 0.34469 0.48708 0.69617 0.0
H2591 H 0.32055 0.46838 0.71279 0.0
H2592 H 0.59465 0.90325 0.75635 0.0
H2593 H 0.57569 0.90836 0.74021 0.0
H2594 H 0.55252 0.86626 0.69875 0.0
H2595 H 0.57145 0.86102 0.71489 0.0
H2596 H 0.56525 0.90928 0.68258 0.0
H2597 H 0.52121 0.86672 0.75168 0.0
H2598 H 0.54008 0.87245 0.75783 0.0
H2599 H 0.53033 0.86029 0.72755 0.0
C2600 C 0.58555 0.89503 0.74377 0.0
C2601 C 0.58469 0.88166 0.73709 0.0
C2602 C 0.57466 0.898 0.73449 0.0
C2603 C 0.56244 0.88766 0.71854 0.0
C2604 C 0.56163 0.87437 0.71147 0.0
H2605 H 0.48312 0.88388 0.65122 0.0
H2606 H 0.50256 0.87919 0.6655 0.0
C2607 C 0.57258 0.87141 0.72058 0.0
C2608 C 0.55069 0.89085 0.70924 0.0
H2609 H 0.5145 0.87933 0.71748 0.0
C2610 C 0.55416 0.90274 0.69031 0.0
C2611 C 0.53613 0.88238 0.71912 0.0
C2612 C 0.53167 0.86982 0.74038 0.0
C2613 C 0.54357 0.90617 0.68057 0.0
C2614 C 0.529 0.89775 0.69062 0.0
C2615 C 0.52556 0.88586 0.70961 0.0
C2616 C 0.51716 0.9009 0.68152 0.0
C2617 C 0.54808 0.91854 0.65877 0.0
C2618 C 0.51856 0.91467 0.6858 0.0
C2619 C 0.50737 0.91742 0.67748 0.0
C2620 C 0.49429 0.90643 0.66504 0.0
C2621 C 0.49288 0.89263 0.66103 0.0
C2622 C 0.50409 0.88992 0.66915 0.0
H2623 H 0.55804 0.92084 0.64626 0.0
H2624 H 0.53936 0.9162 0.64228 0.0
H2625 H 0.55047 0.92847 0.6714 0.0
H2626 H 0.52824 0.9233 0.69607 0.0
H2627 H 0.50887 0.92811 0.68146 0.0
H2628 H 0.26341 0.43968 0.19083 0.0
H2629 H 0.28779 0.4452 0.176 0.0
H2630 H 0.30617 0.48467 0.22758 0.0
H2631 H 0.2819 0.47928 0.24243 0.0
H2632 H 0.30912 0.46748 0.1446 0.0
H2633 H 0.33001 0.46776 0.25863 0.0
H2634 H 0.31103 0.46097 0.25135 0.0
H2635 H 0.32333 0.48015 0.2547 0.0
C2636 C 0.2726 0.44957 0.19903 0.0
C2637 C 0.27047 0.45892 0.21818 0.0
C2638 C 0.28663 0.45271 0.19057 0.0
C2639 C 0.29903 0.46525 0.20104 0.0
C2640 C 0.29694 0.4747 0.21979 0.0
H2641 H 0.3931 0.50381 0.17044 0.0
H2642 H 0.36889 0.49867 0.18627 0.0
C2643 C 0.28293 0.47157 0.22831 0.0
C2644 C 0.31405 0.4686 0.19174 0.0
H2645 H 0.34731 0.47634 0.21905 0.0
C2646 C 0.31742 0.46933 0.16096 0.0
C2647 C 0.32507 0.47112 0.21285 0.0
C2648 C 0.32218 0.46983 0.24622 0.0
C2649 C 0.33135 0.4727 0.15083 0.0
C2650 C 0.34235 0.47518 0.17194 0.0
C2651 C 0.33901 0.47451 0.20271 0.0
C2652 C 0.35726 0.47826 0.16254 0.0
C2653 C 0.33423 0.47392 0.11745 0.0
C2654 C 0.35904 0.46846 0.14434 0.0
C2655 C 0.37289 0.47137 0.13526 0.0
C2656 C 0.38551 0.48416 0.14424 0.0
C2657 C 0.38374 0.49386 0.16296 0.0
C2658 C 0.36983 0.49092 0.17207 0.0
H2659 H 0.32642 0.47601 0.10499 0.0
H2660 H 0.34539 0.48274 0.11228 0.0
H2661 H 0.33304 0.46357 0.10905 0.0
H2662 H 0.34967 0.45844 0.13718 0.0
H2663 H 0.37367 0.46353 0.12103 0.0
H2664 H 0.58584 0.82967 0.26243 0.0
H2665 H 0.57992 0.84827 0.24786 0.0
H2666 H 0.57238 0.83228 0.15694 0.0
H2667 H 0.57773 0.81332 0.17151 0.0
H2668 H 0.59208 0.87055 0.20883 0.0
H2669 H 0.53576 0.83359 0.17186 0.0
H2670 H 0.54615 0.82728 0.1924 0.0
H2671 H 0.54874 0.83046 0.15256 0.0
C2672 C 0.58274 0.82992 0.23937 0.0
C2673 C 0.58222 0.81975 0.21833 0.0
C2674 C 0.57944 0.84071 0.23098 0.0
C2675 C 0.5754 0.84167 0.20131 0.0
C2676 C 0.57511 0.8317 0.18013 0.0
H2677 H 0.57672 0.91757 0.1206 0.0
H2678 H 0.58183 0.89876 0.13726 0.0
C2679 C 0.57842 0.82091 0.18849 0.0
C2680 C 0.57177 0.85321 0.19252 0.0
H2681 H 0.54562 0.85855 0.15975 0.0
C2682 C 0.58189 0.86787 0.19818 0.0
C2683 C 0.55838 0.8499 0.17901 0.0
C2684 C 0.54656 0.83445 0.17386 0.0
C2685 C 0.57919 0.87917 0.19022 0.0
C2686 C 0.56604 0.8759 0.17561 0.0
C2687 C 0.55577 0.86122 0.17058 0.0
C2688 C 0.56278 0.88751 0.16532 0.0
C2689 C 0.5904 0.89453 0.19815 0.0
C2690 C 0.5501 0.88746 0.17461 0.0
C2691 C 0.54704 0.89827 0.16486 0.0
C2692 C 0.55654 0.90943 0.14533 0.0
C2693 C 0.56915 0.90934 0.13584 0.0
C2694 C 0.57217 0.89855 0.14556 0.0
H2695 H 0.59746 0.89487 0.21687 0.0
H2696 H 0.59742 0.89976 0.17832 0.0
H2697 H 0.58524 0.90097 0.2047 0.0
H2698 H 0.54256 0.87908 0.18965 0.0
H2699 H 0.53719 0.89784 0.17259 0.0
H2700 H 0.23 0.7578 0.24013 0.0
H2701 H 0.21105 0.73362 0.2248 0.0
H2702 H 0.18921 0.7524 0.17719 0.0
H2703 H 0.20809 0.77664 0.19248 0.0
H2704 H 0.18213 0.7182 0.23511 0.0
H2705 H 0.19078 0.72684 0.11243 0.0
H2706 H 0.20339 0.73944 0.13947 0.0
H2707 H 0.18709 0.73975 0.13032 0.0
C2708 C 0.22114 0.75687 0.22657 0.0
C2709 C 0.22077 0.7694 0.21759 0.0
C2710 C 0.21027 0.74293 0.21764 0.0
C2711 C 0.19869 0.741 0.19926 0.0
C2712 C 0.19815 0.75345 0.19062 0.0
H2713 H 0.12212 0.66637 0.12186 0.0
H2714 H 0.14096 0.69024 0.13883 0.0
C2715 C 0.20903 0.76741 0.19949 0.0
C2716 C 0.18714 0.72601 0.18962 0.0
H2717 H 0.16987 0.70512 0.12794 0.0
C2718 C 0.17954 0.71535 0.21163 0.0
C2719 C 0.1836 0.72209 0.15899 0.0
C2720 C 0.19172 0.73257 0.13391 0.0
C2721 C 0.16843 0.7012 0.20404 0.0
C2722 C 0.16485 0.69732 0.17343 0.0
C2723 C 0.17248 0.70795 0.15142 0.0
C2724 C 0.15313 0.68242 0.1637 0.0
C2725 C 0.16032 0.69067 0.22907 0.0
C2726 C 0.15352 0.6698 0.17165 0.0
C2727 C 0.14264 0.65599 0.16195 0.0
C2728 C 0.13106 0.65436 0.14384 0.0
C2729 C 0.13075 0.66703 0.13585 0.0
C2730 C 0.14161 0.6808 0.14552 0.0
H2731 H 0.16146 0.69634 0.25072 0.0
H2732 H 0.14862 0.68397 0.22369 0.0
H2733 H 0.1648 0.68333 0.23216 0.0
H2734 H 0.16239 0.67063 0.18502 0.0
H2735 H 0.14341 0.64659 0.16842 0.0
H2736 H 0.33292 0.21836 0.14056 0.0
H2737 H 0.35103 0.21266 0.1598 0.0
H2738 H 0.31775 0.16816 0.17255 0.0
H2739 H 0.29959 0.17371 0.15295 0.0
H2740 H 0.35372 0.20216 0.21435 0.0
H2741 H 0.34744 0.16323 0.12491 0.0
H2742 H 0.33982 0.17497 0.12182 0.0
H2743 H 0.33083 0.15866 0.14389 0.0
C2744 C 0.3294 0.20734 0.1474 0.0
C2745 C 0.3147 0.19651 0.14497 0.0
C2746 C 0.33982 0.20409 0.15846 0.0
C2747 C 0.33591 0.1899 0.16723 0.0
C2748 C 0.3212 0.17912 0.16533 0.0
H2749 H 0.38259 0.14831 0.2395 0.0
H2750 H 0.36464 0.15423 0.22035 0.0
C2751 C 0.31076 0.18236 0.15428 0.0
C2752 C 0.34715 0.18648 0.1787 0.0
H2753 H 0.36208 0.16489 0.1666 0.0
C2754 C 0.35558 0.19405 0.20378 0.0
C2755 C 0.34967 0.17589 0.16508 0.0
C2756 C 0.34157 0.1678 0.13727 0.0
C2757 C 0.36613 0.19115 0.2159 0.0
C2758 C 0.36865 0.18056 0.20228 0.0
C2759 C 0.36023 0.173 0.17718 0.0
C2760 C 0.37982 0.17705 0.21385 0.0
C2761 C 0.37418 0.19921 0.24377 0.0
C2762 C 0.39452 0.18779 0.21628 0.0
C2763 C 0.40488 0.18444 0.22733 0.0
C2764 C 0.40086 0.17019 0.23606 0.0
C2765 C 0.38618 0.15941 0.23311 0.0
C2766 C 0.37584 0.16278 0.22209 0.0
H2767 H 0.36826 0.20372 0.25616 0.0
H2768 H 0.37596 0.19204 0.25918 0.0
H2769 H 0.38491 0.20839 0.23722 0.0
H2770 H 0.39804 0.19882 0.20943 0.0
H2771 H 0.41604 0.19305 0.22906 0.0
H2772 H 0.86617 0.1338 0.15202 0.0
H2773 H 0.87154 0.15737 0.17227 0.0
H2774 H 0.82686 0.14573 0.16061 0.0
H2775 H 0.82135 0.1221 0.14079 0.0
H2776 H 0.86916 0.17946 0.1467 0.0
H2777 H 0.83351 0.1596 0.24676 0.0
H2778 H 0.83789 0.14805 0.22485 0.0
H2779 H 0.82415 0.15193 0.21217 0.0
C2780 C 0.85743 0.13617 0.15396 0.0
C2781 C 0.84327 0.12587 0.14489 0.0
C2782 C 0.86054 0.14973 0.16553 0.0
C2783 C 0.84959 0.15337 0.16857 0.0
C2784 C 0.83548 0.14316 0.1593 0.0
H2785 H 0.8471 0.23052 0.22991 0.0
H2786 H 0.84156 0.20687 0.20973 0.0
C2787 C 0.83235 0.12961 0.14773 0.0
C2788 C 0.85301 0.16795 0.18061 0.0
H2789 H 0.84382 0.18462 0.23527 0.0
C2790 C 0.86366 0.18056 0.16618 0.0
C2791 C 0.84585 0.16953 0.206 0.0
C2792 C 0.83481 0.15657 0.22355 0.0
C2793 C 0.86712 0.19455 0.17596 0.0
C2794 C 0.85997 0.19613 0.20137 0.0
C2795 C 0.84931 0.18352 0.21579 0.0
C2796 C 0.86346 0.21071 0.21348 0.0
C2797 C 0.87816 0.2075 0.15842 0.0
C2798 C 0.87759 0.22085 0.22279 0.0
C2799 C 0.88081 0.23443 0.23431 0.0
C2800 C 0.86997 0.23828 0.23708 0.0
C2801 C 0.85579 0.22806 0.22802 0.0
C2802 C 0.85257 0.21446 0.2165 0.0
H2803 H 0.87945 0.20448 0.13519 0.0
H2804 H 0.8751 0.21605 0.15718 0.0
H2805 H 0.88884 0.21213 0.16977 0.0
H2806 H 0.88615 0.2182 0.2215 0.0
H2807 H 0.89183 0.24188 0.24123 0.0
H2808 H 0.79856 0.6576 0.24201 0.0
H2809 H 0.82222 0.6755 0.22204 0.0
H2810 H 0.83269 0.64182 0.20674 0.0
H2811 H 0.80908 0.62383 0.22719 0.0
H2812 H 0.85545 0.66574 0.2321 0.0
H2813 H 0.83523 0.68331 0.13548 0.0
H2814 H 0.82809 0.68494 0.17087 0.0
H2815 H 0.82363 0.6673 0.1571 0.0
C2816 C 0.80582 0.65392 0.23428 0.0
C2817 C 0.80173 0.63914 0.23613 0.0
C2818 C 0.81939 0.66423 0.22261 0.0
C2819 C 0.82928 0.66009 0.2122 0.0
C2820 C 0.8253 0.64537 0.21435 0.0
H2821 H 0.91728 0.70591 0.13578 0.0
H2822 H 0.89368 0.68789 0.15588 0.0
C2823 C 0.81172 0.63504 0.22604 0.0
C2824 C 0.84385 0.67112 0.19981 0.0
H2825 H 0.8604 0.69751 0.14612 0.0
C2826 C 0.8565 0.67261 0.21318 0.0
C2827 C 0.84538 0.68021 0.17511 0.0
C2828 C 0.83237 0.6788 0.15859 0.0
C2829 C 0.87047 0.68303 0.20308 0.0
C2830 C 0.872 0.69214 0.17842 0.0
C2831 C 0.85935 0.69063 0.16503 0.0
C2832 C 0.88656 0.70322 0.16611 0.0
C2833 C 0.88349 0.68443 0.21955 0.0
C2834 C 0.89049 0.71794 0.16423 0.0
C2835 C 0.90404 0.72832 0.15252 0.0
C2836 C 0.91404 0.7243 0.14211 0.0
C2837 C 0.91001 0.70953 0.14375 0.0
C2838 C 0.89647 0.69916 0.15548 0.0
H2839 H 0.88063 0.67982 0.24258 0.0
H2840 H 0.88783 0.67838 0.2071 0.0
H2841 H 0.89219 0.69594 0.22121 0.0
H2842 H 0.88309 0.72143 0.17204 0.0
H2843 H 0.90664 0.73953 0.15155 0.0
H2844 H 0.15577 0.37512 0.31347 0.0
H2845 H 0.16153 0.35718 0.33336 0.0
H2846 H 0.20677 0.3897 0.33691 0.0
H2847 H 0.20108 0.40778 0.31742 0.0
H2848 H 0.17858 0.34696 0.31062 0.0
H2849 H 0.20069 0.37291 0.42073 0.0
H2850 H 0.19075 0.37849 0.39661 0.0
H2851 H 0.20954 0.38456 0.38926 0.0
C2852 C 0.16695 0.37854 0.31866 0.0
C2853 C 0.17792 0.39303 0.31394 0.0
C2854 C 0.17025 0.3682 0.33002 0.0
C2855 C 0.18458 0.37202 0.33721 0.0
C2856 C 0.19557 0.38645 0.33231 0.0
H2857 H 0.22652 0.32484 0.4052 0.0
H2858 H 0.22071 0.34277 0.38544 0.0
C2859 C 0.19229 0.39681 0.32095 0.0
C2860 C 0.18802 0.36084 0.34901 0.0
H2861 H 0.20368 0.35292 0.40783 0.0
C2862 C 0.184 0.34826 0.33196 0.0
C2863 C 0.19513 0.36242 0.37686 0.0
C2864 C 0.19917 0.37525 0.3971 0.0
C2865 C 0.18713 0.33747 0.34158 0.0
C2866 C 0.19424 0.33905 0.36944 0.0
C2867 C 0.19825 0.35163 0.38649 0.0
C2868 C 0.1977 0.32787 0.38123 0.0
C2869 C 0.18312 0.32466 0.3213 0.0
C2870 C 0.18673 0.31341 0.3859 0.0
C2871 C 0.19003 0.30304 0.39717 0.0
C2872 C 0.2044 0.30686 0.40433 0.0
C2873 C 0.21534 0.32139 0.39988 0.0
C2874 C 0.21202 0.33172 0.3886 0.0
H2875 H 0.18165 0.32704 0.29766 0.0
H2876 H 0.19152 0.32139 0.32185 0.0
H2877 H 0.17272 0.31535 0.32903 0.0
H2878 H 0.17554 0.31013 0.38119 0.0
H2879 H 0.18127 0.29205 0.40049 0.0
H2880 H 0.63289 0.80059 0.31921 0.0
H2881 H 0.65095 0.82433 0.33877 0.0
H2882 H 0.68423 0.81291 0.32815 0.0
H2883 H 0.66622 0.78906 0.30899 0.0
H2884 H 0.68667 0.82629 0.38209 0.0
H2885 H 0.68094 0.85873 0.29143 0.0
H2886 H 0.66422 0.84683 0.3102 0.0
H2887 H 0.67324 0.83935 0.28869 0.0
C2888 C 0.64404 0.80308 0.321 0.0
C2889 C 0.64801 0.7928 0.31232 0.0
C2890 C 0.65443 0.81677 0.33202 0.0
C2891 C 0.66911 0.82065 0.33449 0.0
C2892 C 0.67304 0.81031 0.32636 0.0
H2893 H 0.74917 0.89753 0.39595 0.0
H2894 H 0.7311 0.87377 0.37652 0.0
C2895 C 0.66267 0.79662 0.31534 0.0
C2896 C 0.6803 0.83533 0.34594 0.0
H2897 H 0.69537 0.8718 0.33327 0.0
C2898 C 0.6886 0.83622 0.37128 0.0
C2899 C 0.68291 0.8484 0.33202 0.0
C2900 C 0.67497 0.84834 0.30392 0.0
C2901 C 0.69913 0.84969 0.38334 0.0
C2902 C 0.70174 0.86276 0.36942 0.0
C2903 C 0.69344 0.86187 0.34408 0.0
C2904 C 0.71294 0.87744 0.38085 0.0
C2905 C 0.70708 0.84975 0.41144 0.0
C2906 C 0.709 0.88777 0.389 0.0
C2907 C 0.71938 0.90148 0.39994 0.0
C2908 C 0.73405 0.90532 0.40288 0.0
C2909 C 0.73801 0.89503 0.39422 0.0
C2910 C 0.72762 0.88133 0.38327 0.0
H2911 H 0.70111 0.83936 0.42392 0.0
H2912 H 0.71784 0.85127 0.40516 0.0
H2913 H 0.7088 0.85873 0.42667 0.0
H2914 H 0.69781 0.88517 0.38726 0.0
H2915 H 0.71583 0.90903 0.40629 0.0
H2916 H 0.25035 0.88345 0.30634 0.0
H2917 H 0.22664 0.87766 0.32622 0.0
H2918 H 0.21574 0.83323 0.33881 0.0
H2919 H 0.23953 0.83896 0.3193 0.0
H2920 H 0.19927 0.85884 0.30595 0.0
H2921 H 0.20559 0.84241 0.42056 0.0
H2922 H 0.22068 0.85172 0.39511 0.0
H2923 H 0.20846 0.83256 0.39122 0.0
C2924 C 0.24299 0.87244 0.31351 0.0
C2925 C 0.24703 0.86172 0.31131 0.0
C2926 C 0.22935 0.86913 0.32486 0.0
C2927 C 0.21934 0.85504 0.33459 0.0
C2928 C 0.22329 0.84427 0.33221 0.0
H2929 H 0.13113 0.8139 0.40794 0.0
H2930 H 0.15475 0.81943 0.38788 0.0
C2931 C 0.23694 0.84757 0.32082 0.0
C2932 C 0.20472 0.85158 0.34644 0.0
H2933 H 0.18216 0.83808 0.40746 0.0
C2934 C 0.19558 0.85436 0.32822 0.0
C2935 C 0.19975 0.84569 0.37549 0.0
C2936 C 0.20916 0.84303 0.39688 0.0
C2937 C 0.18167 0.85121 0.3379 0.0
C2938 C 0.17671 0.84535 0.36698 0.0
C2939 C 0.18584 0.84255 0.38519 0.0
C2940 C 0.16214 0.84203 0.37892 0.0
C2941 C 0.17225 0.85384 0.31646 0.0
C2942 C 0.15828 0.85286 0.38103 0.0
C2943 C 0.14469 0.84971 0.39247 0.0
C2944 C 0.13457 0.83564 0.40237 0.0
C2945 C 0.13852 0.82484 0.40046 0.0
C2946 C 0.1521 0.828 0.38901 0.0
H2947 H 0.17575 0.8543 0.29277 0.0
H2948 H 0.16071 0.84523 0.31844 0.0
H2949 H 0.17307 0.8644 0.32185 0.0
H2950 H 0.16586 0.86385 0.37416 0.0
H2951 H 0.14218 0.85838 0.39378 0.0
H2952 H 0.71564 0.81366 0.90629 0.0
H2953 H 0.69772 0.81937 0.88597 0.0
H2954 H 0.73092 0.86409 0.87588 0.0
H2955 H 0.74896 0.85845 0.89583 0.0
H2956 H 0.6886 0.83778 0.90656 0.0
H2957 H 0.71255 0.85559 0.79323 0.0
H2958 H 0.7182 0.84613 0.81857 0.0
H2959 H 0.72492 0.86522 0.82322 0.0
C2960 C 0.71921 0.82471 0.89956 0.0
C2961 C 0.73388 0.83555 0.90261 0.0
C2962 C 0.70888 0.82798 0.88797 0.0
C2963 C 0.71289 0.84214 0.87882 0.0
C2964 C 0.72751 0.853 0.88202 0.0
H2965 H 0.66638 0.88387 0.80571 0.0
H2966 H 0.68426 0.87806 0.82585 0.0
C2967 C 0.73785 0.84976 0.89366 0.0
C2968 C 0.70174 0.84557 0.86672 0.0
H2969 H 0.69325 0.85969 0.80595 0.0
C2970 C 0.6896 0.8425 0.88448 0.0
C2971 C 0.70295 0.85178 0.83791 0.0
C2972 C 0.71527 0.85476 0.81697 0.0
C2973 C 0.6789 0.84571 0.87462 0.0
C2974 C 0.6801 0.85191 0.84579 0.0
C2975 C 0.69224 0.85497 0.82803 0.0
C2976 C 0.66897 0.85538 0.83371 0.0
C2977 C 0.66661 0.84278 0.89563 0.0
C2978 C 0.6543 0.8446 0.83092 0.0
C2979 C 0.64398 0.84791 0.81943 0.0
C2980 C 0.64803 0.8621 0.81016 0.0
C2981 C 0.66275 0.87284 0.81268 0.0
C2982 C 0.67305 0.86951 0.82419 0.0
H2983 H 0.6694 0.84205 0.91938 0.0
H2984 H 0.66365 0.85138 0.89392 0.0
H2985 H 0.65697 0.83228 0.88958 0.0
H2986 H 0.65081 0.83353 0.83731 0.0
H2987 H 0.63281 0.83929 0.81763 0.0
H2988 H 0.1568 0.79136 0.8037 0.0
H2989 H 0.16258 0.81504 0.82388 0.0
H2990 H 0.20627 0.82473 0.84198 0.0
H2991 H 0.20064 0.80116 0.82146 0.0
H2992 H 0.17168 0.82704 0.87988 0.0
H2993 H 0.21353 0.86055 0.79575 0.0
H2994 H 0.20151 0.84134 0.79086 0.0
H2995 H 0.21709 0.84783 0.81494 0.0
C2996 C 0.16766 0.79851 0.8119 0.0
C2997 C 0.17825 0.79426 0.81073 0.0
C2998 C 0.17096 0.8121 0.8235 0.0
C2999 C 0.18495 0.8219 0.83408 0.0
C3000 C 0.19548 0.8176 0.83337 0.0
H3001 H 0.22578 0.90894 0.91269 0.0
H3002 H 0.22008 0.88524 0.89285 0.0
C3003 C 0.1922 0.80401 0.82178 0.0
C3004 C 0.1884 0.83645 0.84626 0.0
H3005 H 0.21096 0.87302 0.83736 0.0
C3006 C 0.18023 0.83708 0.87045 0.0
C3007 C 0.19958 0.84965 0.83414 0.0
C3008 C 0.20836 0.84988 0.80732 0.0
C3009 C 0.18307 0.85041 0.88313 0.0
C3010 C 0.19423 0.86362 0.87098 0.0
C3011 C 0.20241 0.86298 0.8468 0.0
C3012 C 0.19763 0.87817 0.88304 0.0
C3013 C 0.17431 0.85017 0.91 0.0
C3014 C 0.18702 0.88236 0.88387 0.0
C3015 C 0.19025 0.89597 0.8953 0.0
C3016 C 0.20423 0.90584 0.90602 0.0
C3017 C 0.21489 0.9017 0.90474 0.0
C3018 C 0.21164 0.88809 0.89333 0.0
H3019 H 0.16926 0.83953 0.9217 0.0
H3020 H 0.18114 0.85878 0.92635 0.0
H3021 H 0.16548 0.85208 0.90241 0.0
H3022 H 0.17622 0.87514 0.87547 0.0
H3023 H 0.18174 0.89873 0.89571 0.0
H3024 H 0.14345 0.29425 0.90838 0.0
H3025 H 0.16664 0.31306 0.88825 0.0
H3026 H 0.14768 0.33951 0.86745 0.0
H3027 H 0.12434 0.32071 0.88773 0.0
H3028 H 0.17427 0.32575 0.83067 0.0
H3029 H 0.18363 0.36717 0.91703 0.0
H3030 H 0.17014 0.34829 0.92149 0.0
H3031 H 0.16665 0.35975 0.89743 0.0
C3032 C 0.14412 0.30403 0.89946 0.0
C3033 C 0.13189 0.30588 0.89986 0.0
C3034 C 0.15747 0.31482 0.8879 0.0
C3035 C 0.1591 0.32789 0.87668 0.0
C3036 C 0.14686 0.32969 0.87645 0.0
H3037 H 0.23532 0.407 0.80885 0.0
H3038 H 0.2111 0.38871 0.82592 0.0
C3039 C 0.13344 0.31883 0.88785 0.0
C3040 C 0.17359 0.33951 0.86524 0.0
H3041 H 0.20083 0.37436 0.87788 0.0
C3042 C 0.18006 0.33637 0.84103 0.0
C3043 C 0.18123 0.35345 0.87855 0.0
C3044 C 0.17516 0.3574 0.90522 0.0
C3045 C 0.19377 0.34673 0.82963 0.0
C3046 C 0.20156 0.36061 0.84328 0.0
C3047 C 0.195 0.36379 0.86732 0.0
C3048 C 0.21652 0.37189 0.83316 0.0
C3049 C 0.19958 0.34276 0.80253 0.0
C3050 C 0.22792 0.3688 0.83196 0.0
C3051 C 0.24181 0.37925 0.82203 0.0
C3052 C 0.24483 0.39322 0.81336 0.0
C3053 C 0.2335 0.39642 0.81528 0.0
C3054 C 0.21958 0.38592 0.82508 0.0
H3055 H 0.19072 0.33394 0.7893 0.0
H3056 H 0.20576 0.35224 0.78757 0.0
H3057 H 0.20692 0.33881 0.8101 0.0
H3058 H 0.2261 0.35827 0.83884 0.0
H3059 H 0.25019 0.37633 0.82117 0.0
H3060 H 0.8215 0.70634 0.6376 0.0
H3061 H 0.8269 0.68808 0.65705 0.0
H3062 H 0.87146 0.72103 0.67052 0.0
H3063 H 0.86619 0.73939 0.65077 0.0
H3064 H 0.86892 0.69638 0.64349 0.0
H3065 H 0.83332 0.68062 0.74374 0.0
H3066 H 0.82414 0.67935 0.70908 0.0
H3067 H 0.83802 0.69677 0.72232 0.0
C3068 C 0.83245 0.70978 0.64484 0.0
C3069 C 0.84336 0.72446 0.64269 0.0
C3070 C 0.83551 0.69928 0.65618 0.0
C3071 C 0.84956 0.70311 0.66583 0.0
C3072 C 0.86051 0.71773 0.66345 0.0
H3073 H 0.89162 0.65629 0.73649 0.0
H3074 H 0.88601 0.67435 0.7169 0.0
C3075 C 0.85745 0.72826 0.65218 0.0
C3076 C 0.8529 0.69187 0.67764 0.0
H3077 H 0.84369 0.66598 0.7322 0.0
C3078 C 0.86344 0.6898 0.66299 0.0
C3079 C 0.84576 0.68314 0.70303 0.0
C3080 C 0.83478 0.68513 0.72067 0.0
C3081 C 0.86681 0.67918 0.67257 0.0
C3082 C 0.85972 0.67049 0.69806 0.0
C3083 C 0.84916 0.67255 0.71268 0.0
C3084 C 0.86317 0.65934 0.71006 0.0
C3085 C 0.87769 0.67713 0.65468 0.0
C3086 C 0.85219 0.6448 0.71376 0.0
C3087 C 0.85536 0.63438 0.72527 0.0
C3088 C 0.86961 0.63821 0.7336 0.0
C3089 C 0.88054 0.65281 0.73011 0.0
C3090 C 0.87736 0.6632 0.71866 0.0
H3091 H 0.87877 0.68129 0.63137 0.0
H3092 H 0.88847 0.68324 0.66559 0.0
H3093 H 0.87462 0.66552 0.65363 0.0
H3094 H 0.84113 0.64147 0.70755 0.0
H3095 H 0.8466 0.62332 0.72772 0.0
H3096 H 0.33319 0.12318 0.63611 0.0
H3097 H 0.35122 0.14679 0.65611 0.0
H3098 H 0.31751 0.15681 0.67515 0.0
H3099 H 0.2994 0.13327 0.65473 0.0
H3100 H 0.34093 0.17973 0.64875 0.0
H3101 H 0.36016 0.15959 0.74271 0.0
H3102 H 0.36134 0.1526 0.70678 0.0
H3103 H 0.34387 0.14793 0.72193 0.0
C3104 C 0.32954 0.13033 0.64471 0.0
C3105 C 0.31472 0.12614 0.64388 0.0
C3106 C 0.33992 0.14387 0.65637 0.0
C3107 C 0.33581 0.15362 0.66777 0.0
C3108 C 0.32104 0.14953 0.66673 0.0
H3109 H 0.38145 0.24131 0.74501 0.0
H3110 H 0.36349 0.21766 0.7251 0.0
C3111 C 0.31065 0.13599 0.65506 0.0
C3112 C 0.3469 0.16818 0.67998 0.0
H3113 H 0.37389 0.18481 0.7324 0.0
C3114 C 0.34807 0.1808 0.66716 0.0
C3115 C 0.35634 0.16975 0.70399 0.0
C3116 C 0.35532 0.15676 0.71988 0.0
C3117 C 0.35848 0.19479 0.67716 0.0
C3118 C 0.36791 0.19635 0.70117 0.0
C3119 C 0.36675 0.18374 0.71399 0.0
C3120 C 0.37897 0.21092 0.71342 0.0
C3121 C 0.3595 0.20778 0.66127 0.0
C3122 C 0.39376 0.21507 0.71445 0.0
C3123 C 0.40412 0.22865 0.72607 0.0
C3124 C 0.39998 0.23845 0.73722 0.0
C3125 C 0.38515 0.2342 0.73644 0.0
C3126 C 0.37481 0.22063 0.72483 0.0
H3127 H 0.35467 0.20495 0.63842 0.0
H3128 H 0.35345 0.21192 0.67435 0.0
H3129 H 0.37094 0.21662 0.65925 0.0
H3130 H 0.39732 0.20783 0.70604 0.0
H3131 H 0.41538 0.23142 0.72637 0.0
H3132 H 0.90617 0.17309 0.65186 0.0
H3133 H 0.8824 0.16755 0.67125 0.0
H3134 H 0.89367 0.21206 0.65834 0.0
H3135 H 0.91734 0.21765 0.63858 0.0
H3136 H 0.87451 0.17796 0.7198 0.0
H3137 H 0.85496 0.19126 0.6159 0.0
H3138 H 0.87086 0.18935 0.61648 0.0
H3139 H 0.87188 0.20587 0.62919 0.0
C3140 C 0.90362 0.18173 0.65306 0.0
C3141 C 0.91378 0.19584 0.64341 0.0
C3142 C 0.88996 0.17853 0.66422 0.0
C3143 C 0.88599 0.18929 0.66585 0.0
C3144 C 0.89621 0.20343 0.65671 0.0
H3145 H 0.80901 0.19186 0.728 0.0
H3146 H 0.83278 0.1974 0.70856 0.0
C3147 C 0.90986 0.20665 0.64557 0.0
C3148 C 0.87132 0.18578 0.67756 0.0
H3149 H 0.8406 0.18696 0.65969 0.0
C3150 C 0.86709 0.17986 0.70654 0.0
C3151 C 0.86151 0.18826 0.66047 0.0
C3152 C 0.86494 0.1939 0.62868 0.0
C3153 C 0.8536 0.17665 0.71901 0.0
C3154 C 0.84379 0.17913 0.70192 0.0
C3155 C 0.84803 0.18505 0.67295 0.0
C3156 C 0.82912 0.17563 0.71363 0.0
C3157 C 0.85016 0.17099 0.75078 0.0
C3158 C 0.81888 0.16146 0.7226 0.0
C3159 C 0.80523 0.15824 0.73375 0.0
C3160 C 0.80134 0.16907 0.73612 0.0
C3161 C 0.81153 0.1832 0.72664 0.0
C3162 C 0.82519 0.18641 0.71546 0.0
H3163 H 0.86013 0.17358 0.76355 0.0
H3164 H 0.84427 0.17557 0.76301 0.0
H3165 H 0.84317 0.15902 0.75023 0.0
H3166 H 0.8214 0.15282 0.72084 0.0
H3167 H 0.79773 0.14722 0.74061 0.0
H3168 H 1.00028 0.54953 0.4598 0.0
H3169 H 1.01828 0.54353 0.47844 0.0
H3170 H 0.98406 0.50194 0.50843 0.0
H3171 H 0.96594 0.50784 0.48983 0.0
H3172 H 1.00633 0.51641 0.5516 0.0
H3173 H 0.02938 0.51503 0.44066 0.0
H3174 H 0.02886 0.53135 0.44803 0.0
H3175 H 1.01221 0.51442 0.44456 0.0
C3176 C 0.99652 0.53909 0.47035 0.0
C3177 C 0.98156 0.52918 0.47317 0.0
C3178 C 1.00688 0.53562 0.48085 0.0
C3179 C 1.00261 0.52217 0.49454 0.0
C3180 C 0.98769 0.51235 0.49784 0.0
H3181 H 0.05778 0.48448 0.53762 0.0
H3182 H 0.03918 0.48928 0.517 0.0
C3183 C 0.97732 0.51576 0.48713 0.0
C3184 C 1.01367 0.51847 0.50587 0.0
H3185 H 0.04196 0.51386 0.48371 0.0
C3186 C 1.01408 0.51582 0.5367 0.0
C3187 C 1.02374 0.5175 0.48652 0.0
C3188 C 1.02351 0.51959 0.45305 0.0
C3189 C 0.02443 0.51261 0.54872 0.0
C3190 C 0.03479 0.51207 0.52951 0.0
C3191 C 0.03415 0.51437 0.49857 0.0
C3192 C 0.04643 0.50934 0.54128 0.0
C3193 C 0.02411 0.50967 0.58195 0.0
C3194 C 0.05696 0.51911 0.56136 0.0
C3195 C 0.06767 0.51646 0.57301 0.0
C3196 C 0.06819 0.50391 0.56499 0.0
C3197 C 0.05778 0.49424 0.54441 0.0
C3198 C 0.0471 0.49698 0.53257 0.0
H3199 H 1.01354 0.50697 0.59221 0.0
H3200 H 0.02622 0.50062 0.58627 0.0
H3201 H 0.03271 0.51949 0.5933 0.0
H3202 H 0.05689 0.52885 0.56812 0.0
H3203 H 0.07544 0.52421 0.5887 0.0
H3204 H 0.51379 0.56435 0.56206 0.0
H3205 H 0.50835 0.5406 0.54268 0.0
H3206 H 0.5529 0.55203 0.55559 0.0
H3207 H 0.55841 0.57567 0.57526 0.0
H3208 H 0.51916 0.53293 0.49392 0.0
H3209 H 0.53189 0.51327 0.59842 0.0
H3210 H 0.52983 0.52909 0.59765 0.0
H3211 H 0.54649 0.53027 0.5854 0.0
C3212 C 0.52246 0.56184 0.56084 0.0
C3213 C 0.53656 0.57203 0.57045 0.0
C3214 C 0.51931 0.5482 0.5497 0.0
C3215 C 0.53012 0.5443 0.54808 0.0
C3216 C 0.54425 0.55454 0.55719 0.0
H3217 H 0.53321 0.46751 0.48702 0.0
H3218 H 0.5386 0.49123 0.50642 0.0
C3219 C 0.54741 0.56817 0.56828 0.0
C3220 C 0.52669 0.52966 0.53644 0.0
H3221 H 0.5278 0.49895 0.55469 0.0
C3222 C 0.52098 0.52549 0.50731 0.0
C3223 C 0.52908 0.51985 0.55372 0.0
C3224 C 0.53453 0.52325 0.58564 0.0
C3225 C 0.51789 0.51204 0.49487 0.0
C3226 C 0.52027 0.50222 0.51215 0.0
C3227 C 0.52598 0.50639 0.54129 0.0
C3228 C 0.51687 0.48759 0.50049 0.0
C3229 C 0.51248 0.50866 0.46293 0.0
C3230 C 0.50278 0.47738 0.49108 0.0
C3231 C 0.49966 0.46377 0.47993 0.0
C3232 C 0.5105 0.45988 0.47805 0.0
C3233 C 0.52455 0.47003 0.48801 0.0
C3234 C 0.52766 0.48366 0.49917 0.0
H3235 H 0.51518 0.51866 0.45014 0.0
H3236 H 0.51714 0.50278 0.45094 0.0
H3237 H 0.50051 0.50169 0.4631 0.0
H3238 H 0.49413 0.4799 0.49248 0.0
H3239 H 0.4887 0.45629 0.4727 0.0
H3240 H 0.58097 0.04058 0.46364 0.0
H3241 H 0.55688 0.02272 0.48196 0.0
H3242 H 0.54927 0.05714 0.50948 0.0
H3243 H 0.5734 0.07513 0.49114 0.0
H3244 H 0.54121 0.03506 0.55358 0.0
H3245 H 0.51752 1.01138 0.44261 0.0
H3246 H 0.53435 1.012 0.45074 0.0
H3247 H 0.53401 0.02861 0.44649 0.0
C3248 C 0.57422 0.04441 0.47357 0.0
C3249 C 0.57925 0.0594 0.47579 0.0
C3250 C 0.56034 0.03413 0.4839 0.0
C3251 C 0.55106 0.03849 0.4968 0.0
C3252 C 0.55612 0.05343 0.49949 0.0
H3253 H 0.45802 0.98279 0.53857 0.0
H3254 H 0.48139 1.00156 0.51816 0.0
C3255 C 0.56997 0.06374 0.48895 0.0
C3256 C 0.53624 0.02749 0.50795 0.0
H3257 H 0.50359 0.99893 0.48562 0.0
C3258 C 0.53299 0.02721 0.53865 0.0
C3259 C 0.52535 0.01727 0.48858 0.0
C3260 C 0.52787 0.01735 0.45521 0.0
C3261 C 0.5194 0.01684 0.55053 0.0
C3262 C 0.50867 1.00634 0.53133 0.0
C3263 C 0.51178 1.00686 0.50049 0.0
C3264 C 0.4943 0.99463 0.54302 0.0
C3265 C 0.51658 0.01729 0.58363 0.0
C3266 C 0.49362 0.98422 0.56338 0.0
C3267 C 0.48028 0.97341 0.5749 0.0
C3268 C 0.46715 0.97266 0.56648 0.0
C3269 C 0.46783 0.98296 0.54567 0.0
C3270 C 0.48122 0.99374 0.53395 0.0
H3271 H 0.52432 0.02794 0.59376 0.0
H3272 H 0.50537 1.0151 0.58757 0.0
H3273 H 0.51785 1.00881 0.5954 0.0
H3274 H 0.50347 0.98445 0.57043 0.0
H3275 H 0.48032 0.96573 0.59078 0.0
H3276 H 0.51528 0.95859 0.06455 0.0
H3277 H 0.50997 0.97691 0.04465 0.0
H3278 H 0.55465 1.00981 0.05686 0.0
H3279 H 0.56008 0.99159 0.0764 0.0
H3280 H 0.51264 1.00162 0.071 0.0
H3281 H 0.54795 0.017 0.97039 0.0
H3282 H 0.54337 1.00097 0.99213 0.0
H3283 H 0.55729 0.01846 1.00491 0.0
C3284 C 0.52403 0.9697 0.06283 0.0
C3285 C 0.53816 0.9735 0.07198 0.0
C3286 C 0.52096 0.98021 0.05147 0.0
C3287 C 0.53193 0.9948 0.04867 0.0
C3288 C 0.54602 0.99863 0.05803 0.0
H3289 H 0.53488 0.07459 0.98667 0.0
H3290 H 0.54038 0.05646 1.00691 0.0
C3291 C 0.54909 0.98815 0.06943 0.0
C3292 C 0.52859 1.00602 0.03676 0.0
H3293 H 0.53778 0.03181 0.98198 0.0
C3294 C 0.5181 1.00816 0.05143 0.0
C3295 C 0.5357 1.01469 1.01127 0.0
C3296 C 0.54661 1.01261 0.99355 0.0
C3297 C 0.51474 0.01878 0.04177 0.0
C3298 C 0.52182 0.02741 1.01621 0.0
C3299 C 0.53233 0.02529 1.00157 0.0
C3300 C 0.51838 0.03855 1.00413 0.0
C3301 C 0.50389 0.02089 0.05962 0.0
C3302 C 0.5042 0.03465 0.99535 0.0
C3303 C 0.501 0.04502 0.98384 0.0
C3304 C 0.51191 0.05964 0.9805 0.0
C3305 C 0.52615 0.06351 0.98901 0.0
C3306 C 0.52933 0.05311 1.00057 0.0
H3307 H 0.50278 0.01672 0.08293 0.0
H3308 H 0.50702 0.03251 0.06066 0.0
H3309 H 0.49312 1.01482 0.04867 0.0
H3310 H 0.49557 0.02348 0.99704 0.0
H3311 H 0.48994 0.04151 0.97732 0.0
H3312 H 0.96608 0.46759 0.98531 0.0
H3313 H 0.9844 0.4914 1.00432 0.0
H3314 H 1.01741 0.47971 0.99234 0.0
H3315 H 0.99927 0.45603 0.97297 0.0
H3316 H 1.00267 0.49934 0.05299 0.0
H3317 H 0.03553 0.51821 0.94893 0.0
H3318 H 1.01766 0.50241 0.94973 0.0
H3319 H 0.03308 0.50128 0.96258 0.0
C3320 C 0.97723 0.47005 0.98665 0.0
C3321 C 0.98111 0.45978 0.97737 0.0
C3322 C 0.98774 0.48373 0.99758 0.0
C3323 C 1.00243 0.48759 0.99934 0.0
C3324 C 1.00627 0.47726 0.99058 0.0
H3325 H 0.08231 0.56424 0.06062 0.0
H3326 H 0.06395 0.54047 0.0415 0.0
C3327 C 0.9958 0.4636 0.97967 0.0
C3328 C 1.01366 0.50226 1.01077 0.0
H3329 H 0.04572 0.53268 0.99252 0.0
C3330 C 1.01203 0.50664 0.03965 0.0
C3331 C 0.02598 0.5119 0.99357 0.0
C3332 C 0.02814 0.5083 0.96188 0.0
C3333 C 1.02241 0.52012 0.05192 0.0
C3334 C 0.03473 0.52975 0.03473 0.0
C3335 C 0.03636 0.52537 1.00586 0.0
C3336 C 0.04598 0.5444 0.0462 0.0
C3337 C 1.02025 0.52373 0.0836 0.0
C3338 C 0.04219 0.55479 0.05483 0.0
C3339 C 0.05269 0.56843 0.06579 0.0
C3340 C 0.06735 0.57216 0.06829 0.0
C3341 C 0.07118 0.56183 0.05913 0.0
C3342 C 0.06065 0.54818 0.04814 0.0
H3343 H 1.0128 0.51385 0.09652 0.0
H3344 H 0.03072 0.52957 0.09579 0.0
H3345 H 1.01539 0.53083 0.08286 0.0
H3346 H 0.03107 0.55238 0.05295 0.0
H3347 H 0.04926 0.57604 0.0724 0.0
H3348 H 0.46484 0.48139 0.07636 0.0
H3349 H 0.48857 0.48718 0.05652 0.0
H3350 H 0.49886 0.53124 0.04087 0.0
H3351 H 0.47522 0.5256 0.06107 0.0
H3352 H 0.50102 0.49684 1.00118 0.0
H3353 H 0.53429 0.53762 0.08719 0.0
H3354 H 0.51503 0.52572 0.09149 0.0
H3355 H 0.52183 0.54159 0.06815 0.0
C3356 C 0.47213 0.49234 0.06878 0.0
C3357 C 0.46801 0.50302 0.07055 0.0
C3358 C 0.48576 0.49565 0.05737 0.0
C3359 C 0.49575 0.50974 0.04757 0.0
C3360 C 0.49158 0.52037 0.04888 0.0
H3361 H 0.58322 0.55079 0.97061 0.0
H3362 H 0.55948 0.54506 0.99033 0.0
C3363 C 0.47795 0.51708 0.06028 0.0
C3364 C 0.51034 0.51319 0.03554 0.0
H3365 H 0.54691 0.5354 0.04541 0.0
C3366 C 0.51104 0.50523 1.01099 0.0
C3367 C 0.52353 0.52416 0.04814 0.0
C3368 C 0.5237 0.53268 0.07537 0.0
C3369 C 0.52441 0.50809 0.99844 0.0
C3370 C 0.5376 0.51905 1.01105 0.0
C3371 C 0.53689 0.52701 0.03559 0.0
C3372 C 0.55219 0.52247 0.99909 0.0
C3373 C 0.52423 0.49958 0.97119 0.0
C3374 C 0.55629 0.51179 0.99771 0.0
C3375 C 0.56992 0.51504 0.98637 0.0
C3376 C 0.57993 0.5291 0.97624 0.0
C3377 C 0.57588 0.53983 0.97807 0.0
C3378 C 0.56225 0.53656 0.98942 0.0
H3379 H 0.51365 0.49471 0.9593 0.0
H3380 H 0.53294 0.50652 0.95513 0.0
H3381 H 0.52601 0.49062 0.9784 0.0
H3382 H 0.54896 0.50091 1.00564 0.0
H3383 H 0.57259 0.50648 0.98554 0.0
H3384 H 0.31037 0.19338 0.02883 0.0
H3385 H 0.33019 0.20107 0.99195 0.0
H3386 H 0.33327 0.24286 0.98536 0.0
H3387 H 0.31379 0.2354 1.02191 0.0
H3388 H 0.33447 0.2113 0.93201 0.0
H3389 H 0.37484 0.25448 1.00533 0.0
H3390 H 0.35746 0.2406 1.01915 0.0
H3391 H 0.35905 0.25611 0.99954 0.0
C3392 C 0.31518 0.20417 1.01937 0.0
C3393 C 0.31035 0.21372 0.02879 0.0
C3394 C 0.3266 0.2086 0.99821 0.0
C3395 C 0.33363 0.22275 0.98604 0.0
C3396 C 0.32845 0.23205 0.99471 0.0
H3397 H 0.40158 0.27837 0.86205 0.0
H3398 H 0.38255 0.26664 0.89955 0.0
C3399 C 0.31711 0.22766 1.01566 0.0
C3400 C 0.3464 0.22799 0.96461 0.0
H3401 H 0.38143 0.25545 0.9538 0.0
C3402 C 0.34479 0.22086 0.93698 0.0
C3403 C 0.36003 0.24046 0.97071 0.0
C3404 C 0.36304 0.24828 1.00041 0.0
C3405 C 0.35602 0.22618 0.91509 0.0
C3406 C 0.36951 0.23891 0.92088 0.0
C3407 C 0.3712 0.24577 0.94888 0.0
C3408 C 0.38162 0.2459 0.89779 0.0
C3409 C 0.35306 0.21843 0.88534 0.0
C3410 C 0.38801 0.23845 0.88408 0.0
C3411 C 0.39914 0.24527 0.86227 0.0
C3412 C 0.40426 0.25977 0.85351 0.0
C3413 C 0.39806 0.26722 0.86785 0.0
C3414 C 0.38705 0.26047 0.88954 0.0
H3415 H 0.34127 0.2111 0.88155 0.0
H3416 H 0.35748 0.22628 0.86648 0.0
H3417 H 0.35839 0.21176 0.88499 0.0
H3418 H 0.38441 0.22733 0.89026 0.0
H3419 H 0.40353 0.23909 0.85188 0.0
H3420 H 0.8037 0.08608 1.02327 0.0
H3421 H 0.79615 0.09785 0.98628 0.0
H3422 H 0.83841 0.13605 0.98989 0.0
H3423 H 0.84616 0.12417 0.02707 0.0
H3424 H 0.79351 0.12159 0.99121 0.0
H3425 H 0.83284 0.13156 0.89982 0.0
H3426 H 0.83033 0.11974 0.93111 0.0
H3427 H 0.84091 0.13907 0.93558 0.0
C3428 C 0.81155 0.09694 1.01609 0.0
C3429 C 0.82567 0.10404 0.02839 0.0
C3430 C 0.80714 0.10373 0.99479 0.0
C3431 C 0.81664 0.1179 0.98461 0.0
C3432 C 0.83083 0.12503 0.99657 0.0
H3433 H 0.79967 0.17113 0.85224 0.0
H3434 H 0.81101 0.16336 0.89077 0.0
C3435 C 0.83528 0.11821 1.01806 0.0
C3436 C 0.81129 0.12514 0.96261 0.0
H3437 H 0.81695 0.14078 0.89258 0.0
C3438 C 0.79871 0.12577 0.96968 0.0
C3439 C 0.81797 0.13084 0.93436 0.0
C3440 C 0.83119 0.1302 0.92452 0.0
C3441 C 0.79269 0.13172 0.94973 0.0
C3442 C 0.7991 0.13703 0.92112 0.0
C3443 C 0.8119 0.13676 0.91428 0.0
C3444 C 0.79224 0.14213 0.89768 0.0
C3445 C 0.77954 0.13242 0.95986 0.0
C3446 C 0.7779 0.13293 0.88809 0.0
C3447 C 0.77139 0.13737 0.86618 0.0
C3448 C 0.77895 0.15121 0.85268 0.0
C3449 C 0.79336 0.16048 0.86218 0.0
C3450 C 0.79992 0.15597 0.8842 0.0
H3451 H 0.7789 0.13262 0.98477 0.0
H3452 H 0.77959 0.14216 0.95076 0.0
H3453 H 0.76962 0.12264 0.95177 0.0
H3454 H 0.77171 0.12209 0.89723 0.0
H3455 H 0.76037 0.12975 0.85952 0.0
H3456 H 0.91088 0.63938 0.85326 0.0
H3457 H 0.91841 0.65869 0.8903 0.0
H3458 H 0.87552 0.65322 0.88987 0.0
H3459 H 0.86779 0.6336 0.85273 0.0
H3460 H 0.92017 0.68462 0.88635 0.0
H3461 H 0.88226 0.65462 0.97934 0.0
H3462 H 0.88467 0.64552 0.94753 0.0
H3463 H 0.87361 0.65382 0.94422 0.0
C3464 C 0.90289 0.64207 0.86116 0.0
C3465 C 0.8886 0.63466 0.84978 0.0
C3466 C 0.90729 0.65328 0.88249 0.0
C3467 C 0.89761 0.65755 0.89358 0.0
C3468 C 0.88326 0.6501 0.8825 0.0
H3469 H 0.91465 0.72759 0.02693 0.0
H3470 H 0.90311 0.70855 0.98822 0.0
C3471 C 0.87882 0.63883 0.86101 0.0
C3472 C 0.90289 0.67011 0.91562 0.0
H3473 H 0.89759 0.67985 0.98624 0.0
C3474 C 0.91516 0.68349 0.90815 0.0
C3475 C 0.89645 0.66898 0.94424 0.0
C3476 C 0.8836 0.65495 0.95454 0.0
C3477 C 0.92111 0.69547 0.92806 0.0
C3478 C 0.91494 0.69423 0.957 0.0
C3479 C 0.90244 0.68099 0.96426 0.0
C3480 C 0.92188 0.70617 0.98043 0.0
C3481 C 0.93397 0.70948 0.91761 0.0
C3482 C 0.93629 0.71134 0.98951 0.0
C3483 C 0.94289 0.7222 1.01152 0.0
C3484 C 0.93538 0.72841 0.02562 0.0
C3485 C 0.92092 0.72331 1.01652 0.0
C3486 C 0.91425 0.71229 0.99441 0.0
H3487 H 0.93436 0.71029 0.8927 0.0
H3488 H 0.93371 0.71902 0.92696 0.0
H3489 H 0.94408 0.70989 0.92522 0.0
H3490 H 0.94246 0.70675 0.97992 0.0
H3491 H 0.95396 0.7256 1.01777 0.0
H3492 H 0.24482 0.31871 0.50159 0.0
H3493 H 0.2517 0.33712 0.54007 0.0
H3494 H 0.20905 0.31339 0.579 0.0
H3495 H 0.20179 0.29484 0.53922 0.0
H3496 H 0.2187 0.3423 0.58193 0.0
H3497 H 0.263 0.33438 0.62364 0.0
H3498 H 0.26533 0.33887 0.5845 0.0
H3499 H 0.24985 0.32219 0.59692 0.0
C3500 C 0.23679 0.3172 0.51831 0.0
C3501 C 0.22273 0.30494 0.51724 0.0
C3502 C 0.24085 0.32786 0.54065 0.0
C3503 C 0.23116 0.32665 0.56344 0.0
C3504 C 0.21691 0.31465 0.56208 0.0
H3505 H 0.26631 0.37747 0.72792 0.0
H3506 H 0.25518 0.3589 0.68953 0.0
C3507 C 0.21274 0.30396 0.53927 0.0
C3508 C 0.23616 0.33789 0.58839 0.0
H3509 H 0.26367 0.35612 0.63913 0.0
C3510 C 0.22848 0.34522 0.59459 0.0
C3511 C 0.24882 0.34178 0.60562 0.0
C3512 C 0.25713 0.33378 0.60257 0.0
C3513 C 0.2332 0.35632 0.6167 0.0
C3514 C 0.24627 0.36067 0.63288 0.0
C3515 C 0.25377 0.35315 0.62687 0.0
C3516 C 0.25212 0.37231 0.65719 0.0
C3517 C 0.22386 0.36296 0.62295 0.0
C3518 C 0.25412 0.38637 0.65285 0.0
C3519 C 0.26036 0.39717 0.67551 0.0
C3520 C 0.26513 0.39434 0.70289 0.0
C3521 C 0.26298 0.38026 0.70716 0.0
C3522 C 0.25656 0.3695 0.68495 0.0
H3523 H 0.21245 0.35565 0.61596 0.0
H3524 H 0.22397 0.3655 0.64718 0.0
H3525 H 0.22804 0.37317 0.60995 0.0
H3526 H 0.25124 0.3892 0.63162 0.0
H3527 H 0.2619 0.40785 0.67116 0.0
H3528 H 0.64473 0.86012 0.69484 0.0
H3529 H 0.6644 0.868 0.65747 0.0
H3530 H 0.66687 0.90952 0.65117 0.0
H3531 H 0.64761 0.9019 0.6882 0.0
H3532 H 0.66861 0.8781 0.59787 0.0
H3533 H 0.70853 0.92202 0.67032 0.0
H3534 H 0.69128 0.90803 0.6844 0.0
H3535 H 0.6926 0.92338 0.66457 0.0
C3536 C 0.64937 0.87088 0.6853 0.0
C3537 C 0.64448 0.88033 0.69504 0.0
C3538 C 0.66071 0.87543 0.66389 0.0
C3539 C 0.66757 0.88958 0.65173 0.0
C3540 C 0.66223 0.89873 0.66056 0.0
H3541 H 0.73444 0.94557 0.52538 0.0
H3542 H 0.71542 0.93379 0.56305 0.0
C3543 C 0.65102 0.89425 0.68181 0.0
C3544 C 0.6803 0.89503 0.63014 0.0
H3545 H 0.71493 0.92317 0.61854 0.0
C3546 C 0.67879 0.88785 0.60262 0.0
C3547 C 0.69376 0.90778 0.63592 0.0
C3548 C 0.69673 0.91567 0.66553 0.0
C3549 C 0.68994 0.89336 0.58055 0.0
C3550 C 0.70324 0.90636 0.58603 0.0
C3551 C 0.70484 0.91329 0.61388 0.0
C3552 C 0.71528 0.91343 0.56282 0.0
C3553 C 0.68712 0.88549 0.55098 0.0
C3554 C 0.72207 0.9062 0.54996 0.0
C3555 C 0.73319 0.91304 0.52817 0.0
C3556 C 0.73789 0.92734 0.51853 0.0
C3557 C 0.73125 0.93459 0.53192 0.0
C3558 C 0.72025 0.92781 0.55368 0.0
H3559 H 0.67538 0.87784 0.54739 0.0
H3560 H 0.69127 0.89326 0.53194 0.0
H3561 H 0.6928 0.87915 0.55073 0.0
H3562 H 0.71882 0.89524 0.55683 0.0
H3563 H 0.73793 0.90701 0.51854 0.0
H3564 H 0.13377 0.8393 0.51773 0.0
H3565 H 0.14601 0.83175 0.55462 0.0
H3566 H 0.10717 0.79023 0.56309 0.0
H3567 H 0.09503 0.79755 0.52658 0.0
H3568 H 0.14026 0.82185 0.61519 0.0
H3569 H 0.13685 0.77821 0.54237 0.0
H3570 H 0.13346 0.79215 0.52843 0.0
H3571 H 0.11954 0.7768 0.5484 0.0
C3572 C 0.12778 0.8286 0.52763 0.0
C3573 C 0.11333 0.81908 0.51874 0.0
C3574 C 0.13484 0.82425 0.54878 0.0
C3575 C 0.12772 0.81022 0.56147 0.0
C3576 C 0.11316 0.80096 0.55335 0.0
H3577 H 0.14005 0.75468 0.68546 0.0
H3578 H 0.13279 0.76645 0.64801 0.0
C3579 C 0.10615 0.80526 0.53241 0.0
C3580 C 0.13529 0.80501 0.58282 0.0
H3581 H 0.1427 0.77744 0.59378 0.0
C3582 C 0.14095 0.81224 0.6103 0.0
C3583 C 0.13634 0.79247 0.57683 0.0
C3584 C 0.13137 0.78453 0.54729 0.0
C3585 C 0.14688 0.80694 0.63217 0.0
C3586 C 0.14753 0.79413 0.62648 0.0
C3587 C 0.14225 0.78718 0.59861 0.0
C3588 C 0.15264 0.78713 0.64959 0.0
C3589 C 0.1518 0.81479 0.66178 0.0
C3590 C 0.16648 0.79454 0.66319 0.0
C3591 C 0.17078 0.7877 0.685 0.0
C3592 C 0.16137 0.77323 0.69384 0.0
C3593 C 0.14771 0.76581 0.67959 0.0
C3594 C 0.14347 0.77259 0.65793 0.0
H3595 H 0.14742 0.82219 0.66556 0.0
H3596 H 0.1484 0.807 0.68077 0.0
H3597 H 0.1638 0.8214 0.66192 0.0
H3598 H 0.17403 0.80563 0.65694 0.0
H3599 H 0.18136 0.79385 0.69531 0.0
H3600 H 0.64448 0.79059 0.19517 0.0
H3601 H 0.6636 0.8018 0.15663 0.0
H3602 H 0.66615 0.76274 0.15217 0.0
H3603 H 0.64714 0.75153 0.18993 0.0
H3604 H 0.69223 0.80806 0.1553 0.0
H3605 H 0.66278 0.76915 0.06416 0.0
H3606 H 0.65383 0.76999 0.0979 0.0
H3607 H 0.66363 0.76025 0.09765 0.0
C3608 C 0.64895 0.7843 0.18569 0.0
C3609 C 0.64397 0.76999 0.19577 0.0
C3610 C 0.66002 0.79078 0.16365 0.0
C3611 C 0.66636 0.78314 0.15071 0.0
C3612 C 0.66137 0.7689 0.16087 0.0
H3613 H 0.73401 0.79499 1.0244 0.0
H3614 H 0.71473 0.78725 0.06159 0.0
C3615 C 0.65042 0.76246 0.18282 0.0
C3616 C 0.67832 0.78994 0.12723 0.0
H3617 H 0.68832 0.78413 0.05746 0.0
C3618 C 0.69127 0.80289 0.13377 0.0
C3619 C 0.67732 0.78337 0.09885 0.0
C3620 C 0.66359 0.77001 0.08904 0.0
C3621 C 0.70325 0.80898 0.11364 0.0
C3622 C 0.70236 0.80219 0.08558 0.0
C3623 C 0.68927 0.78943 0.07882 0.0
C3624 C 0.71492 0.80763 0.06342 0.0
C3625 C 0.71699 0.82237 0.12325 0.0
C3626 C 0.72184 0.82183 0.05145 0.0
C3627 C 0.7331 0.82639 0.02989 0.0
C3628 C 0.73778 0.81689 1.01942 0.0
C3629 C 0.7309 0.80276 0.03168 0.0
C3630 C 0.71971 0.79823 0.0531 0.0
H3631 H 0.71733 0.82403 0.14795 0.0
H3632 H 0.72669 0.82173 0.11651 0.0
H3633 H 0.71757 0.83199 0.11224 0.0
H3634 H 0.7183 0.82933 0.05819 0.0
H3635 H 0.7379 0.83727 1.02091 0.0
H3636 H 0.20126 0.90597 1.01922 0.0
H3637 H 0.20854 0.89416 0.05774 0.0
H3638 H 0.24926 0.93371 0.06863 0.0
H3639 H 0.24211 0.94546 0.03092 0.0
H3640 H 0.23218 0.88912 0.0601 0.0
H3641 H 0.23638 0.92431 0.15522 0.0
H3642 H 0.22731 0.92385 0.12065 0.0
H3643 H 0.24675 0.93458 0.12339 0.0
C3644 C 0.21166 0.91222 0.03017 0.0
C3645 C 0.22097 0.92681 1.02184 0.0
C3646 C 0.2159 0.9054 0.05215 0.0
C3647 C 0.22946 0.913 0.06677 0.0
C3648 C 0.23865 0.92755 0.05849 0.0
H3649 H 0.28513 0.90273 0.19414 0.0
H3650 H 0.27302 0.90985 0.15722 0.0
C3651 C 0.2345 0.93429 0.03658 0.0
C3652 C 0.23435 0.90592 0.0901 0.0
H3653 H 0.24833 0.91053 0.1614 0.0
C3654 C 0.23552 0.8937 0.08239 0.0
C3655 C 0.23877 0.91173 0.11944 0.0
C3656 C 0.23711 0.92425 0.13032 0.0
C3657 C 0.24154 0.88768 0.10237 0.0
C3658 C 0.24639 0.89382 0.13137 0.0
C3659 C 0.24479 0.90576 0.13931 0.0
C3660 C 0.25388 0.88871 0.15324 0.0
C3661 C 0.24324 0.87519 0.09164 0.0
C3662 C 0.24741 0.87427 0.16384 0.0
C3663 C 0.25445 0.87006 0.18531 0.0
C3664 C 0.26818 0.88016 0.19699 0.0
C3665 C 0.27463 0.89451 0.18598 0.0
C3666 C 0.26763 0.89868 0.16469 0.0
H3667 H 0.24236 0.87403 0.0668 0.0
H3668 H 0.25385 0.87656 0.0987 0.0
H3669 H 0.23455 0.86499 0.10167 0.0
H3670 H 0.23671 0.8663 0.15613 0.0
H3671 H 0.24898 0.85897 0.19328 0.0
H3672 H 0.18063 0.40029 0.18799 0.0
H3673 H 0.17331 0.38108 0.14978 0.0
H3674 H 0.12845 0.36549 0.17099 0.0
H3675 H 0.13554 0.38457 0.20811 0.0
H3676 H 0.15776 0.35096 0.15124 0.0
H3677 H 0.12732 0.36972 0.08178 0.0
H3678 H 0.13921 0.3806 0.11165 0.0
H3679 H 0.12105 0.36637 0.1199 0.0
C3680 C 0.16921 0.39286 0.18433 0.0
C3681 C 0.15876 0.39432 0.20116 0.0
C3682 C 0.165 0.38176 0.16247 0.0
C3683 C 0.15023 0.37181 0.1567 0.0
C3684 C 0.13988 0.37311 0.17401 0.0
H3685 H 0.1112 0.28815 0.05516 0.0
H3686 H 0.1216 0.30653 0.09539 0.0
C3687 C 0.14403 0.38415 0.19556 0.0
C3688 C 0.14543 0.36012 0.13276 0.0
H3689 H 0.12325 0.34609 0.07123 0.0
C3690 C 0.15027 0.34998 0.13366 0.0
C3691 C 0.13572 0.35868 0.10936 0.0
C3692 C 0.13063 0.3695 0.10536 0.0
C3693 C 0.14553 0.33848 0.11249 0.0
C3694 C 0.13545 0.33679 0.08971 0.0
C3695 C 0.13081 0.34708 0.08865 0.0
C3696 C 0.13014 0.32512 0.06561 0.0
C3697 C 0.15166 0.32845 0.11433 0.0
C3698 C 0.13138 0.3291 0.03517 0.0
C3699 C 0.12539 0.31864 1.01233 0.0
C3700 C 0.11786 0.30365 1.01875 0.0
C3701 C 0.11705 0.29951 0.04913 0.0
C3702 C 0.12304 0.31011 0.07225 0.0
H3703 H 0.16187 0.33329 0.12755 0.0
H3704 H 0.14368 0.31825 0.12559 0.0
H3705 H 0.15383 0.3257 0.09157 0.0
H3706 H 0.13679 0.34045 0.02896 0.0
H3707 H 0.12639 0.32239 0.98936 0.0
H3708 H 0.80572 0.72612 0.5183 0.0
H3709 H 0.7988 0.70719 0.48066 0.0
H3710 H 0.84005 0.70937 0.49092 0.0
H3711 H 0.84707 0.72841 0.52932 0.0
H3712 H 0.80969 0.70652 0.42637 0.0
H3713 H 0.81294 0.66602 0.49947 0.0
H3714 H 0.81361 0.68211 0.51438 0.0
H3715 H 0.82934 0.68323 0.49683 0.0
C3716 C 0.81344 0.72269 0.51267 0.0
C3717 C 0.82703 0.72897 0.52725 0.0
C3718 C 0.80941 0.71174 0.49092 0.0
C3719 C 0.81869 0.70645 0.48291 0.0
C3720 C 0.83244 0.71288 0.49689 0.0
H3721 H 0.80039 0.63513 0.35192 0.0
H3722 H 0.81249 0.65478 0.38921 0.0
C3723 C 0.83655 0.72397 0.51872 0.0
C3724 C 0.81381 0.69441 0.45974 0.0
H3725 H 0.80625 0.65931 0.44889 0.0
C3726 C 0.80903 0.69624 0.43143 0.0
C3727 C 0.8129 0.68086 0.46574 0.0
C3728 C 0.81734 0.67781 0.4958 0.0
C3729 C 0.80337 0.68513 0.40948 0.0
C3730 C 0.80201 0.67142 0.4158 0.0
C3731 C 0.80717 0.66968 0.44375 0.0
C3732 C 0.79451 0.65869 0.39432 0.0
C3733 C 0.79898 0.6883 0.37945 0.0
C3734 C 0.78017 0.65381 0.38515 0.0
C3735 C 0.77326 0.6426 0.36398 0.0
C3736 C 0.78032 0.63565 0.35112 0.0
C3737 C 0.79451 0.6401 0.36116 0.0
C3738 C 0.80148 0.65143 0.38253 0.0
H3739 H 0.80482 0.7001 0.37454 0.0
H3740 H 0.80113 0.68262 0.36096 0.0
H3741 H 0.7872 0.68454 0.37978 0.0
H3742 H 0.77427 0.65879 0.39423 0.0
H3743 H 0.76231 0.63953 0.35735 0.0
H3744 H 0.31188 0.12611 0.53005 0.0
H3745 H 0.33099 0.13767 0.49147 0.0
H3746 H 0.33101 0.09755 0.47959 0.0
H3747 H 0.31207 0.08603 0.51728 0.0
H3748 H 0.35923 0.14214 0.48856 0.0
H3749 H 0.32797 0.1073 0.39336 0.0
H3750 H 0.31945 0.10777 0.42806 0.0
H3751 H 0.32796 0.09685 0.42496 0.0
C3752 C 0.31578 0.11968 0.51886 0.0
C3753 C 0.31016 0.105 0.5269 0.0
C3754 C 0.32685 0.12635 0.49685 0.0
C3755 C 0.33248 0.11852 0.4819 0.0
C3756 C 0.3268 0.10389 0.48993 0.0
H3757 H 0.39847 0.12862 0.35382 0.0
H3758 H 0.37921 0.12134 0.39087 0.0
C3759 C 0.31588 0.09728 0.51184 0.0
C3760 C 0.34447 0.12545 0.45855 0.0
H3761 H 0.35371 0.12073 0.38715 0.0
C3762 C 0.35793 0.13755 0.46626 0.0
C3763 C 0.34301 0.11963 0.42918 0.0
C3764 C 0.32878 0.10727 0.41825 0.0
C3765 C 0.36995 0.14346 0.44624 0.0
C3766 C 0.36859 0.13733 0.4172 0.0
C3767 C 0.355 0.12549 0.40928 0.0
C3768 C 0.38114 0.14245 0.39517 0.0
C3769 C 0.3842 0.15586 0.45694 0.0
C3770 C 0.38901 0.1569 0.38467 0.0
C3771 C 0.40025 0.16119 0.36315 0.0
C3772 C 0.40397 0.15116 0.35133 0.0
C3773 C 0.39613 0.13678 0.36217 0.0
C3774 C 0.38496 0.13253 0.3835 0.0
H3775 H 0.38452 0.15695 0.4818 0.0
H3776 H 0.39337 0.15442 0.44967 0.0
H3777 H 0.38576 0.16612 0.44711 0.0
H3778 H 0.38625 0.16483 0.39253 0.0
H3779 H 0.40582 0.1723 0.35531 0.0
H3780 H 0.91462 0.19295 0.52828 0.0
H3781 H 0.90289 0.20029 0.48973 0.0
H3782 H 0.94166 0.24198 0.48288 0.0
H3783 H 0.95335 0.23477 0.5206 0.0
H3784 H 0.89664 0.223 0.48816 0.0
H3785 H 0.93426 0.23071 0.39532 0.0
H3786 H 0.93366 0.22126 0.42941 0.0
H3787 H 0.94365 0.24076 0.42817 0.0
C3788 C 0.92073 0.2036 0.51825 0.0
C3789 C 0.93508 0.21314 0.52767 0.0
C3790 C 0.91395 0.20786 0.49623 0.0
C3791 C 0.92136 0.2217 0.48269 0.0
C3792 C 0.93566 0.23115 0.49214 0.0
H3793 H 0.91001 0.27752 0.35736 0.0
H3794 H 0.91736 0.26559 0.39427 0.0
C3795 C 0.94237 0.22697 0.51406 0.0
C3796 C 0.91432 0.22657 0.45926 0.0
H3797 H 0.91962 0.24172 0.38896 0.0
C3798 C 0.90158 0.2269 0.46632 0.0
C3799 C 0.92059 0.23172 0.4305 0.0
C3800 C 0.9337 0.23097 0.42023 0.0
C3801 C 0.89545 0.23279 0.4463 0.0
C3802 C 0.90201 0.23836 0.41791 0.0
C3803 C 0.91451 0.23762 0.41059 0.0
C3804 C 0.89673 0.2457 0.39607 0.0
C3805 C 0.88233 0.23355 0.45635 0.0
C3806 C 0.8825 0.23873 0.38428 0.0
C3807 C 0.87815 0.24567 0.36282 0.0
C3808 C 0.88792 0.25977 0.35236 0.0
C3809 C 0.90205 0.26671 0.36458 0.0
C3810 C 0.90635 0.25983 0.38586 0.0
H3811 H 0.88072 0.23219 0.48106 0.0
H3812 H 0.88327 0.24405 0.44985 0.0
H3813 H 0.87254 0.22473 0.44535 0.0
H3814 H 0.87482 0.22776 0.39103 0.0
H3815 H 0.86725 0.23982 0.35387 0.0
H3816 H 0.06717 0.6113 0.18925 0.0
H3817 H 0.04774 0.59922 0.22585 0.0
H3818 H 0.05228 0.56128 0.22169 0.0
H3819 H 0.07202 0.57346 0.18481 0.0
H3820 H 1.02148 0.57512 0.21978 0.0
H3821 H 0.05074 0.56559 0.31207 0.0
H3822 H 0.0601 0.57766 0.28114 0.0
H3823 H 0.05169 0.55838 0.27619 0.0
C3824 C 0.06425 0.60044 0.19621 0.0
C3825 C 0.07143 0.5935 0.18383 0.0
C3826 C 0.05298 0.59347 0.21729 0.0
C3827 C 0.0484 0.57927 0.22717 0.0
C3828 C 0.05563 0.5723 0.21519 0.0
H3829 H 0.97787 0.52636 0.35966 0.0
H3830 H 0.99694 0.53369 0.32106 0.0
C3831 C 0.06698 0.5793 0.19389 0.0
C3832 C 0.03572 0.57185 0.24887 0.0
H3833 H 0.02564 0.55638 0.31902 0.0
C3834 C 1.02247 0.57101 0.24142 0.0
C3835 C 0.03668 0.56625 0.27725 0.0
C3836 C 0.05058 0.56708 0.28739 0.0
C3837 C 1.01043 0.565 0.26118 0.0
C3838 C 1.01152 0.55985 0.28998 0.0
C3839 C 0.02462 0.56028 0.29717 0.0
C3840 C 0.99956 0.55494 0.31335 0.0
C3841 C 0.99654 0.56412 0.25071 0.0
C3842 C 0.99452 0.5643 0.32244 0.0
C3843 C 0.98362 0.56012 0.34433 0.0
C3844 C 0.97726 0.54639 0.35835 0.0
C3845 C 0.98226 0.53693 0.34929 0.0
C3846 C 0.9933 0.54118 0.32726 0.0
H3847 H 0.99576 0.56373 0.22579 0.0
H3848 H 0.9869 0.55442 0.25999 0.0
H3849 H 0.99631 0.57392 0.25833 0.0
H3850 H 0.99923 0.57508 0.31293 0.0
H3851 H 0.98031 0.56787 0.35058 0.0
H3852 H 0.51357 0.45935 0.36347 0.0
H3853 H 0.50576 0.47137 0.32661 0.0
H3854 H 0.46484 0.43193 0.31697 0.0
H3855 H 0.47241 0.42002 0.35351 0.0
H3856 H 0.49643 0.46605 0.26619 0.0
H3857 H 0.45139 0.46039 0.33746 0.0
H3858 H 0.46548 0.45731 0.35173 0.0
H3859 H 0.45052 0.44335 0.33091 0.0
C3860 C 0.50295 0.45319 0.35333 0.0
C3861 C 0.49366 0.43864 0.36191 0.0
C3862 C 0.49845 0.46012 0.3322 0.0
C3863 C 0.48449 0.45276 0.3192 0.0
C3864 C 0.47548 0.43811 0.32698 0.0
H3865 H 0.42886 0.46382 0.19319 0.0
H3866 H 0.44072 0.45677 0.23084 0.0
C3867 C 0.47993 0.43122 0.34794 0.0
C3868 C 0.47911 0.46018 0.29784 0.0
H3869 H 0.45082 0.46643 0.28605 0.0
C3870 C 0.48655 0.46628 0.27076 0.0
C3871 C 0.46621 0.46066 0.30342 0.0
C3872 C 0.45801 0.45522 0.33258 0.0
C3873 C 0.48115 0.4721 0.24885 0.0
C3874 C 0.468 0.47216 0.25408 0.0
C3875 C 0.46082 0.46643 0.28157 0.0
C3876 C 0.46093 0.47712 0.23085 0.0
C3877 C 0.48929 0.47756 0.21966 0.0
C3878 C 0.46804 0.49116 0.21808 0.0
C3879 C 0.46115 0.49534 0.19618 0.0
C3880 C 0.44691 0.48561 0.1864 0.0
C3881 C 0.43979 0.47172 0.19979 0.0
C3882 C 0.44662 0.46761 0.22156 0.0
H3883 H 0.49711 0.47367 0.21608 0.0
H3884 H 0.48171 0.47408 0.20031 0.0
H3885 H 0.49549 0.48959 0.22002 0.0
H3886 H 0.47894 0.49895 0.22508 0.0
H3887 H 0.46707 0.5061 0.18656 0.0
H3888 H 0.61972 0.06039 0.35412 0.0
H3889 H 0.60782 0.04098 0.31747 0.0
H3890 H 0.56879 0.04345 0.32541 0.0
H3891 H 0.58082 0.0632 0.36233 0.0
H3892 H 0.5848 1.01429 0.32438 0.0
H3893 H 0.57162 0.04206 0.23477 0.0
H3894 H 0.58396 0.05185 0.26503 0.0
H3895 H 0.56472 0.0425 0.27136 0.0
C3896 C 0.60865 0.05702 0.34797 0.0
C3897 C 0.60136 0.06361 0.36143 0.0
C3898 C 0.60178 0.04577 0.32685 0.0
C3899 C 0.58733 0.0406 0.31805 0.0
C3900 C 0.58001 0.04727 0.33106 0.0
H3901 H 0.5347 0.96887 0.18792 0.0
H3902 H 0.54183 0.98787 0.22656 0.0
C3903 C 0.58693 0.05862 0.35236 0.0
C3904 C 0.58005 0.02788 0.29645 0.0
H3905 H 0.56351 0.01719 0.22741 0.0
C3906 C 0.58013 1.015 0.30324 0.0
C3907 C 0.57374 0.02848 0.26873 0.0
C3908 C 0.57356 0.04198 0.25928 0.0
C3909 C 0.57436 1.00299 0.28343 0.0
C3910 C 0.56848 1.00374 0.25527 0.0
C3911 C 0.56798 0.01644 0.24878 0.0
C3912 C 0.56374 0.99186 0.23179 0.0
C3913 C 0.57452 0.9895 0.29315 0.0
C3914 C 0.57353 0.98763 0.22129 0.0
C3915 C 0.56947 0.97677 0.19935 0.0
C3916 C 0.55542 0.96966 0.18672 0.0
C3917 C 0.54554 0.97387 0.19717 0.0
C3918 C 0.54967 0.98486 0.21923 0.0
H3919 H 0.5747 0.98873 0.31803 0.0
H3920 H 0.56493 0.97957 0.28444 0.0
H3921 H 0.58444 0.98987 0.28433 0.0
H3922 H 0.58453 0.99292 0.22976 0.0
H3923 H 0.57754 0.97408 0.19201 0.0
H3924 H 0.4424 0.95556 0.72196 0.0
H3925 H 0.45247 0.9742 0.76185 0.0
H3926 H 0.47349 1.00737 0.69457 0.0
H3927 H 0.46328 0.98908 0.65518 0.0
H3928 H 0.47941 0.99569 0.78175 0.0
H3929 H 0.45018 0.02221 0.73655 0.0
H3930 H 0.44669 1.00474 0.72347 0.0
H3931 H 0.46186 0.02109 0.709 0.0
C3932 C 0.44937 0.9668 0.71574 0.0
C3933 C 0.45188 0.97072 0.68513 0.0
C3934 C 0.45509 0.97753 0.73862 0.0
C3935 C 0.46348 0.99244 0.73152 0.0
C3936 C 0.46671 0.99614 0.70104 0.0
H3937 H 0.51465 0.06532 0.85935 0.0
H3938 H 0.50721 0.04589 0.82183 0.0
C3939 C 0.46092 0.98555 0.67837 0.0
C3940 C 0.46848 1.00423 0.75532 0.0
H3941 H 0.46825 0.03551 0.77313 0.0
C3942 C 0.4769 1.00435 0.77987 0.0
C3943 C 0.46515 1.01559 0.7536 0.0
C3944 C 0.45535 1.01586 0.72943 0.0
C3945 C 0.48222 1.01547 0.80201 0.0
C3946 C 0.47936 0.02715 0.79956 0.0
C3947 C 0.47074 0.02684 0.77524 0.0
C3948 C 0.48439 0.03933 0.82255 0.0
C3949 C 0.49053 1.01433 0.82827 0.0
C3950 C 0.47437 0.04279 0.83514 0.0
C3951 C 0.47866 0.05408 0.85618 0.0
C3952 C 0.49322 0.06248 0.86566 0.0
C3953 C 0.50336 0.05919 0.85284 0.0
C3954 C 0.49903 0.04786 0.8315 0.0
H3955 H 0.48822 1.00303 0.83156 0.0
H3956 H 0.50231 0.02123 0.82395 0.0
H3957 H 0.48787 0.01807 0.84937 0.0
H3958 H 0.46303 0.0366 0.82895 0.0
H3959 H 0.4704 0.05607 0.86533 0.0
H3960 H 0.05183 0.48505 0.65416 0.0
H3961 H 0.03342 0.47725 0.69327 0.0
H3962 H 0.06602 0.48664 0.76065 0.0
H3963 H 0.08471 0.495 0.7211 0.0
H3964 H 1.02366 0.45528 0.72772 0.0
H3965 H 0.04425 0.50259 0.80366 0.0
H3966 H 0.05199 0.50369 0.76701 0.0
H3967 H 0.05699 0.49642 0.79837 0.0
C3968 C 0.05521 0.48581 0.67736 0.0
C3969 C 0.06989 0.49082 0.68426 0.0
C3970 C 0.04457 0.48121 0.6999 0.0
C3971 C 0.04806 0.48129 0.73042 0.0
C3972 C 0.06284 0.48669 0.73758 0.0
H3973 H 0.98325 0.42242 0.85966 0.0
H3974 H 1.00252 0.43475 0.82304 0.0
C3975 C 0.07362 0.49151 0.71485 0.0
C3976 C 0.036 0.47471 0.75378 0.0
H3977 H 0.02437 0.48047 0.82188 0.0
C3978 C 1.0239 0.46092 0.74819 0.0
C3979 C 0.03588 0.4819 0.78063 0.0
C3980 C 0.04789 0.49703 0.78771 0.0
C3981 C 1.01204 0.45418 0.76828 0.0
C3982 C 1.01218 0.46108 0.79571 0.0
C3983 C 0.02413 0.47498 0.80119 0.0
C3984 C 1.00027 0.45377 0.81911 0.0
C3985 C 0.99928 0.43976 0.75939 0.0
C3986 C 0.99252 0.46033 0.83046 0.0
C3987 C 0.98133 0.45321 0.85204 0.0
C3988 C 0.97759 0.43934 0.86305 0.0
C3989 C 0.9855 0.43295 0.85174 0.0
C3990 C 0.99662 0.44003 0.83044 0.0
H3991 H 0.99857 0.43833 0.7346 0.0
H3992 H 1.00062 0.43091 0.76917 0.0
H3993 H 0.98892 0.4386 0.76765 0.0
H3994 H 0.99506 0.47095 0.82248 0.0
H3995 H 0.97571 0.45865 0.86029 0.0
H3996 H 0.57528 0.6125 0.69477 0.0
H3997 H 0.58273 0.60073 0.73202 0.0
H3998 H 0.54159 0.56143 0.72312 0.0
H3999 H 0.53408 0.5732 0.6852 0.0
H4000 H 0.57249 0.58931 0.78661 0.0
H4001 H 0.56867 0.54533 0.71356 0.0
H4002 H 0.56768 0.56059 0.69877 0.0
H4003 H 0.55219 0.54596 0.71686 0.0
C4004 C 0.56771 0.60135 0.70064 0.0
C4005 C 0.55399 0.5939 0.6866 0.0
C4006 C 0.57204 0.59457 0.72215 0.0
C4007 C 0.56294 0.58 0.73041 0.0
C4008 C 0.54908 0.57255 0.71692 0.0
H4009 H 0.58113 0.52669 0.86063 0.0
H4010 H 0.56917 0.53451 0.82355 0.0
C4011 C 0.54469 0.57938 0.69536 0.0
C4012 C 0.56805 0.57295 0.75337 0.0
H4013 H 0.57533 0.54519 0.76417 0.0
C4014 C 0.57304 0.57964 0.78155 0.0
C4015 C 0.56881 0.56022 0.74739 0.0
C4016 C 0.56418 0.55263 0.71745 0.0
C4017 C 0.57872 0.57416 0.80342 0.0
C4018 C 0.57988 0.56169 0.79715 0.0
C4019 C 0.57455 0.55473 0.76929 0.0
C4020 C 0.58728 0.55631 0.81859 0.0
C4021 C 0.58329 0.58178 0.83335 0.0
C4022 C 0.60165 0.56563 0.82779 0.0
C4023 C 0.60849 0.56118 0.84886 0.0
C4024 C 0.60132 0.54715 0.86157 0.0
C4025 C 0.58709 0.53755 0.85151 0.0
C4026 C 0.5802 0.54206 0.83026 0.0
H4027 H 0.57756 0.58786 0.83833 0.0
H4028 H 0.58113 0.57399 0.85191 0.0
H4029 H 0.59508 0.58969 0.83282 0.0
H4030 H 0.60765 0.57651 0.81879 0.0
H4031 H 0.61946 0.56895 0.85552 0.0
H4032 H 0.20369 0.22997 0.38907 0.0
H4033 H 0.21053 0.21785 0.35049 0.0
H4034 H 0.23204 0.2576 0.29989 0.0
H4035 H 0.22509 0.26955 0.33767 0.0
H4036 H 0.21822 0.23563 0.26179 0.0
H4037 H 0.24964 0.22117 0.33956 0.0
H4038 H 0.23096 0.2138 0.34989 0.0
H4039 H 0.24296 0.23309 0.35041 0.0
C4040 C 0.20968 0.23607 0.36951 0.0
C4041 C 0.21373 0.25083 0.36682 0.0
C4042 C 0.21381 0.22916 0.34748 0.0
C4043 C 0.22215 0.23676 0.32206 0.0
C4044 C 0.22571 0.25132 0.319 0.0
H4045 H 0.27938 0.22079 0.20789 0.0
H4046 H 0.26736 0.22729 0.2464 0.0
C4047 C 0.22167 0.25821 0.34089 0.0
C4048 C 0.22739 0.2299 0.29872 0.0
H4049 H 0.24795 0.21349 0.28926 0.0
C4050 C 0.22462 0.23069 0.26796 0.0
C4051 C 0.23602 0.22358 0.30613 0.0
C4052 C 0.24022 0.22294 0.33822 0.0
C4053 C 0.23016 0.22556 0.24491 0.0
C4054 C 0.23865 0.21909 0.25233 0.0
C4055 C 0.24136 0.21823 0.2831 0.0
C4056 C 0.2457 0.2142 0.22869 0.0
C4057 C 0.22733 0.22771 0.21264 0.0
C4058 C 0.23774 0.20427 0.20553 0.0
C4059 C 0.2447 0.20043 0.18306 0.0
C4060 C 0.25988 0.20634 0.18304 0.0
C4061 C 0.2677 0.21591 0.20676 0.0
C4062 C 0.26078 0.21969 0.22909 0.0
H4063 H 0.22397 0.23601 0.21048 0.0
H4064 H 0.23711 0.23107 0.19856 0.0
H4065 H 0.21845 0.21734 0.20365 0.0
H4066 H 0.22608 0.19948 0.20467 0.0
H4067 H 0.23821 0.1931 0.16532 0.0
H4068 H 0.84591 0.05185 0.16265 0.0
H4069 H 0.83924 0.03307 0.20149 0.0
H4070 H 0.81379 0.04847 0.24687 0.0
H4071 H 0.82055 0.06722 0.20878 0.0
H4072 H 0.82771 0.04174 0.28794 0.0
H4073 H 0.80144 0.99553 0.20881 0.0
H4074 H 0.82015 1.00794 0.2006 0.0
H4075 H 0.80708 1.01388 0.19761 0.0
C4076 C 0.83906 0.05139 0.1811 0.0
C4077 C 0.83388 0.06126 0.18222 0.0
C4078 C 0.83504 0.04043 0.20328 0.0
C4079 C 0.82567 0.03893 0.22732 0.0
C4080 C 0.82094 0.04912 0.22886 0.0
H4081 H 0.76979 0.96363 0.33828 0.0
H4082 H 0.78151 0.9825 0.3003 0.0
C4083 C 0.82487 0.05996 0.20679 0.0
C4084 C 0.8206 0.02686 0.25072 0.0
H4085 H 0.80241 0.98981 0.25967 0.0
C4086 C 0.82227 0.03039 0.2816 0.0
C4087 C 0.81323 1.01189 0.24309 0.0
C4088 C 0.81021 1.00701 0.21078 0.0
C4089 C 0.81688 0.01965 0.30452 0.0
C4090 C 0.80967 1.00468 0.29689 0.0
C4091 C 0.80803 1.00115 0.26602 0.0
C4092 C 0.80285 0.99259 0.32028 0.0
C4093 C 0.81849 0.02452 0.33682 0.0
C4094 C 0.81078 0.99137 0.34453 0.0
C4095 C 0.804 0.98036 0.36665 0.0
C4096 C 0.78905 0.97013 0.36525 0.0
C4097 C 0.7813 0.97116 0.34049 0.0
C4098 C 0.78805 0.98207 0.31849 0.0
H4099 H 0.82084 0.03589 0.33871 0.0
H4100 H 0.80852 0.01745 0.34987 0.0
H4101 H 0.82764 0.0239 0.34718 0.0
H4102 H 0.82226 0.99899 0.34652 0.0
H4103 H 0.81042 0.9801 0.38524 0.0
H4104 H 0.97239 0.76131 0.20822 0.0
H4105 H 0.99089 0.77335 0.24666 0.0
H4106 H 1.00866 0.8134 0.19728 0.0
H4107 H 0.99 0.80121 0.15812 0.0
H4108 H 0.03039 0.80851 0.21696 0.0
H4109 H 0.99479 0.80041 0.31391 0.0
H4110 H 0.9899 0.78368 0.29514 0.0
H4111 H 0.98828 0.79763 0.27569 0.0
C4112 C 0.98003 0.77276 0.20555 0.0
C4113 C 0.97938 0.78022 0.17984 0.0
C4114 C 0.99069 0.77972 0.2279 0.0
C4115 C 1.00128 0.79448 0.22568 0.0
C4116 C 1.00067 0.80206 0.20008 0.0
H4117 H 0.06106 0.83858 0.38124 0.0
H4118 H 0.04266 0.83206 0.3415 0.0
C4119 C 0.98984 0.79508 0.17767 0.0
C4120 C 1.01319 0.8016 0.24933 0.0
H4121 H 1.01915 0.80644 0.3256 0.0
C4122 C 0.02786 0.80814 0.24066 0.0
C4123 C 1.01023 0.80147 0.28057 0.0
C4124 C 0.99496 0.79556 0.29191 0.0
C4125 C 0.03935 0.8139 0.26193 0.0
C4126 C 0.03635 0.81306 0.2933 0.0
C4127 C 1.02171 0.80706 0.30188 0.0
C4128 C 0.04809 0.81775 0.31733 0.0
C4129 C 0.0547 0.82098 0.25033 0.0
C4130 C 0.05748 0.81201 0.31775 0.0
C4131 C 0.06803 0.81579 0.34038 0.0
C4132 C 0.06972 0.82546 0.36388 0.0
C4133 C 0.06039 0.83132 0.3635 0.0
C4134 C 0.04972 0.82746 0.34073 0.0
H4135 H 0.05549 0.82518 0.22714 0.0
H4136 H 0.06223 0.83007 0.26502 0.0
H4137 H 0.05828 0.81283 0.24963 0.0
H4138 H 0.05643 0.80422 0.30087 0.0
H4139 H 0.07474 0.8108 0.33968 0.0
H4140 H 0.84581 0.80166 0.66252 0.0
H4141 H 0.83934 0.81378 0.70189 0.0
H4142 H 0.81363 0.77281 0.74651 0.0
H4143 H 0.82014 0.76085 0.70803 0.0
H4144 H 0.81328 0.81065 0.71916 0.0
H4145 H 0.83553 0.79691 0.81758 0.0
H4146 H 0.83996 0.7946 0.77959 0.0
H4147 H 0.82334 0.78104 0.79673 0.0
C4148 C 0.83906 0.79528 0.68108 0.0
C4149 C 0.83375 0.78019 0.68191 0.0
C4150 C 0.83522 0.80223 0.70362 0.0
C4151 C 0.82609 0.79439 0.72798 0.0
C4152 C 0.82095 0.77938 0.72881 0.0
H4153 H 0.7694 0.81321 0.83834 0.0
H4154 H 0.7812 0.80645 0.79983 0.0
C4155 C 0.82469 0.77247 0.7064 0.0
C4156 C 0.82135 0.80152 0.75175 0.0
H4157 H 0.81808 0.80431 0.82814 0.0
C4158 C 0.81449 0.80933 0.74295 0.0
C4159 C 0.82296 0.80018 0.78316 0.0
C4160 C 0.83099 0.79286 0.79486 0.0
C4161 C 0.80881 0.8152 0.76416 0.0
C4162 C 0.80971 0.81315 0.79554 0.0
C4163 C 0.8171 0.80585 0.80436 0.0
C4164 C 0.80265 0.81799 0.81931 0.0
C4165 C 0.802 0.82371 0.7525 0.0
C4166 C 0.81046 0.82665 0.84419 0.0
C4167 C 0.80361 0.83062 0.86671 0.0
C4168 C 0.78865 0.82591 0.86534 0.0
C4169 C 0.78094 0.81729 0.84038 0.0
C4170 C 0.78776 0.81341 0.81796 0.0
H4171 H 0.80637 0.82845 0.73005 0.0
H4172 H 0.79015 0.81636 0.75008 0.0
H4173 H 0.80384 0.83261 0.7681 0.0
H4174 H 0.82191 0.83033 0.84633 0.0
H4175 H 0.80997 0.83704 0.88562 0.0
H4176 H 0.20168 0.9802 0.88555 0.0
H4177 H 0.20807 0.9986 0.8458 0.0
H4178 H 0.2344 0.98369 0.8025 0.0
H4179 H 0.22796 0.96539 0.84128 0.0
H4180 H 0.23397 0.02167 0.82853 0.0
H4181 H 0.21263 0.9852 0.73061 0.0
H4182 H 0.20815 0.9786 0.76867 0.0
H4183 H 0.22495 0.98189 0.75198 0.0
C4184 C 0.20856 0.98061 0.8672 0.0
C4185 C 0.21406 0.97098 0.86684 0.0
C4186 C 0.21235 0.99129 0.84444 0.0
C4187 C 0.22161 0.9926 0.82032 0.0
C4188 C 0.22696 0.98289 0.81998 0.0
H4189 H 0.27841 0.0672 0.70892 0.0
H4190 H 0.26638 0.04889 0.74775 0.0
C4191 C 0.22326 0.97235 0.84259 0.0
C4192 C 0.22628 1.00435 0.79628 0.0
H4193 H 0.22985 1.01009 0.71979 0.0
C4194 C 0.2329 0.01904 0.80479 0.0
C4195 C 0.22486 1.00126 0.76491 0.0
C4196 C 0.21713 0.98588 0.75346 0.0
C4197 C 0.23854 0.03049 0.78337 0.0
C4198 C 0.23783 0.02742 0.75207 0.0
C4199 C 0.23067 1.01271 0.74351 0.0
C4200 C 0.24497 0.03923 0.7282 0.0
C4201 C 0.24517 0.04585 0.79466 0.0
C4202 C 0.23723 0.04017 0.70327 0.0
C4203 C 0.2442 0.05089 0.68063 0.0
C4204 C 0.25921 0.06089 0.68188 0.0
C4205 C 0.26684 0.05991 0.70695 0.0
C4206 C 0.2599 0.04936 0.72953 0.0
H4207 H 0.24077 0.04627 0.81705 0.0
H4208 H 0.25704 0.0505 0.79706 0.0
H4209 H 0.24319 0.05273 0.77881 0.0
H4210 H 0.22575 0.03252 0.70117 0.0
H4211 H 0.23791 0.05099 0.66162 0.0
H4212 H 0.98914 0.19406 0.66016 0.0
H4213 H 1.00763 0.20029 0.69967 0.0
H4214 H 0.99067 0.22375 0.74752 0.0
H4215 H 0.97235 0.21753 0.70881 0.0
H4216 H 0.02998 0.22736 0.72081 0.0
H4217 H 0.99236 0.19899 0.8145 0.0
H4218 H 0.98663 0.19566 0.77575 0.0
H4219 H 0.98793 0.21107 0.7953 0.0
C4220 C 0.98916 0.20029 0.6794 0.0
C4221 C 0.97894 0.20504 0.68113 0.0
C4222 C 0.99988 0.204 0.70199 0.0
C4223 C 1.00063 0.2124 0.72727 0.0
C4224 C 0.99035 0.21702 0.72895 0.0
H4225 H 0.04995 0.2563 0.88422 0.0
H4226 H 0.03333 0.24448 0.84315 0.0
C4227 C 0.97978 0.21344 0.70647 0.0
C4228 C 1.01213 0.21672 0.75163 0.0
H4229 H 1.01641 0.21711 0.82824 0.0
C4230 C 0.02699 0.22492 0.74426 0.0
C4231 C 1.00851 0.21363 0.78253 0.0
C4232 C 0.993 0.20423 0.79252 0.0
C4233 C 0.03803 0.23065 0.76663 0.0
C4234 C 0.03433 0.228 0.79763 0.0
C4235 C 1.0195 0.21934 0.80479 0.0
C4236 C 0.04526 0.23513 0.82309 0.0
C4237 C 0.05355 0.24012 0.75686 0.0
C4238 C 0.05785 0.23391 0.8267 0.0
C4239 C 0.06771 0.24086 0.85088 0.0
C4240 C 0.0653 0.24928 0.87216 0.0
C4241 C 0.05254 0.25014 0.86855 0.0
C4242 C 0.04281 0.24325 0.84478 0.0
H4243 H 0.05435 0.24368 0.73312 0.0
H4244 H 0.05913 0.24987 0.77138 0.0
H4245 H 0.05935 0.23393 0.75889 0.0
H4246 H 0.06004 0.22749 0.81095 0.0
H4247 H 0.07728 0.2398 0.85261 0.0
H4248 H 0.89156 0.60287 0.66907 0.0
H4249 H 0.89861 0.59132 0.63056 0.0
H4250 H 0.87565 0.55065 0.67761 0.0
H4251 H 0.86865 0.56234 0.71688 0.0
H4252 H 0.90175 0.55498 0.65909 0.0
H4253 H 0.87683 0.56577 0.56116 0.0
H4254 H 0.88874 0.58213 0.58094 0.0
H4255 H 0.87267 0.56828 0.59923 0.0
C4256 C 0.88775 0.59139 0.67123 0.0
C4257 C 0.8793 0.58361 0.69634 0.0
C4258 C 0.89179 0.58471 0.64881 0.0
C4259 C 0.88755 0.5699 0.6503 0.0
C4260 C 0.87906 0.56203 0.67535 0.0
H4261 H 0.90447 0.52708 0.49371 0.0
H4262 H 0.89225 0.53346 0.53304 0.0
C4263 C 0.87494 0.56874 0.69787 0.0
C4264 C 0.89255 0.56299 0.62653 0.0
H4265 H 0.89493 0.5593 0.55015 0.0
C4266 C 0.90011 0.55586 0.63532 0.0
C4267 C 0.89037 0.56374 0.59516 0.0
C4268 C 0.88158 0.57026 0.58353 0.0
C4269 C 0.9059 0.55011 0.61412 0.0
C4270 C 0.90442 0.55159 0.58271 0.0
C4271 C 0.89636 0.5582 0.57393 0.0
C4272 C 0.91164 0.54696 0.55889 0.0
C4273 C 0.91348 0.54235 0.62582 0.0
C4274 C 0.92668 0.5523 0.55958 0.0
C4275 C 0.93365 0.54861 0.5372 0.0
C4276 C 0.92596 0.53943 0.51286 0.0
C4277 C 0.91084 0.53395 0.51214 0.0
C4278 C 0.90383 0.53773 0.53466 0.0
H4279 H 0.90954 0.53781 0.6486 0.0
H4280 H 0.91187 0.53339 0.61063 0.0
H4281 H 0.92527 0.55016 0.62754 0.0
H4282 H 0.93323 0.55971 0.57717 0.0
H4283 H 0.94529 0.55329 0.53876 0.0
H4284 H 0.48803 0.40123 0.543 0.0
H4285 H 0.48149 0.38269 0.58146 0.0
H4286 H 0.50547 0.3661 0.53439 0.0
H4287 H 0.51203 0.38477 0.49523 0.0
H4288 H 0.47902 0.34381 0.55261 0.0
H4289 H 0.50404 0.37946 0.65064 0.0
H4290 H 0.49207 0.38385 0.63083 0.0
H4291 H 0.50817 0.38612 0.61256 0.0
C4292 C 0.49219 0.39384 0.54085 0.0
C4293 C 0.5008 0.39481 0.51577 0.0
C4294 C 0.48844 0.38316 0.56321 0.0
C4295 C 0.49308 0.3729 0.56164 0.0
C4296 C 0.50175 0.37383 0.53668 0.0
H4297 H 0.47676 0.31306 0.71767 0.0
H4298 H 0.48891 0.33163 0.67829 0.0
C4299 C 0.50564 0.38466 0.51426 0.0
C4300 C 0.48828 0.36097 0.58527 0.0
H4301 H 0.48615 0.35483 0.66159 0.0
C4302 C 0.48074 0.3463 0.57639 0.0
C4303 C 0.49055 0.36388 0.61663 0.0
C4304 C 0.49928 0.37917 0.62827 0.0
C4305 C 0.47503 0.33475 0.59753 0.0
C4306 C 0.47661 0.33768 0.62895 0.0
C4307 C 0.48467 0.35233 0.6378 0.0
C4308 C 0.46945 0.32582 0.65273 0.0
C4309 C 0.46742 0.31943 0.58575 0.0
C4310 C 0.4544 0.31615 0.65219 0.0
C4311 C 0.44748 0.30551 0.67459 0.0
C4312 C 0.45523 0.304 0.6988 0.0
C4313 C 0.47036 0.31358 0.69934 0.0
C4314 C 0.47732 0.32436 0.6768 0.0
H4315 H 0.4713 0.31886 0.56288 0.0
H4316 H 0.46907 0.31206 0.6008 0.0
H4317 H 0.45563 0.31546 0.58419 0.0
H4318 H 0.44782 0.31705 0.63474 0.0
H4319 H 0.43583 0.29859 0.67317 0.0
H4320 H 0.63898 0.09497 0.54265 0.0
H4321 H 0.65759 0.10677 0.58095 0.0
H4322 H 0.67409 0.14752 0.53469 0.0
H4323 H 0.65535 0.13557 0.49561 0.0
H4324 H 0.69643 0.14347 0.55238 0.0
H4325 H 0.66084 0.13205 0.65089 0.0
H4326 H 0.65656 0.11582 0.63071 0.0
H4327 H 0.65411 0.12963 0.6129 0.0
C4328 C 0.64636 0.10651 0.54063 0.0
C4329 C 0.64533 0.11424 0.5158 0.0
C4330 C 0.65709 0.11333 0.56292 0.0
C4331 C 0.66734 0.12823 0.56156 0.0
C4332 C 0.66636 0.13606 0.53683 0.0
H4333 H 0.72699 0.1713 0.7177 0.0
H4334 H 0.70832 0.16468 0.67855 0.0
C4335 C 0.65549 0.12921 0.51445 0.0
C4336 C 0.6793 0.13526 0.58516 0.0
H4337 H 0.68551 0.13882 0.66148 0.0
C4338 C 0.69395 0.14253 0.57619 0.0
C4339 C 0.67642 0.1344 0.61658 0.0
C4340 C 0.66113 0.12769 0.62837 0.0
C4341 C 0.70554 0.14831 0.59727 0.0
C4342 C 0.70264 0.14674 0.62871 0.0
C4343 C 0.68799 0.13999 0.63766 0.0
C4344 C 0.71455 0.1515 0.65241 0.0
C4345 C 0.72084 0.15622 0.5854 0.0
C4346 C 0.72447 0.14642 0.65152 0.0
C4347 C 0.73518 0.15024 0.67384 0.0
C4348 C 0.73649 0.15931 0.69828 0.0
C4349 C 0.72662 0.16452 0.6992 0.0
C4350 C 0.71579 0.16061 0.67677 0.0
H4351 H 0.72133 0.16075 0.56266 0.0
H4352 H 0.72815 0.16519 0.60058 0.0
H4353 H 0.72494 0.1485 0.58351 0.0
H4354 H 0.72374 0.1391 0.63384 0.0
H4355 H 0.74232 0.14577 0.67215 0.0
H4356 H 0.43684 0.14753 0.17209 0.0
H4357 H 0.44873 0.14046 0.13436 0.0
H4358 H 0.48937 0.16498 0.18084 0.0
H4359 H 0.47734 0.17192 0.21936 0.0
H4360 H 0.46946 0.15392 0.09387 0.0
H4361 H 0.48856 0.12703 0.17336 0.0
H4362 H 0.47614 0.13305 0.18446 0.0
H4363 H 0.49522 0.14582 0.18156 0.0
C4364 C 0.44835 0.15157 0.17442 0.0
C4365 C 0.45602 0.16038 0.1992 0.0
C4366 C 0.4552 0.14745 0.15256 0.0
C4367 C 0.47003 0.15184 0.1545 0.0
C4368 C 0.47788 0.16103 0.17876 0.0
H4369 H 0.51339 0.13588 0.99707 0.0
H4370 H 0.50647 0.14792 0.03562 0.0
C4371 C 0.47099 0.1652 0.20076 0.0
C4372 C 0.47697 0.14663 0.13123 0.0
H4373 H 0.49552 0.12809 0.12263 0.0
C4374 C 0.47524 0.14836 0.10033 0.0
C4375 C 0.4844 0.1391 0.13901 0.0
C4376 C 0.4861 0.13599 0.17135 0.0
C4377 C 0.48054 0.14287 0.07751 0.0
C4378 C 0.48814 0.13551 0.08528 0.0
C4379 C 0.48991 0.13382 0.11618 0.0
C4380 C 0.49336 0.12858 0.06202 0.0
C4381 C 0.47738 0.14452 0.04517 0.0
C4382 C 0.48898 0.11375 0.06399 0.0
C4383 C 0.49308 0.1069 0.0421 0.0
C4384 C 0.50188 0.11456 1.01728 0.0
C4385 C 0.5067 0.12954 1.01571 0.0
C4386 C 0.50254 0.13642 0.03773 0.0
H4387 H 0.46841 0.14695 0.04317 0.0
H4388 H 0.48719 0.15363 0.03486 0.0
H4389 H 0.47445 0.13453 0.03213 0.0
H4390 H 0.48199 0.10729 0.08221 0.0
H4391 H 0.48904 0.09539 0.04444 0.0
H4392 H 0.89247 0.29708 0.17189 0.0
H4393 H 0.89925 0.31585 0.13388 0.0
H4394 H 0.87513 0.33225 0.18111 0.0
H4395 H 0.86844 0.31344 0.21991 0.0
H4396 H 0.88534 0.32305 0.09382 0.0
H4397 H 0.91341 0.36918 0.1726 0.0
H4398 H 0.90741 0.35075 0.18367 0.0
H4399 H 0.89469 0.35716 0.18147 0.0
C4400 C 0.88844 0.30456 0.17432 0.0
C4401 C 0.87981 0.30354 0.19939 0.0
C4402 C 0.89239 0.31541 0.15229 0.0
C4403 C 0.88804 0.32588 0.15436 0.0
C4404 C 0.87902 0.32466 0.1789 0.0
H4405 H 0.90429 0.38524 0.9967 0.0
H4406 H 0.892 0.36656 0.03571 0.0
C4407 C 0.87499 0.31369 0.20105 0.0
C4408 C 0.89317 0.33795 0.13097 0.0
H4409 H 0.91232 0.37499 0.12188 0.0
C4410 C 0.89113 0.33439 0.10012 0.0
C4411 C 0.90101 0.35292 0.13855 0.0
C4412 C 0.90441 0.3578 0.17081 0.0
C4413 C 0.89663 0.34511 0.07715 0.0
C4414 C 0.90434 0.36008 0.08474 0.0
C4415 C 0.90632 0.36364 0.11559 0.0
C4416 C 0.91141 0.37211 0.06129 0.0
C4417 C 0.89462 0.34021 0.04484 0.0
C4418 C 0.92637 0.38208 0.06267 0.0
C4419 C 0.93337 0.39284 0.04052 0.0
C4420 C 0.92573 0.39429 1.01602 0.0
C4421 C 0.91063 0.38465 1.0151 0.0
C4422 C 0.90359 0.37376 0.03736 0.0
H4423 H 0.89173 0.32867 0.04284 0.0
H4424 H 0.88571 0.34133 0.03478 0.0
H4425 H 0.90462 0.34694 0.03159 0.0
H4426 H 0.93282 0.3813 0.08059 0.0
H4427 H 0.94498 0.39992 0.04238 0.0
H4428 H 0.74199 0.60269 0.17069 0.0
H4429 H 0.72326 0.5906 0.13275 0.0
H4430 H 0.70779 0.54994 0.17889 0.0
H4431 H 0.72657 0.56219 0.2177 0.0
H4432 H 0.71654 0.57003 0.09208 0.0
H4433 H 0.67026 0.55011 0.1711 0.0
H4434 H 0.68859 0.56279 0.18236 0.0
H4435 H 0.68267 0.54379 0.17931 0.0
C4436 C 0.73473 0.59113 0.17291 0.0
C4437 C 0.73601 0.58353 0.19769 0.0
C4438 C 0.72389 0.58416 0.1509 0.0
C4439 C 0.71369 0.56927 0.15267 0.0
C4440 C 0.71517 0.56148 0.17691 0.0
H4441 H 0.65489 0.52674 0.99392 0.0
H4442 H 0.67365 0.53317 0.03276 0.0
C4443 C 0.72613 0.56849 0.19907 0.0
C4444 C 0.70164 0.56225 0.12926 0.0
H4445 H 0.6646 0.54357 0.12019 0.0
C4446 C 0.7052 0.56415 0.09839 0.0
C4447 C 0.68666 0.55469 0.13685 0.0
C4448 C 0.68174 0.55281 0.16915 0.0
C4449 C 0.69448 0.55892 0.07543 0.0
C4450 C 0.67951 0.55122 0.08301 0.0
C4451 C 0.67595 0.54925 0.11388 0.0
C4452 C 0.66745 0.54619 0.05962 0.0
C4453 C 0.69938 0.56228 0.04316 0.0
C4454 C 0.65709 0.55068 0.06173 0.0
C4455 C 0.64627 0.54687 0.0397 0.0
C4456 C 0.64516 0.53825 1.01455 0.0
C4457 C 0.6552 0.53328 1.01284 0.0
C4458 C 0.66614 0.53717 0.03501 0.0
H4459 H 0.7108 0.5712 0.04137 0.0
H4460 H 0.69862 0.5525 0.03252 0.0
H4461 H 0.69241 0.56538 0.0303 0.0
H4462 H 0.65759 0.55756 0.08017 0.0
H4463 H 0.63888 0.55101 0.04217 0.0
H4464 H 0.61012 0.87947 0.88065 0.0
H4465 H 0.59862 0.88627 0.91983 0.0
H4466 H 0.56146 0.87327 0.86272 0.0
H4467 H 0.57281 0.86582 0.82375 0.0
H4468 H 0.59272 0.90615 0.92349 0.0
H4469 H 0.5396 0.85646 0.93731 0.0
H4470 H 0.55398 0.8567 0.91548 0.0
H4471 H 0.54253 0.86291 0.89933 0.0
C4472 C 0.59932 0.87769 0.87657 0.0
C4473 C 0.59239 0.8718 0.84889 0.0
C4474 C 0.59273 0.88173 0.89914 0.0
C4475 C 0.57893 0.88028 0.89506 0.0
C4476 C 0.57186 0.87422 0.86745 0.0
H4477 H 0.55564 0.93556 1.00199 0.0
H4478 H 0.56273 0.92415 0.96318 0.0
C4479 C 0.5784 0.86993 0.8449 0.0
C4480 C 0.57266 0.88597 0.91894 0.0
H4481 H 0.54218 0.87786 0.96045 0.0
C4482 C 0.58166 0.89982 0.93148 0.0
C4483 C 0.55826 0.87792 0.93038 0.0
C4484 C 0.54808 0.86262 0.92018 0.0
C4485 C 0.57683 0.90576 0.95424 0.0
C4486 C 0.56225 0.89801 0.96464 0.0
C4487 C 0.55327 0.88406 0.95255 0.0
C4488 C 0.55629 0.90431 0.98775 0.0
C4489 C 0.58772 0.9202 0.96753 0.0
C4490 C 0.54925 0.89681 1.01437 0.0
C4491 C 0.54477 0.9033 0.0367 0.0
C4492 C 0.54718 0.91751 0.03313 0.0
C4493 C 0.55361 0.92467 1.00591 0.0
C4494 C 0.55789 0.91816 0.98362 0.0
H4495 H 0.59897 0.92226 0.96499 0.0
H4496 H 0.58705 0.92897 0.95552 0.0
H4497 H 0.58563 0.92081 0.99179 0.0
H4498 H 0.54767 0.8861 1.01844 0.0
H4499 H 0.54005 0.89744 0.05734 0.0
H4500 H 0.14388 0.64697 0.05065 0.0
H4501 H 0.15598 0.66585 1.01198 0.0
H4502 H 0.11533 0.64997 0.96566 0.0
H4503 H 0.10335 0.63115 1.00366 0.0
H4504 H 0.1365 0.65705 0.92507 0.0
H4505 H 0.1548 0.70302 1.00441 0.0
H4506 H 0.16131 0.69081 1.01307 0.0
H4507 H 0.14223 0.68459 1.01525 0.0
C4508 C 0.13754 0.64736 0.03203 0.0
C4509 C 0.12253 0.63733 0.03064 0.0
C4510 C 0.14447 0.65835 1.00994 0.0
C4511 C 0.13665 0.65974 0.98569 0.0
C4512 C 0.12179 0.64941 0.98385 0.0
H4513 H 0.15424 0.73417 0.87445 0.0
H4514 H 0.14762 0.71543 0.91242 0.0
C4515 C 0.11488 0.63853 1.00586 0.0
C4516 C 0.14362 0.67186 0.96239 0.0
H4517 H 0.16173 0.70892 0.95372 0.0
C4518 C 0.14212 0.66838 0.9315 0.0
C4519 C 0.15083 0.68681 0.97013 0.0
C4520 C 0.15231 0.69161 1.00246 0.0
C4521 C 0.14745 0.67916 0.90865 0.0
C4522 C 0.15479 0.69412 0.9164 0.0
C4523 C 0.15633 0.69759 0.9473 0.0
C4524 C 0.15985 0.70622 0.89309 0.0
C4525 C 0.14461 0.67436 0.87628 0.0
C4526 C 0.16938 0.70792 0.86922 0.0
C4527 C 0.17334 0.7189 0.8471 0.0
C4528 C 0.16791 0.72858 0.8481 0.0
C4529 C 0.15876 0.72708 0.87253 0.0
C4530 C 0.1549 0.71623 0.89454 0.0
H4531 H 0.13596 0.66284 0.87412 0.0
H4532 H 0.14138 0.68116 0.86312 0.0
H4533 H 0.15465 0.67549 0.86622 0.0
H4534 H 0.17373 0.70068 0.86749 0.0
H4535 H 0.18029 0.71951 0.82872 0.0
H4536 H 0.39387 0.50625 0.05224 0.0
H4537 H 0.3751 0.50012 1.01359 0.0
H4538 H 0.3884 0.47268 0.96936 0.0
H4539 H 0.40714 0.47893 1.00709 0.0
H4540 H 0.38253 0.48663 0.92772 0.0
H4541 H 0.33645 0.4637 1.00758 0.0
H4542 H 0.34961 0.48233 1.01462 0.0
H4543 H 0.35458 0.46857 1.01889 0.0
C4544 C 0.39294 0.49907 0.03407 0.0
C4545 C 0.40223 0.49318 0.03316 0.0
C4546 C 0.38199 0.49537 1.01201 0.0
C4547 C 0.3799 0.4856 0.98836 0.0
C4548 C 0.38951 0.48015 0.98706 0.0
H4549 H 0.30326 0.43064 0.8809 0.0
H4550 H 0.32232 0.44251 0.91831 0.0
C4551 C 0.40035 0.4838 1.00894 0.0
C4552 C 0.36783 0.48084 0.96506 0.0
H4553 H 0.33082 0.46424 0.95651 0.0
C4554 C 0.37124 0.48184 0.93417 0.0
C4555 C 0.35291 0.4743 0.97285 0.0
C4556 C 0.34809 0.472 1.00525 0.0
C4557 C 0.36045 0.47652 0.91138 0.0
C4558 C 0.34554 0.47013 0.91915 0.0
C4559 C 0.34212 0.46922 0.95004 0.0
C4560 C 0.33333 0.46332 0.89602 0.0
C4561 C 0.36516 0.47727 0.87915 0.0
C4562 C 0.33255 0.47092 0.87062 0.0
C4563 C 0.32143 0.46404 0.84875 0.0
C4564 C 0.31065 0.44932 0.8516 0.0
C4565 C 0.31123 0.44195 0.87753 0.0
C4566 C 0.32225 0.44879 0.89923 0.0
H4567 H 0.37631 0.47897 0.8775 0.0
H4568 H 0.35768 0.4672 0.86684 0.0
H4569 H 0.36509 0.48652 0.86784 0.0
H4570 H 0.34062 0.48221 0.8675 0.0
H4571 H 0.32153 0.47015 0.82923 0.0
H4572 H 0.11604 0.46931 0.54888 0.0
H4573 H 0.12751 0.46429 0.50739 0.0
H4574 H 0.14577 0.50832 0.47659 0.0
H4575 H 0.13405 0.51359 0.51902 0.0
H4576 H 0.12281 0.46483 0.44761 0.0
H4577 H 0.18108 0.50255 0.47107 0.0
H4578 H 0.16717 0.49831 0.4989 0.0
H4579 H 0.16967 0.51051 0.46867 0.0
C4580 C 0.12249 0.47813 0.53358 0.0
C4581 C 0.12387 0.49195 0.53777 0.0
C4582 C 0.12914 0.47514 0.50953 0.0
C4583 C 0.13766 0.4858 0.48837 0.0
C4584 C 0.13945 0.49981 0.49258 0.0
H4585 H 0.17939 0.47036 0.32686 0.0
H4586 H 0.17192 0.48247 0.3644 0.0
C4587 C 0.13268 0.50285 0.51695 0.0
C4588 C 0.14388 0.48165 0.46178 0.0
H4589 H 0.17557 0.48732 0.42877 0.0
C4590 C 0.13437 0.46989 0.44352 0.0
C4591 C 0.15897 0.48812 0.45577 0.0
C4592 C 0.16989 0.50051 0.47467 0.0
C4593 C 0.13937 0.46435 0.42033 0.0
C4594 C 0.15446 0.4704 0.41508 0.0
C4595 C 0.16402 0.48251 0.43255 0.0
C4596 C 0.1603 0.46364 0.39294 0.0
C4597 C 0.12829 0.45197 0.40152 0.0
C4598 C 0.15682 0.44912 0.39647 0.0
C4599 C 0.16115 0.44224 0.37519 0.0
C4600 C 0.16925 0.44955 0.34939 0.0
C4601 C 0.17329 0.46431 0.34637 0.0
C4602 C 0.16893 0.47125 0.36789 0.0
H4603 H 0.11766 0.45156 0.40172 0.0
H4604 H 0.13197 0.45286 0.37786 0.0
H4605 H 0.12663 0.44159 0.41087 0.0
H4606 H 0.1505 0.44294 0.41566 0.0
H4607 H 0.15779 0.43093 0.37876 0.0
H4608 H 0.6122 0.73425 0.37652 0.0
H4609 H 0.60024 0.71543 0.4145 0.0
H4610 H 0.55955 0.6996 0.36837 0.0
H4611 H 0.57164 0.71844 0.32966 0.0
H4612 H 0.57945 0.70844 0.45521 0.0
H4613 H 0.56015 0.66228 0.37613 0.0
H4614 H 0.57271 0.68066 0.36495 0.0
H4615 H 0.55366 0.67453 0.36773 0.0
C4616 C 0.60066 0.72688 0.37433 0.0
C4617 C 0.593 0.72808 0.34959 0.0
C4618 C 0.59377 0.71599 0.39634 0.0
C4619 C 0.5789 0.70566 0.39457 0.0
C4620 C 0.57107 0.70706 0.37034 0.0
H4621 H 0.53497 0.64668 0.55219 0.0
H4622 H 0.54204 0.66554 0.51339 0.0
C4623 C 0.57799 0.71805 0.34822 0.0
C4624 C 0.57192 0.69358 0.41797 0.0
H4625 H 0.55322 0.65651 0.4269 0.0
C4626 C 0.57364 0.6971 0.44885 0.0
C4627 C 0.56443 0.6786 0.41034 0.0
C4628 C 0.56271 0.67372 0.37804 0.0
C4629 C 0.56825 0.68635 0.47177 0.0
C4630 C 0.56061 0.67138 0.46414 0.0
C4631 C 0.55886 0.66785 0.43326 0.0
C4632 C 0.55529 0.65928 0.48755 0.0
C4633 C 0.57136 0.69121 0.50409 0.0
C4634 C 0.55971 0.64884 0.48601 0.0
C4635 C 0.55555 0.63795 0.50807 0.0
C4636 C 0.54662 0.63685 0.53263 0.0
C4637 C 0.54175 0.64698 0.53375 0.0
C4638 C 0.546 0.65799 0.51159 0.0
H4639 H 0.58031 0.70261 0.50606 0.0
H4640 H 0.56152 0.69051 0.51429 0.0
H4641 H 0.57428 0.68418 0.51724 0.0
H4642 H 0.56678 0.64932 0.46799 0.0
H4643 H 0.55963 0.6305 0.50607 0.0
H4644 H 0.38413 0.92281 0.55117 0.0
H4645 H 0.36782 0.91155 0.50933 0.0
H4646 H 0.39535 0.89594 0.4751 0.0
H4647 H 0.41217 0.9075 0.51782 0.0
H4648 H 0.37317 0.91768 0.44952 0.0
H4649 H 0.35499 0.85946 0.46777 0.0
H4650 H 0.36401 0.87292 0.49673 0.0
H4651 H 0.37424 0.87165 0.46601 0.0
C4652 C 0.38691 0.91698 0.53504 0.0
C4653 C 0.39979 0.91631 0.53836 0.0
C4654 C 0.37739 0.91045 0.51079 0.0
C4655 C 0.38008 0.90274 0.48855 0.0
C4656 C 0.39273 0.90162 0.49191 0.0
H4657 H 0.32377 0.86147 0.32585 0.0
H4658 H 0.34317 0.86901 0.36379 0.0
C4659 C 0.40244 0.90829 0.51647 0.0
C4660 C 0.3698 0.89667 0.46177 0.0
H4661 H 0.34481 0.86517 0.42658 0.0
C4662 C 0.36709 0.90618 0.44454 0.0
C4663 C 0.36173 0.88167 0.45456 0.0
C4664 C 0.36374 0.87075 0.47226 0.0
C4665 C 0.35664 0.90125 0.42119 0.0
C4666 C 0.3481 0.88619 0.41478 0.0
C4667 C 0.35113 0.87668 0.43124 0.0
C4668 C 0.33559 0.88031 0.39236 0.0
C4669 C 0.35496 0.91238 0.40339 0.0
C4670 C 0.32436 0.88354 0.39574 0.0
C4671 C 0.31328 0.87922 0.37419 0.0
C4672 C 0.31275 0.87129 0.34828 0.0
C4673 C 0.3236 0.86742 0.34544 0.0
C4674 C 0.33482 0.87183 0.36719 0.0
H4675 H 0.36502 0.92313 0.40394 0.0
H4676 H 0.35217 0.90902 0.37958 0.0
H4677 H 0.34614 0.9137 0.41339 0.0
H4678 H 0.32426 0.88968 0.41505 0.0
H4679 H 0.3052 0.88242 0.37763 0.0
H4680 H 0.28312 0.29315 0.14167 0.0
H4681 H 0.28125 0.31494 0.13346 0.0
H4682 H 0.30493 0.32285 0.05031 0.0
H4683 H 0.30653 0.3011 0.05811 0.0
H4684 H 0.30522 0.34029 0.13373 0.0
H4685 H 0.27786 0.33714 0.02749 0.0
H4686 H 0.27508 0.32109 0.04719 0.0
H4687 H 0.28997 0.33032 1.02119 0.0
C4688 C 0.28747 0.2993 0.12116 0.0
C4689 C 0.29518 0.29562 0.10072 0.0
C4690 C 0.28635 0.3117 0.11645 0.0
C4691 C 0.29276 0.32045 0.09106 0.0
C4692 C 0.29954 0.31612 0.06965 0.0
H4693 H 0.35381 0.39279 0.03043 0.0
H4694 H 0.33044 0.37085 0.03711 0.0
C4695 C 0.3007 0.30382 0.07439 0.0
C4696 C 0.29545 0.33549 0.08983 0.0
H4697 H 0.30044 0.36088 0.03737 0.0
C4698 C 0.30366 0.34483 0.11319 0.0
C4699 C 0.29321 0.34138 0.06327 0.0
C4700 C 0.28339 0.33187 0.03856 0.0
C4701 C 0.31156 0.35986 0.10888 0.0
C4702 C 0.31093 0.36563 0.0806 0.0
C4703 C 0.30109 0.35643 0.05885 0.0
C4704 C 0.32277 0.38002 0.071 0.0
C4705 C 0.32184 0.36918 0.13334 0.0
C4706 C 0.32584 0.39272 0.08647 0.0
C4707 C 0.33937 0.40524 0.0831 0.0
C4708 C 0.34988 0.4052 0.06395 0.0
C4709 C 0.34606 0.393 0.0459 0.0
C4710 C 0.33263 0.38051 0.04946 0.0
H4711 H 0.32179 0.36271 0.15298 0.0
H4712 H 0.33309 0.37532 0.12451 0.0
H4713 H 0.3187 0.37709 0.14133 0.0
H4714 H 0.31824 0.39264 0.10277 0.0
H4715 H 0.34198 0.4145 0.09723 0.0
H4716 H 0.62578 0.93463 0.09805 0.0
H4717 H 0.64765 0.93284 0.10464 0.0
H4718 H 0.6696 0.96619 0.03788 0.0
H4719 H 0.64767 0.96752 0.03014 0.0
H4720 H 0.6798 0.94641 0.03999 0.0
H4721 H 0.67715 0.96674 0.1543 0.0
H4722 H 0.66293 0.94914 0.14301 0.0
H4723 H 0.66465 0.96508 0.12526 0.0
C4724 C 0.63508 0.94116 0.08389 0.0
C4725 C 0.63517 0.95152 0.06413 0.0
C4726 C 0.6476 0.94019 0.08787 0.0
C4727 C 0.66036 0.94969 0.07242 0.0
C4728 C 0.65991 0.95883 0.05025 0.0
H4729 H 0.73931 1.01251 0.06035 0.0
H4730 H 0.71764 0.98911 0.05266 0.0
C4731 C 0.64741 0.95971 0.04607 0.0
C4732 C 0.67473 0.95241 0.08263 0.0
H4733 H 0.6997 0.97247 0.13598 0.0
C4734 C 0.6841 0.95168 0.06141 0.0
C4735 C 0.68031 0.95904 0.11084 0.0
C4736 C 0.67082 0.96014 0.13473 0.0
C4737 C 0.69913 0.95893 0.06622 0.0
C4738 C 0.70482 0.96724 0.09264 0.0
C4739 C 0.69532 0.96624 0.11554 0.0
C4740 C 0.71984 0.97961 0.09401 0.0
C4741 C 0.70881 0.95849 0.04204 0.0
C4742 C 0.72844 0.98211 0.1197 0.0
C4743 C 0.74079 0.99566 0.12433 0.0
C4744 C 0.74456 1.00691 0.10349 0.0
C4745 C 0.73651 1.00406 0.07692 0.0
C4746 C 0.72426 0.99057 0.07225 0.0
H4747 H 0.70365 0.94764 0.03124 0.0
H4748 H 0.71046 0.96651 1.02434 0.0
H4749 H 0.71954 0.96103 0.05111 0.0
H4750 H 0.72511 0.97388 0.13697 0.0
H4751 H 0.74684 0.99761 0.14503 0.0
H4752 H 0.04017 0.76253 0.11026 0.0
H4753 H 0.06401 0.76473 0.1036 0.0
H4754 H 0.05301 0.73121 0.16978 0.0
H4755 H 0.02954 0.72944 0.17752 0.0
H4756 H 0.08296 0.7518 0.16833 0.0
H4757 H 0.06074 0.73122 0.05373 0.0
H4758 H 0.06354 0.74861 0.06522 0.0
H4759 H 0.04951 0.73242 0.08256 0.0
C4760 C 0.04306 0.75603 0.12423 0.0
C4761 C 0.03285 0.74553 0.14388 0.0
C4762 C 0.05665 0.75724 0.12023 0.0
C4763 C 0.0601 0.74786 0.13559 0.0
C4764 C 0.05053 0.7385 0.15752 0.0
H4765 H 0.07702 0.6861 0.1502 0.0
H4766 H 0.07885 0.7096 0.15704 0.0
C4767 C 0.03704 0.73737 0.16169 0.0
C4768 C 0.07204 0.74554 0.12559 0.0
H4769 H 0.07757 0.72566 0.07275 0.0
C4770 C 0.08218 0.74653 0.14699 0.0
C4771 C 0.07125 0.73894 0.09746 0.0
C4772 C 0.06069 0.73765 0.07334 0.0
C4773 C 0.09019 0.7395 0.14248 0.0
C4774 C 0.08776 0.73111 0.11624 0.0
C4775 C 0.07927 0.73193 0.09308 0.0
C4776 C 0.09045 0.71875 0.11543 0.0
C4777 C 0.10034 0.7402 0.16686 0.0
C4778 C 0.09648 0.71602 0.08988 0.0
C4779 C 0.09522 0.7024 0.08573 0.0
C4780 C 0.08775 0.69132 0.1069 0.0
C4781 C 0.08266 0.69442 0.13337 0.0
C4782 C 0.08396 0.70797 0.13755 0.0
H4783 H 0.10597 0.75115 0.17723 0.0
H4784 H 0.09399 0.73233 0.18483 0.0
H4785 H 0.10856 0.73762 0.15812 0.0
H4786 H 0.10136 0.7241 0.07234 0.0
H4787 H 0.09924 0.70026 0.06512 0.0
H4788 H 0.41332 0.33341 0.48953 0.0
H4789 H 0.39146 0.3095 0.48429 0.0
H4790 H 0.38481 0.32114 0.39521 0.0
H4791 H 0.40658 0.3447 0.4002 0.0
H4792 H 0.36619 0.30826 0.47946 0.0
H4793 H 0.37051 0.27888 0.38263 0.0
H4794 H 0.38634 0.29301 0.40139 0.0
H4795 H 0.37754 0.29739 0.37186 0.0
C4796 C 0.40742 0.3306 0.46849 0.0
C4797 C 0.41144 0.34091 0.44541 0.0
C4798 C 0.39499 0.31695 0.46548 0.0
C4799 C 0.38658 0.31341 0.43919 0.0
C4800 C 0.39127 0.32339 0.41538 0.0
H4801 H 0.31463 0.29867 0.36751 0.0
H4802 H 0.33658 0.29785 0.37894 0.0
C4803 C 0.40358 0.33698 0.41844 0.0
C4804 C 0.37151 0.30111 0.43864 0.0
H4805 H 0.34673 0.2782 0.38776 0.0
C4806 C 0.3619 0.30118 0.4601 0.0
C4807 C 0.36592 0.29171 0.41365 0.0
C4808 C 0.3757 0.29015 0.39132 0.0
C4809 C 0.34693 0.29388 0.45489 0.0
C4810 C 0.34148 0.28606 0.42774 0.0
C4811 C 0.35093 0.28437 0.40834 0.0
C4812 C 0.32717 0.28287 0.41611 0.0
C4813 C 0.33734 0.29607 0.47679 0.0
C4814 C 0.31433 0.274 0.43198 0.0
C4815 C 0.30181 0.27468 0.42582 0.0
C4816 C 0.30196 0.28412 0.40349 0.0
C4817 C 0.31432 0.29159 0.38533 0.0
C4818 C 0.32682 0.291 0.39165 0.0
H4819 H 0.34359 0.30352 0.49545 0.0
H4820 H 0.33127 0.30058 0.46504 0.0
H4821 H 0.32936 0.2855 0.48675 0.0
H4822 H 0.31431 0.26742 0.45057 0.0
H4823 H 0.29243 0.26872 0.44014 0.0
H4824 H 0.7723 0.03338 0.4569 0.0
H4825 H 0.77323 0.0565 0.46696 0.0
H4826 H 0.73767 0.04453 0.40569 0.0
H4827 H 0.73638 0.02149 0.39615 0.0
H4828 H 0.76082 0.07566 0.40519 0.0
H4829 H 0.73881 0.05304 0.51873 0.0
H4830 H 0.75559 0.05463 0.50596 0.0
H4831 H 0.73878 0.04129 0.48953 0.0
C4832 C 0.76478 0.03576 0.44534 0.0
C4833 C 0.75412 0.02548 0.426 0.0
C4834 C 0.76543 0.04901 0.45094 0.0
C4835 C 0.75547 0.05214 0.43717 0.0
C4836 C 0.74555 0.04236 0.41632 0.0
H4837 H 0.69501 0.06862 0.4127 0.0
H4838 H 0.71887 0.07102 0.41046 0.0
C4839 C 0.74483 0.02915 0.41085 0.0
C4840 C 0.7535 0.06425 0.44724 0.0
H4841 H 0.73221 0.06897 0.49772 0.0
C4842 C 0.75508 0.07467 0.42598 0.0
C4843 C 0.74634 0.0632 0.47469 0.0
C4844 C 0.74473 0.05248 0.49869 0.0
C4845 C 0.74793 0.08261 0.42969 0.0
C4846 C 0.73872 0.07969 0.45479 0.0
C4847 C 0.73905 0.07102 0.47817 0.0
C4848 C 0.72603 0.08187 0.4535 0.0
C4849 C 0.7493 0.09311 0.40546 0.0
C4850 C 0.722 0.0872 0.47839 0.0
C4851 C 0.70813 0.08559 0.47988 0.0
C4852 C 0.6981 0.07844 0.45669 0.0
C4853 C 0.70249 0.07399 0.43104 0.0
C4854 C 0.71627 0.07564 0.42951 0.0
H4855 H 0.76063 0.09915 0.39702 0.0
H4856 H 0.74228 0.087 0.38619 0.0
H4857 H 0.74612 0.10097 0.41366 0.0
H4858 H 0.72928 0.09186 0.49733 0.0
H4859 H 0.70497 0.08912 0.49989 0.0
H4860 H 1.00714 0.73939 0.40059 0.0
H4861 H 0.98328 0.71766 0.40715 0.0
H4862 H 0.99727 0.70936 0.49216 0.0
H4863 H 1.02078 0.73106 0.486 0.0
H4864 H 0.98171 0.69234 0.40737 0.0
H4865 H 0.95561 0.69486 0.51134 0.0
H4866 H 0.96927 0.71104 0.49268 0.0
H4867 H 0.97436 0.70162 0.51942 0.0
C4868 C 1.00488 0.73317 0.42112 0.0
C4869 C 1.01583 0.73671 0.44259 0.0
C4870 C 0.99125 0.7208 0.4249 0.0
C4871 C 0.98837 0.71195 0.45034 0.0
C4872 C 0.99901 0.71616 0.47273 0.0
H4873 H 0.9772 0.63989 0.51093 0.0
H4874 H 0.97561 0.66172 0.50362 0.0
C4875 C 1.01258 0.72843 0.46894 0.0
C4876 C 0.97601 0.69691 0.45079 0.0
H4877 H 0.95498 0.67123 0.50222 0.0
C4878 C 0.97532 0.68769 0.42753 0.0
C4879 C 0.96747 0.69086 0.47682 0.0
C4880 C 0.96662 0.7002 0.50126 0.0
C4881 C 0.96824 0.67265 0.4316 0.0
C4882 C 0.96147 0.66674 0.45953 0.0
C4883 C 0.96038 0.6758 0.48102 0.0
C4884 C 0.95903 0.65241 0.46928 0.0
C4885 C 0.96964 0.66346 0.40741 0.0
C4886 C 0.94962 0.63968 0.45367 0.0
C4887 C 0.95072 0.62722 0.45745 0.0
C4888 C 0.96114 0.62735 0.47711 0.0
C4889 C 0.96933 0.6396 0.49512 0.0
C4890 C 0.9683 0.65203 0.49119 0.0
H4891 H 0.97618 0.67001 0.38796 0.0
H4892 H 0.97481 0.65746 0.41665 0.0
H4893 H 0.95873 0.65542 0.39903 0.0
H4894 H 0.94222 0.63969 0.43703 0.0
H4895 H 0.94421 0.61791 0.44332 0.0
H4896 H 0.7063 0.61705 0.95743 0.0
H4897 H 0.7299 0.63914 0.95415 0.0
H4898 H 0.71713 0.65837 1.02454 0.0
H4899 H 0.6939 0.6362 0.02875 0.0
H4900 H 0.72961 0.6616 0.93408 0.0
H4901 H 0.75942 0.67887 0.04004 0.0
H4902 H 0.74592 0.66016 0.03328 0.0
H4903 H 0.74083 0.6727 0.0486 0.0
C4904 C 0.70881 0.62573 0.97323 0.0
C4905 C 0.69816 0.62503 0.99298 0.0
C4906 C 0.72232 0.63837 0.97129 0.0
C4907 C 0.72537 0.65046 0.98909 0.0
C4908 C 0.71526 0.64916 1.01095 0.0
H4909 H 0.73361 0.7267 0.98665 0.0
H4910 H 0.73497 0.70494 0.99691 0.0
C4911 C 0.70183 0.63653 1.01301 0.0
C4912 C 0.73688 0.66518 0.98011 0.0
H4913 H 0.7577 0.69849 1.0116 0.0
C4914 C 0.73631 0.66962 0.95067 0.0
C4915 C 0.74582 0.67567 1.00149 0.0
C4916 C 0.74812 0.6715 0.0325 0.0
C4917 C 0.74255 0.68434 0.94339 0.0
C4918 C 0.74968 0.69481 0.96614 0.0
C4919 C 0.752 0.69041 0.99434 0.0
C4920 C 0.7514 0.70941 0.96332 0.0
C4921 C 0.73995 0.68846 0.9125 0.0
C4922 C 0.76051 0.71935 0.94162 0.0
C4923 C 0.75959 0.73175 0.93541 0.0
C4924 C 0.74956 0.73432 0.95086 0.0
C4925 C 0.74119 0.72482 0.97392 0.0
C4926 C 0.74211 0.71249 0.98008 0.0
H4927 H 0.73348 0.67886 0.89798 0.0
H4928 H 0.73416 0.69468 0.91431 0.0
H4929 H 0.75049 0.69548 0.90126 0.0
H4930 H 0.76782 0.71719 0.92862 0.0
H4931 H 0.76621 0.73894 0.91758 0.0
H4932 H 0.29315 0.03166 0.93776 0.0
H4933 H 0.31508 0.05531 0.94316 0.0
H4934 H 0.3353 0.04427 0.87177 0.0
H4935 H 0.31334 0.02098 0.86565 0.0
H4936 H 0.33797 0.0553 0.96271 0.0
H4937 H 0.35462 0.08688 0.85871 0.0
H4938 H 0.33601 0.07303 0.86532 0.0
H4939 H 0.34874 0.06847 0.8489 0.0
C4940 C 0.30204 0.03457 0.9223 0.0
C4941 C 0.30165 0.02441 0.90158 0.0
C4942 C 0.31457 0.0481 0.92543 0.0
C4943 C 0.32685 0.05166 0.90779 0.0
C4944 C 0.32592 0.042 0.88522 0.0
H4945 H 0.4027 0.06073 0.90564 0.0
H4946 H 0.38094 0.06234 0.89752 0.0
C4947 C 0.31342 0.02854 0.88205 0.0
C4948 C 0.34139 0.06332 0.91724 0.0
H4949 H 0.37452 0.08529 0.88609 0.0
C4950 C 0.34592 0.0624 0.94639 0.0
C4951 C 0.35174 0.07281 0.89625 0.0
C4952 C 0.34743 0.07544 0.86568 0.0
C4953 C 0.36067 0.06883 0.95349 0.0
C4954 C 0.37106 0.07648 0.93088 0.0
C4955 C 0.36652 0.07919 0.90322 0.0
C4956 C 0.38566 0.07813 0.9327 0.0
C4957 C 0.36495 0.06585 0.98387 0.0
C4958 C 0.39575 0.08682 0.95461 0.0
C4959 C 0.40818 0.08577 0.95955 0.0
C4960 C 0.41059 0.076 0.94264 0.0
C4961 C 0.40094 0.06809 0.91944 0.0
C4962 C 0.38861 0.06915 0.91453 0.0
H4963 H 0.35542 0.05918 0.99844 0.0
H4964 H 0.37116 0.06009 0.98112 0.0
H4965 H 0.37202 0.07624 0.99555 0.0
H4966 H 0.39371 0.0939 0.96869 0.0
H4967 H 0.41551 0.09205 0.97749 0.0
H4968 H 0.94888 0.33471 1.00619 0.0
H4969 H 0.94615 0.31039 1.00829 0.0
H4970 H 0.97123 0.31949 0.92682 0.0
H4971 H 0.97361 0.3434 0.92422 0.0
H4972 H 0.94871 0.28986 0.93228 0.0
H4973 H 0.98307 0.31066 0.03527 0.0
H4974 H 0.96563 0.30948 0.03441 0.0
H4975 H 0.98017 0.32275 1.01175 0.0
C4976 C 0.95347 0.33132 0.98839 0.0
C4977 C 0.96179 0.34102 0.96547 0.0
C4978 C 0.95193 0.31747 0.98963 0.0
C4979 C 0.95869 0.31325 0.96797 0.0
C4980 C 0.96592 0.32252 0.94378 0.0
H4981 H 1.01178 0.29129 0.90442 0.0
H4982 H 0.98873 0.29014 0.91315 0.0
C4983 C 0.96746 0.33626 0.94253 0.0
C4984 C 0.96065 0.30057 0.9723 0.0
H4985 H 0.98498 0.29353 1.00668 0.0
C4986 C 0.95622 0.29024 0.94919 0.0
C4987 C 0.97018 0.30084 0.99476 0.0
C4988 C 0.97511 0.3115 1.0205 0.0
C4989 C 0.96257 0.28153 0.94575 0.0
C4990 C 0.97378 0.28347 0.96555 0.0
C4991 C 0.97656 0.29219 0.99114 0.0
C4992 C 0.985 0.27979 0.95678 0.0
C4993 C 0.95794 0.2711 0.91972 0.0
C4994 C 0.99056 0.27407 0.97802 0.0
C4995 C 1.00399 0.27505 0.97326 0.0
C4996 C 1.012 0.28164 0.94711 0.0
C4997 C 1.00579 0.28605 0.92466 0.0
C4998 C 0.99248 0.28524 0.92955 0.0
H4999 H 0.94603 0.26582 0.91639 0.0
H5000 H 0.96317 0.27716 0.89882 0.0
H5001 H 0.96092 0.2626 0.92317 0.0
H5002 H 0.98504 0.26987 0.99923 0.0
H5003 H 1.00848 0.27139 0.99076 0.0
H5004 H 0.73332 0.72808 0.683 0.0
H5005 H 0.71133 0.72953 0.67762 0.0
H5006 H 0.73277 0.76412 0.61314 0.0
H5007 H 0.75469 0.76224 0.61737 0.0
H5008 H 0.70139 0.74961 0.67942 0.0
H5009 H 0.70255 0.73115 0.56238 0.0
H5010 H 0.71531 0.73217 0.59017 0.0
H5011 H 0.717 0.74848 0.57439 0.0
C5012 C 0.73344 0.73617 0.66806 0.0
C5013 C 0.74557 0.74473 0.64996 0.0
C5014 C 0.72092 0.73712 0.66525 0.0
C5015 C 0.72032 0.74669 0.64442 0.0
C5016 C 0.73294 0.75646 0.6289 0.0
H5017 H 0.63314 0.70037 0.57546 0.0
H5018 H 0.65499 0.72391 0.58411 0.0
C5019 C 0.74548 0.75543 0.63152 0.0
C5020 C 0.70588 0.74426 0.63551 0.0
H5021 H 0.68025 0.7252 0.58255 0.0
C5022 C 0.69681 0.74472 0.65786 0.0
C5023 C 0.69995 0.73813 0.60715 0.0
C5024 C 0.70913 0.73737 0.58208 0.0
C5025 C 0.68174 0.73764 0.65383 0.0
C5026 C 0.67569 0.72977 0.62707 0.0
C5027 C 0.6849 0.73109 0.60324 0.0
C5028 C 0.66062 0.71749 0.62583 0.0
C5029 C 0.67239 0.73778 0.67911 0.0
C5030 C 0.65634 0.70621 0.64676 0.0
C5031 C 0.644 0.69282 0.64178 0.0
C5032 C 0.63572 0.69041 0.61567 0.0
C5033 C 0.63935 0.70198 0.59578 0.0
C5034 C 0.65179 0.71542 0.60074 0.0
H5035 H 0.67774 0.74847 0.69059 0.0
H5036 H 0.66157 0.73541 0.67097 0.0
H5037 H 0.67092 0.7295 0.69604 0.0
H5038 H 0.66314 0.70735 0.66584 0.0
H5039 H 0.64131 0.68413 0.65766 0.0
H5040 H 0.3493 0.96622 0.56943 0.0
H5041 H 0.3263 0.96457 0.5825 0.0
H5042 H 0.3222 0.93801 0.6592 0.0
H5043 H 0.34559 0.94006 0.64679 0.0
H5044 H 0.29691 0.94271 0.59593 0.0
H5045 H 0.32696 0.97534 0.69645 0.0
H5046 H 0.33644 0.9722 0.66647 0.0
H5047 H 0.32479 0.95763 0.69111 0.0
C5048 C 0.34341 0.95986 0.58884 0.0
C5049 C 0.3494 0.95359 0.6075 0.0
C5050 C 0.33018 0.95876 0.59609 0.0
C5051 C 0.32268 0.95136 0.6221 0.0
C5052 C 0.32793 0.94392 0.63925 0.0
H5053 H 0.28661 1.00346 0.67874 0.0
H5054 H 0.28453 0.97946 0.68181 0.0
C5055 C 0.34125 0.94506 0.63204 0.0
C5056 C 0.31102 0.95384 0.63325 0.0
H5057 H 0.30812 0.97812 0.67823 0.0
C5058 C 0.29901 0.95003 0.61463 0.0
C5059 C 0.31353 0.96311 0.6581 0.0
C5060 C 0.32611 0.96738 0.67926 0.0
C5061 C 0.29064 0.95676 0.61784 0.0
C5062 C 0.29465 0.96775 0.6397 0.0
C5063 C 0.30519 0.96986 0.66112 0.0
C5064 C 0.29133 0.97962 0.63588 0.0
C5065 C 0.27834 0.95289 0.59625 0.0
C5066 C 0.29538 0.98746 0.60883 0.0
C5067 C 0.29663 1.00108 0.60714 0.0
C5068 C 0.29396 1.00721 0.63251 0.0
C5069 C 0.28874 0.99894 0.65889 0.0
C5070 C 0.28751 0.98523 0.66062 0.0
H5071 H 0.27238 0.94103 0.59192 0.0
H5072 H 0.27062 0.95617 0.60491 0.0
H5073 H 0.28277 0.95837 0.57441 0.0
H5074 H 0.2988 0.98365 0.58965 0.0
H5075 H 0.30049 1.00719 0.58643 0.0
H5076 H 0.07164 0.39729 0.65856 0.0
H5077 H 0.07418 0.37607 0.66576 0.0
H5078 H 0.10171 0.3876 0.58747 0.0
H5079 H 0.09883 0.40886 0.57972 0.0
H5080 H 0.0794 0.36145 0.58232 0.0
H5081 H 0.10189 0.36374 0.69394 0.0
H5082 H 0.08862 0.36923 0.69795 0.0
H5083 H 0.10447 0.37988 0.675 0.0
C5084 C 0.07845 0.39545 0.64318 0.0
C5085 C 0.08482 0.40453 0.61829 0.0
C5086 C 0.08016 0.38346 0.64765 0.0
C5087 C 0.08838 0.38034 0.62748 0.0
C5088 C 0.0955 0.3899 0.60355 0.0
H5089 H 0.04438 0.28589 0.61861 0.0
H5090 H 0.06748 0.30878 0.61586 0.0
C5091 C 0.09381 0.40199 0.5991 0.0
C5092 C 0.08674 0.36569 0.62824 0.0
H5093 H 0.08021 0.33961 0.68014 0.0
C5094 C 0.08019 0.3567 0.60328 0.0
C5095 C 0.08804 0.3595 0.65533 0.0
C5096 C 0.09631 0.3687 0.68189 0.0
C5097 C 0.07281 0.34158 0.60619 0.0
C5098 C 0.07213 0.33543 0.63474 0.0
C5099 C 0.08053 0.34438 0.65841 0.0
C5100 C 0.05999 0.32086 0.64207 0.0
C5101 C 0.06426 0.33241 0.57975 0.0
C5102 C 0.04846 0.31997 0.65894 0.0
C5103 C 0.03528 0.30706 0.66029 0.0
C5104 C 0.03339 0.29472 0.64488 0.0
C5105 C 0.04539 0.2953 0.63016 0.0
C5106 C 0.05862 0.30831 0.62873 0.0
H5107 H 0.06576 0.33899 0.55928 0.0
H5108 H 0.06773 0.32441 0.57448 0.0
H5109 H 0.05254 0.32632 0.58534 0.0
H5110 H 0.04928 0.32958 0.66924 0.0
H5111 H 0.02629 0.30711 0.67157 0.0
H5112 H 0.95998 0.60567 0.81295 0.0
H5113 H 0.98175 0.60505 0.82877 0.0
H5114 H 1.00656 0.63632 0.76021 0.0
H5115 H 0.98524 0.63739 0.74495 0.0
H5116 H 1.01275 0.61169 0.77031 0.0
H5117 H 1.01402 0.64258 0.87268 0.0
H5118 H 0.99813 0.62564 0.86319 0.0
H5119 H 1.00286 0.64152 0.84123 0.0
C5120 C 0.97007 0.61234 0.80114 0.0
C5121 C 0.97088 0.62169 0.77784 0.0
C5122 C 0.98243 0.61185 0.81004 0.0
C5123 C 0.9957 0.62063 0.79561 0.0
C5124 C 0.99634 0.62933 0.77137 0.0
H5125 H 0.07275 0.67594 0.75999 0.0
H5126 H 0.05102 0.6524 0.76423 0.0
C5127 C 0.9841 0.62991 0.76264 0.0
C5128 C 1.0095 0.62265 0.80761 0.0
H5129 H 0.03623 0.64692 0.85318 0.0
C5130 C 1.01783 0.61891 0.78921 0.0
C5131 C 1.01599 0.63173 0.83274 0.0
C5132 C 1.00736 0.63564 0.85377 0.0
C5133 C 0.0329 0.62569 0.79282 0.0
C5134 C 0.03968 0.63673 0.81467 0.0
C5135 C 0.03108 0.63866 0.83601 0.0
C5136 C 0.05472 0.64882 0.81058 0.0
C5137 C 0.0415 0.62191 0.77149 0.0
C5138 C 0.06424 0.65473 0.8351 0.0
C5139 C 0.07666 0.66844 0.83277 0.0
C5140 C 0.07956 0.67642 0.80601 0.0
C5141 C 0.07063 0.67004 0.78096 0.0
C5142 C 0.05832 0.65643 0.78325 0.0
H5143 H 0.03577 0.61003 0.76743 0.0
H5144 H 0.04246 0.62723 0.74949 0.0
H5145 H 0.05253 0.6254 0.78023 0.0
H5146 H 0.06159 0.64914 0.85651 0.0
H5147 H 0.08344 0.67317 0.85237 0.0
H5148 H 0.43676 0.36404 0.77119 0.0
H5149 H 0.43866 0.38734 0.78311 0.0
H5150 H 0.39934 0.37475 0.73341 0.0
H5151 H 0.39806 0.35211 0.71943 0.0
H5152 H 0.41644 0.4034 0.73197 0.0
H5153 H 0.4127 0.38439 0.85035 0.0
H5154 H 0.42868 0.38864 0.8292 0.0
H5155 H 0.41161 0.37309 0.81926 0.0
C5156 C 0.42884 0.36648 0.7618 0.0
C5157 C 0.41696 0.35601 0.74515 0.0
C5158 C 0.42985 0.37976 0.769 0.0
C5159 C 0.41882 0.38256 0.76025 0.0
C5160 C 0.4079 0.37279 0.74084 0.0
H5161 H 0.35405 0.38635 0.8222 0.0
H5162 H 0.37631 0.38601 0.81342 0.0
C5163 C 0.40705 0.35972 0.73316 0.0
C5164 C 0.41691 0.39409 0.77455 0.0
H5165 H 0.40374 0.3997 0.83999 0.0
C5166 C 0.4141 0.40301 0.75579 0.0
C5167 C 0.41411 0.39375 0.80579 0.0
C5168 C 0.41686 0.38445 0.82742 0.0
C5169 C 0.40657 0.40979 0.7665 0.0
C5170 C 0.40217 0.4079 0.79694 0.0
C5171 C 0.40701 0.40093 0.81659 0.0
C5172 C 0.38955 0.40917 0.80654 0.0
C5173 C 0.40189 0.41743 0.74446 0.0
C5174 C 0.38965 0.42239 0.80646 0.0
C5175 C 0.37678 0.42263 0.81161 0.0
C5176 C 0.3637 0.40965 0.81708 0.0
C5177 C 0.36391 0.39659 0.81865 0.0
C5178 C 0.37667 0.39637 0.81347 0.0
H5179 H 0.40574 0.41739 0.72127 0.0
H5180 H 0.38988 0.41214 0.7441 0.0
H5181 H 0.40626 0.42885 0.75155 0.0
H5182 H 0.39952 0.43242 0.80159 0.0
H5183 H 0.37698 0.43289 0.81058 0.0
H5184 H 0.6732 0.0723 0.73628 0.0
H5185 H 0.64955 0.05046 0.74415 0.0
H5186 H 0.6648 0.0429 0.82832 0.0
H5187 H 0.68813 0.06469 0.82083 0.0
H5188 H 0.64841 0.02518 0.74474 0.0
H5189 H 0.62323 0.02844 0.84961 0.0
H5190 H 0.63656 0.04447 0.82998 0.0
H5191 H 0.64212 0.03539 0.85659 0.0
C5192 C 0.67127 0.06621 0.75692 0.0
C5193 C 0.68251 0.07 0.77776 0.0
C5194 C 0.65776 0.05379 0.76143 0.0
C5195 C 0.6553 0.04513 0.78702 0.0
C5196 C 0.66624 0.04957 0.80881 0.0
H5197 H 0.6437 0.97286 0.84987 0.0
H5198 H 0.64236 0.9948 0.84221 0.0
C5199 C 0.67969 0.06189 0.80426 0.0
C5200 C 0.64302 0.03005 0.78819 0.0
H5201 H 0.62231 1.00475 0.84051 0.0
C5202 C 0.64216 0.02068 0.76513 0.0
C5203 C 0.6347 0.0242 0.81454 0.0
C5204 C 0.63411 0.03374 0.83888 0.0
C5205 C 0.63508 1.00566 0.76962 0.0
C5206 C 0.62845 0.99993 0.79776 0.0
C5207 C 0.62758 1.00916 0.81914 0.0
C5208 C 0.62585 0.98557 0.80772 0.0
C5209 C 0.63632 0.99632 0.74557 0.0
C5210 C 0.61638 0.97284 0.79218 0.0
C5211 C 0.61736 0.96032 0.79611 0.0
C5212 C 0.6277 0.96038 0.8159 0.0
C5213 C 0.63591 0.97263 0.83392 0.0
C5214 C 0.63502 0.98512 0.8298 0.0
H5215 H 0.64291 1.00276 0.72607 0.0
H5216 H 0.64136 0.99021 0.75492 0.0
H5217 H 0.62537 0.98837 0.73722 0.0
H5218 H 0.60903 0.9729 0.77545 0.0
H5219 H 0.61082 0.95102 0.78197 0.0
H5220 H 0.39548 0.05311 0.24728 0.0
H5221 H 0.39661 0.0316 0.26035 0.0
H5222 H 0.4409 0.05811 0.28945 0.0
H5223 H 0.43995 0.07998 0.27589 0.0
H5224 H 0.41559 0.02067 0.24426 0.0
H5225 H 0.41874 0.03528 0.36551 0.0
H5226 H 0.41426 0.04475 0.33776 0.0
H5227 H 0.43229 0.04749 0.33946 0.0
C5228 C 0.40563 0.05445 0.25561 0.0
C5229 C 0.4176 0.06829 0.26066 0.0
C5230 C 0.40625 0.04211 0.26317 0.0
C5231 C 0.4188 0.04327 0.27605 0.0
C5232 C 0.43107 0.05701 0.27981 0.0
H5233 H 0.37754 0.951 0.31619 0.0
H5234 H 0.4006 0.97379 0.31069 0.0
C5235 C 0.43047 0.06946 0.27217 0.0
C5236 C 0.41796 0.02996 0.2882 0.0
H5237 H 0.40718 1.01063 0.35336 0.0
C5238 C 0.41434 0.01847 0.2682 0.0
C5239 C 0.41657 0.02726 0.31948 0.0
C5240 C 0.42065 0.03929 0.34197 0.0
C5241 C 0.40724 1.00408 0.27831 0.0
C5242 C 0.40393 1.00127 0.30925 0.0
C5243 C 0.40963 1.01287 0.32964 0.0
C5244 C 0.3913 0.98746 0.31902 0.0
C5245 C 0.40166 0.99202 0.25542 0.0
C5246 C 0.37865 0.98764 0.32703 0.0
C5247 C 0.36555 0.97477 0.33 0.0
C5248 C 0.36479 0.96137 0.32512 0.0
C5249 C 0.37772 0.96116 0.31951 0.0
C5250 C 0.3909 0.97414 0.31646 0.0
H5251 H 0.40503 0.99614 0.23217 0.0
H5252 H 0.40582 0.98458 0.2607 0.0
H5253 H 0.38964 0.98566 0.25622 0.0
H5254 H 0.37869 0.99781 0.32892 0.0
H5255 H 0.35587 0.97544 0.33391 0.0
H5256 H 0.98312 0.35779 0.22214 0.0
H5257 H 1.00467 0.37974 0.23952 0.0
H5258 H 0.98045 0.38272 0.31414 0.0
H5259 H 0.95886 0.36061 0.29713 0.0
H5260 H 1.01253 0.41012 0.26108 0.0
H5261 H 1.01054 0.37164 0.34876 0.0
H5262 H 0.99972 0.36513 0.31514 0.0
H5263 H 0.99512 0.37404 0.34368 0.0
C5264 C 0.98229 0.36333 0.2418 0.0
C5265 C 0.96942 0.35737 0.25859 0.0
C5266 C 0.99455 0.37594 0.25154 0.0
C5267 C 0.99413 0.38271 0.27824 0.0
C5268 C 0.98094 0.37759 0.29349 0.0
H5269 H 0.07775 0.41667 0.36202 0.0
H5270 H 0.0541 0.41531 0.35921 0.0
C5271 C 0.96863 0.36499 0.2837 0.0
C5272 C 1.00797 0.39304 0.29264 0.0
H5273 H 0.03256 0.39254 0.34061 0.0
C5274 C 1.01686 0.40653 0.27909 0.0
C5275 C 1.01346 0.38842 0.31648 0.0
C5276 C 1.0043 0.37402 0.33195 0.0
C5277 C 0.0315 0.41501 0.28719 0.0
C5278 C 0.03743 0.40954 0.30849 0.0
C5279 C 0.02812 0.39676 0.32413 0.0
C5280 C 0.05323 0.41491 0.31055 0.0
C5281 C 0.04055 0.42944 0.27193 0.0
C5282 C 0.06091 0.41577 0.28423 0.0
C5283 C 0.07444 0.41676 0.28585 0.0
C5284 C 0.08044 0.41658 0.31381 0.0
C5285 C 0.07328 0.41673 0.3402 0.0
C5286 C 0.05982 0.41602 0.33858 0.0
H5287 H 0.03415 0.43498 0.26879 0.0
H5288 H 0.05048 0.43666 0.28495 0.0
H5289 H 0.04374 0.42768 0.24925 0.0
H5290 H 0.05597 0.41442 0.26234 0.0
H5291 H 0.07962 0.41642 0.26514 0.0
H5292 H 0.61567 0.66382 0.3002 0.0
H5293 H 0.61402 0.64041 0.28941 0.0
H5294 H 0.64651 0.6607 0.22035 0.0
H5295 H 0.64792 0.68385 0.2304 0.0
H5296 H 0.62366 0.6315 0.20626 0.0
H5297 H 0.64852 0.63643 0.31929 0.0
H5298 H 0.6315 0.63607 0.31633 0.0
H5299 H 0.64778 0.65154 0.30298 0.0
C5300 C 0.6222 0.66316 0.28227 0.0
C5301 C 0.63215 0.67569 0.26653 0.0
C5302 C 0.62126 0.64982 0.2762 0.0
C5303 C 0.63026 0.64889 0.25432 0.0
C5304 C 0.63946 0.66119 0.2373 0.0
H5305 H 0.68761 0.63348 0.18723 0.0
H5306 H 0.66437 0.63237 0.19235 0.0
C5307 C 0.64041 0.67445 0.24333 0.0
C5308 C 0.63195 0.63599 0.25151 0.0
H5309 H 0.65239 0.62311 0.28295 0.0
C5310 C 0.6295 0.62922 0.22335 0.0
C5311 C 0.63927 0.63276 0.27405 0.0
C5312 C 0.64199 0.63954 0.3049 0.0
C5313 C 0.63573 0.62072 0.21599 0.0
C5314 C 0.64487 0.61931 0.23709 0.0
C5315 C 0.64556 0.62435 0.26655 0.0
C5316 C 0.65641 0.6162 0.22774 0.0
C5317 C 0.63331 0.6142 0.185 0.0
C5318 C 0.65962 0.60719 0.24525 0.0
C5319 C 0.67313 0.60808 0.24277 0.0
C5320 C 0.68362 0.61803 0.22278 0.0
C5321 C 0.6798 0.62588 0.20313 0.0
C5322 C 0.66636 0.62504 0.2057 0.0
H5323 H 0.62196 0.61021 0.17771 0.0
H5324 H 0.6405 0.62268 0.16878 0.0
H5325 H 0.63557 0.6051 0.18413 0.0
H5326 H 0.65216 0.60037 0.26253 0.0
H5327 H 0.67577 0.60192 0.25829 0.0
loop_
_geom_bond_atom_site_label_1
_geom_bond_atom_site_label_2
_geom_bond_distance
_geom_bond_site_symmetry_2
_ccdc_geom_bond_type
Eu0 C9 2.828 . S
Eu0 O11 2.392 . S
Eu0 O13 2.418 . S
Eu0 O18 2.373 . S
Eu0 O21 2.488 . S
Eu0 O22 2.471 . S
Eu0 O23 2.349 . S
Eu1 O10 2.373 . S
Eu1 O14 2.488 . S
Eu1 O15 2.471 . S
Eu1 O16 2.349 . S
Eu1 O19 2.392 . S
Eu1 O20 2.418 . S
Eu1 C30 2.828 . S
C2 O20 1.244 . S
C2 O23 1.265 . S
C3 C4 1.379 . S
C3 C7 1.373 . S
C3 C9 1.505 . S
C4 C3 1.379 . S
C4 C6 1.369 . S
C4 H32 0.930 . S
C5 C7 1.383 . S
C5 C8 1.382 . S
C5 H33 0.930 . S
C6 C4 1.369 . S
C6 C8 1.392 . S
C6 H34 0.930 . S
C7 C3 1.373 . S
C7 C5 1.383 . S
C7 H35 0.931 . S
C8 C5 1.382 . S
C8 C6 1.392 . S
C9 Eu0 2.828 . S
C9 C3 1.505 . S
C9 O21 1.249 . S
C9 O22 1.244 . S
O10 Eu1 2.373 . S
O10 C12 1.258 . S
O11 Eu0 2.392 . S
O11 C12 1.242 . S
C12 O10 1.258 . S
C12 O11 1.242 . S
O13 Eu0 2.418 . S
O13 C17 1.244 . S
O14 Eu1 2.488 . S
O14 C30 1.249 . S
O15 Eu1 2.471 . S
O15 C30 1.244 . S
O16 Eu1 2.349 . S
O16 C17 1.265 . S
C17 O13 1.244 . S
C17 O16 1.265 . S
O18 Eu0 2.373 . S
O18 C31 1.258 . S
O19 Eu1 2.392 . S
O19 C31 1.242 . S
O20 Eu1 2.418 . S
O20 C2 1.244 . S
O21 Eu0 2.488 . S
O21 C9 1.249 . S
O22 Eu0 2.471 . S
O22 C9 1.244 . S
O23 Eu0 2.349 . S
O23 C2 1.265 . S
C24 C25 1.379 . S
C24 C28 1.373 . S
C24 C30 1.505 . S
C25 C24 1.379 . S
C25 C27 1.369 . S
C25 H36 0.930 . S
C26 C28 1.383 . S
C26 C29 1.382 . S
C26 H37 0.930 . S
C27 C25 1.369 . S
C27 C29 1.392 . S
C27 H38 0.930 . S
C28 C24 1.373 . S
C28 C26 1.383 . S
C28 H39 0.931 . S
C29 C26 1.382 . S
C29 C27 1.392 . S
C30 Eu1 2.828 . S
C30 O14 1.249 . S
C30 O15 1.244 . S
C30 C24 1.505 . S
C31 O18 1.258 . S
C31 O19 1.242 . S
H32 C4 0.930 . S
H33 C5 0.930 . S
H34 C6 0.930 . S
H35 C7 0.931 . S
H36 C25 0.930 . S
H37 C26 0.930 . S
H38 C27 0.930 . S
H39 C28 0.931 . S
Eu40 C49 2.828 . S
Eu40 O51 2.392 . S
Eu40 O53 2.418 . S
Eu40 O58 2.373 . S
Eu40 O61 2.488 . S
Eu40 O62 2.471 . S
Eu40 O63 2.349 . S
Eu41 O50 2.373 . S
Eu41 O54 2.488 . S
Eu41 O55 2.471 . S
Eu41 O56 2.349 . S
Eu41 O59 2.392 . S
Eu41 O60 2.418 . S
Eu41 C70 2.828 . S
C42 O60 1.244 . S
C42 O63 1.265 . S
C43 C44 1.379 . S
C43 C47 1.373 . S
C43 C49 1.505 . S
C44 C43 1.379 . S
C44 C46 1.369 . S
C44 H72 0.930 . S
C45 C47 1.383 . S
C45 C48 1.382 . S
C45 H73 0.930 . S
C46 C44 1.369 . S
C46 C48 1.392 . S
C46 H74 0.930 . S
C47 C43 1.373 . S
C47 C45 1.383 . S
C47 H75 0.931 . S
C48 C45 1.382 . S
C48 C46 1.392 . S
C49 Eu40 2.828 . S
C49 C43 1.505 . S
C49 O61 1.249 . S
C49 O62 1.244 . S
O50 Eu41 2.373 . S
O50 C52 1.258 . S
O51 Eu40 2.392 . S
O51 C52 1.242 . S
C52 O50 1.258 . S
C52 O51 1.242 . S
O53 Eu40 2.418 . S
O53 C57 1.244 . S
O54 Eu41 2.488 . S
O54 C70 1.249 . S
O55 Eu41 2.471 . S
O55 C70 1.244 . S
O56 Eu41 2.349 . S
O56 C57 1.265 . S
C57 O53 1.244 . S
C57 O56 1.265 . S
O58 Eu40 2.373 . S
O58 C71 1.258 . S
O59 Eu41 2.392 . S
O59 C71 1.242 . S
O60 Eu41 2.418 . S
O60 C42 1.244 . S
O61 Eu40 2.488 . S
O61 C49 1.249 . S
O62 Eu40 2.471 . S
O62 C49 1.244 . S
O63 Eu40 2.349 . S
O63 C42 1.265 . S
C64 C65 1.379 . S
C64 C68 1.373 . S
C64 C70 1.505 . S
C65 C64 1.379 . S
C65 C67 1.369 . S
C65 H76 0.930 . S
C66 C68 1.383 . S
C66 C69 1.382 . S
C66 H77 0.930 . S
C67 C65 1.369 . S
C67 C69 1.392 . S
C67 H78 0.924 . S
C68 C64 1.373 . S
C68 C66 1.383 . S
C68 H79 0.931 . S
C69 C66 1.382 . S
C69 C67 1.392 . S
C70 Eu41 2.828 . S
C70 O54 1.249 . S
C70 O55 1.244 . S
C70 C64 1.505 . S
C71 O58 1.258 . S
C71 O59 1.242 . S
H72 C44 0.930 . S
H73 C45 0.930 . S
H74 C46 0.930 . S
H75 C47 0.931 . S
H76 C65 0.930 . S
H77 C66 0.930 . S
H78 C67 0.924 . S
H79 C68 0.931 . S
Eu80 C89 2.828 . S
Eu80 O91 2.392 . S
Eu80 O93 2.418 . S
Eu80 O98 2.373 . S
Eu80 O101 2.488 . S
Eu80 O102 2.471 . S
Eu80 O103 2.349 . S
Eu81 O90 2.373 . S
Eu81 O94 2.488 . S
Eu81 O95 2.471 . S
Eu81 O96 2.349 . S
Eu81 O99 2.392 . S
Eu81 O100 2.418 . S
Eu81 C110 2.828 . S
C82 O100 1.244 . S
C82 O103 1.265 . S
C83 C84 1.379 . S
C83 C87 1.373 . S
C83 C89 1.505 . S
C84 C83 1.379 . S
C84 C86 1.369 . S
C84 H112 0.930 . S
C85 C87 1.383 . S
C85 C88 1.382 . S
C85 H113 0.930 . S
C86 C84 1.369 . S
C86 C88 1.392 . S
C86 H114 0.930 . S
C87 C83 1.373 . S
C87 C85 1.383 . S
C87 H115 0.931 . S
C88 C85 1.382 . S
C88 C86 1.392 . S
C89 Eu80 2.828 . S
C89 C83 1.505 . S
C89 O101 1.249 . S
C89 O102 1.244 . S
O90 Eu81 2.373 . S
O90 C92 1.258 . S
O91 Eu80 2.392 . S
O91 C92 1.242 . S
C92 O90 1.258 . S
C92 O91 1.242 . S
O93 Eu80 2.418 . S
O93 C97 1.244 . S
O94 Eu81 2.488 . S
O94 C110 1.249 . S
O95 Eu81 2.471 . S
O95 C110 1.244 . S
O96 Eu81 2.349 . S
O96 C97 1.265 . S
C97 O93 1.244 . S
C97 O96 1.265 . S
O98 Eu80 2.373 . S
O98 C111 1.258 . S
O99 Eu81 2.392 . S
O99 C111 1.242 . S
O100 Eu81 2.418 . S
O100 C82 1.244 . S
O101 Eu80 2.488 . S
O101 C89 1.249 . S
O102 Eu80 2.471 . S
O102 C89 1.244 . S
O103 Eu80 2.349 . S
O103 C82 1.265 . S
C104 C105 1.379 . S
C104 C108 1.373 . S
C104 C110 1.505 . S
C105 C104 1.379 . S
C105 C107 1.369 . S
C105 H116 0.930 . S
C106 C108 1.383 . S
C106 C109 1.382 . S
C106 H117 0.930 . S
C107 C105 1.369 . S
C107 C109 1.392 . S
C107 H118 0.926 . S
C108 C104 1.373 . S
C108 C106 1.383 . S
C108 H119 0.931 . S
C109 C106 1.382 . S
C109 C107 1.392 . S
C110 Eu81 2.828 . S
C110 O94 1.249 . S
C110 O95 1.244 . S
C110 C104 1.505 . S
C111 O98 1.258 . S
C111 O99 1.242 . S
H112 C84 0.930 . S
H113 C85 0.930 . S
H114 C86 0.930 . S
H115 C87 0.931 . S
H116 C105 0.930 . S
H117 C106 0.930 . S
H118 C107 0.926 . S
H119 C108 0.931 . S
Eu120 C129 2.828 . S
Eu120 O131 2.392 . S
Eu120 O133 2.418 . S
Eu120 O138 2.373 . S
Eu120 O141 2.488 . S
Eu120 O142 2.471 . S
Eu120 O143 2.349 . S
Eu121 O130 2.373 . S
Eu121 O134 2.488 . S
Eu121 O135 2.471 . S
Eu121 O136 2.349 . S
Eu121 O139 2.392 . S
Eu121 O140 2.418 . S
Eu121 C150 2.828 . S
C122 O140 1.244 . S
C122 O143 1.265 . S
C123 C124 1.379 . S
C123 C127 1.373 . S
C123 C129 1.505 . S
C124 C123 1.379 . S
C124 C126 1.369 . S
C124 H152 0.930 . S
C125 C127 1.383 . S
C125 C128 1.382 . S
C125 H153 0.930 . S
C126 C124 1.369 . S
C126 C128 1.392 . S
C126 H154 0.930 . S
C127 C123 1.373 . S
C127 C125 1.383 . S
C127 H155 0.931 . S
C128 C125 1.382 . S
C128 C126 1.392 . S
C129 Eu120 2.828 . S
C129 C123 1.505 . S
C129 O141 1.249 . S
C129 O142 1.244 . S
O130 Eu121 2.373 . S
O130 C132 1.258 . S
O131 Eu120 2.392 . S
O131 C132 1.242 . S
C132 O130 1.258 . S
C132 O131 1.242 . S
O133 Eu120 2.418 . S
O133 C137 1.244 . S
O134 Eu121 2.488 . S
O134 C150 1.249 . S
O135 Eu121 2.471 . S
O135 C150 1.244 . S
O136 Eu121 2.349 . S
O136 C137 1.265 . S
C137 O133 1.244 . S
C137 O136 1.265 . S
O138 Eu120 2.373 . S
O138 C151 1.258 . S
O139 Eu121 2.392 . S
O139 C151 1.242 . S
O140 Eu121 2.418 . S
O140 C122 1.244 . S
O141 Eu120 2.488 . S
O141 C129 1.249 . S
O142 Eu120 2.471 . S
O142 C129 1.244 . S
O143 Eu120 2.349 . S
O143 C122 1.265 . S
C144 C145 1.379 . S
C144 C148 1.373 . S
C144 C150 1.505 . S
C145 C144 1.379 . S
C145 C147 1.369 . S
C145 H156 0.930 . S
C146 C148 1.383 . S
C146 C149 1.382 . S
C146 H157 0.930 . S
C147 C145 1.369 . S
C147 C149 1.392 . S
C147 H158 0.930 . S
C148 C144 1.373 . S
C148 C146 1.383 . S
C148 H159 0.931 . S
C149 C146 1.382 . S
C149 C147 1.392 . S
C150 Eu121 2.828 . S
C150 O134 1.249 . S
C150 O135 1.244 . S
C150 C144 1.505 . S
C151 O138 1.258 . S
C151 O139 1.242 . S
H152 C124 0.930 . S
H153 C125 0.930 . S
H154 C126 0.930 . S
H155 C127 0.931 . S
H156 C145 0.930 . S
H157 C146 0.930 . S
H158 C147 0.930 . S
H159 C148 0.931 . S
Eu160 C169 2.828 . S
Eu160 O171 2.392 . S
Eu160 O173 2.418 . S
Eu160 O178 2.373 . S
Eu160 O181 2.488 . S
Eu160 O182 2.471 . S
Eu160 O183 2.349 . S
Eu161 O170 2.373 . S
Eu161 O174 2.488 . S
Eu161 O175 2.471 . S
Eu161 O176 2.349 . S
Eu161 O179 2.392 . S
Eu161 O180 2.418 . S
Eu161 C190 2.828 . S
C162 O180 1.244 . S
C162 O183 1.265 . S
C163 C164 1.379 . S
C163 C167 1.373 . S
C163 C169 1.505 . S
C164 C163 1.379 . S
C164 C166 1.369 . S
C164 H192 0.930 . S
C165 C167 1.383 . S
C165 C168 1.382 . S
C165 H193 0.930 . S
C166 C164 1.369 . S
C166 C168 1.392 . S
C166 H194 0.930 . S
C167 C163 1.373 . S
C167 C165 1.383 . S
C167 H195 0.931 . S
C168 C165 1.382 . S
C168 C166 1.392 . S
C169 Eu160 2.828 . S
C169 C163 1.505 . S
C169 O181 1.249 . S
C169 O182 1.244 . S
O170 Eu161 2.373 . S
O170 C172 1.258 . S
O171 Eu160 2.392 . S
O171 C172 1.242 . S
C172 O170 1.258 . S
C172 O171 1.242 . S
O173 Eu160 2.418 . S
O173 C177 1.244 . S
O174 Eu161 2.488 . S
O174 C190 1.249 . S
O175 Eu161 2.471 . S
O175 C190 1.244 . S
O176 Eu161 2.349 . S
O176 C177 1.265 . S
C177 O173 1.244 . S
C177 O176 1.265 . S
O178 Eu160 2.373 . S
O178 C191 1.258 . S
O179 Eu161 2.392 . S
O179 C191 1.242 . S
O180 Eu161 2.418 . S
O180 C162 1.244 . S
O181 Eu160 2.488 . S
O181 C169 1.249 . S
O182 Eu160 2.471 . S
O182 C169 1.244 . S
O183 Eu160 2.349 . S
O183 C162 1.265 . S
C184 C185 1.379 . S
C184 C188 1.373 . S
C184 C190 1.505 . S
C185 C184 1.379 . S
C185 C187 1.369 . S
C185 H196 0.930 . S
C186 C188 1.383 . S
C186 C189 1.382 . S
C186 H197 0.930 . S
C187 C185 1.369 . S
C187 C189 1.392 . S
C187 H198 0.926 . S
C188 C184 1.373 . S
C188 C186 1.383 . S
C188 H199 0.931 . S
C189 C186 1.382 . S
C189 C187 1.392 . S
C190 Eu161 2.828 . S
C190 O174 1.249 . S
C190 O175 1.244 . S
C190 C184 1.505 . S
C191 O178 1.258 . S
C191 O179 1.242 . S
H192 C164 0.930 . S
H193 C165 0.930 . S
H194 C166 0.930 . S
H195 C167 0.931 . S
H196 C185 0.930 . S
H197 C186 0.930 . S
H198 C187 0.926 . S
H199 C188 0.931 . S
Eu200 C209 2.828 . S
Eu200 O211 2.392 . S
Eu200 O213 2.418 . S
Eu200 O218 2.373 . S
Eu200 O221 2.488 . S
Eu200 O222 2.471 . S
Eu200 O223 2.349 . S
Eu201 O210 2.373 . S
Eu201 O214 2.488 . S
Eu201 O215 2.471 . S
Eu201 O216 2.349 . S
Eu201 O219 2.392 . S
Eu201 O220 2.418 . S
Eu201 C230 2.828 . S
C202 O220 1.244 . S
C202 O223 1.265 . S
C203 C204 1.379 . S
C203 C207 1.373 . S
C203 C209 1.505 . S
C204 C203 1.379 . S
C204 C206 1.369 . S
C204 H232 0.930 . S
C205 C207 1.383 . S
C205 C208 1.382 . S
C205 H233 0.930 . S
C206 C204 1.369 . S
C206 C208 1.392 . S
C206 H234 0.930 . S
C207 C203 1.373 . S
C207 C205 1.383 . S
C207 H235 0.931 . S
C208 C205 1.382 . S
C208 C206 1.392 . S
C209 Eu200 2.828 . S
C209 C203 1.505 . S
C209 O221 1.249 . S
C209 O222 1.244 . S
O210 Eu201 2.373 . S
O210 C212 1.258 . S
O211 Eu200 2.392 . S
O211 C212 1.242 . S
C212 O210 1.258 . S
C212 O211 1.242 . S
O213 Eu200 2.418 . S
O213 C217 1.244 . S
O214 Eu201 2.488 . S
O214 C230 1.249 . S
O215 Eu201 2.471 . S
O215 C230 1.244 . S
O216 Eu201 2.349 . S
O216 C217 1.265 . S
C217 O213 1.244 . S
C217 O216 1.265 . S
O218 Eu200 2.373 . S
O218 C231 1.258 . S
O219 Eu201 2.392 . S
O219 C231 1.242 . S
O220 Eu201 2.418 . S
O220 C202 1.244 . S
O221 Eu200 2.488 . S
O221 C209 1.249 . S
O222 Eu200 2.471 . S
O222 C209 1.244 . S
O223 Eu200 2.349 . S
O223 C202 1.265 . S
C224 C225 1.379 . S
C224 C228 1.373 . S
C224 C230 1.505 . S
C225 C224 1.379 . S
C225 C227 1.369 . S
C225 H236 0.930 . S
C226 C228 1.383 . S
C226 C229 1.382 . S
C226 H237 0.930 . S
C227 C225 1.369 . S
C227 C229 1.392 . S
C227 H238 0.924 . S
C228 C224 1.373 . S
C228 C226 1.383 . S
C228 H239 0.931 . S
C229 C226 1.382 . S
C229 C227 1.392 . S
C230 Eu201 2.828 . S
C230 O214 1.249 . S
C230 O215 1.244 . S
C230 C224 1.505 . S
C231 O218 1.258 . S
C231 O219 1.242 . S
H232 C204 0.930 . S
H233 C205 0.930 . S
H234 C206 0.930 . S
H235 C207 0.931 . S
H236 C225 0.930 . S
H237 C226 0.930 . S
H238 C227 0.924 . S
H239 C228 0.931 . S
Eu240 C249 2.828 . S
Eu240 O251 2.392 . S
Eu240 O253 2.418 . S
Eu240 O258 2.373 . S
Eu240 O261 2.488 . S
Eu240 O262 2.471 . S
Eu240 O263 2.349 . S
Eu241 O250 2.373 . S
Eu241 O254 2.488 . S
Eu241 O255 2.471 . S
Eu241 O256 2.349 . S
Eu241 O259 2.392 . S
Eu241 O260 2.418 . S
Eu241 C270 2.828 . S
C242 O260 1.244 . S
C242 O263 1.265 . S
C243 C244 1.379 . S
C243 C247 1.373 . S
C243 C249 1.505 . S
C244 C243 1.379 . S
C244 C246 1.369 . S
C244 H272 0.930 . S
C245 C247 1.383 . S
C245 C248 1.382 . S
C245 H273 0.930 . S
C246 C244 1.369 . S
C246 C248 1.392 . S
C246 H274 0.930 . S
C247 C243 1.373 . S
C247 C245 1.383 . S
C247 H275 0.931 . S
C248 C245 1.382 . S
C248 C246 1.392 . S
C249 Eu240 2.828 . S
C249 C243 1.505 . S
C249 O261 1.249 . S
C249 O262 1.244 . S
O250 Eu241 2.373 . S
O250 C252 1.258 . S
O251 Eu240 2.392 . S
O251 C252 1.242 . S
C252 O250 1.258 . S
C252 O251 1.242 . S
O253 Eu240 2.418 . S
O253 C257 1.244 . S
O254 Eu241 2.488 . S
O254 C270 1.249 . S
O255 Eu241 2.471 . S
O255 C270 1.244 . S
O256 Eu241 2.349 . S
O256 C257 1.265 . S
C257 O253 1.244 . S
C257 O256 1.265 . S
O258 Eu240 2.373 . S
O258 C271 1.258 . S
O259 Eu241 2.392 . S
O259 C271 1.242 . S
O260 Eu241 2.418 . S
O260 C242 1.244 . S
O261 Eu240 2.488 . S
O261 C249 1.249 . S
O262 Eu240 2.471 . S
O262 C249 1.244 . S
O263 Eu240 2.349 . S
O263 C242 1.265 . S
C264 C265 1.379 . S
C264 C268 1.373 . S
C264 C270 1.505 . S
C265 C264 1.379 . S
C265 C267 1.369 . S
C265 H276 0.930 . S
C266 C268 1.383 . S
C266 C269 1.382 . S
C266 H277 0.930 . S
C267 C265 1.369 . S
C267 C269 1.392 . S
C267 H278 0.930 . S
C268 C264 1.373 . S
C268 C266 1.383 . S
C268 H279 0.931 . S
C269 C266 1.382 . S
C269 C267 1.392 . S
C270 Eu241 2.828 . S
C270 O254 1.249 . S
C270 O255 1.244 . S
C270 C264 1.505 . S
C271 O258 1.258 . S
C271 O259 1.242 . S
H272 C244 0.930 . S
H273 C245 0.930 . S
H274 C246 0.930 . S
H275 C247 0.931 . S
H276 C265 0.930 . S
H277 C266 0.930 . S
H278 C267 0.930 . S
H279 C268 0.931 . S
Eu280 C289 2.828 . S
Eu280 O291 2.392 . S
Eu280 O293 2.418 . S
Eu280 O298 2.373 . S
Eu280 O301 2.488 . S
Eu280 O302 2.471 . S
Eu280 O303 2.349 . S
Eu281 O290 2.373 . S
Eu281 O294 2.488 . S
Eu281 O295 2.471 . S
Eu281 O296 2.349 . S
Eu281 O299 2.392 . S
Eu281 O300 2.418 . S
Eu281 C310 2.828 . S
C282 O300 1.244 . S
C282 O303 1.265 . S
C283 C284 1.379 . S
C283 C287 1.373 . S
C283 C289 1.505 . S
C284 C283 1.379 . S
C284 C286 1.369 . S
C284 H312 0.930 . S
C285 C287 1.383 . S
C285 C288 1.382 . S
C285 H313 0.930 . S
C286 C284 1.369 . S
C286 C288 1.392 . S
C286 H314 0.924 . S
C287 C283 1.373 . S
C287 C285 1.383 . S
C287 H315 0.931 . S
C288 C285 1.382 . S
C288 C286 1.392 . S
C289 Eu280 2.828 . S
C289 C283 1.505 . S
C289 O301 1.249 . S
C289 O302 1.244 . S
O290 Eu281 2.373 . S
O290 C292 1.258 . S
O291 Eu280 2.392 . S
O291 C292 1.242 . S
C292 O290 1.258 . S
C292 O291 1.242 . S
O293 Eu280 2.418 . S
O293 C297 1.244 . S
O294 Eu281 2.488 . S
O294 C310 1.249 . S
O295 Eu281 2.471 . S
O295 C310 1.244 . S
O296 Eu281 2.349 . S
O296 C297 1.265 . S
C297 O293 1.244 . S
C297 O296 1.265 . S
O298 Eu280 2.373 . S
O298 C311 1.258 . S
O299 Eu281 2.392 . S
O299 C311 1.242 . S
O300 Eu281 2.418 . S
O300 C282 1.244 . S
O301 Eu280 2.488 . S
O301 C289 1.249 . S
O302 Eu280 2.471 . S
O302 C289 1.244 . S
O303 Eu280 2.349 . S
O303 C282 1.265 . S
C304 C305 1.379 . S
C304 C308 1.373 . S
C304 C310 1.505 . S
C305 C304 1.379 . S
C305 C307 1.369 . S
C305 H316 0.930 . S
C306 C308 1.383 . S
C306 C309 1.382 . S
C306 H317 0.930 . S
C307 C305 1.369 . S
C307 C309 1.392 . S
C307 H318 0.930 . S
C308 C304 1.373 . S
C308 C306 1.383 . S
C308 H319 0.931 . S
C309 C306 1.382 . S
C309 C307 1.392 . S
C310 Eu281 2.828 . S
C310 O294 1.249 . S
C310 O295 1.244 . S
C310 C304 1.505 . S
C311 O298 1.258 . S
C311 O299 1.242 . S
H312 C284 0.930 . S
H313 C285 0.930 . S
H314 C286 0.924 . S
H315 C287 0.931 . S
H316 C305 0.930 . S
H317 C306 0.930 . S
H318 C307 0.930 . S
H319 C308 0.931 . S
Eu320 C329 2.828 . S
Eu320 O331 2.392 . S
Eu320 O333 2.418 . S
Eu320 O338 2.373 . S
Eu320 O341 2.488 . S
Eu320 O342 2.471 . S
Eu320 O343 2.349 . S
Eu321 O330 2.373 . S
Eu321 O334 2.488 . S
Eu321 O335 2.471 . S
Eu321 O336 2.349 . S
Eu321 O339 2.392 . S
Eu321 O340 2.418 . S
Eu321 C350 2.828 . S
C322 O340 1.244 . S
C322 O343 1.265 . S
C323 C324 1.379 . S
C323 C327 1.373 . S
C323 C329 1.505 . S
C324 C323 1.379 . S
C324 C326 1.369 . S
C324 H352 0.930 . S
C325 C327 1.383 . S
C325 C328 1.382 . S
C325 H353 0.930 . S
C326 C324 1.369 . S
C326 C328 1.392 . S
C326 H354 0.926 . S
C327 C323 1.373 . S
C327 C325 1.383 . S
C327 H355 0.931 . S
C328 C325 1.382 . S
C328 C326 1.392 . S
C329 Eu320 2.828 . S
C329 C323 1.505 . S
C329 O341 1.249 . S
C329 O342 1.244 . S
O330 Eu321 2.373 . S
O330 C332 1.258 . S
O331 Eu320 2.392 . S
O331 C332 1.242 . S
C332 O330 1.258 . S
C332 O331 1.242 . S
O333 Eu320 2.418 . S
O333 C337 1.244 . S
O334 Eu321 2.488 . S
O334 C350 1.249 . S
O335 Eu321 2.471 . S
O335 C350 1.244 . S
O336 Eu321 2.349 . S
O336 C337 1.265 . S
C337 O333 1.244 . S
C337 O336 1.265 . S
O338 Eu320 2.373 . S
O338 C351 1.258 . S
O339 Eu321 2.392 . S
O339 C351 1.242 . S
O340 Eu321 2.418 . S
O340 C322 1.244 . S
O341 Eu320 2.488 . S
O341 C329 1.249 . S
O342 Eu320 2.471 . S
O342 C329 1.244 . S
O343 Eu320 2.349 . S
O343 C322 1.265 . S
C344 C345 1.379 . S
C344 C348 1.373 . S
C344 C350 1.505 . S
C345 C344 1.379 . S
C345 C347 1.369 . S
C345 H356 0.930 . S
C346 C348 1.383 . S
C346 C349 1.382 . S
C346 H357 0.930 . S
C347 C345 1.369 . S
C347 C349 1.392 . S
C347 H358 0.930 . S
C348 C344 1.373 . S
C348 C346 1.383 . S
C348 H359 0.931 . S
C349 C346 1.382 . S
C349 C347 1.392 . S
C350 Eu321 2.828 . S
C350 O334 1.249 . S
C350 O335 1.244 . S
C350 C344 1.505 . S
C351 O338 1.258 . S
C351 O339 1.242 . S
H352 C324 0.930 . S
H353 C325 0.930 . S
H354 C326 0.926 . S
H355 C327 0.931 . S
H356 C345 0.930 . S
H357 C346 0.930 . S
H358 C347 0.930 . S
H359 C348 0.931 . S
Eu360 C369 2.828 . S
Eu360 O371 2.392 . S
Eu360 O373 2.418 . S
Eu360 O378 2.373 . S
Eu360 O381 2.488 . S
Eu360 O382 2.471 . S
Eu360 O383 2.349 . S
Eu361 O370 2.373 . S
Eu361 O374 2.488 . S
Eu361 O375 2.471 . S
Eu361 O376 2.349 . S
Eu361 O379 2.392 . S
Eu361 O380 2.418 . S
Eu361 C390 2.828 . S
C362 O380 1.244 . S
C362 O383 1.265 . S
C363 C364 1.379 . S
C363 C367 1.373 . S
C363 C369 1.505 . S
C364 C363 1.379 . S
C364 C366 1.369 . S
C364 H392 0.930 . S
C365 C367 1.383 . S
C365 C368 1.382 . S
C365 H393 0.930 . S
C366 C364 1.369 . S
C366 C368 1.392 . S
C366 H394 0.930 . S
C367 C363 1.373 . S
C367 C365 1.383 . S
C367 H395 0.931 . S
C368 C365 1.382 . S
C368 C366 1.392 . S
C369 Eu360 2.828 . S
C369 C363 1.505 . S
C369 O381 1.249 . S
C369 O382 1.244 . S
O370 Eu361 2.373 . S
O370 C372 1.258 . S
O371 Eu360 2.392 . S
O371 C372 1.242 . S
C372 O370 1.258 . S
C372 O371 1.242 . S
O373 Eu360 2.418 . S
O373 C377 1.244 . S
O374 Eu361 2.488 . S
O374 C390 1.249 . S
O375 Eu361 2.471 . S
O375 C390 1.244 . S
O376 Eu361 2.349 . S
O376 C377 1.265 . S
C377 O373 1.244 . S
C377 O376 1.265 . S
O378 Eu360 2.373 . S
O378 C391 1.258 . S
O379 Eu361 2.392 . S
O379 C391 1.242 . S
O380 Eu361 2.418 . S
O380 C362 1.244 . S
O381 Eu360 2.488 . S
O381 C369 1.249 . S
O382 Eu360 2.471 . S
O382 C369 1.244 . S
O383 Eu360 2.349 . S
O383 C362 1.265 . S
C384 C385 1.379 . S
C384 C388 1.373 . S
C384 C390 1.505 . S
C385 C384 1.379 . S
C385 C387 1.369 . S
C385 H396 0.930 . S
C386 C388 1.383 . S
C386 C389 1.382 . S
C386 H397 0.930 . S
C387 C385 1.369 . S
C387 C389 1.392 . S
C387 H398 0.930 . S
C388 C384 1.373 . S
C388 C386 1.383 . S
C388 H399 0.931 . S
C389 C386 1.382 . S
C389 C387 1.392 . S
C390 Eu361 2.828 . S
C390 O374 1.249 . S
C390 O375 1.244 . S
C390 C384 1.505 . S
C391 O378 1.258 . S
C391 O379 1.242 . S
H392 C364 0.930 . S
H393 C365 0.930 . S
H394 C366 0.930 . S
H395 C367 0.931 . S
H396 C385 0.930 . S
H397 C386 0.930 . S
H398 C387 0.930 . S
H399 C388 0.931 . S
Eu400 C409 2.828 . S
Eu400 O411 2.392 . S
Eu400 O413 2.418 . S
Eu400 O418 2.373 . S
Eu400 O421 2.488 . S
Eu400 O422 2.471 . S
Eu400 O423 2.349 . S
Eu401 O410 2.373 . S
Eu401 O414 2.488 . S
Eu401 O415 2.471 . S
Eu401 O416 2.349 . S
Eu401 O419 2.392 . S
Eu401 O420 2.418 . S
Eu401 C430 2.828 . S
C402 O420 1.244 . S
C402 O423 1.265 . S
C403 C404 1.379 . S
C403 C407 1.373 . S
C403 C409 1.505 . S
C404 C403 1.379 . S
C404 C406 1.369 . S
C404 H432 0.930 . S
C405 C407 1.383 . S
C405 C408 1.382 . S
C405 H433 0.930 . S
C406 C404 1.369 . S
C406 C408 1.392 . S
C406 H434 0.926 . S
C407 C403 1.373 . S
C407 C405 1.383 . S
C407 H435 0.931 . S
C408 C405 1.382 . S
C408 C406 1.392 . S
C409 Eu400 2.828 . S
C409 C403 1.505 . S
C409 O421 1.249 . S
C409 O422 1.244 . S
O410 Eu401 2.373 . S
O410 C412 1.258 . S
O411 Eu400 2.392 . S
O411 C412 1.242 . S
C412 O410 1.258 . S
C412 O411 1.242 . S
O413 Eu400 2.418 . S
O413 C417 1.244 . S
O414 Eu401 2.488 . S
O414 C430 1.249 . S
O415 Eu401 2.471 . S
O415 C430 1.244 . S
O416 Eu401 2.349 . S
O416 C417 1.265 . S
C417 O413 1.244 . S
C417 O416 1.265 . S
O418 Eu400 2.373 . S
O418 C431 1.258 . S
O419 Eu401 2.392 . S
O419 C431 1.242 . S
O420 Eu401 2.418 . S
O420 C402 1.244 . S
O421 Eu400 2.488 . S
O421 C409 1.249 . S
O422 Eu400 2.471 . S
O422 C409 1.244 . S
O423 Eu400 2.349 . S
O423 C402 1.265 . S
C424 C425 1.379 . S
C424 C428 1.373 . S
C424 C430 1.505 . S
C425 C424 1.379 . S
C425 C427 1.369 . S
C425 H436 0.930 . S
C426 C428 1.383 . S
C426 C429 1.382 . S
C426 H437 0.930 . S
C427 C425 1.369 . S
C427 C429 1.392 . S
C427 H438 0.930 . S
C428 C424 1.373 . S
C428 C426 1.383 . S
C428 H439 0.931 . S
C429 C426 1.382 . S
C429 C427 1.392 . S
C430 Eu401 2.828 . S
C430 O414 1.249 . S
C430 O415 1.244 . S
C430 C424 1.505 . S
C431 O418 1.258 . S
C431 O419 1.242 . S
H432 C404 0.930 . S
H433 C405 0.930 . S
H434 C406 0.926 . S
H435 C407 0.931 . S
H436 C425 0.930 . S
H437 C426 0.930 . S
H438 C427 0.930 . S
H439 C428 0.931 . S
Eu440 C449 2.828 . S
Eu440 O451 2.392 . S
Eu440 O453 2.418 . S
Eu440 O458 2.373 . S
Eu440 O461 2.488 . S
Eu440 O462 2.471 . S
Eu440 O463 2.349 . S
Eu441 O450 2.373 . S
Eu441 O454 2.488 . S
Eu441 O455 2.471 . S
Eu441 O456 2.349 . S
Eu441 O459 2.392 . S
Eu441 O460 2.418 . S
Eu441 C470 2.828 . S
C442 O460 1.244 . S
C442 O463 1.265 . S
C443 C444 1.379 . S
C443 C447 1.373 . S
C443 C449 1.505 . S
C444 C443 1.379 . S
C444 C446 1.369 . S
C444 H472 0.930 . S
C445 C447 1.383 . S
C445 C448 1.382 . S
C445 H473 0.930 . S
C446 C444 1.369 . S
C446 C448 1.392 . S
C446 H474 0.924 . S
C447 C443 1.373 . S
C447 C445 1.383 . S
C447 H475 0.931 . S
C448 C445 1.382 . S
C448 C446 1.392 . S
C449 Eu440 2.828 . S
C449 C443 1.505 . S
C449 O461 1.249 . S
C449 O462 1.244 . S
O450 Eu441 2.373 . S
O450 C452 1.258 . S
O451 Eu440 2.392 . S
O451 C452 1.242 . S
C452 O450 1.258 . S
C452 O451 1.242 . S
O453 Eu440 2.418 . S
O453 C457 1.244 . S
O454 Eu441 2.488 . S
O454 C470 1.249 . S
O455 Eu441 2.471 . S
O455 C470 1.244 . S
O456 Eu441 2.349 . S
O456 C457 1.265 . S
C457 O453 1.244 . S
C457 O456 1.265 . S
O458 Eu440 2.373 . S
O458 C471 1.258 . S
O459 Eu441 2.392 . S
O459 C471 1.242 . S
O460 Eu441 2.418 . S
O460 C442 1.244 . S
O461 Eu440 2.488 . S
O461 C449 1.249 . S
O462 Eu440 2.471 . S
O462 C449 1.244 . S
O463 Eu440 2.349 . S
O463 C442 1.265 . S
C464 C465 1.379 . S
C464 C468 1.373 . S
C464 C470 1.505 . S
C465 C464 1.379 . S
C465 C467 1.369 . S
C465 H476 0.930 . S
C466 C468 1.383 . S
C466 C469 1.382 . S
C466 H477 0.930 . S
C467 C465 1.369 . S
C467 C469 1.392 . S
C467 H478 0.930 . S
C468 C464 1.373 . S
C468 C466 1.383 . S
C468 H479 0.931 . S
C469 C466 1.382 . S
C469 C467 1.392 . S
C470 Eu441 2.828 . S
C470 O454 1.249 . S
C470 O455 1.244 . S
C470 C464 1.505 . S
C471 O458 1.258 . S
C471 O459 1.242 . S
H472 C444 0.930 . S
H473 C445 0.930 . S
H474 C446 0.924 . S
H475 C447 0.931 . S
H476 C465 0.930 . S
H477 C466 0.930 . S
H478 C467 0.930 . S
H479 C468 0.931 . S
Eu480 C489 2.828 . S
Eu480 O491 2.392 . S
Eu480 O493 2.418 . S
Eu480 O498 2.373 . S
Eu480 O501 2.488 . S
Eu480 O502 2.471 . S
Eu480 O503 2.349 . S
Eu481 O490 2.373 . S
Eu481 O494 2.488 . S
Eu481 O495 2.471 . S
Eu481 O496 2.349 . S
Eu481 O499 2.392 . S
Eu481 O500 2.418 . S
Eu481 C510 2.828 . S
C482 O500 1.244 . S
C482 O503 1.265 . S
C483 C484 1.379 . S
C483 C487 1.373 . S
C483 C489 1.505 . S
C484 C483 1.379 . S
C484 C486 1.369 . S
C484 H512 0.930 . S
C485 C487 1.383 . S
C485 C488 1.382 . S
C485 H513 0.930 . S
C486 C484 1.369 . S
C486 C488 1.392 . S
C486 H514 0.930 . S
C487 C483 1.373 . S
C487 C485 1.383 . S
C487 H515 0.931 . S
C488 C485 1.382 . S
C488 C486 1.392 . S
C489 Eu480 2.828 . S
C489 C483 1.505 . S
C489 O501 1.249 . S
C489 O502 1.244 . S
O490 Eu481 2.373 . S
O490 C492 1.258 . S
O491 Eu480 2.392 . S
O491 C492 1.242 . S
C492 O490 1.258 . S
C492 O491 1.242 . S
O493 Eu480 2.418 . S
O493 C497 1.244 . S
O494 Eu481 2.488 . S
O494 C510 1.249 . S
O495 Eu481 2.471 . S
O495 C510 1.244 . S
O496 Eu481 2.349 . S
O496 C497 1.265 . S
C497 O493 1.244 . S
C497 O496 1.265 . S
O498 Eu480 2.373 . S
O498 C511 1.258 . S
O499 Eu481 2.392 . S
O499 C511 1.242 . S
O500 Eu481 2.418 . S
O500 C482 1.244 . S
O501 Eu480 2.488 . S
O501 C489 1.249 . S
O502 Eu480 2.471 . S
O502 C489 1.244 . S
O503 Eu480 2.349 . S
O503 C482 1.265 . S
C504 C505 1.379 . S
C504 C508 1.373 . S
C504 C510 1.505 . S
C505 C504 1.379 . S
C505 C507 1.369 . S
C505 H516 0.930 . S
C506 C508 1.383 . S
C506 C509 1.382 . S
C506 H517 0.930 . S
C507 C505 1.369 . S
C507 C509 1.392 . S
C507 H518 0.930 . S
C508 C504 1.373 . S
C508 C506 1.383 . S
C508 H519 0.931 . S
C509 C506 1.382 . S
C509 C507 1.392 . S
C510 Eu481 2.828 . S
C510 O494 1.249 . S
C510 O495 1.244 . S
C510 C504 1.505 . S
C511 O498 1.258 . S
C511 O499 1.242 . S
H512 C484 0.930 . S
H513 C485 0.930 . S
H514 C486 0.930 . S
H515 C487 0.931 . S
H516 C505 0.930 . S
H517 C506 0.930 . S
H518 C507 0.930 . S
H519 C508 0.931 . S
Eu520 C529 2.828 . S
Eu520 O531 2.392 . S
Eu520 O533 2.418 . S
Eu520 O538 2.373 . S
Eu520 O541 2.488 . S
Eu520 O542 2.471 . S
Eu520 O543 2.349 . S
Eu521 O530 2.373 . S
Eu521 O534 2.488 . S
Eu521 O535 2.471 . S
Eu521 O536 2.349 . S
Eu521 O539 2.392 . S
Eu521 O540 2.418 . S
Eu521 C550 2.828 . S
C522 O540 1.244 . S
C522 O543 1.265 . S
C523 C524 1.379 . S
C523 C527 1.373 . S
C523 C529 1.505 . S
C524 C523 1.379 . S
C524 C526 1.369 . S
C524 H552 0.930 . S
C525 C527 1.383 . S
C525 C528 1.382 . S
C525 H553 0.930 . S
C526 C524 1.369 . S
C526 C528 1.392 . S
C526 H554 0.930 . S
C527 C523 1.373 . S
C527 C525 1.383 . S
C527 H555 0.931 . S
C528 C525 1.382 . S
C528 C526 1.392 . S
C529 Eu520 2.828 . S
C529 C523 1.505 . S
C529 O541 1.249 . S
C529 O542 1.244 . S
O530 Eu521 2.373 . S
O530 C532 1.258 . S
O531 Eu520 2.392 . S
O531 C532 1.242 . S
C532 O530 1.258 . S
C532 O531 1.242 . S
O533 Eu520 2.418 . S
O533 C537 1.244 . S
O534 Eu521 2.488 . S
O534 C550 1.249 . S
O535 Eu521 2.471 . S
O535 C550 1.244 . S
O536 Eu521 2.349 . S
O536 C537 1.265 . S
C537 O533 1.244 . S
C537 O536 1.265 . S
O538 Eu520 2.373 . S
O538 C551 1.258 . S
O539 Eu521 2.392 . S
O539 C551 1.242 . S
O540 Eu521 2.418 . S
O540 C522 1.244 . S
O541 Eu520 2.488 . S
O541 C529 1.249 . S
O542 Eu520 2.471 . S
O542 C529 1.244 . S
O543 Eu520 2.349 . S
O543 C522 1.265 . S
C544 C545 1.379 . S
C544 C548 1.373 . S
C544 C550 1.505 . S
C545 C544 1.379 . S
C545 C547 1.369 . S
C545 H556 0.930 . S
C546 C548 1.383 . S
C546 C549 1.382 . S
C546 H557 0.930 . S
C547 C545 1.369 . S
C547 C549 1.392 . S
C547 H558 0.930 . S
C548 C544 1.373 . S
C548 C546 1.383 . S
C548 H559 0.931 . S
C549 C546 1.382 . S
C549 C547 1.392 . S
C550 Eu521 2.828 . S
C550 O534 1.249 . S
C550 O535 1.244 . S
C550 C544 1.505 . S
C551 O538 1.258 . S
C551 O539 1.242 . S
H552 C524 0.930 . S
H553 C525 0.930 . S
H554 C526 0.930 . S
H555 C527 0.931 . S
H556 C545 0.930 . S
H557 C546 0.930 . S
H558 C547 0.930 . S
H559 C548 0.931 . S
Eu560 C569 2.828 . S
Eu560 O571 2.392 . S
Eu560 O573 2.418 . S
Eu560 O578 2.373 . S
Eu560 O581 2.488 . S
Eu560 O582 2.471 . S
Eu560 O583 2.349 . S
Eu561 O570 2.373 . S
Eu561 O574 2.488 . S
Eu561 O575 2.471 . S
Eu561 O576 2.349 . S
Eu561 O579 2.392 . S
Eu561 O580 2.418 . S
Eu561 C590 2.828 . S
C562 O580 1.244 . S
C562 O583 1.265 . S
C563 C564 1.379 . S
C563 C567 1.373 . S
C563 C569 1.505 . S
C564 C563 1.379 . S
C564 C566 1.369 . S
C564 H592 0.930 . S
C565 C567 1.383 . S
C565 C568 1.382 . S
C565 H593 0.930 . S
C566 C564 1.369 . S
C566 C568 1.392 . S
C566 H594 0.930 . S
C567 C563 1.373 . S
C567 C565 1.383 . S
C567 H595 0.931 . S
C568 C565 1.382 . S
C568 C566 1.392 . S
C569 Eu560 2.828 . S
C569 C563 1.505 . S
C569 O581 1.249 . S
C569 O582 1.244 . S
O570 Eu561 2.373 . S
O570 C572 1.258 . S
O571 Eu560 2.392 . S
O571 C572 1.242 . S
C572 O570 1.258 . S
C572 O571 1.242 . S
O573 Eu560 2.418 . S
O573 C577 1.244 . S
O574 Eu561 2.488 . S
O574 C590 1.249 . S
O575 Eu561 2.471 . S
O575 C590 1.244 . S
O576 Eu561 2.349 . S
O576 C577 1.265 . S
C577 O573 1.244 . S
C577 O576 1.265 . S
O578 Eu560 2.373 . S
O578 C591 1.258 . S
O579 Eu561 2.392 . S
O579 C591 1.242 . S
O580 Eu561 2.418 . S
O580 C562 1.244 . S
O581 Eu560 2.488 . S
O581 C569 1.249 . S
O582 Eu560 2.471 . S
O582 C569 1.244 . S
O583 Eu560 2.349 . S
O583 C562 1.265 . S
C584 C585 1.379 . S
C584 C588 1.373 . S
C584 C590 1.505 . S
C585 C584 1.379 . S
C585 C587 1.369 . S
C585 H596 0.930 . S
C586 C588 1.383 . S
C586 C589 1.382 . S
C586 H597 0.930 . S
C587 C585 1.369 . S
C587 C589 1.392 . S
C587 H598 0.930 . S
C588 C584 1.373 . S
C588 C586 1.383 . S
C588 H599 0.931 . S
C589 C586 1.382 . S
C589 C587 1.392 . S
C590 Eu561 2.828 . S
C590 O574 1.249 . S
C590 O575 1.244 . S
C590 C584 1.505 . S
C591 O578 1.258 . S
C591 O579 1.242 . S
H592 C564 0.930 . S
H593 C565 0.930 . S
H594 C566 0.930 . S
H595 C567 0.931 . S
H596 C585 0.930 . S
H597 C586 0.930 . S
H598 C587 0.930 . S
H599 C588 0.931 . S
Eu600 C609 2.828 . S
Eu600 O611 2.392 . S
Eu600 O613 2.418 . S
Eu600 O618 2.373 . S
Eu600 O621 2.488 . S
Eu600 O622 2.471 . S
Eu600 O623 2.349 . S
Eu601 O610 2.373 . S
Eu601 O614 2.488 . S
Eu601 O615 2.471 . S
Eu601 O616 2.349 . S
Eu601 O619 2.392 . S
Eu601 O620 2.418 . S
Eu601 C630 2.828 . S
C602 O620 1.244 . S
C602 O623 1.265 . S
C603 C604 1.379 . S
C603 C607 1.373 . S
C603 C609 1.505 . S
C604 C603 1.379 . S
C604 C606 1.369 . S
C604 H632 0.930 . S
C605 C607 1.383 . S
C605 C608 1.382 . S
C605 H633 0.930 . S
C606 C604 1.369 . S
C606 C608 1.392 . S
C606 H634 0.930 . S
C607 C603 1.373 . S
C607 C605 1.383 . S
C607 H635 0.931 . S
C608 C605 1.382 . S
C608 C606 1.392 . S
C609 Eu600 2.828 . S
C609 C603 1.505 . S
C609 O621 1.249 . S
C609 O622 1.244 . S
O610 Eu601 2.373 . S
O610 C612 1.258 . S
O611 Eu600 2.392 . S
O611 C612 1.242 . S
C612 O610 1.258 . S
C612 O611 1.242 . S
O613 Eu600 2.418 . S
O613 C617 1.244 . S
O614 Eu601 2.488 . S
O614 C630 1.249 . S
O615 Eu601 2.471 . S
O615 C630 1.244 . S
O616 Eu601 2.349 . S
O616 C617 1.265 . S
C617 O613 1.244 . S
C617 O616 1.265 . S
O618 Eu600 2.373 . S
O618 C631 1.258 . S
O619 Eu601 2.392 . S
O619 C631 1.242 . S
O620 Eu601 2.418 . S
O620 C602 1.244 . S
O621 Eu600 2.488 . S
O621 C609 1.249 . S
O622 Eu600 2.471 . S
O622 C609 1.244 . S
O623 Eu600 2.349 . S
O623 C602 1.265 . S
C624 C625 1.379 . S
C624 C628 1.373 . S
C624 C630 1.505 . S
C625 C624 1.379 . S
C625 C627 1.369 . S
C625 H636 0.930 . S
C626 C628 1.383 . S
C626 C629 1.382 . S
C626 H637 0.930 . S
C627 C625 1.369 . S
C627 C629 1.392 . S
C627 H638 0.930 . S
C628 C624 1.373 . S
C628 C626 1.383 . S
C628 H639 0.931 . S
C629 C626 1.382 . S
C629 C627 1.392 . S
C630 Eu601 2.828 . S
C630 O614 1.249 . S
C630 O615 1.244 . S
C630 C624 1.505 . S
C631 O618 1.258 . S
C631 O619 1.242 . S
H632 C604 0.930 . S
H633 C605 0.930 . S
H634 C606 0.930 . S
H635 C607 0.931 . S
H636 C625 0.930 . S
H637 C626 0.930 . S
H638 C627 0.930 . S
H639 C628 0.931 . S
Eu640 C649 2.828 . S
Eu640 O651 2.392 . S
Eu640 O653 2.418 . S
Eu640 O658 2.373 . S
Eu640 O661 2.488 . S
Eu640 O662 2.471 . S
Eu640 O663 2.349 . S
Eu641 O650 2.373 . S
Eu641 O654 2.488 . S
Eu641 O655 2.471 . S
Eu641 O656 2.349 . S
Eu641 O659 2.392 . S
Eu641 O660 2.418 . S
Eu641 C670 2.828 . S
C642 O660 1.244 . S
C642 O663 1.265 . S
C643 C644 1.379 . S
C643 C647 1.373 . S
C643 C649 1.505 . S
C644 C643 1.379 . S
C644 C646 1.369 . S
C644 H672 0.930 . S
C645 C647 1.383 . S
C645 C648 1.382 . S
C645 H673 0.930 . S
C646 C644 1.369 . S
C646 C648 1.392 . S
C646 H674 0.930 . S
C647 C643 1.373 . S
C647 C645 1.383 . S
C647 H675 0.931 . S
C648 C645 1.382 . S
C648 C646 1.392 . S
C649 Eu640 2.828 . S
C649 C643 1.505 . S
C649 O661 1.249 . S
C649 O662 1.244 . S
O650 Eu641 2.373 . S
O650 C652 1.258 . S
O651 Eu640 2.392 . S
O651 C652 1.242 . S
C652 O650 1.258 . S
C652 O651 1.242 . S
O653 Eu640 2.418 . S
O653 C657 1.244 . S
O654 Eu641 2.488 . S
O654 C670 1.249 . S
O655 Eu641 2.471 . S
O655 C670 1.244 . S
O656 Eu641 2.349 . S
O656 C657 1.265 . S
C657 O653 1.244 . S
C657 O656 1.265 . S
O658 Eu640 2.373 . S
O658 C671 1.258 . S
O659 Eu641 2.392 . S
O659 C671 1.242 . S
O660 Eu641 2.418 . S
O660 C642 1.244 . S
O661 Eu640 2.488 . S
O661 C649 1.249 . S
O662 Eu640 2.471 . S
O662 C649 1.244 . S
O663 Eu640 2.349 . S
O663 C642 1.265 . S
C664 C665 1.379 . S
C664 C668 1.373 . S
C664 C670 1.505 . S
C665 C664 1.379 . S
C665 C667 1.369 . S
C665 H676 0.930 . S
C666 C668 1.383 . S
C666 C669 1.382 . S
C666 H677 0.930 . S
C667 C665 1.369 . S
C667 C669 1.392 . S
C667 H678 0.930 . S
C668 C664 1.373 . S
C668 C666 1.383 . S
C668 H679 0.931 . S
C669 C666 1.382 . S
C669 C667 1.392 . S
C670 Eu641 2.828 . S
C670 O654 1.249 . S
C670 O655 1.244 . S
C670 C664 1.505 . S
C671 O658 1.258 . S
C671 O659 1.242 . S
H672 C644 0.930 . S
H673 C645 0.930 . S
H674 C646 0.930 . S
H675 C647 0.931 . S
H676 C665 0.930 . S
H677 C666 0.930 . S
H678 C667 0.930 . S
H679 C668 0.931 . S
Eu680 C689 2.828 . S
Eu680 O691 2.392 . S
Eu680 O693 2.418 . S
Eu680 O698 2.373 . S
Eu680 O701 2.488 . S
Eu680 O702 2.471 . S
Eu680 O703 2.349 . S
Eu681 O690 2.373 . S
Eu681 O694 2.488 . S
Eu681 O695 2.471 . S
Eu681 O696 2.349 . S
Eu681 O699 2.392 . S
Eu681 O700 2.418 . S
Eu681 C710 2.828 . S
C682 O700 1.244 . S
C682 O703 1.265 . S
C683 C684 1.379 . S
C683 C687 1.373 . S
C683 C689 1.505 . S
C684 C683 1.379 . S
C684 C686 1.369 . S
C684 H712 0.930 . S
C685 C687 1.383 . S
C685 C688 1.382 . S
C685 H713 0.930 . S
C686 C684 1.369 . S
C686 C688 1.392 . S
C686 H714 0.930 . S
C687 C683 1.373 . S
C687 C685 1.383 . S
C687 H715 0.931 . S
C688 C685 1.382 . S
C688 C686 1.392 . S
C689 Eu680 2.828 . S
C689 C683 1.505 . S
C689 O701 1.249 . S
C689 O702 1.244 . S
O690 Eu681 2.373 . S
O690 C692 1.258 . S
O691 Eu680 2.392 . S
O691 C692 1.242 . S
C692 O690 1.258 . S
C692 O691 1.242 . S
O693 Eu680 2.418 . S
O693 C697 1.244 . S
O694 Eu681 2.488 . S
O694 C710 1.249 . S
O695 Eu681 2.471 . S
O695 C710 1.244 . S
O696 Eu681 2.349 . S
O696 C697 1.265 . S
C697 O693 1.244 . S
C697 O696 1.265 . S
O698 Eu680 2.373 . S
O698 C711 1.258 . S
O699 Eu681 2.392 . S
O699 C711 1.242 . S
O700 Eu681 2.418 . S
O700 C682 1.244 . S
O701 Eu680 2.488 . S
O701 C689 1.249 . S
O702 Eu680 2.471 . S
O702 C689 1.244 . S
O703 Eu680 2.349 . S
O703 C682 1.265 . S
C704 C705 1.379 . S
C704 C708 1.373 . S
C704 C710 1.505 . S
C705 C704 1.379 . S
C705 C707 1.369 . S
C705 H716 0.930 . S
C706 C708 1.383 . S
C706 C709 1.382 . S
C706 H717 0.930 . S
C707 C705 1.369 . S
C707 C709 1.392 . S
C707 H718 0.930 . S
C708 C704 1.373 . S
C708 C706 1.383 . S
C708 H719 0.931 . S
C709 C706 1.382 . S
C709 C707 1.392 . S
C710 Eu681 2.828 . S
C710 O694 1.249 . S
C710 O695 1.244 . S
C710 C704 1.505 . S
C711 O698 1.258 . S
C711 O699 1.242 . S
H712 C684 0.930 . S
H713 C685 0.930 . S
H714 C686 0.930 . S
H715 C687 0.931 . S
H716 C705 0.930 . S
H717 C706 0.930 . S
H718 C707 0.930 . S
H719 C708 0.931 . S
Eu720 C729 2.828 . S
Eu720 O731 2.392 . S
Eu720 O733 2.418 . S
Eu720 O738 2.373 . S
Eu720 O741 2.488 . S
Eu720 O742 2.471 . S
Eu720 O743 2.349 . S
Eu721 O730 2.373 . S
Eu721 O734 2.488 . S
Eu721 O735 2.471 . S
Eu721 O736 2.349 . S
Eu721 O739 2.392 . S
Eu721 O740 2.418 . S
Eu721 C750 2.828 . S
C722 O740 1.244 . S
C722 O743 1.265 . S
C723 C724 1.379 . S
C723 C727 1.373 . S
C723 C729 1.505 . S
C724 C723 1.379 . S
C724 C726 1.369 . S
C724 H752 0.930 . S
C725 C727 1.383 . S
C725 C728 1.382 . S
C725 H753 0.930 . S
C726 C724 1.369 . S
C726 C728 1.392 . S
C726 H754 0.930 . S
C727 C723 1.373 . S
C727 C725 1.383 . S
C727 H755 0.931 . S
C728 C725 1.382 . S
C728 C726 1.392 . S
C729 Eu720 2.828 . S
C729 C723 1.505 . S
C729 O741 1.249 . S
C729 O742 1.244 . S
O730 Eu721 2.373 . S
O730 C732 1.258 . S
O731 Eu720 2.392 . S
O731 C732 1.242 . S
C732 O730 1.258 . S
C732 O731 1.242 . S
O733 Eu720 2.418 . S
O733 C737 1.244 . S
O734 Eu721 2.488 . S
O734 C750 1.249 . S
O735 Eu721 2.471 . S
O735 C750 1.244 . S
O736 Eu721 2.349 . S
O736 C737 1.265 . S
C737 O733 1.244 . S
C737 O736 1.265 . S
O738 Eu720 2.373 . S
O738 C751 1.258 . S
O739 Eu721 2.392 . S
O739 C751 1.242 . S
O740 Eu721 2.418 . S
O740 C722 1.244 . S
O741 Eu720 2.488 . S
O741 C729 1.249 . S
O742 Eu720 2.471 . S
O742 C729 1.244 . S
O743 Eu720 2.349 . S
O743 C722 1.265 . S
C744 C745 1.379 . S
C744 C748 1.373 . S
C744 C750 1.505 . S
C745 C744 1.379 . S
C745 C747 1.369 . S
C745 H756 0.930 . S
C746 C748 1.383 . S
C746 C749 1.382 . S
C746 H757 0.930 . S
C747 C745 1.369 . S
C747 C749 1.392 . S
C747 H758 0.930 . S
C748 C744 1.373 . S
C748 C746 1.383 . S
C748 H759 0.931 . S
C749 C746 1.382 . S
C749 C747 1.392 . S
C750 Eu721 2.828 . S
C750 O734 1.249 . S
C750 O735 1.244 . S
C750 C744 1.505 . S
C751 O738 1.258 . S
C751 O739 1.242 . S
H752 C724 0.930 . S
H753 C725 0.930 . S
H754 C726 0.930 . S
H755 C727 0.931 . S
H756 C745 0.930 . S
H757 C746 0.930 . S
H758 C747 0.930 . S
H759 C748 0.931 . S
Eu760 C769 2.828 . S
Eu760 O771 2.392 . S
Eu760 O773 2.418 . S
Eu760 O778 2.373 . S
Eu760 O781 2.488 . S
Eu760 O782 2.471 . S
Eu760 O783 2.349 . S
Eu761 O770 2.373 . S
Eu761 O774 2.488 . S
Eu761 O775 2.471 . S
Eu761 O776 2.349 . S
Eu761 O779 2.392 . S
Eu761 O780 2.418 . S
Eu761 C790 2.828 . S
C762 O780 1.244 . S
C762 O783 1.265 . S
C763 C764 1.379 . S
C763 C767 1.373 . S
C763 C769 1.505 . S
C764 C763 1.379 . S
C764 C766 1.369 . S
C764 H792 0.930 . S
C765 C767 1.383 . S
C765 C768 1.382 . S
C765 H793 0.930 . S
C766 C764 1.369 . S
C766 C768 1.392 . S
C766 H794 0.930 . S
C767 C763 1.373 . S
C767 C765 1.383 . S
C767 H795 0.931 . S
C768 C765 1.382 . S
C768 C766 1.392 . S
C769 Eu760 2.828 . S
C769 C763 1.505 . S
C769 O781 1.249 . S
C769 O782 1.244 . S
O770 Eu761 2.373 . S
O770 C772 1.258 . S
O771 Eu760 2.392 . S
O771 C772 1.242 . S
C772 O770 1.258 . S
C772 O771 1.242 . S
O773 Eu760 2.418 . S
O773 C777 1.244 . S
O774 Eu761 2.488 . S
O774 C790 1.249 . S
O775 Eu761 2.471 . S
O775 C790 1.244 . S
O776 Eu761 2.349 . S
O776 C777 1.265 . S
C777 O773 1.244 . S
C777 O776 1.265 . S
O778 Eu760 2.373 . S
O778 C791 1.258 . S
O779 Eu761 2.392 . S
O779 C791 1.242 . S
O780 Eu761 2.418 . S
O780 C762 1.244 . S
O781 Eu760 2.488 . S
O781 C769 1.249 . S
O782 Eu760 2.471 . S
O782 C769 1.244 . S
O783 Eu760 2.349 . S
O783 C762 1.265 . S
C784 C785 1.379 . S
C784 C788 1.373 . S
C784 C790 1.505 . S
C785 C784 1.379 . S
C785 C787 1.369 . S
C785 H796 0.930 . S
C786 C788 1.383 . S
C786 C789 1.382 . S
C786 H797 0.930 . S
C787 C785 1.369 . S
C787 C789 1.392 . S
C787 H798 0.930 . S
C788 C784 1.373 . S
C788 C786 1.383 . S
C788 H799 0.931 . S
C789 C786 1.382 . S
C789 C787 1.392 . S
C790 Eu761 2.828 . S
C790 O774 1.249 . S
C790 O775 1.244 . S
C790 C784 1.505 . S
C791 O778 1.258 . S
C791 O779 1.242 . S
H792 C764 0.930 . S
H793 C765 0.930 . S
H794 C766 0.930 . S
H795 C767 0.931 . S
H796 C785 0.930 . S
H797 C786 0.930 . S
H798 C787 0.930 . S
H799 C788 0.931 . S
Eu800 C809 2.828 . S
Eu800 O811 2.392 . S
Eu800 O813 2.418 . S
Eu800 O818 2.373 . S
Eu800 O821 2.488 . S
Eu800 O822 2.471 . S
Eu800 O823 2.349 . S
Eu801 O810 2.373 . S
Eu801 O814 2.488 . S
Eu801 O815 2.471 . S
Eu801 O816 2.349 . S
Eu801 O819 2.392 . S
Eu801 O820 2.418 . S
Eu801 C830 2.828 . S
C802 O820 1.244 . S
C802 O823 1.265 . S
C803 C804 1.379 . S
C803 C807 1.373 . S
C803 C809 1.505 . S
C804 C803 1.379 . S
C804 C806 1.369 . S
C804 H832 0.930 . S
C805 C807 1.383 . S
C805 C808 1.382 . S
C805 H833 0.930 . S
C806 C804 1.369 . S
C806 C808 1.392 . S
C806 H834 0.930 . S
C807 C803 1.373 . S
C807 C805 1.383 . S
C807 H835 0.931 . S
C808 C805 1.382 . S
C808 C806 1.392 . S
C809 Eu800 2.828 . S
C809 C803 1.505 . S
C809 O821 1.249 . S
C809 O822 1.244 . S
O810 Eu801 2.373 . S
O810 C812 1.258 . S
O811 Eu800 2.392 . S
O811 C812 1.242 . S
C812 O810 1.258 . S
C812 O811 1.242 . S
O813 Eu800 2.418 . S
O813 C817 1.244 . S
O814 Eu801 2.488 . S
O814 C830 1.249 . S
O815 Eu801 2.471 . S
O815 C830 1.244 . S
O816 Eu801 2.349 . S
O816 C817 1.265 . S
C817 O813 1.244 . S
C817 O816 1.265 . S
O818 Eu800 2.373 . S
O818 C831 1.258 . S
O819 Eu801 2.392 . S
O819 C831 1.242 . S
O820 Eu801 2.418 . S
O820 C802 1.244 . S
O821 Eu800 2.488 . S
O821 C809 1.249 . S
O822 Eu800 2.471 . S
O822 C809 1.244 . S
O823 Eu800 2.349 . S
O823 C802 1.265 . S
C824 C825 1.379 . S
C824 C828 1.373 . S
C824 C830 1.505 . S
C825 C824 1.379 . S
C825 C827 1.369 . S
C825 H836 0.930 . S
C826 C828 1.383 . S
C826 C829 1.382 . S
C826 H837 0.930 . S
C827 C825 1.369 . S
C827 C829 1.392 . S
C827 H838 0.930 . S
C828 C824 1.373 . S
C828 C826 1.383 . S
C828 H839 0.931 . S
C829 C826 1.382 . S
C829 C827 1.392 . S
C830 Eu801 2.828 . S
C830 O814 1.249 . S
C830 O815 1.244 . S
C830 C824 1.505 . S
C831 O818 1.258 . S
C831 O819 1.242 . S
H832 C804 0.930 . S
H833 C805 0.930 . S
H834 C806 0.930 . S
H835 C807 0.931 . S
H836 C825 0.930 . S
H837 C826 0.930 . S
H838 C827 0.930 . S
H839 C828 0.931 . S
Eu840 C849 2.828 . S
Eu840 O851 2.392 . S
Eu840 O853 2.418 . S
Eu840 O858 2.373 . S
Eu840 O861 2.488 . S
Eu840 O862 2.471 . S
Eu840 O863 2.349 . S
Eu841 O850 2.373 . S
Eu841 O854 2.488 . S
Eu841 O855 2.471 . S
Eu841 O856 2.349 . S
Eu841 O859 2.392 . S
Eu841 O860 2.418 . S
Eu841 C870 2.828 . S
C842 O860 1.244 . S
C842 O863 1.265 . S
C843 C844 1.379 . S
C843 C847 1.373 . S
C843 C849 1.505 . S
C844 C843 1.379 . S
C844 C846 1.369 . S
C844 H872 0.930 . S
C845 C847 1.383 . S
C845 C848 1.382 . S
C845 H873 0.930 . S
C846 C844 1.369 . S
C846 C848 1.392 . S
C846 H874 0.930 . S
C847 C843 1.373 . S
C847 C845 1.383 . S
C847 H875 0.931 . S
C848 C845 1.382 . S
C848 C846 1.392 . S
C849 Eu840 2.828 . S
C849 C843 1.505 . S
C849 O861 1.249 . S
C849 O862 1.244 . S
O850 Eu841 2.373 . S
O850 C852 1.258 . S
O851 Eu840 2.392 . S
O851 C852 1.242 . S
C852 O850 1.258 . S
C852 O851 1.242 . S
O853 Eu840 2.418 . S
O853 C857 1.244 . S
O854 Eu841 2.488 . S
O854 C870 1.249 . S
O855 Eu841 2.471 . S
O855 C870 1.244 . S
O856 Eu841 2.349 . S
O856 C857 1.265 . S
C857 O853 1.244 . S
C857 O856 1.265 . S
O858 Eu840 2.373 . S
O858 C871 1.258 . S
O859 Eu841 2.392 . S
O859 C871 1.242 . S
O860 Eu841 2.418 . S
O860 C842 1.244 . S
O861 Eu840 2.488 . S
O861 C849 1.249 . S
O862 Eu840 2.471 . S
O862 C849 1.244 . S
O863 Eu840 2.349 . S
O863 C842 1.265 . S
C864 C865 1.379 . S
C864 C868 1.373 . S
C864 C870 1.505 . S
C865 C864 1.379 . S
C865 C867 1.369 . S
C865 H876 0.930 . S
C866 C868 1.383 . S
C866 C869 1.382 . S
C866 H877 0.930 . S
C867 C865 1.369 . S
C867 C869 1.392 . S
C867 H878 0.930 . S
C868 C864 1.373 . S
C868 C866 1.383 . S
C868 H879 0.931 . S
C869 C866 1.382 . S
C869 C867 1.392 . S
C870 Eu841 2.828 . S
C870 O854 1.249 . S
C870 O855 1.244 . S
C870 C864 1.505 . S
C871 O858 1.258 . S
C871 O859 1.242 . S
H872 C844 0.930 . S
H873 C845 0.930 . S
H874 C846 0.930 . S
H875 C847 0.931 . S
H876 C865 0.930 . S
H877 C866 0.930 . S
H878 C867 0.930 . S
H879 C868 0.931 . S
Eu880 C889 2.828 . S
Eu880 O891 2.392 . S
Eu880 O893 2.418 . S
Eu880 O898 2.373 . S
Eu880 O901 2.488 . S
Eu880 O902 2.471 . S
Eu880 O903 2.349 . S
Eu881 O890 2.373 . S
Eu881 O894 2.488 . S
Eu881 O895 2.471 . S
Eu881 O896 2.349 . S
Eu881 O899 2.392 . S
Eu881 O900 2.418 . S
Eu881 C910 2.828 . S
C882 O900 1.244 . S
C882 O903 1.265 . S
C883 C884 1.379 . S
C883 C887 1.373 . S
C883 C889 1.505 . S
C884 C883 1.379 . S
C884 C886 1.369 . S
C884 H912 0.930 . S
C885 C887 1.383 . S
C885 C888 1.382 . S
C885 H913 0.930 . S
C886 C884 1.369 . S
C886 C888 1.392 . S
C886 H914 0.930 . S
C887 C883 1.373 . S
C887 C885 1.383 . S
C887 H915 0.931 . S
C888 C885 1.382 . S
C888 C886 1.392 . S
C889 Eu880 2.828 . S
C889 C883 1.505 . S
C889 O901 1.249 . S
C889 O902 1.244 . S
O890 Eu881 2.373 . S
O890 C892 1.258 . S
O891 Eu880 2.392 . S
O891 C892 1.242 . S
C892 O890 1.258 . S
C892 O891 1.242 . S
O893 Eu880 2.418 . S
O893 C897 1.244 . S
O894 Eu881 2.488 . S
O894 C910 1.249 . S
O895 Eu881 2.471 . S
O895 C910 1.244 . S
O896 Eu881 2.349 . S
O896 C897 1.265 . S
C897 O893 1.244 . S
C897 O896 1.265 . S
O898 Eu880 2.373 . S
O898 C911 1.258 . S
O899 Eu881 2.392 . S
O899 C911 1.242 . S
O900 Eu881 2.418 . S
O900 C882 1.244 . S
O901 Eu880 2.488 . S
O901 C889 1.249 . S
O902 Eu880 2.471 . S
O902 C889 1.244 . S
O903 Eu880 2.349 . S
O903 C882 1.265 . S
C904 C905 1.379 . S
C904 C908 1.373 . S
C904 C910 1.505 . S
C905 C904 1.379 . S
C905 C907 1.369 . S
C905 H916 0.930 . S
C906 C908 1.383 . S
C906 C909 1.382 . S
C906 H917 0.930 . S
C907 C905 1.369 . S
C907 C909 1.392 . S
C907 H918 0.930 . S
C908 C904 1.373 . S
C908 C906 1.383 . S
C908 H919 0.931 . S
C909 C906 1.382 . S
C909 C907 1.392 . S
C910 Eu881 2.828 . S
C910 O894 1.249 . S
C910 O895 1.244 . S
C910 C904 1.505 . S
C911 O898 1.258 . S
C911 O899 1.242 . S
H912 C884 0.930 . S
H913 C885 0.930 . S
H914 C886 0.930 . S
H915 C887 0.931 . S
H916 C905 0.930 . S
H917 C906 0.930 . S
H918 C907 0.930 . S
H919 C908 0.931 . S
Eu920 C929 2.828 . S
Eu920 O931 2.392 . S
Eu920 O933 2.418 . S
Eu920 O938 2.373 . S
Eu920 O941 2.488 . S
Eu920 O942 2.471 . S
Eu920 O943 2.349 . S
Eu921 O930 2.373 . S
Eu921 O934 2.488 . S
Eu921 O935 2.471 . S
Eu921 O936 2.349 . S
Eu921 O939 2.392 . S
Eu921 O940 2.418 . S
Eu921 C950 2.828 . S
C922 O940 1.244 . S
C922 O943 1.265 . S
C923 C924 1.379 . S
C923 C927 1.373 . S
C923 C929 1.505 . S
C924 C923 1.379 . S
C924 C926 1.369 . S
C924 H952 0.930 . S
C925 C927 1.383 . S
C925 C928 1.382 . S
C925 H953 0.930 . S
C926 C924 1.369 . S
C926 C928 1.392 . S
C926 H954 0.930 . S
C927 C923 1.373 . S
C927 C925 1.383 . S
C927 H955 0.931 . S
C928 C925 1.382 . S
C928 C926 1.392 . S
C929 Eu920 2.828 . S
C929 C923 1.505 . S
C929 O941 1.249 . S
C929 O942 1.244 . S
O930 Eu921 2.373 . S
O930 C932 1.258 . S
O931 Eu920 2.392 . S
O931 C932 1.242 . S
C932 O930 1.258 . S
C932 O931 1.242 . S
O933 Eu920 2.418 . S
O933 C937 1.244 . S
O934 Eu921 2.488 . S
O934 C950 1.249 . S
O935 Eu921 2.471 . S
O935 C950 1.244 . S
O936 Eu921 2.349 . S
O936 C937 1.265 . S
C937 O933 1.244 . S
C937 O936 1.265 . S
O938 Eu920 2.373 . S
O938 C951 1.258 . S
O939 Eu921 2.392 . S
O939 C951 1.242 . S
O940 Eu921 2.418 . S
O940 C922 1.244 . S
O941 Eu920 2.488 . S
O941 C929 1.249 . S
O942 Eu920 2.471 . S
O942 C929 1.244 . S
O943 Eu920 2.349 . S
O943 C922 1.265 . S
C944 C945 1.379 . S
C944 C948 1.373 . S
C944 C950 1.505 . S
C945 C944 1.379 . S
C945 C947 1.369 . S
C945 H956 0.930 . S
C946 C948 1.383 . S
C946 C949 1.382 . S
C946 H957 0.930 . S
C947 C945 1.369 . S
C947 C949 1.392 . S
C947 H958 0.930 . S
C948 C944 1.373 . S
C948 C946 1.383 . S
C948 H959 0.931 . S
C949 C946 1.382 . S
C949 C947 1.392 . S
C950 Eu921 2.828 . S
C950 O934 1.249 . S
C950 O935 1.244 . S
C950 C944 1.505 . S
C951 O938 1.258 . S
C951 O939 1.242 . S
H952 C924 0.930 . S
H953 C925 0.930 . S
H954 C926 0.930 . S
H955 C927 0.931 . S
H956 C945 0.930 . S
H957 C946 0.930 . S
H958 C947 0.930 . S
H959 C948 0.931 . S
Eu960 C969 2.828 . S
Eu960 O971 2.392 . S
Eu960 O973 2.418 . S
Eu960 O978 2.373 . S
Eu960 O981 2.488 . S
Eu960 O982 2.471 . S
Eu960 O983 2.349 . S
Eu961 O970 2.373 . S
Eu961 O974 2.488 . S
Eu961 O975 2.471 . S
Eu961 O976 2.349 . S
Eu961 O979 2.392 . S
Eu961 O980 2.418 . S
Eu961 C990 2.828 . S
C962 O980 1.244 . S
C962 O983 1.265 . S
C963 C964 1.379 . S
C963 C967 1.373 . S
C963 C969 1.505 . S
C964 C963 1.379 . S
C964 C966 1.369 . S
C964 H992 0.930 . S
C965 C967 1.383 . S
C965 C968 1.382 . S
C965 H993 0.930 . S
C966 C964 1.369 . S
C966 C968 1.392 . S
C966 H994 0.930 . S
C967 C963 1.373 . S
C967 C965 1.383 . S
C967 H995 0.931 . S
C968 C965 1.382 . S
C968 C966 1.392 . S
C969 Eu960 2.828 . S
C969 C963 1.505 . S
C969 O981 1.249 . S
C969 O982 1.244 . S
O970 Eu961 2.373 . S
O970 C972 1.258 . S
O971 Eu960 2.392 . S
O971 C972 1.242 . S
C972 O970 1.258 . S
C972 O971 1.242 . S
O973 Eu960 2.418 . S
O973 C977 1.244 . S
O974 Eu961 2.488 . S
O974 C990 1.249 . S
O975 Eu961 2.471 . S
O975 C990 1.244 . S
O976 Eu961 2.349 . S
O976 C977 1.265 . S
C977 O973 1.244 . S
C977 O976 1.265 . S
O978 Eu960 2.373 . S
O978 C991 1.258 . S
O979 Eu961 2.392 . S
O979 C991 1.242 . S
O980 Eu961 2.418 . S
O980 C962 1.244 . S
O981 Eu960 2.488 . S
O981 C969 1.249 . S
O982 Eu960 2.471 . S
O982 C969 1.244 . S
O983 Eu960 2.349 . S
O983 C962 1.265 . S
C984 C985 1.379 . S
C984 C988 1.373 . S
C984 C990 1.505 . S
C985 C984 1.379 . S
C985 C987 1.369 . S
C985 H996 0.930 . S
C986 C988 1.383 . S
C986 C989 1.382 . S
C986 H997 0.930 . S
C987 C985 1.369 . S
C987 C989 1.392 . S
C987 H998 0.930 . S
C988 C984 1.373 . S
C988 C986 1.383 . S
C988 H999 0.931 . S
C989 C986 1.382 . S
C989 C987 1.392 . S
C990 Eu961 2.828 . S
C990 O974 1.249 . S
C990 O975 1.244 . S
C990 C984 1.505 . S
C991 O978 1.258 . S
C991 O979 1.242 . S
H992 C964 0.930 . S
H993 C965 0.930 . S
H994 C966 0.930 . S
H995 C967 0.931 . S
H996 C985 0.930 . S
H997 C986 0.930 . S
H998 C987 0.930 . S
H999 C988 0.931 . S
Eu1000 C1009 2.828 . S
Eu1000 O1011 2.392 . S
Eu1000 O1013 2.418 . S
Eu1000 O1018 2.373 . S
Eu1000 O1021 2.488 . S
Eu1000 O1022 2.471 . S
Eu1000 O1023 2.349 . S
Eu1001 O1010 2.373 . S
Eu1001 O1014 2.488 . S
Eu1001 O1015 2.471 . S
Eu1001 O1016 2.349 . S
Eu1001 O1019 2.392 . S
Eu1001 O1020 2.418 . S
Eu1001 C1030 2.828 . S
C1002 O1020 1.244 . S
C1002 O1023 1.265 . S
C1003 C1004 1.379 . S
C1003 C1007 1.373 . S
C1003 C1009 1.505 . S
C1004 C1003 1.379 . S
C1004 C1006 1.369 . S
C1004 H1032 0.930 . S
C1005 C1007 1.383 . S
C1005 C1008 1.382 . S
C1005 H1033 0.930 . S
C1006 C1004 1.369 . S
C1006 C1008 1.392 . S
C1006 H1034 0.930 . S
C1007 C1003 1.373 . S
C1007 C1005 1.383 . S
C1007 H1035 0.931 . S
C1008 C1005 1.382 . S
C1008 C1006 1.392 . S
C1009 Eu1000 2.828 . S
C1009 C1003 1.505 . S
C1009 O1021 1.249 . S
C1009 O1022 1.244 . S
O1010 Eu1001 2.373 . S
O1010 C1012 1.258 . S
O1011 Eu1000 2.392 . S
O1011 C1012 1.242 . S
C1012 O1010 1.258 . S
C1012 O1011 1.242 . S
O1013 Eu1000 2.418 . S
O1013 C1017 1.244 . S
O1014 Eu1001 2.488 . S
O1014 C1030 1.249 . S
O1015 Eu1001 2.471 . S
O1015 C1030 1.244 . S
O1016 Eu1001 2.349 . S
O1016 C1017 1.265 . S
C1017 O1013 1.244 . S
C1017 O1016 1.265 . S
O1018 Eu1000 2.373 . S
O1018 C1031 1.258 . S
O1019 Eu1001 2.392 . S
O1019 C1031 1.242 . S
O1020 Eu1001 2.418 . S
O1020 C1002 1.244 . S
O1021 Eu1000 2.488 . S
O1021 C1009 1.249 . S
O1022 Eu1000 2.471 . S
O1022 C1009 1.244 . S
O1023 Eu1000 2.349 . S
O1023 C1002 1.265 . S
C1024 C1025 1.379 . S
C1024 C1028 1.373 . S
C1024 C1030 1.505 . S
C1025 C1024 1.379 . S
C1025 C1027 1.369 . S
C1025 H1036 0.930 . S
C1026 C1028 1.383 . S
C1026 C1029 1.382 . S
C1026 H1037 0.930 . S
C1027 C1025 1.369 . S
C1027 C1029 1.392 . S
C1027 H1038 0.930 . S
C1028 C1024 1.373 . S
C1028 C1026 1.383 . S
C1028 H1039 0.931 . S
C1029 C1026 1.382 . S
C1029 C1027 1.392 . S
C1030 Eu1001 2.828 . S
C1030 O1014 1.249 . S
C1030 O1015 1.244 . S
C1030 C1024 1.505 . S
C1031 O1018 1.258 . S
C1031 O1019 1.242 . S
H1032 C1004 0.930 . S
H1033 C1005 0.930 . S
H1034 C1006 0.930 . S
H1035 C1007 0.931 . S
H1036 C1025 0.930 . S
H1037 C1026 0.930 . S
H1038 C1027 0.930 . S
H1039 C1028 0.931 . S
Eu1040 C1049 2.828 . S
Eu1040 O1051 2.392 . S
Eu1040 O1053 2.418 . S
Eu1040 O1058 2.373 . S
Eu1040 O1061 2.488 . S
Eu1040 O1062 2.471 . S
Eu1040 O1063 2.349 . S
Eu1041 O1050 2.373 . S
Eu1041 O1054 2.488 . S
Eu1041 O1055 2.471 . S
Eu1041 O1056 2.349 . S
Eu1041 O1059 2.392 . S
Eu1041 O1060 2.418 . S
Eu1041 C1070 2.828 . S
C1042 O1060 1.244 . S
C1042 O1063 1.265 . S
C1043 C1044 1.379 . S
C1043 C1047 1.373 . S
C1043 C1049 1.505 . S
C1044 C1043 1.379 . S
C1044 C1046 1.369 . S
C1044 H1072 0.930 . S
C1045 C1047 1.383 . S
C1045 C1048 1.382 . S
C1045 H1073 0.930 . S
C1046 C1044 1.369 . S
C1046 C1048 1.392 . S
C1046 H1074 0.930 . S
C1047 C1043 1.373 . S
C1047 C1045 1.383 . S
C1047 H1075 0.931 . S
C1048 C1045 1.382 . S
C1048 C1046 1.392 . S
C1049 Eu1040 2.828 . S
C1049 C1043 1.505 . S
C1049 O1061 1.249 . S
C1049 O1062 1.244 . S
O1050 Eu1041 2.373 . S
O1050 C1052 1.258 . S
O1051 Eu1040 2.392 . S
O1051 C1052 1.242 . S
C1052 O1050 1.258 . S
C1052 O1051 1.242 . S
O1053 Eu1040 2.418 . S
O1053 C1057 1.244 . S
O1054 Eu1041 2.488 . S
O1054 C1070 1.249 . S
O1055 Eu1041 2.471 . S
O1055 C1070 1.244 . S
O1056 Eu1041 2.349 . S
O1056 C1057 1.265 . S
C1057 O1053 1.244 . S
C1057 O1056 1.265 . S
O1058 Eu1040 2.373 . S
O1058 C1071 1.258 . S
O1059 Eu1041 2.392 . S
O1059 C1071 1.242 . S
O1060 Eu1041 2.418 . S
O1060 C1042 1.244 . S
O1061 Eu1040 2.488 . S
O1061 C1049 1.249 . S
O1062 Eu1040 2.471 . S
O1062 C1049 1.244 . S
O1063 Eu1040 2.349 . S
O1063 C1042 1.265 . S
C1064 C1065 1.379 . S
C1064 C1068 1.373 . S
C1064 C1070 1.505 . S
C1065 C1064 1.379 . S
C1065 C1067 1.369 . S
C1065 H1076 0.930 . S
C1066 C1068 1.383 . S
C1066 C1069 1.382 . S
C1066 H1077 0.930 . S
C1067 C1065 1.369 . S
C1067 C1069 1.392 . S
C1067 H1078 0.930 . S
C1068 C1064 1.373 . S
C1068 C1066 1.383 . S
C1068 H1079 0.931 . S
C1069 C1066 1.382 . S
C1069 C1067 1.392 . S
C1070 Eu1041 2.828 . S
C1070 O1054 1.249 . S
C1070 O1055 1.244 . S
C1070 C1064 1.505 . S
C1071 O1058 1.258 . S
C1071 O1059 1.242 . S
H1072 C1044 0.930 . S
H1073 C1045 0.930 . S
H1074 C1046 0.930 . S
H1075 C1047 0.931 . S
H1076 C1065 0.930 . S
H1077 C1066 0.930 . S
H1078 C1067 0.930 . S
H1079 C1068 0.931 . S
Eu1080 C1089 2.828 . S
Eu1080 O1091 2.392 . S
Eu1080 O1093 2.418 . S
Eu1080 O1098 2.373 . S
Eu1080 O1101 2.488 . S
Eu1080 O1102 2.471 . S
Eu1080 O1103 2.349 . S
Eu1081 O1090 2.373 . S
Eu1081 O1094 2.488 . S
Eu1081 O1095 2.471 . S
Eu1081 O1096 2.349 . S
Eu1081 O1099 2.392 . S
Eu1081 O1100 2.418 . S
Eu1081 C1110 2.828 . S
C1082 O1100 1.244 . S
C1082 O1103 1.265 . S
C1083 C1084 1.379 . S
C1083 C1087 1.373 . S
C1083 C1089 1.505 . S
C1084 C1083 1.379 . S
C1084 C1086 1.369 . S
C1084 H1112 0.930 . S
C1085 C1087 1.383 . S
C1085 C1088 1.382 . S
C1085 H1113 0.930 . S
C1086 C1084 1.369 . S
C1086 C1088 1.392 . S
C1086 H1114 0.930 . S
C1087 C1083 1.373 . S
C1087 C1085 1.383 . S
C1087 H1115 0.931 . S
C1088 C1085 1.382 . S
C1088 C1086 1.392 . S
C1089 Eu1080 2.828 . S
C1089 C1083 1.505 . S
C1089 O1101 1.249 . S
C1089 O1102 1.244 . S
O1090 Eu1081 2.373 . S
O1090 C1092 1.258 . S
O1091 Eu1080 2.392 . S
O1091 C1092 1.242 . S
C1092 O1090 1.258 . S
C1092 O1091 1.242 . S
O1093 Eu1080 2.418 . S
O1093 C1097 1.244 . S
O1094 Eu1081 2.488 . S
O1094 C1110 1.249 . S
O1095 Eu1081 2.471 . S
O1095 C1110 1.244 . S
O1096 Eu1081 2.349 . S
O1096 C1097 1.265 . S
C1097 O1093 1.244 . S
C1097 O1096 1.265 . S
O1098 Eu1080 2.373 . S
O1098 C1111 1.258 . S
O1099 Eu1081 2.392 . S
O1099 C1111 1.242 . S
O1100 Eu1081 2.418 . S
O1100 C1082 1.244 . S
O1101 Eu1080 2.488 . S
O1101 C1089 1.249 . S
O1102 Eu1080 2.471 . S
O1102 C1089 1.244 . S
O1103 Eu1080 2.349 . S
O1103 C1082 1.265 . S
C1104 C1105 1.379 . S
C1104 C1108 1.373 . S
C1104 C1110 1.505 . S
C1105 C1104 1.379 . S
C1105 C1107 1.369 . S
C1105 H1116 0.930 . S
C1106 C1108 1.383 . S
C1106 C1109 1.382 . S
C1106 H1117 0.930 . S
C1107 C1105 1.369 . S
C1107 C1109 1.392 . S
C1107 H1118 0.930 . S
C1108 C1104 1.373 . S
C1108 C1106 1.383 . S
C1108 H1119 0.931 . S
C1109 C1106 1.382 . S
C1109 C1107 1.392 . S
C1110 Eu1081 2.828 . S
C1110 O1094 1.249 . S
C1110 O1095 1.244 . S
C1110 C1104 1.505 . S
C1111 O1098 1.258 . S
C1111 O1099 1.242 . S
H1112 C1084 0.930 . S
H1113 C1085 0.930 . S
H1114 C1086 0.930 . S
H1115 C1087 0.931 . S
H1116 C1105 0.930 . S
H1117 C1106 0.930 . S
H1118 C1107 0.930 . S
H1119 C1108 0.931 . S
Eu1120 C1129 2.828 . S
Eu1120 O1131 2.392 . S
Eu1120 O1133 2.418 . S
Eu1120 O1138 2.373 . S
Eu1120 O1141 2.488 . S
Eu1120 O1142 2.471 . S
Eu1120 O1143 2.349 . S
Eu1121 O1130 2.373 . S
Eu1121 O1134 2.488 . S
Eu1121 O1135 2.471 . S
Eu1121 O1136 2.349 . S
Eu1121 O1139 2.392 . S
Eu1121 O1140 2.418 . S
Eu1121 C1150 2.828 . S
C1122 O1140 1.244 . S
C1122 O1143 1.265 . S
C1123 C1124 1.379 . S
C1123 C1127 1.373 . S
C1123 C1129 1.505 . S
C1124 C1123 1.379 . S
C1124 C1126 1.369 . S
C1124 H1152 0.930 . S
C1125 C1127 1.383 . S
C1125 C1128 1.382 . S
C1125 H1153 0.930 . S
C1126 C1124 1.369 . S
C1126 C1128 1.392 . S
C1126 H1154 0.930 . S
C1127 C1123 1.373 . S
C1127 C1125 1.383 . S
C1127 H1155 0.931 . S
C1128 C1125 1.382 . S
C1128 C1126 1.392 . S
C1129 Eu1120 2.828 . S
C1129 C1123 1.505 . S
C1129 O1141 1.249 . S
C1129 O1142 1.244 . S
O1130 Eu1121 2.373 . S
O1130 C1132 1.258 . S
O1131 Eu1120 2.392 . S
O1131 C1132 1.242 . S
C1132 O1130 1.258 . S
C1132 O1131 1.242 . S
O1133 Eu1120 2.418 . S
O1133 C1137 1.244 . S
O1134 Eu1121 2.488 . S
O1134 C1150 1.249 . S
O1135 Eu1121 2.471 . S
O1135 C1150 1.244 . S
O1136 Eu1121 2.349 . S
O1136 C1137 1.265 . S
C1137 O1133 1.244 . S
C1137 O1136 1.265 . S
O1138 Eu1120 2.373 . S
O1138 C1151 1.258 . S
O1139 Eu1121 2.392 . S
O1139 C1151 1.242 . S
O1140 Eu1121 2.418 . S
O1140 C1122 1.244 . S
O1141 Eu1120 2.488 . S
O1141 C1129 1.249 . S
O1142 Eu1120 2.471 . S
O1142 C1129 1.244 . S
O1143 Eu1120 2.349 . S
O1143 C1122 1.265 . S
C1144 C1145 1.379 . S
C1144 C1148 1.373 . S
C1144 C1150 1.505 . S
C1145 C1144 1.379 . S
C1145 C1147 1.369 . S
C1145 H1156 0.930 . S
C1146 C1148 1.383 . S
C1146 C1149 1.382 . S
C1146 H1157 0.930 . S
C1147 C1145 1.369 . S
C1147 C1149 1.392 . S
C1147 H1158 0.930 . S
C1148 C1144 1.373 . S
C1148 C1146 1.383 . S
C1148 H1159 0.931 . S
C1149 C1146 1.382 . S
C1149 C1147 1.392 . S
C1150 Eu1121 2.828 . S
C1150 O1134 1.249 . S
C1150 O1135 1.244 . S
C1150 C1144 1.505 . S
C1151 O1138 1.258 . S
C1151 O1139 1.242 . S
H1152 C1124 0.930 . S
H1153 C1125 0.930 . S
H1154 C1126 0.930 . S
H1155 C1127 0.931 . S
H1156 C1145 0.930 . S
H1157 C1146 0.930 . S
H1158 C1147 0.930 . S
H1159 C1148 0.931 . S
Eu1160 C1169 2.828 . S
Eu1160 O1171 2.392 . S
Eu1160 O1173 2.418 . S
Eu1160 O1178 2.373 . S
Eu1160 O1181 2.488 . S
Eu1160 O1182 2.471 . S
Eu1160 O1183 2.349 . S
Eu1161 O1170 2.373 . S
Eu1161 O1174 2.488 . S
Eu1161 O1175 2.471 . S
Eu1161 O1176 2.349 . S
Eu1161 O1179 2.392 . S
Eu1161 O1180 2.418 . S
Eu1161 C1190 2.828 . S
C1162 O1180 1.244 . S
C1162 O1183 1.265 . S
C1163 C1164 1.379 . S
C1163 C1167 1.373 . S
C1163 C1169 1.505 . S
C1164 C1163 1.379 . S
C1164 C1166 1.369 . S
C1164 H1192 0.930 . S
C1165 C1167 1.383 . S
C1165 C1168 1.382 . S
C1165 H1193 0.930 . S
C1166 C1164 1.369 . S
C1166 C1168 1.392 . S
C1166 H1194 0.930 . S
C1167 C1163 1.373 . S
C1167 C1165 1.383 . S
C1167 H1195 0.931 . S
C1168 C1165 1.382 . S
C1168 C1166 1.392 . S
C1169 Eu1160 2.828 . S
C1169 C1163 1.505 . S
C1169 O1181 1.249 . S
C1169 O1182 1.244 . S
O1170 Eu1161 2.373 . S
O1170 C1172 1.258 . S
O1171 Eu1160 2.392 . S
O1171 C1172 1.242 . S
C1172 O1170 1.258 . S
C1172 O1171 1.242 . S
O1173 Eu1160 2.418 . S
O1173 C1177 1.244 . S
O1174 Eu1161 2.488 . S
O1174 C1190 1.249 . S
O1175 Eu1161 2.471 . S
O1175 C1190 1.244 . S
O1176 Eu1161 2.349 . S
O1176 C1177 1.265 . S
C1177 O1173 1.244 . S
C1177 O1176 1.265 . S
O1178 Eu1160 2.373 . S
O1178 C1191 1.258 . S
O1179 Eu1161 2.392 . S
O1179 C1191 1.242 . S
O1180 Eu1161 2.418 . S
O1180 C1162 1.244 . S
O1181 Eu1160 2.488 . S
O1181 C1169 1.249 . S
O1182 Eu1160 2.471 . S
O1182 C1169 1.244 . S
O1183 Eu1160 2.349 . S
O1183 C1162 1.265 . S
C1184 C1185 1.379 . S
C1184 C1188 1.373 . S
C1184 C1190 1.505 . S
C1185 C1184 1.379 . S
C1185 C1187 1.369 . S
C1185 H1196 0.930 . S
C1186 C1188 1.383 . S
C1186 C1189 1.382 . S
C1186 H1197 0.930 . S
C1187 C1185 1.369 . S
C1187 C1189 1.392 . S
C1187 H1198 0.930 . S
C1188 C1184 1.373 . S
C1188 C1186 1.383 . S
C1188 H1199 0.931 . S
C1189 C1186 1.382 . S
C1189 C1187 1.392 . S
C1190 Eu1161 2.828 . S
C1190 O1174 1.249 . S
C1190 O1175 1.244 . S
C1190 C1184 1.505 . S
C1191 O1178 1.258 . S
C1191 O1179 1.242 . S
H1192 C1164 0.930 . S
H1193 C1165 0.930 . S
H1194 C1166 0.930 . S
H1195 C1167 0.931 . S
H1196 C1185 0.930 . S
H1197 C1186 0.930 . S
H1198 C1187 0.930 . S
H1199 C1188 0.931 . S
Eu1200 C1209 2.828 . S
Eu1200 O1211 2.392 . S
Eu1200 O1213 2.418 . S
Eu1200 O1218 2.373 . S
Eu1200 O1221 2.488 . S
Eu1200 O1222 2.471 . S
Eu1200 O1223 2.349 . S
Eu1201 O1210 2.373 . S
Eu1201 O1214 2.488 . S
Eu1201 O1215 2.471 . S
Eu1201 O1216 2.349 . S
Eu1201 O1219 2.392 . S
Eu1201 O1220 2.418 . S
Eu1201 C1230 2.828 . S
C1202 O1220 1.244 . S
C1202 O1223 1.265 . S
C1203 C1204 1.379 . S
C1203 C1207 1.373 . S
C1203 C1209 1.505 . S
C1204 C1203 1.379 . S
C1204 C1206 1.369 . S
C1204 H1232 0.930 . S
C1205 C1207 1.383 . S
C1205 C1208 1.382 . S
C1205 H1233 0.930 . S
C1206 C1204 1.369 . S
C1206 C1208 1.392 . S
C1206 H1234 0.930 . S
C1207 C1203 1.373 . S
C1207 C1205 1.383 . S
C1207 H1235 0.931 . S
C1208 C1205 1.382 . S
C1208 C1206 1.392 . S
C1209 Eu1200 2.828 . S
C1209 C1203 1.505 . S
C1209 O1221 1.249 . S
C1209 O1222 1.244 . S
O1210 Eu1201 2.373 . S
O1210 C1212 1.258 . S
O1211 Eu1200 2.392 . S
O1211 C1212 1.242 . S
C1212 O1210 1.258 . S
C1212 O1211 1.242 . S
O1213 Eu1200 2.418 . S
O1213 C1217 1.244 . S
O1214 Eu1201 2.488 . S
O1214 C1230 1.249 . S
O1215 Eu1201 2.471 . S
O1215 C1230 1.244 . S
O1216 Eu1201 2.349 . S
O1216 C1217 1.265 . S
C1217 O1213 1.244 . S
C1217 O1216 1.265 . S
O1218 Eu1200 2.373 . S
O1218 C1231 1.258 . S
O1219 Eu1201 2.392 . S
O1219 C1231 1.242 . S
O1220 Eu1201 2.418 . S
O1220 C1202 1.244 . S
O1221 Eu1200 2.488 . S
O1221 C1209 1.249 . S
O1222 Eu1200 2.471 . S
O1222 C1209 1.244 . S
O1223 Eu1200 2.349 . S
O1223 C1202 1.265 . S
C1224 C1225 1.379 . S
C1224 C1228 1.373 . S
C1224 C1230 1.505 . S
C1225 C1224 1.379 . S
C1225 C1227 1.369 . S
C1225 H1236 0.930 . S
C1226 C1228 1.383 . S
C1226 C1229 1.382 . S
C1226 H1237 0.930 . S
C1227 C1225 1.369 . S
C1227 C1229 1.392 . S
C1227 H1238 0.930 . S
C1228 C1224 1.373 . S
C1228 C1226 1.383 . S
C1228 H1239 0.931 . S
C1229 C1226 1.382 . S
C1229 C1227 1.392 . S
C1230 Eu1201 2.828 . S
C1230 O1214 1.249 . S
C1230 O1215 1.244 . S
C1230 C1224 1.505 . S
C1231 O1218 1.258 . S
C1231 O1219 1.242 . S
H1232 C1204 0.930 . S
H1233 C1205 0.930 . S
H1234 C1206 0.930 . S
H1235 C1207 0.931 . S
H1236 C1225 0.930 . S
H1237 C1226 0.930 . S
H1238 C1227 0.930 . S
H1239 C1228 0.931 . S
Eu1240 C1249 2.828 . S
Eu1240 O1251 2.392 . S
Eu1240 O1253 2.418 . S
Eu1240 O1258 2.373 . S
Eu1240 O1261 2.488 . S
Eu1240 O1262 2.471 . S
Eu1240 O1263 2.349 . S
Eu1241 O1250 2.373 . S
Eu1241 O1254 2.488 . S
Eu1241 O1255 2.471 . S
Eu1241 O1256 2.349 . S
Eu1241 O1259 2.392 . S
Eu1241 O1260 2.418 . S
Eu1241 C1270 2.828 . S
C1242 O1260 1.244 . S
C1242 O1263 1.265 . S
C1243 C1244 1.379 . S
C1243 C1247 1.373 . S
C1243 C1249 1.505 . S
C1244 C1243 1.379 . S
C1244 C1246 1.369 . S
C1244 H1272 0.930 . S
C1245 C1247 1.383 . S
C1245 C1248 1.382 . S
C1245 H1273 0.930 . S
C1246 C1244 1.369 . S
C1246 C1248 1.392 . S
C1246 H1274 0.930 . S
C1247 C1243 1.373 . S
C1247 C1245 1.383 . S
C1247 H1275 0.931 . S
C1248 C1245 1.382 . S
C1248 C1246 1.392 . S
C1249 Eu1240 2.828 . S
C1249 C1243 1.505 . S
C1249 O1261 1.249 . S
C1249 O1262 1.244 . S
O1250 Eu1241 2.373 . S
O1250 C1252 1.258 . S
O1251 Eu1240 2.392 . S
O1251 C1252 1.242 . S
C1252 O1250 1.258 . S
C1252 O1251 1.242 . S
O1253 Eu1240 2.418 . S
O1253 C1257 1.244 . S
O1254 Eu1241 2.488 . S
O1254 C1270 1.249 . S
O1255 Eu1241 2.471 . S
O1255 C1270 1.244 . S
O1256 Eu1241 2.349 . S
O1256 C1257 1.265 . S
C1257 O1253 1.244 . S
C1257 O1256 1.265 . S
O1258 Eu1240 2.373 . S
O1258 C1271 1.258 . S
O1259 Eu1241 2.392 . S
O1259 C1271 1.242 . S
O1260 Eu1241 2.418 . S
O1260 C1242 1.244 . S
O1261 Eu1240 2.488 . S
O1261 C1249 1.249 . S
O1262 Eu1240 2.471 . S
O1262 C1249 1.244 . S
O1263 Eu1240 2.349 . S
O1263 C1242 1.265 . S
C1264 C1265 1.379 . S
C1264 C1268 1.373 . S
C1264 C1270 1.505 . S
C1265 C1264 1.379 . S
C1265 C1267 1.369 . S
C1265 H1276 0.930 . S
C1266 C1268 1.383 . S
C1266 C1269 1.382 . S
C1266 H1277 0.930 . S
C1267 C1265 1.369 . S
C1267 C1269 1.392 . S
C1267 H1278 0.930 . S
C1268 C1264 1.373 . S
C1268 C1266 1.383 . S
C1268 H1279 0.931 . S
C1269 C1266 1.382 . S
C1269 C1267 1.392 . S
C1270 Eu1241 2.828 . S
C1270 O1254 1.249 . S
C1270 O1255 1.244 . S
C1270 C1264 1.505 . S
C1271 O1258 1.258 . S
C1271 O1259 1.242 . S
H1272 C1244 0.930 . S
H1273 C1245 0.930 . S
H1274 C1246 0.930 . S
H1275 C1247 0.931 . S
H1276 C1265 0.930 . S
H1277 C1266 0.930 . S
H1278 C1267 0.930 . S
H1279 C1268 0.931 . S
Eu1280 C1289 2.828 . S
Eu1280 O1291 2.392 . S
Eu1280 O1293 2.418 . S
Eu1280 O1298 2.373 . S
Eu1280 O1301 2.488 . S
Eu1280 O1302 2.471 . S
Eu1280 O1303 2.349 . S
Eu1281 O1290 2.373 . S
Eu1281 O1294 2.488 . S
Eu1281 O1295 2.471 . S
Eu1281 O1296 2.349 . S
Eu1281 O1299 2.392 . S
Eu1281 O1300 2.418 . S
Eu1281 C1310 2.828 . S
C1282 O1300 1.244 . S
C1282 O1303 1.265 . S
C1283 C1284 1.379 . S
C1283 C1287 1.373 . S
C1283 C1289 1.505 . S
C1284 C1283 1.379 . S
C1284 C1286 1.369 . S
C1284 H1312 0.930 . S
C1285 C1287 1.383 . S
C1285 C1288 1.382 . S
C1285 H1313 0.930 . S
C1286 C1284 1.369 . S
C1286 C1288 1.392 . S
C1286 H1314 0.930 . S
C1287 C1283 1.373 . S
C1287 C1285 1.383 . S
C1287 H1315 0.931 . S
C1288 C1285 1.382 . S
C1288 C1286 1.392 . S
C1289 Eu1280 2.828 . S
C1289 C1283 1.505 . S
C1289 O1301 1.249 . S
C1289 O1302 1.244 . S
O1290 Eu1281 2.373 . S
O1290 C1292 1.258 . S
O1291 Eu1280 2.392 . S
O1291 C1292 1.242 . S
C1292 O1290 1.258 . S
C1292 O1291 1.242 . S
O1293 Eu1280 2.418 . S
O1293 C1297 1.244 . S
O1294 Eu1281 2.488 . S
O1294 C1310 1.249 . S
O1295 Eu1281 2.471 . S
O1295 C1310 1.244 . S
O1296 Eu1281 2.349 . S
O1296 C1297 1.265 . S
C1297 O1293 1.244 . S
C1297 O1296 1.265 . S
O1298 Eu1280 2.373 . S
O1298 C1311 1.258 . S
O1299 Eu1281 2.392 . S
O1299 C1311 1.242 . S
O1300 Eu1281 2.418 . S
O1300 C1282 1.244 . S
O1301 Eu1280 2.488 . S
O1301 C1289 1.249 . S
O1302 Eu1280 2.471 . S
O1302 C1289 1.244 . S
O1303 Eu1280 2.349 . S
O1303 C1282 1.265 . S
C1304 C1305 1.379 . S
C1304 C1308 1.373 . S
C1304 C1310 1.505 . S
C1305 C1304 1.379 . S
C1305 C1307 1.369 . S
C1305 H1316 0.930 . S
C1306 C1308 1.383 . S
C1306 C1309 1.382 . S
C1306 H1317 0.930 . S
C1307 C1305 1.369 . S
C1307 C1309 1.392 . S
C1307 H1318 0.930 . S
C1308 C1304 1.373 . S
C1308 C1306 1.383 . S
C1308 H1319 0.931 . S
C1309 C1306 1.382 . S
C1309 C1307 1.392 . S
C1310 Eu1281 2.828 . S
C1310 O1294 1.249 . S
C1310 O1295 1.244 . S
C1310 C1304 1.505 . S
C1311 O1298 1.258 . S
C1311 O1299 1.242 . S
H1312 C1284 0.930 . S
H1313 C1285 0.930 . S
H1314 C1286 0.930 . S
H1315 C1287 0.931 . S
H1316 C1305 0.930 . S
H1317 C1306 0.930 . S
H1318 C1307 0.930 . S
H1319 C1308 0.931 . S
Eu1320 C1329 2.828 . S
Eu1320 O1331 2.392 . S
Eu1320 O1333 2.418 . S
Eu1320 O1338 2.373 . S
Eu1320 O1341 2.488 . S
Eu1320 O1342 2.471 . S
Eu1320 O1343 2.349 . S
Eu1321 O1330 2.373 . S
Eu1321 O1334 2.488 . S
Eu1321 O1335 2.471 . S
Eu1321 O1336 2.349 . S
Eu1321 O1339 2.392 . S
Eu1321 O1340 2.418 . S
Eu1321 C1350 2.828 . S
C1322 O1340 1.244 . S
C1322 O1343 1.265 . S
C1323 C1324 1.379 . S
C1323 C1327 1.373 . S
C1323 C1329 1.505 . S
C1324 C1323 1.379 . S
C1324 C1326 1.369 . S
C1324 H1352 0.930 . S
C1325 C1327 1.383 . S
C1325 C1328 1.382 . S
C1325 H1353 0.930 . S
C1326 C1324 1.369 . S
C1326 C1328 1.392 . S
C1326 H1354 0.930 . S
C1327 C1323 1.373 . S
C1327 C1325 1.383 . S
C1327 H1355 0.931 . S
C1328 C1325 1.382 . S
C1328 C1326 1.392 . S
C1329 Eu1320 2.828 . S
C1329 C1323 1.505 . S
C1329 O1341 1.249 . S
C1329 O1342 1.244 . S
O1330 Eu1321 2.373 . S
O1330 C1332 1.258 . S
O1331 Eu1320 2.392 . S
O1331 C1332 1.242 . S
C1332 O1330 1.258 . S
C1332 O1331 1.242 . S
O1333 Eu1320 2.418 . S
O1333 C1337 1.244 . S
O1334 Eu1321 2.488 . S
O1334 C1350 1.249 . S
O1335 Eu1321 2.471 . S
O1335 C1350 1.244 . S
O1336 Eu1321 2.349 . S
O1336 C1337 1.265 . S
C1337 O1333 1.244 . S
C1337 O1336 1.265 . S
O1338 Eu1320 2.373 . S
O1338 C1351 1.258 . S
O1339 Eu1321 2.392 . S
O1339 C1351 1.242 . S
O1340 Eu1321 2.418 . S
O1340 C1322 1.244 . S
O1341 Eu1320 2.488 . S
O1341 C1329 1.249 . S
O1342 Eu1320 2.471 . S
O1342 C1329 1.244 . S
O1343 Eu1320 2.349 . S
O1343 C1322 1.265 . S
C1344 C1345 1.379 . S
C1344 C1348 1.373 . S
C1344 C1350 1.505 . S
C1345 C1344 1.379 . S
C1345 C1347 1.369 . S
C1345 H1356 0.930 . S
C1346 C1348 1.383 . S
C1346 C1349 1.382 . S
C1346 H1357 0.930 . S
C1347 C1345 1.369 . S
C1347 C1349 1.392 . S
C1347 H1358 0.930 . S
C1348 C1344 1.373 . S
C1348 C1346 1.383 . S
C1348 H1359 0.931 . S
C1349 C1346 1.382 . S
C1349 C1347 1.392 . S
C1350 Eu1321 2.828 . S
C1350 O1334 1.249 . S
C1350 O1335 1.244 . S
C1350 C1344 1.505 . S
C1351 O1338 1.258 . S
C1351 O1339 1.242 . S
H1352 C1324 0.930 . S
H1353 C1325 0.930 . S
H1354 C1326 0.930 . S
H1355 C1327 0.931 . S
H1356 C1345 0.930 . S
H1357 C1346 0.930 . S
H1358 C1347 0.930 . S
H1359 C1348 0.931 . S
Eu1360 C1369 2.828 . S
Eu1360 O1371 2.392 . S
Eu1360 O1373 2.418 . S
Eu1360 O1378 2.373 . S
Eu1360 O1381 2.488 . S
Eu1360 O1382 2.471 . S
Eu1360 O1383 2.349 . S
Eu1361 O1370 2.373 . S
Eu1361 O1374 2.488 . S
Eu1361 O1375 2.471 . S
Eu1361 O1376 2.349 . S
Eu1361 O1379 2.392 . S
Eu1361 O1380 2.418 . S
Eu1361 C1390 2.828 . S
C1362 O1380 1.244 . S
C1362 O1383 1.265 . S
C1363 C1364 1.379 . S
C1363 C1367 1.373 . S
C1363 C1369 1.505 . S
C1364 C1363 1.379 . S
C1364 C1366 1.369 . S
C1364 H1392 0.930 . S
C1365 C1367 1.383 . S
C1365 C1368 1.382 . S
C1365 H1393 0.930 . S
C1366 C1364 1.369 . S
C1366 C1368 1.392 . S
C1366 H1394 0.930 . S
C1367 C1363 1.373 . S
C1367 C1365 1.383 . S
C1367 H1395 0.931 . S
C1368 C1365 1.382 . S
C1368 C1366 1.392 . S
C1369 Eu1360 2.828 . S
C1369 C1363 1.505 . S
C1369 O1381 1.249 . S
C1369 O1382 1.244 . S
O1370 Eu1361 2.373 . S
O1370 C1372 1.258 . S
O1371 Eu1360 2.392 . S
O1371 C1372 1.242 . S
C1372 O1370 1.258 . S
C1372 O1371 1.242 . S
O1373 Eu1360 2.418 . S
O1373 C1377 1.244 . S
O1374 Eu1361 2.488 . S
O1374 C1390 1.249 . S
O1375 Eu1361 2.471 . S
O1375 C1390 1.244 . S
O1376 Eu1361 2.349 . S
O1376 C1377 1.265 . S
C1377 O1373 1.244 . S
C1377 O1376 1.265 . S
O1378 Eu1360 2.373 . S
O1378 C1391 1.258 . S
O1379 Eu1361 2.392 . S
O1379 C1391 1.242 . S
O1380 Eu1361 2.418 . S
O1380 C1362 1.244 . S
O1381 Eu1360 2.488 . S
O1381 C1369 1.249 . S
O1382 Eu1360 2.471 . S
O1382 C1369 1.244 . S
O1383 Eu1360 2.349 . S
O1383 C1362 1.265 . S
C1384 C1385 1.379 . S
C1384 C1388 1.373 . S
C1384 C1390 1.505 . S
C1385 C1384 1.379 . S
C1385 C1387 1.369 . S
C1385 H1396 0.930 . S
C1386 C1388 1.383 . S
C1386 C1389 1.382 . S
C1386 H1397 0.930 . S
C1387 C1385 1.369 . S
C1387 C1389 1.392 . S
C1387 H1398 0.930 . S
C1388 C1384 1.373 . S
C1388 C1386 1.383 . S
C1388 H1399 0.931 . S
C1389 C1386 1.382 . S
C1389 C1387 1.392 . S
C1390 Eu1361 2.828 . S
C1390 O1374 1.249 . S
C1390 O1375 1.244 . S
C1390 C1384 1.505 . S
C1391 O1378 1.258 . S
C1391 O1379 1.242 . S
H1392 C1364 0.930 . S
H1393 C1365 0.930 . S
H1394 C1366 0.930 . S
H1395 C1367 0.931 . S
H1396 C1385 0.930 . S
H1397 C1386 0.930 . S
H1398 C1387 0.930 . S
H1399 C1388 0.931 . S
Eu1400 C1409 2.828 . S
Eu1400 O1411 2.392 . S
Eu1400 O1413 2.418 . S
Eu1400 O1418 2.373 . S
Eu1400 O1421 2.488 . S
Eu1400 O1422 2.471 . S
Eu1400 O1423 2.349 . S
Eu1401 O1410 2.373 . S
Eu1401 O1414 2.488 . S
Eu1401 O1415 2.471 . S
Eu1401 O1416 2.349 . S
Eu1401 O1419 2.392 . S
Eu1401 O1420 2.418 . S
Eu1401 C1430 2.828 . S
C1402 O1420 1.244 . S
C1402 O1423 1.265 . S
C1403 C1404 1.379 . S
C1403 C1407 1.373 . S
C1403 C1409 1.505 . S
C1404 C1403 1.379 . S
C1404 C1406 1.369 . S
C1404 H1432 0.930 . S
C1405 C1407 1.383 . S
C1405 C1408 1.382 . S
C1405 H1433 0.930 . S
C1406 C1404 1.369 . S
C1406 C1408 1.392 . S
C1406 H1434 0.930 . S
C1407 C1403 1.373 . S
C1407 C1405 1.383 . S
C1407 H1435 0.931 . S
C1408 C1405 1.382 . S
C1408 C1406 1.392 . S
C1409 Eu1400 2.828 . S
C1409 C1403 1.505 . S
C1409 O1421 1.249 . S
C1409 O1422 1.244 . S
O1410 Eu1401 2.373 . S
O1410 C1412 1.258 . S
O1411 Eu1400 2.392 . S
O1411 C1412 1.242 . S
C1412 O1410 1.258 . S
C1412 O1411 1.242 . S
O1413 Eu1400 2.418 . S
O1413 C1417 1.244 . S
O1414 Eu1401 2.488 . S
O1414 C1430 1.249 . S
O1415 Eu1401 2.471 . S
O1415 C1430 1.244 . S
O1416 Eu1401 2.349 . S
O1416 C1417 1.265 . S
C1417 O1413 1.244 . S
C1417 O1416 1.265 . S
O1418 Eu1400 2.373 . S
O1418 C1431 1.258 . S
O1419 Eu1401 2.392 . S
O1419 C1431 1.242 . S
O1420 Eu1401 2.418 . S
O1420 C1402 1.244 . S
O1421 Eu1400 2.488 . S
O1421 C1409 1.249 . S
O1422 Eu1400 2.471 . S
O1422 C1409 1.244 . S
O1423 Eu1400 2.349 . S
O1423 C1402 1.265 . S
C1424 C1425 1.379 . S
C1424 C1428 1.373 . S
C1424 C1430 1.505 . S
C1425 C1424 1.379 . S
C1425 C1427 1.369 . S
C1425 H1436 0.930 . S
C1426 C1428 1.383 . S
C1426 C1429 1.382 . S
C1426 H1437 0.930 . S
C1427 C1425 1.369 . S
C1427 C1429 1.392 . S
C1427 H1438 0.930 . S
C1428 C1424 1.373 . S
C1428 C1426 1.383 . S
C1428 H1439 0.931 . S
C1429 C1426 1.382 . S
C1429 C1427 1.392 . S
C1430 Eu1401 2.828 . S
C1430 O1414 1.249 . S
C1430 O1415 1.244 . S
C1430 C1424 1.505 . S
C1431 O1418 1.258 . S
C1431 O1419 1.242 . S
H1432 C1404 0.930 . S
H1433 C1405 0.930 . S
H1434 C1406 0.930 . S
H1435 C1407 0.931 . S
H1436 C1425 0.930 . S
H1437 C1426 0.930 . S
H1438 C1427 0.930 . S
H1439 C1428 0.931 . S
H1440 C1448 0.929 . S
H1441 C1450 0.930 . S
H1442 C1452 0.930 . S
H1443 C1455 0.929 . S
H1444 C1458 0.930 1_556 S
H1445 C1460 0.960 . S
H1446 C1460 0.960 . S
H1447 C1460 0.960 . S
C1448 H1440 0.929 . S
C1448 C1449 1.377 . S
C1448 C1450 1.384 . S
C1449 C1448 1.377 . S
C1449 C1455 1.390 . S
C1450 H1441 0.930 . S
C1450 C1448 1.384 . S
C1450 C1451 1.372 . S
C1451 C1450 1.372 . S
C1451 C1452 1.400 . S
C1451 C1456 1.490 . S
C1452 H1442 0.930 . S
C1452 C1451 1.400 . S
C1452 C1455 1.386 . S
H1453 C1469 0.930 . S
H1454 C1470 0.950 . S
C1455 H1443 0.929 . S
C1455 C1449 1.390 . S
C1455 C1452 1.386 . S
C1456 C1451 1.490 . S
C1456 C1458 1.395 . S
C1456 C1459 1.403 . S
H1457 C1463 0.930 . S
C1458 H1444 0.930 1_554 S
C1458 C1456 1.395 . S
C1458 C1461 1.403 1_554 S
C1459 C1456 1.403 . S
C1459 C1460 1.524 . S
C1459 C1463 1.400 . S
C1460 H1445 0.960 . S
C1460 H1446 0.960 . S
C1460 H1447 0.960 . S
C1460 C1459 1.524 . S
C1461 C1458 1.403 1_556 S
C1461 C1462 1.392 . S
C1461 C1465 1.495 . S
C1462 C1461 1.392 . S
C1462 C1463 1.385 1_556 S
C1462 C1464 1.478 . S
C1463 H1457 0.930 . S
C1463 C1459 1.400 . S
C1463 C1462 1.385 1_554 S
C1464 C1462 1.478 . S
C1464 C1466 1.381 1_545 S
C1464 C1470 1.399 . S
C1465 C1461 1.495 . S
C1465 H1471 0.959 . S
C1465 H1472 0.961 . S
C1465 H1473 0.960 . S
C1466 C1464 1.381 1_565 S
C1466 C1467 1.394 . S
C1466 H1474 0.930 1_556 S
C1467 C1466 1.394 . S
C1467 C1468 1.383 . S
C1467 H1475 0.929 . S
C1468 C1467 1.383 . S
C1468 C1469 1.377 . S
C1469 H1453 0.930 . S
C1469 C1468 1.377 . S
C1469 C1470 1.345 1_565 S
C1470 H1454 0.950 . S
C1470 C1464 1.399 . S
C1470 C1469 1.345 1_545 S
H1471 C1465 0.959 . S
H1472 C1465 0.961 . S
H1473 C1465 0.960 . S
H1474 C1466 0.930 1_554 S
H1475 C1467 0.929 . S
H1476 C1484 0.929 1_554 S
H1477 C1486 0.930 . S
H1478 C1488 0.930 1_655 S
H1479 C1491 0.929 . S
H1480 C1494 0.930 . S
H1481 C1496 0.960 . S
H1482 C1496 0.960 . S
H1483 C1496 0.960 . S
C1484 H1476 0.929 1_556 S
C1484 C1485 1.377 . S
C1484 C1486 1.384 1_556 S
C1485 C1484 1.377 . S
C1485 C1491 1.390 . S
C1486 H1477 0.930 . S
C1486 C1484 1.384 1_554 S
C1486 C1487 1.372 1_454 S
C1487 C1486 1.372 1_656 S
C1487 C1488 1.400 1_655 S
C1487 C1492 1.488 1_556 S
C1488 H1478 0.930 1_455 S
C1488 C1487 1.400 1_455 S
C1488 C1491 1.386 . S
H1489 C1505 0.930 . S
H1490 C1506 0.931 1_556 S
C1491 H1479 0.929 . S
C1491 C1485 1.390 . S
C1491 C1488 1.386 . S
C1492 C1487 1.488 1_554 S
C1492 C1494 1.396 . S
C1492 C1495 1.402 1_554 S
H1493 C1499 0.930 . S
C1494 H1480 0.930 . S
C1494 C1492 1.396 . S
C1494 C1497 1.403 . S
C1495 C1492 1.402 1_556 S
C1495 C1496 1.524 . S
C1495 C1499 1.400 1_556 S
C1496 H1481 0.960 . S
C1496 H1482 0.960 . S
C1496 H1483 0.960 . S
C1496 C1495 1.524 . S
C1497 C1494 1.403 . S
C1497 C1498 1.392 . S
C1497 C1501 1.495 . S
C1498 C1497 1.392 . S
C1498 C1499 1.385 . S
C1498 C1500 1.478 . S
C1499 H1493 0.930 . S
C1499 C1495 1.400 1_554 S
C1499 C1498 1.385 . S
C1500 C1498 1.478 . S
C1500 C1502 1.381 . S
C1500 C1506 1.383 . S
C1501 C1497 1.495 . S
C1501 H1507 0.959 . S
C1501 H1508 0.961 . S
C1501 H1509 0.960 . S
C1502 C1500 1.381 . S
C1502 C1503 1.394 . S
C1502 H1510 0.930 . S
C1503 C1502 1.394 . S
C1503 C1504 1.383 . S
C1503 H1511 0.929 . S
C1504 C1503 1.383 . S
C1504 C1505 1.377 . S
C1505 H1489 0.930 . S
C1505 C1504 1.377 . S
C1505 C1506 1.379 . S
C1506 H1490 0.931 1_554 S
C1506 C1500 1.383 . S
C1506 C1505 1.379 . S
H1507 C1501 0.959 . S
H1508 C1501 0.961 . S
H1509 C1501 0.960 . S
H1510 C1502 0.930 . S
H1511 C1503 0.929 . S
H1512 C1520 0.929 1_554 S
H1513 C1522 0.930 . S
H1514 C1524 0.930 . S
H1515 C1527 0.929 . S
H1516 C1530 0.930 . S
H1517 C1532 0.960 . S
H1518 C1532 0.960 . S
H1519 C1532 0.960 . S
C1520 H1512 0.929 1_556 S
C1520 C1521 1.377 . S
C1520 C1522 1.384 1_556 S
C1521 C1520 1.377 . S
C1521 C1527 1.390 . S
C1522 H1513 0.930 . S
C1522 C1520 1.384 1_554 S
C1522 C1523 1.372 1_554 S
C1523 C1522 1.372 1_556 S
C1523 C1524 1.400 . S
C1523 C1528 1.485 1_556 S
C1524 H1514 0.930 . S
C1524 C1523 1.400 . S
C1524 C1527 1.386 . S
H1525 C1541 0.930 . S
H1526 C1542 0.931 1_556 S
C1527 H1515 0.929 . S
C1527 C1521 1.390 . S
C1527 C1524 1.386 . S
C1528 C1523 1.485 1_554 S
C1528 C1530 1.403 . S
C1528 C1531 1.400 1_554 S
H1529 C1535 0.930 . S
C1530 H1516 0.930 . S
C1530 C1528 1.403 . S
C1530 C1533 1.403 . S
C1531 C1528 1.400 1_556 S
C1531 C1532 1.524 . S
C1531 C1535 1.400 1_556 S
C1532 H1517 0.960 . S
C1532 H1518 0.960 . S
C1532 H1519 0.960 . S
C1532 C1531 1.524 . S
C1533 C1530 1.403 . S
C1533 C1534 1.392 . S
C1533 C1537 1.495 . S
C1534 C1533 1.392 . S
C1534 C1535 1.385 . S
C1534 C1536 1.478 . S
C1535 H1529 0.930 . S
C1535 C1531 1.400 1_554 S
C1535 C1534 1.385 . S
C1536 C1534 1.478 . S
C1536 C1538 1.381 . S
C1536 C1542 1.383 . S
C1537 C1533 1.495 . S
C1537 H1543 0.959 . S
C1537 H1544 0.961 . S
C1537 H1545 0.960 . S
C1538 C1536 1.381 . S
C1538 C1539 1.394 . S
C1538 H1546 0.930 . S
C1539 C1538 1.394 . S
C1539 C1540 1.383 . S
C1539 H1547 0.929 . S
C1540 C1539 1.383 . S
C1540 C1541 1.377 . S
C1541 H1525 0.930 . S
C1541 C1540 1.377 . S
C1541 C1542 1.379 . S
C1542 H1526 0.931 1_554 S
C1542 C1536 1.383 . S
C1542 C1541 1.379 . S
H1543 C1537 0.959 . S
H1544 C1537 0.961 . S
H1545 C1537 0.960 . S
H1546 C1538 0.930 . S
H1547 C1539 0.929 . S
H1548 C1556 0.929 . S
H1549 C1558 0.930 1_455 S
H1550 C1560 0.930 . S
H1551 C1563 0.929 . S
H1552 C1566 0.930 . S
H1553 C1568 0.960 . S
H1554 C1568 0.930 1_655 S
H1555 C1568 0.960 1_655 S
C1556 H1548 0.929 . S
C1556 C1557 1.377 . S
C1556 C1558 1.384 . S
C1557 C1556 1.377 . S
C1557 C1563 1.390 . S
C1558 H1549 0.930 1_655 S
C1558 C1556 1.384 . S
C1558 C1559 1.372 1_655 S
C1559 C1558 1.372 1_455 S
C1559 C1560 1.400 1_455 S
C1559 C1564 1.490 . S
C1560 H1550 0.930 . S
C1560 C1559 1.400 1_655 S
C1560 C1563 1.386 . S
H1561 C1577 0.930 . S
H1562 C1578 0.931 . S
C1563 H1551 0.929 . S
C1563 C1557 1.390 . S
C1563 C1560 1.386 . S
C1564 C1559 1.490 . S
C1564 C1566 1.395 . S
C1564 C1567 1.403 . S
H1565 C1571 0.930 . S
C1566 H1552 0.930 . S
C1566 C1564 1.395 . S
C1566 C1569 1.403 . S
C1567 C1564 1.403 . S
C1567 C1568 1.524 . S
C1567 C1571 1.400 . S
C1568 H1553 0.960 . S
C1568 H1554 0.930 1_455 S
C1568 H1555 0.960 1_455 S
C1568 C1567 1.524 . S
C1569 C1566 1.403 . S
C1569 C1570 1.392 . S
C1569 C1573 1.495 . S
C1570 C1569 1.392 . S
C1570 C1571 1.385 . S
C1570 C1572 1.478 . S
C1571 H1565 0.930 . S
C1571 C1567 1.400 . S
C1571 C1570 1.385 . S
C1572 C1570 1.478 . S
C1572 C1574 1.381 . S
C1572 C1578 1.383 . S
C1573 C1569 1.495 . S
C1573 H1579 0.959 . S
C1573 H1580 0.961 . S
C1573 H1581 0.960 . S
C1574 C1572 1.381 . S
C1574 C1575 1.394 . S
C1574 H1582 0.930 . S
C1575 C1574 1.394 . S
C1575 C1576 1.383 . S
C1575 H1583 0.929 . S
C1576 C1575 1.383 . S
C1576 C1577 1.377 . S
C1577 H1561 0.930 . S
C1577 C1576 1.377 . S
C1577 C1578 1.379 . S
C1578 H1562 0.931 . S
C1578 C1572 1.383 . S
C1578 C1577 1.379 . S
H1579 C1573 0.959 . S
H1580 C1573 0.961 . S
H1581 C1573 0.960 . S
H1582 C1574 0.930 . S
H1583 C1575 0.929 . S
H1584 C1592 0.929 . S
H1585 C1594 0.930 . S
H1586 C1596 0.930 . S
H1587 C1599 0.929 . S
H1588 C1602 0.930 . S
H1589 C1604 0.960 . S
H1590 C1604 0.960 . S
H1591 C1604 0.960 . S
C1592 H1584 0.929 . S
C1592 C1593 1.377 . S
C1592 C1594 1.384 . S
C1593 C1592 1.377 . S
C1593 C1599 1.390 . S
C1594 H1585 0.930 . S
C1594 C1592 1.384 . S
C1594 C1595 1.372 . S
C1595 C1594 1.372 . S
C1595 C1596 1.400 . S
C1595 C1600 1.490 . S
C1596 H1586 0.930 . S
C1596 C1595 1.400 . S
C1596 C1599 1.386 . S
H1597 C1613 0.930 . S
H1598 C1614 0.931 . S
C1599 H1587 0.929 . S
C1599 C1593 1.390 . S
C1599 C1596 1.386 . S
C1600 C1595 1.490 . S
C1600 C1602 1.395 . S
C1600 C1603 1.403 . S
H1601 C1607 0.930 . S
C1602 H1588 0.930 . S
C1602 C1600 1.395 . S
C1602 C1605 1.403 . S
C1603 C1600 1.403 . S
C1603 C1604 1.524 . S
C1603 C1607 1.400 . S
C1604 H1589 0.960 . S
C1604 H1590 0.960 . S
C1604 H1591 0.960 . S
C1604 C1603 1.524 . S
C1605 C1602 1.403 . S
C1605 C1606 1.392 . S
C1605 C1609 1.495 . S
C1606 C1605 1.392 . S
C1606 C1607 1.385 . S
C1606 C1608 1.478 . S
C1607 H1601 0.930 . S
C1607 C1603 1.400 . S
C1607 C1606 1.385 . S
C1608 C1606 1.478 . S
C1608 C1610 1.381 . S
C1608 C1614 1.383 . S
C1609 C1605 1.495 . S
C1609 H1615 0.959 . S
C1609 H1616 0.961 . S
C1609 H1617 0.960 . S
C1610 C1608 1.381 . S
C1610 C1611 1.394 . S
C1610 H1618 0.930 . S
C1611 C1610 1.394 . S
C1611 C1612 1.383 . S
C1611 H1619 0.929 . S
C1612 C1611 1.383 . S
C1612 C1613 1.377 . S
C1613 H1597 0.930 . S
C1613 C1612 1.377 . S
C1613 C1614 1.379 . S
C1614 H1598 0.931 . S
C1614 C1608 1.383 . S
C1614 C1613 1.379 . S
H1615 C1609 0.959 . S
H1616 C1609 0.961 . S
H1617 C1609 0.960 . S
H1618 C1610 0.930 . S
H1619 C1611 0.929 . S
H1620 C1628 0.929 . S
H1621 C1630 0.930 . S
H1622 C1632 0.930 . S
H1623 C1635 0.929 . S
H1624 C1638 0.930 . S
H1625 C1640 0.960 . S
H1626 C1640 0.960 . S
H1627 C1640 0.960 . S
C1628 H1620 0.929 . S
C1628 C1629 1.377 . S
C1628 C1630 1.384 . S
C1629 C1628 1.377 . S
C1629 C1635 1.390 . S
C1630 H1621 0.930 . S
C1630 C1628 1.384 . S
C1630 C1631 1.372 . S
C1631 C1630 1.372 . S
C1631 C1632 1.400 . S
C1631 C1636 1.490 . S
C1632 H1622 0.930 . S
C1632 C1631 1.400 . S
C1632 C1635 1.386 . S
H1633 C1649 0.930 . S
H1634 C1650 0.936 . S
C1635 H1623 0.929 . S
C1635 C1629 1.390 . S
C1635 C1632 1.386 . S
C1636 C1631 1.490 . S
C1636 C1638 1.395 . S
C1636 C1639 1.403 . S
H1637 C1643 0.930 . S
C1638 H1624 0.930 . S
C1638 C1636 1.395 . S
C1638 C1641 1.403 . S
C1639 C1636 1.403 . S
C1639 C1640 1.524 . S
C1639 C1643 1.400 . S
C1640 H1625 0.960 . S
C1640 H1626 0.960 . S
C1640 H1627 0.960 . S
C1640 C1639 1.524 . S
C1641 C1638 1.403 . S
C1641 C1642 1.392 . S
C1641 C1645 1.495 . S
C1642 C1641 1.392 . S
C1642 C1643 1.385 . S
C1642 C1644 1.491 . S
C1643 H1637 0.930 . S
C1643 C1639 1.400 . S
C1643 C1642 1.385 . S
C1644 C1642 1.491 . S
C1644 C1646 1.381 1_565 S
C1644 C1650 1.370 1_565 S
C1645 C1641 1.495 . S
C1645 H1651 0.959 . S
C1645 H1652 0.961 1_565 S
C1645 H1653 0.961 1_565 S
C1646 C1644 1.381 1_545 S
C1646 C1647 1.394 . S
C1646 H1654 0.930 . S
C1647 C1646 1.394 . S
C1647 C1648 1.383 . S
C1647 H1655 0.929 . S
C1648 C1647 1.383 . S
C1648 C1649 1.377 . S
C1649 H1633 0.930 . S
C1649 C1648 1.377 . S
C1649 C1650 1.379 . S
C1650 H1634 0.936 . S
C1650 C1644 1.370 1_545 S
C1650 C1649 1.379 . S
H1651 C1645 0.959 . S
H1652 C1645 0.961 1_545 S
H1653 C1645 0.961 1_545 S
H1654 C1646 0.930 . S
H1655 C1647 0.929 . S
H1656 C1664 0.929 . S
H1657 C1666 0.926 1_566 S
H1658 C1668 0.930 . S
H1659 C1671 0.929 . S
H1660 C1674 0.930 . S
H1661 C1676 0.960 . S
H1662 C1676 0.960 . S
H1663 C1676 0.960 . S
C1664 H1656 0.929 . S
C1664 C1665 1.377 . S
C1664 C1666 1.384 . S
C1665 C1664 1.377 . S
C1665 C1671 1.390 . S
C1666 H1657 0.926 1_544 S
C1666 C1664 1.384 . S
C1666 C1667 1.372 1_545 S
C1667 C1666 1.372 1_565 S
C1667 C1668 1.400 1_565 S
C1667 C1672 1.490 . S
C1668 H1658 0.930 . S
C1668 C1667 1.400 1_545 S
C1668 C1671 1.386 . S
H1669 C1685 0.930 . S
H1670 C1686 0.931 . S
C1671 H1659 0.929 . S
C1671 C1665 1.390 . S
C1671 C1668 1.386 . S
C1672 C1667 1.490 . S
C1672 C1674 1.394 1_554 S
C1672 C1675 1.403 . S
H1673 C1679 0.930 . S
C1674 H1660 0.930 . S
C1674 C1672 1.394 1_556 S
C1674 C1677 1.403 . S
C1675 C1672 1.403 . S
C1675 C1676 1.524 . S
C1675 C1679 1.400 . S
C1676 H1661 0.960 . S
C1676 H1662 0.960 . S
C1676 H1663 0.960 . S
C1676 C1675 1.524 . S
C1677 C1674 1.403 . S
C1677 C1678 1.392 . S
C1677 C1681 1.495 . S
C1678 C1677 1.392 . S
C1678 C1679 1.385 1_556 S
C1678 C1680 1.478 . S
C1679 H1673 0.930 . S
C1679 C1675 1.400 . S
C1679 C1678 1.385 1_554 S
C1680 C1678 1.478 . S
C1680 C1682 1.381 . S
C1680 C1686 1.383 . S
C1681 C1677 1.495 . S
C1681 H1687 0.959 . S
C1681 H1688 0.961 . S
C1681 H1689 0.960 . S
C1682 C1680 1.381 . S
C1682 C1683 1.394 . S
C1682 H1690 0.930 . S
C1683 C1682 1.394 . S
C1683 C1684 1.383 . S
C1683 H1691 0.929 . S
C1684 C1683 1.383 . S
C1684 C1685 1.377 . S
C1685 H1669 0.930 . S
C1685 C1684 1.377 . S
C1685 C1686 1.379 . S
C1686 H1670 0.931 . S
C1686 C1680 1.383 . S
C1686 C1685 1.379 . S
H1687 C1681 0.959 . S
H1688 C1681 0.961 . S
H1689 C1681 0.960 . S
H1690 C1682 0.930 . S
H1691 C1683 0.929 . S
H1692 C1700 0.929 . S
H1693 C1702 0.930 . S
H1694 C1704 0.930 . S
H1695 C1707 0.929 . S
H1696 C1710 0.930 . S
H1697 C1712 0.960 . S
H1698 C1712 0.960 . S
H1699 C1712 0.960 . S
C1700 H1692 0.929 . S
C1700 C1701 1.377 . S
C1700 C1702 1.384 . S
C1701 C1700 1.377 . S
C1701 C1707 1.390 . S
C1702 H1693 0.930 . S
C1702 C1700 1.384 . S
C1702 C1703 1.372 . S
C1703 C1702 1.372 . S
C1703 C1704 1.400 . S
C1703 C1708 1.490 . S
C1704 H1694 0.930 . S
C1704 C1703 1.400 . S
C1704 C1707 1.386 . S
H1705 C1721 0.930 . S
H1706 C1722 0.931 1_455 S
C1707 H1695 0.929 . S
C1707 C1701 1.390 . S
C1707 C1704 1.386 . S
C1708 C1703 1.490 . S
C1708 C1710 1.395 . S
C1708 C1711 1.403 . S
H1709 C1715 0.930 . S
C1710 H1696 0.930 . S
C1710 C1708 1.395 . S
C1710 C1713 1.403 . S
C1711 C1708 1.403 . S
C1711 C1712 1.524 . S
C1711 C1715 1.400 . S
C1712 H1697 0.960 . S
C1712 H1698 0.960 . S
C1712 H1699 0.960 . S
C1712 C1711 1.524 . S
C1713 C1710 1.403 . S
C1713 C1714 1.392 1_556 S
C1713 C1717 1.495 1_556 S
C1714 C1713 1.392 1_554 S
C1714 C1715 1.385 1_554 S
C1714 C1716 1.478 . S
C1715 H1709 0.930 . S
C1715 C1711 1.400 . S
C1715 C1714 1.385 1_556 S
C1716 C1714 1.478 . S
C1716 C1718 1.381 1_454 S
C1716 C1722 1.383 1_455 S
C1717 C1713 1.495 1_554 S
C1717 H1723 0.959 . S
C1717 H1724 0.961 . S
C1717 H1725 0.960 1_554 S
C1718 C1716 1.381 1_656 S
C1718 C1719 1.394 1_556 S
C1718 H1726 0.930 . S
C1719 C1718 1.394 1_554 S
C1719 C1720 1.383 . S
C1719 H1727 0.929 1_554 S
C1720 C1719 1.383 . S
C1720 C1721 1.377 . S
C1721 H1705 0.930 . S
C1721 C1720 1.377 . S
C1721 C1722 1.379 . S
C1722 H1706 0.931 1_655 S
C1722 C1716 1.383 1_655 S
C1722 C1721 1.379 . S
H1723 C1717 0.959 . S
H1724 C1717 0.961 . S
H1725 C1717 0.960 1_556 S
H1726 C1718 0.930 . S
H1727 C1719 0.929 1_556 S
H1728 C1736 0.929 . S
H1729 C1738 0.930 1_556 S
H1730 C1740 0.930 . S
H1731 C1743 0.929 . S
H1732 C1746 0.930 . S
H1733 C1748 0.960 . S
H1734 C1748 0.960 . S
H1735 C1748 0.960 . S
C1736 H1728 0.929 . S
C1736 C1737 1.377 . S
C1736 C1738 1.384 . S
C1737 C1736 1.377 . S
C1737 C1743 1.390 . S
C1738 H1729 0.930 1_554 S
C1738 C1736 1.384 . S
C1738 C1739 1.372 . S
C1739 C1738 1.372 . S
C1739 C1740 1.400 . S
C1739 C1744 1.502 . S
C1740 H1730 0.930 . S
C1740 C1739 1.400 . S
C1740 C1743 1.386 . S
H1741 C1757 0.930 . S
H1742 C1758 0.931 . S
C1743 H1731 0.929 . S
C1743 C1737 1.390 . S
C1743 C1740 1.386 . S
C1744 C1739 1.502 . S
C1744 C1746 1.400 . S
C1744 C1747 1.385 1_554 S
H1745 C1751 0.930 . S
C1746 H1732 0.930 . S
C1746 C1744 1.400 . S
C1746 C1749 1.403 1_554 S
C1747 C1744 1.385 1_556 S
C1747 C1748 1.524 . S
C1747 C1751 1.400 . S
C1748 H1733 0.960 . S
C1748 H1734 0.960 . S
C1748 H1735 0.960 . S
C1748 C1747 1.524 . S
C1749 C1746 1.403 1_556 S
C1749 C1750 1.392 . S
C1749 C1753 1.495 1_556 S
C1750 C1749 1.392 . S
C1750 C1751 1.385 . S
C1750 C1752 1.478 . S
C1751 H1745 0.930 . S
C1751 C1747 1.400 . S
C1751 C1750 1.385 . S
C1752 C1750 1.478 . S
C1752 C1754 1.381 . S
C1752 C1758 1.383 . S
C1753 C1749 1.495 1_554 S
C1753 H1759 0.959 . S
C1753 H1760 0.961 . S
C1753 H1761 0.960 1_554 S
C1754 C1752 1.381 . S
C1754 C1755 1.394 . S
C1754 H1762 0.930 . S
C1755 C1754 1.394 . S
C1755 C1756 1.383 . S
C1755 H1763 0.929 . S
C1756 C1755 1.383 . S
C1756 C1757 1.377 . S
C1757 H1741 0.930 . S
C1757 C1756 1.377 . S
C1757 C1758 1.379 . S
C1758 H1742 0.931 . S
C1758 C1752 1.383 . S
C1758 C1757 1.379 . S
H1759 C1753 0.959 . S
H1760 C1753 0.961 . S
H1761 C1753 0.960 1_556 S
H1762 C1754 0.930 . S
H1763 C1755 0.929 . S
H1764 C1772 0.929 . S
H1765 C1774 0.930 1_655 S
H1766 C1776 0.930 . S
H1767 C1779 0.929 . S
H1768 C1782 0.930 . S
H1769 C1784 0.960 . S
H1770 C1784 0.952 1_455 S
H1771 C1784 0.964 . S
C1772 H1764 0.929 . S
C1772 C1773 1.377 . S
C1772 C1774 1.384 . S
C1773 C1772 1.377 . S
C1773 C1779 1.390 . S
C1774 H1765 0.930 1_455 S
C1774 C1772 1.384 . S
C1774 C1775 1.372 1_455 S
C1775 C1774 1.372 1_655 S
C1775 C1776 1.400 1_655 S
C1775 C1780 1.490 . S
C1776 H1766 0.930 . S
C1776 C1775 1.400 1_455 S
C1776 C1779 1.386 . S
H1777 C1793 0.930 . S
H1778 C1794 0.931 . S
C1779 H1767 0.929 . S
C1779 C1773 1.390 . S
C1779 C1776 1.386 . S
C1780 C1775 1.490 . S
C1780 C1782 1.395 . S
C1780 C1783 1.403 . S
H1781 C1787 0.930 . S
C1782 H1768 0.930 . S
C1782 C1780 1.395 . S
C1782 C1785 1.403 . S
C1783 C1780 1.403 . S
C1783 C1784 1.524 . S
C1783 C1787 1.400 . S
C1784 H1769 0.960 . S
C1784 H1770 0.952 1_655 S
C1784 H1771 0.964 . S
C1784 C1783 1.524 . S
C1785 C1782 1.403 . S
C1785 C1786 1.392 . S
C1785 C1789 1.495 . S
C1786 C1785 1.392 . S
C1786 C1787 1.385 . S
C1786 C1788 1.478 . S
C1787 H1781 0.930 . S
C1787 C1783 1.400 . S
C1787 C1786 1.385 . S
C1788 C1786 1.478 . S
C1788 C1790 1.381 . S
C1788 C1794 1.383 . S
C1789 C1785 1.495 . S
C1789 H1795 0.959 . S
C1789 H1796 0.961 . S
C1789 H1797 0.960 . S
C1790 C1788 1.381 . S
C1790 C1791 1.394 . S
C1790 H1798 0.930 . S
C1791 C1790 1.394 . S
C1791 C1792 1.383 . S
C1791 H1799 0.929 . S
C1792 C1791 1.383 . S
C1792 C1793 1.377 . S
C1793 H1777 0.930 . S
C1793 C1792 1.377 . S
C1793 C1794 1.379 . S
C1794 H1778 0.931 . S
C1794 C1788 1.383 . S
C1794 C1793 1.379 . S
H1795 C1789 0.959 . S
H1796 C1789 0.961 . S
H1797 C1789 0.960 . S
H1798 C1790 0.930 . S
H1799 C1791 0.929 . S
H1800 C1808 0.929 . S
H1801 C1810 0.930 . S
H1802 C1812 0.930 . S
H1803 C1815 0.929 . S
H1804 C1818 0.930 . S
H1805 C1820 0.960 . S
H1806 C1820 0.960 . S
H1807 C1820 0.960 . S
C1808 H1800 0.929 . S
C1808 C1809 1.377 . S
C1808 C1810 1.384 . S
C1809 C1808 1.377 . S
C1809 C1815 1.390 . S
C1810 H1801 0.930 . S
C1810 C1808 1.384 . S
C1810 C1811 1.372 . S
C1811 C1810 1.372 . S
C1811 C1812 1.400 . S
C1811 C1816 1.490 . S
C1812 H1802 0.930 . S
C1812 C1811 1.400 . S
C1812 C1815 1.386 . S
H1813 C1829 0.930 . S
H1814 C1830 0.931 . S
C1815 H1803 0.929 . S
C1815 C1809 1.390 . S
C1815 C1812 1.386 . S
C1816 C1811 1.490 . S
C1816 C1818 1.395 . S
C1816 C1819 1.403 . S
H1817 C1823 0.930 . S
C1818 H1804 0.930 . S
C1818 C1816 1.395 . S
C1818 C1821 1.403 . S
C1819 C1816 1.403 . S
C1819 C1820 1.524 . S
C1819 C1823 1.400 . S
C1820 H1805 0.960 . S
C1820 H1806 0.960 . S
C1820 H1807 0.960 . S
C1820 C1819 1.524 . S
C1821 C1818 1.403 . S
C1821 C1822 1.392 . S
C1821 C1825 1.495 . S
C1822 C1821 1.392 . S
C1822 C1823 1.385 . S
C1822 C1824 1.478 . S
C1823 H1817 0.930 . S
C1823 C1819 1.400 . S
C1823 C1822 1.385 . S
C1824 C1822 1.478 . S
C1824 C1826 1.381 . S
C1824 C1830 1.383 . S
C1825 C1821 1.495 . S
C1825 H1831 0.959 . S
C1825 H1832 0.961 . S
C1825 H1833 0.960 . S
C1826 C1824 1.381 . S
C1826 C1827 1.394 . S
C1826 H1834 0.930 . S
C1827 C1826 1.394 . S
C1827 C1828 1.383 . S
C1827 H1835 0.929 . S
C1828 C1827 1.383 . S
C1828 C1829 1.377 . S
C1829 H1813 0.930 . S
C1829 C1828 1.377 . S
C1829 C1830 1.379 . S
C1830 H1814 0.931 . S
C1830 C1824 1.383 . S
C1830 C1829 1.379 . S
H1831 C1825 0.959 . S
H1832 C1825 0.961 . S
H1833 C1825 0.960 . S
H1834 C1826 0.930 . S
H1835 C1827 0.929 . S
H1836 C1844 0.929 . S
H1837 C1846 0.930 . S
H1838 C1848 0.930 . S
H1839 C1851 0.929 . S
H1840 C1854 0.930 . S
H1841 C1856 0.960 . S
H1842 C1856 0.960 . S
H1843 C1856 0.960 . S
C1844 H1836 0.929 . S
C1844 C1845 1.377 . S
C1844 C1846 1.384 . S
C1845 C1844 1.377 . S
C1845 C1851 1.390 . S
C1846 H1837 0.930 . S
C1846 C1844 1.384 . S
C1846 C1847 1.372 . S
C1847 C1846 1.372 . S
C1847 C1848 1.400 . S
C1847 C1852 1.490 . S
C1848 H1838 0.930 . S
C1848 C1847 1.400 . S
C1848 C1851 1.386 . S
H1849 C1865 0.930 . S
H1850 C1866 0.931 . S
C1851 H1839 0.929 . S
C1851 C1845 1.390 . S
C1851 C1848 1.386 . S
C1852 C1847 1.490 . S
C1852 C1854 1.395 . S
C1852 C1855 1.403 . S
H1853 C1859 0.930 . S
C1854 H1840 0.930 . S
C1854 C1852 1.395 . S
C1854 C1857 1.403 . S
C1855 C1852 1.403 . S
C1855 C1856 1.524 . S
C1855 C1859 1.400 . S
C1856 H1841 0.960 . S
C1856 H1842 0.960 . S
C1856 H1843 0.960 . S
C1856 C1855 1.524 . S
C1857 C1854 1.403 . S
C1857 C1858 1.392 . S
C1857 C1861 1.495 . S
C1858 C1857 1.392 . S
C1858 C1859 1.385 . S
C1858 C1860 1.494 . S
C1859 H1853 0.930 . S
C1859 C1855 1.400 . S
C1859 C1858 1.385 . S
C1860 C1858 1.494 . S
C1860 C1862 1.365 1_545 S
C1860 C1866 1.384 1_545 S
C1861 C1857 1.495 . S
C1861 H1867 0.959 . S
C1861 H1868 0.961 1_545 S
C1861 H1869 0.981 . S
C1862 C1860 1.365 1_565 S
C1862 C1863 1.394 . S
C1862 H1870 0.930 . S
C1863 C1862 1.394 . S
C1863 C1864 1.383 . S
C1863 H1871 0.929 . S
C1864 C1863 1.383 . S
C1864 C1865 1.377 . S
C1865 H1849 0.930 . S
C1865 C1864 1.377 . S
C1865 C1866 1.379 . S
C1866 H1850 0.931 . S
C1866 C1860 1.384 1_565 S
C1866 C1865 1.379 . S
H1867 C1861 0.959 . S
H1868 C1861 0.961 1_565 S
H1869 C1861 0.981 . S
H1870 C1862 0.930 . S
H1871 C1863 0.929 . S
H1872 C1880 0.929 . S
H1873 C1882 0.930 . S
H1874 C1884 0.930 . S
H1875 C1887 0.929 . S
H1876 C1890 0.930 . S
H1877 C1892 0.960 . S
H1878 C1892 0.960 . S
H1879 C1892 0.960 . S
C1880 H1872 0.929 . S
C1880 C1881 1.377 . S
C1880 C1882 1.384 . S
C1881 C1880 1.377 . S
C1881 C1887 1.390 . S
C1882 H1873 0.930 . S
C1882 C1880 1.384 . S
C1882 C1883 1.372 . S
C1883 C1882 1.372 . S
C1883 C1884 1.400 . S
C1883 C1888 1.490 . S
C1884 H1874 0.930 . S
C1884 C1883 1.400 . S
C1884 C1887 1.386 . S
H1885 C1901 0.930 . S
H1886 C1902 0.931 . S
C1887 H1875 0.929 . S
C1887 C1881 1.390 . S
C1887 C1884 1.386 . S
C1888 C1883 1.490 . S
C1888 C1890 1.395 . S
C1888 C1891 1.403 . S
H1889 C1895 0.930 . S
C1890 H1876 0.930 . S
C1890 C1888 1.395 . S
C1890 C1893 1.403 . S
C1891 C1888 1.403 . S
C1891 C1892 1.524 . S
C1891 C1895 1.400 . S
C1892 H1877 0.960 . S
C1892 H1878 0.960 . S
C1892 H1879 0.960 . S
C1892 C1891 1.524 . S
C1893 C1890 1.403 . S
C1893 C1894 1.392 . S
C1893 C1897 1.495 . S
C1894 C1893 1.392 . S
C1894 C1895 1.385 . S
C1894 C1896 1.478 . S
C1895 H1889 0.930 . S
C1895 C1891 1.400 . S
C1895 C1894 1.385 . S
C1896 C1894 1.478 . S
C1896 C1898 1.381 . S
C1896 C1902 1.383 . S
C1897 C1893 1.495 . S
C1897 H1903 0.959 . S
C1897 H1904 0.961 . S
C1897 H1905 0.960 . S
C1898 C1896 1.381 . S
C1898 C1899 1.394 . S
C1898 H1906 0.930 . S
C1899 C1898 1.394 . S
C1899 C1900 1.383 . S
C1899 H1907 0.929 . S
C1900 C1899 1.383 . S
C1900 C1901 1.377 . S
C1901 H1885 0.930 . S
C1901 C1900 1.377 . S
C1901 C1902 1.379 . S
C1902 H1886 0.931 . S
C1902 C1896 1.383 . S
C1902 C1901 1.379 . S
H1903 C1897 0.959 . S
H1904 C1897 0.961 . S
H1905 C1897 0.960 . S
H1906 C1898 0.930 . S
H1907 C1899 0.929 . S
H1908 C1916 0.929 . S
H1909 C1918 0.930 . S
H1910 C1920 0.930 . S
H1911 C1923 0.929 . S
H1912 C1926 0.930 . S
H1913 C1928 0.960 . S
H1914 C1928 0.960 . S
H1915 C1928 0.960 . S
C1916 H1908 0.929 . S
C1916 C1917 1.377 . S
C1916 C1918 1.384 . S
C1917 C1916 1.377 . S
C1917 C1923 1.390 . S
C1918 H1909 0.930 . S
C1918 C1916 1.384 . S
C1918 C1919 1.372 . S
C1919 C1918 1.372 . S
C1919 C1920 1.400 . S
C1919 C1924 1.490 . S
C1920 H1910 0.930 . S
C1920 C1919 1.400 . S
C1920 C1923 1.386 . S
H1921 C1937 0.930 . S
H1922 C1938 0.931 . S
C1923 H1911 0.929 . S
C1923 C1917 1.390 . S
C1923 C1920 1.386 . S
C1924 C1919 1.490 . S
C1924 C1926 1.395 . S
C1924 C1927 1.403 . S
H1925 C1931 0.930 . S
C1926 H1912 0.930 . S
C1926 C1924 1.395 . S
C1926 C1929 1.403 . S
C1927 C1924 1.403 . S
C1927 C1928 1.524 . S
C1927 C1931 1.400 . S
C1928 H1913 0.960 . S
C1928 H1914 0.960 . S
C1928 H1915 0.960 . S
C1928 C1927 1.524 . S
C1929 C1926 1.403 . S
C1929 C1930 1.392 . S
C1929 C1933 1.495 . S
C1930 C1929 1.392 . S
C1930 C1931 1.385 . S
C1930 C1932 1.478 . S
C1931 H1925 0.930 . S
C1931 C1927 1.400 . S
C1931 C1930 1.385 . S
C1932 C1930 1.478 . S
C1932 C1934 1.381 . S
C1932 C1938 1.383 . S
C1933 C1929 1.495 . S
C1933 H1939 0.959 . S
C1933 H1940 0.961 . S
C1933 H1941 0.960 . S
C1934 C1932 1.381 . S
C1934 C1935 1.394 . S
C1934 H1942 0.930 . S
C1935 C1934 1.394 . S
C1935 C1936 1.383 . S
C1935 H1943 0.929 . S
C1936 C1935 1.383 . S
C1936 C1937 1.377 . S
C1937 H1921 0.930 . S
C1937 C1936 1.377 . S
C1937 C1938 1.379 . S
C1938 H1922 0.931 . S
C1938 C1932 1.383 . S
C1938 C1937 1.379 . S
H1939 C1933 0.959 . S
H1940 C1933 0.961 . S
H1941 C1933 0.960 . S
H1942 C1934 0.930 . S
H1943 C1935 0.929 . S
H1944 C1952 0.929 . S
H1945 C1954 0.930 . S
H1946 C1956 0.930 . S
H1947 C1959 0.929 . S
H1948 C1962 0.930 . S
H1949 C1964 0.960 . S
H1950 C1964 0.960 . S
H1951 C1964 0.960 . S
C1952 H1944 0.929 . S
C1952 C1953 1.377 . S
C1952 C1954 1.384 . S
C1953 C1952 1.377 . S
C1953 C1959 1.390 . S
C1954 H1945 0.930 . S
C1954 C1952 1.384 . S
C1954 C1955 1.372 . S
C1955 C1954 1.372 . S
C1955 C1956 1.400 . S
C1955 C1960 1.490 . S
C1956 H1946 0.930 . S
C1956 C1955 1.400 . S
C1956 C1959 1.386 . S
H1957 C1973 0.930 . S
H1958 C1974 0.931 . S
C1959 H1947 0.929 . S
C1959 C1953 1.390 . S
C1959 C1956 1.386 . S
C1960 C1955 1.490 . S
C1960 C1962 1.395 . S
C1960 C1963 1.403 . S
H1961 C1967 0.930 . S
C1962 H1948 0.930 . S
C1962 C1960 1.395 . S
C1962 C1965 1.403 . S
C1963 C1960 1.403 . S
C1963 C1964 1.524 . S
C1963 C1967 1.400 . S
C1964 H1949 0.960 . S
C1964 H1950 0.960 . S
C1964 H1951 0.960 . S
C1964 C1963 1.524 . S
C1965 C1962 1.403 . S
C1965 C1966 1.392 . S
C1965 C1969 1.495 . S
C1966 C1965 1.392 . S
C1966 C1967 1.385 . S
C1966 C1968 1.478 . S
C1967 H1961 0.930 . S
C1967 C1963 1.400 . S
C1967 C1966 1.385 . S
C1968 C1966 1.478 . S
C1968 C1970 1.381 . S
C1968 C1974 1.383 . S
C1969 C1965 1.495 . S
C1969 H1975 0.959 . S
C1969 H1976 0.961 . S
C1969 H1977 0.960 . S
C1970 C1968 1.381 . S
C1970 C1971 1.394 . S
C1970 H1978 0.930 . S
C1971 C1970 1.394 . S
C1971 C1972 1.383 . S
C1971 H1979 0.929 . S
C1972 C1971 1.383 . S
C1972 C1973 1.377 . S
C1973 H1957 0.930 . S
C1973 C1972 1.377 . S
C1973 C1974 1.379 . S
C1974 H1958 0.931 . S
C1974 C1968 1.383 . S
C1974 C1973 1.379 . S
H1975 C1969 0.959 . S
H1976 C1969 0.961 . S
H1977 C1969 0.960 . S
H1978 C1970 0.930 . S
H1979 C1971 0.929 . S
H1980 C1988 0.929 . S
H1981 C1990 0.930 . S
H1982 C1992 0.930 . S
H1983 C1995 0.929 . S
H1984 C1998 0.930 . S
H1985 C2000 0.960 . S
H1986 C2000 0.960 . S
H1987 C2000 0.960 . S
C1988 H1980 0.929 . S
C1988 C1989 1.377 . S
C1988 C1990 1.384 . S
C1989 C1988 1.377 . S
C1989 C1995 1.390 . S
C1990 H1981 0.930 . S
C1990 C1988 1.384 . S
C1990 C1991 1.372 . S
C1991 C1990 1.372 . S
C1991 C1992 1.400 . S
C1991 C1996 1.490 . S
C1992 H1982 0.930 . S
C1992 C1991 1.400 . S
C1992 C1995 1.386 . S
H1993 C2009 0.930 . S
H1994 C2010 0.931 . S
C1995 H1983 0.929 . S
C1995 C1989 1.390 . S
C1995 C1992 1.386 . S
C1996 C1991 1.490 . S
C1996 C1998 1.395 . S
C1996 C1999 1.403 . S
H1997 C2003 0.930 . S
C1998 H1984 0.930 . S
C1998 C1996 1.395 . S
C1998 C2001 1.403 . S
C1999 C1996 1.403 . S
C1999 C2000 1.524 . S
C1999 C2003 1.400 . S
C2000 H1985 0.960 . S
C2000 H1986 0.960 . S
C2000 H1987 0.960 . S
C2000 C1999 1.524 . S
C2001 C1998 1.403 . S
C2001 C2002 1.392 . S
C2001 C2005 1.495 . S
C2002 C2001 1.392 . S
C2002 C2003 1.385 . S
C2002 C2004 1.478 . S
C2003 H1997 0.930 . S
C2003 C1999 1.400 . S
C2003 C2002 1.385 . S
C2004 C2002 1.478 . S
C2004 C2006 1.381 . S
C2004 C2010 1.383 . S
C2005 C2001 1.495 . S
C2005 H2011 0.959 . S
C2005 H2012 0.961 . S
C2005 H2013 0.960 . S
C2006 C2004 1.381 . S
C2006 C2007 1.394 . S
C2006 H2014 0.930 . S
C2007 C2006 1.394 . S
C2007 C2008 1.383 . S
C2007 H2015 0.929 . S
C2008 C2007 1.383 . S
C2008 C2009 1.377 . S
C2009 H1993 0.930 . S
C2009 C2008 1.377 . S
C2009 C2010 1.379 . S
C2010 H1994 0.931 . S
C2010 C2004 1.383 . S
C2010 C2009 1.379 . S
H2011 C2005 0.959 . S
H2012 C2005 0.961 . S
H2013 C2005 0.960 . S
H2014 C2006 0.930 . S
H2015 C2007 0.929 . S
H2016 C2024 0.929 . S
H2017 C2026 0.930 . S
H2018 C2028 0.930 . S
H2019 C2031 0.929 . S
H2020 C2034 0.930 . S
H2021 C2036 0.960 . S
H2022 C2036 0.960 . S
H2023 C2036 0.960 . S
C2024 H2016 0.929 . S
C2024 C2025 1.377 . S
C2024 C2026 1.384 . S
C2025 C2024 1.377 . S
C2025 C2031 1.390 . S
C2026 H2017 0.930 . S
C2026 C2024 1.384 . S
C2026 C2027 1.372 . S
C2027 C2026 1.372 . S
C2027 C2028 1.400 . S
C2027 C2032 1.490 . S
C2028 H2018 0.930 . S
C2028 C2027 1.400 . S
C2028 C2031 1.386 . S
H2029 C2045 0.930 . S
H2030 C2046 0.931 . S
C2031 H2019 0.929 . S
C2031 C2025 1.390 . S
C2031 C2028 1.386 . S
C2032 C2027 1.490 . S
C2032 C2034 1.395 . S
C2032 C2035 1.403 . S
H2033 C2039 0.930 . S
C2034 H2020 0.930 . S
C2034 C2032 1.395 . S
C2034 C2037 1.403 . S
C2035 C2032 1.403 . S
C2035 C2036 1.524 . S
C2035 C2039 1.400 . S
C2036 H2021 0.960 . S
C2036 H2022 0.960 . S
C2036 H2023 0.960 . S
C2036 C2035 1.524 . S
C2037 C2034 1.403 . S
C2037 C2038 1.392 . S
C2037 C2041 1.495 . S
C2038 C2037 1.392 . S
C2038 C2039 1.385 . S
C2038 C2040 1.478 . S
C2039 H2033 0.930 . S
C2039 C2035 1.400 . S
C2039 C2038 1.385 . S
C2040 C2038 1.478 . S
C2040 C2042 1.381 . S
C2040 C2046 1.383 . S
C2041 C2037 1.495 . S
C2041 H2047 0.959 . S
C2041 H2048 0.961 . S
C2041 H2049 0.960 . S
C2042 C2040 1.381 . S
C2042 C2043 1.394 . S
C2042 H2050 0.930 . S
C2043 C2042 1.394 . S
C2043 C2044 1.383 . S
C2043 H2051 0.929 . S
C2044 C2043 1.383 . S
C2044 C2045 1.377 . S
C2045 H2029 0.930 . S
C2045 C2044 1.377 . S
C2045 C2046 1.379 . S
C2046 H2030 0.931 . S
C2046 C2040 1.383 . S
C2046 C2045 1.379 . S
H2047 C2041 0.959 . S
H2048 C2041 0.961 . S
H2049 C2041 0.960 . S
H2050 C2042 0.930 . S
H2051 C2043 0.929 . S
H2052 C2060 0.929 . S
H2053 C2062 0.930 . S
H2054 C2064 0.930 . S
H2055 C2067 0.929 . S
H2056 C2070 0.930 . S
H2057 C2072 0.960 . S
H2058 C2072 0.960 . S
H2059 C2072 0.960 . S
C2060 H2052 0.929 . S
C2060 C2061 1.377 . S
C2060 C2062 1.384 . S
C2061 C2060 1.377 . S
C2061 C2067 1.390 . S
C2062 H2053 0.930 . S
C2062 C2060 1.384 . S
C2062 C2063 1.372 . S
C2063 C2062 1.372 . S
C2063 C2064 1.400 . S
C2063 C2068 1.490 . S
C2064 H2054 0.930 . S
C2064 C2063 1.400 . S
C2064 C2067 1.386 . S
H2065 C2081 0.930 . S
H2066 C2082 0.931 . S
C2067 H2055 0.929 . S
C2067 C2061 1.390 . S
C2067 C2064 1.386 . S
C2068 C2063 1.490 . S
C2068 C2070 1.395 . S
C2068 C2071 1.403 . S
H2069 C2075 0.930 . S
C2070 H2056 0.930 . S
C2070 C2068 1.395 . S
C2070 C2073 1.403 . S
C2071 C2068 1.403 . S
C2071 C2072 1.524 . S
C2071 C2075 1.400 . S
C2072 H2057 0.960 . S
C2072 H2058 0.960 . S
C2072 H2059 0.960 . S
C2072 C2071 1.524 . S
C2073 C2070 1.403 . S
C2073 C2074 1.392 . S
C2073 C2077 1.495 . S
C2074 C2073 1.392 . S
C2074 C2075 1.385 . S
C2074 C2076 1.478 . S
C2075 H2069 0.930 . S
C2075 C2071 1.400 . S
C2075 C2074 1.385 . S
C2076 C2074 1.478 . S
C2076 C2078 1.381 . S
C2076 C2082 1.383 . S
C2077 C2073 1.495 . S
C2077 H2083 0.959 . S
C2077 H2084 0.961 . S
C2077 H2085 0.960 . S
C2078 C2076 1.381 . S
C2078 C2079 1.394 . S
C2078 H2086 0.930 . S
C2079 C2078 1.394 . S
C2079 C2080 1.383 . S
C2079 H2087 0.929 . S
C2080 C2079 1.383 . S
C2080 C2081 1.377 . S
C2081 H2065 0.930 . S
C2081 C2080 1.377 . S
C2081 C2082 1.379 . S
C2082 H2066 0.931 . S
C2082 C2076 1.383 . S
C2082 C2081 1.379 . S
H2083 C2077 0.959 . S
H2084 C2077 0.961 . S
H2085 C2077 0.960 . S
H2086 C2078 0.930 . S
H2087 C2079 0.929 . S
H2088 C2096 0.929 . S
H2089 C2098 0.930 . S
H2090 C2100 0.930 . S
H2091 C2103 0.929 . S
H2092 C2106 0.930 . S
H2093 C2108 0.960 . S
H2094 C2108 0.960 . S
H2095 C2108 0.960 . S
C2096 H2088 0.929 . S
C2096 C2097 1.377 . S
C2096 C2098 1.384 . S
C2097 C2096 1.377 . S
C2097 C2103 1.390 . S
C2098 H2089 0.930 . S
C2098 C2096 1.384 . S
C2098 C2099 1.372 . S
C2099 C2098 1.372 . S
C2099 C2100 1.400 . S
C2099 C2104 1.490 . S
C2100 H2090 0.930 . S
C2100 C2099 1.400 . S
C2100 C2103 1.386 . S
H2101 C2117 0.930 . S
H2102 C2118 0.931 . S
C2103 H2091 0.929 . S
C2103 C2097 1.390 . S
C2103 C2100 1.386 . S
C2104 C2099 1.490 . S
C2104 C2106 1.395 . S
C2104 C2107 1.403 . S
H2105 C2111 0.930 . S
C2106 H2092 0.930 . S
C2106 C2104 1.395 . S
C2106 C2109 1.403 . S
C2107 C2104 1.403 . S
C2107 C2108 1.524 . S
C2107 C2111 1.400 . S
C2108 H2093 0.960 . S
C2108 H2094 0.960 . S
C2108 H2095 0.960 . S
C2108 C2107 1.524 . S
C2109 C2106 1.403 . S
C2109 C2110 1.392 . S
C2109 C2113 1.495 . S
C2110 C2109 1.392 . S
C2110 C2111 1.385 . S
C2110 C2112 1.478 . S
C2111 H2105 0.930 . S
C2111 C2107 1.400 . S
C2111 C2110 1.385 . S
C2112 C2110 1.478 . S
C2112 C2114 1.381 . S
C2112 C2118 1.383 . S
C2113 C2109 1.495 . S
C2113 H2119 0.959 . S
C2113 H2120 0.961 . S
C2113 H2121 0.960 . S
C2114 C2112 1.381 . S
C2114 C2115 1.394 . S
C2114 H2122 0.930 . S
C2115 C2114 1.394 . S
C2115 C2116 1.383 . S
C2115 H2123 0.929 . S
C2116 C2115 1.383 . S
C2116 C2117 1.377 . S
C2117 H2101 0.930 . S
C2117 C2116 1.377 . S
C2117 C2118 1.379 . S
C2118 H2102 0.931 . S
C2118 C2112 1.383 . S
C2118 C2117 1.379 . S
H2119 C2113 0.959 . S
H2120 C2113 0.961 . S
H2121 C2113 0.960 . S
H2122 C2114 0.930 . S
H2123 C2115 0.929 . S
H2124 C2132 0.929 . S
H2125 C2134 0.930 . S
H2126 C2136 0.930 . S
H2127 C2139 0.929 . S
H2128 C2142 0.930 . S
H2129 C2144 0.960 . S
H2130 C2144 0.960 . S
H2131 C2144 0.960 . S
C2132 H2124 0.929 . S
C2132 C2133 1.377 . S
C2132 C2134 1.384 . S
C2133 C2132 1.377 . S
C2133 C2139 1.390 . S
C2134 H2125 0.930 . S
C2134 C2132 1.384 . S
C2134 C2135 1.372 . S
C2135 C2134 1.372 . S
C2135 C2136 1.400 . S
C2135 C2140 1.490 . S
C2136 H2126 0.930 . S
C2136 C2135 1.400 . S
C2136 C2139 1.386 . S
H2137 C2153 0.930 . S
H2138 C2154 0.931 . S
C2139 H2127 0.929 . S
C2139 C2133 1.390 . S
C2139 C2136 1.386 . S
C2140 C2135 1.490 . S
C2140 C2142 1.395 . S
C2140 C2143 1.403 . S
H2141 C2147 0.930 . S
C2142 H2128 0.930 . S
C2142 C2140 1.395 . S
C2142 C2145 1.403 . S
C2143 C2140 1.403 . S
C2143 C2144 1.524 . S
C2143 C2147 1.400 . S
C2144 H2129 0.960 . S
C2144 H2130 0.960 . S
C2144 H2131 0.960 . S
C2144 C2143 1.524 . S
C2145 C2142 1.403 . S
C2145 C2146 1.392 . S
C2145 C2149 1.495 . S
C2146 C2145 1.392 . S
C2146 C2147 1.385 . S
C2146 C2148 1.478 . S
C2147 H2141 0.930 . S
C2147 C2143 1.400 . S
C2147 C2146 1.385 . S
C2148 C2146 1.478 . S
C2148 C2150 1.381 . S
C2148 C2154 1.383 . S
C2149 C2145 1.495 . S
C2149 H2155 0.959 . S
C2149 H2156 0.961 . S
C2149 H2157 0.960 . S
C2150 C2148 1.381 . S
C2150 C2151 1.394 . S
C2150 H2158 0.930 . S
C2151 C2150 1.394 . S
C2151 C2152 1.383 . S
C2151 H2159 0.929 . S
C2152 C2151 1.383 . S
C2152 C2153 1.377 . S
C2153 H2137 0.930 . S
C2153 C2152 1.377 . S
C2153 C2154 1.379 . S
C2154 H2138 0.931 . S
C2154 C2148 1.383 . S
C2154 C2153 1.379 . S
H2155 C2149 0.959 . S
H2156 C2149 0.961 . S
H2157 C2149 0.960 . S
H2158 C2150 0.930 . S
H2159 C2151 0.929 . S
H2160 C2168 0.929 . S
H2161 C2170 0.930 . S
H2162 C2172 0.930 . S
H2163 C2175 0.929 . S
H2164 C2178 0.930 . S
H2165 C2180 0.960 . S
H2166 C2180 0.960 . S
H2167 C2180 0.960 . S
C2168 H2160 0.929 . S
C2168 C2169 1.377 . S
C2168 C2170 1.384 . S
C2169 C2168 1.377 . S
C2169 C2175 1.390 . S
C2170 H2161 0.930 . S
C2170 C2168 1.384 . S
C2170 C2171 1.372 . S
C2171 C2170 1.372 . S
C2171 C2172 1.400 . S
C2171 C2176 1.490 . S
C2172 H2162 0.930 . S
C2172 C2171 1.400 . S
C2172 C2175 1.386 . S
H2173 C2189 0.930 . S
H2174 C2190 0.931 . S
C2175 H2163 0.929 . S
C2175 C2169 1.390 . S
C2175 C2172 1.386 . S
C2176 C2171 1.490 . S
C2176 C2178 1.395 . S
C2176 C2179 1.403 . S
H2177 C2183 0.930 . S
C2178 H2164 0.930 . S
C2178 C2176 1.395 . S
C2178 C2181 1.403 . S
C2179 C2176 1.403 . S
C2179 C2180 1.524 . S
C2179 C2183 1.400 . S
C2180 H2165 0.960 . S
C2180 H2166 0.960 . S
C2180 H2167 0.960 . S
C2180 C2179 1.524 . S
C2181 C2178 1.403 . S
C2181 C2182 1.392 . S
C2181 C2185 1.495 . S
C2182 C2181 1.392 . S
C2182 C2183 1.385 . S
C2182 C2184 1.478 . S
C2183 H2177 0.930 . S
C2183 C2179 1.400 . S
C2183 C2182 1.385 . S
C2184 C2182 1.478 . S
C2184 C2186 1.381 . S
C2184 C2190 1.383 . S
C2185 C2181 1.495 . S
C2185 H2191 0.959 . S
C2185 H2192 0.961 . S
C2185 H2193 0.960 . S
C2186 C2184 1.381 . S
C2186 C2187 1.394 . S
C2186 H2194 0.930 . S
C2187 C2186 1.394 . S
C2187 C2188 1.383 . S
C2187 H2195 0.929 . S
C2188 C2187 1.383 . S
C2188 C2189 1.377 . S
C2189 H2173 0.930 . S
C2189 C2188 1.377 . S
C2189 C2190 1.379 . S
C2190 H2174 0.931 . S
C2190 C2184 1.383 . S
C2190 C2189 1.379 . S
H2191 C2185 0.959 . S
H2192 C2185 0.961 . S
H2193 C2185 0.960 . S
H2194 C2186 0.930 . S
H2195 C2187 0.929 . S
H2196 C2204 0.929 . S
H2197 C2206 0.930 . S
H2198 C2208 0.930 . S
H2199 C2211 0.929 . S
H2200 C2214 0.930 . S
H2201 C2216 0.960 . S
H2202 C2216 0.960 . S
H2203 C2216 0.960 . S
C2204 H2196 0.929 . S
C2204 C2205 1.377 . S
C2204 C2206 1.384 . S
C2205 C2204 1.377 . S
C2205 C2211 1.390 . S
C2206 H2197 0.930 . S
C2206 C2204 1.384 . S
C2206 C2207 1.372 . S
C2207 C2206 1.372 . S
C2207 C2208 1.400 . S
C2207 C2212 1.490 . S
C2208 H2198 0.930 . S
C2208 C2207 1.400 . S
C2208 C2211 1.386 . S
H2209 C2225 0.930 . S
H2210 C2226 0.931 . S
C2211 H2199 0.929 . S
C2211 C2205 1.390 . S
C2211 C2208 1.386 . S
C2212 C2207 1.490 . S
C2212 C2214 1.395 . S
C2212 C2215 1.403 . S
H2213 C2219 0.930 . S
C2214 H2200 0.930 . S
C2214 C2212 1.395 . S
C2214 C2217 1.403 . S
C2215 C2212 1.403 . S
C2215 C2216 1.524 . S
C2215 C2219 1.400 . S
C2216 H2201 0.960 . S
C2216 H2202 0.960 . S
C2216 H2203 0.960 . S
C2216 C2215 1.524 . S
C2217 C2214 1.403 . S
C2217 C2218 1.392 . S
C2217 C2221 1.495 . S
C2218 C2217 1.392 . S
C2218 C2219 1.385 . S
C2218 C2220 1.478 . S
C2219 H2213 0.930 . S
C2219 C2215 1.400 . S
C2219 C2218 1.385 . S
C2220 C2218 1.478 . S
C2220 C2222 1.381 . S
C2220 C2226 1.383 . S
C2221 C2217 1.495 . S
C2221 H2227 0.959 . S
C2221 H2228 0.961 . S
C2221 H2229 0.960 . S
C2222 C2220 1.381 . S
C2222 C2223 1.394 . S
C2222 H2230 0.930 . S
C2223 C2222 1.394 . S
C2223 C2224 1.383 . S
C2223 H2231 0.929 . S
C2224 C2223 1.383 . S
C2224 C2225 1.377 . S
C2225 H2209 0.930 . S
C2225 C2224 1.377 . S
C2225 C2226 1.379 . S
C2226 H2210 0.931 . S
C2226 C2220 1.383 . S
C2226 C2225 1.379 . S
H2227 C2221 0.959 . S
H2228 C2221 0.961 . S
H2229 C2221 0.960 . S
H2230 C2222 0.930 . S
H2231 C2223 0.929 . S
H2232 C2240 0.929 . S
H2233 C2242 0.930 . S
H2234 C2244 0.930 . S
H2235 C2247 0.929 . S
H2236 C2250 0.930 . S
H2237 C2252 0.960 . S
H2238 C2252 0.960 . S
H2239 C2252 0.960 . S
C2240 H2232 0.929 . S
C2240 C2241 1.377 . S
C2240 C2242 1.384 . S
C2241 C2240 1.377 . S
C2241 C2247 1.390 . S
C2242 H2233 0.930 . S
C2242 C2240 1.384 . S
C2242 C2243 1.372 . S
C2243 C2242 1.372 . S
C2243 C2244 1.400 . S
C2243 C2248 1.490 . S
C2244 H2234 0.930 . S
C2244 C2243 1.400 . S
C2244 C2247 1.386 . S
H2245 C2261 0.930 . S
H2246 C2262 0.931 . S
C2247 H2235 0.929 . S
C2247 C2241 1.390 . S
C2247 C2244 1.386 . S
C2248 C2243 1.490 . S
C2248 C2250 1.395 . S
C2248 C2251 1.403 . S
H2249 C2255 0.930 . S
C2250 H2236 0.930 . S
C2250 C2248 1.395 . S
C2250 C2253 1.403 . S
C2251 C2248 1.403 . S
C2251 C2252 1.524 . S
C2251 C2255 1.400 . S
C2252 H2237 0.960 . S
C2252 H2238 0.960 . S
C2252 H2239 0.960 . S
C2252 C2251 1.524 . S
C2253 C2250 1.403 . S
C2253 C2254 1.392 . S
C2253 C2257 1.495 . S
C2254 C2253 1.392 . S
C2254 C2255 1.385 . S
C2254 C2256 1.478 . S
C2255 H2249 0.930 . S
C2255 C2251 1.400 . S
C2255 C2254 1.385 . S
C2256 C2254 1.478 . S
C2256 C2258 1.381 . S
C2256 C2262 1.383 . S
C2257 C2253 1.495 . S
C2257 H2263 0.959 . S
C2257 H2264 0.961 . S
C2257 H2265 0.960 . S
C2258 C2256 1.381 . S
C2258 C2259 1.394 . S
C2258 H2266 0.930 . S
C2259 C2258 1.394 . S
C2259 C2260 1.383 . S
C2259 H2267 0.929 . S
C2260 C2259 1.383 . S
C2260 C2261 1.377 . S
C2261 H2245 0.930 . S
C2261 C2260 1.377 . S
C2261 C2262 1.379 . S
C2262 H2246 0.931 . S
C2262 C2256 1.383 . S
C2262 C2261 1.379 . S
H2263 C2257 0.959 . S
H2264 C2257 0.961 . S
H2265 C2257 0.960 . S
H2266 C2258 0.930 . S
H2267 C2259 0.929 . S
H2268 C2276 0.929 . S
H2269 C2278 0.930 . S
H2270 C2280 0.930 . S
H2271 C2283 0.929 . S
H2272 C2286 0.930 . S
H2273 C2288 0.960 . S
H2274 C2288 0.960 . S
H2275 C2288 0.960 . S
C2276 H2268 0.929 . S
C2276 C2277 1.377 . S
C2276 C2278 1.384 . S
C2277 C2276 1.377 . S
C2277 C2283 1.390 . S
C2278 H2269 0.930 . S
C2278 C2276 1.384 . S
C2278 C2279 1.372 . S
C2279 C2278 1.372 . S
C2279 C2280 1.400 . S
C2279 C2284 1.490 . S
C2280 H2270 0.930 . S
C2280 C2279 1.400 . S
C2280 C2283 1.386 . S
H2281 C2297 0.930 . S
H2282 C2298 0.931 . S
C2283 H2271 0.929 . S
C2283 C2277 1.390 . S
C2283 C2280 1.386 . S
C2284 C2279 1.490 . S
C2284 C2286 1.395 . S
C2284 C2287 1.403 . S
H2285 C2291 0.930 . S
C2286 H2272 0.930 . S
C2286 C2284 1.395 . S
C2286 C2289 1.403 . S
C2287 C2284 1.403 . S
C2287 C2288 1.524 . S
C2287 C2291 1.400 . S
C2288 H2273 0.960 . S
C2288 H2274 0.960 . S
C2288 H2275 0.960 . S
C2288 C2287 1.524 . S
C2289 C2286 1.403 . S
C2289 C2290 1.392 . S
C2289 C2293 1.495 . S
C2290 C2289 1.392 . S
C2290 C2291 1.385 . S
C2290 C2292 1.478 . S
C2291 H2285 0.930 . S
C2291 C2287 1.400 . S
C2291 C2290 1.385 . S
C2292 C2290 1.478 . S
C2292 C2294 1.381 . S
C2292 C2298 1.383 . S
C2293 C2289 1.495 . S
C2293 H2299 0.959 . S
C2293 H2300 0.961 . S
C2293 H2301 0.960 . S
C2294 C2292 1.381 . S
C2294 C2295 1.394 . S
C2294 H2302 0.930 . S
C2295 C2294 1.394 . S
C2295 C2296 1.383 . S
C2295 H2303 0.929 . S
C2296 C2295 1.383 . S
C2296 C2297 1.377 . S
C2297 H2281 0.930 . S
C2297 C2296 1.377 . S
C2297 C2298 1.379 . S
C2298 H2282 0.931 . S
C2298 C2292 1.383 . S
C2298 C2297 1.379 . S
H2299 C2293 0.959 . S
H2300 C2293 0.961 . S
H2301 C2293 0.960 . S
H2302 C2294 0.930 . S
H2303 C2295 0.929 . S
H2304 C2312 0.929 . S
H2305 C2314 0.930 . S
H2306 C2316 0.930 . S
H2307 C2319 0.929 . S
H2308 C2322 0.930 . S
H2309 C2324 0.960 . S
H2310 C2324 0.960 . S
H2311 C2324 0.960 . S
C2312 H2304 0.929 . S
C2312 C2313 1.377 . S
C2312 C2314 1.384 . S
C2313 C2312 1.377 . S
C2313 C2319 1.390 . S
C2314 H2305 0.930 . S
C2314 C2312 1.384 . S
C2314 C2315 1.372 . S
C2315 C2314 1.372 . S
C2315 C2316 1.400 . S
C2315 C2320 1.490 . S
C2316 H2306 0.930 . S
C2316 C2315 1.400 . S
C2316 C2319 1.386 . S
H2317 C2333 0.930 . S
H2318 C2334 0.931 . S
C2319 H2307 0.929 . S
C2319 C2313 1.390 . S
C2319 C2316 1.386 . S
C2320 C2315 1.490 . S
C2320 C2322 1.395 . S
C2320 C2323 1.403 . S
H2321 C2327 0.930 . S
C2322 H2308 0.930 . S
C2322 C2320 1.395 . S
C2322 C2325 1.403 . S
C2323 C2320 1.403 . S
C2323 C2324 1.524 . S
C2323 C2327 1.400 . S
C2324 H2309 0.960 . S
C2324 H2310 0.960 . S
C2324 H2311 0.960 . S
C2324 C2323 1.524 . S
C2325 C2322 1.403 . S
C2325 C2326 1.392 . S
C2325 C2329 1.495 . S
C2326 C2325 1.392 . S
C2326 C2327 1.385 . S
C2326 C2328 1.478 . S
C2327 H2321 0.930 . S
C2327 C2323 1.400 . S
C2327 C2326 1.385 . S
C2328 C2326 1.478 . S
C2328 C2330 1.381 . S
C2328 C2334 1.383 . S
C2329 C2325 1.495 . S
C2329 H2335 0.959 . S
C2329 H2336 0.961 . S
C2329 H2337 0.960 . S
C2330 C2328 1.381 . S
C2330 C2331 1.394 . S
C2330 H2338 0.930 . S
C2331 C2330 1.394 . S
C2331 C2332 1.383 . S
C2331 H2339 0.929 . S
C2332 C2331 1.383 . S
C2332 C2333 1.377 . S
C2333 H2317 0.930 . S
C2333 C2332 1.377 . S
C2333 C2334 1.379 . S
C2334 H2318 0.931 . S
C2334 C2328 1.383 . S
C2334 C2333 1.379 . S
H2335 C2329 0.959 . S
H2336 C2329 0.961 . S
H2337 C2329 0.960 . S
H2338 C2330 0.930 . S
H2339 C2331 0.929 . S
H2340 C2348 0.929 . S
H2341 C2350 0.930 . S
H2342 C2352 0.930 . S
H2343 C2355 0.929 . S
H2344 C2358 0.930 . S
H2345 C2360 0.960 . S
H2346 C2360 0.960 . S
H2347 C2360 0.960 . S
C2348 H2340 0.929 . S
C2348 C2349 1.377 . S
C2348 C2350 1.384 . S
C2349 C2348 1.377 . S
C2349 C2355 1.390 . S
C2350 H2341 0.930 . S
C2350 C2348 1.384 . S
C2350 C2351 1.372 . S
C2351 C2350 1.372 . S
C2351 C2352 1.400 . S
C2351 C2356 1.490 . S
C2352 H2342 0.930 . S
C2352 C2351 1.400 . S
C2352 C2355 1.386 . S
H2353 C2369 0.930 . S
H2354 C2370 0.931 . S
C2355 H2343 0.929 . S
C2355 C2349 1.390 . S
C2355 C2352 1.386 . S
C2356 C2351 1.490 . S
C2356 C2358 1.395 . S
C2356 C2359 1.403 . S
H2357 C2363 0.930 . S
C2358 H2344 0.930 . S
C2358 C2356 1.395 . S
C2358 C2361 1.403 . S
C2359 C2356 1.403 . S
C2359 C2360 1.524 . S
C2359 C2363 1.400 . S
C2360 H2345 0.960 . S
C2360 H2346 0.960 . S
C2360 H2347 0.960 . S
C2360 C2359 1.524 . S
C2361 C2358 1.403 . S
C2361 C2362 1.392 . S
C2361 C2365 1.495 . S
C2362 C2361 1.392 . S
C2362 C2363 1.385 . S
C2362 C2364 1.478 . S
C2363 H2357 0.930 . S
C2363 C2359 1.400 . S
C2363 C2362 1.385 . S
C2364 C2362 1.478 . S
C2364 C2366 1.381 . S
C2364 C2370 1.383 . S
C2365 C2361 1.495 . S
C2365 H2371 0.959 . S
C2365 H2372 0.961 . S
C2365 H2373 0.960 . S
C2366 C2364 1.381 . S
C2366 C2367 1.394 . S
C2366 H2374 0.930 . S
C2367 C2366 1.394 . S
C2367 C2368 1.383 . S
C2367 H2375 0.929 . S
C2368 C2367 1.383 . S
C2368 C2369 1.377 . S
C2369 H2353 0.930 . S
C2369 C2368 1.377 . S
C2369 C2370 1.379 . S
C2370 H2354 0.931 . S
C2370 C2364 1.383 . S
C2370 C2369 1.379 . S
H2371 C2365 0.959 . S
H2372 C2365 0.961 . S
H2373 C2365 0.960 . S
H2374 C2366 0.930 . S
H2375 C2367 0.929 . S
H2376 C2384 0.929 . S
H2377 C2386 0.930 . S
H2378 C2388 0.930 . S
H2379 C2391 0.929 . S
H2380 C2394 0.930 . S
H2381 C2396 0.960 . S
H2382 C2396 0.960 . S
H2383 C2396 0.960 . S
C2384 H2376 0.929 . S
C2384 C2385 1.377 . S
C2384 C2386 1.384 . S
C2385 C2384 1.377 . S
C2385 C2391 1.390 . S
C2386 H2377 0.930 . S
C2386 C2384 1.384 . S
C2386 C2387 1.372 . S
C2387 C2386 1.372 . S
C2387 C2388 1.400 . S
C2387 C2392 1.490 . S
C2388 H2378 0.930 . S
C2388 C2387 1.400 . S
C2388 C2391 1.386 . S
H2389 C2405 0.930 . S
H2390 C2406 0.931 . S
C2391 H2379 0.929 . S
C2391 C2385 1.390 . S
C2391 C2388 1.386 . S
C2392 C2387 1.490 . S
C2392 C2394 1.395 . S
C2392 C2395 1.403 . S
H2393 C2399 0.930 . S
C2394 H2380 0.930 . S
C2394 C2392 1.395 . S
C2394 C2397 1.403 . S
C2395 C2392 1.403 . S
C2395 C2396 1.524 . S
C2395 C2399 1.400 . S
C2396 H2381 0.960 . S
C2396 H2382 0.960 . S
C2396 H2383 0.960 . S
C2396 C2395 1.524 . S
C2397 C2394 1.403 . S
C2397 C2398 1.392 . S
C2397 C2401 1.495 . S
C2398 C2397 1.392 . S
C2398 C2399 1.385 . S
C2398 C2400 1.478 . S
C2399 H2393 0.930 . S
C2399 C2395 1.400 . S
C2399 C2398 1.385 . S
C2400 C2398 1.478 . S
C2400 C2402 1.381 . S
C2400 C2406 1.383 . S
C2401 C2397 1.495 . S
C2401 H2407 0.959 . S
C2401 H2408 0.961 . S
C2401 H2409 0.960 . S
C2402 C2400 1.381 . S
C2402 C2403 1.394 . S
C2402 H2410 0.930 . S
C2403 C2402 1.394 . S
C2403 C2404 1.383 . S
C2403 H2411 0.929 . S
C2404 C2403 1.383 . S
C2404 C2405 1.377 . S
C2405 H2389 0.930 . S
C2405 C2404 1.377 . S
C2405 C2406 1.379 . S
C2406 H2390 0.931 . S
C2406 C2400 1.383 . S
C2406 C2405 1.379 . S
H2407 C2401 0.959 . S
H2408 C2401 0.961 . S
H2409 C2401 0.960 . S
H2410 C2402 0.930 . S
H2411 C2403 0.929 . S
H2412 C2420 0.929 . S
H2413 C2422 0.930 . S
H2414 C2424 0.930 . S
H2415 C2427 0.929 . S
H2416 C2430 0.930 . S
H2417 C2432 0.960 . S
H2418 C2432 0.960 . S
H2419 C2432 0.960 . S
C2420 H2412 0.929 . S
C2420 C2421 1.377 . S
C2420 C2422 1.384 . S
C2421 C2420 1.377 . S
C2421 C2427 1.390 . S
C2422 H2413 0.930 . S
C2422 C2420 1.384 . S
C2422 C2423 1.372 . S
C2423 C2422 1.372 . S
C2423 C2424 1.400 . S
C2423 C2428 1.490 . S
C2424 H2414 0.930 . S
C2424 C2423 1.400 . S
C2424 C2427 1.386 . S
H2425 C2441 0.930 . S
H2426 C2442 0.931 . S
C2427 H2415 0.929 . S
C2427 C2421 1.390 . S
C2427 C2424 1.386 . S
C2428 C2423 1.490 . S
C2428 C2430 1.395 . S
C2428 C2431 1.403 . S
H2429 C2435 0.930 . S
C2430 H2416 0.930 . S
C2430 C2428 1.395 . S
C2430 C2433 1.403 . S
C2431 C2428 1.403 . S
C2431 C2432 1.524 . S
C2431 C2435 1.400 . S
C2432 H2417 0.960 . S
C2432 H2418 0.960 . S
C2432 H2419 0.960 . S
C2432 C2431 1.524 . S
C2433 C2430 1.403 . S
C2433 C2434 1.392 . S
C2433 C2437 1.495 . S
C2434 C2433 1.392 . S
C2434 C2435 1.385 . S
C2434 C2436 1.478 . S
C2435 H2429 0.930 . S
C2435 C2431 1.400 . S
C2435 C2434 1.385 . S
C2436 C2434 1.478 . S
C2436 C2438 1.381 . S
C2436 C2442 1.383 . S
C2437 C2433 1.495 . S
C2437 H2443 0.959 . S
C2437 H2444 0.961 . S
C2437 H2445 0.960 . S
C2438 C2436 1.381 . S
C2438 C2439 1.394 . S
C2438 H2446 0.930 . S
C2439 C2438 1.394 . S
C2439 C2440 1.383 . S
C2439 H2447 0.929 . S
C2440 C2439 1.383 . S
C2440 C2441 1.377 . S
C2441 H2425 0.930 . S
C2441 C2440 1.377 . S
C2441 C2442 1.379 . S
C2442 H2426 0.931 . S
C2442 C2436 1.383 . S
C2442 C2441 1.379 . S
H2443 C2437 0.959 . S
H2444 C2437 0.961 . S
H2445 C2437 0.960 . S
H2446 C2438 0.930 . S
H2447 C2439 0.929 . S
H2448 C2456 0.929 . S
H2449 C2458 0.930 . S
H2450 C2460 0.930 . S
H2451 C2463 0.929 . S
H2452 C2466 0.930 . S
H2453 C2468 0.960 . S
H2454 C2468 0.960 . S
H2455 C2468 0.960 . S
C2456 H2448 0.929 . S
C2456 C2457 1.377 . S
C2456 C2458 1.384 . S
C2457 C2456 1.377 . S
C2457 C2463 1.390 . S
C2458 H2449 0.930 . S
C2458 C2456 1.384 . S
C2458 C2459 1.372 . S
C2459 C2458 1.372 . S
C2459 C2460 1.400 . S
C2459 C2464 1.490 . S
C2460 H2450 0.930 . S
C2460 C2459 1.400 . S
C2460 C2463 1.386 . S
H2461 C2477 0.930 . S
H2462 C2478 0.931 . S
C2463 H2451 0.929 . S
C2463 C2457 1.390 . S
C2463 C2460 1.386 . S
C2464 C2459 1.490 . S
C2464 C2466 1.395 . S
C2464 C2467 1.403 . S
H2465 C2471 0.930 . S
C2466 H2452 0.930 . S
C2466 C2464 1.395 . S
C2466 C2469 1.403 . S
C2467 C2464 1.403 . S
C2467 C2468 1.524 . S
C2467 C2471 1.400 . S
C2468 H2453 0.960 . S
C2468 H2454 0.960 . S
C2468 H2455 0.960 . S
C2468 C2467 1.524 . S
C2469 C2466 1.403 . S
C2469 C2470 1.392 . S
C2469 C2473 1.495 . S
C2470 C2469 1.392 . S
C2470 C2471 1.385 . S
C2470 C2472 1.478 . S
C2471 H2465 0.930 . S
C2471 C2467 1.400 . S
C2471 C2470 1.385 . S
C2472 C2470 1.478 . S
C2472 C2474 1.381 . S
C2472 C2478 1.383 . S
C2473 C2469 1.495 . S
C2473 H2479 0.959 . S
C2473 H2480 0.961 . S
C2473 H2481 0.960 . S
C2474 C2472 1.381 . S
C2474 C2475 1.394 . S
C2474 H2482 0.930 . S
C2475 C2474 1.394 . S
C2475 C2476 1.383 . S
C2475 H2483 0.929 . S
C2476 C2475 1.383 . S
C2476 C2477 1.377 . S
C2477 H2461 0.930 . S
C2477 C2476 1.377 . S
C2477 C2478 1.379 . S
C2478 H2462 0.931 . S
C2478 C2472 1.383 . S
C2478 C2477 1.379 . S
H2479 C2473 0.959 . S
H2480 C2473 0.961 . S
H2481 C2473 0.960 . S
H2482 C2474 0.930 . S
H2483 C2475 0.929 . S
H2484 C2492 0.929 . S
H2485 C2494 0.930 . S
H2486 C2496 0.930 . S
H2487 C2499 0.929 . S
H2488 C2502 0.930 . S
H2489 C2504 0.960 . S
H2490 C2504 0.960 . S
H2491 C2504 0.960 . S
C2492 H2484 0.929 . S
C2492 C2493 1.377 . S
C2492 C2494 1.384 . S
C2493 C2492 1.377 . S
C2493 C2499 1.390 . S
C2494 H2485 0.930 . S
C2494 C2492 1.384 . S
C2494 C2495 1.372 . S
C2495 C2494 1.372 . S
C2495 C2496 1.400 . S
C2495 C2500 1.490 . S
C2496 H2486 0.930 . S
C2496 C2495 1.400 . S
C2496 C2499 1.386 . S
H2497 C2513 0.930 . S
H2498 C2514 0.931 . S
C2499 H2487 0.929 . S
C2499 C2493 1.390 . S
C2499 C2496 1.386 . S
C2500 C2495 1.490 . S
C2500 C2502 1.395 . S
C2500 C2503 1.403 . S
H2501 C2507 0.930 . S
C2502 H2488 0.930 . S
C2502 C2500 1.395 . S
C2502 C2505 1.403 . S
C2503 C2500 1.403 . S
C2503 C2504 1.524 . S
C2503 C2507 1.400 . S
C2504 H2489 0.960 . S
C2504 H2490 0.960 . S
C2504 H2491 0.960 . S
C2504 C2503 1.524 . S
C2505 C2502 1.403 . S
C2505 C2506 1.392 . S
C2505 C2509 1.495 . S
C2506 C2505 1.392 . S
C2506 C2507 1.385 . S
C2506 C2508 1.478 . S
C2507 H2501 0.930 . S
C2507 C2503 1.400 . S
C2507 C2506 1.385 . S
C2508 C2506 1.478 . S
C2508 C2510 1.381 . S
C2508 C2514 1.383 . S
C2509 C2505 1.495 . S
C2509 H2515 0.959 . S
C2509 H2516 0.961 . S
C2509 H2517 0.960 . S
C2510 C2508 1.381 . S
C2510 C2511 1.394 . S
C2510 H2518 0.930 . S
C2511 C2510 1.394 . S
C2511 C2512 1.383 . S
C2511 H2519 0.929 . S
C2512 C2511 1.383 . S
C2512 C2513 1.377 . S
C2513 H2497 0.930 . S
C2513 C2512 1.377 . S
C2513 C2514 1.379 . S
C2514 H2498 0.931 . S
C2514 C2508 1.383 . S
C2514 C2513 1.379 . S
H2515 C2509 0.959 . S
H2516 C2509 0.961 . S
H2517 C2509 0.960 . S
H2518 C2510 0.930 . S
H2519 C2511 0.929 . S
H2520 C2528 0.929 . S
H2521 C2530 0.930 . S
H2522 C2532 0.930 . S
H2523 C2535 0.929 . S
H2524 C2538 0.930 . S
H2525 C2540 0.960 . S
H2526 C2540 0.960 . S
H2527 C2540 0.960 . S
C2528 H2520 0.929 . S
C2528 C2529 1.377 . S
C2528 C2530 1.384 . S
C2529 C2528 1.377 . S
C2529 C2535 1.390 . S
C2530 H2521 0.930 . S
C2530 C2528 1.384 . S
C2530 C2531 1.372 . S
C2531 C2530 1.372 . S
C2531 C2532 1.400 . S
C2531 C2536 1.490 . S
C2532 H2522 0.930 . S
C2532 C2531 1.400 . S
C2532 C2535 1.386 . S
H2533 C2549 0.930 . S
H2534 C2550 0.931 . S
C2535 H2523 0.929 . S
C2535 C2529 1.390 . S
C2535 C2532 1.386 . S
C2536 C2531 1.490 . S
C2536 C2538 1.395 . S
C2536 C2539 1.403 . S
H2537 C2543 0.930 . S
C2538 H2524 0.930 . S
C2538 C2536 1.395 . S
C2538 C2541 1.403 . S
C2539 C2536 1.403 . S
C2539 C2540 1.524 . S
C2539 C2543 1.400 . S
C2540 H2525 0.960 . S
C2540 H2526 0.960 . S
C2540 H2527 0.960 . S
C2540 C2539 1.524 . S
C2541 C2538 1.403 . S
C2541 C2542 1.392 . S
C2541 C2545 1.495 . S
C2542 C2541 1.392 . S
C2542 C2543 1.385 . S
C2542 C2544 1.478 . S
C2543 H2537 0.930 . S
C2543 C2539 1.400 . S
C2543 C2542 1.385 . S
C2544 C2542 1.478 . S
C2544 C2546 1.381 . S
C2544 C2550 1.383 . S
C2545 C2541 1.495 . S
C2545 H2551 0.959 . S
C2545 H2552 0.961 . S
C2545 H2553 0.960 . S
C2546 C2544 1.381 . S
C2546 C2547 1.394 . S
C2546 H2554 0.930 . S
C2547 C2546 1.394 . S
C2547 C2548 1.383 . S
C2547 H2555 0.929 . S
C2548 C2547 1.383 . S
C2548 C2549 1.377 . S
C2549 H2533 0.930 . S
C2549 C2548 1.377 . S
C2549 C2550 1.379 . S
C2550 H2534 0.931 . S
C2550 C2544 1.383 . S
C2550 C2549 1.379 . S
H2551 C2545 0.959 . S
H2552 C2545 0.961 . S
H2553 C2545 0.960 . S
H2554 C2546 0.930 . S
H2555 C2547 0.929 . S
H2556 C2564 0.929 . S
H2557 C2566 0.930 . S
H2558 C2568 0.930 . S
H2559 C2571 0.929 . S
H2560 C2574 0.930 . S
H2561 C2576 0.960 . S
H2562 C2576 0.960 . S
H2563 C2576 0.960 . S
C2564 H2556 0.929 . S
C2564 C2565 1.377 . S
C2564 C2566 1.384 . S
C2565 C2564 1.377 . S
C2565 C2571 1.390 . S
C2566 H2557 0.930 . S
C2566 C2564 1.384 . S
C2566 C2567 1.372 . S
C2567 C2566 1.372 . S
C2567 C2568 1.400 . S
C2567 C2572 1.490 . S
C2568 H2558 0.930 . S
C2568 C2567 1.400 . S
C2568 C2571 1.386 . S
H2569 C2585 0.930 . S
H2570 C2586 0.931 . S
C2571 H2559 0.929 . S
C2571 C2565 1.390 . S
C2571 C2568 1.386 . S
C2572 C2567 1.490 . S
C2572 C2574 1.395 . S
C2572 C2575 1.403 . S
H2573 C2579 0.930 . S
C2574 H2560 0.930 . S
C2574 C2572 1.395 . S
C2574 C2577 1.403 . S
C2575 C2572 1.403 . S
C2575 C2576 1.524 . S
C2575 C2579 1.400 . S
C2576 H2561 0.960 . S
C2576 H2562 0.960 . S
C2576 H2563 0.960 . S
C2576 C2575 1.524 . S
C2577 C2574 1.403 . S
C2577 C2578 1.392 . S
C2577 C2581 1.495 . S
C2578 C2577 1.392 . S
C2578 C2579 1.385 . S
C2578 C2580 1.478 . S
C2579 H2573 0.930 . S
C2579 C2575 1.400 . S
C2579 C2578 1.385 . S
C2580 C2578 1.478 . S
C2580 C2582 1.381 . S
C2580 C2586 1.383 . S
C2581 C2577 1.495 . S
C2581 H2587 0.959 . S
C2581 H2588 0.961 . S
C2581 H2589 0.960 . S
C2582 C2580 1.381 . S
C2582 C2583 1.394 . S
C2582 H2590 0.930 . S
C2583 C2582 1.394 . S
C2583 C2584 1.383 . S
C2583 H2591 0.929 . S
C2584 C2583 1.383 . S
C2584 C2585 1.377 . S
C2585 H2569 0.930 . S
C2585 C2584 1.377 . S
C2585 C2586 1.379 . S
C2586 H2570 0.931 . S
C2586 C2580 1.383 . S
C2586 C2585 1.379 . S
H2587 C2581 0.959 . S
H2588 C2581 0.961 . S
H2589 C2581 0.960 . S
H2590 C2582 0.930 . S
H2591 C2583 0.929 . S
H2592 C2600 0.929 . S
H2593 C2602 0.930 . S
H2594 C2604 0.930 . S
H2595 C2607 0.929 . S
H2596 C2610 0.930 . S
H2597 C2612 0.960 . S
H2598 C2612 0.960 . S
H2599 C2612 0.960 . S
C2600 H2592 0.929 . S
C2600 C2601 1.377 . S
C2600 C2602 1.384 . S
C2601 C2600 1.377 . S
C2601 C2607 1.390 . S
C2602 H2593 0.930 . S
C2602 C2600 1.384 . S
C2602 C2603 1.372 . S
C2603 C2602 1.372 . S
C2603 C2604 1.400 . S
C2603 C2608 1.490 . S
C2604 H2594 0.930 . S
C2604 C2603 1.400 . S
C2604 C2607 1.386 . S
H2605 C2621 0.930 . S
H2606 C2622 0.931 . S
C2607 H2595 0.929 . S
C2607 C2601 1.390 . S
C2607 C2604 1.386 . S
C2608 C2603 1.490 . S
C2608 C2610 1.395 . S
C2608 C2611 1.403 . S
H2609 C2615 0.930 . S
C2610 H2596 0.930 . S
C2610 C2608 1.395 . S
C2610 C2613 1.403 . S
C2611 C2608 1.403 . S
C2611 C2612 1.524 . S
C2611 C2615 1.400 . S
C2612 H2597 0.960 . S
C2612 H2598 0.960 . S
C2612 H2599 0.960 . S
C2612 C2611 1.524 . S
C2613 C2610 1.403 . S
C2613 C2614 1.392 . S
C2613 C2617 1.495 . S
C2614 C2613 1.392 . S
C2614 C2615 1.385 . S
C2614 C2616 1.478 . S
C2615 H2609 0.930 . S
C2615 C2611 1.400 . S
C2615 C2614 1.385 . S
C2616 C2614 1.478 . S
C2616 C2618 1.381 . S
C2616 C2622 1.383 . S
C2617 C2613 1.495 . S
C2617 H2623 0.959 . S
C2617 H2624 0.961 . S
C2617 H2625 0.960 . S
C2618 C2616 1.381 . S
C2618 C2619 1.394 . S
C2618 H2626 0.930 . S
C2619 C2618 1.394 . S
C2619 C2620 1.383 . S
C2619 H2627 0.929 . S
C2620 C2619 1.383 . S
C2620 C2621 1.377 . S
C2621 H2605 0.930 . S
C2621 C2620 1.377 . S
C2621 C2622 1.379 . S
C2622 H2606 0.931 . S
C2622 C2616 1.383 . S
C2622 C2621 1.379 . S
H2623 C2617 0.959 . S
H2624 C2617 0.961 . S
H2625 C2617 0.960 . S
H2626 C2618 0.930 . S
H2627 C2619 0.929 . S
H2628 C2636 0.929 . S
H2629 C2638 0.930 . S
H2630 C2640 0.930 . S
H2631 C2643 0.929 . S
H2632 C2646 0.930 . S
H2633 C2648 0.960 . S
H2634 C2648 0.960 . S
H2635 C2648 0.960 . S
C2636 H2628 0.929 . S
C2636 C2637 1.377 . S
C2636 C2638 1.384 . S
C2637 C2636 1.377 . S
C2637 C2643 1.390 . S
C2638 H2629 0.930 . S
C2638 C2636 1.384 . S
C2638 C2639 1.372 . S
C2639 C2638 1.372 . S
C2639 C2640 1.400 . S
C2639 C2644 1.490 . S
C2640 H2630 0.930 . S
C2640 C2639 1.400 . S
C2640 C2643 1.386 . S
H2641 C2657 0.930 . S
H2642 C2658 0.931 . S
C2643 H2631 0.929 . S
C2643 C2637 1.390 . S
C2643 C2640 1.386 . S
C2644 C2639 1.490 . S
C2644 C2646 1.395 . S
C2644 C2647 1.403 . S
H2645 C2651 0.930 . S
C2646 H2632 0.930 . S
C2646 C2644 1.395 . S
C2646 C2649 1.403 . S
C2647 C2644 1.403 . S
C2647 C2648 1.524 . S
C2647 C2651 1.400 . S
C2648 H2633 0.960 . S
C2648 H2634 0.960 . S
C2648 H2635 0.960 . S
C2648 C2647 1.524 . S
C2649 C2646 1.403 . S
C2649 C2650 1.392 . S
C2649 C2653 1.495 . S
C2650 C2649 1.392 . S
C2650 C2651 1.385 . S
C2650 C2652 1.478 . S
C2651 H2645 0.930 . S
C2651 C2647 1.400 . S
C2651 C2650 1.385 . S
C2652 C2650 1.478 . S
C2652 C2654 1.381 . S
C2652 C2658 1.383 . S
C2653 C2649 1.495 . S
C2653 H2659 0.959 . S
C2653 H2660 0.961 . S
C2653 H2661 0.960 . S
C2654 C2652 1.381 . S
C2654 C2655 1.394 . S
C2654 H2662 0.930 . S
C2655 C2654 1.394 . S
C2655 C2656 1.383 . S
C2655 H2663 0.929 . S
C2656 C2655 1.383 . S
C2656 C2657 1.377 . S
C2657 H2641 0.930 . S
C2657 C2656 1.377 . S
C2657 C2658 1.379 . S
C2658 H2642 0.931 . S
C2658 C2652 1.383 . S
C2658 C2657 1.379 . S
H2659 C2653 0.959 . S
H2660 C2653 0.961 . S
H2661 C2653 0.960 . S
H2662 C2654 0.930 . S
H2663 C2655 0.929 . S
H2664 C2672 0.929 . S
H2665 C2674 0.930 . S
H2666 C2676 0.930 . S
H2667 C2679 0.929 . S
H2668 C2682 0.930 . S
H2669 C2684 0.960 . S
H2670 C2684 0.960 . S
H2671 C2684 0.960 . S
C2672 H2664 0.929 . S
C2672 C2673 1.377 . S
C2672 C2674 1.384 . S
C2673 C2672 1.377 . S
C2673 C2679 1.390 . S
C2674 H2665 0.930 . S
C2674 C2672 1.384 . S
C2674 C2675 1.372 . S
C2675 C2674 1.372 . S
C2675 C2676 1.400 . S
C2675 C2680 1.490 . S
C2676 H2666 0.930 . S
C2676 C2675 1.400 . S
C2676 C2679 1.386 . S
H2677 C2693 0.930 . S
H2678 C2694 0.931 . S
C2679 H2667 0.929 . S
C2679 C2673 1.390 . S
C2679 C2676 1.386 . S
C2680 C2675 1.490 . S
C2680 C2682 1.395 . S
C2680 C2683 1.403 . S
H2681 C2687 0.930 . S
C2682 H2668 0.930 . S
C2682 C2680 1.395 . S
C2682 C2685 1.403 . S
C2683 C2680 1.403 . S
C2683 C2684 1.524 . S
C2683 C2687 1.400 . S
C2684 H2669 0.960 . S
C2684 H2670 0.960 . S
C2684 H2671 0.960 . S
C2684 C2683 1.524 . S
C2685 C2682 1.403 . S
C2685 C2686 1.392 . S
C2685 C2689 1.495 . S
C2686 C2685 1.392 . S
C2686 C2687 1.385 . S
C2686 C2688 1.478 . S
C2687 H2681 0.930 . S
C2687 C2683 1.400 . S
C2687 C2686 1.385 . S
C2688 C2686 1.478 . S
C2688 C2690 1.381 . S
C2688 C2694 1.383 . S
C2689 C2685 1.495 . S
C2689 H2695 0.959 . S
C2689 H2696 0.961 . S
C2689 H2697 0.960 . S
C2690 C2688 1.381 . S
C2690 C2691 1.394 . S
C2690 H2698 0.930 . S
C2691 C2690 1.394 . S
C2691 C2692 1.383 . S
C2691 H2699 0.929 . S
C2692 C2691 1.383 . S
C2692 C2693 1.377 . S
C2693 H2677 0.930 . S
C2693 C2692 1.377 . S
C2693 C2694 1.379 . S
C2694 H2678 0.931 . S
C2694 C2688 1.383 . S
C2694 C2693 1.379 . S
H2695 C2689 0.959 . S
H2696 C2689 0.961 . S
H2697 C2689 0.960 . S
H2698 C2690 0.930 . S
H2699 C2691 0.929 . S
H2700 C2708 0.929 . S
H2701 C2710 0.930 . S
H2702 C2712 0.930 . S
H2703 C2715 0.929 . S
H2704 C2718 0.930 . S
H2705 C2720 0.960 . S
H2706 C2720 0.960 . S
H2707 C2720 0.960 . S
C2708 H2700 0.929 . S
C2708 C2709 1.377 . S
C2708 C2710 1.384 . S
C2709 C2708 1.377 . S
C2709 C2715 1.390 . S
C2710 H2701 0.930 . S
C2710 C2708 1.384 . S
C2710 C2711 1.372 . S
C2711 C2710 1.372 . S
C2711 C2712 1.400 . S
C2711 C2716 1.490 . S
C2712 H2702 0.930 . S
C2712 C2711 1.400 . S
C2712 C2715 1.386 . S
H2713 C2729 0.930 . S
H2714 C2730 0.931 . S
C2715 H2703 0.929 . S
C2715 C2709 1.390 . S
C2715 C2712 1.386 . S
C2716 C2711 1.490 . S
C2716 C2718 1.395 . S
C2716 C2719 1.403 . S
H2717 C2723 0.930 . S
C2718 H2704 0.930 . S
C2718 C2716 1.395 . S
C2718 C2721 1.403 . S
C2719 C2716 1.403 . S
C2719 C2720 1.524 . S
C2719 C2723 1.400 . S
C2720 H2705 0.960 . S
C2720 H2706 0.960 . S
C2720 H2707 0.960 . S
C2720 C2719 1.524 . S
C2721 C2718 1.403 . S
C2721 C2722 1.392 . S
C2721 C2725 1.495 . S
C2722 C2721 1.392 . S
C2722 C2723 1.385 . S
C2722 C2724 1.478 . S
C2723 H2717 0.930 . S
C2723 C2719 1.400 . S
C2723 C2722 1.385 . S
C2724 C2722 1.478 . S
C2724 C2726 1.381 . S
C2724 C2730 1.383 . S
C2725 C2721 1.495 . S
C2725 H2731 0.959 . S
C2725 H2732 0.961 . S
C2725 H2733 0.960 . S
C2726 C2724 1.381 . S
C2726 C2727 1.394 . S
C2726 H2734 0.930 . S
C2727 C2726 1.394 . S
C2727 C2728 1.383 . S
C2727 H2735 0.929 . S
C2728 C2727 1.383 . S
C2728 C2729 1.377 . S
C2729 H2713 0.930 . S
C2729 C2728 1.377 . S
C2729 C2730 1.379 . S
C2730 H2714 0.931 . S
C2730 C2724 1.383 . S
C2730 C2729 1.379 . S
H2731 C2725 0.959 . S
H2732 C2725 0.961 . S
H2733 C2725 0.960 . S
H2734 C2726 0.930 . S
H2735 C2727 0.929 . S
H2736 C2744 0.929 . S
H2737 C2746 0.930 . S
H2738 C2748 0.930 . S
H2739 C2751 0.929 . S
H2740 C2754 0.930 . S
H2741 C2756 0.960 . S
H2742 C2756 0.960 . S
H2743 C2756 0.960 . S
C2744 H2736 0.929 . S
C2744 C2745 1.377 . S
C2744 C2746 1.384 . S
C2745 C2744 1.377 . S
C2745 C2751 1.390 . S
C2746 H2737 0.930 . S
C2746 C2744 1.384 . S
C2746 C2747 1.372 . S
C2747 C2746 1.372 . S
C2747 C2748 1.400 . S
C2747 C2752 1.490 . S
C2748 H2738 0.930 . S
C2748 C2747 1.400 . S
C2748 C2751 1.386 . S
H2749 C2765 0.930 . S
H2750 C2766 0.931 . S
C2751 H2739 0.929 . S
C2751 C2745 1.390 . S
C2751 C2748 1.386 . S
C2752 C2747 1.490 . S
C2752 C2754 1.395 . S
C2752 C2755 1.403 . S
H2753 C2759 0.930 . S
C2754 H2740 0.930 . S
C2754 C2752 1.395 . S
C2754 C2757 1.403 . S
C2755 C2752 1.403 . S
C2755 C2756 1.524 . S
C2755 C2759 1.400 . S
C2756 H2741 0.960 . S
C2756 H2742 0.960 . S
C2756 H2743 0.960 . S
C2756 C2755 1.524 . S
C2757 C2754 1.403 . S
C2757 C2758 1.392 . S
C2757 C2761 1.495 . S
C2758 C2757 1.392 . S
C2758 C2759 1.385 . S
C2758 C2760 1.478 . S
C2759 H2753 0.930 . S
C2759 C2755 1.400 . S
C2759 C2758 1.385 . S
C2760 C2758 1.478 . S
C2760 C2762 1.381 . S
C2760 C2766 1.383 . S
C2761 C2757 1.495 . S
C2761 H2767 0.959 . S
C2761 H2768 0.961 . S
C2761 H2769 0.960 . S
C2762 C2760 1.381 . S
C2762 C2763 1.394 . S
C2762 H2770 0.930 . S
C2763 C2762 1.394 . S
C2763 C2764 1.383 . S
C2763 H2771 0.929 . S
C2764 C2763 1.383 . S
C2764 C2765 1.377 . S
C2765 H2749 0.930 . S
C2765 C2764 1.377 . S
C2765 C2766 1.379 . S
C2766 H2750 0.931 . S
C2766 C2760 1.383 . S
C2766 C2765 1.379 . S
H2767 C2761 0.959 . S
H2768 C2761 0.961 . S
H2769 C2761 0.960 . S
H2770 C2762 0.930 . S
H2771 C2763 0.929 . S
H2772 C2780 0.929 . S
H2773 C2782 0.930 . S
H2774 C2784 0.930 . S
H2775 C2787 0.929 . S
H2776 C2790 0.930 . S
H2777 C2792 0.960 . S
H2778 C2792 0.960 . S
H2779 C2792 0.960 . S
C2780 H2772 0.929 . S
C2780 C2781 1.377 . S
C2780 C2782 1.384 . S
C2781 C2780 1.377 . S
C2781 C2787 1.390 . S
C2782 H2773 0.930 . S
C2782 C2780 1.384 . S
C2782 C2783 1.372 . S
C2783 C2782 1.372 . S
C2783 C2784 1.400 . S
C2783 C2788 1.490 . S
C2784 H2774 0.930 . S
C2784 C2783 1.400 . S
C2784 C2787 1.386 . S
H2785 C2801 0.930 . S
H2786 C2802 0.931 . S
C2787 H2775 0.929 . S
C2787 C2781 1.390 . S
C2787 C2784 1.386 . S
C2788 C2783 1.490 . S
C2788 C2790 1.395 . S
C2788 C2791 1.403 . S
H2789 C2795 0.930 . S
C2790 H2776 0.930 . S
C2790 C2788 1.395 . S
C2790 C2793 1.403 . S
C2791 C2788 1.403 . S
C2791 C2792 1.524 . S
C2791 C2795 1.400 . S
C2792 H2777 0.960 . S
C2792 H2778 0.960 . S
C2792 H2779 0.960 . S
C2792 C2791 1.524 . S
C2793 C2790 1.403 . S
C2793 C2794 1.392 . S
C2793 C2797 1.495 . S
C2794 C2793 1.392 . S
C2794 C2795 1.385 . S
C2794 C2796 1.478 . S
C2795 H2789 0.930 . S
C2795 C2791 1.400 . S
C2795 C2794 1.385 . S
C2796 C2794 1.478 . S
C2796 C2798 1.381 . S
C2796 C2802 1.383 . S
C2797 C2793 1.495 . S
C2797 H2803 0.959 . S
C2797 H2804 0.961 . S
C2797 H2805 0.960 . S
C2798 C2796 1.381 . S
C2798 C2799 1.394 . S
C2798 H2806 0.930 . S
C2799 C2798 1.394 . S
C2799 C2800 1.383 . S
C2799 H2807 0.929 . S
C2800 C2799 1.383 . S
C2800 C2801 1.377 . S
C2801 H2785 0.930 . S
C2801 C2800 1.377 . S
C2801 C2802 1.379 . S
C2802 H2786 0.931 . S
C2802 C2796 1.383 . S
C2802 C2801 1.379 . S
H2803 C2797 0.959 . S
H2804 C2797 0.961 . S
H2805 C2797 0.960 . S
H2806 C2798 0.930 . S
H2807 C2799 0.929 . S
H2808 C2816 0.929 . S
H2809 C2818 0.930 . S
H2810 C2820 0.930 . S
H2811 C2823 0.929 . S
H2812 C2826 0.930 . S
H2813 C2828 0.960 . S
H2814 C2828 0.960 . S
H2815 C2828 0.960 . S
C2816 H2808 0.929 . S
C2816 C2817 1.377 . S
C2816 C2818 1.384 . S
C2817 C2816 1.377 . S
C2817 C2823 1.390 . S
C2818 H2809 0.930 . S
C2818 C2816 1.384 . S
C2818 C2819 1.372 . S
C2819 C2818 1.372 . S
C2819 C2820 1.400 . S
C2819 C2824 1.490 . S
C2820 H2810 0.930 . S
C2820 C2819 1.400 . S
C2820 C2823 1.386 . S
H2821 C2837 0.930 . S
H2822 C2838 0.931 . S
C2823 H2811 0.929 . S
C2823 C2817 1.390 . S
C2823 C2820 1.386 . S
C2824 C2819 1.490 . S
C2824 C2826 1.395 . S
C2824 C2827 1.403 . S
H2825 C2831 0.930 . S
C2826 H2812 0.930 . S
C2826 C2824 1.395 . S
C2826 C2829 1.403 . S
C2827 C2824 1.403 . S
C2827 C2828 1.524 . S
C2827 C2831 1.400 . S
C2828 H2813 0.960 . S
C2828 H2814 0.960 . S
C2828 H2815 0.960 . S
C2828 C2827 1.524 . S
C2829 C2826 1.403 . S
C2829 C2830 1.392 . S
C2829 C2833 1.495 . S
C2830 C2829 1.392 . S
C2830 C2831 1.385 . S
C2830 C2832 1.478 . S
C2831 H2825 0.930 . S
C2831 C2827 1.400 . S
C2831 C2830 1.385 . S
C2832 C2830 1.478 . S
C2832 C2834 1.381 . S
C2832 C2838 1.383 . S
C2833 C2829 1.495 . S
C2833 H2839 0.959 . S
C2833 H2840 0.961 . S
C2833 H2841 0.960 . S
C2834 C2832 1.381 . S
C2834 C2835 1.394 . S
C2834 H2842 0.930 . S
C2835 C2834 1.394 . S
C2835 C2836 1.383 . S
C2835 H2843 0.929 . S
C2836 C2835 1.383 . S
C2836 C2837 1.377 . S
C2837 H2821 0.930 . S
C2837 C2836 1.377 . S
C2837 C2838 1.379 . S
C2838 H2822 0.931 . S
C2838 C2832 1.383 . S
C2838 C2837 1.379 . S
H2839 C2833 0.959 . S
H2840 C2833 0.961 . S
H2841 C2833 0.960 . S
H2842 C2834 0.930 . S
H2843 C2835 0.929 . S
H2844 C2852 0.929 . S
H2845 C2854 0.930 . S
H2846 C2856 0.930 . S
H2847 C2859 0.929 . S
H2848 C2862 0.930 . S
H2849 C2864 0.960 . S
H2850 C2864 0.960 . S
H2851 C2864 0.960 . S
C2852 H2844 0.929 . S
C2852 C2853 1.377 . S
C2852 C2854 1.384 . S
C2853 C2852 1.377 . S
C2853 C2859 1.390 . S
C2854 H2845 0.930 . S
C2854 C2852 1.384 . S
C2854 C2855 1.372 . S
C2855 C2854 1.372 . S
C2855 C2856 1.400 . S
C2855 C2860 1.490 . S
C2856 H2846 0.930 . S
C2856 C2855 1.400 . S
C2856 C2859 1.386 . S
H2857 C2873 0.930 . S
H2858 C2874 0.931 . S
C2859 H2847 0.929 . S
C2859 C2853 1.390 . S
C2859 C2856 1.386 . S
C2860 C2855 1.490 . S
C2860 C2862 1.395 . S
C2860 C2863 1.403 . S
H2861 C2867 0.930 . S
C2862 H2848 0.930 . S
C2862 C2860 1.395 . S
C2862 C2865 1.403 . S
C2863 C2860 1.403 . S
C2863 C2864 1.524 . S
C2863 C2867 1.400 . S
C2864 H2849 0.960 . S
C2864 H2850 0.960 . S
C2864 H2851 0.960 . S
C2864 C2863 1.524 . S
C2865 C2862 1.403 . S
C2865 C2866 1.392 . S
C2865 C2869 1.495 . S
C2866 C2865 1.392 . S
C2866 C2867 1.385 . S
C2866 C2868 1.478 . S
C2867 H2861 0.930 . S
C2867 C2863 1.400 . S
C2867 C2866 1.385 . S
C2868 C2866 1.478 . S
C2868 C2870 1.381 . S
C2868 C2874 1.383 . S
C2869 C2865 1.495 . S
C2869 H2875 0.959 . S
C2869 H2876 0.961 . S
C2869 H2877 0.960 . S
C2870 C2868 1.381 . S
C2870 C2871 1.394 . S
C2870 H2878 0.930 . S
C2871 C2870 1.394 . S
C2871 C2872 1.383 . S
C2871 H2879 0.929 . S
C2872 C2871 1.383 . S
C2872 C2873 1.377 . S
C2873 H2857 0.930 . S
C2873 C2872 1.377 . S
C2873 C2874 1.379 . S
C2874 H2858 0.931 . S
C2874 C2868 1.383 . S
C2874 C2873 1.379 . S
H2875 C2869 0.959 . S
H2876 C2869 0.961 . S
H2877 C2869 0.960 . S
H2878 C2870 0.930 . S
H2879 C2871 0.929 . S
H2880 C2888 0.929 . S
H2881 C2890 0.930 . S
H2882 C2892 0.930 . S
H2883 C2895 0.929 . S
H2884 C2898 0.930 . S
H2885 C2900 0.960 . S
H2886 C2900 0.960 . S
H2887 C2900 0.960 . S
C2888 H2880 0.929 . S
C2888 C2889 1.377 . S
C2888 C2890 1.384 . S
C2889 C2888 1.377 . S
C2889 C2895 1.390 . S
C2890 H2881 0.930 . S
C2890 C2888 1.384 . S
C2890 C2891 1.372 . S
C2891 C2890 1.372 . S
C2891 C2892 1.400 . S
C2891 C2896 1.490 . S
C2892 H2882 0.930 . S
C2892 C2891 1.400 . S
C2892 C2895 1.386 . S
H2893 C2909 0.930 . S
H2894 C2910 0.931 . S
C2895 H2883 0.929 . S
C2895 C2889 1.390 . S
C2895 C2892 1.386 . S
C2896 C2891 1.490 . S
C2896 C2898 1.395 . S
C2896 C2899 1.403 . S
H2897 C2903 0.930 . S
C2898 H2884 0.930 . S
C2898 C2896 1.395 . S
C2898 C2901 1.403 . S
C2899 C2896 1.403 . S
C2899 C2900 1.524 . S
C2899 C2903 1.400 . S
C2900 H2885 0.960 . S
C2900 H2886 0.960 . S
C2900 H2887 0.960 . S
C2900 C2899 1.524 . S
C2901 C2898 1.403 . S
C2901 C2902 1.392 . S
C2901 C2905 1.495 . S
C2902 C2901 1.392 . S
C2902 C2903 1.385 . S
C2902 C2904 1.478 . S
C2903 H2897 0.930 . S
C2903 C2899 1.400 . S
C2903 C2902 1.385 . S
C2904 C2902 1.478 . S
C2904 C2906 1.381 . S
C2904 C2910 1.383 . S
C2905 C2901 1.495 . S
C2905 H2911 0.959 . S
C2905 H2912 0.961 . S
C2905 H2913 0.960 . S
C2906 C2904 1.381 . S
C2906 C2907 1.394 . S
C2906 H2914 0.930 . S
C2907 C2906 1.394 . S
C2907 C2908 1.383 . S
C2907 H2915 0.929 . S
C2908 C2907 1.383 . S
C2908 C2909 1.377 . S
C2909 H2893 0.930 . S
C2909 C2908 1.377 . S
C2909 C2910 1.379 . S
C2910 H2894 0.931 . S
C2910 C2904 1.383 . S
C2910 C2909 1.379 . S
H2911 C2905 0.959 . S
H2912 C2905 0.961 . S
H2913 C2905 0.960 . S
H2914 C2906 0.930 . S
H2915 C2907 0.929 . S
H2916 C2924 0.929 . S
H2917 C2926 0.930 . S
H2918 C2928 0.930 . S
H2919 C2931 0.929 . S
H2920 C2934 0.930 . S
H2921 C2936 0.960 . S
H2922 C2936 0.960 . S
H2923 C2936 0.960 . S
C2924 H2916 0.929 . S
C2924 C2925 1.377 . S
C2924 C2926 1.384 . S
C2925 C2924 1.377 . S
C2925 C2931 1.390 . S
C2926 H2917 0.930 . S
C2926 C2924 1.384 . S
C2926 C2927 1.372 . S
C2927 C2926 1.372 . S
C2927 C2928 1.400 . S
C2927 C2932 1.490 . S
C2928 H2918 0.930 . S
C2928 C2927 1.400 . S
C2928 C2931 1.386 . S
H2929 C2945 0.930 . S
H2930 C2946 0.931 . S
C2931 H2919 0.929 . S
C2931 C2925 1.390 . S
C2931 C2928 1.386 . S
C2932 C2927 1.490 . S
C2932 C2934 1.395 . S
C2932 C2935 1.403 . S
H2933 C2939 0.930 . S
C2934 H2920 0.930 . S
C2934 C2932 1.395 . S
C2934 C2937 1.403 . S
C2935 C2932 1.403 . S
C2935 C2936 1.524 . S
C2935 C2939 1.400 . S
C2936 H2921 0.960 . S
C2936 H2922 0.960 . S
C2936 H2923 0.960 . S
C2936 C2935 1.524 . S
C2937 C2934 1.403 . S
C2937 C2938 1.392 . S
C2937 C2941 1.495 . S
C2938 C2937 1.392 . S
C2938 C2939 1.385 . S
C2938 C2940 1.478 . S
C2939 H2933 0.930 . S
C2939 C2935 1.400 . S
C2939 C2938 1.385 . S
C2940 C2938 1.478 . S
C2940 C2942 1.381 . S
C2940 C2946 1.383 . S
C2941 C2937 1.495 . S
C2941 H2947 0.959 . S
C2941 H2948 0.961 . S
C2941 H2949 0.960 . S
C2942 C2940 1.381 . S
C2942 C2943 1.394 . S
C2942 H2950 0.930 . S
C2943 C2942 1.394 . S
C2943 C2944 1.383 . S
C2943 H2951 0.929 . S
C2944 C2943 1.383 . S
C2944 C2945 1.377 . S
C2945 H2929 0.930 . S
C2945 C2944 1.377 . S
C2945 C2946 1.379 . S
C2946 H2930 0.931 . S
C2946 C2940 1.383 . S
C2946 C2945 1.379 . S
H2947 C2941 0.959 . S
H2948 C2941 0.961 . S
H2949 C2941 0.960 . S
H2950 C2942 0.930 . S
H2951 C2943 0.929 . S
H2952 C2960 0.929 . S
H2953 C2962 0.930 . S
H2954 C2964 0.930 . S
H2955 C2967 0.929 . S
H2956 C2970 0.930 . S
H2957 C2972 0.960 . S
H2958 C2972 0.960 . S
H2959 C2972 0.960 . S
C2960 H2952 0.929 . S
C2960 C2961 1.377 . S
C2960 C2962 1.384 . S
C2961 C2960 1.377 . S
C2961 C2967 1.390 . S
C2962 H2953 0.930 . S
C2962 C2960 1.384 . S
C2962 C2963 1.372 . S
C2963 C2962 1.372 . S
C2963 C2964 1.400 . S
C2963 C2968 1.490 . S
C2964 H2954 0.930 . S
C2964 C2963 1.400 . S
C2964 C2967 1.386 . S
H2965 C2981 0.930 . S
H2966 C2982 0.931 . S
C2967 H2955 0.929 . S
C2967 C2961 1.390 . S
C2967 C2964 1.386 . S
C2968 C2963 1.490 . S
C2968 C2970 1.395 . S
C2968 C2971 1.403 . S
H2969 C2975 0.930 . S
C2970 H2956 0.930 . S
C2970 C2968 1.395 . S
C2970 C2973 1.403 . S
C2971 C2968 1.403 . S
C2971 C2972 1.524 . S
C2971 C2975 1.400 . S
C2972 H2957 0.960 . S
C2972 H2958 0.960 . S
C2972 H2959 0.960 . S
C2972 C2971 1.524 . S
C2973 C2970 1.403 . S
C2973 C2974 1.392 . S
C2973 C2977 1.495 . S
C2974 C2973 1.392 . S
C2974 C2975 1.385 . S
C2974 C2976 1.478 . S
C2975 H2969 0.930 . S
C2975 C2971 1.400 . S
C2975 C2974 1.385 . S
C2976 C2974 1.478 . S
C2976 C2978 1.381 . S
C2976 C2982 1.383 . S
C2977 C2973 1.495 . S
C2977 H2983 0.959 . S
C2977 H2984 0.961 . S
C2977 H2985 0.960 . S
C2978 C2976 1.381 . S
C2978 C2979 1.394 . S
C2978 H2986 0.930 . S
C2979 C2978 1.394 . S
C2979 C2980 1.383 . S
C2979 H2987 0.929 . S
C2980 C2979 1.383 . S
C2980 C2981 1.377 . S
C2981 H2965 0.930 . S
C2981 C2980 1.377 . S
C2981 C2982 1.379 . S
C2982 H2966 0.931 . S
C2982 C2976 1.383 . S
C2982 C2981 1.379 . S
H2983 C2977 0.959 . S
H2984 C2977 0.961 . S
H2985 C2977 0.960 . S
H2986 C2978 0.930 . S
H2987 C2979 0.929 . S
H2988 C2996 0.929 . S
H2989 C2998 0.930 . S
H2990 C3000 0.930 . S
H2991 C3003 0.929 . S
H2992 C3006 0.930 . S
H2993 C3008 0.960 . S
H2994 C3008 0.960 . S
H2995 C3008 0.960 . S
C2996 H2988 0.929 . S
C2996 C2997 1.377 . S
C2996 C2998 1.384 . S
C2997 C2996 1.377 . S
C2997 C3003 1.390 . S
C2998 H2989 0.930 . S
C2998 C2996 1.384 . S
C2998 C2999 1.372 . S
C2999 C2998 1.372 . S
C2999 C3000 1.400 . S
C2999 C3004 1.490 . S
C3000 H2990 0.930 . S
C3000 C2999 1.400 . S
C3000 C3003 1.386 . S
H3001 C3017 0.930 . S
H3002 C3018 0.931 . S
C3003 H2991 0.929 . S
C3003 C2997 1.390 . S
C3003 C3000 1.386 . S
C3004 C2999 1.490 . S
C3004 C3006 1.395 . S
C3004 C3007 1.403 . S
H3005 C3011 0.930 . S
C3006 H2992 0.930 . S
C3006 C3004 1.395 . S
C3006 C3009 1.403 . S
C3007 C3004 1.403 . S
C3007 C3008 1.524 . S
C3007 C3011 1.400 . S
C3008 H2993 0.960 . S
C3008 H2994 0.960 . S
C3008 H2995 0.960 . S
C3008 C3007 1.524 . S
C3009 C3006 1.403 . S
C3009 C3010 1.392 . S
C3009 C3013 1.495 . S
C3010 C3009 1.392 . S
C3010 C3011 1.385 . S
C3010 C3012 1.478 . S
C3011 H3005 0.930 . S
C3011 C3007 1.400 . S
C3011 C3010 1.385 . S
C3012 C3010 1.478 . S
C3012 C3014 1.381 . S
C3012 C3018 1.383 . S
C3013 C3009 1.495 . S
C3013 H3019 0.959 . S
C3013 H3020 0.961 . S
C3013 H3021 0.960 . S
C3014 C3012 1.381 . S
C3014 C3015 1.394 . S
C3014 H3022 0.930 . S
C3015 C3014 1.394 . S
C3015 C3016 1.383 . S
C3015 H3023 0.929 . S
C3016 C3015 1.383 . S
C3016 C3017 1.377 . S
C3017 H3001 0.930 . S
C3017 C3016 1.377 . S
C3017 C3018 1.379 . S
C3018 H3002 0.931 . S
C3018 C3012 1.383 . S
C3018 C3017 1.379 . S
H3019 C3013 0.959 . S
H3020 C3013 0.961 . S
H3021 C3013 0.960 . S
H3022 C3014 0.930 . S
H3023 C3015 0.929 . S
H3024 C3032 0.929 . S
H3025 C3034 0.930 . S
H3026 C3036 0.930 . S
H3027 C3039 0.929 . S
H3028 C3042 0.930 . S
H3029 C3044 0.960 . S
H3030 C3044 0.960 . S
H3031 C3044 0.960 . S
C3032 H3024 0.929 . S
C3032 C3033 1.377 . S
C3032 C3034 1.384 . S
C3033 C3032 1.377 . S
C3033 C3039 1.390 . S
C3034 H3025 0.930 . S
C3034 C3032 1.384 . S
C3034 C3035 1.372 . S
C3035 C3034 1.372 . S
C3035 C3036 1.400 . S
C3035 C3040 1.490 . S
C3036 H3026 0.930 . S
C3036 C3035 1.400 . S
C3036 C3039 1.386 . S
H3037 C3053 0.930 . S
H3038 C3054 0.931 . S
C3039 H3027 0.929 . S
C3039 C3033 1.390 . S
C3039 C3036 1.386 . S
C3040 C3035 1.490 . S
C3040 C3042 1.395 . S
C3040 C3043 1.403 . S
H3041 C3047 0.930 . S
C3042 H3028 0.930 . S
C3042 C3040 1.395 . S
C3042 C3045 1.403 . S
C3043 C3040 1.403 . S
C3043 C3044 1.524 . S
C3043 C3047 1.400 . S
C3044 H3029 0.960 . S
C3044 H3030 0.960 . S
C3044 H3031 0.960 . S
C3044 C3043 1.524 . S
C3045 C3042 1.403 . S
C3045 C3046 1.392 . S
C3045 C3049 1.495 . S
C3046 C3045 1.392 . S
C3046 C3047 1.385 . S
C3046 C3048 1.478 . S
C3047 H3041 0.930 . S
C3047 C3043 1.400 . S
C3047 C3046 1.385 . S
C3048 C3046 1.478 . S
C3048 C3050 1.381 . S
C3048 C3054 1.383 . S
C3049 C3045 1.495 . S
C3049 H3055 0.959 . S
C3049 H3056 0.961 . S
C3049 H3057 0.960 . S
C3050 C3048 1.381 . S
C3050 C3051 1.394 . S
C3050 H3058 0.930 . S
C3051 C3050 1.394 . S
C3051 C3052 1.383 . S
C3051 H3059 0.929 . S
C3052 C3051 1.383 . S
C3052 C3053 1.377 . S
C3053 H3037 0.930 . S
C3053 C3052 1.377 . S
C3053 C3054 1.379 . S
C3054 H3038 0.931 . S
C3054 C3048 1.383 . S
C3054 C3053 1.379 . S
H3055 C3049 0.959 . S
H3056 C3049 0.961 . S
H3057 C3049 0.960 . S
H3058 C3050 0.930 . S
H3059 C3051 0.929 . S
H3060 C3068 0.929 . S
H3061 C3070 0.930 . S
H3062 C3072 0.930 . S
H3063 C3075 0.929 . S
H3064 C3078 0.930 . S
H3065 C3080 0.960 . S
H3066 C3080 0.960 . S
H3067 C3080 0.960 . S
C3068 H3060 0.929 . S
C3068 C3069 1.377 . S
C3068 C3070 1.384 . S
C3069 C3068 1.377 . S
C3069 C3075 1.390 . S
C3070 H3061 0.930 . S
C3070 C3068 1.384 . S
C3070 C3071 1.372 . S
C3071 C3070 1.372 . S
C3071 C3072 1.400 . S
C3071 C3076 1.490 . S
C3072 H3062 0.930 . S
C3072 C3071 1.400 . S
C3072 C3075 1.386 . S
H3073 C3089 0.930 . S
H3074 C3090 0.931 . S
C3075 H3063 0.929 . S
C3075 C3069 1.390 . S
C3075 C3072 1.386 . S
C3076 C3071 1.490 . S
C3076 C3078 1.395 . S
C3076 C3079 1.403 . S
H3077 C3083 0.930 . S
C3078 H3064 0.930 . S
C3078 C3076 1.395 . S
C3078 C3081 1.403 . S
C3079 C3076 1.403 . S
C3079 C3080 1.524 . S
C3079 C3083 1.400 . S
C3080 H3065 0.960 . S
C3080 H3066 0.960 . S
C3080 H3067 0.960 . S
C3080 C3079 1.524 . S
C3081 C3078 1.403 . S
C3081 C3082 1.392 . S
C3081 C3085 1.495 . S
C3082 C3081 1.392 . S
C3082 C3083 1.385 . S
C3082 C3084 1.478 . S
C3083 H3077 0.930 . S
C3083 C3079 1.400 . S
C3083 C3082 1.385 . S
C3084 C3082 1.478 . S
C3084 C3086 1.381 . S
C3084 C3090 1.383 . S
C3085 C3081 1.495 . S
C3085 H3091 0.959 . S
C3085 H3092 0.961 . S
C3085 H3093 0.960 . S
C3086 C3084 1.381 . S
C3086 C3087 1.394 . S
C3086 H3094 0.930 . S
C3087 C3086 1.394 . S
C3087 C3088 1.383 . S
C3087 H3095 0.929 . S
C3088 C3087 1.383 . S
C3088 C3089 1.377 . S
C3089 H3073 0.930 . S
C3089 C3088 1.377 . S
C3089 C3090 1.379 . S
C3090 H3074 0.931 . S
C3090 C3084 1.383 . S
C3090 C3089 1.379 . S
H3091 C3085 0.959 . S
H3092 C3085 0.961 . S
H3093 C3085 0.960 . S
H3094 C3086 0.930 . S
H3095 C3087 0.929 . S
H3096 C3104 0.929 . S
H3097 C3106 0.930 . S
H3098 C3108 0.930 . S
H3099 C3111 0.929 . S
H3100 C3114 0.930 . S
H3101 C3116 0.960 . S
H3102 C3116 0.960 . S
H3103 C3116 0.960 . S
C3104 H3096 0.929 . S
C3104 C3105 1.377 . S
C3104 C3106 1.384 . S
C3105 C3104 1.377 . S
C3105 C3111 1.390 . S
C3106 H3097 0.930 . S
C3106 C3104 1.384 . S
C3106 C3107 1.372 . S
C3107 C3106 1.372 . S
C3107 C3108 1.400 . S
C3107 C3112 1.490 . S
C3108 H3098 0.930 . S
C3108 C3107 1.400 . S
C3108 C3111 1.386 . S
H3109 C3125 0.930 . S
H3110 C3126 0.931 . S
C3111 H3099 0.929 . S
C3111 C3105 1.390 . S
C3111 C3108 1.386 . S
C3112 C3107 1.490 . S
C3112 C3114 1.395 . S
C3112 C3115 1.403 . S
H3113 C3119 0.930 . S
C3114 H3100 0.930 . S
C3114 C3112 1.395 . S
C3114 C3117 1.403 . S
C3115 C3112 1.403 . S
C3115 C3116 1.524 . S
C3115 C3119 1.400 . S
C3116 H3101 0.960 . S
C3116 H3102 0.960 . S
C3116 H3103 0.960 . S
C3116 C3115 1.524 . S
C3117 C3114 1.403 . S
C3117 C3118 1.392 . S
C3117 C3121 1.495 . S
C3118 C3117 1.392 . S
C3118 C3119 1.385 . S
C3118 C3120 1.478 . S
C3119 H3113 0.930 . S
C3119 C3115 1.400 . S
C3119 C3118 1.385 . S
C3120 C3118 1.478 . S
C3120 C3122 1.381 . S
C3120 C3126 1.383 . S
C3121 C3117 1.495 . S
C3121 H3127 0.959 . S
C3121 H3128 0.961 . S
C3121 H3129 0.960 . S
C3122 C3120 1.381 . S
C3122 C3123 1.394 . S
C3122 H3130 0.930 . S
C3123 C3122 1.394 . S
C3123 C3124 1.383 . S
C3123 H3131 0.929 . S
C3124 C3123 1.383 . S
C3124 C3125 1.377 . S
C3125 H3109 0.930 . S
C3125 C3124 1.377 . S
C3125 C3126 1.379 . S
C3126 H3110 0.931 . S
C3126 C3120 1.383 . S
C3126 C3125 1.379 . S
H3127 C3121 0.959 . S
H3128 C3121 0.961 . S
H3129 C3121 0.960 . S
H3130 C3122 0.930 . S
H3131 C3123 0.929 . S
H3132 C3140 0.929 . S
H3133 C3142 0.930 . S
H3134 C3144 0.930 . S
H3135 C3147 0.929 . S
H3136 C3150 0.930 . S
H3137 C3152 0.960 . S
H3138 C3152 0.960 . S
H3139 C3152 0.960 . S
C3140 H3132 0.929 . S
C3140 C3141 1.377 . S
C3140 C3142 1.384 . S
C3141 C3140 1.377 . S
C3141 C3147 1.390 . S
C3142 H3133 0.930 . S
C3142 C3140 1.384 . S
C3142 C3143 1.372 . S
C3143 C3142 1.372 . S
C3143 C3144 1.400 . S
C3143 C3148 1.490 . S
C3144 H3134 0.930 . S
C3144 C3143 1.400 . S
C3144 C3147 1.386 . S
H3145 C3161 0.930 . S
H3146 C3162 0.931 . S
C3147 H3135 0.929 . S
C3147 C3141 1.390 . S
C3147 C3144 1.386 . S
C3148 C3143 1.490 . S
C3148 C3150 1.395 . S
C3148 C3151 1.403 . S
H3149 C3155 0.930 . S
C3150 H3136 0.930 . S
C3150 C3148 1.395 . S
C3150 C3153 1.403 . S
C3151 C3148 1.403 . S
C3151 C3152 1.524 . S
C3151 C3155 1.400 . S
C3152 H3137 0.960 . S
C3152 H3138 0.960 . S
C3152 H3139 0.960 . S
C3152 C3151 1.524 . S
C3153 C3150 1.403 . S
C3153 C3154 1.392 . S
C3153 C3157 1.495 . S
C3154 C3153 1.392 . S
C3154 C3155 1.385 . S
C3154 C3156 1.478 . S
C3155 H3149 0.930 . S
C3155 C3151 1.400 . S
C3155 C3154 1.385 . S
C3156 C3154 1.478 . S
C3156 C3158 1.381 . S
C3156 C3162 1.383 . S
C3157 C3153 1.495 . S
C3157 H3163 0.959 . S
C3157 H3164 0.961 . S
C3157 H3165 0.960 . S
C3158 C3156 1.381 . S
C3158 C3159 1.394 . S
C3158 H3166 0.930 . S
C3159 C3158 1.394 . S
C3159 C3160 1.383 . S
C3159 H3167 0.929 . S
C3160 C3159 1.383 . S
C3160 C3161 1.377 . S
C3161 H3145 0.930 . S
C3161 C3160 1.377 . S
C3161 C3162 1.379 . S
C3162 H3146 0.931 . S
C3162 C3156 1.383 . S
C3162 C3161 1.379 . S
H3163 C3157 0.959 . S
H3164 C3157 0.961 . S
H3165 C3157 0.960 . S
H3166 C3158 0.930 . S
H3167 C3159 0.929 . S
H3168 C3176 0.929 . S
H3169 C3178 0.930 . S
H3170 C3180 0.930 . S
H3171 C3183 0.929 . S
H3172 C3186 0.930 . S
H3173 C3188 0.960 . S
H3174 C3188 0.960 . S
H3175 C3188 0.960 1_655 S
C3176 H3168 0.929 . S
C3176 C3177 1.377 . S
C3176 C3178 1.384 . S
C3177 C3176 1.377 . S
C3177 C3183 1.390 . S
C3178 H3169 0.930 . S
C3178 C3176 1.384 . S
C3178 C3179 1.372 . S
C3179 C3178 1.372 . S
C3179 C3180 1.400 . S
C3179 C3184 1.490 . S
C3180 H3170 0.930 . S
C3180 C3179 1.400 . S
C3180 C3183 1.386 . S
H3181 C3197 0.930 . S
H3182 C3198 0.931 . S
C3183 H3171 0.929 . S
C3183 C3177 1.390 . S
C3183 C3180 1.386 . S
C3184 C3179 1.490 . S
C3184 C3186 1.395 . S
C3184 C3187 1.403 1_655 S
H3185 C3191 0.930 . S
C3186 H3172 0.930 . S
C3186 C3184 1.395 . S
C3186 C3189 1.403 . S
C3187 C3184 1.403 1_455 S
C3187 C3188 1.524 . S
C3187 C3191 1.400 . S
C3188 H3173 0.960 . S
C3188 H3174 0.960 . S
C3188 H3175 0.960 1_455 S
C3188 C3187 1.524 . S
C3189 C3186 1.403 . S
C3189 C3190 1.392 1_655 S
C3189 C3193 1.495 . S
C3190 C3189 1.392 1_455 S
C3190 C3191 1.385 . S
C3190 C3192 1.478 . S
C3191 H3185 0.930 . S
C3191 C3187 1.400 . S
C3191 C3190 1.385 . S
C3192 C3190 1.478 . S
C3192 C3194 1.381 . S
C3192 C3198 1.383 . S
C3193 C3189 1.495 . S
C3193 H3199 0.959 . S
C3193 H3200 0.961 . S
C3193 H3201 0.960 1_655 S
C3194 C3192 1.381 . S
C3194 C3195 1.394 . S
C3194 H3202 0.930 . S
C3195 C3194 1.394 . S
C3195 C3196 1.383 . S
C3195 H3203 0.929 . S
C3196 C3195 1.383 . S
C3196 C3197 1.377 . S
C3197 H3181 0.930 . S
C3197 C3196 1.377 . S
C3197 C3198 1.379 . S
C3198 H3182 0.931 . S
C3198 C3192 1.383 . S
C3198 C3197 1.379 . S
H3199 C3193 0.959 . S
H3200 C3193 0.961 . S
H3201 C3193 0.960 1_455 S
H3202 C3194 0.930 . S
H3203 C3195 0.929 . S
H3204 C3212 0.929 . S
H3205 C3214 0.930 . S
H3206 C3216 0.930 . S
H3207 C3219 0.929 . S
H3208 C3222 0.930 . S
H3209 C3224 0.960 . S
H3210 C3224 0.960 . S
H3211 C3224 0.960 . S
C3212 H3204 0.929 . S
C3212 C3213 1.377 . S
C3212 C3214 1.384 . S
C3213 C3212 1.377 . S
C3213 C3219 1.390 . S
C3214 H3205 0.930 . S
C3214 C3212 1.384 . S
C3214 C3215 1.372 . S
C3215 C3214 1.372 . S
C3215 C3216 1.400 . S
C3215 C3220 1.490 . S
C3216 H3206 0.930 . S
C3216 C3215 1.400 . S
C3216 C3219 1.386 . S
H3217 C3233 0.930 . S
H3218 C3234 0.931 . S
C3219 H3207 0.929 . S
C3219 C3213 1.390 . S
C3219 C3216 1.386 . S
C3220 C3215 1.490 . S
C3220 C3222 1.395 . S
C3220 C3223 1.403 . S
H3221 C3227 0.930 . S
C3222 H3208 0.930 . S
C3222 C3220 1.395 . S
C3222 C3225 1.403 . S
C3223 C3220 1.403 . S
C3223 C3224 1.524 . S
C3223 C3227 1.400 . S
C3224 H3209 0.960 . S
C3224 H3210 0.960 . S
C3224 H3211 0.960 . S
C3224 C3223 1.524 . S
C3225 C3222 1.403 . S
C3225 C3226 1.392 . S
C3225 C3229 1.495 . S
C3226 C3225 1.392 . S
C3226 C3227 1.385 . S
C3226 C3228 1.478 . S
C3227 H3221 0.930 . S
C3227 C3223 1.400 . S
C3227 C3226 1.385 . S
C3228 C3226 1.478 . S
C3228 C3230 1.381 . S
C3228 C3234 1.383 . S
C3229 C3225 1.495 . S
C3229 H3235 0.959 . S
C3229 H3236 0.961 . S
C3229 H3237 0.960 . S
C3230 C3228 1.381 . S
C3230 C3231 1.394 . S
C3230 H3238 0.930 . S
C3231 C3230 1.394 . S
C3231 C3232 1.383 . S
C3231 H3239 0.929 . S
C3232 C3231 1.383 . S
C3232 C3233 1.377 . S
C3233 H3217 0.930 . S
C3233 C3232 1.377 . S
C3233 C3234 1.379 . S
C3234 H3218 0.931 . S
C3234 C3228 1.383 . S
C3234 C3233 1.379 . S
H3235 C3229 0.959 . S
H3236 C3229 0.961 . S
H3237 C3229 0.960 . S
H3238 C3230 0.930 . S
H3239 C3231 0.929 . S
H3240 C3248 0.929 . S
H3241 C3250 0.930 . S
H3242 C3252 0.930 . S
H3243 C3255 0.929 . S
H3244 C3258 0.930 . S
H3245 C3260 0.960 . S
H3246 C3260 0.960 . S
H3247 C3260 0.928 1_545 S
C3248 H3240 0.929 . S
C3248 C3249 1.377 . S
C3248 C3250 1.384 . S
C3249 C3248 1.377 . S
C3249 C3255 1.390 . S
C3250 H3241 0.930 . S
C3250 C3248 1.384 . S
C3250 C3251 1.372 . S
C3251 C3250 1.372 . S
C3251 C3252 1.400 . S
C3251 C3256 1.490 . S
C3252 H3242 0.930 . S
C3252 C3251 1.400 . S
C3252 C3255 1.386 . S
H3253 C3269 0.930 . S
H3254 C3270 0.931 . S
C3255 H3243 0.929 . S
C3255 C3249 1.390 . S
C3255 C3252 1.386 . S
C3256 C3251 1.490 . S
C3256 C3258 1.395 . S
C3256 C3259 1.403 1_545 S
H3257 C3263 0.930 . S
C3258 H3244 0.930 . S
C3258 C3256 1.395 . S
C3258 C3261 1.403 . S
C3259 C3256 1.403 1_565 S
C3259 C3260 1.524 . S
C3259 C3263 1.400 . S
C3260 H3245 0.960 . S
C3260 H3246 0.960 . S
C3260 H3247 0.928 1_565 S
C3260 C3259 1.524 . S
C3261 C3258 1.403 . S
C3261 C3262 1.392 1_545 S
C3261 C3265 1.495 . S
C3262 C3261 1.392 1_565 S
C3262 C3263 1.385 . S
C3262 C3264 1.478 . S
C3263 H3257 0.930 . S
C3263 C3259 1.400 . S
C3263 C3262 1.385 . S
C3264 C3262 1.478 . S
C3264 C3266 1.381 . S
C3264 C3270 1.383 . S
C3265 C3261 1.495 . S
C3265 H3271 0.959 . S
C3265 H3272 0.961 . S
C3265 H3273 0.962 . S
C3266 C3264 1.381 . S
C3266 C3267 1.394 . S
C3266 H3274 0.930 . S
C3267 C3266 1.394 . S
C3267 C3268 1.383 . S
C3267 H3275 0.929 . S
C3268 C3267 1.383 . S
C3268 C3269 1.377 . S
C3269 H3253 0.930 . S
C3269 C3268 1.377 . S
C3269 C3270 1.379 . S
C3270 H3254 0.931 . S
C3270 C3264 1.383 . S
C3270 C3269 1.379 . S
H3271 C3265 0.959 . S
H3272 C3265 0.961 . S
H3273 C3265 0.962 . S
H3274 C3266 0.930 . S
H3275 C3267 0.929 . S
H3276 C3284 0.929 . S
H3277 C3286 0.930 . S
H3278 C3288 0.930 . S
H3279 C3291 0.929 . S
H3280 C3294 0.930 . S
H3281 C3296 0.960 . S
H3282 C3296 0.960 . S
H3283 C3296 0.960 . S
C3284 H3276 0.929 . S
C3284 C3285 1.377 . S
C3284 C3286 1.384 . S
C3285 C3284 1.377 . S
C3285 C3291 1.390 . S
C3286 H3277 0.930 . S
C3286 C3284 1.384 . S
C3286 C3287 1.372 . S
C3287 C3286 1.372 . S
C3287 C3288 1.400 . S
C3287 C3292 1.490 . S
C3288 H3278 0.930 . S
C3288 C3287 1.400 . S
C3288 C3291 1.386 . S
H3289 C3305 0.930 . S
H3290 C3306 0.931 . S
C3291 H3279 0.929 . S
C3291 C3285 1.390 . S
C3291 C3288 1.386 . S
C3292 C3287 1.490 . S
C3292 C3294 1.395 . S
C3292 C3295 1.403 1_554 S
H3293 C3299 0.930 . S
C3294 H3280 0.930 . S
C3294 C3292 1.395 . S
C3294 C3297 1.403 1_565 S
C3295 C3292 1.403 1_556 S
C3295 C3296 1.524 . S
C3295 C3299 1.400 1_565 S
C3296 H3281 0.960 . S
C3296 H3282 0.960 . S
C3296 H3283 0.960 . S
C3296 C3295 1.524 . S
C3297 C3294 1.403 1_545 S
C3297 C3298 1.392 1_554 S
C3297 C3301 1.495 . S
C3298 C3297 1.392 1_556 S
C3298 C3299 1.385 . S
C3298 C3300 1.478 . S
C3299 H3293 0.930 . S
C3299 C3295 1.400 1_545 S
C3299 C3298 1.385 . S
C3300 C3298 1.478 . S
C3300 C3302 1.381 . S
C3300 C3306 1.383 . S
C3301 C3297 1.495 . S
C3301 H3307 0.959 . S
C3301 H3308 0.961 . S
C3301 H3309 0.960 . S
C3302 C3300 1.381 . S
C3302 C3303 1.394 . S
C3302 H3310 0.930 . S
C3303 C3302 1.394 . S
C3303 C3304 1.383 . S
C3303 H3311 0.929 . S
C3304 C3303 1.383 . S
C3304 C3305 1.377 . S
C3305 H3289 0.930 . S
C3305 C3304 1.377 . S
C3305 C3306 1.379 . S
C3306 H3290 0.931 . S
C3306 C3300 1.383 . S
C3306 C3305 1.379 . S
H3307 C3301 0.959 . S
H3308 C3301 0.961 . S
H3309 C3301 0.960 . S
H3310 C3302 0.930 . S
H3311 C3303 0.929 . S
H3312 C3320 0.929 . S
H3313 C3322 0.930 . S
H3314 C3324 0.930 . S
H3315 C3327 0.929 . S
H3316 C3330 0.930 . S
H3317 C3332 0.960 1_455 S
H3318 C3332 0.960 . S
H3319 C3332 0.960 . S
C3320 H3312 0.929 . S
C3320 C3321 1.377 . S
C3320 C3322 1.384 . S
C3321 C3320 1.377 . S
C3321 C3327 1.390 . S
C3322 H3313 0.930 . S
C3322 C3320 1.384 . S
C3322 C3323 1.372 . S
C3323 C3322 1.372 . S
C3323 C3324 1.400 . S
C3323 C3328 1.490 . S
C3324 H3314 0.930 . S
C3324 C3323 1.400 . S
C3324 C3327 1.386 . S
H3325 C3341 0.930 . S
H3326 C3342 0.931 . S
C3327 H3315 0.929 . S
C3327 C3321 1.390 . S
C3327 C3324 1.386 . S
C3328 C3323 1.490 . S
C3328 C3330 1.395 1_556 S
C3328 C3331 1.403 . S
H3329 C3335 0.930 . S
C3330 H3316 0.930 . S
C3330 C3328 1.395 1_554 S
C3330 C3333 1.394 1_655 S
C3331 C3328 1.403 . S
C3331 C3332 1.524 . S
C3331 C3335 1.400 1_655 S
C3332 H3317 0.960 1_655 S
C3332 H3318 0.960 . S
C3332 H3319 0.960 . S
C3332 C3331 1.524 . S
C3333 C3330 1.394 1_455 S
C3333 C3334 1.401 . S
C3333 C3337 1.497 . S
C3334 C3333 1.401 . S
C3334 C3335 1.385 1_554 S
C3334 C3336 1.478 . S
C3335 H3329 0.930 . S
C3335 C3331 1.400 1_455 S
C3335 C3334 1.385 1_556 S
C3336 C3334 1.478 . S
C3336 C3338 1.381 . S
C3336 C3342 1.383 . S
C3337 C3333 1.497 . S
C3337 H3343 0.959 1_455 S
C3337 H3344 0.961 . S
C3337 H3345 0.981 . S
C3338 C3336 1.381 . S
C3338 C3339 1.394 . S
C3338 H3346 0.930 . S
C3339 C3338 1.394 . S
C3339 C3340 1.383 . S
C3339 H3347 0.929 . S
C3340 C3339 1.383 . S
C3340 C3341 1.377 . S
C3341 H3325 0.930 . S
C3341 C3340 1.377 . S
C3341 C3342 1.379 . S
C3342 H3326 0.931 . S
C3342 C3336 1.383 . S
C3342 C3341 1.379 . S
H3343 C3337 0.959 1_655 S
H3344 C3337 0.961 . S
H3345 C3337 0.981 . S
H3346 C3338 0.930 . S
H3347 C3339 0.929 . S
H3348 C3356 0.929 . S
H3349 C3358 0.916 1_556 S
H3350 C3360 0.930 . S
H3351 C3363 0.929 . S
H3352 C3366 0.930 . S
H3353 C3368 0.960 . S
H3354 C3368 0.960 . S
H3355 C3368 0.960 . S
C3356 H3348 0.929 . S
C3356 C3357 1.377 . S
C3356 C3358 1.384 . S
C3357 C3356 1.377 . S
C3357 C3363 1.390 . S
C3358 H3349 0.916 1_554 S
C3358 C3356 1.384 . S
C3358 C3359 1.372 . S
C3359 C3358 1.372 . S
C3359 C3360 1.400 . S
C3359 C3364 1.490 . S
C3360 H3350 0.930 . S
C3360 C3359 1.400 . S
C3360 C3363 1.386 . S
H3361 C3377 0.930 . S
H3362 C3378 0.931 . S
C3363 H3351 0.929 . S
C3363 C3357 1.390 . S
C3363 C3360 1.386 . S
C3364 C3359 1.490 . S
C3364 C3366 1.395 1_554 S
C3364 C3367 1.403 . S
H3365 C3371 0.930 . S
C3366 H3352 0.930 . S
C3366 C3364 1.395 1_556 S
C3366 C3369 1.403 . S
C3367 C3364 1.403 . S
C3367 C3368 1.524 . S
C3367 C3371 1.400 . S
C3368 H3353 0.960 . S
C3368 H3354 0.960 . S
C3368 H3355 0.960 . S
C3368 C3367 1.524 . S
C3369 C3366 1.403 . S
C3369 C3370 1.392 . S
C3369 C3373 1.495 . S
C3370 C3369 1.392 . S
C3370 C3371 1.385 1_556 S
C3370 C3372 1.478 . S
C3371 H3365 0.930 . S
C3371 C3367 1.400 . S
C3371 C3370 1.385 1_554 S
C3372 C3370 1.478 . S
C3372 C3374 1.381 . S
C3372 C3378 1.383 . S
C3373 C3369 1.495 . S
C3373 H3379 0.959 . S
C3373 H3380 0.961 . S
C3373 H3381 0.960 . S
C3374 C3372 1.381 . S
C3374 C3375 1.394 . S
C3374 H3382 0.930 . S
C3375 C3374 1.394 . S
C3375 C3376 1.383 . S
C3375 H3383 0.929 . S
C3376 C3375 1.383 . S
C3376 C3377 1.377 . S
C3377 H3361 0.930 . S
C3377 C3376 1.377 . S
C3377 C3378 1.379 . S
C3378 H3362 0.931 . S
C3378 C3372 1.383 . S
C3378 C3377 1.379 . S
H3379 C3373 0.959 . S
H3380 C3373 0.961 . S
H3381 C3373 0.960 . S
H3382 C3374 0.930 . S
H3383 C3375 0.929 . S
H3384 C3392 0.929 . S
H3385 C3394 0.930 . S
H3386 C3396 0.930 . S
H3387 C3399 0.929 . S
H3388 C3402 0.930 . S
H3389 C3404 0.960 . S
H3390 C3404 0.960 . S
H3391 C3404 0.960 . S
C3392 H3384 0.929 . S
C3392 C3393 1.377 1_554 S
C3392 C3394 1.384 1_554 S
C3393 C3392 1.377 1_556 S
C3393 C3399 1.390 . S
C3394 H3385 0.930 . S
C3394 C3392 1.384 1_556 S
C3394 C3395 1.372 . S
C3395 C3394 1.372 . S
C3395 C3396 1.400 . S
C3395 C3400 1.490 . S
C3396 H3386 0.930 . S
C3396 C3395 1.400 . S
C3396 C3399 1.386 . S
H3397 C3413 0.930 . S
H3398 C3414 0.931 . S
C3399 H3387 0.929 . S
C3399 C3393 1.390 . S
C3399 C3396 1.386 . S
C3400 C3395 1.490 . S
C3400 C3402 1.395 . S
C3400 C3403 1.403 . S
H3401 C3407 0.930 . S
C3402 H3388 0.930 . S
C3402 C3400 1.395 . S
C3402 C3405 1.403 . S
C3403 C3400 1.403 . S
C3403 C3404 1.524 . S
C3403 C3407 1.400 . S
C3404 H3389 0.960 . S
C3404 H3390 0.960 . S
C3404 H3391 0.960 . S
C3404 C3403 1.524 . S
C3405 C3402 1.403 . S
C3405 C3406 1.392 . S
C3405 C3409 1.495 . S
C3406 C3405 1.392 . S
C3406 C3407 1.385 . S
C3406 C3408 1.478 . S
C3407 H3401 0.930 . S
C3407 C3403 1.400 . S
C3407 C3406 1.385 . S
C3408 C3406 1.478 . S
C3408 C3410 1.381 . S
C3408 C3414 1.383 . S
C3409 C3405 1.495 . S
C3409 H3415 0.959 . S
C3409 H3416 0.961 . S
C3409 H3417 0.960 . S
C3410 C3408 1.381 . S
C3410 C3411 1.394 . S
C3410 H3418 0.930 . S
C3411 C3410 1.394 . S
C3411 C3412 1.383 . S
C3411 H3419 0.929 . S
C3412 C3411 1.383 . S
C3412 C3413 1.377 . S
C3413 H3397 0.930 . S
C3413 C3412 1.377 . S
C3413 C3414 1.379 . S
C3414 H3398 0.931 . S
C3414 C3408 1.383 . S
C3414 C3413 1.379 . S
H3415 C3409 0.959 . S
H3416 C3409 0.961 . S
H3417 C3409 0.960 . S
H3418 C3410 0.930 . S
H3419 C3411 0.929 . S
H3420 C3428 0.929 . S
H3421 C3430 0.930 . S
H3422 C3432 0.930 . S
H3423 C3435 0.929 1_554 S
H3424 C3438 0.930 . S
H3425 C3440 0.960 . S
H3426 C3440 0.960 . S
H3427 C3440 0.960 . S
C3428 H3420 0.929 . S
C3428 C3429 1.377 . S
C3428 C3430 1.384 . S
C3429 C3428 1.377 . S
C3429 C3435 1.390 . S
C3430 H3421 0.930 . S
C3430 C3428 1.384 . S
C3430 C3431 1.372 . S
C3431 C3430 1.372 . S
C3431 C3432 1.400 . S
C3431 C3436 1.490 . S
C3432 H3422 0.930 . S
C3432 C3431 1.400 . S
C3432 C3435 1.386 . S
H3433 C3449 0.930 . S
H3434 C3450 0.931 . S
C3435 H3423 0.929 1_556 S
C3435 C3429 1.390 . S
C3435 C3432 1.386 . S
C3436 C3431 1.490 . S
C3436 C3438 1.395 . S
C3436 C3439 1.403 . S
H3437 C3443 0.930 . S
C3438 H3424 0.930 . S
C3438 C3436 1.395 . S
C3438 C3441 1.403 . S
C3439 C3436 1.403 . S
C3439 C3440 1.524 . S
C3439 C3443 1.400 . S
C3440 H3425 0.960 . S
C3440 H3426 0.960 . S
C3440 H3427 0.960 . S
C3440 C3439 1.524 . S
C3441 C3438 1.403 . S
C3441 C3442 1.392 . S
C3441 C3445 1.495 . S
C3442 C3441 1.392 . S
C3442 C3443 1.385 . S
C3442 C3444 1.478 . S
C3443 H3437 0.930 . S
C3443 C3439 1.400 . S
C3443 C3442 1.385 . S
C3444 C3442 1.478 . S
C3444 C3446 1.381 . S
C3444 C3450 1.383 . S
C3445 C3441 1.495 . S
C3445 H3451 0.959 . S
C3445 H3452 0.961 . S
C3445 H3453 0.960 . S
C3446 C3444 1.381 . S
C3446 C3447 1.394 . S
C3446 H3454 0.930 . S
C3447 C3446 1.394 . S
C3447 C3448 1.383 . S
C3447 H3455 0.929 . S
C3448 C3447 1.383 . S
C3448 C3449 1.377 . S
C3449 H3433 0.930 . S
C3449 C3448 1.377 . S
C3449 C3450 1.379 . S
C3450 H3434 0.931 . S
C3450 C3444 1.383 . S
C3450 C3449 1.379 . S
H3451 C3445 0.959 . S
H3452 C3445 0.961 . S
H3453 C3445 0.960 . S
H3454 C3446 0.930 . S
H3455 C3447 0.929 . S
H3456 C3464 0.929 . S
H3457 C3466 0.930 . S
H3458 C3468 0.930 . S
H3459 C3471 0.929 . S
H3460 C3474 0.930 . S
H3461 C3476 0.960 . S
H3462 C3476 0.960 . S
H3463 C3476 0.960 . S
C3464 H3456 0.929 . S
C3464 C3465 1.377 . S
C3464 C3466 1.384 . S
C3465 C3464 1.377 . S
C3465 C3471 1.390 . S
C3466 H3457 0.930 . S
C3466 C3464 1.384 . S
C3466 C3467 1.372 . S
C3467 C3466 1.372 . S
C3467 C3468 1.400 . S
C3467 C3472 1.490 . S
C3468 H3458 0.930 . S
C3468 C3467 1.400 . S
C3468 C3471 1.386 . S
H3469 C3485 0.930 . S
H3470 C3486 0.931 . S
C3471 H3459 0.929 . S
C3471 C3465 1.390 . S
C3471 C3468 1.386 . S
C3472 C3467 1.490 . S
C3472 C3474 1.395 . S
C3472 C3475 1.403 . S
H3473 C3479 0.930 . S
C3474 H3460 0.930 . S
C3474 C3472 1.395 . S
C3474 C3477 1.403 . S
C3475 C3472 1.403 . S
C3475 C3476 1.524 . S
C3475 C3479 1.400 . S
C3476 H3461 0.960 . S
C3476 H3462 0.960 . S
C3476 H3463 0.960 . S
C3476 C3475 1.524 . S
C3477 C3474 1.403 . S
C3477 C3478 1.392 . S
C3477 C3481 1.495 . S
C3478 C3477 1.392 . S
C3478 C3479 1.385 . S
C3478 C3480 1.478 . S
C3479 H3473 0.930 . S
C3479 C3475 1.400 . S
C3479 C3478 1.385 . S
C3480 C3478 1.478 . S
C3480 C3482 1.381 . S
C3480 C3486 1.383 . S
C3481 C3477 1.495 . S
C3481 H3487 0.959 . S
C3481 H3488 0.961 . S
C3481 H3489 0.960 . S
C3482 C3480 1.381 . S
C3482 C3483 1.394 1_556 S
C3482 H3490 0.930 . S
C3483 C3482 1.394 1_554 S
C3483 C3484 1.383 1_554 S
C3483 H3491 0.929 . S
C3484 C3483 1.383 1_556 S
C3484 C3485 1.377 . S
C3485 H3469 0.930 . S
C3485 C3484 1.377 . S
C3485 C3486 1.379 . S
C3486 H3470 0.931 . S
C3486 C3480 1.383 . S
C3486 C3485 1.379 . S
H3487 C3481 0.959 . S
H3488 C3481 0.961 . S
H3489 C3481 0.960 . S
H3490 C3482 0.930 . S
H3491 C3483 0.929 . S
H3492 C3500 0.929 . S
H3493 C3502 0.930 . S
H3494 C3504 0.930 . S
H3495 C3507 0.929 . S
H3496 C3510 0.930 . S
H3497 C3512 0.960 . S
H3498 C3512 0.960 . S
H3499 C3512 0.960 . S
C3500 H3492 0.929 . S
C3500 C3501 1.377 . S
C3500 C3502 1.384 . S
C3501 C3500 1.377 . S
C3501 C3507 1.390 . S
C3502 H3493 0.930 . S
C3502 C3500 1.384 . S
C3502 C3503 1.372 . S
C3503 C3502 1.372 . S
C3503 C3504 1.400 . S
C3503 C3508 1.490 . S
C3504 H3494 0.930 . S
C3504 C3503 1.400 . S
C3504 C3507 1.386 . S
H3505 C3521 0.930 . S
H3506 C3522 0.931 . S
C3507 H3495 0.929 . S
C3507 C3501 1.390 . S
C3507 C3504 1.386 . S
C3508 C3503 1.490 . S
C3508 C3510 1.395 . S
C3508 C3511 1.403 . S
H3509 C3515 0.930 . S
C3510 H3496 0.930 . S
C3510 C3508 1.395 . S
C3510 C3513 1.403 . S
C3511 C3508 1.403 . S
C3511 C3512 1.524 . S
C3511 C3515 1.400 . S
C3512 H3497 0.960 . S
C3512 H3498 0.960 . S
C3512 H3499 0.960 . S
C3512 C3511 1.524 . S
C3513 C3510 1.403 . S
C3513 C3514 1.392 . S
C3513 C3517 1.495 . S
C3514 C3513 1.392 . S
C3514 C3515 1.385 . S
C3514 C3516 1.478 . S
C3515 H3509 0.930 . S
C3515 C3511 1.400 . S
C3515 C3514 1.385 . S
C3516 C3514 1.478 . S
C3516 C3518 1.381 . S
C3516 C3522 1.383 . S
C3517 C3513 1.495 . S
C3517 H3523 0.959 . S
C3517 H3524 0.961 . S
C3517 H3525 0.960 . S
C3518 C3516 1.381 . S
C3518 C3519 1.394 . S
C3518 H3526 0.930 . S
C3519 C3518 1.394 . S
C3519 C3520 1.383 . S
C3519 H3527 0.929 . S
C3520 C3519 1.383 . S
C3520 C3521 1.377 . S
C3521 H3505 0.930 . S
C3521 C3520 1.377 . S
C3521 C3522 1.379 . S
C3522 H3506 0.931 . S
C3522 C3516 1.383 . S
C3522 C3521 1.379 . S
H3523 C3517 0.959 . S
H3524 C3517 0.961 . S
H3525 C3517 0.960 . S
H3526 C3518 0.930 . S
H3527 C3519 0.929 . S
H3528 C3536 0.929 . S
H3529 C3538 0.930 . S
H3530 C3540 0.930 . S
H3531 C3543 0.929 . S
H3532 C3546 0.930 . S
H3533 C3548 0.960 . S
H3534 C3548 0.960 . S
H3535 C3548 0.960 . S
C3536 H3528 0.929 . S
C3536 C3537 1.377 . S
C3536 C3538 1.384 . S
C3537 C3536 1.377 . S
C3537 C3543 1.390 . S
C3538 H3529 0.930 . S
C3538 C3536 1.384 . S
C3538 C3539 1.372 . S
C3539 C3538 1.372 . S
C3539 C3540 1.400 . S
C3539 C3544 1.490 . S
C3540 H3530 0.930 . S
C3540 C3539 1.400 . S
C3540 C3543 1.386 . S
H3541 C3557 0.930 . S
H3542 C3558 0.931 . S
C3543 H3531 0.929 . S
C3543 C3537 1.390 . S
C3543 C3540 1.386 . S
C3544 C3539 1.490 . S
C3544 C3546 1.395 . S
C3544 C3547 1.403 . S
H3545 C3551 0.930 . S
C3546 H3532 0.930 . S
C3546 C3544 1.395 . S
C3546 C3549 1.403 . S
C3547 C3544 1.403 . S
C3547 C3548 1.524 . S
C3547 C3551 1.400 . S
C3548 H3533 0.960 . S
C3548 H3534 0.960 . S
C3548 H3535 0.960 . S
C3548 C3547 1.524 . S
C3549 C3546 1.403 . S
C3549 C3550 1.392 . S
C3549 C3553 1.495 . S
C3550 C3549 1.392 . S
C3550 C3551 1.385 . S
C3550 C3552 1.478 . S
C3551 H3545 0.930 . S
C3551 C3547 1.400 . S
C3551 C3550 1.385 . S
C3552 C3550 1.478 . S
C3552 C3554 1.381 . S
C3552 C3558 1.383 . S
C3553 C3549 1.495 . S
C3553 H3559 0.959 . S
C3553 H3560 0.961 . S
C3553 H3561 0.960 . S
C3554 C3552 1.381 . S
C3554 C3555 1.394 . S
C3554 H3562 0.930 . S
C3555 C3554 1.394 . S
C3555 C3556 1.383 . S
C3555 H3563 0.929 . S
C3556 C3555 1.383 . S
C3556 C3557 1.377 . S
C3557 H3541 0.930 . S
C3557 C3556 1.377 . S
C3557 C3558 1.379 . S
C3558 H3542 0.931 . S
C3558 C3552 1.383 . S
C3558 C3557 1.379 . S
H3559 C3553 0.959 . S
H3560 C3553 0.961 . S
H3561 C3553 0.960 . S
H3562 C3554 0.930 . S
H3563 C3555 0.929 . S
H3564 C3572 0.929 . S
H3565 C3574 0.930 . S
H3566 C3576 0.930 . S
H3567 C3579 0.929 . S
H3568 C3582 0.930 . S
H3569 C3584 0.960 . S
H3570 C3584 0.960 . S
H3571 C3584 0.960 . S
C3572 H3564 0.929 . S
C3572 C3573 1.377 . S
C3572 C3574 1.384 . S
C3573 C3572 1.377 . S
C3573 C3579 1.390 . S
C3574 H3565 0.930 . S
C3574 C3572 1.384 . S
C3574 C3575 1.372 . S
C3575 C3574 1.372 . S
C3575 C3576 1.400 . S
C3575 C3580 1.490 . S
C3576 H3566 0.930 . S
C3576 C3575 1.400 . S
C3576 C3579 1.386 . S
H3577 C3593 0.930 . S
H3578 C3594 0.931 . S
C3579 H3567 0.929 . S
C3579 C3573 1.390 . S
C3579 C3576 1.386 . S
C3580 C3575 1.490 . S
C3580 C3582 1.395 . S
C3580 C3583 1.403 . S
H3581 C3587 0.930 . S
C3582 H3568 0.930 . S
C3582 C3580 1.395 . S
C3582 C3585 1.403 . S
C3583 C3580 1.403 . S
C3583 C3584 1.524 . S
C3583 C3587 1.400 . S
C3584 H3569 0.960 . S
C3584 H3570 0.960 . S
C3584 H3571 0.960 . S
C3584 C3583 1.524 . S
C3585 C3582 1.403 . S
C3585 C3586 1.392 . S
C3585 C3589 1.495 . S
C3586 C3585 1.392 . S
C3586 C3587 1.385 . S
C3586 C3588 1.478 . S
C3587 H3581 0.930 . S
C3587 C3583 1.400 . S
C3587 C3586 1.385 . S
C3588 C3586 1.478 . S
C3588 C3590 1.381 . S
C3588 C3594 1.383 . S
C3589 C3585 1.495 . S
C3589 H3595 0.959 . S
C3589 H3596 0.961 . S
C3589 H3597 0.960 . S
C3590 C3588 1.381 . S
C3590 C3591 1.394 . S
C3590 H3598 0.930 . S
C3591 C3590 1.394 . S
C3591 C3592 1.383 . S
C3591 H3599 0.929 . S
C3592 C3591 1.383 . S
C3592 C3593 1.377 . S
C3593 H3577 0.930 . S
C3593 C3592 1.377 . S
C3593 C3594 1.379 . S
C3594 H3578 0.931 . S
C3594 C3588 1.383 . S
C3594 C3593 1.379 . S
H3595 C3589 0.959 . S
H3596 C3589 0.961 . S
H3597 C3589 0.960 . S
H3598 C3590 0.930 . S
H3599 C3591 0.929 . S
H3600 C3608 0.929 . S
H3601 C3610 0.930 . S
H3602 C3612 0.930 . S
H3603 C3615 0.929 . S
H3604 C3618 0.930 . S
H3605 C3620 0.960 . S
H3606 C3620 0.960 . S
H3607 C3620 0.960 . S
C3608 H3600 0.929 . S
C3608 C3609 1.377 . S
C3608 C3610 1.384 . S
C3609 C3608 1.377 . S
C3609 C3615 1.390 . S
C3610 H3601 0.930 . S
C3610 C3608 1.384 . S
C3610 C3611 1.372 . S
C3611 C3610 1.372 . S
C3611 C3612 1.400 . S
C3611 C3616 1.490 . S
C3612 H3602 0.930 . S
C3612 C3611 1.400 . S
C3612 C3615 1.386 . S
H3613 C3629 0.930 . S
H3614 C3630 0.931 . S
C3615 H3603 0.929 . S
C3615 C3609 1.390 . S
C3615 C3612 1.386 . S
C3616 C3611 1.490 . S
C3616 C3618 1.395 . S
C3616 C3619 1.403 . S
H3617 C3623 0.930 . S
C3618 H3604 0.930 . S
C3618 C3616 1.395 . S
C3618 C3621 1.403 . S
C3619 C3616 1.403 . S
C3619 C3620 1.524 . S
C3619 C3623 1.400 . S
C3620 H3605 0.960 . S
C3620 H3606 0.960 . S
C3620 H3607 0.960 . S
C3620 C3619 1.524 . S
C3621 C3618 1.403 . S
C3621 C3622 1.392 . S
C3621 C3625 1.495 . S
C3622 C3621 1.392 . S
C3622 C3623 1.385 . S
C3622 C3624 1.478 . S
C3623 H3617 0.930 . S
C3623 C3619 1.400 . S
C3623 C3622 1.385 . S
C3624 C3622 1.478 . S
C3624 C3626 1.381 . S
C3624 C3630 1.383 . S
C3625 C3621 1.495 . S
C3625 H3631 0.959 . S
C3625 H3632 0.961 . S
C3625 H3633 0.960 . S
C3626 C3624 1.381 . S
C3626 C3627 1.394 . S
C3626 H3634 0.930 . S
C3627 C3626 1.394 . S
C3627 C3628 1.383 . S
C3627 H3635 0.929 1_554 S
C3628 C3627 1.383 . S
C3628 C3629 1.377 . S
C3629 H3613 0.930 . S
C3629 C3628 1.377 . S
C3629 C3630 1.379 . S
C3630 H3614 0.931 . S
C3630 C3624 1.383 . S
C3630 C3629 1.379 . S
H3631 C3625 0.959 . S
H3632 C3625 0.961 . S
H3633 C3625 0.960 . S
H3634 C3626 0.930 . S
H3635 C3627 0.929 1_556 S
H3636 C3644 0.929 . S
H3637 C3646 0.930 . S
H3638 C3648 0.930 . S
H3639 C3651 0.929 . S
H3640 C3654 0.930 . S
H3641 C3656 0.960 . S
H3642 C3656 0.960 . S
H3643 C3656 0.960 . S
C3644 H3636 0.929 . S
C3644 C3645 1.377 1_556 S
C3644 C3646 1.384 1_556 S
C3645 C3644 1.377 1_554 S
C3645 C3651 1.390 . S
C3646 H3637 0.930 . S
C3646 C3644 1.384 1_554 S
C3646 C3647 1.372 . S
C3647 C3646 1.372 . S
C3647 C3648 1.400 . S
C3647 C3652 1.490 . S
C3648 H3638 0.930 . S
C3648 C3647 1.400 . S
C3648 C3651 1.386 . S
H3649 C3665 0.930 . S
H3650 C3666 0.931 . S
C3651 H3639 0.929 . S
C3651 C3645 1.390 . S
C3651 C3648 1.386 . S
C3652 C3647 1.490 . S
C3652 C3654 1.395 . S
C3652 C3655 1.403 . S
H3653 C3659 0.930 . S
C3654 H3640 0.930 . S
C3654 C3652 1.395 . S
C3654 C3657 1.403 . S
C3655 C3652 1.403 . S
C3655 C3656 1.524 . S
C3655 C3659 1.400 . S
C3656 H3641 0.960 . S
C3656 H3642 0.960 . S
C3656 H3643 0.960 . S
C3656 C3655 1.524 . S
C3657 C3654 1.403 . S
C3657 C3658 1.392 . S
C3657 C3661 1.495 . S
C3658 C3657 1.392 . S
C3658 C3659 1.385 . S
C3658 C3660 1.478 . S
C3659 H3653 0.930 . S
C3659 C3655 1.400 . S
C3659 C3658 1.385 . S
C3660 C3658 1.478 . S
C3660 C3662 1.381 . S
C3660 C3666 1.383 . S
C3661 C3657 1.495 . S
C3661 H3667 0.959 . S
C3661 H3668 0.961 . S
C3661 H3669 0.960 . S
C3662 C3660 1.381 . S
C3662 C3663 1.394 . S
C3662 H3670 0.930 . S
C3663 C3662 1.394 . S
C3663 C3664 1.383 . S
C3663 H3671 0.929 . S
C3664 C3663 1.383 . S
C3664 C3665 1.377 . S
C3665 H3649 0.930 . S
C3665 C3664 1.377 . S
C3665 C3666 1.379 . S
C3666 H3650 0.931 . S
C3666 C3660 1.383 . S
C3666 C3665 1.379 . S
H3667 C3661 0.959 . S
H3668 C3661 0.961 . S
H3669 C3661 0.960 . S
H3670 C3662 0.930 . S
H3671 C3663 0.929 . S
H3672 C3680 0.929 . S
H3673 C3682 0.930 . S
H3674 C3684 0.930 . S
H3675 C3687 0.929 . S
H3676 C3690 0.930 . S
H3677 C3692 0.960 . S
H3678 C3692 0.960 . S
H3679 C3692 0.960 . S
C3680 H3672 0.929 . S
C3680 C3681 1.377 . S
C3680 C3682 1.384 . S
C3681 C3680 1.377 . S
C3681 C3687 1.390 . S
C3682 H3673 0.930 . S
C3682 C3680 1.384 . S
C3682 C3683 1.372 . S
C3683 C3682 1.372 . S
C3683 C3684 1.400 . S
C3683 C3688 1.490 . S
C3684 H3674 0.930 . S
C3684 C3683 1.400 . S
C3684 C3687 1.386 . S
H3685 C3701 0.930 . S
H3686 C3702 0.931 . S
C3687 H3675 0.929 . S
C3687 C3681 1.390 . S
C3687 C3684 1.386 . S
C3688 C3683 1.490 . S
C3688 C3690 1.395 . S
C3688 C3691 1.403 . S
H3689 C3695 0.930 . S
C3690 H3676 0.930 . S
C3690 C3688 1.395 . S
C3690 C3693 1.403 . S
C3691 C3688 1.403 . S
C3691 C3692 1.524 . S
C3691 C3695 1.400 . S
C3692 H3677 0.960 . S
C3692 H3678 0.960 . S
C3692 H3679 0.960 . S
C3692 C3691 1.524 . S
C3693 C3690 1.403 . S
C3693 C3694 1.392 . S
C3693 C3697 1.495 . S
C3694 C3693 1.392 . S
C3694 C3695 1.385 . S
C3694 C3696 1.478 . S
C3695 H3689 0.930 . S
C3695 C3691 1.400 . S
C3695 C3694 1.385 . S
C3696 C3694 1.478 . S
C3696 C3698 1.381 . S
C3696 C3702 1.383 . S
C3697 C3693 1.495 . S
C3697 H3703 0.959 . S
C3697 H3704 0.961 . S
C3697 H3705 0.960 . S
C3698 C3696 1.381 . S
C3698 C3699 1.394 1_554 S
C3698 H3706 0.930 . S
C3699 C3698 1.394 1_556 S
C3699 C3700 1.383 1_556 S
C3699 H3707 0.929 . S
C3700 C3699 1.383 1_554 S
C3700 C3701 1.377 . S
C3701 H3685 0.930 . S
C3701 C3700 1.377 . S
C3701 C3702 1.379 . S
C3702 H3686 0.931 . S
C3702 C3696 1.383 . S
C3702 C3701 1.379 . S
H3703 C3697 0.959 . S
H3704 C3697 0.961 . S
H3705 C3697 0.960 . S
H3706 C3698 0.930 . S
H3707 C3699 0.929 . S
H3708 C3716 0.929 . S
H3709 C3718 0.930 . S
H3710 C3720 0.930 . S
H3711 C3723 0.929 . S
H3712 C3726 0.930 . S
H3713 C3728 0.960 . S
H3714 C3728 0.960 . S
H3715 C3728 0.960 . S
C3716 H3708 0.929 . S
C3716 C3717 1.377 . S
C3716 C3718 1.384 . S
C3717 C3716 1.377 . S
C3717 C3723 1.390 . S
C3718 H3709 0.930 . S
C3718 C3716 1.384 . S
C3718 C3719 1.372 . S
C3719 C3718 1.372 . S
C3719 C3720 1.400 . S
C3719 C3724 1.490 . S
C3720 H3710 0.930 . S
C3720 C3719 1.400 . S
C3720 C3723 1.386 . S
H3721 C3737 0.930 . S
H3722 C3738 0.931 . S
C3723 H3711 0.929 . S
C3723 C3717 1.390 . S
C3723 C3720 1.386 . S
C3724 C3719 1.490 . S
C3724 C3726 1.395 . S
C3724 C3727 1.403 . S
H3725 C3731 0.930 . S
C3726 H3712 0.930 . S
C3726 C3724 1.395 . S
C3726 C3729 1.403 . S
C3727 C3724 1.403 . S
C3727 C3728 1.524 . S
C3727 C3731 1.400 . S
C3728 H3713 0.960 . S
C3728 H3714 0.960 . S
C3728 H3715 0.960 . S
C3728 C3727 1.524 . S
C3729 C3726 1.403 . S
C3729 C3730 1.392 . S
C3729 C3733 1.495 . S
C3730 C3729 1.392 . S
C3730 C3731 1.385 . S
C3730 C3732 1.478 . S
C3731 H3725 0.930 . S
C3731 C3727 1.400 . S
C3731 C3730 1.385 . S
C3732 C3730 1.478 . S
C3732 C3734 1.381 . S
C3732 C3738 1.383 . S
C3733 C3729 1.495 . S
C3733 H3739 0.959 . S
C3733 H3740 0.961 . S
C3733 H3741 0.960 . S
C3734 C3732 1.381 . S
C3734 C3735 1.394 . S
C3734 H3742 0.930 . S
C3735 C3734 1.394 . S
C3735 C3736 1.383 . S
C3735 H3743 0.929 . S
C3736 C3735 1.383 . S
C3736 C3737 1.377 . S
C3737 H3721 0.930 . S
C3737 C3736 1.377 . S
C3737 C3738 1.379 . S
C3738 H3722 0.931 . S
C3738 C3732 1.383 . S
C3738 C3737 1.379 . S
H3739 C3733 0.959 . S
H3740 C3733 0.961 . S
H3741 C3733 0.960 . S
H3742 C3734 0.930 . S
H3743 C3735 0.929 . S
H3744 C3752 0.929 . S
H3745 C3754 0.930 . S
H3746 C3756 0.930 . S
H3747 C3759 0.929 . S
H3748 C3762 0.930 . S
H3749 C3764 0.960 . S
H3750 C3764 0.960 . S
H3751 C3764 0.960 . S
C3752 H3744 0.929 . S
C3752 C3753 1.377 . S
C3752 C3754 1.384 . S
C3753 C3752 1.377 . S
C3753 C3759 1.390 . S
C3754 H3745 0.930 . S
C3754 C3752 1.384 . S
C3754 C3755 1.372 . S
C3755 C3754 1.372 . S
C3755 C3756 1.400 . S
C3755 C3760 1.490 . S
C3756 H3746 0.930 . S
C3756 C3755 1.400 . S
C3756 C3759 1.386 . S
H3757 C3773 0.930 . S
H3758 C3774 0.931 . S
C3759 H3747 0.929 . S
C3759 C3753 1.390 . S
C3759 C3756 1.386 . S
C3760 C3755 1.490 . S
C3760 C3762 1.395 . S
C3760 C3763 1.403 . S
H3761 C3767 0.930 . S
C3762 H3748 0.930 . S
C3762 C3760 1.395 . S
C3762 C3765 1.403 . S
C3763 C3760 1.403 . S
C3763 C3764 1.524 . S
C3763 C3767 1.400 . S
C3764 H3749 0.960 . S
C3764 H3750 0.960 . S
C3764 H3751 0.960 . S
C3764 C3763 1.524 . S
C3765 C3762 1.403 . S
C3765 C3766 1.392 . S
C3765 C3769 1.495 . S
C3766 C3765 1.392 . S
C3766 C3767 1.385 . S
C3766 C3768 1.478 . S
C3767 H3761 0.930 . S
C3767 C3763 1.400 . S
C3767 C3766 1.385 . S
C3768 C3766 1.478 . S
C3768 C3770 1.381 . S
C3768 C3774 1.383 . S
C3769 C3765 1.495 . S
C3769 H3775 0.959 . S
C3769 H3776 0.961 . S
C3769 H3777 0.960 . S
C3770 C3768 1.381 . S
C3770 C3771 1.394 . S
C3770 H3778 0.930 . S
C3771 C3770 1.394 . S
C3771 C3772 1.383 . S
C3771 H3779 0.929 . S
C3772 C3771 1.383 . S
C3772 C3773 1.377 . S
C3773 H3757 0.930 . S
C3773 C3772 1.377 . S
C3773 C3774 1.379 . S
C3774 H3758 0.931 . S
C3774 C3768 1.383 . S
C3774 C3773 1.379 . S
H3775 C3769 0.959 . S
H3776 C3769 0.961 . S
H3777 C3769 0.960 . S
H3778 C3770 0.930 . S
H3779 C3771 0.929 . S
H3780 C3788 0.929 . S
H3781 C3790 0.930 . S
H3782 C3792 0.930 . S
H3783 C3795 0.929 . S
H3784 C3798 0.930 . S
H3785 C3800 0.960 . S
H3786 C3800 0.960 . S
H3787 C3800 0.960 . S
C3788 H3780 0.929 . S
C3788 C3789 1.377 . S
C3788 C3790 1.384 . S
C3789 C3788 1.377 . S
C3789 C3795 1.390 . S
C3790 H3781 0.930 . S
C3790 C3788 1.384 . S
C3790 C3791 1.372 . S
C3791 C3790 1.372 . S
C3791 C3792 1.400 . S
C3791 C3796 1.490 . S
C3792 H3782 0.930 . S
C3792 C3791 1.400 . S
C3792 C3795 1.386 . S
H3793 C3809 0.930 . S
H3794 C3810 0.931 . S
C3795 H3783 0.929 . S
C3795 C3789 1.390 . S
C3795 C3792 1.386 . S
C3796 C3791 1.490 . S
C3796 C3798 1.395 . S
C3796 C3799 1.403 . S
H3797 C3803 0.930 . S
C3798 H3784 0.930 . S
C3798 C3796 1.395 . S
C3798 C3801 1.403 . S
C3799 C3796 1.403 . S
C3799 C3800 1.524 . S
C3799 C3803 1.400 . S
C3800 H3785 0.960 . S
C3800 H3786 0.960 . S
C3800 H3787 0.960 . S
C3800 C3799 1.524 . S
C3801 C3798 1.403 . S
C3801 C3802 1.392 . S
C3801 C3805 1.495 . S
C3802 C3801 1.392 . S
C3802 C3803 1.385 . S
C3802 C3804 1.478 . S
C3803 H3797 0.930 . S
C3803 C3799 1.400 . S
C3803 C3802 1.385 . S
C3804 C3802 1.478 . S
C3804 C3806 1.381 . S
C3804 C3810 1.383 . S
C3805 C3801 1.495 . S
C3805 H3811 0.959 . S
C3805 H3812 0.961 . S
C3805 H3813 0.960 . S
C3806 C3804 1.381 . S
C3806 C3807 1.394 . S
C3806 H3814 0.930 . S
C3807 C3806 1.394 . S
C3807 C3808 1.383 . S
C3807 H3815 0.929 . S
C3808 C3807 1.383 . S
C3808 C3809 1.377 . S
C3809 H3793 0.930 . S
C3809 C3808 1.377 . S
C3809 C3810 1.379 . S
C3810 H3794 0.931 . S
C3810 C3804 1.383 . S
C3810 C3809 1.379 . S
H3811 C3805 0.959 . S
H3812 C3805 0.961 . S
H3813 C3805 0.960 . S
H3814 C3806 0.930 . S
H3815 C3807 0.929 . S
H3816 C3824 0.929 . S
H3817 C3826 0.930 . S
H3818 C3828 0.930 . S
H3819 C3831 0.929 . S
H3820 C3834 0.930 . S
H3821 C3836 0.960 . S
H3822 C3836 0.960 . S
H3823 C3836 0.960 . S
C3824 H3816 0.929 . S
C3824 C3825 1.377 . S
C3824 C3826 1.384 . S
C3825 C3824 1.377 . S
C3825 C3831 1.390 . S
C3826 H3817 0.930 . S
C3826 C3824 1.384 . S
C3826 C3827 1.372 . S
C3827 C3826 1.372 . S
C3827 C3828 1.400 . S
C3827 C3832 1.490 . S
C3828 H3818 0.930 . S
C3828 C3827 1.400 . S
C3828 C3831 1.386 . S
H3829 C3845 0.930 . S
H3830 C3846 0.931 . S
C3831 H3819 0.929 . S
C3831 C3825 1.390 . S
C3831 C3828 1.386 . S
C3832 C3827 1.490 . S
C3832 C3834 1.395 1_455 S
C3832 C3835 1.403 . S
H3833 C3839 0.931 . S
C3834 H3820 0.930 . S
C3834 C3832 1.395 1_655 S
C3834 C3837 1.403 . S
C3835 C3832 1.403 . S
C3835 C3836 1.524 . S
C3835 C3839 1.407 . S
C3836 H3821 0.960 . S
C3836 H3822 0.960 . S
C3836 H3823 0.960 . S
C3836 C3835 1.524 . S
C3837 C3834 1.403 . S
C3837 C3838 1.392 . S
C3837 C3841 1.495 . S
C3838 C3837 1.392 . S
C3838 C3839 1.377 1_655 S
C3838 C3840 1.478 . S
C3839 H3833 0.931 . S
C3839 C3835 1.407 . S
C3839 C3838 1.377 1_455 S
C3840 C3838 1.478 . S
C3840 C3842 1.381 . S
C3840 C3846 1.383 . S
C3841 C3837 1.495 . S
C3841 H3847 0.959 . S
C3841 H3848 0.961 . S
C3841 H3849 0.960 . S
C3842 C3840 1.381 . S
C3842 C3843 1.394 . S
C3842 H3850 0.930 . S
C3843 C3842 1.394 . S
C3843 C3844 1.383 . S
C3843 H3851 0.929 . S
C3844 C3843 1.383 . S
C3844 C3845 1.377 . S
C3845 H3829 0.930 . S
C3845 C3844 1.377 . S
C3845 C3846 1.379 . S
C3846 H3830 0.931 . S
C3846 C3840 1.383 . S
C3846 C3845 1.379 . S
H3847 C3841 0.959 . S
H3848 C3841 0.961 . S
H3849 C3841 0.960 . S
H3850 C3842 0.930 . S
H3851 C3843 0.929 . S
H3852 C3860 0.929 . S
H3853 C3862 0.930 . S
H3854 C3864 0.930 . S
H3855 C3867 0.929 . S
H3856 C3870 0.930 . S
H3857 C3872 0.960 . S
H3858 C3872 0.960 . S
H3859 C3872 0.960 . S
C3860 H3852 0.929 . S
C3860 C3861 1.377 . S
C3860 C3862 1.384 . S
C3861 C3860 1.377 . S
C3861 C3867 1.390 . S
C3862 H3853 0.930 . S
C3862 C3860 1.384 . S
C3862 C3863 1.372 . S
C3863 C3862 1.372 . S
C3863 C3864 1.400 . S
C3863 C3868 1.490 . S
C3864 H3854 0.930 . S
C3864 C3863 1.400 . S
C3864 C3867 1.386 . S
H3865 C3881 0.930 . S
H3866 C3882 0.931 . S
C3867 H3855 0.929 . S
C3867 C3861 1.390 . S
C3867 C3864 1.386 . S
C3868 C3863 1.490 . S
C3868 C3870 1.395 . S
C3868 C3871 1.403 . S
H3869 C3875 0.930 . S
C3870 H3856 0.930 . S
C3870 C3868 1.395 . S
C3870 C3873 1.403 . S
C3871 C3868 1.403 . S
C3871 C3872 1.524 . S
C3871 C3875 1.400 . S
C3872 H3857 0.960 . S
C3872 H3858 0.960 . S
C3872 H3859 0.960 . S
C3872 C3871 1.524 . S
C3873 C3870 1.403 . S
C3873 C3874 1.392 . S
C3873 C3877 1.495 . S
C3874 C3873 1.392 . S
C3874 C3875 1.385 . S
C3874 C3876 1.478 . S
C3875 H3869 0.930 . S
C3875 C3871 1.400 . S
C3875 C3874 1.385 . S
C3876 C3874 1.478 . S
C3876 C3878 1.381 . S
C3876 C3882 1.383 . S
C3877 C3873 1.495 . S
C3877 H3883 0.959 . S
C3877 H3884 0.961 . S
C3877 H3885 0.960 . S
C3878 C3876 1.381 . S
C3878 C3879 1.394 . S
C3878 H3886 0.930 . S
C3879 C3878 1.394 . S
C3879 C3880 1.383 . S
C3879 H3887 0.929 . S
C3880 C3879 1.383 . S
C3880 C3881 1.377 . S
C3881 H3865 0.930 . S
C3881 C3880 1.377 . S
C3881 C3882 1.379 . S
C3882 H3866 0.931 . S
C3882 C3876 1.383 . S
C3882 C3881 1.379 . S
H3883 C3877 0.959 . S
H3884 C3877 0.961 . S
H3885 C3877 0.960 . S
H3886 C3878 0.930 . S
H3887 C3879 0.929 . S
H3888 C3896 0.929 . S
H3889 C3898 0.930 . S
H3890 C3900 0.930 . S
H3891 C3903 0.929 . S
H3892 C3906 0.930 . S
H3893 C3908 0.960 1_565 S
H3894 C3908 0.960 . S
H3895 C3908 0.960 . S
C3896 H3888 0.929 . S
C3896 C3897 1.377 . S
C3896 C3898 1.384 . S
C3897 C3896 1.377 . S
C3897 C3903 1.390 . S
C3898 H3889 0.930 . S
C3898 C3896 1.384 . S
C3898 C3899 1.372 . S
C3899 C3898 1.372 . S
C3899 C3900 1.400 . S
C3899 C3904 1.490 . S
C3900 H3890 0.930 . S
C3900 C3899 1.400 . S
C3900 C3903 1.386 . S
H3901 C3917 0.930 . S
H3902 C3918 0.931 . S
C3903 H3891 0.929 . S
C3903 C3897 1.390 . S
C3903 C3900 1.386 . S
C3904 C3899 1.490 . S
C3904 C3906 1.395 . S
C3904 C3907 1.403 . S
H3905 C3911 0.930 . S
C3906 H3892 0.930 . S
C3906 C3904 1.395 . S
C3906 C3909 1.403 1_545 S
C3907 C3904 1.403 . S
C3907 C3908 1.524 . S
C3907 C3911 1.400 1_545 S
C3908 H3893 0.960 1_545 S
C3908 H3894 0.960 . S
C3908 H3895 0.960 . S
C3908 C3907 1.524 . S
C3909 C3906 1.403 1_565 S
C3909 C3910 1.392 . S
C3909 C3913 1.495 . S
C3910 C3909 1.392 . S
C3910 C3911 1.385 . S
C3910 C3912 1.478 . S
C3911 H3905 0.930 . S
C3911 C3907 1.400 1_565 S
C3911 C3910 1.385 . S
C3912 C3910 1.478 . S
C3912 C3914 1.381 . S
C3912 C3918 1.383 . S
C3913 C3909 1.495 . S
C3913 H3919 0.959 1_565 S
C3913 H3920 0.961 . S
C3913 H3921 0.960 . S
C3914 C3912 1.381 . S
C3914 C3915 1.394 . S
C3914 H3922 0.930 . S
C3915 C3914 1.394 . S
C3915 C3916 1.383 . S
C3915 H3923 0.929 . S
C3916 C3915 1.383 . S
C3916 C3917 1.377 . S
C3917 H3901 0.930 . S
C3917 C3916 1.377 . S
C3917 C3918 1.379 . S
C3918 H3902 0.931 . S
C3918 C3912 1.383 . S
C3918 C3917 1.379 . S
H3919 C3913 0.959 1_545 S
H3920 C3913 0.961 . S
H3921 C3913 0.960 . S
H3922 C3914 0.930 . S
H3923 C3915 0.929 . S
H3924 C3932 0.929 . S
H3925 C3934 0.930 . S
H3926 C3936 0.930 . S
H3927 C3939 0.929 . S
H3928 C3942 0.930 . S
H3929 C3944 0.983 . S
H3930 C3944 0.952 1_565 S
H3931 C3944 0.954 . S
C3932 H3924 0.929 . S
C3932 C3933 1.377 . S
C3932 C3934 1.384 . S
C3933 C3932 1.377 . S
C3933 C3939 1.390 . S
C3934 H3925 0.930 . S
C3934 C3932 1.384 . S
C3934 C3935 1.372 . S
C3935 C3934 1.372 . S
C3935 C3936 1.400 . S
C3935 C3940 1.490 . S
C3936 H3926 0.930 . S
C3936 C3935 1.400 . S
C3936 C3939 1.386 . S
H3937 C3953 0.930 . S
H3938 C3954 0.931 . S
C3939 H3927 0.929 . S
C3939 C3933 1.390 . S
C3939 C3936 1.386 . S
C3940 C3935 1.490 . S
C3940 C3942 1.395 . S
C3940 C3943 1.449 . S
H3941 C3947 0.930 . S
C3942 H3928 0.930 . S
C3942 C3940 1.395 . S
C3942 C3945 1.403 . S
C3943 C3940 1.449 . S
C3943 C3944 1.497 1_565 S
C3943 C3947 1.373 1_565 S
C3944 H3929 0.983 . S
C3944 H3930 0.952 1_545 S
C3944 H3931 0.954 . S
C3944 C3943 1.497 1_545 S
C3945 C3942 1.403 . S
C3945 C3946 1.392 1_565 S
C3945 C3949 1.495 . S
C3946 C3945 1.392 1_545 S
C3946 C3947 1.385 . S
C3946 C3948 1.478 . S
C3947 H3941 0.930 . S
C3947 C3943 1.373 1_545 S
C3947 C3946 1.385 . S
C3948 C3946 1.478 . S
C3948 C3950 1.381 . S
C3948 C3954 1.383 . S
C3949 C3945 1.495 . S
C3949 H3955 0.959 . S
C3949 H3956 0.961 1_565 S
C3949 H3957 0.960 . S
C3950 C3948 1.381 . S
C3950 C3951 1.394 . S
C3950 H3958 0.930 . S
C3951 C3950 1.394 . S
C3951 C3952 1.383 . S
C3951 H3959 0.929 . S
C3952 C3951 1.383 . S
C3952 C3953 1.377 . S
C3953 H3937 0.930 . S
C3953 C3952 1.377 . S
C3953 C3954 1.379 . S
C3954 H3938 0.931 . S
C3954 C3948 1.383 . S
C3954 C3953 1.379 . S
H3955 C3949 0.959 . S
H3956 C3949 0.961 1_545 S
H3957 C3949 0.960 . S
H3958 C3950 0.930 . S
H3959 C3951 0.929 . S
H3960 C3968 0.929 . S
H3961 C3970 0.930 . S
H3962 C3972 0.930 . S
H3963 C3975 0.929 . S
H3964 C3978 0.946 . S
H3965 C3980 0.960 . S
H3966 C3980 0.960 . S
H3967 C3980 0.960 . S
C3968 H3960 0.929 . S
C3968 C3969 1.377 . S
C3968 C3970 1.384 . S
C3969 C3968 1.377 . S
C3969 C3975 1.390 . S
C3970 H3961 0.930 . S
C3970 C3968 1.384 . S
C3970 C3971 1.372 . S
C3971 C3970 1.372 . S
C3971 C3972 1.400 . S
C3971 C3976 1.490 . S
C3972 H3962 0.930 . S
C3972 C3971 1.400 . S
C3972 C3975 1.386 . S
H3973 C3989 0.930 . S
H3974 C3990 0.931 . S
C3975 H3963 0.929 . S
C3975 C3969 1.390 . S
C3975 C3972 1.386 . S
C3976 C3971 1.490 . S
C3976 C3978 1.404 . S
C3976 C3979 1.403 . S
H3977 C3983 0.930 . S
C3978 H3964 0.946 . S
C3978 C3976 1.404 . S
C3978 C3981 1.380 1_455 S
C3979 C3976 1.403 . S
C3979 C3980 1.524 . S
C3979 C3983 1.400 1_455 S
C3980 H3965 0.960 . S
C3980 H3966 0.960 . S
C3980 H3967 0.960 . S
C3980 C3979 1.524 . S
C3981 C3978 1.380 1_655 S
C3981 C3982 1.392 . S
C3981 C3985 1.495 . S
C3982 C3981 1.392 . S
C3982 C3983 1.385 . S
C3982 C3984 1.478 . S
C3983 H3977 0.930 . S
C3983 C3979 1.400 1_655 S
C3983 C3982 1.385 . S
C3984 C3982 1.478 . S
C3984 C3986 1.381 . S
C3984 C3990 1.383 . S
C3985 C3981 1.495 . S
C3985 H3991 0.959 . S
C3985 H3992 0.961 . S
C3985 H3993 0.960 . S
C3986 C3984 1.381 . S
C3986 C3987 1.394 . S
C3986 H3994 0.930 . S
C3987 C3986 1.394 . S
C3987 C3988 1.383 . S
C3987 H3995 0.929 . S
C3988 C3987 1.383 . S
C3988 C3989 1.377 . S
C3989 H3973 0.930 . S
C3989 C3988 1.377 . S
C3989 C3990 1.379 . S
C3990 H3974 0.931 . S
C3990 C3984 1.383 . S
C3990 C3989 1.379 . S
H3991 C3985 0.959 . S
H3992 C3985 0.961 . S
H3993 C3985 0.960 . S
H3994 C3986 0.930 . S
H3995 C3987 0.929 . S
H3996 C4004 0.929 . S
H3997 C4006 0.930 . S
H3998 C4008 0.930 . S
H3999 C4011 0.929 . S
H4000 C4014 0.930 . S
H4001 C4016 0.960 . S
H4002 C4016 0.960 . S
H4003 C4016 0.960 . S
C4004 H3996 0.929 . S
C4004 C4005 1.377 . S
C4004 C4006 1.384 . S
C4005 C4004 1.377 . S
C4005 C4011 1.390 . S
C4006 H3997 0.930 . S
C4006 C4004 1.384 . S
C4006 C4007 1.372 . S
C4007 C4006 1.372 . S
C4007 C4008 1.400 . S
C4007 C4012 1.490 . S
C4008 H3998 0.930 . S
C4008 C4007 1.400 . S
C4008 C4011 1.386 . S
H4009 C4025 0.930 . S
H4010 C4026 0.931 . S
C4011 H3999 0.929 . S
C4011 C4005 1.390 . S
C4011 C4008 1.386 . S
C4012 C4007 1.490 . S
C4012 C4014 1.395 . S
C4012 C4015 1.403 . S
H4013 C4019 0.930 . S
C4014 H4000 0.930 . S
C4014 C4012 1.395 . S
C4014 C4017 1.403 . S
C4015 C4012 1.403 . S
C4015 C4016 1.524 . S
C4015 C4019 1.400 . S
C4016 H4001 0.960 . S
C4016 H4002 0.960 . S
C4016 H4003 0.960 . S
C4016 C4015 1.524 . S
C4017 C4014 1.403 . S
C4017 C4018 1.392 . S
C4017 C4021 1.495 . S
C4018 C4017 1.392 . S
C4018 C4019 1.385 . S
C4018 C4020 1.478 . S
C4019 H4013 0.930 . S
C4019 C4015 1.400 . S
C4019 C4018 1.385 . S
C4020 C4018 1.478 . S
C4020 C4022 1.381 . S
C4020 C4026 1.383 . S
C4021 C4017 1.495 . S
C4021 H4027 0.959 . S
C4021 H4028 0.961 . S
C4021 H4029 0.960 . S
C4022 C4020 1.381 . S
C4022 C4023 1.394 . S
C4022 H4030 0.930 . S
C4023 C4022 1.394 . S
C4023 C4024 1.383 . S
C4023 H4031 0.929 . S
C4024 C4023 1.383 . S
C4024 C4025 1.377 . S
C4025 H4009 0.930 . S
C4025 C4024 1.377 . S
C4025 C4026 1.379 . S
C4026 H4010 0.931 . S
C4026 C4020 1.383 . S
C4026 C4025 1.379 . S
H4027 C4021 0.959 . S
H4028 C4021 0.961 . S
H4029 C4021 0.960 . S
H4030 C4022 0.930 . S
H4031 C4023 0.929 . S
H4032 C4040 0.929 . S
H4033 C4042 0.930 . S
H4034 C4044 0.930 . S
H4035 C4047 0.929 . S
H4036 C4050 0.930 . S
H4037 C4052 0.960 . S
H4038 C4052 0.960 . S
H4039 C4052 0.960 . S
C4040 H4032 0.929 . S
C4040 C4041 1.377 . S
C4040 C4042 1.384 . S
C4041 C4040 1.377 . S
C4041 C4047 1.390 . S
C4042 H4033 0.930 . S
C4042 C4040 1.384 . S
C4042 C4043 1.372 . S
C4043 C4042 1.372 . S
C4043 C4044 1.400 . S
C4043 C4048 1.490 . S
C4044 H4034 0.930 . S
C4044 C4043 1.400 . S
C4044 C4047 1.386 . S
H4045 C4061 0.930 . S
H4046 C4062 0.931 . S
C4047 H4035 0.929 . S
C4047 C4041 1.390 . S
C4047 C4044 1.386 . S
C4048 C4043 1.490 . S
C4048 C4050 1.395 . S
C4048 C4051 1.403 . S
H4049 C4055 0.930 . S
C4050 H4036 0.930 . S
C4050 C4048 1.395 . S
C4050 C4053 1.403 . S
C4051 C4048 1.403 . S
C4051 C4052 1.524 . S
C4051 C4055 1.400 . S
C4052 H4037 0.960 . S
C4052 H4038 0.960 . S
C4052 H4039 0.960 . S
C4052 C4051 1.524 . S
C4053 C4050 1.403 . S
C4053 C4054 1.392 . S
C4053 C4057 1.495 . S
C4054 C4053 1.392 . S
C4054 C4055 1.385 . S
C4054 C4056 1.478 . S
C4055 H4049 0.930 . S
C4055 C4051 1.400 . S
C4055 C4054 1.385 . S
C4056 C4054 1.478 . S
C4056 C4058 1.381 . S
C4056 C4062 1.383 . S
C4057 C4053 1.495 . S
C4057 H4063 0.959 . S
C4057 H4064 0.961 . S
C4057 H4065 0.960 . S
C4058 C4056 1.381 . S
C4058 C4059 1.394 . S
C4058 H4066 0.930 . S
C4059 C4058 1.394 . S
C4059 C4060 1.383 . S
C4059 H4067 0.929 . S
C4060 C4059 1.383 . S
C4060 C4061 1.377 . S
C4061 H4045 0.930 . S
C4061 C4060 1.377 . S
C4061 C4062 1.379 . S
C4062 H4046 0.931 . S
C4062 C4056 1.383 . S
C4062 C4061 1.379 . S
H4063 C4057 0.959 . S
H4064 C4057 0.961 . S
H4065 C4057 0.960 . S
H4066 C4058 0.930 . S
H4067 C4059 0.929 . S
H4068 C4076 0.929 . S
H4069 C4078 0.930 . S
H4070 C4080 0.930 . S
H4071 C4083 0.929 . S
H4072 C4086 0.930 . S
H4073 C4088 0.960 . S
H4074 C4088 0.960 . S
H4075 C4088 0.960 . S
C4076 H4068 0.929 . S
C4076 C4077 1.377 . S
C4076 C4078 1.384 . S
C4077 C4076 1.377 . S
C4077 C4083 1.390 . S
C4078 H4069 0.930 . S
C4078 C4076 1.384 . S
C4078 C4079 1.372 . S
C4079 C4078 1.372 . S
C4079 C4080 1.400 . S
C4079 C4084 1.490 . S
C4080 H4070 0.930 . S
C4080 C4079 1.400 . S
C4080 C4083 1.386 . S
H4081 C4097 0.930 . S
H4082 C4098 0.931 . S
C4083 H4071 0.929 . S
C4083 C4077 1.390 . S
C4083 C4080 1.386 . S
C4084 C4079 1.490 . S
C4084 C4086 1.395 . S
C4084 C4087 1.403 1_545 S
H4085 C4091 0.930 . S
C4086 H4072 0.930 . S
C4086 C4084 1.395 . S
C4086 C4089 1.403 . S
C4087 C4084 1.403 1_565 S
C4087 C4088 1.524 . S
C4087 C4091 1.400 . S
C4088 H4073 0.960 . S
C4088 H4074 0.960 . S
C4088 H4075 0.960 . S
C4088 C4087 1.524 . S
C4089 C4086 1.403 . S
C4089 C4090 1.392 1_545 S
C4089 C4093 1.495 . S
C4090 C4089 1.392 1_565 S
C4090 C4091 1.385 . S
C4090 C4092 1.478 . S
C4091 H4085 0.930 . S
C4091 C4087 1.400 . S
C4091 C4090 1.385 . S
C4092 C4090 1.478 . S
C4092 C4094 1.381 . S
C4092 C4098 1.383 . S
C4093 C4089 1.495 . S
C4093 H4099 0.959 . S
C4093 H4100 0.961 . S
C4093 H4101 0.960 . S
C4094 C4092 1.381 . S
C4094 C4095 1.394 . S
C4094 H4102 0.930 . S
C4095 C4094 1.394 . S
C4095 C4096 1.383 . S
C4095 H4103 0.929 . S
C4096 C4095 1.383 . S
C4096 C4097 1.377 . S
C4097 H4081 0.930 . S
C4097 C4096 1.377 . S
C4097 C4098 1.379 . S
C4098 H4082 0.931 . S
C4098 C4092 1.383 . S
C4098 C4097 1.379 . S
H4099 C4093 0.959 . S
H4100 C4093 0.961 . S
H4101 C4093 0.960 . S
H4102 C4094 0.930 . S
H4103 C4095 0.929 . S
H4104 C4112 0.929 . S
H4105 C4114 0.930 . S
H4106 C4116 0.930 . S
H4107 C4119 0.929 . S
H4108 C4122 0.930 . S
H4109 C4124 0.960 . S
H4110 C4124 0.960 . S
H4111 C4124 0.960 . S
C4112 H4104 0.929 . S
C4112 C4113 1.377 . S
C4112 C4114 1.384 . S
C4113 C4112 1.377 . S
C4113 C4119 1.390 . S
C4114 H4105 0.930 . S
C4114 C4112 1.384 . S
C4114 C4115 1.372 . S
C4115 C4114 1.372 . S
C4115 C4116 1.400 . S
C4115 C4120 1.490 . S
C4116 H4106 0.930 . S
C4116 C4115 1.400 . S
C4116 C4119 1.386 . S
H4117 C4133 0.930 . S
H4118 C4134 0.931 . S
C4119 H4107 0.929 . S
C4119 C4113 1.390 . S
C4119 C4116 1.386 . S
C4120 C4115 1.490 . S
C4120 C4122 1.395 1_655 S
C4120 C4123 1.403 . S
H4121 C4127 0.945 . S
C4122 H4108 0.930 . S
C4122 C4120 1.395 1_455 S
C4122 C4125 1.403 . S
C4123 C4120 1.403 . S
C4123 C4124 1.524 . S
C4123 C4127 1.435 . S
C4124 H4109 0.960 . S
C4124 H4110 0.960 . S
C4124 H4111 0.960 . S
C4124 C4123 1.524 . S
C4125 C4122 1.403 . S
C4125 C4126 1.392 . S
C4125 C4129 1.495 . S
C4126 C4125 1.392 . S
C4126 C4127 1.337 1_455 S
C4126 C4128 1.478 . S
C4127 H4121 0.945 . S
C4127 C4123 1.435 . S
C4127 C4126 1.337 1_655 S
C4128 C4126 1.478 . S
C4128 C4130 1.381 . S
C4128 C4134 1.383 . S
C4129 C4125 1.495 . S
C4129 H4135 0.959 . S
C4129 H4136 0.961 . S
C4129 H4137 0.960 . S
C4130 C4128 1.381 . S
C4130 C4131 1.394 . S
C4130 H4138 0.930 . S
C4131 C4130 1.394 . S
C4131 C4132 1.383 . S
C4131 H4139 0.929 . S
C4132 C4131 1.383 . S
C4132 C4133 1.377 . S
C4133 H4117 0.930 . S
C4133 C4132 1.377 . S
C4133 C4134 1.379 . S
C4134 H4118 0.931 . S
C4134 C4128 1.383 . S
C4134 C4133 1.379 . S
H4135 C4129 0.959 . S
H4136 C4129 0.961 . S
H4137 C4129 0.960 . S
H4138 C4130 0.930 . S
H4139 C4131 0.929 . S
H4140 C4148 0.929 . S
H4141 C4150 0.930 . S
H4142 C4152 0.930 . S
H4143 C4155 0.929 . S
H4144 C4158 0.930 . S
H4145 C4160 0.960 . S
H4146 C4160 0.960 . S
H4147 C4160 0.960 . S
C4148 H4140 0.929 . S
C4148 C4149 1.377 . S
C4148 C4150 1.384 . S
C4149 C4148 1.377 . S
C4149 C4155 1.390 . S
C4150 H4141 0.930 . S
C4150 C4148 1.384 . S
C4150 C4151 1.372 . S
C4151 C4150 1.372 . S
C4151 C4152 1.400 . S
C4151 C4156 1.490 . S
C4152 H4142 0.930 . S
C4152 C4151 1.400 . S
C4152 C4155 1.386 . S
H4153 C4169 0.930 . S
H4154 C4170 0.931 . S
C4155 H4143 0.929 . S
C4155 C4149 1.390 . S
C4155 C4152 1.386 . S
C4156 C4151 1.490 . S
C4156 C4158 1.395 . S
C4156 C4159 1.403 . S
H4157 C4163 0.930 . S
C4158 H4144 0.930 . S
C4158 C4156 1.395 . S
C4158 C4161 1.403 . S
C4159 C4156 1.403 . S
C4159 C4160 1.524 . S
C4159 C4163 1.400 . S
C4160 H4145 0.960 . S
C4160 H4146 0.960 . S
C4160 H4147 0.960 . S
C4160 C4159 1.524 . S
C4161 C4158 1.403 . S
C4161 C4162 1.392 . S
C4161 C4165 1.495 . S
C4162 C4161 1.392 . S
C4162 C4163 1.385 . S
C4162 C4164 1.478 . S
C4163 H4157 0.930 . S
C4163 C4159 1.400 . S
C4163 C4162 1.385 . S
C4164 C4162 1.478 . S
C4164 C4166 1.381 . S
C4164 C4170 1.383 . S
C4165 C4161 1.495 . S
C4165 H4171 0.959 . S
C4165 H4172 0.961 . S
C4165 H4173 0.960 . S
C4166 C4164 1.381 . S
C4166 C4167 1.394 . S
C4166 H4174 0.930 . S
C4167 C4166 1.394 . S
C4167 C4168 1.383 . S
C4167 H4175 0.929 . S
C4168 C4167 1.383 . S
C4168 C4169 1.377 . S
C4169 H4153 0.930 . S
C4169 C4168 1.377 . S
C4169 C4170 1.379 . S
C4170 H4154 0.931 . S
C4170 C4164 1.383 . S
C4170 C4169 1.379 . S
H4171 C4165 0.959 . S
H4172 C4165 0.961 . S
H4173 C4165 0.960 . S
H4174 C4166 0.930 . S
H4175 C4167 0.929 . S
H4176 C4184 0.929 . S
H4177 C4186 0.930 . S
H4178 C4188 0.930 . S
H4179 C4191 0.929 . S
H4180 C4194 0.930 . S
H4181 C4196 0.960 . S
H4182 C4196 0.960 . S
H4183 C4196 0.960 . S
C4184 H4176 0.929 . S
C4184 C4185 1.377 . S
C4184 C4186 1.384 . S
C4185 C4184 1.377 . S
C4185 C4191 1.390 . S
C4186 H4177 0.930 . S
C4186 C4184 1.384 . S
C4186 C4187 1.372 . S
C4187 C4186 1.372 . S
C4187 C4188 1.400 . S
C4187 C4192 1.490 . S
C4188 H4178 0.930 . S
C4188 C4187 1.400 . S
C4188 C4191 1.386 . S
H4189 C4205 0.930 . S
H4190 C4206 0.931 . S
C4191 H4179 0.929 . S
C4191 C4185 1.390 . S
C4191 C4188 1.386 . S
C4192 C4187 1.490 . S
C4192 C4194 1.395 . S
C4192 C4195 1.403 . S
H4193 C4199 0.930 . S
C4194 H4180 0.930 . S
C4194 C4192 1.395 . S
C4194 C4197 1.403 1_565 S
C4195 C4192 1.403 . S
C4195 C4196 1.524 . S
C4195 C4199 1.400 1_565 S
C4196 H4181 0.960 . S
C4196 H4182 0.960 . S
C4196 H4183 0.960 . S
C4196 C4195 1.524 . S
C4197 C4194 1.403 1_545 S
C4197 C4198 1.392 . S
C4197 C4201 1.495 . S
C4198 C4197 1.392 . S
C4198 C4199 1.385 . S
C4198 C4200 1.478 . S
C4199 H4193 0.930 . S
C4199 C4195 1.400 1_545 S
C4199 C4198 1.385 . S
C4200 C4198 1.478 . S
C4200 C4202 1.381 . S
C4200 C4206 1.383 . S
C4201 C4197 1.495 . S
C4201 H4207 0.959 . S
C4201 H4208 0.961 . S
C4201 H4209 0.960 . S
C4202 C4200 1.381 . S
C4202 C4203 1.394 . S
C4202 H4210 0.930 . S
C4203 C4202 1.394 . S
C4203 C4204 1.383 . S
C4203 H4211 0.929 . S
C4204 C4203 1.383 . S
C4204 C4205 1.377 . S
C4205 H4189 0.930 . S
C4205 C4204 1.377 . S
C4205 C4206 1.379 . S
C4206 H4190 0.931 . S
C4206 C4200 1.383 . S
C4206 C4205 1.379 . S
H4207 C4201 0.959 . S
H4208 C4201 0.961 . S
H4209 C4201 0.960 . S
H4210 C4202 0.930 . S
H4211 C4203 0.929 . S
H4212 C4220 0.929 . S
H4213 C4222 0.930 . S
H4214 C4224 0.930 . S
H4215 C4227 0.929 . S
H4216 C4230 0.930 . S
H4217 C4232 0.960 1_455 S
H4218 C4232 0.960 . S
H4219 C4232 0.960 . S
C4220 H4212 0.929 . S
C4220 C4221 1.377 . S
C4220 C4222 1.384 . S
C4221 C4220 1.377 . S
C4221 C4227 1.390 . S
C4222 H4213 0.930 . S
C4222 C4220 1.384 . S
C4222 C4223 1.372 . S
C4223 C4222 1.372 . S
C4223 C4224 1.400 . S
C4223 C4228 1.490 . S
C4224 H4214 0.930 . S
C4224 C4223 1.400 . S
C4224 C4227 1.386 . S
H4225 C4241 0.930 . S
H4226 C4242 0.931 . S
C4227 H4215 0.929 . S
C4227 C4221 1.390 . S
C4227 C4224 1.386 . S
C4228 C4223 1.490 . S
C4228 C4230 1.395 . S
C4228 C4231 1.403 . S
H4229 C4235 0.930 . S
C4230 H4216 0.930 . S
C4230 C4228 1.395 . S
C4230 C4233 1.394 1_655 S
C4231 C4228 1.403 . S
C4231 C4232 1.524 . S
C4231 C4235 1.400 1_655 S
C4232 H4217 0.960 1_655 S
C4232 H4218 0.960 . S
C4232 H4219 0.960 . S
C4232 C4231 1.524 . S
C4233 C4230 1.394 1_455 S
C4233 C4234 1.395 . S
C4233 C4237 1.460 . S
C4234 C4233 1.395 . S
C4234 C4235 1.385 . S
C4234 C4236 1.478 . S
C4235 H4229 0.930 . S
C4235 C4231 1.400 1_455 S
C4235 C4234 1.385 . S
C4236 C4234 1.478 . S
C4236 C4238 1.381 . S
C4236 C4242 1.383 . S
C4237 C4233 1.460 . S
C4237 H4243 0.933 1_455 S
C4237 H4244 1.055 . S
C4237 H4245 0.944 1_455 S
C4238 C4236 1.381 . S
C4238 C4239 1.394 . S
C4238 H4246 0.930 . S
C4239 C4238 1.394 . S
C4239 C4240 1.383 . S
C4239 H4247 0.929 . S
C4240 C4239 1.383 . S
C4240 C4241 1.377 . S
C4241 H4225 0.930 . S
C4241 C4240 1.377 . S
C4241 C4242 1.379 . S
C4242 H4226 0.931 . S
C4242 C4236 1.383 . S
C4242 C4241 1.379 . S
H4243 C4237 0.933 1_655 S
H4244 C4237 1.055 . S
H4245 C4237 0.944 1_655 S
H4246 C4238 0.930 . S
H4247 C4239 0.929 . S
H4248 C4256 0.929 . S
H4249 C4258 0.930 . S
H4250 C4260 0.930 . S
H4251 C4263 0.929 . S
H4252 C4266 0.930 . S
H4253 C4268 0.960 . S
H4254 C4268 0.960 . S
H4255 C4268 0.960 . S
C4256 H4248 0.929 . S
C4256 C4257 1.377 . S
C4256 C4258 1.384 . S
C4257 C4256 1.377 . S
C4257 C4263 1.390 . S
C4258 H4249 0.930 . S
C4258 C4256 1.384 . S
C4258 C4259 1.372 . S
C4259 C4258 1.372 . S
C4259 C4260 1.400 . S
C4259 C4264 1.490 . S
C4260 H4250 0.930 . S
C4260 C4259 1.400 . S
C4260 C4263 1.386 . S
H4261 C4277 0.930 . S
H4262 C4278 0.931 . S
C4263 H4251 0.929 . S
C4263 C4257 1.390 . S
C4263 C4260 1.386 . S
C4264 C4259 1.490 . S
C4264 C4266 1.395 . S
C4264 C4267 1.403 . S
H4265 C4271 0.930 . S
C4266 H4252 0.930 . S
C4266 C4264 1.395 . S
C4266 C4269 1.403 . S
C4267 C4264 1.403 . S
C4267 C4268 1.524 . S
C4267 C4271 1.400 . S
C4268 H4253 0.960 . S
C4268 H4254 0.960 . S
C4268 H4255 0.960 . S
C4268 C4267 1.524 . S
C4269 C4266 1.403 . S
C4269 C4270 1.392 . S
C4269 C4273 1.495 . S
C4270 C4269 1.392 . S
C4270 C4271 1.385 . S
C4270 C4272 1.478 . S
C4271 H4265 0.930 . S
C4271 C4267 1.400 . S
C4271 C4270 1.385 . S
C4272 C4270 1.478 . S
C4272 C4274 1.381 . S
C4272 C4278 1.383 . S
C4273 C4269 1.495 . S
C4273 H4279 0.959 . S
C4273 H4280 0.961 . S
C4273 H4281 0.960 . S
C4274 C4272 1.381 . S
C4274 C4275 1.394 . S
C4274 H4282 0.930 . S
C4275 C4274 1.394 . S
C4275 C4276 1.383 . S
C4275 H4283 0.929 . S
C4276 C4275 1.383 . S
C4276 C4277 1.377 . S
C4277 H4261 0.930 . S
C4277 C4276 1.377 . S
C4277 C4278 1.379 . S
C4278 H4262 0.931 . S
C4278 C4272 1.383 . S
C4278 C4277 1.379 . S
H4279 C4273 0.959 . S
H4280 C4273 0.961 . S
H4281 C4273 0.960 . S
H4282 C4274 0.930 . S
H4283 C4275 0.929 . S
H4284 C4292 0.929 . S
H4285 C4294 0.930 . S
H4286 C4296 0.930 . S
H4287 C4299 0.929 . S
H4288 C4302 0.930 . S
H4289 C4304 0.960 . S
H4290 C4304 0.960 . S
H4291 C4304 0.960 . S
C4292 H4284 0.929 . S
C4292 C4293 1.377 . S
C4292 C4294 1.384 . S
C4293 C4292 1.377 . S
C4293 C4299 1.390 . S
C4294 H4285 0.930 . S
C4294 C4292 1.384 . S
C4294 C4295 1.372 . S
C4295 C4294 1.372 . S
C4295 C4296 1.400 . S
C4295 C4300 1.490 . S
C4296 H4286 0.930 . S
C4296 C4295 1.400 . S
C4296 C4299 1.386 . S
H4297 C4313 0.930 . S
H4298 C4314 0.931 . S
C4299 H4287 0.929 . S
C4299 C4293 1.390 . S
C4299 C4296 1.386 . S
C4300 C4295 1.490 . S
C4300 C4302 1.395 . S
C4300 C4303 1.403 . S
H4301 C4307 0.930 . S
C4302 H4288 0.930 . S
C4302 C4300 1.395 . S
C4302 C4305 1.403 . S
C4303 C4300 1.403 . S
C4303 C4304 1.524 . S
C4303 C4307 1.400 . S
C4304 H4289 0.960 . S
C4304 H4290 0.960 . S
C4304 H4291 0.960 . S
C4304 C4303 1.524 . S
C4305 C4302 1.403 . S
C4305 C4306 1.392 . S
C4305 C4309 1.495 . S
C4306 C4305 1.392 . S
C4306 C4307 1.385 . S
C4306 C4308 1.478 . S
C4307 H4301 0.930 . S
C4307 C4303 1.400 . S
C4307 C4306 1.385 . S
C4308 C4306 1.478 . S
C4308 C4310 1.381 . S
C4308 C4314 1.383 . S
C4309 C4305 1.495 . S
C4309 H4315 0.959 . S
C4309 H4316 0.961 . S
C4309 H4317 0.960 . S
C4310 C4308 1.381 . S
C4310 C4311 1.394 . S
C4310 H4318 0.930 . S
C4311 C4310 1.394 . S
C4311 C4312 1.383 . S
C4311 H4319 0.929 . S
C4312 C4311 1.383 . S
C4312 C4313 1.377 . S
C4313 H4297 0.930 . S
C4313 C4312 1.377 . S
C4313 C4314 1.379 . S
C4314 H4298 0.931 . S
C4314 C4308 1.383 . S
C4314 C4313 1.379 . S
H4315 C4309 0.959 . S
H4316 C4309 0.961 . S
H4317 C4309 0.960 . S
H4318 C4310 0.930 . S
H4319 C4311 0.929 . S
H4320 C4328 0.929 . S
H4321 C4330 0.930 . S
H4322 C4332 0.930 . S
H4323 C4335 0.929 . S
H4324 C4338 0.930 . S
H4325 C4340 0.960 . S
H4326 C4340 0.960 . S
H4327 C4340 0.960 . S
C4328 H4320 0.929 . S
C4328 C4329 1.377 . S
C4328 C4330 1.384 . S
C4329 C4328 1.377 . S
C4329 C4335 1.390 . S
C4330 H4321 0.930 . S
C4330 C4328 1.384 . S
C4330 C4331 1.372 . S
C4331 C4330 1.372 . S
C4331 C4332 1.400 . S
C4331 C4336 1.490 . S
C4332 H4322 0.930 . S
C4332 C4331 1.400 . S
C4332 C4335 1.386 . S
H4333 C4349 0.930 . S
H4334 C4350 0.931 . S
C4335 H4323 0.929 . S
C4335 C4329 1.390 . S
C4335 C4332 1.386 . S
C4336 C4331 1.490 . S
C4336 C4338 1.395 . S
C4336 C4339 1.403 . S
H4337 C4343 0.930 . S
C4338 H4324 0.930 . S
C4338 C4336 1.395 . S
C4338 C4341 1.403 . S
C4339 C4336 1.403 . S
C4339 C4340 1.524 . S
C4339 C4343 1.400 . S
C4340 H4325 0.960 . S
C4340 H4326 0.960 . S
C4340 H4327 0.960 . S
C4340 C4339 1.524 . S
C4341 C4338 1.403 . S
C4341 C4342 1.392 . S
C4341 C4345 1.495 . S
C4342 C4341 1.392 . S
C4342 C4343 1.385 . S
C4342 C4344 1.478 . S
C4343 H4337 0.930 . S
C4343 C4339 1.400 . S
C4343 C4342 1.385 . S
C4344 C4342 1.478 . S
C4344 C4346 1.381 . S
C4344 C4350 1.383 . S
C4345 C4341 1.495 . S
C4345 H4351 0.959 . S
C4345 H4352 0.961 . S
C4345 H4353 0.960 . S
C4346 C4344 1.381 . S
C4346 C4347 1.394 . S
C4346 H4354 0.930 . S
C4347 C4346 1.394 . S
C4347 C4348 1.383 . S
C4347 H4355 0.929 . S
C4348 C4347 1.383 . S
C4348 C4349 1.377 . S
C4349 H4333 0.930 . S
C4349 C4348 1.377 . S
C4349 C4350 1.379 . S
C4350 H4334 0.931 . S
C4350 C4344 1.383 . S
C4350 C4349 1.379 . S
H4351 C4345 0.959 . S
H4352 C4345 0.961 . S
H4353 C4345 0.960 . S
H4354 C4346 0.930 . S
H4355 C4347 0.929 . S
H4356 C4364 0.929 . S
H4357 C4366 0.930 . S
H4358 C4368 0.930 . S
H4359 C4371 0.929 . S
H4360 C4374 0.930 . S
H4361 C4376 0.960 . S
H4362 C4376 0.960 . S
H4363 C4376 0.960 . S
C4364 H4356 0.929 . S
C4364 C4365 1.377 . S
C4364 C4366 1.384 . S
C4365 C4364 1.377 . S
C4365 C4371 1.390 . S
C4366 H4357 0.930 . S
C4366 C4364 1.384 . S
C4366 C4367 1.372 . S
C4367 C4366 1.372 . S
C4367 C4368 1.400 . S
C4367 C4372 1.490 . S
C4368 H4358 0.930 . S
C4368 C4367 1.400 . S
C4368 C4371 1.386 . S
H4369 C4385 0.930 . S
H4370 C4386 0.931 . S
C4371 H4359 0.929 . S
C4371 C4365 1.390 . S
C4371 C4368 1.386 . S
C4372 C4367 1.490 . S
C4372 C4374 1.395 . S
C4372 C4375 1.403 . S
H4373 C4379 0.930 . S
C4374 H4360 0.930 . S
C4374 C4372 1.395 . S
C4374 C4377 1.403 . S
C4375 C4372 1.403 . S
C4375 C4376 1.524 . S
C4375 C4379 1.400 . S
C4376 H4361 0.960 . S
C4376 H4362 0.960 . S
C4376 H4363 0.960 . S
C4376 C4375 1.524 . S
C4377 C4374 1.403 . S
C4377 C4378 1.392 . S
C4377 C4381 1.495 . S
C4378 C4377 1.392 . S
C4378 C4379 1.385 . S
C4378 C4380 1.478 . S
C4379 H4373 0.930 . S
C4379 C4375 1.400 . S
C4379 C4378 1.385 . S
C4380 C4378 1.478 . S
C4380 C4382 1.381 . S
C4380 C4386 1.383 . S
C4381 C4377 1.495 . S
C4381 H4387 0.959 . S
C4381 H4388 0.961 . S
C4381 H4389 0.960 . S
C4382 C4380 1.381 . S
C4382 C4383 1.394 . S
C4382 H4390 0.930 . S
C4383 C4382 1.394 . S
C4383 C4384 1.381 1_554 S
C4383 H4391 0.929 . S
C4384 C4383 1.381 1_556 S
C4384 C4385 1.377 . S
C4385 H4369 0.930 . S
C4385 C4384 1.377 . S
C4385 C4386 1.379 1_556 S
C4386 H4370 0.931 . S
C4386 C4380 1.383 . S
C4386 C4385 1.379 1_554 S
H4387 C4381 0.959 . S
H4388 C4381 0.961 . S
H4389 C4381 0.960 . S
H4390 C4382 0.930 . S
H4391 C4383 0.929 . S
H4392 C4400 0.929 . S
H4393 C4402 0.930 . S
H4394 C4404 0.930 . S
H4395 C4407 0.929 . S
H4396 C4410 0.930 . S
H4397 C4412 0.960 . S
H4398 C4412 0.960 . S
H4399 C4412 0.960 . S
C4400 H4392 0.929 . S
C4400 C4401 1.377 . S
C4400 C4402 1.384 . S
C4401 C4400 1.377 . S
C4401 C4407 1.390 . S
C4402 H4393 0.930 . S
C4402 C4400 1.384 . S
C4402 C4403 1.372 . S
C4403 C4402 1.372 . S
C4403 C4404 1.400 . S
C4403 C4408 1.490 . S
C4404 H4394 0.930 . S
C4404 C4403 1.400 . S
C4404 C4407 1.386 . S
H4405 C4421 0.930 . S
H4406 C4422 0.931 . S
C4407 H4395 0.929 . S
C4407 C4401 1.390 . S
C4407 C4404 1.386 . S
C4408 C4403 1.490 . S
C4408 C4410 1.395 . S
C4408 C4411 1.403 . S
H4409 C4415 0.930 . S
C4410 H4396 0.930 . S
C4410 C4408 1.395 . S
C4410 C4413 1.403 . S
C4411 C4408 1.403 . S
C4411 C4412 1.524 . S
C4411 C4415 1.400 . S
C4412 H4397 0.960 . S
C4412 H4398 0.960 . S
C4412 H4399 0.960 . S
C4412 C4411 1.524 . S
C4413 C4410 1.403 . S
C4413 C4414 1.392 . S
C4413 C4417 1.495 . S
C4414 C4413 1.392 . S
C4414 C4415 1.385 . S
C4414 C4416 1.478 . S
C4415 H4409 0.930 . S
C4415 C4411 1.400 . S
C4415 C4414 1.385 . S
C4416 C4414 1.478 . S
C4416 C4418 1.381 . S
C4416 C4422 1.383 . S
C4417 C4413 1.495 . S
C4417 H4423 0.959 . S
C4417 H4424 0.961 . S
C4417 H4425 0.960 . S
C4418 C4416 1.381 . S
C4418 C4419 1.394 1_554 S
C4418 H4426 0.930 . S
C4419 C4418 1.394 1_556 S
C4419 C4420 1.383 . S
C4419 H4427 0.929 . S
C4420 C4419 1.383 . S
C4420 C4421 1.377 1_556 S
C4421 H4405 0.930 . S
C4421 C4420 1.377 1_554 S
C4421 C4422 1.379 . S
C4422 H4406 0.931 . S
C4422 C4416 1.383 . S
C4422 C4421 1.379 . S
H4423 C4417 0.959 . S
H4424 C4417 0.961 . S
H4425 C4417 0.960 . S
H4426 C4418 0.930 . S
H4427 C4419 0.929 . S
H4428 C4436 0.929 . S
H4429 C4438 0.930 . S
H4430 C4440 0.930 . S
H4431 C4443 0.929 . S
H4432 C4446 0.930 . S
H4433 C4448 0.960 . S
H4434 C4448 0.960 . S
H4435 C4448 0.960 . S
C4436 H4428 0.929 . S
C4436 C4437 1.377 . S
C4436 C4438 1.384 . S
C4437 C4436 1.377 . S
C4437 C4443 1.390 . S
C4438 H4429 0.930 . S
C4438 C4436 1.384 . S
C4438 C4439 1.372 . S
C4439 C4438 1.372 . S
C4439 C4440 1.400 . S
C4439 C4444 1.490 . S
C4440 H4430 0.930 . S
C4440 C4439 1.400 . S
C4440 C4443 1.386 . S
H4441 C4457 0.930 . S
H4442 C4458 0.931 . S
C4443 H4431 0.929 . S
C4443 C4437 1.390 . S
C4443 C4440 1.386 . S
C4444 C4439 1.490 . S
C4444 C4446 1.395 . S
C4444 C4447 1.403 . S
H4445 C4451 0.930 . S
C4446 H4432 0.930 . S
C4446 C4444 1.395 . S
C4446 C4449 1.403 . S
C4447 C4444 1.403 . S
C4447 C4448 1.524 . S
C4447 C4451 1.400 . S
C4448 H4433 0.960 . S
C4448 H4434 0.960 . S
C4448 H4435 0.960 . S
C4448 C4447 1.524 . S
C4449 C4446 1.403 . S
C4449 C4450 1.392 . S
C4449 C4453 1.495 . S
C4450 C4449 1.392 . S
C4450 C4451 1.385 . S
C4450 C4452 1.478 . S
C4451 H4445 0.930 . S
C4451 C4447 1.400 . S
C4451 C4450 1.385 . S
C4452 C4450 1.478 . S
C4452 C4454 1.381 . S
C4452 C4458 1.383 . S
C4453 C4449 1.495 . S
C4453 H4459 0.959 . S
C4453 H4460 0.961 . S
C4453 H4461 0.960 . S
C4454 C4452 1.381 . S
C4454 C4455 1.394 1_554 S
C4454 H4462 0.930 . S
C4455 C4454 1.394 1_556 S
C4455 C4456 1.383 . S
C4455 H4463 0.929 . S
C4456 C4455 1.383 . S
C4456 C4457 1.377 1_556 S
C4457 H4441 0.930 . S
C4457 C4456 1.377 1_554 S
C4457 C4458 1.379 . S
C4458 H4442 0.931 . S
C4458 C4452 1.383 . S
C4458 C4457 1.379 . S
H4459 C4453 0.959 . S
H4460 C4453 0.961 . S
H4461 C4453 0.960 . S
H4462 C4454 0.930 . S
H4463 C4455 0.929 . S
H4464 C4472 0.929 . S
H4465 C4474 0.930 . S
H4466 C4476 0.930 . S
H4467 C4479 0.929 . S
H4468 C4482 0.930 . S
H4469 C4484 0.960 . S
H4470 C4484 0.960 . S
H4471 C4484 0.960 . S
C4472 H4464 0.929 . S
C4472 C4473 1.377 . S
C4472 C4474 1.384 . S
C4473 C4472 1.377 . S
C4473 C4479 1.390 . S
C4474 H4465 0.930 . S
C4474 C4472 1.384 . S
C4474 C4475 1.372 . S
C4475 C4474 1.372 . S
C4475 C4476 1.400 . S
C4475 C4480 1.490 . S
C4476 H4466 0.930 . S
C4476 C4475 1.400 . S
C4476 C4479 1.386 . S
H4477 C4493 0.930 . S
H4478 C4494 0.931 . S
C4479 H4467 0.929 . S
C4479 C4473 1.390 . S
C4479 C4476 1.386 . S
C4480 C4475 1.490 . S
C4480 C4482 1.395 . S
C4480 C4483 1.403 . S
H4481 C4487 0.930 . S
C4482 H4468 0.930 . S
C4482 C4480 1.395 . S
C4482 C4485 1.403 . S
C4483 C4480 1.403 . S
C4483 C4484 1.524 . S
C4483 C4487 1.400 . S
C4484 H4469 0.960 . S
C4484 H4470 0.960 . S
C4484 H4471 0.960 . S
C4484 C4483 1.524 . S
C4485 C4482 1.403 . S
C4485 C4486 1.392 . S
C4485 C4489 1.495 . S
C4486 C4485 1.392 . S
C4486 C4487 1.385 . S
C4486 C4488 1.478 . S
C4487 H4481 0.930 . S
C4487 C4483 1.400 . S
C4487 C4486 1.385 . S
C4488 C4486 1.478 . S
C4488 C4490 1.381 . S
C4488 C4494 1.383 . S
C4489 C4485 1.495 . S
C4489 H4495 0.959 . S
C4489 H4496 0.961 . S
C4489 H4497 0.960 . S
C4490 C4488 1.381 . S
C4490 C4491 1.394 1_556 S
C4490 H4498 0.930 . S
C4491 C4490 1.394 1_554 S
C4491 C4492 1.383 . S
C4491 H4499 0.929 . S
C4492 C4491 1.383 . S
C4492 C4493 1.377 1_554 S
C4493 H4477 0.930 . S
C4493 C4492 1.377 1_556 S
C4493 C4494 1.379 . S
C4494 H4478 0.931 . S
C4494 C4488 1.383 . S
C4494 C4493 1.379 . S
H4495 C4489 0.959 . S
H4496 C4489 0.961 . S
H4497 C4489 0.960 . S
H4498 C4490 0.930 . S
H4499 C4491 0.929 . S
H4500 C4508 0.929 . S
H4501 C4510 0.930 . S
H4502 C4512 0.930 . S
H4503 C4515 0.929 . S
H4504 C4518 0.930 . S
H4505 C4520 0.960 . S
H4506 C4520 0.960 . S
H4507 C4520 0.960 . S
C4508 H4500 0.929 . S
C4508 C4509 1.372 1_556 S
C4508 C4510 1.384 . S
C4509 C4508 1.372 1_554 S
C4509 C4515 1.391 . S
C4510 H4501 0.930 . S
C4510 C4508 1.384 . S
C4510 C4511 1.372 . S
C4511 C4510 1.372 . S
C4511 C4512 1.400 . S
C4511 C4516 1.490 . S
C4512 H4502 0.930 . S
C4512 C4511 1.400 . S
C4512 C4515 1.386 1_556 S
H4513 C4529 0.930 . S
H4514 C4530 0.931 . S
C4515 H4503 0.929 . S
C4515 C4509 1.391 . S
C4515 C4512 1.386 1_554 S
C4516 C4511 1.490 . S
C4516 C4518 1.395 . S
C4516 C4519 1.403 . S
H4517 C4523 0.930 . S
C4518 H4504 0.930 . S
C4518 C4516 1.395 . S
C4518 C4521 1.403 . S
C4519 C4516 1.403 . S
C4519 C4520 1.524 . S
C4519 C4523 1.400 . S
C4520 H4505 0.960 . S
C4520 H4506 0.960 . S
C4520 H4507 0.960 . S
C4520 C4519 1.524 . S
C4521 C4518 1.403 . S
C4521 C4522 1.392 . S
C4521 C4525 1.495 . S
C4522 C4521 1.392 . S
C4522 C4523 1.385 . S
C4522 C4524 1.478 . S
C4523 H4517 0.930 . S
C4523 C4519 1.400 . S
C4523 C4522 1.385 . S
C4524 C4522 1.478 . S
C4524 C4526 1.381 . S
C4524 C4530 1.383 . S
C4525 C4521 1.495 . S
C4525 H4531 0.959 . S
C4525 H4532 0.961 . S
C4525 H4533 0.960 . S
C4526 C4524 1.381 . S
C4526 C4527 1.394 . S
C4526 H4534 0.930 . S
C4527 C4526 1.394 . S
C4527 C4528 1.383 . S
C4527 H4535 0.929 . S
C4528 C4527 1.383 . S
C4528 C4529 1.377 . S
C4529 H4513 0.930 . S
C4529 C4528 1.377 . S
C4529 C4530 1.379 . S
C4530 H4514 0.931 . S
C4530 C4524 1.383 . S
C4530 C4529 1.379 . S
H4531 C4525 0.959 . S
H4532 C4525 0.961 . S
H4533 C4525 0.960 . S
H4534 C4526 0.930 . S
H4535 C4527 0.929 . S
H4536 C4544 0.929 . S
H4537 C4546 0.930 . S
H4538 C4548 0.930 . S
H4539 C4551 0.929 . S
H4540 C4554 0.930 . S
H4541 C4556 0.960 . S
H4542 C4556 0.960 . S
H4543 C4556 0.960 . S
C4544 H4536 0.929 . S
C4544 C4545 1.382 . S
C4544 C4546 1.384 1_554 S
C4545 C4544 1.382 . S
C4545 C4551 1.367 1_554 S
C4546 H4537 0.930 . S
C4546 C4544 1.384 1_556 S
C4546 C4547 1.372 . S
C4547 C4546 1.372 . S
C4547 C4548 1.400 . S
C4547 C4552 1.490 . S
C4548 H4538 0.930 . S
C4548 C4547 1.400 . S
C4548 C4551 1.386 . S
H4549 C4565 0.930 . S
H4550 C4566 0.931 . S
C4551 H4539 0.929 . S
C4551 C4545 1.367 1_556 S
C4551 C4548 1.386 . S
C4552 C4547 1.490 . S
C4552 C4554 1.395 . S
C4552 C4555 1.403 . S
H4553 C4559 0.930 . S
C4554 H4540 0.930 . S
C4554 C4552 1.395 . S
C4554 C4557 1.403 . S
C4555 C4552 1.403 . S
C4555 C4556 1.524 . S
C4555 C4559 1.400 . S
C4556 H4541 0.960 . S
C4556 H4542 0.960 . S
C4556 H4543 0.960 . S
C4556 C4555 1.524 . S
C4557 C4554 1.403 . S
C4557 C4558 1.392 . S
C4557 C4561 1.495 . S
C4558 C4557 1.392 . S
C4558 C4559 1.385 . S
C4558 C4560 1.478 . S
C4559 H4553 0.930 . S
C4559 C4555 1.400 . S
C4559 C4558 1.385 . S
C4560 C4558 1.478 . S
C4560 C4562 1.381 . S
C4560 C4566 1.383 . S
C4561 C4557 1.495 . S
C4561 H4567 0.959 . S
C4561 H4568 0.961 . S
C4561 H4569 0.960 . S
C4562 C4560 1.381 . S
C4562 C4563 1.394 . S
C4562 H4570 0.930 . S
C4563 C4562 1.394 . S
C4563 C4564 1.383 . S
C4563 H4571 0.929 . S
C4564 C4563 1.383 . S
C4564 C4565 1.377 . S
C4565 H4549 0.930 . S
C4565 C4564 1.377 . S
C4565 C4566 1.379 . S
C4566 H4550 0.931 . S
C4566 C4560 1.383 . S
C4566 C4565 1.379 . S
H4567 C4561 0.959 . S
H4568 C4561 0.961 . S
H4569 C4561 0.960 . S
H4570 C4562 0.930 . S
H4571 C4563 0.929 . S
H4572 C4580 0.929 . S
H4573 C4582 0.930 . S
H4574 C4584 0.930 . S
H4575 C4587 0.929 . S
H4576 C4590 0.930 . S
H4577 C4592 0.960 . S
H4578 C4592 0.960 . S
H4579 C4592 0.960 . S
C4580 H4572 0.929 . S
C4580 C4581 1.377 . S
C4580 C4582 1.384 . S
C4581 C4580 1.377 . S
C4581 C4587 1.390 . S
C4582 H4573 0.930 . S
C4582 C4580 1.384 . S
C4582 C4583 1.372 . S
C4583 C4582 1.372 . S
C4583 C4584 1.400 . S
C4583 C4588 1.490 . S
C4584 H4574 0.930 . S
C4584 C4583 1.400 . S
C4584 C4587 1.386 . S
H4585 C4601 0.930 . S
H4586 C4602 0.931 . S
C4587 H4575 0.929 . S
C4587 C4581 1.390 . S
C4587 C4584 1.386 . S
C4588 C4583 1.490 . S
C4588 C4590 1.395 . S
C4588 C4591 1.403 . S
H4589 C4595 0.930 . S
C4590 H4576 0.930 . S
C4590 C4588 1.395 . S
C4590 C4593 1.403 . S
C4591 C4588 1.403 . S
C4591 C4592 1.524 . S
C4591 C4595 1.400 . S
C4592 H4577 0.960 . S
C4592 H4578 0.960 . S
C4592 H4579 0.960 . S
C4592 C4591 1.524 . S
C4593 C4590 1.403 . S
C4593 C4594 1.392 . S
C4593 C4597 1.495 . S
C4594 C4593 1.392 . S
C4594 C4595 1.385 . S
C4594 C4596 1.478 . S
C4595 H4589 0.930 . S
C4595 C4591 1.400 . S
C4595 C4594 1.385 . S
C4596 C4594 1.478 . S
C4596 C4598 1.381 . S
C4596 C4602 1.383 . S
C4597 C4593 1.495 . S
C4597 H4603 0.959 . S
C4597 H4604 0.961 . S
C4597 H4605 0.960 . S
C4598 C4596 1.381 . S
C4598 C4599 1.394 . S
C4598 H4606 0.930 . S
C4599 C4598 1.394 . S
C4599 C4600 1.383 . S
C4599 H4607 0.929 . S
C4600 C4599 1.383 . S
C4600 C4601 1.377 . S
C4601 H4585 0.930 . S
C4601 C4600 1.377 . S
C4601 C4602 1.379 . S
C4602 H4586 0.931 . S
C4602 C4596 1.383 . S
C4602 C4601 1.379 . S
H4603 C4597 0.959 . S
H4604 C4597 0.961 . S
H4605 C4597 0.960 . S
H4606 C4598 0.930 . S
H4607 C4599 0.929 . S
H4608 C4616 0.929 . S
H4609 C4618 0.930 . S
H4610 C4620 0.930 . S
H4611 C4623 0.929 . S
H4612 C4626 0.930 . S
H4613 C4628 0.960 . S
H4614 C4628 0.960 . S
H4615 C4628 0.960 . S
C4616 H4608 0.929 . S
C4616 C4617 1.377 . S
C4616 C4618 1.384 . S
C4617 C4616 1.377 . S
C4617 C4623 1.390 . S
C4618 H4609 0.930 . S
C4618 C4616 1.384 . S
C4618 C4619 1.372 . S
C4619 C4618 1.372 . S
C4619 C4620 1.400 . S
C4619 C4624 1.490 . S
C4620 H4610 0.930 . S
C4620 C4619 1.400 . S
C4620 C4623 1.386 . S
H4621 C4637 0.930 . S
H4622 C4638 0.931 . S
C4623 H4611 0.929 . S
C4623 C4617 1.390 . S
C4623 C4620 1.386 . S
C4624 C4619 1.490 . S
C4624 C4626 1.395 . S
C4624 C4627 1.403 . S
H4625 C4631 0.930 . S
C4626 H4612 0.930 . S
C4626 C4624 1.395 . S
C4626 C4629 1.403 . S
C4627 C4624 1.403 . S
C4627 C4628 1.524 . S
C4627 C4631 1.400 . S
C4628 H4613 0.960 . S
C4628 H4614 0.960 . S
C4628 H4615 0.960 . S
C4628 C4627 1.524 . S
C4629 C4626 1.403 . S
C4629 C4630 1.392 . S
C4629 C4633 1.495 . S
C4630 C4629 1.392 . S
C4630 C4631 1.385 . S
C4630 C4632 1.478 . S
C4631 H4625 0.930 . S
C4631 C4627 1.400 . S
C4631 C4630 1.385 . S
C4632 C4630 1.478 . S
C4632 C4634 1.381 . S
C4632 C4638 1.383 . S
C4633 C4629 1.495 . S
C4633 H4639 0.959 . S
C4633 H4640 0.961 . S
C4633 H4641 0.960 . S
C4634 C4632 1.381 . S
C4634 C4635 1.394 . S
C4634 H4642 0.930 . S
C4635 C4634 1.394 . S
C4635 C4636 1.383 . S
C4635 H4643 0.929 . S
C4636 C4635 1.383 . S
C4636 C4637 1.377 . S
C4637 H4621 0.930 . S
C4637 C4636 1.377 . S
C4637 C4638 1.379 . S
C4638 H4622 0.931 . S
C4638 C4632 1.383 . S
C4638 C4637 1.379 . S
H4639 C4633 0.959 . S
H4640 C4633 0.961 . S
H4641 C4633 0.960 . S
H4642 C4634 0.930 . S
H4643 C4635 0.929 . S
H4644 C4652 0.929 . S
H4645 C4654 0.930 . S
H4646 C4656 0.930 . S
H4647 C4659 0.929 . S
H4648 C4662 0.930 . S
H4649 C4664 0.960 . S
H4650 C4664 0.960 . S
H4651 C4664 0.960 . S
C4652 H4644 0.929 . S
C4652 C4653 1.377 . S
C4652 C4654 1.384 . S
C4653 C4652 1.377 . S
C4653 C4659 1.390 . S
C4654 H4645 0.930 . S
C4654 C4652 1.384 . S
C4654 C4655 1.372 . S
C4655 C4654 1.372 . S
C4655 C4656 1.400 . S
C4655 C4660 1.490 . S
C4656 H4646 0.930 . S
C4656 C4655 1.400 . S
C4656 C4659 1.386 . S
H4657 C4673 0.930 . S
H4658 C4674 0.931 . S
C4659 H4647 0.929 . S
C4659 C4653 1.390 . S
C4659 C4656 1.386 . S
C4660 C4655 1.490 . S
C4660 C4662 1.395 . S
C4660 C4663 1.403 . S
H4661 C4667 0.930 . S
C4662 H4648 0.930 . S
C4662 C4660 1.395 . S
C4662 C4665 1.403 . S
C4663 C4660 1.403 . S
C4663 C4664 1.524 . S
C4663 C4667 1.400 . S
C4664 H4649 0.960 . S
C4664 H4650 0.960 . S
C4664 H4651 0.960 . S
C4664 C4663 1.524 . S
C4665 C4662 1.403 . S
C4665 C4666 1.392 . S
C4665 C4669 1.495 . S
C4666 C4665 1.392 . S
C4666 C4667 1.385 . S
C4666 C4668 1.478 . S
C4667 H4661 0.930 . S
C4667 C4663 1.400 . S
C4667 C4666 1.385 . S
C4668 C4666 1.478 . S
C4668 C4670 1.381 . S
C4668 C4674 1.383 . S
C4669 C4665 1.495 . S
C4669 H4675 0.959 . S
C4669 H4676 0.961 . S
C4669 H4677 0.960 . S
C4670 C4668 1.381 . S
C4670 C4671 1.394 . S
C4670 H4678 0.930 . S
C4671 C4670 1.394 . S
C4671 C4672 1.383 . S
C4671 H4679 0.929 . S
C4672 C4671 1.383 . S
C4672 C4673 1.377 . S
C4673 H4657 0.930 . S
C4673 C4672 1.377 . S
C4673 C4674 1.379 . S
C4674 H4658 0.931 . S
C4674 C4668 1.383 . S
C4674 C4673 1.379 . S
H4675 C4669 0.959 . S
H4676 C4669 0.961 . S
H4677 C4669 0.960 . S
H4678 C4670 0.930 . S
H4679 C4671 0.929 . S
H4680 C4688 0.929 . S
H4681 C4690 0.930 . S
H4682 C4692 0.930 . S
H4683 C4695 0.929 . S
H4684 C4698 0.930 . S
H4685 C4700 0.960 . S
H4686 C4700 0.960 . S
H4687 C4700 0.960 . S
C4688 H4680 0.929 . S
C4688 C4689 1.377 . S
C4688 C4690 1.384 . S
C4689 C4688 1.377 . S
C4689 C4695 1.390 . S
C4690 H4681 0.930 . S
C4690 C4688 1.384 . S
C4690 C4691 1.372 . S
C4691 C4690 1.372 . S
C4691 C4692 1.400 . S
C4691 C4696 1.490 . S
C4692 H4682 0.930 . S
C4692 C4691 1.400 . S
C4692 C4695 1.386 . S
H4693 C4709 0.930 . S
H4694 C4710 0.931 . S
C4695 H4683 0.929 . S
C4695 C4689 1.390 . S
C4695 C4692 1.386 . S
C4696 C4691 1.490 . S
C4696 C4698 1.395 . S
C4696 C4699 1.403 . S
H4697 C4703 0.930 . S
C4698 H4684 0.930 . S
C4698 C4696 1.395 . S
C4698 C4701 1.403 . S
C4699 C4696 1.403 . S
C4699 C4700 1.524 . S
C4699 C4703 1.400 . S
C4700 H4685 0.960 . S
C4700 H4686 0.960 . S
C4700 H4687 0.960 . S
C4700 C4699 1.524 . S
C4701 C4698 1.403 . S
C4701 C4702 1.392 . S
C4701 C4705 1.495 . S
C4702 C4701 1.392 . S
C4702 C4703 1.385 . S
C4702 C4704 1.478 . S
C4703 H4697 0.930 . S
C4703 C4699 1.400 . S
C4703 C4702 1.385 . S
C4704 C4702 1.478 . S
C4704 C4706 1.381 . S
C4704 C4710 1.383 . S
C4705 C4701 1.495 . S
C4705 H4711 0.959 . S
C4705 H4712 0.961 . S
C4705 H4713 0.960 . S
C4706 C4704 1.381 . S
C4706 C4707 1.394 . S
C4706 H4714 0.930 . S
C4707 C4706 1.394 . S
C4707 C4708 1.383 . S
C4707 H4715 0.929 . S
C4708 C4707 1.383 . S
C4708 C4709 1.377 . S
C4709 H4693 0.930 . S
C4709 C4708 1.377 . S
C4709 C4710 1.379 . S
C4710 H4694 0.931 . S
C4710 C4704 1.383 . S
C4710 C4709 1.379 . S
H4711 C4705 0.959 . S
H4712 C4705 0.961 . S
H4713 C4705 0.960 . S
H4714 C4706 0.930 . S
H4715 C4707 0.929 . S
H4716 C4724 0.929 . S
H4717 C4726 0.930 . S
H4718 C4728 0.930 . S
H4719 C4731 0.929 . S
H4720 C4734 0.930 . S
H4721 C4736 0.996 . S
H4722 C4736 0.960 . S
H4723 C4736 0.960 . S
C4724 H4716 0.929 . S
C4724 C4725 1.377 . S
C4724 C4726 1.384 . S
C4725 C4724 1.377 . S
C4725 C4731 1.390 . S
C4726 H4717 0.930 . S
C4726 C4724 1.384 . S
C4726 C4727 1.372 . S
C4727 C4726 1.372 . S
C4727 C4728 1.400 . S
C4727 C4732 1.490 . S
C4728 H4718 0.930 . S
C4728 C4727 1.400 . S
C4728 C4731 1.386 . S
H4729 C4745 0.930 . S
H4730 C4746 0.936 . S
C4731 H4719 0.929 . S
C4731 C4725 1.390 . S
C4731 C4728 1.386 . S
C4732 C4727 1.490 . S
C4732 C4734 1.395 . S
C4732 C4735 1.403 . S
H4733 C4739 0.930 . S
C4734 H4720 0.930 . S
C4734 C4732 1.395 . S
C4734 C4737 1.403 . S
C4735 C4732 1.403 . S
C4735 C4736 1.524 . S
C4735 C4739 1.400 . S
C4736 H4721 0.996 . S
C4736 H4722 0.960 . S
C4736 H4723 0.960 . S
C4736 C4735 1.524 . S
C4737 C4734 1.403 . S
C4737 C4738 1.392 . S
C4737 C4741 1.495 . S
C4738 C4737 1.392 . S
C4738 C4739 1.385 . S
C4738 C4740 1.478 . S
C4739 H4733 0.930 . S
C4739 C4735 1.400 . S
C4739 C4738 1.385 . S
C4740 C4738 1.478 . S
C4740 C4742 1.381 . S
C4740 C4746 1.377 1_565 S
C4741 C4737 1.495 . S
C4741 H4747 0.959 . S
C4741 H4748 0.961 . S
C4741 H4749 0.960 . S
C4742 C4740 1.381 . S
C4742 C4743 1.394 . S
C4742 H4750 0.930 . S
C4743 C4742 1.394 . S
C4743 C4744 1.383 1_565 S
C4743 H4751 0.929 . S
C4744 C4743 1.383 1_545 S
C4744 C4745 1.377 . S
C4745 H4729 0.930 . S
C4745 C4744 1.377 . S
C4745 C4746 1.380 . S
C4746 H4730 0.936 . S
C4746 C4740 1.377 1_545 S
C4746 C4745 1.380 . S
H4747 C4741 0.959 . S
H4748 C4741 0.961 . S
H4749 C4741 0.960 . S
H4750 C4742 0.930 . S
H4751 C4743 0.929 . S
H4752 C4760 0.929 . S
H4753 C4762 0.930 . S
H4754 C4764 0.917 . S
H4755 C4767 0.929 . S
H4756 C4770 0.930 . S
H4757 C4772 0.960 . S
H4758 C4772 0.960 . S
H4759 C4772 0.960 . S
C4760 H4752 0.929 . S
C4760 C4761 1.377 1_455 S
C4760 C4762 1.384 . S
C4761 C4760 1.377 1_655 S
C4761 C4767 1.390 . S
C4762 H4753 0.930 . S
C4762 C4760 1.384 . S
C4762 C4763 1.372 . S
C4763 C4762 1.372 . S
C4763 C4764 1.356 1_455 S
C4763 C4768 1.490 . S
C4764 H4754 0.917 . S
C4764 C4763 1.356 1_655 S
C4764 C4767 1.446 . S
H4765 C4781 0.930 . S
H4766 C4782 0.931 . S
C4767 H4755 0.929 . S
C4767 C4761 1.390 . S
C4767 C4764 1.446 . S
C4768 C4763 1.490 . S
C4768 C4770 1.395 . S
C4768 C4771 1.403 . S
H4769 C4775 0.930 . S
C4770 H4756 0.930 . S
C4770 C4768 1.395 . S
C4770 C4773 1.403 . S
C4771 C4768 1.403 . S
C4771 C4772 1.524 1_455 S
C4771 C4775 1.400 . S
C4772 H4757 0.960 . S
C4772 H4758 0.960 . S
C4772 H4759 0.960 . S
C4772 C4771 1.524 1_655 S
C4773 C4770 1.403 . S
C4773 C4774 1.392 . S
C4773 C4777 1.495 . S
C4774 C4773 1.392 . S
C4774 C4775 1.385 . S
C4774 C4776 1.478 . S
C4775 H4769 0.930 . S
C4775 C4771 1.400 . S
C4775 C4774 1.385 . S
C4776 C4774 1.478 . S
C4776 C4778 1.381 . S
C4776 C4782 1.383 . S
C4777 C4773 1.495 . S
C4777 H4783 0.959 . S
C4777 H4784 0.961 . S
C4777 H4785 0.960 . S
C4778 C4776 1.381 . S
C4778 C4779 1.394 . S
C4778 H4786 0.930 . S
C4779 C4778 1.394 . S
C4779 C4780 1.383 . S
C4779 H4787 0.929 . S
C4780 C4779 1.383 . S
C4780 C4781 1.377 . S
C4781 H4765 0.930 . S
C4781 C4780 1.377 . S
C4781 C4782 1.379 . S
C4782 H4766 0.931 . S
C4782 C4776 1.383 . S
C4782 C4781 1.379 . S
H4783 C4777 0.959 . S
H4784 C4777 0.961 . S
H4785 C4777 0.960 . S
H4786 C4778 0.930 . S
H4787 C4779 0.929 . S
H4788 C4796 0.929 . S
H4789 C4798 0.930 . S
H4790 C4800 0.930 . S
H4791 C4803 0.929 . S
H4792 C4806 0.930 . S
H4793 C4808 0.960 . S
H4794 C4808 0.960 . S
H4795 C4808 0.960 . S
C4796 H4788 0.929 . S
C4796 C4797 1.377 . S
C4796 C4798 1.384 . S
C4797 C4796 1.377 . S
C4797 C4803 1.390 . S
C4798 H4789 0.930 . S
C4798 C4796 1.384 . S
C4798 C4799 1.372 . S
C4799 C4798 1.372 . S
C4799 C4800 1.400 . S
C4799 C4804 1.490 . S
C4800 H4790 0.930 . S
C4800 C4799 1.400 . S
C4800 C4803 1.386 . S
H4801 C4817 0.930 . S
H4802 C4818 0.931 . S
C4803 H4791 0.929 . S
C4803 C4797 1.390 . S
C4803 C4800 1.386 . S
C4804 C4799 1.490 . S
C4804 C4806 1.395 . S
C4804 C4807 1.403 . S
H4805 C4811 0.930 . S
C4806 H4792 0.930 . S
C4806 C4804 1.395 . S
C4806 C4809 1.403 . S
C4807 C4804 1.403 . S
C4807 C4808 1.524 . S
C4807 C4811 1.400 . S
C4808 H4793 0.960 . S
C4808 H4794 0.960 . S
C4808 H4795 0.960 . S
C4808 C4807 1.524 . S
C4809 C4806 1.403 . S
C4809 C4810 1.392 . S
C4809 C4813 1.495 . S
C4810 C4809 1.392 . S
C4810 C4811 1.385 . S
C4810 C4812 1.478 . S
C4811 H4805 0.930 . S
C4811 C4807 1.400 . S
C4811 C4810 1.385 . S
C4812 C4810 1.478 . S
C4812 C4814 1.381 . S
C4812 C4818 1.383 . S
C4813 C4809 1.495 . S
C4813 H4819 0.959 . S
C4813 H4820 0.961 . S
C4813 H4821 0.960 . S
C4814 C4812 1.381 . S
C4814 C4815 1.394 . S
C4814 H4822 0.930 . S
C4815 C4814 1.394 . S
C4815 C4816 1.383 . S
C4815 H4823 0.929 . S
C4816 C4815 1.383 . S
C4816 C4817 1.377 . S
C4817 H4801 0.930 . S
C4817 C4816 1.377 . S
C4817 C4818 1.379 . S
C4818 H4802 0.931 . S
C4818 C4812 1.383 . S
C4818 C4817 1.379 . S
H4819 C4813 0.959 . S
H4820 C4813 0.961 . S
H4821 C4813 0.960 . S
H4822 C4814 0.930 . S
H4823 C4815 0.929 . S
H4824 C4832 0.929 . S
H4825 C4834 0.930 . S
H4826 C4836 0.930 . S
H4827 C4839 0.929 . S
H4828 C4842 0.930 . S
H4829 C4844 0.949 . S
H4830 C4844 0.982 1_545 S
H4831 C4844 0.989 . S
C4832 H4824 0.929 . S
C4832 C4833 1.377 1_545 S
C4832 C4834 1.384 . S
C4833 C4832 1.377 1_565 S
C4833 C4839 1.390 . S
C4834 H4825 0.930 . S
C4834 C4832 1.384 . S
C4834 C4835 1.372 . S
C4835 C4834 1.372 . S
C4835 C4836 1.400 1_545 S
C4835 C4840 1.490 . S
C4836 H4826 0.930 . S
C4836 C4835 1.400 1_565 S
C4836 C4839 1.386 . S
H4837 C4853 0.930 . S
H4838 C4854 0.931 . S
C4839 H4827 0.929 . S
C4839 C4833 1.390 . S
C4839 C4836 1.386 . S
C4840 C4835 1.490 . S
C4840 C4842 1.395 . S
C4840 C4843 1.403 . S
H4841 C4847 0.930 . S
C4842 H4828 0.930 . S
C4842 C4840 1.395 . S
C4842 C4845 1.403 . S
C4843 C4840 1.403 . S
C4843 C4844 1.497 1_545 S
C4843 C4847 1.400 . S
C4844 H4829 0.949 . S
C4844 H4830 0.982 1_565 S
C4844 H4831 0.989 . S
C4844 C4843 1.497 1_565 S
C4845 C4842 1.403 . S
C4845 C4846 1.392 . S
C4845 C4849 1.495 . S
C4846 C4845 1.392 . S
C4846 C4847 1.385 . S
C4846 C4848 1.478 . S
C4847 H4841 0.930 . S
C4847 C4843 1.400 . S
C4847 C4846 1.385 . S
C4848 C4846 1.478 . S
C4848 C4850 1.381 . S
C4848 C4854 1.383 . S
C4849 C4845 1.495 . S
C4849 H4855 0.959 . S
C4849 H4856 0.961 . S
C4849 H4857 0.960 . S
C4850 C4848 1.381 . S
C4850 C4851 1.394 . S
C4850 H4858 0.930 . S
C4851 C4850 1.394 . S
C4851 C4852 1.383 . S
C4851 H4859 0.929 . S
C4852 C4851 1.383 . S
C4852 C4853 1.377 . S
C4853 H4837 0.930 . S
C4853 C4852 1.377 . S
C4853 C4854 1.379 . S
C4854 H4838 0.931 . S
C4854 C4848 1.383 . S
C4854 C4853 1.379 . S
H4855 C4849 0.959 . S
H4856 C4849 0.961 . S
H4857 C4849 0.960 . S
H4858 C4850 0.930 . S
H4859 C4851 0.929 . S
H4860 C4868 0.929 . S
H4861 C4870 0.902 1_455 S
H4862 C4872 0.930 . S
H4863 C4875 0.929 . S
H4864 C4878 0.930 1_455 S
H4865 C4880 0.960 . S
H4866 C4880 0.960 . S
H4867 C4880 0.960 . S
C4868 H4860 0.929 . S
C4868 C4869 1.377 . S
C4868 C4870 1.386 1_455 S
C4869 C4868 1.377 . S
C4869 C4875 1.390 1_455 S
C4870 H4861 0.902 1_655 S
C4870 C4868 1.386 1_655 S
C4870 C4871 1.398 . S
C4871 C4870 1.398 . S
C4871 C4872 1.400 . S
C4871 C4876 1.490 . S
C4872 H4862 0.930 . S
C4872 C4871 1.400 . S
C4872 C4875 1.386 . S
H4873 C4889 0.930 . S
H4874 C4890 0.931 . S
C4875 H4863 0.929 . S
C4875 C4869 1.390 1_655 S
C4875 C4872 1.386 . S
C4876 C4871 1.490 . S
C4876 C4878 1.395 . S
C4876 C4879 1.403 . S
H4877 C4883 0.930 . S
C4878 H4864 0.930 1_655 S
C4878 C4876 1.395 . S
C4878 C4881 1.403 . S
C4879 C4876 1.403 . S
C4879 C4880 1.524 . S
C4879 C4883 1.400 . S
C4880 H4865 0.960 . S
C4880 H4866 0.960 . S
C4880 H4867 0.960 . S
C4880 C4879 1.524 . S
C4881 C4878 1.403 . S
C4881 C4882 1.392 . S
C4881 C4885 1.495 . S
C4882 C4881 1.392 . S
C4882 C4883 1.385 . S
C4882 C4884 1.478 . S
C4883 H4877 0.930 . S
C4883 C4879 1.400 . S
C4883 C4882 1.385 . S
C4884 C4882 1.478 . S
C4884 C4886 1.381 . S
C4884 C4890 1.383 . S
C4885 C4881 1.495 . S
C4885 H4891 0.959 1_655 S
C4885 H4892 0.961 . S
C4885 H4893 0.960 . S
C4886 C4884 1.381 . S
C4886 C4887 1.394 . S
C4886 H4894 0.930 . S
C4887 C4886 1.394 . S
C4887 C4888 1.383 . S
C4887 H4895 0.929 . S
C4888 C4887 1.383 . S
C4888 C4889 1.377 . S
C4889 H4873 0.930 . S
C4889 C4888 1.377 . S
C4889 C4890 1.379 . S
C4890 H4874 0.931 . S
C4890 C4884 1.383 . S
C4890 C4889 1.379 . S
H4891 C4885 0.959 1_455 S
H4892 C4885 0.961 . S
H4893 C4885 0.960 . S
H4894 C4886 0.930 . S
H4895 C4887 0.929 . S
H4896 C4904 0.929 . S
H4897 C4906 0.930 . S
H4898 C4908 0.930 . S
H4899 C4911 0.929 . S
H4900 C4914 0.930 . S
H4901 C4916 0.960 . S
H4902 C4916 0.960 . S
H4903 C4916 0.960 . S
C4904 H4896 0.929 . S
C4904 C4905 1.377 . S
C4904 C4906 1.384 . S
C4905 C4904 1.377 . S
C4905 C4911 1.390 . S
C4906 H4897 0.930 . S
C4906 C4904 1.384 . S
C4906 C4907 1.372 . S
C4907 C4906 1.372 . S
C4907 C4908 1.400 . S
C4907 C4912 1.490 . S
C4908 H4898 0.930 . S
C4908 C4907 1.400 . S
C4908 C4911 1.386 . S
H4909 C4925 0.930 . S
H4910 C4926 0.931 . S
C4911 H4899 0.929 . S
C4911 C4905 1.390 . S
C4911 C4908 1.386 . S
C4912 C4907 1.490 . S
C4912 C4914 1.395 . S
C4912 C4915 1.403 . S
H4913 C4919 0.930 . S
C4914 H4900 0.930 . S
C4914 C4912 1.395 . S
C4914 C4917 1.403 . S
C4915 C4912 1.403 . S
C4915 C4916 1.524 . S
C4915 C4919 1.400 . S
C4916 H4901 0.960 . S
C4916 H4902 0.960 . S
C4916 H4903 0.960 . S
C4916 C4915 1.524 . S
C4917 C4914 1.403 . S
C4917 C4918 1.392 . S
C4917 C4921 1.495 . S
C4918 C4917 1.392 . S
C4918 C4919 1.385 . S
C4918 C4920 1.478 . S
C4919 H4913 0.930 . S
C4919 C4915 1.400 . S
C4919 C4918 1.385 . S
C4920 C4918 1.478 . S
C4920 C4922 1.381 . S
C4920 C4926 1.383 . S
C4921 C4917 1.495 . S
C4921 H4927 0.959 . S
C4921 H4928 0.961 . S
C4921 H4929 0.960 . S
C4922 C4920 1.381 . S
C4922 C4923 1.394 . S
C4922 H4930 0.930 . S
C4923 C4922 1.394 . S
C4923 C4924 1.383 . S
C4923 H4931 0.929 . S
C4924 C4923 1.383 . S
C4924 C4925 1.377 . S
C4925 H4909 0.930 . S
C4925 C4924 1.377 . S
C4925 C4926 1.379 . S
C4926 H4910 0.931 . S
C4926 C4920 1.383 . S
C4926 C4925 1.379 . S
H4927 C4921 0.959 . S
H4928 C4921 0.961 . S
H4929 C4921 0.960 . S
H4930 C4922 0.930 . S
H4931 C4923 0.929 . S
H4932 C4940 0.929 . S
H4933 C4942 0.958 . S
H4934 C4944 0.930 . S
H4935 C4947 0.929 . S
H4936 C4950 0.930 1_565 S
H4937 C4952 0.960 . S
H4938 C4952 0.960 . S
H4939 C4952 0.960 . S
C4940 H4932 0.929 . S
C4940 C4941 1.377 . S
C4940 C4942 1.384 1_565 S
C4941 C4940 1.377 . S
C4941 C4947 1.390 1_565 S
C4942 H4933 0.958 . S
C4942 C4940 1.384 1_545 S
C4942 C4943 1.372 . S
C4943 C4942 1.372 . S
C4943 C4944 1.400 . S
C4943 C4948 1.490 . S
C4944 H4934 0.930 . S
C4944 C4943 1.400 . S
C4944 C4947 1.386 . S
H4945 C4961 0.930 . S
H4946 C4962 0.931 . S
C4947 H4935 0.929 . S
C4947 C4941 1.390 1_545 S
C4947 C4944 1.386 . S
C4948 C4943 1.490 . S
C4948 C4950 1.395 . S
C4948 C4951 1.403 . S
H4949 C4955 0.930 . S
C4950 H4936 0.930 1_545 S
C4950 C4948 1.395 . S
C4950 C4953 1.403 . S
C4951 C4948 1.403 . S
C4951 C4952 1.524 . S
C4951 C4955 1.400 . S
C4952 H4937 0.960 . S
C4952 H4938 0.960 . S
C4952 H4939 0.960 . S
C4952 C4951 1.524 . S
C4953 C4950 1.403 . S
C4953 C4954 1.392 . S
C4953 C4957 1.495 . S
C4954 C4953 1.392 . S
C4954 C4955 1.385 . S
C4954 C4956 1.478 . S
C4955 H4949 0.930 . S
C4955 C4951 1.400 . S
C4955 C4954 1.385 . S
C4956 C4954 1.478 . S
C4956 C4958 1.381 . S
C4956 C4962 1.383 . S
C4957 C4953 1.495 . S
C4957 H4963 0.959 1_545 S
C4957 H4964 0.961 . S
C4957 H4965 0.960 . S
C4958 C4956 1.381 . S
C4958 C4959 1.394 . S
C4958 H4966 0.930 . S
C4959 C4958 1.394 . S
C4959 C4960 1.383 . S
C4959 H4967 0.929 . S
C4960 C4959 1.383 . S
C4960 C4961 1.377 . S
C4961 H4945 0.930 . S
C4961 C4960 1.377 . S
C4961 C4962 1.379 . S
C4962 H4946 0.931 . S
C4962 C4956 1.383 . S
C4962 C4961 1.379 . S
H4963 C4957 0.959 1_565 S
H4964 C4957 0.961 . S
H4965 C4957 0.960 . S
H4966 C4958 0.930 . S
H4967 C4959 0.929 . S
H4968 C4976 0.929 . S
H4969 C4978 0.930 . S
H4970 C4980 0.930 . S
H4971 C4983 0.929 . S
H4972 C4986 0.930 . S
H4973 C4988 0.960 . S
H4974 C4988 0.960 . S
H4975 C4988 0.960 . S
C4976 H4968 0.929 . S
C4976 C4977 1.377 . S
C4976 C4978 1.384 . S
C4977 C4976 1.377 . S
C4977 C4983 1.390 . S
C4978 H4969 0.930 . S
C4978 C4976 1.384 . S
C4978 C4979 1.372 . S
C4979 C4978 1.372 . S
C4979 C4980 1.400 . S
C4979 C4984 1.490 . S
C4980 H4970 0.930 . S
C4980 C4979 1.400 . S
C4980 C4983 1.386 . S
H4981 C4997 0.930 . S
H4982 C4998 0.922 . S
C4983 H4971 0.929 . S
C4983 C4977 1.390 . S
C4983 C4980 1.386 . S
C4984 C4979 1.490 . S
C4984 C4986 1.395 . S
C4984 C4987 1.403 . S
H4985 C4991 0.930 . S
C4986 H4972 0.930 . S
C4986 C4984 1.395 . S
C4986 C4989 1.403 . S
C4987 C4984 1.403 . S
C4987 C4988 1.524 . S
C4987 C4991 1.400 . S
C4988 H4973 0.960 . S
C4988 H4974 0.960 . S
C4988 H4975 0.960 . S
C4988 C4987 1.524 . S
C4989 C4986 1.403 . S
C4989 C4990 1.392 . S
C4989 C4993 1.495 . S
C4990 C4989 1.392 . S
C4990 C4991 1.385 . S
C4990 C4992 1.478 . S
C4991 H4985 0.930 . S
C4991 C4987 1.400 . S
C4991 C4990 1.385 . S
C4992 C4990 1.478 . S
C4992 C4994 1.381 . S
C4992 C4998 1.331 1_655 S
C4993 C4989 1.495 . S
C4993 H4999 0.959 . S
C4993 H5000 0.961 . S
C4993 H5001 0.960 . S
C4994 C4992 1.381 . S
C4994 C4995 1.394 . S
C4994 H5002 0.930 . S
C4995 C4994 1.394 . S
C4995 C4996 1.383 1_655 S
C4995 H5003 0.929 . S
C4996 C4995 1.383 1_455 S
C4996 C4997 1.377 . S
C4997 H4981 0.930 . S
C4997 C4996 1.377 . S
C4997 C4998 1.444 . S
C4998 H4982 0.922 . S
C4998 C4992 1.331 1_455 S
C4998 C4997 1.444 . S
H4999 C4993 0.959 . S
H5000 C4993 0.961 . S
H5001 C4993 0.960 . S
H5002 C4994 0.930 . S
H5003 C4995 0.929 . S
H5004 C5012 0.929 . S
H5005 C5014 0.930 . S
H5006 C5016 0.930 . S
H5007 C5019 0.929 . S
H5008 C5022 0.930 . S
H5009 C5024 0.960 . S
H5010 C5024 0.960 . S
H5011 C5024 0.960 . S
C5012 H5004 0.929 . S
C5012 C5013 1.377 . S
C5012 C5014 1.384 . S
C5013 C5012 1.377 . S
C5013 C5019 1.390 . S
C5014 H5005 0.930 . S
C5014 C5012 1.384 . S
C5014 C5015 1.372 . S
C5015 C5014 1.372 . S
C5015 C5016 1.400 . S
C5015 C5020 1.490 . S
C5016 H5006 0.930 . S
C5016 C5015 1.400 . S
C5016 C5019 1.386 . S
H5017 C5033 0.930 . S
H5018 C5034 0.931 . S
C5019 H5007 0.929 . S
C5019 C5013 1.390 . S
C5019 C5016 1.386 . S
C5020 C5015 1.490 . S
C5020 C5022 1.395 . S
C5020 C5023 1.403 . S
H5021 C5027 0.930 . S
C5022 H5008 0.930 . S
C5022 C5020 1.395 . S
C5022 C5025 1.403 . S
C5023 C5020 1.403 . S
C5023 C5024 1.524 . S
C5023 C5027 1.400 . S
C5024 H5009 0.960 . S
C5024 H5010 0.960 . S
C5024 H5011 0.960 . S
C5024 C5023 1.524 . S
C5025 C5022 1.403 . S
C5025 C5026 1.392 . S
C5025 C5029 1.495 . S
C5026 C5025 1.392 . S
C5026 C5027 1.385 . S
C5026 C5028 1.478 . S
C5027 H5021 0.930 . S
C5027 C5023 1.400 . S
C5027 C5026 1.385 . S
C5028 C5026 1.478 . S
C5028 C5030 1.381 . S
C5028 C5034 1.383 . S
C5029 C5025 1.495 . S
C5029 H5035 0.959 . S
C5029 H5036 0.961 . S
C5029 H5037 0.960 . S
C5030 C5028 1.381 . S
C5030 C5031 1.394 . S
C5030 H5038 0.930 . S
C5031 C5030 1.394 . S
C5031 C5032 1.383 . S
C5031 H5039 0.929 . S
C5032 C5031 1.383 . S
C5032 C5033 1.377 . S
C5033 H5017 0.930 . S
C5033 C5032 1.377 . S
C5033 C5034 1.379 . S
C5034 H5018 0.931 . S
C5034 C5028 1.383 . S
C5034 C5033 1.379 . S
H5035 C5029 0.959 . S
H5036 C5029 0.961 . S
H5037 C5029 0.960 . S
H5038 C5030 0.930 . S
H5039 C5031 0.929 . S
H5040 C5048 0.929 . S
H5041 C5050 0.930 . S
H5042 C5052 0.930 . S
H5043 C5055 0.929 . S
H5044 C5058 0.930 . S
H5045 C5060 0.891 1_545 S
H5046 C5060 0.960 . S
H5047 C5060 0.960 . S
C5048 H5040 0.929 . S
C5048 C5049 1.377 . S
C5048 C5050 1.384 . S
C5049 C5048 1.377 . S
C5049 C5055 1.390 . S
C5050 H5041 0.930 . S
C5050 C5048 1.384 . S
C5050 C5051 1.372 . S
C5051 C5050 1.372 . S
C5051 C5052 1.400 . S
C5051 C5056 1.490 . S
C5052 H5042 0.930 . S
C5052 C5051 1.400 . S
C5052 C5055 1.386 . S
H5053 C5069 0.930 . S
H5054 C5070 0.931 . S
C5055 H5043 0.929 . S
C5055 C5049 1.390 . S
C5055 C5052 1.386 . S
C5056 C5051 1.490 . S
C5056 C5058 1.395 . S
C5056 C5059 1.403 . S
H5057 C5063 0.930 . S
C5058 H5044 0.930 . S
C5058 C5056 1.395 . S
C5058 C5061 1.403 . S
C5059 C5056 1.403 . S
C5059 C5060 1.524 . S
C5059 C5063 1.400 . S
C5060 H5045 0.891 1_565 S
C5060 H5046 0.960 . S
C5060 H5047 0.960 . S
C5060 C5059 1.524 . S
C5061 C5058 1.403 . S
C5061 C5062 1.392 . S
C5061 C5065 1.495 . S
C5062 C5061 1.392 . S
C5062 C5063 1.385 . S
C5062 C5064 1.478 . S
C5063 H5057 0.930 . S
C5063 C5059 1.400 . S
C5063 C5062 1.385 . S
C5064 C5062 1.478 . S
C5064 C5066 1.381 . S
C5064 C5070 1.383 . S
C5065 C5061 1.495 . S
C5065 H5071 0.959 . S
C5065 H5072 0.961 . S
C5065 H5073 0.960 . S
C5066 C5064 1.381 . S
C5066 C5067 1.397 1_565 S
C5066 H5074 0.930 . S
C5067 C5066 1.397 1_545 S
C5067 C5068 1.382 . S
C5067 H5075 0.928 . S
C5068 C5067 1.382 . S
C5068 C5069 1.377 . S
C5069 H5053 0.930 . S
C5069 C5068 1.377 . S
C5069 C5070 1.379 1_545 S
C5070 H5054 0.931 . S
C5070 C5064 1.383 . S
C5070 C5069 1.379 1_565 S
H5071 C5065 0.959 . S
H5072 C5065 0.961 . S
H5073 C5065 0.960 . S
H5074 C5066 0.930 . S
H5075 C5067 0.928 . S
H5076 C5084 0.929 . S
H5077 C5086 0.930 . S
H5078 C5088 0.930 . S
H5079 C5091 0.929 . S
H5080 C5094 0.930 . S
H5081 C5096 0.960 . S
H5082 C5096 0.960 . S
H5083 C5096 0.960 . S
C5084 H5076 0.929 . S
C5084 C5085 1.377 . S
C5084 C5086 1.384 . S
C5085 C5084 1.377 . S
C5085 C5091 1.390 . S
C5086 H5077 0.930 . S
C5086 C5084 1.384 . S
C5086 C5087 1.372 . S
C5087 C5086 1.372 . S
C5087 C5088 1.400 . S
C5087 C5092 1.490 . S
C5088 H5078 0.930 . S
C5088 C5087 1.400 . S
C5088 C5091 1.386 . S
H5089 C5105 0.930 . S
H5090 C5106 0.931 . S
C5091 H5079 0.929 . S
C5091 C5085 1.390 . S
C5091 C5088 1.386 . S
C5092 C5087 1.490 . S
C5092 C5094 1.395 . S
C5092 C5095 1.403 . S
H5093 C5099 0.930 . S
C5094 H5080 0.930 . S
C5094 C5092 1.395 . S
C5094 C5097 1.403 . S
C5095 C5092 1.403 . S
C5095 C5096 1.524 . S
C5095 C5099 1.400 . S
C5096 H5081 0.960 . S
C5096 H5082 0.960 . S
C5096 H5083 0.960 . S
C5096 C5095 1.524 . S
C5097 C5094 1.403 . S
C5097 C5098 1.392 . S
C5097 C5101 1.495 1_455 S
C5098 C5097 1.392 . S
C5098 C5099 1.385 . S
C5098 C5100 1.478 . S
C5099 H5093 0.930 . S
C5099 C5095 1.400 . S
C5099 C5098 1.385 . S
C5100 C5098 1.478 . S
C5100 C5102 1.381 1_455 S
C5100 C5106 1.383 . S
C5101 C5097 1.495 1_655 S
C5101 H5107 0.959 . S
C5101 H5108 0.961 . S
C5101 H5109 0.960 . S
C5102 C5100 1.381 1_655 S
C5102 C5103 1.394 . S
C5102 H5110 0.930 . S
C5103 C5102 1.394 . S
C5103 C5104 1.383 . S
C5103 H5111 0.929 . S
C5104 C5103 1.383 . S
C5104 C5105 1.377 1_655 S
C5105 H5089 0.930 . S
C5105 C5104 1.377 1_455 S
C5105 C5106 1.379 . S
C5106 H5090 0.931 . S
C5106 C5100 1.383 . S
C5106 C5105 1.379 . S
H5107 C5101 0.959 . S
H5108 C5101 0.961 . S
H5109 C5101 0.960 . S
H5110 C5102 0.930 . S
H5111 C5103 0.929 . S
H5112 C5120 0.929 . S
H5113 C5122 0.930 . S
H5114 C5124 0.930 . S
H5115 C5127 0.929 . S
H5116 C5130 0.930 . S
H5117 C5132 0.960 . S
H5118 C5132 0.960 . S
H5119 C5132 0.960 . S
C5120 H5112 0.929 . S
C5120 C5121 1.377 . S
C5120 C5122 1.384 . S
C5121 C5120 1.377 . S
C5121 C5127 1.390 . S
C5122 H5113 0.930 . S
C5122 C5120 1.384 . S
C5122 C5123 1.372 . S
C5123 C5122 1.372 . S
C5123 C5124 1.400 . S
C5123 C5128 1.490 . S
C5124 H5114 0.930 . S
C5124 C5123 1.400 . S
C5124 C5127 1.386 . S
H5125 C5141 0.930 . S
H5126 C5142 0.931 . S
C5127 H5115 0.929 . S
C5127 C5121 1.390 . S
C5127 C5124 1.386 . S
C5128 C5123 1.490 . S
C5128 C5130 1.395 . S
C5128 C5131 1.403 . S
H5129 C5135 0.930 . S
C5130 H5116 0.930 . S
C5130 C5128 1.395 . S
C5130 C5133 1.403 1_655 S
C5131 C5128 1.403 . S
C5131 C5132 1.524 . S
C5131 C5135 1.400 1_655 S
C5132 H5117 0.960 . S
C5132 H5118 0.960 . S
C5132 H5119 0.960 . S
C5132 C5131 1.524 . S
C5133 C5130 1.403 1_455 S
C5133 C5134 1.392 . S
C5133 C5137 1.495 . S
C5134 C5133 1.392 . S
C5134 C5135 1.385 . S
C5134 C5136 1.478 . S
C5135 H5129 0.930 . S
C5135 C5131 1.400 1_455 S
C5135 C5134 1.385 . S
C5136 C5134 1.478 . S
C5136 C5138 1.381 . S
C5136 C5142 1.383 . S
C5137 C5133 1.495 . S
C5137 H5143 0.959 . S
C5137 H5144 0.961 . S
C5137 H5145 0.960 . S
C5138 C5136 1.381 . S
C5138 C5139 1.394 . S
C5138 H5146 0.930 . S
C5139 C5138 1.394 . S
C5139 C5140 1.383 . S
C5139 H5147 0.929 . S
C5140 C5139 1.383 . S
C5140 C5141 1.377 . S
C5141 H5125 0.930 . S
C5141 C5140 1.377 . S
C5141 C5142 1.379 . S
C5142 H5126 0.931 . S
C5142 C5136 1.383 . S
C5142 C5141 1.379 . S
H5143 C5137 0.959 . S
H5144 C5137 0.961 . S
H5145 C5137 0.960 . S
H5146 C5138 0.930 . S
H5147 C5139 0.929 . S
H5148 C5156 0.929 . S
H5149 C5158 0.930 . S
H5150 C5160 0.930 . S
H5151 C5163 0.929 . S
H5152 C5166 0.930 . S
H5153 C5168 0.960 . S
H5154 C5168 0.960 . S
H5155 C5168 0.960 . S
C5156 H5148 0.929 . S
C5156 C5157 1.377 . S
C5156 C5158 1.384 . S
C5157 C5156 1.377 . S
C5157 C5163 1.390 . S
C5158 H5149 0.930 . S
C5158 C5156 1.384 . S
C5158 C5159 1.372 . S
C5159 C5158 1.372 . S
C5159 C5160 1.400 . S
C5159 C5164 1.490 . S
C5160 H5150 0.930 . S
C5160 C5159 1.400 . S
C5160 C5163 1.386 . S
H5161 C5177 0.930 . S
H5162 C5178 0.931 . S
C5163 H5151 0.929 . S
C5163 C5157 1.390 . S
C5163 C5160 1.386 . S
C5164 C5159 1.490 . S
C5164 C5166 1.395 . S
C5164 C5167 1.403 . S
H5165 C5171 0.930 . S
C5166 H5152 0.930 . S
C5166 C5164 1.395 . S
C5166 C5169 1.403 . S
C5167 C5164 1.403 . S
C5167 C5168 1.524 . S
C5167 C5171 1.400 . S
C5168 H5153 0.960 . S
C5168 H5154 0.960 . S
C5168 H5155 0.960 . S
C5168 C5167 1.524 . S
C5169 C5166 1.403 . S
C5169 C5170 1.392 . S
C5169 C5173 1.495 . S
C5170 C5169 1.392 . S
C5170 C5171 1.385 . S
C5170 C5172 1.478 . S
C5171 H5165 0.930 . S
C5171 C5167 1.400 . S
C5171 C5170 1.385 . S
C5172 C5170 1.478 . S
C5172 C5174 1.381 . S
C5172 C5178 1.383 . S
C5173 C5169 1.495 . S
C5173 H5179 0.959 . S
C5173 H5180 0.961 . S
C5173 H5181 0.960 . S
C5174 C5172 1.381 . S
C5174 C5175 1.394 . S
C5174 H5182 0.930 . S
C5175 C5174 1.394 . S
C5175 C5176 1.383 . S
C5175 H5183 0.929 . S
C5176 C5175 1.383 . S
C5176 C5177 1.377 . S
C5177 H5161 0.930 . S
C5177 C5176 1.377 . S
C5177 C5178 1.379 . S
C5178 H5162 0.931 . S
C5178 C5172 1.383 . S
C5178 C5177 1.379 . S
H5179 C5173 0.959 . S
H5180 C5173 0.961 . S
H5181 C5173 0.960 . S
H5182 C5174 0.930 . S
H5183 C5175 0.929 . S
H5184 C5192 0.929 . S
H5185 C5194 0.930 . S
H5186 C5196 0.930 . S
H5187 C5199 0.929 . S
H5188 C5202 0.930 . S
H5189 C5204 0.960 . S
H5190 C5204 0.960 . S
H5191 C5204 0.960 . S
C5192 H5184 0.929 . S
C5192 C5193 1.377 . S
C5192 C5194 1.384 . S
C5193 C5192 1.377 . S
C5193 C5199 1.390 . S
C5194 H5185 0.930 . S
C5194 C5192 1.384 . S
C5194 C5195 1.372 . S
C5195 C5194 1.372 . S
C5195 C5196 1.400 . S
C5195 C5200 1.490 . S
C5196 H5186 0.930 . S
C5196 C5195 1.400 . S
C5196 C5199 1.386 . S
H5197 C5213 0.930 . S
H5198 C5214 0.931 . S
C5199 H5187 0.929 . S
C5199 C5193 1.390 . S
C5199 C5196 1.386 . S
C5200 C5195 1.490 . S
C5200 C5202 1.395 . S
C5200 C5203 1.403 . S
H5201 C5207 0.930 . S
C5202 H5188 0.930 . S
C5202 C5200 1.395 . S
C5202 C5205 1.403 1_545 S
C5203 C5200 1.403 . S
C5203 C5204 1.524 . S
C5203 C5207 1.400 1_545 S
C5204 H5189 0.960 . S
C5204 H5190 0.960 . S
C5204 H5191 0.960 . S
C5204 C5203 1.524 . S
C5205 C5202 1.403 1_565 S
C5205 C5206 1.392 . S
C5205 C5209 1.495 . S
C5206 C5205 1.392 . S
C5206 C5207 1.385 . S
C5206 C5208 1.478 . S
C5207 H5201 0.930 . S
C5207 C5203 1.400 1_565 S
C5207 C5206 1.385 . S
C5208 C5206 1.478 . S
C5208 C5210 1.381 . S
C5208 C5214 1.383 . S
C5209 C5205 1.495 . S
C5209 H5215 0.959 . S
C5209 H5216 0.961 . S
C5209 H5217 0.960 . S
C5210 C5208 1.381 . S
C5210 C5211 1.394 . S
C5210 H5218 0.930 . S
C5211 C5210 1.394 . S
C5211 C5212 1.383 . S
C5211 H5219 0.929 . S
C5212 C5211 1.383 . S
C5212 C5213 1.377 . S
C5213 H5197 0.930 . S
C5213 C5212 1.377 . S
C5213 C5214 1.379 . S
C5214 H5198 0.931 . S
C5214 C5208 1.383 . S
C5214 C5213 1.379 . S
H5215 C5209 0.959 . S
H5216 C5209 0.961 . S
H5217 C5209 0.960 . S
H5218 C5210 0.930 . S
H5219 C5211 0.929 . S
H5220 C5228 0.929 . S
H5221 C5230 0.930 . S
H5222 C5232 0.930 . S
H5223 C5235 0.929 . S
H5224 C5238 0.930 . S
H5225 C5240 0.960 . S
H5226 C5240 0.960 . S
H5227 C5240 0.960 . S
C5228 H5220 0.929 . S
C5228 C5229 1.377 . S
C5228 C5230 1.384 . S
C5229 C5228 1.377 . S
C5229 C5235 1.390 . S
C5230 H5221 0.930 . S
C5230 C5228 1.384 . S
C5230 C5231 1.372 . S
C5231 C5230 1.372 . S
C5231 C5232 1.400 . S
C5231 C5236 1.490 . S
C5232 H5222 0.930 . S
C5232 C5231 1.400 . S
C5232 C5235 1.386 . S
H5233 C5249 0.930 . S
H5234 C5250 0.931 . S
C5235 H5223 0.929 . S
C5235 C5229 1.390 . S
C5235 C5232 1.386 . S
C5236 C5231 1.490 . S
C5236 C5238 1.395 . S
C5236 C5239 1.403 . S
H5237 C5243 0.930 . S
C5238 H5224 0.930 . S
C5238 C5236 1.395 . S
C5238 C5241 1.403 1_545 S
C5239 C5236 1.403 . S
C5239 C5240 1.524 . S
C5239 C5243 1.400 1_545 S
C5240 H5225 0.960 . S
C5240 H5226 0.960 . S
C5240 H5227 0.960 . S
C5240 C5239 1.524 . S
C5241 C5238 1.403 1_565 S
C5241 C5242 1.392 . S
C5241 C5245 1.495 . S
C5242 C5241 1.392 . S
C5242 C5243 1.385 . S
C5242 C5244 1.478 . S
C5243 H5237 0.930 . S
C5243 C5239 1.400 1_565 S
C5243 C5242 1.385 . S
C5244 C5242 1.478 . S
C5244 C5246 1.381 . S
C5244 C5250 1.383 . S
C5245 C5241 1.495 . S
C5245 H5251 0.959 . S
C5245 H5252 0.961 . S
C5245 H5253 0.960 . S
C5246 C5244 1.381 . S
C5246 C5247 1.394 . S
C5246 H5254 0.930 . S
C5247 C5246 1.394 . S
C5247 C5248 1.383 . S
C5247 H5255 0.929 . S
C5248 C5247 1.383 . S
C5248 C5249 1.377 . S
C5249 H5233 0.930 . S
C5249 C5248 1.377 . S
C5249 C5250 1.379 . S
C5250 H5234 0.931 . S
C5250 C5244 1.383 . S
C5250 C5249 1.379 . S
H5251 C5245 0.959 . S
H5252 C5245 0.961 . S
H5253 C5245 0.960 . S
H5254 C5246 0.930 . S
H5255 C5247 0.929 . S
H5256 C5264 0.929 . S
H5257 C5266 0.930 . S
H5258 C5268 0.930 . S
H5259 C5271 0.929 . S
H5260 C5274 0.930 . S
H5261 C5276 0.960 . S
H5262 C5276 0.960 . S
H5263 C5276 0.960 . S
C5264 H5256 0.929 . S
C5264 C5265 1.377 . S
C5264 C5266 1.384 . S
C5265 C5264 1.377 . S
C5265 C5271 1.390 . S
C5266 H5257 0.930 . S
C5266 C5264 1.384 . S
C5266 C5267 1.372 . S
C5267 C5266 1.372 . S
C5267 C5268 1.400 . S
C5267 C5272 1.490 . S
C5268 H5258 0.930 . S
C5268 C5267 1.400 . S
C5268 C5271 1.386 . S
H5269 C5285 0.930 . S
H5270 C5286 0.931 . S
C5271 H5259 0.929 . S
C5271 C5265 1.390 . S
C5271 C5268 1.386 . S
C5272 C5267 1.490 . S
C5272 C5274 1.395 . S
C5272 C5275 1.403 . S
H5273 C5279 0.930 . S
C5274 H5260 0.930 . S
C5274 C5272 1.395 . S
C5274 C5277 1.403 1_655 S
C5275 C5272 1.403 . S
C5275 C5276 1.524 . S
C5275 C5279 1.400 1_655 S
C5276 H5261 0.960 . S
C5276 H5262 0.960 . S
C5276 H5263 0.960 . S
C5276 C5275 1.524 . S
C5277 C5274 1.403 1_455 S
C5277 C5278 1.392 . S
C5277 C5281 1.495 . S
C5278 C5277 1.392 . S
C5278 C5279 1.385 . S
C5278 C5280 1.478 . S
C5279 H5273 0.930 . S
C5279 C5275 1.400 1_455 S
C5279 C5278 1.385 . S
C5280 C5278 1.478 . S
C5280 C5282 1.381 . S
C5280 C5286 1.383 . S
C5281 C5277 1.495 . S
C5281 H5287 0.959 . S
C5281 H5288 0.961 . S
C5281 H5289 0.960 . S
C5282 C5280 1.381 . S
C5282 C5283 1.394 . S
C5282 H5290 0.930 . S
C5283 C5282 1.394 . S
C5283 C5284 1.383 . S
C5283 H5291 0.929 . S
C5284 C5283 1.383 . S
C5284 C5285 1.377 . S
C5285 H5269 0.930 . S
C5285 C5284 1.377 . S
C5285 C5286 1.379 . S
C5286 H5270 0.931 . S
C5286 C5280 1.383 . S
C5286 C5285 1.379 . S
H5287 C5281 0.959 . S
H5288 C5281 0.961 . S
H5289 C5281 0.960 . S
H5290 C5282 0.930 . S
H5291 C5283 0.929 . S
H5292 C5300 0.929 . S
H5293 C5302 0.930 . S
H5294 C5304 0.930 . S
H5295 C5307 0.929 . S
H5296 C5310 0.930 . S
H5297 C5312 0.960 . S
H5298 C5312 0.960 . S
H5299 C5312 0.960 . S
C5300 H5292 0.929 . S
C5300 C5301 1.377 . S
C5300 C5302 1.384 . S
C5301 C5300 1.377 . S
C5301 C5307 1.390 . S
C5302 H5293 0.930 . S
C5302 C5300 1.384 . S
C5302 C5303 1.372 . S
C5303 C5302 1.372 . S
C5303 C5304 1.400 . S
C5303 C5308 1.490 . S
C5304 H5294 0.930 . S
C5304 C5303 1.400 . S
C5304 C5307 1.386 . S
H5305 C5321 0.930 . S
H5306 C5322 0.931 . S
C5307 H5295 0.929 . S
C5307 C5301 1.390 . S
C5307 C5304 1.386 . S
C5308 C5303 1.490 . S
C5308 C5310 1.395 . S
C5308 C5311 1.403 . S
H5309 C5315 0.930 . S
C5310 H5296 0.930 . S
C5310 C5308 1.395 . S
C5310 C5313 1.403 . S
C5311 C5308 1.403 . S
C5311 C5312 1.524 . S
C5311 C5315 1.400 . S
C5312 H5297 0.960 . S
C5312 H5298 0.960 . S
C5312 H5299 0.960 . S
C5312 C5311 1.524 . S
C5313 C5310 1.403 . S
C5313 C5314 1.392 . S
C5313 C5317 1.495 . S
C5314 C5313 1.392 . S
C5314 C5315 1.385 . S
C5314 C5316 1.478 . S
C5315 H5309 0.930 . S
C5315 C5311 1.400 . S
C5315 C5314 1.385 . S
C5316 C5314 1.478 . S
C5316 C5318 1.381 . S
C5316 C5322 1.383 . S
C5317 C5313 1.495 . S
C5317 H5323 0.959 . S
C5317 H5324 0.961 . S
C5317 H5325 0.960 . S
C5318 C5316 1.381 . S
C5318 C5319 1.394 . S
C5318 H5326 0.930 . S
C5319 C5318 1.394 . S
C5319 C5320 1.383 . S
C5319 H5327 0.929 . S
C5320 C5319 1.383 . S
C5320 C5321 1.377 . S
C5321 H5305 0.930 . S
C5321 C5320 1.377 . S
C5321 C5322 1.379 . S
C5322 H5306 0.931 . S
C5322 C5316 1.383 . S
C5322 C5321 1.379 . S
H5323 C5317 0.959 . S
H5324 C5317 0.961 . S
H5325 C5317 0.960 . S
H5326 C5318 0.930 . S
H5327 C5319 0.929 . S
C1449 C8 2.085 . S
C1468 C311 2.085 . S
C1485 C351 2.097 . S
C1504 C48 2.087 . S
C1521 C271 2.097 . S
C1540 C88 2.089 . S
C1557 C471 2.099 . S
C1576 C128 2.075 . S
C1593 C168 2.085 . S
C1612 C391 2.085 . S
C1629 C208 2.084 . S
C1648 C431 2.093 . S
C1665 C52 2.099 . S
C1684 C269 2.090 . S
C1701 C309 2.085 . S
C1720 C92 2.102 . S
C1737 C12 2.099 . S
C1756 C349 2.068 . S
C1773 C212 2.096 . S
C1792 C389 2.072 . S
C1809 C429 2.086 . S
C1828 C132 2.094 . S
C1845 C469 2.081 . S
C1864 C172 2.088 . S
C1881 C488 2.085 . S
C1900 C791 2.085 . S
C1917 C831 2.097 . S
C1936 C528 2.081 . S
C1953 C751 2.098 . S
C1972 C568 2.082 . S
C1989 C608 2.085 . S
C2008 C951 2.086 . S
C2025 C871 2.097 . S
C2044 C648 2.091 . S
C2061 C688 2.084 . S
C2080 C911 2.095 . S
C2097 C749 2.082 . S
C2116 C532 2.084 . S
C2133 C572 2.100 . S
C2152 C789 2.081 . S
C2169 C829 2.082 . S
C2188 C492 2.099 . S
C2205 C692 2.099 . S
C2224 C869 2.073 . S
C2241 C612 2.099 . S
C2260 C909 2.072 . S
C2277 C949 2.084 . S
C2296 C652 2.104 . S
C2313 C968 2.080 . S
C2332 C1271 2.102 . S
C2349 C1008 2.081 . S
C2368 C1311 2.103 . S
C2385 C1231 2.096 . S
C2404 C1048 2.091 . S
C2421 C1431 2.100 . S
C2440 C1088 2.066 . S
C2457 C1128 2.085 . S
C2476 C1351 2.088 . S
C2493 C1391 2.100 . S
C2512 C1168 2.067 . S
C2529 C1012 2.097 . S
C2548 C1229 2.086 . S
C2565 C1269 2.081 . S
C2584 C1052 2.098 . S
C2601 C972 2.097 . S
C2620 C1309 2.085 . S
C2637 C1349 2.086 . S
C2656 C1172 2.096 . S
C2673 C1389 2.083 . S
C2692 C1092 2.102 . S
C2709 C1429 2.081 . S
C2728 C1132 2.089 . S
C2745 C31 2.113 . S
C2764 C732 2.107 . S
C2781 C71 2.116 . S
C2800 C772 2.101 . S
C2817 C812 2.113 . S
C2836 C111 2.102 . S
C2853 C1332 2.116 . S
C2872 C151 2.123 . S
C2889 C1372 2.118 . S
C2908 C191 2.121 . S
C2925 C1412 2.113 . S
C2944 C231 2.115 . S
C2961 C252 2.114 . S
C2980 C991 2.115 . S
C2997 C1031 2.114 . S
C3016 C292 2.118 . S
C3033 C332 2.114 . S
C3052 C1071 2.099 . S
C3069 C372 2.113 . S
C3088 C631 2.102 . S
C3105 C412 2.113 . S
C3124 C671 2.101 . S
C3141 C452 2.116 . S
C3160 C711 2.103 . S
C3177 C511 2.113 . S
C3196 C1212 2.103 . S
C3213 C1252 2.117 . S
C3232 C551 2.108 . S
C3249 C591 2.113 . S
C3268 C1292 2.102 . S
C3285 C1111 2.118 . S
C3304 C852 2.110 . S
C3321 C892 2.118 . S
C3340 C1151 2.110 . S
C3357 C1191 2.113 . S
C3376 C932 2.105 . S
C3393 C2 2.127 1_556 S
C3412 C642 2.149 . S
C3429 C42 2.137 1_556 S
C3448 C682 2.131 . S
C3465 C602 2.138 . S
C3484 C82 2.108 1_556 S
C3501 C122 2.128 . S
C3520 C1042 2.153 . S
C3537 C962 2.134 . S
C3556 C162 2.106 . S
C3573 C202 2.129 . S
C3592 C1002 2.129 . S
C3609 C1377 2.137 . S
C3628 C257 2.153 1_554 S
C3645 C297 2.136 1_554 S
C3664 C1417 2.137 . S
C3681 C1337 2.134 . S
C3700 C337 2.140 1_554 S
C3717 C377 2.129 . S
C3736 C817 2.108 . S
C3753 C417 2.136 . S
C3772 C737 2.137 . S
C3789 C457 2.138 . S
C3808 C777 2.153 . S
C3825 C1122 2.131 . S
C3844 C482 2.152 . S
C3861 C522 2.134 . S
C3880 C1162 2.107 . S
C3897 C562 2.138 . S
C3916 C1082 2.107 . S
C3933 C1297 2.132 . S
C3952 C857 2.130 . S
C3969 C1217 2.133 . S
C3988 C897 2.126 . S
C4005 C1257 2.131 . S
C4024 C937 2.124 . S
C4041 C137 2.572 . S
C4060 C17 2.559 . S
C4077 C57 2.571 . S
C4096 C177 2.558 . S
C4113 C97 2.575 . S
C4132 C217 2.579 . S
C4149 C362 2.575 . S
C4168 C242 2.576 . S
C4185 C282 2.575 . S
C4204 C402 2.566 . S
C4221 C442 2.575 . S
C4240 C322 2.561 . S
C4257 C617 2.575 . S
C4276 C497 2.577 . S
C4293 C537 2.574 . S
C4312 C657 2.572 . S
C4329 C577 2.575 . S
C4348 C697 2.578 . S
C4365 C722 2.571 . S
C4384 C842 2.577 . S
C4401 C762 2.573 . S
C4420 C882 2.558 . S
C4437 C802 2.574 . S
C4456 C922 2.558 . S
C4473 C977 2.574 . S
C4492 C1097 2.567 . S
C4509 C1137 2.577 . S
C4528 C1017 2.566 . S
C4545 C1177 2.591 . S
C4564 C1057 2.562 . S
C4581 C1202 2.573 . S
C4600 C1322 2.559 . S
C4617 C1362 2.571 . S
C4636 C1242 2.566 . S
C4653 C1282 2.571 . S
C4672 C1402 2.573 . S
C4689 C29 0.452 . S
C4708 C1189 0.375 . S
C4725 C1109 0.431 . S
C4744 C69 0.508 . S
C4761 C109 0.428 . S
C4780 C1149 0.514 . S
C4797 C549 0.449 . S
C4816 C149 0.367 . S
C4833 C189 0.436 . S
C4852 C589 0.492 . S
C4869 C229 0.446 . S
C4888 C509 0.371 . S
C4905 C928 0.448 . S
C4924 C248 0.394 . S
C4941 C288 0.442 . S
C4960 C848 0.373 . S
C4977 C888 0.441 . S
C4996 C328 0.518 . S
C5013 C368 0.421 . S
C5032 C1248 0.486 . S
C5049 C1288 0.429 . S
C5068 C408 0.516 . S
C5085 C1208 0.433 . S
C5104 C448 0.369 . S
C5121 C629 0.428 . S
C5140 C1029 0.514 . S
C5157 C669 0.444 . S
C5176 C1069 0.458 . S
C5193 C709 0.449 . S
C5212 C989 0.367 . S
C5229 C728 0.422 . S
C5248 C1408 0.406 . S
C5265 C768 0.431 . S
C5284 C1328 0.518 . S
C5301 C1368 0.438 . S
C5320 C808 0.521 . S
