# Generated by pormake.
# Topology umq, (4)-cn, num edge types: 1
# Building blocks:
#     Node 0, Type 0, BuildingBlock: NAHDIM_clean_sbu_0, # of connection points: 4
#     Node 1, Type 0, BuildingBlock: NAHDIM_clean_sbu_0, # of connection points: 4
#     Node 2, Type 0, BuildingBlock: NAHDIM_clean_sbu_0, # of connection points: 4
#     Node 3, Type 0, BuildingBlock: NAHDIM_clean_sbu_0, # of connection points: 4
#     Node 4, Type 0, BuildingBlock: NAHDIM_clean_sbu_0, # of connection points: 4
#     Node 5, Type 0, BuildingBlock: NAHDIM_clean_sbu_0, # of connection points: 4
#     Node 6, Type 0, BuildingBlock: NAHDIM_clean_sbu_0, # of connection points: 4
#     Node 7, Type 0, BuildingBlock: NAHDIM_clean_sbu_0, # of connection points: 4
#     Node 8, Type 0, BuildingBlock: NAHDIM_clean_sbu_0, # of connection points: 4
#     Node 9, Type 0, BuildingBlock: NAHDIM_clean_sbu_0, # of connection points: 4
#     Node 10, Type 0, BuildingBlock: NAHDIM_clean_sbu_0, # of connection points: 4
#     Node 11, Type 0, BuildingBlock: NAHDIM_clean_sbu_0, # of connection points: 4
#     Node 12, Type 0, BuildingBlock: NAHDIM_clean_sbu_0, # of connection points: 4
#     Node 13, Type 0, BuildingBlock: NAHDIM_clean_sbu_0, # of connection points: 4
#     Node 14, Type 0, BuildingBlock: NAHDIM_clean_sbu_0, # of connection points: 4
#     Node 15, Type 0, BuildingBlock: NAHDIM_clean_sbu_0, # of connection points: 4
#     Node 16, Type 0, BuildingBlock: NAHDIM_clean_sbu_0, # of connection points: 4
#     Node 17, Type 0, BuildingBlock: NAHDIM_clean_sbu_0, # of connection points: 4
#     Node 18, Type 0, BuildingBlock: NAHDIM_clean_sbu_0, # of connection points: 4
#     Node 19, Type 0, BuildingBlock: NAHDIM_clean_sbu_0, # of connection points: 4
#     Node 20, Type 0, BuildingBlock: NAHDIM_clean_sbu_0, # of connection points: 4
#     Node 21, Type 0, BuildingBlock: NAHDIM_clean_sbu_0, # of connection points: 4
#     Node 22, Type 0, BuildingBlock: NAHDIM_clean_sbu_0, # of connection points: 4
#     Node 23, Type 0, BuildingBlock: NAHDIM_clean_sbu_0, # of connection points: 4
#     Node 24, Type 0, BuildingBlock: NAHDIM_clean_sbu_0, # of connection points: 4
#     Node 25, Type 0, BuildingBlock: NAHDIM_clean_sbu_0, # of connection points: 4
#     Node 26, Type 0, BuildingBlock: NAHDIM_clean_sbu_0, # of connection points: 4
#     Node 27, Type 0, BuildingBlock: NAHDIM_clean_sbu_0, # of connection points: 4
#     Node 28, Type 0, BuildingBlock: NAHDIM_clean_sbu_0, # of connection points: 4
#     Node 29, Type 0, BuildingBlock: NAHDIM_clean_sbu_0, # of connection points: 4
#     Node 30, Type 0, BuildingBlock: NAHDIM_clean_sbu_0, # of connection points: 4
#     Node 31, Type 0, BuildingBlock: NAHDIM_clean_sbu_0, # of connection points: 4
#     Edge 32, Type (0, 0), BuildingBlock: UVAHIK_clean_linker_0, # of connection points: 2
#     Edge 33, Type (0, 0), BuildingBlock: UVAHIK_clean_linker_0, # of connection points: 2
#     Edge 34, Type (0, 0), BuildingBlock: UVAHIK_clean_linker_0, # of connection points: 2
#     Edge 35, Type (0, 0), BuildingBlock: UVAHIK_clean_linker_0, # of connection points: 2
#     Edge 36, Type (0, 0), BuildingBlock: UVAHIK_clean_linker_0, # of connection points: 2
#     Edge 37, Type (0, 0), BuildingBlock: UVAHIK_clean_linker_0, # of connection points: 2
#     Edge 38, Type (0, 0), BuildingBlock: UVAHIK_clean_linker_0, # of connection points: 2
#     Edge 39, Type (0, 0), BuildingBlock: UVAHIK_clean_linker_0, # of connection points: 2
#     Edge 40, Type (0, 0), BuildingBlock: UVAHIK_clean_linker_0, # of connection points: 2
#     Edge 41, Type (0, 0), BuildingBlock: UVAHIK_clean_linker_0, # of connection points: 2
#     Edge 42, Type (0, 0), BuildingBlock: UVAHIK_clean_linker_0, # of connection points: 2
#     Edge 43, Type (0, 0), BuildingBlock: UVAHIK_clean_linker_0, # of connection points: 2
#     Edge 44, Type (0, 0), BuildingBlock: UVAHIK_clean_linker_0, # of connection points: 2
#     Edge 45, Type (0, 0), BuildingBlock: UVAHIK_clean_linker_0, # of connection points: 2
#     Edge 46, Type (0, 0), BuildingBlock: UVAHIK_clean_linker_0, # of connection points: 2
#     Edge 47, Type (0, 0), BuildingBlock: UVAHIK_clean_linker_0, # of connection points: 2
#     Edge 48, Type (0, 0), BuildingBlock: UVAHIK_clean_linker_0, # of connection points: 2
#     Edge 49, Type (0, 0), BuildingBlock: UVAHIK_clean_linker_0, # of connection points: 2
#     Edge 50, Type (0, 0), BuildingBlock: UVAHIK_clean_linker_0, # of connection points: 2
#     Edge 51, Type (0, 0), BuildingBlock: UVAHIK_clean_linker_0, # of connection points: 2
#     Edge 52, Type (0, 0), BuildingBlock: UVAHIK_clean_linker_0, # of connection points: 2
#     Edge 53, Type (0, 0), BuildingBlock: UVAHIK_clean_linker_0, # of connection points: 2
#     Edge 54, Type (0, 0), BuildingBlock: UVAHIK_clean_linker_0, # of connection points: 2
#     Edge 55, Type (0, 0), BuildingBlock: UVAHIK_clean_linker_0, # of connection points: 2
#     Edge 56, Type (0, 0), BuildingBlock: UVAHIK_clean_linker_0, # of connection points: 2
#     Edge 57, Type (0, 0), BuildingBlock: UVAHIK_clean_linker_0, # of connection points: 2
#     Edge 58, Type (0, 0), BuildingBlock: UVAHIK_clean_linker_0, # of connection points: 2
#     Edge 59, Type (0, 0), BuildingBlock: UVAHIK_clean_linker_0, # of connection points: 2
#     Edge 60, Type (0, 0), BuildingBlock: UVAHIK_clean_linker_0, # of connection points: 2
#     Edge 61, Type (0, 0), BuildingBlock: UVAHIK_clean_linker_0, # of connection points: 2
#     Edge 62, Type (0, 0), BuildingBlock: UVAHIK_clean_linker_0, # of connection points: 2
#     Edge 63, Type (0, 0), BuildingBlock: UVAHIK_clean_linker_0, # of connection points: 2
#     Edge 64, Type (0, 0), BuildingBlock: UVAHIK_clean_linker_0, # of connection points: 2
#     Edge 65, Type (0, 0), BuildingBlock: UVAHIK_clean_linker_0, # of connection points: 2
#     Edge 66, Type (0, 0), BuildingBlock: UVAHIK_clean_linker_0, # of connection points: 2
#     Edge 67, Type (0, 0), BuildingBlock: UVAHIK_clean_linker_0, # of connection points: 2
#     Edge 68, Type (0, 0), BuildingBlock: UVAHIK_clean_linker_0, # of connection points: 2
#     Edge 69, Type (0, 0), BuildingBlock: UVAHIK_clean_linker_0, # of connection points: 2
#     Edge 70, Type (0, 0), BuildingBlock: UVAHIK_clean_linker_0, # of connection points: 2
#     Edge 71, Type (0, 0), BuildingBlock: UVAHIK_clean_linker_0, # of connection points: 2
#     Edge 72, Type (0, 0), BuildingBlock: UVAHIK_clean_linker_0, # of connection points: 2
#     Edge 73, Type (0, 0), BuildingBlock: UVAHIK_clean_linker_0, # of connection points: 2
#     Edge 74, Type (0, 0), BuildingBlock: UVAHIK_clean_linker_0, # of connection points: 2
#     Edge 75, Type (0, 0), BuildingBlock: UVAHIK_clean_linker_0, # of connection points: 2
#     Edge 76, Type (0, 0), BuildingBlock: UVAHIK_clean_linker_0, # of connection points: 2
#     Edge 77, Type (0, 0), BuildingBlock: UVAHIK_clean_linker_0, # of connection points: 2
#     Edge 78, Type (0, 0), BuildingBlock: UVAHIK_clean_linker_0, # of connection points: 2
#     Edge 79, Type (0, 0), BuildingBlock: UVAHIK_clean_linker_0, # of connection points: 2
#     Edge 80, Type (0, 0), BuildingBlock: UVAHIK_clean_linker_0, # of connection points: 2
#     Edge 81, Type (0, 0), BuildingBlock: UVAHIK_clean_linker_0, # of connection points: 2
#     Edge 82, Type (0, 0), BuildingBlock: UVAHIK_clean_linker_0, # of connection points: 2
#     Edge 83, Type (0, 0), BuildingBlock: UVAHIK_clean_linker_0, # of connection points: 2
#     Edge 84, Type (0, 0), BuildingBlock: UVAHIK_clean_linker_0, # of connection points: 2
#     Edge 85, Type (0, 0), BuildingBlock: UVAHIK_clean_linker_0, # of connection points: 2
#     Edge 86, Type (0, 0), BuildingBlock: UVAHIK_clean_linker_0, # of connection points: 2
#     Edge 87, Type (0, 0), BuildingBlock: UVAHIK_clean_linker_0, # of connection points: 2
#     Edge 88, Type (0, 0), BuildingBlock: UVAHIK_clean_linker_0, # of connection points: 2
#     Edge 89, Type (0, 0), BuildingBlock: UVAHIK_clean_linker_0, # of connection points: 2
#     Edge 90, Type (0, 0), BuildingBlock: UVAHIK_clean_linker_0, # of connection points: 2
#     Edge 91, Type (0, 0), BuildingBlock: UVAHIK_clean_linker_0, # of connection points: 2
#     Edge 92, Type (0, 0), BuildingBlock: UVAHIK_clean_linker_0, # of connection points: 2
#     Edge 93, Type (0, 0), BuildingBlock: UVAHIK_clean_linker_0, # of connection points: 2
#     Edge 94, Type (0, 0), BuildingBlock: UVAHIK_clean_linker_0, # of connection points: 2
#     Edge 95, Type (0, 0), BuildingBlock: UVAHIK_clean_linker_0, # of connection points: 2
# Relax obj value: 0.091
# Max RMSD: 0.103
# Mean RMSD: 0.103
data_MOF--net-umq--node1-NAHDIM_clean_sbu_0--edge1-UVAHIK_clean_linker_0
_symmetry_space_group_name_H-M    P1
_symmetry_Int_Tables_number       1
_symmetry_cell_setting            triclinic
loop_
_symmetry_equiv_pos_as_xyz
'x, y, z'
_cell_length_a     86.627542
_cell_length_b     86.677212
_cell_length_c     56.019493
_cell_angle_alpha  89.983515
_cell_angle_beta   89.994526
_cell_angle_gamma 90.014278
loop_
_atom_site_label
_atom_site_type_symbol
_atom_site_fract_x
_atom_site_fract_y
_atom_site_fract_z
_atom_type_partial_charge
C0 C 0.22863 0.07286 0.18712 0.0
O1 O 0.21536 0.07886 0.18058 0.0
O2 O 0.23288 0.09584 0.13098 0.0
Zn3 Zn 0.23904 0.10019 0.16494 0.0
O4 O 0.22304 0.11299 0.18162 0.0
C5 C 0.26887 0.11109 0.14859 0.0
O6 O 0.26575 0.10259 0.12978 0.0
O7 O 0.24101 0.08008 0.18233 0.0
C8 C 0.2181 0.12571 0.17333 0.0
O9 O 0.22348 0.13076 0.15283 0.0
C10 C 0.21907 0.09552 0.12334 0.0
O11 O 0.20765 0.09845 0.13807 0.0
O12 O 0.25924 0.1116 0.1657 0.0
C13 C 0.91094 0.2341 0.19748 0.0
O14 O 0.90416 0.22131 0.19054 0.0
O15 O 0.88808 0.23865 0.14105 0.0
Zn16 Zn 0.88465 0.24657 0.17451 0.0
O17 O 0.86986 0.2329 0.19229 0.0
C18 C 0.87873 0.27744 0.15668 0.0
O19 O 0.88928 0.27391 0.14075 0.0
O20 O 0.90464 0.24696 0.19263 0.0
C21 C 0.8666 0.21923 0.18585 0.0
O22 O 0.8729 0.2136 0.16638 0.0
C23 C 0.9014 0.2387 0.1315 0.0
O24 O 0.91322 0.24393 0.14375 0.0
O25 O 0.87533 0.26772 0.17284 0.0
C26 C 0.76316 0.93199 0.17327 0.0
O27 O 0.7763 0.92688 0.16461 0.0
O28 O 0.75737 0.90537 0.12147 0.0
Zn29 Zn 0.75332 0.90279 0.15654 0.0
O30 O 0.7706 0.89143 0.17261 0.0
C31 C 0.72257 0.89123 0.14695 0.0
O32 O 0.72337 0.90043 0.12834 0.0
O33 O 0.75122 0.92356 0.17172 0.0
C34 C 0.77301 0.8773 0.16793 0.0
O35 O 0.7644 0.87042 0.15183 0.0
C36 C 0.77072 0.90514 0.11205 0.0
O37 O 0.78289 0.90295 0.12562 0.0
O38 O 0.73387 0.89062 0.16137 0.0
C39 C 0.06703 0.76339 0.18784 0.0
O40 O 0.07409 0.77643 0.18295 0.0
O41 O 0.09619 0.7541 0.13742 0.0
Zn42 Zn 0.09598 0.75104 0.17292 0.0
O43 O 0.10775 0.76796 0.1892 0.0
C44 C 0.10224 0.71868 0.16916 0.0
O45 O 0.09089 0.71937 0.15364 0.0
O46 O 0.07418 0.75075 0.18483 0.0
C47 C 0.12163 0.77077 0.18335 0.0
O48 O 0.12809 0.76255 0.16636 0.0
C49 C 0.09617 0.76722 0.12729 0.0
O50 O 0.09584 0.77978 0.14041 0.0
O51 O 0.10627 0.73087 0.1801 0.0
C52 C 0.22687 0.92559 0.30526 0.0
O53 O 0.21354 0.91853 0.30764 0.0
O54 O 0.22744 0.90234 0.36394 0.0
Zn55 Zn 0.23659 0.89919 0.33121 0.0
O56 O 0.22304 0.88506 0.31191 0.0
C57 C 0.25809 0.87837 0.35111 0.0
O58 O 0.24597 0.87559 0.36455 0.0
O59 O 0.23889 0.91943 0.31408 0.0
C60 C 0.2091 0.88216 0.31737 0.0
O61 O 0.203 0.88872 0.33628 0.0
C62 C 0.22297 0.91503 0.37293 0.0
O63 O 0.22401 0.92777 0.36034 0.0
O64 O 0.25713 0.88864 0.33497 0.0
C65 C 0.06326 0.23022 0.29911 0.0
O66 O 0.07144 0.21746 0.29868 0.0
O67 O 0.09128 0.23747 0.35529 0.0
Zn68 Zn 0.09096 0.24241 0.32012 0.0
O69 O 0.10394 0.22733 0.30156 0.0
C70 C 0.09975 0.27398 0.33064 0.0
O71 O 0.09216 0.27159 0.35061 0.0
O72 O 0.06924 0.24243 0.3076 0.0
C73 C 0.11002 0.21532 0.31055 0.0
O74 O 0.10761 0.21208 0.33315 0.0
C75 C 0.08168 0.22846 0.36532 0.0
O76 O 0.07095 0.22178 0.3524 0.0
O77 O 0.10039 0.2633 0.31513 0.0
C78 C 0.76468 0.0697 0.31534 0.0
O79 O 0.77807 0.07615 0.32004 0.0
O80 O 0.76302 0.088 0.37673 0.0
Zn81 Zn 0.75485 0.09428 0.34465 0.0
O82 O 0.76946 0.10864 0.32796 0.0
C83 C 0.73057 0.11184 0.36724 0.0
O84 O 0.74007 0.11162 0.38551 0.0
O85 O 0.75251 0.07546 0.32433 0.0
C86 C 0.77171 0.12251 0.3344 0.0
O87 O 0.76448 0.12787 0.35326 0.0
C88 C 0.77708 0.08918 0.38298 0.0
O89 O 0.78721 0.09483 0.36789 0.0
O90 O 0.73436 0.10493 0.3481 0.0
C91 C 0.91728 0.76658 0.29805 0.0
O92 O 0.91146 0.77991 0.30466 0.0
O93 O 0.89504 0.76275 0.35607 0.0
Zn94 Zn 0.89056 0.75571 0.32245 0.0
O95 O 0.87646 0.77058 0.30569 0.0
C96 C 0.8805 0.72568 0.34034 0.0
O97 O 0.88873 0.72921 0.35926 0.0
O98 O 0.91024 0.75424 0.30366 0.0
C99 C 0.87445 0.78455 0.31178 0.0
O100 O 0.88175 0.79 0.33053 0.0
C101 C 0.90833 0.7608 0.36523 0.0
O102 O 0.91922 0.75425 0.35245 0.0
O103 O 0.87995 0.73506 0.32291 0.0
C104 C 0.73894 0.92862 0.80836 0.0
O105 O 0.73871 0.92917 0.83179 0.0
O106 O 0.75354 0.90195 0.85015 0.0
Zn107 Zn 0.74851 0.89707 0.81598 0.0
O108 O 0.7664 0.88668 0.79998 0.0
C109 C 0.71883 0.88447 0.8285 0.0
O110 O 0.71857 0.89612 0.8435 0.0
O111 O 0.7429 0.91621 0.79798 0.0
C112 C 0.77079 0.87359 0.80761 0.0
O113 O 0.76374 0.86749 0.82611 0.0
C114 C 0.76715 0.90405 0.85798 0.0
O115 O 0.7789 0.9031 0.84323 0.0
O116 O 0.73048 0.88265 0.81503 0.0
C117 C 0.0672 0.75945 0.81094 0.0
O118 O 0.07383 0.77252 0.81695 0.0
O119 O 0.09609 0.75148 0.86147 0.0
Zn120 Zn 0.09626 0.74769 0.82611 0.0
O121 O 0.10804 0.76442 0.80937 0.0
C122 C 0.10542 0.71616 0.83388 0.0
O123 O 0.09602 0.71736 0.8522 0.0
O124 O 0.07463 0.74693 0.81348 0.0
C125 C 0.12222 0.76644 0.81416 0.0
O126 O 0.12879 0.75769 0.83039 0.0
C127 C 0.09651 0.76478 0.87097 0.0
O128 O 0.09687 0.77707 0.85726 0.0
O129 O 0.10704 0.7276 0.81991 0.0
C130 C 0.24731 0.07124 0.79229 0.0
O131 O 0.25171 0.08433 0.7826 0.0
O132 O 0.23048 0.08586 0.86382 0.0
Zn133 Zn 0.23716 0.09101 0.83041 0.0
O134 O 0.22076 0.10285 0.813 0.0
C135 C 0.2603 0.11095 0.85052 0.0
O136 O 0.25149 0.10965 0.8695 0.0
O137 O 0.24104 0.07137 0.81278 0.0
C138 C 0.21661 0.1162 0.81974 0.0
O139 O 0.22295 0.12225 0.83888 0.0
C140 C 0.2167 0.08602 0.87157 0.0
O141 O 0.20535 0.0895 0.85699 0.0
O142 O 0.25656 0.10385 0.83153 0.0
C143 C 0.92411 0.22063 0.81227 0.0
O144 O 0.91742 0.20768 0.81874 0.0
O145 O 0.89813 0.22771 0.86717 0.0
Zn146 Zn 0.89677 0.23401 0.83262 0.0
O147 O 0.88222 0.22024 0.81468 0.0
C148 C 0.89167 0.266 0.84572 0.0
O149 O 0.90107 0.26285 0.86346 0.0
O150 O 0.91745 0.23337 0.81666 0.0
C151 C 0.87831 0.20682 0.82149 0.0
O152 O 0.88398 0.20128 0.84149 0.0
C153 C 0.91086 0.22738 0.87843 0.0
O154 O 0.92368 0.23089 0.86714 0.0
O155 O 0.88844 0.25555 0.83063 0.0
C156 C 0.73642 0.06694 0.67266 0.0
O157 O 0.73393 0.06789 0.64957 0.0
O158 O 0.76004 0.08891 0.63406 0.0
Zn159 Zn 0.7504 0.09627 0.66462 0.0
O160 O 0.76569 0.10811 0.68428 0.0
C161 C 0.73009 0.11586 0.63696 0.0
O162 O 0.74035 0.11352 0.62008 0.0
O163 O 0.74329 0.07794 0.68321 0.0
C164 C 0.77021 0.12144 0.67796 0.0
O165 O 0.76479 0.12749 0.65815 0.0
C166 C 0.77438 0.08915 0.62927 0.0
O167 O 0.78419 0.09445 0.64516 0.0
O168 O 0.73206 0.10968 0.65732 0.0
C169 C 0.92225 0.76472 0.68671 0.0
O170 O 0.91652 0.77827 0.68108 0.0
O171 O 0.9007 0.76345 0.62792 0.0
Zn172 Zn 0.89589 0.75518 0.66066 0.0
O173 O 0.88178 0.76956 0.67837 0.0
C174 C 0.87548 0.73332 0.63996 0.0
O175 O 0.87364 0.74482 0.62493 0.0
O176 O 0.91533 0.75262 0.6797 0.0
C177 C 0.87901 0.78335 0.672 0.0
O178 O 0.88558 0.78885 0.65265 0.0
C179 C 0.91363 0.76123 0.61779 0.0
O180 O 0.92453 0.7538 0.62932 0.0
O181 O 0.8849 0.73487 0.6572 0.0
C182 C 0.24673 0.92588 0.6694 0.0
O183 O 0.25341 0.92336 0.6487 0.0
O184 O 0.22798 0.89713 0.63005 0.0
Zn185 Zn 0.23593 0.89464 0.6635 0.0
O186 O 0.22075 0.88226 0.6825 0.0
C187 C 0.26463 0.88213 0.64487 0.0
O188 O 0.2603 0.88881 0.62491 0.0
O189 O 0.23877 0.91524 0.67897 0.0
C190 C 0.2171 0.86886 0.67528 0.0
O191 O 0.22322 0.86363 0.65539 0.0
C192 C 0.21954 0.90838 0.62361 0.0
O193 O 0.21561 0.91891 0.63934 0.0
O194 O 0.25614 0.88328 0.66328 0.0
C195 C 0.06973 0.22221 0.68892 0.0
O196 O 0.0782 0.20969 0.68736 0.0
O197 O 0.09576 0.23131 0.63105 0.0
Zn198 Zn 0.09617 0.23595 0.66628 0.0
O199 O 0.11024 0.22133 0.6837 0.0
C200 C 0.10322 0.2679 0.65558 0.0
O201 O 0.09541 0.26515 0.63593 0.0
O202 O 0.07495 0.23484 0.68067 0.0
C203 C 0.11418 0.20811 0.67606 0.0
O204 O 0.10896 0.2033 0.65534 0.0
C205 C 0.08562 0.22298 0.62091 0.0
O206 O 0.07473 0.21655 0.63383 0.0
O207 O 0.10471 0.25726 0.67101 0.0
C208 C 0.73466 0.56653 0.69537 0.0
O209 O 0.72085 0.57258 0.69297 0.0
O210 O 0.73501 0.58448 0.63196 0.0
Zn211 Zn 0.74188 0.59141 0.66447 0.0
O212 O 0.72594 0.60449 0.68082 0.0
C213 C 0.76234 0.6129 0.64281 0.0
O214 O 0.75111 0.61311 0.62705 0.0
O215 O 0.74599 0.57275 0.68464 0.0
C216 C 0.71688 0.61387 0.67048 0.0
O217 O 0.71744 0.61536 0.64716 0.0
C218 C 0.72148 0.5805 0.62573 0.0
O219 O 0.71025 0.58067 0.64149 0.0
O220 O 0.76117 0.60411 0.66088 0.0
C221 C 0.41999 0.72545 0.6889 0.0
O222 O 0.41423 0.71242 0.68091 0.0
O223 O 0.39838 0.73001 0.63111 0.0
Zn224 Zn 0.39369 0.7372 0.66457 0.0
O225 O 0.3789 0.72279 0.68087 0.0
C226 C 0.38214 0.7663 0.64519 0.0
O227 O 0.38775 0.76125 0.62485 0.0
O228 O 0.41312 0.73801 0.68404 0.0
C229 C 0.37666 0.70882 0.67494 0.0
O230 O 0.3842 0.70304 0.65665 0.0
C231 C 0.41164 0.73213 0.62198 0.0
O232 O 0.42242 0.73885 0.63477 0.0
O233 O 0.3837 0.75815 0.66391 0.0
C234 C 0.26439 0.4167 0.69038 0.0
O235 O 0.27674 0.40793 0.68949 0.0
O236 O 0.2548 0.39167 0.63117 0.0
Zn237 Zn 0.25046 0.39081 0.66641 0.0
O238 O 0.26504 0.37625 0.68293 0.0
C239 C 0.21843 0.38391 0.65583 0.0
O240 O 0.22119 0.39169 0.63616 0.0
O241 O 0.25186 0.41183 0.68131 0.0
C242 C 0.27817 0.37231 0.67488 0.0
O243 O 0.28297 0.37799 0.65445 0.0
C244 C 0.26347 0.40154 0.62108 0.0
O245 O 0.27055 0.41196 0.6341 0.0
O246 O 0.22909 0.38241 0.67124 0.0
C247 C 0.571 0.2631 0.68197 0.0
O248 O 0.57729 0.27674 0.67871 0.0
O249 O 0.59054 0.26465 0.62222 0.0
Zn250 Zn 0.59649 0.25485 0.6534 0.0
O251 O 0.61088 0.26838 0.67211 0.0
C252 C 0.61416 0.23211 0.62767 0.0
O253 O 0.61372 0.2426 0.61075 0.0
O254 O 0.57734 0.25136 0.67262 0.0
C255 C 0.62351 0.27327 0.66343 0.0
O256 O 0.62717 0.26973 0.64134 0.0
C257 C 0.59136 0.27895 0.61737 0.0
O258 O 0.59634 0.28867 0.63363 0.0
O259 O 0.60728 0.2347 0.64731 0.0
C260 C 0.7516 0.42122 0.81588 0.0
O261 O 0.75585 0.41997 0.8383 0.0
O262 O 0.74022 0.39039 0.85363 0.0
Zn263 Zn 0.74745 0.38836 0.81977 0.0
O264 O 0.73334 0.37458 0.80094 0.0
C265 C 0.77844 0.38208 0.83597 0.0
O266 O 0.77457 0.39139 0.85347 0.0
O267 O 0.7477 0.40919 0.80442 0.0
C268 C 0.72463 0.36451 0.81047 0.0
O269 O 0.72467 0.36283 0.83377 0.0
C270 C 0.72718 0.396 0.85933 0.0
O271 O 0.71763 0.40043 0.84246 0.0
O272 O 0.76874 0.37928 0.8195 0.0
C273 C 0.56698 0.72195 0.80709 0.0
O274 O 0.5742 0.70867 0.80876 0.0
O275 O 0.59654 0.72886 0.85982 0.0
Zn276 Zn 0.59588 0.73306 0.82459 0.0
O277 O 0.60735 0.71678 0.8063 0.0
C278 C 0.60455 0.76471 0.83238 0.0
O279 O 0.59463 0.76363 0.85005 0.0
O280 O 0.57399 0.73422 0.81311 0.0
C281 C 0.6195 0.71064 0.81469 0.0
O282 O 0.62434 0.71471 0.83601 0.0
C283 C 0.59323 0.71608 0.86971 0.0
O284 O 0.58883 0.70437 0.85647 0.0
O285 O 0.60661 0.75317 0.81877 0.0
C286 C 0.26582 0.56218 0.81378 0.0
O287 O 0.27867 0.5679 0.82256 0.0
O288 O 0.25794 0.58948 0.86492 0.0
Zn289 Zn 0.25441 0.59117 0.82956 0.0
O290 O 0.27139 0.60307 0.81366 0.0
C291 C 0.22289 0.60071 0.83736 0.0
O292 O 0.22381 0.59118 0.85554 0.0
O293 O 0.25352 0.57012 0.815 0.0
C294 C 0.27318 0.61738 0.81771 0.0
O295 O 0.26406 0.62424 0.83315 0.0
C296 C 0.27106 0.59049 0.87492 0.0
O297 O 0.28341 0.59276 0.86177 0.0
O298 O 0.23448 0.60232 0.82368 0.0
C299 C 0.42596 0.25866 0.80557 0.0
O300 O 0.42069 0.27182 0.81388 0.0
O301 O 0.40283 0.25739 0.85844 0.0
Zn302 Zn 0.39786 0.24959 0.82551 0.0
O303 O 0.38511 0.26496 0.80738 0.0
C304 C 0.37937 0.22595 0.84736 0.0
O305 O 0.38096 0.23498 0.86603 0.0
O306 O 0.41783 0.24657 0.80818 0.0
C307 C 0.3713 0.26792 0.81345 0.0
O308 O 0.36541 0.26101 0.83224 0.0
C309 C 0.40084 0.27107 0.866 0.0
O310 O 0.39516 0.2816 0.8516 0.0
O311 O 0.3859 0.22966 0.82785 0.0
C312 C 0.249 0.42219 0.31454 0.0
O313 O 0.241 0.42028 0.33424 0.0
O314 O 0.25811 0.38986 0.35432 0.0
Zn315 Zn 0.25373 0.38944 0.31905 0.0
O316 O 0.26838 0.37521 0.30213 0.0
C317 C 0.22172 0.38291 0.32964 0.0
O318 O 0.22482 0.39034 0.34951 0.0
O319 O 0.25548 0.41061 0.30494 0.0
C320 C 0.28258 0.374 0.30745 0.0
O321 O 0.28822 0.38232 0.32499 0.0
C322 C 0.26705 0.39943 0.36454 0.0
O323 O 0.27455 0.40963 0.35163 0.0
O324 O 0.23223 0.38138 0.31399 0.0
C325 C 0.57654 0.26527 0.30491 0.0
O326 O 0.58284 0.27875 0.30948 0.0
O327 O 0.59543 0.26482 0.36495 0.0
Zn328 Zn 0.60166 0.25574 0.33343 0.0
O329 O 0.61623 0.26984 0.31606 0.0
C330 C 0.61815 0.2316 0.35816 0.0
O331 O 0.61781 0.24157 0.37582 0.0
O332 O 0.5827 0.25318 0.31348 0.0
C333 C 0.63062 0.27027 0.32029 0.0
O334 O 0.63642 0.26129 0.33691 0.0
C335 C 0.5978 0.27874 0.37109 0.0
O336 O 0.60479 0.28817 0.35625 0.0
O337 O 0.61183 0.23511 0.33841 0.0
C338 C 0.74634 0.56195 0.32489 0.0
O339 O 0.75346 0.56349 0.34546 0.0
O340 O 0.73195 0.58899 0.36793 0.0
Zn341 Zn 0.73716 0.59334 0.33371 0.0
O342 O 0.72076 0.60592 0.31759 0.0
C343 C 0.76705 0.60547 0.34823 0.0
O344 O 0.76453 0.59761 0.3679 0.0
O345 O 0.7389 0.5733 0.31635 0.0
C346 C 0.71268 0.6162 0.32784 0.0
O347 O 0.71464 0.61882 0.35074 0.0
C348 C 0.71883 0.58425 0.37494 0.0
O349 O 0.70763 0.58249 0.35937 0.0
O350 O 0.75713 0.60505 0.33152 0.0
C351 C 0.42324 0.73247 0.30221 0.0
O352 O 0.41767 0.71915 0.30933 0.0
O353 O 0.40207 0.73363 0.3599 0.0
Zn354 Zn 0.39694 0.74237 0.32753 0.0
O355 O 0.3824 0.72835 0.30993 0.0
C356 C 0.37647 0.76353 0.349 0.0
O357 O 0.37451 0.75145 0.36286 0.0
O358 O 0.41621 0.74477 0.308 0.0
C359 C 0.37979 0.71445 0.31586 0.0
O360 O 0.38682 0.70862 0.33457 0.0
C361 C 0.41507 0.7358 0.36986 0.0
O362 O 0.4258 0.74356 0.35843 0.0
O363 O 0.38614 0.7627 0.33198 0.0
C364 C 0.26181 0.57029 0.20014 0.0
O365 O 0.27504 0.57766 0.19893 0.0
O366 O 0.25482 0.59421 0.13983 0.0
Zn367 Zn 0.25104 0.597 0.17491 0.0
O368 O 0.26792 0.60954 0.18989 0.0
C369 C 0.21882 0.60394 0.16874 0.0
O370 O 0.21935 0.59194 0.15444 0.0
O371 O 0.24987 0.57634 0.19086 0.0
C372 C 0.27073 0.62323 0.18312 0.0
O373 O 0.26256 0.62922 0.16566 0.0
C374 C 0.26823 0.59349 0.1307 0.0
O375 O 0.28039 0.5946 0.14461 0.0
O376 O 0.231 0.60814 0.17954 0.0
C377 C 0.43294 0.26191 0.17699 0.0
O378 O 0.42733 0.27495 0.16874 0.0
O379 O 0.4069 0.25782 0.1256 0.0
Zn380 Zn 0.4041 0.25163 0.15991 0.0
O381 O 0.3918 0.26757 0.17752 0.0
C382 C 0.39154 0.22212 0.14464 0.0
O383 O 0.39887 0.22511 0.12464 0.0
O384 O 0.42487 0.24973 0.17525 0.0
C385 C 0.3776 0.26939 0.17257 0.0
O386 O 0.37137 0.26094 0.15565 0.0
C387 C 0.40504 0.27147 0.11782 0.0
O388 O 0.40095 0.28247 0.13266 0.0
O389 O 0.39253 0.23157 0.16192 0.0
C390 C 0.74031 0.42033 0.1921 0.0
O391 O 0.7485 0.40811 0.19771 0.0
O392 O 0.72198 0.4059 0.12146 0.0
Zn393 Zn 0.73101 0.40088 0.15356 0.0
O394 O 0.71838 0.38474 0.17056 0.0
C395 C 0.7551 0.38181 0.13469 0.0
O396 O 0.74345 0.37575 0.12298 0.0
O397 O 0.7318 0.41997 0.17362 0.0
C398 C 0.72482 0.37511 0.18447 0.0
O399 O 0.73985 0.37571 0.18751 0.0
C400 C 0.71289 0.39684 0.11046 0.0
O401 O 0.70863 0.38389 0.12073 0.0
O402 O 0.75261 0.39301 0.14878 0.0
C403 C 0.57074 0.7303 0.18618 0.0
O404 O 0.57793 0.71697 0.18568 0.0
O405 O 0.60027 0.73481 0.13329 0.0
Zn406 Zn 0.59977 0.74049 0.16809 0.0
O407 O 0.61081 0.72468 0.18803 0.0
C408 C 0.60889 0.77156 0.15699 0.0
O409 O 0.59932 0.76956 0.13905 0.0
O410 O 0.57783 0.74234 0.1793 0.0
C411 C 0.62212 0.71688 0.18014 0.0
O412 O 0.62682 0.71904 0.15809 0.0
C413 C 0.59648 0.72173 0.12486 0.0
O414 O 0.59187 0.71078 0.13941 0.0
O415 O 0.61068 0.76074 0.17205 0.0
C416 C 0.37298 0.20578 0.1677 0.0
C417 C 0.3811 0.20866 0.14643 0.0
C418 C 0.3621 0.19393 0.16886 0.0
C419 C 0.34834 0.15846 0.13896 0.0
H420 H 0.30941 0.16937 0.16867 0.0
C421 C 0.29277 0.12172 0.12941 0.0
C422 C 0.28303 0.12061 0.14941 0.0
C423 C 0.30564 0.13146 0.12979 0.0
C424 C 0.32027 0.16603 0.16063 0.0
H425 H 0.38457 0.20095 0.10997 0.0
H426 H 0.36543 0.18032 0.11198 0.0
H427 H 0.3304 0.18797 0.16815 0.0
H428 H 0.2795 0.12842 0.18581 0.0
H429 H 0.30203 0.14518 0.18658 0.0
H430 H 0.33808 0.13651 0.13129 0.0
C431 C 0.36758 0.18718 0.12779 0.0
C432 C 0.33231 0.1767 0.16033 0.0
C433 C 0.37849 0.19905 0.12662 0.0
C434 C 0.28668 0.1291 0.17001 0.0
C435 C 0.29956 0.13878 0.17042 0.0
C436 C 0.33627 0.14773 0.13931 0.0
C437 C 0.35906 0.18469 0.1488 0.0
C438 C 0.34648 0.17306 0.14949 0.0
C439 C 0.30906 0.14026 0.1502 0.0
C440 C 0.32209 0.15141 0.15014 0.0
H441 H 0.37479 0.21287 0.18336 0.0
H442 H 0.35591 0.19212 0.18544 0.0
H443 H 0.35917 0.15527 0.13066 0.0
H444 H 0.29027 0.11533 0.11325 0.0
H445 H 0.31264 0.13243 0.11383 0.0
C446 C 0.87173 0.30173 0.13485 0.0
C447 C 0.86975 0.29189 0.15456 0.0
C448 C 0.86208 0.31452 0.13172 0.0
C449 C 0.8333 0.33917 0.16286 0.0
H450 H 0.8152 0.34335 0.09989 0.0
C451 C 0.78307 0.3811 0.14601 0.0
C452 C 0.77062 0.37478 0.13323 0.0
C453 C 0.79736 0.37364 0.14641 0.0
C454 C 0.82017 0.34235 0.11756 0.0
H455 H 0.85657 0.28814 0.187 0.0
H456 H 0.83973 0.31022 0.18143 0.0
H457 H 0.83649 0.32541 0.10604 0.0
H458 H 0.76359 0.35603 0.11001 0.0
H459 H 0.78836 0.34287 0.11108 0.0
H460 H 0.81642 0.3554 0.17472 0.0
C461 C 0.84879 0.30822 0.16848 0.0
C462 C 0.8325 0.33221 0.12103 0.0
C463 C 0.85839 0.29546 0.17158 0.0
C464 C 0.77294 0.36119 0.12006 0.0
C465 C 0.7872 0.3537 0.12053 0.0
C466 C 0.82095 0.34927 0.15941 0.0
C467 C 0.85033 0.31774 0.1483 0.0
C468 C 0.83891 0.33019 0.14387 0.0
C469 C 0.79949 0.35967 0.13408 0.0
C470 C 0.81397 0.35066 0.13686 0.0
H471 H 0.88042 0.29934 0.12146 0.0
H472 H 0.86366 0.32174 0.11613 0.0
H473 H 0.83815 0.33804 0.1806 0.0
H474 H 0.78169 0.39164 0.15618 0.0
H475 H 0.80666 0.37866 0.15672 0.0
C476 C 0.62859 0.78778 0.17788 0.0
C477 C 0.61842 0.78568 0.15862 0.0
C478 C 0.63854 0.80044 0.17849 0.0
C479 C 0.64614 0.83885 0.15191 0.0
H480 H 0.68846 0.82966 0.16938 0.0
C481 C 0.69741 0.88006 0.13308 0.0
C482 C 0.70915 0.88092 0.15036 0.0
C483 C 0.68533 0.86948 0.13559 0.0
C484 C 0.67665 0.8325 0.1648 0.0
H485 H 0.61031 0.79555 0.1253 0.0
H486 H 0.62783 0.81757 0.12622 0.0
H487 H 0.66909 0.80942 0.17126 0.0
H488 H 0.71705 0.87179 0.18431 0.0
H489 H 0.69593 0.85352 0.18878 0.0
H490 H 0.65384 0.86194 0.14513 0.0
C491 C 0.62801 0.80949 0.14097 0.0
C492 C 0.66553 0.82089 0.16589 0.0
C493 C 0.61802 0.79682 0.14039 0.0
C494 C 0.70827 0.87134 0.17056 0.0
C495 C 0.6962 0.8608 0.17307 0.0
C496 C 0.65729 0.85051 0.15082 0.0
C497 C 0.63857 0.81128 0.15982 0.0
C498 C 0.65016 0.8239 0.15941 0.0
C499 C 0.68474 0.85956 0.15543 0.0
C500 C 0.67268 0.84744 0.15721 0.0
H501 H 0.62909 0.77948 0.19233 0.0
H502 H 0.64634 0.80165 0.19347 0.0
H503 H 0.63435 0.84157 0.14702 0.0
H504 H 0.69774 0.88729 0.11732 0.0
H505 H 0.67675 0.86872 0.12158 0.0
C506 C 0.19128 0.60938 0.15781 0.0
C507 C 0.20441 0.61292 0.17149 0.0
C508 C 0.17799 0.61848 0.15949 0.0
C509 C 0.15868 0.64786 0.19719 0.0
H510 H 0.14082 0.66165 0.13742 0.0
C511 C 0.12349 0.70371 0.18859 0.0
C512 C 0.1111 0.70425 0.17242 0.0
C513 C 0.13272 0.69057 0.19026 0.0
C514 C 0.14544 0.65769 0.1543 0.0
H515 H 0.21374 0.62848 0.1982 0.0
H516 H 0.19067 0.64435 0.20097 0.0
H517 H 0.16097 0.64207 0.13707 0.0
H518 H 0.09828 0.69114 0.14604 0.0
H519 H 0.1144 0.66812 0.14907 0.0
H520 H 0.14344 0.66381 0.21437 0.0
C521 C 0.19055 0.63449 0.18911 0.0
C522 C 0.15701 0.64646 0.1541 0.0
C523 C 0.20383 0.62545 0.18737 0.0
C524 C 0.1078 0.69113 0.15858 0.0
C525 C 0.11707 0.67797 0.16022 0.0
C526 C 0.14711 0.65908 0.1974 0.0
C527 C 0.17755 0.63123 0.17499 0.0
C528 C 0.164 0.64169 0.1755 0.0
C529 C 0.12978 0.67764 0.17581 0.0
C530 C 0.14061 0.66437 0.17591 0.0
H531 H 0.19133 0.59976 0.14548 0.0
H532 H 0.16809 0.6156 0.14855 0.0
H533 H 0.16367 0.64421 0.214 0.0
H534 H 0.12634 0.71361 0.19955 0.0
H535 H 0.14254 0.69078 0.20223 0.0
C536 C 0.2842 0.86975 0.33696 0.0
C537 C 0.27215 0.86885 0.35371 0.0
C538 C 0.2968 0.85971 0.33842 0.0
C539 C 0.3067 0.82145 0.36226 0.0
H540 H 0.34882 0.8332 0.3474 0.0
C541 C 0.35619 0.77809 0.37127 0.0
C542 C 0.36662 0.77731 0.3521 0.0
C543 C 0.34585 0.79036 0.37317 0.0
C544 C 0.33709 0.82975 0.35146 0.0
H545 H 0.26427 0.85727 0.38584 0.0
H546 H 0.2863 0.83998 0.38856 0.0
H547 H 0.32853 0.85283 0.34775 0.0
H548 H 0.37482 0.78915 0.32042 0.0
H549 H 0.3566 0.81055 0.32361 0.0
H550 H 0.31511 0.7984 0.36568 0.0
C551 C 0.28587 0.84818 0.37398 0.0
C552 C 0.32548 0.84098 0.35164 0.0
C553 C 0.27327 0.85815 0.37248 0.0
C554 C 0.36691 0.78941 0.33538 0.0
C555 C 0.35652 0.8017 0.33727 0.0
C556 C 0.31827 0.81027 0.3621 0.0
C557 C 0.29761 0.84861 0.35669 0.0
C558 C 0.31015 0.83693 0.35704 0.0
C559 C 0.34567 0.80214 0.35592 0.0
C560 C 0.33359 0.81427 0.35669 0.0
H561 H 0.28367 0.87788 0.32229 0.0
H562 H 0.30561 0.86026 0.32472 0.0
H563 H 0.29496 0.81787 0.36596 0.0
H564 H 0.35577 0.76904 0.38461 0.0
H565 H 0.33784 0.79052 0.38801 0.0
C566 C 0.19599 0.37441 0.3453 0.0
C567 C 0.20665 0.37516 0.32641 0.0
C568 C 0.18248 0.36572 0.34304 0.0
C569 C 0.16781 0.33236 0.30978 0.0
H570 H 0.12871 0.34319 0.33906 0.0
C571 C 0.11646 0.29094 0.30542 0.0
C572 C 0.10886 0.28823 0.32719 0.0
C573 C 0.12652 0.30341 0.30295 0.0
C574 C 0.13958 0.34001 0.33086 0.0
H575 H 0.21104 0.36816 0.28985 0.0
H576 H 0.18738 0.35322 0.28581 0.0
H577 H 0.14986 0.3619 0.33886 0.0
H578 H 0.10524 0.29696 0.36304 0.0
H579 H 0.12302 0.31861 0.35884 0.0
H580 H 0.15778 0.3104 0.30227 0.0
C581 C 0.18962 0.35905 0.30255 0.0
C582 C 0.15167 0.35071 0.33075 0.0
C583 C 0.20315 0.36767 0.30484 0.0
C584 C 0.11095 0.29871 0.34606 0.0
C585 C 0.12108 0.31117 0.3436 0.0
C586 C 0.15575 0.32171 0.30988 0.0
C587 C 0.17931 0.35766 0.32182 0.0
C588 C 0.16598 0.34693 0.32042 0.0
C589 C 0.12927 0.31342 0.32222 0.0
C590 C 0.14155 0.32533 0.32063 0.0
H591 H 0.19833 0.38007 0.36215 0.0
H592 H 0.17485 0.36479 0.3583 0.0
H593 H 0.17876 0.32894 0.30211 0.0
H594 H 0.11496 0.28318 0.29043 0.0
H595 H 0.13243 0.30501 0.28609 0.0
C596 C 0.70622 0.12154 0.34845 0.0
C597 C 0.71632 0.12121 0.36808 0.0
C598 C 0.69353 0.13147 0.3483 0.0
C599 C 0.66909 0.15648 0.38652 0.0
H600 H 0.66391 0.17986 0.32805 0.0
C601 C 0.63528 0.21384 0.38143 0.0
C602 C 0.62679 0.21697 0.36061 0.0
C603 C 0.64441 0.20059 0.383 0.0
C604 C 0.66498 0.17326 0.34438 0.0
H605 H 0.72064 0.13057 0.40337 0.0
H606 H 0.69861 0.14805 0.40295 0.0
H607 H 0.68297 0.15935 0.3297 0.0
H608 H 0.62066 0.2083 0.32553 0.0
H609 H 0.63645 0.18511 0.32839 0.0
H610 H 0.65127 0.1707 0.40131 0.0
C611 C 0.70041 0.14052 0.38777 0.0
C612 C 0.67593 0.16148 0.34533 0.0
C613 C 0.7131 0.13056 0.38795 0.0
C614 C 0.62718 0.2063 0.34174 0.0
C615 C 0.63627 0.19304 0.34334 0.0
C616 C 0.65811 0.16829 0.38556 0.0
C617 C 0.69067 0.1413 0.36774 0.0
C618 C 0.67822 0.15305 0.36646 0.0
C619 C 0.64521 0.19018 0.3638 0.0
C620 C 0.65605 0.17691 0.36454 0.0
H621 H 0.70829 0.11437 0.33294 0.0
H622 H 0.68609 0.13161 0.33277 0.0
H623 H 0.67046 0.15006 0.40297 0.0
H624 H 0.63522 0.22182 0.3963 0.0
H625 H 0.65127 0.19881 0.39892 0.0
C626 C 0.79061 0.618 0.36563 0.0
C627 C 0.78069 0.61566 0.34611 0.0
C628 C 0.80275 0.62859 0.36411 0.0
C629 C 0.8139 0.66344 0.33087 0.0
H630 H 0.85413 0.65679 0.35942 0.0
C631 C 0.8626 0.70758 0.3193 0.0
C632 C 0.87105 0.71146 0.33985 0.0
C633 C 0.85275 0.69484 0.3193 0.0
C634 C 0.84291 0.65884 0.35152 0.0
H635 H 0.77617 0.62207 0.30932 0.0
H636 H 0.79741 0.64036 0.30659 0.0
H637 H 0.83478 0.63625 0.36075 0.0
H638 H 0.87618 0.70468 0.37628 0.0
H639 H 0.8588 0.68252 0.37636 0.0
H640 H 0.82185 0.68603 0.32187 0.0
C641 C 0.79563 0.63425 0.32324 0.0
C642 C 0.83184 0.64709 0.35227 0.0
C643 C 0.7835 0.62371 0.32477 0.0
C644 C 0.86982 0.70201 0.36016 0.0
C645 C 0.85992 0.68926 0.36017 0.0
C646 C 0.82493 0.67515 0.33011 0.0
C647 C 0.80522 0.63704 0.34302 0.0
C648 C 0.81721 0.64927 0.34193 0.0
C649 C 0.85107 0.6857 0.33986 0.0
C650 C 0.83956 0.673 0.3404 0.0
H651 H 0.78876 0.61196 0.38232 0.0
H652 H 0.80986 0.63056 0.37971 0.0
H653 H 0.80263 0.66564 0.32319 0.0
H654 H 0.86339 0.71452 0.30326 0.0
H655 H 0.84633 0.69223 0.30321 0.0
C656 C 0.69367 0.87421 0.84398 0.0
C657 C 0.70592 0.87333 0.82759 0.0
C658 C 0.6818 0.86328 0.84353 0.0
C659 C 0.6738 0.82367 0.82305 0.0
H660 H 0.63095 0.83471 0.83356 0.0
C661 C 0.62538 0.77933 0.81135 0.0
C662 C 0.61433 0.77859 0.82967 0.0
C663 C 0.63564 0.7917 0.81004 0.0
C664 C 0.64289 0.83147 0.83076 0.0
H665 H 0.71509 0.86056 0.79742 0.0
H666 H 0.69433 0.8417 0.79644 0.0
H667 H 0.65074 0.85485 0.8334 0.0
H668 H 0.60495 0.79059 0.86041 0.0
H669 H 0.62298 0.8122 0.85816 0.0
H670 H 0.66603 0.80033 0.82046 0.0
C671 C 0.69403 0.85063 0.80995 0.0
C672 C 0.65422 0.84297 0.83071 0.0
C673 C 0.70589 0.8615 0.81045 0.0
C674 C 0.61335 0.7908 0.8461 0.0
C675 C 0.62363 0.80322 0.84476 0.0
C676 C 0.66251 0.81221 0.82303 0.0
C677 C 0.68193 0.85128 0.82665 0.0
C678 C 0.6698 0.83919 0.82678 0.0
C679 C 0.63508 0.80362 0.827 0.0
C680 C 0.64693 0.81597 0.82681 0.0
H681 H 0.69337 0.88319 0.85741 0.0
H682 H 0.67272 0.86402 0.85678 0.0
H683 H 0.68573 0.82031 0.8205 0.0
H684 H 0.62637 0.77017 0.79828 0.0
H685 H 0.64417 0.79184 0.79589 0.0
C686 C 0.11503 0.69046 0.84797 0.0
C687 C 0.11509 0.70225 0.83075 0.0
C688 C 0.12528 0.67805 0.84614 0.0
C689 C 0.16299 0.66865 0.8201 0.0
H690 H 0.15275 0.62671 0.83827 0.0
C691 C 0.20791 0.62021 0.81396 0.0
C692 C 0.20897 0.61032 0.83377 0.0
C693 C 0.19537 0.63018 0.81146 0.0
C694 C 0.15579 0.63839 0.83327 0.0
H695 H 0.12539 0.70987 0.79744 0.0
H696 H 0.14309 0.68816 0.79414 0.0
H697 H 0.13254 0.64639 0.83753 0.0
H698 H 0.19741 0.60275 0.86608 0.0
H699 H 0.17561 0.62034 0.86189 0.0
H700 H 0.18623 0.66082 0.81627 0.0
C701 C 0.13535 0.68865 0.8093 0.0
C702 C 0.14423 0.64965 0.83284 0.0
C703 C 0.12515 0.70105 0.81115 0.0
C704 C 0.19695 0.61024 0.85061 0.0
C705 C 0.1844 0.62026 0.84814 0.0
C706 C 0.17452 0.65743 0.82054 0.0
C707 C 0.13576 0.67718 0.82704 0.0
C708 C 0.14773 0.66493 0.82637 0.0
C709 C 0.18362 0.63053 0.82875 0.0
C710 C 0.17108 0.64218 0.82725 0.0
H711 H 0.10742 0.69103 0.86328 0.0
H712 H 0.12539 0.66947 0.8602 0.0
H713 H 0.16616 0.68037 0.8155 0.0
H714 H 0.21691 0.62046 0.80054 0.0
H715 H 0.19496 0.63775 0.79609 0.0
C716 C 0.36175 0.20852 0.8702 0.0
C717 C 0.36912 0.21233 0.84865 0.0
C718 C 0.35116 0.19641 0.87116 0.0
C719 C 0.33746 0.16168 0.83921 0.0
H720 H 0.29931 0.17004 0.87306 0.0
C721 C 0.28283 0.1236 0.83033 0.0
C722 C 0.27401 0.12112 0.85104 0.0
C723 C 0.29532 0.13383 0.83066 0.0
C724 C 0.30998 0.16741 0.86382 0.0
H725 H 0.37153 0.20607 0.81133 0.0
H726 H 0.35289 0.18498 0.81297 0.0
H727 H 0.31967 0.18936 0.87263 0.0
H728 H 0.27165 0.12705 0.8885 0.0
H729 H 0.29349 0.14471 0.8891 0.0
H730 H 0.32763 0.13975 0.83024 0.0
C731 C 0.35542 0.1913 0.82918 0.0
C732 C 0.32165 0.17849 0.86357 0.0
C733 C 0.36603 0.20344 0.82822 0.0
C734 C 0.27814 0.12878 0.87218 0.0
C735 C 0.29061 0.13898 0.87251 0.0
C736 C 0.32575 0.15056 0.83948 0.0
C737 C 0.34768 0.18783 0.85058 0.0
C738 C 0.33551 0.17578 0.85124 0.0
C739 C 0.29923 0.14176 0.85169 0.0
C740 C 0.31187 0.15333 0.85176 0.0
H741 H 0.36396 0.21506 0.88632 0.0
H742 H 0.34559 0.19384 0.88801 0.0
H743 H 0.34807 0.15919 0.82976 0.0
H744 H 0.27995 0.11787 0.81374 0.0
H745 H 0.30163 0.13583 0.81426 0.0
C746 C 0.87489 0.28483 0.82412 0.0
C747 C 0.88406 0.28123 0.84404 0.0
C748 C 0.86669 0.29866 0.82321 0.0
C749 C 0.84877 0.32688 0.86265 0.0
H750 H 0.84193 0.34909 0.80347 0.0
C751 C 0.80354 0.37548 0.8558 0.0
C752 C 0.7935 0.37404 0.83621 0.0
C753 C 0.81717 0.36686 0.85681 0.0
C754 C 0.84374 0.34301 0.82014 0.0
H755 H 0.8923 0.2896 0.87825 0.0
H756 H 0.87788 0.31383 0.87664 0.0
H757 H 0.8616 0.32896 0.80518 0.0
H758 H 0.79019 0.36291 0.8019 0.0
H759 H 0.81379 0.34782 0.80377 0.0
H760 H 0.83052 0.34049 0.87737 0.0
C761 C 0.87699 0.30585 0.86182 0.0
C762 C 0.85499 0.3315 0.82112 0.0
C763 C 0.88528 0.29201 0.86269 0.0
C764 C 0.79764 0.36426 0.81728 0.0
C765 C 0.81125 0.35569 0.81826 0.0
C766 C 0.8375 0.33838 0.86167 0.0
C767 C 0.86744 0.30921 0.84221 0.0
C768 C 0.85732 0.32301 0.84218 0.0
C769 C 0.82104 0.35669 0.8382 0.0
C770 C 0.83456 0.34626 0.84021 0.0
H771 H 0.87374 0.27681 0.80941 0.0
H772 H 0.85928 0.3008 0.80799 0.0
H773 H 0.85017 0.32044 0.87908 0.0
H774 H 0.80072 0.38298 0.87063 0.0
H775 H 0.82456 0.36798 0.8723 0.0
C776 C 0.62494 0.20733 0.64339 0.0
C777 C 0.62363 0.21806 0.6247 0.0
C778 C 0.63493 0.19475 0.6414 0.0
C779 C 0.67031 0.18309 0.61037 0.0
H780 H 0.66113 0.1431 0.638 0.0
C781 C 0.71486 0.13361 0.61067 0.0
C782 C 0.71661 0.12593 0.6326 0.0
C783 C 0.70242 0.14359 0.60694 0.0
C784 C 0.66387 0.15423 0.63028 0.0
H785 H 0.63128 0.22363 0.58882 0.0
H786 H 0.64862 0.20158 0.5853 0.0
H787 H 0.64098 0.16274 0.63608 0.0
H788 H 0.7065 0.12243 0.66763 0.0
H789 H 0.68493 0.13993 0.66121 0.0
H790 H 0.69327 0.17472 0.60505 0.0
C791 C 0.64209 0.20304 0.60163 0.0
C792 C 0.65234 0.16547 0.62918 0.0
C793 C 0.6321 0.21563 0.60362 0.0
C794 C 0.7055 0.12818 0.65053 0.0
C795 C 0.69306 0.13812 0.64679 0.0
C796 C 0.68183 0.17185 0.61145 0.0
C797 C 0.64381 0.19261 0.62066 0.0
C798 C 0.65551 0.18012 0.61961 0.0
C799 C 0.69146 0.14605 0.62504 0.0
C800 C 0.67881 0.1574 0.62182 0.0
H801 H 0.61858 0.20885 0.65986 0.0
H802 H 0.63611 0.18704 0.6565 0.0
H803 H 0.6732 0.19433 0.6032 0.0
H804 H 0.72318 0.13206 0.59644 0.0
H805 H 0.70141 0.14942 0.58991 0.0
C806 C 0.77673 0.6332 0.62021 0.0
C807 C 0.77566 0.62343 0.64016 0.0
C808 C 0.78872 0.64388 0.61835 0.0
C809 C 0.82726 0.65419 0.64198 0.0
H810 H 0.81542 0.69549 0.62271 0.0
C811 C 0.86619 0.7078 0.65546 0.0
C812 C 0.86592 0.71926 0.63771 0.0
C813 C 0.85623 0.69514 0.65414 0.0
C814 C 0.81899 0.68397 0.62775 0.0
H815 H 0.78665 0.61687 0.67346 0.0
H816 H 0.80753 0.63566 0.6703 0.0
H817 H 0.79617 0.67509 0.62327 0.0
H818 H 0.85548 0.72606 0.60409 0.0
H819 H 0.83829 0.7039 0.60165 0.0
H820 H 0.85009 0.6632 0.64673 0.0
C821 C 0.79915 0.63496 0.656 0.0
C822 C 0.80795 0.67227 0.62808 0.0
C823 C 0.78713 0.62425 0.65787 0.0
C824 C 0.85588 0.71752 0.6182 0.0
C825 C 0.84597 0.70485 0.61685 0.0
C826 C 0.83835 0.66592 0.64162 0.0
C827 C 0.79993 0.64505 0.63639 0.0
C828 C 0.81193 0.65726 0.63528 0.0
C829 C 0.84582 0.69366 0.63501 0.0
C830 C 0.83431 0.68096 0.63459 0.0
H831 H 0.76816 0.63278 0.60615 0.0
H832 H 0.78916 0.65132 0.60282 0.0
H833 H 0.83071 0.64269 0.64736 0.0
H834 H 0.8738 0.70881 0.67072 0.0
H835 H 0.85631 0.68679 0.66853 0.0
C836 C 0.2838 0.8662 0.66736 0.0
C837 C 0.27877 0.87259 0.64566 0.0
C838 C 0.29652 0.85633 0.66799 0.0
C839 C 0.33049 0.84292 0.63346 0.0
H840 H 0.32552 0.80613 0.67211 0.0
C841 C 0.36918 0.78861 0.62491 0.0
C842 C 0.37281 0.78058 0.64599 0.0
C843 C 0.35911 0.80121 0.62549 0.0
C844 C 0.32722 0.81645 0.66151 0.0
H845 H 0.28346 0.874 0.60768 0.0
H846 H 0.30554 0.85654 0.60872 0.0
H847 H 0.30535 0.82559 0.67195 0.0
H848 H 0.36938 0.78001 0.68436 0.0
H849 H 0.35198 0.80204 0.68535 0.0
H850 H 0.3523 0.83352 0.62272 0.0
C851 C 0.29975 0.85932 0.62531 0.0
C852 C 0.31564 0.82762 0.66142 0.0
C853 C 0.28704 0.86926 0.62469 0.0
C854 C 0.3667 0.78583 0.66776 0.0
C855 C 0.35667 0.79842 0.66833 0.0
C856 C 0.34209 0.83169 0.63352 0.0
C857 C 0.30447 0.85255 0.64692 0.0
C858 C 0.31711 0.84098 0.64738 0.0
C859 C 0.35249 0.80604 0.64715 0.0
C860 C 0.34055 0.81832 0.64754 0.0
H861 H 0.27779 0.86865 0.68389 0.0
H862 H 0.30004 0.85154 0.685 0.0
H863 H 0.33203 0.85316 0.62264 0.0
H864 H 0.37371 0.78487 0.60785 0.0
H865 H 0.35604 0.80678 0.60884 0.0
C866 C 0.11286 0.2932 0.63979 0.0
C867 C 0.11153 0.28267 0.65876 0.0
C868 C 0.1222 0.30628 0.64201 0.0
C869 C 0.15623 0.31915 0.67546 0.0
H870 H 0.14774 0.35877 0.64609 0.0
C871 C 0.20046 0.36801 0.68064 0.0
C872 C 0.20368 0.37556 0.65901 0.0
C873 C 0.18743 0.35866 0.68285 0.0
C874 C 0.15028 0.34775 0.65431 0.0
H875 H 0.11811 0.27812 0.69547 0.0
H876 H 0.13418 0.30102 0.69945 0.0
H877 H 0.12787 0.33871 0.64602 0.0
H878 H 0.19532 0.37987 0.62312 0.0
H879 H 0.17269 0.3633 0.62685 0.0
H880 H 0.17869 0.32792 0.68324 0.0
C881 C 0.12832 0.29899 0.68266 0.0
C882 C 0.13891 0.33627 0.65427 0.0
C883 C 0.11906 0.2859 0.6804 0.0
C884 C 0.19318 0.37418 0.64001 0.0
C885 C 0.18015 0.36474 0.64219 0.0
C886 C 0.16755 0.33058 0.6755 0.0
C887 C 0.13034 0.30911 0.66329 0.0
C888 C 0.14183 0.3218 0.66467 0.0
C889 C 0.17736 0.35657 0.66345 0.0
C890 C 0.16477 0.34497 0.66476 0.0
H891 H 0.10718 0.29105 0.62289 0.0
H892 H 0.1236 0.31377 0.6267 0.0
H893 H 0.15899 0.30803 0.68317 0.0
H894 H 0.20822 0.369 0.69573 0.0
H895 H 0.18542 0.35278 0.69963 0.0
C896 C 0.20111 0.0934 0.08833 0.0
C897 C 0.21601 0.09186 0.098 0.0
C898 C 0.19843 0.09027 0.06418 0.0
C899 C 0.21511 0.07025 0.01195 0.0
H900 H 0.19395 0.10145 0.97468 0.0
C901 C 0.22594 0.07878 0.91225 0.0
C902 C 0.21377 0.08332 0.89723 0.0
C903 C 0.22365 0.07734 0.93677 0.0
C904 C 0.19959 0.09245 0.98486 0.0
H905 H 0.23971 0.08557 0.09004 0.0
H906 H 0.23504 0.08017 0.04808 0.0
H907 H 0.19458 0.10357 0.0181 0.0
H908 H 0.18949 0.0894 0.89611 0.0
H909 H 0.1855 0.08687 0.93917 0.0
H910 H 0.22053 0.05936 0.97873 0.0
C911 C 0.2254 0.08366 0.05915 0.0
C912 C 0.19997 0.09368 0.00973 0.0
C913 C 0.22809 0.08689 0.08316 0.0
C914 C 0.19911 0.08592 0.90722 0.0
C915 C 0.19683 0.08454 0.93187 0.0
C916 C 0.2147 0.06899 0.98713 0.0
C917 C 0.21057 0.0854 0.04935 0.0
C918 C 0.20815 0.08285 0.02346 0.0
C919 C 0.20915 0.08042 0.94692 0.0
C920 C 0.20736 0.08034 0.97327 0.0
H921 H 0.19155 0.09719 0.09933 0.0
H922 H 0.18688 0.09165 0.0571 0.0
H923 H 0.22125 0.06156 0.02213 0.0
H924 H 0.23738 0.07665 0.90515 0.0
H925 H 0.23345 0.07437 0.94788 0.0
C926 C 0.925 0.22487 0.91721 0.0
C927 C 0.91104 0.22449 0.90445 0.0
C928 C 0.92503 0.22356 0.94206 0.0
C929 C 0.90106 0.21242 0.99421 0.0
H930 H 0.92591 0.24292 0.02719 0.0
C931 C 0.89056 0.2302 0.09218 0.0
C932 C 0.90341 0.2339 0.10638 0.0
C933 C 0.89241 0.22675 0.06799 0.0
C934 C 0.91911 0.23413 0.01834 0.0
H935 H 0.88622 0.22178 0.90767 0.0
H936 H 0.88627 0.21969 0.95102 0.0
H937 H 0.92761 0.24074 0.98403 0.0
H938 H 0.92836 0.23622 0.10657 0.0
H939 H 0.93158 0.23003 0.06445 0.0
H940 H 0.89233 0.20605 0.02861 0.0
C941 C 0.89721 0.22085 0.94183 0.0
C942 C 0.92009 0.23288 0.99356 0.0
C943 C 0.89718 0.22215 0.91697 0.0
C944 C 0.9182 0.23356 0.09607 0.0
C945 C 0.92005 0.23008 0.07191 0.0
C946 C 0.90009 0.21366 0.01905 0.0
C947 C 0.9111 0.22184 0.95468 0.0
C948 C 0.91094 0.22216 0.98117 0.0
C949 C 0.90715 0.2269 0.05749 0.0
C950 C 0.90897 0.22467 0.03136 0.0
H951 H 0.9359 0.22653 0.90809 0.0
H952 H 0.93595 0.22412 0.95144 0.0
H953 H 0.89401 0.20391 0.98519 0.0
H954 H 0.87901 0.23034 0.09959 0.0
H955 H 0.88222 0.22452 0.05734 0.0
C956 C 0.78453 0.90672 0.89358 0.0
C957 C 0.76962 0.90703 0.88367 0.0
C958 C 0.78664 0.90876 0.91814 0.0
C959 C 0.76731 0.92339 0.97247 0.0
H960 H 0.79239 0.8932 0.00574 0.0
C961 C 0.75933 0.91025 0.07185 0.0
C962 C 0.7724 0.9073 0.086 0.0
C963 C 0.76074 0.91209 0.04722 0.0
C964 C 0.78557 0.9019 -0.0033 0.0
H965 H 0.74529 0.91013 0.89163 0.0
H966 H 0.74898 0.91363 0.9343 0.0
H967 H 0.79186 0.89336 0.96218 0.0
H968 H 0.79724 0.90415 0.08538 0.0
H969 H 0.79969 0.90739 0.04219 0.0
H970 H 0.76072 0.9317 0.00694 0.0
C971 C 0.75905 0.91192 0.92314 0.0
C972 C 0.78527 0.90199 0.97175 0.0
C973 C 0.75693 0.90979 0.8987 0.0
C974 C 0.78695 0.90637 0.07497 0.0
C975 C 0.78835 0.90817 0.05024 0.0
C976 C 0.76763 0.92332 -0.00263 0.0
C977 C 0.7739 0.91128 0.93318 0.0
C978 C 0.77583 0.91248 0.95941 0.0
C979 C 0.77525 0.91103 0.03611 0.0
C980 C 0.77644 0.91231 0.00977 0.0
H981 H 0.79454 0.90464 0.88245 0.0
H982 H 0.79822 0.9083 0.92538 0.0
H983 H 0.76015 0.9318 0.96341 0.0
H984 H 0.74794 0.91102 0.07975 0.0
H985 H 0.75039 0.91401 0.03681 0.0
C986 C 0.09752 0.75299 0.91165 0.0
C987 C 0.09696 0.76626 0.89726 0.0
C988 C 0.09819 0.75426 0.93644 0.0
C989 C 0.08947 0.7803 0.9863 0.0
H990 H 0.11669 0.75285 0.02119 0.0
C991 C 0.09664 0.78257 0.08929 0.0
C992 C 0.09676 0.76821 0.10096 0.0
C993 C 0.09735 0.78336 0.06437 0.0
C994 C 0.10895 0.76052 0.01172 0.0
H995 H 0.09656 0.79129 0.89765 0.0
H996 H 0.09775 0.79348 0.94113 0.0
H997 H 0.11669 0.75241 0.97772 0.0
H998 H 0.09763 0.74341 0.0956 0.0
H999 H 0.09872 0.74481 0.05232 0.0
H1000 H 0.08159 0.78824 0.02041 0.0
C1001 C 0.09759 0.78211 0.93312 0.0
C1002 C 0.10896 0.76027 0.98683 0.0
C1003 C 0.09698 0.78084 0.90824 0.0
C1004 C 0.09756 0.75468 0.08721 0.0
C1005 C 0.0983 0.75547 0.06238 0.0
C1006 C 0.08946 0.78054 0.01127 0.0
C1007 C 0.09829 0.76881 0.94746 0.0
C1008 C 0.09904 0.76997 0.97385 0.0
C1009 C 0.09825 0.76981 0.05066 0.0
C1010 C 0.09902 0.77046 0.02423 0.0
H1011 H 0.09748 0.74158 0.90379 0.0
H1012 H 0.09846 0.74379 0.94701 0.0
H1013 H 0.08162 0.78783 0.97678 0.0
H1014 H 0.09605 0.79321 0.09938 0.0
H1015 H 0.09739 0.79458 0.05584 0.0
C1016 C 0.21316 0.92941 0.40875 0.0
C1017 C 0.21756 0.91545 0.39796 0.0
C1018 C 0.20916 0.92983 0.43293 0.0
C1019 C 0.19927 0.90466 0.48469 0.0
H1020 H 0.21888 0.93693 0.52183 0.0
C1021 C 0.21681 0.89746 0.5826 0.0
C1022 C 0.21492 0.90992 0.59835 0.0
C1023 C 0.21343 0.89911 0.5584 0.0
C1024 C 0.21306 0.92801 0.51169 0.0
H1025 H 0.22069 0.89089 0.40389 0.0
H1026 H 0.21405 0.89168 0.44592 0.0
H1027 H 0.21955 0.93817 0.4784 0.0
H1028 H 0.2076 0.93378 0.60122 0.0
H1029 H 0.20189 0.93672 0.55867 0.0
H1030 H 0.1935 0.89412 0.5181 0.0
C1031 C 0.21342 0.90229 0.43574 0.0
C1032 C 0.21342 0.92872 0.48679 0.0
C1033 C 0.21738 0.90186 0.41163 0.0
C1034 C 0.20918 0.92397 0.5895 0.0
C1035 C 0.20596 0.92568 0.56518 0.0
C1036 C 0.19901 0.9039 0.50958 0.0
C1037 C 0.20949 0.9163 0.44679 0.0
C1038 C 0.20693 0.91682 0.473 0.0
C1039 C 0.20821 0.9133 0.54937 0.0
C1040 C 0.20629 0.91534 0.5233 0.0
H1041 H 0.21309 0.94007 0.39865 0.0
H1042 H 0.20601 0.94079 0.44085 0.0
H1043 H 0.19386 0.89548 0.47459 0.0
H1044 H 0.22116 0.88646 0.58889 0.0
H1045 H 0.21546 0.88942 0.54659 0.0
C1046 C 0.09713 0.22852 0.58086 0.0
C1047 C 0.08583 0.22106 0.59468 0.0
C1048 C 0.09699 0.22731 0.55602 0.0
C1049 C 0.07085 0.21943 0.50582 0.0
H1050 H 0.10898 0.21664 0.46982 0.0
C1051 C 0.07172 0.21614 0.40276 0.0
C1052 C 0.08254 0.22571 0.39134 0.0
C1053 C 0.07233 0.2139 0.42746 0.0
C1054 C 0.09825 0.2175 0.47963 0.0
H1055 H 0.0657 0.20619 0.59326 0.0
H1056 H 0.06554 0.20397 0.54982 0.0
H1057 H 0.10973 0.21551 0.51331 0.0
H1058 H 0.10261 0.24028 0.39685 0.0
H1059 H 0.10358 0.23647 0.43986 0.0
H1060 H 0.05939 0.22165 0.47215 0.0
C1061 C 0.07439 0.21092 0.55824 0.0
C1062 C 0.09867 0.21686 0.50453 0.0
C1063 C 0.07453 0.21213 0.58312 0.0
C1064 C 0.0941 0.23282 0.40508 0.0
C1065 C 0.09473 0.23055 0.42973 0.0
C1066 C 0.07042 0.22005 0.48091 0.0
C1067 C 0.08555 0.21859 0.5444 0.0
C1068 C 0.085 0.21805 0.51792 0.0
C1069 C 0.0838 0.22114 0.44122 0.0
C1070 C 0.08414 0.21933 0.46756 0.0
H1071 H 0.10598 0.23552 0.58918 0.0
H1072 H 0.10562 0.23354 0.54589 0.0
H1073 H 0.06013 0.22057 0.51562 0.0
H1074 H 0.0627 0.21045 0.39268 0.0
H1075 H 0.06384 0.20646 0.43578 0.0
C1076 C 0.79454 0.08836 0.59713 0.0
C1077 C 0.77968 0.08451 0.60526 0.0
C1078 C 0.79881 0.08538 0.57348 0.0
C1079 C 0.78716 0.06398 0.5189 0.0
H1080 H 0.80172 0.10032 0.48539 0.0
C1081 C 0.77117 0.07727 0.42249 0.0
C1082 C 0.78169 0.0849 0.40749 0.0
C1083 C 0.77492 0.07422 0.44621 0.0
C1084 C 0.79803 0.08992 0.49447 0.0
H1085 H 0.75799 0.0737 0.59548 0.0
H1086 H 0.76538 0.06857 0.55444 0.0
H1087 H 0.80136 0.10012 0.52885 0.0
H1088 H 0.80467 0.09476 0.40535 0.0
H1089 H 0.8112 0.08952 0.44707 0.0
H1090 H 0.78309 0.0541 0.48447 0.0
C1091 C 0.77379 0.07383 0.56623 0.0
C1092 C 0.79782 0.0898 0.5194 0.0
C1093 C 0.76949 0.07691 0.58971 0.0
C1094 C 0.79629 0.08892 0.4165 0.0
C1095 C 0.80002 0.08595 0.44037 0.0
C1096 C 0.78737 0.0641 0.49399 0.0
C1097 C 0.78836 0.07833 0.55769 0.0
C1098 C 0.79179 0.07707 0.53184 0.0
C1099 C 0.78927 0.07878 0.45555 0.0
C1100 C 0.7922 0.07732 0.48153 0.0
H1101 H 0.80267 0.09418 0.60873 0.0
H1102 H 0.81015 0.08889 0.5674 0.0
H1103 H 0.78272 0.05389 0.52804 0.0
H1104 H 0.75984 0.07395 0.41608 0.0
H1105 H 0.76629 0.06889 0.45751 0.0
C1106 C 0.92975 0.76252 0.58071 0.0
C1107 C 0.91574 0.76553 0.59244 0.0
C1108 C 0.93116 0.76504 0.55616 0.0
C1109 C 0.9122 0.78354 0.50385 0.0
H1110 H 0.93057 0.74949 0.46911 0.0
C1111 C 0.89925 0.77063 0.40488 0.0
C1112 C 0.91118 0.76475 0.39053 0.0
C1113 C 0.90164 0.77319 0.42922 0.0
C1114 C 0.92566 0.75925 0.47849 0.0
H1115 H 0.89244 0.77425 0.58783 0.0
H1116 H 0.89483 0.77841 0.54506 0.0
H1117 H 0.93169 0.74979 0.51244 0.0
H1118 H 0.9352 0.75762 0.39026 0.0
H1119 H 0.93936 0.76217 0.4327 0.0
H1120 H 0.90575 0.79272 0.46976 0.0
C1121 C 0.9048 0.77427 0.5548 0.0
C1122 C 0.92631 0.75943 0.50338 0.0
C1123 C 0.9034 0.77178 0.57933 0.0
C1124 C 0.92572 0.76203 0.40086 0.0
C1125 C 0.9281 0.76458 0.42519 0.0
C1126 C 0.91152 0.78334 0.47891 0.0
C1127 C 0.91858 0.77061 0.54284 0.0
C1128 C 0.91935 0.77143 0.51637 0.0
C1129 C 0.91601 0.76992 0.43973 0.0
C1130 C 0.91801 0.77105 0.46599 0.0
H1131 H 0.93952 0.75782 0.59034 0.0
H1132 H 0.94202 0.76235 0.54753 0.0
H1133 H 0.90693 0.79307 0.51333 0.0
H1134 H 0.88792 0.77288 0.39746 0.0
H1135 H 0.89203 0.77716 0.43998 0.0
C1136 C 0.70333 0.57528 0.59167 0.0
C1137 C 0.71847 0.5765 0.60051 0.0
C1138 C 0.70074 0.57262 0.56733 0.0
C1139 C 0.72027 0.5597 0.51185 0.0
H1140 H 0.69263 0.5882 0.4799 0.0
C1141 C 0.72925 0.57907 0.41564 0.0
C1142 C 0.71646 0.58048 0.40039 0.0
C1143 C 0.72721 0.57563 0.43973 0.0
C1144 C 0.70015 0.57995 0.48859 0.0
H1145 H 0.74273 0.57532 0.59097 0.0
H1146 H 0.73823 0.57078 0.54885 0.0
H1147 H 0.69301 0.58707 0.52349 0.0
H1148 H 0.69148 0.5793 0.3984 0.0
H1149 H 0.68791 0.57354 0.44091 0.0
H1150 H 0.72795 0.55312 0.477 0.0
C1151 C 0.72834 0.57174 0.56059 0.0
C1152 C 0.70036 0.57928 0.51353 0.0
C1153 C 0.73092 0.57449 0.58475 0.0
C1154 C 0.70155 0.57829 0.40974 0.0
C1155 C 0.6995 0.57502 0.43402 0.0
C1156 C 0.72011 0.56041 0.48698 0.0
C1157 C 0.71324 0.57096 0.55153 0.0
C1158 C 0.71083 0.56955 0.5254 0.0
C1159 C 0.71233 0.57365 0.44921 0.0
C1160 C 0.71044 0.57093 0.47514 0.0
H1161 H 0.6935 0.57676 0.60339 0.0
H1162 H 0.68897 0.57201 0.56085 0.0
H1163 H 0.72823 0.55185 0.5205 0.0
H1164 H 0.74089 0.58064 0.40899 0.0
H1165 H 0.7373 0.57489 0.45109 0.0
C1166 C 0.43162 0.73382 0.40641 0.0
C1167 C 0.41747 0.73101 0.39493 0.0
C1168 C 0.43333 0.73078 0.43077 0.0
C1169 C 0.41502 0.71115 0.48269 0.0
H1170 H 0.43359 0.74462 0.51852 0.0
C1171 C 0.40259 0.72246 0.58223 0.0
C1172 C 0.41452 0.72831 0.59664 0.0
C1173 C 0.40493 0.72017 0.55781 0.0
C1174 C 0.42864 0.73501 0.50882 0.0
H1175 H 0.39427 0.72208 0.39975 0.0
H1176 H 0.39717 0.71703 0.44221 0.0
H1177 H 0.43432 0.74512 0.47518 0.0
H1178 H 0.43849 0.73558 0.59694 0.0
H1179 H 0.44258 0.73149 0.55435 0.0
H1180 H 0.4089 0.70132 0.51649 0.0
C1181 C 0.40701 0.72142 0.43241 0.0
C1182 C 0.42906 0.73529 0.48393 0.0
C1183 C 0.40531 0.72443 0.40806 0.0
C1184 C 0.42901 0.7312 0.5863 0.0
C1185 C 0.43135 0.72891 0.56188 0.0
C1186 C 0.41457 0.71088 0.50763 0.0
C1187 C 0.42093 0.72488 0.44416 0.0
C1188 C 0.42201 0.72353 0.47055 0.0
C1189 C 0.41924 0.72367 0.54728 0.0
C1190 C 0.42113 0.72296 0.52096 0.0
H1191 H 0.44126 0.73876 0.39675 0.0
H1192 H 0.44428 0.73333 0.43922 0.0
H1193 H 0.40968 0.70179 0.4729 0.0
H1194 H 0.39129 0.72008 0.58965 0.0
H1195 H 0.39531 0.71628 0.54703 0.0
C1196 C 0.27741 0.41052 0.40271 0.0
C1197 C 0.26819 0.39958 0.39088 0.0
C1198 C 0.27774 0.41109 0.42766 0.0
C1199 C 0.25441 0.40014 0.47991 0.0
H1200 H 0.2924 0.40559 0.51557 0.0
C1201 C 0.25686 0.39071 0.58104 0.0
C1202 C 0.26509 0.40148 0.5948 0.0
C1203 C 0.25786 0.39091 0.5562 0.0
C1204 C 0.28168 0.40424 0.50583 0.0
H1205 H 0.25242 0.38038 0.39598 0.0
H1206 H 0.25313 0.3813 0.43932 0.0
H1207 H 0.29313 0.4051 0.47192 0.0
H1208 H 0.28106 0.42075 0.59326 0.0
H1209 H 0.28274 0.42111 0.5497 0.0
H1210 H 0.24295 0.39923 0.51366 0.0
C1211 C 0.25991 0.3896 0.42936 0.0
C1212 C 0.2821 0.40396 0.48086 0.0
C1213 C 0.25959 0.38902 0.4045 0.0
C1214 C 0.27456 0.4123 0.58316 0.0
C1215 C 0.27559 0.41247 0.55823 0.0
C1216 C 0.25399 0.40042 0.50478 0.0
C1217 C 0.26883 0.40075 0.44123 0.0
C1218 C 0.26848 0.40171 0.46767 0.0
C1219 C 0.26711 0.40187 0.5445 0.0
C1220 C 0.26763 0.40229 0.51804 0.0
H1221 H 0.28418 0.41881 0.39272 0.0
H1222 H 0.28467 0.41986 0.43632 0.0
H1223 H 0.24367 0.39875 0.47025 0.0
H1224 H 0.24951 0.38217 0.58941 0.0
H1225 H 0.2514 0.38241 0.54613 0.0
C1226 C 0.58004 0.27439 0.57708 0.0
C1227 C 0.58777 0.28427 0.59295 0.0
C1228 C 0.57792 0.27862 0.55332 0.0
C1229 C 0.59671 0.30093 0.50709 0.0
H1230 H 0.56091 0.28849 0.47024 0.0
C1231 C 0.59836 0.29822 0.40423 0.0
C1232 C 0.59336 0.28392 0.39526 0.0
C1233 C 0.59513 0.30243 0.42782 0.0
C1234 C 0.57096 0.29211 0.48029 0.0
H1235 H 0.59876 0.30663 0.59663 0.0
H1236 H 0.59519 0.31397 0.55477 0.0
H1237 H 0.55956 0.28863 0.51377 0.0
H1238 H 0.58045 0.26315 0.40363 0.0
H1239 H 0.57495 0.27039 0.4446 0.0
H1240 H 0.60838 0.30362 0.4737 0.0
C1241 C 0.59079 0.30295 0.56085 0.0
C1242 C 0.57018 0.29221 0.50518 0.0
C1243 C 0.59278 0.29877 0.58479 0.0
C1244 C 0.58454 0.27422 0.41001 0.0
C1245 C 0.58124 0.27845 0.43346 0.0
C1246 C 0.5975 0.30082 0.48218 0.0
C1247 C 0.58356 0.29279 0.5448 0.0
C1248 C 0.58324 0.29601 0.51882 0.0
C1249 C 0.58672 0.29247 0.44277 0.0
C1250 C 0.58483 0.29579 0.46858 0.0
H1251 H 0.57597 0.26318 0.58286 0.0
H1252 H 0.5725 0.27044 0.54134 0.0
H1253 H 0.607 0.30382 0.51712 0.0
H1254 H 0.60513 0.30598 0.39326 0.0
H1255 H 0.59943 0.31334 0.4345 0.0
C1256 C 0.70837 0.40293 0.89174 0.0
C1257 C 0.72312 0.39783 0.8848 0.0
C1258 C 0.70479 0.40483 0.91594 0.0
C1259 C 0.7234 0.41096 0.9742 0.0
H1260 H 0.68595 0.39376 0.00128 0.0
C1261 C 0.70275 0.38816 0.07083 0.0
C1262 C 0.70908 0.39986 0.08517 0.0
C1263 C 0.70146 0.39019 0.04616 0.0
C1264 C 0.69642 0.39868 0.99394 0.0
H1265 H 0.74561 0.39063 0.89778 0.0
H1266 H 0.73936 0.39393 0.93973 0.0
H1267 H 0.69016 0.39263 0.95809 0.0
H1268 H 0.71772 0.42336 0.08524 0.0
H1269 H 0.71521 0.42699 0.0423 0.0
H1270 H 0.73006 0.41641 0.00985 0.0
C1271 C 0.73062 0.39661 0.92654 0.0
C1272 C 0.69877 0.39814 0.96923 0.0
C1273 C 0.73415 0.39462 0.90249 0.0
C1274 C 0.71302 0.41403 0.07462 0.0
C1275 C 0.71164 0.41609 0.05 0.0
C1276 C 0.72105 0.41154 -0.00121 0.0
C1277 C 0.71594 0.40181 0.93354 0.0
C1278 C 0.71247 0.40393 0.95923 0.0
C1279 C 0.70638 0.404 0.03539 0.0
C1280 C 0.7077 0.40511 0.00902 0.0
H1281 H 0.69962 0.40547 0.87852 0.0
H1282 H 0.6934 0.40889 0.92085 0.0
H1283 H 0.73397 0.41572 0.96694 0.0
H1284 H 0.69956 0.37712 0.07844 0.0
H1285 H 0.69746 0.38061 0.03542 0.0
C1286 C 0.59242 0.70493 0.0889 0.0
C1287 C 0.59732 0.719 0.09883 0.0
C1288 C 0.59301 0.70258 0.0642 0.0
C1289 C 0.61144 0.71744 0.00926 0.0
H1290 H 0.57562 0.70046 0.97711 0.0
C1291 C 0.60039 0.72682 0.90956 0.0
C1292 C 0.59457 0.71452 0.89591 0.0
C1293 C 0.60166 0.72555 0.93428 0.0
C1294 C 0.58581 0.70498 0.98585 0.0
H1295 H 0.60679 0.74158 0.09064 0.0
H1296 H 0.6077 0.73752 0.04776 0.0
H1297 H 0.57623 0.70144 0.02067 0.0
H1298 H 0.58557 0.69119 0.89756 0.0
H1299 H 0.58778 0.68898 0.94097 0.0
H1300 H 0.62089 0.7213 0.97449 0.0
C1301 C 0.60358 0.72823 0.05901 0.0
C1302 C 0.58617 0.70554 0.01079 0.0
C1303 C 0.60294 0.73059 0.0836 0.0
C1304 C 0.59008 0.70088 0.90757 0.0
C1305 C 0.59129 0.69963 0.93242 0.0
C1306 C 0.61109 0.71689 0.98438 0.0
C1307 C 0.59859 0.71422 0.04901 0.0
C1308 C 0.59885 0.71209 0.02273 0.0
C1309 C 0.59711 0.71196 0.946 0.0
C1310 C 0.59813 0.71097 0.97239 0.0
H1311 H 0.58805 0.69575 0.10016 0.0
H1312 H 0.58919 0.69163 0.05702 0.0
H1313 H 0.62152 0.72226 0.01796 0.0
H1314 H 0.60394 0.73751 0.90117 0.0
H1315 H 0.60595 0.73534 0.94428 0.0
C1316 C 0.28465 0.59232 0.09383 0.0
C1317 C 0.27001 0.59161 0.1046 0.0
C1318 C 0.28618 0.59086 0.06907 0.0
C1319 C 0.26581 0.57645 0.01563 0.0
H1320 H 0.29114 0.60592 0.98127 0.0
C1321 C 0.25898 0.5868 0.91504 0.0
C1322 C 0.27228 0.58929 0.9012 0.0
C1323 C 0.25996 0.58588 0.93985 0.0
C1324 C 0.28422 0.59744 0.99061 0.0
H1325 H 0.24551 0.58866 0.09785 0.0
H1326 H 0.24818 0.58617 0.05481 0.0
H1327 H 0.29068 0.60637 0.02484 0.0
H1328 H 0.29708 0.59262 0.90258 0.0
H1329 H 0.2988 0.59092 0.94604 0.0
H1330 H 0.25917 0.56765 0.98148 0.0
C1331 C 0.2585 0.58772 0.06547 0.0
C1332 C 0.28395 0.59771 0.01557 0.0
C1333 C 0.25696 0.58925 0.09015 0.0
C1334 C 0.28662 0.59073 0.91274 0.0
C1335 C 0.2876 0.58982 0.93763 0.0
C1336 C 0.2661 0.57616 0.99073 0.0
C1337 C 0.27311 0.58855 0.05464 0.0
C1338 C 0.27451 0.5874 0.02831 0.0
C1339 C 0.27426 0.5874 0.95146 0.0
C1340 C 0.27507 0.58684 0.97792 0.0
H1341 H 0.29493 0.59412 0.10448 0.0
H1342 H 0.29759 0.59145 0.06123 0.0
H1343 H 0.25865 0.56817 0.02498 0.0
H1344 H 0.24774 0.58568 0.90675 0.0
H1345 H 0.24943 0.58426 0.94999 0.0
C1346 C 0.41137 0.26367 0.90585 0.0
C1347 C 0.40427 0.27475 0.8912 0.0
C1348 C 0.4138 0.2666 0.93001 0.0
C1349 C 0.39807 0.28905 0.9794 0.0
H1350 H 0.434 0.27312 0.01256 0.0
C1351 C 0.40299 0.28915 0.08249 0.0
C1352 C 0.40723 0.27479 0.09217 0.0
C1353 C 0.4045 0.29193 0.058 0.0
C1354 C 0.42392 0.27765 0.00353 0.0
H1355 H 0.39458 0.29782 0.8903 0.0
H1356 H 0.39883 0.30294 0.93274 0.0
H1357 H 0.43353 0.2733 0.96901 0.0
H1358 H 0.41674 0.25226 0.08388 0.0
H1359 H 0.41934 0.25711 0.04132 0.0
H1360 H 0.38828 0.29294 0.01397 0.0
C1361 C 0.40241 0.29194 0.92543 0.0
C1362 C 0.42364 0.27775 0.97863 0.0
C1363 C 0.40004 0.28903 0.90114 0.0
C1364 C 0.41334 0.26343 0.07699 0.0
C1365 C 0.41495 0.26626 0.05262 0.0
C1366 C 0.39837 0.28898 0.00435 0.0
C1367 C 0.40918 0.28068 0.94016 0.0
C1368 C 0.41052 0.28299 0.96631 0.0
C1369 C 0.41042 0.28047 0.04282 0.0
C1370 C 0.4111 0.28282 0.01664 0.0
H1371 H 0.4148 0.25256 0.89877 0.0
H1372 H 0.41881 0.25758 0.94092 0.0
H1373 H 0.38774 0.29304 0.97043 0.0
H1374 H 0.39826 0.29814 0.09374 0.0
H1375 H 0.40098 0.30302 0.05093 0.0
C1376 C 0.24318 0.05155 0.20735 0.0
C1377 C 0.22907 0.05794 0.19987 0.0
C1378 C 0.2435 0.03743 0.2194 0.0
C1379 C 0.21875 0.01101 0.25423 0.0
H1380 H 0.24961 0.98038 0.23784 0.0
C1381 C 0.21419 0.94792 0.285 0.0
C1382 C 0.22771 0.94076 0.2933 0.0
C1383 C 0.21485 0.96238 0.27412 0.0
C1384 C 0.24104 0.98889 0.2428 0.0
H1385 H 0.20426 0.0545 0.19904 0.0
H1386 H 0.20485 0.02984 0.21974 0.0
H1387 H 0.24989 0.00544 0.21795 0.0
H1388 H 0.25256 0.94312 0.29657 0.0
H1389 H 0.25369 0.96846 0.27755 0.0
H1390 H 0.20981 0.99442 0.2789 0.0
C1391 C 0.21564 0.03583 0.21665 0.0
C1392 C 0.2412 0.00324 0.23144 0.0
C1393 C 0.21532 0.04993 0.20465 0.0
C1394 C 0.24193 0.94833 0.29033 0.0
C1395 C 0.2426 0.9628 0.27935 0.0
C1396 C 0.21858 -0.00333 0.26555 0.0
C1397 C 0.22972 0.02943 0.2242 0.0
C1398 C 0.22997 0.01441 0.23689 0.0
C1399 C 0.22904 0.97 0.27124 0.0
C1400 C 0.22963 0.98541 0.25981 0.0
H1401 H 0.25397 0.05746 0.20399 0.0
H1402 H 0.25451 0.03287 0.2252 0.0
H1403 H 0.21013 0.01947 0.25916 0.0
H1404 H 0.20305 0.94239 0.28695 0.0
H1405 H 0.20424 0.96755 0.26773 0.0
C1406 C 0.93328 0.24713 0.2175 0.0
C1407 C 0.92604 0.23352 0.2097 0.0
C1408 C 0.94778 0.24655 0.22836 0.0
C1409 C 0.98248 0.22241 0.232 0.0
H1410 H 0.99186 0.2471 0.28787 0.0
C1411 C 0.04024 0.21666 0.28216 0.0
C1412 C 0.04727 0.23038 0.28993 0.0
C1413 C 0.02518 0.21683 0.27327 0.0
C1414 C 0.98947 0.24026 0.27212 0.0
H1415 H 0.92822 0.20861 0.20753 0.0
H1416 H 0.95351 0.20763 0.22652 0.0
H1417 H 0.96596 0.24786 0.27076 0.0
H1418 H 0.04402 0.25502 0.29454 0.0
H1419 H 0.01785 0.25535 0.27864 0.0
H1420 H 0.00599 0.21495 0.2331 0.0
C1421 C 0.94803 0.21875 0.22402 0.0
C1422 C 0.97464 0.24069 0.26236 0.0
C1423 C 0.93351 0.21931 0.21326 0.0
C1424 C 0.03891 0.24424 0.28875 0.0
C1425 C 0.02387 0.24442 0.27978 0.0
C1426 C -0.00269 0.22203 0.2417 0.0
C1427 C 0.95536 0.23236 0.23154 0.0
C1428 C 0.971 0.23178 0.24218 0.0
C1429 C 0.01685 0.23072 0.27187 0.0
C1430 C 0.00099 0.23096 0.26185 0.0
H1431 H 0.92782 0.25825 0.21502 0.0
H1432 H 0.95322 0.25724 0.23379 0.0
H1433 H 0.98008 0.2156 0.21622 0.0
H1434 H 0.04634 0.20577 0.28297 0.0
H1435 H 0.02002 0.20604 0.26766 0.0
C1436 C 0.77719 0.05025 0.2887 0.0
C1437 C 0.76379 0.05608 0.29958 0.0
C1438 C 0.7764 0.03742 0.27373 0.0
C1439 C 0.75262 0.00344 0.26064 0.0
H1440 H 0.77621 0.0024 0.20181 0.0
C1441 C 0.74842 0.95253 0.19488 0.0
C1442 C 0.76245 0.94705 0.18556 0.0
C1443 C 0.7479 0.96643 0.20742 0.0
C1444 C 0.76966 0.00248 0.21827 0.0
H1445 H 0.73903 0.05305 0.30321 0.0
H1446 H 0.73767 0.03063 0.27699 0.0
H1447 H 0.77661 0.02556 0.22655 0.0
H1448 H 0.78688 0.95199 0.18172 0.0
H1449 H 0.786 0.97614 0.20386 0.0
H1450 H 0.74585 0.98029 0.25259 0.0
C1451 C 0.74879 0.03594 0.28021 0.0
C1452 C 0.76988 0.01573 0.23242 0.0
C1453 C 0.74957 0.04881 0.29514 0.0
C1454 C 0.77588 0.9559 0.18865 0.0
C1455 C 0.77537 0.96979 0.20122 0.0
C1456 C 0.75242 0.99018 0.24652 0.0
C1457 C 0.7622 0.03011 0.26936 0.0
C1458 C 0.76146 0.0163 0.25384 0.0
C1459 C 0.7614 0.97514 0.21092 0.0
C1460 C 0.76103 0.98951 0.22528 0.0
H1461 H 0.78833 0.05558 0.29177 0.0
H1462 H 0.78696 0.03306 0.26586 0.0
H1463 H 0.74618 0.00347 0.27721 0.0
H1464 H 0.73784 0.94601 0.19268 0.0
H1465 H 0.73692 0.97036 0.21439 0.0
C1466 C 0.04345 0.77742 0.20179 0.0
C1467 C 0.0511 0.76343 0.19729 0.0
C1468 C 0.02856 0.77746 0.21133 0.0
C1469 C 0.00174 0.75327 0.24596 0.0
H1470 H 0.97104 0.78256 0.22391 0.0
C1471 C 0.93871 0.75169 0.27887 0.0
C1472 C 0.93205 0.76595 0.28492 0.0
C1473 C 0.95288 0.75111 0.26702 0.0
C1474 C 0.97954 0.7744 0.23038 0.0
H1475 H 0.04901 0.7385 0.19885 0.0
H1476 H 0.02296 0.73859 0.21525 0.0
H1477 H -0.00353 0.78202 0.20517 0.0
H1478 H 0.93497 0.79078 0.28305 0.0
H1479 H 0.95975 0.78976 0.26255 0.0
H1480 H 0.98485 0.74571 0.27125 0.0
C1481 C 0.02857 0.74953 0.21175 0.0
C1482 C 0.99409 0.7741 0.21966 0.0
C1483 C 0.04347 0.74948 0.20223 0.0
C1484 C 0.93978 0.77961 0.27863 0.0
C1485 C 0.95393 0.77903 0.26675 0.0
C1486 C 0.98719 0.75357 0.25665 0.0
C1487 C 0.02099 0.76352 0.21654 0.0
C1488 C 0.00537 0.76358 0.22741 0.0
C1489 C 0.96068 0.76478 0.26094 0.0
C1490 C 0.97596 0.76418 0.24905 0.0
H1491 H 0.04902 0.78837 0.19822 0.0
H1492 H 0.0231 0.78844 0.21509 0.0
H1493 H 0.01025 0.7452 0.2526 0.0
H1494 H 0.93302 0.74094 0.2834 0.0
H1495 H 0.9577 0.73996 0.26253 0.0
C1496 C 0.73252 0.94107 0.76938 0.0
C1497 C 0.73503 0.94238 0.79407 0.0
C1498 C 0.72952 0.95414 0.7556 0.0
C1499 C 0.71897 0.99568 0.75945 0.0
H1500 H 0.74053 -0.00205 0.69887 0.0
C1501 C 0.73355 0.05245 0.71097 0.0
C1502 C 0.73233 0.05282 0.68596 0.0
C1503 C 0.73093 0.03877 0.72346 0.0
C1504 C 0.73421 -0.00261 0.71554 0.0
H1505 H 0.73603 0.95837 0.82379 0.0
H1506 H 0.73128 0.98126 0.79966 0.0
H1507 H 0.74163 0.97432 0.72216 0.0
H1508 H 0.72682 0.03929 0.6545 0.0
H1509 H 0.72239 0.01532 0.6764 0.0
H1510 H 0.71214 0.01909 0.75311 0.0
C1511 C 0.73128 0.9701 0.79098 0.0
C1512 C 0.73482 0.98384 0.72891 0.0
C1513 C 0.73412 0.95699 0.80481 0.0
C1514 C 0.7279 0.03936 0.67376 0.0
C1515 C 0.72542 0.02563 0.68626 0.0
C1516 C 0.71848 0.00931 0.74614 0.0
C1517 C 0.72913 0.96884 0.76616 0.0
C1518 C 0.72738 0.98288 0.75118 0.0
C1519 C 0.72716 0.02516 0.71118 0.0
C1520 C 0.72627 0.01034 0.72421 0.0
H1521 H 0.73295 0.92993 0.76063 0.0
H1522 H 0.72762 0.95271 0.73662 0.0
H1523 H 0.71288 0.99524 0.77633 0.0
H1524 H 0.73686 0.06266 0.72089 0.0
H1525 H 0.73249 0.03871 0.74265 0.0
C1526 C 0.94305 0.74914 0.70632 0.0
C1527 C 0.93657 0.7636 0.70094 0.0
C1528 C 0.95666 0.74814 0.71961 0.0
C1529 C 0.98118 0.77008 0.76144 0.0
H1530 H 0.01332 0.7421 0.74033 0.0
C1531 C 0.04366 0.77332 0.79648 0.0
C1532 C 0.05153 0.75939 0.80048 0.0
C1533 C 0.02912 0.77332 0.78573 0.0
C1534 C 0.00437 0.7498 0.74668 0.0
H1535 H 0.93924 0.78833 0.70539 0.0
H1536 H 0.96303 0.78656 0.7284 0.0
H1537 H 0.98885 0.743 0.7189 0.0
H1538 H 0.05018 0.7345 0.79683 0.0
H1539 H 0.02472 0.73451 0.77829 0.0
H1540 H -0.00325 0.77697 0.78911 0.0
C1541 C 0.9575 0.776 0.72257 0.0
C1542 C 0.99037 0.75033 0.73438 0.0
C1543 C 0.94393 0.77701 0.70925 0.0
C1544 C 0.04445 0.74544 0.79388 0.0
C1545 C 0.02989 0.74544 0.78314 0.0
C1546 C 0.99518 0.76954 0.77376 0.0
C1547 C 0.96404 0.76156 0.72784 0.0
C1548 C 0.97867 0.76056 0.74151 0.0
C1549 C 0.02212 0.7594 0.77878 0.0
C1550 C 0.00698 0.75949 0.7664 0.0
H1551 H 0.93764 0.73859 0.70023 0.0
H1552 H 0.96134 0.73684 0.7236 0.0
H1553 H 0.97228 0.77791 0.76759 0.0
H1554 H 0.04881 0.78427 0.80133 0.0
H1555 H 0.02352 0.78428 0.78235 0.0
C1556 C 0.25521 0.95356 0.66977 0.0
C1557 C 0.24793 0.94108 0.68118 0.0
C1558 C 0.25578 0.96804 0.68076 0.0
C1559 C 0.23596 0.99091 0.72707 0.0
H1560 H 0.273 0.01607 0.72628 0.0
C1561 C 0.24303 0.04283 0.78905 0.0
C1562 C 0.24873 0.05656 0.77905 0.0
C1563 C 0.24351 0.02908 0.77619 0.0
C1564 C 0.26253 0.00923 0.72641 0.0
H1565 H 0.23589 0.93389 0.7133 0.0
H1566 H 0.23708 0.95898 0.7325 0.0
H1567 H 0.27274 0.99131 0.70531 0.0
H1568 H 0.25982 0.06654 0.74792 0.0
H1569 H 0.26066 0.04239 0.72539 0.0
H1570 H 0.2258 0.00866 0.74836 0.0
C1571 C 0.24207 0.95771 0.71489 0.0
C1572 C 0.26237 0.99508 0.7144 0.0
C1573 C 0.24147 0.94329 0.70392 0.0
C1574 C 0.2553 0.05616 0.7561 0.0
C1575 C 0.25584 0.04234 0.74324 0.0
C1576 C 0.23614 0.00498 0.7391 0.0
C1577 C 0.24907 0.97029 0.70335 0.0
C1578 C 0.24914 0.98568 0.7149 0.0
C1579 C 0.24974 0.02872 0.75305 0.0
C1580 C 0.24948 0.01418 0.73918 0.0
H1581 H 0.26028 0.95222 0.65222 0.0
H1582 H 0.26116 0.97754 0.67135 0.0
H1583 H 0.22547 0.98412 0.72732 0.0
H1584 H 0.23797 0.04271 0.80674 0.0
H1585 H 0.23897 0.0187 0.78437 0.0
C1586 C 0.94692 0.20648 0.79562 0.0
C1587 C 0.93916 0.22045 0.79986 0.0
C1588 C 0.96108 0.20638 0.78368 0.0
C1589 C 0.99384 0.23166 0.7676 0.0
H1590 H 0.00217 0.2003 0.71995 0.0
C1591 C 0.04594 0.23531 0.70412 0.0
C1592 C 0.05448 0.22171 0.70072 0.0
C1593 C 0.0318 0.23492 0.71604 0.0
C1594 C 5e-05 0.20904 0.73337 0.0
H1595 H 0.94015 0.24526 0.79482 0.0
H1596 H 0.96469 0.24505 0.77374 0.0
H1597 H 0.97766 0.20001 0.74144 0.0
H1598 H 0.05477 0.19698 0.70683 0.0
H1599 H 0.03006 0.19633 0.72769 0.0
H1600 H 0.01617 0.24076 0.7594 0.0
C1601 C 0.95998 0.2342 0.77997 0.0
C1602 C 0.98604 0.20886 0.74571 0.0
C1603 C 0.94586 0.2343 0.79193 0.0
C1604 C 0.04847 0.20767 0.70917 0.0
C1605 C 0.03429 0.20727 0.72101 0.0
C1606 C 0.00781 0.23187 0.75522 0.0
C1607 C 0.96776 0.22024 0.7757 0.0
C1608 C 0.98276 0.2202 0.76291 0.0
C1609 C 0.02587 0.22091 0.72473 0.0
C1610 C 0.01104 0.22059 0.73792 0.0
H1611 H 0.94208 0.19562 0.80156 0.0
H1612 H 0.96688 0.19546 0.78092 0.0
H1613 H 0.99178 0.2404 0.78104 0.0
H1614 H 0.05023 0.24631 0.69777 0.0
H1615 H 0.02546 0.24559 0.71837 0.0
C1616 C 0.72427 0.54564 0.72159 0.0
C1617 C 0.73686 0.55242 0.70975 0.0
C1618 C 0.72615 0.53197 0.73443 0.0
C1619 C 0.75538 0.5069 0.76266 0.0
H1620 H 0.72418 0.47527 0.75419 0.0
C1621 C 0.75441 0.44999 0.81696 0.0
C1622 C 0.75076 0.4365 0.80425 0.0
C1623 C 0.75306 0.46445 0.80608 0.0
C1624 C 0.73304 0.48395 0.75663 0.0
H1625 H 0.76138 0.55034 0.70249 0.0
H1626 H 0.76461 0.52636 0.72471 0.0
H1627 H 0.72124 0.50003 0.7342 0.0
H1628 H 0.74312 0.42756 0.77002 0.0
H1629 H 0.74091 0.45271 0.75107 0.0
H1630 H 0.76734 0.49062 0.7847 0.0
C1631 C 0.75332 0.53171 0.72426 0.0
C1632 C 0.73126 0.4982 0.74542 0.0
C1633 C 0.75144 0.5454 0.71141 0.0
C1634 C 0.74595 0.43773 0.78037 0.0
C1635 C 0.74459 0.45215 0.76953 0.0
C1636 C 0.75715 0.49262 0.77393 0.0
C1637 C 0.74066 0.52478 0.7357 0.0
C1638 C 0.74244 0.50981 0.74822 0.0
C1639 C 0.748 0.46567 0.78232 0.0
C1640 C 0.74604 0.48097 0.7709 0.0
H1641 H 0.7129 0.55081 0.7208 0.0
H1642 H 0.71622 0.52703 0.74336 0.0
H1643 H 0.76412 0.51567 0.76531 0.0
H1644 H 0.75814 0.44943 0.83538 0.0
H1645 H 0.75565 0.47467 0.81643 0.0
C1646 C 0.54356 0.73692 0.79484 0.0
C1647 C 0.5511 0.72267 0.7975 0.0
C1648 C 0.52879 0.73762 0.7849 0.0
C1649 C 0.4944 0.71396 0.77144 0.0
H1650 H 0.48651 0.74532 0.72357 0.0
C1651 C 0.44202 0.71159 0.70818 0.0
C1652 C 0.4344 0.7255 0.70299 0.0
C1653 C 0.45577 0.71161 0.72116 0.0
C1654 C 0.48845 0.73663 0.73715 0.0
H1655 H 0.54896 0.69796 0.79221 0.0
H1656 H 0.52326 0.69922 0.7747 0.0
H1657 H 0.51136 0.74471 0.74392 0.0
H1658 H 0.43515 0.75035 0.7076 0.0
H1659 H 0.45912 0.75037 0.73042 0.0
H1660 H 0.47153 0.70578 0.76447 0.0
C1661 C 0.52869 0.70983 0.78051 0.0
C1662 C 0.50269 0.73628 0.7488 0.0
C1663 C 0.54347 0.70912 0.79042 0.0
C1664 C 0.44076 0.73943 0.71123 0.0
C1665 C 0.45453 0.73946 0.7242 0.0
C1666 C 0.48015 0.71431 0.75979 0.0
C1667 C 0.52125 0.7241 0.77747 0.0
C1668 C 0.50586 0.72487 0.76594 0.0
C1669 C 0.46221 0.72555 0.72923 0.0
C1670 C 0.47707 0.72557 0.74237 0.0
H1671 H 0.5491 0.74757 0.80022 0.0
H1672 H 0.52326 0.74877 0.78307 0.0
H1673 H 0.49642 0.70517 0.78482 0.0
H1674 H 0.43743 0.70066 0.70206 0.0
H1675 H 0.46152 0.70073 0.72446 0.0
C1676 C 0.27871 0.43724 0.71265 0.0
C1677 C 0.26494 0.43189 0.7023 0.0
C1678 C 0.27911 0.45142 0.72447 0.0
C1679 C 0.25826 0.48838 0.72991 0.0
H1680 H 0.27999 0.49149 0.79025 0.0
C1681 C 0.25221 0.54124 0.79137 0.0
C1682 C 0.2658 0.54701 0.80177 0.0
C1683 C 0.2523 0.52715 0.77931 0.0
C1684 C 0.27402 0.49084 0.7733 0.0
H1685 H 0.2408 0.43728 0.69609 0.0
H1686 H 0.24148 0.46193 0.7169 0.0
H1687 H 0.27993 0.46707 0.76862 0.0
H1688 H 0.2901 0.54242 0.80792 0.0
H1689 H 0.29025 0.51785 0.78675 0.0
H1690 H 0.25229 0.51213 0.73464 0.0
C1691 C 0.25202 0.45525 0.71564 0.0
C1692 C 0.27399 0.47687 0.7609 0.0
C1693 C 0.25162 0.44108 0.70383 0.0
C1694 C 0.27943 0.53829 0.80012 0.0
C1695 C 0.27951 0.52418 0.78809 0.0
C1696 C 0.25827 0.50234 0.74232 0.0
C1697 C 0.26576 0.46055 0.72617 0.0
C1698 C 0.26607 0.47547 0.73911 0.0
C1699 C 0.26597 0.51851 0.77743 0.0
C1700 C 0.2661 0.50371 0.76419 0.0
H1701 H 0.28919 0.43045 0.71172 0.0
H1702 H 0.28992 0.45528 0.73214 0.0
H1703 H 0.25226 0.48775 0.71298 0.0
H1704 H 0.24149 0.54765 0.79239 0.0
H1705 H 0.24163 0.52298 0.77158 0.0
C1706 C 0.45007 0.27146 0.79133 0.0
C1707 C 0.44118 0.258 0.79373 0.0
C1708 C 0.46451 0.27095 0.78034 0.0
C1709 C 0.48786 0.24819 0.73846 0.0
H1710 H 0.52157 0.27223 0.7648 0.0
C1711 C 0.54946 0.24709 0.69865 0.0
C1712 C 0.55666 0.26153 0.69603 0.0
C1713 C 0.53574 0.24573 0.71162 0.0
C1714 C 0.51224 0.26554 0.75715 0.0
H1715 H 0.44045 0.23342 0.78649 0.0
H1716 H 0.46577 0.23253 0.76734 0.0
H1717 H 0.49686 0.27145 0.78556 0.0
H1718 H 0.55519 0.28583 0.70508 0.0
H1719 H 0.53126 0.28345 0.72752 0.0
H1720 H 0.50322 0.24242 0.70989 0.0
C1721 C 0.46148 0.24349 0.77381 0.0
C1722 C 0.49809 0.2651 0.76903 0.0
C1723 C 0.44702 0.244 0.78486 0.0
C1724 C 0.54995 0.27453 0.70679 0.0
C1725 C 0.53629 0.27316 0.71979 0.0
C1726 C 0.50203 0.24863 0.72657 0.0
C1727 C 0.47039 0.25697 0.7715 0.0
C1728 C 0.48568 0.2566 0.75964 0.0
C1729 C 0.52901 0.25876 0.72229 0.0
C1730 C 0.51429 0.25748 0.73564 0.0
H1731 H 0.4459 0.28244 0.7979 0.0
H1732 H 0.47098 0.28158 0.77847 0.0
H1733 H 0.47846 0.24167 0.73065 0.0
H1734 H 0.55436 0.23684 0.6906 0.0
H1735 H 0.53047 0.23446 0.71343 0.0
C1736 C 0.27351 0.54924 0.22479 0.0
C1737 C 0.26074 0.55526 0.21247 0.0
C1738 C 0.27244 0.53511 0.23665 0.0
C1739 C 0.24399 0.50752 0.26134 0.0
H1740 H 0.27827 0.47884 0.25818 0.0
C1741 C 0.24482 0.45078 0.31533 0.0
C1742 C 0.25057 0.43764 0.30365 0.0
C1743 C 0.24633 0.46536 0.30496 0.0
C1744 C 0.26855 0.48667 0.2591 0.0
H1745 H 0.23683 0.55113 0.2028 0.0
H1746 H 0.23505 0.52636 0.22308 0.0
H1747 H 0.28021 0.5037 0.23816 0.0
H1748 H 0.26235 0.42948 0.27189 0.0
H1749 H 0.26472 0.45483 0.25363 0.0
H1750 H 0.23214 0.49029 0.28161 0.0
C1751 C 0.24582 0.53268 0.22398 0.0
C1752 C 0.26974 0.50101 0.24788 0.0
C1753 C 0.24688 0.54684 0.21221 0.0
C1754 C 0.25786 0.43938 0.28141 0.0
C1755 C 0.25931 0.45393 0.271 0.0
C1756 C 0.24278 0.49316 0.27249 0.0
C1757 C 0.25858 0.52666 0.23637 0.0
C1758 C 0.25745 0.51157 0.24877 0.0
C1759 C 0.25357 0.4671 0.28265 0.0
C1760 C 0.25502 0.48254 0.2714 0.0
H1761 H 0.28434 0.55549 0.22543 0.0
H1762 H 0.28242 0.53089 0.24629 0.0
H1763 H 0.23439 0.51547 0.26263 0.0
H1764 H 0.23921 0.44983 0.33255 0.0
H1765 H 0.24197 0.47529 0.31455 0.0
C1766 C 0.55586 0.27761 0.28032 0.0
C1767 C 0.5624 0.26424 0.29027 0.0
C1768 C 0.54237 0.2767 0.26679 0.0
C1769 C 0.50824 0.25236 0.25725 0.0
H1770 H 0.5037 0.27656 0.19943 0.0
C1771 C 0.45443 0.24758 0.19704 0.0
C1772 C 0.44828 0.26152 0.18848 0.0
C1773 C 0.4688 0.24732 0.20833 0.0
C1774 C 0.50475 0.26984 0.21565 0.0
H1775 H 0.56001 0.23941 0.29362 0.0
H1776 H 0.53646 0.23784 0.26989 0.0
H1777 H 0.52805 0.2772 0.22127 0.0
H1778 H 0.45243 0.28611 0.18487 0.0
H1779 H 0.47738 0.28567 0.20482 0.0
H1780 H 0.48489 0.24516 0.25184 0.0
C1781 C 0.54171 0.24903 0.27277 0.0
C1782 C 0.51869 0.2702 0.22814 0.0
C1783 C 0.55523 0.24993 0.28626 0.0
C1784 C 0.45686 0.27516 0.19123 0.0
C1785 C 0.47121 0.2749 0.20253 0.0
C1786 C 0.49429 0.25202 0.24479 0.0
C1787 C 0.53511 0.26241 0.26295 0.0
C1788 C 0.52054 0.26155 0.24916 0.0
C1789 C 0.47731 0.26099 0.2113 0.0
C1790 C 0.49235 0.26085 0.22395 0.0
H1791 H 0.56109 0.28881 0.2831 0.0
H1792 H 0.53745 0.28723 0.2597 0.0
H1793 H 0.50925 0.24574 0.27357 0.0
H1794 H 0.44814 0.23685 0.1951 0.0
H1795 H 0.47329 0.23639 0.21463 0.0
C1796 C 0.73783 0.54529 0.291 0.0
C1797 C 0.74635 0.54702 0.31217 0.0
C1798 C 0.73733 0.53112 0.27929 0.0
C1799 C 0.75792 0.49444 0.27229 0.0
H1800 H 0.71852 0.48023 0.24779 0.0
C1801 C 0.75011 0.43472 0.22777 0.0
C1802 C 0.74099 0.43436 0.20702 0.0
C1803 C 0.75077 0.44803 0.2418 0.0
C1804 C 0.72963 0.48411 0.25434 0.0
H1805 H 0.76122 0.53527 0.33749 0.0
H1806 H 0.76034 0.51042 0.3169 0.0
H1807 H 0.71983 0.50432 0.2701 0.0
H1808 H 0.72546 0.44768 0.18468 0.0
H1809 H 0.72677 0.47091 0.20897 0.0
H1810 H 0.76775 0.47431 0.25623 0.0
C1811 C 0.7541 0.5201 0.30939 0.0
C1812 C 0.73038 0.49789 0.26713 0.0
C1813 C 0.75455 0.53431 0.3212 0.0
C1814 C 0.73255 0.44756 0.20061 0.0
C1815 C 0.73322 0.46085 0.21462 0.0
C1816 C 0.75718 0.48065 0.25943 0.0
C1817 C 0.74537 0.51835 0.28842 0.0
C1818 C 0.74455 0.50329 0.27599 0.0
C1819 C 0.74233 0.46123 0.23538 0.0
C1820 C 0.74305 0.47544 0.25008 0.0
H1821 H 0.73142 0.55487 0.2835 0.0
H1822 H 0.73071 0.53018 0.26294 0.0
H1823 H 0.76902 0.4984 0.27874 0.0
H1824 H 0.75672 0.42472 0.23322 0.0
H1825 H 0.75777 0.44792 0.25783 0.0
C1826 C 0.44378 0.74728 0.28051 0.0
C1827 C 0.4376 0.73309 0.28799 0.0
C1828 C 0.45749 0.74777 0.26737 0.0
C1829 C 0.48323 0.72356 0.23031 0.0
H1830 H 0.51444 0.75361 0.24771 0.0
C1831 C 0.54682 0.71787 0.20208 0.0
C1832 C 0.55476 0.7313 0.19527 0.0
C1833 C 0.5319 0.71878 0.21138 0.0
C1834 C 0.50575 0.7453 0.24239 0.0
H1835 H 0.44092 0.70827 0.28746 0.0
H1836 H 0.46487 0.70914 0.26486 0.0
H1837 H 0.48944 0.75398 0.26773 0.0
H1838 H 0.55317 0.75623 0.19251 0.0
H1839 H 0.52706 0.75779 0.20873 0.0
H1840 H 0.49966 0.7147 0.20528 0.0
C1841 C 0.45903 0.71989 0.26881 0.0
C1842 C 0.49144 0.74551 0.25385 0.0
C1843 C 0.44534 0.7194 0.28193 0.0
C1844 C 0.54738 0.74566 0.19766 0.0
C1845 C 0.53246 0.74658 0.20705 0.0
C1846 C 0.49755 0.72333 0.21888 0.0
C1847 C 0.46528 0.73407 0.26144 0.0
C1848 C 0.48009 0.73451 0.24816 0.0
C1849 C 0.5246 0.73314 0.21412 0.0
C1850 C 0.50903 0.73407 0.22503 0.0
H1851 H 0.43805 0.75803 0.28484 0.0
H1852 H 0.46194 0.75887 0.26174 0.0
H1853 H 0.47463 0.71511 0.22521 0.0
H1854 H 0.55217 0.70663 0.20048 0.0
H1855 H 0.52622 0.70824 0.21695 0.0
C1856 C 0.202 0.12996 0.20979 0.0
C1857 C 0.2065 0.13469 0.18681 0.0
C1858 C 0.19125 0.1385 0.22279 0.0
C1859 C 0.15991 0.16677 0.21645 0.0
H1860 H 0.16809 0.17496 0.28333 0.0
C1861 C 0.1235 0.20945 0.27206 0.0
C1862 C 0.12026 0.20549 0.29589 0.0
C1863 C 0.13365 0.20054 0.25847 0.0
C1864 C 0.16552 0.1726 0.26476 0.0
H1865 H 0.20311 0.15201 0.15936 0.0
H1866 H 0.18427 0.16695 0.18214 0.0
H1867 H 0.18655 0.16003 0.26004 0.0
H1868 H 0.1249 0.18888 0.32396 0.0
H1869 H 0.14244 0.17321 0.30012 0.0
H1870 H 0.13884 0.17927 0.22119 0.0
C1871 C 0.18905 0.15658 0.19 0.0
C1872 C 0.17612 0.16408 0.25142 0.0
C1873 C 0.19989 0.14807 0.17702 0.0
C1874 C 0.12721 0.19229 0.3057 0.0
C1875 C 0.13734 0.18336 0.29208 0.0
C1876 C 0.14927 0.17525 0.22983 0.0
C1877 C 0.18469 0.15192 0.21308 0.0
C1878 C 0.17343 0.16106 0.22713 0.0
C1879 C 0.14077 0.18744 0.26836 0.0
C1880 C 0.15195 0.17826 0.25415 0.0
H1881 H 0.20684 0.11968 0.21785 0.0
H1882 H 0.18797 0.13452 0.24041 0.0
H1883 H 0.15745 0.16446 0.19784 0.0
H1884 H 0.11836 0.21957 0.26396 0.0
H1885 H 0.13617 0.20411 0.24036 0.0
C1886 C 0.85361 0.19407 0.19489 0.0
C1887 C 0.85639 0.20957 0.20082 0.0
C1888 C 0.84443 0.18482 0.20958 0.0
C1889 C 0.81461 0.18654 0.25648 0.0
H1890 H 0.82841 0.14498 0.27065 0.0
C1891 C 0.78426 0.14808 0.32651 0.0
C1892 C 0.78198 0.13256 0.32017 0.0
C1893 C 0.7936 0.15763 0.31249 0.0
C1894 C 0.82432 0.1565 0.26668 0.0
H1895 H 0.85152 0.22759 0.22667 0.0
H1896 H 0.83557 0.21142 0.2523 0.0
H1897 H 0.84386 0.16135 0.24456 0.0
H1898 H 0.7878 0.11487 0.29426 0.0
H1899 H 0.80388 0.13154 0.26977 0.0
H1900 H 0.79502 0.18166 0.2785 0.0
C1901 C 0.8404 0.20645 0.23621 0.0
C1902 C 0.83316 0.16587 0.25172 0.0
C1903 C 0.8496 0.21569 0.22157 0.0
C1904 C 0.78934 0.12676 0.29969 0.0
C1905 C 0.79864 0.1363 0.28571 0.0
C1906 C 0.80575 0.17715 0.27142 0.0
C1907 C 0.8378 0.19089 0.23047 0.0
C1908 C 0.82838 0.18097 0.24639 0.0
C1909 C 0.80084 0.15185 0.29188 0.0
C1910 C 0.81047 0.16201 0.27661 0.0
H1911 H 0.85863 0.18902 0.179 0.0
H1912 H 0.84247 0.17292 0.20452 0.0
H1913 H 0.81054 0.19807 0.25248 0.0
H1914 H 0.77879 0.15288 0.34221 0.0
H1915 H 0.79522 0.16952 0.31788 0.0
C1916 C 0.85645 0.7886 0.27747 0.0
C1917 C 0.86438 0.79464 0.29725 0.0
C1918 C 0.84722 0.7981 0.26331 0.0
C1919 C 0.82622 0.83507 0.26354 0.0
H1920 H 0.82687 0.82968 0.1948 0.0
C1921 C 0.79319 0.87567 0.19984 0.0
C1922 C 0.78474 0.86853 0.18148 0.0
C1923 C 0.80366 0.86719 0.21352 0.0
C1924 C 0.82648 0.83124 0.21398 0.0
H1925 H 0.86879 0.81541 0.31775 0.0
H1926 H 0.85274 0.83206 0.29285 0.0
H1927 H 0.84365 0.81393 0.21984 0.0
H1928 H 0.78089 0.84695 0.16278 0.0
H1929 H 0.79912 0.83215 0.18673 0.0
H1930 H 0.80899 0.85235 0.25765 0.0
C1931 C 0.85355 0.81992 0.28846 0.0
C1932 C 0.83607 0.82221 0.22833 0.0
C1933 C 0.86279 0.81039 0.30267 0.0
C1934 C 0.78722 0.8528 0.17678 0.0
C1935 C 0.79773 0.84433 0.19043 0.0
C1936 C 0.81664 0.84413 0.24918 0.0
C1937 C 0.84572 0.81388 0.26855 0.0
C1938 C 0.83595 0.82393 0.25329 0.0
C1939 C 0.80595 0.8514 0.2091 0.0
C1940 C 0.81658 0.84222 0.22425 0.0
H1941 H 0.85735 0.7765 0.27284 0.0
H1942 H 0.84112 0.79303 0.24836 0.0
H1943 H 0.82571 0.83654 0.28272 0.0
H1944 H 0.7916 0.88779 0.20387 0.0
H1945 H 0.80998 0.873 0.22758 0.0
C1946 C 0.18446 0.86818 0.30836 0.0
C1947 C 0.19993 0.87136 0.30264 0.0
C1948 C 0.17591 0.85778 0.29464 0.0
C1949 C 0.18053 0.82508 0.25334 0.0
H1950 H 0.13798 0.83388 0.23668 0.0
C1951 C 0.14579 0.78615 0.18942 0.0
C1952 C 0.13045 0.78291 0.19588 0.0
C1953 C 0.15423 0.79738 0.20167 0.0
C1954 C 0.1498 0.83119 0.24138 0.0
H1955 H 0.21852 0.86624 0.27788 0.0
H1956 H 0.20356 0.84818 0.25391 0.0
H1957 H 0.15276 0.85267 0.25967 0.0
H1958 H 0.11189 0.78901 0.22015 0.0
H1959 H 0.12668 0.80843 0.24167 0.0
H1960 H 0.17756 0.80356 0.23525 0.0
C1961 C 0.1981 0.85359 0.26915 0.0
C1962 C 0.15826 0.84195 0.25454 0.0
C1963 C 0.20663 0.86401 0.28283 0.0
C1964 C 0.12369 0.79124 0.21468 0.0
C1965 C 0.13212 0.80245 0.22694 0.0
C1966 C 0.17206 0.81431 0.24021 0.0
C1967 C 0.18266 0.85032 0.27496 0.0
C1968 C 0.17371 0.839 0.26071 0.0
C1969 C 0.14751 0.8056 0.22065 0.0
C1970 C 0.15659 0.81722 0.23414 0.0
H1971 H 0.17896 0.87364 0.32352 0.0
H1972 H 0.16408 0.85536 0.29971 0.0
H1973 H 0.19233 0.82237 0.25812 0.0
H1974 H 0.15132 0.77999 0.17495 0.0
H1975 H 0.16599 0.79968 0.19618 0.0
C1976 C 0.86189 0.78719 0.70745 0.0
C1977 C 0.86853 0.79306 0.68642 0.0
C1978 C 0.85189 0.79623 0.72105 0.0
C1979 C 0.84024 0.83651 0.73243 0.0
H1980 H 0.8033 0.8174 0.7581 0.0
C1981 C 0.79026 0.87129 0.77473 0.0
C1982 C 0.78312 0.86502 0.79508 0.0
C1983 C 0.80131 0.86282 0.76215 0.0
C1984 C 0.81366 0.82287 0.75132 0.0
H1985 H 0.86992 0.81308 0.66326 0.0
H1986 H 0.85228 0.82883 0.68693 0.0
H1987 H 0.82124 0.80206 0.73454 0.0
H1988 H 0.78229 0.84512 0.81856 0.0
H1989 H 0.80166 0.83042 0.79671 0.0
H1990 H 0.83256 0.85737 0.74913 0.0
C1991 C 0.85498 0.81728 0.69301 0.0
C1992 C 0.82394 0.81408 0.73781 0.0
C1993 C 0.86501 0.80822 0.67938 0.0
C1994 C 0.78751 0.85025 0.80288 0.0
C1995 C 0.79854 0.84179 0.79029 0.0
C1996 C 0.82993 0.84532 0.74595 0.0
C1997 C 0.84826 0.81135 0.71394 0.0
C1998 C 0.83735 0.82079 0.72823 0.0
C1999 C 0.80544 0.84791 0.76964 0.0
C2000 C 0.81654 0.83858 0.75556 0.0
H2001 H 0.86442 0.77559 0.71347 0.0
H2002 H 0.84709 0.79141 0.73728 0.0
H2003 H 0.85057 0.84197 0.72555 0.0
H2004 H 0.78713 0.88264 0.76825 0.0
H2005 H 0.80631 0.8678 0.74619 0.0
C2006 C 0.20034 0.8645 0.71111 0.0
C2007 C 0.20649 0.85911 0.68943 0.0
C2008 C 0.19066 0.85513 0.72479 0.0
C2009 C 0.16544 0.82088 0.72117 0.0
H2010 H 0.17157 0.81921 0.78971 0.0
C2011 C 0.12438 0.78715 0.78316 0.0
C2012 C 0.13133 0.77809 0.80098 0.0
C2013 C 0.13312 0.7977 0.77002 0.0
C2014 C 0.16976 0.8195 0.77058 0.0
H2015 H 0.20716 0.83969 0.66502 0.0
H2016 H 0.19035 0.8233 0.68899 0.0
H2017 H 0.1877 0.83615 0.76548 0.0
H2018 H 0.15286 0.77319 0.81925 0.0
H2019 H 0.16813 0.79152 0.79619 0.0
H2020 H 0.14775 0.80396 0.72619 0.0
C2021 C 0.1929 0.83484 0.69528 0.0
C2022 C 0.17889 0.82933 0.75674 0.0
C2023 C 0.2026 0.84421 0.68161 0.0
C2024 C 0.14715 0.78 0.80565 0.0
C2025 C 0.15589 0.79057 0.79253 0.0
C2026 C 0.1563 0.81108 0.73502 0.0
C2027 C 0.18688 0.84017 0.71707 0.0
C2028 C 0.17688 0.83006 0.73186 0.0
C2029 C 0.14899 0.79945 0.77444 0.0
C2030 C 0.15841 0.81022 0.75986 0.0
H2031 H 0.20307 0.87595 0.7176 0.0
H2032 H 0.18604 0.85963 0.74135 0.0
H2033 H 0.16351 0.8213 0.70208 0.0
H2034 H 0.1122 0.78601 0.77918 0.0
H2035 H 0.12743 0.80453 0.75643 0.0
C2036 C 0.12841 0.18331 0.68299 0.0
C2037 C 0.12429 0.19816 0.69075 0.0
C2038 C 0.13788 0.17395 0.69706 0.0
C2039 C 0.15164 0.16888 0.75907 0.0
H2040 H 0.18448 0.14535 0.72931 0.0
C2041 C 0.20043 0.13976 0.81298 0.0
C2042 C 0.20514 0.12498 0.80568 0.0
C2043 C 0.18999 0.14823 0.79921 0.0
C2044 C 0.17524 0.15171 0.73785 0.0
H2045 H 0.12693 0.21485 0.71936 0.0
H2046 H 0.14357 0.19861 0.74369 0.0
H2047 H 0.16736 0.16096 0.7046 0.0
H2048 H 0.2024 0.10742 0.77839 0.0
H2049 H 0.18414 0.12218 0.75448 0.0
H2050 H 0.15962 0.15972 0.79235 0.0
C2051 C 0.1393 0.1941 0.72691 0.0
C2052 C 0.16543 0.16064 0.7237 0.0
C2053 C 0.12985 0.20345 0.71286 0.0
C2054 C 0.19905 0.11879 0.78448 0.0
C2055 C 0.18865 0.12728 0.7707 0.0
C2056 C 0.16146 0.15996 0.77323 0.0
C2057 C 0.14342 0.17924 0.7192 0.0
C2058 C 0.15357 0.16939 0.73416 0.0
C2059 C 0.18408 0.14213 0.77783 0.0
C2060 C 0.17341 0.15133 0.76278 0.0
H2061 H 0.12428 0.17888 0.66608 0.0
H2062 H 0.14072 0.16248 0.69074 0.0
H2063 H 0.14245 0.17528 0.76764 0.0
H2064 H 0.20491 0.14486 0.82921 0.0
H2065 H 0.1868 0.15971 0.80505 0.0
C2066 C 0.8616 0.20363 0.78544 0.0
C2067 C 0.86749 0.19761 0.80689 0.0
C2068 C 0.85136 0.19503 0.77157 0.0
C2069 C 0.82372 0.16285 0.77476 0.0
H2070 H 0.8281 0.16283 0.70584 0.0
C2071 C 0.78737 0.12337 0.71378 0.0
C2072 C 0.78155 0.12993 0.69267 0.0
C2073 C 0.79805 0.13138 0.72773 0.0
C2074 C 0.82663 0.16285 0.72504 0.0
H2075 H 0.86726 0.1778 0.83056 0.0
H2076 H 0.84943 0.16271 0.80618 0.0
H2077 H 0.8465 0.17711 0.73025 0.0
H2078 H 0.78238 0.15005 0.66965 0.0
H2079 H 0.80094 0.16408 0.69413 0.0
H2080 H 0.80381 0.14863 0.76954 0.0
C2081 C 0.85264 0.17417 0.80026 0.0
C2082 C 0.83718 0.17102 0.73902 0.0
C2083 C 0.86291 0.18278 0.81416 0.0
C2084 C 0.78666 0.14466 0.68578 0.0
C2085 C 0.79737 0.15266 0.69973 0.0
C2086 C 0.81317 0.15468 0.76077 0.0
C2087 C 0.84676 0.18021 0.7788 0.0
C2088 C 0.8358 0.17117 0.76403 0.0
C2089 C 0.80317 0.14611 0.72087 0.0
C2090 C 0.81448 0.15464 0.73575 0.0
H2091 H 0.86485 0.21504 0.77934 0.0
H2092 H 0.84687 0.2001 0.75531 0.0
H2093 H 0.82222 0.16292 0.79395 0.0
H2094 H 0.7837 0.11202 0.71955 0.0
H2095 H 0.80245 0.12594 0.74375 0.0
C2096 C 0.70736 0.62341 0.70989 0.0
C2097 C 0.70612 0.62328 0.68487 0.0
C2098 C 0.69755 0.63256 0.72362 0.0
C2099 C 0.66005 0.65193 0.72359 0.0
H2100 H 0.67825 0.67713 0.77338 0.0
C2101 C 0.62512 0.69764 0.77575 0.0
C2102 C 0.62855 0.69971 0.80006 0.0
C2103 C 0.63419 0.68796 0.7616 0.0
C2104 C 0.67293 0.67 0.75981 0.0
H2105 H 0.69342 0.63245 0.65466 0.0
H2106 H 0.67613 0.6484 0.67882 0.0
H2107 H 0.69475 0.66093 0.74871 0.0
H2108 H 0.64388 0.69288 0.82878 0.0
H2109 H 0.65945 0.67567 0.80428 0.0
H2110 H 0.63819 0.66078 0.7349 0.0
C2111 C 0.68475 0.6414 0.6877 0.0
C2112 C 0.68241 0.66077 0.74562 0.0
C2113 C 0.69469 0.63233 0.67389 0.0
C2114 C 0.64101 0.69162 0.81006 0.0
C2115 C 0.65001 0.68184 0.79596 0.0
C2116 C 0.65053 0.66106 0.73794 0.0
C2117 C 0.68619 0.64169 0.71268 0.0
C2118 C 0.67607 0.65163 0.72741 0.0
C2119 C 0.64682 0.68003 0.77149 0.0
C2120 C 0.65686 0.6702 0.75626 0.0
H2121 H 0.71603 0.61655 0.71892 0.0
H2122 H 0.6988 0.63244 0.74287 0.0
H2123 H 0.65486 0.64486 0.70981 0.0
H2124 H 0.61562 0.70376 0.76749 0.0
H2125 H 0.63151 0.687 0.74278 0.0
C2126 C 0.28671 0.64218 0.80827 0.0
C2127 C 0.2848 0.62631 0.80417 0.0
C2128 C 0.29718 0.65074 0.79466 0.0
C2129 C 0.31719 0.65046 0.73676 0.0
H2130 H 0.34324 0.68149 0.76611 0.0
C2131 C 0.36449 0.68327 0.68436 0.0
C2132 C 0.36609 0.69909 0.6892 0.0
C2133 C 0.35482 0.67407 0.6984 0.0
C2134 C 0.33592 0.67298 0.7576 0.0
H2135 H 0.29259 0.60689 0.78288 0.0
H2136 H 0.3109 0.62182 0.75925 0.0
H2137 H 0.32609 0.66601 0.79096 0.0
H2138 H 0.35859 0.71772 0.71236 0.0
H2139 H 0.3416 0.70176 0.73653 0.0
H2140 H 0.3269 0.65752 0.70337 0.0
C2141 C 0.30417 0.62768 0.77279 0.0
C2142 C 0.32612 0.66411 0.77185 0.0
C2143 C 0.29375 0.61912 0.78644 0.0
C2144 C 0.35769 0.70555 0.70821 0.0
C2145 C 0.34802 0.69638 0.72219 0.0
C2146 C 0.32697 0.65936 0.72249 0.0
C2147 C 0.30592 0.6436 0.77663 0.0
C2148 C 0.3166 0.65279 0.76158 0.0
C2149 C 0.34654 0.68051 0.71756 0.0
C2150 C 0.3364 0.67078 0.73274 0.0
H2151 H 0.27999 0.64807 0.82178 0.0
H2152 H 0.29817 0.66302 0.79789 0.0
H2153 H 0.30983 0.64197 0.72828 0.0
H2154 H 0.37083 0.67793 0.66989 0.0
H2155 H 0.35404 0.66185 0.69451 0.0
C2156 C 0.34685 0.28263 0.80636 0.0
C2157 C 0.36195 0.27887 0.7993 0.0
C2158 C 0.33794 0.29277 0.79272 0.0
C2159 C 0.34092 0.32321 0.74669 0.0
H2160 H 0.29757 0.31409 0.73675 0.0
C2161 C 0.30277 0.35751 0.6806 0.0
C2162 C 0.28794 0.36151 0.68865 0.0
C2163 C 0.31195 0.34734 0.69379 0.0
C2164 C 0.30963 0.31686 0.73954 0.0
H2165 H 0.37957 0.28284 0.77243 0.0
H2166 H 0.36395 0.30035 0.74851 0.0
H2167 H 0.31331 0.2966 0.76057 0.0
H2168 H 0.27112 0.35799 0.71688 0.0
H2169 H 0.28715 0.34036 0.73984 0.0
H2170 H 0.3372 0.34346 0.72556 0.0
C2171 C 0.35906 0.29564 0.76475 0.0
C2172 C 0.31864 0.30686 0.75322 0.0
C2173 C 0.36798 0.28553 0.77841 0.0
C2174 C 0.28248 0.35512 0.71012 0.0
C2175 C 0.29163 0.34494 0.72323 0.0
C2176 C 0.3319 0.3332 0.73295 0.0
C2177 C 0.34393 0.29935 0.77171 0.0
C2178 C 0.33438 0.30995 0.75703 0.0
C2179 C 0.30646 0.34094 0.71522 0.0
C2180 C 0.31615 0.33016 0.72931 0.0
H2181 H 0.34189 0.27775 0.82242 0.0
H2182 H 0.3264 0.29557 0.79877 0.0
H2183 H 0.35296 0.32603 0.74955 0.0
H2184 H 0.3073 0.36222 0.66412 0.0
H2185 H 0.32329 0.34435 0.68705 0.0
C2186 C 0.63131 0.28434 0.70285 0.0
C2187 C 0.63402 0.28269 0.67824 0.0
C2188 C 0.64134 0.29302 0.71699 0.0
C2189 C 0.66964 0.32427 0.71443 0.0
H2190 H 0.68383 0.30766 0.77486 0.0
C2191 C 0.71625 0.3549 0.77041 0.0
C2192 C 0.71451 0.35487 0.79535 0.0
C2193 C 0.70665 0.34589 0.75606 0.0
C2194 C 0.67982 0.31257 0.7582 0.0
H2195 H 0.64929 0.28897 0.64912 0.0
H2196 H 0.66675 0.30429 0.67387 0.0
H2197 H 0.66654 0.29243 0.74987 0.0
H2198 H 0.70128 0.34542 0.8248 0.0
H2199 H 0.68426 0.32999 0.79972 0.0
H2200 H 0.68263 0.34452 0.72286 0.0
C2201 C 0.65685 0.29883 0.68215 0.0
C2202 C 0.66996 0.30381 0.74387 0.0
C2203 C 0.6469 0.29001 0.66803 0.0
C2204 C 0.70297 0.34563 0.80564 0.0
C2205 C 0.69327 0.33671 0.79125 0.0
C2206 C 0.67939 0.33309 0.72885 0.0
C2207 C 0.6542 0.30035 0.70679 0.0
C2208 C 0.66478 0.30958 0.72185 0.0
C2209 C 0.69499 0.33674 0.76627 0.0
C2210 C 0.68462 0.32734 0.75092 0.0
H2211 H 0.62149 0.27884 0.71127 0.0
H2212 H 0.63893 0.29413 0.73589 0.0
H2213 H 0.66566 0.32907 0.69767 0.0
H2214 H 0.72511 0.36181 0.76194 0.0
H2215 H 0.70849 0.34599 0.73694 0.0
C2216 C 0.37472 0.2892 0.20478 0.0
C2217 C 0.3682 0.28067 0.18598 0.0
C2218 C 0.36575 0.29961 0.2178 0.0
C2219 C 0.32986 0.32238 0.21485 0.0
H2220 H 0.33357 0.32325 0.28384 0.0
C2221 C 0.28665 0.35497 0.27446 0.0
C2222 C 0.29264 0.36342 0.29377 0.0
C2223 C 0.29612 0.3451 0.26132 0.0
C2224 C 0.33253 0.32328 0.26458 0.0
H2225 H 0.34717 0.27647 0.16596 0.0
H2226 H 0.3315 0.29458 0.18878 0.0
H2227 H 0.34968 0.30569 0.26068 0.0
H2228 H 0.31328 0.36807 0.31449 0.0
H2229 H 0.32985 0.35087 0.29142 0.0
H2230 H 0.31268 0.33993 0.21873 0.0
C2231 C 0.34359 0.29331 0.19331 0.0
C2232 C 0.34176 0.31322 0.25131 0.0
C2233 C 0.35255 0.28288 0.18032 0.0
C2234 C 0.3083 0.36172 0.29973 0.0
C2235 C 0.31778 0.3518 0.2866 0.0
C2236 C 0.32064 0.33244 0.22811 0.0
C2237 C 0.35008 0.30175 0.21226 0.0
C2238 C 0.34048 0.31262 0.22631 0.0
C2239 C 0.3118 0.34343 0.26721 0.0
C2240 C 0.32183 0.33295 0.25312 0.0
H2241 H 0.38676 0.28781 0.20955 0.0
H2242 H 0.37112 0.30608 0.2321 0.0
H2243 H 0.32877 0.32236 0.19559 0.0
H2244 H 0.27462 0.35598 0.26942 0.0
H2245 H 0.29111 0.33864 0.2467 0.0
C2246 C 0.63432 0.29059 0.28911 0.0
C2247 C 0.6407 0.28067 0.30633 0.0
C2248 C 0.64379 0.30029 0.27566 0.0
C2249 C 0.68216 0.31865 0.27543 0.0
H2250 H 0.67369 0.32424 0.20798 0.0
C2251 C 0.72261 0.35334 0.21362 0.0
C2252 C 0.71551 0.36359 0.19757 0.0
C2253 C 0.7138 0.3427 0.22648 0.0
C2254 C 0.67612 0.3229 0.22683 0.0
H2255 H 0.66204 0.27318 0.32297 0.0
H2256 H 0.6786 0.29006 0.29929 0.0
H2257 H 0.65779 0.30661 0.23137 0.0
H2258 H 0.69361 0.37059 0.18222 0.0
H2259 H 0.67823 0.3521 0.2048 0.0
H2260 H 0.70045 0.33498 0.27089 0.0
C2261 C 0.66624 0.29043 0.29639 0.0
C2262 C 0.66701 0.31281 0.24024 0.0
C2263 C 0.65676 0.28072 0.30989 0.0
C2264 C 0.69943 0.36285 0.19444 0.0
C2265 C 0.69063 0.35219 0.20727 0.0
C2266 C 0.69128 0.32872 0.26201 0.0
C2267 C 0.65986 0.3003 0.27909 0.0
C2268 C 0.66986 0.31065 0.26472 0.0
C2269 C 0.69771 0.34206 0.22352 0.0
C2270 C 0.6883 0.33102 0.2376 0.0
H2271 H 0.62198 0.2909 0.28599 0.0
H2272 H 0.63848 0.30794 0.26275 0.0
H2273 H 0.68452 0.3174 0.29431 0.0
H2274 H 0.73499 0.35356 0.21638 0.0
H2275 H 0.71961 0.33491 0.23864 0.0
C2276 C 0.69156 0.6359 0.32484 0.0
C2277 C 0.70174 0.62556 0.31368 0.0
C2278 C 0.68162 0.64508 0.31121 0.0
C2279 C 0.66503 0.64893 0.25018 0.0
H2280 H 0.65931 0.69164 0.26877 0.0
C2281 C 0.64119 0.69557 0.18652 0.0
C2282 C 0.63009 0.70573 0.19585 0.0
C2283 C 0.64889 0.68521 0.20147 0.0
C2284 C 0.66067 0.67969 0.26351 0.0
H2285 H 0.70945 0.61669 0.27946 0.0
H2286 H 0.6925 0.6329 0.25578 0.0
H2287 H 0.67456 0.67455 0.29403 0.0
H2288 H 0.6183 0.71295 0.22817 0.0
H2289 H 0.63188 0.69495 0.25427 0.0
H2290 H 0.65149 0.65428 0.21928 0.0
C2291 C 0.69187 0.63372 0.27505 0.0
C2292 C 0.66936 0.66987 0.27801 0.0
C2293 C 0.70168 0.62448 0.28865 0.0
C2294 C 0.6268 0.70527 0.22042 0.0
C2295 C 0.63461 0.69503 0.2354 0.0
C2296 C 0.65647 0.6588 0.23558 0.0
C2297 C 0.68175 0.64418 0.28612 0.0
C2298 C 0.67176 0.6544 0.27142 0.0
C2299 C 0.64575 0.68492 0.22608 0.0
C2300 C 0.6543 0.6743 0.24201 0.0
H2301 H 0.69127 0.63693 0.3441 0.0
H2302 H 0.67382 0.65285 0.32034 0.0
H2303 H 0.66638 0.63701 0.24479 0.0
H2304 H 0.64396 0.69562 0.16766 0.0
H2305 H 0.65752 0.67763 0.19385 0.0
C2306 C 0.2911 0.62608 0.21447 0.0
C2307 C 0.28273 0.63244 0.19535 0.0
C2308 C 0.30206 0.6349 0.22662 0.0
C2309 C 0.31283 0.67518 0.23913 0.0
H2310 H 0.35151 0.65704 0.25981 0.0
C2311 C 0.36141 0.71132 0.28174 0.0
C2312 C 0.36898 0.70496 0.30164 0.0
C2313 C 0.35117 0.70244 0.26828 0.0
C2314 C 0.3407 0.66222 0.25435 0.0
H2315 H 0.27951 0.65295 0.17372 0.0
H2316 H 0.29878 0.66829 0.19481 0.0
H2317 H 0.33331 0.64161 0.2367 0.0
H2318 H 0.37175 0.68426 0.32298 0.0
H2319 H 0.35376 0.66877 0.29955 0.0
H2320 H 0.32019 0.69577 0.25684 0.0
C2321 C 0.29669 0.65655 0.2006 0.0
C2322 C 0.33028 0.65339 0.24111 0.0
C2323 C 0.28571 0.64773 0.18843 0.0
C2324 C 0.36612 0.6895 0.30773 0.0
C2325 C 0.35589 0.68059 0.29423 0.0
C2326 C 0.32325 0.68401 0.25235 0.0
C2327 C 0.30492 0.65026 0.21993 0.0
C2328 C 0.3162 0.65975 0.23342 0.0
C2329 C 0.34828 0.68698 0.27438 0.0
C2330 C 0.33728 0.67761 0.26017 0.0
H2331 H 0.28907 0.61434 0.22028 0.0
H2332 H 0.30806 0.62976 0.24161 0.0
H2333 H 0.30198 0.68034 0.23382 0.0
H2334 H 0.36338 0.72319 0.2765 0.0
H2335 H 0.34565 0.70763 0.25291 0.0
loop_
_geom_bond_atom_site_label_1
_geom_bond_atom_site_label_2
_geom_bond_distance
_geom_bond_site_symmetry_2
_ccdc_geom_bond_type
C0 O1 1.160 . S
C0 O7 1.185 . S
O1 C0 1.160 . S
O2 Zn3 1.899 . S
O2 C10 1.284 . S
Zn3 O2 1.899 . S
Zn3 O4 2.032 . S
Zn3 O7 2.086 . S
Zn3 O12 1.977 . S
O4 Zn3 2.032 . S
O4 C8 1.278 . S
C5 O6 1.203 . S
C5 O12 1.267 . S
O6 C5 1.203 . S
O7 C0 1.185 . S
O7 Zn3 2.086 . S
C8 O4 1.278 . S
C8 O9 1.211 . S
O9 C8 1.211 . S
C10 O2 1.284 . S
C10 O11 1.273 . S
O11 C10 1.273 . S
O12 Zn3 1.977 . S
O12 C5 1.267 . S
C13 O14 1.160 . S
C13 O20 1.185 . S
O14 C13 1.160 . S
O15 Zn16 1.899 . S
O15 C23 1.284 . S
Zn16 O15 1.899 . S
Zn16 O17 2.032 . S
Zn16 O20 2.086 . S
Zn16 O25 1.977 . S
O17 Zn16 2.032 . S
O17 C21 1.278 . S
C18 O19 1.203 . S
C18 O25 1.267 . S
O19 C18 1.203 . S
O20 C13 1.185 . S
O20 Zn16 2.086 . S
C21 O17 1.278 . S
C21 O22 1.211 . S
O22 C21 1.211 . S
C23 O15 1.284 . S
C23 O24 1.273 . S
O24 C23 1.273 . S
O25 Zn16 1.977 . S
O25 C18 1.267 . S
C26 O27 1.160 . S
C26 O33 1.185 . S
O27 C26 1.160 . S
O28 Zn29 1.899 . S
O28 C36 1.284 . S
Zn29 O28 1.899 . S
Zn29 O30 2.032 . S
Zn29 O33 2.086 . S
Zn29 O38 1.977 . S
O30 Zn29 2.032 . S
O30 C34 1.278 . S
C31 O32 1.203 . S
C31 O38 1.267 . S
O32 C31 1.203 . S
O33 C26 1.185 . S
O33 Zn29 2.086 . S
C34 O30 1.278 . S
C34 O35 1.211 . S
O35 C34 1.211 . S
C36 O28 1.284 . S
C36 O37 1.273 . S
O37 C36 1.273 . S
O38 Zn29 1.977 . S
O38 C31 1.267 . S
C39 O40 1.160 . S
C39 O46 1.185 . S
O40 C39 1.160 . S
O41 Zn42 1.899 . S
O41 C49 1.284 . S
Zn42 O41 1.899 . S
Zn42 O43 2.032 . S
Zn42 O46 2.086 . S
Zn42 O51 1.977 . S
O43 Zn42 2.032 . S
O43 C47 1.278 . S
C44 O45 1.203 . S
C44 O51 1.267 . S
O45 C44 1.203 . S
O46 C39 1.185 . S
O46 Zn42 2.086 . S
C47 O43 1.278 . S
C47 O48 1.211 . S
O48 C47 1.211 . S
C49 O41 1.284 . S
C49 O50 1.273 . S
O50 C49 1.273 . S
O51 Zn42 1.977 . S
O51 C44 1.267 . S
C52 O53 1.160 . S
C52 O59 1.185 . S
O53 C52 1.160 . S
O54 Zn55 1.899 . S
O54 C62 1.284 . S
Zn55 O54 1.899 . S
Zn55 O56 2.032 . S
Zn55 O59 2.086 . S
Zn55 O64 1.977 . S
O56 Zn55 2.032 . S
O56 C60 1.278 . S
C57 O58 1.203 . S
C57 O64 1.267 . S
O58 C57 1.203 . S
O59 C52 1.185 . S
O59 Zn55 2.086 . S
C60 O56 1.278 . S
C60 O61 1.211 . S
O61 C60 1.211 . S
C62 O54 1.284 . S
C62 O63 1.273 . S
O63 C62 1.273 . S
O64 Zn55 1.977 . S
O64 C57 1.267 . S
C65 O66 1.160 . S
C65 O72 1.185 . S
O66 C65 1.160 . S
O67 Zn68 1.899 . S
O67 C75 1.284 . S
Zn68 O67 1.899 . S
Zn68 O69 2.032 . S
Zn68 O72 2.086 . S
Zn68 O77 1.977 . S
O69 Zn68 2.032 . S
O69 C73 1.278 . S
C70 O71 1.203 . S
C70 O77 1.267 . S
O71 C70 1.203 . S
O72 C65 1.185 . S
O72 Zn68 2.086 . S
C73 O69 1.278 . S
C73 O74 1.211 . S
O74 C73 1.211 . S
C75 O67 1.284 . S
C75 O76 1.273 . S
O76 C75 1.273 . S
O77 Zn68 1.977 . S
O77 C70 1.267 . S
C78 O79 1.160 . S
C78 O85 1.185 . S
O79 C78 1.160 . S
O80 Zn81 1.899 . S
O80 C88 1.284 . S
Zn81 O80 1.899 . S
Zn81 O82 2.032 . S
Zn81 O85 2.086 . S
Zn81 O90 1.977 . S
O82 Zn81 2.032 . S
O82 C86 1.278 . S
C83 O84 1.203 . S
C83 O90 1.267 . S
O84 C83 1.203 . S
O85 C78 1.185 . S
O85 Zn81 2.086 . S
C86 O82 1.278 . S
C86 O87 1.211 . S
O87 C86 1.211 . S
C88 O80 1.284 . S
C88 O89 1.273 . S
O89 C88 1.273 . S
O90 Zn81 1.977 . S
O90 C83 1.267 . S
C91 O92 1.160 . S
C91 O98 1.185 . S
O92 C91 1.160 . S
O93 Zn94 1.899 . S
O93 C101 1.284 . S
Zn94 O93 1.899 . S
Zn94 O95 2.032 . S
Zn94 O98 2.086 . S
Zn94 O103 1.977 . S
O95 Zn94 2.032 . S
O95 C99 1.278 . S
C96 O97 1.203 . S
C96 O103 1.267 . S
O97 C96 1.203 . S
O98 C91 1.185 . S
O98 Zn94 2.086 . S
C99 O95 1.278 . S
C99 O100 1.211 . S
O100 C99 1.211 . S
C101 O93 1.284 . S
C101 O102 1.273 . S
O102 C101 1.273 . S
O103 Zn94 1.977 . S
O103 C96 1.267 . S
C104 O105 1.160 . S
C104 O111 1.185 . S
O105 C104 1.160 . S
O106 Zn107 1.899 . S
O106 C114 1.284 . S
Zn107 O106 1.899 . S
Zn107 O108 2.032 . S
Zn107 O111 2.086 . S
Zn107 O116 1.977 . S
O108 Zn107 2.032 . S
O108 C112 1.278 . S
C109 O110 1.203 . S
C109 O116 1.267 . S
O110 C109 1.203 . S
O111 C104 1.185 . S
O111 Zn107 2.086 . S
C112 O108 1.278 . S
C112 O113 1.211 . S
O113 C112 1.211 . S
C114 O106 1.284 . S
C114 O115 1.273 . S
O115 C114 1.273 . S
O116 Zn107 1.977 . S
O116 C109 1.267 . S
C117 O118 1.160 . S
C117 O124 1.185 . S
O118 C117 1.160 . S
O119 Zn120 1.899 . S
O119 C127 1.284 . S
Zn120 O119 1.899 . S
Zn120 O121 2.032 . S
Zn120 O124 2.086 . S
Zn120 O129 1.977 . S
O121 Zn120 2.032 . S
O121 C125 1.278 . S
C122 O123 1.203 . S
C122 O129 1.267 . S
O123 C122 1.203 . S
O124 C117 1.185 . S
O124 Zn120 2.086 . S
C125 O121 1.278 . S
C125 O126 1.211 . S
O126 C125 1.211 . S
C127 O119 1.284 . S
C127 O128 1.273 . S
O128 C127 1.273 . S
O129 Zn120 1.977 . S
O129 C122 1.267 . S
C130 O131 1.160 . S
C130 O137 1.185 . S
O131 C130 1.160 . S
O132 Zn133 1.899 . S
O132 C140 1.284 . S
Zn133 O132 1.899 . S
Zn133 O134 2.032 . S
Zn133 O137 2.086 . S
Zn133 O142 1.977 . S
O134 Zn133 2.032 . S
O134 C138 1.278 . S
C135 O136 1.203 . S
C135 O142 1.267 . S
O136 C135 1.203 . S
O137 C130 1.185 . S
O137 Zn133 2.086 . S
C138 O134 1.278 . S
C138 O139 1.211 . S
O139 C138 1.211 . S
C140 O132 1.284 . S
C140 O141 1.273 . S
O141 C140 1.273 . S
O142 Zn133 1.977 . S
O142 C135 1.267 . S
C143 O144 1.160 . S
C143 O150 1.185 . S
O144 C143 1.160 . S
O145 Zn146 1.899 . S
O145 C153 1.284 . S
Zn146 O145 1.899 . S
Zn146 O147 2.032 . S
Zn146 O150 2.086 . S
Zn146 O155 1.977 . S
O147 Zn146 2.032 . S
O147 C151 1.278 . S
C148 O149 1.203 . S
C148 O155 1.267 . S
O149 C148 1.203 . S
O150 C143 1.185 . S
O150 Zn146 2.086 . S
C151 O147 1.278 . S
C151 O152 1.211 . S
O152 C151 1.211 . S
C153 O145 1.284 . S
C153 O154 1.273 . S
O154 C153 1.273 . S
O155 Zn146 1.977 . S
O155 C148 1.267 . S
C156 O157 1.160 . S
C156 O163 1.185 . S
O157 C156 1.160 . S
O158 Zn159 1.899 . S
O158 C166 1.284 . S
Zn159 O158 1.899 . S
Zn159 O160 2.032 . S
Zn159 O163 2.086 . S
Zn159 O168 1.977 . S
O160 Zn159 2.032 . S
O160 C164 1.278 . S
C161 O162 1.203 . S
C161 O168 1.267 . S
O162 C161 1.203 . S
O163 C156 1.185 . S
O163 Zn159 2.086 . S
C164 O160 1.278 . S
C164 O165 1.211 . S
O165 C164 1.211 . S
C166 O158 1.284 . S
C166 O167 1.273 . S
O167 C166 1.273 . S
O168 Zn159 1.977 . S
O168 C161 1.267 . S
C169 O170 1.160 . S
C169 O176 1.185 . S
O170 C169 1.160 . S
O171 Zn172 1.899 . S
O171 C179 1.284 . S
Zn172 O171 1.899 . S
Zn172 O173 2.032 . S
Zn172 O176 2.086 . S
Zn172 O181 1.977 . S
O173 Zn172 2.032 . S
O173 C177 1.278 . S
C174 O175 1.203 . S
C174 O181 1.267 . S
O175 C174 1.203 . S
O176 C169 1.185 . S
O176 Zn172 2.086 . S
C177 O173 1.278 . S
C177 O178 1.211 . S
O178 C177 1.211 . S
C179 O171 1.284 . S
C179 O180 1.273 . S
O180 C179 1.273 . S
O181 Zn172 1.977 . S
O181 C174 1.267 . S
C182 O183 1.160 . S
C182 O189 1.185 . S
O183 C182 1.160 . S
O184 Zn185 1.899 . S
O184 C192 1.284 . S
Zn185 O184 1.899 . S
Zn185 O186 2.032 . S
Zn185 O189 2.086 . S
Zn185 O194 1.977 . S
O186 Zn185 2.032 . S
O186 C190 1.278 . S
C187 O188 1.203 . S
C187 O194 1.267 . S
O188 C187 1.203 . S
O189 C182 1.185 . S
O189 Zn185 2.086 . S
C190 O186 1.278 . S
C190 O191 1.211 . S
O191 C190 1.211 . S
C192 O184 1.284 . S
C192 O193 1.273 . S
O193 C192 1.273 . S
O194 Zn185 1.977 . S
O194 C187 1.267 . S
C195 O196 1.160 . S
C195 O202 1.185 . S
O196 C195 1.160 . S
O197 Zn198 1.899 . S
O197 C205 1.284 . S
Zn198 O197 1.899 . S
Zn198 O199 2.032 . S
Zn198 O202 2.086 . S
Zn198 O207 1.977 . S
O199 Zn198 2.032 . S
O199 C203 1.278 . S
C200 O201 1.203 . S
C200 O207 1.267 . S
O201 C200 1.203 . S
O202 C195 1.185 . S
O202 Zn198 2.086 . S
C203 O199 1.278 . S
C203 O204 1.211 . S
O204 C203 1.211 . S
C205 O197 1.284 . S
C205 O206 1.273 . S
O206 C205 1.273 . S
O207 Zn198 1.977 . S
O207 C200 1.267 . S
C208 O209 1.160 . S
C208 O215 1.185 . S
O209 C208 1.160 . S
O210 Zn211 1.899 . S
O210 C218 1.284 . S
Zn211 O210 1.899 . S
Zn211 O212 2.032 . S
Zn211 O215 2.086 . S
Zn211 O220 1.977 . S
O212 Zn211 2.032 . S
O212 C216 1.278 . S
C213 O214 1.203 . S
C213 O220 1.267 . S
O214 C213 1.203 . S
O215 C208 1.185 . S
O215 Zn211 2.086 . S
C216 O212 1.278 . S
C216 O217 1.211 . S
O217 C216 1.211 . S
C218 O210 1.284 . S
C218 O219 1.273 . S
O219 C218 1.273 . S
O220 Zn211 1.977 . S
O220 C213 1.267 . S
C221 O222 1.160 . S
C221 O228 1.185 . S
O222 C221 1.160 . S
O223 Zn224 1.899 . S
O223 C231 1.284 . S
Zn224 O223 1.899 . S
Zn224 O225 2.032 . S
Zn224 O228 2.086 . S
Zn224 O233 1.977 . S
O225 Zn224 2.032 . S
O225 C229 1.278 . S
C226 O227 1.203 . S
C226 O233 1.267 . S
O227 C226 1.203 . S
O228 C221 1.185 . S
O228 Zn224 2.086 . S
C229 O225 1.278 . S
C229 O230 1.211 . S
O230 C229 1.211 . S
C231 O223 1.284 . S
C231 O232 1.273 . S
O232 C231 1.273 . S
O233 Zn224 1.977 . S
O233 C226 1.267 . S
C234 O235 1.160 . S
C234 O241 1.185 . S
O235 C234 1.160 . S
O236 Zn237 1.899 . S
O236 C244 1.284 . S
Zn237 O236 1.899 . S
Zn237 O238 2.032 . S
Zn237 O241 2.086 . S
Zn237 O246 1.977 . S
O238 Zn237 2.032 . S
O238 C242 1.278 . S
C239 O240 1.203 . S
C239 O246 1.267 . S
O240 C239 1.203 . S
O241 C234 1.185 . S
O241 Zn237 2.086 . S
C242 O238 1.278 . S
C242 O243 1.211 . S
O243 C242 1.211 . S
C244 O236 1.284 . S
C244 O245 1.273 . S
O245 C244 1.273 . S
O246 Zn237 1.977 . S
O246 C239 1.267 . S
C247 O248 1.160 . S
C247 O254 1.185 . S
O248 C247 1.160 . S
O249 Zn250 1.899 . S
O249 C257 1.284 . S
Zn250 O249 1.899 . S
Zn250 O251 2.032 . S
Zn250 O254 2.086 . S
Zn250 O259 1.977 . S
O251 Zn250 2.032 . S
O251 C255 1.278 . S
C252 O253 1.203 . S
C252 O259 1.267 . S
O253 C252 1.203 . S
O254 C247 1.185 . S
O254 Zn250 2.086 . S
C255 O251 1.278 . S
C255 O256 1.211 . S
O256 C255 1.211 . S
C257 O249 1.284 . S
C257 O258 1.273 . S
O258 C257 1.273 . S
O259 Zn250 1.977 . S
O259 C252 1.267 . S
C260 O261 1.160 . S
C260 O267 1.185 . S
O261 C260 1.160 . S
O262 Zn263 1.899 . S
O262 C270 1.284 . S
Zn263 O262 1.899 . S
Zn263 O264 2.032 . S
Zn263 O267 2.086 . S
Zn263 O272 1.977 . S
O264 Zn263 2.032 . S
O264 C268 1.278 . S
C265 O266 1.203 . S
C265 O272 1.267 . S
O266 C265 1.203 . S
O267 C260 1.185 . S
O267 Zn263 2.086 . S
C268 O264 1.278 . S
C268 O269 1.211 . S
O269 C268 1.211 . S
C270 O262 1.284 . S
C270 O271 1.273 . S
O271 C270 1.273 . S
O272 Zn263 1.977 . S
O272 C265 1.267 . S
C273 O274 1.160 . S
C273 O280 1.185 . S
O274 C273 1.160 . S
O275 Zn276 1.899 . S
O275 C283 1.284 . S
Zn276 O275 1.899 . S
Zn276 O277 2.032 . S
Zn276 O280 2.086 . S
Zn276 O285 1.977 . S
O277 Zn276 2.032 . S
O277 C281 1.278 . S
C278 O279 1.203 . S
C278 O285 1.267 . S
O279 C278 1.203 . S
O280 C273 1.185 . S
O280 Zn276 2.086 . S
C281 O277 1.278 . S
C281 O282 1.211 . S
O282 C281 1.211 . S
C283 O275 1.284 . S
C283 O284 1.273 . S
O284 C283 1.273 . S
O285 Zn276 1.977 . S
O285 C278 1.267 . S
C286 O287 1.160 . S
C286 O293 1.185 . S
O287 C286 1.160 . S
O288 Zn289 1.899 . S
O288 C296 1.284 . S
Zn289 O288 1.899 . S
Zn289 O290 2.032 . S
Zn289 O293 2.086 . S
Zn289 O298 1.977 . S
O290 Zn289 2.032 . S
O290 C294 1.278 . S
C291 O292 1.203 . S
C291 O298 1.267 . S
O292 C291 1.203 . S
O293 C286 1.185 . S
O293 Zn289 2.086 . S
C294 O290 1.278 . S
C294 O295 1.211 . S
O295 C294 1.211 . S
C296 O288 1.284 . S
C296 O297 1.273 . S
O297 C296 1.273 . S
O298 Zn289 1.977 . S
O298 C291 1.267 . S
C299 O300 1.160 . S
C299 O306 1.185 . S
O300 C299 1.160 . S
O301 Zn302 1.899 . S
O301 C309 1.284 . S
Zn302 O301 1.899 . S
Zn302 O303 2.032 . S
Zn302 O306 2.086 . S
Zn302 O311 1.977 . S
O303 Zn302 2.032 . S
O303 C307 1.278 . S
C304 O305 1.203 . S
C304 O311 1.267 . S
O305 C304 1.203 . S
O306 C299 1.185 . S
O306 Zn302 2.086 . S
C307 O303 1.278 . S
C307 O308 1.211 . S
O308 C307 1.211 . S
C309 O301 1.284 . S
C309 O310 1.273 . S
O310 C309 1.273 . S
O311 Zn302 1.977 . S
O311 C304 1.267 . S
C312 O313 1.160 . S
C312 O319 1.185 . S
O313 C312 1.160 . S
O314 Zn315 1.899 . S
O314 C322 1.284 . S
Zn315 O314 1.899 . S
Zn315 O316 2.032 . S
Zn315 O319 2.086 . S
Zn315 O324 1.977 . S
O316 Zn315 2.032 . S
O316 C320 1.278 . S
C317 O318 1.203 . S
C317 O324 1.267 . S
O318 C317 1.203 . S
O319 C312 1.185 . S
O319 Zn315 2.086 . S
C320 O316 1.278 . S
C320 O321 1.211 . S
O321 C320 1.211 . S
C322 O314 1.284 . S
C322 O323 1.273 . S
O323 C322 1.273 . S
O324 Zn315 1.977 . S
O324 C317 1.267 . S
C325 O326 1.160 . S
C325 O332 1.185 . S
O326 C325 1.160 . S
O327 Zn328 1.899 . S
O327 C335 1.284 . S
Zn328 O327 1.899 . S
Zn328 O329 2.032 . S
Zn328 O332 2.086 . S
Zn328 O337 1.977 . S
O329 Zn328 2.032 . S
O329 C333 1.278 . S
C330 O331 1.203 . S
C330 O337 1.267 . S
O331 C330 1.203 . S
O332 C325 1.185 . S
O332 Zn328 2.086 . S
C333 O329 1.278 . S
C333 O334 1.211 . S
O334 C333 1.211 . S
C335 O327 1.284 . S
C335 O336 1.273 . S
O336 C335 1.273 . S
O337 Zn328 1.977 . S
O337 C330 1.267 . S
C338 O339 1.160 . S
C338 O345 1.185 . S
O339 C338 1.160 . S
O340 Zn341 1.899 . S
O340 C348 1.284 . S
Zn341 O340 1.899 . S
Zn341 O342 2.032 . S
Zn341 O345 2.086 . S
Zn341 O350 1.977 . S
O342 Zn341 2.032 . S
O342 C346 1.278 . S
C343 O344 1.203 . S
C343 O350 1.267 . S
O344 C343 1.203 . S
O345 C338 1.185 . S
O345 Zn341 2.086 . S
C346 O342 1.278 . S
C346 O347 1.211 . S
O347 C346 1.211 . S
C348 O340 1.284 . S
C348 O349 1.273 . S
O349 C348 1.273 . S
O350 Zn341 1.977 . S
O350 C343 1.267 . S
C351 O352 1.160 . S
C351 O358 1.185 . S
O352 C351 1.160 . S
O353 Zn354 1.899 . S
O353 C361 1.284 . S
Zn354 O353 1.899 . S
Zn354 O355 2.032 . S
Zn354 O358 2.086 . S
Zn354 O363 1.977 . S
O355 Zn354 2.032 . S
O355 C359 1.278 . S
C356 O357 1.203 . S
C356 O363 1.267 . S
O357 C356 1.203 . S
O358 C351 1.185 . S
O358 Zn354 2.086 . S
C359 O355 1.278 . S
C359 O360 1.211 . S
O360 C359 1.211 . S
C361 O353 1.284 . S
C361 O362 1.273 . S
O362 C361 1.273 . S
O363 Zn354 1.977 . S
O363 C356 1.267 . S
C364 O365 1.160 . S
C364 O371 1.185 . S
O365 C364 1.160 . S
O366 Zn367 1.899 . S
O366 C374 1.284 . S
Zn367 O366 1.899 . S
Zn367 O368 2.032 . S
Zn367 O371 2.086 . S
Zn367 O376 1.977 . S
O368 Zn367 2.032 . S
O368 C372 1.278 . S
C369 O370 1.203 . S
C369 O376 1.267 . S
O370 C369 1.203 . S
O371 C364 1.185 . S
O371 Zn367 2.086 . S
C372 O368 1.278 . S
C372 O373 1.211 . S
O373 C372 1.211 . S
C374 O366 1.284 . S
C374 O375 1.273 . S
O375 C374 1.273 . S
O376 Zn367 1.977 . S
O376 C369 1.267 . S
C377 O378 1.160 . S
C377 O384 1.185 . S
O378 C377 1.160 . S
O379 Zn380 1.899 . S
O379 C387 1.284 . S
Zn380 O379 1.899 . S
Zn380 O381 2.032 . S
Zn380 O384 2.086 . S
Zn380 O389 1.977 . S
O381 Zn380 2.032 . S
O381 C385 1.278 . S
C382 O383 1.203 . S
C382 O389 1.267 . S
O383 C382 1.203 . S
O384 C377 1.185 . S
O384 Zn380 2.086 . S
C385 O381 1.278 . S
C385 O386 1.211 . S
O386 C385 1.211 . S
C387 O379 1.284 . S
C387 O388 1.273 . S
O388 C387 1.273 . S
O389 Zn380 1.977 . S
O389 C382 1.267 . S
C390 O391 1.160 . S
C390 O397 1.185 . S
O391 C390 1.160 . S
O392 Zn393 1.899 . S
O392 C400 1.284 . S
Zn393 O392 1.899 . S
Zn393 O394 2.032 . S
Zn393 O397 2.086 . S
Zn393 O402 1.977 . S
O394 Zn393 2.032 . S
O394 C398 1.278 . S
C395 O396 1.203 . S
C395 O402 1.267 . S
O396 C395 1.203 . S
O397 C390 1.185 . S
O397 Zn393 2.086 . S
C398 O394 1.278 . S
C398 O399 1.211 . S
O399 C398 1.211 . S
C400 O392 1.284 . S
C400 O401 1.273 . S
O401 C400 1.273 . S
O402 Zn393 1.977 . S
O402 C395 1.267 . S
C403 O404 1.160 . S
C403 O410 1.185 . S
O404 C403 1.160 . S
O405 Zn406 1.899 . S
O405 C413 1.284 . S
Zn406 O405 1.899 . S
Zn406 O407 2.032 . S
Zn406 O410 2.086 . S
Zn406 O415 1.977 . S
O407 Zn406 2.032 . S
O407 C411 1.278 . S
C408 O409 1.203 . S
C408 O415 1.267 . S
O409 C408 1.203 . S
O410 C403 1.185 . S
O410 Zn406 2.086 . S
C411 O407 1.278 . S
C411 O412 1.211 . S
O412 C411 1.211 . S
C413 O405 1.284 . S
C413 O414 1.273 . S
O414 C413 1.273 . S
O415 Zn406 1.977 . S
O415 C408 1.267 . S
C416 C417 1.349 . S
C416 C418 1.327 . S
C416 H441 0.950 . S
C417 C416 1.349 . S
C417 C433 1.349 . S
C418 C416 1.327 . S
C418 C437 1.429 . S
C418 H442 0.950 . S
C419 C436 1.574 . S
C419 C438 1.368 . S
C419 H443 0.949 . S
H420 C424 0.949 . S
C421 C422 1.349 . S
C421 C423 1.327 . S
C421 H444 0.950 . S
C422 C421 1.349 . S
C422 C434 1.349 . S
C423 C421 1.327 . S
C423 C439 1.429 . S
C423 H445 0.950 . S
C424 H420 0.949 . S
C424 C432 1.574 . S
C424 C440 1.368 . S
H425 C433 0.950 . S
H426 C431 0.950 . S
H427 C432 0.949 . S
H428 C434 0.950 . S
H429 C435 0.950 . S
H430 C436 0.949 . S
C431 H426 0.950 . S
C431 C433 1.327 . S
C431 C437 1.429 . S
C432 C424 1.574 . S
C432 H427 0.949 . S
C432 C438 1.368 . S
C433 C417 1.349 . S
C433 H425 0.950 . S
C433 C431 1.327 . S
C434 C422 1.349 . S
C434 H428 0.950 . S
C434 C435 1.327 . S
C435 H429 0.950 . S
C435 C434 1.327 . S
C435 C439 1.429 . S
C436 C419 1.574 . S
C436 H430 0.949 . S
C436 C440 1.368 . S
C437 C418 1.429 . S
C437 C431 1.429 . S
C437 C438 1.523 . S
C438 C419 1.368 . S
C438 C432 1.368 . S
C438 C437 1.523 . S
C439 C423 1.429 . S
C439 C435 1.429 . S
C439 C440 1.523 . S
C440 C424 1.368 . S
C440 C436 1.368 . S
C440 C439 1.523 . S
H441 C416 0.950 . S
H442 C418 0.950 . S
H443 C419 0.949 . S
H444 C421 0.950 . S
H445 C423 0.950 . S
C446 C447 1.349 . S
C446 C448 1.327 . S
C446 H471 0.950 . S
C447 C446 1.349 . S
C447 C463 1.349 . S
C448 C446 1.327 . S
C448 C467 1.429 . S
C448 H472 0.950 . S
C449 C466 1.574 . S
C449 C468 1.368 . S
C449 H473 0.949 . S
H450 C454 0.949 . S
C451 C452 1.349 . S
C451 C453 1.327 . S
C451 H474 0.950 . S
C452 C451 1.349 . S
C452 C464 1.349 . S
C453 C451 1.327 . S
C453 C469 1.429 . S
C453 H475 0.950 . S
C454 H450 0.949 . S
C454 C462 1.574 . S
C454 C470 1.368 . S
H455 C463 0.950 . S
H456 C461 0.950 . S
H457 C462 0.949 . S
H458 C464 0.950 . S
H459 C465 0.950 . S
H460 C466 0.949 . S
C461 H456 0.950 . S
C461 C463 1.327 . S
C461 C467 1.429 . S
C462 C454 1.574 . S
C462 H457 0.949 . S
C462 C468 1.368 . S
C463 C447 1.349 . S
C463 H455 0.950 . S
C463 C461 1.327 . S
C464 C452 1.349 . S
C464 H458 0.950 . S
C464 C465 1.327 . S
C465 H459 0.950 . S
C465 C464 1.327 . S
C465 C469 1.429 . S
C466 C449 1.574 . S
C466 H460 0.949 . S
C466 C470 1.368 . S
C467 C448 1.429 . S
C467 C461 1.429 . S
C467 C468 1.523 . S
C468 C449 1.368 . S
C468 C462 1.368 . S
C468 C467 1.523 . S
C469 C453 1.429 . S
C469 C465 1.429 . S
C469 C470 1.523 . S
C470 C454 1.368 . S
C470 C466 1.368 . S
C470 C469 1.523 . S
H471 C446 0.950 . S
H472 C448 0.950 . S
H473 C449 0.949 . S
H474 C451 0.950 . S
H475 C453 0.950 . S
C476 C477 1.349 . S
C476 C478 1.327 . S
C476 H501 0.950 . S
C477 C476 1.349 . S
C477 C493 1.349 . S
C478 C476 1.327 . S
C478 C497 1.429 . S
C478 H502 0.950 . S
C479 C496 1.574 . S
C479 C498 1.368 . S
C479 H503 0.949 . S
H480 C484 0.949 . S
C481 C482 1.349 . S
C481 C483 1.327 . S
C481 H504 0.950 . S
C482 C481 1.349 . S
C482 C494 1.349 . S
C483 C481 1.327 . S
C483 C499 1.429 . S
C483 H505 0.950 . S
C484 H480 0.949 . S
C484 C492 1.574 . S
C484 C500 1.368 . S
H485 C493 0.950 . S
H486 C491 0.950 . S
H487 C492 0.949 . S
H488 C494 0.950 . S
H489 C495 0.950 . S
H490 C496 0.949 . S
C491 H486 0.950 . S
C491 C493 1.327 . S
C491 C497 1.429 . S
C492 C484 1.574 . S
C492 H487 0.949 . S
C492 C498 1.368 . S
C493 C477 1.349 . S
C493 H485 0.950 . S
C493 C491 1.327 . S
C494 C482 1.349 . S
C494 H488 0.950 . S
C494 C495 1.327 . S
C495 H489 0.950 . S
C495 C494 1.327 . S
C495 C499 1.429 . S
C496 C479 1.574 . S
C496 H490 0.949 . S
C496 C500 1.368 . S
C497 C478 1.429 . S
C497 C491 1.429 . S
C497 C498 1.523 . S
C498 C479 1.368 . S
C498 C492 1.368 . S
C498 C497 1.523 . S
C499 C483 1.429 . S
C499 C495 1.429 . S
C499 C500 1.523 . S
C500 C484 1.368 . S
C500 C496 1.368 . S
C500 C499 1.523 . S
H501 C476 0.950 . S
H502 C478 0.950 . S
H503 C479 0.949 . S
H504 C481 0.950 . S
H505 C483 0.950 . S
C506 C507 1.349 . S
C506 C508 1.327 . S
C506 H531 0.950 . S
C507 C506 1.349 . S
C507 C523 1.349 . S
C508 C506 1.327 . S
C508 C527 1.429 . S
C508 H532 0.950 . S
C509 C526 1.574 . S
C509 C528 1.368 . S
C509 H533 0.949 . S
H510 C514 0.949 . S
C511 C512 1.349 . S
C511 C513 1.327 . S
C511 H534 0.950 . S
C512 C511 1.349 . S
C512 C524 1.349 . S
C513 C511 1.327 . S
C513 C529 1.429 . S
C513 H535 0.950 . S
C514 H510 0.949 . S
C514 C522 1.574 . S
C514 C530 1.368 . S
H515 C523 0.950 . S
H516 C521 0.950 . S
H517 C522 0.949 . S
H518 C524 0.950 . S
H519 C525 0.950 . S
H520 C526 0.949 . S
C521 H516 0.950 . S
C521 C523 1.327 . S
C521 C527 1.429 . S
C522 C514 1.574 . S
C522 H517 0.949 . S
C522 C528 1.368 . S
C523 C507 1.349 . S
C523 H515 0.950 . S
C523 C521 1.327 . S
C524 C512 1.349 . S
C524 H518 0.950 . S
C524 C525 1.327 . S
C525 H519 0.950 . S
C525 C524 1.327 . S
C525 C529 1.429 . S
C526 C509 1.574 . S
C526 H520 0.949 . S
C526 C530 1.368 . S
C527 C508 1.429 . S
C527 C521 1.429 . S
C527 C528 1.523 . S
C528 C509 1.368 . S
C528 C522 1.368 . S
C528 C527 1.523 . S
C529 C513 1.429 . S
C529 C525 1.429 . S
C529 C530 1.523 . S
C530 C514 1.368 . S
C530 C526 1.368 . S
C530 C529 1.523 . S
H531 C506 0.950 . S
H532 C508 0.950 . S
H533 C509 0.949 . S
H534 C511 0.950 . S
H535 C513 0.950 . S
C536 C537 1.349 . S
C536 C538 1.327 . S
C536 H561 0.950 . S
C537 C536 1.349 . S
C537 C553 1.349 . S
C538 C536 1.327 . S
C538 C557 1.429 . S
C538 H562 0.950 . S
C539 C556 1.574 . S
C539 C558 1.368 . S
C539 H563 0.949 . S
H540 C544 0.949 . S
C541 C542 1.349 . S
C541 C543 1.327 . S
C541 H564 0.950 . S
C542 C541 1.349 . S
C542 C554 1.349 . S
C543 C541 1.327 . S
C543 C559 1.429 . S
C543 H565 0.950 . S
C544 H540 0.949 . S
C544 C552 1.574 . S
C544 C560 1.368 . S
H545 C553 0.950 . S
H546 C551 0.950 . S
H547 C552 0.949 . S
H548 C554 0.950 . S
H549 C555 0.950 . S
H550 C556 0.949 . S
C551 H546 0.950 . S
C551 C553 1.327 . S
C551 C557 1.429 . S
C552 C544 1.574 . S
C552 H547 0.949 . S
C552 C558 1.368 . S
C553 C537 1.349 . S
C553 H545 0.950 . S
C553 C551 1.327 . S
C554 C542 1.349 . S
C554 H548 0.950 . S
C554 C555 1.327 . S
C555 H549 0.950 . S
C555 C554 1.327 . S
C555 C559 1.429 . S
C556 C539 1.574 . S
C556 H550 0.949 . S
C556 C560 1.368 . S
C557 C538 1.429 . S
C557 C551 1.429 . S
C557 C558 1.523 . S
C558 C539 1.368 . S
C558 C552 1.368 . S
C558 C557 1.523 . S
C559 C543 1.429 . S
C559 C555 1.429 . S
C559 C560 1.523 . S
C560 C544 1.368 . S
C560 C556 1.368 . S
C560 C559 1.523 . S
H561 C536 0.950 . S
H562 C538 0.950 . S
H563 C539 0.949 . S
H564 C541 0.950 . S
H565 C543 0.950 . S
C566 C567 1.349 . S
C566 C568 1.327 . S
C566 H591 0.950 . S
C567 C566 1.349 . S
C567 C583 1.349 . S
C568 C566 1.327 . S
C568 C587 1.429 . S
C568 H592 0.950 . S
C569 C586 1.574 . S
C569 C588 1.368 . S
C569 H593 0.949 . S
H570 C574 0.949 . S
C571 C572 1.349 . S
C571 C573 1.327 . S
C571 H594 0.950 . S
C572 C571 1.349 . S
C572 C584 1.349 . S
C573 C571 1.327 . S
C573 C589 1.429 . S
C573 H595 0.950 . S
C574 H570 0.949 . S
C574 C582 1.574 . S
C574 C590 1.368 . S
H575 C583 0.950 . S
H576 C581 0.950 . S
H577 C582 0.949 . S
H578 C584 0.950 . S
H579 C585 0.950 . S
H580 C586 0.949 . S
C581 H576 0.950 . S
C581 C583 1.327 . S
C581 C587 1.429 . S
C582 C574 1.574 . S
C582 H577 0.949 . S
C582 C588 1.368 . S
C583 C567 1.349 . S
C583 H575 0.950 . S
C583 C581 1.327 . S
C584 C572 1.349 . S
C584 H578 0.950 . S
C584 C585 1.327 . S
C585 H579 0.950 . S
C585 C584 1.327 . S
C585 C589 1.429 . S
C586 C569 1.574 . S
C586 H580 0.949 . S
C586 C590 1.368 . S
C587 C568 1.429 . S
C587 C581 1.429 . S
C587 C588 1.523 . S
C588 C569 1.368 . S
C588 C582 1.368 . S
C588 C587 1.523 . S
C589 C573 1.429 . S
C589 C585 1.429 . S
C589 C590 1.523 . S
C590 C574 1.368 . S
C590 C586 1.368 . S
C590 C589 1.523 . S
H591 C566 0.950 . S
H592 C568 0.950 . S
H593 C569 0.949 . S
H594 C571 0.950 . S
H595 C573 0.950 . S
C596 C597 1.349 . S
C596 C598 1.327 . S
C596 H621 0.950 . S
C597 C596 1.349 . S
C597 C613 1.349 . S
C598 C596 1.327 . S
C598 C617 1.429 . S
C598 H622 0.950 . S
C599 C616 1.574 . S
C599 C618 1.368 . S
C599 H623 0.949 . S
H600 C604 0.949 . S
C601 C602 1.349 . S
C601 C603 1.327 . S
C601 H624 0.950 . S
C602 C601 1.349 . S
C602 C614 1.349 . S
C603 C601 1.327 . S
C603 C619 1.429 . S
C603 H625 0.950 . S
C604 H600 0.949 . S
C604 C612 1.574 . S
C604 C620 1.368 . S
H605 C613 0.950 . S
H606 C611 0.950 . S
H607 C612 0.949 . S
H608 C614 0.950 . S
H609 C615 0.950 . S
H610 C616 0.949 . S
C611 H606 0.950 . S
C611 C613 1.327 . S
C611 C617 1.429 . S
C612 C604 1.574 . S
C612 H607 0.949 . S
C612 C618 1.368 . S
C613 C597 1.349 . S
C613 H605 0.950 . S
C613 C611 1.327 . S
C614 C602 1.349 . S
C614 H608 0.950 . S
C614 C615 1.327 . S
C615 H609 0.950 . S
C615 C614 1.327 . S
C615 C619 1.429 . S
C616 C599 1.574 . S
C616 H610 0.949 . S
C616 C620 1.368 . S
C617 C598 1.429 . S
C617 C611 1.429 . S
C617 C618 1.523 . S
C618 C599 1.368 . S
C618 C612 1.368 . S
C618 C617 1.523 . S
C619 C603 1.429 . S
C619 C615 1.429 . S
C619 C620 1.523 . S
C620 C604 1.368 . S
C620 C616 1.368 . S
C620 C619 1.523 . S
H621 C596 0.950 . S
H622 C598 0.950 . S
H623 C599 0.949 . S
H624 C601 0.950 . S
H625 C603 0.950 . S
C626 C627 1.349 . S
C626 C628 1.327 . S
C626 H651 0.950 . S
C627 C626 1.349 . S
C627 C643 1.349 . S
C628 C626 1.327 . S
C628 C647 1.429 . S
C628 H652 0.950 . S
C629 C646 1.574 . S
C629 C648 1.368 . S
C629 H653 0.949 . S
H630 C634 0.949 . S
C631 C632 1.349 . S
C631 C633 1.327 . S
C631 H654 0.950 . S
C632 C631 1.349 . S
C632 C644 1.349 . S
C633 C631 1.327 . S
C633 C649 1.429 . S
C633 H655 0.950 . S
C634 H630 0.949 . S
C634 C642 1.574 . S
C634 C650 1.368 . S
H635 C643 0.950 . S
H636 C641 0.950 . S
H637 C642 0.949 . S
H638 C644 0.950 . S
H639 C645 0.950 . S
H640 C646 0.949 . S
C641 H636 0.950 . S
C641 C643 1.327 . S
C641 C647 1.429 . S
C642 C634 1.574 . S
C642 H637 0.949 . S
C642 C648 1.368 . S
C643 C627 1.349 . S
C643 H635 0.950 . S
C643 C641 1.327 . S
C644 C632 1.349 . S
C644 H638 0.950 . S
C644 C645 1.327 . S
C645 H639 0.950 . S
C645 C644 1.327 . S
C645 C649 1.429 . S
C646 C629 1.574 . S
C646 H640 0.949 . S
C646 C650 1.368 . S
C647 C628 1.429 . S
C647 C641 1.429 . S
C647 C648 1.523 . S
C648 C629 1.368 . S
C648 C642 1.368 . S
C648 C647 1.523 . S
C649 C633 1.429 . S
C649 C645 1.429 . S
C649 C650 1.523 . S
C650 C634 1.368 . S
C650 C646 1.368 . S
C650 C649 1.523 . S
H651 C626 0.950 . S
H652 C628 0.950 . S
H653 C629 0.949 . S
H654 C631 0.950 . S
H655 C633 0.950 . S
C656 C657 1.349 . S
C656 C658 1.327 . S
C656 H681 0.950 . S
C657 C656 1.349 . S
C657 C673 1.349 . S
C658 C656 1.327 . S
C658 C677 1.429 . S
C658 H682 0.950 . S
C659 C676 1.574 . S
C659 C678 1.368 . S
C659 H683 0.949 . S
H660 C664 0.949 . S
C661 C662 1.349 . S
C661 C663 1.327 . S
C661 H684 0.950 . S
C662 C661 1.349 . S
C662 C674 1.349 . S
C663 C661 1.327 . S
C663 C679 1.429 . S
C663 H685 0.950 . S
C664 H660 0.949 . S
C664 C672 1.574 . S
C664 C680 1.368 . S
H665 C673 0.950 . S
H666 C671 0.950 . S
H667 C672 0.949 . S
H668 C674 0.950 . S
H669 C675 0.950 . S
H670 C676 0.949 . S
C671 H666 0.950 . S
C671 C673 1.327 . S
C671 C677 1.429 . S
C672 C664 1.574 . S
C672 H667 0.949 . S
C672 C678 1.368 . S
C673 C657 1.349 . S
C673 H665 0.950 . S
C673 C671 1.327 . S
C674 C662 1.349 . S
C674 H668 0.950 . S
C674 C675 1.327 . S
C675 H669 0.950 . S
C675 C674 1.327 . S
C675 C679 1.429 . S
C676 C659 1.574 . S
C676 H670 0.949 . S
C676 C680 1.368 . S
C677 C658 1.429 . S
C677 C671 1.429 . S
C677 C678 1.523 . S
C678 C659 1.368 . S
C678 C672 1.368 . S
C678 C677 1.523 . S
C679 C663 1.429 . S
C679 C675 1.429 . S
C679 C680 1.523 . S
C680 C664 1.368 . S
C680 C676 1.368 . S
C680 C679 1.523 . S
H681 C656 0.950 . S
H682 C658 0.950 . S
H683 C659 0.949 . S
H684 C661 0.950 . S
H685 C663 0.950 . S
C686 C687 1.349 . S
C686 C688 1.327 . S
C686 H711 0.950 . S
C687 C686 1.349 . S
C687 C703 1.349 . S
C688 C686 1.327 . S
C688 C707 1.429 . S
C688 H712 0.950 . S
C689 C706 1.574 . S
C689 C708 1.368 . S
C689 H713 0.949 . S
H690 C694 0.949 . S
C691 C692 1.349 . S
C691 C693 1.327 . S
C691 H714 0.950 . S
C692 C691 1.349 . S
C692 C704 1.349 . S
C693 C691 1.327 . S
C693 C709 1.429 . S
C693 H715 0.950 . S
C694 H690 0.949 . S
C694 C702 1.574 . S
C694 C710 1.368 . S
H695 C703 0.950 . S
H696 C701 0.950 . S
H697 C702 0.949 . S
H698 C704 0.950 . S
H699 C705 0.950 . S
H700 C706 0.949 . S
C701 H696 0.950 . S
C701 C703 1.327 . S
C701 C707 1.429 . S
C702 C694 1.574 . S
C702 H697 0.949 . S
C702 C708 1.368 . S
C703 C687 1.349 . S
C703 H695 0.950 . S
C703 C701 1.327 . S
C704 C692 1.349 . S
C704 H698 0.950 . S
C704 C705 1.327 . S
C705 H699 0.950 . S
C705 C704 1.327 . S
C705 C709 1.429 . S
C706 C689 1.574 . S
C706 H700 0.949 . S
C706 C710 1.368 . S
C707 C688 1.429 . S
C707 C701 1.429 . S
C707 C708 1.523 . S
C708 C689 1.368 . S
C708 C702 1.368 . S
C708 C707 1.523 . S
C709 C693 1.429 . S
C709 C705 1.429 . S
C709 C710 1.523 . S
C710 C694 1.368 . S
C710 C706 1.368 . S
C710 C709 1.523 . S
H711 C686 0.950 . S
H712 C688 0.950 . S
H713 C689 0.949 . S
H714 C691 0.950 . S
H715 C693 0.950 . S
C716 C717 1.349 . S
C716 C718 1.327 . S
C716 H741 0.950 . S
C717 C716 1.349 . S
C717 C733 1.349 . S
C718 C716 1.327 . S
C718 C737 1.429 . S
C718 H742 0.950 . S
C719 C736 1.574 . S
C719 C738 1.368 . S
C719 H743 0.949 . S
H720 C724 0.949 . S
C721 C722 1.349 . S
C721 C723 1.327 . S
C721 H744 0.950 . S
C722 C721 1.349 . S
C722 C734 1.349 . S
C723 C721 1.327 . S
C723 C739 1.429 . S
C723 H745 0.950 . S
C724 H720 0.949 . S
C724 C732 1.574 . S
C724 C740 1.368 . S
H725 C733 0.950 . S
H726 C731 0.950 . S
H727 C732 0.949 . S
H728 C734 0.950 . S
H729 C735 0.950 . S
H730 C736 0.949 . S
C731 H726 0.950 . S
C731 C733 1.327 . S
C731 C737 1.429 . S
C732 C724 1.574 . S
C732 H727 0.949 . S
C732 C738 1.368 . S
C733 C717 1.349 . S
C733 H725 0.950 . S
C733 C731 1.327 . S
C734 C722 1.349 . S
C734 H728 0.950 . S
C734 C735 1.327 . S
C735 H729 0.950 . S
C735 C734 1.327 . S
C735 C739 1.429 . S
C736 C719 1.574 . S
C736 H730 0.949 . S
C736 C740 1.368 . S
C737 C718 1.429 . S
C737 C731 1.429 . S
C737 C738 1.523 . S
C738 C719 1.368 . S
C738 C732 1.368 . S
C738 C737 1.523 . S
C739 C723 1.429 . S
C739 C735 1.429 . S
C739 C740 1.523 . S
C740 C724 1.368 . S
C740 C736 1.368 . S
C740 C739 1.523 . S
H741 C716 0.950 . S
H742 C718 0.950 . S
H743 C719 0.949 . S
H744 C721 0.950 . S
H745 C723 0.950 . S
C746 C747 1.349 . S
C746 C748 1.327 . S
C746 H771 0.950 . S
C747 C746 1.349 . S
C747 C763 1.349 . S
C748 C746 1.327 . S
C748 C767 1.429 . S
C748 H772 0.950 . S
C749 C766 1.574 . S
C749 C768 1.368 . S
C749 H773 0.949 . S
H750 C754 0.949 . S
C751 C752 1.349 . S
C751 C753 1.327 . S
C751 H774 0.950 . S
C752 C751 1.349 . S
C752 C764 1.349 . S
C753 C751 1.327 . S
C753 C769 1.429 . S
C753 H775 0.950 . S
C754 H750 0.949 . S
C754 C762 1.574 . S
C754 C770 1.368 . S
H755 C763 0.950 . S
H756 C761 0.950 . S
H757 C762 0.949 . S
H758 C764 0.950 . S
H759 C765 0.950 . S
H760 C766 0.949 . S
C761 H756 0.950 . S
C761 C763 1.327 . S
C761 C767 1.429 . S
C762 C754 1.574 . S
C762 H757 0.949 . S
C762 C768 1.368 . S
C763 C747 1.349 . S
C763 H755 0.950 . S
C763 C761 1.327 . S
C764 C752 1.349 . S
C764 H758 0.950 . S
C764 C765 1.327 . S
C765 H759 0.950 . S
C765 C764 1.327 . S
C765 C769 1.429 . S
C766 C749 1.574 . S
C766 H760 0.949 . S
C766 C770 1.368 . S
C767 C748 1.429 . S
C767 C761 1.429 . S
C767 C768 1.523 . S
C768 C749 1.368 . S
C768 C762 1.368 . S
C768 C767 1.523 . S
C769 C753 1.429 . S
C769 C765 1.429 . S
C769 C770 1.523 . S
C770 C754 1.368 . S
C770 C766 1.368 . S
C770 C769 1.523 . S
H771 C746 0.950 . S
H772 C748 0.950 . S
H773 C749 0.949 . S
H774 C751 0.950 . S
H775 C753 0.950 . S
C776 C777 1.349 . S
C776 C778 1.327 . S
C776 H801 0.950 . S
C777 C776 1.349 . S
C777 C793 1.349 . S
C778 C776 1.327 . S
C778 C797 1.429 . S
C778 H802 0.950 . S
C779 C796 1.574 . S
C779 C798 1.368 . S
C779 H803 0.949 . S
H780 C784 0.949 . S
C781 C782 1.349 . S
C781 C783 1.327 . S
C781 H804 0.950 . S
C782 C781 1.349 . S
C782 C794 1.349 . S
C783 C781 1.327 . S
C783 C799 1.429 . S
C783 H805 0.950 . S
C784 H780 0.949 . S
C784 C792 1.574 . S
C784 C800 1.368 . S
H785 C793 0.950 . S
H786 C791 0.950 . S
H787 C792 0.949 . S
H788 C794 0.950 . S
H789 C795 0.950 . S
H790 C796 0.949 . S
C791 H786 0.950 . S
C791 C793 1.327 . S
C791 C797 1.429 . S
C792 C784 1.574 . S
C792 H787 0.949 . S
C792 C798 1.368 . S
C793 C777 1.349 . S
C793 H785 0.950 . S
C793 C791 1.327 . S
C794 C782 1.349 . S
C794 H788 0.950 . S
C794 C795 1.327 . S
C795 H789 0.950 . S
C795 C794 1.327 . S
C795 C799 1.429 . S
C796 C779 1.574 . S
C796 H790 0.949 . S
C796 C800 1.368 . S
C797 C778 1.429 . S
C797 C791 1.429 . S
C797 C798 1.523 . S
C798 C779 1.368 . S
C798 C792 1.368 . S
C798 C797 1.523 . S
C799 C783 1.429 . S
C799 C795 1.429 . S
C799 C800 1.523 . S
C800 C784 1.368 . S
C800 C796 1.368 . S
C800 C799 1.523 . S
H801 C776 0.950 . S
H802 C778 0.950 . S
H803 C779 0.949 . S
H804 C781 0.950 . S
H805 C783 0.950 . S
C806 C807 1.349 . S
C806 C808 1.327 . S
C806 H831 0.950 . S
C807 C806 1.349 . S
C807 C823 1.349 . S
C808 C806 1.327 . S
C808 C827 1.429 . S
C808 H832 0.950 . S
C809 C826 1.574 . S
C809 C828 1.368 . S
C809 H833 0.949 . S
H810 C814 0.949 . S
C811 C812 1.349 . S
C811 C813 1.327 . S
C811 H834 0.950 . S
C812 C811 1.349 . S
C812 C824 1.349 . S
C813 C811 1.327 . S
C813 C829 1.429 . S
C813 H835 0.950 . S
C814 H810 0.949 . S
C814 C822 1.574 . S
C814 C830 1.368 . S
H815 C823 0.950 . S
H816 C821 0.950 . S
H817 C822 0.949 . S
H818 C824 0.950 . S
H819 C825 0.950 . S
H820 C826 0.949 . S
C821 H816 0.950 . S
C821 C823 1.327 . S
C821 C827 1.429 . S
C822 C814 1.574 . S
C822 H817 0.949 . S
C822 C828 1.368 . S
C823 C807 1.349 . S
C823 H815 0.950 . S
C823 C821 1.327 . S
C824 C812 1.349 . S
C824 H818 0.950 . S
C824 C825 1.327 . S
C825 H819 0.950 . S
C825 C824 1.327 . S
C825 C829 1.429 . S
C826 C809 1.574 . S
C826 H820 0.949 . S
C826 C830 1.368 . S
C827 C808 1.429 . S
C827 C821 1.429 . S
C827 C828 1.523 . S
C828 C809 1.368 . S
C828 C822 1.368 . S
C828 C827 1.523 . S
C829 C813 1.429 . S
C829 C825 1.429 . S
C829 C830 1.523 . S
C830 C814 1.368 . S
C830 C826 1.368 . S
C830 C829 1.523 . S
H831 C806 0.950 . S
H832 C808 0.950 . S
H833 C809 0.949 . S
H834 C811 0.950 . S
H835 C813 0.950 . S
C836 C837 1.349 . S
C836 C838 1.327 . S
C836 H861 0.950 . S
C837 C836 1.349 . S
C837 C853 1.349 . S
C838 C836 1.327 . S
C838 C857 1.429 . S
C838 H862 0.950 . S
C839 C856 1.574 . S
C839 C858 1.368 . S
C839 H863 0.949 . S
H840 C844 0.949 . S
C841 C842 1.349 . S
C841 C843 1.327 . S
C841 H864 0.950 . S
C842 C841 1.349 . S
C842 C854 1.349 . S
C843 C841 1.327 . S
C843 C859 1.429 . S
C843 H865 0.950 . S
C844 H840 0.949 . S
C844 C852 1.574 . S
C844 C860 1.368 . S
H845 C853 0.950 . S
H846 C851 0.950 . S
H847 C852 0.949 . S
H848 C854 0.950 . S
H849 C855 0.950 . S
H850 C856 0.949 . S
C851 H846 0.950 . S
C851 C853 1.327 . S
C851 C857 1.429 . S
C852 C844 1.574 . S
C852 H847 0.949 . S
C852 C858 1.368 . S
C853 C837 1.349 . S
C853 H845 0.950 . S
C853 C851 1.327 . S
C854 C842 1.349 . S
C854 H848 0.950 . S
C854 C855 1.327 . S
C855 H849 0.950 . S
C855 C854 1.327 . S
C855 C859 1.429 . S
C856 C839 1.574 . S
C856 H850 0.949 . S
C856 C860 1.368 . S
C857 C838 1.429 . S
C857 C851 1.429 . S
C857 C858 1.523 . S
C858 C839 1.368 . S
C858 C852 1.368 . S
C858 C857 1.523 . S
C859 C843 1.429 . S
C859 C855 1.429 . S
C859 C860 1.523 . S
C860 C844 1.368 . S
C860 C856 1.368 . S
C860 C859 1.523 . S
H861 C836 0.950 . S
H862 C838 0.950 . S
H863 C839 0.949 . S
H864 C841 0.950 . S
H865 C843 0.950 . S
C866 C867 1.349 . S
C866 C868 1.327 . S
C866 H891 0.950 . S
C867 C866 1.349 . S
C867 C883 1.349 . S
C868 C866 1.327 . S
C868 C887 1.429 . S
C868 H892 0.950 . S
C869 C886 1.574 . S
C869 C888 1.368 . S
C869 H893 0.949 . S
H870 C874 0.949 . S
C871 C872 1.349 . S
C871 C873 1.327 . S
C871 H894 0.950 . S
C872 C871 1.349 . S
C872 C884 1.349 . S
C873 C871 1.327 . S
C873 C889 1.429 . S
C873 H895 0.950 . S
C874 H870 0.949 . S
C874 C882 1.574 . S
C874 C890 1.368 . S
H875 C883 0.950 . S
H876 C881 0.950 . S
H877 C882 0.949 . S
H878 C884 0.950 . S
H879 C885 0.950 . S
H880 C886 0.949 . S
C881 H876 0.950 . S
C881 C883 1.327 . S
C881 C887 1.429 . S
C882 C874 1.574 . S
C882 H877 0.949 . S
C882 C888 1.368 . S
C883 C867 1.349 . S
C883 H875 0.950 . S
C883 C881 1.327 . S
C884 C872 1.349 . S
C884 H878 0.950 . S
C884 C885 1.327 . S
C885 H879 0.950 . S
C885 C884 1.327 . S
C885 C889 1.429 . S
C886 C869 1.574 . S
C886 H880 0.949 . S
C886 C890 1.368 . S
C887 C868 1.429 . S
C887 C881 1.429 . S
C887 C888 1.523 . S
C888 C869 1.368 . S
C888 C882 1.368 . S
C888 C887 1.523 . S
C889 C873 1.429 . S
C889 C885 1.429 . S
C889 C890 1.523 . S
C890 C874 1.368 . S
C890 C886 1.368 . S
C890 C889 1.523 . S
H891 C866 0.950 . S
H892 C868 0.950 . S
H893 C869 0.949 . S
H894 C871 0.950 . S
H895 C873 0.950 . S
C896 C897 1.349 . S
C896 C898 1.327 . S
C896 H921 0.950 . S
C897 C896 1.349 . S
C897 C913 1.349 . S
C898 C896 1.327 . S
C898 C917 1.429 . S
C898 H922 0.950 . S
C899 C916 1.574 1_554 S
C899 C918 1.368 . S
C899 H923 0.949 . S
H900 C904 0.949 . S
C901 C902 1.349 . S
C901 C903 1.327 . S
C901 H924 0.950 . S
C902 C901 1.349 . S
C902 C914 1.349 . S
C903 C901 1.327 . S
C903 C919 1.429 . S
C903 H925 0.950 . S
C904 H900 0.949 . S
C904 C912 1.574 1_556 S
C904 C920 1.368 . S
H905 C913 0.950 . S
H906 C911 0.950 . S
H907 C912 0.949 . S
H908 C914 0.950 . S
H909 C915 0.950 . S
H910 C916 0.949 . S
C911 H906 0.950 . S
C911 C913 1.327 . S
C911 C917 1.429 . S
C912 C904 1.574 1_554 S
C912 H907 0.949 . S
C912 C918 1.368 . S
C913 C897 1.349 . S
C913 H905 0.950 . S
C913 C911 1.327 . S
C914 C902 1.349 . S
C914 H908 0.950 . S
C914 C915 1.327 . S
C915 H909 0.950 . S
C915 C914 1.327 . S
C915 C919 1.429 . S
C916 C899 1.574 1_556 S
C916 H910 0.949 . S
C916 C920 1.368 . S
C917 C898 1.429 . S
C917 C911 1.429 . S
C917 C918 1.523 . S
C918 C899 1.368 . S
C918 C912 1.368 . S
C918 C917 1.523 . S
C919 C903 1.429 . S
C919 C915 1.429 . S
C919 C920 1.523 . S
C920 C904 1.368 . S
C920 C916 1.368 . S
C920 C919 1.523 . S
H921 C896 0.950 . S
H922 C898 0.950 . S
H923 C899 0.949 . S
H924 C901 0.950 . S
H925 C903 0.950 . S
C926 C927 1.349 . S
C926 C928 1.327 . S
C926 H951 0.950 . S
C927 C926 1.349 . S
C927 C943 1.349 . S
C928 C926 1.327 . S
C928 C947 1.429 . S
C928 H952 0.950 . S
C929 C946 1.574 1_556 S
C929 C948 1.368 . S
C929 H953 0.949 . S
H930 C934 0.949 . S
C931 C932 1.349 . S
C931 C933 1.327 . S
C931 H954 0.950 . S
C932 C931 1.349 . S
C932 C944 1.349 . S
C933 C931 1.327 . S
C933 C949 1.429 . S
C933 H955 0.950 . S
C934 H930 0.949 . S
C934 C942 1.574 1_554 S
C934 C950 1.368 . S
H935 C943 0.950 . S
H936 C941 0.950 . S
H937 C942 0.949 . S
H938 C944 0.950 . S
H939 C945 0.950 . S
H940 C946 0.949 . S
C941 H936 0.950 . S
C941 C943 1.327 . S
C941 C947 1.429 . S
C942 C934 1.574 1_556 S
C942 H937 0.949 . S
C942 C948 1.368 . S
C943 C927 1.349 . S
C943 H935 0.950 . S
C943 C941 1.327 . S
C944 C932 1.349 . S
C944 H938 0.950 . S
C944 C945 1.327 . S
C945 H939 0.950 . S
C945 C944 1.327 . S
C945 C949 1.429 . S
C946 C929 1.574 1_554 S
C946 H940 0.949 . S
C946 C950 1.368 . S
C947 C928 1.429 . S
C947 C941 1.429 . S
C947 C948 1.523 . S
C948 C929 1.368 . S
C948 C942 1.368 . S
C948 C947 1.523 . S
C949 C933 1.429 . S
C949 C945 1.429 . S
C949 C950 1.523 . S
C950 C934 1.368 . S
C950 C946 1.368 . S
C950 C949 1.523 . S
H951 C926 0.950 . S
H952 C928 0.950 . S
H953 C929 0.949 . S
H954 C931 0.950 . S
H955 C933 0.950 . S
C956 C957 1.349 . S
C956 C958 1.327 . S
C956 H981 0.950 . S
C957 C956 1.349 . S
C957 C973 1.349 . S
C958 C956 1.327 . S
C958 C977 1.429 . S
C958 H982 0.950 . S
C959 C976 1.574 1_556 S
C959 C978 1.368 . S
C959 H983 0.949 . S
H960 C964 0.949 . S
C961 C962 1.349 . S
C961 C963 1.327 . S
C961 H984 0.950 . S
C962 C961 1.349 . S
C962 C974 1.349 . S
C963 C961 1.327 . S
C963 C979 1.429 . S
C963 H985 0.950 . S
C964 H960 0.949 . S
C964 C972 1.574 1_554 S
C964 C980 1.368 . S
H965 C973 0.950 . S
H966 C971 0.950 . S
H967 C972 0.949 . S
H968 C974 0.950 . S
H969 C975 0.950 . S
H970 C976 0.949 . S
C971 H966 0.950 . S
C971 C973 1.327 . S
C971 C977 1.429 . S
C972 C964 1.574 1_556 S
C972 H967 0.949 . S
C972 C978 1.368 . S
C973 C957 1.349 . S
C973 H965 0.950 . S
C973 C971 1.327 . S
C974 C962 1.349 . S
C974 H968 0.950 . S
C974 C975 1.327 . S
C975 H969 0.950 . S
C975 C974 1.327 . S
C975 C979 1.429 . S
C976 C959 1.574 1_554 S
C976 H970 0.949 . S
C976 C980 1.368 . S
C977 C958 1.429 . S
C977 C971 1.429 . S
C977 C978 1.523 . S
C978 C959 1.368 . S
C978 C972 1.368 . S
C978 C977 1.523 . S
C979 C963 1.429 . S
C979 C975 1.429 . S
C979 C980 1.523 . S
C980 C964 1.368 . S
C980 C976 1.368 . S
C980 C979 1.523 . S
H981 C956 0.950 . S
H982 C958 0.950 . S
H983 C959 0.949 . S
H984 C961 0.950 . S
H985 C963 0.950 . S
C986 C987 1.349 . S
C986 C988 1.327 . S
C986 H1011 0.950 . S
C987 C986 1.349 . S
C987 C1003 1.349 . S
C988 C986 1.327 . S
C988 C1007 1.429 . S
C988 H1012 0.950 . S
C989 C1006 1.574 1_556 S
C989 C1008 1.368 . S
C989 H1013 0.949 . S
H990 C994 0.949 . S
C991 C992 1.349 . S
C991 C993 1.327 . S
C991 H1014 0.950 . S
C992 C991 1.349 . S
C992 C1004 1.349 . S
C993 C991 1.327 . S
C993 C1009 1.429 . S
C993 H1015 0.950 . S
C994 H990 0.949 . S
C994 C1002 1.574 1_554 S
C994 C1010 1.368 . S
H995 C1003 0.950 . S
H996 C1001 0.950 . S
H997 C1002 0.949 . S
H998 C1004 0.950 . S
H999 C1005 0.950 . S
H1000 C1006 0.949 . S
C1001 H996 0.950 . S
C1001 C1003 1.327 . S
C1001 C1007 1.429 . S
C1002 C994 1.574 1_556 S
C1002 H997 0.949 . S
C1002 C1008 1.368 . S
C1003 C987 1.349 . S
C1003 H995 0.950 . S
C1003 C1001 1.327 . S
C1004 C992 1.349 . S
C1004 H998 0.950 . S
C1004 C1005 1.327 . S
C1005 H999 0.950 . S
C1005 C1004 1.327 . S
C1005 C1009 1.429 . S
C1006 C989 1.574 1_554 S
C1006 H1000 0.949 . S
C1006 C1010 1.368 . S
C1007 C988 1.429 . S
C1007 C1001 1.429 . S
C1007 C1008 1.523 . S
C1008 C989 1.368 . S
C1008 C1002 1.368 . S
C1008 C1007 1.523 . S
C1009 C993 1.429 . S
C1009 C1005 1.429 . S
C1009 C1010 1.523 . S
C1010 C994 1.368 . S
C1010 C1006 1.368 . S
C1010 C1009 1.523 . S
H1011 C986 0.950 . S
H1012 C988 0.950 . S
H1013 C989 0.949 . S
H1014 C991 0.950 . S
H1015 C993 0.950 . S
C1016 C1017 1.349 . S
C1016 C1018 1.327 . S
C1016 H1041 0.950 . S
C1017 C1016 1.349 . S
C1017 C1033 1.349 . S
C1018 C1016 1.327 . S
C1018 C1037 1.429 . S
C1018 H1042 0.950 . S
C1019 C1036 1.574 . S
C1019 C1038 1.368 . S
C1019 H1043 0.949 . S
H1020 C1024 0.949 . S
C1021 C1022 1.349 . S
C1021 C1023 1.327 . S
C1021 H1044 0.950 . S
C1022 C1021 1.349 . S
C1022 C1034 1.349 . S
C1023 C1021 1.327 . S
C1023 C1039 1.429 . S
C1023 H1045 0.950 . S
C1024 H1020 0.949 . S
C1024 C1032 1.574 . S
C1024 C1040 1.368 . S
H1025 C1033 0.950 . S
H1026 C1031 0.950 . S
H1027 C1032 0.949 . S
H1028 C1034 0.950 . S
H1029 C1035 0.950 . S
H1030 C1036 0.949 . S
C1031 H1026 0.950 . S
C1031 C1033 1.327 . S
C1031 C1037 1.429 . S
C1032 C1024 1.574 . S
C1032 H1027 0.949 . S
C1032 C1038 1.368 . S
C1033 C1017 1.349 . S
C1033 H1025 0.950 . S
C1033 C1031 1.327 . S
C1034 C1022 1.349 . S
C1034 H1028 0.950 . S
C1034 C1035 1.327 . S
C1035 H1029 0.950 . S
C1035 C1034 1.327 . S
C1035 C1039 1.429 . S
C1036 C1019 1.574 . S
C1036 H1030 0.949 . S
C1036 C1040 1.368 . S
C1037 C1018 1.429 . S
C1037 C1031 1.429 . S
C1037 C1038 1.523 . S
C1038 C1019 1.368 . S
C1038 C1032 1.368 . S
C1038 C1037 1.523 . S
C1039 C1023 1.429 . S
C1039 C1035 1.429 . S
C1039 C1040 1.523 . S
C1040 C1024 1.368 . S
C1040 C1036 1.368 . S
C1040 C1039 1.523 . S
H1041 C1016 0.950 . S
H1042 C1018 0.950 . S
H1043 C1019 0.949 . S
H1044 C1021 0.950 . S
H1045 C1023 0.950 . S
C1046 C1047 1.349 . S
C1046 C1048 1.327 . S
C1046 H1071 0.950 . S
C1047 C1046 1.349 . S
C1047 C1063 1.349 . S
C1048 C1046 1.327 . S
C1048 C1067 1.429 . S
C1048 H1072 0.950 . S
C1049 C1066 1.574 . S
C1049 C1068 1.368 . S
C1049 H1073 0.949 . S
H1050 C1054 0.949 . S
C1051 C1052 1.349 . S
C1051 C1053 1.327 . S
C1051 H1074 0.950 . S
C1052 C1051 1.349 . S
C1052 C1064 1.349 . S
C1053 C1051 1.327 . S
C1053 C1069 1.429 . S
C1053 H1075 0.950 . S
C1054 H1050 0.949 . S
C1054 C1062 1.574 . S
C1054 C1070 1.368 . S
H1055 C1063 0.950 . S
H1056 C1061 0.950 . S
H1057 C1062 0.949 . S
H1058 C1064 0.950 . S
H1059 C1065 0.950 . S
H1060 C1066 0.949 . S
C1061 H1056 0.950 . S
C1061 C1063 1.327 . S
C1061 C1067 1.429 . S
C1062 C1054 1.574 . S
C1062 H1057 0.949 . S
C1062 C1068 1.368 . S
C1063 C1047 1.349 . S
C1063 H1055 0.950 . S
C1063 C1061 1.327 . S
C1064 C1052 1.349 . S
C1064 H1058 0.950 . S
C1064 C1065 1.327 . S
C1065 H1059 0.950 . S
C1065 C1064 1.327 . S
C1065 C1069 1.429 . S
C1066 C1049 1.574 . S
C1066 H1060 0.949 . S
C1066 C1070 1.368 . S
C1067 C1048 1.429 . S
C1067 C1061 1.429 . S
C1067 C1068 1.523 . S
C1068 C1049 1.368 . S
C1068 C1062 1.368 . S
C1068 C1067 1.523 . S
C1069 C1053 1.429 . S
C1069 C1065 1.429 . S
C1069 C1070 1.523 . S
C1070 C1054 1.368 . S
C1070 C1066 1.368 . S
C1070 C1069 1.523 . S
H1071 C1046 0.950 . S
H1072 C1048 0.950 . S
H1073 C1049 0.949 . S
H1074 C1051 0.950 . S
H1075 C1053 0.950 . S
C1076 C1077 1.349 . S
C1076 C1078 1.327 . S
C1076 H1101 0.950 . S
C1077 C1076 1.349 . S
C1077 C1093 1.349 . S
C1078 C1076 1.327 . S
C1078 C1097 1.429 . S
C1078 H1102 0.950 . S
C1079 C1096 1.574 . S
C1079 C1098 1.368 . S
C1079 H1103 0.949 . S
H1080 C1084 0.949 . S
C1081 C1082 1.349 . S
C1081 C1083 1.327 . S
C1081 H1104 0.950 . S
C1082 C1081 1.349 . S
C1082 C1094 1.349 . S
C1083 C1081 1.327 . S
C1083 C1099 1.429 . S
C1083 H1105 0.950 . S
C1084 H1080 0.949 . S
C1084 C1092 1.574 . S
C1084 C1100 1.368 . S
H1085 C1093 0.950 . S
H1086 C1091 0.950 . S
H1087 C1092 0.949 . S
H1088 C1094 0.950 . S
H1089 C1095 0.950 . S
H1090 C1096 0.949 . S
C1091 H1086 0.950 . S
C1091 C1093 1.327 . S
C1091 C1097 1.429 . S
C1092 C1084 1.574 . S
C1092 H1087 0.949 . S
C1092 C1098 1.368 . S
C1093 C1077 1.349 . S
C1093 H1085 0.950 . S
C1093 C1091 1.327 . S
C1094 C1082 1.349 . S
C1094 H1088 0.950 . S
C1094 C1095 1.327 . S
C1095 H1089 0.950 . S
C1095 C1094 1.327 . S
C1095 C1099 1.429 . S
C1096 C1079 1.574 . S
C1096 H1090 0.949 . S
C1096 C1100 1.368 . S
C1097 C1078 1.429 . S
C1097 C1091 1.429 . S
C1097 C1098 1.523 . S
C1098 C1079 1.368 . S
C1098 C1092 1.368 . S
C1098 C1097 1.523 . S
C1099 C1083 1.429 . S
C1099 C1095 1.429 . S
C1099 C1100 1.523 . S
C1100 C1084 1.368 . S
C1100 C1096 1.368 . S
C1100 C1099 1.523 . S
H1101 C1076 0.950 . S
H1102 C1078 0.950 . S
H1103 C1079 0.949 . S
H1104 C1081 0.950 . S
H1105 C1083 0.950 . S
C1106 C1107 1.349 . S
C1106 C1108 1.327 . S
C1106 H1131 0.950 . S
C1107 C1106 1.349 . S
C1107 C1123 1.349 . S
C1108 C1106 1.327 . S
C1108 C1127 1.429 . S
C1108 H1132 0.950 . S
C1109 C1126 1.574 . S
C1109 C1128 1.368 . S
C1109 H1133 0.949 . S
H1110 C1114 0.949 . S
C1111 C1112 1.349 . S
C1111 C1113 1.327 . S
C1111 H1134 0.950 . S
C1112 C1111 1.349 . S
C1112 C1124 1.349 . S
C1113 C1111 1.327 . S
C1113 C1129 1.429 . S
C1113 H1135 0.950 . S
C1114 H1110 0.949 . S
C1114 C1122 1.574 . S
C1114 C1130 1.368 . S
H1115 C1123 0.950 . S
H1116 C1121 0.950 . S
H1117 C1122 0.949 . S
H1118 C1124 0.950 . S
H1119 C1125 0.950 . S
H1120 C1126 0.949 . S
C1121 H1116 0.950 . S
C1121 C1123 1.327 . S
C1121 C1127 1.429 . S
C1122 C1114 1.574 . S
C1122 H1117 0.949 . S
C1122 C1128 1.368 . S
C1123 C1107 1.349 . S
C1123 H1115 0.950 . S
C1123 C1121 1.327 . S
C1124 C1112 1.349 . S
C1124 H1118 0.950 . S
C1124 C1125 1.327 . S
C1125 H1119 0.950 . S
C1125 C1124 1.327 . S
C1125 C1129 1.429 . S
C1126 C1109 1.574 . S
C1126 H1120 0.949 . S
C1126 C1130 1.368 . S
C1127 C1108 1.429 . S
C1127 C1121 1.429 . S
C1127 C1128 1.523 . S
C1128 C1109 1.368 . S
C1128 C1122 1.368 . S
C1128 C1127 1.523 . S
C1129 C1113 1.429 . S
C1129 C1125 1.429 . S
C1129 C1130 1.523 . S
C1130 C1114 1.368 . S
C1130 C1126 1.368 . S
C1130 C1129 1.523 . S
H1131 C1106 0.950 . S
H1132 C1108 0.950 . S
H1133 C1109 0.949 . S
H1134 C1111 0.950 . S
H1135 C1113 0.950 . S
C1136 C1137 1.349 . S
C1136 C1138 1.327 . S
C1136 H1161 0.950 . S
C1137 C1136 1.349 . S
C1137 C1153 1.349 . S
C1138 C1136 1.327 . S
C1138 C1157 1.429 . S
C1138 H1162 0.950 . S
C1139 C1156 1.574 . S
C1139 C1158 1.368 . S
C1139 H1163 0.949 . S
H1140 C1144 0.949 . S
C1141 C1142 1.349 . S
C1141 C1143 1.327 . S
C1141 H1164 0.950 . S
C1142 C1141 1.349 . S
C1142 C1154 1.349 . S
C1143 C1141 1.327 . S
C1143 C1159 1.429 . S
C1143 H1165 0.950 . S
C1144 H1140 0.949 . S
C1144 C1152 1.574 . S
C1144 C1160 1.368 . S
H1145 C1153 0.950 . S
H1146 C1151 0.950 . S
H1147 C1152 0.949 . S
H1148 C1154 0.950 . S
H1149 C1155 0.950 . S
H1150 C1156 0.949 . S
C1151 H1146 0.950 . S
C1151 C1153 1.327 . S
C1151 C1157 1.429 . S
C1152 C1144 1.574 . S
C1152 H1147 0.949 . S
C1152 C1158 1.368 . S
C1153 C1137 1.349 . S
C1153 H1145 0.950 . S
C1153 C1151 1.327 . S
C1154 C1142 1.349 . S
C1154 H1148 0.950 . S
C1154 C1155 1.327 . S
C1155 H1149 0.950 . S
C1155 C1154 1.327 . S
C1155 C1159 1.429 . S
C1156 C1139 1.574 . S
C1156 H1150 0.949 . S
C1156 C1160 1.368 . S
C1157 C1138 1.429 . S
C1157 C1151 1.429 . S
C1157 C1158 1.523 . S
C1158 C1139 1.368 . S
C1158 C1152 1.368 . S
C1158 C1157 1.523 . S
C1159 C1143 1.429 . S
C1159 C1155 1.429 . S
C1159 C1160 1.523 . S
C1160 C1144 1.368 . S
C1160 C1156 1.368 . S
C1160 C1159 1.523 . S
H1161 C1136 0.950 . S
H1162 C1138 0.950 . S
H1163 C1139 0.949 . S
H1164 C1141 0.950 . S
H1165 C1143 0.950 . S
C1166 C1167 1.349 . S
C1166 C1168 1.327 . S
C1166 H1191 0.950 . S
C1167 C1166 1.349 . S
C1167 C1183 1.349 . S
C1168 C1166 1.327 . S
C1168 C1187 1.429 . S
C1168 H1192 0.950 . S
C1169 C1186 1.574 . S
C1169 C1188 1.368 . S
C1169 H1193 0.949 . S
H1170 C1174 0.949 . S
C1171 C1172 1.349 . S
C1171 C1173 1.327 . S
C1171 H1194 0.950 . S
C1172 C1171 1.349 . S
C1172 C1184 1.349 . S
C1173 C1171 1.327 . S
C1173 C1189 1.429 . S
C1173 H1195 0.950 . S
C1174 H1170 0.949 . S
C1174 C1182 1.574 . S
C1174 C1190 1.368 . S
H1175 C1183 0.950 . S
H1176 C1181 0.950 . S
H1177 C1182 0.949 . S
H1178 C1184 0.950 . S
H1179 C1185 0.950 . S
H1180 C1186 0.949 . S
C1181 H1176 0.950 . S
C1181 C1183 1.327 . S
C1181 C1187 1.429 . S
C1182 C1174 1.574 . S
C1182 H1177 0.949 . S
C1182 C1188 1.368 . S
C1183 C1167 1.349 . S
C1183 H1175 0.950 . S
C1183 C1181 1.327 . S
C1184 C1172 1.349 . S
C1184 H1178 0.950 . S
C1184 C1185 1.327 . S
C1185 H1179 0.950 . S
C1185 C1184 1.327 . S
C1185 C1189 1.429 . S
C1186 C1169 1.574 . S
C1186 H1180 0.949 . S
C1186 C1190 1.368 . S
C1187 C1168 1.429 . S
C1187 C1181 1.429 . S
C1187 C1188 1.523 . S
C1188 C1169 1.368 . S
C1188 C1182 1.368 . S
C1188 C1187 1.523 . S
C1189 C1173 1.429 . S
C1189 C1185 1.429 . S
C1189 C1190 1.523 . S
C1190 C1174 1.368 . S
C1190 C1186 1.368 . S
C1190 C1189 1.523 . S
H1191 C1166 0.950 . S
H1192 C1168 0.950 . S
H1193 C1169 0.949 . S
H1194 C1171 0.950 . S
H1195 C1173 0.950 . S
C1196 C1197 1.349 . S
C1196 C1198 1.327 . S
C1196 H1221 0.950 . S
C1197 C1196 1.349 . S
C1197 C1213 1.349 . S
C1198 C1196 1.327 . S
C1198 C1217 1.429 . S
C1198 H1222 0.950 . S
C1199 C1216 1.574 . S
C1199 C1218 1.368 . S
C1199 H1223 0.949 . S
H1200 C1204 0.949 . S
C1201 C1202 1.349 . S
C1201 C1203 1.327 . S
C1201 H1224 0.950 . S
C1202 C1201 1.349 . S
C1202 C1214 1.349 . S
C1203 C1201 1.327 . S
C1203 C1219 1.429 . S
C1203 H1225 0.950 . S
C1204 H1200 0.949 . S
C1204 C1212 1.574 . S
C1204 C1220 1.368 . S
H1205 C1213 0.950 . S
H1206 C1211 0.950 . S
H1207 C1212 0.949 . S
H1208 C1214 0.950 . S
H1209 C1215 0.950 . S
H1210 C1216 0.949 . S
C1211 H1206 0.950 . S
C1211 C1213 1.327 . S
C1211 C1217 1.429 . S
C1212 C1204 1.574 . S
C1212 H1207 0.949 . S
C1212 C1218 1.368 . S
C1213 C1197 1.349 . S
C1213 H1205 0.950 . S
C1213 C1211 1.327 . S
C1214 C1202 1.349 . S
C1214 H1208 0.950 . S
C1214 C1215 1.327 . S
C1215 H1209 0.950 . S
C1215 C1214 1.327 . S
C1215 C1219 1.429 . S
C1216 C1199 1.574 . S
C1216 H1210 0.949 . S
C1216 C1220 1.368 . S
C1217 C1198 1.429 . S
C1217 C1211 1.429 . S
C1217 C1218 1.523 . S
C1218 C1199 1.368 . S
C1218 C1212 1.368 . S
C1218 C1217 1.523 . S
C1219 C1203 1.429 . S
C1219 C1215 1.429 . S
C1219 C1220 1.523 . S
C1220 C1204 1.368 . S
C1220 C1216 1.368 . S
C1220 C1219 1.523 . S
H1221 C1196 0.950 . S
H1222 C1198 0.950 . S
H1223 C1199 0.949 . S
H1224 C1201 0.950 . S
H1225 C1203 0.950 . S
C1226 C1227 1.349 . S
C1226 C1228 1.327 . S
C1226 H1251 0.950 . S
C1227 C1226 1.349 . S
C1227 C1243 1.349 . S
C1228 C1226 1.327 . S
C1228 C1247 1.429 . S
C1228 H1252 0.950 . S
C1229 C1246 1.574 . S
C1229 C1248 1.368 . S
C1229 H1253 0.949 . S
H1230 C1234 0.949 . S
C1231 C1232 1.349 . S
C1231 C1233 1.327 . S
C1231 H1254 0.950 . S
C1232 C1231 1.349 . S
C1232 C1244 1.349 . S
C1233 C1231 1.327 . S
C1233 C1249 1.429 . S
C1233 H1255 0.950 . S
C1234 H1230 0.949 . S
C1234 C1242 1.574 . S
C1234 C1250 1.368 . S
H1235 C1243 0.950 . S
H1236 C1241 0.950 . S
H1237 C1242 0.949 . S
H1238 C1244 0.950 . S
H1239 C1245 0.950 . S
H1240 C1246 0.949 . S
C1241 H1236 0.950 . S
C1241 C1243 1.327 . S
C1241 C1247 1.429 . S
C1242 C1234 1.574 . S
C1242 H1237 0.949 . S
C1242 C1248 1.368 . S
C1243 C1227 1.349 . S
C1243 H1235 0.950 . S
C1243 C1241 1.327 . S
C1244 C1232 1.349 . S
C1244 H1238 0.950 . S
C1244 C1245 1.327 . S
C1245 H1239 0.950 . S
C1245 C1244 1.327 . S
C1245 C1249 1.429 . S
C1246 C1229 1.574 . S
C1246 H1240 0.949 . S
C1246 C1250 1.368 . S
C1247 C1228 1.429 . S
C1247 C1241 1.429 . S
C1247 C1248 1.523 . S
C1248 C1229 1.368 . S
C1248 C1242 1.368 . S
C1248 C1247 1.523 . S
C1249 C1233 1.429 . S
C1249 C1245 1.429 . S
C1249 C1250 1.523 . S
C1250 C1234 1.368 . S
C1250 C1246 1.368 . S
C1250 C1249 1.523 . S
H1251 C1226 0.950 . S
H1252 C1228 0.950 . S
H1253 C1229 0.949 . S
H1254 C1231 0.950 . S
H1255 C1233 0.950 . S
C1256 C1257 1.349 . S
C1256 C1258 1.327 . S
C1256 H1281 0.950 . S
C1257 C1256 1.349 . S
C1257 C1273 1.349 . S
C1258 C1256 1.327 . S
C1258 C1277 1.429 . S
C1258 H1282 0.950 . S
C1259 C1276 1.574 1_556 S
C1259 C1278 1.368 . S
C1259 H1283 0.949 . S
H1260 C1264 0.949 . S
C1261 C1262 1.349 . S
C1261 C1263 1.327 . S
C1261 H1284 0.950 . S
C1262 C1261 1.349 . S
C1262 C1274 1.349 . S
C1263 C1261 1.327 . S
C1263 C1279 1.429 . S
C1263 H1285 0.950 . S
C1264 H1260 0.949 . S
C1264 C1272 1.574 1_554 S
C1264 C1280 1.368 . S
H1265 C1273 0.950 . S
H1266 C1271 0.950 . S
H1267 C1272 0.949 . S
H1268 C1274 0.950 . S
H1269 C1275 0.950 . S
H1270 C1276 0.949 . S
C1271 H1266 0.950 . S
C1271 C1273 1.327 . S
C1271 C1277 1.429 . S
C1272 C1264 1.574 1_556 S
C1272 H1267 0.949 . S
C1272 C1278 1.368 . S
C1273 C1257 1.349 . S
C1273 H1265 0.950 . S
C1273 C1271 1.327 . S
C1274 C1262 1.349 . S
C1274 H1268 0.950 . S
C1274 C1275 1.327 . S
C1275 H1269 0.950 . S
C1275 C1274 1.327 . S
C1275 C1279 1.429 . S
C1276 C1259 1.574 1_554 S
C1276 H1270 0.949 . S
C1276 C1280 1.368 . S
C1277 C1258 1.429 . S
C1277 C1271 1.429 . S
C1277 C1278 1.523 . S
C1278 C1259 1.368 . S
C1278 C1272 1.368 . S
C1278 C1277 1.523 . S
C1279 C1263 1.429 . S
C1279 C1275 1.429 . S
C1279 C1280 1.523 . S
C1280 C1264 1.368 . S
C1280 C1276 1.368 . S
C1280 C1279 1.523 . S
H1281 C1256 0.950 . S
H1282 C1258 0.950 . S
H1283 C1259 0.949 . S
H1284 C1261 0.950 . S
H1285 C1263 0.950 . S
C1286 C1287 1.349 . S
C1286 C1288 1.327 . S
C1286 H1311 0.950 . S
C1287 C1286 1.349 . S
C1287 C1303 1.349 . S
C1288 C1286 1.327 . S
C1288 C1307 1.429 . S
C1288 H1312 0.950 . S
C1289 C1306 1.574 1_554 S
C1289 C1308 1.368 . S
C1289 H1313 0.949 . S
H1290 C1294 0.949 . S
C1291 C1292 1.349 . S
C1291 C1293 1.327 . S
C1291 H1314 0.950 . S
C1292 C1291 1.349 . S
C1292 C1304 1.349 . S
C1293 C1291 1.327 . S
C1293 C1309 1.429 . S
C1293 H1315 0.950 . S
C1294 H1290 0.949 . S
C1294 C1302 1.574 1_556 S
C1294 C1310 1.368 . S
H1295 C1303 0.950 . S
H1296 C1301 0.950 . S
H1297 C1302 0.949 . S
H1298 C1304 0.950 . S
H1299 C1305 0.950 . S
H1300 C1306 0.949 . S
C1301 H1296 0.950 . S
C1301 C1303 1.327 . S
C1301 C1307 1.429 . S
C1302 C1294 1.574 1_554 S
C1302 H1297 0.949 . S
C1302 C1308 1.368 . S
C1303 C1287 1.349 . S
C1303 H1295 0.950 . S
C1303 C1301 1.327 . S
C1304 C1292 1.349 . S
C1304 H1298 0.950 . S
C1304 C1305 1.327 . S
C1305 H1299 0.950 . S
C1305 C1304 1.327 . S
C1305 C1309 1.429 . S
C1306 C1289 1.574 1_556 S
C1306 H1300 0.949 . S
C1306 C1310 1.368 . S
C1307 C1288 1.429 . S
C1307 C1301 1.429 . S
C1307 C1308 1.523 . S
C1308 C1289 1.368 . S
C1308 C1302 1.368 . S
C1308 C1307 1.523 . S
C1309 C1293 1.429 . S
C1309 C1305 1.429 . S
C1309 C1310 1.523 . S
C1310 C1294 1.368 . S
C1310 C1306 1.368 . S
C1310 C1309 1.523 . S
H1311 C1286 0.950 . S
H1312 C1288 0.950 . S
H1313 C1289 0.949 . S
H1314 C1291 0.950 . S
H1315 C1293 0.950 . S
C1316 C1317 1.349 . S
C1316 C1318 1.327 . S
C1316 H1341 0.950 . S
C1317 C1316 1.349 . S
C1317 C1333 1.349 . S
C1318 C1316 1.327 . S
C1318 C1337 1.429 . S
C1318 H1342 0.950 . S
C1319 C1336 1.574 1_554 S
C1319 C1338 1.368 . S
C1319 H1343 0.949 . S
H1320 C1324 0.949 . S
C1321 C1322 1.349 . S
C1321 C1323 1.327 . S
C1321 H1344 0.950 . S
C1322 C1321 1.349 . S
C1322 C1334 1.349 . S
C1323 C1321 1.327 . S
C1323 C1339 1.429 . S
C1323 H1345 0.950 . S
C1324 H1320 0.949 . S
C1324 C1332 1.574 1_556 S
C1324 C1340 1.368 . S
H1325 C1333 0.950 . S
H1326 C1331 0.950 . S
H1327 C1332 0.949 . S
H1328 C1334 0.950 . S
H1329 C1335 0.950 . S
H1330 C1336 0.949 . S
C1331 H1326 0.950 . S
C1331 C1333 1.327 . S
C1331 C1337 1.429 . S
C1332 C1324 1.574 1_554 S
C1332 H1327 0.949 . S
C1332 C1338 1.368 . S
C1333 C1317 1.349 . S
C1333 H1325 0.950 . S
C1333 C1331 1.327 . S
C1334 C1322 1.349 . S
C1334 H1328 0.950 . S
C1334 C1335 1.327 . S
C1335 H1329 0.950 . S
C1335 C1334 1.327 . S
C1335 C1339 1.429 . S
C1336 C1319 1.574 1_556 S
C1336 H1330 0.949 . S
C1336 C1340 1.368 . S
C1337 C1318 1.429 . S
C1337 C1331 1.429 . S
C1337 C1338 1.523 . S
C1338 C1319 1.368 . S
C1338 C1332 1.368 . S
C1338 C1337 1.523 . S
C1339 C1323 1.429 . S
C1339 C1335 1.429 . S
C1339 C1340 1.523 . S
C1340 C1324 1.368 . S
C1340 C1336 1.368 . S
C1340 C1339 1.523 . S
H1341 C1316 0.950 . S
H1342 C1318 0.950 . S
H1343 C1319 0.949 . S
H1344 C1321 0.950 . S
H1345 C1323 0.950 . S
C1346 C1347 1.349 . S
C1346 C1348 1.327 . S
C1346 H1371 0.950 . S
C1347 C1346 1.349 . S
C1347 C1363 1.349 . S
C1348 C1346 1.327 . S
C1348 C1367 1.429 . S
C1348 H1372 0.950 . S
C1349 C1366 1.574 1_556 S
C1349 C1368 1.368 . S
C1349 H1373 0.949 . S
H1350 C1354 0.949 . S
C1351 C1352 1.349 . S
C1351 C1353 1.327 . S
C1351 H1374 0.950 . S
C1352 C1351 1.349 . S
C1352 C1364 1.349 . S
C1353 C1351 1.327 . S
C1353 C1369 1.429 . S
C1353 H1375 0.950 . S
C1354 H1350 0.949 . S
C1354 C1362 1.574 1_554 S
C1354 C1370 1.368 . S
H1355 C1363 0.950 . S
H1356 C1361 0.950 . S
H1357 C1362 0.949 . S
H1358 C1364 0.950 . S
H1359 C1365 0.950 . S
H1360 C1366 0.949 . S
C1361 H1356 0.950 . S
C1361 C1363 1.327 . S
C1361 C1367 1.429 . S
C1362 C1354 1.574 1_556 S
C1362 H1357 0.949 . S
C1362 C1368 1.368 . S
C1363 C1347 1.349 . S
C1363 H1355 0.950 . S
C1363 C1361 1.327 . S
C1364 C1352 1.349 . S
C1364 H1358 0.950 . S
C1364 C1365 1.327 . S
C1365 H1359 0.950 . S
C1365 C1364 1.327 . S
C1365 C1369 1.429 . S
C1366 C1349 1.574 1_554 S
C1366 H1360 0.949 . S
C1366 C1370 1.368 . S
C1367 C1348 1.429 . S
C1367 C1361 1.429 . S
C1367 C1368 1.523 . S
C1368 C1349 1.368 . S
C1368 C1362 1.368 . S
C1368 C1367 1.523 . S
C1369 C1353 1.429 . S
C1369 C1365 1.429 . S
C1369 C1370 1.523 . S
C1370 C1354 1.368 . S
C1370 C1366 1.368 . S
C1370 C1369 1.523 . S
H1371 C1346 0.950 . S
H1372 C1348 0.950 . S
H1373 C1349 0.949 . S
H1374 C1351 0.950 . S
H1375 C1353 0.950 . S
C1376 C1377 1.349 . S
C1376 C1378 1.327 . S
C1376 H1401 0.950 . S
C1377 C1376 1.349 . S
C1377 C1393 1.349 . S
C1378 C1376 1.327 . S
C1378 C1397 1.429 . S
C1378 H1402 0.950 . S
C1379 C1396 1.574 1_545 S
C1379 C1398 1.368 . S
C1379 H1403 0.949 . S
H1380 C1384 0.949 . S
C1381 C1382 1.349 . S
C1381 C1383 1.327 . S
C1381 H1404 0.950 . S
C1382 C1381 1.349 . S
C1382 C1394 1.349 . S
C1383 C1381 1.327 . S
C1383 C1399 1.429 . S
C1383 H1405 0.950 . S
C1384 H1380 0.949 . S
C1384 C1392 1.574 1_565 S
C1384 C1400 1.368 . S
H1385 C1393 0.950 . S
H1386 C1391 0.950 . S
H1387 C1392 0.949 . S
H1388 C1394 0.950 . S
H1389 C1395 0.950 . S
H1390 C1396 0.949 . S
C1391 H1386 0.950 . S
C1391 C1393 1.327 . S
C1391 C1397 1.429 . S
C1392 C1384 1.574 1_545 S
C1392 H1387 0.949 . S
C1392 C1398 1.368 . S
C1393 C1377 1.349 . S
C1393 H1385 0.950 . S
C1393 C1391 1.327 . S
C1394 C1382 1.349 . S
C1394 H1388 0.950 . S
C1394 C1395 1.327 . S
C1395 H1389 0.950 . S
C1395 C1394 1.327 . S
C1395 C1399 1.429 . S
C1396 C1379 1.574 1_565 S
C1396 H1390 0.949 . S
C1396 C1400 1.368 . S
C1397 C1378 1.429 . S
C1397 C1391 1.429 . S
C1397 C1398 1.523 . S
C1398 C1379 1.368 . S
C1398 C1392 1.368 . S
C1398 C1397 1.523 . S
C1399 C1383 1.429 . S
C1399 C1395 1.429 . S
C1399 C1400 1.523 . S
C1400 C1384 1.368 . S
C1400 C1396 1.368 . S
C1400 C1399 1.523 . S
H1401 C1376 0.950 . S
H1402 C1378 0.950 . S
H1403 C1379 0.949 . S
H1404 C1381 0.950 . S
H1405 C1383 0.950 . S
C1406 C1407 1.349 . S
C1406 C1408 1.327 . S
C1406 H1431 0.950 . S
C1407 C1406 1.349 . S
C1407 C1423 1.349 . S
C1408 C1406 1.327 . S
C1408 C1427 1.429 . S
C1408 H1432 0.950 . S
C1409 C1426 1.574 1_655 S
C1409 C1428 1.368 . S
C1409 H1433 0.949 . S
H1410 C1414 0.949 . S
C1411 C1412 1.349 . S
C1411 C1413 1.327 . S
C1411 H1434 0.950 . S
C1412 C1411 1.349 . S
C1412 C1424 1.349 . S
C1413 C1411 1.327 . S
C1413 C1429 1.429 . S
C1413 H1435 0.950 . S
C1414 H1410 0.949 . S
C1414 C1422 1.574 1_455 S
C1414 C1430 1.368 . S
H1415 C1423 0.950 . S
H1416 C1421 0.950 . S
H1417 C1422 0.949 . S
H1418 C1424 0.950 . S
H1419 C1425 0.950 . S
H1420 C1426 0.949 . S
C1421 H1416 0.950 . S
C1421 C1423 1.327 . S
C1421 C1427 1.429 . S
C1422 C1414 1.574 1_655 S
C1422 H1417 0.949 . S
C1422 C1428 1.368 . S
C1423 C1407 1.349 . S
C1423 H1415 0.950 . S
C1423 C1421 1.327 . S
C1424 C1412 1.349 . S
C1424 H1418 0.950 . S
C1424 C1425 1.327 . S
C1425 H1419 0.950 . S
C1425 C1424 1.327 . S
C1425 C1429 1.429 . S
C1426 C1409 1.574 1_455 S
C1426 H1420 0.949 . S
C1426 C1430 1.368 . S
C1427 C1408 1.429 . S
C1427 C1421 1.429 . S
C1427 C1428 1.523 . S
C1428 C1409 1.368 . S
C1428 C1422 1.368 . S
C1428 C1427 1.523 . S
C1429 C1413 1.429 . S
C1429 C1425 1.429 . S
C1429 C1430 1.523 . S
C1430 C1414 1.368 . S
C1430 C1426 1.368 . S
C1430 C1429 1.523 . S
H1431 C1406 0.950 . S
H1432 C1408 0.950 . S
H1433 C1409 0.949 . S
H1434 C1411 0.950 . S
H1435 C1413 0.950 . S
C1436 C1437 1.349 . S
C1436 C1438 1.327 . S
C1436 H1461 0.950 . S
C1437 C1436 1.349 . S
C1437 C1453 1.349 . S
C1438 C1436 1.327 . S
C1438 C1457 1.429 . S
C1438 H1462 0.950 . S
C1439 C1456 1.574 1_545 S
C1439 C1458 1.368 . S
C1439 H1463 0.949 . S
H1440 C1444 0.949 . S
C1441 C1442 1.349 . S
C1441 C1443 1.327 . S
C1441 H1464 0.950 . S
C1442 C1441 1.349 . S
C1442 C1454 1.349 . S
C1443 C1441 1.327 . S
C1443 C1459 1.429 . S
C1443 H1465 0.950 . S
C1444 H1440 0.949 . S
C1444 C1452 1.574 1_565 S
C1444 C1460 1.368 . S
H1445 C1453 0.950 . S
H1446 C1451 0.950 . S
H1447 C1452 0.949 . S
H1448 C1454 0.950 . S
H1449 C1455 0.950 . S
H1450 C1456 0.949 . S
C1451 H1446 0.950 . S
C1451 C1453 1.327 . S
C1451 C1457 1.429 . S
C1452 C1444 1.574 1_545 S
C1452 H1447 0.949 . S
C1452 C1458 1.368 . S
C1453 C1437 1.349 . S
C1453 H1445 0.950 . S
C1453 C1451 1.327 . S
C1454 C1442 1.349 . S
C1454 H1448 0.950 . S
C1454 C1455 1.327 . S
C1455 H1449 0.950 . S
C1455 C1454 1.327 . S
C1455 C1459 1.429 . S
C1456 C1439 1.574 1_565 S
C1456 H1450 0.949 . S
C1456 C1460 1.368 . S
C1457 C1438 1.429 . S
C1457 C1451 1.429 . S
C1457 C1458 1.523 . S
C1458 C1439 1.368 . S
C1458 C1452 1.368 . S
C1458 C1457 1.523 . S
C1459 C1443 1.429 . S
C1459 C1455 1.429 . S
C1459 C1460 1.523 . S
C1460 C1444 1.368 . S
C1460 C1456 1.368 . S
C1460 C1459 1.523 . S
H1461 C1436 0.950 . S
H1462 C1438 0.950 . S
H1463 C1439 0.949 . S
H1464 C1441 0.950 . S
H1465 C1443 0.950 . S
C1466 C1467 1.349 . S
C1466 C1468 1.327 . S
C1466 H1491 0.950 . S
C1467 C1466 1.349 . S
C1467 C1483 1.349 . S
C1468 C1466 1.327 . S
C1468 C1487 1.429 . S
C1468 H1492 0.950 . S
C1469 C1486 1.574 1_455 S
C1469 C1488 1.368 . S
C1469 H1493 0.949 . S
H1470 C1474 0.949 . S
C1471 C1472 1.349 . S
C1471 C1473 1.327 . S
C1471 H1494 0.950 . S
C1472 C1471 1.349 . S
C1472 C1484 1.349 . S
C1473 C1471 1.327 . S
C1473 C1489 1.429 . S
C1473 H1495 0.950 . S
C1474 H1470 0.949 . S
C1474 C1482 1.574 1_655 S
C1474 C1490 1.368 . S
H1475 C1483 0.950 . S
H1476 C1481 0.950 . S
H1477 C1482 0.949 . S
H1478 C1484 0.950 . S
H1479 C1485 0.950 . S
H1480 C1486 0.949 . S
C1481 H1476 0.950 . S
C1481 C1483 1.327 . S
C1481 C1487 1.429 . S
C1482 C1474 1.574 1_455 S
C1482 H1477 0.949 . S
C1482 C1488 1.368 . S
C1483 C1467 1.349 . S
C1483 H1475 0.950 . S
C1483 C1481 1.327 . S
C1484 C1472 1.349 . S
C1484 H1478 0.950 . S
C1484 C1485 1.327 . S
C1485 H1479 0.950 . S
C1485 C1484 1.327 . S
C1485 C1489 1.429 . S
C1486 C1469 1.574 1_655 S
C1486 H1480 0.949 . S
C1486 C1490 1.368 . S
C1487 C1468 1.429 . S
C1487 C1481 1.429 . S
C1487 C1488 1.523 . S
C1488 C1469 1.368 . S
C1488 C1482 1.368 . S
C1488 C1487 1.523 . S
C1489 C1473 1.429 . S
C1489 C1485 1.429 . S
C1489 C1490 1.523 . S
C1490 C1474 1.368 . S
C1490 C1486 1.368 . S
C1490 C1489 1.523 . S
H1491 C1466 0.950 . S
H1492 C1468 0.950 . S
H1493 C1469 0.949 . S
H1494 C1471 0.950 . S
H1495 C1473 0.950 . S
C1496 C1497 1.349 . S
C1496 C1498 1.327 . S
C1496 H1521 0.950 . S
C1497 C1496 1.349 . S
C1497 C1513 1.349 . S
C1498 C1496 1.327 . S
C1498 C1517 1.429 . S
C1498 H1522 0.950 . S
C1499 C1516 1.574 1_565 S
C1499 C1518 1.368 . S
C1499 H1523 0.949 . S
H1500 C1504 0.949 . S
C1501 C1502 1.349 . S
C1501 C1503 1.327 . S
C1501 H1524 0.950 . S
C1502 C1501 1.349 . S
C1502 C1514 1.349 . S
C1503 C1501 1.327 . S
C1503 C1519 1.429 . S
C1503 H1525 0.950 . S
C1504 H1500 0.949 . S
C1504 C1512 1.574 1_545 S
C1504 C1520 1.368 . S
H1505 C1513 0.950 . S
H1506 C1511 0.950 . S
H1507 C1512 0.949 . S
H1508 C1514 0.950 . S
H1509 C1515 0.950 . S
H1510 C1516 0.949 . S
C1511 H1506 0.950 . S
C1511 C1513 1.327 . S
C1511 C1517 1.429 . S
C1512 C1504 1.574 1_565 S
C1512 H1507 0.949 . S
C1512 C1518 1.368 . S
C1513 C1497 1.349 . S
C1513 H1505 0.950 . S
C1513 C1511 1.327 . S
C1514 C1502 1.349 . S
C1514 H1508 0.950 . S
C1514 C1515 1.327 . S
C1515 H1509 0.950 . S
C1515 C1514 1.327 . S
C1515 C1519 1.429 . S
C1516 C1499 1.574 1_545 S
C1516 H1510 0.949 . S
C1516 C1520 1.368 . S
C1517 C1498 1.429 . S
C1517 C1511 1.429 . S
C1517 C1518 1.523 . S
C1518 C1499 1.368 . S
C1518 C1512 1.368 . S
C1518 C1517 1.523 . S
C1519 C1503 1.429 . S
C1519 C1515 1.429 . S
C1519 C1520 1.523 . S
C1520 C1504 1.368 . S
C1520 C1516 1.368 . S
C1520 C1519 1.523 . S
H1521 C1496 0.950 . S
H1522 C1498 0.950 . S
H1523 C1499 0.949 . S
H1524 C1501 0.950 . S
H1525 C1503 0.950 . S
C1526 C1527 1.349 . S
C1526 C1528 1.327 . S
C1526 H1551 0.950 . S
C1527 C1526 1.349 . S
C1527 C1543 1.349 . S
C1528 C1526 1.327 . S
C1528 C1547 1.429 . S
C1528 H1552 0.950 . S
C1529 C1546 1.574 1_655 S
C1529 C1548 1.368 . S
C1529 H1553 0.949 . S
H1530 C1534 0.949 . S
C1531 C1532 1.349 . S
C1531 C1533 1.327 . S
C1531 H1554 0.950 . S
C1532 C1531 1.349 . S
C1532 C1544 1.349 . S
C1533 C1531 1.327 . S
C1533 C1549 1.429 . S
C1533 H1555 0.950 . S
C1534 H1530 0.949 . S
C1534 C1542 1.574 1_455 S
C1534 C1550 1.368 . S
H1535 C1543 0.950 . S
H1536 C1541 0.950 . S
H1537 C1542 0.949 . S
H1538 C1544 0.950 . S
H1539 C1545 0.950 . S
H1540 C1546 0.949 . S
C1541 H1536 0.950 . S
C1541 C1543 1.327 . S
C1541 C1547 1.429 . S
C1542 C1534 1.574 1_655 S
C1542 H1537 0.949 . S
C1542 C1548 1.368 . S
C1543 C1527 1.349 . S
C1543 H1535 0.950 . S
C1543 C1541 1.327 . S
C1544 C1532 1.349 . S
C1544 H1538 0.950 . S
C1544 C1545 1.327 . S
C1545 H1539 0.950 . S
C1545 C1544 1.327 . S
C1545 C1549 1.429 . S
C1546 C1529 1.574 1_455 S
C1546 H1540 0.949 . S
C1546 C1550 1.368 . S
C1547 C1528 1.429 . S
C1547 C1541 1.429 . S
C1547 C1548 1.523 . S
C1548 C1529 1.368 . S
C1548 C1542 1.368 . S
C1548 C1547 1.523 . S
C1549 C1533 1.429 . S
C1549 C1545 1.429 . S
C1549 C1550 1.523 . S
C1550 C1534 1.368 . S
C1550 C1546 1.368 . S
C1550 C1549 1.523 . S
H1551 C1526 0.950 . S
H1552 C1528 0.950 . S
H1553 C1529 0.949 . S
H1554 C1531 0.950 . S
H1555 C1533 0.950 . S
C1556 C1557 1.349 . S
C1556 C1558 1.327 . S
C1556 H1581 0.950 . S
C1557 C1556 1.349 . S
C1557 C1573 1.349 . S
C1558 C1556 1.327 . S
C1558 C1577 1.429 . S
C1558 H1582 0.950 . S
C1559 C1576 1.574 1_565 S
C1559 C1578 1.368 . S
C1559 H1583 0.949 . S
H1560 C1564 0.949 . S
C1561 C1562 1.349 . S
C1561 C1563 1.327 . S
C1561 H1584 0.950 . S
C1562 C1561 1.349 . S
C1562 C1574 1.349 . S
C1563 C1561 1.327 . S
C1563 C1579 1.429 . S
C1563 H1585 0.950 . S
C1564 H1560 0.949 . S
C1564 C1572 1.574 1_545 S
C1564 C1580 1.368 . S
H1565 C1573 0.950 . S
H1566 C1571 0.950 . S
H1567 C1572 0.949 . S
H1568 C1574 0.950 . S
H1569 C1575 0.950 . S
H1570 C1576 0.949 . S
C1571 H1566 0.950 . S
C1571 C1573 1.327 . S
C1571 C1577 1.429 . S
C1572 C1564 1.574 1_565 S
C1572 H1567 0.949 . S
C1572 C1578 1.368 . S
C1573 C1557 1.349 . S
C1573 H1565 0.950 . S
C1573 C1571 1.327 . S
C1574 C1562 1.349 . S
C1574 H1568 0.950 . S
C1574 C1575 1.327 . S
C1575 H1569 0.950 . S
C1575 C1574 1.327 . S
C1575 C1579 1.429 . S
C1576 C1559 1.574 1_545 S
C1576 H1570 0.949 . S
C1576 C1580 1.368 . S
C1577 C1558 1.429 . S
C1577 C1571 1.429 . S
C1577 C1578 1.523 . S
C1578 C1559 1.368 . S
C1578 C1572 1.368 . S
C1578 C1577 1.523 . S
C1579 C1563 1.429 . S
C1579 C1575 1.429 . S
C1579 C1580 1.523 . S
C1580 C1564 1.368 . S
C1580 C1576 1.368 . S
C1580 C1579 1.523 . S
H1581 C1556 0.950 . S
H1582 C1558 0.950 . S
H1583 C1559 0.949 . S
H1584 C1561 0.950 . S
H1585 C1563 0.950 . S
C1586 C1587 1.349 . S
C1586 C1588 1.327 . S
C1586 H1611 0.950 . S
C1587 C1586 1.349 . S
C1587 C1603 1.349 . S
C1588 C1586 1.327 . S
C1588 C1607 1.429 . S
C1588 H1612 0.950 . S
C1589 C1606 1.574 1_655 S
C1589 C1608 1.368 . S
C1589 H1613 0.949 . S
H1590 C1594 0.949 . S
C1591 C1592 1.349 . S
C1591 C1593 1.327 . S
C1591 H1614 0.950 . S
C1592 C1591 1.349 . S
C1592 C1604 1.349 . S
C1593 C1591 1.327 . S
C1593 C1609 1.429 . S
C1593 H1615 0.950 . S
C1594 H1590 0.949 . S
C1594 C1602 1.574 1_455 S
C1594 C1610 1.368 . S
H1595 C1603 0.950 . S
H1596 C1601 0.950 . S
H1597 C1602 0.949 . S
H1598 C1604 0.950 . S
H1599 C1605 0.950 . S
H1600 C1606 0.949 . S
C1601 H1596 0.950 . S
C1601 C1603 1.327 . S
C1601 C1607 1.429 . S
C1602 C1594 1.574 1_655 S
C1602 H1597 0.949 . S
C1602 C1608 1.368 . S
C1603 C1587 1.349 . S
C1603 H1595 0.950 . S
C1603 C1601 1.327 . S
C1604 C1592 1.349 . S
C1604 H1598 0.950 . S
C1604 C1605 1.327 . S
C1605 H1599 0.950 . S
C1605 C1604 1.327 . S
C1605 C1609 1.429 . S
C1606 C1589 1.574 1_455 S
C1606 H1600 0.949 . S
C1606 C1610 1.368 . S
C1607 C1588 1.429 . S
C1607 C1601 1.429 . S
C1607 C1608 1.523 . S
C1608 C1589 1.368 . S
C1608 C1602 1.368 . S
C1608 C1607 1.523 . S
C1609 C1593 1.429 . S
C1609 C1605 1.429 . S
C1609 C1610 1.523 . S
C1610 C1594 1.368 . S
C1610 C1606 1.368 . S
C1610 C1609 1.523 . S
H1611 C1586 0.950 . S
H1612 C1588 0.950 . S
H1613 C1589 0.949 . S
H1614 C1591 0.950 . S
H1615 C1593 0.950 . S
C1616 C1617 1.349 . S
C1616 C1618 1.327 . S
C1616 H1641 0.950 . S
C1617 C1616 1.349 . S
C1617 C1633 1.349 . S
C1618 C1616 1.327 . S
C1618 C1637 1.429 . S
C1618 H1642 0.950 . S
C1619 C1636 1.574 . S
C1619 C1638 1.368 . S
C1619 H1643 0.949 . S
H1620 C1624 0.949 . S
C1621 C1622 1.349 . S
C1621 C1623 1.327 . S
C1621 H1644 0.950 . S
C1622 C1621 1.349 . S
C1622 C1634 1.349 . S
C1623 C1621 1.327 . S
C1623 C1639 1.429 . S
C1623 H1645 0.950 . S
C1624 H1620 0.949 . S
C1624 C1632 1.574 . S
C1624 C1640 1.368 . S
H1625 C1633 0.950 . S
H1626 C1631 0.950 . S
H1627 C1632 0.949 . S
H1628 C1634 0.950 . S
H1629 C1635 0.950 . S
H1630 C1636 0.949 . S
C1631 H1626 0.950 . S
C1631 C1633 1.327 . S
C1631 C1637 1.429 . S
C1632 C1624 1.574 . S
C1632 H1627 0.949 . S
C1632 C1638 1.368 . S
C1633 C1617 1.349 . S
C1633 H1625 0.950 . S
C1633 C1631 1.327 . S
C1634 C1622 1.349 . S
C1634 H1628 0.950 . S
C1634 C1635 1.327 . S
C1635 H1629 0.950 . S
C1635 C1634 1.327 . S
C1635 C1639 1.429 . S
C1636 C1619 1.574 . S
C1636 H1630 0.949 . S
C1636 C1640 1.368 . S
C1637 C1618 1.429 . S
C1637 C1631 1.429 . S
C1637 C1638 1.523 . S
C1638 C1619 1.368 . S
C1638 C1632 1.368 . S
C1638 C1637 1.523 . S
C1639 C1623 1.429 . S
C1639 C1635 1.429 . S
C1639 C1640 1.523 . S
C1640 C1624 1.368 . S
C1640 C1636 1.368 . S
C1640 C1639 1.523 . S
H1641 C1616 0.950 . S
H1642 C1618 0.950 . S
H1643 C1619 0.949 . S
H1644 C1621 0.950 . S
H1645 C1623 0.950 . S
C1646 C1647 1.349 . S
C1646 C1648 1.327 . S
C1646 H1671 0.950 . S
C1647 C1646 1.349 . S
C1647 C1663 1.349 . S
C1648 C1646 1.327 . S
C1648 C1667 1.429 . S
C1648 H1672 0.950 . S
C1649 C1666 1.574 . S
C1649 C1668 1.368 . S
C1649 H1673 0.949 . S
H1650 C1654 0.949 . S
C1651 C1652 1.349 . S
C1651 C1653 1.327 . S
C1651 H1674 0.950 . S
C1652 C1651 1.349 . S
C1652 C1664 1.349 . S
C1653 C1651 1.327 . S
C1653 C1669 1.429 . S
C1653 H1675 0.950 . S
C1654 H1650 0.949 . S
C1654 C1662 1.574 . S
C1654 C1670 1.368 . S
H1655 C1663 0.950 . S
H1656 C1661 0.950 . S
H1657 C1662 0.949 . S
H1658 C1664 0.950 . S
H1659 C1665 0.950 . S
H1660 C1666 0.949 . S
C1661 H1656 0.950 . S
C1661 C1663 1.327 . S
C1661 C1667 1.429 . S
C1662 C1654 1.574 . S
C1662 H1657 0.949 . S
C1662 C1668 1.368 . S
C1663 C1647 1.349 . S
C1663 H1655 0.950 . S
C1663 C1661 1.327 . S
C1664 C1652 1.349 . S
C1664 H1658 0.950 . S
C1664 C1665 1.327 . S
C1665 H1659 0.950 . S
C1665 C1664 1.327 . S
C1665 C1669 1.429 . S
C1666 C1649 1.574 . S
C1666 H1660 0.949 . S
C1666 C1670 1.368 . S
C1667 C1648 1.429 . S
C1667 C1661 1.429 . S
C1667 C1668 1.523 . S
C1668 C1649 1.368 . S
C1668 C1662 1.368 . S
C1668 C1667 1.523 . S
C1669 C1653 1.429 . S
C1669 C1665 1.429 . S
C1669 C1670 1.523 . S
C1670 C1654 1.368 . S
C1670 C1666 1.368 . S
C1670 C1669 1.523 . S
H1671 C1646 0.950 . S
H1672 C1648 0.950 . S
H1673 C1649 0.949 . S
H1674 C1651 0.950 . S
H1675 C1653 0.950 . S
C1676 C1677 1.349 . S
C1676 C1678 1.327 . S
C1676 H1701 0.950 . S
C1677 C1676 1.349 . S
C1677 C1693 1.349 . S
C1678 C1676 1.327 . S
C1678 C1697 1.429 . S
C1678 H1702 0.950 . S
C1679 C1696 1.574 . S
C1679 C1698 1.368 . S
C1679 H1703 0.949 . S
H1680 C1684 0.949 . S
C1681 C1682 1.349 . S
C1681 C1683 1.327 . S
C1681 H1704 0.950 . S
C1682 C1681 1.349 . S
C1682 C1694 1.349 . S
C1683 C1681 1.327 . S
C1683 C1699 1.429 . S
C1683 H1705 0.950 . S
C1684 H1680 0.949 . S
C1684 C1692 1.574 . S
C1684 C1700 1.368 . S
H1685 C1693 0.950 . S
H1686 C1691 0.950 . S
H1687 C1692 0.949 . S
H1688 C1694 0.950 . S
H1689 C1695 0.950 . S
H1690 C1696 0.949 . S
C1691 H1686 0.950 . S
C1691 C1693 1.327 . S
C1691 C1697 1.429 . S
C1692 C1684 1.574 . S
C1692 H1687 0.949 . S
C1692 C1698 1.368 . S
C1693 C1677 1.349 . S
C1693 H1685 0.950 . S
C1693 C1691 1.327 . S
C1694 C1682 1.349 . S
C1694 H1688 0.950 . S
C1694 C1695 1.327 . S
C1695 H1689 0.950 . S
C1695 C1694 1.327 . S
C1695 C1699 1.429 . S
C1696 C1679 1.574 . S
C1696 H1690 0.949 . S
C1696 C1700 1.368 . S
C1697 C1678 1.429 . S
C1697 C1691 1.429 . S
C1697 C1698 1.523 . S
C1698 C1679 1.368 . S
C1698 C1692 1.368 . S
C1698 C1697 1.523 . S
C1699 C1683 1.429 . S
C1699 C1695 1.429 . S
C1699 C1700 1.523 . S
C1700 C1684 1.368 . S
C1700 C1696 1.368 . S
C1700 C1699 1.523 . S
H1701 C1676 0.950 . S
H1702 C1678 0.950 . S
H1703 C1679 0.949 . S
H1704 C1681 0.950 . S
H1705 C1683 0.950 . S
C1706 C1707 1.349 . S
C1706 C1708 1.327 . S
C1706 H1731 0.950 . S
C1707 C1706 1.349 . S
C1707 C1723 1.349 . S
C1708 C1706 1.327 . S
C1708 C1727 1.429 . S
C1708 H1732 0.950 . S
C1709 C1726 1.574 . S
C1709 C1728 1.368 . S
C1709 H1733 0.949 . S
H1710 C1714 0.949 . S
C1711 C1712 1.349 . S
C1711 C1713 1.327 . S
C1711 H1734 0.950 . S
C1712 C1711 1.349 . S
C1712 C1724 1.349 . S
C1713 C1711 1.327 . S
C1713 C1729 1.429 . S
C1713 H1735 0.950 . S
C1714 H1710 0.949 . S
C1714 C1722 1.574 . S
C1714 C1730 1.368 . S
H1715 C1723 0.950 . S
H1716 C1721 0.950 . S
H1717 C1722 0.949 . S
H1718 C1724 0.950 . S
H1719 C1725 0.950 . S
H1720 C1726 0.949 . S
C1721 H1716 0.950 . S
C1721 C1723 1.327 . S
C1721 C1727 1.429 . S
C1722 C1714 1.574 . S
C1722 H1717 0.949 . S
C1722 C1728 1.368 . S
C1723 C1707 1.349 . S
C1723 H1715 0.950 . S
C1723 C1721 1.327 . S
C1724 C1712 1.349 . S
C1724 H1718 0.950 . S
C1724 C1725 1.327 . S
C1725 H1719 0.950 . S
C1725 C1724 1.327 . S
C1725 C1729 1.429 . S
C1726 C1709 1.574 . S
C1726 H1720 0.949 . S
C1726 C1730 1.368 . S
C1727 C1708 1.429 . S
C1727 C1721 1.429 . S
C1727 C1728 1.523 . S
C1728 C1709 1.368 . S
C1728 C1722 1.368 . S
C1728 C1727 1.523 . S
C1729 C1713 1.429 . S
C1729 C1725 1.429 . S
C1729 C1730 1.523 . S
C1730 C1714 1.368 . S
C1730 C1726 1.368 . S
C1730 C1729 1.523 . S
H1731 C1706 0.950 . S
H1732 C1708 0.950 . S
H1733 C1709 0.949 . S
H1734 C1711 0.950 . S
H1735 C1713 0.950 . S
C1736 C1737 1.349 . S
C1736 C1738 1.327 . S
C1736 H1761 0.950 . S
C1737 C1736 1.349 . S
C1737 C1753 1.349 . S
C1738 C1736 1.327 . S
C1738 C1757 1.429 . S
C1738 H1762 0.950 . S
C1739 C1756 1.574 . S
C1739 C1758 1.368 . S
C1739 H1763 0.949 . S
H1740 C1744 0.949 . S
C1741 C1742 1.349 . S
C1741 C1743 1.327 . S
C1741 H1764 0.950 . S
C1742 C1741 1.349 . S
C1742 C1754 1.349 . S
C1743 C1741 1.327 . S
C1743 C1759 1.429 . S
C1743 H1765 0.950 . S
C1744 H1740 0.949 . S
C1744 C1752 1.574 . S
C1744 C1760 1.368 . S
H1745 C1753 0.950 . S
H1746 C1751 0.950 . S
H1747 C1752 0.949 . S
H1748 C1754 0.950 . S
H1749 C1755 0.950 . S
H1750 C1756 0.949 . S
C1751 H1746 0.950 . S
C1751 C1753 1.327 . S
C1751 C1757 1.429 . S
C1752 C1744 1.574 . S
C1752 H1747 0.949 . S
C1752 C1758 1.368 . S
C1753 C1737 1.349 . S
C1753 H1745 0.950 . S
C1753 C1751 1.327 . S
C1754 C1742 1.349 . S
C1754 H1748 0.950 . S
C1754 C1755 1.327 . S
C1755 H1749 0.950 . S
C1755 C1754 1.327 . S
C1755 C1759 1.429 . S
C1756 C1739 1.574 . S
C1756 H1750 0.949 . S
C1756 C1760 1.368 . S
C1757 C1738 1.429 . S
C1757 C1751 1.429 . S
C1757 C1758 1.523 . S
C1758 C1739 1.368 . S
C1758 C1752 1.368 . S
C1758 C1757 1.523 . S
C1759 C1743 1.429 . S
C1759 C1755 1.429 . S
C1759 C1760 1.523 . S
C1760 C1744 1.368 . S
C1760 C1756 1.368 . S
C1760 C1759 1.523 . S
H1761 C1736 0.950 . S
H1762 C1738 0.950 . S
H1763 C1739 0.949 . S
H1764 C1741 0.950 . S
H1765 C1743 0.950 . S
C1766 C1767 1.349 . S
C1766 C1768 1.327 . S
C1766 H1791 0.950 . S
C1767 C1766 1.349 . S
C1767 C1783 1.349 . S
C1768 C1766 1.327 . S
C1768 C1787 1.429 . S
C1768 H1792 0.950 . S
C1769 C1786 1.574 . S
C1769 C1788 1.368 . S
C1769 H1793 0.949 . S
H1770 C1774 0.949 . S
C1771 C1772 1.349 . S
C1771 C1773 1.327 . S
C1771 H1794 0.950 . S
C1772 C1771 1.349 . S
C1772 C1784 1.349 . S
C1773 C1771 1.327 . S
C1773 C1789 1.429 . S
C1773 H1795 0.950 . S
C1774 H1770 0.949 . S
C1774 C1782 1.574 . S
C1774 C1790 1.368 . S
H1775 C1783 0.950 . S
H1776 C1781 0.950 . S
H1777 C1782 0.949 . S
H1778 C1784 0.950 . S
H1779 C1785 0.950 . S
H1780 C1786 0.949 . S
C1781 H1776 0.950 . S
C1781 C1783 1.327 . S
C1781 C1787 1.429 . S
C1782 C1774 1.574 . S
C1782 H1777 0.949 . S
C1782 C1788 1.368 . S
C1783 C1767 1.349 . S
C1783 H1775 0.950 . S
C1783 C1781 1.327 . S
C1784 C1772 1.349 . S
C1784 H1778 0.950 . S
C1784 C1785 1.327 . S
C1785 H1779 0.950 . S
C1785 C1784 1.327 . S
C1785 C1789 1.429 . S
C1786 C1769 1.574 . S
C1786 H1780 0.949 . S
C1786 C1790 1.368 . S
C1787 C1768 1.429 . S
C1787 C1781 1.429 . S
C1787 C1788 1.523 . S
C1788 C1769 1.368 . S
C1788 C1782 1.368 . S
C1788 C1787 1.523 . S
C1789 C1773 1.429 . S
C1789 C1785 1.429 . S
C1789 C1790 1.523 . S
C1790 C1774 1.368 . S
C1790 C1786 1.368 . S
C1790 C1789 1.523 . S
H1791 C1766 0.950 . S
H1792 C1768 0.950 . S
H1793 C1769 0.949 . S
H1794 C1771 0.950 . S
H1795 C1773 0.950 . S
C1796 C1797 1.349 . S
C1796 C1798 1.327 . S
C1796 H1821 0.950 . S
C1797 C1796 1.349 . S
C1797 C1813 1.349 . S
C1798 C1796 1.327 . S
C1798 C1817 1.429 . S
C1798 H1822 0.950 . S
C1799 C1816 1.574 . S
C1799 C1818 1.368 . S
C1799 H1823 0.949 . S
H1800 C1804 0.949 . S
C1801 C1802 1.349 . S
C1801 C1803 1.327 . S
C1801 H1824 0.950 . S
C1802 C1801 1.349 . S
C1802 C1814 1.349 . S
C1803 C1801 1.327 . S
C1803 C1819 1.429 . S
C1803 H1825 0.950 . S
C1804 H1800 0.949 . S
C1804 C1812 1.574 . S
C1804 C1820 1.368 . S
H1805 C1813 0.950 . S
H1806 C1811 0.950 . S
H1807 C1812 0.949 . S
H1808 C1814 0.950 . S
H1809 C1815 0.950 . S
H1810 C1816 0.949 . S
C1811 H1806 0.950 . S
C1811 C1813 1.327 . S
C1811 C1817 1.429 . S
C1812 C1804 1.574 . S
C1812 H1807 0.949 . S
C1812 C1818 1.368 . S
C1813 C1797 1.349 . S
C1813 H1805 0.950 . S
C1813 C1811 1.327 . S
C1814 C1802 1.349 . S
C1814 H1808 0.950 . S
C1814 C1815 1.327 . S
C1815 H1809 0.950 . S
C1815 C1814 1.327 . S
C1815 C1819 1.429 . S
C1816 C1799 1.574 . S
C1816 H1810 0.949 . S
C1816 C1820 1.368 . S
C1817 C1798 1.429 . S
C1817 C1811 1.429 . S
C1817 C1818 1.523 . S
C1818 C1799 1.368 . S
C1818 C1812 1.368 . S
C1818 C1817 1.523 . S
C1819 C1803 1.429 . S
C1819 C1815 1.429 . S
C1819 C1820 1.523 . S
C1820 C1804 1.368 . S
C1820 C1816 1.368 . S
C1820 C1819 1.523 . S
H1821 C1796 0.950 . S
H1822 C1798 0.950 . S
H1823 C1799 0.949 . S
H1824 C1801 0.950 . S
H1825 C1803 0.950 . S
C1826 C1827 1.349 . S
C1826 C1828 1.327 . S
C1826 H1851 0.950 . S
C1827 C1826 1.349 . S
C1827 C1843 1.349 . S
C1828 C1826 1.327 . S
C1828 C1847 1.429 . S
C1828 H1852 0.950 . S
C1829 C1846 1.574 . S
C1829 C1848 1.368 . S
C1829 H1853 0.949 . S
H1830 C1834 0.949 . S
C1831 C1832 1.349 . S
C1831 C1833 1.327 . S
C1831 H1854 0.950 . S
C1832 C1831 1.349 . S
C1832 C1844 1.349 . S
C1833 C1831 1.327 . S
C1833 C1849 1.429 . S
C1833 H1855 0.950 . S
C1834 H1830 0.949 . S
C1834 C1842 1.574 . S
C1834 C1850 1.368 . S
H1835 C1843 0.950 . S
H1836 C1841 0.950 . S
H1837 C1842 0.949 . S
H1838 C1844 0.950 . S
H1839 C1845 0.950 . S
H1840 C1846 0.949 . S
C1841 H1836 0.950 . S
C1841 C1843 1.327 . S
C1841 C1847 1.429 . S
C1842 C1834 1.574 . S
C1842 H1837 0.949 . S
C1842 C1848 1.368 . S
C1843 C1827 1.349 . S
C1843 H1835 0.950 . S
C1843 C1841 1.327 . S
C1844 C1832 1.349 . S
C1844 H1838 0.950 . S
C1844 C1845 1.327 . S
C1845 H1839 0.950 . S
C1845 C1844 1.327 . S
C1845 C1849 1.429 . S
C1846 C1829 1.574 . S
C1846 H1840 0.949 . S
C1846 C1850 1.368 . S
C1847 C1828 1.429 . S
C1847 C1841 1.429 . S
C1847 C1848 1.523 . S
C1848 C1829 1.368 . S
C1848 C1842 1.368 . S
C1848 C1847 1.523 . S
C1849 C1833 1.429 . S
C1849 C1845 1.429 . S
C1849 C1850 1.523 . S
C1850 C1834 1.368 . S
C1850 C1846 1.368 . S
C1850 C1849 1.523 . S
H1851 C1826 0.950 . S
H1852 C1828 0.950 . S
H1853 C1829 0.949 . S
H1854 C1831 0.950 . S
H1855 C1833 0.950 . S
C1856 C1857 1.349 . S
C1856 C1858 1.327 . S
C1856 H1881 0.950 . S
C1857 C1856 1.349 . S
C1857 C1873 1.349 . S
C1858 C1856 1.327 . S
C1858 C1877 1.429 . S
C1858 H1882 0.950 . S
C1859 C1876 1.574 . S
C1859 C1878 1.368 . S
C1859 H1883 0.949 . S
H1860 C1864 0.949 . S
C1861 C1862 1.349 . S
C1861 C1863 1.327 . S
C1861 H1884 0.950 . S
C1862 C1861 1.349 . S
C1862 C1874 1.349 . S
C1863 C1861 1.327 . S
C1863 C1879 1.429 . S
C1863 H1885 0.950 . S
C1864 H1860 0.949 . S
C1864 C1872 1.574 . S
C1864 C1880 1.368 . S
H1865 C1873 0.950 . S
H1866 C1871 0.950 . S
H1867 C1872 0.949 . S
H1868 C1874 0.950 . S
H1869 C1875 0.950 . S
H1870 C1876 0.949 . S
C1871 H1866 0.950 . S
C1871 C1873 1.327 . S
C1871 C1877 1.429 . S
C1872 C1864 1.574 . S
C1872 H1867 0.949 . S
C1872 C1878 1.368 . S
C1873 C1857 1.349 . S
C1873 H1865 0.950 . S
C1873 C1871 1.327 . S
C1874 C1862 1.349 . S
C1874 H1868 0.950 . S
C1874 C1875 1.327 . S
C1875 H1869 0.950 . S
C1875 C1874 1.327 . S
C1875 C1879 1.429 . S
C1876 C1859 1.574 . S
C1876 H1870 0.949 . S
C1876 C1880 1.368 . S
C1877 C1858 1.429 . S
C1877 C1871 1.429 . S
C1877 C1878 1.523 . S
C1878 C1859 1.368 . S
C1878 C1872 1.368 . S
C1878 C1877 1.523 . S
C1879 C1863 1.429 . S
C1879 C1875 1.429 . S
C1879 C1880 1.523 . S
C1880 C1864 1.368 . S
C1880 C1876 1.368 . S
C1880 C1879 1.523 . S
H1881 C1856 0.950 . S
H1882 C1858 0.950 . S
H1883 C1859 0.949 . S
H1884 C1861 0.950 . S
H1885 C1863 0.950 . S
C1886 C1887 1.349 . S
C1886 C1888 1.327 . S
C1886 H1911 0.950 . S
C1887 C1886 1.349 . S
C1887 C1903 1.349 . S
C1888 C1886 1.327 . S
C1888 C1907 1.429 . S
C1888 H1912 0.950 . S
C1889 C1906 1.574 . S
C1889 C1908 1.368 . S
C1889 H1913 0.949 . S
H1890 C1894 0.949 . S
C1891 C1892 1.349 . S
C1891 C1893 1.327 . S
C1891 H1914 0.950 . S
C1892 C1891 1.349 . S
C1892 C1904 1.349 . S
C1893 C1891 1.327 . S
C1893 C1909 1.429 . S
C1893 H1915 0.950 . S
C1894 H1890 0.949 . S
C1894 C1902 1.574 . S
C1894 C1910 1.368 . S
H1895 C1903 0.950 . S
H1896 C1901 0.950 . S
H1897 C1902 0.949 . S
H1898 C1904 0.950 . S
H1899 C1905 0.950 . S
H1900 C1906 0.949 . S
C1901 H1896 0.950 . S
C1901 C1903 1.327 . S
C1901 C1907 1.429 . S
C1902 C1894 1.574 . S
C1902 H1897 0.949 . S
C1902 C1908 1.368 . S
C1903 C1887 1.349 . S
C1903 H1895 0.950 . S
C1903 C1901 1.327 . S
C1904 C1892 1.349 . S
C1904 H1898 0.950 . S
C1904 C1905 1.327 . S
C1905 H1899 0.950 . S
C1905 C1904 1.327 . S
C1905 C1909 1.429 . S
C1906 C1889 1.574 . S
C1906 H1900 0.949 . S
C1906 C1910 1.368 . S
C1907 C1888 1.429 . S
C1907 C1901 1.429 . S
C1907 C1908 1.523 . S
C1908 C1889 1.368 . S
C1908 C1902 1.368 . S
C1908 C1907 1.523 . S
C1909 C1893 1.429 . S
C1909 C1905 1.429 . S
C1909 C1910 1.523 . S
C1910 C1894 1.368 . S
C1910 C1906 1.368 . S
C1910 C1909 1.523 . S
H1911 C1886 0.950 . S
H1912 C1888 0.950 . S
H1913 C1889 0.949 . S
H1914 C1891 0.950 . S
H1915 C1893 0.950 . S
C1916 C1917 1.349 . S
C1916 C1918 1.327 . S
C1916 H1941 0.950 . S
C1917 C1916 1.349 . S
C1917 C1933 1.349 . S
C1918 C1916 1.327 . S
C1918 C1937 1.429 . S
C1918 H1942 0.950 . S
C1919 C1936 1.574 . S
C1919 C1938 1.368 . S
C1919 H1943 0.949 . S
H1920 C1924 0.949 . S
C1921 C1922 1.349 . S
C1921 C1923 1.327 . S
C1921 H1944 0.950 . S
C1922 C1921 1.349 . S
C1922 C1934 1.349 . S
C1923 C1921 1.327 . S
C1923 C1939 1.429 . S
C1923 H1945 0.950 . S
C1924 H1920 0.949 . S
C1924 C1932 1.574 . S
C1924 C1940 1.368 . S
H1925 C1933 0.950 . S
H1926 C1931 0.950 . S
H1927 C1932 0.949 . S
H1928 C1934 0.950 . S
H1929 C1935 0.950 . S
H1930 C1936 0.949 . S
C1931 H1926 0.950 . S
C1931 C1933 1.327 . S
C1931 C1937 1.429 . S
C1932 C1924 1.574 . S
C1932 H1927 0.949 . S
C1932 C1938 1.368 . S
C1933 C1917 1.349 . S
C1933 H1925 0.950 . S
C1933 C1931 1.327 . S
C1934 C1922 1.349 . S
C1934 H1928 0.950 . S
C1934 C1935 1.327 . S
C1935 H1929 0.950 . S
C1935 C1934 1.327 . S
C1935 C1939 1.429 . S
C1936 C1919 1.574 . S
C1936 H1930 0.949 . S
C1936 C1940 1.368 . S
C1937 C1918 1.429 . S
C1937 C1931 1.429 . S
C1937 C1938 1.523 . S
C1938 C1919 1.368 . S
C1938 C1932 1.368 . S
C1938 C1937 1.523 . S
C1939 C1923 1.429 . S
C1939 C1935 1.429 . S
C1939 C1940 1.523 . S
C1940 C1924 1.368 . S
C1940 C1936 1.368 . S
C1940 C1939 1.523 . S
H1941 C1916 0.950 . S
H1942 C1918 0.950 . S
H1943 C1919 0.949 . S
H1944 C1921 0.950 . S
H1945 C1923 0.950 . S
C1946 C1947 1.349 . S
C1946 C1948 1.327 . S
C1946 H1971 0.950 . S
C1947 C1946 1.349 . S
C1947 C1963 1.349 . S
C1948 C1946 1.327 . S
C1948 C1967 1.429 . S
C1948 H1972 0.950 . S
C1949 C1966 1.574 . S
C1949 C1968 1.368 . S
C1949 H1973 0.949 . S
H1950 C1954 0.949 . S
C1951 C1952 1.349 . S
C1951 C1953 1.327 . S
C1951 H1974 0.950 . S
C1952 C1951 1.349 . S
C1952 C1964 1.349 . S
C1953 C1951 1.327 . S
C1953 C1969 1.429 . S
C1953 H1975 0.950 . S
C1954 H1950 0.949 . S
C1954 C1962 1.574 . S
C1954 C1970 1.368 . S
H1955 C1963 0.950 . S
H1956 C1961 0.950 . S
H1957 C1962 0.949 . S
H1958 C1964 0.950 . S
H1959 C1965 0.950 . S
H1960 C1966 0.949 . S
C1961 H1956 0.950 . S
C1961 C1963 1.327 . S
C1961 C1967 1.429 . S
C1962 C1954 1.574 . S
C1962 H1957 0.949 . S
C1962 C1968 1.368 . S
C1963 C1947 1.349 . S
C1963 H1955 0.950 . S
C1963 C1961 1.327 . S
C1964 C1952 1.349 . S
C1964 H1958 0.950 . S
C1964 C1965 1.327 . S
C1965 H1959 0.950 . S
C1965 C1964 1.327 . S
C1965 C1969 1.429 . S
C1966 C1949 1.574 . S
C1966 H1960 0.949 . S
C1966 C1970 1.368 . S
C1967 C1948 1.429 . S
C1967 C1961 1.429 . S
C1967 C1968 1.523 . S
C1968 C1949 1.368 . S
C1968 C1962 1.368 . S
C1968 C1967 1.523 . S
C1969 C1953 1.429 . S
C1969 C1965 1.429 . S
C1969 C1970 1.523 . S
C1970 C1954 1.368 . S
C1970 C1966 1.368 . S
C1970 C1969 1.523 . S
H1971 C1946 0.950 . S
H1972 C1948 0.950 . S
H1973 C1949 0.949 . S
H1974 C1951 0.950 . S
H1975 C1953 0.950 . S
C1976 C1977 1.349 . S
C1976 C1978 1.327 . S
C1976 H2001 0.950 . S
C1977 C1976 1.349 . S
C1977 C1993 1.349 . S
C1978 C1976 1.327 . S
C1978 C1997 1.429 . S
C1978 H2002 0.950 . S
C1979 C1996 1.574 . S
C1979 C1998 1.368 . S
C1979 H2003 0.949 . S
H1980 C1984 0.949 . S
C1981 C1982 1.349 . S
C1981 C1983 1.327 . S
C1981 H2004 0.950 . S
C1982 C1981 1.349 . S
C1982 C1994 1.349 . S
C1983 C1981 1.327 . S
C1983 C1999 1.429 . S
C1983 H2005 0.950 . S
C1984 H1980 0.949 . S
C1984 C1992 1.574 . S
C1984 C2000 1.368 . S
H1985 C1993 0.950 . S
H1986 C1991 0.950 . S
H1987 C1992 0.949 . S
H1988 C1994 0.950 . S
H1989 C1995 0.950 . S
H1990 C1996 0.949 . S
C1991 H1986 0.950 . S
C1991 C1993 1.327 . S
C1991 C1997 1.429 . S
C1992 C1984 1.574 . S
C1992 H1987 0.949 . S
C1992 C1998 1.368 . S
C1993 C1977 1.349 . S
C1993 H1985 0.950 . S
C1993 C1991 1.327 . S
C1994 C1982 1.349 . S
C1994 H1988 0.950 . S
C1994 C1995 1.327 . S
C1995 H1989 0.950 . S
C1995 C1994 1.327 . S
C1995 C1999 1.429 . S
C1996 C1979 1.574 . S
C1996 H1990 0.949 . S
C1996 C2000 1.368 . S
C1997 C1978 1.429 . S
C1997 C1991 1.429 . S
C1997 C1998 1.523 . S
C1998 C1979 1.368 . S
C1998 C1992 1.368 . S
C1998 C1997 1.523 . S
C1999 C1983 1.429 . S
C1999 C1995 1.429 . S
C1999 C2000 1.523 . S
C2000 C1984 1.368 . S
C2000 C1996 1.368 . S
C2000 C1999 1.523 . S
H2001 C1976 0.950 . S
H2002 C1978 0.950 . S
H2003 C1979 0.949 . S
H2004 C1981 0.950 . S
H2005 C1983 0.950 . S
C2006 C2007 1.349 . S
C2006 C2008 1.327 . S
C2006 H2031 0.950 . S
C2007 C2006 1.349 . S
C2007 C2023 1.349 . S
C2008 C2006 1.327 . S
C2008 C2027 1.429 . S
C2008 H2032 0.950 . S
C2009 C2026 1.574 . S
C2009 C2028 1.368 . S
C2009 H2033 0.949 . S
H2010 C2014 0.949 . S
C2011 C2012 1.349 . S
C2011 C2013 1.327 . S
C2011 H2034 0.950 . S
C2012 C2011 1.349 . S
C2012 C2024 1.349 . S
C2013 C2011 1.327 . S
C2013 C2029 1.429 . S
C2013 H2035 0.950 . S
C2014 H2010 0.949 . S
C2014 C2022 1.574 . S
C2014 C2030 1.368 . S
H2015 C2023 0.950 . S
H2016 C2021 0.950 . S
H2017 C2022 0.949 . S
H2018 C2024 0.950 . S
H2019 C2025 0.950 . S
H2020 C2026 0.949 . S
C2021 H2016 0.950 . S
C2021 C2023 1.327 . S
C2021 C2027 1.429 . S
C2022 C2014 1.574 . S
C2022 H2017 0.949 . S
C2022 C2028 1.368 . S
C2023 C2007 1.349 . S
C2023 H2015 0.950 . S
C2023 C2021 1.327 . S
C2024 C2012 1.349 . S
C2024 H2018 0.950 . S
C2024 C2025 1.327 . S
C2025 H2019 0.950 . S
C2025 C2024 1.327 . S
C2025 C2029 1.429 . S
C2026 C2009 1.574 . S
C2026 H2020 0.949 . S
C2026 C2030 1.368 . S
C2027 C2008 1.429 . S
C2027 C2021 1.429 . S
C2027 C2028 1.523 . S
C2028 C2009 1.368 . S
C2028 C2022 1.368 . S
C2028 C2027 1.523 . S
C2029 C2013 1.429 . S
C2029 C2025 1.429 . S
C2029 C2030 1.523 . S
C2030 C2014 1.368 . S
C2030 C2026 1.368 . S
C2030 C2029 1.523 . S
H2031 C2006 0.950 . S
H2032 C2008 0.950 . S
H2033 C2009 0.949 . S
H2034 C2011 0.950 . S
H2035 C2013 0.950 . S
C2036 C2037 1.349 . S
C2036 C2038 1.327 . S
C2036 H2061 0.950 . S
C2037 C2036 1.349 . S
C2037 C2053 1.349 . S
C2038 C2036 1.327 . S
C2038 C2057 1.429 . S
C2038 H2062 0.950 . S
C2039 C2056 1.574 . S
C2039 C2058 1.368 . S
C2039 H2063 0.949 . S
H2040 C2044 0.949 . S
C2041 C2042 1.349 . S
C2041 C2043 1.327 . S
C2041 H2064 0.950 . S
C2042 C2041 1.349 . S
C2042 C2054 1.349 . S
C2043 C2041 1.327 . S
C2043 C2059 1.429 . S
C2043 H2065 0.950 . S
C2044 H2040 0.949 . S
C2044 C2052 1.574 . S
C2044 C2060 1.368 . S
H2045 C2053 0.950 . S
H2046 C2051 0.950 . S
H2047 C2052 0.949 . S
H2048 C2054 0.950 . S
H2049 C2055 0.950 . S
H2050 C2056 0.949 . S
C2051 H2046 0.950 . S
C2051 C2053 1.327 . S
C2051 C2057 1.429 . S
C2052 C2044 1.574 . S
C2052 H2047 0.949 . S
C2052 C2058 1.368 . S
C2053 C2037 1.349 . S
C2053 H2045 0.950 . S
C2053 C2051 1.327 . S
C2054 C2042 1.349 . S
C2054 H2048 0.950 . S
C2054 C2055 1.327 . S
C2055 H2049 0.950 . S
C2055 C2054 1.327 . S
C2055 C2059 1.429 . S
C2056 C2039 1.574 . S
C2056 H2050 0.949 . S
C2056 C2060 1.368 . S
C2057 C2038 1.429 . S
C2057 C2051 1.429 . S
C2057 C2058 1.523 . S
C2058 C2039 1.368 . S
C2058 C2052 1.368 . S
C2058 C2057 1.523 . S
C2059 C2043 1.429 . S
C2059 C2055 1.429 . S
C2059 C2060 1.523 . S
C2060 C2044 1.368 . S
C2060 C2056 1.368 . S
C2060 C2059 1.523 . S
H2061 C2036 0.950 . S
H2062 C2038 0.950 . S
H2063 C2039 0.949 . S
H2064 C2041 0.950 . S
H2065 C2043 0.950 . S
C2066 C2067 1.349 . S
C2066 C2068 1.327 . S
C2066 H2091 0.950 . S
C2067 C2066 1.349 . S
C2067 C2083 1.349 . S
C2068 C2066 1.327 . S
C2068 C2087 1.429 . S
C2068 H2092 0.950 . S
C2069 C2086 1.574 . S
C2069 C2088 1.368 . S
C2069 H2093 0.949 . S
H2070 C2074 0.949 . S
C2071 C2072 1.349 . S
C2071 C2073 1.327 . S
C2071 H2094 0.950 . S
C2072 C2071 1.349 . S
C2072 C2084 1.349 . S
C2073 C2071 1.327 . S
C2073 C2089 1.429 . S
C2073 H2095 0.950 . S
C2074 H2070 0.949 . S
C2074 C2082 1.574 . S
C2074 C2090 1.368 . S
H2075 C2083 0.950 . S
H2076 C2081 0.950 . S
H2077 C2082 0.949 . S
H2078 C2084 0.950 . S
H2079 C2085 0.950 . S
H2080 C2086 0.949 . S
C2081 H2076 0.950 . S
C2081 C2083 1.327 . S
C2081 C2087 1.429 . S
C2082 C2074 1.574 . S
C2082 H2077 0.949 . S
C2082 C2088 1.368 . S
C2083 C2067 1.349 . S
C2083 H2075 0.950 . S
C2083 C2081 1.327 . S
C2084 C2072 1.349 . S
C2084 H2078 0.950 . S
C2084 C2085 1.327 . S
C2085 H2079 0.950 . S
C2085 C2084 1.327 . S
C2085 C2089 1.429 . S
C2086 C2069 1.574 . S
C2086 H2080 0.949 . S
C2086 C2090 1.368 . S
C2087 C2068 1.429 . S
C2087 C2081 1.429 . S
C2087 C2088 1.523 . S
C2088 C2069 1.368 . S
C2088 C2082 1.368 . S
C2088 C2087 1.523 . S
C2089 C2073 1.429 . S
C2089 C2085 1.429 . S
C2089 C2090 1.523 . S
C2090 C2074 1.368 . S
C2090 C2086 1.368 . S
C2090 C2089 1.523 . S
H2091 C2066 0.950 . S
H2092 C2068 0.950 . S
H2093 C2069 0.949 . S
H2094 C2071 0.950 . S
H2095 C2073 0.950 . S
C2096 C2097 1.349 . S
C2096 C2098 1.327 . S
C2096 H2121 0.950 . S
C2097 C2096 1.349 . S
C2097 C2113 1.349 . S
C2098 C2096 1.327 . S
C2098 C2117 1.429 . S
C2098 H2122 0.950 . S
C2099 C2116 1.574 . S
C2099 C2118 1.368 . S
C2099 H2123 0.949 . S
H2100 C2104 0.949 . S
C2101 C2102 1.349 . S
C2101 C2103 1.327 . S
C2101 H2124 0.950 . S
C2102 C2101 1.349 . S
C2102 C2114 1.349 . S
C2103 C2101 1.327 . S
C2103 C2119 1.429 . S
C2103 H2125 0.950 . S
C2104 H2100 0.949 . S
C2104 C2112 1.574 . S
C2104 C2120 1.368 . S
H2105 C2113 0.950 . S
H2106 C2111 0.950 . S
H2107 C2112 0.949 . S
H2108 C2114 0.950 . S
H2109 C2115 0.950 . S
H2110 C2116 0.949 . S
C2111 H2106 0.950 . S
C2111 C2113 1.327 . S
C2111 C2117 1.429 . S
C2112 C2104 1.574 . S
C2112 H2107 0.949 . S
C2112 C2118 1.368 . S
C2113 C2097 1.349 . S
C2113 H2105 0.950 . S
C2113 C2111 1.327 . S
C2114 C2102 1.349 . S
C2114 H2108 0.950 . S
C2114 C2115 1.327 . S
C2115 H2109 0.950 . S
C2115 C2114 1.327 . S
C2115 C2119 1.429 . S
C2116 C2099 1.574 . S
C2116 H2110 0.949 . S
C2116 C2120 1.368 . S
C2117 C2098 1.429 . S
C2117 C2111 1.429 . S
C2117 C2118 1.523 . S
C2118 C2099 1.368 . S
C2118 C2112 1.368 . S
C2118 C2117 1.523 . S
C2119 C2103 1.429 . S
C2119 C2115 1.429 . S
C2119 C2120 1.523 . S
C2120 C2104 1.368 . S
C2120 C2116 1.368 . S
C2120 C2119 1.523 . S
H2121 C2096 0.950 . S
H2122 C2098 0.950 . S
H2123 C2099 0.949 . S
H2124 C2101 0.950 . S
H2125 C2103 0.950 . S
C2126 C2127 1.349 . S
C2126 C2128 1.327 . S
C2126 H2151 0.950 . S
C2127 C2126 1.349 . S
C2127 C2143 1.349 . S
C2128 C2126 1.327 . S
C2128 C2147 1.429 . S
C2128 H2152 0.950 . S
C2129 C2146 1.574 . S
C2129 C2148 1.368 . S
C2129 H2153 0.949 . S
H2130 C2134 0.949 . S
C2131 C2132 1.349 . S
C2131 C2133 1.327 . S
C2131 H2154 0.950 . S
C2132 C2131 1.349 . S
C2132 C2144 1.349 . S
C2133 C2131 1.327 . S
C2133 C2149 1.429 . S
C2133 H2155 0.950 . S
C2134 H2130 0.949 . S
C2134 C2142 1.574 . S
C2134 C2150 1.368 . S
H2135 C2143 0.950 . S
H2136 C2141 0.950 . S
H2137 C2142 0.949 . S
H2138 C2144 0.950 . S
H2139 C2145 0.950 . S
H2140 C2146 0.949 . S
C2141 H2136 0.950 . S
C2141 C2143 1.327 . S
C2141 C2147 1.429 . S
C2142 C2134 1.574 . S
C2142 H2137 0.949 . S
C2142 C2148 1.368 . S
C2143 C2127 1.349 . S
C2143 H2135 0.950 . S
C2143 C2141 1.327 . S
C2144 C2132 1.349 . S
C2144 H2138 0.950 . S
C2144 C2145 1.327 . S
C2145 H2139 0.950 . S
C2145 C2144 1.327 . S
C2145 C2149 1.429 . S
C2146 C2129 1.574 . S
C2146 H2140 0.949 . S
C2146 C2150 1.368 . S
C2147 C2128 1.429 . S
C2147 C2141 1.429 . S
C2147 C2148 1.523 . S
C2148 C2129 1.368 . S
C2148 C2142 1.368 . S
C2148 C2147 1.523 . S
C2149 C2133 1.429 . S
C2149 C2145 1.429 . S
C2149 C2150 1.523 . S
C2150 C2134 1.368 . S
C2150 C2146 1.368 . S
C2150 C2149 1.523 . S
H2151 C2126 0.950 . S
H2152 C2128 0.950 . S
H2153 C2129 0.949 . S
H2154 C2131 0.950 . S
H2155 C2133 0.950 . S
C2156 C2157 1.349 . S
C2156 C2158 1.327 . S
C2156 H2181 0.950 . S
C2157 C2156 1.349 . S
C2157 C2173 1.349 . S
C2158 C2156 1.327 . S
C2158 C2177 1.429 . S
C2158 H2182 0.950 . S
C2159 C2176 1.574 . S
C2159 C2178 1.368 . S
C2159 H2183 0.949 . S
H2160 C2164 0.949 . S
C2161 C2162 1.349 . S
C2161 C2163 1.327 . S
C2161 H2184 0.950 . S
C2162 C2161 1.349 . S
C2162 C2174 1.349 . S
C2163 C2161 1.327 . S
C2163 C2179 1.429 . S
C2163 H2185 0.950 . S
C2164 H2160 0.949 . S
C2164 C2172 1.574 . S
C2164 C2180 1.368 . S
H2165 C2173 0.950 . S
H2166 C2171 0.950 . S
H2167 C2172 0.949 . S
H2168 C2174 0.950 . S
H2169 C2175 0.950 . S
H2170 C2176 0.949 . S
C2171 H2166 0.950 . S
C2171 C2173 1.327 . S
C2171 C2177 1.429 . S
C2172 C2164 1.574 . S
C2172 H2167 0.949 . S
C2172 C2178 1.368 . S
C2173 C2157 1.349 . S
C2173 H2165 0.950 . S
C2173 C2171 1.327 . S
C2174 C2162 1.349 . S
C2174 H2168 0.950 . S
C2174 C2175 1.327 . S
C2175 H2169 0.950 . S
C2175 C2174 1.327 . S
C2175 C2179 1.429 . S
C2176 C2159 1.574 . S
C2176 H2170 0.949 . S
C2176 C2180 1.368 . S
C2177 C2158 1.429 . S
C2177 C2171 1.429 . S
C2177 C2178 1.523 . S
C2178 C2159 1.368 . S
C2178 C2172 1.368 . S
C2178 C2177 1.523 . S
C2179 C2163 1.429 . S
C2179 C2175 1.429 . S
C2179 C2180 1.523 . S
C2180 C2164 1.368 . S
C2180 C2176 1.368 . S
C2180 C2179 1.523 . S
H2181 C2156 0.950 . S
H2182 C2158 0.950 . S
H2183 C2159 0.949 . S
H2184 C2161 0.950 . S
H2185 C2163 0.950 . S
C2186 C2187 1.349 . S
C2186 C2188 1.327 . S
C2186 H2211 0.950 . S
C2187 C2186 1.349 . S
C2187 C2203 1.349 . S
C2188 C2186 1.327 . S
C2188 C2207 1.429 . S
C2188 H2212 0.950 . S
C2189 C2206 1.574 . S
C2189 C2208 1.368 . S
C2189 H2213 0.949 . S
H2190 C2194 0.949 . S
C2191 C2192 1.349 . S
C2191 C2193 1.327 . S
C2191 H2214 0.950 . S
C2192 C2191 1.349 . S
C2192 C2204 1.349 . S
C2193 C2191 1.327 . S
C2193 C2209 1.429 . S
C2193 H2215 0.950 . S
C2194 H2190 0.949 . S
C2194 C2202 1.574 . S
C2194 C2210 1.368 . S
H2195 C2203 0.950 . S
H2196 C2201 0.950 . S
H2197 C2202 0.949 . S
H2198 C2204 0.950 . S
H2199 C2205 0.950 . S
H2200 C2206 0.949 . S
C2201 H2196 0.950 . S
C2201 C2203 1.327 . S
C2201 C2207 1.429 . S
C2202 C2194 1.574 . S
C2202 H2197 0.949 . S
C2202 C2208 1.368 . S
C2203 C2187 1.349 . S
C2203 H2195 0.950 . S
C2203 C2201 1.327 . S
C2204 C2192 1.349 . S
C2204 H2198 0.950 . S
C2204 C2205 1.327 . S
C2205 H2199 0.950 . S
C2205 C2204 1.327 . S
C2205 C2209 1.429 . S
C2206 C2189 1.574 . S
C2206 H2200 0.949 . S
C2206 C2210 1.368 . S
C2207 C2188 1.429 . S
C2207 C2201 1.429 . S
C2207 C2208 1.523 . S
C2208 C2189 1.368 . S
C2208 C2202 1.368 . S
C2208 C2207 1.523 . S
C2209 C2193 1.429 . S
C2209 C2205 1.429 . S
C2209 C2210 1.523 . S
C2210 C2194 1.368 . S
C2210 C2206 1.368 . S
C2210 C2209 1.523 . S
H2211 C2186 0.950 . S
H2212 C2188 0.950 . S
H2213 C2189 0.949 . S
H2214 C2191 0.950 . S
H2215 C2193 0.950 . S
C2216 C2217 1.349 . S
C2216 C2218 1.327 . S
C2216 H2241 0.950 . S
C2217 C2216 1.349 . S
C2217 C2233 1.349 . S
C2218 C2216 1.327 . S
C2218 C2237 1.429 . S
C2218 H2242 0.950 . S
C2219 C2236 1.574 . S
C2219 C2238 1.368 . S
C2219 H2243 0.949 . S
H2220 C2224 0.949 . S
C2221 C2222 1.349 . S
C2221 C2223 1.327 . S
C2221 H2244 0.950 . S
C2222 C2221 1.349 . S
C2222 C2234 1.349 . S
C2223 C2221 1.327 . S
C2223 C2239 1.429 . S
C2223 H2245 0.950 . S
C2224 H2220 0.949 . S
C2224 C2232 1.574 . S
C2224 C2240 1.368 . S
H2225 C2233 0.950 . S
H2226 C2231 0.950 . S
H2227 C2232 0.949 . S
H2228 C2234 0.950 . S
H2229 C2235 0.950 . S
H2230 C2236 0.949 . S
C2231 H2226 0.950 . S
C2231 C2233 1.327 . S
C2231 C2237 1.429 . S
C2232 C2224 1.574 . S
C2232 H2227 0.949 . S
C2232 C2238 1.368 . S
C2233 C2217 1.349 . S
C2233 H2225 0.950 . S
C2233 C2231 1.327 . S
C2234 C2222 1.349 . S
C2234 H2228 0.950 . S
C2234 C2235 1.327 . S
C2235 H2229 0.950 . S
C2235 C2234 1.327 . S
C2235 C2239 1.429 . S
C2236 C2219 1.574 . S
C2236 H2230 0.949 . S
C2236 C2240 1.368 . S
C2237 C2218 1.429 . S
C2237 C2231 1.429 . S
C2237 C2238 1.523 . S
C2238 C2219 1.368 . S
C2238 C2232 1.368 . S
C2238 C2237 1.523 . S
C2239 C2223 1.429 . S
C2239 C2235 1.429 . S
C2239 C2240 1.523 . S
C2240 C2224 1.368 . S
C2240 C2236 1.368 . S
C2240 C2239 1.523 . S
H2241 C2216 0.950 . S
H2242 C2218 0.950 . S
H2243 C2219 0.949 . S
H2244 C2221 0.950 . S
H2245 C2223 0.950 . S
C2246 C2247 1.349 . S
C2246 C2248 1.327 . S
C2246 H2271 0.950 . S
C2247 C2246 1.349 . S
C2247 C2263 1.349 . S
C2248 C2246 1.327 . S
C2248 C2267 1.429 . S
C2248 H2272 0.950 . S
C2249 C2266 1.574 . S
C2249 C2268 1.368 . S
C2249 H2273 0.949 . S
H2250 C2254 0.949 . S
C2251 C2252 1.349 . S
C2251 C2253 1.327 . S
C2251 H2274 0.950 . S
C2252 C2251 1.349 . S
C2252 C2264 1.349 . S
C2253 C2251 1.327 . S
C2253 C2269 1.429 . S
C2253 H2275 0.950 . S
C2254 H2250 0.949 . S
C2254 C2262 1.574 . S
C2254 C2270 1.368 . S
H2255 C2263 0.950 . S
H2256 C2261 0.950 . S
H2257 C2262 0.949 . S
H2258 C2264 0.950 . S
H2259 C2265 0.950 . S
H2260 C2266 0.949 . S
C2261 H2256 0.950 . S
C2261 C2263 1.327 . S
C2261 C2267 1.429 . S
C2262 C2254 1.574 . S
C2262 H2257 0.949 . S
C2262 C2268 1.368 . S
C2263 C2247 1.349 . S
C2263 H2255 0.950 . S
C2263 C2261 1.327 . S
C2264 C2252 1.349 . S
C2264 H2258 0.950 . S
C2264 C2265 1.327 . S
C2265 H2259 0.950 . S
C2265 C2264 1.327 . S
C2265 C2269 1.429 . S
C2266 C2249 1.574 . S
C2266 H2260 0.949 . S
C2266 C2270 1.368 . S
C2267 C2248 1.429 . S
C2267 C2261 1.429 . S
C2267 C2268 1.523 . S
C2268 C2249 1.368 . S
C2268 C2262 1.368 . S
C2268 C2267 1.523 . S
C2269 C2253 1.429 . S
C2269 C2265 1.429 . S
C2269 C2270 1.523 . S
C2270 C2254 1.368 . S
C2270 C2266 1.368 . S
C2270 C2269 1.523 . S
H2271 C2246 0.950 . S
H2272 C2248 0.950 . S
H2273 C2249 0.949 . S
H2274 C2251 0.950 . S
H2275 C2253 0.950 . S
C2276 C2277 1.349 . S
C2276 C2278 1.327 . S
C2276 H2301 0.950 . S
C2277 C2276 1.349 . S
C2277 C2293 1.349 . S
C2278 C2276 1.327 . S
C2278 C2297 1.429 . S
C2278 H2302 0.950 . S
C2279 C2296 1.574 . S
C2279 C2298 1.368 . S
C2279 H2303 0.949 . S
H2280 C2284 0.949 . S
C2281 C2282 1.349 . S
C2281 C2283 1.327 . S
C2281 H2304 0.950 . S
C2282 C2281 1.349 . S
C2282 C2294 1.349 . S
C2283 C2281 1.327 . S
C2283 C2299 1.429 . S
C2283 H2305 0.950 . S
C2284 H2280 0.949 . S
C2284 C2292 1.574 . S
C2284 C2300 1.368 . S
H2285 C2293 0.950 . S
H2286 C2291 0.950 . S
H2287 C2292 0.949 . S
H2288 C2294 0.950 . S
H2289 C2295 0.950 . S
H2290 C2296 0.949 . S
C2291 H2286 0.950 . S
C2291 C2293 1.327 . S
C2291 C2297 1.429 . S
C2292 C2284 1.574 . S
C2292 H2287 0.949 . S
C2292 C2298 1.368 . S
C2293 C2277 1.349 . S
C2293 H2285 0.950 . S
C2293 C2291 1.327 . S
C2294 C2282 1.349 . S
C2294 H2288 0.950 . S
C2294 C2295 1.327 . S
C2295 H2289 0.950 . S
C2295 C2294 1.327 . S
C2295 C2299 1.429 . S
C2296 C2279 1.574 . S
C2296 H2290 0.949 . S
C2296 C2300 1.368 . S
C2297 C2278 1.429 . S
C2297 C2291 1.429 . S
C2297 C2298 1.523 . S
C2298 C2279 1.368 . S
C2298 C2292 1.368 . S
C2298 C2297 1.523 . S
C2299 C2283 1.429 . S
C2299 C2295 1.429 . S
C2299 C2300 1.523 . S
C2300 C2284 1.368 . S
C2300 C2296 1.368 . S
C2300 C2299 1.523 . S
H2301 C2276 0.950 . S
H2302 C2278 0.950 . S
H2303 C2279 0.949 . S
H2304 C2281 0.950 . S
H2305 C2283 0.950 . S
C2306 C2307 1.349 . S
C2306 C2308 1.327 . S
C2306 H2331 0.950 . S
C2307 C2306 1.349 . S
C2307 C2323 1.349 . S
C2308 C2306 1.327 . S
C2308 C2327 1.429 . S
C2308 H2332 0.950 . S
C2309 C2326 1.574 . S
C2309 C2328 1.368 . S
C2309 H2333 0.949 . S
H2310 C2314 0.949 . S
C2311 C2312 1.349 . S
C2311 C2313 1.327 . S
C2311 H2334 0.950 . S
C2312 C2311 1.349 . S
C2312 C2324 1.349 . S
C2313 C2311 1.327 . S
C2313 C2329 1.429 . S
C2313 H2335 0.950 . S
C2314 H2310 0.949 . S
C2314 C2322 1.574 . S
C2314 C2330 1.368 . S
H2315 C2323 0.950 . S
H2316 C2321 0.950 . S
H2317 C2322 0.949 . S
H2318 C2324 0.950 . S
H2319 C2325 0.950 . S
H2320 C2326 0.949 . S
C2321 H2316 0.950 . S
C2321 C2323 1.327 . S
C2321 C2327 1.429 . S
C2322 C2314 1.574 . S
C2322 H2317 0.949 . S
C2322 C2328 1.368 . S
C2323 C2307 1.349 . S
C2323 H2315 0.950 . S
C2323 C2321 1.327 . S
C2324 C2312 1.349 . S
C2324 H2318 0.950 . S
C2324 C2325 1.327 . S
C2325 H2319 0.950 . S
C2325 C2324 1.327 . S
C2325 C2329 1.429 . S
C2326 C2309 1.574 . S
C2326 H2320 0.949 . S
C2326 C2330 1.368 . S
C2327 C2308 1.429 . S
C2327 C2321 1.429 . S
C2327 C2328 1.523 . S
C2328 C2309 1.368 . S
C2328 C2322 1.368 . S
C2328 C2327 1.523 . S
C2329 C2313 1.429 . S
C2329 C2325 1.429 . S
C2329 C2330 1.523 . S
C2330 C2314 1.368 . S
C2330 C2326 1.368 . S
C2330 C2329 1.523 . S
H2331 C2306 0.950 . S
H2332 C2308 0.950 . S
H2333 C2309 0.949 . S
H2334 C2311 0.950 . S
H2335 C2313 0.950 . S
C417 C382 1.322 . S
C422 C5 1.322 . S
C447 C18 1.322 . S
C452 C395 1.322 . S
C477 C408 1.322 . S
C482 C31 1.322 . S
C507 C369 1.322 . S
C512 C44 1.322 . S
C537 C57 1.322 . S
C542 C356 1.322 . S
C567 C317 1.322 . S
C572 C70 1.322 . S
C597 C83 1.322 . S
C602 C330 1.322 . S
C627 C343 1.322 . S
C632 C96 1.322 . S
C657 C109 1.322 . S
C662 C278 1.322 . S
C687 C122 1.322 . S
C692 C291 1.322 . S
C717 C304 1.322 . S
C722 C135 1.322 . S
C747 C148 1.322 . S
C752 C265 1.322 . S
C777 C252 1.322 . S
C782 C161 1.322 . S
C807 C213 1.322 . S
C812 C174 1.322 . S
C837 C187 1.322 . S
C842 C226 1.322 . S
C867 C200 1.322 . S
C872 C239 1.322 . S
C897 C10 1.351 . S
C902 C140 1.351 . S
C927 C153 1.351 . S
C932 C23 1.351 . S
C957 C114 1.351 . S
C962 C36 1.351 . S
C987 C127 1.351 . S
C992 C49 1.351 . S
C1017 C62 1.351 . S
C1022 C192 1.351 . S
C1047 C205 1.351 . S
C1052 C75 1.351 . S
C1077 C166 1.351 . S
C1082 C88 1.351 . S
C1107 C179 1.351 . S
C1112 C101 1.351 . S
C1137 C218 1.351 . S
C1142 C348 1.351 . S
C1167 C361 1.351 . S
C1172 C231 1.351 . S
C1197 C322 1.351 . S
C1202 C244 1.351 . S
C1227 C257 1.351 . S
C1232 C335 1.351 . S
C1257 C270 1.351 . S
C1262 C400 1.351 . S
C1287 C413 1.351 . S
C1292 C283 1.351 . S
C1317 C374 1.351 . S
C1322 C296 1.351 . S
C1347 C309 1.351 . S
C1352 C387 1.351 . S
C1377 C0 1.134 . S
C1382 C52 1.134 . S
C1407 C13 1.134 . S
C1412 C65 1.134 . S
C1437 C78 1.134 . S
C1442 C26 1.134 . S
C1467 C39 1.134 . S
C1472 C91 1.134 . S
C1497 C104 1.134 . S
C1502 C156 1.134 . S
C1527 C169 1.134 . S
C1532 C117 1.134 . S
C1557 C182 1.134 . S
C1562 C130 1.134 . S
C1587 C143 1.134 . S
C1592 C195 1.134 . S
C1617 C208 1.134 . S
C1622 C260 1.134 . S
C1647 C273 1.134 . S
C1652 C221 1.134 . S
C1677 C234 1.134 . S
C1682 C286 1.134 . S
C1707 C299 1.134 . S
C1712 C247 1.134 . S
C1737 C364 1.134 . S
C1742 C312 1.134 . S
C1767 C325 1.134 . S
C1772 C377 1.134 . S
C1797 C338 1.134 . S
C1802 C390 1.134 . S
C1827 C351 1.134 . S
C1832 C403 1.134 . S
C1857 C8 1.372 . S
C1862 C73 1.372 . S
C1887 C21 1.372 . S
C1892 C86 1.372 . S
C1917 C99 1.372 . S
C1922 C34 1.372 . S
C1947 C60 1.372 . S
C1952 C47 1.372 . S
C1977 C177 1.372 . S
C1982 C112 1.372 . S
C2007 C190 1.372 . S
C2012 C125 1.372 . S
C2037 C203 1.372 . S
C2042 C138 1.372 . S
C2067 C151 1.372 . S
C2072 C164 1.372 . S
C2097 C216 1.372 . S
C2102 C281 1.372 . S
C2127 C294 1.372 . S
C2132 C229 1.372 . S
C2157 C307 1.372 . S
C2162 C242 1.372 . S
C2187 C255 1.372 . S
C2192 C268 1.372 . S
C2217 C385 1.372 . S
C2222 C320 1.372 . S
C2247 C333 1.372 . S
C2252 C398 1.372 . S
C2277 C346 1.372 . S
C2282 C411 1.372 . S
C2307 C372 1.372 . S
C2312 C359 1.372 . S
