# Generated by pormake.
# Topology fns, (5)-cn, num edge types: 1
# Building blocks:
#     Node 0, Type 0, BuildingBlock: XOMCOT_clean_sbu_0, # of connection points: 5
#     Node 1, Type 0, BuildingBlock: XOMCOT_clean_sbu_0, # of connection points: 5
#     Node 2, Type 0, BuildingBlock: XOMCOT_clean_sbu_0, # of connection points: 5
#     Node 3, Type 0, BuildingBlock: XOMCOT_clean_sbu_0, # of connection points: 5
#     Node 4, Type 0, BuildingBlock: XOMCOT_clean_sbu_0, # of connection points: 5
#     Node 5, Type 0, BuildingBlock: XOMCOT_clean_sbu_0, # of connection points: 5
#     Edge 6, Type (0, 0), BuildingBlock: FUNLAD_clean_linker_0, # of connection points: 2
#     Edge 7, Type (0, 0), BuildingBlock: FUNLAD_clean_linker_0, # of connection points: 2
#     Edge 8, Type (0, 0), BuildingBlock: FUNLAD_clean_linker_0, # of connection points: 2
#     Edge 9, Type (0, 0), BuildingBlock: FUNLAD_clean_linker_0, # of connection points: 2
#     Edge 10, Type (0, 0), BuildingBlock: FUNLAD_clean_linker_0, # of connection points: 2
#     Edge 11, Type (0, 0), BuildingBlock: FUNLAD_clean_linker_0, # of connection points: 2
#     Edge 12, Type (0, 0), BuildingBlock: FUNLAD_clean_linker_0, # of connection points: 2
#     Edge 13, Type (0, 0), BuildingBlock: FUNLAD_clean_linker_0, # of connection points: 2
#     Edge 14, Type (0, 0), BuildingBlock: FUNLAD_clean_linker_0, # of connection points: 2
#     Edge 15, Type (0, 0), BuildingBlock: FUNLAD_clean_linker_0, # of connection points: 2
#     Edge 16, Type (0, 0), BuildingBlock: FUNLAD_clean_linker_0, # of connection points: 2
#     Edge 17, Type (0, 0), BuildingBlock: FUNLAD_clean_linker_0, # of connection points: 2
#     Edge 18, Type (0, 0), BuildingBlock: FUNLAD_clean_linker_0, # of connection points: 2
#     Edge 19, Type (0, 0), BuildingBlock: FUNLAD_clean_linker_0, # of connection points: 2
#     Edge 20, Type (0, 0), BuildingBlock: FUNLAD_clean_linker_0, # of connection points: 2
# Relax obj value: 0.197
# Max RMSD: 0.295
# Mean RMSD: 0.295
data_MOF--net-fns--node1-XOMCOT_clean_sbu_0--edge1-FUNLAD_clean_linker_0
_symmetry_space_group_name_H-M    P1
_symmetry_Int_Tables_number       1
_symmetry_cell_setting            triclinic
loop_
_symmetry_equiv_pos_as_xyz
'x, y, z'
_cell_length_a     64.066052
_cell_length_b     63.935591
_cell_length_c     20.039839
_cell_angle_alpha  89.937899
_cell_angle_beta   90.018523
_cell_angle_gamma 119.90559
loop_
_atom_site_label
_atom_site_type_symbol
_atom_site_fract_x
_atom_site_fract_y
_atom_site_fract_z
_atom_type_partial_charge
Co0 Co 0.19212 0.62601 0.16253 0.0
C1 C 0.19616 0.62358 0.31154 0.0
C2 C 0.22371 0.6208 0.25875 0.0
C3 C 0.22791 0.62083 0.3261 0.0
N4 N 0.20351 0.62204 0.24933 0.0
N5 N 0.21057 0.6226 0.35938 0.0
H6 H 0.1815 0.62671 0.32225 0.0
H7 H 0.23494 0.62037 0.21909 0.0
C8 C 0.19387 0.5802 0.1504 0.0
O9 O 0.18494 0.57396 0.21086 0.0
N10 N 0.18159 0.63046 0.07604 0.0
C11 C 0.16473 0.63668 0.06397 0.0
C12 C 0.16158 0.63675 0.996 0.0
C13 C 0.18864 0.62703 0.01554 0.0
N14 N 0.17658 0.63063 0.96555 0.0
C15 C 0.14677 0.60965 0.22932 0.0
C16 C 0.12178 0.56674 0.16031 0.0
C17 C 0.1097 0.57228 0.20925 0.0
C18 C 0.12245 0.59416 0.24369 0.0
C19 C 0.14603 0.5827 0.14767 0.0
N20 N 0.15864 0.60329 0.18438 0.0
H21 H 0.15576 0.62716 0.25263 0.0
H22 H 0.15429 0.57872 0.10646 0.0
H23 H 0.15518 0.64057 0.102 0.0
H24 H 0.20188 0.62144 0.00839 0.0
O25 O 0.1943 0.6557 0.19363 0.0
O26 O 0.22376 0.65263 0.1449 0.0
O27 O 0.19724 0.59986 0.12413 0.0
C28 C 0.2165 0.66626 0.17271 0.0
H29 H 0.24274 0.61984 0.34861 0.0
H30 H 0.14921 0.64105 0.971 0.0
H31 H 0.11252 0.55031 0.13131 0.0
H32 H 0.11352 0.59967 0.27965 0.0
Co33 Co 0.55952 0.18505 0.47008 0.0
C34 C 0.56524 0.18434 0.61794 0.0
C35 C 0.59719 0.21137 0.56973 0.0
C36 C 0.60103 0.21335 0.63758 0.0
N37 N 0.57489 0.19283 0.5572 0.0
N38 N 0.58088 0.1963 0.66778 0.0
H39 H 0.54679 0.17081 0.62649 0.0
H40 H 0.60965 0.22304 0.53203 0.0
C41 C 0.60454 0.18233 0.45245 0.0
O42 O 0.60053 0.17115 0.51008 0.0
N43 N 0.54468 0.17821 0.38342 0.0
C44 C 0.52138 0.16314 0.36865 0.0
C45 C 0.51864 0.16292 0.30038 0.0
C46 C 0.55578 0.18711 0.32467 0.0
N47 N 0.54031 0.178 0.27291 0.0
C48 C 0.52721 0.13856 0.52813 0.0
C49 C 0.54227 0.11271 0.45134 0.0
C50 C 0.52467 0.10054 0.50021 0.0
C51 C 0.51688 0.11371 0.53835 0.0
C52 C 0.55215 0.1375 0.44313 0.0
N53 N 0.5457 0.15044 0.48399 0.0
H54 H 0.51981 0.14808 0.55445 0.0
H55 H 0.56456 0.14605 0.40244 0.0
H56 H 0.50745 0.15288 0.4049 0.0
H57 H 0.57489 0.19958 0.31993 0.0
O58 O 0.53389 0.18958 0.50561 0.0
O59 O 0.56785 0.21819 0.46048 0.0
O60 O 0.58966 0.18825 0.42899 0.0
C61 C 0.54742 0.21219 0.48911 0.0
H62 H 0.61728 0.22652 0.6626 0.0
H63 H 0.50198 0.15253 0.27321 0.0
H64 H 0.54842 0.10318 0.41952 0.0
H65 H 0.50249 0.10481 0.57443 0.0
Co66 Co 0.37739 0.56676 0.84802 0.0
C67 C 0.38098 0.57269 0.99516 0.0
C68 C 0.391 0.60599 0.9444 0.0
C69 C 0.39294 0.61019 0.0121 0.0
N70 N 0.38367 0.58255 0.93387 0.0
N71 N 0.38664 0.58926 0.0441 0.0
H72 H 0.37515 0.55384 1.00358 0.0
H73 H 0.3944 0.61908 0.90558 0.0
C74 C 0.42017 0.6006 0.76361 0.0
O75 O 0.42103 0.58243 0.73587 0.0
N76 N 0.37063 0.5511 0.76089 0.0
C77 C 0.36274 0.52769 0.74687 0.0
C78 C 0.35911 0.52417 0.6792 0.0
C79 C 0.37081 0.56123 0.70131 0.0
N80 N 0.36431 0.54528 0.65042 0.0
C81 C 0.38752 0.52987 0.88988 0.0
C82 C 0.43687 0.55877 0.89961 0.0
C83 C 0.42656 0.53388 0.91038 0.0
C84 C 0.40144 0.51951 0.90728 0.0
C85 C 0.42221 0.56839 0.88279 0.0
N86 N 0.398 0.55373 0.8736 0.0
H87 H 0.3682 0.5186 0.89005 0.0
H88 H 0.43048 0.5877 0.87811 0.0
H89 H 0.3592 0.51374 0.7826 0.0
H90 H 0.37545 0.57988 0.69544 0.0
O91 O 0.34678 0.54134 0.88126 0.0
O92 O 0.35275 0.57488 0.83146 0.0
O93 O 0.40486 0.59703 0.8093 0.0
C94 C 0.33794 0.55463 0.86048 0.0
H95 H 0.39807 0.62727 0.03589 0.0
H96 H 0.35327 0.50732 0.6532 0.0
H97 H 0.45614 0.57074 0.90311 0.0
H98 H 0.39253 0.50042 0.91861 0.0
Co99 Co 0.80681 0.38177 0.18583 0.0
C100 C 0.80906 0.38709 0.33125 0.0
C101 C 0.78904 0.40228 0.28718 0.0
C102 C 0.78781 0.4035 0.35561 0.0
N103 N 0.80238 0.39202 0.27231 0.0
N104 N 0.80028 0.39377 0.3832 0.0
H105 H 0.81953 0.37812 0.3357 0.0
H106 H 0.77989 0.40744 0.25102 0.0
C107 C 0.81815 0.4237 0.09596 0.0
O108 O 0.83627 0.4221 0.07095 0.0
N109 N 0.8104 0.37094 0.09816 0.0
C110 C 0.82272 0.35987 0.07953 0.0
C111 C 0.82022 0.35595 0.01173 0.0
C112 C 0.79957 0.37233 0.04189 0.0
N113 N 0.80587 0.36408 0.98802 0.0
C114 C 0.8544 0.38917 0.20834 0.0
C115 C 0.87711 0.4388 0.21896 0.0
C116 C 0.89106 0.42752 0.22093 0.0
C117 C 0.8793 0.40228 0.2174 0.0
C118 C 0.85228 0.42496 0.20998 0.0
N119 N 0.84144 0.40063 0.19972 0.0
H120 H 0.84551 0.36977 0.20975 0.0
H121 H 0.84181 0.43393 0.21155 0.0
H122 H 0.83271 0.35463 0.11192 0.0
H123 H 0.78748 0.37954 0.04038 0.0
O124 O 0.80053 0.35134 0.22399 0.0
O125 O 0.7729 0.35904 0.1825 0.0
O126 O 0.80557 0.40977 0.14355 0.0
C127 C 0.77792 0.34399 0.21227 0.0
H128 H 0.77748 0.40988 0.38277 0.0
H129 H 0.82891 0.34834 0.98207 0.0
H130 H 0.88527 0.4582 0.22315 0.0
H131 H 0.88921 0.39272 0.22234 0.0
Co132 Co 0.41595 0.80055 0.52712 0.0
C133 C 0.40978 0.79794 0.67405 0.0
C134 C 0.37668 0.77457 0.62313 0.0
C135 C 0.37236 0.77243 0.69082 0.0
N136 N 0.40007 0.79065 0.61275 0.0
N137 N 0.39317 0.78713 0.72289 0.0
H138 H 0.42852 0.81109 0.68251 0.0
H139 H 0.36369 0.76494 0.58421 0.0
C140 C 0.38336 0.81197 0.44627 0.0
O141 O 0.40219 0.83167 0.42387 0.0
N142 N 0.43165 0.80975 0.43995 0.0
C143 C 0.45537 0.82329 0.42624 0.0
C144 C 0.45876 0.82346 0.35843 0.0
C145 C 0.42116 0.80105 0.37991 0.0
N146 N 0.43722 0.80955 0.32918 0.0
C147 C 0.45273 0.84847 0.56401 0.0
C148 C 0.4223 0.86695 0.58237 0.0
C149 C 0.44723 0.88269 0.58484 0.0
C150 C 0.46248 0.87297 0.57811 0.0
C151 C 0.41337 0.84257 0.56828 0.0
N152 N 0.42861 0.83404 0.5537 0.0
H153 H 0.46461 0.84112 0.56197 0.0
H154 H 0.39412 0.83067 0.56853 0.0
H155 H 0.46963 0.83174 0.46229 0.0
H156 H 0.40219 0.78825 0.37363 0.0
O157 O 0.4414 0.79526 0.55981 0.0
O158 O 0.40806 0.76789 0.50935 0.0
O159 O 0.38591 0.79835 0.48825 0.0
C160 C 0.42838 0.77328 0.53776 0.0
H161 H 0.35527 0.7606 0.71455 0.0
H162 H 0.47587 0.83303 0.33278 0.0
H163 H 0.40973 0.87345 0.58919 0.0
H164 H 0.48181 0.88419 0.58347 0.0
Co165 Co 0.62049 0.42599 0.84385 0.0
C166 C 0.61645 0.42103 0.98968 0.0
C167 C 0.61072 0.38834 0.94319 0.0
C168 C 0.60932 0.38513 0.01139 0.0
N169 N 0.61512 0.41081 0.92997 0.0
N170 N 0.61294 0.40573 0.0405 0.0
H171 H 0.62056 0.43953 0.99558 0.0
H172 H 0.60902 0.37534 0.90597 0.0
C173 C 0.57909 0.38921 0.76187 0.0
O174 O 0.57565 0.40637 0.73772 0.0
N175 N 0.62653 0.44115 0.75637 0.0
C176 C 0.63463 0.46451 0.74084 0.0
C177 C 0.6378 0.46742 0.67289 0.0
C178 C 0.62621 0.43058 0.69774 0.0
N179 N 0.63235 0.44601 0.64578 0.0
C180 C 0.60308 0.45863 0.87361 0.0
C181 C 0.55556 0.42374 0.89319 0.0
C182 C 0.56179 0.44809 0.89441 0.0
C183 C 0.58607 0.46566 0.88653 0.0
C184 C 0.5732 0.41756 0.88016 0.0
N185 N 0.5963 0.4349 0.86551 0.0
H186 H 0.62177 0.47233 0.87122 0.0
H187 H 0.5682 0.39876 0.88217 0.0
H188 H 0.63911 0.47891 0.77574 0.0
H189 H 0.62147 0.41188 0.69322 0.0
O190 O 0.64885 0.4539 0.87871 0.0
O191 O 0.64819 0.42219 0.83159 0.0
O192 O 0.59574 0.39412 0.80456 0.0
C193 C 0.66054 0.443 0.86086 0.0
H194 H 0.60589 0.36887 0.03737 0.0
H195 H 0.64432 0.4842 0.64588 0.0
H196 H 0.53723 0.40957 0.90248 0.0
H197 H 0.59189 0.48471 0.88907 0.0
C198 C 0.20135 0.56565 0.04295 0.0
C199 C 0.20129 0.56521 0.1129 0.0
C200 C 0.21171 0.55451 1.00676 0.0
C201 C 0.22289 0.54325 0.04005 0.0
C202 C 0.22114 0.54133 0.11003 0.0
C203 C 0.21033 0.5521 0.14617 0.0
C204 C 0.2387 0.53574 1.00536 0.0
C205 C 0.24633 0.54179 0.9418 0.0
C206 C 0.26782 0.54161 0.91474 0.0
C207 C 0.27634 0.52672 0.94032 0.0
C208 C 0.29871 0.53006 0.92007 0.0
C209 C 0.31285 0.54828 0.87407 0.0
H210 H 0.27499 0.57003 0.84383 0.0
C211 C 0.30355 0.56192 0.84518 0.0
C212 C 0.28121 0.5585 0.86499 0.0
H213 H 0.31391 0.57589 0.80894 0.0
H214 H 0.19394 0.5752 0.01612 0.0
H215 H 0.21148 0.55567 0.95307 0.0
H216 H 0.22928 0.53255 0.1372 0.0
H217 H 0.21038 0.55141 0.20018 0.0
H218 H 0.24689 0.52788 0.03645 0.0
H219 H 0.23913 0.5506 0.91091 0.0
H220 H 0.26615 0.51292 0.977 0.0
H221 H 0.30535 0.51908 0.94257 0.0
C222 C 0.64909 0.20044 0.45549 0.0
C223 C 0.62775 0.19121 0.41825 0.0
C224 C 0.67138 0.21385 0.42396 0.0
C225 C 0.67257 0.2176 0.35466 0.0
C226 C 0.65138 0.20646 0.31677 0.0
C227 C 0.62906 0.19364 0.34847 0.0
C228 C 0.695 0.23624 0.32311 0.0
C229 C 0.70466 0.25917 0.34384 0.0
C230 C 0.72309 0.27976 0.30533 0.0
C231 C 0.71949 0.29928 0.29283 0.0
C232 C 0.73692 0.31963 0.25938 0.0
C233 C 0.75866 0.32115 0.23982 0.0
H234 H 0.7476 0.26592 0.29359 0.0
C235 C 0.76233 0.30157 0.25208 0.0
C236 C 0.74444 0.28077 0.28379 0.0
H237 H 0.77905 0.30244 0.23776 0.0
H238 H 0.6485 0.19892 0.5094 0.0
H239 H 0.6876 0.22239 0.45397 0.0
H240 H 0.65197 0.20929 0.26332 0.0
H241 H 0.61279 0.1866 0.3188 0.0
H242 H 0.70098 0.23213 0.27672 0.0
H243 H 0.69645 0.26329 0.38559 0.0
H244 H 0.70314 0.29882 0.30925 0.0
H245 H 0.73378 0.3346 0.25133 0.0
C246 C 0.45555 0.75947 0.58646 0.0
C247 C 0.43564 0.75486 0.54673 0.0
C248 C 0.46081 0.74109 0.59988 0.0
C249 C 0.44616 0.71775 0.57381 0.0
C250 C 0.42718 0.71367 0.53092 0.0
C251 C 0.42188 0.73195 0.51782 0.0
C252 C 0.44878 0.69674 0.59349 0.0
C253 C 0.45758 0.69512 0.65315 0.0
C254 C 0.45274 0.67165 0.68152 0.0
C255 C 0.44974 0.65225 0.64143 0.0
C256 C 0.44083 0.62922 0.66913 0.0
C257 C 0.43465 0.62528 0.73703 0.0
H258 H 0.45112 0.6827 0.78257 0.0
C259 C 0.43951 0.64505 0.77783 0.0
C260 C 0.4487 0.66803 0.75042 0.0
H261 H 0.43517 0.64254 0.83054 0.0
H262 H 0.46667 0.77706 0.60871 0.0
H263 H 0.47608 0.74516 0.63142 0.0
H264 H 0.41572 0.69596 0.50966 0.0
H265 H 0.40658 0.72791 0.4863 0.0
H266 H 0.43968 0.68074 0.56239 0.0
H267 H 0.46476 0.7104 0.68699 0.0
H268 H 0.45341 0.6546 0.58841 0.0
H269 H 0.43734 0.61429 0.63663 0.0
C270 C 0.6984 0.44105 0.85496 0.0
C271 C 0.68602 0.45246 0.87892 0.0
C272 C 0.72109 0.44725 0.88 0.0
C273 C 0.73193 0.46507 0.92967 0.0
C274 C 0.72006 0.47735 0.95094 0.0
C275 C 0.69738 0.47123 0.9255 0.0
C276 C 0.7534 0.46845 0.96727 0.0
C277 C 0.76873 0.46153 0.94388 0.0
C278 C 0.78484 0.45703 0.98759 0.0
C279 C 0.77959 0.45125 0.05563 0.0
C280 C 0.79169 0.44198 0.09214 0.0
C281 C 0.80929 0.43823 0.06164 0.0
H282 H 0.80785 0.45887 0.90601 0.0
C283 C 0.81582 0.44564 0.99519 0.0
C284 C 0.80354 0.45474 0.95838 0.0
H285 H 0.82926 0.44291 0.97019 0.0
H286 H 0.6901 0.42652 0.81901 0.0
H287 H 0.72923 0.43688 0.86325 0.0
H288 H 0.72787 0.491 0.98949 0.0
H289 H 0.68824 0.48032 0.94499 0.0
H290 H 0.75546 0.47521 0.01794 0.0
H291 H 0.76825 0.45711 0.89139 0.0
H292 H 0.76501 0.45218 0.08 0.0
H293 H 0.78633 0.43652 0.14337 0.0
C294 C 0.35661 0.81126 0.35411 0.0
C295 C 0.35925 0.80378 0.41796 0.0
C296 C 0.33407 0.80018 0.32289 0.0
C297 C 0.31384 0.7815 0.35531 0.0
C298 C 0.31621 0.77561 0.42126 0.0
C299 C 0.33871 0.78647 0.45209 0.0
C300 C 0.2907 0.76599 0.32046 0.0
C301 C 0.28972 0.76046 0.25524 0.0
C302 C 0.26919 0.73843 0.22627 0.0
C303 C 0.27412 0.72614 0.17631 0.0
C304 C 0.25653 0.7031 0.15641 0.0
C305 C 0.23352 0.69202 0.18538 0.0
H306 H 0.24094 0.73746 0.28849 0.0
C307 C 0.22789 0.7051 0.23116 0.0
C308 C 0.24559 0.72814 0.25151 0.0
H309 H 0.21019 0.69709 0.25372 0.0
H310 H 0.37212 0.82471 0.32684 0.0
H311 H 0.33272 0.80569 0.27274 0.0
H312 H 0.30089 0.76148 0.44767 0.0
H313 H 0.34016 0.78061 0.50178 0.0
H314 H 0.27503 0.75549 0.35175 0.0
H315 H 0.30599 0.76951 0.22531 0.0
H316 H 0.29206 0.73374 0.1555 0.0
H317 H 0.2613 0.69357 0.12032 0.0
C318 C 0.52505 0.22705 0.5589 0.0
C319 C 0.5412 0.2308 0.50675 0.0
C320 C 0.52237 0.24619 0.58246 0.0
C321 C 0.53568 0.2693 0.55374 0.0
C322 C 0.55035 0.27244 0.49837 0.0
C323 C 0.55328 0.25347 0.47552 0.0
C324 C 0.53639 0.29097 0.58298 0.0
C325 C 0.53519 0.29369 0.64927 0.0
C326 C 0.54328 0.31758 0.68052 0.0
C327 C 0.5543 0.32212 0.74342 0.0
C328 C 0.56523 0.34524 0.77081 0.0
C329 C 0.56501 0.36428 0.73632 0.0
H330 H 0.53284 0.33324 0.59992 0.0
C331 C 0.55257 0.35943 0.67541 0.0
C332 C 0.54183 0.33629 0.64761 0.0
H333 H 0.55193 0.3737 0.64795 0.0
H334 H 0.51542 0.2097 0.58362 0.0
H335 H 0.51037 0.24301 0.62409 0.0
H336 H 0.56062 0.28998 0.47494 0.0
H337 H 0.56565 0.25679 0.43473 0.0
H338 H 0.54199 0.30643 0.5503 0.0
H339 H 0.53187 0.27888 0.6824 0.0
H340 H 0.55548 0.30799 0.77014 0.0
H341 H 0.57437 0.34831 0.81831 0.0
C342 C 0.20008 0.63098 0.86662 0.0
C343 C 0.17854 0.62775 0.89469 0.0
C344 C 0.20193 0.62845 0.79773 0.0
C345 C 0.18222 0.62258 0.75528 0.0
C346 C 0.16061 0.6189 0.78367 0.0
C347 C 0.15881 0.62158 0.85229 0.0
C348 C 0.18307 0.61945 0.6817 0.0
C349 C 0.20353 0.62982 0.64528 0.0
C350 C 0.20447 0.62734 0.57128 0.0
C351 C 0.22679 0.63403 0.54151 0.0
C352 C 0.22879 0.63244 0.47241 0.0
C353 C 0.20849 0.62422 0.43087 0.0
H354 H 0.16664 0.61449 0.54956 0.0
C355 C 0.18615 0.61768 0.46047 0.0
C356 C 0.18413 0.61928 0.52965 0.0
H357 H 0.17009 0.61114 0.43026 0.0
H358 H 0.21561 0.63573 0.89778 0.0
H359 H 0.21871 0.63075 0.7784 0.0
H360 H 0.14503 0.61408 0.75252 0.0
H361 H 0.14181 0.61848 0.87219 0.0
H362 H 0.1659 0.60858 0.65706 0.0
H363 H 0.2206 0.6408 0.67041 0.0
H364 H 0.24284 0.64055 0.57187 0.0
H365 H 0.24638 0.63803 0.45159 0.0
C366 C 0.58883 0.21123 0.78424 0.0
C367 C 0.57629 0.19238 0.73845 0.0
C368 C 0.58388 0.20751 0.85256 0.0
C369 C 0.56612 0.18481 0.87663 0.0
C370 C 0.55401 0.16589 0.83093 0.0
C371 C 0.55895 0.16962 0.76273 0.0
C372 C 0.55988 0.17985 0.94865 0.0
C373 C 0.56487 0.19707 0.9947 0.0
C374 C 0.55804 0.19164 0.06614 0.0
C375 C 0.57161 0.20913 0.11427 0.0
C376 C 0.56578 0.20471 0.18194 0.0
C377 C 0.54603 0.18276 0.20298 0.0
H378 H 0.52658 0.15618 0.05141 0.0
C379 C 0.53212 0.16544 0.15468 0.0
C380 C 0.53801 0.16982 0.08702 0.0
H381 H 0.51684 0.14833 0.16914 0.0
H382 H 0.60226 0.229 0.76733 0.0
H383 H 0.59422 0.22245 0.8859 0.0
H384 H 0.54047 0.14814 0.84796 0.0
H385 H 0.5493 0.15457 0.72908 0.0
H386 H 0.55039 0.16103 0.96377 0.0
H387 H 0.57459 0.21596 0.98054 0.0
H388 H 0.58692 0.22622 0.09953 0.0
H389 H 0.57663 0.21861 0.21769 0.0
C390 C 0.37961 0.57245 0.55196 0.0
C391 C 0.36385 0.54971 0.5798 0.0
C392 C 0.38017 0.57615 0.48279 0.0
C393 C 0.36493 0.55714 0.43982 0.0
C394 C 0.3487 0.5347 0.46813 0.0
C395 C 0.34824 0.53099 0.53701 0.0
C396 C 0.36496 0.55982 0.36568 0.0
C397 C 0.38361 0.57703 0.33047 0.0
C398 C 0.38377 0.57937 0.25621 0.0
C399 C 0.39987 0.60171 0.22723 0.0
C400 C 0.40086 0.60487 0.158 0.0
C401 C 0.38591 0.58566 0.11554 0.0
H402 H 0.35687 0.54221 0.23349 0.0
C403 C 0.37011 0.5631 0.14425 0.0
C404 C 0.36903 0.55996 0.21372 0.0
H405 H 0.35833 0.54792 0.11314 0.0
H406 H 0.39189 0.58725 0.58345 0.0
H407 H 0.39246 0.59396 0.46364 0.0
H408 H 0.33651 0.5198 0.43668 0.0
H409 H 0.33558 0.51338 0.55676 0.0
H410 H 0.34901 0.54659 0.33934 0.0
H411 H 0.39955 0.59031 0.35672 0.0
H412 H 0.41168 0.61692 0.25835 0.0
H413 H 0.41356 0.62237 0.13774 0.0
C414 C 0.80226 0.35129 0.8701 0.0
C415 C 0.80089 0.3663 0.91898 0.0
C416 C 0.79949 0.35482 0.80257 0.0
C417 C 0.79547 0.37362 0.78236 0.0
C418 C 0.7931 0.38795 0.83136 0.0
C419 C 0.79586 0.38442 0.89884 0.0
C420 C 0.79361 0.37883 0.71101 0.0
C421 C 0.80416 0.37332 0.6612 0.0
C422 C 0.80304 0.37912 0.58995 0.0
C423 C 0.80625 0.36537 0.54081 0.0
C424 C 0.80548 0.37022 0.4732 0.0
C425 C 0.80173 0.38917 0.45305 0.0
H426 H 0.79798 0.40995 0.6062 0.0
C427 C 0.79894 0.40324 0.50227 0.0
C428 C 0.79964 0.39834 0.56998 0.0
H429 H 0.7965 0.41826 0.48851 0.0
H430 H 0.80553 0.33681 0.88398 0.0
H431 H 0.80042 0.34269 0.76666 0.0
H432 H 0.78977 0.4024 0.81732 0.0
H433 H 0.79482 0.39644 0.93487 0.0
H434 H 0.78384 0.38825 0.69988 0.0
H435 H 0.81396 0.36395 0.6724 0.0
H436 H 0.80905 0.35057 0.55474 0.0
H437 H 0.80737 0.35878 0.43688 0.0
C438 C 0.41043 0.80001 0.23072 0.0
C439 C 0.43262 0.80504 0.25851 0.0
C440 C 0.40655 0.7969 0.16163 0.0
C441 C 0.42484 0.79876 0.11865 0.0
C442 C 0.44673 0.80316 0.14691 0.0
C443 C 0.45062 0.80636 0.2157 0.0
C444 C 0.42199 0.79588 0.04458 0.0
C445 C 0.40513 0.79781 0.00899 0.0
C446 C 0.40279 0.79525 0.93483 0.0
C447 C 0.38049 0.78885 0.90551 0.0
C448 C 0.37739 0.78628 0.83631 0.0
C449 C 0.39664 0.79031 0.79428 0.0
H450 H 0.43993 0.8054 0.91282 0.0
C451 C 0.41915 0.79724 0.82335 0.0
C452 C 0.42222 0.79969 0.89275 0.0
H453 H 0.43435 0.80048 0.79257 0.0
H454 H 0.3962 0.79895 0.26221 0.0
H455 H 0.38914 0.79288 0.14265 0.0
H456 H 0.46107 0.8044 0.1155 0.0
H457 H 0.46777 0.80977 0.23535 0.0
H458 H 0.43477 0.79238 0.01846 0.0
H459 H 0.39212 0.80106 0.03464 0.0
H460 H 0.36527 0.78563 0.93634 0.0
H461 H 0.35993 0.78136 0.81572 0.0
C462 C 0.61966 0.398 0.15743 0.0
C463 C 0.61373 0.41069 0.11094 0.0
C464 C 0.62083 0.40311 0.22559 0.0
C465 C 0.61621 0.42119 0.24884 0.0
C466 C 0.60988 0.43355 0.20243 0.0
C467 C 0.60873 0.42844 0.13434 0.0
C468 C 0.61724 0.42743 0.32076 0.0
C469 C 0.62915 0.42226 0.36751 0.0
C470 C 0.63016 0.42896 0.43896 0.0
C471 C 0.63398 0.41537 0.4875 0.0
C472 C 0.63487 0.42101 0.55522 0.0
C473 C 0.63224 0.44058 0.57588 0.0
H474 H 0.62591 0.46033 0.42367 0.0
C475 C 0.62898 0.45452 0.52711 0.0
C476 C 0.62803 0.44886 0.45949 0.0
H477 H 0.62678 0.46964 0.54114 0.0
H478 H 0.62371 0.38427 0.1412 0.0
H479 H 0.62507 0.39259 0.25948 0.0
H480 H 0.60595 0.44736 0.21884 0.0
H481 H 0.60368 0.43827 0.10015 0.0
H482 H 0.60794 0.43702 0.33518 0.0
H483 H 0.63828 0.41246 0.35392 0.0
H484 H 0.63601 0.40016 0.47305 0.0
H485 H 0.6378 0.41012 0.59123 0.0
C486 C 0.92897 0.46291 0.26486 0.0
C487 C 0.9177 0.44205 0.22511 0.0
C488 C 0.95398 0.47772 0.26395 0.0
C489 C 0.96831 0.47184 0.22357 0.0
C490 C 0.95704 0.45066 0.18529 0.0
C491 C 0.93205 0.4359 0.1861 0.0
C492 C -0.00533 0.48807 0.21568 0.0
C493 C 0.00846 0.50634 0.25738 0.0
C494 C 0.03436 0.52328 0.24427 0.0
C495 C 0.04995 0.53485 0.29804 0.0
C496 C 0.07443 0.55091 0.28689 0.0
C497 C 0.08369 0.55581 0.22161 0.0
H498 H 0.03192 0.52106 0.13598 0.0
C499 C 0.06792 0.54474 0.16778 0.0
C500 C 0.04354 0.52875 0.17889 0.0
H501 H 0.07437 0.54869 0.11681 0.0
H502 H 0.91843 0.46801 0.29601 0.0
H503 H 0.96175 0.49407 0.29326 0.0
H504 H 0.96757 0.44575 0.15335 0.0
H505 H 0.92394 0.42014 0.15421 0.0
H506 H 0.00308 0.48461 0.17329 0.0
H507 H 0.00096 0.50872 0.30336 0.0
H508 H 0.04326 0.53121 0.34882 0.0
H509 H 0.08616 0.55916 0.32937 0.0
C510 C 0.51078 0.06429 0.57432 0.0
C511 C 0.51423 0.07418 0.50989 0.0
C512 C 0.5025 0.03966 0.58312 0.0
C513 C 0.49729 0.02441 0.52743 0.0
C514 C 0.50032 0.03432 0.46322 0.0
C515 C 0.50861 0.05886 0.45449 0.0
C516 C 0.48989 -0.00154 0.53332 0.0
C517 C 0.48096 0.98515 0.58915 0.0
C518 C 0.47365 0.95916 0.59135 0.0
C519 C 0.45458 0.94348 0.63292 0.0
C520 C 0.44633 0.91869 0.63245 0.0
C521 C 0.45723 0.90915 0.59093 0.0
H522 H 0.50061 0.96139 0.52138 0.0
C523 C 0.47708 0.92504 0.5518 0.0
C524 C 0.48527 0.94975 0.5522 0.0
H525 H 0.48587 0.91832 0.51909 0.0
H526 H 0.51525 0.07573 0.61793 0.0
H527 H 0.50097 0.03294 0.63345 0.0
H528 H 0.49645 0.02305 0.41941 0.0
H529 H 0.51074 0.06588 0.4042 0.0
H530 H 0.49111 0.9897 0.48822 0.0
H531 H 0.47743 0.99285 0.63294 0.0
H532 H 0.44558 0.95034 0.6644 0.0
H533 H 0.43127 0.90697 0.66411 0.0
C534 C 0.43581 0.50044 0.89502 0.0
C535 C 0.44182 0.52284 0.92343 0.0
C536 C 0.45062 0.49044 0.90416 0.0
C537 C 0.47207 0.50281 0.94121 0.0
C538 C 0.47765 0.52479 0.97153 0.0
C539 C 0.46276 0.53476 0.96261 0.0
C540 C 0.4891 0.49353 0.94875 0.0
C541 C 0.49058 0.47853 0.90421 0.0
C542 C 0.50847 0.47021 0.90763 0.0
C543 C 0.50411 0.44991 0.87006 0.0
C544 C 0.52112 0.44237 0.8674 0.0
C545 C 0.54303 0.45508 0.90196 0.0
H546 H 0.53464 0.49877 0.97169 0.0
C547 C 0.54728 0.47517 0.94058 0.0
C548 C 0.53023 0.48272 0.94333 0.0
H549 H 0.56392 0.48525 0.96817 0.0
H550 H 0.41987 0.49078 0.86437 0.0
H551 H 0.44507 0.47303 0.88205 0.0
H552 H 0.49386 0.53454 1.00114 0.0
H553 H 0.46767 0.5518 0.98639 0.0
H554 H 0.50134 0.50013 0.99088 0.0
H555 H 0.47843 0.47219 0.86184 0.0
H556 H 0.48762 0.44003 0.84167 0.0
H557 H 0.51742 0.42703 0.8364 0.0
loop_
_geom_bond_atom_site_label_1
_geom_bond_atom_site_label_2
_geom_bond_distance
_geom_bond_site_symmetry_2
_ccdc_geom_bond_type
Co0 N4 2.148 . S
Co0 N10 2.128 . S
Co0 N20 2.194 . S
Co0 O25 2.351 . S
Co0 O26 2.155 . S
Co0 O27 2.096 . S
C1 N4 1.301 . S
C1 N5 1.328 . S
C1 H6 0.930 . S
C2 C3 1.333 . S
C2 N4 1.317 . S
C2 H7 0.930 . S
C3 C2 1.333 . S
C3 N5 1.350 . S
C3 H29 0.931 . S
N4 Co0 2.148 . S
N4 C1 1.301 . S
N4 C2 1.317 . S
N5 C1 1.328 . S
N5 C3 1.350 . S
H6 C1 0.930 . S
H7 C2 0.930 . S
C8 O9 1.224 . S
C8 O27 1.247 . S
O9 C8 1.224 . S
N10 Co0 2.128 . S
N10 C11 1.355 . S
N10 C13 1.311 . S
C11 N10 1.355 . S
C11 C12 1.363 1_554 S
C11 H23 0.929 . S
C12 C11 1.363 1_556 S
C12 N14 1.375 . S
C12 H30 0.931 . S
C13 N10 1.311 . S
C13 N14 1.347 1_554 S
C13 H24 0.929 . S
N14 C12 1.375 . S
N14 C13 1.347 1_556 S
C15 C18 1.365 . S
C15 N20 1.328 . S
C15 H21 0.929 . S
C16 C17 1.362 . S
C16 C19 1.378 . S
C16 H31 0.929 . S
C17 C16 1.362 . S
C17 C18 1.366 . S
C18 C15 1.365 . S
C18 C17 1.366 . S
C18 H32 0.930 . S
C19 C16 1.378 . S
C19 N20 1.315 . S
C19 H22 0.930 . S
N20 Co0 2.194 . S
N20 C15 1.328 . S
N20 C19 1.315 . S
H21 C15 0.929 . S
H22 C19 0.930 . S
H23 C11 0.929 . S
H24 C13 0.929 . S
O25 Co0 2.351 . S
O25 C28 1.244 . S
O26 Co0 2.155 . S
O26 C28 1.240 . S
O27 Co0 2.096 . S
O27 C8 1.247 . S
C28 O25 1.244 . S
C28 O26 1.240 . S
H29 C3 0.931 . S
H30 C12 0.931 . S
H31 C16 0.929 . S
H32 C18 0.930 . S
Co33 N37 2.148 . S
Co33 N43 2.128 . S
Co33 N53 2.194 . S
Co33 O58 2.351 . S
Co33 O59 2.155 . S
Co33 O60 2.096 . S
C34 N37 1.301 . S
C34 N38 1.328 . S
C34 H39 0.930 . S
C35 C36 1.333 . S
C35 N37 1.317 . S
C35 H40 0.930 . S
C36 C35 1.333 . S
C36 N38 1.350 . S
C36 H62 0.931 . S
N37 Co33 2.148 . S
N37 C34 1.301 . S
N37 C35 1.317 . S
N38 C34 1.328 . S
N38 C36 1.350 . S
H39 C34 0.930 . S
H40 C35 0.930 . S
C41 O42 1.224 . S
C41 O60 1.247 . S
O42 C41 1.224 . S
N43 Co33 2.128 . S
N43 C44 1.355 . S
N43 C46 1.311 . S
C44 N43 1.355 . S
C44 C45 1.363 . S
C44 H56 0.929 . S
C45 C44 1.363 . S
C45 N47 1.375 . S
C45 H63 0.931 . S
C46 N43 1.311 . S
C46 N47 1.347 . S
C46 H57 0.929 . S
N47 C45 1.375 . S
N47 C46 1.347 . S
C48 C51 1.365 . S
C48 N53 1.328 . S
C48 H54 0.929 . S
C49 C50 1.362 . S
C49 C52 1.378 . S
C49 H64 0.929 . S
C50 C49 1.362 . S
C50 C51 1.366 . S
C51 C48 1.365 . S
C51 C50 1.366 . S
C51 H65 0.930 . S
C52 C49 1.378 . S
C52 N53 1.315 . S
C52 H55 0.930 . S
N53 Co33 2.194 . S
N53 C48 1.328 . S
N53 C52 1.315 . S
H54 C48 0.929 . S
H55 C52 0.930 . S
H56 C44 0.929 . S
H57 C46 0.929 . S
O58 Co33 2.351 . S
O58 C61 1.244 . S
O59 Co33 2.155 . S
O59 C61 1.240 . S
O60 Co33 2.096 . S
O60 C41 1.247 . S
C61 O58 1.244 . S
C61 O59 1.240 . S
H62 C36 0.931 . S
H63 C45 0.931 . S
H64 C49 0.929 . S
H65 C51 0.930 . S
Co66 N70 2.148 . S
Co66 N76 2.128 . S
Co66 N86 2.194 . S
Co66 O91 2.351 . S
Co66 O92 2.155 . S
Co66 O93 2.096 . S
C67 N70 1.301 . S
C67 N71 1.328 1_556 S
C67 H72 0.930 . S
C68 C69 1.333 1_556 S
C68 N70 1.317 . S
C68 H73 0.930 . S
C69 C68 1.333 1_554 S
C69 N71 1.350 . S
C69 H95 0.931 . S
N70 Co66 2.148 . S
N70 C67 1.301 . S
N70 C68 1.317 . S
N71 C67 1.328 1_554 S
N71 C69 1.350 . S
H72 C67 0.930 . S
H73 C68 0.930 . S
C74 O75 1.224 . S
C74 O93 1.247 . S
O75 C74 1.224 . S
N76 Co66 2.128 . S
N76 C77 1.355 . S
N76 C79 1.311 . S
C77 N76 1.355 . S
C77 C78 1.363 . S
C77 H89 0.929 . S
C78 C77 1.363 . S
C78 N80 1.375 . S
C78 H96 0.931 . S
C79 N76 1.311 . S
C79 N80 1.347 . S
C79 H90 0.929 . S
N80 C78 1.375 . S
N80 C79 1.347 . S
C81 C84 1.365 . S
C81 N86 1.328 . S
C81 H87 0.929 . S
C82 C83 1.362 . S
C82 C85 1.378 . S
C82 H97 0.929 . S
C83 C82 1.362 . S
C83 C84 1.366 . S
C84 C81 1.365 . S
C84 C83 1.366 . S
C84 H98 0.930 . S
C85 C82 1.378 . S
C85 N86 1.315 . S
C85 H88 0.930 . S
N86 Co66 2.194 . S
N86 C81 1.328 . S
N86 C85 1.315 . S
H87 C81 0.929 . S
H88 C85 0.930 . S
H89 C77 0.929 . S
H90 C79 0.929 . S
O91 Co66 2.351 . S
O91 C94 1.244 . S
O92 Co66 2.155 . S
O92 C94 1.240 . S
O93 Co66 2.096 . S
O93 C74 1.247 . S
C94 O91 1.244 . S
C94 O92 1.240 . S
H95 C69 0.931 . S
H96 C78 0.931 . S
H97 C82 0.929 . S
H98 C84 0.930 . S
Co99 N103 2.148 . S
Co99 N109 2.128 . S
Co99 N119 2.194 . S
Co99 O124 2.351 . S
Co99 O125 2.155 . S
Co99 O126 2.096 . S
C100 N103 1.301 . S
C100 N104 1.328 . S
C100 H105 0.930 . S
C101 C102 1.333 . S
C101 N103 1.317 . S
C101 H106 0.930 . S
C102 C101 1.333 . S
C102 N104 1.350 . S
C102 H128 0.931 . S
N103 Co99 2.148 . S
N103 C100 1.301 . S
N103 C101 1.317 . S
N104 C100 1.328 . S
N104 C102 1.350 . S
H105 C100 0.930 . S
H106 C101 0.930 . S
C107 O108 1.224 . S
C107 O126 1.247 . S
O108 C107 1.224 . S
N109 Co99 2.128 . S
N109 C110 1.355 . S
N109 C112 1.311 . S
C110 N109 1.355 . S
C110 C111 1.363 1_554 S
C110 H122 0.929 . S
C111 C110 1.363 1_556 S
C111 N113 1.375 . S
C111 H129 0.931 . S
C112 N109 1.311 . S
C112 N113 1.347 1_554 S
C112 H123 0.929 . S
N113 C111 1.375 . S
N113 C112 1.347 1_556 S
C114 C117 1.365 . S
C114 N119 1.328 . S
C114 H120 0.929 . S
C115 C116 1.362 . S
C115 C118 1.378 . S
C115 H130 0.929 . S
C116 C115 1.362 . S
C116 C117 1.366 . S
C117 C114 1.365 . S
C117 C116 1.366 . S
C117 H131 0.930 . S
C118 C115 1.378 . S
C118 N119 1.315 . S
C118 H121 0.930 . S
N119 Co99 2.194 . S
N119 C114 1.328 . S
N119 C118 1.315 . S
H120 C114 0.929 . S
H121 C118 0.930 . S
H122 C110 0.929 . S
H123 C112 0.929 . S
O124 Co99 2.351 . S
O124 C127 1.244 . S
O125 Co99 2.155 . S
O125 C127 1.240 . S
O126 Co99 2.096 . S
O126 C107 1.247 . S
C127 O124 1.244 . S
C127 O125 1.240 . S
H128 C102 0.931 . S
H129 C111 0.931 . S
H130 C115 0.929 . S
H131 C117 0.930 . S
Co132 N136 2.148 . S
Co132 N142 2.128 . S
Co132 N152 2.194 . S
Co132 O157 2.351 . S
Co132 O158 2.155 . S
Co132 O159 2.096 . S
C133 N136 1.301 . S
C133 N137 1.328 . S
C133 H138 0.930 . S
C134 C135 1.333 . S
C134 N136 1.317 . S
C134 H139 0.930 . S
C135 C134 1.333 . S
C135 N137 1.350 . S
C135 H161 0.931 . S
N136 Co132 2.148 . S
N136 C133 1.301 . S
N136 C134 1.317 . S
N137 C133 1.328 . S
N137 C135 1.350 . S
H138 C133 0.930 . S
H139 C134 0.930 . S
C140 O141 1.224 . S
C140 O159 1.247 . S
O141 C140 1.224 . S
N142 Co132 2.128 . S
N142 C143 1.355 . S
N142 C145 1.311 . S
C143 N142 1.355 . S
C143 C144 1.363 . S
C143 H155 0.929 . S
C144 C143 1.363 . S
C144 N146 1.375 . S
C144 H162 0.931 . S
C145 N142 1.311 . S
C145 N146 1.347 . S
C145 H156 0.929 . S
N146 C144 1.375 . S
N146 C145 1.347 . S
C147 C150 1.365 . S
C147 N152 1.328 . S
C147 H153 0.929 . S
C148 C149 1.362 . S
C148 C151 1.378 . S
C148 H163 0.929 . S
C149 C148 1.362 . S
C149 C150 1.366 . S
C150 C147 1.365 . S
C150 C149 1.366 . S
C150 H164 0.930 . S
C151 C148 1.378 . S
C151 N152 1.315 . S
C151 H154 0.930 . S
N152 Co132 2.194 . S
N152 C147 1.328 . S
N152 C151 1.315 . S
H153 C147 0.929 . S
H154 C151 0.930 . S
H155 C143 0.929 . S
H156 C145 0.929 . S
O157 Co132 2.351 . S
O157 C160 1.244 . S
O158 Co132 2.155 . S
O158 C160 1.240 . S
O159 Co132 2.096 . S
O159 C140 1.247 . S
C160 O157 1.244 . S
C160 O158 1.240 . S
H161 C135 0.931 . S
H162 C144 0.931 . S
H163 C148 0.929 . S
H164 C150 0.930 . S
Co165 N169 2.148 . S
Co165 N175 2.128 . S
Co165 N185 2.194 . S
Co165 O190 2.351 . S
Co165 O191 2.155 . S
Co165 O192 2.096 . S
C166 N169 1.301 . S
C166 N170 1.328 1_556 S
C166 H171 0.930 . S
C167 C168 1.333 1_556 S
C167 N169 1.317 . S
C167 H172 0.930 . S
C168 C167 1.333 1_554 S
C168 N170 1.350 . S
C168 H194 0.931 . S
N169 Co165 2.148 . S
N169 C166 1.301 . S
N169 C167 1.317 . S
N170 C166 1.328 1_554 S
N170 C168 1.350 . S
H171 C166 0.930 . S
H172 C167 0.930 . S
C173 O174 1.224 . S
C173 O192 1.247 . S
O174 C173 1.224 . S
N175 Co165 2.128 . S
N175 C176 1.355 . S
N175 C178 1.311 . S
C176 N175 1.355 . S
C176 C177 1.363 . S
C176 H188 0.929 . S
C177 C176 1.363 . S
C177 N179 1.375 . S
C177 H195 0.931 . S
C178 N175 1.311 . S
C178 N179 1.347 . S
C178 H189 0.929 . S
N179 C177 1.375 . S
N179 C178 1.347 . S
C180 C183 1.365 . S
C180 N185 1.328 . S
C180 H186 0.929 . S
C181 C182 1.362 . S
C181 C184 1.378 . S
C181 H196 0.929 . S
C182 C181 1.362 . S
C182 C183 1.366 . S
C183 C180 1.365 . S
C183 C182 1.366 . S
C183 H197 0.930 . S
C184 C181 1.378 . S
C184 N185 1.315 . S
C184 H187 0.930 . S
N185 Co165 2.194 . S
N185 C180 1.328 . S
N185 C184 1.315 . S
H186 C180 0.929 . S
H187 C184 0.930 . S
H188 C176 0.929 . S
H189 C178 0.929 . S
O190 Co165 2.351 . S
O190 C193 1.244 . S
O191 Co165 2.155 . S
O191 C193 1.240 . S
O192 Co165 2.096 . S
O192 C173 1.247 . S
C193 O190 1.244 . S
C193 O191 1.240 . S
H194 C168 0.931 . S
H195 C177 0.931 . S
H196 C181 0.929 . S
H197 C183 0.930 . S
C198 C199 1.386 . S
C198 C200 1.383 . S
C198 H214 0.951 . S
C199 C198 1.386 . S
C199 C203 1.383 . S
C200 C198 1.383 . S
C200 C201 1.402 . S
C200 H215 0.951 1_554 S
C201 C200 1.402 . S
C201 C202 1.375 . S
C201 C204 1.481 . S
C202 C201 1.375 . S
C202 C203 1.367 . S
C202 H216 0.951 . S
C203 C199 1.383 . S
C203 C202 1.367 . S
C203 H217 0.950 . S
C204 C201 1.481 . S
C204 C205 1.297 1_554 S
C204 H218 0.950 . S
C205 C204 1.297 1_556 S
C205 C206 1.479 . S
C205 H219 0.950 . S
C206 C205 1.479 . S
C206 C207 1.375 . S
C206 C212 1.404 . S
C207 C206 1.375 . S
C207 C208 1.369 . S
C207 H220 0.950 . S
C208 C207 1.369 . S
C208 C209 1.392 . S
C208 H221 0.951 . S
C209 C208 1.392 . S
C209 C211 1.384 . S
H210 C212 0.949 . S
C211 C209 1.384 . S
C211 C212 1.385 . S
C211 H213 0.950 . S
C212 C206 1.404 . S
C212 H210 0.949 . S
C212 C211 1.385 . S
H213 C211 0.950 . S
H214 C198 0.951 . S
H215 C200 0.951 1_556 S
H216 C202 0.951 . S
H217 C203 0.950 . S
H218 C204 0.950 . S
H219 C205 0.950 . S
H220 C207 0.950 . S
H221 C208 0.951 . S
C222 C223 1.386 . S
C222 C224 1.383 . S
C222 H238 0.951 . S
C223 C222 1.386 . S
C223 C227 1.383 . S
C224 C222 1.383 . S
C224 C225 1.402 . S
C224 H239 0.951 . S
C225 C224 1.402 . S
C225 C226 1.375 . S
C225 C228 1.481 . S
C226 C225 1.375 . S
C226 C227 1.367 . S
C226 H240 0.951 . S
C227 C223 1.383 . S
C227 C226 1.367 . S
C227 H241 0.950 . S
C228 C225 1.481 . S
C228 C229 1.297 . S
C228 H242 0.950 . S
C229 C228 1.297 . S
C229 C230 1.479 . S
C229 H243 0.950 . S
C230 C229 1.479 . S
C230 C231 1.375 . S
C230 C236 1.404 . S
C231 C230 1.375 . S
C231 C232 1.369 . S
C231 H244 0.950 . S
C232 C231 1.369 . S
C232 C233 1.392 . S
C232 H245 0.951 . S
C233 C232 1.392 . S
C233 C235 1.384 . S
H234 C236 0.949 . S
C235 C233 1.384 . S
C235 C236 1.385 . S
C235 H237 0.950 . S
C236 C230 1.404 . S
C236 H234 0.949 . S
C236 C235 1.385 . S
H237 C235 0.950 . S
H238 C222 0.951 . S
H239 C224 0.951 . S
H240 C226 0.951 . S
H241 C227 0.950 . S
H242 C228 0.950 . S
H243 C229 0.950 . S
H244 C231 0.950 . S
H245 C232 0.951 . S
C246 C247 1.386 . S
C246 C248 1.383 . S
C246 H262 0.951 . S
C247 C246 1.386 . S
C247 C251 1.383 . S
C248 C246 1.383 . S
C248 C249 1.402 . S
C248 H263 0.951 . S
C249 C248 1.402 . S
C249 C250 1.375 . S
C249 C252 1.481 . S
C250 C249 1.375 . S
C250 C251 1.367 . S
C250 H264 0.951 . S
C251 C247 1.383 . S
C251 C250 1.367 . S
C251 H265 0.950 . S
C252 C249 1.481 . S
C252 C253 1.297 . S
C252 H266 0.950 . S
C253 C252 1.297 . S
C253 C254 1.479 . S
C253 H267 0.950 . S
C254 C253 1.479 . S
C254 C255 1.375 . S
C254 C260 1.404 . S
C255 C254 1.375 . S
C255 C256 1.369 . S
C255 H268 0.950 . S
C256 C255 1.369 . S
C256 C257 1.392 . S
C256 H269 0.951 . S
C257 C256 1.392 . S
C257 C259 1.384 . S
H258 C260 0.949 . S
C259 C257 1.384 . S
C259 C260 1.385 . S
C259 H261 0.950 . S
C260 C254 1.404 . S
C260 H258 0.949 . S
C260 C259 1.385 . S
H261 C259 0.950 . S
H262 C246 0.951 . S
H263 C248 0.951 . S
H264 C250 0.951 . S
H265 C251 0.950 . S
H266 C252 0.950 . S
H267 C253 0.950 . S
H268 C255 0.950 . S
H269 C256 0.951 . S
C270 C271 1.386 . S
C270 C272 1.383 . S
C270 H286 0.951 . S
C271 C270 1.386 . S
C271 C275 1.383 . S
C272 C270 1.383 . S
C272 C273 1.402 . S
C272 H287 0.951 . S
C273 C272 1.402 . S
C273 C274 1.375 . S
C273 C276 1.481 . S
C274 C273 1.375 . S
C274 C275 1.367 . S
C274 H288 0.951 . S
C275 C271 1.383 . S
C275 C274 1.367 . S
C275 H289 0.950 . S
C276 C273 1.481 . S
C276 C277 1.297 . S
C276 H290 0.950 . S
C277 C276 1.297 . S
C277 C278 1.479 1_556 S
C277 H291 0.950 . S
C278 C277 1.479 1_554 S
C278 C279 1.375 . S
C278 C284 1.404 . S
C279 C278 1.375 . S
C279 C280 1.369 . S
C279 H292 0.950 . S
C280 C279 1.369 . S
C280 C281 1.392 . S
C280 H293 0.951 . S
C281 C280 1.392 . S
C281 C283 1.384 . S
H282 C284 0.949 1_556 S
C283 C281 1.384 . S
C283 C284 1.385 . S
C283 H285 0.950 . S
C284 C278 1.404 . S
C284 H282 0.949 1_554 S
C284 C283 1.385 . S
H285 C283 0.950 . S
H286 C270 0.951 . S
H287 C272 0.951 . S
H288 C274 0.951 . S
H289 C275 0.950 . S
H290 C276 0.950 . S
H291 C277 0.950 . S
H292 C279 0.950 . S
H293 C280 0.951 . S
C294 C295 1.386 . S
C294 C296 1.383 . S
C294 H310 0.951 . S
C295 C294 1.386 . S
C295 C299 1.383 . S
C296 C294 1.383 . S
C296 C297 1.402 . S
C296 H311 0.951 . S
C297 C296 1.402 . S
C297 C298 1.375 . S
C297 C300 1.481 . S
C298 C297 1.375 . S
C298 C299 1.367 . S
C298 H312 0.951 . S
C299 C295 1.383 . S
C299 C298 1.367 . S
C299 H313 0.950 . S
C300 C297 1.481 . S
C300 C301 1.297 . S
C300 H314 0.950 . S
C301 C300 1.297 . S
C301 C302 1.479 . S
C301 H315 0.950 . S
C302 C301 1.479 . S
C302 C303 1.375 . S
C302 C308 1.404 . S
C303 C302 1.375 . S
C303 C304 1.369 . S
C303 H316 0.950 . S
C304 C303 1.369 . S
C304 C305 1.392 . S
C304 H317 0.951 . S
C305 C304 1.392 . S
C305 C307 1.384 . S
H306 C308 0.949 . S
C307 C305 1.384 . S
C307 C308 1.385 . S
C307 H309 0.950 . S
C308 C302 1.404 . S
C308 H306 0.949 . S
C308 C307 1.385 . S
H309 C307 0.950 . S
H310 C294 0.951 . S
H311 C296 0.951 . S
H312 C298 0.951 . S
H313 C299 0.950 . S
H314 C300 0.950 . S
H315 C301 0.950 . S
H316 C303 0.950 . S
H317 C304 0.951 . S
C318 C319 1.386 . S
C318 C320 1.383 . S
C318 H334 0.951 . S
C319 C318 1.386 . S
C319 C323 1.383 . S
C320 C318 1.383 . S
C320 C321 1.402 . S
C320 H335 0.951 . S
C321 C320 1.402 . S
C321 C322 1.375 . S
C321 C324 1.481 . S
C322 C321 1.375 . S
C322 C323 1.367 . S
C322 H336 0.951 . S
C323 C319 1.383 . S
C323 C322 1.367 . S
C323 H337 0.950 . S
C324 C321 1.481 . S
C324 C325 1.297 . S
C324 H338 0.950 . S
C325 C324 1.297 . S
C325 C326 1.479 . S
C325 H339 0.950 . S
C326 C325 1.479 . S
C326 C327 1.375 . S
C326 C332 1.404 . S
C327 C326 1.375 . S
C327 C328 1.369 . S
C327 H340 0.950 . S
C328 C327 1.369 . S
C328 C329 1.392 . S
C328 H341 0.951 . S
C329 C328 1.392 . S
C329 C331 1.384 . S
H330 C332 0.949 . S
C331 C329 1.384 . S
C331 C332 1.385 . S
C331 H333 0.950 . S
C332 C326 1.404 . S
C332 H330 0.949 . S
C332 C331 1.385 . S
H333 C331 0.950 . S
H334 C318 0.951 . S
H335 C320 0.951 . S
H336 C322 0.951 . S
H337 C323 0.950 . S
H338 C324 0.950 . S
H339 C325 0.950 . S
H340 C327 0.950 . S
H341 C328 0.951 . S
C342 C343 1.386 . S
C342 C344 1.383 . S
C342 H358 0.951 . S
C343 C342 1.386 . S
C343 C347 1.383 . S
C344 C342 1.383 . S
C344 C345 1.402 . S
C344 H359 0.951 . S
C345 C344 1.402 . S
C345 C346 1.375 . S
C345 C348 1.481 . S
C346 C345 1.375 . S
C346 C347 1.367 . S
C346 H360 0.951 . S
C347 C343 1.383 . S
C347 C346 1.367 . S
C347 H361 0.950 . S
C348 C345 1.481 . S
C348 C349 1.297 . S
C348 H362 0.950 . S
C349 C348 1.297 . S
C349 C350 1.479 . S
C349 H363 0.950 . S
C350 C349 1.479 . S
C350 C351 1.375 . S
C350 C356 1.404 . S
C351 C350 1.375 . S
C351 C352 1.369 . S
C351 H364 0.950 . S
C352 C351 1.369 . S
C352 C353 1.392 . S
C352 H365 0.951 . S
C353 C352 1.392 . S
C353 C355 1.384 . S
H354 C356 0.949 . S
C355 C353 1.384 . S
C355 C356 1.385 . S
C355 H357 0.950 . S
C356 C350 1.404 . S
C356 H354 0.949 . S
C356 C355 1.385 . S
H357 C355 0.950 . S
H358 C342 0.951 . S
H359 C344 0.951 . S
H360 C346 0.951 . S
H361 C347 0.950 . S
H362 C348 0.950 . S
H363 C349 0.950 . S
H364 C351 0.950 . S
H365 C352 0.951 . S
C366 C367 1.386 . S
C366 C368 1.383 . S
C366 H382 0.951 . S
C367 C366 1.386 . S
C367 C371 1.383 . S
C368 C366 1.383 . S
C368 C369 1.402 . S
C368 H383 0.951 . S
C369 C368 1.402 . S
C369 C370 1.375 . S
C369 C372 1.481 . S
C370 C369 1.375 . S
C370 C371 1.367 . S
C370 H384 0.951 . S
C371 C367 1.383 . S
C371 C370 1.367 . S
C371 H385 0.950 . S
C372 C369 1.481 . S
C372 C373 1.297 1_556 S
C372 H386 0.950 . S
C373 C372 1.297 1_554 S
C373 C374 1.479 . S
C373 H387 0.950 1_554 S
C374 C373 1.479 . S
C374 C375 1.375 . S
C374 C380 1.404 . S
C375 C374 1.375 . S
C375 C376 1.369 . S
C375 H388 0.950 . S
C376 C375 1.369 . S
C376 C377 1.392 . S
C376 H389 0.951 . S
C377 C376 1.392 . S
C377 C379 1.384 . S
H378 C380 0.949 . S
C379 C377 1.384 . S
C379 C380 1.385 . S
C379 H381 0.950 . S
C380 C374 1.404 . S
C380 H378 0.949 . S
C380 C379 1.385 . S
H381 C379 0.950 . S
H382 C366 0.951 . S
H383 C368 0.951 . S
H384 C370 0.951 . S
H385 C371 0.950 . S
H386 C372 0.950 . S
H387 C373 0.950 1_556 S
H388 C375 0.950 . S
H389 C376 0.951 . S
C390 C391 1.386 . S
C390 C392 1.383 . S
C390 H406 0.951 . S
C391 C390 1.386 . S
C391 C395 1.383 . S
C392 C390 1.383 . S
C392 C393 1.402 . S
C392 H407 0.951 . S
C393 C392 1.402 . S
C393 C394 1.375 . S
C393 C396 1.481 . S
C394 C393 1.375 . S
C394 C395 1.367 . S
C394 H408 0.951 . S
C395 C391 1.383 . S
C395 C394 1.367 . S
C395 H409 0.950 . S
C396 C393 1.481 . S
C396 C397 1.297 . S
C396 H410 0.950 . S
C397 C396 1.297 . S
C397 C398 1.479 . S
C397 H411 0.950 . S
C398 C397 1.479 . S
C398 C399 1.375 . S
C398 C404 1.404 . S
C399 C398 1.375 . S
C399 C400 1.369 . S
C399 H412 0.950 . S
C400 C399 1.369 . S
C400 C401 1.392 . S
C400 H413 0.951 . S
C401 C400 1.392 . S
C401 C403 1.384 . S
H402 C404 0.949 . S
C403 C401 1.384 . S
C403 C404 1.385 . S
C403 H405 0.950 . S
C404 C398 1.404 . S
C404 H402 0.949 . S
C404 C403 1.385 . S
H405 C403 0.950 . S
H406 C390 0.951 . S
H407 C392 0.951 . S
H408 C394 0.951 . S
H409 C395 0.950 . S
H410 C396 0.950 . S
H411 C397 0.950 . S
H412 C399 0.950 . S
H413 C400 0.951 . S
C414 C415 1.386 . S
C414 C416 1.383 . S
C414 H430 0.951 . S
C415 C414 1.386 . S
C415 C419 1.383 . S
C416 C414 1.383 . S
C416 C417 1.402 . S
C416 H431 0.951 . S
C417 C416 1.402 . S
C417 C418 1.375 . S
C417 C420 1.481 . S
C418 C417 1.375 . S
C418 C419 1.367 . S
C418 H432 0.951 . S
C419 C415 1.383 . S
C419 C418 1.367 . S
C419 H433 0.950 . S
C420 C417 1.481 . S
C420 C421 1.297 . S
C420 H434 0.950 . S
C421 C420 1.297 . S
C421 C422 1.479 . S
C421 H435 0.950 . S
C422 C421 1.479 . S
C422 C423 1.375 . S
C422 C428 1.404 . S
C423 C422 1.375 . S
C423 C424 1.369 . S
C423 H436 0.950 . S
C424 C423 1.369 . S
C424 C425 1.392 . S
C424 H437 0.951 . S
C425 C424 1.392 . S
C425 C427 1.384 . S
H426 C428 0.949 . S
C427 C425 1.384 . S
C427 C428 1.385 . S
C427 H429 0.950 . S
C428 C422 1.404 . S
C428 H426 0.949 . S
C428 C427 1.385 . S
H429 C427 0.950 . S
H430 C414 0.951 . S
H431 C416 0.951 . S
H432 C418 0.951 . S
H433 C419 0.950 . S
H434 C420 0.950 . S
H435 C421 0.950 . S
H436 C423 0.950 . S
H437 C424 0.951 . S
C438 C439 1.386 . S
C438 C440 1.383 . S
C438 H454 0.951 . S
C439 C438 1.386 . S
C439 C443 1.383 . S
C440 C438 1.383 . S
C440 C441 1.402 . S
C440 H455 0.951 . S
C441 C440 1.402 . S
C441 C442 1.375 . S
C441 C444 1.481 . S
C442 C441 1.375 . S
C442 C443 1.367 . S
C442 H456 0.951 . S
C443 C439 1.383 . S
C443 C442 1.367 . S
C443 H457 0.950 . S
C444 C441 1.481 . S
C444 C445 1.297 1_554 S
C444 H458 0.950 1_554 S
C445 C444 1.297 1_556 S
C445 C446 1.479 . S
C445 H459 0.950 1_556 S
C446 C445 1.479 . S
C446 C447 1.375 . S
C446 C452 1.404 . S
C447 C446 1.375 . S
C447 C448 1.369 . S
C447 H460 0.950 . S
C448 C447 1.369 . S
C448 C449 1.392 . S
C448 H461 0.951 . S
C449 C448 1.392 . S
C449 C451 1.384 . S
H450 C452 0.949 . S
C451 C449 1.384 . S
C451 C452 1.385 . S
C451 H453 0.950 . S
C452 C446 1.404 . S
C452 H450 0.949 . S
C452 C451 1.385 . S
H453 C451 0.950 . S
H454 C438 0.951 . S
H455 C440 0.951 . S
H456 C442 0.951 . S
H457 C443 0.950 . S
H458 C444 0.950 1_556 S
H459 C445 0.950 1_554 S
H460 C447 0.950 . S
H461 C448 0.951 . S
C462 C463 1.386 . S
C462 C464 1.383 . S
C462 H478 0.951 . S
C463 C462 1.386 . S
C463 C467 1.383 . S
C464 C462 1.383 . S
C464 C465 1.402 . S
C464 H479 0.951 . S
C465 C464 1.402 . S
C465 C466 1.375 . S
C465 C468 1.481 . S
C466 C465 1.375 . S
C466 C467 1.367 . S
C466 H480 0.951 . S
C467 C463 1.383 . S
C467 C466 1.367 . S
C467 H481 0.950 . S
C468 C465 1.481 . S
C468 C469 1.297 . S
C468 H482 0.950 . S
C469 C468 1.297 . S
C469 C470 1.479 . S
C469 H483 0.950 . S
C470 C469 1.479 . S
C470 C471 1.375 . S
C470 C476 1.404 . S
C471 C470 1.375 . S
C471 C472 1.369 . S
C471 H484 0.950 . S
C472 C471 1.369 . S
C472 C473 1.392 . S
C472 H485 0.951 . S
C473 C472 1.392 . S
C473 C475 1.384 . S
H474 C476 0.949 . S
C475 C473 1.384 . S
C475 C476 1.385 . S
C475 H477 0.950 . S
C476 C470 1.404 . S
C476 H474 0.949 . S
C476 C475 1.385 . S
H477 C475 0.950 . S
H478 C462 0.951 . S
H479 C464 0.951 . S
H480 C466 0.951 . S
H481 C467 0.950 . S
H482 C468 0.950 . S
H483 C469 0.950 . S
H484 C471 0.950 . S
H485 C472 0.951 . S
C486 C487 1.386 . S
C486 C488 1.383 . S
C486 H502 0.951 . S
C487 C486 1.386 . S
C487 C491 1.383 . S
C488 C486 1.383 . S
C488 C489 1.402 . S
C488 H503 0.951 . S
C489 C488 1.402 . S
C489 C490 1.375 . S
C489 C492 1.481 . S
C490 C489 1.375 . S
C490 C491 1.367 . S
C490 H504 0.951 . S
C491 C487 1.383 . S
C491 C490 1.367 . S
C491 H505 0.950 . S
C492 C489 1.481 . S
C492 C493 1.297 1_655 S
C492 H506 0.973 . S
C493 C492 1.297 1_455 S
C493 C494 1.479 . S
C493 H507 0.950 . S
C494 C493 1.479 . S
C494 C495 1.375 . S
C494 C500 1.404 . S
C495 C494 1.375 . S
C495 C496 1.369 . S
C495 H508 0.950 . S
C496 C495 1.369 . S
C496 C497 1.392 . S
C496 H509 0.951 . S
C497 C496 1.392 . S
C497 C499 1.384 . S
H498 C500 0.949 . S
C499 C497 1.384 . S
C499 C500 1.385 . S
C499 H501 0.950 . S
C500 C494 1.404 . S
C500 H498 0.949 . S
C500 C499 1.385 . S
H501 C499 0.950 . S
H502 C486 0.951 . S
H503 C488 0.951 . S
H504 C490 0.951 . S
H505 C491 0.950 . S
H506 C492 0.973 . S
H507 C493 0.950 . S
H508 C495 0.950 . S
H509 C496 0.951 . S
C510 C511 1.386 . S
C510 C512 1.383 . S
C510 H526 0.951 . S
C511 C510 1.386 . S
C511 C515 1.383 . S
C512 C510 1.383 . S
C512 C513 1.402 . S
C512 H527 0.951 . S
C513 C512 1.402 . S
C513 C514 1.375 . S
C513 C516 1.481 . S
C514 C513 1.375 . S
C514 C515 1.367 . S
C514 H528 0.951 . S
C515 C511 1.383 . S
C515 C514 1.367 . S
C515 H529 0.950 . S
C516 C513 1.481 . S
C516 C517 1.297 1_545 S
C516 H530 0.950 . S
C517 C516 1.297 1_565 S
C517 C518 1.479 . S
C517 H531 0.950 . S
C518 C517 1.479 . S
C518 C519 1.375 . S
C518 C524 1.404 . S
C519 C518 1.375 . S
C519 C520 1.369 . S
C519 H532 0.950 . S
C520 C519 1.369 . S
C520 C521 1.392 . S
C520 H533 0.951 . S
C521 C520 1.392 . S
C521 C523 1.384 . S
H522 C524 0.949 . S
C523 C521 1.384 . S
C523 C524 1.385 . S
C523 H525 0.950 . S
C524 C518 1.404 . S
C524 H522 0.949 . S
C524 C523 1.385 . S
H525 C523 0.950 . S
H526 C510 0.951 . S
H527 C512 0.951 . S
H528 C514 0.951 . S
H529 C515 0.950 . S
H530 C516 0.950 . S
H531 C517 0.950 . S
H532 C519 0.950 . S
H533 C520 0.951 . S
C534 C535 1.386 . S
C534 C536 1.383 . S
C534 H550 0.951 . S
C535 C534 1.386 . S
C535 C539 1.383 . S
C536 C534 1.383 . S
C536 C537 1.402 . S
C536 H551 0.951 . S
C537 C536 1.402 . S
C537 C538 1.375 . S
C537 C540 1.481 . S
C538 C537 1.375 . S
C538 C539 1.367 . S
C538 H552 0.951 . S
C539 C535 1.383 . S
C539 C538 1.367 . S
C539 H553 0.950 . S
C540 C537 1.481 . S
C540 C541 1.297 . S
C540 H554 0.950 . S
C541 C540 1.297 . S
C541 C542 1.479 . S
C541 H555 0.950 . S
C542 C541 1.479 . S
C542 C543 1.375 . S
C542 C548 1.404 . S
C543 C542 1.375 . S
C543 C544 1.369 . S
C543 H556 0.950 . S
C544 C543 1.369 . S
C544 C545 1.392 . S
C544 H557 0.951 . S
C545 C544 1.392 . S
C545 C547 1.384 . S
H546 C548 0.949 . S
C547 C545 1.384 . S
C547 C548 1.385 . S
C547 H549 0.950 . S
C548 C542 1.404 . S
C548 H546 0.949 . S
C548 C547 1.385 . S
H549 C547 0.950 . S
H550 C534 0.951 . S
H551 C536 0.951 . S
H552 C538 0.951 . S
H553 C539 0.950 . S
H554 C540 0.950 . S
H555 C541 0.950 . S
H556 C543 0.950 . S
H557 C544 0.951 . S
C199 C8 0.612 . S
C209 C94 0.626 . S
C223 C41 0.693 . S
C233 C127 0.763 . S
C247 C160 0.621 . S
C257 C74 0.700 . S
C271 C193 0.710 . S
C281 C107 0.618 . S
C295 C140 0.674 . S
C305 C28 0.575 . S
C319 C61 0.616 . S
C329 C173 0.599 . S
C343 N14 1.446 . S
C353 N5 1.447 . S
C367 N38 1.468 . S
C377 N47 1.443 . S
C391 N80 1.450 . S
C401 N71 1.469 . S
C415 N113 1.456 . S
C425 N104 1.436 . S
C439 N146 1.455 . S
C449 N137 1.466 . S
C463 N170 1.466 . S
C473 N179 1.451 . S
C487 C116 1.139 . S
C497 C17 1.110 . S
C511 C50 1.139 . S
C521 C149 1.127 . S
C535 C83 1.123 . S
C545 C182 1.140 . S
