# Generated by pormake.
# Topology ukr, (4)-cn, num edge types: 1
# Building blocks:
#     Node 0, Type 0, BuildingBlock: TATPOV_clean_sbu_0, # of connection points: 4
#     Node 1, Type 0, BuildingBlock: TATPOV_clean_sbu_0, # of connection points: 4
#     Node 2, Type 0, BuildingBlock: TATPOV_clean_sbu_0, # of connection points: 4
#     Node 3, Type 0, BuildingBlock: TATPOV_clean_sbu_0, # of connection points: 4
#     Node 4, Type 0, BuildingBlock: TATPOV_clean_sbu_0, # of connection points: 4
#     Node 5, Type 0, BuildingBlock: TATPOV_clean_sbu_0, # of connection points: 4
#     Node 6, Type 0, BuildingBlock: TATPOV_clean_sbu_0, # of connection points: 4
#     Node 7, Type 0, BuildingBlock: TATPOV_clean_sbu_0, # of connection points: 4
#     Node 8, Type 0, BuildingBlock: TATPOV_clean_sbu_0, # of connection points: 4
#     Node 9, Type 0, BuildingBlock: TATPOV_clean_sbu_0, # of connection points: 4
#     Node 10, Type 0, BuildingBlock: TATPOV_clean_sbu_0, # of connection points: 4
#     Node 11, Type 0, BuildingBlock: TATPOV_clean_sbu_0, # of connection points: 4
#     Node 12, Type 0, BuildingBlock: TATPOV_clean_sbu_0, # of connection points: 4
#     Node 13, Type 0, BuildingBlock: TATPOV_clean_sbu_0, # of connection points: 4
#     Node 14, Type 0, BuildingBlock: TATPOV_clean_sbu_0, # of connection points: 4
#     Node 15, Type 0, BuildingBlock: TATPOV_clean_sbu_0, # of connection points: 4
#     Node 16, Type 0, BuildingBlock: TATPOV_clean_sbu_0, # of connection points: 4
#     Node 17, Type 0, BuildingBlock: TATPOV_clean_sbu_0, # of connection points: 4
#     Node 18, Type 0, BuildingBlock: TATPOV_clean_sbu_0, # of connection points: 4
#     Node 19, Type 0, BuildingBlock: TATPOV_clean_sbu_0, # of connection points: 4
#     Node 20, Type 0, BuildingBlock: TATPOV_clean_sbu_0, # of connection points: 4
#     Node 21, Type 0, BuildingBlock: TATPOV_clean_sbu_0, # of connection points: 4
#     Node 22, Type 0, BuildingBlock: TATPOV_clean_sbu_0, # of connection points: 4
#     Node 23, Type 0, BuildingBlock: TATPOV_clean_sbu_0, # of connection points: 4
#     Node 24, Type 0, BuildingBlock: TATPOV_clean_sbu_0, # of connection points: 4
#     Node 25, Type 0, BuildingBlock: TATPOV_clean_sbu_0, # of connection points: 4
#     Node 26, Type 0, BuildingBlock: TATPOV_clean_sbu_0, # of connection points: 4
#     Node 27, Type 0, BuildingBlock: TATPOV_clean_sbu_0, # of connection points: 4
#     Node 28, Type 0, BuildingBlock: TATPOV_clean_sbu_0, # of connection points: 4
#     Node 29, Type 0, BuildingBlock: TATPOV_clean_sbu_0, # of connection points: 4
#     Node 30, Type 0, BuildingBlock: TATPOV_clean_sbu_0, # of connection points: 4
#     Node 31, Type 0, BuildingBlock: TATPOV_clean_sbu_0, # of connection points: 4
#     Node 32, Type 0, BuildingBlock: TATPOV_clean_sbu_0, # of connection points: 4
#     Node 33, Type 0, BuildingBlock: TATPOV_clean_sbu_0, # of connection points: 4
#     Node 34, Type 0, BuildingBlock: TATPOV_clean_sbu_0, # of connection points: 4
#     Node 35, Type 0, BuildingBlock: TATPOV_clean_sbu_0, # of connection points: 4
#     Node 36, Type 0, BuildingBlock: TATPOV_clean_sbu_0, # of connection points: 4
#     Node 37, Type 0, BuildingBlock: TATPOV_clean_sbu_0, # of connection points: 4
#     Node 38, Type 0, BuildingBlock: TATPOV_clean_sbu_0, # of connection points: 4
#     Node 39, Type 0, BuildingBlock: TATPOV_clean_sbu_0, # of connection points: 4
#     Node 40, Type 0, BuildingBlock: TATPOV_clean_sbu_0, # of connection points: 4
#     Node 41, Type 0, BuildingBlock: TATPOV_clean_sbu_0, # of connection points: 4
#     Node 42, Type 0, BuildingBlock: TATPOV_clean_sbu_0, # of connection points: 4
#     Node 43, Type 0, BuildingBlock: TATPOV_clean_sbu_0, # of connection points: 4
#     Node 44, Type 0, BuildingBlock: TATPOV_clean_sbu_0, # of connection points: 4
#     Node 45, Type 0, BuildingBlock: TATPOV_clean_sbu_0, # of connection points: 4
#     Node 46, Type 0, BuildingBlock: TATPOV_clean_sbu_0, # of connection points: 4
#     Node 47, Type 0, BuildingBlock: TATPOV_clean_sbu_0, # of connection points: 4
#     Edge 48, Type (0, 0), BuildingBlock: OJICUG_clean_linker_0, # of connection points: 2
#     Edge 49, Type (0, 0), BuildingBlock: OJICUG_clean_linker_0, # of connection points: 2
#     Edge 50, Type (0, 0), BuildingBlock: OJICUG_clean_linker_0, # of connection points: 2
#     Edge 51, Type (0, 0), BuildingBlock: OJICUG_clean_linker_0, # of connection points: 2
#     Edge 52, Type (0, 0), BuildingBlock: OJICUG_clean_linker_0, # of connection points: 2
#     Edge 53, Type (0, 0), BuildingBlock: OJICUG_clean_linker_0, # of connection points: 2
#     Edge 54, Type (0, 0), BuildingBlock: OJICUG_clean_linker_0, # of connection points: 2
#     Edge 55, Type (0, 0), BuildingBlock: OJICUG_clean_linker_0, # of connection points: 2
#     Edge 56, Type (0, 0), BuildingBlock: OJICUG_clean_linker_0, # of connection points: 2
#     Edge 57, Type (0, 0), BuildingBlock: OJICUG_clean_linker_0, # of connection points: 2
#     Edge 58, Type (0, 0), BuildingBlock: OJICUG_clean_linker_0, # of connection points: 2
#     Edge 59, Type (0, 0), BuildingBlock: OJICUG_clean_linker_0, # of connection points: 2
#     Edge 60, Type (0, 0), BuildingBlock: OJICUG_clean_linker_0, # of connection points: 2
#     Edge 61, Type (0, 0), BuildingBlock: OJICUG_clean_linker_0, # of connection points: 2
#     Edge 62, Type (0, 0), BuildingBlock: OJICUG_clean_linker_0, # of connection points: 2
#     Edge 63, Type (0, 0), BuildingBlock: OJICUG_clean_linker_0, # of connection points: 2
#     Edge 64, Type (0, 0), BuildingBlock: OJICUG_clean_linker_0, # of connection points: 2
#     Edge 65, Type (0, 0), BuildingBlock: OJICUG_clean_linker_0, # of connection points: 2
#     Edge 66, Type (0, 0), BuildingBlock: OJICUG_clean_linker_0, # of connection points: 2
#     Edge 67, Type (0, 0), BuildingBlock: OJICUG_clean_linker_0, # of connection points: 2
#     Edge 68, Type (0, 0), BuildingBlock: OJICUG_clean_linker_0, # of connection points: 2
#     Edge 69, Type (0, 0), BuildingBlock: OJICUG_clean_linker_0, # of connection points: 2
#     Edge 70, Type (0, 0), BuildingBlock: OJICUG_clean_linker_0, # of connection points: 2
#     Edge 71, Type (0, 0), BuildingBlock: OJICUG_clean_linker_0, # of connection points: 2
#     Edge 72, Type (0, 0), BuildingBlock: OJICUG_clean_linker_0, # of connection points: 2
#     Edge 73, Type (0, 0), BuildingBlock: OJICUG_clean_linker_0, # of connection points: 2
#     Edge 74, Type (0, 0), BuildingBlock: OJICUG_clean_linker_0, # of connection points: 2
#     Edge 75, Type (0, 0), BuildingBlock: OJICUG_clean_linker_0, # of connection points: 2
#     Edge 76, Type (0, 0), BuildingBlock: OJICUG_clean_linker_0, # of connection points: 2
#     Edge 77, Type (0, 0), BuildingBlock: OJICUG_clean_linker_0, # of connection points: 2
#     Edge 78, Type (0, 0), BuildingBlock: OJICUG_clean_linker_0, # of connection points: 2
#     Edge 79, Type (0, 0), BuildingBlock: OJICUG_clean_linker_0, # of connection points: 2
#     Edge 80, Type (0, 0), BuildingBlock: OJICUG_clean_linker_0, # of connection points: 2
#     Edge 81, Type (0, 0), BuildingBlock: OJICUG_clean_linker_0, # of connection points: 2
#     Edge 82, Type (0, 0), BuildingBlock: OJICUG_clean_linker_0, # of connection points: 2
#     Edge 83, Type (0, 0), BuildingBlock: OJICUG_clean_linker_0, # of connection points: 2
#     Edge 84, Type (0, 0), BuildingBlock: OJICUG_clean_linker_0, # of connection points: 2
#     Edge 85, Type (0, 0), BuildingBlock: OJICUG_clean_linker_0, # of connection points: 2
#     Edge 86, Type (0, 0), BuildingBlock: OJICUG_clean_linker_0, # of connection points: 2
#     Edge 87, Type (0, 0), BuildingBlock: OJICUG_clean_linker_0, # of connection points: 2
#     Edge 88, Type (0, 0), BuildingBlock: OJICUG_clean_linker_0, # of connection points: 2
#     Edge 89, Type (0, 0), BuildingBlock: OJICUG_clean_linker_0, # of connection points: 2
#     Edge 90, Type (0, 0), BuildingBlock: OJICUG_clean_linker_0, # of connection points: 2
#     Edge 91, Type (0, 0), BuildingBlock: OJICUG_clean_linker_0, # of connection points: 2
#     Edge 92, Type (0, 0), BuildingBlock: OJICUG_clean_linker_0, # of connection points: 2
#     Edge 93, Type (0, 0), BuildingBlock: OJICUG_clean_linker_0, # of connection points: 2
#     Edge 94, Type (0, 0), BuildingBlock: OJICUG_clean_linker_0, # of connection points: 2
#     Edge 95, Type (0, 0), BuildingBlock: OJICUG_clean_linker_0, # of connection points: 2
#     Edge 96, Type (0, 0), BuildingBlock: OJICUG_clean_linker_0, # of connection points: 2
#     Edge 97, Type (0, 0), BuildingBlock: OJICUG_clean_linker_0, # of connection points: 2
#     Edge 98, Type (0, 0), BuildingBlock: OJICUG_clean_linker_0, # of connection points: 2
#     Edge 99, Type (0, 0), BuildingBlock: OJICUG_clean_linker_0, # of connection points: 2
#     Edge 100, Type (0, 0), BuildingBlock: OJICUG_clean_linker_0, # of connection points: 2
#     Edge 101, Type (0, 0), BuildingBlock: OJICUG_clean_linker_0, # of connection points: 2
#     Edge 102, Type (0, 0), BuildingBlock: OJICUG_clean_linker_0, # of connection points: 2
#     Edge 103, Type (0, 0), BuildingBlock: OJICUG_clean_linker_0, # of connection points: 2
#     Edge 104, Type (0, 0), BuildingBlock: OJICUG_clean_linker_0, # of connection points: 2
#     Edge 105, Type (0, 0), BuildingBlock: OJICUG_clean_linker_0, # of connection points: 2
#     Edge 106, Type (0, 0), BuildingBlock: OJICUG_clean_linker_0, # of connection points: 2
#     Edge 107, Type (0, 0), BuildingBlock: OJICUG_clean_linker_0, # of connection points: 2
#     Edge 108, Type (0, 0), BuildingBlock: OJICUG_clean_linker_0, # of connection points: 2
#     Edge 109, Type (0, 0), BuildingBlock: OJICUG_clean_linker_0, # of connection points: 2
#     Edge 110, Type (0, 0), BuildingBlock: OJICUG_clean_linker_0, # of connection points: 2
#     Edge 111, Type (0, 0), BuildingBlock: OJICUG_clean_linker_0, # of connection points: 2
#     Edge 112, Type (0, 0), BuildingBlock: OJICUG_clean_linker_0, # of connection points: 2
#     Edge 113, Type (0, 0), BuildingBlock: OJICUG_clean_linker_0, # of connection points: 2
#     Edge 114, Type (0, 0), BuildingBlock: OJICUG_clean_linker_0, # of connection points: 2
#     Edge 115, Type (0, 0), BuildingBlock: OJICUG_clean_linker_0, # of connection points: 2
#     Edge 116, Type (0, 0), BuildingBlock: OJICUG_clean_linker_0, # of connection points: 2
#     Edge 117, Type (0, 0), BuildingBlock: OJICUG_clean_linker_0, # of connection points: 2
#     Edge 118, Type (0, 0), BuildingBlock: OJICUG_clean_linker_0, # of connection points: 2
#     Edge 119, Type (0, 0), BuildingBlock: OJICUG_clean_linker_0, # of connection points: 2
#     Edge 120, Type (0, 0), BuildingBlock: OJICUG_clean_linker_0, # of connection points: 2
#     Edge 121, Type (0, 0), BuildingBlock: OJICUG_clean_linker_0, # of connection points: 2
#     Edge 122, Type (0, 0), BuildingBlock: OJICUG_clean_linker_0, # of connection points: 2
#     Edge 123, Type (0, 0), BuildingBlock: OJICUG_clean_linker_0, # of connection points: 2
#     Edge 124, Type (0, 0), BuildingBlock: OJICUG_clean_linker_0, # of connection points: 2
#     Edge 125, Type (0, 0), BuildingBlock: OJICUG_clean_linker_0, # of connection points: 2
#     Edge 126, Type (0, 0), BuildingBlock: OJICUG_clean_linker_0, # of connection points: 2
#     Edge 127, Type (0, 0), BuildingBlock: OJICUG_clean_linker_0, # of connection points: 2
#     Edge 128, Type (0, 0), BuildingBlock: OJICUG_clean_linker_0, # of connection points: 2
#     Edge 129, Type (0, 0), BuildingBlock: OJICUG_clean_linker_0, # of connection points: 2
#     Edge 130, Type (0, 0), BuildingBlock: OJICUG_clean_linker_0, # of connection points: 2
#     Edge 131, Type (0, 0), BuildingBlock: OJICUG_clean_linker_0, # of connection points: 2
#     Edge 132, Type (0, 0), BuildingBlock: OJICUG_clean_linker_0, # of connection points: 2
#     Edge 133, Type (0, 0), BuildingBlock: OJICUG_clean_linker_0, # of connection points: 2
#     Edge 134, Type (0, 0), BuildingBlock: OJICUG_clean_linker_0, # of connection points: 2
#     Edge 135, Type (0, 0), BuildingBlock: OJICUG_clean_linker_0, # of connection points: 2
#     Edge 136, Type (0, 0), BuildingBlock: OJICUG_clean_linker_0, # of connection points: 2
#     Edge 137, Type (0, 0), BuildingBlock: OJICUG_clean_linker_0, # of connection points: 2
#     Edge 138, Type (0, 0), BuildingBlock: OJICUG_clean_linker_0, # of connection points: 2
#     Edge 139, Type (0, 0), BuildingBlock: OJICUG_clean_linker_0, # of connection points: 2
#     Edge 140, Type (0, 0), BuildingBlock: OJICUG_clean_linker_0, # of connection points: 2
#     Edge 141, Type (0, 0), BuildingBlock: OJICUG_clean_linker_0, # of connection points: 2
#     Edge 142, Type (0, 0), BuildingBlock: OJICUG_clean_linker_0, # of connection points: 2
#     Edge 143, Type (0, 0), BuildingBlock: OJICUG_clean_linker_0, # of connection points: 2
# Relax obj value: 0.361
# Max RMSD: 0.169
# Mean RMSD: 0.169
data_MOF--net-ukr--node1-TATPOV_clean_sbu_0--edge1-OJICUG_clean_linker_0
_symmetry_space_group_name_H-M    P1
_symmetry_Int_Tables_number       1
_symmetry_cell_setting            triclinic
loop_
_symmetry_equiv_pos_as_xyz
'x, y, z'
_cell_length_a     51.438829
_cell_length_b     49.616694
_cell_length_c     49.758343
_cell_angle_alpha  89.808892
_cell_angle_beta   89.986418
_cell_angle_gamma 89.956268
loop_
_atom_site_label
_atom_site_type_symbol
_atom_site_fract_x
_atom_site_fract_y
_atom_site_fract_z
_atom_type_partial_charge
Zn0 Zn 0.13049 0.2464 0.17536 0.0
Zn1 Zn 0.08746 0.25348 0.15276 0.0
O2 O 0.08361 0.21675 0.17365 0.0
O3 O 0.12404 0.20842 0.18535 0.0
O4 O 0.05199 0.25804 0.1376 0.0
O5 O 0.12414 0.27623 0.20194 0.0
O6 O 0.0918 0.28806 0.17562 0.0
C7 C 0.10063 0.20101 0.1838 0.0
C8 C 0.13594 0.25559 0.11901 0.0
O9 O 0.11124 0.25434 0.11917 0.0
O10 O 0.14862 0.25408 0.14073 0.0
C11 C 0.04208 0.24013 0.12261 0.0
O12 O 0.05602 0.21896 0.11602 0.0
C13 C 0.10663 0.29296 0.19551 0.0
Zn14 Zn 0.2072 0.63442 0.78859 0.0
Zn15 Zn 0.19313 0.60874 0.74835 0.0
O16 O 0.2271 0.59314 0.76521 0.0
O17 O 0.23436 0.61078 0.80462 0.0
O18 O 0.18216 0.57638 0.72659 0.0
O19 O 0.17326 0.6377 0.807 0.0
O20 O 0.15954 0.62283 0.76806 0.0
C21 C 0.24096 0.59454 0.78639 0.0
C22 C 0.21561 0.66031 0.73417 0.0
O23 O 0.20536 0.63923 0.72414 0.0
O24 O 0.21795 0.66237 0.75956 0.0
C25 C 0.19918 0.56592 0.71128 0.0
O26 O 0.22097 0.57907 0.70703 0.0
C27 C 0.15473 0.63296 0.79111 0.0
Zn28 Zn 0.84414 0.76392 0.16854 0.0
Zn29 Zn 0.88592 0.75331 0.14519 0.0
O30 O 0.89263 0.78905 0.16698 0.0
O31 O 0.85312 0.80128 0.17835 0.0
O32 O 0.92104 0.74683 0.12937 0.0
O33 O 0.84896 0.73329 0.19495 0.0
O34 O 0.87978 0.7189 0.168 0.0
C35 C 0.87712 0.80633 0.17712 0.0
C36 C 0.83625 0.75555 0.11273 0.0
O37 O 0.86099 0.75439 0.11223 0.0
O38 O 0.82434 0.75824 0.13478 0.0
C39 C 0.93182 0.76471 0.11486 0.0
O40 O 0.9188 0.7867 0.10878 0.0
C41 C 0.86504 0.71521 0.18826 0.0
Zn42 Zn 0.78991 0.32334 0.68864 0.0
Zn43 Zn 0.78489 0.39516 0.70217 0.0
O44 O 0.74955 0.37829 0.71225 0.0
O45 O 0.75397 0.33398 0.70468 0.0
O46 O 0.78511 0.43517 0.70988 0.0
O47 O 0.82185 0.34786 0.69612 0.0
O48 O 0.812 0.3772 0.72682 0.0
C49 C 0.74049 0.35419 0.71244 0.0
C50 C 0.79311 0.36772 0.6538 0.0
O51 O 0.78828 0.3915 0.66131 0.0
O52 O 0.8083 0.3544 0.66891 0.0
C53 C 0.77235 0.45142 0.69508 0.0
O54 O 0.75794 0.44173 0.67559 0.0
C55 C 0.82487 0.35649 0.71995 0.0
Zn56 Zn 0.12813 0.76583 0.84022 0.0
Zn57 Zn 0.08882 0.76388 0.86565 0.0
O58 O 0.08548 0.79918 0.84233 0.0
O59 O 0.12673 0.80527 0.83313 0.0
O60 O 0.05388 0.76144 0.88301 0.0
O61 O 0.11693 0.73917 0.8121 0.0
O62 O 0.09147 0.72723 0.84527 0.0
C63 C 0.10372 0.8141 0.83335 0.0
C64 C 0.13852 0.75714 0.89511 0.0
O65 O 0.11519 0.76548 0.89722 0.0
O66 O 0.1481 0.75268 0.87216 0.0
C67 C 0.04346 0.78146 0.89466 0.0
O68 O 0.05663 0.80403 0.89683 0.0
C69 C 0.10211 0.72187 0.82276 0.0
Zn70 Zn 0.76385 0.62332 0.2379 0.0
Zn71 Zn 0.78243 0.60214 0.27837 0.0
O72 O 0.74731 0.58473 0.26643 0.0
O73 O 0.73666 0.59743 0.22589 0.0
O74 O 0.79793 0.57116 0.29945 0.0
O75 O 0.79545 0.62802 0.21566 0.0
O76 O 0.81272 0.61812 0.25473 0.0
C77 C 0.73177 0.58346 0.24651 0.0
C78 C 0.75862 0.65237 0.29158 0.0
O79 O 0.77096 0.63278 0.30225 0.0
O80 O 0.75408 0.65232 0.26639 0.0
C81 C 0.78367 0.55947 0.31683 0.0
O82 O 0.76181 0.57115 0.32398 0.0
C83 C 0.81521 0.62662 0.23059 0.0
Zn84 Zn 0.83621 0.23846 0.84152 0.0
Zn85 Zn 0.88008 0.25901 0.85205 0.0
O86 O 0.88649 0.21998 0.837 0.0
O87 O 0.84816 0.20075 0.83787 0.0
O88 O 0.91661 0.26968 0.86148 0.0
O89 O 0.83407 0.26315 0.80873 0.0
O90 O 0.86899 0.28512 0.82191 0.0
C91 C 0.87234 0.19908 0.83395 0.0
C92 C 0.83544 0.2608 0.89322 0.0
O93 O 0.85902 0.26617 0.88738 0.0
O94 O 0.82104 0.24915 0.87632 0.0
C95 C 0.928 0.25628 0.87985 0.0
O96 O 0.91488 0.2376 0.8928 0.0
C97 C 0.85002 0.2824 0.80568 0.0
Zn98 Zn 0.2057 0.38875 0.23202 0.0
Zn99 Zn 0.19298 0.40622 0.27584 0.0
O100 O 0.22657 0.4246 0.26075 0.0
O101 O 0.23173 0.41511 0.21829 0.0
O102 O 0.17922 0.43579 0.29973 0.0
O103 O 0.17169 0.38565 0.21351 0.0
O104 O 0.16043 0.39068 0.25561 0.0
C105 C 0.23942 0.42737 0.23899 0.0
C106 C 0.21757 0.3555 0.2825 0.0
O107 O 0.20727 0.37433 0.29628 0.0
O108 O 0.21848 0.3575 0.25695 0.0
C109 C 0.19481 0.44769 0.31557 0.0
O110 O 0.21778 0.43687 0.31985 0.0
C111 C 0.15447 0.38438 0.23152 0.0
Zn112 Zn 0.17341 0.14952 0.28243 0.0
Zn113 Zn 0.18866 0.10842 0.25917 0.0
O114 O 0.20967 0.13068 0.23298 0.0
O115 O 0.19668 0.16768 0.2534 0.0
O116 O 0.19335 0.06883 0.25152 0.0
O117 O 0.18773 0.14426 0.31928 0.0
O118 O 0.20752 0.11311 0.29597 0.0
C119 C 0.20979 0.15628 0.23491 0.0
C120 C 0.13153 0.13218 0.25634 0.0
O121 O 0.15016 0.11694 0.24881 0.0
O122 O 0.1352 0.14785 0.27592 0.0
C123 C 0.18224 0.0562 0.23254 0.0
O124 O 0.16781 0.06964 0.21531 0.0
C125 C 0.20557 0.12687 0.31751 0.0
Zn126 Zn 0.34766 0.67534 0.75786 0.0
Zn127 Zn 0.38711 0.65054 0.76311 0.0
O128 O 0.39089 0.67092 0.72622 0.0
O129 O 0.34968 0.67826 0.71796 0.0
O130 O 0.42186 0.63348 0.76745 0.0
O131 O 0.35882 0.70609 0.78164 0.0
O132 O 0.38431 0.6744 0.79727 0.0
C133 C 0.37297 0.67806 0.70999 0.0
C134 C 0.3377 0.62151 0.77261 0.0
O135 O 0.36108 0.61867 0.76476 0.0
O136 O 0.32782 0.64479 0.77418 0.0
C137 C 0.43243 0.61991 0.74882 0.0
O138 O 0.41953 0.61565 0.72645 0.0
C139 C 0.37358 0.69739 0.80004 0.0
Zn140 Zn 0.81435 0.84415 0.28592 0.0
Zn141 Zn 0.7976 0.8887 0.26819 0.0
O142 O 0.77449 0.86711 0.24321 0.0
O143 O 0.78925 0.82804 0.25783 0.0
O144 O 0.79057 0.92813 0.26087 0.0
O145 O 0.803 0.84743 0.32402 0.0
O146 O 0.78395 0.88333 0.30745 0.0
C147 C 0.77458 0.84146 0.24214 0.0
C148 C 0.8543 0.86627 0.25842 0.0
O149 O 0.83537 0.88242 0.25423 0.0
O150 O 0.85176 0.84798 0.27595 0.0
C151 C 0.79817 0.9403 0.23976 0.0
O152 O 0.81054 0.92666 0.22111 0.0
C153 C 0.7875 0.86695 0.32697 0.0
Zn154 Zn 0.59174 0.28833 0.75485 0.0
Zn155 Zn 0.58006 0.33509 0.75055 0.0
O156 O 0.57153 0.31255 0.71603 0.0
O157 O 0.57154 0.26976 0.72612 0.0
O158 O 0.55179 0.3633 0.75099 0.0
O159 O 0.58501 0.27928 0.79316 0.0
O160 O 0.58336 0.32326 0.79097 0.0
C161 C 0.56798 0.28814 0.70892 0.0
C162 C 0.63333 0.33095 0.74072 0.0
O163 O 0.61583 0.34912 0.74225 0.0
O164 O 0.62732 0.30632 0.74482 0.0
C165 C 0.54132 0.37175 0.72939 0.0
O166 O 0.5527 0.36638 0.70638 0.0
C167 C 0.58462 0.30171 0.80503 0.0
Zn168 Zn 0.17296 0.86055 0.72804 0.0
Zn169 Zn 0.18975 0.90371 0.74546 0.0
O170 O 0.21305 0.88354 0.7715 0.0
O171 O 0.19823 0.84474 0.75653 0.0
O172 O 0.19508 0.94389 0.7503 0.0
O173 O 0.18377 0.86198 0.68986 0.0
O174 O 0.20482 0.89623 0.70688 0.0
C175 C 0.21285 0.85787 0.77244 0.0
C176 C 0.13324 0.88016 0.75568 0.0
O177 O 0.15226 0.89604 0.76029 0.0
O178 O 0.13544 0.86295 0.73719 0.0
C179 C 0.18748 0.95679 0.77091 0.0
O180 O 0.17651 0.94351 0.79078 0.0
C181 C 0.20081 0.88008 0.68736 0.0
Zn182 Zn 0.63377 0.67223 0.27312 0.0
Zn183 Zn 0.59044 0.64992 0.26566 0.0
O184 O 0.58626 0.67186 0.30163 0.0
O185 O 0.62655 0.68376 0.31026 0.0
O186 O 0.55461 0.63541 0.26075 0.0
O187 O 0.62871 0.69778 0.24196 0.0
O188 O 0.59581 0.67202 0.23062 0.0
C189 C 0.60301 0.68245 0.31728 0.0
C190 C 0.63877 0.6154 0.26625 0.0
O191 O 0.61402 0.61592 0.26614 0.0
O192 O 0.65163 0.63705 0.26783 0.0
C193 C 0.54342 0.62195 0.27916 0.0
O194 O 0.5563 0.61616 0.30125 0.0
C195 C 0.61125 0.69137 0.22526 0.0
Zn196 Zn 0.80807 0.16558 0.72709 0.0
Zn197 Zn 0.78858 0.12331 0.7461 0.0
O198 O 0.76798 0.14618 0.77241 0.0
O199 O 0.78479 0.1836 0.75594 0.0
O200 O 0.78054 0.08391 0.75258 0.0
O201 O 0.79548 0.16335 0.68935 0.0
O202 O 0.77302 0.13075 0.70792 0.0
C203 C 0.76987 0.1718 0.77266 0.0
C204 C 0.84724 0.14145 0.75321 0.0
O205 O 0.82721 0.12713 0.75835 0.0
O206 O 0.84556 0.15964 0.73548 0.0
C207 C 0.78848 0.07113 0.77321 0.0
O208 O 0.801 0.08429 0.79206 0.0
C209 C 0.77743 0.14621 0.68786 0.0
Zn210 Zn 0.34961 0.34574 0.25282 0.0
Zn211 Zn 0.38825 0.37077 0.24402 0.0
O212 O 0.39615 0.34545 0.27702 0.0
O213 O 0.35657 0.33857 0.29151 0.0
O214 O 0.42251 0.38872 0.23891 0.0
O215 O 0.35834 0.318 0.22455 0.0
O216 O 0.38259 0.35043 0.20824 0.0
C217 C 0.38077 0.33673 0.29516 0.0
C218 C 0.33724 0.39991 0.24494 0.0
O219 O 0.36167 0.40223 0.24846 0.0
O220 O 0.32705 0.37683 0.24325 0.0
C221 C 0.43244 0.40212 0.25802 0.0
O222 O 0.41879 0.4059 0.28002 0.0
C223 C 0.37151 0.32767 0.20534 0.0
Zn224 Zn 0.262 0.27931 0.12785 0.0
Zn225 Zn 0.27908 0.23933 0.10251 0.0
O226 O 0.24433 0.25354 0.08625 0.0
O227 O 0.23418 0.29262 0.10338 0.0
O228 O 0.29154 0.21706 0.07135 0.0
O229 O 0.29489 0.29978 0.13006 0.0
O230 O 0.31137 0.2622 0.11434 0.0
C231 C 0.22905 0.27376 0.08729 0.0
C232 C 0.2573 0.22481 0.15441 0.0
O233 O 0.26853 0.21531 0.13366 0.0
O234 O 0.25306 0.25003 0.15613 0.0
C235 C 0.27533 0.20112 0.06049 0.0
O236 O 0.25369 0.19559 0.07343 0.0
C237 C 0.3145 0.28576 0.12405 0.0
Zn238 Zn 0.27046 0.74316 0.88581 0.0
Zn239 Zn 0.28525 0.78419 0.9082 0.0
O240 O 0.25011 0.76983 0.92414 0.0
O241 O 0.2429 0.72897 0.90987 0.0
O242 O 0.29855 0.80549 0.93984 0.0
O243 O 0.30324 0.72263 0.88303 0.0
O244 O 0.31778 0.76257 0.89403 0.0
C245 C 0.23603 0.74868 0.92415 0.0
C246 C 0.26334 0.79677 0.85689 0.0
O247 O 0.27387 0.8079 0.87722 0.0
O248 O 0.2605 0.77126 0.85644 0.0
C249 C 0.28298 0.82106 0.95219 0.0
O250 O 0.26059 0.8269 0.94087 0.0
C251 C 0.32207 0.73862 0.8858 0.0
Zn252 Zn 0.67423 0.78422 0.35911 0.0
Zn253 Zn 0.69099 0.76443 0.40176 0.0
O254 O 0.71208 0.73758 0.38013 0.0
O255 O 0.6971 0.75439 0.34213 0.0
O256 O 0.69706 0.75757 0.4414 0.0
O257 O 0.68794 0.82153 0.36151 0.0
O258 O 0.70807 0.8023 0.39528 0.0
C259 C 0.71112 0.73725 0.35454 0.0
C260 C 0.63322 0.7591 0.38017 0.0
O261 O 0.65235 0.7529 0.39536 0.0
O262 O 0.63624 0.77749 0.36285 0.0
C263 C 0.68786 0.73732 0.45392 0.0
O264 O 0.67484 0.71902 0.44046 0.0
C265 C 0.70514 0.8225 0.37956 0.0
Zn266 Zn 0.71158 0.29205 0.87961 0.0
Zn267 Zn 0.69743 0.25049 0.90642 0.0
O268 O 0.73055 0.26748 0.92307 0.0
O269 O 0.73853 0.3067 0.90473 0.0
O270 O 0.6855 0.22661 0.93689 0.0
O271 O 0.67644 0.30901 0.87669 0.0
O272 O 0.66383 0.27109 0.8953 0.0
C273 C 0.74463 0.28858 0.9215 0.0
C274 C 0.7205 0.23788 0.85403 0.0
O275 O 0.70981 0.2277 0.87486 0.0
O276 O 0.72297 0.26333 0.85203 0.0
C277 C 0.70104 0.21004 0.94799 0.0
O278 O 0.72386 0.20586 0.93687 0.0
C279 C 0.65827 0.2936 0.88421 0.0
Zn280 Zn 0.31412 0.22322 0.32706 0.0
Zn281 Zn 0.30197 0.23857 0.37449 0.0
O282 O 0.27705 0.26477 0.35634 0.0
O283 O 0.28714 0.2518 0.31534 0.0
O284 O 0.29874 0.24371 0.41432 0.0
O285 O 0.30343 0.18464 0.3313 0.0
O286 O 0.28855 0.19945 0.36978 0.0
C287 C 0.27422 0.26698 0.33099 0.0
C288 C 0.35633 0.24949 0.34788 0.0
O289 O 0.33918 0.25224 0.36619 0.0
O290 O 0.35162 0.23414 0.32825 0.0
C291 C 0.30766 0.26427 0.4263 0.0
O292 O 0.31818 0.2838 0.4121 0.0
C293 C 0.29055 0.18059 0.35256 0.0
Zn294 Zn 0.71049 0.73129 0.12801 0.0
Zn295 Zn 0.69381 0.77401 0.10867 0.0
O296 O 0.72694 0.75986 0.08905 0.0
O297 O 0.73587 0.7184 0.10053 0.0
O298 O 0.67891 0.79802 0.07966 0.0
O299 O 0.67729 0.71162 0.13335 0.0
O300 O 0.66257 0.75228 0.12512 0.0
C301 C 0.74121 0.73897 0.08661 0.0
C302 C 0.72049 0.78348 0.15825 0.0
O303 O 0.70824 0.79562 0.13952 0.0
O304 O 0.72331 0.75797 0.15737 0.0
C305 C 0.69402 0.81518 0.0688 0.0
O306 O 0.71657 0.81995 0.08024 0.0
C307 C 0.65866 0.72817 0.13323 0.0
Zn308 Zn 0.68071 0.2538 0.65506 0.0
Zn309 Zn 0.68036 0.25032 0.60261 0.0
O310 O 0.70514 0.28228 0.6094 0.0
O311 O 0.70304 0.28715 0.65336 0.0
O312 O 0.67964 0.24849 0.56224 0.0
O313 O 0.69634 0.21709 0.65818 0.0
O314 O 0.69754 0.21403 0.61404 0.0
C315 C 0.71153 0.29477 0.63072 0.0
C316 C 0.62977 0.25852 0.63534 0.0
O317 O 0.64114 0.2569 0.6126 0.0
O318 O 0.64269 0.25726 0.65687 0.0
C319 C 0.67273 0.26911 0.54878 0.0
O320 O 0.66582 0.29106 0.56165 0.0
C321 C 0.70207 0.20402 0.63722 0.0
Zn322 Zn 0.30688 0.78457 0.66299 0.0
Zn323 Zn 0.28879 0.7655 0.62052 0.0
O324 O 0.26541 0.74123 0.6429 0.0
O325 O 0.28139 0.75748 0.6806 0.0
O326 O 0.28196 0.75856 0.58108 0.0
O327 O 0.29673 0.82302 0.65929 0.0
O328 O 0.27565 0.80522 0.6255 0.0
C329 C 0.26616 0.74136 0.6685 0.0
C330 C 0.34556 0.75493 0.6427 0.0
O331 O 0.32613 0.75031 0.62741 0.0
O332 O 0.34405 0.77388 0.6595 0.0
C333 C 0.29063 0.73831 0.56827 0.0
O334 O 0.30377 0.71969 0.58131 0.0
C335 C 0.28023 0.8254 0.64065 0.0
Zn336 Zn 0.8476 0.76509 0.8436 0.0
Zn337 Zn 0.8866 0.7632 0.86933 0.0
O338 O 0.89005 0.7983 0.84576 0.0
O339 O 0.84885 0.80455 0.83651 0.0
O340 O 0.92162 0.76082 0.88651 0.0
O341 O 0.85914 0.73843 0.81557 0.0
O342 O 0.88398 0.72644 0.84921 0.0
C343 C 0.87188 0.81328 0.83672 0.0
C344 C 0.83677 0.75651 0.89844 0.0
O345 O 0.86002 0.76502 0.90075 0.0
O346 O 0.82747 0.75187 0.8754 0.0
C347 C 0.93242 0.78113 0.89721 0.0
O348 O 0.91942 0.80386 0.89896 0.0
C349 C 0.87366 0.72105 0.82655 0.0
Zn350 Zn 0.76275 0.38796 0.2322 0.0
Zn351 Zn 0.77981 0.40419 0.27545 0.0
O352 O 0.74678 0.42476 0.26251 0.0
O353 O 0.73762 0.4165 0.22055 0.0
O354 O 0.79625 0.43282 0.29867 0.0
O355 O 0.79553 0.38226 0.21183 0.0
O356 O 0.80985 0.38657 0.25305 0.0
C357 C 0.73246 0.42891 0.242 0.0
C358 C 0.75226 0.35534 0.28353 0.0
O359 O 0.76479 0.37317 0.29661 0.0
O360 O 0.74964 0.3577 0.25814 0.0
C361 C 0.78183 0.44474 0.31567 0.0
O362 O 0.7591 0.43411 0.32143 0.0
C363 C 0.81374 0.37978 0.22865 0.0
Zn364 Zn 0.13573 0.24763 0.8521 0.0
Zn365 Zn 0.08996 0.26182 0.8605 0.0
O366 O 0.08681 0.22274 0.84459 0.0
O367 O 0.12738 0.21294 0.83482 0.0
O368 O 0.05268 0.27047 0.8687 0.0
O369 O 0.14126 0.28194 0.83006 0.0
O370 O 0.09907 0.28913 0.83102 0.0
C371 C 0.10365 0.20651 0.83499 0.0
C372 C 0.13214 0.26113 0.90509 0.0
O373 O 0.11072 0.27052 0.89603 0.0
O374 O 0.14586 0.24621 0.89028 0.0
C375 C 0.03984 0.2564 0.88542 0.0
O376 O 0.05181 0.23718 0.89881 0.0
C377 C 0.12161 0.29545 0.82258 0.0
Zn378 Zn 0.21287 0.62529 0.23674 0.0
Zn379 Zn 0.19413 0.60431 0.27755 0.0
O380 O 0.22884 0.58624 0.26539 0.0
O381 O 0.23979 0.59893 0.22493 0.0
O382 O 0.1788 0.57387 0.29944 0.0
O383 O 0.18102 0.6299 0.21485 0.0
O384 O 0.16373 0.61997 0.25391 0.0
C385 C 0.24438 0.58475 0.24548 0.0
C386 C 0.2184 0.65462 0.29011 0.0
O387 O 0.20597 0.63517 0.30089 0.0
O388 O 0.22292 0.65442 0.26492 0.0
C389 C 0.19344 0.56239 0.31663 0.0
O390 O 0.21545 0.57415 0.32308 0.0
C391 C 0.16125 0.62842 0.22977 0.0
Zn392 Zn 0.8398 0.23744 0.16947 0.0
Zn393 Zn 0.88415 0.24816 0.1492 0.0
O394 O 0.88934 0.21202 0.17089 0.0
O395 O 0.84938 0.20107 0.18218 0.0
O396 O 0.91987 0.25459 0.13539 0.0
O397 O 0.84241 0.26969 0.19418 0.0
O398 O 0.87721 0.28225 0.17172 0.0
C399 C 0.87329 0.19545 0.18139 0.0
C400 C 0.83718 0.24528 0.11262 0.0
O401 O 0.86165 0.24833 0.11468 0.0
O402 O 0.82349 0.24094 0.13331 0.0
C403 C 0.93115 0.23724 0.12075 0.0
O404 O 0.91849 0.2154 0.11367 0.0
C405 C 0.86009 0.28685 0.18961 0.0
Zn406 Zn 0.18078 0.34881 0.68986 0.0
Zn407 Zn 0.19072 0.39509 0.70256 0.0
O408 O 0.22571 0.38527 0.71744 0.0
O409 O 0.21903 0.34378 0.70332 0.0
O410 O 0.18652 0.43562 0.70503 0.0
O411 O 0.15157 0.33929 0.71372 0.0
O412 O 0.16423 0.37808 0.73017 0.0
C413 C 0.23384 0.36128 0.71412 0.0
C414 C 0.19055 0.36948 0.64409 0.0
O415 O 0.19749 0.38626 0.6621 0.0
O416 O 0.17418 0.35164 0.65042 0.0
C417 C 0.20065 0.45136 0.69105 0.0
O418 O 0.21822 0.44094 0.67495 0.0
C419 C 0.15026 0.35685 0.73191 0.0
Zn420 Zn 0.13127 0.76543 0.16666 0.0
Zn421 Zn 0.08932 0.75416 0.14383 0.0
O422 O 0.08247 0.78991 0.16558 0.0
O423 O 0.12192 0.80266 0.17655 0.0
O424 O 0.05413 0.74737 0.12837 0.0
O425 O 0.12701 0.73472 0.19312 0.0
O426 O 0.09583 0.71999 0.16683 0.0
C427 C 0.09784 0.80741 0.17557 0.0
C428 C 0.13876 0.75672 0.11086 0.0
O429 O 0.11405 0.75499 0.11067 0.0
O430 O 0.15083 0.75999 0.13272 0.0
C431 C 0.04298 0.76519 0.11406 0.0
O432 O 0.0557 0.78733 0.10789 0.0
C433 C 0.1109 0.71653 0.18685 0.0
Zn434 Zn 0.76743 0.63619 0.79334 0.0
Zn435 Zn 0.78092 0.60903 0.75373 0.0
O436 O 0.74688 0.59436 0.77112 0.0
O437 O 0.73983 0.61351 0.80987 0.0
O438 O 0.79104 0.57607 0.73248 0.0
O439 O 0.80151 0.63881 0.81152 0.0
O440 O 0.81492 0.62245 0.77305 0.0
C441 C 0.73307 0.59669 0.79225 0.0
C442 C 0.75956 0.66097 0.73843 0.0
O443 O 0.76928 0.63934 0.72896 0.0
O444 O 0.75729 0.66376 0.76375 0.0
C445 C 0.77371 0.56571 0.71749 0.0
O446 O 0.75212 0.57922 0.71317 0.0
C447 C 0.81995 0.63301 0.79585 0.0
Zn448 Zn 0.80325 0.85818 0.73056 0.0
Zn449 Zn 0.78652 0.90184 0.74751 0.0
O450 O 0.76298 0.88161 0.77324 0.0
O451 O 0.77768 0.84255 0.75878 0.0
O452 O 0.78076 0.94182 0.75276 0.0
O453 O 0.79282 0.8599 0.69227 0.0
O454 O 0.77216 0.89478 0.70862 0.0
C455 C 0.763 0.85596 0.7744 0.0
C456 C 0.8429 0.87842 0.75827 0.0
O457 O 0.82394 0.89451 0.76252 0.0
O458 O 0.84065 0.86079 0.74019 0.0
C459 C 0.78795 0.95445 0.77368 0.0
O460 O 0.79883 0.94098 0.79348 0.0
C461 C 0.77625 0.87843 0.68928 0.0
Zn462 Zn 0.63003 0.34626 0.2669 0.0
Zn463 Zn 0.58857 0.36928 0.2535 0.0
O464 O 0.57966 0.34517 0.28727 0.0
O465 O 0.61822 0.33411 0.30264 0.0
O466 O 0.55414 0.38599 0.24577 0.0
O467 O 0.62745 0.32164 0.23454 0.0
O468 O 0.59631 0.34778 0.21907 0.0
C469 C 0.59385 0.33428 0.30535 0.0
C470 C 0.63792 0.40227 0.26073 0.0
O471 O 0.61348 0.40219 0.25661 0.0
O472 O 0.64992 0.38041 0.2648 0.0
C473 C 0.54307 0.40059 0.26329 0.0
O474 O 0.55529 0.4058 0.28587 0.0
C475 C 0.61194 0.32816 0.21586 0.0
Zn476 Zn 0.16479 0.16705 0.72519 0.0
Zn477 Zn 0.18585 0.12628 0.74356 0.0
O478 O 0.20671 0.14826 0.76998 0.0
O479 O 0.18799 0.18507 0.75427 0.0
O480 O 0.1935 0.08646 0.74879 0.0
O481 O 0.17679 0.1669 0.68722 0.0
O482 O 0.20146 0.13597 0.70567 0.0
C483 C 0.20365 0.17373 0.77063 0.0
C484 C 0.12732 0.14484 0.75333 0.0
O485 O 0.14797 0.13129 0.75798 0.0
O486 O 0.12733 0.16139 0.73399 0.0
C487 C 0.18615 0.07361 0.76961 0.0
O488 O 0.1745 0.08682 0.78904 0.0
C489 C 0.19621 0.15141 0.68578 0.0
Zn490 Zn 0.34193 0.6724 0.27175 0.0
Zn491 Zn 0.38539 0.65015 0.26411 0.0
O492 O 0.38961 0.67258 0.29977 0.0
O493 O 0.34939 0.68467 0.30858 0.0
O494 O 0.42127 0.6356 0.25947 0.0
O495 O 0.34665 0.69733 0.24002 0.0
O496 O 0.37982 0.67179 0.22883 0.0
C497 C 0.37298 0.68346 0.3154 0.0
C498 C 0.33721 0.61545 0.26552 0.0
O499 O 0.36195 0.6161 0.26491 0.0
O500 O 0.32425 0.63704 0.26726 0.0
C501 C 0.43212 0.62212 0.27808 0.0
O502 O 0.41885 0.61639 0.29993 0.0
C503 C 0.36411 0.69089 0.22332 0.0
Zn504 Zn 0.80421 0.15078 0.28404 0.0
Zn505 Zn 0.78796 0.10916 0.26206 0.0
O506 O 0.76752 0.13133 0.23519 0.0
O507 O 0.78194 0.16858 0.25403 0.0
O508 O 0.7828 0.06946 0.25505 0.0
O509 O 0.7891 0.14705 0.32076 0.0
O510 O 0.76924 0.11495 0.29882 0.0
C511 C 0.76844 0.15698 0.23601 0.0
C512 C 0.84567 0.1315 0.25877 0.0
O513 O 0.82662 0.11662 0.25172 0.0
O514 O 0.84249 0.14774 0.27799 0.0
C515 C 0.7934 0.05673 0.23581 0.0
O516 O 0.80733 0.07009 0.2181 0.0
C517 C 0.7713 0.12957 0.31977 0.0
Zn518 Zn 0.37814 0.28573 0.75672 0.0
Zn519 Zn 0.39284 0.33209 0.75214 0.0
O520 O 0.40187 0.30843 0.71855 0.0
O521 O 0.39803 0.26579 0.7286 0.0
O522 O 0.42136 0.36001 0.75219 0.0
O523 O 0.38393 0.27775 0.79551 0.0
O524 O 0.38856 0.32146 0.79266 0.0
C525 C 0.4039 0.28377 0.71164 0.0
C526 C 0.33916 0.3299 0.74121 0.0
O527 O 0.35761 0.34697 0.74291 0.0
O528 O 0.34362 0.305 0.74564 0.0
C529 C 0.43113 0.36898 0.73046 0.0
O530 O 0.41938 0.36362 0.70765 0.0
C531 C 0.38563 0.30031 0.80702 0.0
Zn532 Zn 0.16154 0.844 0.28416 0.0
Zn533 Zn 0.17809 0.88861 0.26592 0.0
O534 O 0.20092 0.86664 0.24094 0.0
O535 O 0.18644 0.82765 0.256 0.0
O536 O 0.18523 0.92784 0.25801 0.0
O537 O 0.1733 0.8479 0.32211 0.0
O538 O 0.19196 0.88379 0.30511 0.0
C539 C 0.20092 0.84099 0.24006 0.0
C540 C 0.12128 0.8664 0.25699 0.0
O541 O 0.14014 0.88255 0.25258 0.0
O542 O 0.12407 0.848 0.27438 0.0
C543 C 0.17728 0.93987 0.23695 0.0
O544 O 0.16444 0.92618 0.21871 0.0
C545 C 0.18865 0.86756 0.32479 0.0
Zn546 Zn 0.62632 0.67741 0.76288 0.0
Zn547 Zn 0.58725 0.65249 0.7668 0.0
O548 O 0.58446 0.67278 0.7298 0.0
O549 O 0.62597 0.6794 0.7228 0.0
O550 O 0.55254 0.63517 0.77007 0.0
O551 O 0.614 0.7086 0.78546 0.0
O552 O 0.58933 0.6763 0.80111 0.0
C553 C 0.60295 0.67943 0.71406 0.0
C554 C 0.63617 0.6239 0.7786 0.0
O555 O 0.61344 0.6208 0.76904 0.0
O556 O 0.64552 0.64732 0.78098 0.0
C557 C 0.54304 0.62117 0.75116 0.0
O558 O 0.55699 0.61684 0.72948 0.0
C559 C 0.59948 0.69956 0.8039 0.0
Zn560 Zn 0.70402 0.74327 0.88885 0.0
Zn561 Zn 0.68983 0.78483 0.91088 0.0
O562 O 0.72487 0.77018 0.9268 0.0
O563 O 0.73162 0.72908 0.91292 0.0
O564 O 0.67685 0.80666 0.94231 0.0
O565 O 0.67089 0.72325 0.8865 0.0
O566 O 0.65698 0.76355 0.89716 0.0
C567 C 0.73876 0.74886 0.92695 0.0
C568 C 0.71164 0.79645 0.85931 0.0
O569 O 0.70134 0.80798 0.87956 0.0
O570 O 0.71416 0.7709 0.85913 0.0
C571 C 0.6926 0.82204 0.95459 0.0
O572 O 0.71511 0.82743 0.94329 0.0
C573 C 0.65231 0.73959 0.8892 0.0
Zn574 Zn 0.71648 0.27864 0.12623 0.0
Zn575 Zn 0.69634 0.23849 0.10398 0.0
O576 O 0.73031 0.25127 0.08522 0.0
O577 O 0.74287 0.29074 0.09932 0.0
O578 O 0.68099 0.21702 0.07357 0.0
O579 O 0.68447 0.30026 0.13147 0.0
O580 O 0.66617 0.2622 0.11956 0.0
C581 C 0.74628 0.27086 0.08396 0.0
C582 C 0.72158 0.2241 0.15367 0.0
O583 O 0.70856 0.21431 0.13423 0.0
O584 O 0.72662 0.24923 0.15418 0.0
C585 C 0.6961 0.20045 0.06191 0.0
O586 O 0.71788 0.19371 0.074 0.0
C587 C 0.6643 0.28607 0.12889 0.0
Zn588 Zn 0.29216 0.26377 0.64686 0.0
Zn589 Zn 0.29708 0.25325 0.59595 0.0
O590 O 0.27437 0.2878 0.59622 0.0
O591 O 0.27326 0.29833 0.63911 0.0
O592 O 0.30055 0.2477 0.5562 0.0
O593 O 0.27364 0.22872 0.65268 0.0
O594 O 0.27702 0.21934 0.60953 0.0
C595 C 0.26753 0.30368 0.61496 0.0
C596 C 0.34497 0.2618 0.63244 0.0
O597 O 0.33578 0.25741 0.60903 0.0
O598 O 0.32998 0.26494 0.65228 0.0
C599 C 0.30881 0.26755 0.54241 0.0
O600 O 0.31597 0.28962 0.5549 0.0
C601 C 0.26957 0.21298 0.63318 0.0
Zn602 Zn 0.26427 0.73033 0.12586 0.0
Zn603 Zn 0.28118 0.77296 0.10647 0.0
O604 O 0.24794 0.75906 0.08697 0.0
O605 O 0.23872 0.71767 0.09842 0.0
O606 O 0.29625 0.79673 0.07737 0.0
O607 O 0.29742 0.71046 0.13123 0.0
O608 O 0.31225 0.75105 0.123 0.0
C609 C 0.2335 0.73832 0.08455 0.0
C610 C 0.2546 0.78268 0.15604 0.0
O611 O 0.26688 0.79473 0.13728 0.0
O612 O 0.25166 0.75719 0.15518 0.0
C613 C 0.2813 0.81401 0.06644 0.0
O614 O 0.25877 0.81905 0.07783 0.0
C615 C 0.31609 0.72693 0.13115 0.0
Zn616 Zn 0.67005 0.78471 0.66404 0.0
Zn617 Zn 0.6884 0.76473 0.62228 0.0
O618 O 0.71162 0.74071 0.64506 0.0
O619 O 0.69539 0.7578 0.68229 0.0
O620 O 0.69524 0.75729 0.58291 0.0
O621 O 0.68024 0.82307 0.6599 0.0
O622 O 0.70176 0.80442 0.62686 0.0
C623 C 0.71066 0.74135 0.67064 0.0
C624 C 0.63156 0.75464 0.64457 0.0
O625 O 0.6511 0.74963 0.62954 0.0
O626 O 0.63286 0.77415 0.66073 0.0
C627 C 0.68641 0.73704 0.57025 0.0
O628 O 0.67306 0.71869 0.58341 0.0
C629 C 0.69708 0.82494 0.64154 0.0
Zn630 Zn 0.25663 0.2946 0.87969 0.0
Zn631 Zn 0.27111 0.25254 0.90681 0.0
O632 O 0.23869 0.2695 0.92487 0.0
O633 O 0.22937 0.30797 0.90553 0.0
O634 O 0.2833 0.22753 0.93611 0.0
O635 O 0.29226 0.31112 0.8775 0.0
O636 O 0.30461 0.27311 0.89618 0.0
C637 C 0.2243 0.29038 0.92322 0.0
C638 C 0.24858 0.24067 0.85373 0.0
O639 O 0.25876 0.23051 0.87482 0.0
O640 O 0.24596 0.26609 0.85166 0.0
C641 C 0.26767 0.21099 0.94708 0.0
O642 O 0.24452 0.20771 0.93642 0.0
C643 C 0.31033 0.29556 0.88511 0.0
Zn644 Zn 0.30286 0.78651 0.35729 0.0
Zn645 Zn 0.28613 0.76666 0.3999 0.0
O646 O 0.26504 0.73983 0.37839 0.0
O647 O 0.27999 0.75665 0.34038 0.0
O648 O 0.28021 0.75981 0.43955 0.0
O649 O 0.28901 0.82382 0.35969 0.0
O650 O 0.26887 0.80441 0.39333 0.0
C651 C 0.26599 0.73951 0.3528 0.0
C652 C 0.34382 0.76115 0.37802 0.0
O653 O 0.3247 0.75501 0.39324 0.0
O654 O 0.34088 0.77969 0.36085 0.0
C655 C 0.28922 0.73937 0.45194 0.0
O656 O 0.30197 0.72095 0.43834 0.0
C657 C 0.27169 0.82463 0.37764 0.0
Zn658 Zn 0.65847 0.22263 0.33434 0.0
Zn659 Zn 0.67257 0.23885 0.3807 0.0
O660 O 0.69581 0.26564 0.36113 0.0
O661 O 0.68366 0.25215 0.32091 0.0
O662 O 0.6775 0.24443 0.42038 0.0
O663 O 0.67096 0.18456 0.33773 0.0
O664 O 0.68735 0.20026 0.37518 0.0
C665 C 0.69707 0.26778 0.33564 0.0
C666 C 0.61658 0.24774 0.35666 0.0
O667 O 0.63459 0.25138 0.3739 0.0
O668 O 0.62066 0.23195 0.33722 0.0
C669 C 0.66984 0.26545 0.43258 0.0
O670 O 0.65921 0.28516 0.41871 0.0
C671 C 0.68526 0.18125 0.35812 0.0
C672 C 0.97243 0.26328 0.1234 0.0
C673 C 0.95933 0.23966 0.11588 0.0
H674 H 0.00898 0.28207 0.13102 0.0
C675 C 0.97379 0.21752 0.10661 0.0
H676 H 0.96182 0.28084 0.13024 0.0
C677 C 0.00095 0.21823 0.10706 0.0
C678 C 0.01398 0.24109 0.11679 0.0
H679 H 0.96421 0.19911 0.10048 0.0
H680 H 0.01163 0.20035 0.10126 0.0
C681 C -0.00051 0.26399 0.12385 0.0
C682 C 0.17811 0.52035 0.71441 0.0
C683 C 0.19707 0.53731 0.70301 0.0
H684 H 0.16443 0.47989 0.71975 0.0
C685 C 0.21592 0.52596 0.68599 0.0
H686 H 0.16334 0.5284 0.72767 0.0
C687 C 0.21653 0.49817 0.68144 0.0
C688 C 0.19841 0.48103 0.69394 0.0
H689 H 0.23077 0.53843 0.67683 0.0
H690 H 0.23176 0.49007 0.66878 0.0
C691 C 0.17884 0.49249 0.71001 0.0
C692 C 0.00109 0.73997 0.117 0.0
C693 C 0.01476 0.76314 0.10894 0.0
H694 H 0.96405 0.72217 0.12483 0.0
C695 C 0.00079 0.78536 0.09893 0.0
H696 H 0.01129 0.72237 0.12448 0.0
C697 C 0.97362 0.78524 0.09913 0.0
C698 C 0.95999 0.7629 0.10935 0.0
H699 H 0.01077 0.80343 0.09235 0.0
H700 H 0.96339 0.80322 0.0927 0.0
C701 C 0.97398 0.73986 0.1172 0.0
C702 C 0.75643 0.49844 0.68652 0.0
C703 C 0.77385 0.48091 0.69955 0.0
H704 H 0.74287 0.53899 0.68178 0.0
C705 C 0.79263 0.49185 0.71692 0.0
H706 H 0.74182 0.49071 0.67291 0.0
C707 C 0.79349 0.51962 0.72168 0.0
C708 C 0.7754 0.53702 0.70944 0.0
H709 H 0.8065 0.47893 0.72707 0.0
H710 H 0.80775 0.5273 0.73571 0.0
C711 C 0.7571 0.52615 0.69153 0.0
C712 C 0.97454 0.75624 0.89928 0.0
C713 C 0.96069 0.78044 0.90246 0.0
H714 H 0.01168 0.73755 0.89468 0.0
C715 C 0.97451 0.80435 0.90734 0.0
H716 H 0.96448 0.73739 0.89586 0.0
C717 C 0.00169 0.80444 0.90668 0.0
C718 C 0.01544 0.78062 0.90109 0.0
H719 H 0.96439 0.82329 0.91009 0.0
H720 H 0.01179 0.82344 0.90894 0.0
C721 C 0.00163 0.75634 0.89858 0.0
C722 C 0.80753 0.51585 0.3099 0.0
C723 C 0.78769 0.53042 0.32281 0.0
H724 H 0.82159 0.4771 0.29788 0.0
C725 C 0.76911 0.51615 0.33794 0.0
H726 H 0.82233 0.52618 0.2983 0.0
C727 C 0.76868 0.48796 0.33768 0.0
C728 C 0.78682 0.47344 0.32231 0.0
H729 H 0.75374 0.52669 0.34844 0.0
H730 H 0.75297 0.47769 0.34798 0.0
C731 C 0.80712 0.48763 0.30967 0.0
C732 C -0.00343 0.2419 0.90346 0.0
C733 C 0.0112 0.25908 0.88684 0.0
H734 H 0.95877 0.22771 0.91448 0.0
C735 C -0.00193 0.27732 0.86992 0.0
H736 H 0.00606 0.22773 0.91685 0.0
C737 C 0.97094 0.27728 0.86852 0.0
C738 C 0.95636 0.25904 0.88404 0.0
H739 H 0.00875 0.29096 0.85696 0.0
H740 H 0.96147 0.29089 0.85454 0.0
C741 C 0.96943 0.24189 0.90209 0.0
C742 C 0.20939 0.49087 0.33664 0.0
C743 C 0.19037 0.47642 0.32244 0.0
H744 H 0.22501 0.52954 0.34644 0.0
C745 C 0.16941 0.49069 0.31106 0.0
H746 H 0.22563 0.48053 0.34595 0.0
C747 C 0.16908 0.5189 0.31127 0.0
C748 C 0.18966 0.53339 0.32293 0.0
H749 H 0.15424 0.48021 0.30021 0.0
H750 H 0.15367 0.52929 0.3006 0.0
C751 C 0.20902 0.51905 0.33692 0.0
C752 C 0.16838 0.98369 0.21323 0.0
C753 C 0.18061 0.96943 0.23419 0.0
H754 H 0.15937 0.02228 0.19617 0.0
C755 C 0.19497 0.98387 0.25336 0.0
H756 H 0.15723 0.97317 0.19808 0.0
C757 C 0.19629 0.01197 0.2522 0.0
C758 C 0.18317 0.02634 0.2319 0.0
H759 H 0.20478 0.97353 0.26967 0.0
H760 H 0.20701 0.02245 0.26771 0.0
C761 C 0.16961 0.01185 0.21213 0.0
C762 C 0.50078 0.61856 0.7754 0.0
C763 C 0.51511 0.61454 0.75172 0.0
H764 H 0.46324 0.6229 0.79312 0.0
C765 C 0.50192 0.60758 0.72801 0.0
H766 H 0.51042 0.62348 0.79411 0.0
C767 C 0.47475 0.60726 0.72744 0.0
C768 C 0.46046 0.61388 0.75057 0.0
H769 H 0.51247 0.60414 0.70949 0.0
H770 H 0.46504 0.60359 0.70849 0.0
C771 C 0.47373 0.61822 0.77483 0.0
C772 C 0.77997 0.01249 0.25596 0.0
C773 C 0.79244 0.02686 0.23524 0.0
H774 H 0.77194 0.97402 0.27361 0.0
C775 C 0.80534 0.01235 0.21499 0.0
H776 H 0.76978 0.02299 0.27185 0.0
C777 C 0.80653 0.98418 0.21598 0.0
C778 C 0.79493 0.9699 0.23729 0.0
H779 H 0.81508 0.02277 0.19869 0.0
H780 H 0.81716 0.97366 0.20041 0.0
C781 C 0.78124 0.98437 0.257 0.0
C782 C 0.4998 0.38034 0.75428 0.0
C783 C 0.51348 0.37958 0.72981 0.0
H784 H 0.46279 0.37807 0.77373 0.0
C785 C 0.49936 0.38146 0.70567 0.0
H786 H 0.51005 0.37937 0.77329 0.0
C787 C 0.47217 0.38071 0.70594 0.0
C788 C 0.45861 0.37808 0.73034 0.0
H789 H 0.50925 0.3813 0.68646 0.0
H790 H 0.46197 0.38002 0.68691 0.0
C791 C 0.47264 0.37958 0.75455 0.0
C792 C 0.17876 0.0294 0.79312 0.0
C793 C 0.18853 0.04379 0.77091 0.0
H794 H 0.17086 0.99077 0.81062 0.0
C795 C 0.19934 0.02929 0.74939 0.0
H796 H 0.17035 0.03989 0.81009 0.0
C797 C 0.19962 1.00108 0.7497 0.0
C798 C 0.1891 0.98667 0.77153 0.0
H799 H 0.2071 0.0397 0.73199 0.0
H800 H 0.20761 0.99057 0.73252 0.0
C801 C 0.17904 1.00118 0.79343 0.0
C802 C 0.47398 0.60809 0.29972 0.0
C803 C 0.4604 0.61712 0.27689 0.0
H804 H 0.5111 0.60232 0.31832 0.0
C805 C 0.47446 0.62408 0.25367 0.0
H806 H 0.46368 0.60239 0.31785 0.0
C807 C 0.50155 0.62404 0.25394 0.0
C808 C 0.51516 0.61703 0.27743 0.0
H809 H 0.46457 0.63078 0.23563 0.0
H810 H 0.51178 0.63071 0.23609 0.0
C811 C 0.50115 0.60805 0.29999 0.0
C812 C 0.7964 0.02687 0.79645 0.0
C813 C 0.78609 0.04135 0.77456 0.0
H814 H 0.80498 0.98816 0.81343 0.0
C815 C 0.77488 0.02695 0.7532 0.0
H816 H 0.80512 0.0373 0.81327 0.0
C817 C 0.77485 0.99876 0.75327 0.0
C818 C 0.78598 0.98428 0.77472 0.0
H819 H 0.76669 0.03743 0.73605 0.0
H820 H 0.76659 0.98835 0.73619 0.0
C821 C 0.79633 0.99866 0.79653 0.0
C822 C 0.50055 0.41576 0.28243 0.0
C823 C 0.51521 0.40704 0.26026 0.0
H824 H 0.46256 0.42134 0.29904 0.0
C825 C 0.50241 0.4013 0.23602 0.0
H826 H 0.50989 0.42059 0.30131 0.0
C827 C 0.47535 0.40179 0.2347 0.0
C828 C 0.46057 0.40796 0.25762 0.0
H829 H 0.51321 0.39495 0.21845 0.0
H830 H 0.46604 0.39576 0.21614 0.0
C831 C 0.47341 0.41621 0.28112 0.0
C832 C 0.29769 0.20673 0.01611 0.0
C833 C 0.27687 0.19626 0.03116 0.0
H834 H 0.31133 0.21923 0.97743 0.0
C835 C 0.25537 0.1855 0.01741 0.0
H836 H 0.31471 0.21485 0.02601 0.0
C837 C 0.25339 0.18809 0.9895 0.0
C838 C 0.27289 0.20142 0.97481 0.0
H839 H 0.23911 0.17697 0.02834 0.0
H840 H 0.2357 0.18143 0.97977 0.0
C841 C 0.29573 0.20928 0.98819 0.0
C842 C 0.26666 0.83719 0.02429 0.0
C843 C 0.28573 0.82227 0.0381 0.0
H844 H 0.25107 0.84895 0.98616 0.0
C845 C 0.30677 0.8117 0.02344 0.0
H846 H 0.25036 0.84592 0.03495 0.0
C847 C 0.30719 0.81347 0.99537 0.0
C848 C 0.28657 0.82582 0.98139 0.0
H849 H 0.32196 0.80035 0.03345 0.0
H850 H 0.3227 0.80342 0.9846 0.0
C851 C 0.26707 0.83894 0.99624 0.0
C852 C 0.67715 0.71469 0.52604 0.0
C853 C 0.68896 0.73564 0.54057 0.0
H854 H 0.66765 0.69868 0.48736 0.0
C855 C 0.70195 0.75612 0.52631 0.0
H856 H 0.66705 0.69855 0.53637 0.0
C857 C 0.70229 0.75619 0.49821 0.0
C858 C 0.68965 0.73579 0.48366 0.0
H859 H 0.71135 0.77251 0.53683 0.0
H860 H 0.71195 0.77264 0.4879 0.0
C861 C 0.6775 0.71477 0.49791 0.0
C862 C 0.71391 0.18399 0.01811 0.0
C863 C 0.6935 0.19608 0.03255 0.0
H864 H 0.73219 0.17867 0.97986 0.0
C865 C 0.673 0.2081 0.01815 0.0
H866 H 0.72989 0.17429 0.0285 0.0
C867 C 0.67431 0.21058 0.99017 0.0
C868 C 0.69618 0.20113 0.97604 0.0
H869 H 0.65682 0.21734 0.02859 0.0
H870 H 0.65906 0.2216 0.9799 0.0
C871 C 0.71526 0.18654 0.99014 0.0
C872 C 0.31803 0.28853 0.4976 0.0
C873 C 0.30887 0.26651 0.51272 0.0
H874 H 0.32473 0.30518 0.45846 0.0
C875 C 0.29907 0.2439 0.49919 0.0
H876 H 0.32565 0.3063 0.50741 0.0
C877 C 0.2984 0.24332 0.47114 0.0
C878 C 0.30761 0.26532 0.456 0.0
H879 H 0.29177 0.22665 0.51025 0.0
H880 H 0.29078 0.22554 0.46134 0.0
C881 C 0.31744 0.28793 0.46953 0.0
C882 C 0.70901 0.8381 0.02666 0.0
C883 C 0.68972 0.82352 0.04047 0.0
H884 H 0.72484 0.84951 0.98853 0.0
C885 C 0.66855 0.8133 0.02581 0.0
H886 H 0.72543 0.84656 0.03732 0.0
C887 C 0.66818 0.81504 0.99774 0.0
C888 C 0.68901 0.82699 0.98376 0.0
H889 H 0.65317 0.80223 0.03582 0.0
H890 H 0.65254 0.80524 0.98697 0.0
C891 C 0.70867 0.8398 0.9986 0.0
C892 C 0.6635 0.29069 0.50414 0.0
C893 C 0.67251 0.26844 0.51903 0.0
H894 H 0.65563 0.30727 0.46519 0.0
C895 C 0.68127 0.2455 0.50521 0.0
H896 H 0.65666 0.3087 0.51417 0.0
C897 C 0.68079 0.24474 0.47715 0.0
C898 C 0.67146 0.26685 0.46226 0.0
H899 H 0.68843 0.22805 0.51606 0.0
H900 H 0.68749 0.22665 0.46717 0.0
C901 C 0.66294 0.28989 0.47605 0.0
C902 C 0.27503 0.75817 0.49636 0.0
C903 C 0.28746 0.73771 0.48167 0.0
H904 H 0.26611 0.77434 0.53509 0.0
C905 C 0.29941 0.71644 0.49578 0.0
H906 H 0.26554 0.7748 0.48616 0.0
C907 C 0.29974 0.71617 0.52391 0.0
C908 C 0.28813 0.73716 0.53858 0.0
H909 H 0.3091 0.7003 0.48511 0.0
H910 H 0.30968 0.69984 0.53412 0.0
C911 C 0.27536 0.7579 0.52446 0.0
C912 C 0.1257 0.34649 0.24409 0.0
C913 C 0.13156 0.36741 0.22598 0.0
H914 H 0.11305 0.30555 0.24824 0.0
C915 C 0.12168 0.36611 0.19967 0.0
H916 H 0.13316 0.34687 0.26445 0.0
C917 C 0.10954 0.34262 0.19058 0.0
C918 C 0.10778 0.32003 0.20754 0.0
H919 H 0.12598 0.38197 0.18532 0.0
H920 H 0.10472 0.34101 0.16945 0.0
C921 C 0.1143 0.32273 0.23479 0.0
C922 C 0.10845 0.68926 0.78539 0.0
C923 C 0.10368 0.6939 0.8128 0.0
H924 H 0.12757 0.66433 0.75648 0.0
C925 C 0.10819 0.67295 0.83128 0.0
H926 H 0.10501 0.70507 0.77074 0.0
C927 C 0.12163 0.64983 0.82319 0.0
C928 C 0.13009 0.64718 0.79647 0.0
H929 H 0.10471 0.67596 0.85253 0.0
H930 H 0.12826 0.63576 0.83843 0.0
C931 C 0.12123 0.66578 0.7772 0.0
C932 C 0.8463 0.66341 0.23945 0.0
C933 C 0.83803 0.64259 0.22242 0.0
H934 H 0.86137 0.70363 0.24157 0.0
C935 C 0.84539 0.64324 0.19522 0.0
H936 H 0.8406 0.66359 0.26042 0.0
C937 C 0.85794 0.6659 0.18458 0.0
C938 C 0.86252 0.68844 0.20088 0.0
H939 H 0.83901 0.62753 0.18167 0.0
H940 H 0.86106 0.66705 0.16307 0.0
C941 C 0.85803 0.68644 0.22864 0.0
C942 C 0.83713 0.29188 0.75839 0.0
C943 C 0.84617 0.30147 0.78318 0.0
H944 H 0.82419 0.30163 0.71876 0.0
C945 C 0.8499 0.3293 0.78656 0.0
H946 H 0.8342 0.27049 0.75526 0.0
C947 C 0.84343 0.34734 0.76583 0.0
C948 C 0.83396 0.33771 0.74115 0.0
H949 H 0.85674 0.33716 0.80557 0.0
H950 H 0.84553 0.36879 0.76918 0.0
C951 C 0.83149 0.30974 0.73747 0.0
C952 C 0.27495 0.13667 0.33449 0.0
C953 C 0.27232 0.15752 0.35336 0.0
H954 H 0.25517 0.10906 0.30883 0.0
C955 C 0.24859 0.16021 0.36712 0.0
H956 H 0.29319 0.13362 0.32403 0.0
C957 C 0.22662 0.14628 0.35819 0.0
C958 C 0.22829 0.1294 0.33561 0.0
H959 H 0.24603 0.17568 0.3822 0.0
H960 H 0.20788 0.15149 0.36666 0.0
C961 C 0.25306 0.12248 0.32582 0.0
C962 C 0.35474 0.70474 0.8717 0.0
C963 C 0.34626 0.73167 0.87158 0.0
H964 H 0.37147 0.67271 0.84878 0.0
C965 C 0.35463 0.74888 0.85085 0.0
H966 H 0.34844 0.69108 0.88744 0.0
C967 C 0.36708 0.73819 0.82827 0.0
C968 C 0.37199 0.71038 0.82664 0.0
H969 H 0.34822 0.76968 0.85017 0.0
H970 H 0.37021 0.75109 0.81096 0.0
C971 C 0.36788 0.69422 0.84947 0.0
C972 C 0.72235 0.86489 0.35924 0.0
C973 C 0.72607 0.84281 0.37664 0.0
H974 H 0.73969 0.89092 0.33001 0.0
C975 C 0.75155 0.83597 0.38422 0.0
H976 H 0.70292 0.87106 0.35347 0.0
C977 C 0.77271 0.84724 0.37056 0.0
C978 C 0.76858 0.86564 0.34941 0.0
H979 H 0.75515 0.81938 0.39793 0.0
H980 H 0.79191 0.83906 0.3743 0.0
C981 C 0.74352 0.87635 0.34578 0.0
C982 C 0.61538 0.27668 0.86818 0.0
C983 C 0.6318 0.29862 0.87361 0.0
H984 H 0.58641 0.26063 0.84189 0.0
C985 C 0.62578 0.32386 0.86226 0.0
H986 H 0.61918 0.25705 0.87692 0.0
C987 C 0.60676 0.32598 0.84231 0.0
C988 C 0.5938 0.30279 0.83323 0.0
H989 H 0.63773 0.3413 0.86651 0.0
H990 H 0.60477 0.34499 0.83173 0.0
C991 C 0.59654 0.27873 0.84801 0.0
C992 C 0.23609 0.84458 0.63275 0.0
C993 C 0.26166 0.84821 0.64199 0.0
H994 H 0.19589 0.85293 0.63987 0.0
C995 C 0.26687 0.86995 0.65927 0.0
H996 H 0.23142 0.82839 0.61903 0.0
C997 C 0.24642 0.8842 0.67113 0.0
C998 C 0.22058 0.87666 0.66598 0.0
H999 H 0.28648 0.87371 0.66626 0.0
H1000 H 0.25095 0.89835 0.68698 0.0
C1001 C 0.21564 0.85869 0.64476 0.0
C1002 C 0.62945 0.73988 0.17087 0.0
C1003 C 0.63614 0.72168 0.15042 0.0
H1004 H 0.61631 0.74417 0.21152 0.0
C1005 C 0.62759 0.69484 0.15241 0.0
H1006 H 0.63602 0.76062 0.17001 0.0
C1007 C 0.61563 0.6856 0.17597 0.0
C1008 C 0.61279 0.70294 0.19801 0.0
H1009 H 0.63266 0.68038 0.137 0.0
H1010 H 0.61168 0.66425 0.17809 0.0
C1011 C 0.61831 0.73046 0.19474 0.0
C1012 C 0.73111 0.14626 0.67381 0.0
C1013 C 0.75734 0.15021 0.66693 0.0
H1014 H 0.69219 0.16088 0.66915 0.0
C1015 C 0.76325 0.16546 0.64382 0.0
H1016 H 0.72585 0.13454 0.69139 0.0
C1017 C 0.74374 0.18007 0.63064 0.0
C1018 C 0.71828 0.17984 0.64074 0.0
H1019 H 0.78329 0.16866 0.6379 0.0
H1020 H 0.74926 0.1943 0.61508 0.0
C1021 C 0.71174 0.16135 0.66105 0.0
C1022 C 0.3511 0.27682 0.15469 0.0
C1023 C 0.33946 0.29407 0.13578 0.0
H1024 H 0.37079 0.27439 0.19256 0.0
C1025 C 0.34592 0.32158 0.13594 0.0
H1026 H 0.34627 0.25557 0.15512 0.0
C1027 C 0.36051 0.33229 0.15707 0.0
C1028 C 0.36809 0.31564 0.17855 0.0
H1029 H 0.33705 0.33527 0.12161 0.0
H1030 H 0.36261 0.35397 0.15838 0.0
C1031 C 0.365 0.28762 0.17625 0.0
C1032 C 0.85406 0.66481 0.7815 0.0
C1033 C 0.84495 0.64655 0.80096 0.0
H1034 H 0.87075 0.70379 0.77466 0.0
C1035 C 0.8535 0.64928 0.82763 0.0
H1036 H 0.84767 0.66327 0.76081 0.0
C1037 C 0.86724 0.67227 0.83549 0.0
C1038 C 0.87194 0.69301 0.81683 0.0
H1039 H 0.84668 0.63547 0.84301 0.0
H1040 H 0.87075 0.67541 0.85672 0.0
C1041 C 0.86715 0.68817 0.78946 0.0
C1042 C 0.85577 0.33651 0.18534 0.0
C1043 C 0.85766 0.31366 0.20193 0.0
H1044 H 0.84009 0.37637 0.18113 0.0
C1045 C 0.85123 0.31584 0.22924 0.0
H1046 H 0.86042 0.3352 0.16415 0.0
C1047 C 0.84053 0.3397 0.2392 0.0
C1048 C 0.83515 0.36129 0.22169 0.0
H1049 H 0.85249 0.2984 0.24234 0.0
H1050 H 0.83351 0.33992 0.25973 0.0
C1051 C 0.84421 0.36009 0.19507 0.0
C1052 C 0.10838 0.31801 0.77988 0.0
C1053 C 0.12499 0.31679 0.80223 0.0
H1054 H 0.10352 0.33219 0.73941 0.0
C1055 C 0.14692 0.3336 0.80308 0.0
H1056 H 0.09142 0.30514 0.77877 0.0
C1057 C 0.15323 0.34988 0.78106 0.0
C1058 C 0.13821 0.34883 0.75754 0.0
H1059 H 0.15994 0.33301 0.82019 0.0
H1060 H 0.17131 0.36108 0.78145 0.0
C1061 C 0.1152 0.33358 0.75747 0.0
C1062 C 0.1301 0.66525 0.23842 0.0
C1063 C 0.13835 0.64428 0.22154 0.0
H1064 H 0.11494 0.70547 0.24023 0.0
C1065 C 0.13091 0.64468 0.19437 0.0
H1066 H 0.13588 0.66563 0.25936 0.0
C1067 C 0.11826 0.66722 0.18358 0.0
C1068 C 0.11366 0.6899 0.1997 0.0
H1069 H 0.13729 0.62886 0.18093 0.0
H1070 H 0.11505 0.66818 0.16208 0.0
C1071 C 0.11828 0.68817 0.22746 0.0
C1072 C 0.7311 0.88348 0.672 0.0
C1073 C 0.75691 0.8754 0.66744 0.0
H1074 H 0.691 0.87367 0.66643 0.0
C1075 C 0.76198 0.85722 0.64643 0.0
H1076 H 0.72651 0.89782 0.68767 0.0
C1077 C 0.74155 0.8434 0.63411 0.0
C1078 C 0.71588 0.84752 0.64287 0.0
H1079 H 0.78173 0.85108 0.64197 0.0
H1080 H 0.74623 0.82701 0.62061 0.0
C1081 C 0.71067 0.86951 0.65984 0.0
C1082 C 0.61989 0.28798 0.1873 0.0
C1083 C 0.61567 0.31585 0.18928 0.0
H1084 H 0.63753 0.25614 0.16484 0.0
C1085 C 0.62124 0.33244 0.16712 0.0
H1086 H 0.61579 0.27486 0.20422 0.0
C1087 C 0.63434 0.32187 0.14487 0.0
C1088 C 0.64124 0.29448 0.14425 0.0
H1089 H 0.61833 0.35404 0.16832 0.0
H1090 H 0.6414 0.33557 0.12952 0.0
C1091 C 0.63215 0.27726 0.16464 0.0
C1092 C 0.26115 0.17134 0.65927 0.0
C1093 C 0.25372 0.18887 0.63845 0.0
H1094 H 0.24852 0.14414 0.68998 0.0
C1095 C 0.22818 0.18784 0.62868 0.0
H1096 H 0.28075 0.17199 0.66721 0.0
C1097 C 0.20948 0.17232 0.6421 0.0
C1098 C 0.21623 0.15745 0.66523 0.0
H1099 H 0.22199 0.20142 0.61282 0.0
H1100 H 0.1893 0.17424 0.63612 0.0
C1101 C 0.24262 0.15536 0.67228 0.0
C1102 C 0.34697 0.69352 0.15064 0.0
C1103 C 0.33858 0.72041 0.14838 0.0
H1104 H 0.36297 0.66315 0.17653 0.0
C1105 C 0.34556 0.73882 0.16853 0.0
H1106 H 0.34168 0.67891 0.13546 0.0
C1107 C 0.35689 0.72962 0.1924 0.0
C1108 C 0.36232 0.70211 0.19595 0.0
H1109 H 0.33912 0.7596 0.16747 0.0
H1110 H 0.35914 0.74353 0.20898 0.0
C1111 C 0.35912 0.6845 0.17418 0.0
C1112 C 0.70201 0.13816 0.33899 0.0
C1113 C 0.7046 0.15911 0.35776 0.0
H1114 H 0.72173 0.11106 0.31267 0.0
C1115 C 0.72879 0.16283 0.37036 0.0
H1116 H 0.68348 0.13437 0.32936 0.0
C1117 C 0.75086 0.14962 0.36057 0.0
C1118 C 0.7489 0.13237 0.3383 0.0
H1119 H 0.73139 0.17845 0.38528 0.0
H1120 H 0.76973 0.15547 0.36827 0.0
C1121 C 0.72402 0.1247 0.32945 0.0
C1122 C 0.35349 0.27798 0.87041 0.0
C1123 C 0.33693 0.30014 0.87457 0.0
H1124 H 0.38298 0.26079 0.84542 0.0
C1125 C 0.34313 0.32485 0.86224 0.0
H1126 H 0.34957 0.25874 0.87992 0.0
C1127 C 0.36264 0.32612 0.84268 0.0
C1128 C 0.37586 0.30256 0.83493 0.0
H1129 H 0.33108 0.34247 0.86545 0.0
H1130 H 0.36482 0.34464 0.83133 0.0
C1131 C 0.37273 0.27914 0.85058 0.0
C1132 C 0.25391 0.8666 0.35688 0.0
C1133 C 0.25051 0.84467 0.37454 0.0
H1134 H 0.23619 0.89209 0.32741 0.0
C1135 C 0.22512 0.83761 0.38226 0.0
H1136 H 0.27325 0.87295 0.35099 0.0
C1137 C 0.2038 0.84846 0.36853 0.0
C1138 C 0.20765 0.86668 0.34716 0.0
H1139 H 0.22175 0.82115 0.39618 0.0
H1140 H 0.18471 0.8401 0.37241 0.0
C1141 C 0.23257 0.87764 0.34334 0.0
C1142 C 0.60628 0.74006 0.83247 0.0
C1143 C 0.60124 0.71229 0.83062 0.0
H1144 H 0.62569 0.77118 0.8543 0.0
C1145 C 0.60565 0.69587 0.85322 0.0
H1146 H 0.60291 0.75316 0.81536 0.0
C1147 C 0.61924 0.70607 0.8753 0.0
C1148 C 0.62789 0.73293 0.87526 0.0
H1149 H 0.60196 0.6744 0.85238 0.0
H1150 H 0.62573 0.6922 0.89077 0.0
C1151 C 0.6192 0.75042 0.85491 0.0
C1152 C 0.1068 0.15232 0.19005 0.0
C1153 C 0.09375 0.1759 0.19775 0.0
H1154 H 0.12807 0.11787 0.2034 0.0
C1155 C 0.08433 0.17792 0.22411 0.0
H1156 H 0.11416 0.15029 0.16974 0.0
C1157 C 0.09275 0.15957 0.2437 0.0
C1158 C 0.11071 0.13925 0.23691 0.0
H1159 H 0.07416 0.19593 0.23051 0.0
H1160 H 0.08853 0.16393 0.26457 0.0
C1161 C 0.1149 0.13376 0.20952 0.0
C1162 C 0.30633 0.58792 0.75687 0.0
C1163 C 0.32055 0.59867 0.77834 0.0
H1164 H 0.26865 0.57658 0.74292 0.0
C1165 C 0.31028 0.5969 0.8044 0.0
H1166 H 0.31392 0.58908 0.73658 0.0
C1167 C 0.28422 0.58997 0.80812 0.0
C1168 C 0.2683 0.58517 0.78569 0.0
H1169 H 0.32101 0.60502 0.82128 0.0
H1170 H 0.27577 0.59263 0.82789 0.0
C1171 C 0.28022 0.58094 0.76057 0.0
C1172 C 0.89179 0.84066 0.23967 0.0
C1173 C 0.87372 0.86183 0.2368 0.0
H1174 H 0.9082 0.8057 0.22106 0.0
C1175 C 0.86755 0.87066 0.21066 0.0
H1176 H 0.8976 0.83382 0.25948 0.0
C1177 C 0.87347 0.85432 0.18866 0.0
C1178 C 0.88629 0.82963 0.19261 0.0
H1179 H 0.85434 0.88739 0.20752 0.0
H1180 H 0.86448 0.85884 0.16947 0.0
C1181 C 0.89804 0.82453 0.21755 0.0
C1182 C 0.66929 0.36453 0.73147 0.0
C1183 C 0.6607 0.33771 0.73399 0.0
H1184 H 0.70136 0.39097 0.72289 0.0
C1185 C 0.67867 0.31677 0.72993 0.0
H1186 H 0.65595 0.38114 0.7345 0.0
C1187 C 0.70442 0.32233 0.72333 0.0
C1188 C 0.71316 0.34905 0.72066 0.0
H1189 H 0.67285 0.29585 0.73163 0.0
H1190 H 0.71746 0.30549 0.72021 0.0
C1191 C 0.69533 0.37016 0.72494 0.0
C1192 C 0.08683 0.83762 0.79326 0.0
C1193 C 0.09872 0.83926 0.81855 0.0
H1194 H 0.08807 0.85098 0.75235 0.0
C1195 C 0.11418 0.86177 0.82446 0.0
H1196 H 0.07483 0.82041 0.78825 0.0
C1197 C 0.12149 0.8796 0.80401 0.0
C1198 C 0.11417 0.87436 0.7773 0.0
H1199 H 0.12347 0.86348 0.84392 0.0
H1200 H 0.13621 0.89453 0.8085 0.0
C1201 C 0.09452 0.85516 0.77264 0.0
C1202 C 0.66109 0.58516 0.23533 0.0
C1203 C 0.65367 0.59064 0.26188 0.0
H1204 H 0.69309 0.57723 0.20911 0.0
C1205 C 0.66976 0.58188 0.28292 0.0
H1206 H 0.6489 0.59165 0.21876 0.0
C1207 C 0.69515 0.57345 0.27746 0.0
C1208 C 0.70462 0.57451 0.25094 0.0
H1209 H 0.66435 0.58578 0.3036 0.0
H1210 H 0.70831 0.57075 0.29425 0.0
C1211 C 0.68659 0.57708 0.22982 0.0
C1212 C 0.89311 0.18074 0.79334 0.0
C1213 C 0.88143 0.17568 0.81835 0.0
H1214 H 0.89179 0.17206 0.75132 0.0
C1215 C 0.86876 0.15091 0.82232 0.0
H1216 H 0.90352 0.1994 0.78981 0.0
C1217 C 0.86213 0.13503 0.80021 0.0
C1218 C 0.86765 0.14436 0.7741 0.0
H1219 H 0.86016 0.14616 0.84165 0.0
H1220 H 0.84876 0.11847 0.80339 0.0
C1221 C 0.88623 0.16502 0.77114 0.0
C1222 C 0.30598 0.43002 0.2667 0.0
C1223 C 0.31964 0.42308 0.24333 0.0
H1224 H 0.26868 0.43835 0.28363 0.0
C1225 C 0.30834 0.42849 0.21824 0.0
H1226 H 0.31433 0.42595 0.28629 0.0
C1227 C 0.28203 0.4353 0.21659 0.0
C1228 C 0.26686 0.43642 0.24009 0.0
H1229 H 0.31857 0.42326 0.19993 0.0
H1230 H 0.2729 0.43553 0.19696 0.0
C1231 C 0.27965 0.43693 0.2651 0.0
C1232 C 0.24763 0.17853 0.17296 0.0
C1233 C 0.24757 0.20672 0.17598 0.0
H1234 H 0.23575 0.14034 0.18922 0.0
C1235 C 0.23652 0.21781 0.1993 0.0
H1236 H 0.25597 0.16933 0.15523 0.0
C1237 C 0.22498 0.20131 0.21864 0.0
C1238 C 0.22413 0.17321 0.21524 0.0
H1239 H 0.23626 0.23941 0.20243 0.0
H1240 H 0.21624 0.21073 0.23605 0.0
C1241 C 0.23601 0.16192 0.19242 0.0
C1242 C 0.35626 0.70623 0.64387 0.0
C1243 C 0.36426 0.73292 0.64855 0.0
H1244 H 0.35311 0.66668 0.66087 0.0
C1245 C 0.38415 0.73739 0.66748 0.0
H1246 H 0.34141 0.70184 0.62908 0.0
C1247 C 0.39129 0.71688 0.68542 0.0
C1248 C 0.37854 0.69193 0.68447 0.0
H1249 H 0.39118 0.75762 0.67118 0.0
H1250 H 0.40347 0.72195 0.70244 0.0
C1251 C 0.36298 0.68593 0.66212 0.0
C1252 C 0.75841 0.79871 0.2216 0.0
C1253 C 0.75881 0.82703 0.22179 0.0
H1254 H 0.746 0.76294 0.20171 0.0
C1255 C 0.7452 0.84108 0.2016 0.0
H1256 H 0.76856 0.78718 0.23687 0.0
C1257 C 0.73217 0.82706 0.18122 0.0
C1258 C 0.73249 0.79871 0.18067 0.0
H1259 H 0.74511 0.86291 0.20115 0.0
H1260 H 0.72234 0.83842 0.16562 0.0
C1261 C 0.74544 0.78476 0.20135 0.0
C1262 C 0.57907 0.30012 0.66166 0.0
C1263 C 0.56946 0.28093 0.68003 0.0
H1264 H 0.60644 0.30712 0.63002 0.0
C1265 C 0.57073 0.25353 0.67295 0.0
H1266 H 0.57776 0.32147 0.66598 0.0
C1267 C 0.58708 0.24538 0.65204 0.0
C1268 C 0.60201 0.26458 0.63818 0.0
H1269 H 0.56277 0.2382 0.68614 0.0
H1270 H 0.59158 0.22413 0.65018 0.0
C1271 C 0.59538 0.2919 0.6407 0.0
C1272 C 0.22995 0.81471 0.79147 0.0
C1273 C 0.22829 0.84295 0.79283 0.0
H1274 H 0.24243 0.77824 0.81024 0.0
C1275 C 0.24006 0.85622 0.81462 0.0
H1276 H 0.22132 0.8038 0.7749 0.0
C1277 C 0.25225 0.84141 0.83516 0.0
C1278 C 0.25294 0.81307 0.83422 0.0
H1279 H 0.23914 0.87796 0.81627 0.0
H1280 H 0.26044 0.8521 0.85209 0.0
C1281 C 0.24211 0.80001 0.81183 0.0
C1282 C 0.60923 0.69123 0.36537 0.0
C1283 C 0.59573 0.69735 0.3416 0.0
H1284 H 0.63087 0.70701 0.39832 0.0
C1285 C 0.58558 0.72338 0.33822 0.0
H1286 H 0.61709 0.67119 0.36849 0.0
C1287 C 0.59387 0.74419 0.3551 0.0
C1288 C 0.61244 0.73895 0.37527 0.0
H1289 H 0.575 0.72856 0.32009 0.0
H1290 H 0.58913 0.76475 0.34953 0.0
C1291 C 0.61725 0.71195 0.38244 0.0
C1292 C 0.75606 0.21646 0.79093 0.0
C1293 C 0.75556 0.18819 0.79277 0.0
H1294 H 0.74533 0.25404 0.80841 0.0
C1295 C 0.74224 0.17617 0.81442 0.0
H1296 H 0.766 0.22648 0.77451 0.0
C1297 C 0.73031 0.19216 0.83415 0.0
C1298 C 0.73137 0.22046 0.83252 0.0
H1299 H 0.7415 0.15445 0.81646 0.0
H1300 H 0.72066 0.18235 0.85087 0.0
C1301 C 0.74411 0.23233 0.81045 0.0
C1302 C 0.39973 0.29309 0.308 0.0
C1303 C 0.38943 0.31793 0.31622 0.0
H1304 H 0.39757 0.2503 0.3128 0.0
C1305 C 0.37769 0.3197 0.3416 0.0
H1306 H 0.40904 0.29125 0.28855 0.0
C1307 C 0.37147 0.29624 0.35582 0.0
C1308 C 0.37613 0.2709 0.34414 0.0
H1309 H 0.36982 0.33874 0.34849 0.0
H1310 H 0.35916 0.29812 0.37338 0.0
C1311 C 0.393 0.26954 0.3219 0.0
C1312 C 0.18455 0.29247 0.08191 0.0
C1313 C 0.20183 0.27084 0.07809 0.0
H1314 H 0.14751 0.30408 0.09762 0.0
C1315 C 0.1915 0.24468 0.0759 0.0
H1316 H 0.19175 0.31296 0.08296 0.0
C1317 C 0.16609 0.23963 0.0845 0.0
C1318 C 0.15085 0.26079 0.09448 0.0
H1319 H 0.20409 0.22757 0.07223 0.0
H1320 H 0.16007 0.21891 0.08751 0.0
C1321 C 0.15904 0.28741 0.09017 0.0
C1322 C 0.19613 0.77551 0.93332 0.0
C1323 C 0.20848 0.75019 0.93266 0.0
H1324 H 0.16202 0.79765 0.92209 0.0
C1325 C 0.19297 0.72695 0.93065 0.0
H1326 H 0.2074 0.79383 0.93532 0.0
C1327 C 0.1669 0.72925 0.92319 0.0
C1328 C 0.15611 0.75473 0.91814 0.0
H1329 H 0.20179 0.70711 0.9307 0.0
H1330 H 0.15651 0.71119 0.91736 0.0
C1331 C 0.16997 0.77776 0.92589 0.0
C1332 C 0.72466 0.71725 0.31067 0.0
C1333 C 0.7252 0.71638 0.3389 0.0
H1334 H 0.73482 0.69808 0.27383 0.0
C1335 C 0.7382 0.69488 0.35163 0.0
H1336 H 0.71499 0.73354 0.30012 0.0
C1337 C 0.7497 0.6743 0.33639 0.0
C1338 C 0.74841 0.67487 0.30814 0.0
H1339 H 0.73899 0.6936 0.37335 0.0
H1340 H 0.75907 0.65769 0.34673 0.0
C1341 C 0.73608 0.69682 0.29553 0.0
C1342 C 0.7818 0.26212 0.93953 0.0
C1343 C 0.77194 0.28723 0.93108 0.0
H1344 H 0.81242 0.23349 0.93412 0.0
C1345 C 0.78973 0.30691 0.92222 0.0
H1346 H 0.76892 0.24675 0.94744 0.0
C1347 C 0.81504 0.29933 0.91515 0.0
C1348 C 0.82238 0.27214 0.91685 0.0
H1349 H 0.78305 0.32682 0.91645 0.0
H1350 H 0.82678 0.31346 0.90377 0.0
C1351 C 0.80696 0.25451 0.93214 0.0
C1352 C 0.25319 0.28929 0.29145 0.0
C1353 C 0.25729 0.28828 0.31936 0.0
H1354 H 0.23738 0.31093 0.25815 0.0
C1355 C 0.24651 0.30872 0.33546 0.0
H1356 H 0.26101 0.27382 0.27841 0.0
C1357 C 0.23285 0.33025 0.32372 0.0
C1358 C 0.22971 0.33171 0.29566 0.0
H1359 H 0.2493 0.30856 0.35703 0.0
H1360 H 0.22543 0.34609 0.33654 0.0
C1361 C 0.2396 0.31066 0.27979 0.0
C1362 C 0.78534 0.72008 0.07827 0.0
C1363 C 0.76804 0.74196 0.07609 0.0
H1364 H 0.82327 0.70773 0.09092 0.0
C1365 C 0.77849 0.76806 0.07363 0.0
H1366 H 0.77805 0.69962 0.07943 0.0
C1367 C 0.8045 0.77264 0.08034 0.0
C1368 C 0.82018 0.75112 0.08885 0.0
H1369 H 0.76587 0.78539 0.07112 0.0
H1370 H 0.81091 0.79323 0.08325 0.0
C1371 C 0.81144 0.7247 0.08463 0.0
C1372 C 0.74559 0.35989 0.64574 0.0
C1373 C 0.77164 0.35244 0.64129 0.0
H1374 H 0.70586 0.3467 0.64653 0.0
C1375 C 0.77697 0.32769 0.62881 0.0
H1376 H 0.74081 0.37882 0.65533 0.0
C1377 C 0.75682 0.3098 0.62285 0.0
C1378 C 0.73117 0.31617 0.62994 0.0
H1379 H 0.79687 0.3215 0.62517 0.0
H1380 H 0.76152 0.29013 0.61478 0.0
C1381 C 0.72555 0.34157 0.64072 0.0
C1382 C 0.2373 0.70505 0.72845 0.0
C1383 C 0.22615 0.68205 0.71669 0.0
H1384 H 0.2583 0.74168 0.72257 0.0
C1385 C 0.22652 0.67969 0.68852 0.0
H1386 H 0.23725 0.70772 0.75004 0.0
C1387 C 0.23864 0.69944 0.67259 0.0
C1388 C 0.2507 0.72184 0.68457 0.0
H1389 H 0.21807 0.66227 0.6788 0.0
H1390 H 0.2393 0.69669 0.65102 0.0
C1391 C 0.24942 0.72461 0.71263 0.0
C1392 C 0.8816 0.85374 0.77572 0.0
C1393 C 0.8619 0.873 0.78003 0.0
H1394 H 0.90117 0.81912 0.7918 0.0
C1395 C 0.8544 0.87853 0.80664 0.0
H1396 H 0.88819 0.84935 0.75552 0.0
C1397 C 0.86154 0.86089 0.82731 0.0
C1398 C 0.87701 0.83829 0.82173 0.0
H1399 H 0.83965 0.89354 0.81086 0.0
H1400 H 0.85208 0.8628 0.84668 0.0
C1401 C 0.88913 0.83639 0.79656 0.0
C1402 C 0.67021 0.43417 0.27763 0.0
C1403 C 0.65393 0.42632 0.25646 0.0
H1404 H 0.70912 0.44316 0.28934 0.0
C1405 C 0.66186 0.4315 0.22996 0.0
H1406 H 0.66439 0.43058 0.29826 0.0
C1407 C 0.68783 0.43799 0.22469 0.0
C1408 C 0.70575 0.43944 0.24601 0.0
H1409 H 0.64952 0.42578 0.21328 0.0
H1410 H 0.69452 0.43748 0.20405 0.0
C1411 C 0.69604 0.44114 0.2724 0.0
C1412 C 0.0898 0.16991 0.77294 0.0
C1413 C 0.1088 0.1496 0.77574 0.0
H1414 H 0.07235 0.20454 0.7912 0.0
C1415 C 0.11637 0.14201 0.80188 0.0
H1416 H 0.08294 0.17581 0.75319 0.0
C1417 C 0.11051 0.15875 0.82359 0.0
C1418 C 0.09625 0.18253 0.81949 0.0
H1419 H 0.13036 0.12597 0.80501 0.0
H1420 H 0.12026 0.1552 0.84258 0.0
C1421 C 0.08358 0.1864 0.79482 0.0
C1422 C 0.31506 0.58527 0.23451 0.0
C1423 C 0.32239 0.59066 0.2611 0.0
H1424 H 0.28307 0.57787 0.20814 0.0
C1425 C 0.30617 0.58198 0.28205 0.0
H1426 H 0.32737 0.59166 0.218 0.0
C1427 C 0.28072 0.57387 0.27647 0.0
C1428 C 0.27136 0.5752 0.24992 0.0
H1429 H 0.31153 0.58577 0.30276 0.0
H1430 H 0.26748 0.57127 0.29321 0.0
C1431 C 0.2895 0.57756 0.22888 0.0
C1432 C 0.88363 0.15901 0.24391 0.0
C1433 C 0.86638 0.13757 0.23883 0.0
H1434 H 0.90064 0.19501 0.22786 0.0
C1435 C 0.86245 0.12973 0.21198 0.0
H1436 H 0.88775 0.16515 0.26434 0.0
C1437 C 0.86974 0.14705 0.19109 0.0
C1438 C 0.8817 0.17176 0.19689 0.0
H1439 H 0.84996 0.11285 0.2072 0.0
H1440 H 0.8624 0.14313 0.17106 0.0
C1441 C 0.89123 0.17614 0.22291 0.0
C1442 C 0.27923 0.3732 0.7289 0.0
C1443 C 0.26073 0.35362 0.72171 0.0
H1444 H 0.3187 0.38117 0.74043 0.0
C1445 C 0.26838 0.32645 0.72084 0.0
H1446 H 0.274 0.39435 0.72957 0.0
C1447 C 0.2938 0.31897 0.72713 0.0
C1448 C 0.31238 0.33846 0.73422 0.0
H1449 H 0.25471 0.31085 0.7153 0.0
H1450 H 0.29891 0.29779 0.72623 0.0
C1451 C 0.30487 0.3657 0.73497 0.0
C1452 C 0.08362 0.84088 0.23858 0.0
C1453 C 0.10151 0.86218 0.23567 0.0
H1454 H 0.06718 0.80607 0.21981 0.0
C1455 C 0.10717 0.87141 0.20955 0.0
H1456 H 0.07816 0.83375 0.2584 0.0
C1457 C 0.10102 0.85532 0.18744 0.0
C1458 C 0.0885 0.83048 0.19131 0.0
H1459 H 0.12021 0.88827 0.2064 0.0
H1460 H 0.1097 0.86014 0.16817 0.0
C1461 C 0.07713 0.82501 0.21636 0.0
C1462 C 0.68997 0.59305 0.81442 0.0
C1463 C 0.70569 0.58754 0.79199 0.0
H1464 H 0.6534 0.60874 0.82749 0.0
C1465 C 0.69356 0.58276 0.76708 0.0
H1466 H 0.6986 0.59613 0.83404 0.0
C1467 C 0.66745 0.58984 0.76342 0.0
C1468 C 0.65349 0.60127 0.78472 0.0
H1469 H 0.70498 0.57785 0.74947 0.0
H1470 H 0.65971 0.5905 0.74318 0.0
C1471 C 0.66395 0.60011 0.81073 0.0
C1472 C 0.72313 0.84068 0.83706 0.0
C1473 C 0.7222 0.81234 0.83645 0.0
H1474 H 0.73665 0.87685 0.81781 0.0
C1475 C 0.73298 0.79889 0.81425 0.0
H1476 H 0.71498 0.85167 0.85384 0.0
C1477 C 0.74537 0.81321 0.79378 0.0
C1478 C 0.74728 0.84143 0.79483 0.0
H1479 H 0.73247 0.77711 0.81292 0.0
H1480 H 0.75397 0.80201 0.77737 0.0
C1481 C 0.73553 0.8551 0.81641 0.0
C1482 C 0.57316 0.29138 0.31711 0.0
C1483 C 0.58318 0.3161 0.32595 0.0
H1484 H 0.57555 0.24854 0.32121 0.0
C1485 C 0.5939 0.31752 0.35185 0.0
H1486 H 0.56452 0.28979 0.29732 0.0
C1487 C 0.60008 0.29385 0.36577 0.0
C1488 C 0.59619 0.26872 0.35338 0.0
H1489 H 0.60146 0.33647 0.35928 0.0
H1490 H 0.61192 0.29552 0.38369 0.0
C1491 C 0.5797 0.26763 0.33081 0.0
C1492 C 0.23015 0.17868 0.81298 0.0
C1493 C 0.21709 0.19044 0.79103 0.0
H1494 H 0.25033 0.18526 0.85015 0.0
C1495 C 0.21566 0.21868 0.78938 0.0
H1496 H 0.23155 0.15697 0.81488 0.0
C1497 C 0.22639 0.23479 0.80943 0.0
C1498 C 0.2388 0.22315 0.83181 0.0
H1499 H 0.20587 0.22847 0.77273 0.0
H1500 H 0.22449 0.25646 0.80754 0.0
C1501 C 0.24085 0.19489 0.83322 0.0
C1502 C 0.35956 0.71388 0.38041 0.0
C1503 C 0.36439 0.74078 0.3729 0.0
H1504 H 0.35936 0.67298 0.36693 0.0
C1505 C 0.38267 0.74569 0.35236 0.0
H1506 H 0.34618 0.70921 0.39658 0.0
C1507 C 0.39064 0.72464 0.33558 0.0
C1508 C 0.38047 0.69871 0.33943 0.0
H1509 H 0.38743 0.76616 0.34651 0.0
H1510 H 0.40099 0.72957 0.31724 0.0
C1511 C 0.36725 0.69294 0.36344 0.0
C1512 C 0.73003 0.17825 0.17401 0.0
C1513 C 0.73187 0.20651 0.17539 0.0
H1514 H 0.74012 0.14029 0.19207 0.0
C1515 C 0.7447 0.2181 0.19745 0.0
H1516 H 0.72028 0.16867 0.15729 0.0
C1517 C 0.75597 0.20195 0.21725 0.0
C1518 C 0.75479 0.1737 0.21561 0.0
H1519 H 0.7464 0.23977 0.19931 0.0
H1520 H 0.76599 0.21174 0.23369 0.0
C1521 C 0.74141 0.16199 0.19393 0.0
C1522 C 0.39764 0.29687 0.6637 0.0
C1523 C 0.40352 0.27666 0.68268 0.0
H1524 H 0.37397 0.30716 0.62984 0.0
C1525 C 0.39958 0.2496 0.67533 0.0
H1526 H 0.40109 0.3179 0.66824 0.0
C1527 C 0.38421 0.24349 0.65298 0.0
C1528 C 0.37286 0.26438 0.63794 0.0
H1529 H 0.40462 0.2334 0.68904 0.0
H1530 H 0.37746 0.22296 0.65057 0.0
C1531 C 0.38227 0.29069 0.64135 0.0
C1532 C 0.21692 0.79814 0.21953 0.0
C1533 C 0.21656 0.82646 0.21966 0.0
H1534 H 0.22922 0.76229 0.19965 0.0
C1535 C 0.23011 0.84044 0.19937 0.0
H1536 H 0.20683 0.78668 0.23487 0.0
C1537 C 0.24305 0.82633 0.17897 0.0
C1538 C 0.24269 0.79799 0.17848 0.0
H1539 H 0.23022 0.86226 0.19887 0.0
H1540 H 0.25283 0.83764 0.1633 0.0
C1541 C 0.2298 0.78411 0.19925 0.0
C1542 C 0.62132 0.70593 0.64754 0.0
C1543 C 0.61302 0.73271 0.6511 0.0
H1544 H 0.62434 0.66697 0.6659 0.0
C1545 C 0.59283 0.73775 0.66957 0.0
H1546 H 0.63644 0.70111 0.63317 0.0
C1547 C 0.58547 0.71782 0.68804 0.0
C1548 C 0.59829 0.69286 0.68811 0.0
H1549 H 0.58563 0.75806 0.67244 0.0
H1550 H 0.57292 0.72337 0.70462 0.0
C1551 C 0.61438 0.68622 0.66634 0.0
C1552 C 0.80512 0.77738 0.92889 0.0
C1553 C 0.81888 0.75422 0.92125 0.0
H1554 H 0.76773 0.79378 0.93805 0.0
C1555 C 0.80785 0.72884 0.92615 0.0
H1556 H 0.81325 0.79719 0.92518 0.0
C1557 C 0.7817 0.72678 0.93339 0.0
C1558 C 0.76635 0.75015 0.93537 0.0
H1559 H 0.81817 0.71069 0.92039 0.0
H1560 H 0.77275 0.70701 0.93337 0.0
C1561 C 0.77888 0.77536 0.9361 0.0
C1562 C 0.81705 0.27887 0.08353 0.0
C1563 C 0.82312 0.25161 0.0878 0.0
H1564 H 0.78617 0.30715 0.07777 0.0
C1565 C 0.80613 0.23192 0.07791 0.0
H1566 H 0.83005 0.29445 0.0907 0.0
C1567 C 0.78098 0.23917 0.07009 0.0
C1568 C 0.7727 0.26604 0.07312 0.0
H1569 H 0.81058 0.21073 0.08065 0.0
H1570 H 0.76706 0.22318 0.06663 0.0
C1571 C 0.79173 0.28614 0.07628 0.0
C1572 C 0.23594 0.36964 0.6275 0.0
C1573 C 0.20987 0.36213 0.62319 0.0
H1574 H 0.27534 0.35573 0.62889 0.0
C1575 C 0.20487 0.33971 0.60666 0.0
H1576 H 0.24069 0.38714 0.63951 0.0
C1577 C 0.22503 0.32194 0.60004 0.0
C1578 C 0.25019 0.32666 0.60977 0.0
H1579 H 0.18506 0.33367 0.60243 0.0
H1580 H 0.22025 0.30287 0.59072 0.0
C1581 C 0.25592 0.35157 0.62155 0.0
C1582 C 0.18907 0.72007 0.07659 0.0
C1583 C 0.20667 0.74163 0.07413 0.0
H1584 H 0.15099 0.70848 0.08944 0.0
C1585 C 0.19657 0.76788 0.07143 0.0
H1586 H 0.19607 0.69951 0.07793 0.0
C1587 C 0.17065 0.77296 0.07818 0.0
C1588 C 0.15469 0.75179 0.08695 0.0
H1589 H 0.20942 0.78497 0.06869 0.0
H1590 H 0.16454 0.79369 0.08091 0.0
C1591 C 0.16304 0.72518 0.08295 0.0
C1592 C 0.74922 0.67947 0.69229 0.0
C1593 C 0.74952 0.68252 0.7204 0.0
H1594 H 0.73687 0.6958 0.65434 0.0
C1595 C 0.73879 0.70605 0.73154 0.0
H1596 H 0.75737 0.66163 0.68304 0.0
C1597 C 0.72708 0.72546 0.71521 0.0
C1598 C 0.72583 0.72201 0.68722 0.0
H1599 H 0.73882 0.70926 0.75306 0.0
H1600 H 0.71848 0.74296 0.72468 0.0
C1601 C 0.73752 0.69908 0.67584 0.0
C1602 C 0.1629 0.25743 0.9425 0.0
C1603 C 0.14611 0.27398 0.92746 0.0
H1604 H 0.20236 0.25021 0.95377 0.0
C1605 C 0.15322 0.30102 0.92342 0.0
H1606 H 0.15763 0.23667 0.94657 0.0
C1607 C 0.17919 0.30873 0.92688 0.0
C1608 C 0.19777 0.28951 0.93505 0.0
H1609 H 0.14042 0.31452 0.91249 0.0
H1610 H 0.18525 0.32814 0.91907 0.0
C1611 C 0.18879 0.26516 0.94626 0.0
C1612 C 0.2388 0.69728 0.34999 0.0
C1613 C 0.25193 0.71865 0.3372 0.0
H1614 H 0.21779 0.66022 0.3452 0.0
C1615 C 0.25261 0.71937 0.30897 0.0
H1616 H 0.2379 0.69613 0.3717 0.0
C1617 C 0.24117 0.69892 0.29388 0.0
C1618 C 0.22869 0.67712 0.30656 0.0
H1619 H 0.2624 0.73555 0.29837 0.0
H1620 H 0.24253 0.70006 0.27219 0.0
C1621 C 0.22728 0.67671 0.3348 0.0
C1622 C 0.73909 0.3302 0.32561 0.0
C1623 C 0.73987 0.33211 0.2974 0.0
H1624 H 0.72501 0.30833 0.35995 0.0
C1625 C 0.72771 0.31192 0.28215 0.0
H1626 H 0.74828 0.34541 0.33795 0.0
C1627 C 0.7145 0.29079 0.29466 0.0
C1628 C 0.71301 0.28921 0.32282 0.0
H1629 H 0.72802 0.31256 0.26039 0.0
H1630 H 0.70505 0.27592 0.28212 0.0
C1631 C 0.72577 0.30895 0.3382 0.0
loop_
_geom_bond_atom_site_label_1
_geom_bond_atom_site_label_2
_geom_bond_distance
_geom_bond_site_symmetry_2
_ccdc_geom_bond_type
Zn0 O3 2.031 . S
Zn0 O5 2.049 . S
Zn0 O10 2.067 . S
Zn1 O2 1.962 . S
Zn1 O4 1.986 . S
Zn1 O6 1.996 . S
Zn1 O9 1.943 . S
O2 Zn1 1.962 . S
O2 C7 1.254 . S
O3 Zn0 2.031 . S
O3 C7 1.269 . S
O4 Zn1 1.986 . S
O4 C11 1.262 . S
O5 Zn0 2.049 . S
O5 C13 1.260 . S
O6 Zn1 1.996 . S
O6 C13 1.257 . S
C7 O2 1.254 . S
C7 O3 1.269 . S
C8 O9 1.249 . S
C8 O10 1.270 . S
O9 Zn1 1.943 . S
O9 C8 1.249 . S
O10 Zn0 2.067 . S
O10 C8 1.270 . S
C11 O4 1.262 . S
C11 O12 1.232 . S
O12 C11 1.232 . S
C13 O5 1.260 . S
C13 O6 1.257 . S
Zn14 O17 2.031 . S
Zn14 O19 2.049 . S
Zn14 O24 2.067 . S
Zn15 O16 1.962 . S
Zn15 O18 1.986 . S
Zn15 O20 1.996 . S
Zn15 O23 1.943 . S
O16 Zn15 1.962 . S
O16 C21 1.254 . S
O17 Zn14 2.031 . S
O17 C21 1.269 . S
O18 Zn15 1.986 . S
O18 C25 1.262 . S
O19 Zn14 2.049 . S
O19 C27 1.260 . S
O20 Zn15 1.996 . S
O20 C27 1.257 . S
C21 O16 1.254 . S
C21 O17 1.269 . S
C22 O23 1.249 . S
C22 O24 1.270 . S
O23 Zn15 1.943 . S
O23 C22 1.249 . S
O24 Zn14 2.067 . S
O24 C22 1.270 . S
C25 O18 1.262 . S
C25 O26 1.232 . S
O26 C25 1.232 . S
C27 O19 1.260 . S
C27 O20 1.257 . S
Zn28 O31 2.031 . S
Zn28 O33 2.049 . S
Zn28 O38 2.067 . S
Zn29 O30 1.962 . S
Zn29 O32 1.986 . S
Zn29 O34 1.996 . S
Zn29 O37 1.943 . S
O30 Zn29 1.962 . S
O30 C35 1.254 . S
O31 Zn28 2.031 . S
O31 C35 1.269 . S
O32 Zn29 1.986 . S
O32 C39 1.262 . S
O33 Zn28 2.049 . S
O33 C41 1.260 . S
O34 Zn29 1.996 . S
O34 C41 1.257 . S
C35 O30 1.254 . S
C35 O31 1.269 . S
C36 O37 1.249 . S
C36 O38 1.270 . S
O37 Zn29 1.943 . S
O37 C36 1.249 . S
O38 Zn28 2.067 . S
O38 C36 1.270 . S
C39 O32 1.262 . S
C39 O40 1.232 . S
O40 C39 1.232 . S
C41 O33 1.260 . S
C41 O34 1.257 . S
Zn42 O45 2.031 . S
Zn42 O47 2.049 . S
Zn42 O52 2.067 . S
Zn43 O44 1.962 . S
Zn43 O46 1.986 . S
Zn43 O48 1.996 . S
Zn43 O51 1.943 . S
O44 Zn43 1.962 . S
O44 C49 1.254 . S
O45 Zn42 2.031 . S
O45 C49 1.269 . S
O46 Zn43 1.986 . S
O46 C53 1.262 . S
O47 Zn42 2.049 . S
O47 C55 1.260 . S
O48 Zn43 1.996 . S
O48 C55 1.257 . S
C49 O44 1.254 . S
C49 O45 1.269 . S
C50 O51 1.249 . S
C50 O52 1.270 . S
O51 Zn43 1.943 . S
O51 C50 1.249 . S
O52 Zn42 2.067 . S
O52 C50 1.270 . S
C53 O46 1.262 . S
C53 O54 1.232 . S
O54 C53 1.232 . S
C55 O47 1.260 . S
C55 O48 1.257 . S
Zn56 O59 2.031 . S
Zn56 O61 2.049 . S
Zn56 O66 2.067 . S
Zn57 O58 1.962 . S
Zn57 O60 1.986 . S
Zn57 O62 1.996 . S
Zn57 O65 1.943 . S
O58 Zn57 1.962 . S
O58 C63 1.254 . S
O59 Zn56 2.031 . S
O59 C63 1.269 . S
O60 Zn57 1.986 . S
O60 C67 1.262 . S
O61 Zn56 2.049 . S
O61 C69 1.260 . S
O62 Zn57 1.996 . S
O62 C69 1.257 . S
C63 O58 1.254 . S
C63 O59 1.269 . S
C64 O65 1.249 . S
C64 O66 1.270 . S
O65 Zn57 1.943 . S
O65 C64 1.249 . S
O66 Zn56 2.067 . S
O66 C64 1.270 . S
C67 O60 1.262 . S
C67 O68 1.232 . S
O68 C67 1.232 . S
C69 O61 1.260 . S
C69 O62 1.257 . S
Zn70 O73 2.031 . S
Zn70 O75 2.049 . S
Zn70 O80 2.067 . S
Zn71 O72 1.962 . S
Zn71 O74 1.986 . S
Zn71 O76 1.996 . S
Zn71 O79 1.943 . S
O72 Zn71 1.962 . S
O72 C77 1.254 . S
O73 Zn70 2.031 . S
O73 C77 1.269 . S
O74 Zn71 1.986 . S
O74 C81 1.262 . S
O75 Zn70 2.049 . S
O75 C83 1.260 . S
O76 Zn71 1.996 . S
O76 C83 1.257 . S
C77 O72 1.254 . S
C77 O73 1.269 . S
C78 O79 1.249 . S
C78 O80 1.270 . S
O79 Zn71 1.943 . S
O79 C78 1.249 . S
O80 Zn70 2.067 . S
O80 C78 1.270 . S
C81 O74 1.262 . S
C81 O82 1.232 . S
O82 C81 1.232 . S
C83 O75 1.260 . S
C83 O76 1.257 . S
Zn84 O87 2.031 . S
Zn84 O89 2.049 . S
Zn84 O94 2.067 . S
Zn85 O86 1.962 . S
Zn85 O88 1.986 . S
Zn85 O90 1.996 . S
Zn85 O93 1.943 . S
O86 Zn85 1.962 . S
O86 C91 1.254 . S
O87 Zn84 2.031 . S
O87 C91 1.269 . S
O88 Zn85 1.986 . S
O88 C95 1.262 . S
O89 Zn84 2.049 . S
O89 C97 1.260 . S
O90 Zn85 1.996 . S
O90 C97 1.257 . S
C91 O86 1.254 . S
C91 O87 1.269 . S
C92 O93 1.249 . S
C92 O94 1.270 . S
O93 Zn85 1.943 . S
O93 C92 1.249 . S
O94 Zn84 2.067 . S
O94 C92 1.270 . S
C95 O88 1.262 . S
C95 O96 1.232 . S
O96 C95 1.232 . S
C97 O89 1.260 . S
C97 O90 1.257 . S
Zn98 O101 2.031 . S
Zn98 O103 2.049 . S
Zn98 O108 2.067 . S
Zn99 O100 1.962 . S
Zn99 O102 1.986 . S
Zn99 O104 1.996 . S
Zn99 O107 1.943 . S
O100 Zn99 1.962 . S
O100 C105 1.254 . S
O101 Zn98 2.031 . S
O101 C105 1.269 . S
O102 Zn99 1.986 . S
O102 C109 1.262 . S
O103 Zn98 2.049 . S
O103 C111 1.260 . S
O104 Zn99 1.996 . S
O104 C111 1.257 . S
C105 O100 1.254 . S
C105 O101 1.269 . S
C106 O107 1.249 . S
C106 O108 1.270 . S
O107 Zn99 1.943 . S
O107 C106 1.249 . S
O108 Zn98 2.067 . S
O108 C106 1.270 . S
C109 O102 1.262 . S
C109 O110 1.232 . S
O110 C109 1.232 . S
C111 O103 1.260 . S
C111 O104 1.257 . S
Zn112 O115 2.031 . S
Zn112 O117 2.049 . S
Zn112 O122 2.067 . S
Zn113 O114 1.962 . S
Zn113 O116 1.986 . S
Zn113 O118 1.996 . S
Zn113 O121 1.943 . S
O114 Zn113 1.962 . S
O114 C119 1.254 . S
O115 Zn112 2.031 . S
O115 C119 1.269 . S
O116 Zn113 1.986 . S
O116 C123 1.262 . S
O117 Zn112 2.049 . S
O117 C125 1.260 . S
O118 Zn113 1.996 . S
O118 C125 1.257 . S
C119 O114 1.254 . S
C119 O115 1.269 . S
C120 O121 1.249 . S
C120 O122 1.270 . S
O121 Zn113 1.943 . S
O121 C120 1.249 . S
O122 Zn112 2.067 . S
O122 C120 1.270 . S
C123 O116 1.262 . S
C123 O124 1.232 . S
O124 C123 1.232 . S
C125 O117 1.260 . S
C125 O118 1.257 . S
Zn126 O129 2.031 . S
Zn126 O131 2.049 . S
Zn126 O136 2.067 . S
Zn127 O128 1.962 . S
Zn127 O130 1.986 . S
Zn127 O132 1.996 . S
Zn127 O135 1.943 . S
O128 Zn127 1.962 . S
O128 C133 1.254 . S
O129 Zn126 2.031 . S
O129 C133 1.269 . S
O130 Zn127 1.986 . S
O130 C137 1.262 . S
O131 Zn126 2.049 . S
O131 C139 1.260 . S
O132 Zn127 1.996 . S
O132 C139 1.257 . S
C133 O128 1.254 . S
C133 O129 1.269 . S
C134 O135 1.249 . S
C134 O136 1.270 . S
O135 Zn127 1.943 . S
O135 C134 1.249 . S
O136 Zn126 2.067 . S
O136 C134 1.270 . S
C137 O130 1.262 . S
C137 O138 1.232 . S
O138 C137 1.232 . S
C139 O131 1.260 . S
C139 O132 1.257 . S
Zn140 O143 2.031 . S
Zn140 O145 2.049 . S
Zn140 O150 2.067 . S
Zn141 O142 1.962 . S
Zn141 O144 1.986 . S
Zn141 O146 1.996 . S
Zn141 O149 1.943 . S
O142 Zn141 1.962 . S
O142 C147 1.254 . S
O143 Zn140 2.031 . S
O143 C147 1.269 . S
O144 Zn141 1.986 . S
O144 C151 1.262 . S
O145 Zn140 2.049 . S
O145 C153 1.260 . S
O146 Zn141 1.996 . S
O146 C153 1.257 . S
C147 O142 1.254 . S
C147 O143 1.269 . S
C148 O149 1.249 . S
C148 O150 1.270 . S
O149 Zn141 1.943 . S
O149 C148 1.249 . S
O150 Zn140 2.067 . S
O150 C148 1.270 . S
C151 O144 1.262 . S
C151 O152 1.232 . S
O152 C151 1.232 . S
C153 O145 1.260 . S
C153 O146 1.257 . S
Zn154 O157 2.031 . S
Zn154 O159 2.049 . S
Zn154 O164 2.067 . S
Zn155 O156 1.962 . S
Zn155 O158 1.986 . S
Zn155 O160 1.996 . S
Zn155 O163 1.943 . S
O156 Zn155 1.962 . S
O156 C161 1.254 . S
O157 Zn154 2.031 . S
O157 C161 1.269 . S
O158 Zn155 1.986 . S
O158 C165 1.262 . S
O159 Zn154 2.049 . S
O159 C167 1.260 . S
O160 Zn155 1.996 . S
O160 C167 1.257 . S
C161 O156 1.254 . S
C161 O157 1.269 . S
C162 O163 1.249 . S
C162 O164 1.270 . S
O163 Zn155 1.943 . S
O163 C162 1.249 . S
O164 Zn154 2.067 . S
O164 C162 1.270 . S
C165 O158 1.262 . S
C165 O166 1.232 . S
O166 C165 1.232 . S
C167 O159 1.260 . S
C167 O160 1.257 . S
Zn168 O171 2.031 . S
Zn168 O173 2.049 . S
Zn168 O178 2.067 . S
Zn169 O170 1.962 . S
Zn169 O172 1.986 . S
Zn169 O174 1.996 . S
Zn169 O177 1.943 . S
O170 Zn169 1.962 . S
O170 C175 1.254 . S
O171 Zn168 2.031 . S
O171 C175 1.269 . S
O172 Zn169 1.986 . S
O172 C179 1.262 . S
O173 Zn168 2.049 . S
O173 C181 1.260 . S
O174 Zn169 1.996 . S
O174 C181 1.257 . S
C175 O170 1.254 . S
C175 O171 1.269 . S
C176 O177 1.249 . S
C176 O178 1.270 . S
O177 Zn169 1.943 . S
O177 C176 1.249 . S
O178 Zn168 2.067 . S
O178 C176 1.270 . S
C179 O172 1.262 . S
C179 O180 1.232 . S
O180 C179 1.232 . S
C181 O173 1.260 . S
C181 O174 1.257 . S
Zn182 O185 2.031 . S
Zn182 O187 2.049 . S
Zn182 O192 2.067 . S
Zn183 O184 1.962 . S
Zn183 O186 1.986 . S
Zn183 O188 1.996 . S
Zn183 O191 1.943 . S
O184 Zn183 1.962 . S
O184 C189 1.254 . S
O185 Zn182 2.031 . S
O185 C189 1.269 . S
O186 Zn183 1.986 . S
O186 C193 1.262 . S
O187 Zn182 2.049 . S
O187 C195 1.260 . S
O188 Zn183 1.996 . S
O188 C195 1.257 . S
C189 O184 1.254 . S
C189 O185 1.269 . S
C190 O191 1.249 . S
C190 O192 1.270 . S
O191 Zn183 1.943 . S
O191 C190 1.249 . S
O192 Zn182 2.067 . S
O192 C190 1.270 . S
C193 O186 1.262 . S
C193 O194 1.232 . S
O194 C193 1.232 . S
C195 O187 1.260 . S
C195 O188 1.257 . S
Zn196 O199 2.031 . S
Zn196 O201 2.049 . S
Zn196 O206 2.067 . S
Zn197 O198 1.962 . S
Zn197 O200 1.986 . S
Zn197 O202 1.996 . S
Zn197 O205 1.943 . S
O198 Zn197 1.962 . S
O198 C203 1.254 . S
O199 Zn196 2.031 . S
O199 C203 1.269 . S
O200 Zn197 1.986 . S
O200 C207 1.262 . S
O201 Zn196 2.049 . S
O201 C209 1.260 . S
O202 Zn197 1.996 . S
O202 C209 1.257 . S
C203 O198 1.254 . S
C203 O199 1.269 . S
C204 O205 1.249 . S
C204 O206 1.270 . S
O205 Zn197 1.943 . S
O205 C204 1.249 . S
O206 Zn196 2.067 . S
O206 C204 1.270 . S
C207 O200 1.262 . S
C207 O208 1.232 . S
O208 C207 1.232 . S
C209 O201 1.260 . S
C209 O202 1.257 . S
Zn210 O213 2.031 . S
Zn210 O215 2.049 . S
Zn210 O220 2.067 . S
Zn211 O212 1.962 . S
Zn211 O214 1.986 . S
Zn211 O216 1.996 . S
Zn211 O219 1.943 . S
O212 Zn211 1.962 . S
O212 C217 1.254 . S
O213 Zn210 2.031 . S
O213 C217 1.269 . S
O214 Zn211 1.986 . S
O214 C221 1.262 . S
O215 Zn210 2.049 . S
O215 C223 1.260 . S
O216 Zn211 1.996 . S
O216 C223 1.257 . S
C217 O212 1.254 . S
C217 O213 1.269 . S
C218 O219 1.249 . S
C218 O220 1.270 . S
O219 Zn211 1.943 . S
O219 C218 1.249 . S
O220 Zn210 2.067 . S
O220 C218 1.270 . S
C221 O214 1.262 . S
C221 O222 1.232 . S
O222 C221 1.232 . S
C223 O215 1.260 . S
C223 O216 1.257 . S
Zn224 O227 2.031 . S
Zn224 O229 2.049 . S
Zn224 O234 2.067 . S
Zn225 O226 1.962 . S
Zn225 O228 1.986 . S
Zn225 O230 1.996 . S
Zn225 O233 1.943 . S
O226 Zn225 1.962 . S
O226 C231 1.254 . S
O227 Zn224 2.031 . S
O227 C231 1.269 . S
O228 Zn225 1.986 . S
O228 C235 1.262 . S
O229 Zn224 2.049 . S
O229 C237 1.260 . S
O230 Zn225 1.996 . S
O230 C237 1.257 . S
C231 O226 1.254 . S
C231 O227 1.269 . S
C232 O233 1.249 . S
C232 O234 1.270 . S
O233 Zn225 1.943 . S
O233 C232 1.249 . S
O234 Zn224 2.067 . S
O234 C232 1.270 . S
C235 O228 1.262 . S
C235 O236 1.232 . S
O236 C235 1.232 . S
C237 O229 1.260 . S
C237 O230 1.257 . S
Zn238 O241 2.031 . S
Zn238 O243 2.049 . S
Zn238 O248 2.067 . S
Zn239 O240 1.962 . S
Zn239 O242 1.986 . S
Zn239 O244 1.996 . S
Zn239 O247 1.943 . S
O240 Zn239 1.962 . S
O240 C245 1.254 . S
O241 Zn238 2.031 . S
O241 C245 1.269 . S
O242 Zn239 1.986 . S
O242 C249 1.262 . S
O243 Zn238 2.049 . S
O243 C251 1.260 . S
O244 Zn239 1.996 . S
O244 C251 1.257 . S
C245 O240 1.254 . S
C245 O241 1.269 . S
C246 O247 1.249 . S
C246 O248 1.270 . S
O247 Zn239 1.943 . S
O247 C246 1.249 . S
O248 Zn238 2.067 . S
O248 C246 1.270 . S
C249 O242 1.262 . S
C249 O250 1.232 . S
O250 C249 1.232 . S
C251 O243 1.260 . S
C251 O244 1.257 . S
Zn252 O255 2.031 . S
Zn252 O257 2.049 . S
Zn252 O262 2.067 . S
Zn253 O254 1.962 . S
Zn253 O256 1.986 . S
Zn253 O258 1.996 . S
Zn253 O261 1.943 . S
O254 Zn253 1.962 . S
O254 C259 1.254 . S
O255 Zn252 2.031 . S
O255 C259 1.269 . S
O256 Zn253 1.986 . S
O256 C263 1.262 . S
O257 Zn252 2.049 . S
O257 C265 1.260 . S
O258 Zn253 1.996 . S
O258 C265 1.257 . S
C259 O254 1.254 . S
C259 O255 1.269 . S
C260 O261 1.249 . S
C260 O262 1.270 . S
O261 Zn253 1.943 . S
O261 C260 1.249 . S
O262 Zn252 2.067 . S
O262 C260 1.270 . S
C263 O256 1.262 . S
C263 O264 1.232 . S
O264 C263 1.232 . S
C265 O257 1.260 . S
C265 O258 1.257 . S
Zn266 O269 2.031 . S
Zn266 O271 2.049 . S
Zn266 O276 2.067 . S
Zn267 O268 1.962 . S
Zn267 O270 1.986 . S
Zn267 O272 1.996 . S
Zn267 O275 1.943 . S
O268 Zn267 1.962 . S
O268 C273 1.254 . S
O269 Zn266 2.031 . S
O269 C273 1.269 . S
O270 Zn267 1.986 . S
O270 C277 1.262 . S
O271 Zn266 2.049 . S
O271 C279 1.260 . S
O272 Zn267 1.996 . S
O272 C279 1.257 . S
C273 O268 1.254 . S
C273 O269 1.269 . S
C274 O275 1.249 . S
C274 O276 1.270 . S
O275 Zn267 1.943 . S
O275 C274 1.249 . S
O276 Zn266 2.067 . S
O276 C274 1.270 . S
C277 O270 1.262 . S
C277 O278 1.232 . S
O278 C277 1.232 . S
C279 O271 1.260 . S
C279 O272 1.257 . S
Zn280 O283 2.031 . S
Zn280 O285 2.049 . S
Zn280 O290 2.067 . S
Zn281 O282 1.962 . S
Zn281 O284 1.986 . S
Zn281 O286 1.996 . S
Zn281 O289 1.943 . S
O282 Zn281 1.962 . S
O282 C287 1.254 . S
O283 Zn280 2.031 . S
O283 C287 1.269 . S
O284 Zn281 1.986 . S
O284 C291 1.262 . S
O285 Zn280 2.049 . S
O285 C293 1.260 . S
O286 Zn281 1.996 . S
O286 C293 1.257 . S
C287 O282 1.254 . S
C287 O283 1.269 . S
C288 O289 1.249 . S
C288 O290 1.270 . S
O289 Zn281 1.943 . S
O289 C288 1.249 . S
O290 Zn280 2.067 . S
O290 C288 1.270 . S
C291 O284 1.262 . S
C291 O292 1.232 . S
O292 C291 1.232 . S
C293 O285 1.260 . S
C293 O286 1.257 . S
Zn294 O297 2.031 . S
Zn294 O299 2.049 . S
Zn294 O304 2.067 . S
Zn295 O296 1.962 . S
Zn295 O298 1.986 . S
Zn295 O300 1.996 . S
Zn295 O303 1.943 . S
O296 Zn295 1.962 . S
O296 C301 1.254 . S
O297 Zn294 2.031 . S
O297 C301 1.269 . S
O298 Zn295 1.986 . S
O298 C305 1.262 . S
O299 Zn294 2.049 . S
O299 C307 1.260 . S
O300 Zn295 1.996 . S
O300 C307 1.257 . S
C301 O296 1.254 . S
C301 O297 1.269 . S
C302 O303 1.249 . S
C302 O304 1.270 . S
O303 Zn295 1.943 . S
O303 C302 1.249 . S
O304 Zn294 2.067 . S
O304 C302 1.270 . S
C305 O298 1.262 . S
C305 O306 1.232 . S
O306 C305 1.232 . S
C307 O299 1.260 . S
C307 O300 1.257 . S
Zn308 O311 2.031 . S
Zn308 O313 2.049 . S
Zn308 O318 2.067 . S
Zn309 O310 1.962 . S
Zn309 O312 1.986 . S
Zn309 O314 1.996 . S
Zn309 O317 1.943 . S
O310 Zn309 1.962 . S
O310 C315 1.254 . S
O311 Zn308 2.031 . S
O311 C315 1.269 . S
O312 Zn309 1.986 . S
O312 C319 1.262 . S
O313 Zn308 2.049 . S
O313 C321 1.260 . S
O314 Zn309 1.996 . S
O314 C321 1.257 . S
C315 O310 1.254 . S
C315 O311 1.269 . S
C316 O317 1.249 . S
C316 O318 1.270 . S
O317 Zn309 1.943 . S
O317 C316 1.249 . S
O318 Zn308 2.067 . S
O318 C316 1.270 . S
C319 O312 1.262 . S
C319 O320 1.232 . S
O320 C319 1.232 . S
C321 O313 1.260 . S
C321 O314 1.257 . S
Zn322 O325 2.031 . S
Zn322 O327 2.049 . S
Zn322 O332 2.067 . S
Zn323 O324 1.962 . S
Zn323 O326 1.986 . S
Zn323 O328 1.996 . S
Zn323 O331 1.943 . S
O324 Zn323 1.962 . S
O324 C329 1.254 . S
O325 Zn322 2.031 . S
O325 C329 1.269 . S
O326 Zn323 1.986 . S
O326 C333 1.262 . S
O327 Zn322 2.049 . S
O327 C335 1.260 . S
O328 Zn323 1.996 . S
O328 C335 1.257 . S
C329 O324 1.254 . S
C329 O325 1.269 . S
C330 O331 1.249 . S
C330 O332 1.270 . S
O331 Zn323 1.943 . S
O331 C330 1.249 . S
O332 Zn322 2.067 . S
O332 C330 1.270 . S
C333 O326 1.262 . S
C333 O334 1.232 . S
O334 C333 1.232 . S
C335 O327 1.260 . S
C335 O328 1.257 . S
Zn336 O339 2.031 . S
Zn336 O341 2.049 . S
Zn336 O346 2.067 . S
Zn337 O338 1.962 . S
Zn337 O340 1.986 . S
Zn337 O342 1.996 . S
Zn337 O345 1.943 . S
O338 Zn337 1.962 . S
O338 C343 1.254 . S
O339 Zn336 2.031 . S
O339 C343 1.269 . S
O340 Zn337 1.986 . S
O340 C347 1.262 . S
O341 Zn336 2.049 . S
O341 C349 1.260 . S
O342 Zn337 1.996 . S
O342 C349 1.257 . S
C343 O338 1.254 . S
C343 O339 1.269 . S
C344 O345 1.249 . S
C344 O346 1.270 . S
O345 Zn337 1.943 . S
O345 C344 1.249 . S
O346 Zn336 2.067 . S
O346 C344 1.270 . S
C347 O340 1.262 . S
C347 O348 1.232 . S
O348 C347 1.232 . S
C349 O341 1.260 . S
C349 O342 1.257 . S
Zn350 O353 2.031 . S
Zn350 O355 2.049 . S
Zn350 O360 2.067 . S
Zn351 O352 1.962 . S
Zn351 O354 1.986 . S
Zn351 O356 1.996 . S
Zn351 O359 1.943 . S
O352 Zn351 1.962 . S
O352 C357 1.254 . S
O353 Zn350 2.031 . S
O353 C357 1.269 . S
O354 Zn351 1.986 . S
O354 C361 1.262 . S
O355 Zn350 2.049 . S
O355 C363 1.260 . S
O356 Zn351 1.996 . S
O356 C363 1.257 . S
C357 O352 1.254 . S
C357 O353 1.269 . S
C358 O359 1.249 . S
C358 O360 1.270 . S
O359 Zn351 1.943 . S
O359 C358 1.249 . S
O360 Zn350 2.067 . S
O360 C358 1.270 . S
C361 O354 1.262 . S
C361 O362 1.232 . S
O362 C361 1.232 . S
C363 O355 1.260 . S
C363 O356 1.257 . S
Zn364 O367 2.031 . S
Zn364 O369 2.049 . S
Zn364 O374 2.067 . S
Zn365 O366 1.962 . S
Zn365 O368 1.986 . S
Zn365 O370 1.996 . S
Zn365 O373 1.943 . S
O366 Zn365 1.962 . S
O366 C371 1.254 . S
O367 Zn364 2.031 . S
O367 C371 1.269 . S
O368 Zn365 1.986 . S
O368 C375 1.262 . S
O369 Zn364 2.049 . S
O369 C377 1.260 . S
O370 Zn365 1.996 . S
O370 C377 1.257 . S
C371 O366 1.254 . S
C371 O367 1.269 . S
C372 O373 1.249 . S
C372 O374 1.270 . S
O373 Zn365 1.943 . S
O373 C372 1.249 . S
O374 Zn364 2.067 . S
O374 C372 1.270 . S
C375 O368 1.262 . S
C375 O376 1.232 . S
O376 C375 1.232 . S
C377 O369 1.260 . S
C377 O370 1.257 . S
Zn378 O381 2.031 . S
Zn378 O383 2.049 . S
Zn378 O388 2.067 . S
Zn379 O380 1.962 . S
Zn379 O382 1.986 . S
Zn379 O384 1.996 . S
Zn379 O387 1.943 . S
O380 Zn379 1.962 . S
O380 C385 1.254 . S
O381 Zn378 2.031 . S
O381 C385 1.269 . S
O382 Zn379 1.986 . S
O382 C389 1.262 . S
O383 Zn378 2.049 . S
O383 C391 1.260 . S
O384 Zn379 1.996 . S
O384 C391 1.257 . S
C385 O380 1.254 . S
C385 O381 1.269 . S
C386 O387 1.249 . S
C386 O388 1.270 . S
O387 Zn379 1.943 . S
O387 C386 1.249 . S
O388 Zn378 2.067 . S
O388 C386 1.270 . S
C389 O382 1.262 . S
C389 O390 1.232 . S
O390 C389 1.232 . S
C391 O383 1.260 . S
C391 O384 1.257 . S
Zn392 O395 2.031 . S
Zn392 O397 2.049 . S
Zn392 O402 2.067 . S
Zn393 O394 1.962 . S
Zn393 O396 1.986 . S
Zn393 O398 1.996 . S
Zn393 O401 1.943 . S
O394 Zn393 1.962 . S
O394 C399 1.254 . S
O395 Zn392 2.031 . S
O395 C399 1.269 . S
O396 Zn393 1.986 . S
O396 C403 1.262 . S
O397 Zn392 2.049 . S
O397 C405 1.260 . S
O398 Zn393 1.996 . S
O398 C405 1.257 . S
C399 O394 1.254 . S
C399 O395 1.269 . S
C400 O401 1.249 . S
C400 O402 1.270 . S
O401 Zn393 1.943 . S
O401 C400 1.249 . S
O402 Zn392 2.067 . S
O402 C400 1.270 . S
C403 O396 1.262 . S
C403 O404 1.232 . S
O404 C403 1.232 . S
C405 O397 1.260 . S
C405 O398 1.257 . S
Zn406 O409 2.031 . S
Zn406 O411 2.049 . S
Zn406 O416 2.067 . S
Zn407 O408 1.962 . S
Zn407 O410 1.986 . S
Zn407 O412 1.996 . S
Zn407 O415 1.943 . S
O408 Zn407 1.962 . S
O408 C413 1.254 . S
O409 Zn406 2.031 . S
O409 C413 1.269 . S
O410 Zn407 1.986 . S
O410 C417 1.262 . S
O411 Zn406 2.049 . S
O411 C419 1.260 . S
O412 Zn407 1.996 . S
O412 C419 1.257 . S
C413 O408 1.254 . S
C413 O409 1.269 . S
C414 O415 1.249 . S
C414 O416 1.270 . S
O415 Zn407 1.943 . S
O415 C414 1.249 . S
O416 Zn406 2.067 . S
O416 C414 1.270 . S
C417 O410 1.262 . S
C417 O418 1.232 . S
O418 C417 1.232 . S
C419 O411 1.260 . S
C419 O412 1.257 . S
Zn420 O423 2.031 . S
Zn420 O425 2.049 . S
Zn420 O430 2.067 . S
Zn421 O422 1.962 . S
Zn421 O424 1.986 . S
Zn421 O426 1.996 . S
Zn421 O429 1.943 . S
O422 Zn421 1.962 . S
O422 C427 1.254 . S
O423 Zn420 2.031 . S
O423 C427 1.269 . S
O424 Zn421 1.986 . S
O424 C431 1.262 . S
O425 Zn420 2.049 . S
O425 C433 1.260 . S
O426 Zn421 1.996 . S
O426 C433 1.257 . S
C427 O422 1.254 . S
C427 O423 1.269 . S
C428 O429 1.249 . S
C428 O430 1.270 . S
O429 Zn421 1.943 . S
O429 C428 1.249 . S
O430 Zn420 2.067 . S
O430 C428 1.270 . S
C431 O424 1.262 . S
C431 O432 1.232 . S
O432 C431 1.232 . S
C433 O425 1.260 . S
C433 O426 1.257 . S
Zn434 O437 2.031 . S
Zn434 O439 2.049 . S
Zn434 O444 2.067 . S
Zn435 O436 1.962 . S
Zn435 O438 1.986 . S
Zn435 O440 1.996 . S
Zn435 O443 1.943 . S
O436 Zn435 1.962 . S
O436 C441 1.254 . S
O437 Zn434 2.031 . S
O437 C441 1.269 . S
O438 Zn435 1.986 . S
O438 C445 1.262 . S
O439 Zn434 2.049 . S
O439 C447 1.260 . S
O440 Zn435 1.996 . S
O440 C447 1.257 . S
C441 O436 1.254 . S
C441 O437 1.269 . S
C442 O443 1.249 . S
C442 O444 1.270 . S
O443 Zn435 1.943 . S
O443 C442 1.249 . S
O444 Zn434 2.067 . S
O444 C442 1.270 . S
C445 O438 1.262 . S
C445 O446 1.232 . S
O446 C445 1.232 . S
C447 O439 1.260 . S
C447 O440 1.257 . S
Zn448 O451 2.031 . S
Zn448 O453 2.049 . S
Zn448 O458 2.067 . S
Zn449 O450 1.962 . S
Zn449 O452 1.986 . S
Zn449 O454 1.996 . S
Zn449 O457 1.943 . S
O450 Zn449 1.962 . S
O450 C455 1.254 . S
O451 Zn448 2.031 . S
O451 C455 1.269 . S
O452 Zn449 1.986 . S
O452 C459 1.262 . S
O453 Zn448 2.049 . S
O453 C461 1.260 . S
O454 Zn449 1.996 . S
O454 C461 1.257 . S
C455 O450 1.254 . S
C455 O451 1.269 . S
C456 O457 1.249 . S
C456 O458 1.270 . S
O457 Zn449 1.943 . S
O457 C456 1.249 . S
O458 Zn448 2.067 . S
O458 C456 1.270 . S
C459 O452 1.262 . S
C459 O460 1.232 . S
O460 C459 1.232 . S
C461 O453 1.260 . S
C461 O454 1.257 . S
Zn462 O465 2.031 . S
Zn462 O467 2.049 . S
Zn462 O472 2.067 . S
Zn463 O464 1.962 . S
Zn463 O466 1.986 . S
Zn463 O468 1.996 . S
Zn463 O471 1.943 . S
O464 Zn463 1.962 . S
O464 C469 1.254 . S
O465 Zn462 2.031 . S
O465 C469 1.269 . S
O466 Zn463 1.986 . S
O466 C473 1.262 . S
O467 Zn462 2.049 . S
O467 C475 1.260 . S
O468 Zn463 1.996 . S
O468 C475 1.257 . S
C469 O464 1.254 . S
C469 O465 1.269 . S
C470 O471 1.249 . S
C470 O472 1.270 . S
O471 Zn463 1.943 . S
O471 C470 1.249 . S
O472 Zn462 2.067 . S
O472 C470 1.270 . S
C473 O466 1.262 . S
C473 O474 1.232 . S
O474 C473 1.232 . S
C475 O467 1.260 . S
C475 O468 1.257 . S
Zn476 O479 2.031 . S
Zn476 O481 2.049 . S
Zn476 O486 2.067 . S
Zn477 O478 1.962 . S
Zn477 O480 1.986 . S
Zn477 O482 1.996 . S
Zn477 O485 1.943 . S
O478 Zn477 1.962 . S
O478 C483 1.254 . S
O479 Zn476 2.031 . S
O479 C483 1.269 . S
O480 Zn477 1.986 . S
O480 C487 1.262 . S
O481 Zn476 2.049 . S
O481 C489 1.260 . S
O482 Zn477 1.996 . S
O482 C489 1.257 . S
C483 O478 1.254 . S
C483 O479 1.269 . S
C484 O485 1.249 . S
C484 O486 1.270 . S
O485 Zn477 1.943 . S
O485 C484 1.249 . S
O486 Zn476 2.067 . S
O486 C484 1.270 . S
C487 O480 1.262 . S
C487 O488 1.232 . S
O488 C487 1.232 . S
C489 O481 1.260 . S
C489 O482 1.257 . S
Zn490 O493 2.031 . S
Zn490 O495 2.049 . S
Zn490 O500 2.067 . S
Zn491 O492 1.962 . S
Zn491 O494 1.986 . S
Zn491 O496 1.996 . S
Zn491 O499 1.943 . S
O492 Zn491 1.962 . S
O492 C497 1.254 . S
O493 Zn490 2.031 . S
O493 C497 1.269 . S
O494 Zn491 1.986 . S
O494 C501 1.262 . S
O495 Zn490 2.049 . S
O495 C503 1.260 . S
O496 Zn491 1.996 . S
O496 C503 1.257 . S
C497 O492 1.254 . S
C497 O493 1.269 . S
C498 O499 1.249 . S
C498 O500 1.270 . S
O499 Zn491 1.943 . S
O499 C498 1.249 . S
O500 Zn490 2.067 . S
O500 C498 1.270 . S
C501 O494 1.262 . S
C501 O502 1.232 . S
O502 C501 1.232 . S
C503 O495 1.260 . S
C503 O496 1.257 . S
Zn504 O507 2.031 . S
Zn504 O509 2.049 . S
Zn504 O514 2.067 . S
Zn505 O506 1.962 . S
Zn505 O508 1.986 . S
Zn505 O510 1.996 . S
Zn505 O513 1.943 . S
O506 Zn505 1.962 . S
O506 C511 1.254 . S
O507 Zn504 2.031 . S
O507 C511 1.269 . S
O508 Zn505 1.986 . S
O508 C515 1.262 . S
O509 Zn504 2.049 . S
O509 C517 1.260 . S
O510 Zn505 1.996 . S
O510 C517 1.257 . S
C511 O506 1.254 . S
C511 O507 1.269 . S
C512 O513 1.249 . S
C512 O514 1.270 . S
O513 Zn505 1.943 . S
O513 C512 1.249 . S
O514 Zn504 2.067 . S
O514 C512 1.270 . S
C515 O508 1.262 . S
C515 O516 1.232 . S
O516 C515 1.232 . S
C517 O509 1.260 . S
C517 O510 1.257 . S
Zn518 O521 2.031 . S
Zn518 O523 2.049 . S
Zn518 O528 2.067 . S
Zn519 O520 1.962 . S
Zn519 O522 1.986 . S
Zn519 O524 1.996 . S
Zn519 O527 1.943 . S
O520 Zn519 1.962 . S
O520 C525 1.254 . S
O521 Zn518 2.031 . S
O521 C525 1.269 . S
O522 Zn519 1.986 . S
O522 C529 1.262 . S
O523 Zn518 2.049 . S
O523 C531 1.260 . S
O524 Zn519 1.996 . S
O524 C531 1.257 . S
C525 O520 1.254 . S
C525 O521 1.269 . S
C526 O527 1.249 . S
C526 O528 1.270 . S
O527 Zn519 1.943 . S
O527 C526 1.249 . S
O528 Zn518 2.067 . S
O528 C526 1.270 . S
C529 O522 1.262 . S
C529 O530 1.232 . S
O530 C529 1.232 . S
C531 O523 1.260 . S
C531 O524 1.257 . S
Zn532 O535 2.031 . S
Zn532 O537 2.049 . S
Zn532 O542 2.067 . S
Zn533 O534 1.962 . S
Zn533 O536 1.986 . S
Zn533 O538 1.996 . S
Zn533 O541 1.943 . S
O534 Zn533 1.962 . S
O534 C539 1.254 . S
O535 Zn532 2.031 . S
O535 C539 1.269 . S
O536 Zn533 1.986 . S
O536 C543 1.262 . S
O537 Zn532 2.049 . S
O537 C545 1.260 . S
O538 Zn533 1.996 . S
O538 C545 1.257 . S
C539 O534 1.254 . S
C539 O535 1.269 . S
C540 O541 1.249 . S
C540 O542 1.270 . S
O541 Zn533 1.943 . S
O541 C540 1.249 . S
O542 Zn532 2.067 . S
O542 C540 1.270 . S
C543 O536 1.262 . S
C543 O544 1.232 . S
O544 C543 1.232 . S
C545 O537 1.260 . S
C545 O538 1.257 . S
Zn546 O549 2.031 . S
Zn546 O551 2.049 . S
Zn546 O556 2.067 . S
Zn547 O548 1.962 . S
Zn547 O550 1.986 . S
Zn547 O552 1.996 . S
Zn547 O555 1.943 . S
O548 Zn547 1.962 . S
O548 C553 1.254 . S
O549 Zn546 2.031 . S
O549 C553 1.269 . S
O550 Zn547 1.986 . S
O550 C557 1.262 . S
O551 Zn546 2.049 . S
O551 C559 1.260 . S
O552 Zn547 1.996 . S
O552 C559 1.257 . S
C553 O548 1.254 . S
C553 O549 1.269 . S
C554 O555 1.249 . S
C554 O556 1.270 . S
O555 Zn547 1.943 . S
O555 C554 1.249 . S
O556 Zn546 2.067 . S
O556 C554 1.270 . S
C557 O550 1.262 . S
C557 O558 1.232 . S
O558 C557 1.232 . S
C559 O551 1.260 . S
C559 O552 1.257 . S
Zn560 O563 2.031 . S
Zn560 O565 2.049 . S
Zn560 O570 2.067 . S
Zn561 O562 1.962 . S
Zn561 O564 1.986 . S
Zn561 O566 1.996 . S
Zn561 O569 1.943 . S
O562 Zn561 1.962 . S
O562 C567 1.254 . S
O563 Zn560 2.031 . S
O563 C567 1.269 . S
O564 Zn561 1.986 . S
O564 C571 1.262 . S
O565 Zn560 2.049 . S
O565 C573 1.260 . S
O566 Zn561 1.996 . S
O566 C573 1.257 . S
C567 O562 1.254 . S
C567 O563 1.269 . S
C568 O569 1.249 . S
C568 O570 1.270 . S
O569 Zn561 1.943 . S
O569 C568 1.249 . S
O570 Zn560 2.067 . S
O570 C568 1.270 . S
C571 O564 1.262 . S
C571 O572 1.232 . S
O572 C571 1.232 . S
C573 O565 1.260 . S
C573 O566 1.257 . S
Zn574 O577 2.031 . S
Zn574 O579 2.049 . S
Zn574 O584 2.067 . S
Zn575 O576 1.962 . S
Zn575 O578 1.986 . S
Zn575 O580 1.996 . S
Zn575 O583 1.943 . S
O576 Zn575 1.962 . S
O576 C581 1.254 . S
O577 Zn574 2.031 . S
O577 C581 1.269 . S
O578 Zn575 1.986 . S
O578 C585 1.262 . S
O579 Zn574 2.049 . S
O579 C587 1.260 . S
O580 Zn575 1.996 . S
O580 C587 1.257 . S
C581 O576 1.254 . S
C581 O577 1.269 . S
C582 O583 1.249 . S
C582 O584 1.270 . S
O583 Zn575 1.943 . S
O583 C582 1.249 . S
O584 Zn574 2.067 . S
O584 C582 1.270 . S
C585 O578 1.262 . S
C585 O586 1.232 . S
O586 C585 1.232 . S
C587 O579 1.260 . S
C587 O580 1.257 . S
Zn588 O591 2.031 . S
Zn588 O593 2.049 . S
Zn588 O598 2.067 . S
Zn589 O590 1.962 . S
Zn589 O592 1.986 . S
Zn589 O594 1.996 . S
Zn589 O597 1.943 . S
O590 Zn589 1.962 . S
O590 C595 1.254 . S
O591 Zn588 2.031 . S
O591 C595 1.269 . S
O592 Zn589 1.986 . S
O592 C599 1.262 . S
O593 Zn588 2.049 . S
O593 C601 1.260 . S
O594 Zn589 1.996 . S
O594 C601 1.257 . S
C595 O590 1.254 . S
C595 O591 1.269 . S
C596 O597 1.249 . S
C596 O598 1.270 . S
O597 Zn589 1.943 . S
O597 C596 1.249 . S
O598 Zn588 2.067 . S
O598 C596 1.270 . S
C599 O592 1.262 . S
C599 O600 1.232 . S
O600 C599 1.232 . S
C601 O593 1.260 . S
C601 O594 1.257 . S
Zn602 O605 2.031 . S
Zn602 O607 2.049 . S
Zn602 O612 2.067 . S
Zn603 O604 1.962 . S
Zn603 O606 1.986 . S
Zn603 O608 1.996 . S
Zn603 O611 1.943 . S
O604 Zn603 1.962 . S
O604 C609 1.254 . S
O605 Zn602 2.031 . S
O605 C609 1.269 . S
O606 Zn603 1.986 . S
O606 C613 1.262 . S
O607 Zn602 2.049 . S
O607 C615 1.260 . S
O608 Zn603 1.996 . S
O608 C615 1.257 . S
C609 O604 1.254 . S
C609 O605 1.269 . S
C610 O611 1.249 . S
C610 O612 1.270 . S
O611 Zn603 1.943 . S
O611 C610 1.249 . S
O612 Zn602 2.067 . S
O612 C610 1.270 . S
C613 O606 1.262 . S
C613 O614 1.232 . S
O614 C613 1.232 . S
C615 O607 1.260 . S
C615 O608 1.257 . S
Zn616 O619 2.031 . S
Zn616 O621 2.049 . S
Zn616 O626 2.067 . S
Zn617 O618 1.962 . S
Zn617 O620 1.986 . S
Zn617 O622 1.996 . S
Zn617 O625 1.943 . S
O618 Zn617 1.962 . S
O618 C623 1.254 . S
O619 Zn616 2.031 . S
O619 C623 1.269 . S
O620 Zn617 1.986 . S
O620 C627 1.262 . S
O621 Zn616 2.049 . S
O621 C629 1.260 . S
O622 Zn617 1.996 . S
O622 C629 1.257 . S
C623 O618 1.254 . S
C623 O619 1.269 . S
C624 O625 1.249 . S
C624 O626 1.270 . S
O625 Zn617 1.943 . S
O625 C624 1.249 . S
O626 Zn616 2.067 . S
O626 C624 1.270 . S
C627 O620 1.262 . S
C627 O628 1.232 . S
O628 C627 1.232 . S
C629 O621 1.260 . S
C629 O622 1.257 . S
Zn630 O633 2.031 . S
Zn630 O635 2.049 . S
Zn630 O640 2.067 . S
Zn631 O632 1.962 . S
Zn631 O634 1.986 . S
Zn631 O636 1.996 . S
Zn631 O639 1.943 . S
O632 Zn631 1.962 . S
O632 C637 1.254 . S
O633 Zn630 2.031 . S
O633 C637 1.269 . S
O634 Zn631 1.986 . S
O634 C641 1.262 . S
O635 Zn630 2.049 . S
O635 C643 1.260 . S
O636 Zn631 1.996 . S
O636 C643 1.257 . S
C637 O632 1.254 . S
C637 O633 1.269 . S
C638 O639 1.249 . S
C638 O640 1.270 . S
O639 Zn631 1.943 . S
O639 C638 1.249 . S
O640 Zn630 2.067 . S
O640 C638 1.270 . S
C641 O634 1.262 . S
C641 O642 1.232 . S
O642 C641 1.232 . S
C643 O635 1.260 . S
C643 O636 1.257 . S
Zn644 O647 2.031 . S
Zn644 O649 2.049 . S
Zn644 O654 2.067 . S
Zn645 O646 1.962 . S
Zn645 O648 1.986 . S
Zn645 O650 1.996 . S
Zn645 O653 1.943 . S
O646 Zn645 1.962 . S
O646 C651 1.254 . S
O647 Zn644 2.031 . S
O647 C651 1.269 . S
O648 Zn645 1.986 . S
O648 C655 1.262 . S
O649 Zn644 2.049 . S
O649 C657 1.260 . S
O650 Zn645 1.996 . S
O650 C657 1.257 . S
C651 O646 1.254 . S
C651 O647 1.269 . S
C652 O653 1.249 . S
C652 O654 1.270 . S
O653 Zn645 1.943 . S
O653 C652 1.249 . S
O654 Zn644 2.067 . S
O654 C652 1.270 . S
C655 O648 1.262 . S
C655 O656 1.232 . S
O656 C655 1.232 . S
C657 O649 1.260 . S
C657 O650 1.257 . S
Zn658 O661 2.031 . S
Zn658 O663 2.049 . S
Zn658 O668 2.067 . S
Zn659 O660 1.962 . S
Zn659 O662 1.986 . S
Zn659 O664 1.996 . S
Zn659 O667 1.943 . S
O660 Zn659 1.962 . S
O660 C665 1.254 . S
O661 Zn658 2.031 . S
O661 C665 1.269 . S
O662 Zn659 1.986 . S
O662 C669 1.262 . S
O663 Zn658 2.049 . S
O663 C671 1.260 . S
O664 Zn659 1.996 . S
O664 C671 1.257 . S
C665 O660 1.254 . S
C665 O661 1.269 . S
C666 O667 1.249 . S
C666 O668 1.270 . S
O667 Zn659 1.943 . S
O667 C666 1.249 . S
O668 Zn658 2.067 . S
O668 C666 1.270 . S
C669 O662 1.262 . S
C669 O670 1.232 . S
O670 C669 1.232 . S
C671 O663 1.260 . S
C671 O664 1.257 . S
C672 C673 1.387 . S
C672 H676 0.950 . S
C672 C681 1.390 1_655 S
C673 C672 1.387 . S
C673 C675 1.387 . S
H674 C681 0.950 . S
C675 C673 1.387 . S
C675 C677 1.390 1_655 S
C675 H679 0.950 . S
H676 C672 0.950 . S
C677 C675 1.390 1_455 S
C677 C678 1.387 . S
C677 H680 0.950 . S
C678 C677 1.387 . S
C678 C681 1.387 . S
H679 C675 0.950 . S
H680 C677 0.950 . S
C681 C672 1.390 1_455 S
C681 H674 0.950 . S
C681 C678 1.387 . S
C682 C683 1.387 . S
C682 H686 0.950 . S
C682 C691 1.390 . S
C683 C682 1.387 . S
C683 C685 1.387 . S
H684 C691 0.950 . S
C685 C683 1.387 . S
C685 C687 1.390 . S
C685 H689 0.950 . S
H686 C682 0.950 . S
C687 C685 1.390 . S
C687 C688 1.387 . S
C687 H690 0.950 . S
C688 C687 1.387 . S
C688 C691 1.387 . S
H689 C685 0.950 . S
H690 C687 0.950 . S
C691 C682 1.390 . S
C691 H684 0.950 . S
C691 C688 1.387 . S
C692 C693 1.387 . S
C692 H696 0.950 . S
C692 C701 1.390 1_455 S
C693 C692 1.387 . S
C693 C695 1.387 . S
H694 C701 0.950 . S
C695 C693 1.387 . S
C695 C697 1.390 1_455 S
C695 H699 0.950 . S
H696 C692 0.950 . S
C697 C695 1.390 1_655 S
C697 C698 1.387 . S
C697 H700 0.950 . S
C698 C697 1.387 . S
C698 C701 1.387 . S
H699 C695 0.950 . S
H700 C697 0.950 . S
C701 C692 1.390 1_655 S
C701 H694 0.950 . S
C701 C698 1.387 . S
C702 C703 1.387 . S
C702 H706 0.950 . S
C702 C711 1.390 . S
C703 C702 1.387 . S
C703 C705 1.387 . S
H704 C711 0.950 . S
C705 C703 1.387 . S
C705 C707 1.390 . S
C705 H709 0.950 . S
H706 C702 0.950 . S
C707 C705 1.390 . S
C707 C708 1.387 . S
C707 H710 0.950 . S
C708 C707 1.387 . S
C708 C711 1.387 . S
H709 C705 0.950 . S
H710 C707 0.950 . S
C711 C702 1.390 . S
C711 H704 0.950 . S
C711 C708 1.387 . S
C712 C713 1.387 . S
C712 H716 0.950 . S
C712 C721 1.390 1_655 S
C713 C712 1.387 . S
C713 C715 1.387 . S
H714 C721 0.950 . S
C715 C713 1.387 . S
C715 C717 1.390 1_655 S
C715 H719 0.950 . S
H716 C712 0.950 . S
C717 C715 1.390 1_455 S
C717 C718 1.387 . S
C717 H720 0.950 . S
C718 C717 1.387 . S
C718 C721 1.387 . S
H719 C715 0.950 . S
H720 C717 0.950 . S
C721 C712 1.390 1_455 S
C721 H714 0.950 . S
C721 C718 1.387 . S
C722 C723 1.387 . S
C722 H726 0.950 . S
C722 C731 1.390 . S
C723 C722 1.387 . S
C723 C725 1.387 . S
H724 C731 0.950 . S
C725 C723 1.387 . S
C725 C727 1.390 . S
C725 H729 0.950 . S
H726 C722 0.950 . S
C727 C725 1.390 . S
C727 C728 1.387 . S
C727 H730 0.950 . S
C728 C727 1.387 . S
C728 C731 1.387 . S
H729 C725 0.950 . S
H730 C727 0.950 . S
C731 C722 1.390 . S
C731 H724 0.950 . S
C731 C728 1.387 . S
C732 C733 1.387 . S
C732 H736 0.950 . S
C732 C741 1.390 1_455 S
C733 C732 1.387 . S
C733 C735 1.387 . S
H734 C741 0.950 . S
C735 C733 1.387 . S
C735 C737 1.390 1_455 S
C735 H739 0.950 . S
H736 C732 0.950 . S
C737 C735 1.390 1_655 S
C737 C738 1.387 . S
C737 H740 0.950 . S
C738 C737 1.387 . S
C738 C741 1.387 . S
H739 C735 0.950 . S
H740 C737 0.950 . S
C741 C732 1.390 1_655 S
C741 H734 0.950 . S
C741 C738 1.387 . S
C742 C743 1.387 . S
C742 H746 0.950 . S
C742 C751 1.390 . S
C743 C742 1.387 . S
C743 C745 1.387 . S
H744 C751 0.950 . S
C745 C743 1.387 . S
C745 C747 1.390 . S
C745 H749 0.950 . S
H746 C742 0.950 . S
C747 C745 1.390 . S
C747 C748 1.387 . S
C747 H750 0.950 . S
C748 C747 1.387 . S
C748 C751 1.387 . S
H749 C745 0.950 . S
H750 C747 0.950 . S
C751 C742 1.390 . S
C751 H744 0.950 . S
C751 C748 1.387 . S
C752 C753 1.387 . S
C752 H756 0.950 . S
C752 C761 1.390 1_565 S
C753 C752 1.387 . S
C753 C755 1.387 . S
H754 C761 0.950 . S
C755 C753 1.387 . S
C755 C757 1.390 1_565 S
C755 H759 0.950 . S
H756 C752 0.950 . S
C757 C755 1.390 1_545 S
C757 C758 1.387 . S
C757 H760 0.950 . S
C758 C757 1.387 . S
C758 C761 1.387 . S
H759 C755 0.950 . S
H760 C757 0.950 . S
C761 C752 1.390 1_545 S
C761 H754 0.950 . S
C761 C758 1.387 . S
C762 C763 1.387 . S
C762 H766 0.950 . S
C762 C771 1.390 . S
C763 C762 1.387 . S
C763 C765 1.387 . S
H764 C771 0.950 . S
C765 C763 1.387 . S
C765 C767 1.390 . S
C765 H769 0.950 . S
H766 C762 0.950 . S
C767 C765 1.390 . S
C767 C768 1.387 . S
C767 H770 0.950 . S
C768 C767 1.387 . S
C768 C771 1.387 . S
H769 C765 0.950 . S
H770 C767 0.950 . S
C771 C762 1.390 . S
C771 H764 0.950 . S
C771 C768 1.387 . S
C772 C773 1.387 . S
C772 H776 0.950 . S
C772 C781 1.390 1_545 S
C773 C772 1.387 . S
C773 C775 1.387 . S
H774 C781 0.950 . S
C775 C773 1.387 . S
C775 C777 1.390 1_545 S
C775 H779 0.950 . S
H776 C772 0.950 . S
C777 C775 1.390 1_565 S
C777 C778 1.387 . S
C777 H780 0.950 . S
C778 C777 1.387 . S
C778 C781 1.387 . S
H779 C775 0.950 . S
H780 C777 0.950 . S
C781 C772 1.390 1_565 S
C781 H774 0.950 . S
C781 C778 1.387 . S
C782 C783 1.387 . S
C782 H786 0.950 . S
C782 C791 1.390 . S
C783 C782 1.387 . S
C783 C785 1.387 . S
H784 C791 0.950 . S
C785 C783 1.387 . S
C785 C787 1.390 . S
C785 H789 0.950 . S
H786 C782 0.950 . S
C787 C785 1.390 . S
C787 C788 1.387 . S
C787 H790 0.950 . S
C788 C787 1.387 . S
C788 C791 1.387 . S
H789 C785 0.950 . S
H790 C787 0.950 . S
C791 C782 1.390 . S
C791 H784 0.950 . S
C791 C788 1.387 . S
C792 C793 1.387 . S
C792 H796 0.950 . S
C792 C801 1.390 1_545 S
C793 C792 1.387 . S
C793 C795 1.387 . S
H794 C801 0.950 . S
C795 C793 1.387 . S
C795 C797 1.390 1_545 S
C795 H799 0.950 . S
H796 C792 0.950 . S
C797 C795 1.390 1_565 S
C797 C798 1.387 . S
C797 H800 0.950 . S
C798 C797 1.387 . S
C798 C801 1.387 . S
H799 C795 0.950 . S
H800 C797 0.950 . S
C801 C792 1.390 1_565 S
C801 H794 0.950 . S
C801 C798 1.387 . S
C802 C803 1.387 . S
C802 H806 0.950 . S
C802 C811 1.390 . S
C803 C802 1.387 . S
C803 C805 1.387 . S
H804 C811 0.950 . S
C805 C803 1.387 . S
C805 C807 1.390 . S
C805 H809 0.950 . S
H806 C802 0.950 . S
C807 C805 1.390 . S
C807 C808 1.387 . S
C807 H810 0.950 . S
C808 C807 1.387 . S
C808 C811 1.387 . S
H809 C805 0.950 . S
H810 C807 0.950 . S
C811 C802 1.390 . S
C811 H804 0.950 . S
C811 C808 1.387 . S
C812 C813 1.387 . S
C812 H816 0.950 . S
C812 C821 1.390 1_545 S
C813 C812 1.387 . S
C813 C815 1.387 . S
H814 C821 0.950 . S
C815 C813 1.387 . S
C815 C817 1.390 1_545 S
C815 H819 0.950 . S
H816 C812 0.950 . S
C817 C815 1.390 1_565 S
C817 C818 1.387 . S
C817 H820 0.950 . S
C818 C817 1.387 . S
C818 C821 1.387 . S
H819 C815 0.950 . S
H820 C817 0.950 . S
C821 C812 1.390 1_565 S
C821 H814 0.950 . S
C821 C818 1.387 . S
C822 C823 1.387 . S
C822 H826 0.950 . S
C822 C831 1.390 . S
C823 C822 1.387 . S
C823 C825 1.387 . S
H824 C831 0.950 . S
C825 C823 1.387 . S
C825 C827 1.390 . S
C825 H829 0.950 . S
H826 C822 0.950 . S
C827 C825 1.390 . S
C827 C828 1.387 . S
C827 H830 0.950 . S
C828 C827 1.387 . S
C828 C831 1.387 . S
H829 C825 0.950 . S
H830 C827 0.950 . S
C831 C822 1.390 . S
C831 H824 0.950 . S
C831 C828 1.387 . S
C832 C833 1.387 . S
C832 H836 0.950 . S
C832 C841 1.390 1_554 S
C833 C832 1.387 . S
C833 C835 1.387 . S
H834 C841 0.950 . S
C835 C833 1.387 . S
C835 C837 1.390 1_554 S
C835 H839 0.950 . S
H836 C832 0.950 . S
C837 C835 1.390 1_556 S
C837 C838 1.387 . S
C837 H840 0.950 . S
C838 C837 1.387 . S
C838 C841 1.387 . S
H839 C835 0.950 . S
H840 C837 0.950 . S
C841 C832 1.390 1_556 S
C841 H834 0.950 . S
C841 C838 1.387 . S
C842 C843 1.387 . S
C842 H846 0.950 . S
C842 C851 1.390 1_554 S
C843 C842 1.387 . S
C843 C845 1.387 . S
H844 C851 0.950 . S
C845 C843 1.387 . S
C845 C847 1.390 1_554 S
C845 H849 0.950 . S
H846 C842 0.950 . S
C847 C845 1.390 1_556 S
C847 C848 1.387 . S
C847 H850 0.950 . S
C848 C847 1.387 . S
C848 C851 1.387 . S
H849 C845 0.950 . S
H850 C847 0.950 . S
C851 C842 1.390 1_556 S
C851 H844 0.950 . S
C851 C848 1.387 . S
C852 C853 1.387 . S
C852 H856 0.950 . S
C852 C861 1.390 . S
C853 C852 1.387 . S
C853 C855 1.387 . S
H854 C861 0.950 . S
C855 C853 1.387 . S
C855 C857 1.390 . S
C855 H859 0.950 . S
H856 C852 0.950 . S
C857 C855 1.390 . S
C857 C858 1.387 . S
C857 H860 0.950 . S
C858 C857 1.387 . S
C858 C861 1.387 . S
H859 C855 0.950 . S
H860 C857 0.950 . S
C861 C852 1.390 . S
C861 H854 0.950 . S
C861 C858 1.387 . S
C862 C863 1.387 . S
C862 H866 0.950 . S
C862 C871 1.390 1_554 S
C863 C862 1.387 . S
C863 C865 1.387 . S
H864 C871 0.950 . S
C865 C863 1.387 . S
C865 C867 1.390 1_554 S
C865 H869 0.950 . S
H866 C862 0.950 . S
C867 C865 1.390 1_556 S
C867 C868 1.387 . S
C867 H870 0.950 . S
C868 C867 1.387 . S
C868 C871 1.387 . S
H869 C865 0.950 . S
H870 C867 0.950 . S
C871 C862 1.390 1_556 S
C871 H864 0.950 . S
C871 C868 1.387 . S
C872 C873 1.387 . S
C872 H876 0.950 . S
C872 C881 1.390 . S
C873 C872 1.387 . S
C873 C875 1.387 . S
H874 C881 0.950 . S
C875 C873 1.387 . S
C875 C877 1.390 . S
C875 H879 0.950 . S
H876 C872 0.950 . S
C877 C875 1.390 . S
C877 C878 1.387 . S
C877 H880 0.950 . S
C878 C877 1.387 . S
C878 C881 1.387 . S
H879 C875 0.950 . S
H880 C877 0.950 . S
C881 C872 1.390 . S
C881 H874 0.950 . S
C881 C878 1.387 . S
C882 C883 1.387 . S
C882 H886 0.950 . S
C882 C891 1.390 1_554 S
C883 C882 1.387 . S
C883 C885 1.387 . S
H884 C891 0.950 . S
C885 C883 1.387 . S
C885 C887 1.390 1_554 S
C885 H889 0.950 . S
H886 C882 0.950 . S
C887 C885 1.390 1_556 S
C887 C888 1.387 . S
C887 H890 0.950 . S
C888 C887 1.387 . S
C888 C891 1.387 . S
H889 C885 0.950 . S
H890 C887 0.950 . S
C891 C882 1.390 1_556 S
C891 H884 0.950 . S
C891 C888 1.387 . S
C892 C893 1.387 . S
C892 H896 0.950 . S
C892 C901 1.390 . S
C893 C892 1.387 . S
C893 C895 1.387 . S
H894 C901 0.950 . S
C895 C893 1.387 . S
C895 C897 1.390 . S
C895 H899 0.950 . S
H896 C892 0.950 . S
C897 C895 1.390 . S
C897 C898 1.387 . S
C897 H900 0.950 . S
C898 C897 1.387 . S
C898 C901 1.387 . S
H899 C895 0.950 . S
H900 C897 0.950 . S
C901 C892 1.390 . S
C901 H894 0.950 . S
C901 C898 1.387 . S
C902 C903 1.387 . S
C902 H906 0.950 . S
C902 C911 1.390 . S
C903 C902 1.387 . S
C903 C905 1.387 . S
H904 C911 0.950 . S
C905 C903 1.387 . S
C905 C907 1.390 . S
C905 H909 0.950 . S
H906 C902 0.950 . S
C907 C905 1.390 . S
C907 C908 1.387 . S
C907 H910 0.950 . S
C908 C907 1.387 . S
C908 C911 1.387 . S
H909 C905 0.950 . S
H910 C907 0.950 . S
C911 C902 1.390 . S
C911 H904 0.950 . S
C911 C908 1.387 . S
C912 C913 1.387 . S
C912 H916 0.950 . S
C912 C921 1.390 . S
C913 C912 1.387 . S
C913 C915 1.387 . S
H914 C921 0.950 . S
C915 C913 1.387 . S
C915 C917 1.390 . S
C915 H919 0.950 . S
H916 C912 0.950 . S
C917 C915 1.390 . S
C917 C918 1.387 . S
C917 H920 0.950 . S
C918 C917 1.387 . S
C918 C921 1.387 . S
H919 C915 0.950 . S
H920 C917 0.950 . S
C921 C912 1.390 . S
C921 H914 0.950 . S
C921 C918 1.387 . S
C922 C923 1.387 . S
C922 H926 0.950 . S
C922 C931 1.390 . S
C923 C922 1.387 . S
C923 C925 1.387 . S
H924 C931 0.950 . S
C925 C923 1.387 . S
C925 C927 1.390 . S
C925 H929 0.950 . S
H926 C922 0.950 . S
C927 C925 1.390 . S
C927 C928 1.387 . S
C927 H930 0.950 . S
C928 C927 1.387 . S
C928 C931 1.387 . S
H929 C925 0.950 . S
H930 C927 0.950 . S
C931 C922 1.390 . S
C931 H924 0.950 . S
C931 C928 1.387 . S
C932 C933 1.387 . S
C932 H936 0.950 . S
C932 C941 1.390 . S
C933 C932 1.387 . S
C933 C935 1.387 . S
H934 C941 0.950 . S
C935 C933 1.387 . S
C935 C937 1.390 . S
C935 H939 0.950 . S
H936 C932 0.950 . S
C937 C935 1.390 . S
C937 C938 1.387 . S
C937 H940 0.950 . S
C938 C937 1.387 . S
C938 C941 1.387 . S
H939 C935 0.950 . S
H940 C937 0.950 . S
C941 C932 1.390 . S
C941 H934 0.950 . S
C941 C938 1.387 . S
C942 C943 1.387 . S
C942 H946 0.950 . S
C942 C951 1.390 . S
C943 C942 1.387 . S
C943 C945 1.387 . S
H944 C951 0.950 . S
C945 C943 1.387 . S
C945 C947 1.390 . S
C945 H949 0.950 . S
H946 C942 0.950 . S
C947 C945 1.390 . S
C947 C948 1.387 . S
C947 H950 0.950 . S
C948 C947 1.387 . S
C948 C951 1.387 . S
H949 C945 0.950 . S
H950 C947 0.950 . S
C951 C942 1.390 . S
C951 H944 0.950 . S
C951 C948 1.387 . S
C952 C953 1.387 . S
C952 H956 0.950 . S
C952 C961 1.390 . S
C953 C952 1.387 . S
C953 C955 1.387 . S
H954 C961 0.950 . S
C955 C953 1.387 . S
C955 C957 1.390 . S
C955 H959 0.950 . S
H956 C952 0.950 . S
C957 C955 1.390 . S
C957 C958 1.387 . S
C957 H960 0.950 . S
C958 C957 1.387 . S
C958 C961 1.387 . S
H959 C955 0.950 . S
H960 C957 0.950 . S
C961 C952 1.390 . S
C961 H954 0.950 . S
C961 C958 1.387 . S
C962 C963 1.387 . S
C962 H966 0.950 . S
C962 C971 1.390 . S
C963 C962 1.387 . S
C963 C965 1.387 . S
H964 C971 0.950 . S
C965 C963 1.387 . S
C965 C967 1.390 . S
C965 H969 0.950 . S
H966 C962 0.950 . S
C967 C965 1.390 . S
C967 C968 1.387 . S
C967 H970 0.950 . S
C968 C967 1.387 . S
C968 C971 1.387 . S
H969 C965 0.950 . S
H970 C967 0.950 . S
C971 C962 1.390 . S
C971 H964 0.950 . S
C971 C968 1.387 . S
C972 C973 1.387 . S
C972 H976 0.950 . S
C972 C981 1.390 . S
C973 C972 1.387 . S
C973 C975 1.387 . S
H974 C981 0.950 . S
C975 C973 1.387 . S
C975 C977 1.390 . S
C975 H979 0.950 . S
H976 C972 0.950 . S
C977 C975 1.390 . S
C977 C978 1.387 . S
C977 H980 0.950 . S
C978 C977 1.387 . S
C978 C981 1.387 . S
H979 C975 0.950 . S
H980 C977 0.950 . S
C981 C972 1.390 . S
C981 H974 0.950 . S
C981 C978 1.387 . S
C982 C983 1.387 . S
C982 H986 0.950 . S
C982 C991 1.390 . S
C983 C982 1.387 . S
C983 C985 1.387 . S
H984 C991 0.950 . S
C985 C983 1.387 . S
C985 C987 1.390 . S
C985 H989 0.950 . S
H986 C982 0.950 . S
C987 C985 1.390 . S
C987 C988 1.387 . S
C987 H990 0.950 . S
C988 C987 1.387 . S
C988 C991 1.387 . S
H989 C985 0.950 . S
H990 C987 0.950 . S
C991 C982 1.390 . S
C991 H984 0.950 . S
C991 C988 1.387 . S
C992 C993 1.387 . S
C992 H996 0.950 . S
C992 C1001 1.390 . S
C993 C992 1.387 . S
C993 C995 1.387 . S
H994 C1001 0.950 . S
C995 C993 1.387 . S
C995 C997 1.390 . S
C995 H999 0.950 . S
H996 C992 0.950 . S
C997 C995 1.390 . S
C997 C998 1.387 . S
C997 H1000 0.950 . S
C998 C997 1.387 . S
C998 C1001 1.387 . S
H999 C995 0.950 . S
H1000 C997 0.950 . S
C1001 C992 1.390 . S
C1001 H994 0.950 . S
C1001 C998 1.387 . S
C1002 C1003 1.387 . S
C1002 H1006 0.950 . S
C1002 C1011 1.390 . S
C1003 C1002 1.387 . S
C1003 C1005 1.387 . S
H1004 C1011 0.950 . S
C1005 C1003 1.387 . S
C1005 C1007 1.390 . S
C1005 H1009 0.950 . S
H1006 C1002 0.950 . S
C1007 C1005 1.390 . S
C1007 C1008 1.387 . S
C1007 H1010 0.950 . S
C1008 C1007 1.387 . S
C1008 C1011 1.387 . S
H1009 C1005 0.950 . S
H1010 C1007 0.950 . S
C1011 C1002 1.390 . S
C1011 H1004 0.950 . S
C1011 C1008 1.387 . S
C1012 C1013 1.387 . S
C1012 H1016 0.950 . S
C1012 C1021 1.390 . S
C1013 C1012 1.387 . S
C1013 C1015 1.387 . S
H1014 C1021 0.950 . S
C1015 C1013 1.387 . S
C1015 C1017 1.390 . S
C1015 H1019 0.950 . S
H1016 C1012 0.950 . S
C1017 C1015 1.390 . S
C1017 C1018 1.387 . S
C1017 H1020 0.950 . S
C1018 C1017 1.387 . S
C1018 C1021 1.387 . S
H1019 C1015 0.950 . S
H1020 C1017 0.950 . S
C1021 C1012 1.390 . S
C1021 H1014 0.950 . S
C1021 C1018 1.387 . S
C1022 C1023 1.387 . S
C1022 H1026 0.950 . S
C1022 C1031 1.390 . S
C1023 C1022 1.387 . S
C1023 C1025 1.387 . S
H1024 C1031 0.950 . S
C1025 C1023 1.387 . S
C1025 C1027 1.390 . S
C1025 H1029 0.950 . S
H1026 C1022 0.950 . S
C1027 C1025 1.390 . S
C1027 C1028 1.387 . S
C1027 H1030 0.950 . S
C1028 C1027 1.387 . S
C1028 C1031 1.387 . S
H1029 C1025 0.950 . S
H1030 C1027 0.950 . S
C1031 C1022 1.390 . S
C1031 H1024 0.950 . S
C1031 C1028 1.387 . S
C1032 C1033 1.387 . S
C1032 H1036 0.950 . S
C1032 C1041 1.390 . S
C1033 C1032 1.387 . S
C1033 C1035 1.387 . S
H1034 C1041 0.950 . S
C1035 C1033 1.387 . S
C1035 C1037 1.390 . S
C1035 H1039 0.950 . S
H1036 C1032 0.950 . S
C1037 C1035 1.390 . S
C1037 C1038 1.387 . S
C1037 H1040 0.950 . S
C1038 C1037 1.387 . S
C1038 C1041 1.387 . S
H1039 C1035 0.950 . S
H1040 C1037 0.950 . S
C1041 C1032 1.390 . S
C1041 H1034 0.950 . S
C1041 C1038 1.387 . S
C1042 C1043 1.387 . S
C1042 H1046 0.950 . S
C1042 C1051 1.390 . S
C1043 C1042 1.387 . S
C1043 C1045 1.387 . S
H1044 C1051 0.950 . S
C1045 C1043 1.387 . S
C1045 C1047 1.390 . S
C1045 H1049 0.950 . S
H1046 C1042 0.950 . S
C1047 C1045 1.390 . S
C1047 C1048 1.387 . S
C1047 H1050 0.950 . S
C1048 C1047 1.387 . S
C1048 C1051 1.387 . S
H1049 C1045 0.950 . S
H1050 C1047 0.950 . S
C1051 C1042 1.390 . S
C1051 H1044 0.950 . S
C1051 C1048 1.387 . S
C1052 C1053 1.387 . S
C1052 H1056 0.950 . S
C1052 C1061 1.390 . S
C1053 C1052 1.387 . S
C1053 C1055 1.387 . S
H1054 C1061 0.950 . S
C1055 C1053 1.387 . S
C1055 C1057 1.390 . S
C1055 H1059 0.950 . S
H1056 C1052 0.950 . S
C1057 C1055 1.390 . S
C1057 C1058 1.387 . S
C1057 H1060 0.950 . S
C1058 C1057 1.387 . S
C1058 C1061 1.387 . S
H1059 C1055 0.950 . S
H1060 C1057 0.950 . S
C1061 C1052 1.390 . S
C1061 H1054 0.950 . S
C1061 C1058 1.387 . S
C1062 C1063 1.387 . S
C1062 H1066 0.950 . S
C1062 C1071 1.390 . S
C1063 C1062 1.387 . S
C1063 C1065 1.387 . S
H1064 C1071 0.950 . S
C1065 C1063 1.387 . S
C1065 C1067 1.390 . S
C1065 H1069 0.950 . S
H1066 C1062 0.950 . S
C1067 C1065 1.390 . S
C1067 C1068 1.387 . S
C1067 H1070 0.950 . S
C1068 C1067 1.387 . S
C1068 C1071 1.387 . S
H1069 C1065 0.950 . S
H1070 C1067 0.950 . S
C1071 C1062 1.390 . S
C1071 H1064 0.950 . S
C1071 C1068 1.387 . S
C1072 C1073 1.387 . S
C1072 H1076 0.950 . S
C1072 C1081 1.390 . S
C1073 C1072 1.387 . S
C1073 C1075 1.387 . S
H1074 C1081 0.950 . S
C1075 C1073 1.387 . S
C1075 C1077 1.390 . S
C1075 H1079 0.950 . S
H1076 C1072 0.950 . S
C1077 C1075 1.390 . S
C1077 C1078 1.387 . S
C1077 H1080 0.950 . S
C1078 C1077 1.387 . S
C1078 C1081 1.387 . S
H1079 C1075 0.950 . S
H1080 C1077 0.950 . S
C1081 C1072 1.390 . S
C1081 H1074 0.950 . S
C1081 C1078 1.387 . S
C1082 C1083 1.387 . S
C1082 H1086 0.950 . S
C1082 C1091 1.390 . S
C1083 C1082 1.387 . S
C1083 C1085 1.387 . S
H1084 C1091 0.950 . S
C1085 C1083 1.387 . S
C1085 C1087 1.390 . S
C1085 H1089 0.950 . S
H1086 C1082 0.950 . S
C1087 C1085 1.390 . S
C1087 C1088 1.387 . S
C1087 H1090 0.950 . S
C1088 C1087 1.387 . S
C1088 C1091 1.387 . S
H1089 C1085 0.950 . S
H1090 C1087 0.950 . S
C1091 C1082 1.390 . S
C1091 H1084 0.950 . S
C1091 C1088 1.387 . S
C1092 C1093 1.387 . S
C1092 H1096 0.950 . S
C1092 C1101 1.390 . S
C1093 C1092 1.387 . S
C1093 C1095 1.387 . S
H1094 C1101 0.950 . S
C1095 C1093 1.387 . S
C1095 C1097 1.390 . S
C1095 H1099 0.950 . S
H1096 C1092 0.950 . S
C1097 C1095 1.390 . S
C1097 C1098 1.387 . S
C1097 H1100 0.950 . S
C1098 C1097 1.387 . S
C1098 C1101 1.387 . S
H1099 C1095 0.950 . S
H1100 C1097 0.950 . S
C1101 C1092 1.390 . S
C1101 H1094 0.950 . S
C1101 C1098 1.387 . S
C1102 C1103 1.387 . S
C1102 H1106 0.950 . S
C1102 C1111 1.390 . S
C1103 C1102 1.387 . S
C1103 C1105 1.387 . S
H1104 C1111 0.950 . S
C1105 C1103 1.387 . S
C1105 C1107 1.390 . S
C1105 H1109 0.950 . S
H1106 C1102 0.950 . S
C1107 C1105 1.390 . S
C1107 C1108 1.387 . S
C1107 H1110 0.950 . S
C1108 C1107 1.387 . S
C1108 C1111 1.387 . S
H1109 C1105 0.950 . S
H1110 C1107 0.950 . S
C1111 C1102 1.390 . S
C1111 H1104 0.950 . S
C1111 C1108 1.387 . S
C1112 C1113 1.387 . S
C1112 H1116 0.950 . S
C1112 C1121 1.390 . S
C1113 C1112 1.387 . S
C1113 C1115 1.387 . S
H1114 C1121 0.950 . S
C1115 C1113 1.387 . S
C1115 C1117 1.390 . S
C1115 H1119 0.950 . S
H1116 C1112 0.950 . S
C1117 C1115 1.390 . S
C1117 C1118 1.387 . S
C1117 H1120 0.950 . S
C1118 C1117 1.387 . S
C1118 C1121 1.387 . S
H1119 C1115 0.950 . S
H1120 C1117 0.950 . S
C1121 C1112 1.390 . S
C1121 H1114 0.950 . S
C1121 C1118 1.387 . S
C1122 C1123 1.387 . S
C1122 H1126 0.950 . S
C1122 C1131 1.390 . S
C1123 C1122 1.387 . S
C1123 C1125 1.387 . S
H1124 C1131 0.950 . S
C1125 C1123 1.387 . S
C1125 C1127 1.390 . S
C1125 H1129 0.950 . S
H1126 C1122 0.950 . S
C1127 C1125 1.390 . S
C1127 C1128 1.387 . S
C1127 H1130 0.950 . S
C1128 C1127 1.387 . S
C1128 C1131 1.387 . S
H1129 C1125 0.950 . S
H1130 C1127 0.950 . S
C1131 C1122 1.390 . S
C1131 H1124 0.950 . S
C1131 C1128 1.387 . S
C1132 C1133 1.387 . S
C1132 H1136 0.950 . S
C1132 C1141 1.390 . S
C1133 C1132 1.387 . S
C1133 C1135 1.387 . S
H1134 C1141 0.950 . S
C1135 C1133 1.387 . S
C1135 C1137 1.390 . S
C1135 H1139 0.950 . S
H1136 C1132 0.950 . S
C1137 C1135 1.390 . S
C1137 C1138 1.387 . S
C1137 H1140 0.950 . S
C1138 C1137 1.387 . S
C1138 C1141 1.387 . S
H1139 C1135 0.950 . S
H1140 C1137 0.950 . S
C1141 C1132 1.390 . S
C1141 H1134 0.950 . S
C1141 C1138 1.387 . S
C1142 C1143 1.387 . S
C1142 H1146 0.950 . S
C1142 C1151 1.390 . S
C1143 C1142 1.387 . S
C1143 C1145 1.387 . S
H1144 C1151 0.950 . S
C1145 C1143 1.387 . S
C1145 C1147 1.390 . S
C1145 H1149 0.950 . S
H1146 C1142 0.950 . S
C1147 C1145 1.390 . S
C1147 C1148 1.387 . S
C1147 H1150 0.950 . S
C1148 C1147 1.387 . S
C1148 C1151 1.387 . S
H1149 C1145 0.950 . S
H1150 C1147 0.950 . S
C1151 C1142 1.390 . S
C1151 H1144 0.950 . S
C1151 C1148 1.387 . S
C1152 C1153 1.387 . S
C1152 H1156 0.950 . S
C1152 C1161 1.390 . S
C1153 C1152 1.387 . S
C1153 C1155 1.387 . S
H1154 C1161 0.950 . S
C1155 C1153 1.387 . S
C1155 C1157 1.390 . S
C1155 H1159 0.950 . S
H1156 C1152 0.950 . S
C1157 C1155 1.390 . S
C1157 C1158 1.387 . S
C1157 H1160 0.950 . S
C1158 C1157 1.387 . S
C1158 C1161 1.387 . S
H1159 C1155 0.950 . S
H1160 C1157 0.950 . S
C1161 C1152 1.390 . S
C1161 H1154 0.950 . S
C1161 C1158 1.387 . S
C1162 C1163 1.387 . S
C1162 H1166 0.950 . S
C1162 C1171 1.390 . S
C1163 C1162 1.387 . S
C1163 C1165 1.387 . S
H1164 C1171 0.950 . S
C1165 C1163 1.387 . S
C1165 C1167 1.390 . S
C1165 H1169 0.950 . S
H1166 C1162 0.950 . S
C1167 C1165 1.390 . S
C1167 C1168 1.387 . S
C1167 H1170 0.950 . S
C1168 C1167 1.387 . S
C1168 C1171 1.387 . S
H1169 C1165 0.950 . S
H1170 C1167 0.950 . S
C1171 C1162 1.390 . S
C1171 H1164 0.950 . S
C1171 C1168 1.387 . S
C1172 C1173 1.387 . S
C1172 H1176 0.950 . S
C1172 C1181 1.390 . S
C1173 C1172 1.387 . S
C1173 C1175 1.387 . S
H1174 C1181 0.950 . S
C1175 C1173 1.387 . S
C1175 C1177 1.390 . S
C1175 H1179 0.950 . S
H1176 C1172 0.950 . S
C1177 C1175 1.390 . S
C1177 C1178 1.387 . S
C1177 H1180 0.950 . S
C1178 C1177 1.387 . S
C1178 C1181 1.387 . S
H1179 C1175 0.950 . S
H1180 C1177 0.950 . S
C1181 C1172 1.390 . S
C1181 H1174 0.950 . S
C1181 C1178 1.387 . S
C1182 C1183 1.387 . S
C1182 H1186 0.950 . S
C1182 C1191 1.390 . S
C1183 C1182 1.387 . S
C1183 C1185 1.387 . S
H1184 C1191 0.950 . S
C1185 C1183 1.387 . S
C1185 C1187 1.390 . S
C1185 H1189 0.950 . S
H1186 C1182 0.950 . S
C1187 C1185 1.390 . S
C1187 C1188 1.387 . S
C1187 H1190 0.950 . S
C1188 C1187 1.387 . S
C1188 C1191 1.387 . S
H1189 C1185 0.950 . S
H1190 C1187 0.950 . S
C1191 C1182 1.390 . S
C1191 H1184 0.950 . S
C1191 C1188 1.387 . S
C1192 C1193 1.387 . S
C1192 H1196 0.950 . S
C1192 C1201 1.390 . S
C1193 C1192 1.387 . S
C1193 C1195 1.387 . S
H1194 C1201 0.950 . S
C1195 C1193 1.387 . S
C1195 C1197 1.390 . S
C1195 H1199 0.950 . S
H1196 C1192 0.950 . S
C1197 C1195 1.390 . S
C1197 C1198 1.387 . S
C1197 H1200 0.950 . S
C1198 C1197 1.387 . S
C1198 C1201 1.387 . S
H1199 C1195 0.950 . S
H1200 C1197 0.950 . S
C1201 C1192 1.390 . S
C1201 H1194 0.950 . S
C1201 C1198 1.387 . S
C1202 C1203 1.387 . S
C1202 H1206 0.950 . S
C1202 C1211 1.390 . S
C1203 C1202 1.387 . S
C1203 C1205 1.387 . S
H1204 C1211 0.950 . S
C1205 C1203 1.387 . S
C1205 C1207 1.390 . S
C1205 H1209 0.950 . S
H1206 C1202 0.950 . S
C1207 C1205 1.390 . S
C1207 C1208 1.387 . S
C1207 H1210 0.950 . S
C1208 C1207 1.387 . S
C1208 C1211 1.387 . S
H1209 C1205 0.950 . S
H1210 C1207 0.950 . S
C1211 C1202 1.390 . S
C1211 H1204 0.950 . S
C1211 C1208 1.387 . S
C1212 C1213 1.387 . S
C1212 H1216 0.950 . S
C1212 C1221 1.390 . S
C1213 C1212 1.387 . S
C1213 C1215 1.387 . S
H1214 C1221 0.950 . S
C1215 C1213 1.387 . S
C1215 C1217 1.390 . S
C1215 H1219 0.950 . S
H1216 C1212 0.950 . S
C1217 C1215 1.390 . S
C1217 C1218 1.387 . S
C1217 H1220 0.950 . S
C1218 C1217 1.387 . S
C1218 C1221 1.387 . S
H1219 C1215 0.950 . S
H1220 C1217 0.950 . S
C1221 C1212 1.390 . S
C1221 H1214 0.950 . S
C1221 C1218 1.387 . S
C1222 C1223 1.387 . S
C1222 H1226 0.950 . S
C1222 C1231 1.390 . S
C1223 C1222 1.387 . S
C1223 C1225 1.387 . S
H1224 C1231 0.950 . S
C1225 C1223 1.387 . S
C1225 C1227 1.390 . S
C1225 H1229 0.950 . S
H1226 C1222 0.950 . S
C1227 C1225 1.390 . S
C1227 C1228 1.387 . S
C1227 H1230 0.950 . S
C1228 C1227 1.387 . S
C1228 C1231 1.387 . S
H1229 C1225 0.950 . S
H1230 C1227 0.950 . S
C1231 C1222 1.390 . S
C1231 H1224 0.950 . S
C1231 C1228 1.387 . S
C1232 C1233 1.387 . S
C1232 H1236 0.950 . S
C1232 C1241 1.390 . S
C1233 C1232 1.387 . S
C1233 C1235 1.387 . S
H1234 C1241 0.950 . S
C1235 C1233 1.387 . S
C1235 C1237 1.390 . S
C1235 H1239 0.950 . S
H1236 C1232 0.950 . S
C1237 C1235 1.390 . S
C1237 C1238 1.387 . S
C1237 H1240 0.950 . S
C1238 C1237 1.387 . S
C1238 C1241 1.387 . S
H1239 C1235 0.950 . S
H1240 C1237 0.950 . S
C1241 C1232 1.390 . S
C1241 H1234 0.950 . S
C1241 C1238 1.387 . S
C1242 C1243 1.387 . S
C1242 H1246 0.950 . S
C1242 C1251 1.390 . S
C1243 C1242 1.387 . S
C1243 C1245 1.387 . S
H1244 C1251 0.950 . S
C1245 C1243 1.387 . S
C1245 C1247 1.390 . S
C1245 H1249 0.950 . S
H1246 C1242 0.950 . S
C1247 C1245 1.390 . S
C1247 C1248 1.387 . S
C1247 H1250 0.950 . S
C1248 C1247 1.387 . S
C1248 C1251 1.387 . S
H1249 C1245 0.950 . S
H1250 C1247 0.950 . S
C1251 C1242 1.390 . S
C1251 H1244 0.950 . S
C1251 C1248 1.387 . S
C1252 C1253 1.387 . S
C1252 H1256 0.950 . S
C1252 C1261 1.390 . S
C1253 C1252 1.387 . S
C1253 C1255 1.387 . S
H1254 C1261 0.950 . S
C1255 C1253 1.387 . S
C1255 C1257 1.390 . S
C1255 H1259 0.950 . S
H1256 C1252 0.950 . S
C1257 C1255 1.390 . S
C1257 C1258 1.387 . S
C1257 H1260 0.950 . S
C1258 C1257 1.387 . S
C1258 C1261 1.387 . S
H1259 C1255 0.950 . S
H1260 C1257 0.950 . S
C1261 C1252 1.390 . S
C1261 H1254 0.950 . S
C1261 C1258 1.387 . S
C1262 C1263 1.387 . S
C1262 H1266 0.950 . S
C1262 C1271 1.390 . S
C1263 C1262 1.387 . S
C1263 C1265 1.387 . S
H1264 C1271 0.950 . S
C1265 C1263 1.387 . S
C1265 C1267 1.390 . S
C1265 H1269 0.950 . S
H1266 C1262 0.950 . S
C1267 C1265 1.390 . S
C1267 C1268 1.387 . S
C1267 H1270 0.950 . S
C1268 C1267 1.387 . S
C1268 C1271 1.387 . S
H1269 C1265 0.950 . S
H1270 C1267 0.950 . S
C1271 C1262 1.390 . S
C1271 H1264 0.950 . S
C1271 C1268 1.387 . S
C1272 C1273 1.387 . S
C1272 H1276 0.950 . S
C1272 C1281 1.390 . S
C1273 C1272 1.387 . S
C1273 C1275 1.387 . S
H1274 C1281 0.950 . S
C1275 C1273 1.387 . S
C1275 C1277 1.390 . S
C1275 H1279 0.950 . S
H1276 C1272 0.950 . S
C1277 C1275 1.390 . S
C1277 C1278 1.387 . S
C1277 H1280 0.950 . S
C1278 C1277 1.387 . S
C1278 C1281 1.387 . S
H1279 C1275 0.950 . S
H1280 C1277 0.950 . S
C1281 C1272 1.390 . S
C1281 H1274 0.950 . S
C1281 C1278 1.387 . S
C1282 C1283 1.387 . S
C1282 H1286 0.950 . S
C1282 C1291 1.390 . S
C1283 C1282 1.387 . S
C1283 C1285 1.387 . S
H1284 C1291 0.950 . S
C1285 C1283 1.387 . S
C1285 C1287 1.390 . S
C1285 H1289 0.950 . S
H1286 C1282 0.950 . S
C1287 C1285 1.390 . S
C1287 C1288 1.387 . S
C1287 H1290 0.950 . S
C1288 C1287 1.387 . S
C1288 C1291 1.387 . S
H1289 C1285 0.950 . S
H1290 C1287 0.950 . S
C1291 C1282 1.390 . S
C1291 H1284 0.950 . S
C1291 C1288 1.387 . S
C1292 C1293 1.387 . S
C1292 H1296 0.950 . S
C1292 C1301 1.390 . S
C1293 C1292 1.387 . S
C1293 C1295 1.387 . S
H1294 C1301 0.950 . S
C1295 C1293 1.387 . S
C1295 C1297 1.390 . S
C1295 H1299 0.950 . S
H1296 C1292 0.950 . S
C1297 C1295 1.390 . S
C1297 C1298 1.387 . S
C1297 H1300 0.950 . S
C1298 C1297 1.387 . S
C1298 C1301 1.387 . S
H1299 C1295 0.950 . S
H1300 C1297 0.950 . S
C1301 C1292 1.390 . S
C1301 H1294 0.950 . S
C1301 C1298 1.387 . S
C1302 C1303 1.387 . S
C1302 H1306 0.950 . S
C1302 C1311 1.390 . S
C1303 C1302 1.387 . S
C1303 C1305 1.387 . S
H1304 C1311 0.950 . S
C1305 C1303 1.387 . S
C1305 C1307 1.390 . S
C1305 H1309 0.950 . S
H1306 C1302 0.950 . S
C1307 C1305 1.390 . S
C1307 C1308 1.387 . S
C1307 H1310 0.950 . S
C1308 C1307 1.387 . S
C1308 C1311 1.387 . S
H1309 C1305 0.950 . S
H1310 C1307 0.950 . S
C1311 C1302 1.390 . S
C1311 H1304 0.950 . S
C1311 C1308 1.387 . S
C1312 C1313 1.387 . S
C1312 H1316 0.950 . S
C1312 C1321 1.390 . S
C1313 C1312 1.387 . S
C1313 C1315 1.387 . S
H1314 C1321 0.950 . S
C1315 C1313 1.387 . S
C1315 C1317 1.390 . S
C1315 H1319 0.950 . S
H1316 C1312 0.950 . S
C1317 C1315 1.390 . S
C1317 C1318 1.387 . S
C1317 H1320 0.950 . S
C1318 C1317 1.387 . S
C1318 C1321 1.387 . S
H1319 C1315 0.950 . S
H1320 C1317 0.950 . S
C1321 C1312 1.390 . S
C1321 H1314 0.950 . S
C1321 C1318 1.387 . S
C1322 C1323 1.387 . S
C1322 H1326 0.950 . S
C1322 C1331 1.390 . S
C1323 C1322 1.387 . S
C1323 C1325 1.387 . S
H1324 C1331 0.950 . S
C1325 C1323 1.387 . S
C1325 C1327 1.390 . S
C1325 H1329 0.950 . S
H1326 C1322 0.950 . S
C1327 C1325 1.390 . S
C1327 C1328 1.387 . S
C1327 H1330 0.950 . S
C1328 C1327 1.387 . S
C1328 C1331 1.387 . S
H1329 C1325 0.950 . S
H1330 C1327 0.950 . S
C1331 C1322 1.390 . S
C1331 H1324 0.950 . S
C1331 C1328 1.387 . S
C1332 C1333 1.387 . S
C1332 H1336 0.950 . S
C1332 C1341 1.390 . S
C1333 C1332 1.387 . S
C1333 C1335 1.387 . S
H1334 C1341 0.950 . S
C1335 C1333 1.387 . S
C1335 C1337 1.390 . S
C1335 H1339 0.950 . S
H1336 C1332 0.950 . S
C1337 C1335 1.390 . S
C1337 C1338 1.387 . S
C1337 H1340 0.950 . S
C1338 C1337 1.387 . S
C1338 C1341 1.387 . S
H1339 C1335 0.950 . S
H1340 C1337 0.950 . S
C1341 C1332 1.390 . S
C1341 H1334 0.950 . S
C1341 C1338 1.387 . S
C1342 C1343 1.387 . S
C1342 H1346 0.950 . S
C1342 C1351 1.390 . S
C1343 C1342 1.387 . S
C1343 C1345 1.387 . S
H1344 C1351 0.950 . S
C1345 C1343 1.387 . S
C1345 C1347 1.390 . S
C1345 H1349 0.950 . S
H1346 C1342 0.950 . S
C1347 C1345 1.390 . S
C1347 C1348 1.387 . S
C1347 H1350 0.950 . S
C1348 C1347 1.387 . S
C1348 C1351 1.387 . S
H1349 C1345 0.950 . S
H1350 C1347 0.950 . S
C1351 C1342 1.390 . S
C1351 H1344 0.950 . S
C1351 C1348 1.387 . S
C1352 C1353 1.387 . S
C1352 H1356 0.950 . S
C1352 C1361 1.390 . S
C1353 C1352 1.387 . S
C1353 C1355 1.387 . S
H1354 C1361 0.950 . S
C1355 C1353 1.387 . S
C1355 C1357 1.390 . S
C1355 H1359 0.950 . S
H1356 C1352 0.950 . S
C1357 C1355 1.390 . S
C1357 C1358 1.387 . S
C1357 H1360 0.950 . S
C1358 C1357 1.387 . S
C1358 C1361 1.387 . S
H1359 C1355 0.950 . S
H1360 C1357 0.950 . S
C1361 C1352 1.390 . S
C1361 H1354 0.950 . S
C1361 C1358 1.387 . S
C1362 C1363 1.387 . S
C1362 H1366 0.950 . S
C1362 C1371 1.390 . S
C1363 C1362 1.387 . S
C1363 C1365 1.387 . S
H1364 C1371 0.950 . S
C1365 C1363 1.387 . S
C1365 C1367 1.390 . S
C1365 H1369 0.950 . S
H1366 C1362 0.950 . S
C1367 C1365 1.390 . S
C1367 C1368 1.387 . S
C1367 H1370 0.950 . S
C1368 C1367 1.387 . S
C1368 C1371 1.387 . S
H1369 C1365 0.950 . S
H1370 C1367 0.950 . S
C1371 C1362 1.390 . S
C1371 H1364 0.950 . S
C1371 C1368 1.387 . S
C1372 C1373 1.387 . S
C1372 H1376 0.950 . S
C1372 C1381 1.390 . S
C1373 C1372 1.387 . S
C1373 C1375 1.387 . S
H1374 C1381 0.950 . S
C1375 C1373 1.387 . S
C1375 C1377 1.390 . S
C1375 H1379 0.950 . S
H1376 C1372 0.950 . S
C1377 C1375 1.390 . S
C1377 C1378 1.387 . S
C1377 H1380 0.950 . S
C1378 C1377 1.387 . S
C1378 C1381 1.387 . S
H1379 C1375 0.950 . S
H1380 C1377 0.950 . S
C1381 C1372 1.390 . S
C1381 H1374 0.950 . S
C1381 C1378 1.387 . S
C1382 C1383 1.387 . S
C1382 H1386 0.950 . S
C1382 C1391 1.390 . S
C1383 C1382 1.387 . S
C1383 C1385 1.387 . S
H1384 C1391 0.950 . S
C1385 C1383 1.387 . S
C1385 C1387 1.390 . S
C1385 H1389 0.950 . S
H1386 C1382 0.950 . S
C1387 C1385 1.390 . S
C1387 C1388 1.387 . S
C1387 H1390 0.950 . S
C1388 C1387 1.387 . S
C1388 C1391 1.387 . S
H1389 C1385 0.950 . S
H1390 C1387 0.950 . S
C1391 C1382 1.390 . S
C1391 H1384 0.950 . S
C1391 C1388 1.387 . S
C1392 C1393 1.387 . S
C1392 H1396 0.950 . S
C1392 C1401 1.390 . S
C1393 C1392 1.387 . S
C1393 C1395 1.387 . S
H1394 C1401 0.950 . S
C1395 C1393 1.387 . S
C1395 C1397 1.390 . S
C1395 H1399 0.950 . S
H1396 C1392 0.950 . S
C1397 C1395 1.390 . S
C1397 C1398 1.387 . S
C1397 H1400 0.950 . S
C1398 C1397 1.387 . S
C1398 C1401 1.387 . S
H1399 C1395 0.950 . S
H1400 C1397 0.950 . S
C1401 C1392 1.390 . S
C1401 H1394 0.950 . S
C1401 C1398 1.387 . S
C1402 C1403 1.387 . S
C1402 H1406 0.950 . S
C1402 C1411 1.390 . S
C1403 C1402 1.387 . S
C1403 C1405 1.387 . S
H1404 C1411 0.950 . S
C1405 C1403 1.387 . S
C1405 C1407 1.390 . S
C1405 H1409 0.950 . S
H1406 C1402 0.950 . S
C1407 C1405 1.390 . S
C1407 C1408 1.387 . S
C1407 H1410 0.950 . S
C1408 C1407 1.387 . S
C1408 C1411 1.387 . S
H1409 C1405 0.950 . S
H1410 C1407 0.950 . S
C1411 C1402 1.390 . S
C1411 H1404 0.950 . S
C1411 C1408 1.387 . S
C1412 C1413 1.387 . S
C1412 H1416 0.950 . S
C1412 C1421 1.390 . S
C1413 C1412 1.387 . S
C1413 C1415 1.387 . S
H1414 C1421 0.950 . S
C1415 C1413 1.387 . S
C1415 C1417 1.390 . S
C1415 H1419 0.950 . S
H1416 C1412 0.950 . S
C1417 C1415 1.390 . S
C1417 C1418 1.387 . S
C1417 H1420 0.950 . S
C1418 C1417 1.387 . S
C1418 C1421 1.387 . S
H1419 C1415 0.950 . S
H1420 C1417 0.950 . S
C1421 C1412 1.390 . S
C1421 H1414 0.950 . S
C1421 C1418 1.387 . S
C1422 C1423 1.387 . S
C1422 H1426 0.950 . S
C1422 C1431 1.390 . S
C1423 C1422 1.387 . S
C1423 C1425 1.387 . S
H1424 C1431 0.950 . S
C1425 C1423 1.387 . S
C1425 C1427 1.390 . S
C1425 H1429 0.950 . S
H1426 C1422 0.950 . S
C1427 C1425 1.390 . S
C1427 C1428 1.387 . S
C1427 H1430 0.950 . S
C1428 C1427 1.387 . S
C1428 C1431 1.387 . S
H1429 C1425 0.950 . S
H1430 C1427 0.950 . S
C1431 C1422 1.390 . S
C1431 H1424 0.950 . S
C1431 C1428 1.387 . S
C1432 C1433 1.387 . S
C1432 H1436 0.950 . S
C1432 C1441 1.390 . S
C1433 C1432 1.387 . S
C1433 C1435 1.387 . S
H1434 C1441 0.950 . S
C1435 C1433 1.387 . S
C1435 C1437 1.390 . S
C1435 H1439 0.950 . S
H1436 C1432 0.950 . S
C1437 C1435 1.390 . S
C1437 C1438 1.387 . S
C1437 H1440 0.950 . S
C1438 C1437 1.387 . S
C1438 C1441 1.387 . S
H1439 C1435 0.950 . S
H1440 C1437 0.950 . S
C1441 C1432 1.390 . S
C1441 H1434 0.950 . S
C1441 C1438 1.387 . S
C1442 C1443 1.387 . S
C1442 H1446 0.950 . S
C1442 C1451 1.390 . S
C1443 C1442 1.387 . S
C1443 C1445 1.387 . S
H1444 C1451 0.950 . S
C1445 C1443 1.387 . S
C1445 C1447 1.390 . S
C1445 H1449 0.950 . S
H1446 C1442 0.950 . S
C1447 C1445 1.390 . S
C1447 C1448 1.387 . S
C1447 H1450 0.950 . S
C1448 C1447 1.387 . S
C1448 C1451 1.387 . S
H1449 C1445 0.950 . S
H1450 C1447 0.950 . S
C1451 C1442 1.390 . S
C1451 H1444 0.950 . S
C1451 C1448 1.387 . S
C1452 C1453 1.387 . S
C1452 H1456 0.950 . S
C1452 C1461 1.390 . S
C1453 C1452 1.387 . S
C1453 C1455 1.387 . S
H1454 C1461 0.950 . S
C1455 C1453 1.387 . S
C1455 C1457 1.390 . S
C1455 H1459 0.950 . S
H1456 C1452 0.950 . S
C1457 C1455 1.390 . S
C1457 C1458 1.387 . S
C1457 H1460 0.950 . S
C1458 C1457 1.387 . S
C1458 C1461 1.387 . S
H1459 C1455 0.950 . S
H1460 C1457 0.950 . S
C1461 C1452 1.390 . S
C1461 H1454 0.950 . S
C1461 C1458 1.387 . S
C1462 C1463 1.387 . S
C1462 H1466 0.950 . S
C1462 C1471 1.390 . S
C1463 C1462 1.387 . S
C1463 C1465 1.387 . S
H1464 C1471 0.950 . S
C1465 C1463 1.387 . S
C1465 C1467 1.390 . S
C1465 H1469 0.950 . S
H1466 C1462 0.950 . S
C1467 C1465 1.390 . S
C1467 C1468 1.387 . S
C1467 H1470 0.950 . S
C1468 C1467 1.387 . S
C1468 C1471 1.387 . S
H1469 C1465 0.950 . S
H1470 C1467 0.950 . S
C1471 C1462 1.390 . S
C1471 H1464 0.950 . S
C1471 C1468 1.387 . S
C1472 C1473 1.387 . S
C1472 H1476 0.950 . S
C1472 C1481 1.390 . S
C1473 C1472 1.387 . S
C1473 C1475 1.387 . S
H1474 C1481 0.950 . S
C1475 C1473 1.387 . S
C1475 C1477 1.390 . S
C1475 H1479 0.950 . S
H1476 C1472 0.950 . S
C1477 C1475 1.390 . S
C1477 C1478 1.387 . S
C1477 H1480 0.950 . S
C1478 C1477 1.387 . S
C1478 C1481 1.387 . S
H1479 C1475 0.950 . S
H1480 C1477 0.950 . S
C1481 C1472 1.390 . S
C1481 H1474 0.950 . S
C1481 C1478 1.387 . S
C1482 C1483 1.387 . S
C1482 H1486 0.950 . S
C1482 C1491 1.390 . S
C1483 C1482 1.387 . S
C1483 C1485 1.387 . S
H1484 C1491 0.950 . S
C1485 C1483 1.387 . S
C1485 C1487 1.390 . S
C1485 H1489 0.950 . S
H1486 C1482 0.950 . S
C1487 C1485 1.390 . S
C1487 C1488 1.387 . S
C1487 H1490 0.950 . S
C1488 C1487 1.387 . S
C1488 C1491 1.387 . S
H1489 C1485 0.950 . S
H1490 C1487 0.950 . S
C1491 C1482 1.390 . S
C1491 H1484 0.950 . S
C1491 C1488 1.387 . S
C1492 C1493 1.387 . S
C1492 H1496 0.950 . S
C1492 C1501 1.390 . S
C1493 C1492 1.387 . S
C1493 C1495 1.387 . S
H1494 C1501 0.950 . S
C1495 C1493 1.387 . S
C1495 C1497 1.390 . S
C1495 H1499 0.950 . S
H1496 C1492 0.950 . S
C1497 C1495 1.390 . S
C1497 C1498 1.387 . S
C1497 H1500 0.950 . S
C1498 C1497 1.387 . S
C1498 C1501 1.387 . S
H1499 C1495 0.950 . S
H1500 C1497 0.950 . S
C1501 C1492 1.390 . S
C1501 H1494 0.950 . S
C1501 C1498 1.387 . S
C1502 C1503 1.387 . S
C1502 H1506 0.950 . S
C1502 C1511 1.390 . S
C1503 C1502 1.387 . S
C1503 C1505 1.387 . S
H1504 C1511 0.950 . S
C1505 C1503 1.387 . S
C1505 C1507 1.390 . S
C1505 H1509 0.950 . S
H1506 C1502 0.950 . S
C1507 C1505 1.390 . S
C1507 C1508 1.387 . S
C1507 H1510 0.950 . S
C1508 C1507 1.387 . S
C1508 C1511 1.387 . S
H1509 C1505 0.950 . S
H1510 C1507 0.950 . S
C1511 C1502 1.390 . S
C1511 H1504 0.950 . S
C1511 C1508 1.387 . S
C1512 C1513 1.387 . S
C1512 H1516 0.950 . S
C1512 C1521 1.390 . S
C1513 C1512 1.387 . S
C1513 C1515 1.387 . S
H1514 C1521 0.950 . S
C1515 C1513 1.387 . S
C1515 C1517 1.390 . S
C1515 H1519 0.950 . S
H1516 C1512 0.950 . S
C1517 C1515 1.390 . S
C1517 C1518 1.387 . S
C1517 H1520 0.950 . S
C1518 C1517 1.387 . S
C1518 C1521 1.387 . S
H1519 C1515 0.950 . S
H1520 C1517 0.950 . S
C1521 C1512 1.390 . S
C1521 H1514 0.950 . S
C1521 C1518 1.387 . S
C1522 C1523 1.387 . S
C1522 H1526 0.950 . S
C1522 C1531 1.390 . S
C1523 C1522 1.387 . S
C1523 C1525 1.387 . S
H1524 C1531 0.950 . S
C1525 C1523 1.387 . S
C1525 C1527 1.390 . S
C1525 H1529 0.950 . S
H1526 C1522 0.950 . S
C1527 C1525 1.390 . S
C1527 C1528 1.387 . S
C1527 H1530 0.950 . S
C1528 C1527 1.387 . S
C1528 C1531 1.387 . S
H1529 C1525 0.950 . S
H1530 C1527 0.950 . S
C1531 C1522 1.390 . S
C1531 H1524 0.950 . S
C1531 C1528 1.387 . S
C1532 C1533 1.387 . S
C1532 H1536 0.950 . S
C1532 C1541 1.390 . S
C1533 C1532 1.387 . S
C1533 C1535 1.387 . S
H1534 C1541 0.950 . S
C1535 C1533 1.387 . S
C1535 C1537 1.390 . S
C1535 H1539 0.950 . S
H1536 C1532 0.950 . S
C1537 C1535 1.390 . S
C1537 C1538 1.387 . S
C1537 H1540 0.950 . S
C1538 C1537 1.387 . S
C1538 C1541 1.387 . S
H1539 C1535 0.950 . S
H1540 C1537 0.950 . S
C1541 C1532 1.390 . S
C1541 H1534 0.950 . S
C1541 C1538 1.387 . S
C1542 C1543 1.387 . S
C1542 H1546 0.950 . S
C1542 C1551 1.390 . S
C1543 C1542 1.387 . S
C1543 C1545 1.387 . S
H1544 C1551 0.950 . S
C1545 C1543 1.387 . S
C1545 C1547 1.390 . S
C1545 H1549 0.950 . S
H1546 C1542 0.950 . S
C1547 C1545 1.390 . S
C1547 C1548 1.387 . S
C1547 H1550 0.950 . S
C1548 C1547 1.387 . S
C1548 C1551 1.387 . S
H1549 C1545 0.950 . S
H1550 C1547 0.950 . S
C1551 C1542 1.390 . S
C1551 H1544 0.950 . S
C1551 C1548 1.387 . S
C1552 C1553 1.387 . S
C1552 H1556 0.950 . S
C1552 C1561 1.390 . S
C1553 C1552 1.387 . S
C1553 C1555 1.387 . S
H1554 C1561 0.950 . S
C1555 C1553 1.387 . S
C1555 C1557 1.390 . S
C1555 H1559 0.950 . S
H1556 C1552 0.950 . S
C1557 C1555 1.390 . S
C1557 C1558 1.387 . S
C1557 H1560 0.950 . S
C1558 C1557 1.387 . S
C1558 C1561 1.387 . S
H1559 C1555 0.950 . S
H1560 C1557 0.950 . S
C1561 C1552 1.390 . S
C1561 H1554 0.950 . S
C1561 C1558 1.387 . S
C1562 C1563 1.387 . S
C1562 H1566 0.950 . S
C1562 C1571 1.390 . S
C1563 C1562 1.387 . S
C1563 C1565 1.387 . S
H1564 C1571 0.950 . S
C1565 C1563 1.387 . S
C1565 C1567 1.390 . S
C1565 H1569 0.950 . S
H1566 C1562 0.950 . S
C1567 C1565 1.390 . S
C1567 C1568 1.387 . S
C1567 H1570 0.950 . S
C1568 C1567 1.387 . S
C1568 C1571 1.387 . S
H1569 C1565 0.950 . S
H1570 C1567 0.950 . S
C1571 C1562 1.390 . S
C1571 H1564 0.950 . S
C1571 C1568 1.387 . S
C1572 C1573 1.387 . S
C1572 H1576 0.950 . S
C1572 C1581 1.390 . S
C1573 C1572 1.387 . S
C1573 C1575 1.387 . S
H1574 C1581 0.950 . S
C1575 C1573 1.387 . S
C1575 C1577 1.390 . S
C1575 H1579 0.950 . S
H1576 C1572 0.950 . S
C1577 C1575 1.390 . S
C1577 C1578 1.387 . S
C1577 H1580 0.950 . S
C1578 C1577 1.387 . S
C1578 C1581 1.387 . S
H1579 C1575 0.950 . S
H1580 C1577 0.950 . S
C1581 C1572 1.390 . S
C1581 H1574 0.950 . S
C1581 C1578 1.387 . S
C1582 C1583 1.387 . S
C1582 H1586 0.950 . S
C1582 C1591 1.390 . S
C1583 C1582 1.387 . S
C1583 C1585 1.387 . S
H1584 C1591 0.950 . S
C1585 C1583 1.387 . S
C1585 C1587 1.390 . S
C1585 H1589 0.950 . S
H1586 C1582 0.950 . S
C1587 C1585 1.390 . S
C1587 C1588 1.387 . S
C1587 H1590 0.950 . S
C1588 C1587 1.387 . S
C1588 C1591 1.387 . S
H1589 C1585 0.950 . S
H1590 C1587 0.950 . S
C1591 C1582 1.390 . S
C1591 H1584 0.950 . S
C1591 C1588 1.387 . S
C1592 C1593 1.387 . S
C1592 H1596 0.950 . S
C1592 C1601 1.390 . S
C1593 C1592 1.387 . S
C1593 C1595 1.387 . S
H1594 C1601 0.950 . S
C1595 C1593 1.387 . S
C1595 C1597 1.390 . S
C1595 H1599 0.950 . S
H1596 C1592 0.950 . S
C1597 C1595 1.390 . S
C1597 C1598 1.387 . S
C1597 H1600 0.950 . S
C1598 C1597 1.387 . S
C1598 C1601 1.387 . S
H1599 C1595 0.950 . S
H1600 C1597 0.950 . S
C1601 C1592 1.390 . S
C1601 H1594 0.950 . S
C1601 C1598 1.387 . S
C1602 C1603 1.387 . S
C1602 H1606 0.950 . S
C1602 C1611 1.390 . S
C1603 C1602 1.387 . S
C1603 C1605 1.387 . S
H1604 C1611 0.950 . S
C1605 C1603 1.387 . S
C1605 C1607 1.390 . S
C1605 H1609 0.950 . S
H1606 C1602 0.950 . S
C1607 C1605 1.390 . S
C1607 C1608 1.387 . S
C1607 H1610 0.950 . S
C1608 C1607 1.387 . S
C1608 C1611 1.387 . S
H1609 C1605 0.950 . S
H1610 C1607 0.950 . S
C1611 C1602 1.390 . S
C1611 H1604 0.950 . S
C1611 C1608 1.387 . S
C1612 C1613 1.387 . S
C1612 H1616 0.950 . S
C1612 C1621 1.390 . S
C1613 C1612 1.387 . S
C1613 C1615 1.387 . S
H1614 C1621 0.950 . S
C1615 C1613 1.387 . S
C1615 C1617 1.390 . S
C1615 H1619 0.950 . S
H1616 C1612 0.950 . S
C1617 C1615 1.390 . S
C1617 C1618 1.387 . S
C1617 H1620 0.950 . S
C1618 C1617 1.387 . S
C1618 C1621 1.387 . S
H1619 C1615 0.950 . S
H1620 C1617 0.950 . S
C1621 C1612 1.390 . S
C1621 H1614 0.950 . S
C1621 C1618 1.387 . S
C1622 C1623 1.387 . S
C1622 H1626 0.950 . S
C1622 C1631 1.390 . S
C1623 C1622 1.387 . S
C1623 C1625 1.387 . S
H1624 C1631 0.950 . S
C1625 C1623 1.387 . S
C1625 C1627 1.390 . S
C1625 H1629 0.950 . S
H1626 C1622 0.950 . S
C1627 C1625 1.390 . S
C1627 C1628 1.387 . S
C1627 H1630 0.950 . S
C1628 C1627 1.387 . S
C1628 C1631 1.387 . S
H1629 C1625 0.950 . S
H1630 C1627 0.950 . S
C1631 C1622 1.390 . S
C1631 H1624 0.950 . S
C1631 C1628 1.387 . S
C673 C403 1.186 . S
C678 C11 1.184 . S
C683 C25 1.184 . S
C688 C417 1.186 . S
C693 C431 1.186 . S
C698 C39 1.184 . S
C703 C53 1.186 . S
C708 C445 1.184 . S
C713 C347 1.186 . S
C718 C67 1.184 . S
C723 C81 1.184 . S
C728 C361 1.186 . S
C733 C375 1.184 . S
C738 C95 1.186 . S
C743 C109 1.186 . S
C748 C389 1.184 . S
C753 C543 1.184 . S
C758 C123 1.186 . S
C763 C557 1.185 . S
C768 C137 1.185 . S
C773 C515 1.186 . S
C778 C151 1.185 . S
C783 C165 1.184 . S
C788 C529 1.186 . S
C793 C487 1.184 . S
C798 C179 1.186 . S
C803 C501 1.184 . S
C808 C193 1.186 . S
C813 C207 1.186 . S
C818 C459 1.184 . S
C823 C473 1.185 . S
C828 C221 1.186 . S
C833 C235 1.184 . S
C838 C641 1.187 . S
C843 C613 1.184 . S
C848 C249 1.186 . S
C853 C627 1.185 . S
C858 C263 1.185 . S
C863 C585 1.184 . S
C868 C277 1.186 . S
C873 C599 1.184 . S
C878 C291 1.186 . S
C883 C305 1.187 . S
C888 C571 1.184 . S
C893 C319 1.186 . S
C898 C669 1.184 . S
C903 C655 1.186 . S
C908 C333 1.184 . S
C913 C111 1.320 . S
C918 C13 1.325 . S
C923 C69 1.326 . S
C928 C27 1.320 . S
C933 C83 1.321 . S
C938 C41 1.324 . S
C943 C97 1.322 . S
C948 C55 1.322 . S
C953 C293 1.320 . S
C958 C125 1.326 . S
C963 C251 1.326 . S
C968 C139 1.321 . S
C973 C265 1.320 . S
C978 C153 1.326 . S
C983 C279 1.320 . S
C988 C167 1.325 . S
C993 C335 1.324 . S
C998 C181 1.323 . S
C1003 C307 1.320 . S
C1008 C195 1.325 . S
C1013 C209 1.324 . S
C1018 C321 1.323 . S
C1023 C237 1.320 . S
C1028 C223 1.324 . S
C1033 C447 1.326 . S
C1038 C349 1.321 . S
C1043 C405 1.325 . S
C1048 C363 1.320 . S
C1053 C377 1.320 . S
C1058 C419 1.325 . S
C1063 C391 1.325 . S
C1068 C433 1.320 . S
C1073 C461 1.321 . S
C1078 C629 1.325 . S
C1083 C475 1.321 . S
C1088 C587 1.325 . S
C1093 C601 1.326 . S
C1098 C489 1.320 . S
C1103 C615 1.320 . S
C1108 C503 1.326 . S
C1113 C671 1.323 . S
C1118 C517 1.322 . S
C1123 C643 1.326 . S
C1128 C531 1.320 . S
C1133 C657 1.323 . S
C1138 C545 1.322 . S
C1143 C559 1.320 . S
C1148 C573 1.326 . S
C1153 C7 1.240 . S
C1158 C120 1.125 . S
C1163 C134 1.123 . S
C1168 C21 1.241 . S
C1173 C148 1.128 . S
C1178 C35 1.239 . S
C1183 C162 1.123 . S
C1188 C49 1.241 . S
C1193 C63 1.240 . S
C1198 C176 1.128 . S
C1203 C190 1.128 . S
C1208 C77 1.240 . S
C1213 C91 1.240 . S
C1218 C204 1.127 . S
C1223 C218 1.124 . S
C1228 C105 1.241 . S
C1233 C232 1.125 . S
C1238 C119 1.241 . S
C1243 C330 1.124 . S
C1248 C133 1.241 . S
C1253 C147 1.239 . S
C1258 C302 1.127 . S
C1263 C161 1.241 . S
C1268 C316 1.124 . S
C1273 C175 1.241 . S
C1278 C246 1.126 . S
C1283 C189 1.241 . S
C1288 C260 1.123 . S
C1293 C203 1.239 . S
C1298 C274 1.127 . S
C1303 C217 1.239 . S
C1308 C288 1.129 . S
C1313 C231 1.239 . S
C1318 C8 1.128 . S
C1323 C245 1.241 . S
C1328 C64 1.124 . S
C1333 C259 1.241 . S
C1338 C78 1.125 . S
C1343 C273 1.241 . S
C1348 C92 1.124 . S
C1353 C287 1.240 . S
C1358 C106 1.126 . S
C1363 C301 1.239 . S
C1368 C36 1.128 . S
C1373 C50 1.124 . S
C1378 C315 1.241 . S
C1383 C22 1.126 . S
C1388 C329 1.240 . S
C1393 C456 1.124 . S
C1398 C343 1.241 . S
C1403 C470 1.129 . S
C1408 C357 1.239 . S
C1413 C484 1.125 . S
C1418 C371 1.241 . S
C1423 C498 1.124 . S
C1428 C385 1.241 . S
C1433 C512 1.123 . S
C1438 C399 1.241 . S
C1443 C413 1.240 . S
C1448 C526 1.127 . S
C1453 C540 1.123 . S
C1458 C427 1.241 . S
C1463 C441 1.241 . S
C1468 C554 1.123 . S
C1473 C568 1.126 . S
C1478 C455 1.240 . S
C1483 C469 1.241 . S
C1488 C666 1.123 . S
C1493 C483 1.240 . S
C1498 C638 1.128 . S
C1503 C652 1.128 . S
C1508 C497 1.240 . S
C1513 C582 1.127 . S
C1518 C511 1.240 . S
C1523 C525 1.239 . S
C1528 C596 1.129 . S
C1533 C539 1.239 . S
C1538 C610 1.126 . S
C1543 C624 1.129 . S
C1548 C553 1.239 . S
C1553 C344 1.129 . S
C1558 C567 1.239 . S
C1563 C400 1.124 . S
C1568 C581 1.241 . S
C1573 C414 1.126 . S
C1578 C595 1.240 . S
C1583 C609 1.241 . S
C1588 C428 1.124 . S
C1593 C442 1.126 . S
C1598 C623 1.240 . S
C1603 C372 1.129 . S
C1608 C637 1.239 . S
C1613 C651 1.240 . S
C1618 C386 1.126 . S
C1623 C358 1.126 . S
C1628 C665 1.240 . S
