# Generated by pormake.
# Topology ukg, (4)-cn, num edge types: 1
# Building blocks:
#     Node 0, Type 0, BuildingBlock: ESEHIV_clean_sbu_0, # of connection points: 4
#     Node 1, Type 0, BuildingBlock: ESEHIV_clean_sbu_0, # of connection points: 4
#     Node 2, Type 0, BuildingBlock: ESEHIV_clean_sbu_0, # of connection points: 4
#     Node 3, Type 0, BuildingBlock: ESEHIV_clean_sbu_0, # of connection points: 4
#     Node 4, Type 0, BuildingBlock: ESEHIV_clean_sbu_0, # of connection points: 4
#     Node 5, Type 0, BuildingBlock: ESEHIV_clean_sbu_0, # of connection points: 4
#     Node 6, Type 0, BuildingBlock: ESEHIV_clean_sbu_0, # of connection points: 4
#     Node 7, Type 0, BuildingBlock: ESEHIV_clean_sbu_0, # of connection points: 4
#     Edge 8, Type (0, 0), BuildingBlock: ZUJKAS_clean_linker_0, # of connection points: 2
#     Edge 9, Type (0, 0), BuildingBlock: ZUJKAS_clean_linker_0, # of connection points: 2
#     Edge 10, Type (0, 0), BuildingBlock: ZUJKAS_clean_linker_0, # of connection points: 2
#     Edge 11, Type (0, 0), BuildingBlock: ZUJKAS_clean_linker_0, # of connection points: 2
#     Edge 12, Type (0, 0), BuildingBlock: ZUJKAS_clean_linker_0, # of connection points: 2
#     Edge 13, Type (0, 0), BuildingBlock: ZUJKAS_clean_linker_0, # of connection points: 2
#     Edge 14, Type (0, 0), BuildingBlock: ZUJKAS_clean_linker_0, # of connection points: 2
#     Edge 15, Type (0, 0), BuildingBlock: ZUJKAS_clean_linker_0, # of connection points: 2
#     Edge 16, Type (0, 0), BuildingBlock: ZUJKAS_clean_linker_0, # of connection points: 2
#     Edge 17, Type (0, 0), BuildingBlock: ZUJKAS_clean_linker_0, # of connection points: 2
#     Edge 18, Type (0, 0), BuildingBlock: ZUJKAS_clean_linker_0, # of connection points: 2
#     Edge 19, Type (0, 0), BuildingBlock: ZUJKAS_clean_linker_0, # of connection points: 2
#     Edge 20, Type (0, 0), BuildingBlock: ZUJKAS_clean_linker_0, # of connection points: 2
#     Edge 21, Type (0, 0), BuildingBlock: ZUJKAS_clean_linker_0, # of connection points: 2
#     Edge 22, Type (0, 0), BuildingBlock: ZUJKAS_clean_linker_0, # of connection points: 2
#     Edge 23, Type (0, 0), BuildingBlock: ZUJKAS_clean_linker_0, # of connection points: 2
# Relax obj value: 0.112
# Max RMSD: 0.189
# Mean RMSD: 0.174
data_MOF--net-ukg--node1-ESEHIV_clean_sbu_0--edge1-ZUJKAS_clean_linker_0
_symmetry_space_group_name_H-M    P1
_symmetry_Int_Tables_number       1
_symmetry_cell_setting            triclinic
loop_
_symmetry_equiv_pos_as_xyz
'x, y, z'
_cell_length_a     40.868104
_cell_length_b     40.8211
_cell_length_c     55.379925
_cell_angle_alpha  90.516552
_cell_angle_beta   89.379648
_cell_angle_gamma 89.976388
loop_
_atom_site_label
_atom_site_type_symbol
_atom_site_fract_x
_atom_site_fract_y
_atom_site_fract_z
_atom_type_partial_charge
Cu0 Cu 0.02621 0.68236 0.1617 0.0
N1 N 1.00226 0.72026 0.16929 0.0
N2 N 0.96953 0.75461 0.19004 0.0
C3 C 0.98159 0.72389 0.18826 0.0
C4 C 0.98331 0.77102 0.17145 0.0
C5 C 1.0035 0.74976 0.1587 0.0
O6 O 1.01194 0.65099 0.18627 0.0
C7 C 0.08471 0.71272 0.17874 0.0
O8 O 0.06576 0.72178 0.19692 0.0
H9 H 0.97645 0.70471 0.20109 0.0
H10 H 0.01844 0.7555 0.14306 0.0
N11 N 1.01521 0.6676 0.13039 0.0
N12 N 1.0116 0.63855 0.0958 0.0
C13 C 0.02529 0.6406 0.11801 0.0
C14 C 0.99443 0.68291 0.11559 0.0
C15 C 0.99215 0.66522 0.09441 0.0
C16 C 0.98305 0.63939 0.18436 0.0
O17 O 0.96678 0.64525 0.16452 0.0
H18 H 0.04246 0.62304 0.12509 0.0
H19 H 0.9815 0.70532 0.11999 0.0
O20 O 0.07291 0.69405 0.16239 0.0
H21 H 0.97921 0.79657 0.16738 0.0
H22 H 0.97674 0.67132 0.07933 0.0
Cu23 Cu 0.36604 0.57954 0.67141 0.0
N24 N 0.32807 0.55524 0.67758 0.0
N25 N 0.29296 0.52221 0.69682 0.0
C26 C 0.32365 0.53438 0.69605 0.0
C27 C 0.27741 0.53608 0.67809 0.0
C28 C 0.29915 0.55644 0.66626 0.0
O29 O 0.3965 0.56556 0.69644 0.0
C30 C 0.33235 0.63759 0.6867 0.0
O31 O 0.32048 0.61816 0.70342 0.0
H32 H 0.34219 0.52926 0.70928 0.0
H33 H 0.29409 0.57155 0.65079 0.0
N34 N 0.38255 0.56814 0.64055 0.0
N35 N 0.4149 0.56194 0.60772 0.0
C36 C 0.41118 0.57647 0.62974 0.0
C37 C 0.36782 0.54768 0.62494 0.0
C38 C 0.38753 0.5438 0.60485 0.0
C39 C 0.40854 0.5368 0.69413 0.0
O40 O 0.40302 0.52039 0.67407 0.0
H41 H 0.42885 0.59272 0.63794 0.0
H42 H 0.34459 0.53576 0.62817 0.0
O43 O 0.35397 0.6263 0.67201 0.0
H44 H 0.2521 0.532 0.67336 0.0
H45 H 0.38228 0.528 0.58959 0.0
Cu46 Cu 0.46206 0.89204 0.14836 0.0
N47 N 0.48048 0.85008 0.14946 0.0
N48 N 0.50492 0.80593 0.16479 0.0
C49 C 0.49814 0.83813 0.1678 0.0
C50 C 0.49091 0.79734 0.1437 0.0
C51 C 0.47566 0.8245 0.13441 0.0
O52 O 0.48677 0.91827 0.17178 0.0
C53 C 0.39742 0.8721 0.14005 0.0
O54 O 0.41017 0.86671 0.1185 0.0
H55 H 0.50508 0.85265 0.18336 0.0
H56 H 0.4609 0.82506 0.11835 0.0
N57 N 0.46813 0.91031 0.11743 0.0
N58 N 0.47478 0.94638 0.08739 0.0
C59 C 0.46529 0.94197 0.11067 0.0
C60 C 0.47966 0.89438 0.09774 0.0
C61 C 0.48362 0.91635 0.07929 0.0
C62 C 0.51681 0.92337 0.16639 0.0
O63 O 0.52797 0.91247 0.14547 0.0
H64 H 0.45765 0.96149 0.12283 0.0
H65 H 0.48572 0.86866 0.09691 0.0
O66 O 0.4153 0.88568 0.15607 0.0
H67 H 0.49022 0.77282 0.13613 0.0
H68 H 0.49256 0.91058 0.06128 0.0
Cu69 Cu 0.15627 1.01281 0.64142 0.0
N70 N 0.19832 0.03045 0.64338 0.0
N71 N 0.24255 0.05496 0.65858 0.0
C72 C 0.21011 0.04946 0.66128 0.0
C73 C 0.25138 0.03877 0.63816 0.0
C74 C 0.22412 0.02349 0.62895 0.0
O75 O 0.12983 0.03649 0.66581 0.0
C76 C 0.17897 0.95624 0.66512 0.0
O77 O 0.18859 0.97829 0.68095 0.0
H78 H 0.19534 0.05827 0.67632 0.0
H79 H 0.22334 1.00746 0.61331 0.0
N80 N 0.14038 0.02002 0.60999 0.0
N81 N 0.10984 0.0215 0.57652 0.0
C82 C 0.11171 1.01124 0.59972 0.0
C83 C 0.15673 0.0366 0.59278 0.0
C84 C 0.13818 0.03745 0.57226 0.0
C85 C 0.12019 0.0655 0.66114 0.0
O86 O 0.12595 0.0773 0.63952 0.0
H87 H 0.0928 0.99751 0.60897 0.0
H88 H 0.18043 0.04785 0.59506 0.0
O89 O 0.16195 0.96566 0.64726 0.0
H90 H 0.27606 0.03676 0.63101 0.0
H91 H 0.14479 0.04961 0.55562 0.0
Cu92 Cu 0.0335 0.32656 0.88707 0.0
N93 N 1.00582 0.29769 0.90355 0.0
N94 N 0.95725 0.27727 0.91478 0.0
C95 C 0.9736 0.3035 0.90625 0.0
C96 C 0.98041 0.25423 0.91833 0.0
C97 C 1.01043 0.26689 0.91129 0.0
O98 O 0.026 0.3703 0.90143 0.0
C99 C 1.00986 0.29804 0.84281 0.0
O100 O 0.98566 0.28622 0.85581 0.0
H101 H 0.96218 0.32604 0.90057 0.0
H102 H 0.0335 0.25393 0.91054 0.0
N103 N 0.07802 0.31842 0.89021 0.0
N104 N 0.12684 0.33134 0.87411 0.0
C105 C 0.09886 0.34263 0.88437 0.0
C106 C 0.09382 0.29049 0.88429 0.0
C107 C 0.1241 0.29839 0.8746 0.0
C108 C 0.0323 0.37119 0.92401 0.0
O109 O 0.04224 0.34399 0.93414 0.0
H110 H 0.09141 0.36805 0.88426 0.0
H111 H 0.08234 0.26666 0.88335 0.0
O112 O 0.02856 0.31978 0.85205 0.0
H113 H 0.97573 0.22935 0.92402 0.0
H114 H 0.14062 0.28145 0.86554 0.0
Cu115 Cu 0.68695 0.52878 0.37932 0.0
N116 N 0.69105 0.48443 0.37125 0.0
N117 N 0.69764 0.43005 0.3727 0.0
C118 C 0.69527 0.45828 0.38564 0.0
C119 C 0.69456 0.43899 0.3494 0.0
C120 C 0.69053 0.4724 0.3486 0.0
O121 O 0.67438 0.5335 0.41335 0.0
C122 C 0.75485 0.53834 0.36865 0.0
O123 O 0.75841 0.50979 0.37906 0.0
H124 H 0.69713 0.46004 0.40509 0.0
H125 H 0.68741 0.48704 0.33261 0.0
N126 N 0.65224 0.54519 0.36158 0.0
N127 N 0.62232 0.57571 0.33683 0.0
C128 C 0.65243 0.57012 0.34581 0.0
C129 C 0.62115 0.53456 0.36259 0.0
C130 C 0.60262 0.55331 0.34737 0.0
C131 C 0.66336 0.5606 0.42169 0.0
O132 O 0.66498 0.5867 0.40801 0.0
H133 H 0.67408 0.58422 0.34141 0.0
H134 H 0.6126 0.5146 0.37372 0.0
O135 O 0.72664 0.5517 0.36872 0.0
H136 H 0.69479 0.42254 0.33397 0.0
H137 H 0.57671 0.55039 0.34414 0.0
Cu138 Cu 0.51902 0.23368 0.87663 0.0
N139 N 0.56359 0.23796 0.86963 0.0
N140 N 0.6179 0.24323 0.8723 0.0
C141 C 0.58939 0.23925 0.88461 0.0
C142 C 0.60955 0.24422 0.8488 0.0
C143 C 0.57616 0.24095 0.84724 0.0
O144 O 0.51255 0.21995 0.91006 0.0
C145 C 0.51026 0.30207 0.86875 0.0
O146 O 0.53849 0.30469 0.87974 0.0
H147 H 0.58722 0.23795 0.90407 0.0
H148 H 0.56187 0.24085 0.8309 0.0
N149 N 0.50336 0.19976 0.85726 0.0
N150 N 0.47342 0.17068 0.83124 0.0
C151 C 0.47876 0.2005 0.84128 0.0
C152 C 0.51404 0.16862 0.8573 0.0
C153 C 0.49565 0.15061 0.84129 0.0
C154 C 0.48529 0.20755 0.91665 0.0
O155 O 0.46061 0.20856 0.90166 0.0
H156 H 0.46464 0.22227 0.83755 0.0
H157 H 0.5337 0.15966 0.86837 0.0
O158 O 0.49672 0.274 0.86725 0.0
H159 H 0.62639 0.2468 0.83372 0.0
H160 H 0.49863 0.12479 0.83723 0.0
Cu161 Cu 0.78642 1.0114 0.38416 0.0
N162 N 0.76253 0.04083 0.40353 0.0
N163 N 0.74317 0.09006 0.41469 0.0
C164 C 0.76375 0.07331 0.39989 0.0
C165 C 0.7287 0.06701 0.42855 0.0
C166 C 0.74067 0.03655 0.42157 0.0
O167 O 0.83206 1.0157 0.39458 0.0
C168 C 0.74437 0.02441 0.34668 0.0
O169 O 0.72455 0.02713 0.36539 0.0
H170 H 0.77938 0.08428 0.38631 0.0
H171 H 0.73341 1.01304 0.4287 0.0
N172 N 0.77591 0.96722 0.38731 0.0
N173 N 0.78231 0.91592 0.37337 0.0
C174 C 0.7971 0.94444 0.37904 0.0
C175 C 0.74642 0.95257 0.38727 0.0
C176 C 0.75032 0.92081 0.37872 0.0
C177 C 0.83626 1.00468 0.41587 0.0
O178 O 0.81083 0.99249 0.42739 0.0
H179 H 0.82208 0.95031 0.37402 0.0
H180 H 0.72342 0.96508 0.39043 0.0
O181 O 0.77487 0.01952 0.35032 0.0
H182 H 0.71009 0.07163 0.4422 0.0
H183 H 0.73079 0.90376 0.37477 0.0
H184 H 0.04258 0.37634 0.97225 0.0
H185 H 0.03944 0.4245 0.99817 0.0
H186 H 1.01311 0.48352 0.93721 0.0
H187 H 1.01586 0.43466 0.91077 0.0
H188 H 0.07534 0.48125 0.99598 0.0
H189 H 0.94262 0.50819 0.98738 0.0
H190 H 0.96034 0.46974 0.97756 0.0
H191 H 0.96556 0.50576 0.95954 0.0
C192 C 0.03596 0.39943 0.96416 0.0
C193 C 0.0294 0.40144 0.93927 0.0
C194 C 0.03424 0.42709 0.97913 0.0
C195 C 0.02579 0.45773 0.96983 0.0
C196 C 0.01917 0.46007 0.94497 0.0
H197 H 1.00224 0.64448 0.04745 0.0
H198 H 1.00678 0.60176 1.01653 0.0
C199 C 0.02089 0.43215 0.92982 0.0
C200 C 0.02471 0.48681 0.98646 0.0
H201 H 0.97322 0.54358 1.01228 0.0
C202 C 0.05301 0.49495 0.99944 0.0
C203 C 0.99564 0.5048 0.99107 0.0
C204 C 0.96418 0.49665 0.97835 0.0
C205 C 0.05302 0.52027 1.01689 0.0
C206 C 0.02375 0.53771 0.02195 0.0
C207 C 0.99563 0.53014 1.00856 0.0
C208 C 0.02173 0.56382 0.04105 0.0
C209 C 0.08454 0.52832 0.02957 0.0
C210 C 0.0285 0.55691 0.06535 0.0
C211 C 0.02578 0.58141 0.08325 0.0
C212 C 1.01594 0.61339 0.07732 0.0
C213 C 1.00937 0.62016 0.05291 0.0
C214 C 1.0121 0.59571 0.03509 0.0
H215 H 0.10621 0.51947 0.01911 0.0
H216 H 0.08702 0.55513 0.0326 0.0
H217 H 0.08466 0.51614 0.0474 0.0
H218 H 0.03534 0.53236 0.07057 0.0
H219 H 0.03062 0.57506 0.1018 0.0
H220 H 0.41483 0.54716 0.55968 0.0
H221 H 0.46079 0.54806 0.53159 0.0
H222 H 0.52326 0.58473 0.58792 0.0
H223 H 0.47747 0.5823 0.61673 0.0
H224 H 0.49662 0.59683 0.51531 0.0
H225 H 0.57816 0.51 0.56224 0.0
H226 H 0.53582 0.51563 0.57084 0.0
H227 H 0.56619 0.54477 0.58033 0.0
C228 C 0.43833 0.55493 0.56641 0.0
C229 C 0.44221 0.56418 0.5908 0.0
C230 C 0.4647 0.5557 0.55013 0.0
C231 C 0.49582 0.56588 0.5576 0.0
C232 C 0.49977 0.57596 0.58176 0.0
H233 H 0.64359 0.61483 0.44732 0.0
H234 H 0.60579 0.61726 0.48182 0.0
C235 C 0.47333 0.57498 0.5982 0.0
C236 C 0.52353 0.5665 0.53973 0.0
H237 H 0.60006 0.53597 0.52756 0.0
C238 C 0.51926 0.58357 0.51807 0.0
C239 C 0.553 0.54886 0.54306 0.0
C240 C 0.55856 0.52851 0.56525 0.0
C241 C 0.54327 0.5833 0.49967 0.0
C242 C 0.57307 0.5663 0.5032 0.0
C243 C 0.57746 0.54931 0.5249 0.0
C244 C 0.59922 0.56477 0.48412 0.0
C245 C 0.5358 0.60027 0.47624 0.0
C246 C 0.60987 0.5344 0.47476 0.0
C247 C 0.63208 0.53291 0.45527 0.0
C248 C 0.64403 0.56179 0.44464 0.0
C249 C 0.63463 0.5921 0.45486 0.0
C250 C 0.61275 0.59355 0.4745 0.0
H251 H 0.50908 0.60394 0.47393 0.0
H252 H 0.54756 0.62475 0.47622 0.0
H253 H 0.54534 0.58604 0.4605 0.0
H254 H 0.60005 0.5118 0.48193 0.0
H255 H 0.63873 0.50914 0.44788 0.0
H256 H 0.51679 0.96036 0.05075 0.0
H257 H 0.51756 1.00912 0.02572 0.0
H258 H 0.43796 0.05019 0.0678 0.0
H259 H 0.43702 1.00102 0.09309 0.0
H260 H 0.46725 0.0307 0.99757 0.0
H261 H 0.50258 0.12704 0.0638 0.0
H262 H 0.50756 0.08386 0.06962 0.0
H263 H 0.46789 0.10256 0.0724 0.0
C264 C 0.49938 0.97967 0.05476 0.0
C265 C 0.47659 0.97652 0.07385 0.0
C266 C 0.49999 1.0077 0.04047 0.0
C267 C 0.47798 0.0335 0.04488 0.0
C268 C 0.4556 0.03089 0.06426 0.0
H269 H 0.43093 0.17711 0.93487 0.0
H270 H 0.4281 0.13732 0.96751 0.0
C271 C 0.45503 1.00274 0.07869 0.0
C272 C 0.47743 0.06189 0.02811 0.0
H273 H 0.48885 0.14481 0.0245 0.0
C274 C 0.47189 0.05564 1.00351 0.0
C275 C 0.4838 0.09445 0.03578 0.0
C276 C 0.49108 0.10252 0.06179 0.0
C277 C 0.47253 0.08087 0.98642 0.0
C278 C 0.47841 0.11349 0.99409 0.0
C279 C 0.48409 0.11985 0.01867 0.0
C280 C 0.47931 0.14094 0.97655 0.0
C281 C 0.46763 0.07227 0.96014 0.0
C282 C 0.50877 0.15732 0.97142 0.0
C283 C 0.5105 0.18027 0.95272 0.0
C284 C 0.48273 0.18733 0.93885 0.0
C285 C 0.45288 0.17218 0.945 0.0
C286 C 0.4512 0.1493 0.96365 0.0
H287 H 0.47065 0.0456 0.95659 0.0
H288 H 0.44251 0.07931 0.95483 0.0
H289 H 0.4852 0.08581 0.94849 0.0
H290 H 0.53076 0.15133 0.9812 0.0
H291 H 0.53388 0.19145 0.94852 0.0
H292 H 0.85489 0.96563 0.45243 0.0
H293 H 0.90399 0.96911 0.47681 0.0
H294 H 0.93947 0.04864 0.43307 0.0
H295 H 0.88977 0.04523 0.40823 0.0
H296 H 0.97194 0.96435 0.46313 0.0
H297 H 0.93865 0.0848 0.50448 0.0
H298 H 0.90917 0.05945 0.48903 0.0
H299 H 0.93901 0.08203 0.47201 0.0
C300 C 0.87317 0.98379 0.44778 0.0
C301 C 0.86826 1.00532 0.42842 0.0
C302 C 0.90132 0.98567 0.46177 0.0
C303 C 0.92526 1.00937 0.45703 0.0
C304 C 0.9211 0.03038 0.43725 0.0
H305 H 0.11515 1.01679 0.52783 0.0
H306 H 0.07085 1.01385 0.49866 0.0
C307 C 0.89286 0.02827 0.42295 0.0
C308 C 0.95388 1.01205 0.4734 0.0
H309 H 0.98696 0.05975 0.51801 0.0
C310 C 0.97543 0.98535 0.47496 0.0
C311 C 0.95805 0.03918 0.48917 0.0
C312 C 0.93496 0.068 0.48885 0.0
C313 C 1.00096 0.98503 0.49182 0.0
C314 C 1.00521 1.01221 0.50754 0.0
C315 C 0.9837 0.03894 0.50597 0.0
C316 C 0.03209 1.01342 0.52553 0.0
C317 C 0.02272 0.95525 0.49311 0.0
C318 C 0.02515 1.01437 0.55046 0.0
C319 C 0.05059 1.01607 0.56731 0.0
C320 C 0.08345 1.01737 0.55951 0.0
C321 C 0.09018 1.01619 0.53451 0.0
C322 C 0.06485 1.01425 0.51776 0.0
H323 H 1.0118 0.9337 0.48382 0.0
H324 H 0.04654 0.96069 0.48422 0.0
H325 H 0.02754 0.94875 0.51218 0.0
H326 H 1.00003 1.01385 0.55689 0.0
H327 H 0.04453 1.01726 0.58637 0.0
H328 H 0.12723 0.70908 0.13986 0.0
H329 H 0.18037 0.73613 0.1352 0.0
H330 H 0.17166 0.7754 0.20752 0.0
H331 H 0.11823 0.74916 0.21207 0.0
H332 H 0.19145 0.82193 0.1772 0.0
H333 H 0.26834 0.71214 0.16104 0.0
H334 H 0.23538 0.71489 0.14005 0.0
H335 H 0.22656 0.70939 0.17169 0.0
C336 C 0.13678 0.72312 0.1549 0.0
C337 C 0.11837 0.72672 0.17639 0.0
C338 C 0.16735 0.73852 0.15225 0.0
C339 C 0.18052 0.75752 0.17114 0.0
C340 C 0.16226 0.76087 0.19267 0.0
H341 H 0.36359 0.87226 0.1837 0.0
H342 H 0.31082 0.84576 0.19267 0.0
C343 C 0.13165 0.74569 0.19528 0.0
C344 C 0.21257 0.77498 0.16817 0.0
H345 H 0.29306 0.76376 0.15238 0.0
C346 C 0.21371 0.80911 0.172 0.0
C347 C 0.24185 0.75842 0.16149 0.0
C348 C 0.24313 0.72166 0.15857 0.0
C349 C 0.24284 0.8271 0.16861 0.0
C350 C 0.27183 0.81062 0.16136 0.0
C351 C 0.27084 0.77648 0.15787 0.0
C352 C 0.30309 0.82836 0.15614 0.0
C353 C 0.24217 0.86379 0.17207 0.0
C354 C 0.3164 0.82751 0.13269 0.0
C355 C 0.34634 0.84267 0.12753 0.0
C356 C 0.36411 0.85892 0.14572 0.0
C357 C 0.35056 0.86021 0.16921 0.0
C358 C 0.32034 0.84507 0.17435 0.0
H359 H 0.21679 0.87348 0.17323 0.0
H360 H 0.25484 0.87028 0.18907 0.0
H361 H 0.25526 0.87608 0.15699 0.0
H362 H 0.30366 0.81484 0.11832 0.0
H363 H 0.35584 0.84103 0.10923 0.0
H364 H 0.28606 0.66781 0.71517 0.0
H365 H 0.25986 0.72083 0.70935 0.0
H366 H 0.31922 0.73657 0.64572 0.0
H367 H 0.34599 0.68339 0.65157 0.0
H368 H 0.31493 0.79192 0.67464 0.0
H369 H 0.19089 0.74191 0.65943 0.0
H370 H 0.20835 0.72851 0.68725 0.0
H371 H 0.22704 0.71648 0.65897 0.0
C372 C 0.29372 0.68248 0.69993 0.0
C373 C 0.31815 0.67107 0.68379 0.0
C374 C 0.27843 0.7128 0.69651 0.0
C375 C 0.28691 0.73254 0.67677 0.0
C376 C 0.31196 0.72172 0.66097 0.0
H377 H 0.17283 0.9052 0.63231 0.0
H378 H 0.19884 0.85096 0.63385 0.0
C379 C 0.32732 0.69129 0.66438 0.0
C380 C 0.26998 0.76461 0.67298 0.0
H381 H 0.19436 0.7996 0.66666 0.0
C382 C 0.2886 0.79353 0.67273 0.0
C383 C 0.23561 0.7669 0.67007 0.0
C384 C 0.21431 0.73678 0.66868 0.0
C385 C 0.27378 0.82454 0.67052 0.0
C386 C 0.23925 0.82693 0.66887 0.0
C387 C 0.22074 0.79795 0.66824 0.0
C388 C 0.22201 0.85929 0.66831 0.0
C389 C 0.29537 0.8545 0.66981 0.0
C390 C 0.2254 0.88177 0.68747 0.0
C391 C 0.21053 0.91266 0.68667 0.0
C392 C 0.19161 0.92196 0.66674 0.0
C393 C 0.18717 0.89896 0.64794 0.0
C394 C 0.20213 0.86793 0.64877 0.0
H395 H 0.3208 0.84823 0.66416 0.0
H396 H 0.28563 0.87307 0.65724 0.0
H397 H 0.29634 0.86564 0.68814 0.0
H398 H 0.23985 0.87551 0.70305 0.0
H399 H 0.21439 0.9295 0.70159 0.0
H400 H 0.66858 0.27646 0.85249 0.0
H401 H 0.72447 0.2799 0.86728 0.0
H402 H 0.69765 0.22145 0.92883 0.0
H403 H 0.64139 0.21738 0.91382 0.0
H404 H 0.7459 0.30458 0.91414 0.0
H405 H 0.77878 0.17374 0.8973 0.0
H406 H 0.7443 0.19275 0.88285 0.0
H407 H 0.74196 0.18264 0.91426 0.0
C408 C 0.67451 0.26408 0.86907 0.0
C409 C 0.65053 0.24635 0.88183 0.0
C410 C 0.70646 0.26627 0.87759 0.0
C411 C 0.7153 0.25065 0.89899 0.0
C412 C 0.6914 0.23337 0.91211 0.0
H413 H 0.92181 0.238 0.94467 0.0
H414 H 0.86198 0.23106 0.94527 0.0
C415 C 0.65923 0.2313 0.90362 0.0
C416 C 0.74969 0.25276 0.9072 0.0
H417 H 0.8209 0.20907 0.90955 0.0
C418 C 0.76223 0.28362 0.91348 0.0
C419 C 0.77084 0.22532 0.90656 0.0
C420 C 0.75854 0.19168 0.89979 0.0
C421 C 0.7956 0.28804 0.91825 0.0
C422 C 0.81722 0.26102 0.91607 0.0
C423 C 0.80438 0.2298 0.91109 0.0
C424 C 0.85334 0.26535 0.91645 0.0
C425 C 0.80744 0.3218 0.92523 0.0
C426 C 0.86838 0.28635 0.89978 0.0
C427 C 0.90227 0.29037 0.89945 0.0
C428 C 0.92214 0.27321 0.91563 0.0
C429 C 0.90717 0.25161 0.93204 0.0
C430 C 0.87303 0.2477 0.93244 0.0
H431 H 0.78769 0.33624 0.93427 0.0
H432 H 0.82873 0.32057 0.93748 0.0
H433 H 0.81494 0.33513 0.9087 0.0
H434 H 0.8539 0.29934 0.88669 0.0
H435 H 0.91292 0.30639 0.88605 0.0
H436 H 0.72582 0.37932 0.34841 0.0
H437 H 0.73221 0.3232 0.36215 0.0
H438 H 0.68876 0.34953 0.4309 0.0
H439 H 0.68131 0.40592 0.41695 0.0
H440 H 0.76702 0.29989 0.40159 0.0
H441 H 0.6345 0.26963 0.40955 0.0
H442 H 0.64904 0.30515 0.39349 0.0
H443 H 0.64827 0.3052 0.4259 0.0
C444 C 0.71723 0.37325 0.36636 0.0
C445 C 0.70267 0.39718 0.38144 0.0
C446 C 0.72115 0.34112 0.37427 0.0
C447 C 0.71056 0.33201 0.39742 0.0
C448 C 0.69661 0.35587 0.4128 0.0
H449 H 0.71954 0.12848 0.45149 0.0
H450 H 0.71132 0.18814 0.4509 0.0
C451 C 0.69268 0.38819 0.40489 0.0
C452 C 0.71456 0.29744 0.40511 0.0
H453 H 0.67194 0.22732 0.41738 0.0
C454 C 0.74623 0.28413 0.40531 0.0
C455 C 0.68744 0.27691 0.41011 0.0
C456 C 0.65282 0.28973 0.40964 0.0
C457 C 0.75146 0.2507 0.40956 0.0
C458 C 0.72429 0.22988 0.41341 0.0
C459 C 0.6927 0.24338 0.41439 0.0
C460 C 0.72814 0.19373 0.41401 0.0
C461 C 0.78605 0.23776 0.40942 0.0
C462 C 0.73949 0.17709 0.39332 0.0
C463 C 0.74394 0.14321 0.39353 0.0
C464 C 0.73719 0.125 0.41448 0.0
C465 C 0.72495 0.14165 0.43506 0.0
C466 C 0.72037 0.17574 0.43479 0.0
H467 H 0.80406 0.25754 0.41305 0.0
H468 H 0.78904 0.21826 0.42307 0.0
H469 H 0.79179 0.22709 0.39136 0.0
H470 H 0.7449 0.19038 0.37691 0.0
H471 H 0.75245 0.13132 0.3771 0.0
H472 H 0.753 0.58956 0.33675 0.0
H473 H 0.79618 0.60678 0.30857 0.0
H474 H 0.86186 0.53585 0.33887 0.0
H475 H 0.81871 0.51804 0.36671 0.0
H476 H 0.85899 0.63116 0.31303 0.0
H477 H 0.86174 0.50909 0.26814 0.0
H478 H 0.8301 0.52083 0.28946 0.0
H479 H 0.86951 0.5079 0.29995 0.0
C480 C 0.77674 0.57787 0.33764 0.0
C481 C 0.7822 0.55214 0.35388 0.0
C482 C 0.80145 0.58774 0.32147 0.0
C483 C 0.83213 0.57213 0.32117 0.0
C484 C 0.83818 0.54772 0.33828 0.0
H485 H 0.99967 0.64118 0.23256 0.0
H486 H 0.96549 0.62436 0.26708 0.0
C487 C 0.81348 0.5377 0.35433 0.0
C488 C 0.85717 0.58038 0.30232 0.0
H489 H 0.90116 0.5475 0.25509 0.0
C490 C 0.86833 0.61285 0.30043 0.0
C491 C 0.86909 0.5566 0.28561 0.0
C492 C 0.85682 0.52173 0.28566 0.0
C493 C 0.89096 0.62213 0.28234 0.0
C494 C 0.90324 0.5982 0.26591 0.0
C495 C 0.89214 0.56576 0.26787 0.0
C496 C 0.92541 0.60669 0.24529 0.0
C497 C 0.90063 0.65771 0.28045 0.0
C498 C 0.91498 0.60112 0.22154 0.0
C499 C 0.93452 0.61038 0.20188 0.0
C500 C 0.96517 0.62528 0.20539 0.0
C501 C 0.97629 0.62963 0.22918 0.0
C502 C 0.95658 0.62041 0.24895 0.0
H503 H 0.88384 0.67396 0.29098 0.0
H504 H 0.92567 0.66097 0.28762 0.0
H505 H 0.90083 0.66569 0.26133 0.0
H506 H 0.89119 0.5904 0.21819 0.0
H507 H 0.92514 0.60659 0.18385 0.0
H508 H 0.40617 0.55264 0.74269 0.0
H509 H 0.42472 0.51865 0.77637 0.0
H510 H 0.46143 0.44652 0.72558 0.0
H511 H 0.44354 0.48022 0.69215 0.0
H512 H 0.40443 0.45516 0.78717 0.0
H513 H 0.53818 0.45691 0.77094 0.0
H514 H 0.51087 0.48586 0.75714 0.0
H515 H 0.51597 0.44541 0.74442 0.0
C516 C 0.41891 0.52991 0.73874 0.0
C517 C 0.42356 0.51929 0.71469 0.0
C518 C 0.42927 0.51038 0.758 0.0
C519 C 0.44483 0.48013 0.75355 0.0
C520 C 0.45012 0.46998 0.72955 0.0
H521 H 0.45859 0.30325 0.83739 0.0
H522 H 0.44145 0.34859 0.81184 0.0
C523 C 0.43971 0.48931 0.7104 0.0
C524 C 0.45397 0.45803 0.77372 0.0
H525 H 0.51768 0.4135 0.79577 0.0
C526 C 0.42928 0.44638 0.78927 0.0
C527 C 0.48643 0.44675 0.7767 0.0
C528 C 0.51444 0.45963 0.76157 0.0
C529 C 0.43593 0.42284 0.80702 0.0
C530 C 0.46806 0.41015 0.80905 0.0
C531 C 0.49296 0.42283 0.79413 0.0
C532 C 0.47646 0.38333 0.8261 0.0
C533 C 0.40845 0.41188 0.82345 0.0
C534 C 0.50205 0.38745 0.84259 0.0
C535 C 0.5121 0.36144 0.8571 0.0
C536 C 0.49689 0.33058 0.85543 0.0
C537 C 0.47068 0.32672 0.83936 0.0
C538 C 0.46072 0.35275 0.82477 0.0
H539 H 0.38882 0.43066 0.82481 0.0
H540 H 0.39748 0.38914 0.81597 0.0
H541 H 0.41744 0.40666 0.84187 0.0
H542 H 0.51469 0.4107 0.84395 0.0
H543 H 0.53238 0.36536 0.86921 0.0
H544 H 0.50839 0.93606 0.21515 0.0
H545 H 0.54957 0.95709 0.24343 0.0
H546 H 0.61933 0.96518 0.18486 0.0
H547 H 0.57865 0.94458 0.15669 0.0
H548 H 0.61185 0.92896 0.25296 0.0
H549 H 0.62495 0.0553 0.2181 0.0
H550 H 0.59048 0.02948 0.21087 0.0
H551 H 0.629 0.02378 0.19542 0.0
C552 C 0.53234 0.9428 0.20827 0.0
C553 C 0.54011 0.93871 0.18362 0.0
C554 C 0.55591 0.95466 0.22446 0.0
C555 C 0.5875 0.96306 0.21625 0.0
C556 C 0.59505 0.95943 0.19161 0.0
H557 H 0.76027 0.98207 0.3094 0.0
H558 H 0.72485 0.96765 0.27521 0.0
C559 C 0.57169 0.94746 0.17552 0.0
C560 C 0.61315 0.97425 0.23342 0.0
H561 H 0.66448 0.03807 0.24644 0.0
C562 C 0.62333 0.95282 0.25156 0.0
C563 C 0.62813 1.00543 0.23162 0.0
C564 C 0.61745 0.03 0.21311 0.0
C565 C 0.64811 0.96163 0.26785 0.0
C566 C 0.66351 0.9926 0.2658 0.0
C567 C 0.65315 1.01412 0.24775 0.0
C568 C 0.688 1.00424 0.28372 0.0
C569 C 0.65699 0.93806 0.28757 0.0
C570 C 0.68011 0.03078 0.29895 0.0
C571 C 0.70033 0.03912 0.31823 0.0
C572 C 0.72916 0.02141 0.3226 0.0
C573 C 0.73848 0.99647 0.30627 0.0
C574 C 0.71798 0.9879 0.28697 0.0
H575 H 0.63863 0.91817 0.28953 0.0
H576 H 0.68101 0.92665 0.28319 0.0
H577 H 0.65919 0.95109 0.30516 0.0
H578 H 0.65728 0.04389 0.29677 0.0
H579 H 0.69243 0.05834 0.3306 0.0
H580 H 0.07102 0.29404 0.82185 0.0
H581 H 0.08914 0.25558 0.7903 0.0
H582 H 0.9899 0.22173 0.78201 0.0
H583 H 0.97188 0.25933 0.81408 0.0
H584 H 0.02908 0.17128 0.78574 0.0
H585 H 0.084 0.25489 0.71847 0.0
H586 H 0.10172 0.25976 0.74776 0.0
H587 H 0.05924 0.26961 0.74345 0.0
C588 C 0.05289 0.27908 0.81285 0.0
C589 C 0.01989 0.28002 0.82041 0.0
C590 C 0.06332 0.25698 0.79475 0.0
C591 C 0.04092 0.23575 0.78346 0.0
C592 C 1.00777 0.23769 0.79036 0.0
H593 H 0.08291 0.11982 0.65428 0.0
H594 H 0.06301 0.15922 0.68442 0.0
C595 C 0.99741 0.25943 0.80862 0.0
C596 C 0.05209 0.21009 0.76566 0.0
H597 H 0.09531 0.19805 0.71309 0.0
C598 C 0.04342 0.17722 0.76978 0.0
C599 C 0.07061 0.21761 0.74466 0.0
C600 C 0.07916 0.25241 0.73816 0.0
C601 C 0.05269 0.15187 0.75367 0.0
C602 C 0.0721 0.15925 0.73307 0.0
C603 C 0.0807 0.19213 0.72892 0.0
C604 C 0.0828 0.13364 0.71506 0.0
C605 C 0.04068 0.1176 0.75861 0.0
C606 C 0.10036 0.10561 0.72204 0.0
C607 C 0.11129 0.08254 0.70473 0.0
C608 C 0.10551 0.08738 0.68002 0.0
C609 C 0.08779 0.11528 0.67314 0.0
C610 C 0.07648 0.13798 0.6904 0.0
H611 H 0.01859 0.11775 0.77048 0.0
H612 H 0.03472 0.10441 0.7416 0.0
H613 H 0.06009 0.10377 0.76798 0.0
H614 H 0.1064 0.10194 0.7408 0.0
H615 H 0.12535 0.06163 0.71061 0.0
H616 H 0.11192 0.38597 0.84882 0.0
H617 H 0.14689 0.41541 0.82088 0.0
H618 H 0.22593 0.34839 0.83475 0.0
H619 H 0.19055 0.31831 0.86316 0.0
H620 H 0.20486 0.44726 0.82786 0.0
H621 H 0.22022 0.34539 0.76122 0.0
H622 H 0.19018 0.3441 0.78532 0.0
H623 H 0.23258 0.33674 0.79154 0.0
C624 C 0.13688 0.37766 0.84646 0.0
C625 C 0.14852 0.34987 0.8586 0.0
C626 C 0.15683 0.39448 0.83021 0.0
C627 C 0.18894 0.38401 0.8255 0.0
C628 C 0.20102 0.3566 0.83778 0.0
H629 H 0.32528 0.4763 0.72249 0.0
H630 H 0.3027 0.44173 0.75458 0.0
C631 C 0.18089 0.33955 0.85409 0.0
C632 C 0.20913 0.40216 0.80758 0.0
H633 H 0.24495 0.39583 0.75162 0.0
C634 C 0.21386 0.43592 0.81129 0.0
C635 C 0.22087 0.38737 0.78593 0.0
C636 C 0.21558 0.35147 0.78055 0.0
C637 C 0.22923 0.45538 0.79376 0.0
C638 C 0.24001 0.4408 0.77185 0.0
C639 C 0.23651 0.40688 0.76844 0.0
C640 C 0.25353 0.4608 0.75189 0.0
C641 C 0.23348 0.49154 0.79863 0.0
C642 C 0.23322 0.48254 0.73951 0.0
C643 C 0.24599 0.50225 0.72116 0.0
C644 C 0.27939 0.5007 0.71489 0.0
C645 C 0.29955 0.47841 0.72709 0.0
C646 C 0.28668 0.45852 0.74533 0.0
H647 H 0.23048 0.49765 0.81813 0.0
H648 H 0.25799 0.49992 0.79243 0.0
H649 H 0.21479 0.50535 0.78849 0.0
H650 H 0.20748 0.48444 0.74421 0.0
H651 H 0.22985 0.51926 0.7123 0.0
H652 H 0.66063 0.60407 0.30249 0.0
H653 H 0.64388 0.64481 0.27288 0.0
H654 H 0.54597 0.64403 0.30266 0.0
H655 H 0.56247 0.60349 0.33227 0.0
H656 H 0.54737 0.63804 0.25305 0.0
H657 H 0.62449 0.74235 0.28317 0.0
H658 H 0.64656 0.70509 0.27699 0.0
H659 H 0.61748 0.70668 0.30155 0.0
C660 C 0.63565 0.61289 0.30295 0.0
C661 C 0.61289 0.60043 0.31977 0.0
C662 C 0.62613 0.63621 0.28602 0.0
C663 C 0.59376 0.64773 0.28574 0.0
C664 C 0.57107 0.63548 0.30256 0.0
H665 H 0.50839 0.81338 0.21352 0.0
H666 H 0.53187 0.77499 0.24214 0.0
C667 C 0.58053 0.61215 0.31941 0.0
C668 C 0.583 0.6716 0.26738 0.0
H669 H 0.59507 0.74943 0.24691 0.0
C670 C 0.55782 0.66239 0.25168 0.0
C671 C 0.59646 0.70346 0.26581 0.0
C672 C 0.62254 0.71521 0.28289 0.0
C673 C 0.54573 0.68411 0.23442 0.0
C674 C 0.55961 0.71575 0.23251 0.0
C675 C 0.58472 0.72504 0.24826 0.0
C676 C 0.54744 0.7399 0.21486 0.0
C677 C 0.51759 0.67329 0.21883 0.0
C678 C 0.54912 0.73331 0.18997 0.0
C679 C 0.53574 0.75525 0.17353 0.0
C680 C 0.52062 0.78437 0.18164 0.0
C681 C 0.52004 0.7914 0.20657 0.0
C682 C 0.53336 0.7694 0.223 0.0
H683 H 0.5047 0.65171 0.22647 0.0
H684 H 0.4996 0.69342 0.21666 0.0
H685 H 0.52709 0.66633 0.20065 0.0
H686 H 0.56054 0.71102 0.18326 0.0
H687 H 0.53716 0.74937 0.15445 0.0
H688 H 0.4453 0.11117 0.82493 0.0
H689 H 0.40543 0.09557 0.79442 0.0
H690 H 0.40573 0.19424 0.76729 0.0
H691 H 0.4458 0.2101 0.79784 0.0
H692 H 0.34299 0.16781 0.77189 0.0
H693 H 0.4259 0.08228 0.72264 0.0
H694 H 0.42217 0.07355 0.75426 0.0
H695 H 0.44046 0.11144 0.74473 0.0
C696 C 0.43717 0.12952 0.81235 0.0
C697 C 0.44906 0.16182 0.81368 0.0
C698 C 0.41434 0.12056 0.79492 0.0
C699 C 0.4031 0.14359 0.77829 0.0
C700 C 0.41424 0.17605 0.77988 0.0
H701 H 0.2997 0.08539 0.64786 0.0
H702 H 0.33797 0.11022 0.67633 0.0
C703 C 0.43705 0.18509 0.7974 0.0
C704 C 0.37968 0.13365 0.7593 0.0
H705 H 0.36944 0.07967 0.71257 0.0
C706 C 0.34881 0.14871 0.75879 0.0
C707 C 0.38752 0.1091 0.74199 0.0
C708 C 0.42092 0.09336 0.74071 0.0
C709 C 0.32518 0.13915 0.74187 0.0
C710 C 0.3325 0.11348 0.72532 0.0
C711 C 0.36372 0.09913 0.7254 0.0
C712 C 0.30809 0.10063 0.70798 0.0
C713 C 0.29274 0.15678 0.74177 0.0
C714 C 0.27856 0.08701 0.71628 0.0
C715 C 0.25665 0.0728 0.70004 0.0
C716 C 0.26402 0.07159 0.67517 0.0
C717 C 0.29346 0.08561 0.6669 0.0
C718 C 0.31528 0.09994 0.68314 0.0
H719 H 0.29454 0.18148 0.75025 0.0
H720 H 0.28353 0.15949 0.7231 0.0
H721 H 0.27454 0.14245 0.75228 0.0
H722 H 0.27286 0.08649 0.73542 0.0
H723 H 0.23452 0.06174 0.70709 0.0
H724 H 0.96578 0.8172 0.20673 0.0
H725 H 0.93015 0.83829 0.23901 0.0
H726 H 0.88796 0.74222 0.24776 0.0
H727 H 0.92386 0.7209 0.21567 0.0
H728 H 0.86465 0.84141 0.24266 0.0
H729 H 0.91214 0.76399 0.31638 0.0
H730 H 0.93248 0.76694 0.28741 0.0
H731 H 0.89704 0.74125 0.29096 0.0
C732 C 0.94883 0.80058 0.21541 0.0
C733 C 0.94784 0.76732 0.20865 0.0
C734 C 0.92853 0.81264 0.23396 0.0
C735 C 0.90671 0.79176 0.24615 0.0
C736 C 0.90517 0.75866 0.23912 0.0
H737 H 0.7527 0.87947 0.3384 0.0
H738 H 0.78011 0.8445 0.30824 0.0
C739 C 0.92566 0.74652 0.22069 0.0
C740 C 0.88533 0.80502 0.26588 0.0
H741 H 0.86689 0.79806 0.32601 0.0
C742 C 0.86504 0.83183 0.26086 0.0
C743 C 0.88599 0.79264 0.28969 0.0
C744 C 0.90828 0.76482 0.29656 0.0
C745 C 0.84584 0.84693 0.27897 0.0
C746 C 0.84629 0.83443 0.30274 0.0
C747 C 0.86624 0.80735 0.30773 0.0
C748 C 0.82851 0.85103 0.32301 0.0
C749 C 0.82629 0.87701 0.27267 0.0
C750 C 0.84623 0.86461 0.34221 0.0
C751 C 0.83055 0.88414 0.35967 0.0
C752 C 0.7968 0.89057 0.35833 0.0
C753 C 0.77867 0.87501 0.34006 0.0
C754 C 0.7944 0.85534 0.3226 0.0
H755 H 0.83432 0.88763 0.25518 0.0
H756 H 0.80009 0.8703 0.27114 0.0
H757 H 0.82848 0.89615 0.28694 0.0
H758 H 0.87251 0.8614 0.34307 0.0
H759 H 0.84509 0.89539 0.37371 0.0
loop_
_geom_bond_atom_site_label_1
_geom_bond_atom_site_label_2
_geom_bond_distance
_geom_bond_site_symmetry_2
_ccdc_geom_bond_type
Cu0 N1 1.999 . S
Cu0 O6 1.974 . S
Cu0 N11 1.985 1_655 S
Cu0 O20 1.959 1_655 S
N1 Cu0 1.999 . S
N1 C3 1.263 . S
N1 C5 1.389 . S
N2 C3 1.358 . S
N2 C4 1.400 . S
C3 N1 1.263 . S
C3 N2 1.358 . S
C3 H9 0.930 . S
C4 N2 1.400 . S
C4 C5 1.351 . S
C4 H21 0.930 . S
C5 N1 1.389 . S
C5 C4 1.351 . S
C5 H10 0.930 1_655 S
O6 Cu0 1.974 . S
O6 C16 1.282 . S
C7 O8 1.261 . S
C7 O20 1.251 . S
O8 C7 1.261 . S
H9 C3 0.930 . S
H10 C5 0.930 1_455 S
N11 Cu0 1.985 1_455 S
N11 C13 1.333 . S
N11 C14 1.391 1_455 S
N12 C13 1.345 . S
N12 C15 1.336 1_455 S
C13 N11 1.333 . S
C13 N12 1.345 . S
C13 H18 0.930 . S
C14 N11 1.391 1_655 S
C14 C15 1.346 . S
C14 H19 0.930 . S
C15 N12 1.336 1_655 S
C15 C14 1.346 . S
C15 H22 0.929 . S
C16 O6 1.282 . S
C16 O17 1.216 . S
O17 C16 1.216 . S
H18 C13 0.930 . S
H19 C14 0.930 . S
O20 Cu0 1.959 1_455 S
O20 C7 1.251 . S
H21 C4 0.930 . S
H22 C15 0.929 . S
Cu23 N24 1.999 . S
Cu23 O29 1.974 . S
Cu23 N34 1.985 . S
Cu23 O43 1.959 . S
N24 Cu23 1.999 . S
N24 C26 1.263 . S
N24 C28 1.389 . S
N25 C26 1.358 . S
N25 C27 1.400 . S
C26 N24 1.263 . S
C26 N25 1.358 . S
C26 H32 0.930 . S
C27 N25 1.400 . S
C27 C28 1.351 . S
C27 H44 0.930 . S
C28 N24 1.389 . S
C28 C27 1.351 . S
C28 H33 0.930 . S
O29 Cu23 1.974 . S
O29 C39 1.282 . S
C30 O31 1.261 . S
C30 O43 1.251 . S
O31 C30 1.261 . S
H32 C26 0.930 . S
H33 C28 0.930 . S
N34 Cu23 1.985 . S
N34 C36 1.335 . S
N34 C37 1.390 . S
N35 C36 1.345 . S
N35 C38 1.336 . S
C36 N34 1.335 . S
C36 N35 1.345 . S
C36 H41 0.930 . S
C37 N34 1.390 . S
C37 C38 1.346 . S
C37 H42 0.930 . S
C38 N35 1.336 . S
C38 C37 1.346 . S
C38 H45 0.929 . S
C39 O29 1.282 . S
C39 O40 1.216 . S
O40 C39 1.216 . S
H41 C36 0.930 . S
H42 C37 0.930 . S
O43 Cu23 1.959 . S
O43 C30 1.251 . S
H44 C27 0.930 . S
H45 C38 0.929 . S
Cu46 N47 1.999 . S
Cu46 O52 1.974 . S
Cu46 N57 1.985 . S
Cu46 O66 1.959 . S
N47 Cu46 1.999 . S
N47 C49 1.263 . S
N47 C51 1.389 . S
N48 C49 1.358 . S
N48 C50 1.400 . S
C49 N47 1.263 . S
C49 N48 1.358 . S
C49 H55 0.930 . S
C50 N48 1.400 . S
C50 C51 1.351 . S
C50 H67 0.930 . S
C51 N47 1.389 . S
C51 C50 1.351 . S
C51 H56 0.930 . S
O52 Cu46 1.974 . S
O52 C62 1.282 . S
C53 O54 1.261 . S
C53 O66 1.251 . S
O54 C53 1.261 . S
H55 C49 0.930 . S
H56 C51 0.930 . S
N57 Cu46 1.985 . S
N57 C59 1.335 . S
N57 C60 1.390 . S
N58 C59 1.345 . S
N58 C61 1.336 . S
C59 N57 1.335 . S
C59 N58 1.345 . S
C59 H64 0.930 . S
C60 N57 1.390 . S
C60 C61 1.346 . S
C60 H65 0.930 . S
C61 N58 1.336 . S
C61 C60 1.346 . S
C61 H68 0.929 . S
C62 O52 1.282 . S
C62 O63 1.216 . S
O63 C62 1.216 . S
H64 C59 0.930 . S
H65 C60 0.930 . S
O66 Cu46 1.959 . S
O66 C53 1.251 . S
H67 C50 0.930 . S
H68 C61 0.929 . S
Cu69 N70 1.999 . S
Cu69 O75 1.974 . S
Cu69 N80 1.985 1_545 S
Cu69 O89 1.959 1_545 S
N70 Cu69 1.999 . S
N70 C72 1.263 . S
N70 C74 1.389 . S
N71 C72 1.358 . S
N71 C73 1.400 . S
C72 N70 1.263 . S
C72 N71 1.358 . S
C72 H78 0.930 . S
C73 N71 1.400 . S
C73 C74 1.351 . S
C73 H90 0.930 . S
C74 N70 1.389 . S
C74 C73 1.351 . S
C74 H79 0.930 1_545 S
O75 Cu69 1.974 . S
O75 C85 1.282 . S
C76 O77 1.261 . S
C76 O89 1.251 . S
O77 C76 1.261 . S
H78 C72 0.930 . S
H79 C74 0.930 1_565 S
N80 Cu69 1.985 1_565 S
N80 C82 1.336 . S
N80 C83 1.390 1_565 S
N81 C82 1.345 . S
N81 C84 1.316 1_565 S
C82 N80 1.336 . S
C82 N81 1.345 . S
C82 H87 0.930 . S
C83 N80 1.390 1_545 S
C83 C84 1.360 . S
C83 H88 0.930 . S
C84 N81 1.316 1_545 S
C84 C83 1.360 . S
C84 H91 0.937 . S
C85 O75 1.282 . S
C85 O86 1.216 . S
O86 C85 1.216 . S
H87 C82 0.930 . S
H88 C83 0.930 . S
O89 Cu69 1.959 1_565 S
O89 C76 1.251 . S
H90 C73 0.930 . S
H91 C84 0.937 . S
Cu92 N93 1.999 . S
Cu92 O98 1.974 . S
Cu92 N103 1.985 1_655 S
Cu92 O112 1.958 1_655 S
N93 Cu92 1.999 . S
N93 C95 1.263 . S
N93 C97 1.389 . S
N94 C95 1.358 . S
N94 C96 1.400 . S
C95 N93 1.263 . S
C95 N94 1.358 . S
C95 H101 0.930 . S
C96 N94 1.400 . S
C96 C97 1.351 . S
C96 H113 0.930 . S
C97 N93 1.389 . S
C97 C96 1.351 . S
C97 H102 0.930 . S
O98 Cu92 1.974 . S
O98 C108 1.282 . S
C99 O100 1.261 . S
C99 O112 1.254 . S
O100 C99 1.261 . S
H101 C95 0.930 . S
H102 C97 0.930 . S
N103 Cu92 1.985 1_455 S
N103 C105 1.335 . S
N103 C106 1.390 . S
N104 C105 1.345 . S
N104 C107 1.336 . S
C105 N103 1.335 . S
C105 N104 1.345 . S
C105 H110 0.930 . S
C106 N103 1.390 . S
C106 C107 1.346 . S
C106 H111 0.930 . S
C107 N104 1.336 . S
C107 C106 1.346 . S
C107 H114 0.929 . S
C108 O98 1.282 . S
C108 O109 1.216 1_655 S
O109 C108 1.216 1_455 S
H110 C105 0.930 . S
H111 C106 0.930 . S
O112 Cu92 1.958 1_455 S
O112 C99 1.254 . S
H113 C96 0.930 . S
H114 C107 0.929 . S
Cu115 N116 1.999 . S
Cu115 O121 1.974 . S
Cu115 N126 1.985 . S
Cu115 O135 1.959 . S
N116 Cu115 1.999 . S
N116 C118 1.263 . S
N116 C120 1.389 . S
N117 C118 1.358 . S
N117 C119 1.400 . S
C118 N116 1.263 . S
C118 N117 1.358 . S
C118 H124 0.930 . S
C119 N117 1.400 . S
C119 C120 1.351 . S
C119 H136 0.930 . S
C120 N116 1.389 . S
C120 C119 1.351 . S
C120 H125 0.930 . S
O121 Cu115 1.974 . S
O121 C131 1.282 . S
C122 O123 1.261 . S
C122 O135 1.251 . S
O123 C122 1.261 . S
H124 C118 0.930 . S
H125 C120 0.930 . S
N126 Cu115 1.985 . S
N126 C128 1.335 . S
N126 C129 1.390 . S
N127 C128 1.345 . S
N127 C130 1.336 . S
C128 N126 1.335 . S
C128 N127 1.345 . S
C128 H133 0.930 . S
C129 N126 1.390 . S
C129 C130 1.346 . S
C129 H134 0.930 . S
C130 N127 1.336 . S
C130 C129 1.346 . S
C130 H137 0.929 . S
C131 O121 1.282 . S
C131 O132 1.216 . S
O132 C131 1.216 . S
H133 C128 0.930 . S
H134 C129 0.930 . S
O135 Cu115 1.959 . S
O135 C122 1.251 . S
H136 C119 0.930 . S
H137 C130 0.929 . S
Cu138 N139 1.999 . S
Cu138 O144 1.974 . S
Cu138 N149 1.985 . S
Cu138 O158 1.959 . S
N139 Cu138 1.999 . S
N139 C141 1.263 . S
N139 C143 1.389 . S
N140 C141 1.358 . S
N140 C142 1.400 . S
C141 N139 1.263 . S
C141 N140 1.358 . S
C141 H147 0.930 . S
C142 N140 1.400 . S
C142 C143 1.351 . S
C142 H159 0.930 . S
C143 N139 1.389 . S
C143 C142 1.351 . S
C143 H148 0.930 . S
O144 Cu138 1.974 . S
O144 C154 1.282 . S
C145 O146 1.261 . S
C145 O158 1.251 . S
O146 C145 1.261 . S
H147 C141 0.930 . S
H148 C143 0.930 . S
N149 Cu138 1.985 . S
N149 C151 1.335 . S
N149 C152 1.390 . S
N150 C151 1.345 . S
N150 C153 1.336 . S
C151 N149 1.335 . S
C151 N150 1.345 . S
C151 H156 0.930 . S
C152 N149 1.390 . S
C152 C153 1.346 . S
C152 H157 0.930 . S
C153 N150 1.336 . S
C153 C152 1.346 . S
C153 H160 0.929 . S
C154 O144 1.282 . S
C154 O155 1.216 . S
O155 C154 1.216 . S
H156 C151 0.930 . S
H157 C152 0.930 . S
O158 Cu138 1.959 . S
O158 C145 1.251 . S
H159 C142 0.930 . S
H160 C153 0.929 . S
Cu161 N162 1.999 . S
Cu161 O167 1.974 . S
Cu161 N172 1.985 1_545 S
Cu161 O181 1.957 1_545 S
N162 Cu161 1.999 . S
N162 C164 1.263 . S
N162 C166 1.389 . S
N163 C164 1.358 . S
N163 C165 1.400 . S
C164 N162 1.263 . S
C164 N163 1.358 . S
C164 H170 0.930 . S
C165 N163 1.400 . S
C165 C166 1.351 . S
C165 H182 0.930 . S
C166 N162 1.389 . S
C166 C165 1.351 . S
C166 H171 0.930 . S
O167 Cu161 1.974 . S
O167 C177 1.282 . S
C168 O169 1.261 . S
C168 O181 1.258 . S
O169 C168 1.261 . S
H170 C164 0.930 . S
H171 C166 0.930 . S
N172 Cu161 1.985 1_565 S
N172 C174 1.335 . S
N172 C175 1.390 . S
N173 C174 1.345 . S
N173 C176 1.336 . S
C174 N172 1.335 . S
C174 N173 1.345 . S
C174 H179 0.930 . S
C175 N172 1.390 . S
C175 C176 1.346 . S
C175 H180 0.930 . S
C176 N173 1.336 . S
C176 C175 1.346 . S
C176 H183 0.929 . S
C177 O167 1.282 . S
C177 O178 1.216 1_545 S
O178 C177 1.216 1_565 S
H179 C174 0.930 . S
H180 C175 0.930 . S
O181 Cu161 1.957 1_565 S
O181 C168 1.258 . S
H182 C165 0.930 . S
H183 C176 0.929 . S
H184 C192 0.929 . S
H185 C194 0.930 . S
H186 C196 0.930 . S
H187 C199 0.929 . S
H188 C202 0.930 . S
H189 C204 0.960 . S
H190 C204 0.960 . S
H191 C204 0.960 . S
C192 H184 0.929 . S
C192 C193 1.377 . S
C192 C194 1.384 . S
C193 C192 1.377 . S
C193 C199 1.390 . S
C194 H185 0.930 . S
C194 C192 1.384 . S
C194 C195 1.372 . S
C195 C194 1.372 . S
C195 C196 1.400 . S
C195 C200 1.490 1_655 S
C196 H186 0.930 . S
C196 C195 1.400 . S
C196 C199 1.386 . S
H197 C213 0.930 . S
H198 C214 0.931 . S
C199 H187 0.929 . S
C199 C193 1.390 . S
C199 C196 1.386 . S
C200 C195 1.490 1_455 S
C200 C202 1.395 . S
C200 C203 1.403 1_455 S
H201 C207 0.930 . S
C202 H188 0.930 . S
C202 C200 1.395 . S
C202 C205 1.403 1_556 S
C203 C200 1.403 1_655 S
C203 C204 1.524 . S
C203 C207 1.400 . S
C204 H189 0.960 . S
C204 H190 0.960 . S
C204 H191 0.960 . S
C204 C203 1.524 . S
C205 C202 1.403 1_554 S
C205 C206 1.392 . S
C205 C209 1.495 . S
C206 C205 1.392 . S
C206 C207 1.385 1_454 S
C206 C208 1.478 . S
C207 H201 0.930 . S
C207 C203 1.400 . S
C207 C206 1.385 1_656 S
C208 C206 1.478 . S
C208 C210 1.381 . S
C208 C214 1.383 . S
C209 C205 1.495 . S
C209 H215 0.959 . S
C209 H216 0.961 . S
C209 H217 0.960 . S
C210 C208 1.381 . S
C210 C211 1.394 . S
C210 H218 0.930 . S
C211 C210 1.394 . S
C211 C212 1.383 . S
C211 H219 0.929 . S
C212 C211 1.383 . S
C212 C213 1.377 . S
C213 H197 0.930 . S
C213 C212 1.377 . S
C213 C214 1.379 . S
C214 H198 0.931 . S
C214 C208 1.383 . S
C214 C213 1.379 . S
H215 C209 0.959 . S
H216 C209 0.961 . S
H217 C209 0.960 . S
H218 C210 0.930 . S
H219 C211 0.929 . S
H220 C228 0.929 . S
H221 C230 0.930 . S
H222 C232 0.930 . S
H223 C235 0.929 . S
H224 C238 0.930 . S
H225 C240 0.960 . S
H226 C240 0.960 . S
H227 C240 0.960 . S
C228 H220 0.929 . S
C228 C229 1.377 . S
C228 C230 1.384 . S
C229 C228 1.377 . S
C229 C235 1.390 . S
C230 H221 0.930 . S
C230 C228 1.384 . S
C230 C231 1.372 . S
C231 C230 1.372 . S
C231 C232 1.400 . S
C231 C236 1.490 . S
C232 H222 0.930 . S
C232 C231 1.400 . S
C232 C235 1.386 . S
H233 C249 0.930 . S
H234 C250 0.931 . S
C235 H223 0.929 . S
C235 C229 1.390 . S
C235 C232 1.386 . S
C236 C231 1.490 . S
C236 C238 1.395 . S
C236 C239 1.403 . S
H237 C243 0.930 . S
C238 H224 0.930 . S
C238 C236 1.395 . S
C238 C241 1.403 . S
C239 C236 1.403 . S
C239 C240 1.524 . S
C239 C243 1.400 . S
C240 H225 0.960 . S
C240 H226 0.960 . S
C240 H227 0.960 . S
C240 C239 1.524 . S
C241 C238 1.403 . S
C241 C242 1.392 . S
C241 C245 1.495 . S
C242 C241 1.392 . S
C242 C243 1.385 . S
C242 C244 1.478 . S
C243 H237 0.930 . S
C243 C239 1.400 . S
C243 C242 1.385 . S
C244 C242 1.478 . S
C244 C246 1.381 . S
C244 C250 1.383 . S
C245 C241 1.495 . S
C245 H251 0.959 . S
C245 H252 0.961 . S
C245 H253 0.960 . S
C246 C244 1.381 . S
C246 C247 1.394 . S
C246 H254 0.930 . S
C247 C246 1.394 . S
C247 C248 1.383 . S
C247 H255 0.929 . S
C248 C247 1.383 . S
C248 C249 1.377 . S
C249 H233 0.930 . S
C249 C248 1.377 . S
C249 C250 1.379 . S
C250 H234 0.931 . S
C250 C244 1.383 . S
C250 C249 1.379 . S
H251 C245 0.959 . S
H252 C245 0.961 . S
H253 C245 0.960 . S
H254 C246 0.930 . S
H255 C247 0.929 . S
H256 C264 0.929 . S
H257 C266 0.930 . S
H258 C268 0.930 . S
H259 C271 0.929 . S
H260 C274 0.930 1_565 S
H261 C276 0.960 . S
H262 C276 0.960 . S
H263 C276 0.960 . S
C264 H256 0.929 . S
C264 C265 1.377 . S
C264 C266 1.384 . S
C265 C264 1.377 . S
C265 C271 1.390 . S
C266 H257 0.930 . S
C266 C264 1.384 . S
C266 C267 1.372 . S
C267 C266 1.372 . S
C267 C268 1.400 . S
C267 C272 1.490 1_565 S
C268 H258 0.930 . S
C268 C267 1.400 . S
C268 C271 1.386 . S
H269 C285 0.930 . S
H270 C286 0.931 . S
C271 H259 0.929 . S
C271 C265 1.390 . S
C271 C268 1.386 . S
C272 C267 1.490 1_545 S
C272 C274 1.395 1_554 S
C272 C275 1.403 . S
H273 C279 0.930 . S
C274 H260 0.930 1_545 S
C274 C272 1.395 1_556 S
C274 C277 1.403 . S
C275 C272 1.403 . S
C275 C276 1.524 . S
C275 C279 1.400 1_554 S
C276 H261 0.960 . S
C276 H262 0.960 . S
C276 H263 0.960 . S
C276 C275 1.524 . S
C277 C274 1.403 . S
C277 C278 1.392 . S
C277 C281 1.495 . S
C278 C277 1.392 . S
C278 C279 1.385 . S
C278 C280 1.478 . S
C279 H273 0.930 . S
C279 C275 1.400 1_556 S
C279 C278 1.385 . S
C280 C278 1.478 . S
C280 C282 1.381 . S
C280 C286 1.383 . S
C281 C277 1.495 . S
C281 H287 0.959 . S
C281 H288 0.961 . S
C281 H289 0.960 . S
C282 C280 1.381 . S
C282 C283 1.394 . S
C282 H290 0.930 . S
C283 C282 1.394 . S
C283 C284 1.383 . S
C283 H291 0.929 . S
C284 C283 1.383 . S
C284 C285 1.377 . S
C285 H269 0.930 . S
C285 C284 1.377 . S
C285 C286 1.379 . S
C286 H270 0.931 . S
C286 C280 1.383 . S
C286 C285 1.379 . S
H287 C281 0.959 . S
H288 C281 0.961 . S
H289 C281 0.960 . S
H290 C282 0.930 . S
H291 C283 0.929 . S
H292 C300 0.929 . S
H293 C302 0.930 . S
H294 C304 0.930 . S
H295 C307 0.929 . S
H296 C310 0.930 . S
H297 C312 0.960 . S
H298 C312 0.960 . S
H299 C312 0.960 . S
C300 H292 0.929 . S
C300 C301 1.377 1_565 S
C300 C302 1.384 . S
C301 C300 1.377 1_545 S
C301 C307 1.390 . S
C302 H293 0.930 . S
C302 C300 1.384 . S
C302 C303 1.367 1_565 S
C303 C302 1.367 1_545 S
C303 C304 1.406 . S
C303 C308 1.489 1_545 S
C304 H294 0.930 . S
C304 C303 1.406 . S
C304 C307 1.386 . S
H305 C321 0.944 . S
H306 C322 0.931 1_655 S
C307 H295 0.929 . S
C307 C301 1.390 . S
C307 C304 1.386 . S
C308 C303 1.489 1_565 S
C308 C310 1.395 1_565 S
C308 C311 1.403 . S
H309 C315 0.930 . S
C310 H296 0.930 . S
C310 C308 1.395 1_545 S
C310 C313 1.403 . S
C311 C308 1.403 . S
C311 C312 1.524 . S
C311 C315 1.400 . S
C312 H297 0.960 . S
C312 H298 0.960 . S
C312 H299 0.960 . S
C312 C311 1.524 . S
C313 C310 1.403 . S
C313 C314 1.392 1_545 S
C313 C317 1.495 1_655 S
C314 C313 1.392 1_565 S
C314 C315 1.385 . S
C314 C316 1.478 1_655 S
C315 H309 0.930 . S
C315 C311 1.400 . S
C315 C314 1.385 . S
C316 C314 1.478 1_455 S
C316 C318 1.381 . S
C316 C322 1.383 1_565 S
C317 C313 1.495 1_455 S
C317 H323 0.959 . S
C317 H324 0.961 . S
C317 H325 0.960 1_545 S
C318 C316 1.381 . S
C318 C319 1.394 . S
C318 H326 0.930 . S
C319 C318 1.394 . S
C319 C320 1.383 . S
C319 H327 0.929 . S
C320 C319 1.383 . S
C320 C321 1.359 1_565 S
C321 H305 0.944 . S
C321 C320 1.359 1_545 S
C321 C322 1.383 . S
C322 H306 0.931 1_455 S
C322 C316 1.383 1_545 S
C322 C321 1.383 . S
H323 C317 0.959 . S
H324 C317 0.961 . S
H325 C317 0.960 1_565 S
H326 C318 0.930 . S
H327 C319 0.929 . S
H328 C336 0.929 . S
H329 C338 0.930 . S
H330 C340 0.930 . S
H331 C343 0.929 . S
H332 C346 0.930 . S
H333 C348 0.960 . S
H334 C348 0.960 . S
H335 C348 0.960 . S
C336 H328 0.929 . S
C336 C337 1.377 . S
C336 C338 1.384 . S
C337 C336 1.377 . S
C337 C343 1.390 . S
C338 H329 0.930 . S
C338 C336 1.384 . S
C338 C339 1.372 . S
C339 C338 1.372 . S
C339 C340 1.400 . S
C339 C344 1.490 . S
C340 H330 0.930 . S
C340 C339 1.400 . S
C340 C343 1.386 . S
H341 C357 0.930 . S
H342 C358 0.931 . S
C343 H331 0.929 . S
C343 C337 1.390 . S
C343 C340 1.386 . S
C344 C339 1.490 . S
C344 C346 1.395 . S
C344 C347 1.403 . S
H345 C351 0.930 . S
C346 H332 0.930 . S
C346 C344 1.395 . S
C346 C349 1.403 . S
C347 C344 1.403 . S
C347 C348 1.524 . S
C347 C351 1.400 . S
C348 H333 0.960 . S
C348 H334 0.960 . S
C348 H335 0.960 . S
C348 C347 1.524 . S
C349 C346 1.403 . S
C349 C350 1.392 . S
C349 C353 1.495 . S
C350 C349 1.392 . S
C350 C351 1.385 . S
C350 C352 1.478 . S
C351 H345 0.930 . S
C351 C347 1.400 . S
C351 C350 1.385 . S
C352 C350 1.478 . S
C352 C354 1.381 . S
C352 C358 1.383 . S
C353 C349 1.495 . S
C353 H359 0.959 . S
C353 H360 0.961 . S
C353 H361 0.960 . S
C354 C352 1.381 . S
C354 C355 1.394 . S
C354 H362 0.930 . S
C355 C354 1.394 . S
C355 C356 1.383 . S
C355 H363 0.929 . S
C356 C355 1.383 . S
C356 C357 1.377 . S
C357 H341 0.930 . S
C357 C356 1.377 . S
C357 C358 1.379 . S
C358 H342 0.931 . S
C358 C352 1.383 . S
C358 C357 1.379 . S
H359 C353 0.959 . S
H360 C353 0.961 . S
H361 C353 0.960 . S
H362 C354 0.930 . S
H363 C355 0.929 . S
H364 C372 0.929 . S
H365 C374 0.930 . S
H366 C376 0.930 . S
H367 C379 0.929 . S
H368 C382 0.930 . S
H369 C384 0.960 . S
H370 C384 0.960 . S
H371 C384 0.960 . S
C372 H364 0.929 . S
C372 C373 1.377 . S
C372 C374 1.384 . S
C373 C372 1.377 . S
C373 C379 1.390 . S
C374 H365 0.930 . S
C374 C372 1.384 . S
C374 C375 1.372 . S
C375 C374 1.372 . S
C375 C376 1.400 . S
C375 C380 1.490 . S
C376 H366 0.930 . S
C376 C375 1.400 . S
C376 C379 1.386 . S
H377 C393 0.930 . S
H378 C394 0.931 . S
C379 H367 0.929 . S
C379 C373 1.390 . S
C379 C376 1.386 . S
C380 C375 1.490 . S
C380 C382 1.395 . S
C380 C383 1.403 . S
H381 C387 0.930 . S
C382 H368 0.930 . S
C382 C380 1.395 . S
C382 C385 1.403 . S
C383 C380 1.403 . S
C383 C384 1.524 . S
C383 C387 1.400 . S
C384 H369 0.960 . S
C384 H370 0.960 . S
C384 H371 0.960 . S
C384 C383 1.524 . S
C385 C382 1.403 . S
C385 C386 1.392 . S
C385 C389 1.495 . S
C386 C385 1.392 . S
C386 C387 1.385 . S
C386 C388 1.478 . S
C387 H381 0.930 . S
C387 C383 1.400 . S
C387 C386 1.385 . S
C388 C386 1.478 . S
C388 C390 1.381 . S
C388 C394 1.383 . S
C389 C385 1.495 . S
C389 H395 0.959 . S
C389 H396 0.961 . S
C389 H397 0.960 . S
C390 C388 1.381 . S
C390 C391 1.394 . S
C390 H398 0.930 . S
C391 C390 1.394 . S
C391 C392 1.383 . S
C391 H399 0.929 . S
C392 C391 1.383 . S
C392 C393 1.377 . S
C393 H377 0.930 . S
C393 C392 1.377 . S
C393 C394 1.379 . S
C394 H378 0.931 . S
C394 C388 1.383 . S
C394 C393 1.379 . S
H395 C389 0.959 . S
H396 C389 0.961 . S
H397 C389 0.960 . S
H398 C390 0.930 . S
H399 C391 0.929 . S
H400 C408 0.929 . S
H401 C410 0.930 . S
H402 C412 0.930 . S
H403 C415 0.929 . S
H404 C418 0.930 . S
H405 C420 0.960 . S
H406 C420 0.960 . S
H407 C420 0.960 . S
C408 H400 0.929 . S
C408 C409 1.377 . S
C408 C410 1.384 . S
C409 C408 1.377 . S
C409 C415 1.390 . S
C410 H401 0.930 . S
C410 C408 1.384 . S
C410 C411 1.372 . S
C411 C410 1.372 . S
C411 C412 1.400 . S
C411 C416 1.490 . S
C412 H402 0.930 . S
C412 C411 1.400 . S
C412 C415 1.386 . S
H413 C429 0.930 . S
H414 C430 0.931 . S
C415 H403 0.929 . S
C415 C409 1.390 . S
C415 C412 1.386 . S
C416 C411 1.490 . S
C416 C418 1.395 . S
C416 C419 1.403 . S
H417 C423 0.930 . S
C418 H404 0.930 . S
C418 C416 1.395 . S
C418 C421 1.403 . S
C419 C416 1.403 . S
C419 C420 1.524 . S
C419 C423 1.400 . S
C420 H405 0.960 . S
C420 H406 0.960 . S
C420 H407 0.960 . S
C420 C419 1.524 . S
C421 C418 1.403 . S
C421 C422 1.392 . S
C421 C425 1.495 . S
C422 C421 1.392 . S
C422 C423 1.385 . S
C422 C424 1.478 . S
C423 H417 0.930 . S
C423 C419 1.400 . S
C423 C422 1.385 . S
C424 C422 1.478 . S
C424 C426 1.381 . S
C424 C430 1.383 . S
C425 C421 1.495 . S
C425 H431 0.959 . S
C425 H432 0.961 . S
C425 H433 0.960 . S
C426 C424 1.381 . S
C426 C427 1.394 . S
C426 H434 0.930 . S
C427 C426 1.394 . S
C427 C428 1.383 . S
C427 H435 0.929 . S
C428 C427 1.383 . S
C428 C429 1.377 . S
C429 H413 0.930 . S
C429 C428 1.377 . S
C429 C430 1.379 . S
C430 H414 0.931 . S
C430 C424 1.383 . S
C430 C429 1.379 . S
H431 C425 0.959 . S
H432 C425 0.961 . S
H433 C425 0.960 . S
H434 C426 0.930 . S
H435 C427 0.929 . S
H436 C444 0.929 . S
H437 C446 0.930 . S
H438 C448 0.930 . S
H439 C451 0.929 . S
H440 C454 0.930 . S
H441 C456 0.960 . S
H442 C456 0.960 . S
H443 C456 0.960 . S
C444 H436 0.929 . S
C444 C445 1.377 . S
C444 C446 1.384 . S
C445 C444 1.377 . S
C445 C451 1.390 . S
C446 H437 0.930 . S
C446 C444 1.384 . S
C446 C447 1.372 . S
C447 C446 1.372 . S
C447 C448 1.400 . S
C447 C452 1.490 . S
C448 H438 0.930 . S
C448 C447 1.400 . S
C448 C451 1.386 . S
H449 C465 0.930 . S
H450 C466 0.931 . S
C451 H439 0.929 . S
C451 C445 1.390 . S
C451 C448 1.386 . S
C452 C447 1.490 . S
C452 C454 1.395 . S
C452 C455 1.403 . S
H453 C459 0.930 . S
C454 H440 0.930 . S
C454 C452 1.395 . S
C454 C457 1.403 . S
C455 C452 1.403 . S
C455 C456 1.524 . S
C455 C459 1.400 . S
C456 H441 0.960 . S
C456 H442 0.960 . S
C456 H443 0.960 . S
C456 C455 1.524 . S
C457 C454 1.403 . S
C457 C458 1.392 . S
C457 C461 1.495 . S
C458 C457 1.392 . S
C458 C459 1.385 . S
C458 C460 1.478 . S
C459 H453 0.930 . S
C459 C455 1.400 . S
C459 C458 1.385 . S
C460 C458 1.478 . S
C460 C462 1.381 . S
C460 C466 1.383 . S
C461 C457 1.495 . S
C461 H467 0.959 . S
C461 H468 0.961 . S
C461 H469 0.960 . S
C462 C460 1.381 . S
C462 C463 1.394 . S
C462 H470 0.930 . S
C463 C462 1.394 . S
C463 C464 1.383 . S
C463 H471 0.929 . S
C464 C463 1.383 . S
C464 C465 1.377 . S
C465 H449 0.930 . S
C465 C464 1.377 . S
C465 C466 1.379 . S
C466 H450 0.931 . S
C466 C460 1.383 . S
C466 C465 1.379 . S
H467 C461 0.959 . S
H468 C461 0.961 . S
H469 C461 0.960 . S
H470 C462 0.930 . S
H471 C463 0.929 . S
H472 C480 0.929 . S
H473 C482 0.930 . S
H474 C484 0.930 . S
H475 C487 0.929 . S
H476 C490 0.930 . S
H477 C492 0.960 . S
H478 C492 0.960 . S
H479 C492 0.960 . S
C480 H472 0.929 . S
C480 C481 1.377 . S
C480 C482 1.384 . S
C481 C480 1.377 . S
C481 C487 1.390 . S
C482 H473 0.930 . S
C482 C480 1.384 . S
C482 C483 1.372 . S
C483 C482 1.372 . S
C483 C484 1.400 . S
C483 C488 1.490 . S
C484 H474 0.930 . S
C484 C483 1.400 . S
C484 C487 1.386 . S
H485 C501 0.930 . S
H486 C502 0.931 . S
C487 H475 0.929 . S
C487 C481 1.390 . S
C487 C484 1.386 . S
C488 C483 1.490 . S
C488 C490 1.395 . S
C488 C491 1.403 . S
H489 C495 0.930 . S
C490 H476 0.930 . S
C490 C488 1.395 . S
C490 C493 1.403 . S
C491 C488 1.403 . S
C491 C492 1.524 . S
C491 C495 1.400 . S
C492 H477 0.960 . S
C492 H478 0.960 . S
C492 H479 0.960 . S
C492 C491 1.524 . S
C493 C490 1.403 . S
C493 C494 1.392 . S
C493 C497 1.495 . S
C494 C493 1.392 . S
C494 C495 1.385 . S
C494 C496 1.478 . S
C495 H489 0.930 . S
C495 C491 1.400 . S
C495 C494 1.385 . S
C496 C494 1.478 . S
C496 C498 1.381 . S
C496 C502 1.383 . S
C497 C493 1.495 . S
C497 H503 0.959 . S
C497 H504 0.961 . S
C497 H505 0.960 . S
C498 C496 1.381 . S
C498 C499 1.394 . S
C498 H506 0.930 . S
C499 C498 1.394 . S
C499 C500 1.383 . S
C499 H507 0.929 . S
C500 C499 1.383 . S
C500 C501 1.377 . S
C501 H485 0.930 . S
C501 C500 1.377 . S
C501 C502 1.379 . S
C502 H486 0.931 . S
C502 C496 1.383 . S
C502 C501 1.379 . S
H503 C497 0.959 . S
H504 C497 0.961 . S
H505 C497 0.960 . S
H506 C498 0.930 . S
H507 C499 0.929 . S
H508 C516 0.929 . S
H509 C518 0.930 . S
H510 C520 0.930 . S
H511 C523 0.929 . S
H512 C526 0.930 . S
H513 C528 0.960 . S
H514 C528 0.960 . S
H515 C528 0.960 . S
C516 H508 0.929 . S
C516 C517 1.377 . S
C516 C518 1.384 . S
C517 C516 1.377 . S
C517 C523 1.390 . S
C518 H509 0.930 . S
C518 C516 1.384 . S
C518 C519 1.372 . S
C519 C518 1.372 . S
C519 C520 1.400 . S
C519 C524 1.490 . S
C520 H510 0.930 . S
C520 C519 1.400 . S
C520 C523 1.386 . S
H521 C537 0.930 . S
H522 C538 0.931 . S
C523 H511 0.929 . S
C523 C517 1.390 . S
C523 C520 1.386 . S
C524 C519 1.490 . S
C524 C526 1.395 . S
C524 C527 1.403 . S
H525 C531 0.930 . S
C526 H512 0.930 . S
C526 C524 1.395 . S
C526 C529 1.403 . S
C527 C524 1.403 . S
C527 C528 1.524 . S
C527 C531 1.400 . S
C528 H513 0.960 . S
C528 H514 0.960 . S
C528 H515 0.960 . S
C528 C527 1.524 . S
C529 C526 1.403 . S
C529 C530 1.392 . S
C529 C533 1.495 . S
C530 C529 1.392 . S
C530 C531 1.385 . S
C530 C532 1.478 . S
C531 H525 0.930 . S
C531 C527 1.400 . S
C531 C530 1.385 . S
C532 C530 1.478 . S
C532 C534 1.381 . S
C532 C538 1.383 . S
C533 C529 1.495 . S
C533 H539 0.959 . S
C533 H540 0.961 . S
C533 H541 0.960 . S
C534 C532 1.381 . S
C534 C535 1.394 . S
C534 H542 0.930 . S
C535 C534 1.394 . S
C535 C536 1.383 . S
C535 H543 0.929 . S
C536 C535 1.383 . S
C536 C537 1.377 . S
C537 H521 0.930 . S
C537 C536 1.377 . S
C537 C538 1.379 . S
C538 H522 0.931 . S
C538 C532 1.383 . S
C538 C537 1.379 . S
H539 C533 0.959 . S
H540 C533 0.961 . S
H541 C533 0.960 . S
H542 C534 0.930 . S
H543 C535 0.929 . S
H544 C552 0.929 . S
H545 C554 0.930 . S
H546 C556 0.930 . S
H547 C559 0.929 . S
H548 C562 0.930 . S
H549 C564 0.960 . S
H550 C564 0.960 . S
H551 C564 0.960 . S
C552 H544 0.929 . S
C552 C553 1.377 . S
C552 C554 1.384 . S
C553 C552 1.377 . S
C553 C559 1.390 . S
C554 H545 0.930 . S
C554 C552 1.384 . S
C554 C555 1.372 . S
C555 C554 1.372 . S
C555 C556 1.400 . S
C555 C560 1.490 . S
C556 H546 0.930 . S
C556 C555 1.400 . S
C556 C559 1.386 . S
H557 C573 0.930 . S
H558 C574 0.931 . S
C559 H547 0.929 . S
C559 C553 1.390 . S
C559 C556 1.386 . S
C560 C555 1.490 . S
C560 C562 1.395 . S
C560 C563 1.403 . S
H561 C567 0.930 . S
C562 H548 0.930 . S
C562 C560 1.395 . S
C562 C565 1.403 . S
C563 C560 1.403 . S
C563 C564 1.524 . S
C563 C567 1.400 . S
C564 H549 0.960 . S
C564 H550 0.960 . S
C564 H551 0.960 . S
C564 C563 1.524 . S
C565 C562 1.403 . S
C565 C566 1.392 . S
C565 C569 1.495 . S
C566 C565 1.392 . S
C566 C567 1.385 . S
C566 C568 1.478 . S
C567 H561 0.930 . S
C567 C563 1.400 . S
C567 C566 1.385 . S
C568 C566 1.478 . S
C568 C570 1.381 . S
C568 C574 1.383 . S
C569 C565 1.495 . S
C569 H575 0.959 . S
C569 H576 0.961 . S
C569 H577 0.960 . S
C570 C568 1.381 . S
C570 C571 1.394 . S
C570 H578 0.930 . S
C571 C570 1.394 . S
C571 C572 1.383 . S
C571 H579 0.929 . S
C572 C571 1.383 . S
C572 C573 1.377 . S
C573 H557 0.930 . S
C573 C572 1.377 . S
C573 C574 1.379 . S
C574 H558 0.931 . S
C574 C568 1.383 . S
C574 C573 1.379 . S
H575 C569 0.959 . S
H576 C569 0.961 . S
H577 C569 0.960 . S
H578 C570 0.930 . S
H579 C571 0.929 . S
H580 C588 0.929 . S
H581 C590 0.930 . S
H582 C592 0.930 . S
H583 C595 0.928 1_655 S
H584 C598 0.930 . S
H585 C600 0.960 1_655 S
H586 C600 0.960 1_655 S
H587 C600 0.960 1_655 S
C588 H580 0.929 . S
C588 C589 1.377 . S
C588 C590 1.384 . S
C589 C588 1.377 . S
C589 C595 1.390 . S
C590 H581 0.930 . S
C590 C588 1.384 . S
C590 C591 1.372 . S
C591 C590 1.372 . S
C591 C592 1.400 . S
C591 C596 1.490 . S
C592 H582 0.930 . S
C592 C591 1.400 . S
C592 C595 1.386 . S
H593 C609 0.930 . S
H594 C610 0.931 . S
C595 H583 0.928 1_455 S
C595 C589 1.390 . S
C595 C592 1.386 . S
C596 C591 1.490 . S
C596 C598 1.395 . S
C596 C599 1.403 . S
H597 C603 0.930 . S
C598 H584 0.930 . S
C598 C596 1.395 . S
C598 C601 1.403 . S
C599 C596 1.403 . S
C599 C600 1.524 . S
C599 C603 1.400 . S
C600 H585 0.960 1_455 S
C600 H586 0.960 1_455 S
C600 H587 0.960 1_455 S
C600 C599 1.524 . S
C601 C598 1.403 . S
C601 C602 1.392 . S
C601 C605 1.495 . S
C602 C601 1.392 . S
C602 C603 1.385 . S
C602 C604 1.478 . S
C603 H597 0.930 . S
C603 C599 1.400 . S
C603 C602 1.385 . S
C604 C602 1.478 . S
C604 C606 1.381 . S
C604 C610 1.383 . S
C605 C601 1.495 . S
C605 H611 0.959 . S
C605 H612 0.961 . S
C605 H613 0.960 . S
C606 C604 1.381 . S
C606 C607 1.394 . S
C606 H614 0.930 . S
C607 C606 1.394 . S
C607 C608 1.383 . S
C607 H615 0.929 . S
C608 C607 1.383 . S
C608 C609 1.377 . S
C609 H593 0.930 . S
C609 C608 1.377 . S
C609 C610 1.379 . S
C610 H594 0.931 . S
C610 C604 1.383 . S
C610 C609 1.379 . S
H611 C605 0.959 . S
H612 C605 0.961 . S
H613 C605 0.960 . S
H614 C606 0.930 . S
H615 C607 0.929 . S
H616 C624 0.929 . S
H617 C626 0.930 . S
H618 C628 0.930 . S
H619 C631 0.929 . S
H620 C634 0.930 . S
H621 C636 0.960 . S
H622 C636 0.960 . S
H623 C636 0.960 . S
C624 H616 0.929 . S
C624 C625 1.377 . S
C624 C626 1.384 . S
C625 C624 1.377 . S
C625 C631 1.390 . S
C626 H617 0.930 . S
C626 C624 1.384 . S
C626 C627 1.372 . S
C627 C626 1.372 . S
C627 C628 1.400 . S
C627 C632 1.490 . S
C628 H618 0.930 . S
C628 C627 1.400 . S
C628 C631 1.386 . S
H629 C645 0.930 . S
H630 C646 0.931 . S
C631 H619 0.929 . S
C631 C625 1.390 . S
C631 C628 1.386 . S
C632 C627 1.490 . S
C632 C634 1.395 . S
C632 C635 1.403 . S
H633 C639 0.930 . S
C634 H620 0.930 . S
C634 C632 1.395 . S
C634 C637 1.403 . S
C635 C632 1.403 . S
C635 C636 1.524 . S
C635 C639 1.400 . S
C636 H621 0.960 . S
C636 H622 0.960 . S
C636 H623 0.960 . S
C636 C635 1.524 . S
C637 C634 1.403 . S
C637 C638 1.392 . S
C637 C641 1.495 . S
C638 C637 1.392 . S
C638 C639 1.385 . S
C638 C640 1.478 . S
C639 H633 0.930 . S
C639 C635 1.400 . S
C639 C638 1.385 . S
C640 C638 1.478 . S
C640 C642 1.381 . S
C640 C646 1.383 . S
C641 C637 1.495 . S
C641 H647 0.959 . S
C641 H648 0.961 . S
C641 H649 0.960 . S
C642 C640 1.381 . S
C642 C643 1.394 . S
C642 H650 0.930 . S
C643 C642 1.394 . S
C643 C644 1.383 . S
C643 H651 0.929 . S
C644 C643 1.383 . S
C644 C645 1.377 . S
C645 H629 0.930 . S
C645 C644 1.377 . S
C645 C646 1.379 . S
C646 H630 0.931 . S
C646 C640 1.383 . S
C646 C645 1.379 . S
H647 C641 0.959 . S
H648 C641 0.961 . S
H649 C641 0.960 . S
H650 C642 0.930 . S
H651 C643 0.929 . S
H652 C660 0.929 . S
H653 C662 0.930 . S
H654 C664 0.930 . S
H655 C667 0.929 . S
H656 C670 0.930 . S
H657 C672 0.960 . S
H658 C672 0.960 . S
H659 C672 0.960 . S
C660 H652 0.929 . S
C660 C661 1.377 . S
C660 C662 1.384 . S
C661 C660 1.377 . S
C661 C667 1.390 . S
C662 H653 0.930 . S
C662 C660 1.384 . S
C662 C663 1.372 . S
C663 C662 1.372 . S
C663 C664 1.400 . S
C663 C668 1.490 . S
C664 H654 0.930 . S
C664 C663 1.400 . S
C664 C667 1.386 . S
H665 C681 0.930 . S
H666 C682 0.931 . S
C667 H655 0.929 . S
C667 C661 1.390 . S
C667 C664 1.386 . S
C668 C663 1.490 . S
C668 C670 1.395 . S
C668 C671 1.403 . S
H669 C675 0.930 . S
C670 H656 0.930 . S
C670 C668 1.395 . S
C670 C673 1.403 . S
C671 C668 1.403 . S
C671 C672 1.524 . S
C671 C675 1.400 . S
C672 H657 0.960 . S
C672 H658 0.960 . S
C672 H659 0.960 . S
C672 C671 1.524 . S
C673 C670 1.403 . S
C673 C674 1.392 . S
C673 C677 1.495 . S
C674 C673 1.392 . S
C674 C675 1.385 . S
C674 C676 1.478 . S
C675 H669 0.930 . S
C675 C671 1.400 . S
C675 C674 1.385 . S
C676 C674 1.478 . S
C676 C678 1.381 . S
C676 C682 1.383 . S
C677 C673 1.495 . S
C677 H683 0.959 . S
C677 H684 0.961 . S
C677 H685 0.960 . S
C678 C676 1.381 . S
C678 C679 1.394 . S
C678 H686 0.930 . S
C679 C678 1.394 . S
C679 C680 1.383 . S
C679 H687 0.929 . S
C680 C679 1.383 . S
C680 C681 1.377 . S
C681 H665 0.930 . S
C681 C680 1.377 . S
C681 C682 1.379 . S
C682 H666 0.931 . S
C682 C676 1.383 . S
C682 C681 1.379 . S
H683 C677 0.959 . S
H684 C677 0.961 . S
H685 C677 0.960 . S
H686 C678 0.930 . S
H687 C679 0.929 . S
H688 C696 0.929 . S
H689 C698 0.930 . S
H690 C700 0.930 . S
H691 C703 0.929 . S
H692 C706 0.930 . S
H693 C708 0.960 . S
H694 C708 0.960 . S
H695 C708 0.960 . S
C696 H688 0.929 . S
C696 C697 1.377 . S
C696 C698 1.384 . S
C697 C696 1.377 . S
C697 C703 1.390 . S
C698 H689 0.930 . S
C698 C696 1.384 . S
C698 C699 1.372 . S
C699 C698 1.372 . S
C699 C700 1.400 . S
C699 C704 1.490 . S
C700 H690 0.930 . S
C700 C699 1.400 . S
C700 C703 1.386 . S
H701 C717 0.930 . S
H702 C718 0.931 . S
C703 H691 0.929 . S
C703 C697 1.390 . S
C703 C700 1.386 . S
C704 C699 1.490 . S
C704 C706 1.395 . S
C704 C707 1.403 . S
H705 C711 0.930 . S
C706 H692 0.930 . S
C706 C704 1.395 . S
C706 C709 1.403 . S
C707 C704 1.403 . S
C707 C708 1.524 . S
C707 C711 1.400 . S
C708 H693 0.960 . S
C708 H694 0.960 . S
C708 H695 0.960 . S
C708 C707 1.524 . S
C709 C706 1.403 . S
C709 C710 1.392 . S
C709 C713 1.495 . S
C710 C709 1.392 . S
C710 C711 1.385 . S
C710 C712 1.478 . S
C711 H705 0.930 . S
C711 C707 1.400 . S
C711 C710 1.385 . S
C712 C710 1.478 . S
C712 C714 1.381 . S
C712 C718 1.383 . S
C713 C709 1.495 . S
C713 H719 0.959 . S
C713 H720 0.961 . S
C713 H721 0.960 . S
C714 C712 1.381 . S
C714 C715 1.394 . S
C714 H722 0.930 . S
C715 C714 1.394 . S
C715 C716 1.383 . S
C715 H723 0.929 . S
C716 C715 1.383 . S
C716 C717 1.377 . S
C717 H701 0.930 . S
C717 C716 1.377 . S
C717 C718 1.379 . S
C718 H702 0.931 . S
C718 C712 1.383 . S
C718 C717 1.379 . S
H719 C713 0.959 . S
H720 C713 0.961 . S
H721 C713 0.960 . S
H722 C714 0.930 . S
H723 C715 0.929 . S
H724 C732 0.929 . S
H725 C734 0.930 . S
H726 C736 0.930 . S
H727 C739 0.929 . S
H728 C742 0.930 . S
H729 C744 0.960 . S
H730 C744 0.960 . S
H731 C744 0.960 . S
C732 H724 0.929 . S
C732 C733 1.377 . S
C732 C734 1.384 . S
C733 C732 1.377 . S
C733 C739 1.390 . S
C734 H725 0.930 . S
C734 C732 1.384 . S
C734 C735 1.372 . S
C735 C734 1.372 . S
C735 C736 1.400 . S
C735 C740 1.490 . S
C736 H726 0.930 . S
C736 C735 1.400 . S
C736 C739 1.386 . S
H737 C753 0.930 . S
H738 C754 0.931 . S
C739 H727 0.929 . S
C739 C733 1.390 . S
C739 C736 1.386 . S
C740 C735 1.490 . S
C740 C742 1.395 . S
C740 C743 1.403 . S
H741 C747 0.930 . S
C742 H728 0.930 . S
C742 C740 1.395 . S
C742 C745 1.403 . S
C743 C740 1.403 . S
C743 C744 1.524 . S
C743 C747 1.400 . S
C744 H729 0.960 . S
C744 H730 0.960 . S
C744 H731 0.960 . S
C744 C743 1.524 . S
C745 C742 1.403 . S
C745 C746 1.392 . S
C745 C749 1.495 . S
C746 C745 1.392 . S
C746 C747 1.385 . S
C746 C748 1.478 . S
C747 H741 0.930 . S
C747 C743 1.400 . S
C747 C746 1.385 . S
C748 C746 1.478 . S
C748 C750 1.381 . S
C748 C754 1.383 . S
C749 C745 1.495 . S
C749 H755 0.959 . S
C749 H756 0.961 . S
C749 H757 0.960 . S
C750 C748 1.381 . S
C750 C751 1.394 . S
C750 H758 0.930 . S
C751 C750 1.394 . S
C751 C752 1.383 . S
C751 H759 0.929 . S
C752 C751 1.383 . S
C752 C753 1.377 . S
C753 H737 0.930 . S
C753 C752 1.377 . S
C753 C754 1.379 . S
C754 H738 0.931 . S
C754 C748 1.383 . S
C754 C753 1.379 . S
H755 C749 0.959 . S
H756 C749 0.961 . S
H757 C749 0.960 . S
H758 C750 0.930 . S
H759 C751 0.929 . S
C193 C108 1.905 . S
C212 N12 1.844 . S
C229 N35 1.805 . S
C248 C131 1.870 . S
C265 N58 1.731 . S
C284 C154 1.811 . S
C301 C177 1.828 . S
C320 N81 1.765 . S
C337 C7 2.832 . S
C356 C53 2.815 . S
C373 C30 2.828 . S
C392 C76 2.830 . S
C409 N140 2.010 . S
C428 N94 2.003 . S
C445 N117 2.003 . S
C464 N163 2.020 . S
C481 C122 1.602 . S
C500 C16 1.532 . S
C517 C39 1.569 . S
C536 C145 1.645 . S
C553 C62 1.526 . S
C572 C168 1.594 . S
C589 C99 1.558 . S
C608 C85 1.500 . S
C625 N104 1.063 . S
C644 N25 1.101 . S
C661 N127 1.128 . S
C680 N48 1.133 . S
C697 N150 1.104 . S
C716 N71 1.149 . S
C733 N2 1.076 . S
C752 N173 1.068 . S
