# Generated by pormake.
# Topology ske, (6)-cn, num edge types: 1
# Building blocks:
#     Node 0, Type 0, BuildingBlock: CUWYAW_clean_sbu_0, # of connection points: 6
#     Node 1, Type 0, BuildingBlock: CUWYAW_clean_sbu_0, # of connection points: 6
#     Node 2, Type 0, BuildingBlock: CUWYAW_clean_sbu_0, # of connection points: 6
#     Node 3, Type 0, BuildingBlock: CUWYAW_clean_sbu_0, # of connection points: 6
#     Node 4, Type 0, BuildingBlock: CUWYAW_clean_sbu_0, # of connection points: 6
#     Node 5, Type 0, BuildingBlock: CUWYAW_clean_sbu_0, # of connection points: 6
#     Node 6, Type 0, BuildingBlock: CUWYAW_clean_sbu_0, # of connection points: 6
#     Node 7, Type 0, BuildingBlock: CUWYAW_clean_sbu_0, # of connection points: 6
#     Edge 8, Type (0, 0), BuildingBlock: CIFDUS_clean_linker_0, # of connection points: 2
#     Edge 9, Type (0, 0), BuildingBlock: CIFDUS_clean_linker_0, # of connection points: 2
#     Edge 10, Type (0, 0), BuildingBlock: CIFDUS_clean_linker_0, # of connection points: 2
#     Edge 11, Type (0, 0), BuildingBlock: CIFDUS_clean_linker_0, # of connection points: 2
#     Edge 12, Type (0, 0), BuildingBlock: CIFDUS_clean_linker_0, # of connection points: 2
#     Edge 13, Type (0, 0), BuildingBlock: CIFDUS_clean_linker_0, # of connection points: 2
#     Edge 14, Type (0, 0), BuildingBlock: CIFDUS_clean_linker_0, # of connection points: 2
#     Edge 15, Type (0, 0), BuildingBlock: CIFDUS_clean_linker_0, # of connection points: 2
#     Edge 16, Type (0, 0), BuildingBlock: CIFDUS_clean_linker_0, # of connection points: 2
#     Edge 17, Type (0, 0), BuildingBlock: CIFDUS_clean_linker_0, # of connection points: 2
#     Edge 18, Type (0, 0), BuildingBlock: CIFDUS_clean_linker_0, # of connection points: 2
#     Edge 19, Type (0, 0), BuildingBlock: CIFDUS_clean_linker_0, # of connection points: 2
#     Edge 20, Type (0, 0), BuildingBlock: CIFDUS_clean_linker_0, # of connection points: 2
#     Edge 21, Type (0, 0), BuildingBlock: CIFDUS_clean_linker_0, # of connection points: 2
#     Edge 22, Type (0, 0), BuildingBlock: CIFDUS_clean_linker_0, # of connection points: 2
#     Edge 23, Type (0, 0), BuildingBlock: CIFDUS_clean_linker_0, # of connection points: 2
#     Edge 24, Type (0, 0), BuildingBlock: CIFDUS_clean_linker_0, # of connection points: 2
#     Edge 25, Type (0, 0), BuildingBlock: CIFDUS_clean_linker_0, # of connection points: 2
#     Edge 26, Type (0, 0), BuildingBlock: CIFDUS_clean_linker_0, # of connection points: 2
#     Edge 27, Type (0, 0), BuildingBlock: CIFDUS_clean_linker_0, # of connection points: 2
#     Edge 28, Type (0, 0), BuildingBlock: CIFDUS_clean_linker_0, # of connection points: 2
#     Edge 29, Type (0, 0), BuildingBlock: CIFDUS_clean_linker_0, # of connection points: 2
#     Edge 30, Type (0, 0), BuildingBlock: CIFDUS_clean_linker_0, # of connection points: 2
#     Edge 31, Type (0, 0), BuildingBlock: CIFDUS_clean_linker_0, # of connection points: 2
# Relax obj value: 0.182
# Max RMSD: 0.196
# Mean RMSD: 0.189
data_MOF--net-ske--node1-CUWYAW_clean_sbu_0--edge1-CIFDUS_clean_linker_0
_symmetry_space_group_name_H-M    P1
_symmetry_Int_Tables_number       1
_symmetry_cell_setting            triclinic
loop_
_symmetry_equiv_pos_as_xyz
'x, y, z'
_cell_length_a     96.822442
_cell_length_b     25.407213
_cell_length_c     13.662135
_cell_angle_alpha  89.919167
_cell_angle_beta   90.208945
_cell_angle_gamma 97.82188
loop_
_atom_site_label
_atom_site_type_symbol
_atom_site_fract_x
_atom_site_fract_y
_atom_site_fract_z
_atom_type_partial_charge
C0 C 0.18404 0.24398 0.54165 0.0
Eu1 Eu 0.15798 0.26106 0.5409 0.0
C2 C 0.19724 0.24933 0.59908 0.0
C3 C 0.20832 0.28867 0.57387 0.0
C4 C 0.22137 0.29052 0.61936 0.0
C5 C 0.22373 0.25283 0.69092 0.0
C6 C 0.21255 0.21402 0.71735 0.0
C7 C 0.1995 0.2122 0.67188 0.0
C8 C 0.1486 0.35714 0.54434 0.0
C9 C 0.14459 0.25818 0.75925 0.0
C10 C 0.10022 0.27087 0.57024 0.0
Eu11 Eu 0.12638 0.25512 0.56339 0.0
C12 C 0.08549 0.25662 0.53792 0.0
C13 C 0.07699 0.21288 0.57915 0.0
C14 C 0.06256 0.20519 0.56286 0.0
C15 C 0.05618 0.24107 0.50511 0.0
C16 C 0.06477 0.28361 0.46069 0.0
C17 C 0.07922 0.29139 0.47725 0.0
C18 C 0.13592 0.15881 0.5484 0.0
C19 C 0.14003 0.26242 0.34458 0.0
O20 O 0.17366 0.20885 0.57002 0.0
O21 O 0.17988 0.2873 0.50728 0.0
O22 O 0.15923 0.34688 0.49391 0.0
O23 O 0.14405 0.31769 0.59701 0.0
O24 O 0.15497 0.24648 0.70431 0.0
O25 O 0.13322 0.27233 0.71939 0.0
O26 O 0.10933 0.29692 0.51093 0.0
O27 O 0.1057 0.23745 0.62648 0.0
O28 O 0.12501 0.16638 0.59817 0.0
O29 O 0.14029 0.20055 0.50258 0.0
O30 O 0.1295 0.27245 0.40031 0.0
O31 O 0.15151 0.2482 0.38327 0.0
H32 H 0.207 0.31746 0.51723 0.0
H33 H 0.22964 0.32143 0.59802 0.0
H34 H 0.214 0.18389 0.77115 0.0
H35 H 0.19129 0.18081 0.69217 0.0
H36 H 0.08138 0.18569 0.6276 0.0
H37 H 0.05634 0.17236 0.59946 0.0
H38 H 0.06031 0.31164 0.41449 0.0
H39 H 0.08541 0.32586 0.44541 0.0
C40 C 0.84483 0.26381 0.57788 0.0
Eu41 Eu 0.87088 0.24966 0.55529 0.0
C42 C 0.83179 0.2591 0.636 0.0
C43 C 0.82295 0.21052 0.64441 0.0
C44 C 0.8096 0.20866 0.68521 0.0
C45 C 0.80476 0.25534 0.71814 0.0
C46 C 0.81379 0.30358 0.71189 0.0
C47 C 0.82709 0.3054 0.67129 0.0
C48 C 0.8812 0.15583 0.54198 0.0
C49 C 0.88912 0.25192 0.75657 0.0
C50 C 0.92913 0.25697 0.52346 0.0
Eu51 Eu 0.90256 0.26092 0.5433 0.0
C52 C 0.94448 0.25747 0.51693 0.0
C53 C 0.95338 0.29412 0.57305 0.0
C54 C 0.96785 0.29613 0.56748 0.0
C55 C 0.97393 0.26174 0.5052 0.0
C56 C 0.96502 0.22431 0.45008 0.0
C57 C 0.95045 0.22221 0.45588 0.0
C58 C 0.89147 0.35431 0.5485 0.0
C59 C 0.8844 0.25348 0.34157 0.0
O60 O 0.85537 0.2991 0.60348 0.0
O61 O 0.84872 0.22102 0.53955 0.0
O62 O 0.86949 0.16485 0.50366 0.0
O63 O 0.88653 0.19527 0.59192 0.0
O64 O 0.87734 0.2619 0.71536 0.0
O65 O 0.8997 0.24107 0.70303 0.0
O66 O 0.91976 0.22037 0.4857 0.0
O67 O 0.92397 0.29488 0.5693 0.0
O68 O 0.90309 0.34732 0.59027 0.0
O69 O 0.88679 0.31317 0.50207 0.0
O70 O 0.89625 0.24494 0.38371 0.0
O71 O 0.87378 0.26506 0.39402 0.0
H72 H 0.82615 0.17413 0.61686 0.0
H73 H 0.80303 0.17071 0.68988 0.0
H74 H 0.8104 0.34053 0.73481 0.0
H75 H 0.83351 0.3436 0.66392 0.0
H76 H 0.94917 0.32147 0.62182 0.0
H77 H 0.97429 0.32465 0.61282 0.0
H78 H 0.96931 0.19735 0.40098 0.0
H79 H 0.94387 0.19344 0.41191 0.0
C80 C 0.09905 0.77373 0.47243 0.0
Eu81 Eu 0.12477 0.75504 0.49079 0.0
C82 C 0.08418 0.76474 0.50074 0.0
C83 C 0.07696 0.71347 0.51455 0.0
C84 C 0.0624 0.70582 0.5244 0.0
C85 C 0.05474 0.7492 0.51997 0.0
C86 C 0.06213 0.80062 0.51059 0.0
C87 C 0.07666 0.80821 0.50114 0.0
C88 C 0.1346 0.66026 0.51009 0.0
C89 C 0.14301 0.75577 0.68625 0.0
C90 C 0.18324 0.72881 0.46252 0.0
Eu91 Eu 0.15838 0.758 0.47189 0.0
C92 C 0.19766 0.74125 0.42446 0.0
C93 C 0.20594 0.79025 0.44193 0.0
C94 C 0.21998 0.79853 0.41285 0.0
C95 C 0.22608 0.75801 0.36586 0.0
C96 C 0.21762 0.70946 0.34693 0.0
C97 C 0.20363 0.70127 0.37587 0.0
C98 C 0.15061 0.85791 0.48353 0.0
C99 C 0.14065 0.76751 0.27432 0.0
O100 O 0.10813 0.80181 0.52974 0.0
O101 O 0.10418 0.73557 0.4263 0.0
O102 O 0.12323 0.67102 0.55156 0.0
O103 O 0.13942 0.6981 0.45451 0.0
O104 O 0.13162 0.77098 0.64714 0.0
O105 O 0.15305 0.73974 0.63208 0.0
O106 O 0.17326 0.71355 0.39962 0.0
O107 O 0.17925 0.7583 0.53294 0.0
O108 O 0.16347 0.84985 0.47082 0.0
O109 O 0.14331 0.81335 0.48487 0.0
O110 O 0.15283 0.75979 0.31196 0.0
O111 O 0.12949 0.77144 0.32892 0.0
H112 H 0.0825 0.67919 0.51443 0.0
H113 H 0.05712 0.66572 0.53329 0.0
H114 H 0.05667 0.83498 0.50558 0.0
H115 H 0.08198 0.84808 0.48949 0.0
H116 H 0.20165 0.82188 0.47933 0.0
H117 H 0.22606 0.83671 0.42754 0.0
H118 H 0.22192 0.67696 0.31245 0.0
H119 H 0.19753 0.66292 0.36244 0.0
C120 C 0.92822 0.7394 0.43749 0.0
Eu121 Eu 0.90283 0.75736 0.47461 0.0
C122 C 0.94292 0.74629 0.47209 0.0
C123 C 0.95111 0.79645 0.47425 0.0
C124 C 0.96542 0.80108 0.49534 0.0
C125 C 0.9719 0.75569 0.51435 0.0
C126 C 0.96358 0.70575 0.51478 0.0
C127 C 0.9493 0.70114 0.49368 0.0
C128 C 0.89338 0.85155 0.50634 0.0
C129 C 0.88877 0.75436 0.68802 0.0
C130 C 0.84416 0.78278 0.50324 0.0
Eu131 Eu 0.86911 0.7545 0.49117 0.0
C132 C 0.83016 0.77644 0.45556 0.0
C133 C 0.81996 0.73319 0.4779 0.0
C134 C 0.80641 0.73029 0.4394 0.0
C135 C 0.80269 0.77062 0.37781 0.0
C136 C 0.81296 0.81357 0.35492 0.0
C137 C 0.82647 0.81651 0.3935 0.0
C138 C 0.87702 0.65497 0.48998 0.0
C139 C 0.88257 0.74765 0.2757 0.0
O140 O 0.91912 0.70584 0.48478 0.0
O141 O 0.92299 0.78135 0.40605 0.0
O142 O 0.90539 0.84077 0.53805 0.0
O143 O 0.88755 0.81365 0.4548 0.0
O144 O 0.89935 0.74157 0.63565 0.0
O145 O 0.87734 0.76892 0.64731 0.0
O146 O 0.85452 0.81013 0.45631 0.0
O147 O 0.84797 0.74221 0.55058 0.0
O148 O 0.86404 0.66296 0.49072 0.0
O149 O 0.88432 0.69946 0.48524 0.0
O150 O 0.87118 0.75185 0.32727 0.0
O151 O 0.89501 0.74588 0.31654 0.0
H152 H 0.94658 0.83206 0.45705 0.0
H153 H 0.97149 0.84015 0.49329 0.0
H154 H 0.96812 0.67001 0.53053 0.0
H155 H 0.94328 0.66193 0.49179 0.0
H156 H 0.82236 0.70187 0.52635 0.0
H157 H 0.79885 0.69634 0.45788 0.0
H158 H 0.81047 0.84582 0.30911 0.0
H159 H 0.83396 0.85091 0.37625 0.0
C160 C 0.68045 0.7338 0.10694 0.0
Eu161 Eu 0.65509 0.75671 0.08126 0.0
C162 C 0.69379 0.74225 0.16294 0.0
C163 C 0.70398 0.78601 0.14344 0.0
C164 C 0.71734 0.7893 0.18504 0.0
C165 C 0.7209 0.74886 0.24699 0.0
C166 C 0.71057 0.70586 0.26851 0.0
C167 C 0.69723 0.70252 0.22675 0.0
C168 C 0.64793 0.85745 0.06426 0.0
C169 C 0.638 0.76505 0.28274 0.0
C170 C 0.59919 0.78679 0.04385 0.0
Eu171 Eu 0.62426 0.76108 0.06905 0.0
C172 C 0.58441 0.76895 1.01903 0.0
C173 C 0.57694 0.72363 0.06249 0.0
C174 C 0.56241 0.71312 0.05229 0.0
C175 C 0.55505 0.7477 0.9985 0.0
C176 C 0.56268 0.79152 0.95113 0.0
C177 C 0.57719 0.80204 0.96155 0.0
C178 C 0.6304 0.659 0.08212 0.0
C179 C 0.64196 0.75671 0.86952 0.0
O180 O 0.66942 0.70706 0.14766 0.0
O181 O 0.67734 0.77191 0.04994 0.0
O182 O 0.65903 0.84289 0.02611 0.0
O183 O 0.64188 0.81994 0.11486 0.0
O184 O 0.64889 0.74779 0.24181 0.0
O185 O 0.62821 0.78188 0.22821 0.0
O186 O 0.60855 0.79091 0.97453 0.0
O187 O 0.60386 0.77009 0.12636 0.0
O188 O 0.61918 0.67504 0.11523 0.0
O189 O 0.63725 0.69644 0.03461 0.0
O190 O 0.63163 0.77728 0.91171 0.0
O191 O 0.65113 0.73554 0.92315 0.0
H192 H 0.70178 0.8171 0.09376 0.0
H193 H 0.72493 0.82337 0.16781 0.0
H194 H 0.71294 0.67362 0.31481 0.0
H195 H 0.68975 0.66774 0.24177 0.0
H196 H 0.58223 0.69753 0.10774 0.0
H197 H 0.55692 0.67923 0.09042 0.0
H198 H 0.55742 0.81844 0.90758 0.0
H199 H 0.58271 0.83737 0.92777 0.0
C200 C 0.34623 0.78946 0.04544 0.0
Eu201 Eu 0.37144 0.76297 0.04303 0.0
C202 C 0.33227 0.77879 0.09223 0.0
C203 C 0.32383 0.72942 0.08243 0.0
C204 C 0.31001 0.72247 0.11549 0.0
C205 C 0.30422 0.76468 0.15907 0.0
C206 C 0.31285 0.81342 0.1722 0.0
C207 C 0.32667 0.82039 0.13887 0.0
C208 C 0.37907 0.66308 0.03998 0.0
C209 C 0.38513 0.76203 0.26253 0.0
C210 C 0.42803 0.72303 0.08129 0.0
Eu211 Eu 0.40389 0.7572 0.06485 0.0
C212 C 0.44309 0.73646 0.05856 0.0
C213 C 0.45154 0.77663 0.11019 0.0
C214 C 0.46598 0.78506 0.09604 0.0
C215 C 0.47239 0.75359 0.02989 0.0
C216 C 0.46389 0.71407 0.97689 0.0
C217 C 0.44943 0.70552 0.99133 0.0
C218 C 0.39965 0.86077 0.0314 0.0
C219 C 0.38987 0.76139 0.84996 0.0
O220 O 0.35659 0.81406 0.09681 0.0
O221 O 0.3501 0.75295 0.98803 0.0
O222 O 0.36812 0.67602 0.99585 0.0
O223 O 0.38452 0.70176 0.0913 0.0
O224 O 0.37399 0.76659 0.20808 0.0
O225 O 0.3973 0.75508 0.2241 0.0
O226 O 0.41934 0.7094 1.00883 0.0
O227 O 0.4228 0.75175 0.14775 0.0
O228 O 0.41182 0.84561 0.04296 0.0
O229 O 0.39065 0.82011 0.03782 0.0
O230 O 0.39923 0.74097 0.904 0.0
O231 O 0.3794 0.7822 0.89002 0.0
H232 H 0.32777 0.69644 0.04688 0.0
H233 H 0.30377 0.6841 0.10556 0.0
H234 H 0.30876 0.84697 0.20455 0.0
H235 H 0.33286 0.85904 0.14659 0.0
H236 H 0.44708 0.80085 0.16355 0.0
H237 H 0.47216 0.81528 0.13941 0.0
H238 H 0.46841 0.68951 0.92443 0.0
H239 H 0.44322 0.67391 0.95123 0.0
C240 C 0.5993 0.27154 0.97387 0.0
Eu241 Eu 0.62559 0.25881 0.98901 0.0
C242 C 0.58422 0.2628 0.99983 0.0
C243 C 0.57483 0.2275 0.94432 0.0
C244 C 0.56037 0.22651 0.95426 0.0
C245 C 0.55489 0.26104 1.01964 0.0
C246 C 0.5643 0.29466 0.07831 0.0
C247 C 0.57876 0.2957 0.06824 0.0
C248 C 0.63526 0.16282 1.00596 0.0
C249 C 0.6427 0.25455 0.188 0.0
C250 C 0.68346 0.26331 0.95558 0.0
Eu251 Eu 0.6568 0.2659 0.97708 0.0
C252 C 0.69624 0.25396 0.90257 0.0
C253 C 0.70619 0.29797 0.88091 0.0
C254 C 0.71937 0.29111 0.84604 0.0
C255 C 0.72298 0.23999 0.83172 0.0
C256 C 0.71283 0.19576 0.84922 0.0
C257 C 0.69961 0.20265 0.88514 0.0
C258 C 0.64754 0.35946 0.02858 0.0
C259 C 0.6399 0.26776 0.774 0.0
O260 O 0.60826 0.30152 0.02915 0.0
O261 O 0.60481 0.23417 0.92843 0.0
O262 O 0.62464 0.17573 0.05342 0.0
O263 O 0.63987 0.19989 0.94814 0.0
O264 O 0.63181 0.27268 0.14775 0.0
O265 O 0.65264 0.23918 0.13324 0.0
O266 O 0.67497 0.2235 0.99208 0.0
O267 O 0.67719 0.30361 0.92936 0.0
O268 O 0.65819 0.34125 0.06627 0.0
O269 O 0.64216 0.32745 0.96371 0.0
O270 O 0.65189 0.26091 0.81502 0.0
O271 O 0.6288 0.27262 0.82699 0.0
H272 H 0.57863 0.20232 0.88953 0.0
H273 H 0.55353 0.20049 0.90694 0.0
H274 H 0.56052 0.32123 0.13066 0.0
H275 H 0.58565 0.32387 0.11141 0.0
H276 H 0.70397 0.33797 0.8946 0.0
H277 H 0.72685 0.326 0.83187 0.0
H278 H 0.71532 0.15584 0.83905 0.0
H279 H 0.69222 0.16791 0.90211 0.0
C280 C 0.42678 0.24989 0.99344 0.0
Eu281 Eu 0.40034 0.26028 0.98908 0.0
C282 C 0.44192 0.24469 0.99508 0.0
C283 C 0.45165 0.28278 0.94877 0.0
C284 C 0.46595 0.27869 0.95185 0.0
C285 C 0.47093 0.23635 1.00133 0.0
C286 C 0.46115 0.19812 0.04728 0.0
C287 C 0.44684 0.20225 0.0442 0.0
C288 C 0.39061 0.35663 0.9868 0.0
C289 C 0.38712 0.25861 0.20855 0.0
C290 C 0.34295 0.26412 1.00957 0.0
Eu291 Eu 0.36948 0.25297 1.01201 0.0
C292 C 0.33006 0.2607 0.94932 0.0
C293 C 0.31881 0.22143 0.97105 0.0
C294 C 0.30593 0.22097 0.92407 0.0
C295 C 0.3039 0.25999 0.85432 0.0
C296 C 0.31528 0.29852 0.83056 0.0
C297 C 0.32819 0.299 0.87772 0.0
C298 C 0.37885 0.15664 0.02321 0.0
C299 C 0.38264 0.25293 0.79341 0.0
O300 O 0.41723 0.21549 0.03432 0.0
O301 O 0.42193 0.28933 0.94977 0.0
O302 O 0.40103 0.34558 0.93544 0.0
O303 O 0.38646 0.31814 0.04256 0.0
O304 O 0.39765 0.24889 0.15326 0.0
O305 O 0.3754 0.26984 0.16929 0.0
O306 O 0.353 0.30297 0.99329 0.0
O307 O 0.34763 0.21984 0.0324 0.0
O308 O 0.36903 0.17158 0.07617 0.0
O309 O 0.38328 0.19298 0.96235 0.0
O310 O 0.3723 0.26482 0.84829 0.0
O311 O 0.3942 0.2404 0.83319 0.0
H312 H 0.44823 0.31594 0.91004 0.0
H313 H 0.47309 0.30846 0.91429 0.0
H314 H 0.46455 0.1653 0.0871 0.0
H315 H 0.43964 0.17232 0.08096 0.0
H316 H 0.31987 0.19168 0.02646 0.0
H317 H 0.2975 0.19015 0.94309 0.0
H318 H 0.31408 0.32947 0.77785 0.0
H319 H 0.33658 0.33018 0.85985 0.0
H320 H 0.24925 0.27232 0.60215 0.0
H321 H 0.23001 0.23409 0.88253 0.0
H322 H 0.25291 0.2323 0.95667 0.0
H323 H 0.27843 0.24227 0.94283 0.0
H324 H 0.29776 0.28087 0.66301 0.0
H325 H 0.27485 0.28319 0.58868 0.0
C326 C 0.25004 0.2642 0.67975 0.0
C327 C 0.23783 0.25326 0.73638 0.0
C328 C 0.2633 0.26351 0.72229 0.0
C329 C 0.23915 0.24194 0.83658 0.0
C330 C 0.25228 0.24119 0.8793 0.0
C331 C 0.27765 0.25066 0.86532 0.0
C332 C 0.28987 0.26119 0.80874 0.0
C333 C 0.26442 0.25173 0.82286 0.0
C334 C 0.28859 0.27308 0.70876 0.0
C335 C 0.27547 0.27415 0.666 0.0
H336 H 0.74714 0.2904 0.90804 0.0
H337 H 0.7314 0.17462 0.69045 0.0
H338 H 0.75528 0.1674 0.63843 0.0
H339 H 0.78062 0.19739 0.65001 0.0
H340 H 0.7961 0.31178 0.87141 0.0
H341 H 0.77235 0.31662 0.9255 0.0
C342 C 0.74893 0.26369 0.84895 0.0
C343 C 0.73748 0.23348 0.80254 0.0
C344 C 0.76266 0.25972 0.8197 0.0
C345 C 0.74001 0.19823 0.72754 0.0
C346 C 0.75367 0.19427 0.69755 0.0
C347 C 0.77884 0.22276 0.71111 0.0
C348 C 0.79023 0.25456 0.75575 0.0
C349 C 0.76508 0.22516 0.74261 0.0
C350 C 0.7876 0.28762 0.83419 0.0
C351 C 0.774 0.29024 0.86565 0.0
H352 H 0.29202 0.80254 0.32128 0.0
H353 H 0.28216 0.71394 0.05498 0.0
H354 H 0.25741 0.70469 0.0943 0.0
H355 H 0.23841 0.72244 0.20275 0.0
H356 H 0.24812 0.80991 0.47046 0.0
H357 H 0.27289 0.82008 0.43059 0.0
C358 C 0.28446 0.78143 0.27154 0.0
C359 C 0.28907 0.75869 0.18545 0.0
C360 C 0.27013 0.77642 0.29435 0.0
C361 C 0.27904 0.73105 0.1226 0.0
C362 C 0.26482 0.72607 0.14464 0.0
C363 C 0.24592 0.7434 0.25299 0.0
C364 C 0.24125 0.76543 0.33959 0.0
C365 C 0.26023 0.74853 0.23031 0.0
C366 C 0.25125 0.79322 0.40252 0.0
C367 C 0.26549 0.7987 0.38016 0.0
H368 H 0.74559 0.77939 0.15246 0.0
H369 H 0.72893 0.72162 0.43098 0.0
H370 H 0.75254 0.72186 0.49481 0.0
H371 H 0.77801 0.73962 0.4727 0.0
H372 H 0.7946 0.79725 0.19389 0.0
H373 H 0.77101 0.79687 0.13019 0.0
C374 C 0.74709 0.76742 0.22752 0.0
C375 C 0.7354 0.75057 0.28663 0.0
C376 C 0.76074 0.76774 0.26403 0.0
C377 C 0.73766 0.73426 0.38322 0.0
C378 C 0.75119 0.73459 0.42004 0.0
C379 C 0.77648 0.75157 0.39765 0.0
C380 C 0.78817 0.76857 0.33852 0.0
C381 C 0.76282 0.75114 0.36111 0.0
C382 C 0.78589 0.78466 0.2418 0.0
C383 C 0.77236 0.78423 0.20501 0.0
H384 H 0.16337 0.95555 0.42965 0.0
H385 H 0.12717 0.87707 0.57844 0.0
H386 H 0.11943 0.9628 0.61315 0.0
H387 H 0.12317 0.06083 0.60338 0.0
H388 H 0.15885 0.13907 0.44753 0.0
H389 H 0.16666 0.05336 0.41451 0.0
C390 C 0.15375 0.95735 0.46919 0.0
C391 C 0.14573 0.90998 0.50026 0.0
C392 C 0.14936 0.00697 0.48851 0.0
C393 C 0.13332 0.91282 0.55163 0.0
C394 C 0.12897 0.96195 0.57239 0.0
C395 C 0.13267 0.05906 0.56238 0.0
C396 C 0.14052 0.10638 0.52915 0.0
C397 C 0.13692 0.00936 0.54145 0.0
C398 C 0.15271 0.10335 0.47506 0.0
C399 C 0.15716 0.05428 0.45574 0.0
H400 H 0.90536 0.45186 0.59213 0.0
H401 H 0.86691 0.37384 0.46856 0.0
H402 H 0.85903 0.45993 0.43894 0.0
H403 H 0.86312 0.55781 0.44759 0.0
H404 H 0.90182 0.63573 0.56627 0.0
H405 H 0.9097 0.54973 0.59665 0.0
C406 C 0.89524 0.45378 0.5591 0.0
C407 C 0.88666 0.40657 0.53352 0.0
C408 C 0.89092 0.50351 0.54008 0.0
C409 C 0.87364 0.40962 0.4897 0.0
C410 C 0.86916 0.45885 0.47236 0.0
C411 C 0.87332 0.55581 0.47937 0.0
C412 C 0.88204 0.603 0.50272 0.0
C413 C 0.87772 0.50608 0.49698 0.0
C414 C 0.89516 0.60002 0.54461 0.0
C415 C 0.89957 0.55079 0.56326 0.0
H416 H 0.90525 0.93869 0.60767 0.0
H417 H 0.8726 0.88621 0.40026 0.0
H418 H 0.8659 0.97515 0.39463 0.0
H419 H 0.86953 0.0683 0.44558 0.0
H420 H 0.90271 0.12341 0.64711 0.0
H421 H 0.90919 0.03347 0.65682 0.0
C422 C 0.89662 0.94678 0.56177 0.0
C423 C 0.8892 0.90548 0.50635 0.0
C424 C 0.89304 0.99867 0.55691 0.0
C425 C 0.87817 0.9167 0.44614 0.0
C426 C 0.87445 0.96781 0.44189 0.0
C427 C 0.87819 0.06066 0.49163 0.0
C428 C 0.88561 0.10233 0.54579 0.0
C429 C 0.88182 0.00909 0.49667 0.0
C430 C 0.89685 0.09192 0.60472 0.0
C431 C 0.90052 0.0405 0.61044 0.0
H432 H 0.12385 0.5726 0.6146 0.0
H433 H 0.15548 0.62752 0.40278 0.0
H434 H 0.16266 0.5392 0.39618 0.0
H435 H 0.15964 0.44573 0.4472 0.0
H436 H 0.12777 0.38897 0.65612 0.0
H437 H 0.12088 0.47822 0.6666 0.0
C438 C 0.13236 0.56522 0.56742 0.0
C439 C 0.13923 0.60688 0.50994 0.0
C440 C 0.1363 0.51382 0.56289 0.0
C441 C 0.15017 0.59657 0.44882 0.0
C442 C 0.15422 0.54587 0.44449 0.0
C443 C 0.15119 0.45286 0.49516 0.0
C444 C 0.14424 0.41079 0.55092 0.0
C445 C 0.14731 0.50414 0.50071 0.0
C446 C 0.1333 0.42069 0.61254 0.0
C447 C 0.12937 0.47173 0.61856 0.0
H448 H 0.65386 0.61085 0.06147 0.0
H449 H 0.60903 0.57789 0.06889 0.0
H450 H 0.61013 0.48323 0.04556 0.0
H451 H 0.6239 0.40825 0.02789 0.0
H452 H 0.66874 0.44065 0.03747 0.0
H453 H 0.66761 0.53585 0.04896 0.0
C454 C 0.64436 0.58289 0.05761 0.0
C455 C 0.6314 0.60159 0.06661 0.0
C456 C 0.64507 0.52792 0.0473 0.0
C457 C 0.61917 0.56469 0.06252 0.0
C458 C 0.61977 0.51039 0.04897 0.0
C459 C 0.63338 0.43629 0.03176 0.0
C460 C 0.64637 0.41728 0.03117 0.0
C461 C 0.63266 0.49131 0.04188 0.0
C462 C 0.65859 0.45412 0.03781 0.0
C463 C 0.65797 0.50872 0.04437 0.0
H464 H 0.37541 0.90569 0.04777 0.0
H465 H 0.41907 0.94303 0.9799 0.0
H466 H 0.41656 0.03695 0.96259 0.0
H467 H 0.40218 0.11051 0.97561 0.0
H468 H 0.35889 0.0731 0.05474 0.0
H469 H 0.36099 0.97862 0.05766 0.0
C470 C 0.38432 0.93433 0.02827 0.0
C471 C 0.3974 0.9171 1.01513 0.0
C472 C 0.38289 0.98892 1.02056 0.0
C473 C 0.40887 0.95504 0.99068 0.0
C474 C 0.40746 0.00897 0.98073 0.0
C475 C 0.3932 0.08156 0.99221 0.0
C476 C 0.3804 0.09915 1.0147 0.0
C477 C 0.39455 0.02671 0.99667 0.0
C478 C 0.3689 0.06093 0.03741 0.0
C479 C 0.37007 0.00665 0.03922 0.0
H480 H 0.40514 0.4463 0.06615 0.0
H481 H 0.36674 0.38827 0.91842 0.0
H482 H 0.35976 0.47733 0.92163 0.0
H483 H 0.36474 0.57252 0.96373 0.0
H484 H 0.40273 0.63081 0.11694 0.0
H485 H 0.40977 0.5417 0.11381 0.0
C486 C 0.39521 0.4533 0.03542 0.0
C487 C 0.38633 0.41055 0.99356 0.0
C488 C 0.39126 0.50494 0.03783 0.0
C489 C 0.37356 0.42013 0.95321 0.0
C490 C 0.36964 0.47125 0.95424 0.0
C491 C 0.37456 0.56575 0.99655 0.0
C492 C 0.38325 0.6086 0.03981 0.0
C493 C 0.37841 0.51405 0.99609 0.0
C494 C 0.39588 0.59882 0.08261 0.0
C495 C 0.3999 0.54772 0.08098 0.0
H496 H 0.62318 0.07517 0.10419 0.0
H497 H 0.65718 0.12864 0.90978 0.0
H498 H 0.66421 0.03951 0.91027 0.0
H499 H 0.6606 0.94539 0.96582 0.0
H500 H 0.62618 0.89259 0.15754 0.0
H501 H 0.61942 0.98173 0.15785 0.0
C502 C 0.63214 0.06737 0.06198 0.0
C503 C 0.63964 0.10872 1.00709 0.0
C504 C 0.63604 0.0158 0.06196 0.0
C505 C 0.65121 0.09769 0.95268 0.0
C506 C 0.65523 0.04661 0.95291 0.0
C507 C 0.65162 0.95347 1.00763 0.0
C508 C 0.64395 0.91218 0.06195 0.0
C509 C 0.64772 1.0052 1.00716 0.0
C510 C 0.63231 0.92343 0.11534 0.0
C511 C 0.62843 0.97454 0.11559 0.0
H512 H 0.15926 0.24333 0.20878 0.0
H513 H 0.11782 0.28637 0.23638 0.0
H514 H 0.11564 0.28915 0.05836 0.0
H515 H 0.12542 0.27888 0.8948 0.0
H516 H 0.16686 0.2356 0.86783 0.0
H517 H 0.16907 0.23349 0.04569 0.0
C518 C 0.14974 0.25335 0.17612 0.0
C519 C 0.13872 0.26455 0.23633 0.0
C520 C 0.14854 0.25486 0.07363 0.0
C521 C 0.12647 0.27753 0.19219 0.0
C522 C 0.12521 0.27913 0.09022 0.0
C523 C 0.13495 0.26905 0.92763 0.0
C524 C 0.14595 0.25744 0.86756 0.0
C525 C 0.13617 0.2678 0.03021 0.0
C526 C 0.15821 0.24471 0.91186 0.0
C527 C 0.15949 0.24348 1.01376 0.0
H528 H 0.90415 0.23795 0.20598 0.0
H529 H 0.86161 0.2695 0.23325 0.0
H530 H 0.8593 0.27173 0.05593 0.0
H531 H 0.86932 0.26559 0.89238 0.0
H532 H 0.91184 0.23403 0.86448 0.0
H533 H 0.91412 0.23105 0.04199 0.0
C534 C 0.89437 0.24523 0.17322 0.0
C535 C 0.88311 0.25364 0.23332 0.0
C536 C 0.89307 0.24658 0.07067 0.0
C537 C 0.8705 0.26298 0.18921 0.0
C538 C 0.86914 0.2643 0.08752 0.0
C539 C 0.87909 0.25805 0.92499 0.0
C540 C 0.89036 0.25009 0.86476 0.0
C541 C 0.88036 0.25632 0.02746 0.0
C542 C 0.90294 0.24029 0.9087 0.0
C543 C 0.90429 0.23857 1.01047 0.0
H544 H 0.15954 0.74786 0.13499 0.0
H545 H 0.11834 0.79242 0.16805 0.0
H546 H 0.11543 0.79286 0.99059 0.0
H547 H 0.12439 0.77935 0.82519 0.0
H548 H 0.16547 0.73343 0.79296 0.0
H549 H 0.16852 0.73478 0.97007 0.0
C550 C 0.14994 0.75802 0.10365 0.0
C551 C 0.13921 0.7702 0.16566 0.0
C552 C 0.14826 0.75772 1.00111 0.0
C553 C 0.12682 0.78288 0.12284 0.0
C554 C 0.12512 0.78308 1.021 0.0
C555 C 0.13402 0.7696 0.85669 0.0
C556 C 0.14465 0.75616 0.79493 0.0
C557 C 0.13574 0.77029 0.9593 0.0
C558 C 0.15705 0.74371 0.83791 0.0
C559 C 0.15884 0.74457 0.93959 0.0
H560 H 0.86821 0.76067 0.82329 0.0
H561 H 0.91175 0.7425 0.79904 0.0
H562 H 0.91362 0.73762 0.97677 0.0
H563 H 0.90303 0.73918 0.14019 0.0
H564 H 0.85939 0.75612 0.16416 0.0
H565 H 0.85751 0.76045 0.98655 0.0
C566 C 0.87813 0.75583 0.85669 0.0
C567 C 0.88982 0.75222 0.79701 0.0
C568 C 0.87915 0.75257 0.95955 0.0
C569 C 0.90255 0.74544 0.84239 0.0
C570 C 0.90365 0.74261 0.94443 0.0
C571 C 0.89308 0.74357 0.10683 0.0
C572 C 0.88139 0.7473 0.16655 0.0
C573 C 0.89202 0.74612 1.0039 0.0
C574 C 0.8686 0.75301 0.12097 0.0
C575 C 0.86749 0.75566 1.01894 0.0
H576 H 0.65597 0.73479 0.42027 0.0
H577 H 0.61746 0.80141 0.38983 0.0
H578 H 0.6153 0.80523 0.56731 0.0
H579 H 0.6242 0.78913 0.73228 0.0
H580 H 0.66264 0.72195 0.76215 0.0
H581 H 0.6649 0.71908 0.58483 0.0
C582 C 0.64711 0.75024 0.45231 0.0
C583 C 0.63692 0.76779 0.3912 0.0
C584 C 0.64588 0.75226 0.5549 0.0
C585 C 0.6255 0.78761 0.43458 0.0
C586 C 0.62424 0.78983 0.53639 0.0
C587 C 0.63308 0.77393 0.70008 0.0
C588 C 0.6432 0.75575 0.76105 0.0
C589 C 0.63434 0.77218 0.59742 0.0
C590 C 0.65464 0.73614 0.71754 0.0
C591 C 0.65597 0.73446 0.61581 0.0
H592 H 0.37053 0.78053 0.71241 0.0
H593 H 0.41215 0.73943 0.74271 0.0
H594 H 0.41438 0.73624 0.56512 0.0
H595 H 0.40455 0.74459 0.40064 0.0
H596 H 0.36273 0.78382 0.36987 0.0
H597 H 0.36059 0.78805 0.54747 0.0
C598 C 0.38011 0.77106 0.68028 0.0
C599 C 0.39116 0.76035 0.74141 0.0
C600 C 0.3813 0.76876 0.57759 0.0
C601 C 0.40345 0.74775 0.69796 0.0
C602 C 0.40475 0.74594 0.59612 0.0
C603 C 0.39495 0.75409 0.43251 0.0
C604 C 0.38383 0.76389 0.37118 0.0
C605 C 0.39374 0.75624 0.53513 0.0
C606 C 0.37148 0.77596 0.41462 0.0
C607 C 0.37024 0.77849 0.51651 0.0
H608 H 0.62427 0.27991 0.32524 0.0
H609 H 0.66451 0.22652 0.29489 0.0
H610 H 0.66738 0.22702 0.47231 0.0
H611 H 0.65853 0.2428 0.63701 0.0
H612 H 0.61812 0.2949 0.6666 0.0
H613 H 0.61535 0.2948 0.48937 0.0
C614 C 0.63366 0.26826 0.35728 0.0
C615 C 0.64414 0.25323 0.2963 0.0
C616 C 0.63527 0.26855 0.4597 0.0
C617 C 0.65623 0.23821 0.33962 0.0
C618 C 0.65791 0.23857 0.44134 0.0
C619 C 0.64915 0.25438 0.60475 0.0
C620 C 0.63859 0.26897 0.66558 0.0
C621 C 0.64752 0.25382 0.50222 0.0
C622 C 0.62645 0.28344 0.62206 0.0
C623 C 0.62482 0.28339 0.52041 0.0
H624 H 0.36746 0.27144 0.34558 0.0
H625 H 0.41003 0.24087 0.31475 0.0
H626 H 0.41231 0.23547 0.49217 0.0
H627 H 0.40228 0.23939 0.65641 0.0
H628 H 0.35973 0.27023 0.68703 0.0
H629 H 0.35743 0.27529 0.50964 0.0
C630 C 0.37726 0.26376 0.37752 0.0
C631 C 0.38855 0.2567 0.31657 0.0
C632 C 0.37852 0.26051 0.4798 0.0
C633 C 0.40115 0.24656 0.3596 0.0
C634 C 0.40248 0.24337 0.46124 0.0
C635 C 0.39248 0.24701 0.62441 0.0
C636 C 0.3812 0.2543 0.68533 0.0
C637 C 0.39122 0.25018 0.52208 0.0
C638 C 0.3686 0.2644 0.64223 0.0
C639 C 0.36727 0.26739 0.5406 0.0
H640 H 0.03965 0.32024 0.50328 0.0
H641 H 0.03747 0.14965 0.48799 0.0
H642 H 1.01203 0.14077 0.48482 0.0
H643 H 0.99024 0.18138 0.49187 0.0
H644 H 0.99275 0.35225 0.50126 0.0
H645 H 0.0181 0.36078 0.50035 0.0
C646 C 0.03367 0.28107 0.49742 0.0
C647 C 0.04061 0.23574 0.49611 0.0
C648 C 0.019 0.27617 0.49513 0.0
C649 C 0.03252 0.18534 0.49055 0.0
C650 C 0.01792 0.18019 0.48823 0.0
C651 C 0.99632 0.22051 0.49241 0.0
C652 C 0.98947 0.26603 0.49784 0.0
C653 C 1.01102 0.22531 0.49135 0.0
C654 C 0.99763 0.31637 0.49926 0.0
C655 C 1.01218 0.32138 0.49813 0.0
H656 H 0.98985 0.69046 0.44484 0.0
H657 H 0.98877 0.83153 0.61864 0.0
H658 H 0.01408 0.84103 0.63852 0.0
H659 H 0.03663 0.81008 0.6045 0.0
H660 H 0.03755 0.6697 0.42815 0.0
H661 H 1.01223 0.6583 0.41456 0.0
C662 C 0.99509 0.72289 0.48836 0.0
C663 C 0.98732 0.76022 0.53002 0.0
C664 C 1.00967 0.7281 0.49972 0.0
C665 C 0.99443 0.80252 0.58457 0.0
C666 C 1.00893 0.80785 0.59647 0.0
C667 C 0.03132 0.77704 0.56284 0.0
C668 C 0.03912 0.74078 0.51774 0.0
C669 C 0.01668 0.7711 0.55375 0.0
C670 C 0.03193 0.6978 0.46527 0.0
C671 C 0.0174 0.69147 0.45656 0.0
H672 H 0.53765 0.82349 1.00985 0.0
H673 H 0.53727 0.654 0.98403 0.0
H674 H 0.51181 0.64096 0.99001 0.0
H675 H 0.48965 0.67745 1.00744 0.0
H676 H 0.49016 0.8473 0.02731 0.0
H677 H 0.51554 0.8602 1.01844 0.0
C678 C 0.53203 0.78369 1.00378 0.0
C679 C 0.53946 0.73983 0.99647 0.0
C680 C 0.51737 0.77644 1.00681 0.0
C681 C 0.5319 0.68852 0.9909 0.0
C682 C 0.51731 0.68101 0.99386 0.0
C683 C 0.49527 0.71738 1.00829 0.0
C684 C 0.4879 0.76127 1.01858 0.0
C685 C 0.50993 0.72466 1.00248 0.0
C686 C 0.49548 0.81263 1.02113 0.0
C687 C 0.51003 0.82013 1.01548 0.0
H688 H 0.49282 0.31619 0.0236 0.0
H689 H 0.48361 0.14639 0.98628 0.0
H690 H 0.50846 0.1387 0.99165 0.0
H691 H 0.53297 0.18013 1.00527 0.0
H692 H 0.54209 0.35036 0.03699 0.0
H693 H 0.51726 0.35761 0.03571 0.0
C694 C 0.49622 0.27748 1.01575 0.0
C695 C 0.48623 0.23197 1.00461 0.0
C696 C 0.5106 0.27329 1.01835 0.0
C697 C 0.49095 0.18213 0.99629 0.0
C698 C 0.50522 0.17768 0.99877 0.0
C699 C 0.52955 0.21889 1.01146 0.0
C700 C 0.53954 0.26454 1.02188 0.0
C701 C 0.51516 0.22299 1.00962 0.0
C702 C 0.53477 0.31429 0.03087 0.0
C703 C 0.52051 0.3186 0.02927 0.0
loop_
_geom_bond_atom_site_label_1
_geom_bond_atom_site_label_2
_geom_bond_distance
_geom_bond_site_symmetry_2
_ccdc_geom_bond_type
C0 Eu1 2.835 . S
C0 C2 1.500 . S
C0 O20 1.257 . S
C0 O21 1.260 . S
Eu1 C0 2.835 . S
Eu1 O20 2.473 . S
Eu1 O21 2.480 . S
Eu1 O22 2.430 . S
Eu1 O23 2.670 . S
Eu1 O24 2.394 . S
Eu1 O29 2.355 . S
Eu1 O31 2.374 . S
C2 C0 1.500 . S
C2 C3 1.377 . S
C2 C7 1.377 . S
C3 C2 1.377 . S
C3 C4 1.395 . S
C3 H32 0.931 . S
C4 C3 1.395 . S
C4 C5 1.383 . S
C4 H33 0.931 . S
C5 C4 1.383 . S
C5 C6 1.394 . S
C6 C5 1.394 . S
C6 C7 1.378 . S
C6 H34 0.931 . S
C7 C2 1.377 . S
C7 C6 1.378 . S
C7 H35 0.931 . S
C8 O22 1.259 . S
C8 O23 1.270 . S
C9 O24 1.251 . S
C9 O25 1.251 . S
C10 Eu11 2.835 . S
C10 C12 1.500 . S
C10 O26 1.257 . S
C10 O27 1.260 . S
Eu11 C10 2.835 . S
Eu11 O23 2.355 . S
Eu11 O25 2.374 . S
Eu11 O26 2.473 . S
Eu11 O27 2.480 . S
Eu11 O28 2.430 . S
Eu11 O29 2.670 . S
Eu11 O30 2.394 . S
C12 C10 1.500 . S
C12 C13 1.377 . S
C12 C17 1.377 . S
C13 C12 1.377 . S
C13 C14 1.395 . S
C13 H36 0.931 . S
C14 C13 1.395 . S
C14 C15 1.383 . S
C14 H37 0.931 . S
C15 C14 1.383 . S
C15 C16 1.394 . S
C16 C15 1.394 . S
C16 C17 1.378 . S
C16 H38 0.931 . S
C17 C12 1.377 . S
C17 C16 1.378 . S
C17 H39 0.931 . S
C18 O28 1.259 . S
C18 O29 1.270 . S
C19 O30 1.251 . S
C19 O31 1.251 . S
O20 C0 1.257 . S
O20 Eu1 2.473 . S
O21 C0 1.260 . S
O21 Eu1 2.480 . S
O22 Eu1 2.430 . S
O22 C8 1.259 . S
O23 Eu1 2.670 . S
O23 C8 1.270 . S
O23 Eu11 2.355 . S
O24 Eu1 2.394 . S
O24 C9 1.251 . S
O25 C9 1.251 . S
O25 Eu11 2.374 . S
O26 C10 1.257 . S
O26 Eu11 2.473 . S
O27 C10 1.260 . S
O27 Eu11 2.480 . S
O28 Eu11 2.430 . S
O28 C18 1.259 . S
O29 Eu1 2.355 . S
O29 Eu11 2.670 . S
O29 C18 1.270 . S
O30 Eu11 2.394 . S
O30 C19 1.251 . S
O31 Eu1 2.374 . S
O31 C19 1.251 . S
H32 C3 0.931 . S
H33 C4 0.931 . S
H34 C6 0.931 . S
H35 C7 0.931 . S
H36 C13 0.931 . S
H37 C14 0.931 . S
H38 C16 0.931 . S
H39 C17 0.931 . S
C40 Eu41 2.835 . S
C40 C42 1.500 . S
C40 O60 1.257 . S
C40 O61 1.260 . S
Eu41 C40 2.835 . S
Eu41 O60 2.473 . S
Eu41 O61 2.480 . S
Eu41 O62 2.430 . S
Eu41 O63 2.670 . S
Eu41 O64 2.394 . S
Eu41 O69 2.355 . S
Eu41 O71 2.374 . S
C42 C40 1.500 . S
C42 C43 1.377 . S
C42 C47 1.377 . S
C43 C42 1.377 . S
C43 C44 1.395 . S
C43 H72 0.931 . S
C44 C43 1.395 . S
C44 C45 1.383 . S
C44 H73 0.931 . S
C45 C44 1.383 . S
C45 C46 1.394 . S
C46 C45 1.394 . S
C46 C47 1.378 . S
C46 H74 0.931 . S
C47 C42 1.377 . S
C47 C46 1.378 . S
C47 H75 0.931 . S
C48 O62 1.259 . S
C48 O63 1.270 . S
C49 O64 1.251 . S
C49 O65 1.251 . S
C50 Eu51 2.835 . S
C50 C52 1.500 . S
C50 O66 1.257 . S
C50 O67 1.260 . S
Eu51 C50 2.835 . S
Eu51 O63 2.355 . S
Eu51 O65 2.374 . S
Eu51 O66 2.473 . S
Eu51 O67 2.480 . S
Eu51 O68 2.430 . S
Eu51 O69 2.670 . S
Eu51 O70 2.394 . S
C52 C50 1.500 . S
C52 C53 1.377 . S
C52 C57 1.377 . S
C53 C52 1.377 . S
C53 C54 1.395 . S
C53 H76 0.931 . S
C54 C53 1.395 . S
C54 C55 1.383 . S
C54 H77 0.931 . S
C55 C54 1.383 . S
C55 C56 1.394 . S
C56 C55 1.394 . S
C56 C57 1.378 . S
C56 H78 0.931 . S
C57 C52 1.377 . S
C57 C56 1.378 . S
C57 H79 0.931 . S
C58 O68 1.259 . S
C58 O69 1.270 . S
C59 O70 1.251 . S
C59 O71 1.251 . S
O60 C40 1.257 . S
O60 Eu41 2.473 . S
O61 C40 1.260 . S
O61 Eu41 2.480 . S
O62 Eu41 2.430 . S
O62 C48 1.259 . S
O63 Eu41 2.670 . S
O63 C48 1.270 . S
O63 Eu51 2.355 . S
O64 Eu41 2.394 . S
O64 C49 1.251 . S
O65 C49 1.251 . S
O65 Eu51 2.374 . S
O66 C50 1.257 . S
O66 Eu51 2.473 . S
O67 C50 1.260 . S
O67 Eu51 2.480 . S
O68 Eu51 2.430 . S
O68 C58 1.259 . S
O69 Eu41 2.355 . S
O69 Eu51 2.670 . S
O69 C58 1.270 . S
O70 Eu51 2.394 . S
O70 C59 1.251 . S
O71 Eu41 2.374 . S
O71 C59 1.251 . S
H72 C43 0.931 . S
H73 C44 0.931 . S
H74 C46 0.931 . S
H75 C47 0.931 . S
H76 C53 0.931 . S
H77 C54 0.931 . S
H78 C56 0.931 . S
H79 C57 0.931 . S
C80 Eu81 2.835 . S
C80 C82 1.500 . S
C80 O100 1.257 . S
C80 O101 1.260 . S
Eu81 C80 2.835 . S
Eu81 O100 2.473 . S
Eu81 O101 2.480 . S
Eu81 O102 2.430 . S
Eu81 O103 2.670 . S
Eu81 O104 2.394 . S
Eu81 O109 2.355 . S
Eu81 O111 2.374 . S
C82 C80 1.500 . S
C82 C83 1.377 . S
C82 C87 1.377 . S
C83 C82 1.377 . S
C83 C84 1.395 . S
C83 H112 0.931 . S
C84 C83 1.395 . S
C84 C85 1.383 . S
C84 H113 0.931 . S
C85 C84 1.383 . S
C85 C86 1.394 . S
C86 C85 1.394 . S
C86 C87 1.378 . S
C86 H114 0.931 . S
C87 C82 1.377 . S
C87 C86 1.378 . S
C87 H115 0.931 . S
C88 O102 1.259 . S
C88 O103 1.270 . S
C89 O104 1.251 . S
C89 O105 1.251 . S
C90 Eu91 2.835 . S
C90 C92 1.500 . S
C90 O106 1.257 . S
C90 O107 1.260 . S
Eu91 C90 2.835 . S
Eu91 O103 2.355 . S
Eu91 O105 2.374 . S
Eu91 O106 2.473 . S
Eu91 O107 2.480 . S
Eu91 O108 2.430 . S
Eu91 O109 2.670 . S
Eu91 O110 2.394 . S
C92 C90 1.500 . S
C92 C93 1.377 . S
C92 C97 1.377 . S
C93 C92 1.377 . S
C93 C94 1.395 . S
C93 H116 0.931 . S
C94 C93 1.395 . S
C94 C95 1.383 . S
C94 H117 0.931 . S
C95 C94 1.383 . S
C95 C96 1.394 . S
C96 C95 1.394 . S
C96 C97 1.378 . S
C96 H118 0.931 . S
C97 C92 1.377 . S
C97 C96 1.378 . S
C97 H119 0.931 . S
C98 O108 1.259 . S
C98 O109 1.270 . S
C99 O110 1.251 . S
C99 O111 1.251 . S
O100 C80 1.257 . S
O100 Eu81 2.473 . S
O101 C80 1.260 . S
O101 Eu81 2.480 . S
O102 Eu81 2.430 . S
O102 C88 1.259 . S
O103 Eu81 2.670 . S
O103 C88 1.270 . S
O103 Eu91 2.355 . S
O104 Eu81 2.394 . S
O104 C89 1.251 . S
O105 C89 1.251 . S
O105 Eu91 2.374 . S
O106 C90 1.257 . S
O106 Eu91 2.473 . S
O107 C90 1.260 . S
O107 Eu91 2.480 . S
O108 Eu91 2.430 . S
O108 C98 1.259 . S
O109 Eu81 2.355 . S
O109 Eu91 2.670 . S
O109 C98 1.270 . S
O110 Eu91 2.394 . S
O110 C99 1.251 . S
O111 Eu81 2.374 . S
O111 C99 1.251 . S
H112 C83 0.931 . S
H113 C84 0.931 . S
H114 C86 0.931 . S
H115 C87 0.931 . S
H116 C93 0.931 . S
H117 C94 0.931 . S
H118 C96 0.931 . S
H119 C97 0.931 . S
C120 Eu121 2.835 . S
C120 C122 1.500 . S
C120 O140 1.257 . S
C120 O141 1.260 . S
Eu121 C120 2.835 . S
Eu121 O140 2.473 . S
Eu121 O141 2.480 . S
Eu121 O142 2.430 . S
Eu121 O143 2.670 . S
Eu121 O144 2.394 . S
Eu121 O149 2.355 . S
Eu121 O151 2.374 . S
C122 C120 1.500 . S
C122 C123 1.377 . S
C122 C127 1.377 . S
C123 C122 1.377 . S
C123 C124 1.395 . S
C123 H152 0.931 . S
C124 C123 1.395 . S
C124 C125 1.383 . S
C124 H153 0.931 . S
C125 C124 1.383 . S
C125 C126 1.394 . S
C126 C125 1.394 . S
C126 C127 1.378 . S
C126 H154 0.931 . S
C127 C122 1.377 . S
C127 C126 1.378 . S
C127 H155 0.931 . S
C128 O142 1.259 . S
C128 O143 1.270 . S
C129 O144 1.251 . S
C129 O145 1.251 . S
C130 Eu131 2.835 . S
C130 C132 1.500 . S
C130 O146 1.257 . S
C130 O147 1.260 . S
Eu131 C130 2.835 . S
Eu131 O143 2.355 . S
Eu131 O145 2.374 . S
Eu131 O146 2.473 . S
Eu131 O147 2.480 . S
Eu131 O148 2.430 . S
Eu131 O149 2.670 . S
Eu131 O150 2.394 . S
C132 C130 1.500 . S
C132 C133 1.377 . S
C132 C137 1.377 . S
C133 C132 1.377 . S
C133 C134 1.395 . S
C133 H156 0.931 . S
C134 C133 1.395 . S
C134 C135 1.383 . S
C134 H157 0.931 . S
C135 C134 1.383 . S
C135 C136 1.394 . S
C136 C135 1.394 . S
C136 C137 1.378 . S
C136 H158 0.931 . S
C137 C132 1.377 . S
C137 C136 1.378 . S
C137 H159 0.931 . S
C138 O148 1.259 . S
C138 O149 1.270 . S
C139 O150 1.251 . S
C139 O151 1.251 . S
O140 C120 1.257 . S
O140 Eu121 2.473 . S
O141 C120 1.260 . S
O141 Eu121 2.480 . S
O142 Eu121 2.430 . S
O142 C128 1.259 . S
O143 Eu121 2.670 . S
O143 C128 1.270 . S
O143 Eu131 2.355 . S
O144 Eu121 2.394 . S
O144 C129 1.251 . S
O145 C129 1.251 . S
O145 Eu131 2.374 . S
O146 C130 1.257 . S
O146 Eu131 2.473 . S
O147 C130 1.260 . S
O147 Eu131 2.480 . S
O148 Eu131 2.430 . S
O148 C138 1.259 . S
O149 Eu121 2.355 . S
O149 Eu131 2.670 . S
O149 C138 1.270 . S
O150 Eu131 2.394 . S
O150 C139 1.251 . S
O151 Eu121 2.374 . S
O151 C139 1.251 . S
H152 C123 0.931 . S
H153 C124 0.931 . S
H154 C126 0.931 . S
H155 C127 0.931 . S
H156 C133 0.931 . S
H157 C134 0.931 . S
H158 C136 0.931 . S
H159 C137 0.931 . S
C160 Eu161 2.835 1_554 S
C160 C162 1.500 . S
C160 O180 1.257 . S
C160 O181 1.260 . S
Eu161 C160 2.835 1_556 S
Eu161 O180 2.473 1_556 S
Eu161 O181 2.480 1_556 S
Eu161 O182 2.430 . S
Eu161 O183 2.670 . S
Eu161 O184 2.394 1_556 S
Eu161 O189 2.355 1_556 S
Eu161 O191 2.374 . S
C162 C160 1.500 . S
C162 C163 1.377 . S
C162 C167 1.377 . S
C163 C162 1.377 . S
C163 C164 1.395 . S
C163 H192 0.931 . S
C164 C163 1.395 . S
C164 C165 1.383 . S
C164 H193 0.931 . S
C165 C164 1.383 . S
C165 C166 1.394 . S
C166 C165 1.394 . S
C166 C167 1.378 . S
C166 H194 0.931 . S
C167 C162 1.377 . S
C167 C166 1.378 . S
C167 H195 0.931 . S
C168 O182 1.259 . S
C168 O183 1.270 . S
C169 O184 1.251 . S
C169 O185 1.251 . S
C170 Eu171 2.835 1_556 S
C170 C172 1.500 . S
C170 O186 1.257 . S
C170 O187 1.260 . S
Eu171 C170 2.835 1_554 S
Eu171 O183 2.355 1_554 S
Eu171 O185 2.374 . S
Eu171 O186 2.473 1_554 S
Eu171 O187 2.480 1_554 S
Eu171 O188 2.430 . S
Eu171 O189 2.670 . S
Eu171 O190 2.394 1_554 S
C172 C170 1.500 . S
C172 C173 1.377 . S
C172 C177 1.377 . S
C173 C172 1.377 . S
C173 C174 1.395 . S
C173 H196 0.931 . S
C174 C173 1.395 . S
C174 C175 1.383 . S
C174 H197 0.931 . S
C175 C174 1.383 . S
C175 C176 1.394 . S
C176 C175 1.394 . S
C176 C177 1.378 . S
C176 H198 0.931 . S
C177 C172 1.377 . S
C177 C176 1.378 . S
C177 H199 0.931 . S
C178 O188 1.259 . S
C178 O189 1.270 . S
C179 O190 1.251 . S
C179 O191 1.251 . S
O180 C160 1.257 . S
O180 Eu161 2.473 1_554 S
O181 C160 1.260 . S
O181 Eu161 2.480 1_554 S
O182 Eu161 2.430 . S
O182 C168 1.259 . S
O183 Eu161 2.670 . S
O183 C168 1.270 . S
O183 Eu171 2.355 1_556 S
O184 Eu161 2.394 1_554 S
O184 C169 1.251 . S
O185 C169 1.251 . S
O185 Eu171 2.374 . S
O186 C170 1.257 . S
O186 Eu171 2.473 1_556 S
O187 C170 1.260 . S
O187 Eu171 2.480 1_556 S
O188 Eu171 2.430 . S
O188 C178 1.259 . S
O189 Eu161 2.355 1_554 S
O189 Eu171 2.670 . S
O189 C178 1.270 . S
O190 Eu171 2.394 1_556 S
O190 C179 1.251 . S
O191 Eu161 2.374 . S
O191 C179 1.251 . S
H192 C163 0.931 . S
H193 C164 0.931 . S
H194 C166 0.931 . S
H195 C167 0.931 . S
H196 C173 0.931 . S
H197 C174 0.931 . S
H198 C176 0.931 . S
H199 C177 0.931 . S
C200 Eu201 2.835 1_554 S
C200 C202 1.500 . S
C200 O220 1.257 . S
C200 O221 1.260 . S
Eu201 C200 2.835 1_556 S
Eu201 O220 2.473 1_556 S
Eu201 O221 2.480 1_556 S
Eu201 O222 2.430 . S
Eu201 O223 2.670 . S
Eu201 O224 2.394 1_556 S
Eu201 O229 2.355 1_556 S
Eu201 O231 2.374 . S
C202 C200 1.500 . S
C202 C203 1.377 . S
C202 C207 1.377 . S
C203 C202 1.377 . S
C203 C204 1.395 . S
C203 H232 0.931 . S
C204 C203 1.395 . S
C204 C205 1.383 . S
C204 H233 0.931 . S
C205 C204 1.383 . S
C205 C206 1.394 . S
C206 C205 1.394 . S
C206 C207 1.378 . S
C206 H234 0.931 . S
C207 C202 1.377 . S
C207 C206 1.378 . S
C207 H235 0.931 . S
C208 O222 1.259 . S
C208 O223 1.270 . S
C209 O224 1.251 . S
C209 O225 1.251 . S
C210 Eu211 2.835 1_556 S
C210 C212 1.500 . S
C210 O226 1.257 . S
C210 O227 1.260 . S
Eu211 C210 2.835 1_554 S
Eu211 O223 2.355 1_554 S
Eu211 O225 2.374 . S
Eu211 O226 2.473 1_554 S
Eu211 O227 2.480 1_554 S
Eu211 O228 2.430 . S
Eu211 O229 2.670 . S
Eu211 O230 2.394 1_554 S
C212 C210 1.500 . S
C212 C213 1.377 . S
C212 C217 1.377 . S
C213 C212 1.377 . S
C213 C214 1.395 . S
C213 H236 0.931 . S
C214 C213 1.395 . S
C214 C215 1.383 . S
C214 H237 0.931 . S
C215 C214 1.383 . S
C215 C216 1.394 . S
C216 C215 1.394 . S
C216 C217 1.378 . S
C216 H238 0.931 . S
C217 C212 1.377 . S
C217 C216 1.378 . S
C217 H239 0.931 . S
C218 O228 1.259 . S
C218 O229 1.270 . S
C219 O230 1.251 . S
C219 O231 1.251 . S
O220 C200 1.257 . S
O220 Eu201 2.473 1_554 S
O221 C200 1.260 . S
O221 Eu201 2.480 1_554 S
O222 Eu201 2.430 . S
O222 C208 1.259 . S
O223 Eu201 2.670 . S
O223 C208 1.270 . S
O223 Eu211 2.355 1_556 S
O224 Eu201 2.394 1_554 S
O224 C209 1.251 . S
O225 C209 1.251 . S
O225 Eu211 2.374 . S
O226 C210 1.257 . S
O226 Eu211 2.473 1_556 S
O227 C210 1.260 . S
O227 Eu211 2.480 1_556 S
O228 Eu211 2.430 . S
O228 C218 1.259 . S
O229 Eu201 2.355 1_554 S
O229 Eu211 2.670 . S
O229 C218 1.270 . S
O230 Eu211 2.394 1_556 S
O230 C219 1.251 . S
O231 Eu201 2.374 . S
O231 C219 1.251 . S
H232 C203 0.931 . S
H233 C204 0.931 . S
H234 C206 0.931 . S
H235 C207 0.931 . S
H236 C213 0.931 . S
H237 C214 0.931 . S
H238 C216 0.931 . S
H239 C217 0.931 . S
C240 Eu241 2.835 1_554 S
C240 C242 1.500 . S
C240 O260 1.257 . S
C240 O261 1.260 . S
Eu241 C240 2.835 1_556 S
Eu241 O260 2.473 1_556 S
Eu241 O261 2.480 1_556 S
Eu241 O262 2.430 . S
Eu241 O263 2.670 . S
Eu241 O264 2.394 1_556 S
Eu241 O269 2.355 1_556 S
Eu241 O271 2.374 . S
C242 C240 1.500 . S
C242 C243 1.377 . S
C242 C247 1.377 . S
C243 C242 1.377 . S
C243 C244 1.395 . S
C243 H272 0.931 . S
C244 C243 1.395 . S
C244 C245 1.383 . S
C244 H273 0.931 . S
C245 C244 1.383 . S
C245 C246 1.394 . S
C246 C245 1.394 . S
C246 C247 1.378 . S
C246 H274 0.931 . S
C247 C242 1.377 . S
C247 C246 1.378 . S
C247 H275 0.931 . S
C248 O262 1.259 . S
C248 O263 1.270 . S
C249 O264 1.251 . S
C249 O265 1.251 . S
C250 Eu251 2.835 1_556 S
C250 C252 1.500 . S
C250 O266 1.257 . S
C250 O267 1.260 . S
Eu251 C250 2.835 1_554 S
Eu251 O263 2.355 1_554 S
Eu251 O265 2.374 . S
Eu251 O266 2.473 1_554 S
Eu251 O267 2.480 1_554 S
Eu251 O268 2.430 . S
Eu251 O269 2.670 . S
Eu251 O270 2.394 1_554 S
C252 C250 1.500 . S
C252 C253 1.377 . S
C252 C257 1.377 . S
C253 C252 1.377 . S
C253 C254 1.395 . S
C253 H276 0.931 . S
C254 C253 1.395 . S
C254 C255 1.383 . S
C254 H277 0.931 . S
C255 C254 1.383 . S
C255 C256 1.394 . S
C256 C255 1.394 . S
C256 C257 1.378 . S
C256 H278 0.931 . S
C257 C252 1.377 . S
C257 C256 1.378 . S
C257 H279 0.931 . S
C258 O268 1.259 . S
C258 O269 1.270 . S
C259 O270 1.251 . S
C259 O271 1.251 . S
O260 C240 1.257 . S
O260 Eu241 2.473 1_554 S
O261 C240 1.260 . S
O261 Eu241 2.480 1_554 S
O262 Eu241 2.430 . S
O262 C248 1.259 . S
O263 Eu241 2.670 . S
O263 C248 1.270 . S
O263 Eu251 2.355 1_556 S
O264 Eu241 2.394 1_554 S
O264 C249 1.251 . S
O265 C249 1.251 . S
O265 Eu251 2.374 . S
O266 C250 1.257 . S
O266 Eu251 2.473 1_556 S
O267 C250 1.260 . S
O267 Eu251 2.480 1_556 S
O268 Eu251 2.430 . S
O268 C258 1.259 . S
O269 Eu241 2.355 1_554 S
O269 Eu251 2.670 . S
O269 C258 1.270 . S
O270 Eu251 2.394 1_556 S
O270 C259 1.251 . S
O271 Eu241 2.374 . S
O271 C259 1.251 . S
H272 C243 0.931 . S
H273 C244 0.931 . S
H274 C246 0.931 . S
H275 C247 0.931 . S
H276 C253 0.931 . S
H277 C254 0.931 . S
H278 C256 0.931 . S
H279 C257 0.931 . S
C280 Eu281 2.835 1_554 S
C280 C282 1.500 . S
C280 O300 1.257 . S
C280 O301 1.260 . S
Eu281 C280 2.835 1_556 S
Eu281 O300 2.473 1_556 S
Eu281 O301 2.480 1_556 S
Eu281 O302 2.430 . S
Eu281 O303 2.670 . S
Eu281 O304 2.394 1_556 S
Eu281 O309 2.355 1_556 S
Eu281 O311 2.374 . S
C282 C280 1.500 . S
C282 C283 1.377 . S
C282 C287 1.377 . S
C283 C282 1.377 . S
C283 C284 1.395 . S
C283 H312 0.931 . S
C284 C283 1.395 . S
C284 C285 1.383 . S
C284 H313 0.931 . S
C285 C284 1.383 . S
C285 C286 1.394 . S
C286 C285 1.394 . S
C286 C287 1.378 . S
C286 H314 0.931 . S
C287 C282 1.377 . S
C287 C286 1.378 . S
C287 H315 0.931 . S
C288 O302 1.259 . S
C288 O303 1.270 . S
C289 O304 1.251 . S
C289 O305 1.251 . S
C290 Eu291 2.835 1_556 S
C290 C292 1.500 . S
C290 O306 1.257 . S
C290 O307 1.260 . S
Eu291 C290 2.835 1_554 S
Eu291 O303 2.355 1_554 S
Eu291 O305 2.374 . S
Eu291 O306 2.473 1_554 S
Eu291 O307 2.480 1_554 S
Eu291 O308 2.430 . S
Eu291 O309 2.670 . S
Eu291 O310 2.394 1_554 S
C292 C290 1.500 . S
C292 C293 1.377 . S
C292 C297 1.377 . S
C293 C292 1.377 . S
C293 C294 1.395 . S
C293 H316 0.931 . S
C294 C293 1.395 . S
C294 C295 1.383 . S
C294 H317 0.931 . S
C295 C294 1.383 . S
C295 C296 1.394 . S
C296 C295 1.394 . S
C296 C297 1.378 . S
C296 H318 0.931 . S
C297 C292 1.377 . S
C297 C296 1.378 . S
C297 H319 0.931 . S
C298 O308 1.259 . S
C298 O309 1.270 . S
C299 O310 1.251 . S
C299 O311 1.251 . S
O300 C280 1.257 . S
O300 Eu281 2.473 1_554 S
O301 C280 1.260 . S
O301 Eu281 2.480 1_554 S
O302 Eu281 2.430 . S
O302 C288 1.259 . S
O303 Eu281 2.670 . S
O303 C288 1.270 . S
O303 Eu291 2.355 1_556 S
O304 Eu281 2.394 1_554 S
O304 C289 1.251 . S
O305 C289 1.251 . S
O305 Eu291 2.374 . S
O306 C290 1.257 . S
O306 Eu291 2.473 1_556 S
O307 C290 1.260 . S
O307 Eu291 2.480 1_556 S
O308 Eu291 2.430 . S
O308 C298 1.259 . S
O309 Eu281 2.355 1_554 S
O309 Eu291 2.670 . S
O309 C298 1.270 . S
O310 Eu291 2.394 1_556 S
O310 C299 1.251 . S
O311 Eu281 2.374 . S
O311 C299 1.251 . S
H312 C283 0.931 . S
H313 C284 0.931 . S
H314 C286 0.931 . S
H315 C287 0.931 . S
H316 C293 0.931 . S
H317 C294 0.931 . S
H318 C296 0.931 . S
H319 C297 0.931 . S
H320 C326 0.930 . S
H321 C329 0.930 . S
H322 C330 0.930 . S
H323 C331 0.930 . S
H324 C334 0.930 . S
H325 C335 0.930 . S
C326 H320 0.930 . S
C326 C327 1.355 . S
C326 C328 1.415 . S
C327 C326 1.355 . S
C327 C329 1.419 . S
C328 C326 1.415 . S
C328 C333 1.425 . S
C328 C335 1.409 . S
C329 H321 0.930 . S
C329 C327 1.419 . S
C329 C330 1.362 . S
C330 H322 0.930 . S
C330 C329 1.362 . S
C330 C333 1.409 . S
C331 H323 0.930 . S
C331 C332 1.355 . S
C331 C333 1.415 . S
C332 C331 1.355 . S
C332 C334 1.419 . S
C333 C328 1.425 . S
C333 C330 1.409 . S
C333 C331 1.415 . S
C334 H324 0.930 . S
C334 C332 1.419 . S
C334 C335 1.362 . S
C335 H325 0.930 . S
C335 C328 1.409 . S
C335 C334 1.362 . S
H336 C342 0.930 . S
H337 C345 0.930 . S
H338 C346 0.930 . S
H339 C347 0.930 . S
H340 C350 0.930 . S
H341 C351 0.930 . S
C342 H336 0.930 . S
C342 C343 1.355 . S
C342 C344 1.415 . S
C343 C342 1.355 . S
C343 C345 1.419 . S
C344 C342 1.415 . S
C344 C349 1.425 . S
C344 C351 1.409 . S
C345 H337 0.930 . S
C345 C343 1.419 . S
C345 C346 1.362 . S
C346 H338 0.930 . S
C346 C345 1.362 . S
C346 C349 1.409 . S
C347 H339 0.930 . S
C347 C348 1.355 . S
C347 C349 1.415 . S
C348 C347 1.355 . S
C348 C350 1.419 . S
C349 C344 1.425 . S
C349 C346 1.409 . S
C349 C347 1.415 . S
C350 H340 0.930 . S
C350 C348 1.419 . S
C350 C351 1.362 . S
C351 H341 0.930 . S
C351 C344 1.409 . S
C351 C350 1.362 . S
H352 C358 0.930 . S
H353 C361 0.930 . S
H354 C362 0.930 . S
H355 C363 0.930 . S
H356 C366 0.930 . S
H357 C367 0.930 . S
C358 H352 0.930 . S
C358 C359 1.355 . S
C358 C360 1.415 . S
C359 C358 1.355 . S
C359 C361 1.419 . S
C360 C358 1.415 . S
C360 C365 1.425 . S
C360 C367 1.409 . S
C361 H353 0.930 . S
C361 C359 1.419 . S
C361 C362 1.362 . S
C362 H354 0.930 . S
C362 C361 1.362 . S
C362 C365 1.409 . S
C363 H355 0.930 . S
C363 C364 1.355 . S
C363 C365 1.415 . S
C364 C363 1.355 . S
C364 C366 1.419 . S
C365 C360 1.425 . S
C365 C362 1.409 . S
C365 C363 1.415 . S
C366 H356 0.930 . S
C366 C364 1.419 . S
C366 C367 1.362 . S
C367 H357 0.930 . S
C367 C360 1.409 . S
C367 C366 1.362 . S
H368 C374 0.930 . S
H369 C377 0.930 . S
H370 C378 0.930 . S
H371 C379 0.930 . S
H372 C382 0.930 . S
H373 C383 0.930 . S
C374 H368 0.930 . S
C374 C375 1.355 . S
C374 C376 1.415 . S
C375 C374 1.355 . S
C375 C377 1.419 . S
C376 C374 1.415 . S
C376 C381 1.425 . S
C376 C383 1.409 . S
C377 H369 0.930 . S
C377 C375 1.419 . S
C377 C378 1.362 . S
C378 H370 0.930 . S
C378 C377 1.362 . S
C378 C381 1.409 . S
C379 H371 0.930 . S
C379 C380 1.355 . S
C379 C381 1.415 . S
C380 C379 1.355 . S
C380 C382 1.419 . S
C381 C376 1.425 . S
C381 C378 1.409 . S
C381 C379 1.415 . S
C382 H372 0.930 . S
C382 C380 1.419 . S
C382 C383 1.362 . S
C383 H373 0.930 . S
C383 C376 1.409 . S
C383 C382 1.362 . S
H384 C390 0.930 . S
H385 C393 0.930 . S
H386 C394 0.930 1_545 S
H387 C395 0.930 . S
H388 C398 0.930 . S
H389 C399 0.930 1_565 S
C390 H384 0.930 . S
C390 C391 1.355 . S
C390 C392 1.415 . S
C391 C390 1.355 . S
C391 C393 1.419 . S
C392 C390 1.415 . S
C392 C397 1.425 1_565 S
C392 C399 1.409 1_565 S
C393 H385 0.930 . S
C393 C391 1.419 . S
C393 C394 1.362 . S
C394 H386 0.930 1_565 S
C394 C393 1.362 . S
C394 C397 1.409 1_565 S
C395 H387 0.930 . S
C395 C396 1.355 . S
C395 C397 1.415 . S
C396 C395 1.355 . S
C396 C398 1.419 . S
C397 C392 1.425 1_545 S
C397 C394 1.409 1_545 S
C397 C395 1.415 . S
C398 H388 0.930 . S
C398 C396 1.419 . S
C398 C399 1.362 . S
C399 H389 0.930 1_545 S
C399 C392 1.409 1_545 S
C399 C398 1.362 . S
H400 C406 0.930 . S
H401 C409 0.930 . S
H402 C410 0.930 . S
H403 C411 0.930 . S
H404 C414 0.930 . S
H405 C415 0.930 . S
C406 H400 0.930 . S
C406 C407 1.355 . S
C406 C408 1.415 . S
C407 C406 1.355 . S
C407 C409 1.419 . S
C408 C406 1.415 . S
C408 C413 1.425 . S
C408 C415 1.409 . S
C409 H401 0.930 . S
C409 C407 1.419 . S
C409 C410 1.362 . S
C410 H402 0.930 . S
C410 C409 1.362 . S
C410 C413 1.409 . S
C411 H403 0.930 . S
C411 C412 1.355 . S
C411 C413 1.415 . S
C412 C411 1.355 . S
C412 C414 1.419 . S
C413 C408 1.425 . S
C413 C410 1.409 . S
C413 C411 1.415 . S
C414 H404 0.930 . S
C414 C412 1.419 . S
C414 C415 1.362 . S
C415 H405 0.930 . S
C415 C408 1.409 . S
C415 C414 1.362 . S
H416 C422 0.930 . S
H417 C425 0.930 . S
H418 C426 0.930 . S
H419 C427 0.930 . S
H420 C430 0.930 . S
H421 C431 0.930 . S
C422 H416 0.930 . S
C422 C423 1.355 . S
C422 C424 1.415 . S
C423 C422 1.355 . S
C423 C425 1.419 . S
C424 C422 1.415 . S
C424 C429 1.425 1_565 S
C424 C431 1.409 1_565 S
C425 H417 0.930 . S
C425 C423 1.419 . S
C425 C426 1.362 . S
C426 H418 0.930 . S
C426 C425 1.362 . S
C426 C429 1.409 1_565 S
C427 H419 0.930 . S
C427 C428 1.355 . S
C427 C429 1.415 . S
C428 C427 1.355 . S
C428 C430 1.419 . S
C429 C424 1.425 1_545 S
C429 C426 1.409 1_545 S
C429 C427 1.415 . S
C430 H420 0.930 . S
C430 C428 1.419 . S
C430 C431 1.362 . S
C431 H421 0.930 . S
C431 C424 1.409 1_545 S
C431 C430 1.362 . S
H432 C438 0.930 . S
H433 C441 0.930 . S
H434 C442 0.930 . S
H435 C443 0.930 . S
H436 C446 0.930 . S
H437 C447 0.930 . S
C438 H432 0.930 . S
C438 C439 1.355 . S
C438 C440 1.415 . S
C439 C438 1.355 . S
C439 C441 1.419 . S
C440 C438 1.415 . S
C440 C445 1.425 . S
C440 C447 1.409 . S
C441 H433 0.930 . S
C441 C439 1.419 . S
C441 C442 1.362 . S
C442 H434 0.930 . S
C442 C441 1.362 . S
C442 C445 1.409 . S
C443 H435 0.930 . S
C443 C444 1.355 . S
C443 C445 1.415 . S
C444 C443 1.355 . S
C444 C446 1.419 . S
C445 C440 1.425 . S
C445 C442 1.409 . S
C445 C443 1.415 . S
C446 H436 0.930 . S
C446 C444 1.419 . S
C446 C447 1.362 . S
C447 H437 0.930 . S
C447 C440 1.409 . S
C447 C446 1.362 . S
H448 C454 0.930 . S
H449 C457 0.930 . S
H450 C458 0.930 . S
H451 C459 0.930 1_554 S
H452 C462 0.930 . S
H453 C463 0.930 . S
C454 H448 0.930 . S
C454 C455 1.355 . S
C454 C456 1.415 . S
C455 C454 1.355 . S
C455 C457 1.419 . S
C456 C454 1.415 . S
C456 C461 1.425 . S
C456 C463 1.409 . S
C457 H449 0.930 . S
C457 C455 1.419 . S
C457 C458 1.362 . S
C458 H450 0.930 . S
C458 C457 1.362 . S
C458 C461 1.409 . S
C459 H451 0.930 1_556 S
C459 C460 1.355 . S
C459 C461 1.415 . S
C460 C459 1.355 . S
C460 C462 1.419 . S
C461 C456 1.425 . S
C461 C458 1.409 . S
C461 C459 1.415 . S
C462 H452 0.930 . S
C462 C460 1.419 . S
C462 C463 1.362 . S
C463 H453 0.930 . S
C463 C456 1.409 . S
C463 C462 1.362 . S
H464 C470 0.930 . S
H465 C473 0.930 . S
H466 C474 0.930 . S
H467 C475 0.930 . S
H468 C478 0.930 . S
H469 C479 0.930 . S
C470 H464 0.930 . S
C470 C471 1.355 . S
C470 C472 1.415 . S
C471 C470 1.355 . S
C471 C473 1.419 1_556 S
C472 C470 1.415 . S
C472 C477 1.425 1_566 S
C472 C479 1.409 1_565 S
C473 H465 0.930 . S
C473 C471 1.419 1_554 S
C473 C474 1.362 . S
C474 H466 0.930 . S
C474 C473 1.362 . S
C474 C477 1.409 1_565 S
C475 H467 0.930 . S
C475 C476 1.355 1_554 S
C475 C477 1.415 . S
C476 C475 1.355 1_556 S
C476 C478 1.419 . S
C477 C472 1.425 1_544 S
C477 C474 1.409 1_545 S
C477 C475 1.415 . S
C478 H468 0.930 . S
C478 C476 1.419 . S
C478 C479 1.362 . S
C479 H469 0.930 . S
C479 C472 1.409 1_545 S
C479 C478 1.362 . S
H480 C486 0.930 . S
H481 C489 0.930 . S
H482 C490 0.930 . S
H483 C491 0.930 . S
H484 C494 0.930 . S
H485 C495 0.930 . S
C486 H480 0.930 . S
C486 C487 1.355 . S
C486 C488 1.415 . S
C487 C486 1.355 . S
C487 C489 1.419 1_554 S
C488 C486 1.415 . S
C488 C493 1.425 1_554 S
C488 C495 1.409 . S
C489 H481 0.930 . S
C489 C487 1.419 1_556 S
C489 C490 1.362 . S
C490 H482 0.930 . S
C490 C489 1.362 . S
C490 C493 1.409 . S
C491 H483 0.930 . S
C491 C492 1.355 1_556 S
C491 C493 1.415 . S
C492 C491 1.355 1_554 S
C492 C494 1.419 . S
C493 C488 1.425 1_556 S
C493 C490 1.409 . S
C493 C491 1.415 . S
C494 H484 0.930 . S
C494 C492 1.419 . S
C494 C495 1.362 . S
C495 H485 0.930 . S
C495 C488 1.409 . S
C495 C494 1.362 . S
H496 C502 0.930 . S
H497 C505 0.930 . S
H498 C506 0.930 . S
H499 C507 0.930 . S
H500 C510 0.930 . S
H501 C511 0.930 . S
C502 H496 0.930 . S
C502 C503 1.355 1_554 S
C502 C504 1.415 . S
C503 C502 1.355 1_556 S
C503 C505 1.419 . S
C504 C502 1.415 . S
C504 C509 1.425 1_544 S
C504 C511 1.409 1_545 S
C505 H497 0.930 . S
C505 C503 1.419 . S
C505 C506 1.362 . S
C506 H498 0.930 . S
C506 C505 1.362 . S
C506 C509 1.409 1_545 S
C507 H499 0.930 . S
C507 C508 1.355 1_556 S
C507 C509 1.415 . S
C508 C507 1.355 1_554 S
C508 C510 1.419 . S
C509 C504 1.425 1_566 S
C509 C506 1.409 1_565 S
C509 C507 1.415 . S
C510 H500 0.930 . S
C510 C508 1.419 . S
C510 C511 1.362 . S
C511 H501 0.930 . S
C511 C504 1.409 1_565 S
C511 C510 1.362 . S
H512 C518 0.930 . S
H513 C521 0.930 . S
H514 C522 0.930 . S
H515 C523 0.930 . S
H516 C526 0.930 . S
H517 C527 0.930 . S
C518 H512 0.930 . S
C518 C519 1.355 . S
C518 C520 1.415 1_554 S
C519 C518 1.355 . S
C519 C521 1.419 . S
C520 C518 1.415 1_556 S
C520 C525 1.425 . S
C520 C527 1.409 . S
C521 H513 0.930 . S
C521 C519 1.419 . S
C521 C522 1.362 1_554 S
C522 H514 0.930 . S
C522 C521 1.362 1_556 S
C522 C525 1.409 . S
C523 H515 0.930 . S
C523 C524 1.355 . S
C523 C525 1.415 . S
C524 C523 1.355 . S
C524 C526 1.419 . S
C525 C520 1.425 . S
C525 C522 1.409 . S
C525 C523 1.415 . S
C526 H516 0.930 . S
C526 C524 1.419 . S
C526 C527 1.362 . S
C527 H517 0.930 . S
C527 C520 1.409 . S
C527 C526 1.362 . S
H528 C534 0.930 . S
H529 C537 0.930 . S
H530 C538 0.932 . S
H531 C539 0.930 . S
H532 C542 0.930 . S
H533 C543 0.930 . S
C534 H528 0.930 . S
C534 C535 1.355 . S
C534 C536 1.415 1_554 S
C535 C534 1.355 . S
C535 C537 1.419 . S
C536 C534 1.415 1_556 S
C536 C541 1.425 . S
C536 C543 1.409 . S
C537 H529 0.930 . S
C537 C535 1.419 . S
C537 C538 1.354 1_554 S
C538 H530 0.932 . S
C538 C537 1.354 1_556 S
C538 C541 1.416 . S
C539 H531 0.930 . S
C539 C540 1.355 . S
C539 C541 1.415 . S
C540 C539 1.355 . S
C540 C542 1.419 . S
C541 C536 1.425 . S
C541 C538 1.416 . S
C541 C539 1.415 . S
C542 H532 0.930 . S
C542 C540 1.419 . S
C542 C543 1.362 . S
C543 H533 0.930 . S
C543 C536 1.409 . S
C543 C542 1.362 . S
H544 C550 0.930 . S
H545 C553 0.930 . S
H546 C554 0.930 . S
H547 C555 0.930 . S
H548 C558 0.930 . S
H549 C559 0.930 . S
C550 H544 0.930 . S
C550 C551 1.355 . S
C550 C552 1.415 . S
C551 C550 1.355 . S
C551 C553 1.419 . S
C552 C550 1.415 . S
C552 C557 1.425 . S
C552 C559 1.409 . S
C553 H545 0.930 . S
C553 C551 1.419 . S
C553 C554 1.362 . S
C554 H546 0.930 . S
C554 C553 1.362 . S
C554 C557 1.409 . S
C555 H547 0.930 . S
C555 C556 1.355 . S
C555 C557 1.415 1_556 S
C556 C555 1.355 . S
C556 C558 1.419 . S
C557 C552 1.425 . S
C557 C554 1.409 . S
C557 C555 1.415 1_554 S
C558 H548 0.930 . S
C558 C556 1.419 . S
C558 C559 1.362 1_556 S
C559 H549 0.930 . S
C559 C552 1.409 . S
C559 C558 1.362 1_554 S
H560 C566 0.930 . S
H561 C569 0.930 . S
H562 C570 0.930 . S
H563 C571 0.930 . S
H564 C574 0.930 . S
H565 C575 0.930 . S
C566 H560 0.930 . S
C566 C567 1.355 . S
C566 C568 1.415 1_556 S
C567 C566 1.355 . S
C567 C569 1.419 . S
C568 C566 1.415 1_554 S
C568 C573 1.425 . S
C568 C575 1.409 . S
C569 H561 0.930 . S
C569 C567 1.419 . S
C569 C570 1.362 1_556 S
C570 H562 0.930 . S
C570 C569 1.362 1_554 S
C570 C573 1.409 . S
C571 H563 0.930 . S
C571 C572 1.355 . S
C571 C573 1.415 . S
C572 C571 1.355 . S
C572 C574 1.419 . S
C573 C568 1.425 . S
C573 C570 1.409 . S
C573 C571 1.415 . S
C574 H564 0.930 . S
C574 C572 1.419 . S
C574 C575 1.362 . S
C575 H565 0.930 . S
C575 C568 1.409 . S
C575 C574 1.362 . S
H576 C582 0.930 . S
H577 C585 0.930 . S
H578 C586 0.930 . S
H579 C587 0.930 . S
H580 C590 0.930 . S
H581 C591 0.930 . S
C582 H576 0.930 . S
C582 C583 1.355 . S
C582 C584 1.415 . S
C583 C582 1.355 . S
C583 C585 1.419 . S
C584 C582 1.415 . S
C584 C589 1.425 . S
C584 C591 1.409 . S
C585 H577 0.930 . S
C585 C583 1.419 . S
C585 C586 1.362 . S
C586 H578 0.930 . S
C586 C585 1.362 . S
C586 C589 1.409 . S
C587 H579 0.930 . S
C587 C588 1.355 . S
C587 C589 1.415 . S
C588 C587 1.355 . S
C588 C590 1.419 . S
C589 C584 1.425 . S
C589 C586 1.409 . S
C589 C587 1.415 . S
C590 H580 0.930 . S
C590 C588 1.419 . S
C590 C591 1.362 . S
C591 H581 0.930 . S
C591 C584 1.409 . S
C591 C590 1.362 . S
H592 C598 0.930 . S
H593 C601 0.930 . S
H594 C602 0.930 . S
H595 C603 0.930 . S
H596 C606 0.930 . S
H597 C607 0.930 . S
C598 H592 0.930 . S
C598 C599 1.355 . S
C598 C600 1.415 . S
C599 C598 1.355 . S
C599 C601 1.419 . S
C600 C598 1.415 . S
C600 C605 1.425 . S
C600 C607 1.409 . S
C601 H593 0.930 . S
C601 C599 1.419 . S
C601 C602 1.362 . S
C602 H594 0.930 . S
C602 C601 1.362 . S
C602 C605 1.409 . S
C603 H595 0.930 . S
C603 C604 1.355 . S
C603 C605 1.415 . S
C604 C603 1.355 . S
C604 C606 1.419 . S
C605 C600 1.425 . S
C605 C602 1.409 . S
C605 C603 1.415 . S
C606 H596 0.930 . S
C606 C604 1.419 . S
C606 C607 1.362 . S
C607 H597 0.930 . S
C607 C600 1.409 . S
C607 C606 1.362 . S
H608 C614 0.930 . S
H609 C617 0.930 . S
H610 C618 0.930 . S
H611 C619 0.930 . S
H612 C622 0.930 . S
H613 C623 0.930 . S
C614 H608 0.930 . S
C614 C615 1.355 . S
C614 C616 1.415 . S
C615 C614 1.355 . S
C615 C617 1.419 . S
C616 C614 1.415 . S
C616 C621 1.425 . S
C616 C623 1.409 . S
C617 H609 0.930 . S
C617 C615 1.419 . S
C617 C618 1.362 . S
C618 H610 0.930 . S
C618 C617 1.362 . S
C618 C621 1.409 . S
C619 H611 0.930 . S
C619 C620 1.355 . S
C619 C621 1.415 . S
C620 C619 1.355 . S
C620 C622 1.419 . S
C621 C616 1.425 . S
C621 C618 1.409 . S
C621 C619 1.415 . S
C622 H612 0.930 . S
C622 C620 1.419 . S
C622 C623 1.362 . S
C623 H613 0.930 . S
C623 C616 1.409 . S
C623 C622 1.362 . S
H624 C630 0.930 . S
H625 C633 0.930 . S
H626 C634 0.930 . S
H627 C635 0.930 . S
H628 C638 0.930 . S
H629 C639 0.930 . S
C630 H624 0.930 . S
C630 C631 1.355 . S
C630 C632 1.415 . S
C631 C630 1.355 . S
C631 C633 1.419 . S
C632 C630 1.415 . S
C632 C637 1.425 . S
C632 C639 1.409 . S
C633 H625 0.930 . S
C633 C631 1.419 . S
C633 C634 1.362 . S
C634 H626 0.930 . S
C634 C633 1.362 . S
C634 C637 1.409 . S
C635 H627 0.930 . S
C635 C636 1.355 . S
C635 C637 1.415 . S
C636 C635 1.355 . S
C636 C638 1.419 . S
C637 C632 1.425 . S
C637 C634 1.409 . S
C637 C635 1.415 . S
C638 H628 0.930 . S
C638 C636 1.419 . S
C638 C639 1.362 . S
C639 H629 0.930 . S
C639 C632 1.409 . S
C639 C638 1.362 . S
H640 C646 0.930 . S
H641 C649 0.930 . S
H642 C650 0.930 . S
H643 C651 0.930 . S
H644 C654 0.930 . S
H645 C655 0.930 . S
C646 H640 0.930 . S
C646 C647 1.355 . S
C646 C648 1.415 . S
C647 C646 1.355 . S
C647 C649 1.419 . S
C648 C646 1.415 . S
C648 C653 1.425 1_455 S
C648 C655 1.409 1_455 S
C649 H641 0.930 . S
C649 C647 1.419 . S
C649 C650 1.362 . S
C650 H642 0.930 . S
C650 C649 1.362 . S
C650 C653 1.409 1_455 S
C651 H643 0.930 . S
C651 C652 1.355 . S
C651 C653 1.415 . S
C652 C651 1.355 . S
C652 C654 1.419 . S
C653 C648 1.425 1_655 S
C653 C650 1.409 1_655 S
C653 C651 1.415 . S
C654 H644 0.930 . S
C654 C652 1.419 . S
C654 C655 1.362 . S
C655 H645 0.930 . S
C655 C648 1.409 1_655 S
C655 C654 1.362 . S
H656 C662 0.930 . S
H657 C665 0.930 . S
H658 C666 0.930 . S
H659 C667 0.930 . S
H660 C670 0.930 . S
H661 C671 0.930 . S
C662 H656 0.930 . S
C662 C663 1.355 . S
C662 C664 1.415 . S
C663 C662 1.355 . S
C663 C665 1.419 . S
C664 C662 1.415 . S
C664 C669 1.425 1_655 S
C664 C671 1.409 1_655 S
C665 H657 0.930 . S
C665 C663 1.419 . S
C665 C666 1.362 . S
C666 H658 0.930 . S
C666 C665 1.362 . S
C666 C669 1.409 1_655 S
C667 H659 0.930 . S
C667 C668 1.355 . S
C667 C669 1.415 . S
C668 C667 1.355 . S
C668 C670 1.419 . S
C669 C664 1.425 1_455 S
C669 C666 1.409 1_455 S
C669 C667 1.415 . S
C670 H660 0.930 . S
C670 C668 1.419 . S
C670 C671 1.362 . S
C671 H661 0.930 . S
C671 C664 1.409 1_455 S
C671 C670 1.362 . S
H672 C678 0.930 . S
H673 C681 0.930 . S
H674 C682 0.930 . S
H675 C683 0.930 . S
H676 C686 0.930 . S
H677 C687 0.930 . S
C678 H672 0.930 . S
C678 C679 1.355 . S
C678 C680 1.415 . S
C679 C678 1.355 . S
C679 C681 1.419 . S
C680 C678 1.415 . S
C680 C685 1.425 . S
C680 C687 1.409 . S
C681 H673 0.930 . S
C681 C679 1.419 . S
C681 C682 1.362 . S
C682 H674 0.930 . S
C682 C681 1.362 . S
C682 C685 1.409 . S
C683 H675 0.930 . S
C683 C684 1.355 . S
C683 C685 1.415 . S
C684 C683 1.355 . S
C684 C686 1.419 . S
C685 C680 1.425 . S
C685 C682 1.409 . S
C685 C683 1.415 . S
C686 H676 0.930 . S
C686 C684 1.419 . S
C686 C687 1.362 . S
C687 H677 0.930 . S
C687 C680 1.409 . S
C687 C686 1.362 . S
H688 C694 0.930 . S
H689 C697 0.930 . S
H690 C698 0.930 . S
H691 C699 0.930 . S
H692 C702 0.930 . S
H693 C703 0.930 . S
C694 H688 0.930 . S
C694 C695 1.355 . S
C694 C696 1.415 . S
C695 C694 1.355 . S
C695 C697 1.419 . S
C696 C694 1.415 . S
C696 C701 1.425 . S
C696 C703 1.409 . S
C697 H689 0.930 . S
C697 C695 1.419 . S
C697 C698 1.362 . S
C698 H690 0.930 . S
C698 C697 1.362 . S
C698 C701 1.409 . S
C699 H691 0.930 . S
C699 C700 1.355 . S
C699 C701 1.415 . S
C700 C699 1.355 . S
C700 C702 1.419 . S
C701 C696 1.425 . S
C701 C698 1.409 . S
C701 C699 1.415 . S
C702 H692 0.930 . S
C702 C700 1.419 . S
C702 C703 1.362 . S
C703 H693 0.930 . S
C703 C696 1.409 . S
C703 C702 1.362 . S
C327 C5 1.665 . S
C332 C295 1.664 . S
C343 C255 1.665 . S
C348 C45 1.664 . S
C359 C205 1.638 . S
C364 C95 1.637 . S
C375 C165 1.662 . S
C380 C135 1.662 . S
C391 C98 1.556 . S
C396 C18 1.524 . S
C407 C58 1.533 . S
C412 C138 1.597 . S
C423 C128 1.485 . S
C428 C48 1.555 . S
C439 C88 1.485 . S
C444 C8 1.556 . S
C455 C178 1.405 1_556 S
C460 C258 1.396 1_556 S
C471 C218 1.401 1_556 S
C476 C298 1.397 1_556 S
C487 C288 1.462 1_554 S
C492 C208 1.466 1_554 S
C503 C248 1.407 . S
C508 C168 1.434 1_554 S
C519 C19 2.018 . S
C524 C9 2.018 . S
C535 C59 1.973 . S
C540 C49 1.973 . S
C551 C99 1.992 . S
C556 C89 1.992 . S
C567 C129 2.014 . S
C572 C139 2.014 . S
C583 C169 1.998 . S
C588 C179 1.998 . S
C599 C219 2.003 . S
C604 C209 2.003 . S
C615 C249 1.969 . S
C620 C259 1.969 . S
C631 C289 2.020 . S
C636 C299 2.020 . S
C647 C15 2.207 . S
C652 C55 2.222 . S
C663 C125 2.234 . S
C668 C85 2.200 . S
C679 C175 2.210 . S
C684 C215 2.221 . S
C695 C285 2.221 . S
C700 C245 2.226 . S
