# Generated by pormake.
# Topology wfz, (7)-cn, num edge types: 1
# Building blocks:
#     Node 0, Type 0, BuildingBlock: HICVOG_clean_sbu_0, # of connection points: 7
#     Node 1, Type 0, BuildingBlock: HICVOG_clean_sbu_0, # of connection points: 7
#     Node 2, Type 0, BuildingBlock: HICVOG_clean_sbu_0, # of connection points: 7
#     Node 3, Type 0, BuildingBlock: HICVOG_clean_sbu_0, # of connection points: 7
#     Node 4, Type 0, BuildingBlock: HICVOG_clean_sbu_0, # of connection points: 7
#     Node 5, Type 0, BuildingBlock: HICVOG_clean_sbu_0, # of connection points: 7
#     Node 6, Type 0, BuildingBlock: HICVOG_clean_sbu_0, # of connection points: 7
#     Node 7, Type 0, BuildingBlock: HICVOG_clean_sbu_0, # of connection points: 7
#     Edge 8, Type (0, 0), BuildingBlock: UVAHIK_clean_linker_0, # of connection points: 2
#     Edge 9, Type (0, 0), BuildingBlock: UVAHIK_clean_linker_0, # of connection points: 2
#     Edge 10, Type (0, 0), BuildingBlock: UVAHIK_clean_linker_0, # of connection points: 2
#     Edge 11, Type (0, 0), BuildingBlock: UVAHIK_clean_linker_0, # of connection points: 2
#     Edge 12, Type (0, 0), BuildingBlock: UVAHIK_clean_linker_0, # of connection points: 2
#     Edge 13, Type (0, 0), BuildingBlock: UVAHIK_clean_linker_0, # of connection points: 2
#     Edge 14, Type (0, 0), BuildingBlock: UVAHIK_clean_linker_0, # of connection points: 2
#     Edge 15, Type (0, 0), BuildingBlock: UVAHIK_clean_linker_0, # of connection points: 2
#     Edge 16, Type (0, 0), BuildingBlock: UVAHIK_clean_linker_0, # of connection points: 2
#     Edge 17, Type (0, 0), BuildingBlock: UVAHIK_clean_linker_0, # of connection points: 2
#     Edge 18, Type (0, 0), BuildingBlock: UVAHIK_clean_linker_0, # of connection points: 2
#     Edge 19, Type (0, 0), BuildingBlock: UVAHIK_clean_linker_0, # of connection points: 2
#     Edge 20, Type (0, 0), BuildingBlock: UVAHIK_clean_linker_0, # of connection points: 2
#     Edge 21, Type (0, 0), BuildingBlock: UVAHIK_clean_linker_0, # of connection points: 2
#     Edge 22, Type (0, 0), BuildingBlock: UVAHIK_clean_linker_0, # of connection points: 2
#     Edge 23, Type (0, 0), BuildingBlock: UVAHIK_clean_linker_0, # of connection points: 2
#     Edge 24, Type (0, 0), BuildingBlock: UVAHIK_clean_linker_0, # of connection points: 2
#     Edge 25, Type (0, 0), BuildingBlock: UVAHIK_clean_linker_0, # of connection points: 2
#     Edge 26, Type (0, 0), BuildingBlock: UVAHIK_clean_linker_0, # of connection points: 2
#     Edge 27, Type (0, 0), BuildingBlock: UVAHIK_clean_linker_0, # of connection points: 2
#     Edge 28, Type (0, 0), BuildingBlock: UVAHIK_clean_linker_0, # of connection points: 2
#     Edge 29, Type (0, 0), BuildingBlock: UVAHIK_clean_linker_0, # of connection points: 2
#     Edge 30, Type (0, 0), BuildingBlock: UVAHIK_clean_linker_0, # of connection points: 2
#     Edge 31, Type (0, 0), BuildingBlock: UVAHIK_clean_linker_0, # of connection points: 2
#     Edge 32, Type (0, 0), BuildingBlock: UVAHIK_clean_linker_0, # of connection points: 2
#     Edge 33, Type (0, 0), BuildingBlock: UVAHIK_clean_linker_0, # of connection points: 2
#     Edge 34, Type (0, 0), BuildingBlock: UVAHIK_clean_linker_0, # of connection points: 2
#     Edge 35, Type (0, 0), BuildingBlock: UVAHIK_clean_linker_0, # of connection points: 2
# Relax obj value: 0.176
# Max RMSD: 0.257
# Mean RMSD: 0.257
data_MOF--net-wfz--node1-HICVOG_clean_sbu_0--edge1-UVAHIK_clean_linker_0
_symmetry_space_group_name_H-M    P1
_symmetry_Int_Tables_number       1
_symmetry_cell_setting            triclinic
loop_
_symmetry_equiv_pos_as_xyz
'x, y, z'
_cell_length_a     29.984573
_cell_length_b     29.976182
_cell_length_c     79.364809
_cell_angle_alpha  89.970448
_cell_angle_beta   90.102767
_cell_angle_gamma 89.928385
loop_
_atom_site_label
_atom_site_type_symbol
_atom_site_fract_x
_atom_site_fract_y
_atom_site_fract_z
_atom_type_partial_charge
Zn0 Zn 0.23491 0.48415 0.40104 0.0
C1 C 0.33507 0.47769 0.43403 0.0
N2 N 0.3382 0.43566 0.42836 0.0
C3 C 0.31017 0.43568 0.41513 0.0
N4 N 0.29101 0.47598 0.41275 0.0
N5 N 0.3072 0.50271 0.42456 0.0
C6 C 0.25882 0.59018 0.45333 0.0
O7 O 0.22721 0.57723 0.44295 0.0
O8 O 0.2321 0.44856 0.37921 0.0
Zn9 Zn 0.30845 0.56746 0.42429 0.0
N10 N 0.18887 0.46203 0.41601 0.0
C11 C 0.16355 0.45067 0.44408 0.0
C12 C 0.1954 0.46672 0.43287 0.0
C13 C 0.15128 0.44242 0.40986 0.0
N14 N 0.12625 0.43074 0.43799 0.0
C15 C 0.11882 0.42627 0.42115 0.0
O16 O 0.26124 0.59725 0.40952 0.0
C17 C 0.22934 0.58823 0.39943 0.0
O18 O 0.21884 0.54818 0.3959 0.0
H19 H 0.2252 0.48264 0.43759 0.0
H20 H 0.1473 0.43878 0.39638 0.0
C21 C 0.38514 0.62625 0.41736 0.0
C22 C 0.42877 0.63422 0.41147 0.0
C23 C 0.434 0.55888 0.40262 0.0
C24 C 0.39082 0.55118 0.40823 0.0
N25 N 0.36743 0.58444 0.41588 0.0
N26 N 0.45196 0.6 0.40442 0.0
H27 H 0.36588 0.65258 0.42319 0.0
C28 C 0.24036 0.46759 0.36523 0.0
O29 O 0.25318 0.50948 0.36531 0.0
O30 O 0.29905 0.58937 0.44825 0.0
H31 H 0.37633 0.5186 0.4065 0.0
H32 H 0.16845 0.45393 0.45753 0.0
H33 H 0.45307 0.53243 0.39679 0.0
Zn34 Zn 1.0068 0.80049 0.67402 0.0
C35 C 0.13885 0.80216 0.66633 0.0
N36 N 0.13753 0.83244 0.67878 0.0
C37 C 0.09529 0.82939 0.6842 0.0
N38 N 0.07148 0.7992 0.67537 0.0
N39 N 0.09922 0.78167 0.66418 0.0
C40 C 0.10445 0.73115 0.61681 0.0
O41 O 0.0624 0.7433 0.61769 0.0
O42 O 0.98121 0.7978 0.69772 0.0
Zn43 Zn 0.09277 0.72492 0.6528 0.0
N44 N 0.99208 0.85571 0.66208 0.0
C45 C 0.01851 0.90508 0.64083 0.0
C46 C 0.02297 0.86624 0.6502 0.0
C47 C 0.95556 0.88226 0.6646 0.0
N48 N 0.98273 0.93171 0.64342 0.0
C49 C 0.95067 0.92167 0.65494 0.0
O50 O 0.02929 0.70545 0.64863 0.0
C51 C 0.98896 0.71544 0.65188 0.0
O52 O 0.9789 0.74922 0.66087 0.0
H53 H 0.05108 0.84454 0.64796 0.0
H54 H 0.9312 0.87313 0.67403 0.0
C55 C 0.13846 0.6427 0.66089 0.0
C56 C 0.15781 0.61107 0.67184 0.0
C57 C 0.13739 0.65638 0.69515 0.0
C58 C 0.11811 0.68736 0.68427 0.0
N59 N 0.11928 0.68016 0.66737 0.0
N60 N 0.15683 0.61922 0.68872 0.0
H61 H 0.13921 0.63822 0.64737 0.0
C62 C 0.98287 0.75906 0.70429 0.0
O63 O 1.00114 0.72654 0.6956 0.0
O64 O 0.12558 0.72345 0.63042 0.0
H65 H 0.10244 0.71704 0.68925 0.0
H66 H 0.04316 0.91392 0.63147 0.0
H67 H 0.13696 0.66182 0.70863 0.0
Zn68 Zn 0.77649 0.49822 0.92284 0.0
C69 C 0.7501 0.62653 0.91307 0.0
N70 N 0.71943 0.6212 0.92519 0.0
C71 C 0.72916 0.58059 0.93131 0.0
N72 N 0.76445 0.562 0.92337 0.0
N73 N 0.77783 0.59127 0.9119 0.0
C74 C 0.83348 0.60529 0.86577 0.0
O75 O 0.82785 0.56188 0.86663 0.0
O76 O 0.77408 0.47065 0.94619 0.0
Zn77 Zn 0.83673 0.59488 0.90189 0.0
N78 N 0.73207 0.47386 0.90749 0.0
C79 C 0.70589 0.48125 0.87932 0.0
C80 C 0.73586 0.49256 0.89197 0.0
C81 C 0.69942 0.44337 0.9109 0.0
N82 N 0.67319 0.45143 0.88266 0.0
C83 C 0.66879 0.43179 0.89805 0.0
O84 O 0.86793 0.53595 0.89851 0.0
C85 C 0.86717 0.49556 0.90343 0.0
O86 O 0.83621 0.48064 0.91284 0.0
H87 H 0.76195 0.51658 0.88952 0.0
H88 H 0.69681 0.42928 0.92341 0.0
C89 C 0.9117 0.64927 0.9119 0.0
C90 C 0.93875 0.67249 0.92352 0.0
C91 C 0.88835 0.65271 0.94538 0.0
C92 C 0.86207 0.62956 0.93387 0.0
N93 N 0.87403 0.62843 0.91737 0.0
N94 N 0.92582 0.67354 0.93996 0.0
H95 H 0.91988 0.64801 0.89864 0.0
C96 C 0.80275 0.48502 0.9567 0.0
O97 O 0.83012 0.5169 0.95203 0.0
O98 O 0.83622 0.62743 0.8794 0.0
H99 H 0.83241 0.6125 0.9381 0.0
H100 H 0.70843 0.49616 0.86695 0.0
H101 H 0.87915 0.65404 0.95854 0.0
Zn102 Zn 0.06948 0.26933 0.17343 0.0
C103 C 0.93785 0.25947 0.16545 0.0
N104 N 0.9408 0.22962 0.17801 0.0
C105 C 0.9828 0.23513 0.18348 0.0
N106 N 1.0048 0.26659 0.17462 0.0
N107 N 0.97623 0.28221 0.16327 0.0
C108 C 0.95343 0.32392 0.11651 0.0
O109 O 0.98841 0.29754 0.11587 0.0
O110 O 0.09557 0.27208 0.19714 0.0
Zn111 Zn 0.98063 0.33906 0.15168 0.0
N112 N 0.0869 0.21607 0.16086 0.0
C113 C 0.06533 0.17178 0.13734 0.0
C114 C 0.05915 0.20877 0.14758 0.0
C115 C 0.12198 0.18809 0.16405 0.0
N116 N 0.09968 0.14371 0.14055 0.0
C117 C 0.12865 0.15055 0.15352 0.0
O118 O 0.04275 0.3589 0.14581 0.0
C119 C 0.08321 0.35265 0.15003 0.0
O120 O 0.09457 0.32212 0.16037 0.0
H121 H 0.03222 0.23167 0.14493 0.0
H122 H 0.14382 0.19466 0.17462 0.0
C123 C 0.93611 0.42045 0.16083 0.0
C124 C 0.92055 0.45346 0.17203 0.0
C125 C 0.95008 0.4115 0.19491 0.0
C126 C 0.96514 0.37893 0.18376 0.0
N127 N 0.95785 0.38399 0.16697 0.0
N128 N 0.92831 0.44785 0.18882 0.0
H129 H 0.93202 0.42386 0.14735 0.0
C130 C 0.0968 0.31114 0.20343 0.0
O131 O 0.08113 0.34458 0.19449 0.0
O132 O 0.94336 0.3427 0.13035 0.0
H133 H 0.98285 0.35002 0.18844 0.0
H134 H 0.04316 0.16549 0.12684 0.0
H135 H 0.95577 0.40803 0.20831 0.0
Zn136 Zn 0.80517 1.00329 0.34336 0.0
C137 C 0.8193 0.1341 0.35214 0.0
N138 N 0.8504 0.13058 0.34007 0.0
C139 C 0.84431 0.08886 0.33442 0.0
N140 N 0.81103 0.06775 0.34262 0.0
N141 N 0.79502 0.09654 0.35377 0.0
C142 C 0.74083 0.10566 0.40018 0.0
O143 O 0.75022 0.06291 0.39923 0.0
O144 O 0.80397 0.97819 0.31963 0.0
Zn145 Zn 0.73657 0.09507 0.36418 0.0
N146 N 0.85506 0.98297 0.35712 0.0
C147 C 0.89185 0.99933 0.38298 0.0
C148 C 0.85746 1.007 0.37162 0.0
C149 C 0.88548 0.9502 0.35368 0.0
N150 N 0.92242 0.96739 0.37953 0.0
C151 C 0.92047 0.94219 0.36528 0.0
O152 O 0.71079 0.03365 0.368 0.0
C153 C 0.71651 0.99297 0.36397 0.0
O154 O 0.7493 0.98058 0.35492 0.0
H155 H 0.83274 0.0323 0.37427 0.0
H156 H 0.88293 0.93141 0.34208 0.0
C157 C 0.65705 0.14341 0.35495 0.0
C158 C 0.62786 0.16546 0.34375 0.0
C159 C 0.67821 0.1505 0.32135 0.0
C160 C 0.70673 0.12851 0.33247 0.0
N161 N 0.69581 0.12563 0.34905 0.0
N162 N 0.6397 0.16847 0.32723 0.0
H163 H 0.64966 0.14092 0.36826 0.0
C164 C 0.76838 0.98921 0.3119 0.0
O165 O 0.73973 0.0152 0.31969 0.0
O166 O 0.73558 0.12762 0.3866 0.0
H167 H 0.73738 0.11392 0.32791 0.0
H168 H 0.89427 0.01856 0.39447 0.0
H169 H 0.68659 0.15327 0.30814 0.0
Zn170 Zn 0.56948 0.30138 0.59248 0.0
C171 C 0.43693 0.30084 0.59898 0.0
N172 N 0.43842 0.32986 0.5861 0.0
C173 C 0.48109 0.32722 0.58115 0.0
N174 N 0.50498 0.29855 0.59066 0.0
N175 N 0.4769 0.28141 0.6018 0.0
C176 C 0.47001 0.23445 0.64947 0.0
O177 O 0.51165 0.24792 0.64886 0.0
O178 O 0.59512 0.29729 0.56886 0.0
Zn179 Zn 0.4843 0.22556 0.61376 0.0
N180 N 0.58249 0.35811 0.60363 0.0
C181 C 0.55313 0.4115 0.62286 0.0
C182 C 0.54947 0.37142 0.61424 0.0
C183 C 0.62025 0.38312 0.60171 0.0
N184 N 0.59023 0.43655 0.62085 0.0
C185 C 0.62435 0.42377 0.61063 0.0
O186 O 0.54807 0.20793 0.61862 0.0
C187 C 0.58839 0.21838 0.61557 0.0
O188 O 0.59825 0.25169 0.60631 0.0
H189 H 0.52028 0.35101 0.61608 0.0
H190 H 0.64625 0.37175 0.5933 0.0
C191 C 0.43969 0.14272 0.60597 0.0
C192 C 0.42367 0.10904 0.59514 0.0
C193 C 0.45036 0.15045 0.57168 0.0
C194 C 0.4659 0.18365 0.58246 0.0
N195 N 0.46032 0.17917 0.59936 0.0
N196 N 0.42978 0.11409 0.57824 0.0
H197 H 0.4368 0.13984 0.61951 0.0
C198 C 0.59334 0.258 0.56282 0.0
O199 O 0.57595 0.2262 0.57211 0.0
O200 O 0.45021 0.22458 0.63579 0.0
H201 H 0.4826 0.21264 0.57741 0.0
H202 H 0.52684 0.42254 0.63119 0.0
H203 H 0.4547 0.15347 0.5582 0.0
Zn204 Zn 0.26904 0.06991 0.84165 0.0
C205 C 0.26378 0.93882 0.85136 0.0
N206 N 0.23729 0.93872 0.83768 0.0
C207 C 0.24216 0.98021 0.83163 0.0
N208 N 0.26946 1.00512 0.84133 0.0
N209 N 0.2838 0.97876 0.8536 0.0
C210 C 0.33381 0.96444 0.90063 0.0
O211 O 0.31511 1.00404 0.90146 0.0
O212 O 0.27803 0.0921 0.81776 0.0
Zn213 Zn 0.34042 0.98641 0.86505 0.0
N214 N 0.21029 0.08779 0.84998 0.0
C215 C 0.14142 0.06407 0.86195 0.0
C216 C 0.18451 0.05475 0.85656 0.0
C217 C 0.1951 0.13073 0.8494 0.0
N218 N 0.12598 0.10645 0.86104 0.0
C219 C 0.15161 0.14035 0.85508 0.0
O220 O 0.35635 0.04984 0.87089 0.0
C221 C 0.34705 0.09004 0.86708 0.0
O222 O 0.31636 0.09949 0.85651 0.0
H223 H 0.197 0.02113 0.85762 0.0
H224 H 0.21629 0.15678 0.84441 0.0
C225 C 0.42329 0.94482 0.85568 0.0
C226 C 0.45599 0.92955 0.84434 0.0
C227 C 0.41263 0.95756 0.82159 0.0
C228 C 0.38052 0.97279 0.83289 0.0
N229 N 0.38625 0.96583 0.84968 0.0
N230 N 0.44938 0.93622 0.82754 0.0
H231 H 0.42663 0.93942 0.8691 0.0
C232 C 0.318 0.09641 0.81268 0.0
O233 O 0.35076 0.08623 0.82301 0.0
O234 O 0.34544 0.94928 0.88633 0.0
H235 H 0.35119 0.98987 0.82829 0.0
H236 H 0.12046 0.03787 0.86693 0.0
H237 H 0.40837 0.9626 0.80819 0.0
Zn238 Zn 0.58883 0.83916 0.11487 0.0
C239 C 0.59297 0.73799 0.08246 0.0
N240 N 0.63485 0.73414 0.08828 0.0
C241 C 0.63512 0.76243 0.10139 0.0
N242 N 0.59527 0.78251 0.10353 0.0
N243 N 0.56836 0.76677 0.09168 0.0
C244 C 0.48903 0.80765 0.06079 0.0
O245 O 0.51385 0.8375 0.06846 0.0
O246 O 0.62106 0.84016 0.13754 0.0
Zn247 Zn 0.50334 0.7657 0.09234 0.0
N248 N 0.61538 0.88379 0.10016 0.0
C249 C 0.63402 0.90584 0.07223 0.0
C250 C 0.61496 0.8754 0.08333 0.0
C251 C 0.63398 0.92188 0.10634 0.0
N252 N 0.65275 0.94365 0.07838 0.0
C253 C 0.65321 0.95292 0.09517 0.0
O254 O 0.47381 0.81498 0.10618 0.0
C255 C 0.48433 0.84804 0.11549 0.0
O256 O 0.52483 0.85736 0.11871 0.0
H257 H 0.60017 0.84514 0.07853 0.0
H258 H 0.63458 0.92737 0.11979 0.0
C259 C 0.44568 0.68905 0.10028 0.0
C260 C 0.43827 0.64572 0.10663 0.0
C261 C 0.51337 0.64253 0.11595 0.0
C262 C 0.52053 0.68538 0.10984 0.0
N263 N 0.48707 0.70763 0.10179 0.0
N264 N 0.47263 0.6237 0.11415 0.0
H265 H 0.41929 0.70732 0.09401 0.0
C266 C 0.60815 0.86975 0.14796 0.0
O267 O 0.57586 0.89691 0.14345 0.0
O268 O 0.47939 0.77181 0.06856 0.0
H269 H 0.55286 0.7005 0.11146 0.0
H270 H 0.63406 0.89943 0.05881 0.0
H271 H 0.53996 0.62437 0.12213 0.0
C272 C 0.32878 0.40811 0.38662 0.0
C273 C 0.31184 0.39927 0.40275 0.0
C274 C 0.35047 0.37442 0.37753 0.0
C275 C 0.41886 0.27836 0.38903 0.0
H276 H 0.43803 0.26751 0.34095 0.0
C277 C 0.56057 0.16834 0.36285 0.0
C278 C 0.58526 0.1861 0.34937 0.0
C279 C 0.5205 0.18828 0.36788 0.0
C280 C 0.43323 0.27032 0.35443 0.0
H281 H 0.29924 0.34774 0.42119 0.0
H282 H 0.33516 0.28849 0.40509 0.0
H283 H 0.37512 0.31153 0.35139 0.0
H284 H 0.58652 0.2383 0.33045 0.0
H285 H 0.51749 0.27361 0.33947 0.0
H286 H 0.47768 0.23906 0.39222 0.0
C287 C 0.33301 0.32151 0.39959 0.0
C288 C 0.39702 0.29537 0.36039 0.0
C289 C 0.31178 0.35523 0.4087 0.0
C290 C 0.56839 0.22372 0.34088 0.0
C291 C 0.52853 0.24381 0.34598 0.0
C292 C 0.45502 0.25359 0.3831 0.0
C293 C 0.3554 0.33145 0.38449 0.0
C294 C 0.38975 0.30018 0.37779 0.0
C295 C 0.50415 0.22657 0.35962 0.0
C296 C 0.46318 0.24978 0.36573 0.0
H297 H 0.33016 0.44204 0.38193 0.0
H298 H 0.36726 0.38332 0.36594 0.0
H299 H 0.41512 0.28217 0.40252 0.0
H300 H 0.57174 0.13867 0.36939 0.0
H301 H 0.50223 0.1735 0.37823 0.0
C302 C 0.37607 0.06874 0.61652 0.0
C303 C 0.4008 0.06829 0.60148 0.0
C304 C 0.35359 0.0305 0.62195 0.0
C305 C 0.30721 0.92322 0.60677 0.0
H306 H 0.30037 0.89868 0.65461 0.0
C307 C 0.21948 0.80093 0.66029 0.0
C308 C 0.17565 0.80261 0.65415 0.0
C309 C 0.25409 0.82116 0.65135 0.0
C310 C 0.30256 0.90417 0.64116 0.0
H311 H 0.42103 0.02694 0.58039 0.0
H312 H 0.38221 0.96023 0.58998 0.0
H313 H 0.34666 0.95934 0.64469 0.0
H314 H 0.134 0.82288 0.63324 0.0
H315 H 0.19394 0.85882 0.61769 0.0
H316 H 0.26293 0.86783 0.6033 0.0
C317 C 0.37986 0.9903 0.59748 0.0
C318 C 0.32859 0.9397 0.63549 0.0
C319 C 0.40227 0.02858 0.59202 0.0
C320 C 0.16775 0.82032 0.63806 0.0
C321 C 0.20223 0.84131 0.62921 0.0
C322 C 0.2812 0.88742 0.61245 0.0
C323 C 0.35518 0.99076 0.61252 0.0
C324 C 0.33049 0.95038 0.61827 0.0
C325 C 0.24522 0.84454 0.63632 0.0
C326 C 0.27784 0.87793 0.62977 0.0
H327 H 0.37295 0.09887 0.62393 0.0
H328 H 0.33406 0.03245 0.6334 0.0
H329 H 0.30774 0.93055 0.59341 0.0
H330 H 0.22623 0.78778 0.67276 0.0
H331 H 0.28706 0.82164 0.65693 0.0
C332 C 0.51534 0.87187 0.84007 0.0
C333 C 0.49669 0.90569 0.8501 0.0
C334 C 0.55311 0.84842 0.84546 0.0
C335 C 0.61473 0.82066 0.88451 0.0
H336 H 0.70207 0.77231 0.85345 0.0
C337 C 0.74954 0.70828 0.91021 0.0
C338 C 0.7503 0.66643 0.90236 0.0
C339 C 0.73103 0.74505 0.90197 0.0
C340 C 0.67804 0.78577 0.86227 0.0
H341 H 0.50495 0.94331 0.87324 0.0
H342 H 0.57106 0.90302 0.88254 0.0
H343 H 0.64356 0.82223 0.84299 0.0
H344 H 0.73626 0.63057 0.87933 0.0
H345 H 0.70366 0.69482 0.86482 0.0
H346 H 0.64829 0.78378 0.90371 0.0
C347 C 0.55567 0.89348 0.87073 0.0
C348 C 0.64433 0.81416 0.85628 0.0
C349 C 0.51761 0.91659 0.86542 0.0
C350 C 0.7368 0.66283 0.88549 0.0
C351 C 0.71784 0.69962 0.87724 0.0
C352 C 0.64844 0.7927 0.89048 0.0
C353 C 0.57358 0.8586 0.86095 0.0
C354 C 0.6118 0.83143 0.86731 0.0
C355 C 0.71216 0.74032 0.88583 0.0
C356 C 0.68021 0.77441 0.87943 0.0
H357 H 0.50003 0.8627 0.82819 0.0
H358 H 0.56542 0.82142 0.83769 0.0
H359 H 0.58987 0.83235 0.89336 0.0
H360 H 0.75945 0.71162 0.92329 0.0
H361 H 0.72811 0.77623 0.90877 0.0
C362 C 0.90654 0.24003 0.13765 0.0
C363 C 0.9 0.25831 0.15371 0.0
C364 C 0.87099 0.22028 0.12899 0.0
C365 C 0.77381 0.15634 0.14128 0.0
H366 H 0.75617 0.14155 0.09324 0.0
C367 C 0.65932 0.01776 0.11534 0.0
C368 C 0.67484 0.99465 0.10109 0.0
C369 C 0.68009 0.0572 0.12058 0.0
C370 C 0.76087 0.14509 0.10671 0.0
H371 H 0.8511 0.27348 0.17285 0.0
H372 H 0.78865 0.23999 0.15763 0.0
H373 H 0.8032 0.20221 0.10362 0.0
H374 H 0.72398 0.99529 0.08108 0.0
H375 H 0.76095 0.06297 0.09049 0.0
H376 H 0.73374 0.09817 0.14449 0.0
C377 C 0.82115 0.24062 0.1517 0.0
C378 C 0.78758 0.18006 0.11263 0.0
C379 C 0.8567 0.26036 0.16031 0.0
C380 C 0.71112 0.01229 0.0921 0.0
C381 C 0.73213 0.05141 0.09742 0.0
C382 C 0.74749 0.12126 0.13538 0.0
C383 C 0.82849 0.21796 0.13644 0.0
C384 C 0.79495 0.18563 0.12999 0.0
C385 C 0.71706 0.07435 0.11179 0.0
C386 C 0.74133 0.11457 0.11801 0.0
H387 H 0.93992 0.23625 0.13266 0.0
H388 H 0.87793 0.20284 0.11734 0.0
H389 H 0.77952 0.15897 0.15473 0.0
H390 H 0.63072 1.00584 0.12232 0.0
H391 H 0.66698 0.07434 0.13152 0.0
C392 C 0.05864 0.3695 0.42505 0.0
C393 C 0.07748 0.40379 0.4153 0.0
C394 C 0.01996 0.34763 0.41972 0.0
C395 C 0.95469 0.32527 0.38106 0.0
H396 H 0.86901 0.27618 0.41259 0.0
C397 C 0.81774 0.21561 0.35575 0.0
C398 C 0.81789 0.17324 0.36322 0.0
C399 C 0.83642 0.25197 0.36415 0.0
C400 C 0.89253 0.2899 0.40364 0.0
H401 H 0.06879 0.44374 0.39273 0.0
H402 H 1.00107 0.40612 0.38354 0.0
H403 H 0.92916 0.3241 0.4229 0.0
H404 H 0.83353 0.1361 0.38583 0.0
H405 H 0.86624 0.19958 0.40064 0.0
H406 H 0.919 0.29054 0.36188 0.0
C407 C 0.01696 0.39508 0.39507 0.0
C408 C 0.92719 0.31713 0.40954 0.0
C409 C 0.05595 0.41663 0.40032 0.0
C410 C 0.83217 0.16874 0.37998 0.0
C411 C 0.85128 0.20512 0.38838 0.0
C412 C 0.92001 0.29846 0.37519 0.0
C413 C 0.99872 0.35989 0.40459 0.0
C414 C 0.95924 0.33449 0.39834 0.0
C415 C 0.85631 0.24632 0.38007 0.0
C416 C 0.88888 0.27982 0.38641 0.0
H417 H 0.07441 0.3588 0.43666 0.0
H418 H 1.00747 0.32028 0.42727 0.0
H419 H 0.97907 0.33713 0.37207 0.0
H420 H 0.80727 0.21966 0.34276 0.0
H421 H 0.83883 0.28355 0.35758 0.0
C422 C 0.21594 0.55148 0.67461 0.0
C423 C 0.17982 0.56977 0.66562 0.0
C424 C 0.23712 0.51265 0.66902 0.0
C425 C 0.25285 0.44479 0.63051 0.0
H426 H 0.3063 0.36048 0.66171 0.0
C427 C 0.35596 0.30291 0.60435 0.0
C428 C 0.39944 0.30219 0.61089 0.0
C429 C 0.32159 0.32379 0.61322 0.0
C430 C 0.29139 0.38363 0.65285 0.0
H431 H 0.1362 0.55996 0.6441 0.0
H432 H 0.17272 0.49206 0.63445 0.0
H433 H 0.26089 0.42198 0.67249 0.0
H434 H 0.44046 0.31923 0.63238 0.0
H435 H 0.38046 0.35524 0.64803 0.0
H436 H 0.28386 0.40726 0.61092 0.0
C437 C 0.18562 0.50848 0.64558 0.0
C438 C 0.26558 0.41907 0.65901 0.0
C439 C 0.16469 0.5476 0.65109 0.0
C440 C 0.40695 0.31817 0.62727 0.0
C441 C 0.37256 0.33932 0.63615 0.0
C442 C 0.27828 0.40932 0.62437 0.0
C443 C 0.22241 0.49067 0.65438 0.0
C444 C 0.24662 0.45061 0.64792 0.0
C445 C 0.33026 0.34489 0.6287 0.0
C446 C 0.29845 0.37864 0.63545 0.0
H447 H 0.22849 0.56772 0.68585 0.0
H448 H 0.26574 0.50052 0.67599 0.0
H449 H 0.23965 0.46871 0.62156 0.0
H450 H 0.34952 0.29126 0.59165 0.0
H451 H 0.28911 0.32662 0.60731 0.0
C452 C 0.24486 0.91719 0.88067 0.0
C453 C 0.25798 0.90439 0.86442 0.0
C454 C 0.22141 0.88744 0.89097 0.0
C455 C 0.17548 0.77092 0.89341 0.0
H456 H 0.07064 0.83263 0.90995 0.0
C457 C 1.00578 0.68308 0.90448 0.0
C458 C 0.98033 0.69628 0.91852 0.0
C459 C 0.04504 0.70578 0.90026 0.0
C460 C 0.09993 0.81478 0.90567 0.0
H461 H 0.2604 0.84965 0.84672 0.0
H462 H 0.21944 0.79791 0.86446 0.0
H463 H 0.13382 0.87542 0.89991 0.0
H464 H 0.97716 0.74334 0.93927 0.0
H465 H 0.04538 0.78249 0.93194 0.0
H466 H 0.14035 0.71017 0.89862 0.0
C467 C 0.22756 0.83044 0.86952 0.0
C468 C 0.13646 0.83939 0.89999 0.0
C469 C 0.25124 0.86009 0.85932 0.0
C470 C 0.99564 0.73227 0.92833 0.0
C471 C 0.03472 0.75496 0.92408 0.0
C472 C 0.13874 0.74625 0.89905 0.0
C473 C 0.21002 0.84461 0.88506 0.0
C474 C 0.17449 0.81789 0.8935 0.0
C475 C 0.05981 0.7422 0.90994 0.0
C476 C 0.10023 0.76793 0.90499 0.0
H477 H 0.2483 0.95151 0.88471 0.0
H478 H 0.20924 0.89919 0.90302 0.0
H479 H 0.20433 0.7532 0.88867 0.0
H480 H 0.99589 0.65492 0.89682 0.0
H481 H 0.06341 0.69526 0.88921 0.0
C482 C 0.87113 0.494 0.15122 0.0
C483 C 0.89659 0.49416 0.16613 0.0
C484 C 0.84829 0.53231 0.14602 0.0
C485 C 0.80219 0.6394 0.16141 0.0
H486 H 0.79607 0.66499 0.11362 0.0
C487 C 0.71559 0.76296 0.10787 0.0
C488 C 0.6716 0.76117 0.11376 0.0
C489 C 0.74998 0.74258 0.11696 0.0
C490 C 0.79804 0.6592 0.12707 0.0
H491 H 0.91734 0.53495 0.18731 0.0
H492 H 0.87772 0.60183 0.17813 0.0
H493 H 0.84215 0.60399 0.12351 0.0
H494 H 0.62936 0.74072 0.13441 0.0
H495 H 0.68894 0.70429 0.15017 0.0
H496 H 0.75781 0.69482 0.16489 0.0
C497 C 0.87525 0.57193 0.17054 0.0
C498 C 0.82396 0.62349 0.13271 0.0
C499 C 0.89809 0.53356 0.17576 0.0
C500 C 0.66324 0.74321 0.12977 0.0
C501 C 0.69751 0.72201 0.13874 0.0
C502 C 0.77623 0.67538 0.15575 0.0
C503 C 0.85017 0.57183 0.15557 0.0
C504 C 0.8256 0.61243 0.1499 0.0
C505 C 0.7407 0.71888 0.13187 0.0
C506 C 0.77316 0.68526 0.13845 0.0
H507 H 0.86785 0.46409 0.1437 0.0
H508 H 0.8284 0.53065 0.13463 0.0
H509 H 0.80258 0.63176 0.17475 0.0
H510 H 0.72271 0.77641 0.09549 0.0
H511 H 0.78312 0.7422 0.11156 0.0
C512 C 0.09849 0.72129 0.58559 0.0
C513 C 0.12504 0.72159 0.6002 0.0
C514 C 0.11629 0.70801 0.57013 0.0
C515 C 0.21962 0.69266 0.54597 0.0
H516 H 0.14848 0.60744 0.52092 0.0
C517 C 0.2797 0.61182 0.48304 0.0
C518 C 0.24704 0.60558 0.47052 0.0
C519 C 0.26755 0.62559 0.49931 0.0
C520 C 0.1686 0.63166 0.5276 0.0
H521 H 0.19181 0.71005 0.60984 0.0
H522 H 0.2231 0.68727 0.58264 0.0
H523 H 0.12253 0.63396 0.54813 0.0
H524 H 0.17617 0.60981 0.4652 0.0
H525 H 0.15528 0.63465 0.49316 0.0
H526 H 0.26528 0.69105 0.5252 0.0
C527 C 0.18837 0.69711 0.58326 0.0
C528 C 0.15371 0.64676 0.54325 0.0
C529 C 0.1704 0.71001 0.59883 0.0
C530 C 0.20219 0.61386 0.47456 0.0
C531 C 0.19014 0.62787 0.49069 0.0
C532 C 0.2344 0.67782 0.53017 0.0
C533 C 0.16121 0.69505 0.56882 0.0
C534 C 0.17869 0.67785 0.55253 0.0
C535 C 0.2225 0.63356 0.50336 0.0
C536 C 0.20871 0.64757 0.52066 0.0
H537 H 0.06349 0.73014 0.58613 0.0
H538 H 0.09468 0.70746 0.55917 0.0
H539 H 0.23954 0.71671 0.55283 0.0
H540 H 0.31454 0.60548 0.48034 0.0
H541 H 0.29336 0.62922 0.50876 0.0
C542 C 0.84312 0.60114 0.83448 0.0
C543 C 0.84077 0.62711 0.84919 0.0
C544 C 0.85338 0.62063 0.81898 0.0
C545 C 0.90766 0.71987 0.80018 0.0
H546 H 0.85715 0.6716 0.75905 0.0
C547 C 0.95263 0.78374 0.73249 0.0
C548 C 0.96333 0.74948 0.72107 0.0
C549 C 0.9343 0.77352 0.74831 0.0
C550 C 0.87158 0.68544 0.77043 0.0
H551 H 0.84611 0.69441 0.85899 0.0
H552 H 0.86334 0.72868 0.83179 0.0
H553 H 0.82965 0.64583 0.78621 0.0
H554 H 0.96308 0.67777 0.71733 0.0
H555 H 0.93088 0.66025 0.74461 0.0
H556 H 0.94974 0.75939 0.78418 0.0
C557 C 0.858 0.69299 0.83233 0.0
C558 C 0.85595 0.67054 0.78602 0.0
C559 C 0.84783 0.67339 0.84792 0.0
C560 C 0.95524 0.70502 0.72578 0.0
C561 C 0.93646 0.69493 0.7414 0.0
C562 C 0.92306 0.73508 0.78451 0.0
C563 C 0.86133 0.66677 0.81766 0.0
C564 C 0.87454 0.68664 0.80113 0.0
C565 C 0.92568 0.72895 0.75285 0.0
C566 C 0.90595 0.71717 0.76947 0.0
H567 H 0.8381 0.56539 0.83497 0.0
H568 H 0.85637 0.59912 0.80808 0.0
H569 H 0.92306 0.73282 0.81151 0.0
H570 H 0.95872 0.8183 0.72925 0.0
H571 H 0.92632 0.80044 0.75689 0.0
C572 C 0.82116 0.49236 0.98725 0.0
C573 C 0.80689 0.46558 0.97376 0.0
C574 C 0.82914 0.47362 1.00312 0.0
C575 C 0.87147 0.37555 0.02269 0.0
H576 H 0.81626 0.41696 0.06395 0.0
C577 C 0.92831 0.30567 0.08714 0.0
C578 C 0.92845 0.33496 0.10093 0.0
C579 C 0.90742 0.31772 0.072 0.0
C580 C 0.83264 0.40535 0.05263 0.0
H581 H 0.78919 0.39842 0.96627 0.0
H582 H 0.80501 0.36521 0.99399 0.0
H583 H 0.79111 0.44642 0.03688 0.0
H584 H 0.90644 0.3997 0.10976 0.0
H585 H 0.87231 0.4218 0.08329 0.0
H586 H 0.91512 0.33688 0.03815 0.0
C587 C 0.80911 0.40082 0.99228 0.0
C588 C 0.81777 0.42199 0.03711 0.0
C589 C 0.79991 0.41981 0.9765 0.0
C590 C 0.90659 0.37621 0.09939 0.0
C591 C 0.88666 0.38874 0.08415 0.0
C592 C 0.88714 0.35969 0.03821 0.0
C593 C 0.82412 0.42756 1.00568 0.0
C594 C 0.83723 0.40743 0.02202 0.0
C595 C 0.88708 0.3599 0.07011 0.0
C596 C 0.86827 0.37462 0.05347 0.0
H597 H 0.82664 0.52777 0.98548 0.0
H598 H 0.84088 0.49486 0.01323 0.0
H599 H 0.88736 0.36423 0.01121 0.0
H600 H 0.9445 0.27342 0.08804 0.0
H601 H 0.90759 0.2939 0.06176 0.0
C602 C 0.12935 0.36351 0.22451 0.0
C603 C 0.11616 0.31993 0.22031 0.0
C604 C 0.14723 0.37301 0.24035 0.0
C605 C 0.14818 0.33755 0.28425 0.0
H606 H 0.25224 0.41391 0.28703 0.0
C607 C 0.21913 0.39934 0.34845 0.0
C608 C 0.23246 0.44431 0.34897 0.0
C609 C 0.20915 0.37868 0.33304 0.0
C610 C 0.22294 0.39287 0.28653 0.0
H611 H 0.1109 0.25212 0.22958 0.0
H612 H 0.14163 0.26907 0.25762 0.0
H613 H 0.22646 0.38778 0.25965 0.0
H614 H 0.24627 0.50254 0.33361 0.0
H615 H 0.22824 0.46714 0.307 0.0
H616 H 0.14353 0.34411 0.31108 0.0
C617 C 0.13839 0.29569 0.24846 0.0
C618 C 0.20831 0.37772 0.27081 0.0
C619 C 0.12105 0.28596 0.23242 0.0
C620 C 0.23634 0.46781 0.33372 0.0
C621 C 0.22624 0.44731 0.31838 0.0
C622 C 0.16259 0.35309 0.30001 0.0
C623 C 0.15192 0.33934 0.25254 0.0
C624 C 0.17023 0.35069 0.26944 0.0
C625 C 0.21224 0.40253 0.31779 0.0
C626 C 0.1996 0.38183 0.30132 0.0
H627 H 0.12607 0.39048 0.2155 0.0
H628 H 0.15674 0.40706 0.24317 0.0
H629 H 0.11857 0.31696 0.28357 0.0
H630 H 0.21597 0.3802 0.35997 0.0
H631 H 0.19901 0.34402 0.33308 0.0
C632 C 0.60876 0.90311 0.17671 0.0
C633 C 0.62867 0.87452 0.16488 0.0
C634 C 0.62742 0.90882 0.19266 0.0
C635 C 0.73126 0.90342 0.21665 0.0
H636 H 0.65046 0.90731 0.25473 0.0
C637 C 0.78618 0.94284 0.28616 0.0
C638 C 0.75783 0.97254 0.29475 0.0
C639 C 0.774 0.92586 0.2703 0.0
C640 C 0.6735 0.90652 0.24424 0.0
H641 H 0.68421 0.82958 0.16054 0.0
H642 H 0.71737 0.84008 0.18863 0.0
H643 H 0.62253 0.88547 0.22714 0.0
H644 H 0.69525 1.00882 0.2931 0.0
H645 H 0.67445 0.9797 0.26573 0.0
H646 H 0.78203 0.92577 0.23383 0.0
C647 C 0.68709 0.8579 0.18542 0.0
C648 C 0.6575 0.89389 0.22843 0.0
C649 C 0.66802 0.85177 0.1694 0.0
C650 C 0.71775 0.98567 0.28698 0.0
C651 C 0.70562 0.96871 0.27128 0.0
C652 C 0.74737 0.91621 0.23256 0.0
C653 C 0.66672 0.88632 0.19725 0.0
C654 C 0.68582 0.89344 0.21435 0.0
C655 C 0.73314 0.93809 0.26284 0.0
C656 C 0.71827 0.91917 0.24641 0.0
H657 H 0.57851 0.92125 0.1737 0.0
H658 H 0.61129 0.93149 0.20136 0.0
H659 H 0.75385 0.90346 0.20602 0.0
H660 H 0.81738 0.93222 0.29178 0.0
H661 H 0.79596 0.90238 0.26409 0.0
C662 C 0.62047 0.28078 0.53395 0.0
C663 C 0.61028 0.24729 0.54575 0.0
C664 C 0.63512 0.26943 0.5177 0.0
C665 C 0.63585 0.1735 0.48788 0.0
H666 H 0.73009 0.23838 0.46519 0.0
C667 C 0.7272 0.09936 0.43116 0.0
C668 C 0.73119 0.12635 0.41676 0.0
C669 C 0.71355 0.11755 0.4465 0.0
C670 C 0.70348 0.22022 0.47134 0.0
H671 H 0.60864 0.17575 0.54985 0.0
H672 H 0.63494 0.15618 0.522 0.0
H673 H 0.70329 0.2641 0.4927 0.0
H674 H 0.72601 0.19419 0.40742 0.0
H675 H 0.70262 0.22615 0.43446 0.0
H676 H 0.63671 0.12907 0.4668 0.0
C677 C 0.63056 0.19117 0.52497 0.0
C678 C 0.688 0.235 0.48707 0.0
C679 C 0.61571 0.20244 0.54105 0.0
C680 C 0.72305 0.17245 0.41826 0.0
C681 C 0.70981 0.19079 0.43373 0.0
C682 C 0.65156 0.15858 0.47233 0.0
C683 C 0.63998 0.22437 0.51297 0.0
C684 C 0.65449 0.21131 0.49567 0.0
C685 C 0.70394 0.16328 0.44791 0.0
C686 C 0.68601 0.18129 0.46399 0.0
H687 H 0.61641 0.31566 0.53718 0.0
H688 H 0.64179 0.29588 0.50877 0.0
H689 H 0.60913 0.15509 0.49385 0.0
H690 H 0.73332 0.06378 0.43051 0.0
H691 H 0.70999 0.09563 0.45728 0.0
C692 C 0.37143 0.12808 0.79174 0.0
C693 C 0.32806 0.11364 0.79559 0.0
C694 C 0.38149 0.14484 0.77578 0.0
C695 C 0.34743 0.14177 0.73154 0.0
H696 H 0.42058 0.24799 0.72815 0.0
C697 C 0.40338 0.21295 0.66693 0.0
C698 C 0.44798 0.22723 0.66597 0.0
C699 C 0.38399 0.20304 0.68255 0.0
C700 C 0.40045 0.21807 0.72884 0.0
H701 H 0.26131 0.10478 0.78559 0.0
H702 H 0.27921 0.13367 0.75747 0.0
H703 H 0.3958 0.22232 0.75571 0.0
H704 H 0.5068 0.24311 0.68073 0.0
H705 H 0.47352 0.22521 0.70774 0.0
H706 H 0.35333 0.13659 0.70473 0.0
C707 C 0.30526 0.13221 0.76692 0.0
C708 C 0.38614 0.20346 0.74465 0.0
C709 C 0.29499 0.11589 0.78302 0.0
C710 C 0.47233 0.23238 0.68098 0.0
C711 C 0.45307 0.22233 0.69654 0.0
C712 C 0.36208 0.15619 0.7157 0.0
C713 C 0.34859 0.14716 0.76319 0.0
C714 C 0.36014 0.16472 0.74622 0.0
C715 C 0.40877 0.20713 0.69755 0.0
C716 C 0.3895 0.1941 0.71417 0.0
H717 H 0.39771 0.12677 0.80111 0.0
H718 H 0.41533 0.15547 0.77323 0.0
H719 H 0.32766 0.11163 0.73237 0.0
H720 H 0.3836 0.20884 0.6556 0.0
H721 H 0.34961 0.19204 0.68285 0.0
C722 C 0.49207 0.85033 0.03375 0.0
C723 C 0.47291 0.81607 0.04342 0.0
C724 C 0.47613 0.85983 0.01759 0.0
C725 C 0.37601 0.85316 0.99147 0.0
H726 H 0.45762 0.87831 0.95481 0.0
C727 C 0.3274 0.95368 0.93187 0.0
C728 C 0.34442 0.93948 0.91627 0.0
C729 C 0.34048 0.93264 0.94682 0.0
C730 C 0.43434 0.87094 0.96486 0.0
H731 H 0.42229 0.76449 0.0436 0.0
H732 H 0.39386 0.78169 0.01534 0.0
H733 H 0.48675 0.85208 0.98182 0.0
H734 H 0.3875 0.89103 0.90412 0.0
H735 H 0.41061 0.8546 0.93028 0.0
H736 H 0.32367 0.87305 0.97459 0.0
C737 C 0.42133 0.80107 0.02034 0.0
C738 C 0.45107 0.85628 0.98036 0.0
C739 C 0.43773 0.79111 0.03646 0.0
C740 C 0.37379 0.90286 0.91593 0.0
C741 C 0.38724 0.88213 0.93091 0.0
C742 C 0.3593 0.86834 0.976 0.0
C743 C 0.4403 0.83566 0.01076 0.0
C744 C 0.42215 0.84773 0.9939 0.0
C745 C 0.3712 0.89718 0.94655 0.0
C746 C 0.38833 0.87784 0.96258 0.0
H747 H 0.51935 0.87006 0.0387 0.0
H748 H 0.49118 0.88694 0.01059 0.0
H749 H 0.35293 0.84712 1.0017 0.0
H750 H 0.30463 0.98169 0.93257 0.0
H751 H 0.32779 0.94526 0.95867 0.0
C752 C 0.68503 0.91535 0.36363 0.0
C753 C 0.68413 0.95905 0.37003 0.0
C754 C 0.65493 0.88324 0.36944 0.0
C755 C 0.54781 0.86882 0.39261 0.0
H756 H 0.59148 0.74779 0.39742 0.0
C757 C 0.43257 0.715 0.40347 0.0
C758 C 0.45058 0.67833 0.41215 0.0
C759 C 0.45882 0.75287 0.40037 0.0
C760 C 0.57869 0.78148 0.39644 0.0
H761 H 0.65045 1.00321 0.38756 0.0
H762 H 0.59866 0.94693 0.39795 0.0
H763 H 0.64166 0.80572 0.38792 0.0
H764 H 0.50851 0.65345 0.42544 0.0
H765 H 0.55338 0.72003 0.42091 0.0
H766 H 0.48494 0.84439 0.40156 0.0
C767 C 0.62212 0.93765 0.38821 0.0
C768 C 0.60744 0.81472 0.39066 0.0
C769 C 0.65207 0.9699 0.38231 0.0
C770 C 0.4939 0.68138 0.41872 0.0
C771 C 0.51978 0.71933 0.4159 0.0
C772 C 0.51898 0.83547 0.39851 0.0
C773 C 0.62331 0.89377 0.38192 0.0
C774 C 0.59242 0.8588 0.38851 0.0
C775 C 0.5034 0.75477 0.40602 0.0
C776 C 0.53402 0.79126 0.40047 0.0
H777 H 0.7089 0.90586 0.35405 0.0
H778 H 0.65632 0.85013 0.36401 0.0
H779 H 0.53488 0.90229 0.39099 0.0
H780 H 0.39946 0.71308 0.39803 0.0
H781 H 0.44503 0.77932 0.39266 0.0
C782 C 0.61479 0.14834 0.63002 0.0
C783 C 0.62469 0.18951 0.62234 0.0
C784 C 0.64897 0.11983 0.63546 0.0
C785 C 0.76943 0.09738 0.62849 0.0
H786 H 0.75853 0.02323 0.66835 0.0
C787 C 0.9187 0.99814 0.65287 0.0
C788 C 0.91199 0.9526 0.65628 0.0
C789 C 0.88264 0.02705 0.65078 0.0
C790 C 0.76188 0.04353 0.65713 0.0
H791 H 0.67859 0.23349 0.61495 0.0
H792 H 0.73799 0.18451 0.62479 0.0
H793 H 0.6981 0.07451 0.66074 0.0
H794 H 0.8617 0.90227 0.66106 0.0
H795 H 0.7982 0.95328 0.65752 0.0
H796 H 0.83316 0.06683 0.62492 0.0
C797 C 0.7038 0.17359 0.62622 0.0
C798 C 0.72723 0.07289 0.65273 0.0
C799 C 0.66965 0.20193 0.62067 0.0
C800 C 0.8681 0.93722 0.65861 0.0
C801 C 0.83173 0.9664 0.6565 0.0
C802 C 0.80402 0.06841 0.63295 0.0
C803 C 0.69401 0.13181 0.63347 0.0
C804 C 0.73066 0.10042 0.63837 0.0
C805 C 0.83868 1.01132 0.652 0.0
C806 C 0.80089 0.04132 0.64737 0.0
H807 H 0.58056 0.13752 0.63149 0.0
H808 H 0.63999 0.08783 0.64078 0.0
H809 H 0.77295 0.11697 0.6171 0.0
H810 H 0.95205 1.01127 0.6512 0.0
H811 H 0.88922 0.06165 0.64772 0.0
C812 C 0.59193 0.4056 0.89126 0.0
C813 C 0.63176 0.39932 0.90035 0.0
C814 C 0.55875 0.37298 0.89114 0.0
C815 C 0.54429 0.25196 0.89578 0.0
H816 H 0.41858 0.282 0.89337 0.0
C817 C 0.40927 0.11651 0.8859 0.0
C818 C 0.3752 0.12637 0.87423 0.0
C819 C 0.43837 0.1498 0.89156 0.0
C820 C 0.45355 0.27302 0.89391 0.0
H821 H 0.66733 0.35387 0.91685 0.0
H822 H 0.60895 0.2966 0.91673 0.0
H823 H 0.4731 0.34005 0.89961 0.0
H824 H 0.34457 0.17967 0.85976 0.0
H825 H 0.39545 0.23756 0.86953 0.0
H826 H 0.5249 0.18516 0.88969 0.0
C827 C 0.60363 0.32701 0.90963 0.0
C828 C 0.48485 0.30632 0.89753 0.0
C829 C 0.63689 0.36004 0.90986 0.0
C830 C 0.37025 0.17077 0.86877 0.0
C831 C 0.3994 0.20409 0.87445 0.0
C832 C 0.51297 0.21864 0.89215 0.0
C833 C 0.56443 0.33282 0.90003 0.0
C834 C 0.53073 0.29642 0.89822 0.0
C835 C 0.43427 0.19395 0.88575 0.0
C836 C 0.46722 0.22884 0.89088 0.0
H837 H 0.58681 0.43548 0.88381 0.0
H838 H 0.5294 0.37854 0.88344 0.0
H839 H 0.57933 0.24316 0.89597 0.0
H840 H 0.41406 0.08279 0.89048 0.0
H841 H 0.46429 0.14083 0.90046 0.0
C842 C 0.20928 0.13201 0.16014 0.0
C843 C 0.1661 0.11834 0.15553 0.0
C844 C 0.24537 0.1022 0.15898 0.0
C845 C 0.2737 0.98132 0.15319 0.0
H846 H 0.38001 0.02734 0.13164 0.0
C847 C 0.40338 0.867 0.1205 0.0
C848 C 0.4488 0.87767 0.12234 0.0
C849 C 0.37024 0.89582 0.12658 0.0
C850 C 0.35083 0.01397 0.13787 0.0
H851 H 0.12675 0.06204 0.14699 0.0
H852 H 0.18897 1.01072 0.14491 0.0
H853 H 0.32058 0.07853 0.13973 0.0
H854 H 0.49466 0.92735 0.13216 0.0
H855 H 0.43711 0.97713 0.14277 0.0
H856 H 0.30354 0.9166 0.15091 0.0
C857 C 0.19536 0.04411 0.14952 0.0
C858 C 0.31675 0.04342 0.14259 0.0
C859 C 0.15957 0.07376 0.1506 0.0
C860 C 0.46013 0.91778 0.13053 0.0
C861 C 0.42705 0.94662 0.13653 0.0
C862 C 0.30768 0.95187 0.14841 0.0
C863 C 0.23895 0.05809 0.15329 0.0
C864 C 0.27738 0.02743 0.15007 0.0
C865 C 0.38167 0.93617 0.13457 0.0
C866 C 0.34644 0.96773 0.14048 0.0
H867 H 0.21562 0.16621 0.1638 0.0
H868 H 0.27844 0.11399 0.16217 0.0
H869 H 0.24425 0.96782 0.15919 0.0
H870 H 0.39334 0.8365 0.11424 0.0
H871 H 0.3356 0.88693 0.12468 0.0
C872 C 0.94487 0.86411 0.35741 0.0
C873 C 0.95525 0.90741 0.36299 0.0
C874 C 0.97657 0.82965 0.35874 0.0
C875 C 0.07451 0.80088 0.38481 0.0
H876 H 0.09363 0.70516 0.35282 0.0
C877 C 0.21194 0.66994 0.396 0.0
C878 C 0.20152 0.62516 0.39252 0.0
C879 C 0.18372 0.70441 0.39065 0.0
C880 C 0.08842 0.73147 0.36196 0.0
H881 H 1.00785 0.94921 0.37304 0.0
H882 H 0.06292 0.88989 0.37499 0.0
H883 H 0.04062 0.76488 0.34614 0.0
H884 H 0.15355 0.58186 0.38016 0.0
H885 H 0.10415 0.64181 0.3711 0.0
H886 H 0.1213 0.76756 0.40077 0.0
C887 C 0.03016 0.88199 0.37005 0.0
C888 C 0.05804 0.7657 0.35811 0.0
C889 C 0.99865 0.9161 0.36882 0.0
C890 C 0.16277 0.61592 0.38309 0.0
C891 C 0.13445 0.6504 0.37779 0.0
C892 C 0.10461 0.76677 0.38867 0.0
C893 C 0.01911 0.83799 0.36564 0.0
C894 C 0.05097 0.80101 0.36945 0.0
C895 C 0.14414 0.69509 0.38173 0.0
C896 C 0.11224 0.73165 0.37729 0.0
H897 H 0.91157 0.85625 0.35303 0.0
H898 H 0.96696 0.7961 0.35523 0.0
H899 H 0.06913 0.8269 0.39405 0.0
H900 H 0.2416 0.67844 0.40311 0.0
H901 H 0.19281 0.73846 0.39363 0.0
C902 C 0.65868 0.49916 0.61267 0.0
C903 C 0.66428 0.45315 0.6099 0.0
C904 C 0.69535 0.5269 0.6152 0.0
C905 C 0.81672 0.53954 0.61074 0.0
H906 H 0.8036 0.61486 0.65015 0.0
C907 C 0.96296 0.6442 0.63829 0.0
C908 C 0.95285 0.68595 0.64546 0.0
C909 C 0.92893 0.61551 0.63293 0.0
C910 C 0.80773 0.59471 0.63894 0.0
H911 H 0.7135 0.40072 0.60674 0.0
H912 H 0.77808 0.44976 0.61098 0.0
H913 H 0.74314 0.56564 0.6419 0.0
H914 H 0.89879 0.73069 0.6521 0.0
H915 H 0.83968 0.68142 0.64239 0.0
H916 H 0.88122 0.5692 0.60766 0.0
C917 C 0.7449 0.46408 0.61118 0.0
C918 C 0.77303 0.56626 0.63425 0.0
C919 C 0.70791 0.43604 0.60867 0.0
C920 C 0.90786 0.69866 0.64679 0.0
C921 C 0.87388 0.67016 0.6413 0.0
C922 C 0.85146 0.56843 0.61536 0.0
C923 C 0.73883 0.50954 0.61504 0.0
C924 C 0.77689 0.53859 0.62003 0.0
C925 C 0.88385 0.62791 0.63449 0.0
C926 C 0.8473 0.59666 0.62948 0.0
H927 H 0.62562 0.51364 0.61347 0.0
H928 H 0.68957 0.56194 0.61776 0.0
H929 H 0.82059 0.51872 0.59968 0.0
H930 H 0.99723 0.63317 0.63711 0.0
H931 H 0.93803 0.58314 0.62796 0.0
C932 C 0.15516 0.22089 0.86357 0.0
C933 C 0.13274 0.1859 0.85539 0.0
C934 C 0.1328 0.26093 0.8671 0.0
C935 C 0.03333 0.32877 0.85674 0.0
H936 H 0.03254 0.35925 0.90424 0.0
C937 C 0.92991 0.47591 0.88384 0.0
C938 C 0.90295 0.46483 0.89772 0.0
C939 C 0.96264 0.44631 0.87809 0.0
C940 C 0.03262 0.35126 0.89092 0.0
H941 H 0.07063 0.16598 0.84369 0.0
H942 H 0.03215 0.23615 0.84934 0.0
H943 H 0.08312 0.30121 0.89398 0.0
H944 H 0.89007 0.4143 0.91667 0.0
H945 H 0.94766 0.36297 0.90675 0.0
H946 H 0.98212 0.37813 0.85375 0.0
C947 C 0.06673 0.23278 0.85312 0.0
C948 C 0.06187 0.3184 0.88503 0.0
C949 C 0.08871 0.1926 0.8499 0.0
C950 C 0.91012 0.42383 0.90591 0.0
C951 C 0.94331 0.39455 0.90031 0.0
C952 C 1.00456 0.3621 0.86259 0.0
C953 C 0.08801 0.26684 0.86223 0.0
C954 C 0.06185 0.30613 0.86793 0.0
C955 C 0.96966 0.40529 0.88625 0.0
C956 C 1.0032 0.373 0.87981 0.0
H957 H 0.1889 0.21626 0.86815 0.0
H958 H 0.15001 0.28672 0.8741 0.0
H959 H 0.03265 0.32001 0.8435 0.0
H960 H 0.92523 0.50717 0.8772 0.0
H961 H 0.98259 0.45554 0.86727 0.0
C962 C 0.35635 0.64294 0.11287 0.0
C963 C 0.39453 0.62314 0.10587 0.0
C964 C 0.31779 0.61747 0.11556 0.0
C965 C 0.25988 0.51294 0.10431 0.0
H966 H 0.22093 0.5117 0.15089 0.0
C967 C 0.10917 0.40932 0.12891 0.0
C968 C 0.11754 0.38369 0.14344 0.0
C969 C 0.1405 0.44041 0.12319 0.0
C970 C 0.23139 0.51179 0.13783 0.0
H971 H 0.42179 0.56234 0.09536 0.0
H972 H 0.35414 0.51841 0.09948 0.0
H973 H 0.27767 0.5652 0.14187 0.0
H974 H 0.16549 0.3707 0.16334 0.0
H975 H 0.21985 0.42556 0.15349 0.0
H976 H 0.21383 0.4592 0.10033 0.0
C977 C 0.35392 0.55332 0.10301 0.0
C978 C 0.26347 0.5427 0.13263 0.0
C979 C 0.39262 0.57843 0.10066 0.0
C980 C 0.1581 0.38969 0.15206 0.0
C981 C 0.18906 0.42135 0.14651 0.0
C982 C 0.22719 0.48253 0.10945 0.0
C983 C 0.3166 0.57211 0.11098 0.0
C984 C 0.2786 0.54311 0.11588 0.0
C985 C 0.18051 0.44715 0.13206 0.0
C986 C 0.21322 0.48111 0.12634 0.0
H987 H 0.35726 0.67716 0.11723 0.0
H988 H 0.2894 0.63279 0.12169 0.0
H989 H 0.27096 0.51253 0.09132 0.0
H990 H 0.07827 0.40549 0.12196 0.0
H991 H 0.133 0.45992 0.11205 0.0
C992 C 0.4958 0.4009 0.56834 0.0
C993 C 0.49775 0.35429 0.56708 0.0
C994 C 0.49394 0.42731 0.55381 0.0
C995 C 0.4935 0.42206 0.50635 0.0
H996 H 0.40161 0.5122 0.51129 0.0
C997 C 0.34131 0.4962 0.46432 0.0
C998 C 0.36161 0.49296 0.44849 0.0
C999 C 0.36704 0.49319 0.47903 0.0
C1000 C 0.42725 0.48714 0.50962 0.0
H1001 H 0.50205 0.29862 0.54991 0.0
H1002 H 0.49807 0.34404 0.52455 0.0
H1003 H 0.43344 0.47754 0.53615 0.0
H1004 H 0.42455 0.48776 0.43541 0.0
H1005 H 0.4699 0.48567 0.46093 0.0
H1006 H 0.48449 0.42872 0.47981 0.0
C1007 C 0.49908 0.3609 0.5366 0.0
C1008 C 0.44623 0.46763 0.52397 0.0
C1009 C 0.50163 0.33462 0.55115 0.0
C1010 C 0.40825 0.49099 0.44752 0.0
C1011 C 0.4341 0.48885 0.46218 0.0
C1012 C 0.47405 0.44107 0.492 0.0
C1013 C 0.49276 0.40747 0.53773 0.0
C1014 C 0.47871 0.43378 0.52256 0.0
C1015 C 0.41369 0.48714 0.47814 0.0
C1016 C 0.43963 0.47296 0.49339 0.0
H1017 H 0.4922 0.41667 0.58054 0.0
H1018 H 0.4905 0.46306 0.55525 0.0
H1019 H 0.51901 0.39687 0.50467 0.0
H1020 H 0.30527 0.49666 0.46535 0.0
H1021 H 0.34975 0.49178 0.49097 0.0
C1022 C 0.16979 0.99447 0.81766 0.0
C1023 C 0.2165 0.99553 0.81693 0.0
C1024 C 0.14443 0.99223 0.80289 0.0
C1025 C 0.15265 0.98859 0.75553 0.0
H1026 H 0.05901 0.90053 0.7606 0.0
C1027 C 0.08226 0.90343 0.69695 0.0
C1028 C 0.07922 0.85689 0.69825 0.0
C1029 C 0.08481 0.92986 0.71145 0.0
C1030 C 0.08505 0.9251 0.75889 0.0
H1031 H 0.27348 0.99754 0.80035 0.0
H1032 H 0.22979 0.9924 0.77452 0.0
H1033 H 0.09376 0.93223 0.78542 0.0
H1034 H 0.07368 0.80143 0.7155 0.0
H1035 H 0.07883 0.8469 0.74081 0.0
H1036 H 0.14664 0.97852 0.72901 0.0
C1037 C 0.21213 0.99462 0.78637 0.0
C1038 C 0.10465 0.94403 0.77321 0.0
C1039 C 0.23741 0.99777 0.80119 0.0
C1040 C 0.0749 0.83741 0.71421 0.0
C1041 C 0.07817 0.8637 0.72874 0.0
C1042 C 0.13348 0.96918 0.7412 0.0
C1043 C 0.16536 0.98946 0.78705 0.0
C1044 C 0.13966 0.97517 0.77177 0.0
C1045 C 0.0856 0.91009 0.72755 0.0
C1046 C 0.10025 0.93617 0.74267 0.0
H1047 H 0.15298 0.99197 0.8297 0.0
H1048 H 0.10854 0.98978 0.80398 0.0
H1049 H 0.17881 0.01303 0.75382 0.0
H1050 H 0.08617 0.91906 0.68473 0.0
H1051 H 0.08908 0.96551 0.70996 0.0
C1052 C 0.57584 0.73633 0.05203 0.0
C1053 C 0.5784 0.71347 0.0674 0.0
C1054 C 0.58066 0.71322 0.03683 0.0
C1055 C 0.59091 0.60297 0.01596 0.0
H1056 H 0.69053 0.65925 0.99325 0.0
C1057 C 0.66352 0.5632 0.94901 0.0
C1058 C 0.71009 0.56625 0.94748 0.0
C1059 C 0.64288 0.56991 0.96464 0.0
C1060 C 0.66291 0.64292 0.9995 0.0
H1061 H 0.58489 0.64859 0.07908 0.0
H1062 H 0.59241 0.60792 0.0525 0.0
H1063 H 0.65602 0.69615 0.01719 0.0
H1064 H 0.77155 0.57707 0.96114 0.0
H1065 H 0.736 0.58709 0.98844 0.0
H1066 H 0.59801 0.54978 0.99791 0.0
C1067 C 0.58626 0.64352 0.05211 0.0
C1068 C 0.64265 0.66442 0.01305 0.0
C1069 C 0.58174 0.66674 0.06732 0.0
C1070 C 0.73587 0.57224 0.96206 0.0
C1071 C 0.71536 0.57907 0.97764 0.0
C1072 C 0.6108 0.58169 1.00209 0.0
C1073 C 0.58838 0.66688 0.03679 0.0
C1074 C 0.60654 0.64474 0.0215 0.0
C1075 C 0.66861 0.58057 0.97889 0.0
C1076 C 0.64741 0.6013 0.99388 0.0
H1077 H 0.57496 0.77245 0.05178 0.0
H1078 H 0.5819 0.73205 0.02518 0.0
H1079 H 0.5633 0.58694 0.02231 0.0
H1080 H 0.64288 0.56001 0.93785 0.0
H1081 H 0.60681 0.57116 0.96521 0.0
C1082 C 0.9944 0.16449 0.19896 0.0
C1083 C 0.99929 0.21105 0.19839 0.0
C1084 C 0.99138 0.14231 0.21443 0.0
C1085 C 0.93861 0.16667 0.25345 0.0
H1086 H 0.9827 0.0528 0.2698 0.0
C1087 C 0.84294 0.074 0.3039 0.0
C1088 C 0.86695 0.07348 0.31908 0.0
C1089 C 0.86516 0.07989 0.28858 0.0
C1090 C 0.97009 0.0845 0.26527 0.0
H1091 H 1.00797 0.27065 0.21335 0.0
H1092 H 1.00275 0.23201 0.24046 0.0
H1093 H 0.01758 0.08799 0.24499 0.0
H1094 H 0.93286 0.07516 0.33016 0.0
H1095 H 0.97197 0.08384 0.30326 0.0
H1096 H 0.8903 0.16284 0.2732 0.0
C1097 C 1.00176 0.21255 0.22896 0.0
C1098 C 0.99011 0.10467 0.2512 0.0
C1099 C 1.00539 0.2346 0.21347 0.0
C1100 C 0.91377 0.07429 0.31856 0.0
C1101 C 0.9361 0.07957 0.3032 0.0
C1102 C 0.91809 0.14615 0.26716 0.0
C1103 C 0.99225 0.16659 0.22955 0.0
C1104 C 0.97461 0.14612 0.24523 0.0
C1105 C 0.91175 0.08508 0.28822 0.0
C1106 C 0.9334 0.10483 0.27318 0.0
H1107 H 0.98875 0.14582 0.18746 0.0
H1108 H 0.98381 0.10698 0.2145 0.0
H1109 H 0.9254 0.19818 0.24896 0.0
H1110 H 0.80684 0.0752 0.30401 0.0
H1111 H 0.84568 0.08414 0.27718 0.0
loop_
_geom_bond_atom_site_label_1
_geom_bond_atom_site_label_2
_geom_bond_distance
_geom_bond_site_symmetry_2
_ccdc_geom_bond_type
Zn0 N4 2.020 . S
Zn0 O8 2.019 . S
Zn0 N10 2.119 . S
Zn0 O18 1.975 . S
C1 N2 1.334 . S
C1 N5 1.336 . S
N2 C1 1.334 . S
N2 C3 1.334 . S
C3 N2 1.334 . S
C3 N4 1.336 . S
N4 Zn0 2.020 . S
N4 C3 1.336 . S
N4 N5 1.354 . S
N5 C1 1.336 . S
N5 N4 1.354 . S
N5 Zn9 2.020 . S
C6 O7 1.244 . S
C6 O30 1.257 . S
O7 C6 1.244 . S
O8 Zn0 2.019 . S
O8 C28 1.257 . S
Zn9 N5 2.020 . S
Zn9 O16 1.975 . S
Zn9 N25 2.119 . S
Zn9 O30 2.019 . S
N10 Zn0 2.119 . S
N10 C12 1.334 . S
N10 C13 1.328 . S
C11 C12 1.391 . S
C11 N14 1.329 . S
C11 H32 0.930 . S
C12 N10 1.334 . S
C12 C11 1.391 . S
C12 H19 0.930 . S
C13 N10 1.328 . S
C13 C15 1.392 . S
C13 H20 0.930 . S
N14 C11 1.329 . S
N14 C15 1.331 . S
C15 C13 1.392 . S
C15 N14 1.331 . S
O16 Zn9 1.975 . S
O16 C17 1.252 . S
C17 O16 1.252 . S
C17 O18 1.252 . S
O18 Zn0 1.975 . S
O18 C17 1.252 . S
H19 C12 0.930 . S
H20 C13 0.930 . S
C21 C22 1.392 . S
C21 N25 1.328 . S
C21 H27 0.930 . S
C22 C21 1.392 . S
C22 N26 1.331 . S
C23 C24 1.391 . S
C23 N26 1.329 . S
C23 H33 0.930 . S
C24 C23 1.391 . S
C24 N25 1.334 . S
C24 H31 0.930 . S
N25 Zn9 2.119 . S
N25 C21 1.328 . S
N25 C24 1.334 . S
N26 C22 1.331 . S
N26 C23 1.329 . S
H27 C21 0.930 . S
C28 O8 1.257 . S
C28 O29 1.244 . S
O29 C28 1.244 . S
O30 C6 1.257 . S
O30 Zn9 2.019 . S
H31 C24 0.930 . S
H32 C11 0.930 . S
H33 C23 0.930 . S
Zn34 N38 2.020 1_655 S
Zn34 O42 2.019 . S
Zn34 N44 2.119 . S
Zn34 O52 1.975 . S
C35 N36 1.334 . S
C35 N39 1.336 . S
N36 C35 1.334 . S
N36 C37 1.334 . S
C37 N36 1.334 . S
C37 N38 1.336 . S
N38 Zn34 2.020 1_455 S
N38 C37 1.336 . S
N38 N39 1.354 . S
N39 C35 1.336 . S
N39 N38 1.354 . S
N39 Zn43 2.020 . S
C40 O41 1.244 . S
C40 O64 1.257 . S
O41 C40 1.244 . S
O42 Zn34 2.019 . S
O42 C62 1.257 . S
Zn43 N39 2.020 . S
Zn43 O50 1.975 . S
Zn43 N59 2.119 . S
Zn43 O64 2.019 . S
N44 Zn34 2.119 . S
N44 C46 1.334 . S
N44 C47 1.328 . S
C45 C46 1.391 . S
C45 N48 1.329 . S
C45 H66 0.930 . S
C46 N44 1.334 . S
C46 C45 1.391 . S
C46 H53 0.930 . S
C47 N44 1.328 . S
C47 C49 1.392 . S
C47 H54 0.930 . S
N48 C45 1.329 . S
N48 C49 1.331 . S
C49 C47 1.392 . S
C49 N48 1.331 . S
O50 Zn43 1.975 . S
O50 C51 1.252 1_455 S
C51 O50 1.252 1_655 S
C51 O52 1.252 . S
O52 Zn34 1.975 . S
O52 C51 1.252 . S
H53 C46 0.930 . S
H54 C47 0.930 . S
C55 C56 1.392 . S
C55 N59 1.328 . S
C55 H61 0.930 . S
C56 C55 1.392 . S
C56 N60 1.331 . S
C57 C58 1.391 . S
C57 N60 1.329 . S
C57 H67 0.930 . S
C58 C57 1.391 . S
C58 N59 1.334 . S
C58 H65 0.930 . S
N59 Zn43 2.119 . S
N59 C55 1.328 . S
N59 C58 1.334 . S
N60 C56 1.331 . S
N60 C57 1.329 . S
H61 C55 0.930 . S
C62 O42 1.257 . S
C62 O63 1.244 1_655 S
O63 C62 1.244 1_455 S
O64 C40 1.257 . S
O64 Zn43 2.019 . S
H65 C58 0.930 . S
H66 C45 0.930 . S
H67 C57 0.930 . S
Zn68 N72 2.020 . S
Zn68 O76 2.019 . S
Zn68 N78 2.119 . S
Zn68 O86 1.975 . S
C69 N70 1.334 . S
C69 N73 1.336 . S
N70 C69 1.334 . S
N70 C71 1.334 . S
C71 N70 1.334 . S
C71 N72 1.336 . S
N72 Zn68 2.020 . S
N72 C71 1.336 . S
N72 N73 1.354 . S
N73 C69 1.336 . S
N73 N72 1.354 . S
N73 Zn77 2.020 . S
C74 O75 1.244 . S
C74 O98 1.257 . S
O75 C74 1.244 . S
O76 Zn68 2.019 . S
O76 C96 1.257 . S
Zn77 N73 2.020 . S
Zn77 O84 1.975 . S
Zn77 N93 2.119 . S
Zn77 O98 2.019 . S
N78 Zn68 2.119 . S
N78 C80 1.334 . S
N78 C81 1.328 . S
C79 C80 1.391 . S
C79 N82 1.329 . S
C79 H100 0.930 . S
C80 N78 1.334 . S
C80 C79 1.391 . S
C80 H87 0.930 . S
C81 N78 1.328 . S
C81 C83 1.392 . S
C81 H88 0.930 . S
N82 C79 1.329 . S
N82 C83 1.331 . S
C83 C81 1.392 . S
C83 N82 1.331 . S
O84 Zn77 1.975 . S
O84 C85 1.252 . S
C85 O84 1.252 . S
C85 O86 1.252 . S
O86 Zn68 1.975 . S
O86 C85 1.252 . S
H87 C80 0.930 . S
H88 C81 0.930 . S
C89 C90 1.392 . S
C89 N93 1.328 . S
C89 H95 0.930 . S
C90 C89 1.392 . S
C90 N94 1.331 . S
C91 C92 1.391 . S
C91 N94 1.329 . S
C91 H101 0.930 . S
C92 C91 1.391 . S
C92 N93 1.334 . S
C92 H99 0.930 . S
N93 Zn77 2.119 . S
N93 C89 1.328 . S
N93 C92 1.334 . S
N94 C90 1.331 . S
N94 C91 1.329 . S
H95 C89 0.930 . S
C96 O76 1.257 . S
C96 O97 1.244 . S
O97 C96 1.244 . S
O98 C74 1.257 . S
O98 Zn77 2.019 . S
H99 C92 0.930 . S
H100 C79 0.930 . S
H101 C91 0.930 . S
Zn102 N106 2.020 . S
Zn102 O110 2.019 . S
Zn102 N112 2.119 . S
Zn102 O120 1.975 . S
C103 N104 1.334 . S
C103 N107 1.336 . S
N104 C103 1.334 . S
N104 C105 1.334 . S
C105 N104 1.334 . S
C105 N106 1.336 1_655 S
N106 Zn102 2.020 . S
N106 C105 1.336 1_455 S
N106 N107 1.354 1_455 S
N107 C103 1.336 . S
N107 N106 1.354 1_655 S
N107 Zn111 2.020 . S
C108 O109 1.246 . S
C108 O132 1.257 . S
O109 C108 1.246 . S
O110 Zn102 2.019 . S
O110 C130 1.257 . S
Zn111 N107 2.020 . S
Zn111 O118 1.975 1_655 S
Zn111 N127 2.119 . S
Zn111 O132 2.019 . S
N112 Zn102 2.119 . S
N112 C114 1.334 . S
N112 C115 1.328 . S
C113 C114 1.391 . S
C113 N116 1.329 . S
C113 H134 0.930 . S
C114 N112 1.334 . S
C114 C113 1.391 . S
C114 H121 0.930 . S
C115 N112 1.328 . S
C115 C117 1.392 . S
C115 H122 0.930 . S
N116 C113 1.329 . S
N116 C117 1.331 . S
C117 C115 1.392 . S
C117 N116 1.331 . S
O118 Zn111 1.975 1_455 S
O118 C119 1.252 . S
C119 O118 1.252 . S
C119 O120 1.252 . S
O120 Zn102 1.975 . S
O120 C119 1.252 . S
H121 C114 0.930 . S
H122 C115 0.930 . S
C123 C124 1.392 . S
C123 N127 1.328 . S
C123 H129 0.930 . S
C124 C123 1.392 . S
C124 N128 1.331 . S
C125 C126 1.391 . S
C125 N128 1.329 . S
C125 H135 0.930 . S
C126 C125 1.391 . S
C126 N127 1.334 . S
C126 H133 0.930 . S
N127 Zn111 2.119 . S
N127 C123 1.328 . S
N127 C126 1.334 . S
N128 C124 1.331 . S
N128 C125 1.329 . S
H129 C123 0.930 . S
C130 O110 1.257 . S
C130 O131 1.244 . S
O131 C130 1.244 . S
O132 C108 1.257 . S
O132 Zn111 2.019 . S
H133 C126 0.930 . S
H134 C113 0.930 . S
H135 C125 0.930 . S
Zn136 N140 2.020 1_565 S
Zn136 O144 2.019 . S
Zn136 N146 2.119 . S
Zn136 O154 1.975 . S
C137 N138 1.334 . S
C137 N141 1.336 . S
N138 C137 1.334 . S
N138 C139 1.334 . S
C139 N138 1.334 . S
C139 N140 1.336 . S
N140 Zn136 2.020 1_545 S
N140 C139 1.336 . S
N140 N141 1.354 . S
N141 C137 1.336 . S
N141 N140 1.354 . S
N141 Zn145 2.020 . S
C142 O143 1.244 . S
C142 O166 1.257 . S
O143 C142 1.244 . S
O144 Zn136 2.019 . S
O144 C164 1.257 . S
Zn145 N141 2.020 . S
Zn145 O152 1.975 . S
Zn145 N161 2.119 . S
Zn145 O166 2.019 . S
N146 Zn136 2.119 . S
N146 C148 1.334 . S
N146 C149 1.328 . S
C147 C148 1.391 . S
C147 N150 1.329 . S
C147 H168 0.930 . S
C148 N146 1.334 . S
C148 C147 1.391 . S
C148 H155 0.930 . S
C149 N146 1.328 . S
C149 C151 1.392 . S
C149 H156 0.930 . S
N150 C147 1.329 . S
N150 C151 1.331 . S
C151 C149 1.392 . S
C151 N150 1.331 . S
O152 Zn145 1.975 . S
O152 C153 1.252 1_545 S
C153 O152 1.252 1_565 S
C153 O154 1.252 . S
O154 Zn136 1.975 . S
O154 C153 1.252 . S
H155 C148 0.930 . S
H156 C149 0.930 . S
C157 C158 1.392 . S
C157 N161 1.328 . S
C157 H163 0.930 . S
C158 C157 1.392 . S
C158 N162 1.331 . S
C159 C160 1.391 . S
C159 N162 1.329 . S
C159 H169 0.930 . S
C160 C159 1.391 . S
C160 N161 1.334 . S
C160 H167 0.930 . S
N161 Zn145 2.119 . S
N161 C157 1.328 . S
N161 C160 1.334 . S
N162 C158 1.331 . S
N162 C159 1.329 . S
H163 C157 0.930 . S
C164 O144 1.257 . S
C164 O165 1.244 1_565 S
O165 C164 1.244 1_545 S
O166 C142 1.257 . S
O166 Zn145 2.019 . S
H167 C160 0.930 . S
H168 C147 0.930 . S
H169 C159 0.930 . S
Zn170 N174 2.020 . S
Zn170 O178 2.019 . S
Zn170 N180 2.119 . S
Zn170 O188 1.975 . S
C171 N172 1.334 . S
C171 N175 1.336 . S
N172 C171 1.334 . S
N172 C173 1.334 . S
C173 N172 1.334 . S
C173 N174 1.336 . S
N174 Zn170 2.020 . S
N174 C173 1.336 . S
N174 N175 1.354 . S
N175 C171 1.336 . S
N175 N174 1.354 . S
N175 Zn179 2.020 . S
C176 O177 1.244 . S
C176 O200 1.257 . S
O177 C176 1.244 . S
O178 Zn170 2.019 . S
O178 C198 1.257 . S
Zn179 N175 2.020 . S
Zn179 O186 1.975 . S
Zn179 N195 2.119 . S
Zn179 O200 2.019 . S
N180 Zn170 2.119 . S
N180 C182 1.334 . S
N180 C183 1.328 . S
C181 C182 1.391 . S
C181 N184 1.329 . S
C181 H202 0.930 . S
C182 N180 1.334 . S
C182 C181 1.391 . S
C182 H189 0.930 . S
C183 N180 1.328 . S
C183 C185 1.392 . S
C183 H190 0.930 . S
N184 C181 1.329 . S
N184 C185 1.331 . S
C185 C183 1.392 . S
C185 N184 1.331 . S
O186 Zn179 1.975 . S
O186 C187 1.252 . S
C187 O186 1.252 . S
C187 O188 1.252 . S
O188 Zn170 1.975 . S
O188 C187 1.252 . S
H189 C182 0.930 . S
H190 C183 0.930 . S
C191 C192 1.392 . S
C191 N195 1.328 . S
C191 H197 0.930 . S
C192 C191 1.392 . S
C192 N196 1.331 . S
C193 C194 1.391 . S
C193 N196 1.329 . S
C193 H203 0.930 . S
C194 C193 1.391 . S
C194 N195 1.334 . S
C194 H201 0.930 . S
N195 Zn179 2.119 . S
N195 C191 1.328 . S
N195 C194 1.334 . S
N196 C192 1.331 . S
N196 C193 1.329 . S
H197 C191 0.930 . S
C198 O178 1.257 . S
C198 O199 1.244 . S
O199 C198 1.244 . S
O200 C176 1.257 . S
O200 Zn179 2.019 . S
H201 C194 0.930 . S
H202 C181 0.930 . S
H203 C193 0.930 . S
Zn204 N208 2.020 . S
Zn204 O212 2.019 . S
Zn204 N214 2.119 . S
Zn204 O222 1.975 . S
C205 N206 1.334 . S
C205 N209 1.336 . S
N206 C205 1.334 . S
N206 C207 1.334 . S
C207 N206 1.334 . S
C207 N208 1.336 1_565 S
N208 Zn204 2.020 . S
N208 C207 1.336 1_545 S
N208 N209 1.354 1_545 S
N209 C205 1.336 . S
N209 N208 1.354 1_565 S
N209 Zn213 2.020 . S
C210 O211 1.246 . S
C210 O234 1.257 . S
O211 C210 1.246 . S
O212 Zn204 2.019 . S
O212 C232 1.257 . S
Zn213 N209 2.020 . S
Zn213 O220 1.975 1_565 S
Zn213 N229 2.119 . S
Zn213 O234 2.019 . S
N214 Zn204 2.119 . S
N214 C216 1.334 . S
N214 C217 1.328 . S
C215 C216 1.391 . S
C215 N218 1.329 . S
C215 H236 0.930 . S
C216 N214 1.334 . S
C216 C215 1.391 . S
C216 H223 0.930 . S
C217 N214 1.328 . S
C217 C219 1.392 . S
C217 H224 0.930 . S
N218 C215 1.329 . S
N218 C219 1.331 . S
C219 C217 1.392 . S
C219 N218 1.331 . S
O220 Zn213 1.975 1_545 S
O220 C221 1.252 . S
C221 O220 1.252 . S
C221 O222 1.252 . S
O222 Zn204 1.975 . S
O222 C221 1.252 . S
H223 C216 0.930 . S
H224 C217 0.930 . S
C225 C226 1.392 . S
C225 N229 1.328 . S
C225 H231 0.930 . S
C226 C225 1.392 . S
C226 N230 1.331 . S
C227 C228 1.391 . S
C227 N230 1.329 . S
C227 H237 0.930 . S
C228 C227 1.391 . S
C228 N229 1.334 . S
C228 H235 0.930 . S
N229 Zn213 2.119 . S
N229 C225 1.328 . S
N229 C228 1.334 . S
N230 C226 1.331 . S
N230 C227 1.329 . S
H231 C225 0.930 . S
C232 O212 1.257 . S
C232 O233 1.244 . S
O233 C232 1.244 . S
O234 C210 1.257 . S
O234 Zn213 2.019 . S
H235 C228 0.930 . S
H236 C215 0.930 . S
H237 C227 0.930 . S
Zn238 N242 2.020 . S
Zn238 O246 2.019 . S
Zn238 N248 2.119 . S
Zn238 O256 1.975 . S
C239 N240 1.334 . S
C239 N243 1.336 . S
N240 C239 1.334 . S
N240 C241 1.334 . S
C241 N240 1.334 . S
C241 N242 1.336 . S
N242 Zn238 2.020 . S
N242 C241 1.336 . S
N242 N243 1.354 . S
N243 C239 1.336 . S
N243 N242 1.354 . S
N243 Zn247 2.020 . S
C244 O245 1.244 . S
C244 O268 1.257 . S
O245 C244 1.244 . S
O246 Zn238 2.019 . S
O246 C266 1.257 . S
Zn247 N243 2.020 . S
Zn247 O254 1.975 . S
Zn247 N263 2.119 . S
Zn247 O268 2.019 . S
N248 Zn238 2.119 . S
N248 C250 1.334 . S
N248 C251 1.328 . S
C249 C250 1.391 . S
C249 N252 1.329 . S
C249 H270 0.930 . S
C250 N248 1.334 . S
C250 C249 1.391 . S
C250 H257 0.930 . S
C251 N248 1.328 . S
C251 C253 1.392 . S
C251 H258 0.930 . S
N252 C249 1.329 . S
N252 C253 1.331 . S
C253 C251 1.392 . S
C253 N252 1.331 . S
O254 Zn247 1.975 . S
O254 C255 1.252 . S
C255 O254 1.252 . S
C255 O256 1.252 . S
O256 Zn238 1.975 . S
O256 C255 1.252 . S
H257 C250 0.930 . S
H258 C251 0.930 . S
C259 C260 1.392 . S
C259 N263 1.328 . S
C259 H265 0.930 . S
C260 C259 1.392 . S
C260 N264 1.331 . S
C261 C262 1.391 . S
C261 N264 1.329 . S
C261 H271 0.930 . S
C262 C261 1.391 . S
C262 N263 1.334 . S
C262 H269 0.930 . S
N263 Zn247 2.119 . S
N263 C259 1.328 . S
N263 C262 1.334 . S
N264 C260 1.331 . S
N264 C261 1.329 . S
H265 C259 0.930 . S
C266 O246 1.257 . S
C266 O267 1.244 . S
O267 C266 1.244 . S
O268 C244 1.257 . S
O268 Zn247 2.019 . S
H269 C262 0.930 . S
H270 C249 0.930 . S
H271 C261 0.930 . S
C272 C273 1.349 . S
C272 C274 1.327 . S
C272 H297 0.950 . S
C273 C272 1.349 . S
C273 C289 1.349 . S
C274 C272 1.327 . S
C274 C293 1.429 . S
C274 H298 0.950 . S
C275 C292 1.574 . S
C275 C294 1.368 . S
C275 H299 0.949 . S
H276 C280 0.949 . S
C277 C278 1.349 . S
C277 C279 1.327 . S
C277 H300 0.950 . S
C278 C277 1.349 . S
C278 C290 1.349 . S
C279 C277 1.327 . S
C279 C295 1.429 . S
C279 H301 0.950 . S
C280 H276 0.949 . S
C280 C288 1.574 . S
C280 C296 1.368 . S
H281 C289 0.950 . S
H282 C287 0.950 . S
H283 C288 0.949 . S
H284 C290 0.950 . S
H285 C291 0.950 . S
H286 C292 0.949 . S
C287 H282 0.950 . S
C287 C289 1.327 . S
C287 C293 1.429 . S
C288 C280 1.574 . S
C288 H283 0.949 . S
C288 C294 1.368 . S
C289 C273 1.349 . S
C289 H281 0.950 . S
C289 C287 1.327 . S
C290 C278 1.349 . S
C290 H284 0.950 . S
C290 C291 1.327 . S
C291 H285 0.950 . S
C291 C290 1.327 . S
C291 C295 1.429 . S
C292 C275 1.574 . S
C292 H286 0.949 . S
C292 C296 1.368 . S
C293 C274 1.429 . S
C293 C287 1.429 . S
C293 C294 1.523 . S
C294 C275 1.368 . S
C294 C288 1.368 . S
C294 C293 1.523 . S
C295 C279 1.429 . S
C295 C291 1.429 . S
C295 C296 1.523 . S
C296 C280 1.368 . S
C296 C292 1.368 . S
C296 C295 1.523 . S
H297 C272 0.950 . S
H298 C274 0.950 . S
H299 C275 0.949 . S
H300 C277 0.950 . S
H301 C279 0.950 . S
C302 C303 1.349 . S
C302 C304 1.327 . S
C302 H327 0.950 . S
C303 C302 1.349 . S
C303 C319 1.349 . S
C304 C302 1.327 . S
C304 C323 1.429 . S
C304 H328 0.950 . S
C305 C322 1.574 . S
C305 C324 1.368 . S
C305 H329 0.949 . S
H306 C310 0.949 . S
C307 C308 1.349 . S
C307 C309 1.327 . S
C307 H330 0.950 . S
C308 C307 1.349 . S
C308 C320 1.349 . S
C309 C307 1.327 . S
C309 C325 1.429 . S
C309 H331 0.950 . S
C310 H306 0.949 . S
C310 C318 1.574 . S
C310 C326 1.368 . S
H311 C319 0.950 . S
H312 C317 0.950 1_565 S
H313 C318 0.949 1_545 S
H314 C320 0.950 . S
H315 C321 0.950 . S
H316 C322 0.949 . S
C317 H312 0.950 1_545 S
C317 C319 1.327 . S
C317 C323 1.429 . S
C318 C310 1.574 . S
C318 H313 0.949 1_565 S
C318 C324 1.368 . S
C319 C303 1.349 . S
C319 H311 0.950 . S
C319 C317 1.327 . S
C320 C308 1.349 . S
C320 H314 0.950 . S
C320 C321 1.327 . S
C321 H315 0.950 . S
C321 C320 1.327 . S
C321 C325 1.429 . S
C322 C305 1.574 . S
C322 H316 0.949 . S
C322 C326 1.368 . S
C323 C304 1.429 . S
C323 C317 1.429 . S
C323 C324 1.523 1_545 S
C324 C305 1.368 . S
C324 C318 1.368 . S
C324 C323 1.523 1_565 S
C325 C309 1.429 . S
C325 C321 1.429 . S
C325 C326 1.523 . S
C326 C310 1.368 . S
C326 C322 1.368 . S
C326 C325 1.523 . S
H327 C302 0.950 . S
H328 C304 0.950 . S
H329 C305 0.949 . S
H330 C307 0.950 . S
H331 C309 0.950 . S
C332 C333 1.349 . S
C332 C334 1.327 . S
C332 H357 0.950 . S
C333 C332 1.349 . S
C333 C349 1.349 . S
C334 C332 1.327 . S
C334 C353 1.429 . S
C334 H358 0.950 . S
C335 C352 1.574 . S
C335 C354 1.368 . S
C335 H359 0.949 . S
H336 C340 0.949 . S
C337 C338 1.349 . S
C337 C339 1.327 . S
C337 H360 0.950 . S
C338 C337 1.349 . S
C338 C350 1.349 . S
C339 C337 1.327 . S
C339 C355 1.429 . S
C339 H361 0.950 . S
C340 H336 0.949 . S
C340 C348 1.574 . S
C340 C356 1.368 . S
H341 C349 0.950 . S
H342 C347 0.950 . S
H343 C348 0.949 . S
H344 C350 0.950 . S
H345 C351 0.950 . S
H346 C352 0.949 . S
C347 H342 0.950 . S
C347 C349 1.327 . S
C347 C353 1.429 . S
C348 C340 1.574 . S
C348 H343 0.949 . S
C348 C354 1.368 . S
C349 C333 1.349 . S
C349 H341 0.950 . S
C349 C347 1.327 . S
C350 C338 1.349 . S
C350 H344 0.950 . S
C350 C351 1.327 . S
C351 H345 0.950 . S
C351 C350 1.327 . S
C351 C355 1.429 . S
C352 C335 1.574 . S
C352 H346 0.949 . S
C352 C356 1.368 . S
C353 C334 1.429 . S
C353 C347 1.429 . S
C353 C354 1.523 . S
C354 C335 1.368 . S
C354 C348 1.368 . S
C354 C353 1.523 . S
C355 C339 1.429 . S
C355 C351 1.429 . S
C355 C356 1.523 . S
C356 C340 1.368 . S
C356 C352 1.368 . S
C356 C355 1.523 . S
H357 C332 0.950 . S
H358 C334 0.950 . S
H359 C335 0.949 . S
H360 C337 0.950 . S
H361 C339 0.950 . S
C362 C363 1.349 . S
C362 C364 1.327 . S
C362 H387 0.950 . S
C363 C362 1.349 . S
C363 C379 1.349 . S
C364 C362 1.327 . S
C364 C383 1.429 . S
C364 H388 0.950 . S
C365 C382 1.574 . S
C365 C384 1.368 . S
C365 H389 0.949 . S
H366 C370 0.949 . S
C367 C368 1.349 . S
C367 C369 1.327 1_565 S
C367 H390 0.950 . S
C368 C367 1.349 . S
C368 C380 1.349 . S
C369 C367 1.327 1_545 S
C369 C385 1.429 . S
C369 H391 0.950 . S
C370 H366 0.949 . S
C370 C378 1.574 . S
C370 C386 1.368 . S
H371 C379 0.950 . S
H372 C377 0.950 . S
H373 C378 0.949 . S
H374 C380 0.950 . S
H375 C381 0.950 . S
H376 C382 0.949 . S
C377 H372 0.950 . S
C377 C379 1.327 . S
C377 C383 1.429 . S
C378 C370 1.574 . S
C378 H373 0.949 . S
C378 C384 1.368 . S
C379 C363 1.349 . S
C379 H371 0.950 . S
C379 C377 1.327 . S
C380 C368 1.349 . S
C380 H374 0.950 . S
C380 C381 1.327 1_565 S
C381 H375 0.950 . S
C381 C380 1.327 1_545 S
C381 C385 1.429 . S
C382 C365 1.574 . S
C382 H376 0.949 . S
C382 C386 1.368 . S
C383 C364 1.429 . S
C383 C377 1.429 . S
C383 C384 1.523 . S
C384 C365 1.368 . S
C384 C378 1.368 . S
C384 C383 1.523 . S
C385 C369 1.429 . S
C385 C381 1.429 . S
C385 C386 1.523 . S
C386 C370 1.368 . S
C386 C382 1.368 . S
C386 C385 1.523 . S
H387 C362 0.950 . S
H388 C364 0.950 . S
H389 C365 0.949 . S
H390 C367 0.950 . S
H391 C369 0.950 . S
C392 C393 1.349 . S
C392 C394 1.327 . S
C392 H417 0.950 . S
C393 C392 1.349 . S
C393 C409 1.349 . S
C394 C392 1.327 . S
C394 C413 1.429 . S
C394 H418 0.950 . S
C395 C412 1.574 . S
C395 C414 1.368 . S
C395 H419 0.949 . S
H396 C400 0.949 . S
C397 C398 1.349 . S
C397 C399 1.327 . S
C397 H420 0.950 . S
C398 C397 1.349 . S
C398 C410 1.349 . S
C399 C397 1.327 . S
C399 C415 1.429 . S
C399 H421 0.950 . S
C400 H396 0.949 . S
C400 C408 1.574 . S
C400 C416 1.368 . S
H401 C409 0.950 . S
H402 C407 0.950 . S
H403 C408 0.949 . S
H404 C410 0.950 . S
H405 C411 0.950 . S
H406 C412 0.949 . S
C407 H402 0.950 . S
C407 C409 1.327 . S
C407 C413 1.429 . S
C408 C400 1.574 . S
C408 H403 0.949 . S
C408 C414 1.368 . S
C409 C393 1.349 . S
C409 H401 0.950 . S
C409 C407 1.327 . S
C410 C398 1.349 . S
C410 H404 0.950 . S
C410 C411 1.327 . S
C411 H405 0.950 . S
C411 C410 1.327 . S
C411 C415 1.429 . S
C412 C395 1.574 . S
C412 H406 0.949 . S
C412 C416 1.368 . S
C413 C394 1.429 . S
C413 C407 1.429 . S
C413 C414 1.523 1_455 S
C414 C395 1.368 . S
C414 C408 1.368 . S
C414 C413 1.523 1_655 S
C415 C399 1.429 . S
C415 C411 1.429 . S
C415 C416 1.523 . S
C416 C400 1.368 . S
C416 C412 1.368 . S
C416 C415 1.523 . S
H417 C392 0.950 . S
H418 C394 0.950 . S
H419 C395 0.949 . S
H420 C397 0.950 . S
H421 C399 0.950 . S
C422 C423 1.349 . S
C422 C424 1.327 . S
C422 H447 0.950 . S
C423 C422 1.349 . S
C423 C439 1.349 . S
C424 C422 1.327 . S
C424 C443 1.429 . S
C424 H448 0.950 . S
C425 C442 1.574 . S
C425 C444 1.368 . S
C425 H449 0.949 . S
H426 C430 0.949 . S
C427 C428 1.349 . S
C427 C429 1.327 . S
C427 H450 0.950 . S
C428 C427 1.349 . S
C428 C440 1.349 . S
C429 C427 1.327 . S
C429 C445 1.429 . S
C429 H451 0.950 . S
C430 H426 0.949 . S
C430 C438 1.574 . S
C430 C446 1.368 . S
H431 C439 0.950 . S
H432 C437 0.950 . S
H433 C438 0.949 . S
H434 C440 0.950 . S
H435 C441 0.950 . S
H436 C442 0.949 . S
C437 H432 0.950 . S
C437 C439 1.327 . S
C437 C443 1.429 . S
C438 C430 1.574 . S
C438 H433 0.949 . S
C438 C444 1.368 . S
C439 C423 1.349 . S
C439 H431 0.950 . S
C439 C437 1.327 . S
C440 C428 1.349 . S
C440 H434 0.950 . S
C440 C441 1.327 . S
C441 H435 0.950 . S
C441 C440 1.327 . S
C441 C445 1.429 . S
C442 C425 1.574 . S
C442 H436 0.949 . S
C442 C446 1.368 . S
C443 C424 1.429 . S
C443 C437 1.429 . S
C443 C444 1.523 . S
C444 C425 1.368 . S
C444 C438 1.368 . S
C444 C443 1.523 . S
C445 C429 1.429 . S
C445 C441 1.429 . S
C445 C446 1.523 . S
C446 C430 1.368 . S
C446 C442 1.368 . S
C446 C445 1.523 . S
H447 C422 0.950 . S
H448 C424 0.950 . S
H449 C425 0.949 . S
H450 C427 0.950 . S
H451 C429 0.950 . S
C452 C453 1.349 . S
C452 C454 1.327 . S
C452 H477 0.950 . S
C453 C452 1.349 . S
C453 C469 1.349 . S
C454 C452 1.327 . S
C454 C473 1.429 . S
C454 H478 0.950 . S
C455 C472 1.574 . S
C455 C474 1.368 . S
C455 H479 0.949 . S
H456 C460 0.949 . S
C457 C458 1.349 1_455 S
C457 C459 1.327 . S
C457 H480 0.950 . S
C458 C457 1.349 1_655 S
C458 C470 1.349 . S
C459 C457 1.327 . S
C459 C475 1.429 . S
C459 H481 0.950 . S
C460 H456 0.949 . S
C460 C468 1.574 . S
C460 C476 1.368 . S
H461 C469 0.950 . S
H462 C467 0.950 . S
H463 C468 0.949 . S
H464 C470 0.950 . S
H465 C471 0.950 . S
H466 C472 0.949 . S
C467 H462 0.950 . S
C467 C469 1.327 . S
C467 C473 1.429 . S
C468 C460 1.574 . S
C468 H463 0.949 . S
C468 C474 1.368 . S
C469 C453 1.349 . S
C469 H461 0.950 . S
C469 C467 1.327 . S
C470 C458 1.349 . S
C470 H464 0.950 . S
C470 C471 1.327 . S
C471 H465 0.950 . S
C471 C470 1.327 . S
C471 C475 1.429 1_655 S
C472 C455 1.574 . S
C472 H466 0.949 . S
C472 C476 1.368 . S
C473 C454 1.429 . S
C473 C467 1.429 . S
C473 C474 1.523 . S
C474 C455 1.368 . S
C474 C468 1.368 . S
C474 C473 1.523 . S
C475 C459 1.429 . S
C475 C471 1.429 1_455 S
C475 C476 1.523 . S
C476 C460 1.368 . S
C476 C472 1.368 . S
C476 C475 1.523 . S
H477 C452 0.950 . S
H478 C454 0.950 . S
H479 C455 0.949 . S
H480 C457 0.950 . S
H481 C459 0.950 . S
C482 C483 1.349 . S
C482 C484 1.327 . S
C482 H507 0.950 . S
C483 C482 1.349 . S
C483 C499 1.349 . S
C484 C482 1.327 . S
C484 C503 1.429 . S
C484 H508 0.950 . S
C485 C502 1.574 . S
C485 C504 1.368 . S
C485 H509 0.949 . S
H486 C490 0.949 . S
C487 C488 1.349 . S
C487 C489 1.327 . S
C487 H510 0.950 . S
C488 C487 1.349 . S
C488 C500 1.349 . S
C489 C487 1.327 . S
C489 C505 1.429 . S
C489 H511 0.950 . S
C490 H486 0.949 . S
C490 C498 1.574 . S
C490 C506 1.368 . S
H491 C499 0.950 . S
H492 C497 0.950 . S
H493 C498 0.949 . S
H494 C500 0.950 . S
H495 C501 0.950 . S
H496 C502 0.949 . S
C497 H492 0.950 . S
C497 C499 1.327 . S
C497 C503 1.429 . S
C498 C490 1.574 . S
C498 H493 0.949 . S
C498 C504 1.368 . S
C499 C483 1.349 . S
C499 H491 0.950 . S
C499 C497 1.327 . S
C500 C488 1.349 . S
C500 H494 0.950 . S
C500 C501 1.327 . S
C501 H495 0.950 . S
C501 C500 1.327 . S
C501 C505 1.429 . S
C502 C485 1.574 . S
C502 H496 0.949 . S
C502 C506 1.368 . S
C503 C484 1.429 . S
C503 C497 1.429 . S
C503 C504 1.523 . S
C504 C485 1.368 . S
C504 C498 1.368 . S
C504 C503 1.523 . S
C505 C489 1.429 . S
C505 C501 1.429 . S
C505 C506 1.523 . S
C506 C490 1.368 . S
C506 C502 1.368 . S
C506 C505 1.523 . S
H507 C482 0.950 . S
H508 C484 0.950 . S
H509 C485 0.949 . S
H510 C487 0.950 . S
H511 C489 0.950 . S
C512 C513 1.349 . S
C512 C514 1.327 . S
C512 H537 0.950 . S
C513 C512 1.349 . S
C513 C529 1.349 . S
C514 C512 1.327 . S
C514 C533 1.429 . S
C514 H538 0.950 . S
C515 C532 1.574 . S
C515 C534 1.368 . S
C515 H539 0.949 . S
H516 C520 0.949 . S
C517 C518 1.349 . S
C517 C519 1.327 . S
C517 H540 0.950 . S
C518 C517 1.349 . S
C518 C530 1.349 . S
C519 C517 1.327 . S
C519 C535 1.429 . S
C519 H541 0.950 . S
C520 H516 0.949 . S
C520 C528 1.574 . S
C520 C536 1.368 . S
H521 C529 0.950 . S
H522 C527 0.950 . S
H523 C528 0.949 . S
H524 C530 0.950 . S
H525 C531 0.950 . S
H526 C532 0.949 . S
C527 H522 0.950 . S
C527 C529 1.327 . S
C527 C533 1.429 . S
C528 C520 1.574 . S
C528 H523 0.949 . S
C528 C534 1.368 . S
C529 C513 1.349 . S
C529 H521 0.950 . S
C529 C527 1.327 . S
C530 C518 1.349 . S
C530 H524 0.950 . S
C530 C531 1.327 . S
C531 H525 0.950 . S
C531 C530 1.327 . S
C531 C535 1.429 . S
C532 C515 1.574 . S
C532 H526 0.949 . S
C532 C536 1.368 . S
C533 C514 1.429 . S
C533 C527 1.429 . S
C533 C534 1.523 . S
C534 C515 1.368 . S
C534 C528 1.368 . S
C534 C533 1.523 . S
C535 C519 1.429 . S
C535 C531 1.429 . S
C535 C536 1.523 . S
C536 C520 1.368 . S
C536 C532 1.368 . S
C536 C535 1.523 . S
H537 C512 0.950 . S
H538 C514 0.950 . S
H539 C515 0.949 . S
H540 C517 0.950 . S
H541 C519 0.950 . S
C542 C543 1.349 . S
C542 C544 1.327 . S
C542 H567 0.950 . S
C543 C542 1.349 . S
C543 C559 1.349 . S
C544 C542 1.327 . S
C544 C563 1.429 . S
C544 H568 0.950 . S
C545 C562 1.574 . S
C545 C564 1.368 . S
C545 H569 0.949 . S
H546 C550 0.949 . S
C547 C548 1.349 . S
C547 C549 1.327 . S
C547 H570 0.950 . S
C548 C547 1.349 . S
C548 C560 1.349 . S
C549 C547 1.327 . S
C549 C565 1.429 . S
C549 H571 0.950 . S
C550 H546 0.949 . S
C550 C558 1.574 . S
C550 C566 1.368 . S
H551 C559 0.950 . S
H552 C557 0.950 . S
H553 C558 0.949 . S
H554 C560 0.950 . S
H555 C561 0.950 . S
H556 C562 0.949 . S
C557 H552 0.950 . S
C557 C559 1.327 . S
C557 C563 1.429 . S
C558 C550 1.574 . S
C558 H553 0.949 . S
C558 C564 1.368 . S
C559 C543 1.349 . S
C559 H551 0.950 . S
C559 C557 1.327 . S
C560 C548 1.349 . S
C560 H554 0.950 . S
C560 C561 1.327 . S
C561 H555 0.950 . S
C561 C560 1.327 . S
C561 C565 1.429 . S
C562 C545 1.574 . S
C562 H556 0.949 . S
C562 C566 1.368 . S
C563 C544 1.429 . S
C563 C557 1.429 . S
C563 C564 1.523 . S
C564 C545 1.368 . S
C564 C558 1.368 . S
C564 C563 1.523 . S
C565 C549 1.429 . S
C565 C561 1.429 . S
C565 C566 1.523 . S
C566 C550 1.368 . S
C566 C562 1.368 . S
C566 C565 1.523 . S
H567 C542 0.950 . S
H568 C544 0.950 . S
H569 C545 0.949 . S
H570 C547 0.950 . S
H571 C549 0.950 . S
C572 C573 1.349 . S
C572 C574 1.327 . S
C572 H597 0.950 . S
C573 C572 1.349 . S
C573 C589 1.349 . S
C574 C572 1.327 . S
C574 C593 1.429 . S
C574 H598 0.927 1_556 S
C575 C592 1.574 . S
C575 C594 1.368 . S
C575 H599 0.949 1_554 S
H576 C580 0.949 . S
C577 C578 1.349 . S
C577 C579 1.327 . S
C577 H600 0.950 . S
C578 C577 1.349 . S
C578 C590 1.349 . S
C579 C577 1.327 . S
C579 C595 1.429 . S
C579 H601 0.950 . S
C580 H576 0.949 . S
C580 C588 1.574 . S
C580 C596 1.368 . S
H581 C589 0.950 . S
H582 C587 0.950 . S
H583 C588 0.949 . S
H584 C590 0.950 . S
H585 C591 0.950 . S
H586 C592 0.949 . S
C587 H582 0.950 . S
C587 C589 1.327 . S
C587 C593 1.429 . S
C588 C580 1.574 . S
C588 H583 0.949 . S
C588 C594 1.368 . S
C589 C573 1.349 . S
C589 H581 0.950 . S
C589 C587 1.327 . S
C590 C578 1.349 . S
C590 H584 0.950 . S
C590 C591 1.327 . S
C591 H585 0.950 . S
C591 C590 1.327 . S
C591 C595 1.429 . S
C592 C575 1.574 . S
C592 H586 0.949 . S
C592 C596 1.368 . S
C593 C574 1.429 . S
C593 C587 1.429 . S
C593 C594 1.523 1_556 S
C594 C575 1.368 . S
C594 C588 1.368 . S
C594 C593 1.523 1_554 S
C595 C579 1.429 . S
C595 C591 1.429 . S
C595 C596 1.523 . S
C596 C580 1.368 . S
C596 C592 1.368 . S
C596 C595 1.523 . S
H597 C572 0.950 . S
H598 C574 0.927 1_554 S
H599 C575 0.949 1_556 S
H600 C577 0.950 . S
H601 C579 0.950 . S
C602 C603 1.349 . S
C602 C604 1.327 . S
C602 H627 0.950 . S
C603 C602 1.349 . S
C603 C619 1.349 . S
C604 C602 1.327 . S
C604 C623 1.429 . S
C604 H628 0.950 . S
C605 C622 1.574 . S
C605 C624 1.368 . S
C605 H629 0.949 . S
H606 C610 0.949 . S
C607 C608 1.349 . S
C607 C609 1.327 . S
C607 H630 0.950 . S
C608 C607 1.349 . S
C608 C620 1.349 . S
C609 C607 1.327 . S
C609 C625 1.429 . S
C609 H631 0.950 . S
C610 H606 0.949 . S
C610 C618 1.574 . S
C610 C626 1.368 . S
H611 C619 0.950 . S
H612 C617 0.950 . S
H613 C618 0.949 . S
H614 C620 0.950 . S
H615 C621 0.950 . S
H616 C622 0.949 . S
C617 H612 0.950 . S
C617 C619 1.327 . S
C617 C623 1.429 . S
C618 C610 1.574 . S
C618 H613 0.949 . S
C618 C624 1.368 . S
C619 C603 1.349 . S
C619 H611 0.950 . S
C619 C617 1.327 . S
C620 C608 1.349 . S
C620 H614 0.950 . S
C620 C621 1.327 . S
C621 H615 0.950 . S
C621 C620 1.327 . S
C621 C625 1.429 . S
C622 C605 1.574 . S
C622 H616 0.949 . S
C622 C626 1.368 . S
C623 C604 1.429 . S
C623 C617 1.429 . S
C623 C624 1.523 . S
C624 C605 1.368 . S
C624 C618 1.368 . S
C624 C623 1.523 . S
C625 C609 1.429 . S
C625 C621 1.429 . S
C625 C626 1.523 . S
C626 C610 1.368 . S
C626 C622 1.368 . S
C626 C625 1.523 . S
H627 C602 0.950 . S
H628 C604 0.950 . S
H629 C605 0.949 . S
H630 C607 0.950 . S
H631 C609 0.950 . S
C632 C633 1.349 . S
C632 C634 1.327 . S
C632 H657 0.950 . S
C633 C632 1.349 . S
C633 C649 1.349 . S
C634 C632 1.327 . S
C634 C653 1.429 . S
C634 H658 0.950 . S
C635 C652 1.574 . S
C635 C654 1.368 . S
C635 H659 0.949 . S
H636 C640 0.949 . S
C637 C638 1.349 . S
C637 C639 1.327 . S
C637 H660 0.950 . S
C638 C637 1.349 . S
C638 C650 1.349 . S
C639 C637 1.327 . S
C639 C655 1.429 . S
C639 H661 0.950 . S
C640 H636 0.949 . S
C640 C648 1.574 . S
C640 C656 1.368 . S
H641 C649 0.950 . S
H642 C647 0.950 . S
H643 C648 0.949 . S
H644 C650 0.950 1_545 S
H645 C651 0.950 . S
H646 C652 0.949 . S
C647 H642 0.950 . S
C647 C649 1.327 . S
C647 C653 1.429 . S
C648 C640 1.574 . S
C648 H643 0.949 . S
C648 C654 1.368 . S
C649 C633 1.349 . S
C649 H641 0.950 . S
C649 C647 1.327 . S
C650 C638 1.349 . S
C650 H644 0.950 1_565 S
C650 C651 1.327 . S
C651 H645 0.950 . S
C651 C650 1.327 . S
C651 C655 1.429 . S
C652 C635 1.574 . S
C652 H646 0.949 . S
C652 C656 1.368 . S
C653 C634 1.429 . S
C653 C647 1.429 . S
C653 C654 1.523 . S
C654 C635 1.368 . S
C654 C648 1.368 . S
C654 C653 1.523 . S
C655 C639 1.429 . S
C655 C651 1.429 . S
C655 C656 1.523 . S
C656 C640 1.368 . S
C656 C652 1.368 . S
C656 C655 1.523 . S
H657 C632 0.950 . S
H658 C634 0.950 . S
H659 C635 0.949 . S
H660 C637 0.950 . S
H661 C639 0.950 . S
C662 C663 1.349 . S
C662 C664 1.327 . S
C662 H687 0.950 . S
C663 C662 1.349 . S
C663 C679 1.349 . S
C664 C662 1.327 . S
C664 C683 1.429 . S
C664 H688 0.950 . S
C665 C682 1.574 . S
C665 C684 1.368 . S
C665 H689 0.949 . S
H666 C670 0.949 . S
C667 C668 1.349 . S
C667 C669 1.327 . S
C667 H690 0.950 . S
C668 C667 1.349 . S
C668 C680 1.349 . S
C669 C667 1.327 . S
C669 C685 1.429 . S
C669 H691 0.950 . S
C670 H666 0.949 . S
C670 C678 1.574 . S
C670 C686 1.368 . S
H671 C679 0.950 . S
H672 C677 0.950 . S
H673 C678 0.949 . S
H674 C680 0.950 . S
H675 C681 0.950 . S
H676 C682 0.949 . S
C677 H672 0.950 . S
C677 C679 1.327 . S
C677 C683 1.429 . S
C678 C670 1.574 . S
C678 H673 0.949 . S
C678 C684 1.368 . S
C679 C663 1.349 . S
C679 H671 0.950 . S
C679 C677 1.327 . S
C680 C668 1.349 . S
C680 H674 0.950 . S
C680 C681 1.327 . S
C681 H675 0.950 . S
C681 C680 1.327 . S
C681 C685 1.429 . S
C682 C665 1.574 . S
C682 H676 0.949 . S
C682 C686 1.368 . S
C683 C664 1.429 . S
C683 C677 1.429 . S
C683 C684 1.523 . S
C684 C665 1.368 . S
C684 C678 1.368 . S
C684 C683 1.523 . S
C685 C669 1.429 . S
C685 C681 1.429 . S
C685 C686 1.523 . S
C686 C670 1.368 . S
C686 C682 1.368 . S
C686 C685 1.523 . S
H687 C662 0.950 . S
H688 C664 0.950 . S
H689 C665 0.949 . S
H690 C667 0.950 . S
H691 C669 0.950 . S
C692 C693 1.349 . S
C692 C694 1.327 . S
C692 H717 0.950 . S
C693 C692 1.349 . S
C693 C709 1.349 . S
C694 C692 1.327 . S
C694 C713 1.429 . S
C694 H718 0.950 . S
C695 C712 1.574 . S
C695 C714 1.368 . S
C695 H719 0.949 . S
H696 C700 0.949 . S
C697 C698 1.349 . S
C697 C699 1.327 . S
C697 H720 0.950 . S
C698 C697 1.349 . S
C698 C710 1.349 . S
C699 C697 1.327 . S
C699 C715 1.429 . S
C699 H721 0.950 . S
C700 H696 0.949 . S
C700 C708 1.574 . S
C700 C716 1.368 . S
H701 C709 0.950 . S
H702 C707 0.950 . S
H703 C708 0.949 . S
H704 C710 0.950 . S
H705 C711 0.950 . S
H706 C712 0.949 . S
C707 H702 0.950 . S
C707 C709 1.327 . S
C707 C713 1.429 . S
C708 C700 1.574 . S
C708 H703 0.949 . S
C708 C714 1.368 . S
C709 C693 1.349 . S
C709 H701 0.950 . S
C709 C707 1.327 . S
C710 C698 1.349 . S
C710 H704 0.950 . S
C710 C711 1.327 . S
C711 H705 0.950 . S
C711 C710 1.327 . S
C711 C715 1.429 . S
C712 C695 1.574 . S
C712 H706 0.949 . S
C712 C716 1.368 . S
C713 C694 1.429 . S
C713 C707 1.429 . S
C713 C714 1.523 . S
C714 C695 1.368 . S
C714 C708 1.368 . S
C714 C713 1.523 . S
C715 C699 1.429 . S
C715 C711 1.429 . S
C715 C716 1.523 . S
C716 C700 1.368 . S
C716 C712 1.368 . S
C716 C715 1.523 . S
H717 C692 0.950 . S
H718 C694 0.950 . S
H719 C695 0.949 . S
H720 C697 0.950 . S
H721 C699 0.950 . S
C722 C723 1.349 . S
C722 C724 1.327 . S
C722 H747 0.950 . S
C723 C722 1.349 . S
C723 C739 1.349 . S
C724 C722 1.327 . S
C724 C743 1.429 . S
C724 H748 0.950 . S
C725 C742 1.574 . S
C725 C744 1.368 . S
C725 H749 0.949 . S
H726 C730 0.949 . S
C727 C728 1.349 . S
C727 C729 1.327 . S
C727 H750 0.950 . S
C728 C727 1.349 . S
C728 C740 1.349 . S
C729 C727 1.327 . S
C729 C745 1.429 . S
C729 H751 0.950 . S
C730 H726 0.949 . S
C730 C738 1.574 . S
C730 C746 1.368 . S
H731 C739 0.950 . S
H732 C737 0.950 . S
H733 C738 0.949 . S
H734 C740 0.950 . S
H735 C741 0.950 . S
H736 C742 0.949 . S
C737 H732 0.950 . S
C737 C739 1.327 . S
C737 C743 1.429 . S
C738 C730 1.574 . S
C738 H733 0.949 . S
C738 C744 1.368 . S
C739 C723 1.349 . S
C739 H731 0.950 . S
C739 C737 1.327 . S
C740 C728 1.349 . S
C740 H734 0.950 . S
C740 C741 1.327 . S
C741 H735 0.950 . S
C741 C740 1.327 . S
C741 C745 1.429 . S
C742 C725 1.574 . S
C742 H736 0.949 . S
C742 C746 1.368 . S
C743 C724 1.429 . S
C743 C737 1.429 . S
C743 C744 1.523 1_554 S
C744 C725 1.368 . S
C744 C738 1.368 . S
C744 C743 1.523 1_556 S
C745 C729 1.429 . S
C745 C741 1.429 . S
C745 C746 1.523 . S
C746 C730 1.368 . S
C746 C742 1.368 . S
C746 C745 1.523 . S
H747 C722 0.950 . S
H748 C724 0.950 . S
H749 C725 0.949 . S
H750 C727 0.950 . S
H751 C729 0.950 . S
C752 C753 1.349 . S
C752 C754 1.327 . S
C752 H777 0.950 . S
C753 C752 1.349 . S
C753 C769 1.349 . S
C754 C752 1.327 . S
C754 C773 1.429 . S
C754 H778 0.950 . S
C755 C772 1.574 . S
C755 C774 1.368 . S
C755 H779 0.949 . S
H756 C760 0.949 . S
C757 C758 1.349 . S
C757 C759 1.327 . S
C757 H780 0.950 . S
C758 C757 1.349 . S
C758 C770 1.349 . S
C759 C757 1.327 . S
C759 C775 1.429 . S
C759 H781 0.950 . S
C760 H756 0.949 . S
C760 C768 1.574 . S
C760 C776 1.368 . S
H761 C769 0.950 . S
H762 C767 0.950 . S
H763 C768 0.949 . S
H764 C770 0.950 . S
H765 C771 0.950 . S
H766 C772 0.949 . S
C767 H762 0.950 . S
C767 C769 1.327 . S
C767 C773 1.429 . S
C768 C760 1.574 . S
C768 H763 0.949 . S
C768 C774 1.368 . S
C769 C753 1.349 . S
C769 H761 0.950 . S
C769 C767 1.327 . S
C770 C758 1.349 . S
C770 H764 0.950 . S
C770 C771 1.327 . S
C771 H765 0.950 . S
C771 C770 1.327 . S
C771 C775 1.429 . S
C772 C755 1.574 . S
C772 H766 0.949 . S
C772 C776 1.368 . S
C773 C754 1.429 . S
C773 C767 1.429 . S
C773 C774 1.523 . S
C774 C755 1.368 . S
C774 C768 1.368 . S
C774 C773 1.523 . S
C775 C759 1.429 . S
C775 C771 1.429 . S
C775 C776 1.523 . S
C776 C760 1.368 . S
C776 C772 1.368 . S
C776 C775 1.523 . S
H777 C752 0.950 . S
H778 C754 0.950 . S
H779 C755 0.949 . S
H780 C757 0.950 . S
H781 C759 0.950 . S
C782 C783 1.349 . S
C782 C784 1.327 . S
C782 H807 0.950 . S
C783 C782 1.349 . S
C783 C799 1.349 . S
C784 C782 1.327 . S
C784 C803 1.429 . S
C784 H808 0.950 . S
C785 C802 1.574 . S
C785 C804 1.368 . S
C785 H809 0.949 . S
H786 C790 0.949 . S
C787 C788 1.349 . S
C787 C789 1.327 . S
C787 H810 0.950 . S
C788 C787 1.349 . S
C788 C800 1.349 . S
C789 C787 1.327 . S
C789 C805 1.429 . S
C789 H811 0.950 . S
C790 H786 0.949 . S
C790 C798 1.574 1_565 S
C790 C806 1.368 . S
H791 C799 0.950 . S
H792 C797 0.950 . S
H793 C798 0.949 . S
H794 C800 0.950 . S
H795 C801 0.950 . S
H796 C802 0.949 1_565 S
C797 H792 0.950 . S
C797 C799 1.327 . S
C797 C803 1.429 . S
C798 C790 1.574 1_545 S
C798 H793 0.949 . S
C798 C804 1.368 . S
C799 C783 1.349 . S
C799 H791 0.950 . S
C799 C797 1.327 . S
C800 C788 1.349 . S
C800 H794 0.950 . S
C800 C801 1.327 . S
C801 H795 0.950 . S
C801 C800 1.327 . S
C801 C805 1.429 . S
C802 C785 1.574 . S
C802 H796 0.949 1_545 S
C802 C806 1.368 1_545 S
C803 C784 1.429 . S
C803 C797 1.429 . S
C803 C804 1.523 . S
C804 C785 1.368 . S
C804 C798 1.368 . S
C804 C803 1.523 . S
C805 C789 1.429 . S
C805 C801 1.429 . S
C805 C806 1.523 . S
C806 C790 1.368 . S
C806 C802 1.368 1_565 S
C806 C805 1.523 . S
H807 C782 0.950 . S
H808 C784 0.950 . S
H809 C785 0.949 . S
H810 C787 0.950 . S
H811 C789 0.950 . S
C812 C813 1.349 . S
C812 C814 1.327 . S
C812 H837 0.950 . S
C813 C812 1.349 . S
C813 C829 1.349 . S
C814 C812 1.327 . S
C814 C833 1.429 . S
C814 H838 0.950 . S
C815 C832 1.574 . S
C815 C834 1.368 . S
C815 H839 0.949 . S
H816 C820 0.949 . S
C817 C818 1.349 . S
C817 C819 1.327 . S
C817 H840 0.950 . S
C818 C817 1.349 . S
C818 C830 1.349 . S
C819 C817 1.327 . S
C819 C835 1.429 . S
C819 H841 0.950 . S
C820 H816 0.949 . S
C820 C828 1.574 . S
C820 C836 1.368 . S
H821 C829 0.950 . S
H822 C827 0.950 . S
H823 C828 0.949 . S
H824 C830 0.950 . S
H825 C831 0.950 . S
H826 C832 0.949 . S
C827 H822 0.950 . S
C827 C829 1.327 . S
C827 C833 1.429 . S
C828 C820 1.574 . S
C828 H823 0.949 . S
C828 C834 1.368 . S
C829 C813 1.349 . S
C829 H821 0.950 . S
C829 C827 1.327 . S
C830 C818 1.349 . S
C830 H824 0.950 . S
C830 C831 1.327 . S
C831 H825 0.950 . S
C831 C830 1.327 . S
C831 C835 1.429 . S
C832 C815 1.574 . S
C832 H826 0.949 . S
C832 C836 1.368 . S
C833 C814 1.429 . S
C833 C827 1.429 . S
C833 C834 1.523 . S
C834 C815 1.368 . S
C834 C828 1.368 . S
C834 C833 1.523 . S
C835 C819 1.429 . S
C835 C831 1.429 . S
C835 C836 1.523 . S
C836 C820 1.368 . S
C836 C832 1.368 . S
C836 C835 1.523 . S
H837 C812 0.950 . S
H838 C814 0.950 . S
H839 C815 0.949 . S
H840 C817 0.950 . S
H841 C819 0.950 . S
C842 C843 1.349 . S
C842 C844 1.327 . S
C842 H867 0.950 . S
C843 C842 1.349 . S
C843 C859 1.349 . S
C844 C842 1.327 . S
C844 C863 1.429 . S
C844 H868 0.950 . S
C845 C862 1.574 1_545 S
C845 C864 1.368 . S
C845 H869 0.949 . S
H846 C850 0.949 . S
C847 C848 1.349 . S
C847 C849 1.327 . S
C847 H870 0.950 . S
C848 C847 1.349 . S
C848 C860 1.349 . S
C849 C847 1.327 . S
C849 C865 1.429 . S
C849 H871 0.950 . S
C850 H846 0.949 . S
C850 C858 1.574 . S
C850 C866 1.368 . S
H851 C859 0.950 . S
H852 C857 0.950 . S
H853 C858 0.949 . S
H854 C860 0.950 . S
H855 C861 0.950 1_545 S
H856 C862 0.949 . S
C857 H852 0.950 . S
C857 C859 1.327 . S
C857 C863 1.429 . S
C858 C850 1.574 . S
C858 H853 0.949 . S
C858 C864 1.368 . S
C859 C843 1.349 . S
C859 H851 0.950 . S
C859 C857 1.327 . S
C860 C848 1.349 . S
C860 H854 0.950 . S
C860 C861 1.327 . S
C861 H855 0.950 1_565 S
C861 C860 1.327 . S
C861 C865 1.429 . S
C862 C845 1.574 1_565 S
C862 H856 0.949 . S
C862 C866 1.368 1_565 S
C863 C844 1.429 . S
C863 C857 1.429 . S
C863 C864 1.523 . S
C864 C845 1.368 . S
C864 C858 1.368 . S
C864 C863 1.523 . S
C865 C849 1.429 . S
C865 C861 1.429 . S
C865 C866 1.523 1_565 S
C866 C850 1.368 . S
C866 C862 1.368 1_545 S
C866 C865 1.523 1_545 S
H867 C842 0.950 . S
H868 C844 0.950 . S
H869 C845 0.949 . S
H870 C847 0.950 . S
H871 C849 0.950 . S
C872 C873 1.349 . S
C872 C874 1.327 . S
C872 H897 0.950 . S
C873 C872 1.349 . S
C873 C889 1.349 . S
C874 C872 1.327 . S
C874 C893 1.429 . S
C874 H898 0.950 . S
C875 C892 1.574 1_655 S
C875 C894 1.368 . S
C875 H899 0.949 . S
H876 C880 0.949 . S
C877 C878 1.349 . S
C877 C879 1.327 . S
C877 H900 0.950 . S
C878 C877 1.349 . S
C878 C890 1.349 . S
C879 C877 1.327 . S
C879 C895 1.429 . S
C879 H901 0.950 . S
C880 H876 0.949 . S
C880 C888 1.574 1_455 S
C880 C896 1.368 . S
H881 C889 0.950 . S
H882 C887 0.950 . S
H883 C888 0.949 . S
H884 C890 0.950 . S
H885 C891 0.950 . S
H886 C892 0.949 . S
C887 H882 0.950 . S
C887 C889 1.327 . S
C887 C893 1.429 . S
C888 C880 1.574 1_655 S
C888 H883 0.949 . S
C888 C894 1.368 . S
C889 C873 1.349 . S
C889 H881 0.950 . S
C889 C887 1.327 . S
C890 C878 1.349 . S
C890 H884 0.950 . S
C890 C891 1.327 . S
C891 H885 0.950 . S
C891 C890 1.327 . S
C891 C895 1.429 . S
C892 C875 1.574 1_455 S
C892 H886 0.949 . S
C892 C896 1.368 . S
C893 C874 1.429 . S
C893 C887 1.429 . S
C893 C894 1.523 . S
C894 C875 1.368 . S
C894 C888 1.368 . S
C894 C893 1.523 . S
C895 C879 1.429 . S
C895 C891 1.429 . S
C895 C896 1.523 . S
C896 C880 1.368 . S
C896 C892 1.368 . S
C896 C895 1.523 . S
H897 C872 0.950 . S
H898 C874 0.950 . S
H899 C875 0.949 . S
H900 C877 0.950 . S
H901 C879 0.950 . S
C902 C903 1.349 . S
C902 C904 1.327 . S
C902 H927 0.950 . S
C903 C902 1.349 . S
C903 C919 1.349 . S
C904 C902 1.327 . S
C904 C923 1.429 . S
C904 H928 0.950 . S
C905 C922 1.574 . S
C905 C924 1.368 . S
C905 H929 0.949 . S
H906 C910 0.949 . S
C907 C908 1.349 . S
C907 C909 1.327 . S
C907 H930 0.950 . S
C908 C907 1.349 . S
C908 C920 1.349 . S
C909 C907 1.327 . S
C909 C925 1.429 . S
C909 H931 0.950 . S
C910 H906 0.949 . S
C910 C918 1.574 . S
C910 C926 1.368 . S
H911 C919 0.950 . S
H912 C917 0.950 . S
H913 C918 0.949 . S
H914 C920 0.950 . S
H915 C921 0.950 . S
H916 C922 0.949 . S
C917 H912 0.950 . S
C917 C919 1.327 . S
C917 C923 1.429 . S
C918 C910 1.574 . S
C918 H913 0.949 . S
C918 C924 1.368 . S
C919 C903 1.349 . S
C919 H911 0.950 . S
C919 C917 1.327 . S
C920 C908 1.349 . S
C920 H914 0.950 . S
C920 C921 1.327 . S
C921 H915 0.950 . S
C921 C920 1.327 . S
C921 C925 1.429 . S
C922 C905 1.574 . S
C922 H916 0.949 . S
C922 C926 1.368 . S
C923 C904 1.429 . S
C923 C917 1.429 . S
C923 C924 1.523 . S
C924 C905 1.368 . S
C924 C918 1.368 . S
C924 C923 1.523 . S
C925 C909 1.429 . S
C925 C921 1.429 . S
C925 C926 1.523 . S
C926 C910 1.368 . S
C926 C922 1.368 . S
C926 C925 1.523 . S
H927 C902 0.950 . S
H928 C904 0.950 . S
H929 C905 0.949 . S
H930 C907 0.950 . S
H931 C909 0.950 . S
C932 C933 1.349 . S
C932 C934 1.327 . S
C932 H957 0.950 . S
C933 C932 1.349 . S
C933 C949 1.349 . S
C934 C932 1.327 . S
C934 C953 1.429 . S
C934 H958 0.950 . S
C935 C952 1.574 1_455 S
C935 C954 1.368 . S
C935 H959 0.949 . S
H936 C940 0.949 . S
C937 C938 1.349 . S
C937 C939 1.327 . S
C937 H960 0.950 . S
C938 C937 1.349 . S
C938 C950 1.349 . S
C939 C937 1.327 . S
C939 C955 1.429 . S
C939 H961 0.950 . S
C940 H936 0.949 . S
C940 C948 1.574 . S
C940 C956 1.368 . S
H941 C949 0.950 . S
H942 C947 0.950 . S
H943 C948 0.949 . S
H944 C950 0.950 . S
H945 C951 0.930 1_455 S
H946 C952 0.949 . S
C947 H942 0.950 . S
C947 C949 1.327 . S
C947 C953 1.429 . S
C948 C940 1.574 . S
C948 H943 0.949 . S
C948 C954 1.368 . S
C949 C933 1.349 . S
C949 H941 0.950 . S
C949 C947 1.327 . S
C950 C938 1.349 . S
C950 H944 0.950 . S
C950 C951 1.327 . S
C951 H945 0.930 1_655 S
C951 C950 1.327 . S
C951 C955 1.429 . S
C952 C935 1.574 1_655 S
C952 H946 0.949 . S
C952 C956 1.368 1_655 S
C953 C934 1.429 . S
C953 C947 1.429 . S
C953 C954 1.523 . S
C954 C935 1.368 . S
C954 C948 1.368 . S
C954 C953 1.523 . S
C955 C939 1.429 . S
C955 C951 1.429 . S
C955 C956 1.523 1_655 S
C956 C940 1.368 . S
C956 C952 1.368 1_455 S
C956 C955 1.523 1_455 S
H957 C932 0.950 . S
H958 C934 0.950 . S
H959 C935 0.949 . S
H960 C937 0.950 . S
H961 C939 0.950 . S
C962 C963 1.349 . S
C962 C964 1.327 . S
C962 H987 0.950 . S
C963 C962 1.349 . S
C963 C979 1.349 . S
C964 C962 1.327 . S
C964 C983 1.429 . S
C964 H988 0.950 . S
C965 C982 1.574 . S
C965 C984 1.368 . S
C965 H989 0.949 . S
H966 C970 0.949 . S
C967 C968 1.349 . S
C967 C969 1.327 . S
C967 H990 0.950 . S
C968 C967 1.349 . S
C968 C980 1.349 . S
C969 C967 1.327 . S
C969 C985 1.429 . S
C969 H991 0.950 . S
C970 H966 0.949 . S
C970 C978 1.574 . S
C970 C986 1.368 . S
H971 C979 0.950 . S
H972 C977 0.950 . S
H973 C978 0.949 . S
H974 C980 0.950 . S
H975 C981 0.950 . S
H976 C982 0.949 . S
C977 H972 0.950 . S
C977 C979 1.327 . S
C977 C983 1.429 . S
C978 C970 1.574 . S
C978 H973 0.949 . S
C978 C984 1.368 . S
C979 C963 1.349 . S
C979 H971 0.950 . S
C979 C977 1.327 . S
C980 C968 1.349 . S
C980 H974 0.950 . S
C980 C981 1.327 . S
C981 H975 0.950 . S
C981 C980 1.327 . S
C981 C985 1.429 . S
C982 C965 1.574 . S
C982 H976 0.949 . S
C982 C986 1.368 . S
C983 C964 1.429 . S
C983 C977 1.429 . S
C983 C984 1.523 . S
C984 C965 1.368 . S
C984 C978 1.368 . S
C984 C983 1.523 . S
C985 C969 1.429 . S
C985 C981 1.429 . S
C985 C986 1.523 . S
C986 C970 1.368 . S
C986 C982 1.368 . S
C986 C985 1.523 . S
H987 C962 0.950 . S
H988 C964 0.950 . S
H989 C965 0.949 . S
H990 C967 0.950 . S
H991 C969 0.950 . S
C992 C993 1.349 . S
C992 C994 1.327 . S
C992 H1017 0.950 . S
C993 C992 1.349 . S
C993 C1009 1.349 . S
C994 C992 1.327 . S
C994 C1013 1.429 . S
C994 H1018 0.950 . S
C995 C1012 1.574 . S
C995 C1014 1.368 . S
C995 H1019 0.949 . S
H996 C1000 0.949 . S
C997 C998 1.349 . S
C997 C999 1.327 . S
C997 H1020 0.950 . S
C998 C997 1.349 . S
C998 C1010 1.349 . S
C999 C997 1.327 . S
C999 C1015 1.429 . S
C999 H1021 0.950 . S
C1000 H996 0.949 . S
C1000 C1008 1.574 . S
C1000 C1016 1.368 . S
H1001 C1009 0.950 . S
H1002 C1007 0.950 . S
H1003 C1008 0.949 . S
H1004 C1010 0.950 . S
H1005 C1011 0.950 . S
H1006 C1012 0.949 . S
C1007 H1002 0.950 . S
C1007 C1009 1.327 . S
C1007 C1013 1.429 . S
C1008 C1000 1.574 . S
C1008 H1003 0.949 . S
C1008 C1014 1.368 . S
C1009 C993 1.349 . S
C1009 H1001 0.950 . S
C1009 C1007 1.327 . S
C1010 C998 1.349 . S
C1010 H1004 0.950 . S
C1010 C1011 1.327 . S
C1011 H1005 0.950 . S
C1011 C1010 1.327 . S
C1011 C1015 1.429 . S
C1012 C995 1.574 . S
C1012 H1006 0.949 . S
C1012 C1016 1.368 . S
C1013 C994 1.429 . S
C1013 C1007 1.429 . S
C1013 C1014 1.523 . S
C1014 C995 1.368 . S
C1014 C1008 1.368 . S
C1014 C1013 1.523 . S
C1015 C999 1.429 . S
C1015 C1011 1.429 . S
C1015 C1016 1.523 . S
C1016 C1000 1.368 . S
C1016 C1012 1.368 . S
C1016 C1015 1.523 . S
H1017 C992 0.950 . S
H1018 C994 0.950 . S
H1019 C995 0.949 . S
H1020 C997 0.950 . S
H1021 C999 0.950 . S
C1022 C1023 1.349 . S
C1022 C1024 1.327 . S
C1022 H1047 0.950 . S
C1023 C1022 1.349 . S
C1023 C1039 1.349 . S
C1024 C1022 1.327 . S
C1024 C1043 1.429 . S
C1024 H1048 0.950 . S
C1025 C1042 1.574 . S
C1025 C1044 1.368 . S
C1025 H1049 0.949 . S
H1026 C1030 0.949 . S
C1027 C1028 1.349 . S
C1027 C1029 1.327 . S
C1027 H1050 0.950 . S
C1028 C1027 1.349 . S
C1028 C1040 1.349 . S
C1029 C1027 1.327 . S
C1029 C1045 1.429 . S
C1029 H1051 0.950 . S
C1030 H1026 0.949 . S
C1030 C1038 1.574 . S
C1030 C1046 1.368 . S
H1031 C1039 0.950 1_545 S
H1032 C1037 0.950 . S
H1033 C1038 0.949 . S
H1034 C1040 0.950 . S
H1035 C1041 0.950 . S
H1036 C1042 0.949 . S
C1037 H1032 0.950 . S
C1037 C1039 1.327 . S
C1037 C1043 1.429 . S
C1038 C1030 1.574 . S
C1038 H1033 0.949 . S
C1038 C1044 1.368 . S
C1039 C1023 1.349 . S
C1039 H1031 0.950 1_565 S
C1039 C1037 1.327 . S
C1040 C1028 1.349 . S
C1040 H1034 0.950 . S
C1040 C1041 1.327 . S
C1041 H1035 0.950 . S
C1041 C1040 1.327 . S
C1041 C1045 1.429 . S
C1042 C1025 1.574 . S
C1042 H1036 0.949 . S
C1042 C1046 1.368 . S
C1043 C1024 1.429 . S
C1043 C1037 1.429 . S
C1043 C1044 1.523 . S
C1044 C1025 1.368 . S
C1044 C1038 1.368 . S
C1044 C1043 1.523 . S
C1045 C1029 1.429 . S
C1045 C1041 1.429 . S
C1045 C1046 1.523 . S
C1046 C1030 1.368 . S
C1046 C1042 1.368 . S
C1046 C1045 1.523 . S
H1047 C1022 0.950 . S
H1048 C1024 0.950 . S
H1049 C1025 0.949 . S
H1050 C1027 0.950 . S
H1051 C1029 0.950 . S
C1052 C1053 1.349 . S
C1052 C1054 1.327 . S
C1052 H1077 0.950 . S
C1053 C1052 1.349 . S
C1053 C1069 1.349 . S
C1054 C1052 1.327 . S
C1054 C1073 1.429 . S
C1054 H1078 0.950 . S
C1055 C1072 1.574 1_554 S
C1055 C1074 1.368 . S
C1055 H1079 0.949 . S
H1056 C1060 0.949 . S
C1057 C1058 1.349 . S
C1057 C1059 1.327 . S
C1057 H1080 0.950 . S
C1058 C1057 1.349 . S
C1058 C1070 1.349 . S
C1059 C1057 1.327 . S
C1059 C1075 1.429 . S
C1059 H1081 0.950 . S
C1060 H1056 0.949 . S
C1060 C1068 1.574 1_556 S
C1060 C1076 1.368 . S
H1061 C1069 0.950 . S
H1062 C1067 0.950 . S
H1063 C1068 0.949 . S
H1064 C1070 0.950 . S
H1065 C1071 0.950 . S
H1066 C1072 0.949 . S
C1067 H1062 0.950 . S
C1067 C1069 1.327 . S
C1067 C1073 1.429 . S
C1068 C1060 1.574 1_554 S
C1068 H1063 0.949 . S
C1068 C1074 1.368 . S
C1069 C1053 1.349 . S
C1069 H1061 0.950 . S
C1069 C1067 1.327 . S
C1070 C1058 1.349 . S
C1070 H1064 0.950 . S
C1070 C1071 1.327 . S
C1071 H1065 0.950 . S
C1071 C1070 1.327 . S
C1071 C1075 1.429 . S
C1072 C1055 1.574 1_556 S
C1072 H1066 0.949 . S
C1072 C1076 1.368 . S
C1073 C1054 1.429 . S
C1073 C1067 1.429 . S
C1073 C1074 1.523 . S
C1074 C1055 1.368 . S
C1074 C1068 1.368 . S
C1074 C1073 1.523 . S
C1075 C1059 1.429 . S
C1075 C1071 1.429 . S
C1075 C1076 1.523 . S
C1076 C1060 1.368 . S
C1076 C1072 1.368 . S
C1076 C1075 1.523 . S
H1077 C1052 0.950 . S
H1078 C1054 0.950 . S
H1079 C1055 0.949 . S
H1080 C1057 0.950 . S
H1081 C1059 0.950 . S
C1082 C1083 1.349 . S
C1082 C1084 1.327 . S
C1082 H1107 0.950 1_655 S
C1083 C1082 1.349 . S
C1083 C1099 1.349 . S
C1084 C1082 1.327 . S
C1084 C1103 1.429 . S
C1084 H1108 0.950 . S
C1085 C1102 1.574 . S
C1085 C1104 1.368 . S
C1085 H1109 0.949 . S
H1086 C1090 0.949 . S
C1087 C1088 1.349 . S
C1087 C1089 1.327 . S
C1087 H1110 0.950 . S
C1088 C1087 1.349 . S
C1088 C1100 1.349 . S
C1089 C1087 1.327 . S
C1089 C1105 1.429 . S
C1089 H1111 0.950 . S
C1090 H1086 0.949 . S
C1090 C1098 1.574 . S
C1090 C1106 1.368 . S
H1091 C1099 0.950 . S
H1092 C1097 0.950 . S
H1093 C1098 0.949 . S
H1094 C1100 0.950 . S
H1095 C1101 0.950 . S
H1096 C1102 0.949 . S
C1097 H1092 0.950 . S
C1097 C1099 1.327 . S
C1097 C1103 1.429 . S
C1098 C1090 1.574 . S
C1098 H1093 0.949 . S
C1098 C1104 1.368 . S
C1099 C1083 1.349 . S
C1099 H1091 0.950 . S
C1099 C1097 1.327 . S
C1100 C1088 1.349 . S
C1100 H1094 0.950 . S
C1100 C1101 1.327 . S
C1101 H1095 0.950 . S
C1101 C1100 1.327 . S
C1101 C1105 1.429 . S
C1102 C1085 1.574 . S
C1102 H1096 0.949 . S
C1102 C1106 1.368 . S
C1103 C1084 1.429 . S
C1103 C1097 1.429 . S
C1103 C1104 1.523 . S
C1104 C1085 1.368 . S
C1104 C1098 1.368 . S
C1104 C1103 1.523 . S
C1105 C1089 1.429 . S
C1105 C1101 1.429 . S
C1105 C1106 1.523 . S
C1106 C1090 1.368 . S
C1106 C1102 1.368 . S
C1106 C1105 1.523 . S
H1107 C1082 0.950 1_455 S
H1108 C1084 0.950 . S
H1109 C1085 0.949 . S
H1110 C1087 0.950 . S
H1111 C1089 0.950 . S
C273 C3 1.272 . S
C278 C158 1.400 . S
C303 C192 1.400 . S
C308 C35 1.272 . S
C333 C226 1.400 . S
C338 C69 1.272 . S
C363 C103 1.272 . S
C368 C253 1.400 . S
C393 C15 1.400 . S
C398 C137 1.272 . S
C423 C56 1.400 . S
C428 C171 1.272 . S
C453 C205 1.272 . S
C458 C90 1.400 . S
C483 C124 1.400 . S
C488 C241 1.272 . S
C513 C40 1.381 . S
C518 C6 1.402 . S
C543 C74 1.381 . S
C548 C62 1.402 . S
C573 C96 1.402 . S
C578 C108 1.380 . S
C603 C130 1.402 . S
C608 C28 1.380 . S
C633 C266 1.380 . S
C638 C164 1.402 . S
C663 C198 1.402 . S
C668 C142 1.381 . S
C693 C232 1.402 . S
C698 C176 1.380 . S
C723 C244 1.402 . S
C728 C210 1.380 . S
C753 C153 1.870 . S
C758 C22 1.684 . S
C783 C187 1.870 . S
C788 C49 1.684 . S
C813 C83 1.685 . S
C818 C221 1.871 . S
C843 C117 1.684 . S
C848 C255 1.871 . S
C873 C151 1.684 . S
C878 C17 1.870 . S
C903 C185 1.684 . S
C908 C51 1.870 . S
C933 C219 1.684 . S
C938 C85 1.871 . S
C963 C260 1.685 . S
C968 C119 1.871 . S
C993 C173 2.023 . S
C998 C1 2.023 . S
C1023 C207 2.023 . S
C1028 C37 2.023 . S
C1053 C239 2.024 . S
C1058 C71 2.024 . S
C1083 C105 2.023 . S
C1088 C139 2.023 . S
