# Generated by pormake.
# Topology uki, (4)-cn, num edge types: 1
# Building blocks:
#     Node 0, Type 0, BuildingBlock: QUQFOY_clean_sbu_3, # of connection points: 4
#     Node 1, Type 0, BuildingBlock: QUQFOY_clean_sbu_3, # of connection points: 4
#     Node 2, Type 0, BuildingBlock: QUQFOY_clean_sbu_3, # of connection points: 4
#     Node 3, Type 0, BuildingBlock: QUQFOY_clean_sbu_3, # of connection points: 4
#     Node 4, Type 0, BuildingBlock: QUQFOY_clean_sbu_3, # of connection points: 4
#     Node 5, Type 0, BuildingBlock: QUQFOY_clean_sbu_3, # of connection points: 4
#     Node 6, Type 0, BuildingBlock: QUQFOY_clean_sbu_3, # of connection points: 4
#     Node 7, Type 0, BuildingBlock: QUQFOY_clean_sbu_3, # of connection points: 4
#     Node 8, Type 0, BuildingBlock: QUQFOY_clean_sbu_3, # of connection points: 4
#     Node 9, Type 0, BuildingBlock: QUQFOY_clean_sbu_3, # of connection points: 4
#     Node 10, Type 0, BuildingBlock: QUQFOY_clean_sbu_3, # of connection points: 4
#     Node 11, Type 0, BuildingBlock: QUQFOY_clean_sbu_3, # of connection points: 4
#     Node 12, Type 0, BuildingBlock: QUQFOY_clean_sbu_3, # of connection points: 4
#     Node 13, Type 0, BuildingBlock: QUQFOY_clean_sbu_3, # of connection points: 4
#     Node 14, Type 0, BuildingBlock: QUQFOY_clean_sbu_3, # of connection points: 4
#     Node 15, Type 0, BuildingBlock: QUQFOY_clean_sbu_3, # of connection points: 4
#     Edge 16, Type (0, 0), BuildingBlock: ZUJKAS_clean_linker_0, # of connection points: 2
#     Edge 17, Type (0, 0), BuildingBlock: ZUJKAS_clean_linker_0, # of connection points: 2
#     Edge 18, Type (0, 0), BuildingBlock: ZUJKAS_clean_linker_0, # of connection points: 2
#     Edge 19, Type (0, 0), BuildingBlock: ZUJKAS_clean_linker_0, # of connection points: 2
#     Edge 20, Type (0, 0), BuildingBlock: ZUJKAS_clean_linker_0, # of connection points: 2
#     Edge 21, Type (0, 0), BuildingBlock: ZUJKAS_clean_linker_0, # of connection points: 2
#     Edge 22, Type (0, 0), BuildingBlock: ZUJKAS_clean_linker_0, # of connection points: 2
#     Edge 23, Type (0, 0), BuildingBlock: ZUJKAS_clean_linker_0, # of connection points: 2
#     Edge 24, Type (0, 0), BuildingBlock: ZUJKAS_clean_linker_0, # of connection points: 2
#     Edge 25, Type (0, 0), BuildingBlock: ZUJKAS_clean_linker_0, # of connection points: 2
#     Edge 26, Type (0, 0), BuildingBlock: ZUJKAS_clean_linker_0, # of connection points: 2
#     Edge 27, Type (0, 0), BuildingBlock: ZUJKAS_clean_linker_0, # of connection points: 2
#     Edge 28, Type (0, 0), BuildingBlock: ZUJKAS_clean_linker_0, # of connection points: 2
#     Edge 29, Type (0, 0), BuildingBlock: ZUJKAS_clean_linker_0, # of connection points: 2
#     Edge 30, Type (0, 0), BuildingBlock: ZUJKAS_clean_linker_0, # of connection points: 2
#     Edge 31, Type (0, 0), BuildingBlock: ZUJKAS_clean_linker_0, # of connection points: 2
#     Edge 32, Type (0, 0), BuildingBlock: ZUJKAS_clean_linker_0, # of connection points: 2
#     Edge 33, Type (0, 0), BuildingBlock: ZUJKAS_clean_linker_0, # of connection points: 2
#     Edge 34, Type (0, 0), BuildingBlock: ZUJKAS_clean_linker_0, # of connection points: 2
#     Edge 35, Type (0, 0), BuildingBlock: ZUJKAS_clean_linker_0, # of connection points: 2
#     Edge 36, Type (0, 0), BuildingBlock: ZUJKAS_clean_linker_0, # of connection points: 2
#     Edge 37, Type (0, 0), BuildingBlock: ZUJKAS_clean_linker_0, # of connection points: 2
#     Edge 38, Type (0, 0), BuildingBlock: ZUJKAS_clean_linker_0, # of connection points: 2
#     Edge 39, Type (0, 0), BuildingBlock: ZUJKAS_clean_linker_0, # of connection points: 2
#     Edge 40, Type (0, 0), BuildingBlock: ZUJKAS_clean_linker_0, # of connection points: 2
#     Edge 41, Type (0, 0), BuildingBlock: ZUJKAS_clean_linker_0, # of connection points: 2
#     Edge 42, Type (0, 0), BuildingBlock: ZUJKAS_clean_linker_0, # of connection points: 2
#     Edge 43, Type (0, 0), BuildingBlock: ZUJKAS_clean_linker_0, # of connection points: 2
#     Edge 44, Type (0, 0), BuildingBlock: ZUJKAS_clean_linker_0, # of connection points: 2
#     Edge 45, Type (0, 0), BuildingBlock: ZUJKAS_clean_linker_0, # of connection points: 2
#     Edge 46, Type (0, 0), BuildingBlock: ZUJKAS_clean_linker_0, # of connection points: 2
#     Edge 47, Type (0, 0), BuildingBlock: ZUJKAS_clean_linker_0, # of connection points: 2
# Relax obj value: 0.098
# Max RMSD: 0.202
# Mean RMSD: 0.200
data_MOF--net-uki--node1-QUQFOY_clean_sbu_3--edge1-ZUJKAS_clean_linker_0
_symmetry_space_group_name_H-M    P1
_symmetry_Int_Tables_number       1
_symmetry_cell_setting            triclinic
loop_
_symmetry_equiv_pos_as_xyz
'x, y, z'
_cell_length_a     40.205656
_cell_length_b     39.765926
_cell_length_c     94.842652
_cell_angle_alpha  89.978885
_cell_angle_beta   89.99448
_cell_angle_gamma 89.996747
loop_
_atom_site_label
_atom_site_type_symbol
_atom_site_fract_x
_atom_site_fract_y
_atom_site_fract_z
_atom_type_partial_charge
C0 C 0.09402 0.14849 0.26162 0.0
O1 O 0.09731 0.16603 0.25051 0.0
Cd2 Cd 0.11111 0.22467 0.25063 0.0
O3 O 0.10085 0.16089 0.27367 0.0
Cd4 Cd 0.12179 0.21383 0.28412 0.0
C5 C 0.04892 0.24844 0.27374 0.0
O6 O 0.15873 0.23248 0.26515 0.0
O7 O 0.14509 0.26949 0.28073 0.0
O8 O 0.15955 0.182 0.29937 0.0
C9 C 0.16202 0.2621 0.2699 0.0
O10 O 0.06163 0.24937 0.26143 0.0
C11 C 0.15129 0.19715 0.31063 0.0
O12 O 0.0646 0.23511 0.284 0.0
O13 O 0.12849 0.21915 0.30961 0.0
C14 C 0.20623 0.82144 0.74818 0.0
O15 O 0.18438 0.83385 0.75637 0.0
Cd16 Cd 0.13585 0.86617 0.74955 0.0
O17 O 0.20375 0.8247 0.73484 0.0
Cd18 Cd 0.16782 0.84988 0.71658 0.0
C19 C 0.17763 0.9283 0.73126 0.0
O20 O 0.11543 0.84221 0.72855 0.0
O21 O 0.11255 0.86661 0.70846 0.0
O22 O 0.17762 0.80258 0.7007 0.0
C23 C 0.09798 0.85874 0.71983 0.0
O24 O 0.15889 0.91913 0.7414 0.0
C25 C 0.18799 0.8207 0.69054 0.0
O26 O 0.18667 0.90779 0.72163 0.0
O27 O 0.18971 0.85221 0.6927 0.0
C28 C 0.89451 0.85182 0.26212 0.0
O29 O 0.88997 0.8348 0.25096 0.0
Cd30 Cd 0.87968 0.77537 0.25155 0.0
O31 O 0.89043 0.83834 0.27418 0.0
Cd32 Cd 0.87351 0.78417 0.28466 0.0
C33 C 0.94648 0.75413 0.27264 0.0
O34 O 0.83451 0.76263 0.267 0.0
O35 O 0.85584 0.72647 0.28141 0.0
O36 O 0.83334 0.81156 0.30012 0.0
C37 C 0.83519 0.7327 0.27165 0.0
O38 O 0.93206 0.75299 0.26068 0.0
C39 C 0.84498 0.79955 0.3115 0.0
O40 O 0.93165 0.76625 0.28338 0.0
O41 O 0.87068 0.78109 0.31046 0.0
C42 C 0.78868 0.17362 0.75076 0.0
O43 O 0.81022 0.16043 0.75889 0.0
Cd44 Cd 0.85878 0.12833 0.75191 0.0
O45 O 0.79141 0.17121 0.7374 0.0
Cd46 Cd 0.82743 0.14665 0.71904 0.0
C47 C 0.81673 0.06756 0.733 0.0
O48 O 0.87973 0.15324 0.7312 0.0
O49 O 0.88266 0.13022 0.71082 0.0
O50 O 0.81776 0.195 0.70373 0.0
C51 C 0.89717 0.13723 0.7223 0.0
O52 O 0.83548 0.07604 0.74325 0.0
C53 C 0.80778 0.17759 0.6933 0.0
O54 O 0.80793 0.08865 0.72354 0.0
O55 O 0.8062 0.14592 0.69504 0.0
C56 C 0.09863 0.34987 0.98762 0.0
O57 O 0.10264 0.33256 0.99875 0.0
Cd58 Cd 0.11481 0.27353 0.99843 0.0
O59 O 0.10419 0.33702 0.97554 0.0
Cd60 Cd 0.12347 0.28374 0.96493 0.0
C61 C 0.05024 0.25185 0.97614 0.0
O62 O 0.16118 0.26367 0.98338 0.0
O63 O 0.14453 0.22721 0.96808 0.0
O64 O 0.16134 0.3147 0.94946 0.0
C65 C 0.16282 0.23394 0.97859 0.0
O66 O 0.06378 0.25051 0.98828 0.0
C67 C 0.1524 0.29973 0.93825 0.0
O68 O 0.06562 0.26455 0.96566 0.0
O69 O 0.12913 0.27827 0.93939 0.0
C70 C 0.28343 0.82707 0.99781 0.0
O71 O 0.30449 0.84015 0.98943 0.0
Cd72 Cd 0.35421 0.8711 0.99568 0.0
O73 O 0.28746 0.82872 0.01114 0.0
Cd74 Cd 0.32605 0.85157 0.02905 0.0
C75 C 0.31564 0.93176 0.01601 0.0
O76 O 0.37671 0.84455 0.01578 0.0
O77 O 0.38275 0.86525 0.03646 0.0
O78 O 0.31657 0.80375 0.04475 0.0
C79 C 0.39566 0.85908 0.02456 0.0
O80 O 0.33204 0.9232 0.00507 0.0
C81 C 0.30718 0.82174 0.05511 0.0
O82 O 0.30874 0.91052 0.02568 0.0
O83 O 0.306 0.85334 0.05315 0.0
C84 C 0.89754 0.6457 0.98756 0.0
O85 O 0.89378 0.66334 0.9986 0.0
Cd86 Cd 0.88178 0.72237 0.99809 0.0
O87 O 0.8919 0.65822 0.97542 0.0
Cd88 Cd 0.8727 0.71131 0.96454 0.0
C89 C 0.94606 0.74355 0.9755 0.0
O90 O 0.83537 0.7316 0.98304 0.0
O91 O 0.85129 0.76784 0.9675 0.0
O92 O 0.83455 0.67989 0.94939 0.0
C93 C 0.83343 0.76123 0.97816 0.0
O94 O 0.93266 0.74505 0.98767 0.0
C95 C 0.84328 0.69442 0.93805 0.0
O96 O 0.93057 0.73067 0.96509 0.0
O97 O 0.86658 0.71591 0.93896 0.0
C98 C 0.71354 0.16891 -0.0002 0.0
O99 O 0.69221 0.15599 0.9915 0.0
Cd100 Cd 0.64303 0.12443 0.99792 0.0
O101 O 0.71006 0.16679 0.01314 0.0
Cd102 Cd 0.67237 0.14318 0.03124 0.0
C103 C 0.68291 0.06353 0.01772 0.0
O104 O 0.62113 0.14976 0.01838 0.0
O105 O 0.61626 0.12794 0.03891 0.0
O106 O 0.68117 0.19078 0.04711 0.0
C107 C 0.60286 0.13422 0.02712 0.0
O108 O 0.66601 0.07233 0.00696 0.0
C109 C 0.69168 0.17281 0.05729 0.0
O110 O 0.69011 0.08449 0.02746 0.0
O111 O 0.69376 0.14132 0.05515 0.0
C112 C 0.59783 0.64559 0.76316 0.0
O113 O 0.60337 0.6626 0.75208 0.0
Cd114 Cd 0.60991 0.72237 0.75327 0.0
O115 O 0.60015 0.65929 0.77526 0.0
Cd116 Cd 0.61549 0.71345 0.78633 0.0
C117 C 0.54091 0.73777 0.77433 0.0
O118 O 0.65385 0.73758 0.76897 0.0
O119 O 0.62965 0.77216 0.78323 0.0
O120 O 0.65498 0.68375 0.80137 0.0
C121 C 0.65106 0.76738 0.77362 0.0
O122 O 0.55558 0.7394 0.76243 0.0
C123 C 0.64537 0.69714 0.81282 0.0
O124 O 0.55638 0.72764 0.78527 0.0
O125 O 0.62109 0.71754 0.81204 0.0
C126 C 0.71255 0.33153 0.2514 0.0
O127 O 0.69069 0.34451 0.25943 0.0
Cd128 Cd 0.6397 0.37222 0.25228 0.0
O129 O 0.70898 0.33188 0.23804 0.0
Cd130 Cd 0.67056 0.35197 0.21957 0.0
C131 C 0.6764 0.43322 0.23162 0.0
O132 O 0.6195 0.34315 0.23241 0.0
O133 O 0.61377 0.36392 0.21172 0.0
O134 O 0.68278 0.30297 0.20493 0.0
C135 C 0.60046 0.35706 0.22348 0.0
O136 O 0.65858 0.42489 0.24218 0.0
C137 C 0.6913 0.3201 0.19418 0.0
O138 O 0.68643 0.41155 0.22263 0.0
O139 O 0.69078 0.35193 0.19543 0.0
C140 C 0.39904 0.34931 0.76236 0.0
O141 O 0.39468 0.33188 0.75131 0.0
Cd142 Cd 0.38574 0.27233 0.75255 0.0
O143 O 0.39488 0.3362 0.77449 0.0
Cd144 Cd 0.37778 0.28232 0.78524 0.0
C145 C 0.45234 0.25479 0.77437 0.0
O146 O 0.33987 0.25868 0.76753 0.0
O147 O 0.363 0.22385 0.782 0.0
O148 O 0.33807 0.31181 0.80032 0.0
C149 C 0.34193 0.22891 0.77229 0.0
O150 O 0.43847 0.25225 0.76233 0.0
C151 C 0.34746 0.29787 0.8117 0.0
O152 O 0.4366 0.26704 0.78485 0.0
O153 O 0.37169 0.27745 0.81083 0.0
C154 C 0.28271 0.66444 0.24923 0.0
O155 O 0.30348 0.6509 0.25761 0.0
Cd156 Cd 0.35326 0.62017 0.25134 0.0
O157 O 0.28711 0.66341 0.23592 0.0
Cd158 Cd 0.32607 0.64152 0.21793 0.0
C159 C 0.31531 0.56069 0.23012 0.0
O160 O 0.37615 0.64762 0.23158 0.0
O161 O 0.38308 0.62835 0.21073 0.0
O162 O 0.31649 0.69081 0.20311 0.0
C163 C 0.39539 0.63335 0.22284 0.0
O164 O 0.33143 0.56879 0.24119 0.0
C165 C 0.30822 0.67387 0.19228 0.0
O166 O 0.30847 0.58238 0.22061 0.0
O167 O 0.30768 0.64205 0.19356 0.0
C168 C 0.59975 0.84979 0.48843 0.0
O169 O 0.60326 0.8325 0.49959 0.0
Cd170 Cd 0.61561 0.77344 0.49947 0.0
O171 O 0.60585 0.83691 0.4764 0.0
Cd172 Cd 0.62541 0.78355 0.46602 0.0
C173 C 0.55211 0.75088 0.47681 0.0
O174 O 0.66221 0.76286 0.48465 0.0
O175 O 0.64549 0.72672 0.4692 0.0
O176 O 0.66626 0.81197 0.45117 0.0
C177 C 0.66354 0.73312 0.47982 0.0
O178 O 0.56519 0.74988 0.48905 0.0
C179 C 0.65583 0.79962 0.43964 0.0
O180 O 0.56772 0.76368 0.4664 0.0
O181 O 0.63039 0.7807 0.44032 0.0
C182 C 0.7832 0.32453 0.49795 0.0
O183 O 0.80377 0.33793 0.48944 0.0
Cd184 Cd 0.85327 0.36953 0.49515 0.0
O185 O 0.7877 0.32615 0.51125 0.0
Cd186 Cd 0.827 0.34973 0.5288 0.0
C187 C 0.81486 0.4297 0.51578 0.0
O188 O 0.877 0.34338 0.51505 0.0
O189 O 0.88399 0.3645 0.53559 0.0
O190 O 0.81921 0.30217 0.54485 0.0
C191 C 0.89624 0.35844 0.52355 0.0
O192 O 0.83081 0.4213 0.5047 0.0
C193 C 0.80981 0.32031 0.55516 0.0
O194 O 0.80877 0.40844 0.52554 0.0
O195 O 0.8079 0.3518 0.55303 0.0
C196 C 0.39745 0.14495 0.4873 0.0
O197 O 0.39362 0.16245 0.49839 0.0
Cd198 Cd 0.38133 0.22142 0.49808 0.0
O199 O 0.39177 0.15759 0.47519 0.0
Cd200 Cd 0.37245 0.21091 0.46452 0.0
C201 C 0.44565 0.24315 0.47569 0.0
O202 O 0.3349 0.23066 0.48304 0.0
O203 O 0.35113 0.26747 0.46781 0.0
O204 O 0.33475 0.1799 0.449 0.0
C205 C 0.33308 0.2605 0.47837 0.0
O206 O 0.43219 0.24472 0.48785 0.0
C207 C 0.34378 0.19486 0.43779 0.0
O208 O 0.43026 0.23016 0.46528 0.0
O209 O 0.36695 0.21642 0.43897 0.0
C210 C 0.21475 0.66221 0.4968 0.0
O211 O 0.19431 0.6489 0.48822 0.0
Cd212 Cd 0.14387 0.61892 0.49406 0.0
O213 O 0.20948 0.6614 0.51007 0.0
Cd214 Cd 0.16893 0.64037 0.52764 0.0
C215 C 0.17983 0.55928 0.51582 0.0
O216 O 0.11991 0.64751 0.51333 0.0
O217 O 0.11111 0.62808 0.53405 0.0
O218 O 0.17862 0.68977 0.54242 0.0
C219 C 0.09966 0.63392 0.52185 0.0
O220 O 0.16448 0.56734 0.50455 0.0
C221 C 0.18573 0.67288 0.55341 0.0
O222 O 0.1862 0.58106 0.52534 0.0
O223 O 0.1855 0.64103 0.55227 0.0
H224 H 0.18929 0.25816 0.24341 0.0
H225 H 0.21647 0.3036 0.23018 0.0
H226 H 0.20352 0.37014 0.26567 0.0
H227 H 0.17605 0.32537 0.27879 0.0
H228 H 0.18211 0.39698 0.23977 0.0
H229 H 0.31012 0.34375 0.23645 0.0
H230 H 0.27615 0.31819 0.23031 0.0
H231 H 0.27966 0.32779 0.24873 0.0
C232 C 0.19255 0.28242 0.24841 0.0
C233 C 0.18052 0.28827 0.26213 0.0
C234 C 0.2081 0.30827 0.24085 0.0
C235 C 0.21206 0.34013 0.24698 0.0
C236 C 0.20056 0.34574 0.26074 0.0
H237 H 0.32874 0.50825 0.24767 0.0
H238 H 0.30423 0.45248 0.2474 0.0
C239 C 0.18494 0.3201 0.26824 0.0
C240 C 0.22747 0.36835 0.23921 0.0
H241 H 0.3027 0.39936 0.22886 0.0
C242 C 0.20835 0.39742 0.23709 0.0
C243 C 0.26163 0.36856 0.23571 0.0
C244 C 0.2833 0.33804 0.23794 0.0
C245 C 0.22295 0.42757 0.2326 0.0
C246 C 0.25753 0.42835 0.22984 0.0
C247 C 0.27618 0.39858 0.23094 0.0
C248 C 0.27555 0.46062 0.22839 0.0
C249 C 0.20171 0.45886 0.23195 0.0
C250 C 0.26836 0.48348 0.21752 0.0
C251 C 0.28207 0.51586 0.21774 0.0
C252 C 0.30334 0.52564 0.22879 0.0
C253 C 0.31205 0.50183 0.23912 0.0
C254 C 0.29825 0.46975 0.23893 0.0
H255 H 0.17653 0.45478 0.23646 0.0
H256 H 0.21377 0.47981 0.23776 0.0
H257 H 0.19871 0.46671 0.2208 0.0
H258 H 0.25137 0.47667 0.20914 0.0
H259 H 0.27522 0.53346 0.20953 0.0
H260 H 0.50008 0.73844 0.79765 0.0
H261 H 0.43965 0.74799 0.79809 0.0
H262 H 0.44015 0.7636 0.75313 0.0
H263 H 0.50003 0.75451 0.75252 0.0
H264 H 0.40287 0.81165 0.78297 0.0
H265 H 0.37054 0.68257 0.76509 0.0
H266 H 0.40793 0.6918 0.77496 0.0
H267 H 0.4055 0.7024 0.7566 0.0
C268 C 0.48734 0.74415 0.78788 0.0
C269 C 0.50492 0.74562 0.77505 0.0
C270 C 0.4529 0.74954 0.78816 0.0
C271 C 0.43565 0.75614 0.77562 0.0
C272 C 0.45314 0.75827 0.76289 0.0
H273 H 0.25766 0.79259 0.73379 0.0
H274 H 0.3108 0.7737 0.74325 0.0
C275 C 0.48741 0.75315 0.76259 0.0
C276 C 0.39926 0.76078 0.77549 0.0
H277 H 0.32846 0.72432 0.76292 0.0
C278 C 0.38628 0.79242 0.77893 0.0
C279 C 0.37803 0.73555 0.77014 0.0
C280 C 0.39101 0.70102 0.76655 0.0
C281 C 0.3528 0.80024 0.77627 0.0
C282 C 0.33185 0.77547 0.77024 0.0
C283 C 0.34454 0.74322 0.76756 0.0
C284 C 0.29813 0.78376 0.76502 0.0
C285 C 0.34072 0.83557 0.77902 0.0
C286 C 0.27296 0.79472 0.77417 0.0
C287 C 0.24242 0.80572 0.76878 0.0
C288 C 0.23658 0.80578 0.75414 0.0
C289 C 0.26132 0.79311 0.74511 0.0
C290 C 0.29174 0.78222 0.75049 0.0
H291 H 0.36147 0.85307 0.78146 0.0
H292 H 0.32694 0.84542 0.76975 0.0
H293 H 0.32346 0.8354 0.78815 0.0
H294 H 0.2772 0.79549 0.78545 0.0
H295 H 0.22385 0.81511 0.77605 0.0
H296 H 0.64068 0.48818 0.23895 0.0
H297 H 0.66057 0.54596 0.24096 0.0
H298 H 0.75632 0.51528 0.22485 0.0
H299 H 0.73574 0.45774 0.2221 0.0
H300 H 0.70593 0.56187 0.25862 0.0
H301 H 0.74894 0.60488 0.20638 0.0
H302 H 0.72289 0.56824 0.20852 0.0
H303 H 0.76731 0.56517 0.21075 0.0
C304 C 0.66563 0.49405 0.23543 0.0
C305 C 0.68677 0.46861 0.23044 0.0
C306 C 0.67699 0.52705 0.23658 0.0
C307 C 0.70992 0.53512 0.23301 0.0
C308 C 0.73057 0.50998 0.22733 0.0
H309 H 0.83749 0.666 0.27786 0.0
H310 H 0.80458 0.62087 0.26752 0.0
C311 C 0.7189 0.47702 0.22587 0.0
C312 C 0.72398 0.56802 0.23734 0.0
H313 H 0.7739 0.63266 0.22663 0.0
C314 C 0.72022 0.57761 0.25151 0.0
C315 C 0.74236 0.58889 0.2281 0.0
C316 C 0.74529 0.58142 0.21256 0.0
C317 C 0.73556 0.6065 0.25683 0.0
C318 C 0.75611 0.62583 0.24787 0.0
C319 C 0.75855 0.61741 0.23353 0.0
C320 C 0.77684 0.65341 0.25351 0.0
C321 C 0.72999 0.61577 0.27208 0.0
C322 C 0.77286 0.68655 0.24871 0.0
C323 C 0.79189 0.71251 0.25456 0.0
C324 C 0.8152 0.70559 0.26523 0.0
C325 C 0.81951 0.67223 0.26976 0.0
C326 C 0.80067 0.6464 0.26389 0.0
H327 H 0.70614 0.60535 0.27609 0.0
H328 H 0.75037 0.60509 0.27858 0.0
H329 H 0.72977 0.64347 0.27355 0.0
H330 H 0.7547 0.69236 0.24063 0.0
H331 H 0.78817 0.73797 0.25081 0.0
H332 H 0.49521 0.26988 0.79601 0.0
H333 H 0.55525 0.25876 0.79692 0.0
H334 H 0.54953 0.20793 0.75685 0.0
H335 H 0.48988 0.21883 0.75581 0.0
H336 H 0.5886 0.17458 0.77963 0.0
H337 H 0.62226 0.30826 0.76903 0.0
H338 H 0.5929 0.29925 0.78288 0.0
H339 H 0.5816 0.29171 0.76488 0.0
C340 C 0.50669 0.25599 0.78748 0.0
C341 C 0.48781 0.24542 0.77579 0.0
C342 C 0.54096 0.24983 0.78799 0.0
C343 C 0.5567 0.23283 0.77689 0.0
C344 C 0.53775 0.22117 0.7655 0.0
H345 H 0.7401 0.20807 0.73675 0.0
H346 H 0.68599 0.22535 0.74585 0.0
C347 C 0.50367 0.2275 0.76492 0.0
C348 C 0.59313 0.22799 0.77667 0.0
H349 H 0.66563 0.26869 0.76892 0.0
C350 C 0.60564 0.19516 0.77758 0.0
C351 C 0.61502 0.25499 0.77386 0.0
C352 C 0.60249 0.29061 0.77253 0.0
C353 C 0.63942 0.18838 0.7752 0.0
C354 C 0.66117 0.21525 0.77194 0.0
C355 C 0.64887 0.24826 0.77155 0.0
C356 C 0.69566 0.20895 0.76721 0.0
C357 C 0.65123 0.15235 0.7754 0.0
C358 C 0.71942 0.19508 0.77634 0.0
C359 C 0.7505 0.18513 0.77117 0.0
C360 C 0.7582 0.18886 0.75677 0.0
C361 C 0.73493 0.20457 0.74786 0.0
C362 C 0.704 0.21457 0.75305 0.0
H363 H 0.63028 0.13422 0.77612 0.0
H364 H 0.66584 0.14668 0.76575 0.0
H365 H 0.66771 0.14841 0.78464 0.0
H366 H 0.71353 0.19094 0.78735 0.0
H367 H 0.76788 0.17325 0.77833 0.0
H368 H 0.27774 0.96038 0.03699 0.0
H369 H 0.25435 0.01735 0.03731 0.0
H370 H 0.30246 0.03882 0.99766 0.0
H371 H 0.32649 0.98279 0.99741 0.0
H372 H 0.30475 0.09257 0.01604 0.0
H373 H 0.17654 0.04018 0.01153 0.0
H374 H 0.20038 0.02791 0.0267 0.0
H375 H 0.21299 0.01425 0.00946 0.0
C376 C 0.28359 0.97739 0.02843 0.0
C377 C 0.30352 0.96681 0.01706 0.0
C378 C 0.27015 0.00987 0.02861 0.0
C379 C 0.27625 0.03206 0.01739 0.0
C380 C 0.2974 0.02207 0.00642 0.0
H381 H 0.17345 0.17026 0.96938 0.0
H382 H 0.20125 0.12456 0.98178 0.0
C383 C 0.31094 0.98986 0.00626 0.0
C384 C 0.25884 0.06472 0.01619 0.0
H385 H 0.18296 0.09792 0.00812 0.0
C386 C 0.27802 0.094 0.0146 0.0
C387 C 0.22397 0.06632 0.01427 0.0
C388 C 0.20215 0.03555 0.01548 0.0
C389 C 0.26356 0.12437 0.01019 0.0
C390 C 0.22899 0.12544 0.00757 0.0
C391 C 0.2095 0.09683 0.01014 0.0
C392 C 0.21321 0.15414 0.00025 0.0
C393 C 0.28563 0.15435 0.00743 0.0
C394 C 0.21104 0.18605 0.00649 0.0
C395 C 0.1953 0.21244 0.99934 0.0
C396 C 0.18132 0.20709 0.98593 0.0
C397 C 0.18388 0.17516 0.97971 0.0
C398 C 0.19968 0.14899 0.9868 0.0
H399 H 0.31247 0.14793 0.00819 0.0
H400 H 0.28065 0.16484 0.99678 0.0
H401 H 0.28015 0.17428 0.01528 0.0
H402 H 0.221 0.19038 0.01694 0.0
H403 H 0.1935 0.23677 0.00442 0.0
H404 H 0.26042 0.82924 0.97059 0.0
H405 H 0.20528 0.81255 0.96214 0.0
H406 H 0.1803 0.77652 0.00369 0.0
H407 H 0.23523 0.79293 0.01225 0.0
H408 H 0.15912 0.73392 0.98007 0.0
H409 H 0.12216 0.86849 0.97507 0.0
H410 H 0.15957 0.8554 0.96622 0.0
H411 H 0.15806 0.8555 0.98512 0.0
C412 C 0.24342 0.81727 0.97789 0.0
C413 C 0.25214 0.81275 0.99215 0.0
C414 C 0.21189 0.80789 0.97304 0.0
C415 C 0.18868 0.79376 0.98235 0.0
C416 C 0.19791 0.78751 0.99636 0.0
H417 H 0.9824 0.78122 0.99389 0.0
H418 H 0.04172 0.79376 0.99285 0.0
C419 C 0.2293 0.79699 0.00124 0.0
C420 C 0.15397 0.78751 0.9779 0.0
H421 H 0.08082 0.82797 0.97105 0.0
C422 C 0.14205 0.75436 0.97785 0.0
C423 C 0.13185 0.81438 0.97515 0.0
C424 C 0.14331 0.85052 0.97545 0.0
C425 C 0.10825 0.74742 0.97552 0.0
C426 C 0.08599 0.77437 0.97315 0.0
C427 C 0.0981 0.80742 0.97276 0.0
C428 C 0.0496 0.76907 0.97281 0.0
C429 C 0.09622 0.71153 0.97635 0.0
C430 C 0.03426 0.75178 0.96168 0.0
C431 C 0.00017 0.74465 0.9622 0.0
C432 C 0.98105 0.75455 0.97392 0.0
C433 C 0.9964 0.77301 0.98476 0.0
C434 C 0.0303 0.78028 0.98418 0.0
H435 H 0.11604 0.69403 0.97993 0.0
H436 H 0.0748 0.7096 0.9837 0.0
H437 H 0.0876 0.70332 0.96579 0.0
H438 H 0.04877 0.74324 0.95275 0.0
H439 H 0.98909 0.73039 0.95368 0.0
H440 H 0.80402 0.75859 0.00425 0.0
H441 H 0.77726 0.80507 0.01697 0.0
H442 H 0.7953 0.87071 0.98156 0.0
H443 H 0.82239 0.82489 0.96896 0.0
H444 H 0.815 0.89745 0.00764 0.0
H445 H 0.68549 0.84761 0.00915 0.0
H446 H 0.71808 0.8212 0.01596 0.0
H447 H 0.71666 0.83056 0.99746 0.0
C448 C 0.80199 0.78289 0.99916 0.0
C449 C 0.8153 0.78815 0.98561 0.0
C450 C 0.78667 0.80934 0.00642 0.0
C451 C 0.78423 0.84122 0.00017 0.0
C452 C 0.79708 0.84629 0.98659 0.0
H453 H 0.6707 0.01284 0.99913 0.0
H454 H 0.69475 0.95684 0.99888 0.0
C455 C 0.81247 0.82006 0.97938 0.0
C456 C 0.76893 0.86996 0.00763 0.0
H457 H 0.69382 0.90279 0.0171 0.0
C458 C 0.7886 0.89854 0.00998 0.0
C459 C 0.73454 0.87104 0.01068 0.0
C460 C 0.71226 0.84111 0.00814 0.0
C461 C 0.77445 0.92901 0.01435 0.0
C462 C 0.73975 0.9306 0.01673 0.0
C463 C 0.72043 0.90136 0.01531 0.0
C464 C 0.72246 0.96324 0.01826 0.0
C465 C 0.79637 0.95975 0.01533 0.0
C466 C 0.7294 0.98523 0.02946 0.0
C467 C 0.71593 0.01771 0.02955 0.0
C468 C 0.69516 0.02848 0.0185 0.0
C469 C 0.68693 0.00563 0.00773 0.0
C470 C 0.70048 0.97343 0.00761 0.0
H471 H 0.82166 0.95517 0.01102 0.0
H472 H 0.7851 0.98116 0.00953 0.0
H473 H 0.799 0.96721 0.02655 0.0
H474 H 0.74585 0.97759 0.03791 0.0
H475 H 0.72243 0.03456 0.03809 0.0
H476 H 0.73547 0.16758 0.97242 0.0
H477 H 0.79033 0.18437 0.96368 0.0
H478 H 0.81687 0.21928 0.00521 0.0
H479 H 0.76222 0.20275 0.01406 0.0
H480 H 0.83747 0.26233 0.98156 0.0
H481 H 0.87355 0.12763 0.976 0.0
H482 H 0.83592 0.14112 0.96741 0.0
H483 H 0.83806 0.14064 0.9863 0.0
C484 C 0.75274 0.17935 0.97965 0.0
C485 C 0.74456 0.18349 0.99398 0.0
C486 C 0.78411 0.18879 0.97464 0.0
C487 C 0.80769 0.2026 0.98386 0.0
C488 C 0.79897 0.20853 0.99795 0.0
H489 H 0.01407 0.21432 0.99466 0.0
H490 H 0.95469 0.202 0.99379 0.0
C491 C 0.76774 0.19899 0.00299 0.0
C492 C 0.84228 0.20875 0.97923 0.0
H493 H 0.91504 0.16799 0.97195 0.0
C494 C 0.85437 0.24183 0.9792 0.0
C495 C 0.86418 0.18179 0.9763 0.0
C496 C 0.85252 0.14572 0.97656 0.0
C497 C 0.88815 0.24862 0.97674 0.0
C498 C 0.9102 0.22158 0.97421 0.0
C499 C 0.8979 0.1886 0.97378 0.0
C500 C 0.9466 0.22668 0.97376 0.0
C501 C 0.9004 0.28442 0.97759 0.0
C502 C 0.96183 0.24387 0.96257 0.0
C503 C 0.99595 0.25087 0.96299 0.0
C504 C 0.01521 0.24092 0.97466 0.0
C505 C -4e-05 0.22255 0.98556 0.0
C506 C 0.96603 0.21541 0.98508 0.0
H507 H 0.88073 0.30203 0.98122 0.0
H508 H 0.9219 0.28615 0.98491 0.0
H509 H 0.90899 0.29267 0.96702 0.0
H510 H 0.94721 0.25247 0.95368 0.0
H511 H 0.00695 0.26507 0.95443 0.0
H512 H 0.63983 0.83398 0.77793 0.0
H513 H 0.66973 0.88145 0.76778 0.0
H514 H 0.73371 0.81318 0.7451 0.0
H515 H 0.70308 0.76526 0.75495 0.0
H516 H 0.73393 0.89613 0.77154 0.0
H517 H 0.70835 0.87971 0.71442 0.0
H518 H 0.68555 0.85738 0.72788 0.0
H519 H 0.72644 0.84361 0.72284 0.0
C520 C 0.6601 0.82899 0.7707 0.0
C521 C 0.66915 0.79588 0.76724 0.0
C522 C 0.67713 0.85617 0.76489 0.0
C523 C 0.70368 0.85089 0.75555 0.0
C524 C 0.71281 0.81785 0.75203 0.0
H525 H 0.84686 0.01152 0.74317 0.0
H526 H 0.8219 0.95613 0.74666 0.0
C527 C 0.69549 0.79052 0.75775 0.0
C528 C 0.7229 0.88016 0.75036 0.0
H529 H 0.74661 0.9227 0.72071 0.0
C530 C 0.73672 0.9019 0.76042 0.0
C531 C 0.72624 0.88775 0.73585 0.0
C532 C 0.71063 0.86609 0.7246 0.0
C533 C 0.75347 0.93123 0.75642 0.0
C534 C 0.75749 0.93852 0.74191 0.0
C535 C 0.74381 0.91677 0.73181 0.0
C536 C 0.7747 0.96946 0.73723 0.0
C537 C 0.7657 0.95469 0.76783 0.0
C538 C 0.7572 0.99449 0.72987 0.0
C539 C 0.77166 0.02605 0.72761 0.0
C540 C 0.80364 0.03294 0.73283 0.0
C541 C 0.82192 0.00702 0.73926 0.0
C542 C 0.8077 0.97542 0.74129 0.0
H543 H 0.75312 0.94992 0.77807 0.0
H544 H 0.79278 0.95081 0.7694 0.0
H545 H 0.76157 0.98138 0.76486 0.0
H546 H 0.73175 0.99025 0.72657 0.0
H547 H 0.7571 0.04559 0.72259 0.0
H548 H 0.00717 0.23749 0.29621 0.0
H549 H 0.94786 0.25165 0.29772 0.0
H550 H 0.95335 0.30018 0.25713 0.0
H551 H 0.01231 0.28639 0.25553 0.0
H552 H 0.91534 0.33576 0.2786 0.0
H553 H 0.87923 0.20135 0.27189 0.0
H554 H 0.90792 0.21158 0.28582 0.0
H555 H 0.9205 0.21631 0.26778 0.0
C556 C 0.99586 0.25163 0.28771 0.0
C557 C 0.01439 0.26053 0.27568 0.0
C558 C 0.96197 0.25953 0.28857 0.0
C559 C 0.94625 0.27655 0.27745 0.0
C560 C 0.96506 0.28693 0.26579 0.0
H561 H 0.76148 0.29657 0.23785 0.0
H562 H 0.81628 0.28154 0.24693 0.0
C563 C -0.00125 0.27892 0.26489 0.0
C564 C 0.90988 0.28204 0.27735 0.0
H565 H 0.83643 0.24142 0.2713 0.0
C566 C 0.89792 0.31517 0.2773 0.0
C567 C 0.88742 0.25502 0.2755 0.0
C568 C 0.89921 0.219 0.27516 0.0
C569 C 0.86416 0.32211 0.27489 0.0
C570 C 0.84189 0.29513 0.27259 0.0
C571 C 0.85363 0.26195 0.27318 0.0
C572 C 0.80734 0.30111 0.26787 0.0
C573 C 0.85287 0.35825 0.27404 0.0
C574 C 0.78386 0.31621 0.27678 0.0
C575 C 0.75237 0.32481 0.27163 0.0
C576 C 0.74398 0.31852 0.25746 0.0
C577 C 0.76715 0.30198 0.24878 0.0
C578 C 0.79848 0.29329 0.25396 0.0
H579 H 0.87408 0.37615 0.27425 0.0
H580 H 0.83837 0.3625 0.26423 0.0
H581 H 0.8364 0.36392 0.28312 0.0
H582 H 0.79019 0.32209 0.28761 0.0
H583 H 0.7351 0.33745 0.2786 0.0
H584 H 0.23692 0.95151 0.72097 0.0
H585 H 0.26137 0.00716 0.72513 0.0
H586 H 0.17081 0.03927 0.74547 0.0
H587 H 0.14682 0.98351 0.74184 0.0
H588 H 0.24586 0.07401 0.7194 0.0
H589 H 0.23901 0.0471 0.77679 0.0
H590 H 0.23088 0.01549 0.76362 0.0
H591 H 0.19942 0.04586 0.76809 0.0
C592 C 0.22209 0.97066 0.72611 0.0
C593 C 0.19028 0.96309 0.73134 0.0
C594 C 0.23604 0.0024 0.72846 0.0
C595 C 0.21817 0.02699 0.73593 0.0
C596 C 0.18532 0.02034 0.74003 0.0
H597 H 0.29 0.23158 0.75356 0.0
H598 H 0.25889 0.18394 0.74374 0.0
C599 C 0.17163 0.98853 0.73792 0.0
C600 C 0.23487 0.05821 0.74061 0.0
H601 H 0.25787 0.10094 0.77022 0.0
C602 C 0.24849 0.08002 0.7305 0.0
C603 C 0.23866 0.06565 0.75512 0.0
C604 C 0.22652 0.04217 0.76655 0.0
C605 C 0.26589 0.10914 0.73454 0.0
C606 C 0.26909 0.11681 0.74904 0.0
C607 C 0.25519 0.09511 0.7591 0.0
C608 C 0.28849 0.14595 0.75423 0.0
C609 C 0.28155 0.13079 0.72329 0.0
C610 C 0.31498 0.14042 0.76358 0.0
C611 C 0.33225 0.16743 0.76938 0.0
C612 C 0.32356 0.20062 0.76589 0.0
C613 C 0.29731 0.20624 0.75638 0.0
C614 C 0.27972 0.17907 0.75068 0.0
H615 H 0.28377 0.11721 0.71309 0.0
H616 H 0.26582 0.15333 0.72154 0.0
H617 H 0.30666 0.1394 0.72656 0.0
H618 H 0.32214 0.11508 0.76649 0.0
H619 H 0.35246 0.16224 0.77662 0.0
H620 H 0.99042 0.76453 0.29439 0.0
H621 H 0.04987 0.75049 0.29482 0.0
H622 H 0.04119 0.70525 0.25369 0.0
H623 H 0.9821 0.71899 0.25313 0.0
H624 H 0.07903 0.66713 0.27483 0.0
H625 H 0.11882 0.80062 0.26862 0.0
H626 H 0.08987 0.79073 0.2825 0.0
H627 H 0.07715 0.7869 0.26446 0.0
C628 C 0.0011 0.75127 0.28551 0.0
C629 C 0.98156 0.74309 0.27368 0.0
C630 C 0.03506 0.74344 0.28575 0.0
C631 C 0.04985 0.72719 0.27422 0.0
C632 C 0.03018 0.7179 0.26267 0.0
H633 H 0.2356 0.70035 0.23491 0.0
H634 H 0.18082 0.71757 0.24339 0.0
C635 C 0.99642 0.72585 0.26237 0.0
C636 C 0.08603 0.72069 0.27376 0.0
H637 H 0.16058 0.75931 0.2678 0.0
C638 C 0.09702 0.68723 0.27355 0.0
C639 C 0.1092 0.74709 0.27195 0.0
C640 C 0.09838 0.78342 0.2718 0.0
C641 C 0.13055 0.67938 0.27113 0.0
C642 C 0.15359 0.70575 0.26894 0.0
C643 C 0.14279 0.73925 0.26958 0.0
C644 C 0.18819 0.69877 0.26456 0.0
C645 C 0.14085 0.64295 0.2702 0.0
C646 C 0.21076 0.68341 0.27381 0.0
C647 C 0.24219 0.67359 0.26902 0.0
C648 C 0.25144 0.67886 0.25487 0.0
C649 C 0.22923 0.69571 0.24584 0.0
C650 C 0.19794 0.70565 0.25067 0.0
H651 H 0.11915 0.62566 0.27027 0.0
H652 H 0.15548 0.63846 0.26045 0.0
H653 H 0.15695 0.63664 0.27933 0.0
H654 H 0.20371 0.6782 0.28462 0.0
H655 H 0.2587 0.66075 0.27626 0.0
H656 H 0.77918 0.45849 0.53742 0.0
H657 H 0.75606 0.51558 0.53816 0.0
H658 H 0.79934 0.53649 0.49747 0.0
H659 H 0.82301 0.48035 0.49677 0.0
H660 H 0.80492 0.59007 0.516 0.0
H661 H 0.67549 0.53983 0.51402 0.0
H662 H 0.70106 0.52699 0.5286 0.0
H663 H 0.7112 0.51332 0.51108 0.0
C664 C 0.78399 0.47538 0.5287 0.0
C665 C 0.80254 0.46467 0.51694 0.0
C666 C 0.77072 0.50794 0.52913 0.0
C667 C 0.77563 0.53005 0.51778 0.0
C668 C 0.79527 0.51982 0.50635 0.0
H669 H 0.67228 0.6689 0.4709 0.0
H670 H 0.69972 0.62299 0.4833 0.0
C671 C 0.8086 0.48755 0.50593 0.0
C672 C 0.75862 0.56298 0.51698 0.0
H673 H 0.68257 0.59733 0.51015 0.0
C674 C 0.7781 0.59194 0.51503 0.0
C675 C 0.72363 0.56514 0.5157 0.0
C676 C 0.70149 0.53473 0.51737 0.0
C677 C 0.76371 0.6225 0.51083 0.0
C678 C 0.72895 0.62408 0.50877 0.0
C679 C 0.70926 0.59584 0.51174 0.0
C680 C 0.71307 0.65281 0.50152 0.0
C681 C 0.78596 0.65209 0.50764 0.0
C682 C 0.71174 0.68489 0.50764 0.0
C683 C 0.69619 0.7114 0.5005 0.0
C684 C 0.68158 0.70601 0.4872 0.0
C685 C 0.68322 0.67386 0.48113 0.0
C686 C 0.6988 0.64757 0.48821 0.0
H687 H 0.81276 0.64537 0.50814 0.0
H688 H 0.78044 0.66224 0.49698 0.0
H689 H 0.7812 0.67238 0.5154 0.0
H690 H 0.72232 0.6893 0.51798 0.0
H691 H 0.69512 0.7359 0.50547 0.0
H692 H 0.73597 0.2892 0.51251 0.0
H693 H 0.68107 0.27207 0.50415 0.0
H694 H 0.70404 0.31025 0.46273 0.0
H695 H 0.7591 0.32754 0.47096 0.0
H696 H 0.64444 0.33583 0.47488 0.0
H697 H 0.64934 0.19658 0.47723 0.0
H698 H 0.66421 0.21691 0.49293 0.0
H699 H 0.68629 0.22243 0.47661 0.0
C700 C 0.72965 0.29341 0.50155 0.0
C701 C 0.75192 0.30987 0.49243 0.0
C702 C 0.69831 0.28343 0.49677 0.0
C703 C 0.68865 0.28967 0.4828 0.0
C704 C 0.71115 0.30506 0.47353 0.0
H705 H 0.48954 0.22705 0.45461 0.0
H706 H 0.54921 0.2399 0.45379 0.0
C707 C 0.74263 0.31485 0.47827 0.0
C708 C 0.65397 0.28316 0.47837 0.0
H709 H 0.59503 0.22157 0.47658 0.0
C710 C 0.63373 0.31079 0.47501 0.0
C711 C 0.64019 0.25047 0.47843 0.0
C712 C 0.66118 0.21982 0.48136 0.0
C713 C 0.5996 0.30675 0.47247 0.0
C714 C 0.58545 0.27432 0.47338 0.0
C715 C 0.60599 0.24645 0.47596 0.0
C716 C 0.54905 0.26915 0.47301 0.0
C717 C 0.57874 0.33729 0.46917 0.0
C718 C 0.52935 0.28159 0.48403 0.0
C719 C 0.49547 0.27414 0.48459 0.0
C720 C 0.48061 0.25417 0.47411 0.0
C721 C 0.50021 0.24268 0.4628 0.0
C722 C 0.53427 0.24987 0.46233 0.0
H723 H 0.59419 0.35845 0.46522 0.0
H724 H 0.55941 0.33129 0.4612 0.0
H725 H 0.566 0.34575 0.47893 0.0
H726 H 0.54042 0.29615 0.49246 0.0
H727 H 0.48109 0.28341 0.49343 0.0
H728 H 0.16627 0.50641 0.49853 0.0
H729 H 0.18939 0.45015 0.49948 0.0
H730 H 0.24217 0.47525 0.53765 0.0
H731 H 0.21952 0.53248 0.53663 0.0
H732 H 0.28269 0.44898 0.51852 0.0
H733 H 0.17302 0.36673 0.52207 0.0
H734 H 0.16698 0.39644 0.5081 0.0
H735 H 0.17093 0.41112 0.52602 0.0
C736 C 0.1824 0.5 0.50728 0.0
C737 C 0.19127 0.52411 0.51744 0.0
C738 C 0.19527 0.46753 0.5079 0.0
C739 C 0.21699 0.45821 0.51879 0.0
C740 C 0.22513 0.48183 0.52924 0.0
H741 H 0.29983 0.25558 0.50356 0.0
H742 H 0.27298 0.30131 0.51673 0.0
C743 C 0.21224 0.51452 0.52862 0.0
C744 C 0.23439 0.42545 0.51792 0.0
H745 H 0.22079 0.34345 0.50905 0.0
C746 C 0.2692 0.42569 0.51686 0.0
C747 C 0.21697 0.39485 0.51603 0.0
C748 C 0.17993 0.39224 0.51829 0.0
C749 C 0.28668 0.39697 0.5126 0.0
C750 C 0.26878 0.36756 0.50904 0.0
C751 C 0.23439 0.36629 0.51146 0.0
C752 C 0.28473 0.33961 0.5013 0.0
C753 C 0.32405 0.39882 0.51138 0.0
C754 C 0.29931 0.34591 0.48813 0.0
C755 C 0.3145 0.32003 0.48062 0.0
C756 C 0.31519 0.28721 0.48608 0.0
C757 C 0.29975 0.28067 0.49911 0.0
C758 C 0.28452 0.30671 0.50665 0.0
H759 H 0.33451 0.41751 0.51888 0.0
H760 H 0.33575 0.37399 0.51343 0.0
H761 H 0.33081 0.40696 0.50056 0.0
H762 H 0.29889 0.37095 0.48362 0.0
H763 H 0.32589 0.32584 0.47056 0.0
H764 H 0.50956 0.76253 0.45467 0.0
H765 H 0.45022 0.74828 0.45343 0.0
H766 H 0.45692 0.69918 0.49386 0.0
H767 H 0.51589 0.71312 0.49522 0.0
H768 H 0.41942 0.6634 0.47196 0.0
H769 H 0.38094 0.79674 0.47996 0.0
H770 H 0.41011 0.78773 0.46605 0.0
H771 H 0.42236 0.78219 0.48409 0.0
C772 C 0.49849 0.7483 0.4632 0.0
C773 C 0.51738 0.7392 0.4751 0.0
C774 C 0.46459 0.74036 0.4625 0.0
C775 C 0.44925 0.72305 0.47363 0.0
C776 C 0.46836 0.71265 0.48519 0.0
H777 H 0.26207 0.69653 0.51168 0.0
H778 H 0.31736 0.71322 0.50364 0.0
C779 C 0.50205 0.72073 0.48595 0.0
C780 C 0.41299 0.71692 0.47377 0.0
H781 H 0.33874 0.75589 0.47999 0.0
C782 C 0.40163 0.68359 0.47345 0.0
C783 C 0.39007 0.74342 0.47587 0.0
C784 C 0.40127 0.77959 0.4766 0.0
C785 C 0.36795 0.67594 0.47564 0.0
C786 C 0.34516 0.70238 0.47812 0.0
C787 C 0.35635 0.73578 0.47799 0.0
C788 C 0.31039 0.69549 0.48229 0.0
C789 C 0.35725 0.63957 0.47602 0.0
C790 C 0.28789 0.68089 0.4728 0.0
C791 C 0.25616 0.67135 0.47735 0.0
C792 C 0.24652 0.67619 0.49148 0.0
C793 C 0.26871 0.69224 0.50076 0.0
C794 C 0.30031 0.70188 0.49618 0.0
H795 H 0.37878 0.62205 0.47587 0.0
H796 H 0.34221 0.63449 0.48561 0.0
H797 H 0.34145 0.63413 0.4667 0.0
H798 H 0.29517 0.67611 0.46199 0.0
H799 H 0.23968 0.65915 0.46991 0.0
H800 H 0.34775 0.23293 0.41392 0.0
H801 H 0.31482 0.22722 0.39241 0.0
H802 H 0.2686 0.13786 0.40921 0.0
H803 H 0.30058 0.1442 0.43101 0.0
H804 H 0.30957 0.18047 0.3726 0.0
H805 H 0.18816 0.19313 0.39991 0.0
H806 H 0.22721 0.20072 0.40868 0.0
H807 H 0.21256 0.15839 0.40611 0.0
C808 C 0.33071 0.21194 0.41301 0.0
C809 C 0.32651 0.1892 0.42422 0.0
C810 C 0.31188 0.20871 0.4007 0.0
C811 C 0.28865 0.18255 0.39931 0.0
C812 C 0.28562 0.15882 0.41021 0.0
H813 H 0.19426 0.14599 0.31707 0.0
H814 H 0.22666 0.13894 0.33873 0.0
C815 C 0.30411 0.16232 0.42261 0.0
C816 C 0.26729 0.18075 0.38653 0.0
H817 H 0.18641 0.18131 0.37551 0.0
C818 C 0.28263 0.18057 0.37323 0.0
C819 C 0.23212 0.18135 0.38736 0.0
C820 C 0.214 0.18374 0.40127 0.0
C821 C 0.26386 0.1814 0.36075 0.0
C822 C 0.22868 0.18129 0.36158 0.0
C823 C 0.21335 0.18104 0.37488 0.0
C824 C 0.20731 0.1837 0.34883 0.0
C825 C 0.28199 0.18379 0.34684 0.0
C826 C 0.18438 0.21017 0.34757 0.0
C827 C 0.16532 0.21381 0.33535 0.0
C828 C 0.16898 0.19117 0.32408 0.0
C829 C 0.19114 0.16403 0.32552 0.0
C830 C 0.20988 0.16013 0.33785 0.0
H831 H 0.30797 0.19274 0.34823 0.0
H832 H 0.28303 0.15851 0.34191 0.0
H833 H 0.26902 0.20111 0.33949 0.0
H834 H 0.18181 0.22857 0.35592 0.0
H835 H 0.14849 0.235 0.33457 0.0
H836 H 0.19255 0.64298 0.57915 0.0
H837 H 0.19913 0.67044 0.60202 0.0
H838 H 0.20174 0.76727 0.58154 0.0
H839 H 0.19419 0.74003 0.55862 0.0
H840 H 0.24696 0.71133 0.61321 0.0
H841 H 0.12659 0.77934 0.60944 0.0
H842 H 0.13808 0.74639 0.59732 0.0
H843 H 0.15473 0.78808 0.59521 0.0
C844 C 0.19465 0.67013 0.57949 0.0
C845 C 0.19246 0.68939 0.56709 0.0
C846 C 0.19847 0.68577 0.59258 0.0
C847 C 0.20027 0.72093 0.59351 0.0
C848 C 0.19956 0.74015 0.58109 0.0
H849 H 0.20397 0.85422 0.66634 0.0
H850 H 0.21111 0.83051 0.64273 0.0
C851 C 0.19543 0.72454 0.568 0.0
C852 C 0.20188 0.73733 0.60754 0.0
H853 H 0.16008 0.79121 0.62926 0.0
C854 C 0.228 0.72885 0.61671 0.0
C855 C 0.17702 0.76007 0.61212 0.0
C856 C 0.14734 0.76882 0.60308 0.0
C857 C 0.22996 0.74256 0.63034 0.0
C858 C 0.20505 0.76514 0.63489 0.0
C859 C 0.17923 0.77401 0.62567 0.0
C860 C 0.20436 0.77894 0.64937 0.0
C861 C 0.25867 0.73296 0.63975 0.0
C862 C 0.19842 0.7577 0.66092 0.0
C863 C 0.19415 0.77116 0.67441 0.0
C864 C 0.19571 0.8061 0.67657 0.0
C865 C 0.20267 0.8272 0.66504 0.0
C866 C 0.20675 0.81373 0.65154 0.0
H867 H 0.27954 0.72178 0.63366 0.0
H868 H 0.26802 0.75519 0.64562 0.0
H869 H 0.25009 0.71409 0.64756 0.0
H870 H 0.19596 0.73081 0.65941 0.0
H871 H 0.18876 0.75426 0.68308 0.0
H872 H 0.63893 0.7771 0.41335 0.0
H873 H 0.67174 0.78149 0.39169 0.0
H874 H 0.74676 0.83787 0.41398 0.0
H875 H 0.71384 0.83415 0.43562 0.0
H876 H 0.73374 0.86356 0.38734 0.0
H877 H 0.7558 0.72591 0.38528 0.0
H878 H 0.71258 0.73721 0.38576 0.0
H879 H 0.7388 0.74654 0.40062 0.0
C880 C 0.66226 0.79071 0.41361 0.0
C881 C 0.67392 0.80504 0.42623 0.0
C882 C 0.68108 0.79301 0.40125 0.0
C883 C 0.71201 0.80938 0.40131 0.0
C884 C 0.72305 0.82492 0.41374 0.0
H885 H 0.86459 0.77793 0.3376 0.0
H886 H 0.83412 0.78321 0.35983 0.0
C887 C 0.7042 0.82276 0.42609 0.0
C888 C 0.7333 0.80949 0.38854 0.0
H889 H 0.77313 0.75758 0.36539 0.0
C890 C 0.74246 0.84042 0.38255 0.0
C891 C 0.74518 0.77928 0.38248 0.0
C892 C 0.7379 0.74535 0.38893 0.0
C893 C 0.76258 0.84192 0.37045 0.0
C894 C 0.77332 0.81164 0.36406 0.0
C895 C 0.7647 0.78077 0.37024 0.0
C896 C 0.79308 0.81118 0.35085 0.0
C897 C 0.77251 0.87589 0.36475 0.0
C898 C 0.78024 0.82531 0.33843 0.0
C899 C 0.79768 0.8225 0.32573 0.0
C900 C 0.82814 0.80515 0.32518 0.0
C901 C 0.84123 0.7915 0.33768 0.0
C902 C 0.82382 0.79445 0.35038 0.0
H903 H 0.77085 0.89569 0.37298 0.0
H904 H 0.79827 0.87544 0.36052 0.0
H905 H 0.75541 0.88294 0.35605 0.0
H906 H 0.75622 0.83765 0.33845 0.0
H907 H 0.7868 0.83311 0.31628 0.0
H908 H 0.8049 0.24459 0.68693 0.0
H909 H 0.79749 0.27007 0.66366 0.0
H910 H 0.78796 0.17143 0.64518 0.0
H911 H 0.79447 0.14585 0.66842 0.0
H912 H 0.83847 0.26197 0.64161 0.0
H913 H 0.7122 0.22003 0.62629 0.0
H914 H 0.72734 0.2171 0.64417 0.0
H915 H 0.7386 0.18572 0.63134 0.0
C916 C 0.80065 0.22836 0.67795 0.0
C917 C 0.80026 0.19321 0.67951 0.0
C918 C 0.79642 0.24295 0.66466 0.0
C919 C 0.79173 0.22269 0.65269 0.0
C920 C 0.79069 0.18762 0.65428 0.0
H921 H 0.81053 0.25393 0.5629 0.0
H922 H 0.80364 0.23081 0.58669 0.0
C923 C 0.79466 0.17302 0.66758 0.0
C924 C 0.79098 0.23805 0.63844 0.0
H925 H 0.74667 0.24155 0.60771 0.0
C926 C 0.81819 0.25782 0.63427 0.0
C927 C 0.76456 0.23249 0.62884 0.0
C928 C 0.73388 0.21295 0.63292 0.0
C929 C 0.8201 0.27152 0.62068 0.0
C930 C 0.79403 0.26545 0.61103 0.0
C931 C 0.76665 0.24597 0.61517 0.0
C932 C 0.79516 0.27909 0.59654 0.0
C933 C 0.85034 0.2918 0.61659 0.0
C934 C 0.79194 0.31375 0.59424 0.0
C935 C 0.79576 0.32701 0.58071 0.0
C936 C 0.80297 0.3058 0.56924 0.0
C937 C 0.80511 0.27092 0.57152 0.0
C938 C 0.80112 0.25767 0.58508 0.0
H939 H 0.87072 0.28943 0.62444 0.0
H940 H 0.8598 0.28369 0.60613 0.0
H941 H 0.84338 0.31873 0.61579 0.0
H942 H 0.78711 0.3306 0.60298 0.0
H943 H 0.79384 0.35397 0.5793 0.0
H944 H 0.14918 0.26107 0.91456 0.0
H945 H 0.1827 0.26632 0.89319 0.0
H946 H 0.22808 0.35633 0.90976 0.0
H947 H 0.19555 0.35042 0.93144 0.0
H948 H 0.18811 0.3122 0.87322 0.0
H949 H 0.30909 0.30169 0.90098 0.0
H950 H 0.26996 0.29411 0.90969 0.0
H951 H 0.28437 0.33646 0.9069 0.0
C952 C 0.16616 0.2821 0.91363 0.0
C953 C 0.16997 0.30515 0.92474 0.0
C954 C 0.18534 0.28507 0.9014 0.0
C955 C 0.20851 0.31128 0.89999 0.0
C956 C 0.21115 0.33531 0.91078 0.0
H957 H 0.30311 0.34782 0.81793 0.0
H958 H 0.27041 0.35434 0.83952 0.0
C959 C 0.19232 0.33207 0.92312 0.0
C960 C 0.23012 0.31289 0.88729 0.0
H961 H 0.31121 0.31325 0.87653 0.0
C962 C 0.21504 0.31248 0.87394 0.0
C963 C 0.26528 0.31276 0.88823 0.0
C964 C 0.28318 0.31094 0.90221 0.0
C965 C 0.23405 0.31158 0.86152 0.0
C966 C 0.26921 0.3123 0.86246 0.0
C967 C 0.28429 0.31306 0.87581 0.0
C968 C 0.29083 0.31027 0.84978 0.0
C969 C 0.21618 0.30848 0.84758 0.0
C970 C 0.31451 0.28444 0.84864 0.0
C971 C 0.33379 0.28115 0.83646 0.0
C972 C 0.32956 0.30348 0.82512 0.0
C973 C 0.30665 0.33001 0.82644 0.0
C974 C 0.28774 0.33359 0.83873 0.0
H975 H 0.19045 0.29881 0.84894 0.0
H976 H 0.21448 0.33366 0.84259 0.0
H977 H 0.22971 0.29143 0.8403 0.0
H978 H 0.31751 0.26625 0.85705 0.0
H979 H 0.35122 0.26045 0.83576 0.0
H980 H 0.29953 0.6436 0.16673 0.0
H981 H 0.29328 0.67076 0.14377 0.0
H982 H 0.29399 0.76806 0.16386 0.0
H983 H 0.30124 0.74109 0.18686 0.0
H984 H 0.24681 0.71307 0.13244 0.0
H985 H 0.36947 0.7768 0.13589 0.0
H986 H 0.35688 0.74452 0.14814 0.0
H987 H 0.34178 0.78684 0.15012 0.0
C988 C 0.29818 0.67079 0.16628 0.0
C989 C 0.30129 0.69024 0.17859 0.0
C990 C 0.29456 0.68626 0.15315 0.0
C991 C 0.29386 0.72144 0.15208 0.0
C992 C 0.29534 0.74089 0.16442 0.0
H993 H 0.29244 0.85493 0.0795 0.0
H994 H 0.28531 0.83084 0.10303 0.0
C995 C 0.29929 0.72545 0.17755 0.0
C996 C 0.29276 0.7376 0.138 0.0
H997 H 0.33614 0.78984 0.11613 0.0
C998 C 0.26631 0.72988 0.12887 0.0
C999 C 0.31835 0.75938 0.13334 0.0
C1000 C 0.34839 0.76718 0.14231 0.0
C1001 C 0.26471 0.74355 0.11523 0.0
C1002 C 0.29028 0.76528 0.11062 0.0
C1003 C 0.31649 0.77329 0.11977 0.0
C1004 C 0.29108 0.77931 0.09618 0.0
C1005 C 0.23564 0.73487 0.10586 0.0
C1006 C 0.29649 0.75821 0.08455 0.0
C1007 C 0.30078 0.77189 0.07109 0.0
C1008 C 0.29974 0.8069 0.06906 0.0
C1009 C 0.29335 0.82786 0.0807 0.0
C1010 C 0.28927 0.81417 0.09415 0.0
H1011 H 0.21465 0.72391 0.11195 0.0
H1012 H 0.22666 0.7575 0.10016 0.0
H1013 H 0.2437 0.71613 0.0979 0.0
H1014 H 0.29848 0.73125 0.08596 0.0
H1015 H 0.3057 0.7551 0.06234 0.0
H1016 H 0.79912 0.64415 0.93198 0.0
H1017 H 0.76652 0.637 0.91039 0.0
H1018 H 0.81314 0.72509 0.89263 0.0
H1019 H 0.84662 0.73157 0.91391 0.0
H1020 H 0.72127 0.67697 0.89972 0.0
H1021 H 0.82072 0.66238 0.86004 0.0
H1022 H 0.82888 0.66016 0.87872 0.0
H1023 H 0.82626 0.70031 0.86995 0.0
C1024 C 0.80283 0.66163 0.92337 0.0
C1025 C 0.82558 0.68831 0.92461 0.0
C1026 C 0.78413 0.65757 0.91105 0.0
C1027 C 0.78769 0.68019 0.89976 0.0
C1028 C 0.8106 0.70671 0.90098 0.0
H1029 H 0.64142 0.7332 0.83726 0.0
H1030 H 0.67469 0.72586 0.85859 0.0
C1031 C 0.82961 0.71051 0.91321 0.0
C1032 C 0.76592 0.67751 0.88714 0.0
H1033 H 0.76693 0.67839 0.85116 0.0
C1034 C 0.73129 0.67683 0.8891 0.0
C1035 C 0.77888 0.67669 0.87327 0.0
C1036 C 0.81573 0.67454 0.87037 0.0
C1037 C 0.7093 0.67663 0.8776 0.0
C1038 C 0.72226 0.67826 0.86374 0.0
C1039 C 0.7569 0.67764 0.86177 0.0
C1040 C 0.70054 0.6815 0.85112 0.0
C1041 C 0.67245 0.67439 0.88047 0.0
C1042 C 0.7044 0.6595 0.83965 0.0
C1043 C 0.68588 0.6641 0.82732 0.0
C1044 C 0.66296 0.69067 0.82625 0.0
C1045 C 0.65859 0.71225 0.83783 0.0
C1046 C 0.67746 0.70793 0.85008 0.0
H1047 H 0.66742 0.66171 0.89069 0.0
H1048 H 0.66194 0.70015 0.8811 0.0
H1049 H 0.6593 0.66045 0.872 0.0
H1050 H 0.72211 0.639 0.84016 0.0
H1051 H 0.68983 0.64707 0.81857 0.0
H1052 H 0.71059 0.1396 0.08118 0.0
H1053 H 0.71814 0.16314 0.10479 0.0
H1054 H 0.69757 0.26238 0.08871 0.0
H1055 H 0.68994 0.23911 0.065 0.0
H1056 H 0.75501 0.2546 0.10919 0.0
H1057 H 0.63447 0.20015 0.12699 0.0
H1058 H 0.66308 0.17212 0.11835 0.0
H1059 H 0.64444 0.20585 0.10858 0.0
C1060 C 0.70801 0.16649 0.08261 0.0
C1061 C 0.69938 0.18748 0.07124 0.0
C1062 C 0.71229 0.17985 0.09611 0.0
C1063 C 0.70808 0.21438 0.09846 0.0
C1064 C 0.70086 0.23563 0.08706 0.0
H1065 H 0.70256 0.35063 0.16886 0.0
H1066 H 0.7106 0.32375 0.14598 0.0
C1067 C 0.69644 0.22228 0.07355 0.0
C1068 C 0.70923 0.22804 0.11294 0.0
H1069 H 0.66563 0.23003 0.14377 0.0
C1070 C 0.73559 0.24921 0.1168 0.0
C1071 C 0.6839 0.22074 0.1228 0.0
C1072 C 0.65469 0.19866 0.11903 0.0
C1073 C 0.7373 0.26331 0.13037 0.0
C1074 C 0.71151 0.25665 0.14014 0.0
C1075 C 0.68543 0.23504 0.13629 0.0
C1076 C 0.70998 0.27295 0.1542 0.0
C1077 C 0.7669 0.28483 0.13413 0.0
C1078 C 0.70651 0.25336 0.16643 0.0
C1079 C 0.7014 0.26867 0.17952 0.0
C1080 C 0.69964 0.30388 0.1806 0.0
C1081 C 0.70401 0.32345 0.16839 0.0
C1082 C 0.70888 0.30812 0.15531 0.0
H1083 H 0.78885 0.27851 0.12752 0.0
H1084 H 0.76067 0.31163 0.13221 0.0
H1085 H 0.77379 0.28185 0.1454 0.0
H1086 H 0.70708 0.22616 0.16581 0.0
H1087 H 0.69814 0.2529 0.18874 0.0
H1088 H 0.91164 0.89342 0.28386 0.0
H1089 H 0.94464 0.94483 0.28247 0.0
H1090 H 0.94447 0.93853 0.2371 0.0
H1091 H 0.91132 0.88705 0.23831 0.0
H1092 H 0.00922 0.94443 0.26898 0.0
H1093 H 0.92299 0.039 0.24584 0.0
H1094 H 0.90838 0.00143 0.25459 0.0
H1095 H 0.92508 -0.00106 0.23707 0.0
C1096 C 0.91795 0.90329 0.27355 0.0
C1097 C 0.90901 0.88596 0.26119 0.0
C1098 C 0.93689 0.93263 0.2728 0.0
C1099 C 0.94692 0.94537 0.2597 0.0
C1100 C 0.93663 0.92922 0.24731 0.0
H1101 H 0.07391 0.11487 0.23791 0.0
H1102 H 0.04099 0.06325 0.23681 0.0
C1103 C 0.91774 0.89978 0.24804 0.0
C1104 C 0.97064 0.97369 0.2591 0.0
H1105 H 0.97901 0.05543 0.24884 0.0
C1106 C 0.00267 0.96874 0.26459 0.0
C1107 C 0.96201 0.00511 0.25321 0.0
C1108 C 0.92769 0.01172 0.24741 0.0
C1109 C 0.02642 0.99454 0.2644 0.0
C1110 C 0.01759 0.02626 0.25881 0.0
C1111 C 0.9857 0.03103 0.2531 0.0
C1112 C 0.04047 0.05536 0.25938 0.0
C1113 C 0.06082 0.98745 0.27002 0.0
C1114 C 0.0515 0.06768 0.27242 0.0
C1115 C 0.07047 0.09703 0.27309 0.0
C1116 C 0.07844 0.11484 0.26073 0.0
C1117 C 0.06826 0.10178 0.24763 0.0
C1118 C 0.04935 0.07235 0.24698 0.0
H1119 H 0.06655 0.96012 0.26983 0.0
H1120 H 0.08009 0.00099 0.26384 0.0
H1121 H 0.06233 0.99604 0.28113 0.0
H1122 H 0.04439 0.05531 0.28214 0.0
H1123 H 0.07771 0.10645 0.28336 0.0
H1124 H 0.94076 0.1055 0.70504 0.0
H1125 H 0.97655 0.05827 0.71133 0.0
H1126 H 0.95356 0.07309 0.75527 0.0
H1127 H 0.91832 0.12125 0.74911 0.0
H1128 H 0.03196 0.04919 0.73648 0.0
H1129 H 0.91337 0.97626 0.73777 0.0
H1130 H 0.91664 0.01359 0.72703 0.0
H1131 H 0.91631 0.01726 0.74585 0.0
C1132 C 0.94416 0.09949 0.71609 0.0
C1133 C 0.92602 0.11653 0.72654 0.0
C1134 C 0.96456 0.07247 0.71965 0.0
C1135 C 0.96707 0.06199 0.73371 0.0
C1136 C 0.9516 0.0808 0.74435 0.0
H1137 H 0.07589 0.87145 0.74681 0.0
H1138 H 0.04066 0.91897 0.75379 0.0
C1139 C 0.93146 0.10826 0.74079 0.0
C1140 C 0.98233 0.02905 0.73672 0.0
H1141 H 0.96331 0.94536 0.73615 0.0
C1142 C 0.01706 0.02647 0.73688 0.0
C1143 C 0.96262 -0.0004 0.7371 0.0
C1144 C 0.92513 0.00148 0.73695 0.0
C1145 C 0.03267 0.99492 0.73664 0.0
C1146 C 0.01293 0.96552 0.73605 0.0
C1147 C 0.97823 0.96805 0.73669 0.0
C1148 C 0.02804 0.93288 0.73241 0.0
C1149 C 0.07013 0.99308 0.73603 0.0
C1150 C 0.03105 0.92421 0.71816 0.0
C1151 C 0.05143 0.89755 0.71414 0.0
C1152 C 0.0691 0.8791 0.72433 0.0
C1153 C 0.06314 0.88557 0.7387 0.0
C1154 C 0.04299 0.91264 0.74272 0.0
H1155 H 0.08196 0.0181 0.73744 0.0
H1156 H 0.07948 0.97584 0.74434 0.0
H1157 H 0.07797 0.98266 0.72569 0.0
H1158 H 0.01946 0.93954 0.71009 0.0
H1159 H 0.05521 0.89294 0.703 0.0
H1160 H 0.07975 0.384 0.01141 0.0
H1161 H 0.04508 0.43451 0.01256 0.0
H1162 H 0.04677 0.44194 0.96722 0.0
H1163 H 0.08133 0.39154 0.96589 0.0
H1164 H 0.05408 0.50259 0.00039 0.0
H1165 H 0.94616 0.43204 0.97876 0.0
H1166 H 0.98216 0.41138 0.98616 0.0
H1167 H 0.98402 0.42901 0.96875 0.0
C1168 C 0.07326 0.39668 0.00168 0.0
C1169 C 0.083 0.38348 0.98855 0.0
C1170 C 0.05341 0.42547 0.00238 0.0
C1171 C 0.04292 0.44137 0.98996 0.0
C1172 C 0.05423 0.42956 0.9769 0.0
H1173 H 0.91474 0.6034 0.96604 0.0
H1174 H 0.94835 0.55244 0.96767 0.0
C1175 C 0.07413 0.40086 0.97618 0.0
C1176 C 0.01884 0.46933 0.99058 0.0
H1177 H 0.93959 0.49091 0.98141 0.0
C1178 C 0.02896 0.5001 0.99635 0.0
C1179 C 0.98613 0.46571 0.98533 0.0
C1180 C 0.97374 0.4327 0.97949 0.0
C1181 C 0.00747 0.52789 0.99656 0.0
C1182 C 0.97484 0.52441 0.99113 0.0
C1183 C 0.96459 0.49342 0.98558 0.0
C1184 C 0.9516 0.55317 0.99043 0.0
C1185 C 0.02025 0.56103 0.00211 0.0
C1186 C 0.94116 0.56959 0.00275 0.0
C1187 C 0.92196 0.5988 0.00187 0.0
C1188 C 0.91275 0.61192 0.98865 0.0
C1189 C 0.92151 0.59411 0.97639 0.0
C1190 C 0.94078 0.565 0.97728 0.0
H1191 H 0.04783 0.56138 0.00287 0.0
H1192 H 0.0122 0.58214 0.99524 0.0
H1193 H 0.01001 0.56539 0.01281 0.0
H1194 H 0.94862 0.56033 0.01301 0.0
H1195 H 0.91542 0.61173 0.01153 0.0
H1196 H 0.44239 0.88715 0.04146 0.0
H1197 H 0.48006 0.9329 0.03524 0.0
H1198 H 0.45193 0.92345 0.99157 0.0
H1199 H 0.41455 0.87693 0.99766 0.0
H1200 H 0.53376 0.94227 0.01292 0.0
H1201 H 0.41882 0.01969 0.00682 0.0
H1202 H 0.41837 0.9804 0.01635 0.0
H1203 H 0.42215 0.98031 0.99753 0.0
C1204 C 0.44495 0.89405 0.03046 0.0
C1205 C 0.42489 0.87899 0.02011 0.0
C1206 C 0.46646 0.92022 0.02693 0.0
C1207 C 0.46816 0.93189 0.01301 0.0
C1208 C 0.45055 0.91495 0.00241 0.0
H1209 H 0.58248 0.11954 7e-05 0.0
H1210 H 0.54737 0.07178 0.99322 0.0
C1211 C 0.42925 0.88837 0.00592 0.0
C1212 C 0.48523 0.9641 0.0102 0.0
H1213 H 0.46967 0.04849 0.00847 0.0
C1214 C 0.51992 0.96544 0.01152 0.0
C1215 C 0.4669 0.99424 0.00852 0.0
C1216 C 0.42948 0.99394 0.00725 0.0
C1217 C 0.53666 0.99638 0.01189 0.0
C1218 C 0.51811 0.02651 0.01109 0.0
C1219 C 0.48366 0.0252 0.00899 0.0
C1220 C 0.53372 0.059 0.0146 0.0
C1221 C 0.57384 0.99688 0.01404 0.0
C1222 C 0.53617 0.06834 0.0288 0.0
C1223 C 0.55637 0.09521 0.03275 0.0
C1224 C 0.5745 0.11318 0.02255 0.0
C1225 C 0.56932 0.10585 0.00819 0.0
C1226 C 0.54926 0.07863 0.00424 0.0
H1227 H 0.58506 0.97148 0.01296 0.0
H1228 H 0.58572 0.01405 0.0063 0.0
H1229 H 0.57952 0.00662 0.02475 0.0
H1230 H 0.52411 0.0535 0.0369 0.0
H1231 H 0.55954 0.10044 0.04388 0.0
H1232 H 0.41517 0.39198 0.78387 0.0
H1233 H 0.44903 0.44279 0.78236 0.0
H1234 H 0.45147 0.43403 0.73707 0.0
H1235 H 0.41743 0.38317 0.73841 0.0
H1236 H 0.51428 0.44066 0.76977 0.0
H1237 H 0.43151 0.53518 0.74442 0.0
H1238 H 0.41559 0.4983 0.75327 0.0
H1239 H 0.43375 0.49465 0.73606 0.0
C1240 C 0.42221 0.40121 0.77355 0.0
C1241 C 0.41376 0.38333 0.76126 0.0
C1242 C 0.44166 0.4302 0.77273 0.0
C1243 C 0.45271 0.44205 0.75962 0.0
C1244 C 0.44286 0.42542 0.74728 0.0
H1245 H 0.58264 0.61064 0.73911 0.0
H1246 H 0.5509 0.55833 0.73744 0.0
C1247 C 0.42343 0.39633 0.74808 0.0
C1248 C 0.47698 0.46991 0.75902 0.0
H1249 H 0.48741 0.55099 0.74819 0.0
C1250 C 0.50846 0.46481 0.76505 0.0
C1251 C 0.46936 0.50112 0.7527 0.0
C1252 C 0.43566 0.50793 0.74631 0.0
C1253 C 0.53255 0.49029 0.76503 0.0
C1254 C 0.52466 0.52185 0.75905 0.0
C1255 C 0.4934 0.52671 0.75274 0.0
C1256 C 0.54756 0.55088 0.75999 0.0
C1257 C 0.56629 0.48309 0.77132 0.0
C1258 C 0.55678 0.56358 0.77322 0.0
C1259 C 0.57502 0.59333 0.77422 0.0
C1260 C 0.5841 0.61116 0.762 0.0
C1261 C 0.57611 0.59754 0.74873 0.0
C1262 C 0.55786 0.56773 0.74775 0.0
H1263 H 0.57181 0.45571 0.77135 0.0
H1264 H 0.58628 0.49634 0.76545 0.0
H1265 H 0.5667 0.49193 0.78241 0.0
H1266 H 0.54859 0.5513 0.7828 0.0
H1267 H 0.58064 0.60313 0.78461 0.0
H1268 H 0.55487 0.38659 0.20638 0.0
H1269 H 0.5168 0.4318 0.21284 0.0
H1270 H 0.54137 0.41791 0.25669 0.0
H1271 H 0.57903 0.37184 0.25035 0.0
H1272 H 0.46137 0.43976 0.2354 0.0
H1273 H 0.57738 0.5151 0.24233 0.0
H1274 H 0.57716 0.4769 0.23206 0.0
H1275 H 0.57365 0.47477 0.25087 0.0
C1276 C 0.5514 0.39235 0.21745 0.0
C1277 C 0.57068 0.37629 0.22782 0.0
C1278 C 0.52965 0.41821 0.22111 0.0
C1279 C 0.5269 0.42851 0.23519 0.0
C1280 C 0.54354 0.41044 0.24574 0.0
H1281 H 0.41356 0.61591 0.24989 0.0
H1282 H 0.4477 0.56717 0.25638 0.0
C1283 C 0.56506 0.38416 0.24209 0.0
C1284 C 0.5102 0.46074 0.23829 0.0
H1285 H 0.52698 0.54474 0.24089 0.0
C1286 C 0.47553 0.46264 0.23703 0.0
C1287 C 0.52895 0.4905 0.24026 0.0
C1288 C 0.56637 0.48957 0.24144 0.0
C1289 C 0.45923 0.49385 0.23702 0.0
C1290 C 0.47821 0.52365 0.23814 0.0
C1291 C 0.51265 0.52171 0.24014 0.0
C1292 C 0.46311 0.55659 0.235 0.0
C1293 C 0.42204 0.49506 0.2349 0.0
C1294 C 0.46202 0.56751 0.22097 0.0
C1295 C 0.44233 0.59492 0.21722 0.0
C1296 C 0.42338 0.61186 0.22745 0.0
C1297 C 0.4273 0.603 0.24173 0.0
C1298 C 0.44681 0.57521 0.24547 0.0
H1299 H 0.41054 0.46968 0.23537 0.0
H1300 H 0.4104 0.51122 0.24307 0.0
H1301 H 0.41642 0.5064 0.22447 0.0
H1302 H 0.47472 0.55347 0.21279 0.0
H1303 H 0.44017 0.60136 0.20615 0.0
H1304 H 0.41469 0.1105 0.51124 0.0
H1305 H 0.44816 0.05929 0.51271 0.0
H1306 H 0.44954 0.05247 0.46734 0.0
H1307 H 0.41566 0.10326 0.46572 0.0
H1308 H 0.44077 0.99057 0.48076 0.0
H1309 H 0.54769 0.06119 0.50325 0.0
H1310 H 0.50952 0.06479 0.51298 0.0
H1311 H 0.5122 0.0819 0.49548 0.0
C1312 C 0.42166 0.09785 0.50157 0.0
C1313 C 0.41282 0.11122 0.48835 0.0
C1314 C 0.44101 0.06875 0.50244 0.0
C1315 C 0.452 0.05269 0.49013 0.0
C1316 C 0.44155 0.06475 0.47696 0.0
H1317 H 0.58357 0.89144 0.46654 0.0
H1318 H 0.54886 0.94177 0.46752 0.0
C1319 C 0.42213 0.09376 0.47607 0.0
C1320 C 0.47539 0.02405 0.49087 0.0
H1321 H 0.55423 0.0024 0.5008 0.0
C1322 C 0.46555 0.99311 0.48515 0.0
C1323 C 0.50775 0.02759 0.49658 0.0
C1324 C 0.52014 0.0607 0.50232 0.0
C1325 C 0.4872 0.96548 0.48503 0.0
C1326 C 0.51961 0.96913 0.49061 0.0
C1327 C 0.52934 -0.00013 0.49652 0.0
C1328 C 0.54376 0.9412 0.49022 0.0
C1329 C 0.47521 0.9325 0.47902 0.0
C1330 C 0.55361 0.92532 0.50273 0.0
C1331 C 0.57356 0.89657 0.50224 0.0
C1332 C 0.58403 0.88338 0.4892 0.0
C1333 C 0.5758 0.90075 0.47675 0.0
C1334 C 0.55581 0.9294 0.47727 0.0
H1335 H 0.44769 0.93178 0.478 0.0
H1336 H 0.48611 0.92893 0.46837 0.0
H1337 H 0.4833 0.91114 0.48574 0.0
H1338 H 0.54472 0.93435 0.51283 0.0
H1339 H 0.57954 0.88391 0.51203 0.0
H1340 H 0.91335 0.37494 0.49629 0.0
H1341 H 0.94827 0.42267 0.48929 0.0
H1342 H 0.97808 0.43653 0.53254 0.0
H1343 H 0.94253 0.38978 0.53971 0.0
H1344 H 0.93416 0.49198 0.50965 0.0
H1345 H 0.06277 0.44513 0.50017 0.0
H1346 H 0.02632 0.42017 0.49618 0.0
H1347 H 0.03883 0.42609 0.51414 0.0
C1348 C 0.92786 0.38765 0.50427 0.0
C1349 C 0.92447 0.3792 0.51862 0.0
C1350 C 0.94783 0.41486 0.50024 0.0
C1351 C 0.96533 0.43316 0.51045 0.0
C1352 C 0.96461 0.42264 0.52454 0.0
H1353 H 0.05022 0.60787 0.53797 0.0
H1354 H 0.01225 0.56272 0.53134 0.0
C1355 C 0.94435 0.39589 0.5286 0.0
C1356 C 0.98066 0.46583 0.50702 0.0
H1357 H 0.05612 0.50394 0.5036 0.0
C1358 C 0.96071 0.4947 0.50796 0.0
C1359 C 0.01518 0.46907 0.50482 0.0
C1360 C 0.03722 0.43855 0.50368 0.0
C1361 C 0.97484 0.52694 0.50767 0.0
C1362 C 0.00968 0.53018 0.50644 0.0
C1363 C 0.02934 0.50133 0.50449 0.0
C1364 C 0.02674 0.56233 0.50938 0.0
C1365 C 0.95268 0.55725 0.50937 0.0
C1366 C 0.0464 0.57798 0.49907 0.0
C1367 C 0.06778 0.60431 0.5028 0.0
C1368 C 0.07054 0.61443 0.51697 0.0
C1369 C 0.04882 0.60046 0.52699 0.0
C1370 C 0.02709 0.57466 0.52322 0.0
H1371 H 0.92657 0.55152 0.50636 0.0
H1372 H 0.95284 0.56524 0.52058 0.0
H1373 H 0.9618 0.5786 0.50288 0.0
H1374 H 0.04639 0.56876 0.48833 0.0
H1375 H 0.08378 0.61489 0.49478 0.0
loop_
_geom_bond_atom_site_label_1
_geom_bond_atom_site_label_2
_geom_bond_distance
_geom_bond_site_symmetry_2
_ccdc_geom_bond_type
C0 O1 1.306 . S
C0 O3 1.160 . S
O1 C0 1.306 . S
O1 Cd2 2.228 . S
Cd2 O1 2.228 . S
Cd2 O6 2.273 . S
Cd2 O10 2.277 . S
O3 C0 1.160 . S
O3 Cd4 2.203 . S
Cd4 O3 2.203 . S
Cd4 O6 2.411 . S
Cd4 O7 2.333 . S
Cd4 O8 2.352 . S
Cd4 O12 2.277 . S
Cd4 O13 2.356 . S
C5 O10 1.209 . S
C5 O12 1.226 . S
O6 Cd2 2.273 . S
O6 Cd4 2.411 . S
O6 C9 1.320 . S
O7 Cd4 2.333 . S
O7 C9 1.214 . S
O8 Cd4 2.352 . S
O8 C11 1.258 . S
C9 O6 1.320 . S
C9 O7 1.214 . S
O10 Cd2 2.277 . S
O10 C5 1.209 . S
C11 O8 1.258 . S
C11 O13 1.282 . S
O12 Cd4 2.277 . S
O12 C5 1.226 . S
O13 Cd4 2.356 . S
O13 C11 1.282 . S
C14 O15 1.306 . S
C14 O17 1.160 . S
O15 C14 1.306 . S
O15 Cd16 2.228 . S
Cd16 O15 2.228 . S
Cd16 O20 2.273 . S
Cd16 O24 2.277 . S
O17 C14 1.160 . S
O17 Cd18 2.203 . S
Cd18 O17 2.203 . S
Cd18 O20 2.411 . S
Cd18 O21 2.333 . S
Cd18 O22 2.352 . S
Cd18 O26 2.277 . S
Cd18 O27 2.356 . S
C19 O24 1.209 . S
C19 O26 1.226 . S
O20 Cd16 2.273 . S
O20 Cd18 2.411 . S
O20 C23 1.320 . S
O21 Cd18 2.333 . S
O21 C23 1.214 . S
O22 Cd18 2.352 . S
O22 C25 1.258 . S
C23 O20 1.320 . S
C23 O21 1.214 . S
O24 Cd16 2.277 . S
O24 C19 1.209 . S
C25 O22 1.258 . S
C25 O27 1.282 . S
O26 Cd18 2.277 . S
O26 C19 1.226 . S
O27 Cd18 2.356 . S
O27 C25 1.282 . S
C28 O29 1.306 . S
C28 O31 1.160 . S
O29 C28 1.306 . S
O29 Cd30 2.228 . S
Cd30 O29 2.228 . S
Cd30 O34 2.273 . S
Cd30 O38 2.277 . S
O31 C28 1.160 . S
O31 Cd32 2.203 . S
Cd32 O31 2.203 . S
Cd32 O34 2.411 . S
Cd32 O35 2.333 . S
Cd32 O36 2.352 . S
Cd32 O40 2.277 . S
Cd32 O41 2.356 . S
C33 O38 1.209 . S
C33 O40 1.226 . S
O34 Cd30 2.273 . S
O34 Cd32 2.411 . S
O34 C37 1.320 . S
O35 Cd32 2.333 . S
O35 C37 1.214 . S
O36 Cd32 2.352 . S
O36 C39 1.258 . S
C37 O34 1.320 . S
C37 O35 1.214 . S
O38 Cd30 2.277 . S
O38 C33 1.209 . S
C39 O36 1.258 . S
C39 O41 1.282 . S
O40 Cd32 2.277 . S
O40 C33 1.226 . S
O41 Cd32 2.356 . S
O41 C39 1.282 . S
C42 O43 1.306 . S
C42 O45 1.160 . S
O43 C42 1.306 . S
O43 Cd44 2.228 . S
Cd44 O43 2.228 . S
Cd44 O48 2.273 . S
Cd44 O52 2.277 . S
O45 C42 1.160 . S
O45 Cd46 2.203 . S
Cd46 O45 2.203 . S
Cd46 O48 2.411 . S
Cd46 O49 2.333 . S
Cd46 O50 2.352 . S
Cd46 O54 2.277 . S
Cd46 O55 2.356 . S
C47 O52 1.209 . S
C47 O54 1.226 . S
O48 Cd44 2.273 . S
O48 Cd46 2.411 . S
O48 C51 1.320 . S
O49 Cd46 2.333 . S
O49 C51 1.214 . S
O50 Cd46 2.352 . S
O50 C53 1.258 . S
C51 O48 1.320 . S
C51 O49 1.214 . S
O52 Cd44 2.277 . S
O52 C47 1.209 . S
C53 O50 1.258 . S
C53 O55 1.282 . S
O54 Cd46 2.277 . S
O54 C47 1.226 . S
O55 Cd46 2.356 . S
O55 C53 1.282 . S
C56 O57 1.306 . S
C56 O59 1.160 . S
O57 C56 1.306 . S
O57 Cd58 2.228 . S
Cd58 O57 2.228 . S
Cd58 O62 2.273 . S
Cd58 O66 2.277 . S
O59 C56 1.160 . S
O59 Cd60 2.203 . S
Cd60 O59 2.203 . S
Cd60 O62 2.411 . S
Cd60 O63 2.333 . S
Cd60 O64 2.352 . S
Cd60 O68 2.277 . S
Cd60 O69 2.356 . S
C61 O66 1.209 . S
C61 O68 1.226 . S
O62 Cd58 2.273 . S
O62 Cd60 2.411 . S
O62 C65 1.320 . S
O63 Cd60 2.333 . S
O63 C65 1.214 . S
O64 Cd60 2.352 . S
O64 C67 1.258 . S
C65 O62 1.320 . S
C65 O63 1.214 . S
O66 Cd58 2.277 . S
O66 C61 1.209 . S
C67 O64 1.258 . S
C67 O69 1.282 . S
O68 Cd60 2.277 . S
O68 C61 1.226 . S
O69 Cd60 2.356 . S
O69 C67 1.282 . S
C70 O71 1.306 . S
C70 O73 1.160 . S
O71 C70 1.306 . S
O71 Cd72 2.228 . S
Cd72 O71 2.228 . S
Cd72 O76 2.273 . S
Cd72 O80 2.277 . S
O73 C70 1.160 . S
O73 Cd74 2.203 . S
Cd74 O73 2.203 . S
Cd74 O76 2.411 . S
Cd74 O77 2.333 . S
Cd74 O78 2.352 . S
Cd74 O82 2.277 . S
Cd74 O83 2.356 . S
C75 O80 1.209 . S
C75 O82 1.226 . S
O76 Cd72 2.273 . S
O76 Cd74 2.411 . S
O76 C79 1.320 . S
O77 Cd74 2.333 . S
O77 C79 1.214 . S
O78 Cd74 2.352 . S
O78 C81 1.258 . S
C79 O76 1.320 . S
C79 O77 1.214 . S
O80 Cd72 2.277 . S
O80 C75 1.209 . S
C81 O78 1.258 . S
C81 O83 1.282 . S
O82 Cd74 2.277 . S
O82 C75 1.226 . S
O83 Cd74 2.356 . S
O83 C81 1.282 . S
C84 O85 1.306 . S
C84 O87 1.160 . S
O85 C84 1.306 . S
O85 Cd86 2.228 . S
Cd86 O85 2.228 . S
Cd86 O90 2.273 . S
Cd86 O94 2.277 . S
O87 C84 1.160 . S
O87 Cd88 2.203 . S
Cd88 O87 2.203 . S
Cd88 O90 2.411 . S
Cd88 O91 2.333 . S
Cd88 O92 2.352 . S
Cd88 O96 2.277 . S
Cd88 O97 2.356 . S
C89 O94 1.209 . S
C89 O96 1.226 . S
O90 Cd86 2.273 . S
O90 Cd88 2.411 . S
O90 C93 1.320 . S
O91 Cd88 2.333 . S
O91 C93 1.214 . S
O92 Cd88 2.352 . S
O92 C95 1.258 . S
C93 O90 1.320 . S
C93 O91 1.214 . S
O94 Cd86 2.277 . S
O94 C89 1.209 . S
C95 O92 1.258 . S
C95 O97 1.282 . S
O96 Cd88 2.277 . S
O96 C89 1.226 . S
O97 Cd88 2.356 . S
O97 C95 1.282 . S
C98 O99 1.306 . S
C98 O101 1.160 . S
O99 C98 1.306 . S
O99 Cd100 2.228 . S
Cd100 O99 2.228 . S
Cd100 O104 2.273 . S
Cd100 O108 2.277 . S
O101 C98 1.160 . S
O101 Cd102 2.203 . S
Cd102 O101 2.203 . S
Cd102 O104 2.411 . S
Cd102 O105 2.333 . S
Cd102 O106 2.352 . S
Cd102 O110 2.277 . S
Cd102 O111 2.356 . S
C103 O108 1.209 . S
C103 O110 1.226 . S
O104 Cd100 2.273 . S
O104 Cd102 2.411 . S
O104 C107 1.320 . S
O105 Cd102 2.333 . S
O105 C107 1.214 . S
O106 Cd102 2.352 . S
O106 C109 1.258 . S
C107 O104 1.320 . S
C107 O105 1.214 . S
O108 Cd100 2.277 . S
O108 C103 1.209 . S
C109 O106 1.258 . S
C109 O111 1.282 . S
O110 Cd102 2.277 . S
O110 C103 1.226 . S
O111 Cd102 2.356 . S
O111 C109 1.282 . S
C112 O113 1.306 . S
C112 O115 1.160 . S
O113 C112 1.306 . S
O113 Cd114 2.228 . S
Cd114 O113 2.228 . S
Cd114 O118 2.273 . S
Cd114 O122 2.277 . S
O115 C112 1.160 . S
O115 Cd116 2.203 . S
Cd116 O115 2.203 . S
Cd116 O118 2.411 . S
Cd116 O119 2.333 . S
Cd116 O120 2.352 . S
Cd116 O124 2.277 . S
Cd116 O125 2.356 . S
C117 O122 1.209 . S
C117 O124 1.226 . S
O118 Cd114 2.273 . S
O118 Cd116 2.411 . S
O118 C121 1.320 . S
O119 Cd116 2.333 . S
O119 C121 1.214 . S
O120 Cd116 2.352 . S
O120 C123 1.258 . S
C121 O118 1.320 . S
C121 O119 1.214 . S
O122 Cd114 2.277 . S
O122 C117 1.209 . S
C123 O120 1.258 . S
C123 O125 1.282 . S
O124 Cd116 2.277 . S
O124 C117 1.226 . S
O125 Cd116 2.356 . S
O125 C123 1.282 . S
C126 O127 1.306 . S
C126 O129 1.160 . S
O127 C126 1.306 . S
O127 Cd128 2.228 . S
Cd128 O127 2.228 . S
Cd128 O132 2.273 . S
Cd128 O136 2.277 . S
O129 C126 1.160 . S
O129 Cd130 2.203 . S
Cd130 O129 2.203 . S
Cd130 O132 2.411 . S
Cd130 O133 2.333 . S
Cd130 O134 2.352 . S
Cd130 O138 2.277 . S
Cd130 O139 2.356 . S
C131 O136 1.209 . S
C131 O138 1.226 . S
O132 Cd128 2.273 . S
O132 Cd130 2.411 . S
O132 C135 1.320 . S
O133 Cd130 2.333 . S
O133 C135 1.214 . S
O134 Cd130 2.352 . S
O134 C137 1.258 . S
C135 O132 1.320 . S
C135 O133 1.214 . S
O136 Cd128 2.277 . S
O136 C131 1.209 . S
C137 O134 1.258 . S
C137 O139 1.282 . S
O138 Cd130 2.277 . S
O138 C131 1.226 . S
O139 Cd130 2.356 . S
O139 C137 1.282 . S
C140 O141 1.306 . S
C140 O143 1.160 . S
O141 C140 1.306 . S
O141 Cd142 2.228 . S
Cd142 O141 2.228 . S
Cd142 O146 2.273 . S
Cd142 O150 2.277 . S
O143 C140 1.160 . S
O143 Cd144 2.203 . S
Cd144 O143 2.203 . S
Cd144 O146 2.411 . S
Cd144 O147 2.333 . S
Cd144 O148 2.352 . S
Cd144 O152 2.277 . S
Cd144 O153 2.356 . S
C145 O150 1.209 . S
C145 O152 1.226 . S
O146 Cd142 2.273 . S
O146 Cd144 2.411 . S
O146 C149 1.320 . S
O147 Cd144 2.333 . S
O147 C149 1.214 . S
O148 Cd144 2.352 . S
O148 C151 1.258 . S
C149 O146 1.320 . S
C149 O147 1.214 . S
O150 Cd142 2.277 . S
O150 C145 1.209 . S
C151 O148 1.258 . S
C151 O153 1.282 . S
O152 Cd144 2.277 . S
O152 C145 1.226 . S
O153 Cd144 2.356 . S
O153 C151 1.282 . S
C154 O155 1.306 . S
C154 O157 1.160 . S
O155 C154 1.306 . S
O155 Cd156 2.228 . S
Cd156 O155 2.228 . S
Cd156 O160 2.273 . S
Cd156 O164 2.277 . S
O157 C154 1.160 . S
O157 Cd158 2.203 . S
Cd158 O157 2.203 . S
Cd158 O160 2.411 . S
Cd158 O161 2.333 . S
Cd158 O162 2.352 . S
Cd158 O166 2.277 . S
Cd158 O167 2.356 . S
C159 O164 1.209 . S
C159 O166 1.226 . S
O160 Cd156 2.273 . S
O160 Cd158 2.411 . S
O160 C163 1.320 . S
O161 Cd158 2.333 . S
O161 C163 1.214 . S
O162 Cd158 2.352 . S
O162 C165 1.258 . S
C163 O160 1.320 . S
C163 O161 1.214 . S
O164 Cd156 2.277 . S
O164 C159 1.209 . S
C165 O162 1.258 . S
C165 O167 1.282 . S
O166 Cd158 2.277 . S
O166 C159 1.226 . S
O167 Cd158 2.356 . S
O167 C165 1.282 . S
C168 O169 1.306 . S
C168 O171 1.160 . S
O169 C168 1.306 . S
O169 Cd170 2.228 . S
Cd170 O169 2.228 . S
Cd170 O174 2.273 . S
Cd170 O178 2.277 . S
O171 C168 1.160 . S
O171 Cd172 2.203 . S
Cd172 O171 2.203 . S
Cd172 O174 2.411 . S
Cd172 O175 2.333 . S
Cd172 O176 2.352 . S
Cd172 O180 2.277 . S
Cd172 O181 2.356 . S
C173 O178 1.209 . S
C173 O180 1.226 . S
O174 Cd170 2.273 . S
O174 Cd172 2.411 . S
O174 C177 1.320 . S
O175 Cd172 2.333 . S
O175 C177 1.214 . S
O176 Cd172 2.352 . S
O176 C179 1.258 . S
C177 O174 1.320 . S
C177 O175 1.214 . S
O178 Cd170 2.277 . S
O178 C173 1.209 . S
C179 O176 1.258 . S
C179 O181 1.282 . S
O180 Cd172 2.277 . S
O180 C173 1.226 . S
O181 Cd172 2.356 . S
O181 C179 1.282 . S
C182 O183 1.306 . S
C182 O185 1.160 . S
O183 C182 1.306 . S
O183 Cd184 2.228 . S
Cd184 O183 2.228 . S
Cd184 O188 2.273 . S
Cd184 O192 2.277 . S
O185 C182 1.160 . S
O185 Cd186 2.203 . S
Cd186 O185 2.203 . S
Cd186 O188 2.411 . S
Cd186 O189 2.333 . S
Cd186 O190 2.352 . S
Cd186 O194 2.277 . S
Cd186 O195 2.356 . S
C187 O192 1.209 . S
C187 O194 1.226 . S
O188 Cd184 2.273 . S
O188 Cd186 2.411 . S
O188 C191 1.320 . S
O189 Cd186 2.333 . S
O189 C191 1.214 . S
O190 Cd186 2.352 . S
O190 C193 1.258 . S
C191 O188 1.320 . S
C191 O189 1.214 . S
O192 Cd184 2.277 . S
O192 C187 1.209 . S
C193 O190 1.258 . S
C193 O195 1.282 . S
O194 Cd186 2.277 . S
O194 C187 1.226 . S
O195 Cd186 2.356 . S
O195 C193 1.282 . S
C196 O197 1.306 . S
C196 O199 1.160 . S
O197 C196 1.306 . S
O197 Cd198 2.228 . S
Cd198 O197 2.228 . S
Cd198 O202 2.273 . S
Cd198 O206 2.277 . S
O199 C196 1.160 . S
O199 Cd200 2.203 . S
Cd200 O199 2.203 . S
Cd200 O202 2.411 . S
Cd200 O203 2.333 . S
Cd200 O204 2.352 . S
Cd200 O208 2.277 . S
Cd200 O209 2.356 . S
C201 O206 1.209 . S
C201 O208 1.226 . S
O202 Cd198 2.273 . S
O202 Cd200 2.411 . S
O202 C205 1.320 . S
O203 Cd200 2.333 . S
O203 C205 1.214 . S
O204 Cd200 2.352 . S
O204 C207 1.258 . S
C205 O202 1.320 . S
C205 O203 1.214 . S
O206 Cd198 2.277 . S
O206 C201 1.209 . S
C207 O204 1.258 . S
C207 O209 1.282 . S
O208 Cd200 2.277 . S
O208 C201 1.226 . S
O209 Cd200 2.356 . S
O209 C207 1.282 . S
C210 O211 1.306 . S
C210 O213 1.160 . S
O211 C210 1.306 . S
O211 Cd212 2.228 . S
Cd212 O211 2.228 . S
Cd212 O216 2.273 . S
Cd212 O220 2.277 . S
O213 C210 1.160 . S
O213 Cd214 2.203 . S
Cd214 O213 2.203 . S
Cd214 O216 2.411 . S
Cd214 O217 2.333 . S
Cd214 O218 2.352 . S
Cd214 O222 2.277 . S
Cd214 O223 2.356 . S
C215 O220 1.209 . S
C215 O222 1.226 . S
O216 Cd212 2.273 . S
O216 Cd214 2.411 . S
O216 C219 1.320 . S
O217 Cd214 2.333 . S
O217 C219 1.214 . S
O218 Cd214 2.352 . S
O218 C221 1.258 . S
C219 O216 1.320 . S
C219 O217 1.214 . S
O220 Cd212 2.277 . S
O220 C215 1.209 . S
C221 O218 1.258 . S
C221 O223 1.282 . S
O222 Cd214 2.277 . S
O222 C215 1.226 . S
O223 Cd214 2.356 . S
O223 C221 1.282 . S
H224 C232 0.929 . S
H225 C234 0.930 . S
H226 C236 0.930 . S
H227 C239 0.929 . S
H228 C242 0.930 . S
H229 C244 0.960 . S
H230 C244 0.960 . S
H231 C244 0.960 . S
C232 H224 0.929 . S
C232 C233 1.377 . S
C232 C234 1.384 . S
C233 C232 1.377 . S
C233 C239 1.390 . S
C234 H225 0.930 . S
C234 C232 1.384 . S
C234 C235 1.372 . S
C235 C234 1.372 . S
C235 C236 1.400 . S
C235 C240 1.490 . S
C236 H226 0.930 . S
C236 C235 1.400 . S
C236 C239 1.386 . S
H237 C253 0.930 . S
H238 C254 0.931 . S
C239 H227 0.929 . S
C239 C233 1.390 . S
C239 C236 1.386 . S
C240 C235 1.490 . S
C240 C242 1.395 . S
C240 C243 1.403 . S
H241 C247 0.930 . S
C242 H228 0.930 . S
C242 C240 1.395 . S
C242 C245 1.403 . S
C243 C240 1.403 . S
C243 C244 1.524 . S
C243 C247 1.400 . S
C244 H229 0.960 . S
C244 H230 0.960 . S
C244 H231 0.960 . S
C244 C243 1.524 . S
C245 C242 1.403 . S
C245 C246 1.392 . S
C245 C249 1.495 . S
C246 C245 1.392 . S
C246 C247 1.385 . S
C246 C248 1.478 . S
C247 H241 0.930 . S
C247 C243 1.400 . S
C247 C246 1.385 . S
C248 C246 1.478 . S
C248 C250 1.381 . S
C248 C254 1.383 . S
C249 C245 1.495 . S
C249 H255 0.959 . S
C249 H256 0.961 . S
C249 H257 0.960 . S
C250 C248 1.381 . S
C250 C251 1.394 . S
C250 H258 0.930 . S
C251 C250 1.394 . S
C251 C252 1.383 . S
C251 H259 0.929 . S
C252 C251 1.383 . S
C252 C253 1.377 . S
C253 H237 0.930 . S
C253 C252 1.377 . S
C253 C254 1.379 . S
C254 H238 0.931 . S
C254 C248 1.383 . S
C254 C253 1.379 . S
H255 C249 0.959 . S
H256 C249 0.961 . S
H257 C249 0.960 . S
H258 C250 0.930 . S
H259 C251 0.929 . S
H260 C268 0.929 . S
H261 C270 0.930 . S
H262 C272 0.930 . S
H263 C275 0.929 . S
H264 C278 0.930 . S
H265 C280 0.960 . S
H266 C280 0.960 . S
H267 C280 0.960 . S
C268 H260 0.929 . S
C268 C269 1.377 . S
C268 C270 1.384 . S
C269 C268 1.377 . S
C269 C275 1.390 . S
C270 H261 0.930 . S
C270 C268 1.384 . S
C270 C271 1.372 . S
C271 C270 1.372 . S
C271 C272 1.400 . S
C271 C276 1.490 . S
C272 H262 0.930 . S
C272 C271 1.400 . S
C272 C275 1.386 . S
H273 C289 0.930 . S
H274 C290 0.931 . S
C275 H263 0.929 . S
C275 C269 1.390 . S
C275 C272 1.386 . S
C276 C271 1.490 . S
C276 C278 1.395 . S
C276 C279 1.403 . S
H277 C283 0.930 . S
C278 H264 0.930 . S
C278 C276 1.395 . S
C278 C281 1.403 . S
C279 C276 1.403 . S
C279 C280 1.524 . S
C279 C283 1.400 . S
C280 H265 0.960 . S
C280 H266 0.960 . S
C280 H267 0.960 . S
C280 C279 1.524 . S
C281 C278 1.403 . S
C281 C282 1.392 . S
C281 C285 1.495 . S
C282 C281 1.392 . S
C282 C283 1.385 . S
C282 C284 1.478 . S
C283 H277 0.930 . S
C283 C279 1.400 . S
C283 C282 1.385 . S
C284 C282 1.478 . S
C284 C286 1.381 . S
C284 C290 1.383 . S
C285 C281 1.495 . S
C285 H291 0.959 . S
C285 H292 0.961 . S
C285 H293 0.960 . S
C286 C284 1.381 . S
C286 C287 1.394 . S
C286 H294 0.930 . S
C287 C286 1.394 . S
C287 C288 1.383 . S
C287 H295 0.929 . S
C288 C287 1.383 . S
C288 C289 1.377 . S
C289 H273 0.930 . S
C289 C288 1.377 . S
C289 C290 1.379 . S
C290 H274 0.931 . S
C290 C284 1.383 . S
C290 C289 1.379 . S
H291 C285 0.959 . S
H292 C285 0.961 . S
H293 C285 0.960 . S
H294 C286 0.930 . S
H295 C287 0.929 . S
H296 C304 0.929 . S
H297 C306 0.930 . S
H298 C308 0.930 . S
H299 C311 0.929 . S
H300 C314 0.930 . S
H301 C316 0.960 . S
H302 C316 0.960 . S
H303 C316 0.960 . S
C304 H296 0.929 . S
C304 C305 1.377 . S
C304 C306 1.384 . S
C305 C304 1.377 . S
C305 C311 1.390 . S
C306 H297 0.930 . S
C306 C304 1.384 . S
C306 C307 1.372 . S
C307 C306 1.372 . S
C307 C308 1.400 . S
C307 C312 1.490 . S
C308 H298 0.930 . S
C308 C307 1.400 . S
C308 C311 1.386 . S
H309 C325 0.930 . S
H310 C326 0.931 . S
C311 H299 0.929 . S
C311 C305 1.390 . S
C311 C308 1.386 . S
C312 C307 1.490 . S
C312 C314 1.395 . S
C312 C315 1.403 . S
H313 C319 0.930 . S
C314 H300 0.930 . S
C314 C312 1.395 . S
C314 C317 1.403 . S
C315 C312 1.403 . S
C315 C316 1.524 . S
C315 C319 1.400 . S
C316 H301 0.960 . S
C316 H302 0.960 . S
C316 H303 0.960 . S
C316 C315 1.524 . S
C317 C314 1.403 . S
C317 C318 1.392 . S
C317 C321 1.495 . S
C318 C317 1.392 . S
C318 C319 1.385 . S
C318 C320 1.478 . S
C319 H313 0.930 . S
C319 C315 1.400 . S
C319 C318 1.385 . S
C320 C318 1.478 . S
C320 C322 1.381 . S
C320 C326 1.383 . S
C321 C317 1.495 . S
C321 H327 0.959 . S
C321 H328 0.961 . S
C321 H329 0.960 . S
C322 C320 1.381 . S
C322 C323 1.394 . S
C322 H330 0.930 . S
C323 C322 1.394 . S
C323 C324 1.383 . S
C323 H331 0.929 . S
C324 C323 1.383 . S
C324 C325 1.377 . S
C325 H309 0.930 . S
C325 C324 1.377 . S
C325 C326 1.379 . S
C326 H310 0.931 . S
C326 C320 1.383 . S
C326 C325 1.379 . S
H327 C321 0.959 . S
H328 C321 0.961 . S
H329 C321 0.960 . S
H330 C322 0.930 . S
H331 C323 0.929 . S
H332 C340 0.929 . S
H333 C342 0.930 . S
H334 C344 0.930 . S
H335 C347 0.929 . S
H336 C350 0.930 . S
H337 C352 0.960 . S
H338 C352 0.960 . S
H339 C352 0.960 . S
C340 H332 0.929 . S
C340 C341 1.377 . S
C340 C342 1.384 . S
C341 C340 1.377 . S
C341 C347 1.390 . S
C342 H333 0.930 . S
C342 C340 1.384 . S
C342 C343 1.372 . S
C343 C342 1.372 . S
C343 C344 1.400 . S
C343 C348 1.490 . S
C344 H334 0.930 . S
C344 C343 1.400 . S
C344 C347 1.386 . S
H345 C361 0.930 . S
H346 C362 0.931 . S
C347 H335 0.929 . S
C347 C341 1.390 . S
C347 C344 1.386 . S
C348 C343 1.490 . S
C348 C350 1.395 . S
C348 C351 1.403 . S
H349 C355 0.930 . S
C350 H336 0.930 . S
C350 C348 1.395 . S
C350 C353 1.403 . S
C351 C348 1.403 . S
C351 C352 1.524 . S
C351 C355 1.400 . S
C352 H337 0.960 . S
C352 H338 0.960 . S
C352 H339 0.960 . S
C352 C351 1.524 . S
C353 C350 1.403 . S
C353 C354 1.392 . S
C353 C357 1.495 . S
C354 C353 1.392 . S
C354 C355 1.385 . S
C354 C356 1.478 . S
C355 H349 0.930 . S
C355 C351 1.400 . S
C355 C354 1.385 . S
C356 C354 1.478 . S
C356 C358 1.381 . S
C356 C362 1.383 . S
C357 C353 1.495 . S
C357 H363 0.959 . S
C357 H364 0.961 . S
C357 H365 0.960 . S
C358 C356 1.381 . S
C358 C359 1.394 . S
C358 H366 0.930 . S
C359 C358 1.394 . S
C359 C360 1.383 . S
C359 H367 0.929 . S
C360 C359 1.383 . S
C360 C361 1.377 . S
C361 H345 0.930 . S
C361 C360 1.377 . S
C361 C362 1.379 . S
C362 H346 0.931 . S
C362 C356 1.383 . S
C362 C361 1.379 . S
H363 C357 0.959 . S
H364 C357 0.961 . S
H365 C357 0.960 . S
H366 C358 0.930 . S
H367 C359 0.929 . S
H368 C376 0.929 1_565 S
H369 C378 0.930 . S
H370 C380 0.930 1_556 S
H371 C383 0.929 . S
H372 C386 0.930 . S
H373 C388 0.960 . S
H374 C388 1.012 . S
H375 C388 0.960 . S
C376 H368 0.929 1_545 S
C376 C377 1.377 1_545 S
C376 C378 1.384 . S
C377 C376 1.377 1_565 S
C377 C383 1.390 . S
C378 H369 0.930 . S
C378 C376 1.384 . S
C378 C379 1.372 . S
C379 C378 1.372 . S
C379 C380 1.400 . S
C379 C384 1.490 . S
C380 H370 0.930 1_554 S
C380 C379 1.400 . S
C380 C383 1.386 1_545 S
H381 C397 0.930 . S
H382 C398 0.931 . S
C383 H371 0.929 . S
C383 C377 1.390 . S
C383 C380 1.386 1_565 S
C384 C379 1.490 . S
C384 C386 1.395 . S
C384 C387 1.371 1_554 S
H385 C391 0.930 . S
C386 H372 0.930 . S
C386 C384 1.395 . S
C386 C389 1.403 . S
C387 C384 1.371 1_556 S
C387 C388 1.543 . S
C387 C391 1.413 . S
C388 H373 0.960 . S
C388 H374 1.012 . S
C388 H375 0.960 . S
C388 C387 1.543 . S
C389 C386 1.403 . S
C389 C390 1.392 . S
C389 C393 1.495 . S
C390 C389 1.392 . S
C390 C391 1.385 1_554 S
C390 C392 1.478 1_554 S
C391 H385 0.930 . S
C391 C387 1.413 . S
C391 C390 1.385 1_556 S
C392 C390 1.478 1_556 S
C392 C394 1.381 1_556 S
C392 C398 1.383 . S
C393 C389 1.495 . S
C393 H399 0.959 . S
C393 H400 0.961 . S
C393 H401 0.960 . S
C394 C392 1.381 1_554 S
C394 C395 1.394 1_554 S
C394 H402 0.930 . S
C395 C394 1.394 1_556 S
C395 C396 1.383 . S
C395 H403 0.929 1_556 S
C396 C395 1.383 . S
C396 C397 1.377 . S
C397 H381 0.930 . S
C397 C396 1.377 . S
C397 C398 1.379 . S
C398 H382 0.931 . S
C398 C392 1.383 . S
C398 C397 1.379 . S
H399 C393 0.959 . S
H400 C393 0.961 . S
H401 C393 0.960 . S
H402 C394 0.930 . S
H403 C395 0.929 1_554 S
H404 C412 0.929 1_556 S
H405 C414 0.930 . S
H406 C416 0.930 . S
H407 C419 0.929 . S
H408 C422 0.930 . S
H409 C424 0.960 . S
H410 C424 0.960 . S
H411 C424 0.960 . S
C412 H404 0.929 1_554 S
C412 C413 1.377 . S
C412 C414 1.384 1_554 S
C413 C412 1.377 . S
C413 C419 1.390 . S
C414 H405 0.930 . S
C414 C412 1.384 1_556 S
C414 C415 1.372 1_556 S
C415 C414 1.372 1_554 S
C415 C416 1.400 . S
C415 C420 1.490 1_554 S
C416 H406 0.930 . S
C416 C415 1.400 . S
C416 C419 1.386 . S
H417 C433 0.930 . S
H418 C434 0.985 . S
C419 H407 0.929 . S
C419 C413 1.390 . S
C419 C416 1.386 . S
C420 C415 1.490 1_556 S
C420 C422 1.395 . S
C420 C423 1.403 1_556 S
H421 C427 0.937 . S
C422 H408 0.930 . S
C422 C420 1.395 . S
C422 C425 1.403 . S
C423 C420 1.403 1_554 S
C423 C424 1.524 . S
C423 C427 1.400 1_554 S
C424 H409 0.960 . S
C424 H410 0.960 . S
C424 H411 0.960 . S
C424 C423 1.524 . S
C425 C422 1.403 . S
C425 C426 1.392 . S
C425 C429 1.495 . S
C426 C425 1.392 . S
C426 C427 1.385 . S
C426 C428 1.478 . S
C427 H421 0.937 . S
C427 C423 1.400 1_556 S
C427 C426 1.385 . S
C428 C426 1.478 . S
C428 C430 1.381 . S
C428 C434 1.383 . S
C429 C425 1.495 . S
C429 H435 0.959 . S
C429 H436 0.961 . S
C429 H437 0.960 . S
C430 C428 1.381 . S
C430 C431 1.394 . S
C430 H438 0.930 . S
C431 C430 1.394 . S
C431 C432 1.383 1_455 S
C431 H439 0.929 . S
C432 C431 1.383 1_655 S
C432 C433 1.377 . S
C433 H417 0.930 . S
C433 C432 1.377 . S
C433 C434 1.379 1_655 S
C434 H418 0.985 . S
C434 C428 1.383 . S
C434 C433 1.379 1_455 S
H435 C429 0.959 . S
H436 C429 0.961 . S
H437 C429 0.960 . S
H438 C430 0.930 . S
H439 C431 0.929 . S
H440 C448 0.929 1_554 S
H441 C450 0.930 . S
H442 C452 0.930 . S
H443 C455 0.929 . S
H444 C458 0.930 . S
H445 C460 0.960 . S
H446 C460 0.960 . S
H447 C460 0.960 . S
C448 H440 0.929 1_556 S
C448 C449 1.377 . S
C448 C450 1.384 1_556 S
C449 C448 1.377 . S
C449 C455 1.390 . S
C450 H441 0.930 . S
C450 C448 1.384 1_554 S
C450 C451 1.372 1_554 S
C451 C450 1.372 1_556 S
C451 C452 1.400 . S
C451 C456 1.489 1_556 S
C452 H442 0.930 . S
C452 C451 1.400 . S
C452 C455 1.386 . S
H453 C469 0.930 . S
H454 C470 0.931 1_556 S
C455 H443 0.929 . S
C455 C449 1.390 . S
C455 C452 1.386 . S
C456 C451 1.489 1_554 S
C456 C458 1.395 . S
C456 C459 1.402 1_554 S
H457 C463 0.940 . S
C458 H444 0.930 . S
C458 C456 1.395 . S
C458 C461 1.403 . S
C459 C456 1.402 1_556 S
C459 C460 1.524 . S
C459 C463 1.400 1_556 S
C460 H445 0.960 . S
C460 H446 0.960 . S
C460 H447 0.960 . S
C460 C459 1.524 . S
C461 C458 1.403 . S
C461 C462 1.392 . S
C461 C465 1.495 . S
C462 C461 1.392 . S
C462 C463 1.385 . S
C462 C464 1.478 . S
C463 H457 0.940 . S
C463 C459 1.400 1_554 S
C463 C462 1.385 . S
C464 C462 1.478 . S
C464 C466 1.381 . S
C464 C470 1.383 . S
C465 C461 1.495 . S
C465 H471 0.959 . S
C465 H472 0.961 . S
C465 H473 0.960 . S
C466 C464 1.381 . S
C466 C467 1.394 . S
C466 H474 0.930 . S
C467 C466 1.394 . S
C467 C468 1.383 1_565 S
C467 H475 0.929 . S
C468 C467 1.383 1_545 S
C468 C469 1.377 . S
C469 H453 0.930 . S
C469 C468 1.377 . S
C469 C470 1.379 1_545 S
C470 H454 0.931 1_554 S
C470 C464 1.383 . S
C470 C469 1.379 1_565 S
H471 C465 0.959 . S
H472 C465 0.961 . S
H473 C465 0.960 . S
H474 C466 0.930 . S
H475 C467 0.929 . S
H476 C484 0.929 1_556 S
H477 C486 0.930 . S
H478 C488 0.930 . S
H479 C491 0.929 . S
H480 C494 0.930 . S
H481 C496 0.960 . S
H482 C496 0.960 1_556 S
H483 C496 0.960 . S
C484 H476 0.929 1_554 S
C484 C485 1.377 . S
C484 C486 1.384 1_554 S
C485 C484 1.377 . S
C485 C491 1.390 . S
C486 H477 0.930 . S
C486 C484 1.384 1_556 S
C486 C487 1.372 1_556 S
C487 C486 1.372 1_554 S
C487 C488 1.400 . S
C487 C492 1.490 1_554 S
C488 H478 0.930 . S
C488 C487 1.400 . S
C488 C491 1.386 . S
H489 C505 0.930 . S
H490 C506 0.851 1_554 S
C491 H479 0.929 . S
C491 C485 1.390 . S
C491 C488 1.386 . S
C492 C487 1.490 1_556 S
C492 C494 1.395 . S
C492 C495 1.403 . S
H493 C499 0.930 . S
C494 H480 0.930 . S
C494 C492 1.395 . S
C494 C497 1.403 . S
C495 C492 1.403 . S
C495 C496 1.524 1_556 S
C495 C499 1.400 . S
C496 H481 0.960 . S
C496 H482 0.960 1_554 S
C496 H483 0.960 . S
C496 C495 1.524 1_554 S
C497 C494 1.403 . S
C497 C498 1.392 . S
C497 C501 1.495 . S
C498 C497 1.392 . S
C498 C499 1.385 . S
C498 C500 1.478 . S
C499 H493 0.930 . S
C499 C495 1.400 . S
C499 C498 1.385 . S
C500 C498 1.478 . S
C500 C502 1.381 . S
C500 C506 1.383 . S
C501 C497 1.495 . S
C501 H507 0.959 . S
C501 H508 0.961 . S
C501 H509 0.960 . S
C502 C500 1.381 . S
C502 C503 1.394 . S
C502 H510 0.930 . S
C503 C502 1.394 . S
C503 C504 1.383 1_655 S
C503 H511 0.929 . S
C504 C503 1.383 1_455 S
C504 C505 1.377 . S
C505 H489 0.930 . S
C505 C504 1.377 . S
C505 C506 1.379 1_455 S
C506 H490 0.851 1_556 S
C506 C500 1.383 . S
C506 C505 1.379 1_655 S
H507 C501 0.959 . S
H508 C501 0.961 . S
H509 C501 0.960 . S
H510 C502 0.930 . S
H511 C503 0.929 . S
H512 C520 0.929 . S
H513 C522 0.930 . S
H514 C524 0.930 . S
H515 C527 0.929 . S
H516 C530 0.930 . S
H517 C532 0.960 . S
H518 C532 0.960 . S
H519 C532 0.960 . S
C520 H512 0.929 . S
C520 C521 1.377 . S
C520 C522 1.384 . S
C521 C520 1.377 . S
C521 C527 1.390 . S
C522 H513 0.930 . S
C522 C520 1.384 . S
C522 C523 1.372 . S
C523 C522 1.372 . S
C523 C524 1.400 . S
C523 C528 1.490 . S
C524 H514 0.930 . S
C524 C523 1.400 . S
C524 C527 1.386 . S
H525 C541 0.930 . S
H526 C542 0.931 . S
C527 H515 0.929 . S
C527 C521 1.390 . S
C527 C524 1.386 . S
C528 C523 1.490 . S
C528 C530 1.395 . S
C528 C531 1.403 . S
H529 C535 0.930 . S
C530 H516 0.930 . S
C530 C528 1.395 . S
C530 C533 1.403 . S
C531 C528 1.403 . S
C531 C532 1.524 . S
C531 C535 1.400 . S
C532 H517 0.960 . S
C532 H518 0.960 . S
C532 H519 0.960 . S
C532 C531 1.524 . S
C533 C530 1.403 . S
C533 C534 1.392 . S
C533 C537 1.495 . S
C534 C533 1.392 . S
C534 C535 1.385 . S
C534 C536 1.478 . S
C535 H529 0.930 . S
C535 C531 1.400 . S
C535 C534 1.385 . S
C536 C534 1.478 . S
C536 C538 1.381 . S
C536 C542 1.383 . S
C537 C533 1.495 . S
C537 H543 0.959 . S
C537 H544 0.961 . S
C537 H545 0.960 . S
C538 C536 1.381 . S
C538 C539 1.394 1_565 S
C538 H546 0.930 . S
C539 C538 1.394 1_545 S
C539 C540 1.383 . S
C539 H547 0.929 . S
C540 C539 1.383 . S
C540 C541 1.377 1_545 S
C541 H525 0.930 . S
C541 C540 1.377 1_565 S
C541 C542 1.379 . S
C542 H526 0.931 . S
C542 C536 1.383 . S
C542 C541 1.379 . S
H543 C537 0.959 . S
H544 C537 0.961 . S
H545 C537 0.960 . S
H546 C538 0.930 . S
H547 C539 0.929 . S
H548 C556 0.929 1_455 S
H549 C558 0.930 . S
H550 C560 0.930 . S
H551 C563 0.929 . S
H552 C566 0.930 . S
H553 C568 0.960 . S
H554 C568 0.960 . S
H555 C568 0.960 . S
C556 H548 0.929 1_655 S
C556 C557 1.377 1_655 S
C556 C558 1.384 . S
C557 C556 1.377 1_455 S
C557 C563 1.390 . S
C558 H549 0.930 . S
C558 C556 1.384 . S
C558 C559 1.372 . S
C559 C558 1.372 . S
C559 C560 1.400 . S
C559 C564 1.490 . S
C560 H550 0.930 . S
C560 C559 1.400 . S
C560 C563 1.386 1_655 S
H561 C577 0.930 . S
H562 C578 0.931 . S
C563 H551 0.929 . S
C563 C557 1.390 . S
C563 C560 1.386 1_455 S
C564 C559 1.490 . S
C564 C566 1.395 . S
C564 C567 1.403 . S
H565 C571 0.930 . S
C566 H552 0.930 . S
C566 C564 1.395 . S
C566 C569 1.403 . S
C567 C564 1.403 . S
C567 C568 1.524 . S
C567 C571 1.400 . S
C568 H553 0.960 . S
C568 H554 0.960 . S
C568 H555 0.960 . S
C568 C567 1.524 . S
C569 C566 1.403 . S
C569 C570 1.392 . S
C569 C573 1.495 . S
C570 C569 1.392 . S
C570 C571 1.385 . S
C570 C572 1.478 . S
C571 H565 0.930 . S
C571 C567 1.400 . S
C571 C570 1.385 . S
C572 C570 1.478 . S
C572 C574 1.381 . S
C572 C578 1.383 . S
C573 C569 1.495 . S
C573 H579 0.959 . S
C573 H580 0.961 . S
C573 H581 0.960 . S
C574 C572 1.381 . S
C574 C575 1.394 . S
C574 H582 0.930 . S
C575 C574 1.394 . S
C575 C576 1.383 . S
C575 H583 0.929 . S
C576 C575 1.383 . S
C576 C577 1.377 . S
C577 H561 0.930 . S
C577 C576 1.377 . S
C577 C578 1.379 . S
C578 H562 0.931 . S
C578 C572 1.383 . S
C578 C577 1.379 . S
H579 C573 0.959 . S
H580 C573 0.961 . S
H581 C573 0.960 . S
H582 C574 0.930 . S
H583 C575 0.929 . S
H584 C592 0.929 . S
H585 C594 0.930 . S
H586 C596 0.930 . S
H587 C599 0.929 . S
H588 C602 0.930 . S
H589 C604 0.960 . S
H590 C604 0.960 . S
H591 C604 0.960 . S
C592 H584 0.929 . S
C592 C593 1.377 . S
C592 C594 1.384 1_565 S
C593 C592 1.377 . S
C593 C599 1.390 1_565 S
C594 H585 0.930 . S
C594 C592 1.384 1_545 S
C594 C595 1.372 . S
C595 C594 1.372 . S
C595 C596 1.400 . S
C595 C600 1.490 . S
C596 H586 0.930 . S
C596 C595 1.400 . S
C596 C599 1.386 . S
H597 C613 0.930 . S
H598 C614 0.931 . S
C599 H587 0.929 . S
C599 C593 1.390 1_545 S
C599 C596 1.386 . S
C600 C595 1.490 . S
C600 C602 1.395 . S
C600 C603 1.403 . S
H601 C607 0.930 . S
C602 H588 0.930 . S
C602 C600 1.395 . S
C602 C605 1.403 . S
C603 C600 1.403 . S
C603 C604 1.524 . S
C603 C607 1.400 . S
C604 H589 0.960 . S
C604 H590 0.960 . S
C604 H591 0.960 . S
C604 C603 1.524 . S
C605 C602 1.403 . S
C605 C606 1.392 . S
C605 C609 1.495 . S
C606 C605 1.392 . S
C606 C607 1.385 . S
C606 C608 1.478 . S
C607 H601 0.930 . S
C607 C603 1.400 . S
C607 C606 1.385 . S
C608 C606 1.478 . S
C608 C610 1.381 . S
C608 C614 1.383 . S
C609 C605 1.495 . S
C609 H615 0.959 . S
C609 H616 0.961 . S
C609 H617 0.960 . S
C610 C608 1.381 . S
C610 C611 1.394 . S
C610 H618 0.930 . S
C611 C610 1.394 . S
C611 C612 1.383 . S
C611 H619 0.929 . S
C612 C611 1.383 . S
C612 C613 1.377 . S
C613 H597 0.930 . S
C613 C612 1.377 . S
C613 C614 1.379 . S
C614 H598 0.931 . S
C614 C608 1.383 . S
C614 C613 1.379 . S
H615 C609 0.959 . S
H616 C609 0.961 . S
H617 C609 0.960 . S
H618 C610 0.930 . S
H619 C611 0.929 . S
H620 C628 0.929 . S
H621 C630 0.930 . S
H622 C632 0.930 . S
H623 C635 0.929 . S
H624 C638 0.930 . S
H625 C640 0.960 . S
H626 C640 0.960 . S
H627 C640 0.960 . S
C628 H620 0.929 . S
C628 C629 1.377 . S
C628 C630 1.384 1_655 S
C629 C628 1.377 . S
C629 C635 1.390 1_655 S
C630 H621 0.930 . S
C630 C628 1.384 1_455 S
C630 C631 1.372 . S
C631 C630 1.372 . S
C631 C632 1.400 . S
C631 C636 1.490 . S
C632 H622 0.930 . S
C632 C631 1.400 . S
C632 C635 1.386 . S
H633 C649 0.930 . S
H634 C650 0.931 . S
C635 H623 0.929 . S
C635 C629 1.390 1_455 S
C635 C632 1.386 . S
C636 C631 1.490 . S
C636 C638 1.395 . S
C636 C639 1.403 . S
H637 C643 0.930 . S
C638 H624 0.930 . S
C638 C636 1.395 . S
C638 C641 1.403 . S
C639 C636 1.403 . S
C639 C640 1.524 . S
C639 C643 1.400 . S
C640 H625 0.960 . S
C640 H626 0.960 . S
C640 H627 0.960 . S
C640 C639 1.524 . S
C641 C638 1.403 . S
C641 C642 1.392 . S
C641 C645 1.495 . S
C642 C641 1.392 . S
C642 C643 1.385 . S
C642 C644 1.478 . S
C643 H637 0.930 . S
C643 C639 1.400 . S
C643 C642 1.385 . S
C644 C642 1.478 . S
C644 C646 1.381 . S
C644 C650 1.383 . S
C645 C641 1.495 . S
C645 H651 0.959 . S
C645 H652 0.961 . S
C645 H653 0.960 . S
C646 C644 1.381 . S
C646 C647 1.394 . S
C646 H654 0.930 . S
C647 C646 1.394 . S
C647 C648 1.383 . S
C647 H655 0.929 . S
C648 C647 1.383 . S
C648 C649 1.377 . S
C649 H633 0.930 . S
C649 C648 1.377 . S
C649 C650 1.379 . S
C650 H634 0.931 . S
C650 C644 1.383 . S
C650 C649 1.379 . S
H651 C645 0.959 . S
H652 C645 0.961 . S
H653 C645 0.960 . S
H654 C646 0.930 . S
H655 C647 0.929 . S
H656 C664 0.929 . S
H657 C666 0.930 . S
H658 C668 0.930 . S
H659 C671 0.929 . S
H660 C674 0.930 . S
H661 C676 0.960 . S
H662 C676 0.960 . S
H663 C676 0.960 . S
C664 H656 0.929 . S
C664 C665 1.377 . S
C664 C666 1.384 . S
C665 C664 1.377 . S
C665 C671 1.390 . S
C666 H657 0.930 . S
C666 C664 1.384 . S
C666 C667 1.372 . S
C667 C666 1.372 . S
C667 C668 1.400 . S
C667 C672 1.490 . S
C668 H658 0.930 . S
C668 C667 1.400 . S
C668 C671 1.386 . S
H669 C685 0.930 . S
H670 C686 0.931 . S
C671 H659 0.929 . S
C671 C665 1.390 . S
C671 C668 1.386 . S
C672 C667 1.490 . S
C672 C674 1.395 . S
C672 C675 1.403 . S
H673 C679 0.930 . S
C674 H660 0.930 . S
C674 C672 1.395 . S
C674 C677 1.403 . S
C675 C672 1.403 . S
C675 C676 1.524 . S
C675 C679 1.400 . S
C676 H661 0.960 . S
C676 H662 0.960 . S
C676 H663 0.960 . S
C676 C675 1.524 . S
C677 C674 1.403 . S
C677 C678 1.392 . S
C677 C681 1.495 . S
C678 C677 1.392 . S
C678 C679 1.385 . S
C678 C680 1.478 . S
C679 H673 0.930 . S
C679 C675 1.400 . S
C679 C678 1.385 . S
C680 C678 1.478 . S
C680 C682 1.381 . S
C680 C686 1.383 . S
C681 C677 1.495 . S
C681 H687 0.959 . S
C681 H688 0.961 . S
C681 H689 0.960 . S
C682 C680 1.381 . S
C682 C683 1.394 . S
C682 H690 0.930 . S
C683 C682 1.394 . S
C683 C684 1.383 . S
C683 H691 0.929 . S
C684 C683 1.383 . S
C684 C685 1.377 . S
C685 H669 0.930 . S
C685 C684 1.377 . S
C685 C686 1.379 . S
C686 H670 0.931 . S
C686 C680 1.383 . S
C686 C685 1.379 . S
H687 C681 0.959 . S
H688 C681 0.961 . S
H689 C681 0.960 . S
H690 C682 0.930 . S
H691 C683 0.929 . S
H692 C700 0.929 . S
H693 C702 0.930 . S
H694 C704 0.930 . S
H695 C707 0.929 . S
H696 C710 0.930 . S
H697 C712 0.960 . S
H698 C712 0.960 . S
H699 C712 0.960 . S
C700 H692 0.929 . S
C700 C701 1.377 . S
C700 C702 1.384 . S
C701 C700 1.377 . S
C701 C707 1.390 . S
C702 H693 0.930 . S
C702 C700 1.384 . S
C702 C703 1.372 . S
C703 C702 1.372 . S
C703 C704 1.400 . S
C703 C708 1.490 . S
C704 H694 0.930 . S
C704 C703 1.400 . S
C704 C707 1.386 . S
H705 C721 0.930 . S
H706 C722 0.931 . S
C707 H695 0.929 . S
C707 C701 1.390 . S
C707 C704 1.386 . S
C708 C703 1.490 . S
C708 C710 1.395 . S
C708 C711 1.403 . S
H709 C715 0.930 . S
C710 H696 0.930 . S
C710 C708 1.395 . S
C710 C713 1.403 . S
C711 C708 1.403 . S
C711 C712 1.524 . S
C711 C715 1.400 . S
C712 H697 0.960 . S
C712 H698 0.960 . S
C712 H699 0.960 . S
C712 C711 1.524 . S
C713 C710 1.403 . S
C713 C714 1.392 . S
C713 C717 1.495 . S
C714 C713 1.392 . S
C714 C715 1.385 . S
C714 C716 1.478 . S
C715 H709 0.930 . S
C715 C711 1.400 . S
C715 C714 1.385 . S
C716 C714 1.478 . S
C716 C718 1.381 . S
C716 C722 1.383 . S
C717 C713 1.495 . S
C717 H723 0.959 . S
C717 H724 0.961 . S
C717 H725 0.960 . S
C718 C716 1.381 . S
C718 C719 1.394 . S
C718 H726 0.930 . S
C719 C718 1.394 . S
C719 C720 1.383 . S
C719 H727 0.929 . S
C720 C719 1.383 . S
C720 C721 1.377 . S
C721 H705 0.930 . S
C721 C720 1.377 . S
C721 C722 1.379 . S
C722 H706 0.931 . S
C722 C716 1.383 . S
C722 C721 1.379 . S
H723 C717 0.959 . S
H724 C717 0.961 . S
H725 C717 0.960 . S
H726 C718 0.930 . S
H727 C719 0.929 . S
H728 C736 0.929 . S
H729 C738 0.930 . S
H730 C740 0.930 . S
H731 C743 0.929 . S
H732 C746 0.930 . S
H733 C748 0.960 . S
H734 C748 0.960 . S
H735 C748 0.960 . S
C736 H728 0.929 . S
C736 C737 1.377 . S
C736 C738 1.384 . S
C737 C736 1.377 . S
C737 C743 1.390 . S
C738 H729 0.930 . S
C738 C736 1.384 . S
C738 C739 1.372 . S
C739 C738 1.372 . S
C739 C740 1.400 . S
C739 C744 1.490 . S
C740 H730 0.930 . S
C740 C739 1.400 . S
C740 C743 1.386 . S
H741 C757 0.930 . S
H742 C758 0.931 . S
C743 H731 0.929 . S
C743 C737 1.390 . S
C743 C740 1.386 . S
C744 C739 1.490 . S
C744 C746 1.395 . S
C744 C747 1.403 . S
H745 C751 0.930 . S
C746 H732 0.930 . S
C746 C744 1.395 . S
C746 C749 1.403 . S
C747 C744 1.403 . S
C747 C748 1.524 . S
C747 C751 1.400 . S
C748 H733 0.960 . S
C748 H734 0.960 . S
C748 H735 0.960 . S
C748 C747 1.524 . S
C749 C746 1.403 . S
C749 C750 1.392 . S
C749 C753 1.495 . S
C750 C749 1.392 . S
C750 C751 1.385 . S
C750 C752 1.478 . S
C751 H745 0.930 . S
C751 C747 1.400 . S
C751 C750 1.385 . S
C752 C750 1.478 . S
C752 C754 1.381 . S
C752 C758 1.383 . S
C753 C749 1.495 . S
C753 H759 0.959 . S
C753 H760 0.961 . S
C753 H761 0.960 . S
C754 C752 1.381 . S
C754 C755 1.394 . S
C754 H762 0.930 . S
C755 C754 1.394 . S
C755 C756 1.383 . S
C755 H763 0.929 . S
C756 C755 1.383 . S
C756 C757 1.377 . S
C757 H741 0.930 . S
C757 C756 1.377 . S
C757 C758 1.379 . S
C758 H742 0.931 . S
C758 C752 1.383 . S
C758 C757 1.379 . S
H759 C753 0.959 . S
H760 C753 0.961 . S
H761 C753 0.960 . S
H762 C754 0.930 . S
H763 C755 0.929 . S
H764 C772 0.929 . S
H765 C774 0.930 . S
H766 C776 0.930 . S
H767 C779 0.929 . S
H768 C782 0.930 . S
H769 C784 0.960 . S
H770 C784 0.960 . S
H771 C784 0.960 . S
C772 H764 0.929 . S
C772 C773 1.377 . S
C772 C774 1.384 . S
C773 C772 1.377 . S
C773 C779 1.390 . S
C774 H765 0.930 . S
C774 C772 1.384 . S
C774 C775 1.372 . S
C775 C774 1.372 . S
C775 C776 1.400 . S
C775 C780 1.490 . S
C776 H766 0.930 . S
C776 C775 1.400 . S
C776 C779 1.386 . S
H777 C793 0.930 . S
H778 C794 0.931 . S
C779 H767 0.929 . S
C779 C773 1.390 . S
C779 C776 1.386 . S
C780 C775 1.490 . S
C780 C782 1.395 . S
C780 C783 1.403 . S
H781 C787 0.930 . S
C782 H768 0.930 . S
C782 C780 1.395 . S
C782 C785 1.403 . S
C783 C780 1.403 . S
C783 C784 1.524 . S
C783 C787 1.400 . S
C784 H769 0.960 . S
C784 H770 0.960 . S
C784 H771 0.960 . S
C784 C783 1.524 . S
C785 C782 1.403 . S
C785 C786 1.392 . S
C785 C789 1.495 . S
C786 C785 1.392 . S
C786 C787 1.385 . S
C786 C788 1.478 . S
C787 H781 0.930 . S
C787 C783 1.400 . S
C787 C786 1.385 . S
C788 C786 1.478 . S
C788 C790 1.381 . S
C788 C794 1.383 . S
C789 C785 1.495 . S
C789 H795 0.959 . S
C789 H796 0.961 . S
C789 H797 0.960 . S
C790 C788 1.381 . S
C790 C791 1.394 . S
C790 H798 0.930 . S
C791 C790 1.394 . S
C791 C792 1.383 . S
C791 H799 0.929 . S
C792 C791 1.383 . S
C792 C793 1.377 . S
C793 H777 0.930 . S
C793 C792 1.377 . S
C793 C794 1.379 . S
C794 H778 0.931 . S
C794 C788 1.383 . S
C794 C793 1.379 . S
H795 C789 0.959 . S
H796 C789 0.961 . S
H797 C789 0.960 . S
H798 C790 0.930 . S
H799 C791 0.929 . S
H800 C808 0.929 . S
H801 C810 0.930 . S
H802 C812 0.930 . S
H803 C815 0.929 . S
H804 C818 0.930 . S
H805 C820 0.960 . S
H806 C820 0.960 . S
H807 C820 0.960 . S
C808 H800 0.929 . S
C808 C809 1.377 . S
C808 C810 1.384 . S
C809 C808 1.377 . S
C809 C815 1.390 . S
C810 H801 0.930 . S
C810 C808 1.384 . S
C810 C811 1.372 . S
C811 C810 1.372 . S
C811 C812 1.400 . S
C811 C816 1.490 . S
C812 H802 0.930 . S
C812 C811 1.400 . S
C812 C815 1.386 . S
H813 C829 0.930 . S
H814 C830 0.931 . S
C815 H803 0.929 . S
C815 C809 1.390 . S
C815 C812 1.386 . S
C816 C811 1.490 . S
C816 C818 1.395 . S
C816 C819 1.403 . S
H817 C823 0.930 . S
C818 H804 0.930 . S
C818 C816 1.395 . S
C818 C821 1.403 . S
C819 C816 1.403 . S
C819 C820 1.524 . S
C819 C823 1.400 . S
C820 H805 0.960 . S
C820 H806 0.960 . S
C820 H807 0.960 . S
C820 C819 1.524 . S
C821 C818 1.403 . S
C821 C822 1.392 . S
C821 C825 1.495 . S
C822 C821 1.392 . S
C822 C823 1.385 . S
C822 C824 1.478 . S
C823 H817 0.930 . S
C823 C819 1.400 . S
C823 C822 1.385 . S
C824 C822 1.478 . S
C824 C826 1.381 . S
C824 C830 1.383 . S
C825 C821 1.495 . S
C825 H831 0.959 . S
C825 H832 0.961 . S
C825 H833 0.960 . S
C826 C824 1.381 . S
C826 C827 1.394 . S
C826 H834 0.930 . S
C827 C826 1.394 . S
C827 C828 1.383 . S
C827 H835 0.929 . S
C828 C827 1.383 . S
C828 C829 1.377 . S
C829 H813 0.930 . S
C829 C828 1.377 . S
C829 C830 1.379 . S
C830 H814 0.931 . S
C830 C824 1.383 . S
C830 C829 1.379 . S
H831 C825 0.959 . S
H832 C825 0.961 . S
H833 C825 0.960 . S
H834 C826 0.930 . S
H835 C827 0.929 . S
H836 C844 0.929 . S
H837 C846 0.930 . S
H838 C848 0.930 . S
H839 C851 0.929 . S
H840 C854 0.930 . S
H841 C856 0.960 . S
H842 C856 0.960 . S
H843 C856 0.960 . S
C844 H836 0.929 . S
C844 C845 1.377 . S
C844 C846 1.384 . S
C845 C844 1.377 . S
C845 C851 1.390 . S
C846 H837 0.930 . S
C846 C844 1.384 . S
C846 C847 1.372 . S
C847 C846 1.372 . S
C847 C848 1.400 . S
C847 C852 1.490 . S
C848 H838 0.930 . S
C848 C847 1.400 . S
C848 C851 1.386 . S
H849 C865 0.930 . S
H850 C866 0.931 . S
C851 H839 0.929 . S
C851 C845 1.390 . S
C851 C848 1.386 . S
C852 C847 1.490 . S
C852 C854 1.395 . S
C852 C855 1.403 . S
H853 C859 0.930 . S
C854 H840 0.930 . S
C854 C852 1.395 . S
C854 C857 1.403 . S
C855 C852 1.403 . S
C855 C856 1.524 . S
C855 C859 1.400 . S
C856 H841 0.960 . S
C856 H842 0.960 . S
C856 H843 0.960 . S
C856 C855 1.524 . S
C857 C854 1.403 . S
C857 C858 1.392 . S
C857 C861 1.495 . S
C858 C857 1.392 . S
C858 C859 1.385 . S
C858 C860 1.478 . S
C859 H853 0.930 . S
C859 C855 1.400 . S
C859 C858 1.385 . S
C860 C858 1.478 . S
C860 C862 1.381 . S
C860 C866 1.383 . S
C861 C857 1.495 . S
C861 H867 0.959 . S
C861 H868 0.961 . S
C861 H869 0.960 . S
C862 C860 1.381 . S
C862 C863 1.394 . S
C862 H870 0.930 . S
C863 C862 1.394 . S
C863 C864 1.383 . S
C863 H871 0.929 . S
C864 C863 1.383 . S
C864 C865 1.377 . S
C865 H849 0.930 . S
C865 C864 1.377 . S
C865 C866 1.379 . S
C866 H850 0.931 . S
C866 C860 1.383 . S
C866 C865 1.379 . S
H867 C861 0.959 . S
H868 C861 0.961 . S
H869 C861 0.960 . S
H870 C862 0.930 . S
H871 C863 0.929 . S
H872 C880 0.929 . S
H873 C882 0.930 . S
H874 C884 0.930 . S
H875 C887 0.929 . S
H876 C890 0.930 . S
H877 C892 0.960 . S
H878 C892 0.960 . S
H879 C892 0.960 . S
C880 H872 0.929 . S
C880 C881 1.377 . S
C880 C882 1.384 . S
C881 C880 1.377 . S
C881 C887 1.390 . S
C882 H873 0.930 . S
C882 C880 1.384 . S
C882 C883 1.372 . S
C883 C882 1.372 . S
C883 C884 1.400 . S
C883 C888 1.490 . S
C884 H874 0.930 . S
C884 C883 1.400 . S
C884 C887 1.386 . S
H885 C901 0.930 . S
H886 C902 0.931 . S
C887 H875 0.929 . S
C887 C881 1.390 . S
C887 C884 1.386 . S
C888 C883 1.490 . S
C888 C890 1.395 . S
C888 C891 1.403 . S
H889 C895 0.930 . S
C890 H876 0.930 . S
C890 C888 1.395 . S
C890 C893 1.403 . S
C891 C888 1.403 . S
C891 C892 1.524 . S
C891 C895 1.400 . S
C892 H877 0.960 . S
C892 H878 0.960 . S
C892 H879 0.960 . S
C892 C891 1.524 . S
C893 C890 1.403 . S
C893 C894 1.392 . S
C893 C897 1.495 . S
C894 C893 1.392 . S
C894 C895 1.385 . S
C894 C896 1.478 . S
C895 H889 0.930 . S
C895 C891 1.400 . S
C895 C894 1.385 . S
C896 C894 1.478 . S
C896 C898 1.381 . S
C896 C902 1.383 . S
C897 C893 1.495 . S
C897 H903 0.959 . S
C897 H904 0.961 . S
C897 H905 0.960 . S
C898 C896 1.381 . S
C898 C899 1.394 . S
C898 H906 0.930 . S
C899 C898 1.394 . S
C899 C900 1.383 . S
C899 H907 0.929 . S
C900 C899 1.383 . S
C900 C901 1.377 . S
C901 H885 0.930 . S
C901 C900 1.377 . S
C901 C902 1.379 . S
C902 H886 0.931 . S
C902 C896 1.383 . S
C902 C901 1.379 . S
H903 C897 0.959 . S
H904 C897 0.961 . S
H905 C897 0.960 . S
H906 C898 0.930 . S
H907 C899 0.929 . S
H908 C916 0.929 . S
H909 C918 0.930 . S
H910 C920 0.930 . S
H911 C923 0.929 . S
H912 C926 0.930 . S
H913 C928 0.960 . S
H914 C928 0.960 . S
H915 C928 0.960 . S
C916 H908 0.929 . S
C916 C917 1.377 . S
C916 C918 1.384 . S
C917 C916 1.377 . S
C917 C923 1.390 . S
C918 H909 0.930 . S
C918 C916 1.384 . S
C918 C919 1.372 . S
C919 C918 1.372 . S
C919 C920 1.400 . S
C919 C924 1.490 . S
C920 H910 0.930 . S
C920 C919 1.400 . S
C920 C923 1.386 . S
H921 C937 0.930 . S
H922 C938 0.931 . S
C923 H911 0.929 . S
C923 C917 1.390 . S
C923 C920 1.386 . S
C924 C919 1.490 . S
C924 C926 1.395 . S
C924 C927 1.403 . S
H925 C931 0.930 . S
C926 H912 0.930 . S
C926 C924 1.395 . S
C926 C929 1.403 . S
C927 C924 1.403 . S
C927 C928 1.524 . S
C927 C931 1.400 . S
C928 H913 0.960 . S
C928 H914 0.960 . S
C928 H915 0.960 . S
C928 C927 1.524 . S
C929 C926 1.403 . S
C929 C930 1.392 . S
C929 C933 1.495 . S
C930 C929 1.392 . S
C930 C931 1.385 . S
C930 C932 1.478 . S
C931 H925 0.930 . S
C931 C927 1.400 . S
C931 C930 1.385 . S
C932 C930 1.478 . S
C932 C934 1.381 . S
C932 C938 1.383 . S
C933 C929 1.495 . S
C933 H939 0.959 . S
C933 H940 0.961 . S
C933 H941 0.960 . S
C934 C932 1.381 . S
C934 C935 1.394 . S
C934 H942 0.930 . S
C935 C934 1.394 . S
C935 C936 1.383 . S
C935 H943 0.929 . S
C936 C935 1.383 . S
C936 C937 1.377 . S
C937 H921 0.930 . S
C937 C936 1.377 . S
C937 C938 1.379 . S
C938 H922 0.931 . S
C938 C932 1.383 . S
C938 C937 1.379 . S
H939 C933 0.959 . S
H940 C933 0.961 . S
H941 C933 0.960 . S
H942 C934 0.930 . S
H943 C935 0.929 . S
H944 C952 0.929 . S
H945 C954 0.930 . S
H946 C956 0.930 . S
H947 C959 0.929 . S
H948 C962 0.930 . S
H949 C964 0.960 . S
H950 C964 0.960 . S
H951 C964 0.960 . S
C952 H944 0.929 . S
C952 C953 1.377 . S
C952 C954 1.384 . S
C953 C952 1.377 . S
C953 C959 1.390 . S
C954 H945 0.930 . S
C954 C952 1.384 . S
C954 C955 1.372 . S
C955 C954 1.372 . S
C955 C956 1.400 . S
C955 C960 1.490 . S
C956 H946 0.930 . S
C956 C955 1.400 . S
C956 C959 1.386 . S
H957 C973 0.930 . S
H958 C974 0.931 . S
C959 H947 0.929 . S
C959 C953 1.390 . S
C959 C956 1.386 . S
C960 C955 1.490 . S
C960 C962 1.395 . S
C960 C963 1.403 . S
H961 C967 0.930 . S
C962 H948 0.930 . S
C962 C960 1.395 . S
C962 C965 1.403 . S
C963 C960 1.403 . S
C963 C964 1.524 . S
C963 C967 1.400 . S
C964 H949 0.960 . S
C964 H950 0.960 . S
C964 H951 0.960 . S
C964 C963 1.524 . S
C965 C962 1.403 . S
C965 C966 1.392 . S
C965 C969 1.495 . S
C966 C965 1.392 . S
C966 C967 1.385 . S
C966 C968 1.478 . S
C967 H961 0.930 . S
C967 C963 1.400 . S
C967 C966 1.385 . S
C968 C966 1.478 . S
C968 C970 1.381 . S
C968 C974 1.383 . S
C969 C965 1.495 . S
C969 H975 0.959 . S
C969 H976 0.961 . S
C969 H977 0.960 . S
C970 C968 1.381 . S
C970 C971 1.394 . S
C970 H978 0.930 . S
C971 C970 1.394 . S
C971 C972 1.383 . S
C971 H979 0.929 . S
C972 C971 1.383 . S
C972 C973 1.377 . S
C973 H957 0.930 . S
C973 C972 1.377 . S
C973 C974 1.379 . S
C974 H958 0.931 . S
C974 C968 1.383 . S
C974 C973 1.379 . S
H975 C969 0.959 . S
H976 C969 0.961 . S
H977 C969 0.960 . S
H978 C970 0.930 . S
H979 C971 0.929 . S
H980 C988 0.929 . S
H981 C990 0.930 . S
H982 C992 0.930 . S
H983 C995 0.929 . S
H984 C998 0.930 . S
H985 C1000 0.960 . S
H986 C1000 0.960 . S
H987 C1000 0.960 . S
C988 H980 0.929 . S
C988 C989 1.377 . S
C988 C990 1.384 . S
C989 C988 1.377 . S
C989 C995 1.390 . S
C990 H981 0.930 . S
C990 C988 1.384 . S
C990 C991 1.372 . S
C991 C990 1.372 . S
C991 C992 1.400 . S
C991 C996 1.490 . S
C992 H982 0.930 . S
C992 C991 1.400 . S
C992 C995 1.386 . S
H993 C1009 0.930 . S
H994 C1010 0.931 . S
C995 H983 0.929 . S
C995 C989 1.390 . S
C995 C992 1.386 . S
C996 C991 1.490 . S
C996 C998 1.395 . S
C996 C999 1.403 . S
H997 C1003 0.930 . S
C998 H984 0.930 . S
C998 C996 1.395 . S
C998 C1001 1.403 . S
C999 C996 1.403 . S
C999 C1000 1.524 . S
C999 C1003 1.400 . S
C1000 H985 0.960 . S
C1000 H986 0.960 . S
C1000 H987 0.960 . S
C1000 C999 1.524 . S
C1001 C998 1.403 . S
C1001 C1002 1.392 . S
C1001 C1005 1.495 . S
C1002 C1001 1.392 . S
C1002 C1003 1.385 . S
C1002 C1004 1.478 . S
C1003 H997 0.930 . S
C1003 C999 1.400 . S
C1003 C1002 1.385 . S
C1004 C1002 1.478 . S
C1004 C1006 1.381 . S
C1004 C1010 1.383 . S
C1005 C1001 1.495 . S
C1005 H1011 0.959 . S
C1005 H1012 0.961 . S
C1005 H1013 0.960 . S
C1006 C1004 1.381 . S
C1006 C1007 1.394 . S
C1006 H1014 0.930 . S
C1007 C1006 1.394 . S
C1007 C1008 1.383 . S
C1007 H1015 0.929 . S
C1008 C1007 1.383 . S
C1008 C1009 1.377 . S
C1009 H993 0.930 . S
C1009 C1008 1.377 . S
C1009 C1010 1.379 . S
C1010 H994 0.931 . S
C1010 C1004 1.383 . S
C1010 C1009 1.379 . S
H1011 C1005 0.959 . S
H1012 C1005 0.961 . S
H1013 C1005 0.960 . S
H1014 C1006 0.930 . S
H1015 C1007 0.929 . S
H1016 C1024 0.929 . S
H1017 C1026 0.930 . S
H1018 C1028 0.930 . S
H1019 C1031 0.929 . S
H1020 C1034 0.930 . S
H1021 C1036 0.960 . S
H1022 C1036 0.960 . S
H1023 C1036 0.960 . S
C1024 H1016 0.929 . S
C1024 C1025 1.377 . S
C1024 C1026 1.384 . S
C1025 C1024 1.377 . S
C1025 C1031 1.390 . S
C1026 H1017 0.930 . S
C1026 C1024 1.384 . S
C1026 C1027 1.372 . S
C1027 C1026 1.372 . S
C1027 C1028 1.400 . S
C1027 C1032 1.490 . S
C1028 H1018 0.930 . S
C1028 C1027 1.400 . S
C1028 C1031 1.386 . S
H1029 C1045 0.930 . S
H1030 C1046 0.931 . S
C1031 H1019 0.929 . S
C1031 C1025 1.390 . S
C1031 C1028 1.386 . S
C1032 C1027 1.490 . S
C1032 C1034 1.395 . S
C1032 C1035 1.403 . S
H1033 C1039 0.930 . S
C1034 H1020 0.930 . S
C1034 C1032 1.395 . S
C1034 C1037 1.403 . S
C1035 C1032 1.403 . S
C1035 C1036 1.524 . S
C1035 C1039 1.400 . S
C1036 H1021 0.960 . S
C1036 H1022 0.960 . S
C1036 H1023 0.960 . S
C1036 C1035 1.524 . S
C1037 C1034 1.403 . S
C1037 C1038 1.392 . S
C1037 C1041 1.495 . S
C1038 C1037 1.392 . S
C1038 C1039 1.385 . S
C1038 C1040 1.478 . S
C1039 H1033 0.930 . S
C1039 C1035 1.400 . S
C1039 C1038 1.385 . S
C1040 C1038 1.478 . S
C1040 C1042 1.381 . S
C1040 C1046 1.383 . S
C1041 C1037 1.495 . S
C1041 H1047 0.959 . S
C1041 H1048 0.961 . S
C1041 H1049 0.960 . S
C1042 C1040 1.381 . S
C1042 C1043 1.394 . S
C1042 H1050 0.930 . S
C1043 C1042 1.394 . S
C1043 C1044 1.383 . S
C1043 H1051 0.929 . S
C1044 C1043 1.383 . S
C1044 C1045 1.377 . S
C1045 H1029 0.930 . S
C1045 C1044 1.377 . S
C1045 C1046 1.379 . S
C1046 H1030 0.931 . S
C1046 C1040 1.383 . S
C1046 C1045 1.379 . S
H1047 C1041 0.959 . S
H1048 C1041 0.961 . S
H1049 C1041 0.960 . S
H1050 C1042 0.930 . S
H1051 C1043 0.929 . S
H1052 C1060 0.929 . S
H1053 C1062 0.930 . S
H1054 C1064 0.930 . S
H1055 C1067 0.929 . S
H1056 C1070 0.930 . S
H1057 C1072 0.960 . S
H1058 C1072 0.960 . S
H1059 C1072 0.960 . S
C1060 H1052 0.929 . S
C1060 C1061 1.377 . S
C1060 C1062 1.384 . S
C1061 C1060 1.377 . S
C1061 C1067 1.390 . S
C1062 H1053 0.930 . S
C1062 C1060 1.384 . S
C1062 C1063 1.372 . S
C1063 C1062 1.372 . S
C1063 C1064 1.400 . S
C1063 C1068 1.490 . S
C1064 H1054 0.930 . S
C1064 C1063 1.400 . S
C1064 C1067 1.386 . S
H1065 C1081 0.930 . S
H1066 C1082 0.931 . S
C1067 H1055 0.929 . S
C1067 C1061 1.390 . S
C1067 C1064 1.386 . S
C1068 C1063 1.490 . S
C1068 C1070 1.395 . S
C1068 C1071 1.403 . S
H1069 C1075 0.930 . S
C1070 H1056 0.930 . S
C1070 C1068 1.395 . S
C1070 C1073 1.403 . S
C1071 C1068 1.403 . S
C1071 C1072 1.524 . S
C1071 C1075 1.400 . S
C1072 H1057 0.960 . S
C1072 H1058 0.960 . S
C1072 H1059 0.960 . S
C1072 C1071 1.524 . S
C1073 C1070 1.403 . S
C1073 C1074 1.392 . S
C1073 C1077 1.495 . S
C1074 C1073 1.392 . S
C1074 C1075 1.385 . S
C1074 C1076 1.478 . S
C1075 H1069 0.930 . S
C1075 C1071 1.400 . S
C1075 C1074 1.385 . S
C1076 C1074 1.478 . S
C1076 C1078 1.381 . S
C1076 C1082 1.383 . S
C1077 C1073 1.495 . S
C1077 H1083 0.959 . S
C1077 H1084 0.961 . S
C1077 H1085 0.960 . S
C1078 C1076 1.381 . S
C1078 C1079 1.394 . S
C1078 H1086 0.930 . S
C1079 C1078 1.394 . S
C1079 C1080 1.383 . S
C1079 H1087 0.929 . S
C1080 C1079 1.383 . S
C1080 C1081 1.377 . S
C1081 H1065 0.930 . S
C1081 C1080 1.377 . S
C1081 C1082 1.379 . S
C1082 H1066 0.931 . S
C1082 C1076 1.383 . S
C1082 C1081 1.379 . S
H1083 C1077 0.959 . S
H1084 C1077 0.961 . S
H1085 C1077 0.960 . S
H1086 C1078 0.930 . S
H1087 C1079 0.929 . S
H1088 C1096 0.929 . S
H1089 C1098 0.930 . S
H1090 C1100 0.930 . S
H1091 C1103 0.929 . S
H1092 C1106 0.930 . S
H1093 C1108 0.960 . S
H1094 C1108 0.960 1_565 S
H1095 C1108 0.960 1_565 S
C1096 H1088 0.929 . S
C1096 C1097 1.377 . S
C1096 C1098 1.384 . S
C1097 C1096 1.377 . S
C1097 C1103 1.390 . S
C1098 H1089 0.930 . S
C1098 C1096 1.384 . S
C1098 C1099 1.372 . S
C1099 C1098 1.372 . S
C1099 C1100 1.400 . S
C1099 C1104 1.490 . S
C1100 H1090 0.930 . S
C1100 C1099 1.400 . S
C1100 C1103 1.386 . S
H1101 C1117 0.930 . S
H1102 C1118 0.931 . S
C1103 H1091 0.929 . S
C1103 C1097 1.390 . S
C1103 C1100 1.386 . S
C1104 C1099 1.490 . S
C1104 C1106 1.395 1_655 S
C1104 C1107 1.403 1_565 S
H1105 C1111 0.930 . S
C1106 H1092 0.930 . S
C1106 C1104 1.395 1_455 S
C1106 C1109 1.403 . S
C1107 C1104 1.403 1_545 S
C1107 C1108 1.524 . S
C1107 C1111 1.400 . S
C1108 H1093 0.960 . S
C1108 H1094 0.960 1_545 S
C1108 H1095 0.960 1_545 S
C1108 C1107 1.524 . S
C1109 C1106 1.403 . S
C1109 C1110 1.392 1_565 S
C1109 C1113 1.495 . S
C1110 C1109 1.392 1_545 S
C1110 C1111 1.385 1_455 S
C1110 C1112 1.478 . S
C1111 H1105 0.930 . S
C1111 C1107 1.400 . S
C1111 C1110 1.385 1_655 S
C1112 C1110 1.478 . S
C1112 C1114 1.381 . S
C1112 C1118 1.383 . S
C1113 C1109 1.495 . S
C1113 H1119 0.959 . S
C1113 H1120 0.967 . S
C1113 H1121 0.969 . S
C1114 C1112 1.381 . S
C1114 C1115 1.394 . S
C1114 H1122 0.930 . S
C1115 C1114 1.394 . S
C1115 C1116 1.383 . S
C1115 H1123 0.929 . S
C1116 C1115 1.383 . S
C1116 C1117 1.377 . S
C1117 H1101 0.930 . S
C1117 C1116 1.377 . S
C1117 C1118 1.379 . S
C1118 H1102 0.931 . S
C1118 C1112 1.383 . S
C1118 C1117 1.379 . S
H1119 C1113 0.959 . S
H1120 C1113 0.967 . S
H1121 C1113 0.969 . S
H1122 C1114 0.930 . S
H1123 C1115 0.929 . S
H1124 C1132 0.929 . S
H1125 C1134 0.930 . S
H1126 C1136 0.930 . S
H1127 C1139 0.929 . S
H1128 C1142 0.931 . S
H1129 C1144 0.960 . S
H1130 C1144 0.960 . S
H1131 C1144 0.960 . S
C1132 H1124 0.929 . S
C1132 C1133 1.377 . S
C1132 C1134 1.384 . S
C1133 C1132 1.377 . S
C1133 C1139 1.390 . S
C1134 H1125 0.930 . S
C1134 C1132 1.384 . S
C1134 C1135 1.372 . S
C1135 C1134 1.372 . S
C1135 C1136 1.400 . S
C1135 C1140 1.490 . S
C1136 H1126 0.930 . S
C1136 C1135 1.400 . S
C1136 C1139 1.386 . S
H1137 C1153 0.930 . S
H1138 C1154 0.931 . S
C1139 H1127 0.929 . S
C1139 C1133 1.390 . S
C1139 C1136 1.386 . S
C1140 C1135 1.490 . S
C1140 C1142 1.395 1_655 S
C1140 C1143 1.403 1_545 S
H1141 C1147 0.930 . S
C1142 H1128 0.931 . S
C1142 C1140 1.395 1_455 S
C1142 C1145 1.403 . S
C1143 C1140 1.403 1_565 S
C1143 C1144 1.524 . S
C1143 C1147 1.400 1_655 S
C1144 H1129 0.960 . S
C1144 H1130 0.960 . S
C1144 H1131 0.960 . S
C1144 C1143 1.524 . S
C1145 C1142 1.403 . S
C1145 C1146 1.392 1_545 S
C1145 C1149 1.495 . S
C1146 C1145 1.392 1_565 S
C1146 C1147 1.385 . S
C1146 C1148 1.478 . S
C1147 H1141 0.930 . S
C1147 C1143 1.400 1_455 S
C1147 C1146 1.385 . S
C1148 C1146 1.478 . S
C1148 C1150 1.381 . S
C1148 C1154 1.383 . S
C1149 C1145 1.495 . S
C1149 H1155 0.959 . S
C1149 H1156 0.961 . S
C1149 H1157 0.960 . S
C1150 C1148 1.381 . S
C1150 C1151 1.394 . S
C1150 H1158 0.930 . S
C1151 C1150 1.394 . S
C1151 C1152 1.383 . S
C1151 H1159 0.929 . S
C1152 C1151 1.383 . S
C1152 C1153 1.377 . S
C1153 H1137 0.930 . S
C1153 C1152 1.377 . S
C1153 C1154 1.379 . S
C1154 H1138 0.931 . S
C1154 C1148 1.383 . S
C1154 C1153 1.379 . S
H1155 C1149 0.959 . S
H1156 C1149 0.961 . S
H1157 C1149 0.960 . S
H1158 C1150 0.930 . S
H1159 C1151 0.929 . S
H1160 C1168 0.929 . S
H1161 C1170 0.930 . S
H1162 C1172 0.930 . S
H1163 C1175 0.929 . S
H1164 C1178 0.930 . S
H1165 C1180 0.960 . S
H1166 C1180 0.960 . S
H1167 C1180 0.960 . S
C1168 H1160 0.929 . S
C1168 C1169 1.377 . S
C1168 C1170 1.384 . S
C1169 C1168 1.377 . S
C1169 C1175 1.390 . S
C1170 H1161 0.930 . S
C1170 C1168 1.384 . S
C1170 C1171 1.372 . S
C1171 C1170 1.372 . S
C1171 C1172 1.400 . S
C1171 C1176 1.490 . S
C1172 H1162 0.930 . S
C1172 C1171 1.400 . S
C1172 C1175 1.386 . S
H1173 C1189 0.930 . S
H1174 C1190 0.931 . S
C1175 H1163 0.929 . S
C1175 C1169 1.390 . S
C1175 C1172 1.386 . S
C1176 C1171 1.490 . S
C1176 C1178 1.395 . S
C1176 C1179 1.403 1_455 S
H1177 C1183 0.930 . S
C1178 H1164 0.930 . S
C1178 C1176 1.395 . S
C1178 C1181 1.403 . S
C1179 C1176 1.403 1_655 S
C1179 C1180 1.524 . S
C1179 C1183 1.400 . S
C1180 H1165 0.960 . S
C1180 H1166 0.960 . S
C1180 H1167 0.960 . S
C1180 C1179 1.524 . S
C1181 C1178 1.403 . S
C1181 C1182 1.392 1_455 S
C1181 C1185 1.495 . S
C1182 C1181 1.392 1_655 S
C1182 C1183 1.385 . S
C1182 C1184 1.478 . S
C1183 H1177 0.930 . S
C1183 C1179 1.400 . S
C1183 C1182 1.385 . S
C1184 C1182 1.478 . S
C1184 C1186 1.381 . S
C1184 C1190 1.383 . S
C1185 C1181 1.495 . S
C1185 H1191 0.959 . S
C1185 H1192 0.961 . S
C1185 H1193 0.960 . S
C1186 C1184 1.381 . S
C1186 C1187 1.394 . S
C1186 H1194 0.930 . S
C1187 C1186 1.394 . S
C1187 C1188 1.383 . S
C1187 H1195 0.929 . S
C1188 C1187 1.383 . S
C1188 C1189 1.377 . S
C1189 H1173 0.930 . S
C1189 C1188 1.377 . S
C1189 C1190 1.379 . S
C1190 H1174 0.931 . S
C1190 C1184 1.383 . S
C1190 C1189 1.379 . S
H1191 C1185 0.959 . S
H1192 C1185 0.961 . S
H1193 C1185 0.960 . S
H1194 C1186 0.930 . S
H1195 C1187 0.929 . S
H1196 C1204 0.929 . S
H1197 C1206 0.930 . S
H1198 C1208 0.930 . S
H1199 C1211 0.929 . S
H1200 C1214 0.930 . S
H1201 C1216 0.960 . S
H1202 C1216 0.960 . S
H1203 C1216 0.960 . S
C1204 H1196 0.929 . S
C1204 C1205 1.377 . S
C1204 C1206 1.384 . S
C1205 C1204 1.377 . S
C1205 C1211 1.390 . S
C1206 H1197 0.930 . S
C1206 C1204 1.384 . S
C1206 C1207 1.372 . S
C1207 C1206 1.372 . S
C1207 C1208 1.400 . S
C1207 C1212 1.490 . S
C1208 H1198 0.930 . S
C1208 C1207 1.400 . S
C1208 C1211 1.386 . S
H1209 C1225 0.930 . S
H1210 C1226 0.931 . S
C1211 H1199 0.929 . S
C1211 C1205 1.390 . S
C1211 C1208 1.386 . S
C1212 C1207 1.490 . S
C1212 C1214 1.395 . S
C1212 C1215 1.403 1_565 S
H1213 C1219 0.930 . S
C1214 H1200 0.930 . S
C1214 C1212 1.395 . S
C1214 C1217 1.403 . S
C1215 C1212 1.403 1_545 S
C1215 C1216 1.524 . S
C1215 C1219 1.400 . S
C1216 H1201 0.960 . S
C1216 H1202 0.960 . S
C1216 H1203 0.960 . S
C1216 C1215 1.524 . S
C1217 C1214 1.403 . S
C1217 C1218 1.392 1_565 S
C1217 C1221 1.495 . S
C1218 C1217 1.392 1_545 S
C1218 C1219 1.385 . S
C1218 C1220 1.478 . S
C1219 H1213 0.930 . S
C1219 C1215 1.400 . S
C1219 C1218 1.385 . S
C1220 C1218 1.478 . S
C1220 C1222 1.381 . S
C1220 C1226 1.383 . S
C1221 C1217 1.495 . S
C1221 H1227 0.959 . S
C1221 H1228 0.961 . S
C1221 H1229 0.960 . S
C1222 C1220 1.381 . S
C1222 C1223 1.394 . S
C1222 H1230 0.930 . S
C1223 C1222 1.394 . S
C1223 C1224 1.383 . S
C1223 H1231 0.929 . S
C1224 C1223 1.383 . S
C1224 C1225 1.377 . S
C1225 H1209 0.930 . S
C1225 C1224 1.377 . S
C1225 C1226 1.379 . S
C1226 H1210 0.931 . S
C1226 C1220 1.383 . S
C1226 C1225 1.379 . S
H1227 C1221 0.959 . S
H1228 C1221 0.961 . S
H1229 C1221 0.960 . S
H1230 C1222 0.930 . S
H1231 C1223 0.929 . S
H1232 C1240 0.929 . S
H1233 C1242 0.930 . S
H1234 C1244 0.930 . S
H1235 C1247 0.929 . S
H1236 C1250 0.930 . S
H1237 C1252 0.960 . S
H1238 C1252 0.960 . S
H1239 C1252 0.960 . S
C1240 H1232 0.929 . S
C1240 C1241 1.377 . S
C1240 C1242 1.384 . S
C1241 C1240 1.377 . S
C1241 C1247 1.390 . S
C1242 H1233 0.930 . S
C1242 C1240 1.384 . S
C1242 C1243 1.372 . S
C1243 C1242 1.372 . S
C1243 C1244 1.400 . S
C1243 C1248 1.490 . S
C1244 H1234 0.930 . S
C1244 C1243 1.400 . S
C1244 C1247 1.386 . S
H1245 C1261 0.930 . S
H1246 C1262 0.931 . S
C1247 H1235 0.929 . S
C1247 C1241 1.390 . S
C1247 C1244 1.386 . S
C1248 C1243 1.490 . S
C1248 C1250 1.395 . S
C1248 C1251 1.403 . S
H1249 C1255 0.930 . S
C1250 H1236 0.930 . S
C1250 C1248 1.395 . S
C1250 C1253 1.403 . S
C1251 C1248 1.403 . S
C1251 C1252 1.524 . S
C1251 C1255 1.400 . S
C1252 H1237 0.960 . S
C1252 H1238 0.960 . S
C1252 H1239 0.960 . S
C1252 C1251 1.524 . S
C1253 C1250 1.403 . S
C1253 C1254 1.392 . S
C1253 C1257 1.495 . S
C1254 C1253 1.392 . S
C1254 C1255 1.385 . S
C1254 C1256 1.478 . S
C1255 H1249 0.930 . S
C1255 C1251 1.400 . S
C1255 C1254 1.385 . S
C1256 C1254 1.478 . S
C1256 C1258 1.381 . S
C1256 C1262 1.383 . S
C1257 C1253 1.495 . S
C1257 H1263 0.959 . S
C1257 H1264 0.961 . S
C1257 H1265 0.960 . S
C1258 C1256 1.381 . S
C1258 C1259 1.394 . S
C1258 H1266 0.930 . S
C1259 C1258 1.394 . S
C1259 C1260 1.383 . S
C1259 H1267 0.929 . S
C1260 C1259 1.383 . S
C1260 C1261 1.377 . S
C1261 H1245 0.930 . S
C1261 C1260 1.377 . S
C1261 C1262 1.379 . S
C1262 H1246 0.931 . S
C1262 C1256 1.383 . S
C1262 C1261 1.379 . S
H1263 C1257 0.959 . S
H1264 C1257 0.961 . S
H1265 C1257 0.960 . S
H1266 C1258 0.930 . S
H1267 C1259 0.929 . S
H1268 C1276 0.929 . S
H1269 C1278 0.930 . S
H1270 C1280 0.930 . S
H1271 C1283 0.929 . S
H1272 C1286 0.930 . S
H1273 C1288 0.960 . S
H1274 C1288 0.960 . S
H1275 C1288 0.960 . S
C1276 H1268 0.929 . S
C1276 C1277 1.377 . S
C1276 C1278 1.384 . S
C1277 C1276 1.377 . S
C1277 C1283 1.390 . S
C1278 H1269 0.930 . S
C1278 C1276 1.384 . S
C1278 C1279 1.372 . S
C1279 C1278 1.372 . S
C1279 C1280 1.400 . S
C1279 C1284 1.490 . S
C1280 H1270 0.930 . S
C1280 C1279 1.400 . S
C1280 C1283 1.386 . S
H1281 C1297 0.930 . S
H1282 C1298 0.931 . S
C1283 H1271 0.929 . S
C1283 C1277 1.390 . S
C1283 C1280 1.386 . S
C1284 C1279 1.490 . S
C1284 C1286 1.395 . S
C1284 C1287 1.403 . S
H1285 C1291 0.930 . S
C1286 H1272 0.930 . S
C1286 C1284 1.395 . S
C1286 C1289 1.403 . S
C1287 C1284 1.403 . S
C1287 C1288 1.524 . S
C1287 C1291 1.400 . S
C1288 H1273 0.960 . S
C1288 H1274 0.960 . S
C1288 H1275 0.960 . S
C1288 C1287 1.524 . S
C1289 C1286 1.403 . S
C1289 C1290 1.392 . S
C1289 C1293 1.495 . S
C1290 C1289 1.392 . S
C1290 C1291 1.385 . S
C1290 C1292 1.478 . S
C1291 H1285 0.930 . S
C1291 C1287 1.400 . S
C1291 C1290 1.385 . S
C1292 C1290 1.478 . S
C1292 C1294 1.381 . S
C1292 C1298 1.383 . S
C1293 C1289 1.495 . S
C1293 H1299 0.959 . S
C1293 H1300 0.961 . S
C1293 H1301 0.960 . S
C1294 C1292 1.381 . S
C1294 C1295 1.394 . S
C1294 H1302 0.930 . S
C1295 C1294 1.394 . S
C1295 C1296 1.383 . S
C1295 H1303 0.929 . S
C1296 C1295 1.383 . S
C1296 C1297 1.377 . S
C1297 H1281 0.930 . S
C1297 C1296 1.377 . S
C1297 C1298 1.379 . S
C1298 H1282 0.931 . S
C1298 C1292 1.383 . S
C1298 C1297 1.379 . S
H1299 C1293 0.959 . S
H1300 C1293 0.961 . S
H1301 C1293 0.960 . S
H1302 C1294 0.930 . S
H1303 C1295 0.929 . S
H1304 C1312 0.929 . S
H1305 C1314 0.930 . S
H1306 C1316 0.930 . S
H1307 C1319 0.929 . S
H1308 C1322 0.932 . S
H1309 C1324 0.960 . S
H1310 C1324 0.960 . S
H1311 C1324 0.960 . S
C1312 H1304 0.929 . S
C1312 C1313 1.377 . S
C1312 C1314 1.384 . S
C1313 C1312 1.377 . S
C1313 C1319 1.390 . S
C1314 H1305 0.930 . S
C1314 C1312 1.384 . S
C1314 C1315 1.372 . S
C1315 C1314 1.372 . S
C1315 C1316 1.400 . S
C1315 C1320 1.490 . S
C1316 H1306 0.930 . S
C1316 C1315 1.400 . S
C1316 C1319 1.386 . S
H1317 C1333 0.930 . S
H1318 C1334 0.931 . S
C1319 H1307 0.929 . S
C1319 C1313 1.390 . S
C1319 C1316 1.386 . S
C1320 C1315 1.490 . S
C1320 C1322 1.395 1_545 S
C1320 C1323 1.403 . S
H1321 C1327 0.930 . S
C1322 H1308 0.932 . S
C1322 C1320 1.395 1_565 S
C1322 C1325 1.403 . S
C1323 C1320 1.403 . S
C1323 C1324 1.524 . S
C1323 C1327 1.400 1_545 S
C1324 H1309 0.960 . S
C1324 H1310 0.960 . S
C1324 H1311 0.960 . S
C1324 C1323 1.524 . S
C1325 C1322 1.403 . S
C1325 C1326 1.392 . S
C1325 C1329 1.495 . S
C1326 C1325 1.392 . S
C1326 C1327 1.385 . S
C1326 C1328 1.478 . S
C1327 H1321 0.930 . S
C1327 C1323 1.400 1_565 S
C1327 C1326 1.385 . S
C1328 C1326 1.478 . S
C1328 C1330 1.381 . S
C1328 C1334 1.383 . S
C1329 C1325 1.495 . S
C1329 H1335 0.959 . S
C1329 H1336 0.961 . S
C1329 H1337 0.960 . S
C1330 C1328 1.381 . S
C1330 C1331 1.394 . S
C1330 H1338 0.930 . S
C1331 C1330 1.394 . S
C1331 C1332 1.383 . S
C1331 H1339 0.929 . S
C1332 C1331 1.383 . S
C1332 C1333 1.377 . S
C1333 H1317 0.930 . S
C1333 C1332 1.377 . S
C1333 C1334 1.379 . S
C1334 H1318 0.931 . S
C1334 C1328 1.383 . S
C1334 C1333 1.379 . S
H1335 C1329 0.959 . S
H1336 C1329 0.961 . S
H1337 C1329 0.960 . S
H1338 C1330 0.930 . S
H1339 C1331 0.929 . S
H1340 C1348 0.929 . S
H1341 C1350 0.930 . S
H1342 C1352 0.930 . S
H1343 C1355 0.929 . S
H1344 C1358 0.930 . S
H1345 C1360 0.960 . S
H1346 C1360 0.960 1_655 S
H1347 C1360 0.960 1_655 S
C1348 H1340 0.929 . S
C1348 C1349 1.377 . S
C1348 C1350 1.384 . S
C1349 C1348 1.377 . S
C1349 C1355 1.390 . S
C1350 H1341 0.930 . S
C1350 C1348 1.384 . S
C1350 C1351 1.372 . S
C1351 C1350 1.372 . S
C1351 C1352 1.400 . S
C1351 C1356 1.490 . S
C1352 H1342 0.930 . S
C1352 C1351 1.400 . S
C1352 C1355 1.386 . S
H1353 C1369 0.930 . S
H1354 C1370 0.931 . S
C1355 H1343 0.929 . S
C1355 C1349 1.390 . S
C1355 C1352 1.386 . S
C1356 C1351 1.490 . S
C1356 C1358 1.395 . S
C1356 C1359 1.381 1_655 S
H1357 C1363 0.930 . S
C1358 H1344 0.930 . S
C1358 C1356 1.395 . S
C1358 C1361 1.403 . S
C1359 C1356 1.381 1_455 S
C1359 C1360 1.527 . S
C1359 C1363 1.419 . S
C1360 H1345 0.960 . S
C1360 H1346 0.960 1_455 S
C1360 H1347 0.960 1_455 S
C1360 C1359 1.527 . S
C1361 C1358 1.403 . S
C1361 C1362 1.392 1_655 S
C1361 C1365 1.495 . S
C1362 C1361 1.392 1_455 S
C1362 C1363 1.385 . S
C1362 C1364 1.478 . S
C1363 H1357 0.930 . S
C1363 C1359 1.419 . S
C1363 C1362 1.385 . S
C1364 C1362 1.478 . S
C1364 C1366 1.381 . S
C1364 C1370 1.383 . S
C1365 C1361 1.495 . S
C1365 H1371 0.959 . S
C1365 H1372 0.961 1_655 S
C1365 H1373 0.960 . S
C1366 C1364 1.381 . S
C1366 C1367 1.394 . S
C1366 H1374 0.930 . S
C1367 C1366 1.394 . S
C1367 C1368 1.383 . S
C1367 H1375 0.929 . S
C1368 C1367 1.383 . S
C1368 C1369 1.377 . S
C1369 H1353 0.930 . S
C1369 C1368 1.377 . S
C1369 C1370 1.379 . S
C1370 H1354 0.931 . S
C1370 C1364 1.383 . S
C1370 C1369 1.379 . S
H1371 C1365 0.959 . S
H1372 C1365 0.961 1_455 S
H1373 C1365 0.960 . S
H1374 C1366 0.930 . S
H1375 C1367 0.929 . S
C233 C9 1.068 . S
C252 C159 1.083 . S
C269 C117 1.098 . S
C288 C14 1.070 . S
C305 C131 1.087 . S
C324 C37 1.053 . S
C341 C145 1.099 . S
C360 C42 1.057 . S
C377 C75 1.086 . S
C396 C65 1.092 . S
C413 C70 1.078 . S
C432 C89 1.101 . S
C449 C93 1.068 . S
C468 C103 1.089 . S
C485 C98 1.080 . S
C504 C61 1.096 . S
C521 C121 1.061 . S
C540 C47 1.071 . S
C557 C5 1.100 . S
C576 C126 1.053 . S
C593 C19 1.083 . S
C612 C149 1.074 . S
C629 C33 1.100 . S
C648 C154 1.062 . S
C665 C187 1.087 . S
C684 C177 1.055 . S
C701 C182 1.079 . S
C720 C201 1.107 . S
C737 C215 1.085 . S
C756 C205 1.027 . S
C773 C173 1.100 . S
C792 C210 1.053 . S
C809 C207 1.558 . S
C828 C11 1.549 . S
C845 C221 1.610 . S
C864 C25 1.605 . S
C881 C179 1.560 . S
C900 C39 1.559 . S
C917 C53 1.610 . S
C936 C193 1.609 . S
C953 C67 1.558 . S
C972 C151 1.551 . S
C989 C165 1.610 . S
C1008 C81 1.605 . S
C1025 C95 1.561 . S
C1044 C123 1.561 . S
C1061 C109 1.611 . S
C1080 C137 1.606 . S
C1097 C28 1.091 . S
C1116 C0 1.115 . S
C1133 C51 1.117 . S
C1152 C23 1.108 . S
C1169 C56 1.083 . S
C1188 C84 1.063 . S
C1205 C79 1.115 . S
C1224 C107 1.098 . S
C1241 C140 1.095 . S
C1260 C112 1.102 . S
C1277 C135 1.115 . S
C1296 C163 1.089 . S
C1313 C196 1.088 . S
C1332 C168 1.060 . S
C1349 C191 1.126 . S
C1368 C219 1.131 . S
