# Generated by pormake.
# Topology xfw, (5)-cn, num edge types: 1
# Building blocks:
#     Node 0, Type 0, BuildingBlock: XOMCOT_clean_sbu_1, # of connection points: 5
#     Node 1, Type 0, BuildingBlock: XOMCOT_clean_sbu_1, # of connection points: 5
#     Node 2, Type 0, BuildingBlock: XOMCOT_clean_sbu_1, # of connection points: 5
#     Node 3, Type 0, BuildingBlock: XOMCOT_clean_sbu_1, # of connection points: 5
#     Node 4, Type 0, BuildingBlock: XOMCOT_clean_sbu_1, # of connection points: 5
#     Node 5, Type 0, BuildingBlock: XOMCOT_clean_sbu_1, # of connection points: 5
#     Node 6, Type 0, BuildingBlock: XOMCOT_clean_sbu_1, # of connection points: 5
#     Node 7, Type 0, BuildingBlock: XOMCOT_clean_sbu_1, # of connection points: 5
#     Edge 8, Type (0, 0), BuildingBlock: OJICUG_clean_linker_0, # of connection points: 2
#     Edge 9, Type (0, 0), BuildingBlock: OJICUG_clean_linker_0, # of connection points: 2
#     Edge 10, Type (0, 0), BuildingBlock: OJICUG_clean_linker_0, # of connection points: 2
#     Edge 11, Type (0, 0), BuildingBlock: OJICUG_clean_linker_0, # of connection points: 2
#     Edge 12, Type (0, 0), BuildingBlock: OJICUG_clean_linker_0, # of connection points: 2
#     Edge 13, Type (0, 0), BuildingBlock: OJICUG_clean_linker_0, # of connection points: 2
#     Edge 14, Type (0, 0), BuildingBlock: OJICUG_clean_linker_0, # of connection points: 2
#     Edge 15, Type (0, 0), BuildingBlock: OJICUG_clean_linker_0, # of connection points: 2
#     Edge 16, Type (0, 0), BuildingBlock: OJICUG_clean_linker_0, # of connection points: 2
#     Edge 17, Type (0, 0), BuildingBlock: OJICUG_clean_linker_0, # of connection points: 2
#     Edge 18, Type (0, 0), BuildingBlock: OJICUG_clean_linker_0, # of connection points: 2
#     Edge 19, Type (0, 0), BuildingBlock: OJICUG_clean_linker_0, # of connection points: 2
#     Edge 20, Type (0, 0), BuildingBlock: OJICUG_clean_linker_0, # of connection points: 2
#     Edge 21, Type (0, 0), BuildingBlock: OJICUG_clean_linker_0, # of connection points: 2
#     Edge 22, Type (0, 0), BuildingBlock: OJICUG_clean_linker_0, # of connection points: 2
#     Edge 23, Type (0, 0), BuildingBlock: OJICUG_clean_linker_0, # of connection points: 2
#     Edge 24, Type (0, 0), BuildingBlock: OJICUG_clean_linker_0, # of connection points: 2
#     Edge 25, Type (0, 0), BuildingBlock: OJICUG_clean_linker_0, # of connection points: 2
#     Edge 26, Type (0, 0), BuildingBlock: OJICUG_clean_linker_0, # of connection points: 2
#     Edge 27, Type (0, 0), BuildingBlock: OJICUG_clean_linker_0, # of connection points: 2
# Relax obj value: 0.610
# Max RMSD: 0.303
# Mean RMSD: 0.303
data_MOF--net-xfw--node1-XOMCOT_clean_sbu_1--edge1-OJICUG_clean_linker_0
_symmetry_space_group_name_H-M    P1
_symmetry_Int_Tables_number       1
_symmetry_cell_setting            triclinic
loop_
_symmetry_equiv_pos_as_xyz
'x, y, z'
_cell_length_a     19.617131
_cell_length_b     19.636647
_cell_length_c     47.07202
_cell_angle_alpha  89.989972
_cell_angle_beta   90.141737
_cell_angle_gamma 89.993738
loop_
_atom_site_label
_atom_site_type_symbol
_atom_site_fract_x
_atom_site_fract_y
_atom_site_fract_z
_atom_type_partial_charge
C0 C 0.3593 0.03741 0.57685 0.0
C1 C 0.35691 0.98984 0.55559 0.0
N2 N 0.29161 0.97011 0.55208 0.0
N3 N 0.29602 0.04773 0.58696 0.0
C4 C 0.25582 1.00544 0.57175 0.0
H5 H 0.40383 0.06598 0.5833 0.0
Co6 Co 0.27798 0.11794 0.61197 0.0
C7 C 0.13876 0.09751 0.63606 0.0
O8 O 0.1329 0.16408 0.63713 0.0
N9 N 0.26425 0.19005 0.63746 0.0
C10 C 0.25431 0.29006 0.6594 0.0
C11 C 0.25821 0.25797 0.63337 0.0
C12 C 0.26457 0.18247 0.66597 0.0
N13 N 0.25918 0.24216 0.67972 0.0
O14 O 0.33573 0.07282 0.63928 0.0
H15 H 0.25758 0.28316 0.613 0.0
H16 H 0.26807 0.13368 0.67657 0.0
O17 O 0.19449 0.07087 0.62673 0.0
C18 C 0.39461 0.09979 0.64224 0.0
O19 O 0.40548 0.15977 0.63069 0.0
N20 N 0.22823 0.16178 0.58287 0.0
C21 C 0.182 0.20875 0.53014 0.0
C22 C 0.1409 0.16712 0.54712 0.0
C23 C 0.16538 0.14296 0.57296 0.0
C24 C 0.26836 0.20366 0.56696 0.0
C25 C 0.24615 0.22818 0.54061 0.0
H26 H 0.13509 0.10494 0.58333 0.0
H27 H 0.31951 0.21518 0.57414 0.0
H28 H 0.20108 1.00321 0.57409 0.0
H29 H 0.39935 0.97527 0.54227 0.0
H30 H 0.24993 0.34429 0.66311 0.0
H31 H 0.09084 0.15098 0.54007 0.0
H32 H 0.28022 0.25933 0.52806 0.0
C33 C 0.02817 0.67275 0.40009 0.0
C34 C 0.98016 0.67502 0.42115 0.0
N35 N 0.96076 0.74031 0.42474 0.0
N36 N 0.03911 0.73611 0.3902 0.0
C37 C 0.99673 0.77623 0.40532 0.0
H38 H 0.05669 0.62823 0.39371 0.0
Co39 Co 0.11021 0.75425 0.36569 0.0
C40 C 0.09044 0.89355 0.34137 0.0
O41 O 0.15708 0.89918 0.34035 0.0
N42 N 0.18332 0.76802 0.34072 0.0
C43 C 0.28458 0.77665 0.3197 0.0
C44 C 0.25113 0.77379 0.34542 0.0
C45 C 0.17715 0.76699 0.31215 0.0
N46 N 0.23763 0.77146 0.29895 0.0
O47 O 0.06586 0.6968 0.33806 0.0
H48 H 0.27539 0.77461 0.36601 0.0
H49 H 0.12886 0.76322 0.30109 0.0
O50 O 0.06362 0.83789 0.35068 0.0
C51 C 0.09293 0.63797 0.33531 0.0
O52 O 0.15268 0.62711 0.34718 0.0
N53 N 0.15323 0.8036 0.39508 0.0
C54 C 0.2001 0.84981 0.44781 0.0
C55 C 0.15888 0.89107 0.43063 0.0
C56 C 0.13479 0.86662 0.40477 0.0
C57 C 0.1944 0.76317 0.41126 0.0
C58 C 0.21889 0.78537 0.43761 0.0
H59 H 0.09725 0.89718 0.39416 0.0
H60 H 0.20559 0.71192 0.40423 0.0
H61 H 0.99502 0.83097 0.40312 0.0
H62 H 0.96516 0.63242 0.43431 0.0
H63 H 0.33908 0.78025 0.31649 0.0
H64 H 0.14317 0.94131 0.43749 0.0
H65 H 0.24964 0.75116 0.45034 0.0
C66 C 0.66647 1.00108 0.57735 0.0
C67 C 0.66832 0.04899 0.5562 0.0
N68 N 0.73354 0.06871 0.55254 0.0
N69 N 0.73003 0.9905 0.58724 0.0
C70 C 0.76983 0.03303 0.57203 0.0
H71 H 0.62212 0.97237 0.5838 0.0
Co72 Co 0.74887 0.91945 0.61178 0.0
C73 C 0.88886 0.939 0.6355 0.0
O74 O 0.89478 0.8724 0.63605 0.0
N75 N 0.76348 0.84646 0.6368 0.0
C76 C 0.77487 0.74566 0.658 0.0
C77 C 0.76977 0.77874 0.63222 0.0
C78 C 0.76416 0.85291 0.66534 0.0
N79 N 0.77053 0.79272 0.67866 0.0
O80 O 0.69199 0.96363 0.63953 0.0
H81 H 0.76985 0.75435 0.61168 0.0
H82 H 0.76073 0.90125 0.67629 0.0
O83 O 0.83286 0.96602 0.62653 0.0
C84 C 0.63319 0.93656 0.64246 0.0
O85 O 0.62218 0.87679 0.63074 0.0
N86 N 0.7976 0.8766 0.58228 0.0
C87 C 0.84226 0.83041 0.52932 0.0
C88 C 0.88394 0.87167 0.5463 0.0
C89 C 0.86022 0.89546 0.57227 0.0
C90 C 0.75684 0.83528 0.56632 0.0
C91 C 0.77826 0.81115 0.53986 0.0
H92 H 0.89092 0.93313 0.5827 0.0
H93 H 0.70585 0.82379 0.57361 0.0
H94 H 0.82463 0.03506 0.57421 0.0
H95 H 0.6255 0.06371 0.54304 0.0
H96 H 0.77968 0.69132 0.66132 0.0
H97 H 0.93389 0.8877 0.53918 0.0
H98 H 0.74374 0.78033 0.5273 0.0
C99 C 0.99406 0.36521 0.40059 0.0
C100 C 0.04194 0.36331 0.4218 0.0
N101 N 0.06184 0.29818 0.42547 0.0
N102 N 0.98366 0.30177 0.39066 0.0
C103 C 0.02627 0.26198 0.40593 0.0
H104 H 0.96526 0.40951 0.39409 0.0
Co105 Co 0.91279 0.28334 0.3659 0.0
C106 C 0.93238 0.14376 0.34206 0.0
O107 O 0.86569 0.13803 0.34143 0.0
N108 N 0.83999 0.26933 0.34065 0.0
C109 C 0.7393 0.26 0.31903 0.0
C110 C 0.77203 0.26426 0.34494 0.0
C111 C 0.84696 0.26875 0.31213 0.0
N112 N 0.78684 0.26368 0.29855 0.0
O113 O 0.95728 0.34062 0.33834 0.0
H114 H 0.74724 0.26461 0.36538 0.0
H115 H 0.89563 0.27137 0.30141 0.0
O116 O 0.95951 0.19957 0.35111 0.0
C117 C 0.93013 0.39936 0.33535 0.0
O118 O 0.87024 0.41026 0.34697 0.0
N119 N 0.86957 0.23412 0.39522 0.0
C120 C 0.82302 0.1884 0.448 0.0
C121 C 0.86475 0.14728 0.43107 0.0
C122 C 0.88871 0.17152 0.40521 0.0
C123 C 0.82778 0.27434 0.41113 0.0
C124 C 0.80345 0.25237 0.43749 0.0
H125 H 0.92677 0.14124 0.39486 0.0
H126 H 0.81611 0.32535 0.40391 0.0
H127 H 0.0285 0.20726 0.40373 0.0
H128 H 0.05656 0.40602 0.43499 0.0
H129 H 0.68489 0.25614 0.3155 0.0
H130 H 0.88106 0.09738 0.43816 0.0
H131 H 0.77227 0.28648 0.45002 0.0
C132 C 0.66869 1.01098 0.08344 0.0
C133 C 0.67036 0.96363 0.06213 0.0
N134 N 0.73554 0.95569 0.05367 0.0
N135 N 0.73247 0.03253 0.08906 0.0
C136 C 0.77224 0.99761 0.07076 0.0
H137 H 0.62302 0.03104 0.09306 0.0
Co138 Co 0.75097 0.10493 0.11334 0.0
C139 C 0.88981 0.08218 0.13944 0.0
O140 O 0.89512 0.14796 0.14387 0.0
N141 N 0.76535 0.1788 0.13785 0.0
C142 C 0.77651 0.28123 0.15766 0.0
C143 C 0.77333 0.24591 0.13234 0.0
C144 C 0.76302 0.17493 0.16647 0.0
N145 N 0.76917 0.23615 0.17895 0.0
O146 O 0.69433 0.0612 0.14154 0.0
H147 H 0.77567 0.26824 0.11139 0.0
H148 H 0.75791 0.12768 0.17811 0.0
O149 O 0.83517 0.05812 0.12791 0.0
C150 C 0.63576 0.08856 0.14504 0.0
O151 O 0.62458 0.14858 0.13356 0.0
N152 N 0.79928 0.14789 0.08369 0.0
C153 C 0.84574 0.19472 0.03113 0.0
C154 C 0.89009 0.16228 0.05016 0.0
C155 C 0.86582 0.13841 0.07606 0.0
C156 C 0.756 0.18178 0.06592 0.0
C157 C 0.77811 0.2058 0.03954 0.0
H158 H 0.90033 0.10831 0.08842 0.0
H159 H 0.70297 0.18722 0.07176 0.0
H160 H 0.82643 1.00594 0.069 0.0
H161 H 0.62594 0.93981 0.05286 0.0
H162 H 0.78216 0.33572 0.16021 0.0
H163 H 0.94297 0.15331 0.04474 0.0
H164 H 0.74182 0.2301 0.02544 0.0
C165 C 0.02777 0.35401 0.90107 0.0
C166 C 0.98012 0.35039 0.92227 0.0
N167 N 0.96413 0.28442 0.92643 0.0
N168 N 0.04172 0.29077 0.89166 0.0
C169 C 1.00162 0.24937 0.90727 0.0
H170 H 0.05384 0.3996 0.89421 0.0
Co171 Co 0.11278 0.27396 0.86684 0.0
C172 C 0.09309 0.13509 0.84192 0.0
O173 O 0.15966 0.12966 0.84016 0.0
N174 N 0.18554 0.2612 0.84159 0.0
C175 C 0.28638 0.25255 0.82024 0.0
C176 C 0.25342 0.25544 0.84607 0.0
C177 C 0.17883 0.26234 0.81304 0.0
N178 N 0.23905 0.25775 0.79964 0.0
O179 O 0.06738 0.33136 0.83947 0.0
H180 H 0.27799 0.25441 0.86661 0.0
H181 H 0.13032 0.26589 0.80215 0.0
O182 O 0.06665 0.1903 0.85183 0.0
C183 C 0.09421 0.39029 0.83666 0.0
O184 O 0.15393 0.40144 0.84851 0.0
N185 N 0.15702 0.2247 0.89592 0.0
C186 C 0.2048 0.1787 0.94851 0.0
C187 C 0.16518 0.13653 0.93108 0.0
C188 C 0.1407 0.16079 0.90525 0.0
C189 C 0.19707 0.26586 0.91227 0.0
C190 C 0.22199 0.24379 0.93856 0.0
H191 H 0.10439 0.12925 0.89443 0.0
H192 H 0.20687 0.31754 0.90542 0.0
H193 H 1.00234 0.19449 0.90558 0.0
H194 H 0.96286 0.39268 0.93512 0.0
H195 H 0.34081 0.24869 0.81685 0.0
H196 H 0.15089 0.08573 0.93777 0.0
H197 H 0.25166 0.27852 0.95148 0.0
C198 C 0.36305 0.98855 0.07665 0.0
C199 C 0.36094 0.03697 0.0557 0.0
N200 N 0.29588 0.05782 0.05259 0.0
N201 N 0.29982 0.97879 0.08691 0.0
C202 C 0.25999 0.02238 0.07218 0.0
H203 H 0.40725 0.95906 0.08277 0.0
Co204 Co 0.28149 0.90795 0.11155 0.0
C205 C 0.14098 0.92561 0.13429 0.0
O206 O 0.13573 0.85895 0.13373 0.0
N207 N 0.26745 0.83535 0.13678 0.0
C208 C 0.25815 0.7355 0.15893 0.0
C209 C 0.26287 0.76726 0.13284 0.0
C210 C 0.26599 0.84335 0.16524 0.0
N211 N 0.26104 0.78382 0.17913 0.0
O212 O 0.33844 0.95278 0.13928 0.0
H213 H 0.2639 0.74171 0.11255 0.0
H214 H 0.26813 0.89235 0.17573 0.0
O215 O 0.19704 0.95393 0.1262 0.0
C216 C 0.39729 0.92579 0.14237 0.0
O217 O 0.40859 0.86625 0.13051 0.0
N218 N 0.23276 0.86445 0.08202 0.0
C219 C 0.18784 0.81727 0.02912 0.0
C220 C 0.14729 0.86087 0.04544 0.0
C221 C 0.17115 0.88505 0.07137 0.0
C222 C 0.27253 0.8211 0.06663 0.0
C223 C 0.25085 0.79629 0.04025 0.0
H224 H 0.14151 0.92428 0.08129 0.0
H225 H 0.32301 0.80842 0.07428 0.0
H226 H 0.20538 0.02554 0.07476 0.0
H227 H 0.40325 0.05135 0.04227 0.0
H228 H 0.25474 0.68126 0.16278 0.0
H229 H 0.09816 0.87837 0.03783 0.0
H230 H 0.28448 0.76361 0.02817 0.0
C231 C 0.99222 0.66189 0.90197 0.0
C232 C 0.04087 0.66265 0.92291 0.0
N233 N 0.06521 0.72659 0.92532 0.0
N234 N 0.98567 0.72487 0.89102 0.0
C235 C 0.03156 0.76311 0.90529 0.0
H236 H 0.96036 0.61903 0.89633 0.0
Co237 Co 0.91527 0.7449 0.86622 0.0
C238 C 0.93504 0.88516 0.84402 0.0
O239 O 0.8684 0.89126 0.84474 0.0
N240 N 0.84282 0.76053 0.8408 0.0
C241 C 0.74294 0.77255 0.81871 0.0
C242 C 0.77478 0.76669 0.84474 0.0
C243 C 0.85062 0.76217 0.81231 0.0
N244 N 0.791 0.76888 0.79846 0.0
O245 O 0.95924 0.6877 0.8386 0.0
H246 H 0.74913 0.76621 0.86496 0.0
H247 H 0.89953 0.75901 0.8018 0.0
O248 O 0.96274 0.82851 0.85179 0.0
C249 C 0.93172 0.62914 0.83569 0.0
O250 O 0.87168 0.61879 0.84726 0.0
N251 N 0.87271 0.79418 0.89567 0.0
C252 C 0.8249 0.83989 0.94813 0.0
C253 C 0.87239 0.87807 0.93281 0.0
C254 C 0.89638 0.85399 0.90692 0.0
C255 C 0.82659 0.75622 0.91044 0.0
C256 C 0.80095 0.7787 0.93648 0.0
H257 H 0.93765 0.88174 0.89745 0.0
H258 H 0.81182 0.70668 0.90247 0.0
H259 H 0.03761 0.81723 0.90206 0.0
H260 H 0.05301 0.62044 0.93681 0.0
H261 H 0.6887 0.77739 0.81493 0.0
H262 H 0.89258 0.92537 0.94118 0.0
H263 H 0.76521 0.74702 0.94798 0.0
C264 C 0.30864 0.88873 0.5126 0.0
C265 C 0.2654 0.93179 0.52829 0.0
H266 H 0.32273 0.83026 0.47472 0.0
C267 C 0.19831 0.94187 0.51861 0.0
H268 H 0.36012 0.87853 0.5197 0.0
C269 C 0.17643 0.9129 0.49311 0.0
C270 C 0.22124 0.87379 0.47645 0.0
H271 H 0.16335 0.97456 0.52995 0.0
H272 H 0.12464 0.92252 0.48616 0.0
C273 C 0.28697 0.86038 0.4869 0.0
C274 C 0.85187 0.74415 0.49009 0.0
C275 C 0.86537 0.80974 0.50055 0.0
H276 H 0.8695 0.67145 0.45721 0.0
C277 C 0.90384 0.85484 0.48377 0.0
H278 H 0.82215 0.70821 0.50235 0.0
C279 C 0.9324 0.83329 0.45819 0.0
C280 C 0.92246 0.76628 0.44854 0.0
H281 H 0.9134 0.90656 0.4907 0.0
H282 H 0.96473 0.86848 0.4468 0.0
C283 C 0.87973 0.72285 0.4643 0.0
C284 C 0.82633 0.09769 0.5191 0.0
C285 C 0.75919 0.1071 0.52869 0.0
H286 H 0.89958 0.11742 0.48669 0.0
C287 C 0.71539 0.14951 0.51286 0.0
H288 H 0.8618 0.06561 0.53054 0.0
C289 C 0.73656 0.17769 0.48709 0.0
C290 C 0.80234 0.1648 0.47672 0.0
H291 H 0.66386 0.15931 0.51988 0.0
H292 H 0.70039 0.20722 0.47479 0.0
C293 C 0.84772 0.12654 0.49355 0.0
C294 C 0.17116 0.29511 0.49095 0.0
C295 C 0.15823 0.22942 0.5014 0.0
H296 H 0.15272 0.36771 0.45805 0.0
C297 C 0.11981 0.18411 0.48462 0.0
H298 H 0.20081 0.33122 0.50321 0.0
C299 C 0.09087 0.20548 0.45903 0.0
C300 C 0.10034 0.27252 0.44936 0.0
H301 H 0.11066 0.13233 0.49155 0.0
H302 H 0.05866 0.17009 0.44762 0.0
C303 C 0.14289 0.31625 0.46515 0.0
C304 C 0.73328 0.86314 0.98363 0.0
C305 C 0.80249 0.86339 0.97647 0.0
H306 H 0.65748 0.89166 0.01334 0.0
C307 C 0.8501 0.88891 -0.00389 0.0
H308 H 0.69551 0.84376 0.96887 0.0
C309 C 0.82858 0.91647 0.02191 0.0
C310 C 0.75874 0.91979 0.02861 0.0
H311 H 0.90412 0.88821 -0.00863 0.0
H312 H 0.86698 0.93614 0.03619 0.0
C313 C 0.71161 0.89104 0.00933 0.0
C314 C 0.85045 0.27695 -0.00975 0.0
C315 C 0.87016 0.21473 0.00248 0.0
H316 H 0.86365 0.34709 0.95595 0.0
C317 C 0.91571 0.17253 0.98757 0.0
H318 H 0.81535 0.31055 0.00112 0.0
C319 C 0.94411 0.19385 0.96192 0.0
C320 C 0.92725 0.25773 0.95043 0.0
H321 H 0.93063 0.12341 -0.00398 0.0
H322 H 0.98158 0.16147 0.95187 0.0
C323 C 0.87858 0.29812 0.96448 0.0
C324 C 0.18094 0.11541 -0.00633 0.0
C325 C 0.22572 0.15493 0.97718 0.0
H326 H 0.16785 0.05322 0.03035 0.0
C327 C 0.2912 0.16879 0.9878 0.0
H328 H 0.12936 0.10543 0.98654 0.0
C329 C 0.31278 0.14022 0.01347 0.0
C330 C 0.26962 0.09669 0.02897 0.0
H331 H 0.32683 0.19932 0.97572 0.0
H332 H 0.36416 0.15048 0.0207 0.0
C333 C 0.20269 0.08635 0.01916 0.0
C334 C 0.14553 0.7075 0.96518 0.0
C335 C 0.10536 0.75213 0.94874 0.0
H336 H 0.20208 0.69247 0.00363 0.0
C337 C 0.09934 0.8203 0.95749 0.0
H338 H 0.15265 0.65508 0.95879 0.0
C339 C 0.1289 0.84201 0.9829 0.0
C340 C 0.16456 0.79602 0.0004 0.0
H341 H 0.06906 0.8564 0.94555 0.0
H342 H 0.12212 0.89462 -0.0108 0.0
C343 C 0.17452 0.72909 -0.00921 0.0
C344 C 0.57824 0.04908 0.65285 0.0
C345 C 0.57355 0.97786 0.65122 0.0
H346 H 0.52455 0.14384 0.65189 0.0
C347 C 0.50868 0.94735 0.6528 0.0
H348 H 0.62732 0.07424 0.65186 0.0
C349 C 0.44958 0.98725 0.65272 0.0
C350 C 0.45428 0.05846 0.65105 0.0
H351 H 0.50329 0.89248 0.65194 0.0
H352 H 0.40051 0.96209 0.65164 0.0
C353 C 0.51915 0.08898 0.65277 0.0
C354 C 0.98042 0.58284 0.32475 0.0
C355 C 0.05172 0.5783 0.32647 0.0
H356 H 0.88569 0.52899 0.3256 0.0
C357 C 0.08241 0.51355 0.3249 0.0
H358 H 0.95513 0.63181 0.32574 0.0
C359 C 0.04261 0.45443 0.3249 0.0
C360 C 0.97132 0.45898 0.32651 0.0
H361 H 0.13734 0.50829 0.32581 0.0
H362 H 0.06792 0.40547 0.32601 0.0
C363 C 0.94062 0.52371 0.32478 0.0
C364 C 0.58057 0.97572 0.15466 0.0
C365 C 0.57602 0.04702 0.15356 0.0
H366 H 0.52683 0.88111 0.15253 0.0
C367 C 0.51111 0.07752 0.15509 0.0
H368 H 0.62964 0.95054 0.15369 0.0
C369 C 0.45196 0.03771 0.15429 0.0
C370 C 0.45666 0.9666 0.15197 0.0
H371 H 0.50578 0.13241 0.15465 0.0
H372 H 0.40295 0.06298 0.15312 0.0
C373 C 0.52143 0.93592 0.15386 0.0
C374 C 0.98163 0.44523 0.82605 0.0
C375 C 0.05294 0.44973 0.82761 0.0
H376 H 0.88697 0.49925 0.82677 0.0
C377 C 0.08371 0.51436 0.82562 0.0
H378 H 0.95629 0.39632 0.82737 0.0
C379 C 0.04399 0.57353 0.82536 0.0
C380 C 0.9727 0.56915 0.82712 0.0
H381 H 0.13865 0.51956 0.82639 0.0
H382 H 0.06938 0.62248 0.82613 0.0
C383 C 0.94189 0.50442 0.82581 0.0
C384 C 1.01118 0.08901 0.63966 0.0
C385 C 0.07535 0.05635 0.63891 0.0
H386 H 0.90221 0.07817 0.63893 0.0
C387 C 0.07718 0.98501 0.63892 0.0
H388 H 1.00753 0.14403 0.63958 0.0
C389 C 0.01648 0.94736 0.63903 0.0
C390 C 0.9523 0.98005 0.63861 0.0
H391 H 0.12543 0.95823 0.63832 0.0
H392 H 0.02014 0.89236 0.63846 0.0
C393 C 0.95048 0.05137 0.63925 0.0
C394 C 0.97798 0.95549 0.33851 0.0
C395 C 0.0494 0.95708 0.33854 0.0
H396 H 0.88539 1.01275 0.33897 0.0
C397 C 0.08225 0.02112 0.33789 0.0
H398 H 0.95104 0.90736 0.33905 0.0
C399 C 0.04474 0.08188 0.33834 0.0
C400 C 0.97333 0.08028 0.33894 0.0
H401 H 0.13734 0.0246 0.338 0.0
H402 H 0.07169 0.13002 0.33873 0.0
C403 C 0.94046 0.01625 0.33844 0.0
C404 C 0.07846 0.03644 0.1419 0.0
C405 C 0.07714 0.9657 0.13803 0.0
H406 H 0.02072 0.12816 0.14609 0.0
C407 C 1.01318 0.93285 0.13629 0.0
H408 H 0.12657 0.0633 0.14332 0.0
C409 C 0.95223 0.97 0.1374 0.0
C410 C 0.95351 0.04088 0.14083 0.0
H411 H 1.00994 0.87831 0.13316 0.0
H412 H 0.9042 0.9433 0.13513 0.0
C413 C 0.01746 0.07345 0.14356 0.0
C414 C 0.94309 1.01257 0.84056 0.0
C415 C 0.97592 0.94852 0.84051 0.0
H416 H 0.95376 0.12139 0.84124 0.0
C417 C 0.04723 0.94682 0.83892 0.0
H418 H 0.88809 0.01617 0.84182 0.0
C419 C 0.08476 1.00756 0.83809 0.0
C420 C 0.052 0.07159 0.83934 0.0
H421 H 0.07414 0.89865 0.83885 0.0
H422 H 0.13982 1.00407 0.83748 0.0
C423 C 0.98062 0.07325 0.84023 0.0
C424 C 0.30087 0.21054 0.72729 0.0
C425 C 0.2589 0.2512 0.70996 0.0
H426 H 0.32795 0.18166 0.76979 0.0
C427 C 0.21399 0.29759 0.72261 0.0
H428 H 0.33642 0.1749 0.71791 0.0
C429 C 0.20868 0.30082 0.75215 0.0
C430 C 0.24912 0.25863 0.76947 0.0
H431 H 0.18111 0.32921 0.70964 0.0
H432 H 0.17233 0.33566 0.76152 0.0
C433 C 0.29647 0.21469 0.75683 0.0
C434 C 0.30146 0.81658 0.2267 0.0
C435 C 0.26003 0.7754 0.20938 0.0
H436 H 0.32727 0.84673 0.26917 0.0
C437 C 0.21475 0.72937 0.22202 0.0
H438 H 0.33724 0.85197 0.21731 0.0
C439 C 0.20852 0.72705 0.25154 0.0
C440 C 0.24843 0.76979 0.26884 0.0
H441 H 0.18229 0.69738 0.20902 0.0
H442 H 0.1719 0.69249 0.26091 0.0
C443 C 0.29617 0.81333 0.25623 0.0
C444 C 0.82246 0.7302 0.7505 0.0
C445 C 0.78182 0.77094 0.76823 0.0
H446 H 0.84978 0.70465 0.7077 0.0
C447 C 0.73444 0.81574 0.75604 0.0
H448 H 0.85882 0.69472 0.75951 0.0
C449 C 0.72988 0.82186 0.72655 0.0
C450 C 0.77171 0.78235 0.70882 0.0
H451 H 0.7028 0.8477 0.76932 0.0
H452 H 0.69408 0.85792 0.71755 0.0
C453 C 0.81698 0.7354 0.72099 0.0
C454 C 0.72897 0.21811 0.25618 0.0
C455 C 0.7771 0.26214 0.26834 0.0
H456 H 0.68899 0.17528 0.21776 0.0
C457 C 0.81875 0.30174 0.25054 0.0
H458 H 0.69651 0.18705 0.2695 0.0
C459 C 0.81404 0.29559 0.22105 0.0
C460 C 0.76844 0.24888 0.20895 0.0
H461 H 0.85569 0.33667 0.2595 0.0
H462 H 0.84799 0.32504 0.20774 0.0
C463 C 0.72509 0.21109 0.22672 0.0
loop_
_geom_bond_atom_site_label_1
_geom_bond_atom_site_label_2
_geom_bond_distance
_geom_bond_site_symmetry_2
_ccdc_geom_bond_type
C0 C1 1.351 . S
C0 N3 1.368 . S
C0 H5 0.931 . S
C1 C0 1.351 . S
C1 N2 1.373 1_545 S
C1 H29 0.930 . S
N2 C1 1.373 1_565 S
N2 C4 1.340 . S
N3 C0 1.368 . S
N3 C4 1.321 1_545 S
N3 Co6 2.135 . S
C4 N2 1.340 . S
C4 N3 1.321 1_565 S
C4 H28 0.930 . S
H5 C0 0.931 . S
Co6 N3 2.135 . S
Co6 N9 2.121 . S
Co6 O14 2.055 . S
Co6 O17 2.039 . S
Co6 N20 2.140 . S
C7 O8 1.227 . S
C7 O17 1.265 . S
O8 C7 1.227 . S
N9 Co6 2.121 . S
N9 C11 1.375 . S
N9 C12 1.313 . S
C10 C11 1.338 . S
C10 N13 1.377 . S
C10 H30 0.930 . S
C11 N9 1.375 . S
C11 C10 1.338 . S
C11 H15 0.931 . S
C12 N9 1.313 . S
C12 N13 1.344 . S
C12 H16 0.930 . S
N13 C10 1.377 . S
N13 C12 1.344 . S
O14 Co6 2.055 . S
O14 C18 1.253 . S
H15 C11 0.931 . S
H16 C12 0.930 . S
O17 Co6 2.039 . S
O17 C7 1.265 . S
C18 O14 1.253 . S
C18 O19 1.227 . S
O19 C18 1.227 . S
N20 Co6 2.140 . S
N20 C23 1.346 . S
N20 C24 1.345 . S
C21 C22 1.387 . S
C21 C25 1.391 . S
C22 C21 1.387 . S
C22 C23 1.369 . S
C22 H31 0.929 . S
C23 N20 1.346 . S
C23 C22 1.369 . S
C23 H26 0.928 . S
C24 N20 1.345 . S
C24 C25 1.371 . S
C24 H27 0.931 . S
C25 C21 1.391 . S
C25 C24 1.371 . S
C25 H32 0.930 . S
H26 C23 0.928 . S
H27 C24 0.931 . S
H28 C4 0.930 . S
H29 C1 0.930 . S
H30 C10 0.930 . S
H31 C22 0.929 . S
H32 C25 0.930 . S
C33 C34 1.351 . S
C33 N36 1.368 . S
C33 H38 0.931 . S
C34 C33 1.351 . S
C34 N35 1.373 1_455 S
C34 H62 0.930 . S
N35 C34 1.373 1_655 S
N35 C37 1.340 . S
N36 C33 1.368 . S
N36 C37 1.321 1_455 S
N36 Co39 2.135 . S
C37 N35 1.340 . S
C37 N36 1.321 1_655 S
C37 H61 0.930 . S
H38 C33 0.931 . S
Co39 N36 2.135 . S
Co39 N42 2.121 . S
Co39 O47 2.055 . S
Co39 O50 2.039 . S
Co39 N53 2.140 . S
C40 O41 1.227 . S
C40 O50 1.265 . S
O41 C40 1.227 . S
N42 Co39 2.121 . S
N42 C44 1.375 . S
N42 C45 1.313 . S
C43 C44 1.338 . S
C43 N46 1.377 . S
C43 H63 0.930 . S
C44 N42 1.375 . S
C44 C43 1.338 . S
C44 H48 0.931 . S
C45 N42 1.313 . S
C45 N46 1.344 . S
C45 H49 0.930 . S
N46 C43 1.377 . S
N46 C45 1.344 . S
O47 Co39 2.055 . S
O47 C51 1.253 . S
H48 C44 0.931 . S
H49 C45 0.930 . S
O50 Co39 2.039 . S
O50 C40 1.265 . S
C51 O47 1.253 . S
C51 O52 1.227 . S
O52 C51 1.227 . S
N53 Co39 2.140 . S
N53 C56 1.346 . S
N53 C57 1.345 . S
C54 C55 1.387 . S
C54 C58 1.391 . S
C55 C54 1.387 . S
C55 C56 1.369 . S
C55 H64 0.929 . S
C56 N53 1.346 . S
C56 C55 1.369 . S
C56 H59 0.928 . S
C57 N53 1.345 . S
C57 C58 1.371 . S
C57 H60 0.931 . S
C58 C54 1.391 . S
C58 C57 1.371 . S
C58 H65 0.930 . S
H59 C56 0.928 . S
H60 C57 0.931 . S
H61 C37 0.930 . S
H62 C34 0.930 . S
H63 C43 0.930 . S
H64 C55 0.929 . S
H65 C58 0.930 . S
C66 C67 1.351 . S
C66 N69 1.368 . S
C66 H71 0.931 . S
C67 C66 1.351 . S
C67 N68 1.373 1_565 S
C67 H95 0.930 . S
N68 C67 1.373 1_545 S
N68 C70 1.340 . S
N69 C66 1.368 . S
N69 C70 1.321 1_565 S
N69 Co72 2.135 . S
C70 N68 1.340 . S
C70 N69 1.321 1_545 S
C70 H94 0.930 . S
H71 C66 0.931 . S
Co72 N69 2.135 . S
Co72 N75 2.121 . S
Co72 O80 2.055 . S
Co72 O83 2.039 . S
Co72 N86 2.140 . S
C73 O74 1.227 . S
C73 O83 1.265 . S
O74 C73 1.227 . S
N75 Co72 2.121 . S
N75 C77 1.375 . S
N75 C78 1.313 . S
C76 C77 1.338 . S
C76 N79 1.377 . S
C76 H96 0.930 . S
C77 N75 1.375 . S
C77 C76 1.338 . S
C77 H81 0.931 . S
C78 N75 1.313 . S
C78 N79 1.344 . S
C78 H82 0.930 . S
N79 C76 1.377 . S
N79 C78 1.344 . S
O80 Co72 2.055 . S
O80 C84 1.253 . S
H81 C77 0.931 . S
H82 C78 0.930 . S
O83 Co72 2.039 . S
O83 C73 1.265 . S
C84 O80 1.253 . S
C84 O85 1.227 . S
O85 C84 1.227 . S
N86 Co72 2.140 . S
N86 C89 1.346 . S
N86 C90 1.345 . S
C87 C88 1.387 . S
C87 C91 1.391 . S
C88 C87 1.387 . S
C88 C89 1.369 . S
C88 H97 0.929 . S
C89 N86 1.346 . S
C89 C88 1.369 . S
C89 H92 0.928 . S
C90 N86 1.345 . S
C90 C91 1.371 . S
C90 H93 0.931 . S
C91 C87 1.391 . S
C91 C90 1.371 . S
C91 H98 0.930 . S
H92 C89 0.928 . S
H93 C90 0.931 . S
H94 C70 0.930 . S
H95 C67 0.930 . S
H96 C76 0.930 . S
H97 C88 0.929 . S
H98 C91 0.930 . S
C99 C100 1.351 . S
C99 N102 1.368 . S
C99 H104 0.931 . S
C100 C99 1.351 . S
C100 N101 1.373 1_655 S
C100 H128 0.930 . S
N101 C100 1.373 1_455 S
N101 C103 1.340 . S
N102 C99 1.368 . S
N102 C103 1.321 1_655 S
N102 Co105 2.135 . S
C103 N101 1.340 . S
C103 N102 1.321 1_455 S
C103 H127 0.930 . S
H104 C99 0.931 . S
Co105 N102 2.135 . S
Co105 N108 2.121 . S
Co105 O113 2.055 . S
Co105 O116 2.039 . S
Co105 N119 2.140 . S
C106 O107 1.227 . S
C106 O116 1.265 . S
O107 C106 1.227 . S
N108 Co105 2.121 . S
N108 C110 1.375 . S
N108 C111 1.313 . S
C109 C110 1.338 . S
C109 N112 1.377 . S
C109 H129 0.930 . S
C110 N108 1.375 . S
C110 C109 1.338 . S
C110 H114 0.931 . S
C111 N108 1.313 . S
C111 N112 1.344 . S
C111 H115 0.930 . S
N112 C109 1.377 . S
N112 C111 1.344 . S
O113 Co105 2.055 . S
O113 C117 1.253 . S
H114 C110 0.931 . S
H115 C111 0.930 . S
O116 Co105 2.039 . S
O116 C106 1.265 . S
C117 O113 1.253 . S
C117 O118 1.227 . S
O118 C117 1.227 . S
N119 Co105 2.140 . S
N119 C122 1.346 . S
N119 C123 1.345 . S
C120 C121 1.387 . S
C120 C124 1.391 . S
C121 C120 1.387 . S
C121 C122 1.369 . S
C121 H130 0.929 . S
C122 N119 1.346 . S
C122 C121 1.369 . S
C122 H125 0.928 . S
C123 N119 1.345 . S
C123 C124 1.371 . S
C123 H126 0.931 . S
C124 C120 1.391 . S
C124 C123 1.371 . S
C124 H131 0.930 . S
H125 C122 0.928 . S
H126 C123 0.931 . S
H127 C103 0.930 . S
H128 C100 0.930 . S
H129 C109 0.930 . S
H130 C121 0.929 . S
H131 C124 0.930 . S
C132 C133 1.351 . S
C132 N135 1.368 . S
C132 H137 0.931 . S
C133 C132 1.351 . S
C133 N134 1.373 1_545 S
C133 H161 0.930 . S
N134 C133 1.373 1_565 S
N134 C136 1.340 . S
N135 C132 1.368 . S
N135 C136 1.321 1_545 S
N135 Co138 2.135 . S
C136 N134 1.340 . S
C136 N135 1.321 1_565 S
C136 H160 0.930 . S
H137 C132 0.931 . S
Co138 N135 2.135 . S
Co138 N141 2.121 . S
Co138 O146 2.055 . S
Co138 O149 2.039 . S
Co138 N152 2.140 . S
C139 O140 1.227 . S
C139 O149 1.265 . S
O140 C139 1.227 . S
N141 Co138 2.121 . S
N141 C143 1.375 . S
N141 C144 1.313 . S
C142 C143 1.338 . S
C142 N145 1.377 . S
C142 H162 0.930 . S
C143 N141 1.375 . S
C143 C142 1.338 . S
C143 H147 0.931 . S
C144 N141 1.313 . S
C144 N145 1.344 . S
C144 H148 0.930 . S
N145 C142 1.377 . S
N145 C144 1.344 . S
O146 Co138 2.055 . S
O146 C150 1.253 . S
H147 C143 0.931 . S
H148 C144 0.930 . S
O149 Co138 2.039 . S
O149 C139 1.265 . S
C150 O146 1.253 . S
C150 O151 1.227 . S
O151 C150 1.227 . S
N152 Co138 2.140 . S
N152 C155 1.346 . S
N152 C156 1.345 . S
C153 C154 1.387 . S
C153 C157 1.391 . S
C154 C153 1.387 . S
C154 C155 1.369 . S
C154 H163 0.929 . S
C155 N152 1.346 . S
C155 C154 1.369 . S
C155 H158 0.928 . S
C156 N152 1.345 . S
C156 C157 1.371 . S
C156 H159 0.931 . S
C157 C153 1.391 . S
C157 C156 1.371 . S
C157 H164 0.930 . S
H158 C155 0.928 . S
H159 C156 0.931 . S
H160 C136 0.930 . S
H161 C133 0.930 . S
H162 C142 0.930 . S
H163 C154 0.929 . S
H164 C157 0.930 . S
C165 C166 1.351 . S
C165 N168 1.368 . S
C165 H170 0.931 . S
C166 C165 1.351 . S
C166 N167 1.373 1_455 S
C166 H194 0.930 . S
N167 C166 1.373 1_655 S
N167 C169 1.340 . S
N168 C165 1.368 . S
N168 C169 1.321 1_455 S
N168 Co171 2.135 . S
C169 N167 1.340 . S
C169 N168 1.321 1_655 S
C169 H193 0.930 . S
H170 C165 0.931 . S
Co171 N168 2.135 . S
Co171 N174 2.121 . S
Co171 O179 2.055 . S
Co171 O182 2.039 . S
Co171 N185 2.140 . S
C172 O173 1.227 . S
C172 O182 1.265 . S
O173 C172 1.227 . S
N174 Co171 2.121 . S
N174 C176 1.375 . S
N174 C177 1.313 . S
C175 C176 1.338 . S
C175 N178 1.377 . S
C175 H195 0.930 . S
C176 N174 1.375 . S
C176 C175 1.338 . S
C176 H180 0.931 . S
C177 N174 1.313 . S
C177 N178 1.344 . S
C177 H181 0.930 . S
N178 C175 1.377 . S
N178 C177 1.344 . S
O179 Co171 2.055 . S
O179 C183 1.253 . S
H180 C176 0.931 . S
H181 C177 0.930 . S
O182 Co171 2.039 . S
O182 C172 1.265 . S
C183 O179 1.253 . S
C183 O184 1.227 . S
O184 C183 1.227 . S
N185 Co171 2.140 . S
N185 C188 1.346 . S
N185 C189 1.345 . S
C186 C187 1.387 . S
C186 C190 1.391 . S
C187 C186 1.387 . S
C187 C188 1.369 . S
C187 H196 0.929 . S
C188 N185 1.346 . S
C188 C187 1.369 . S
C188 H191 0.928 . S
C189 N185 1.345 . S
C189 C190 1.371 . S
C189 H192 0.931 . S
C190 C186 1.391 . S
C190 C189 1.371 . S
C190 H197 0.930 . S
H191 C188 0.928 . S
H192 C189 0.931 . S
H193 C169 0.930 . S
H194 C166 0.930 . S
H195 C175 0.930 . S
H196 C187 0.929 . S
H197 C190 0.930 . S
C198 C199 1.351 . S
C198 N201 1.368 . S
C198 H203 0.931 . S
C199 C198 1.351 . S
C199 N200 1.373 1_565 S
C199 H227 0.930 . S
N200 C199 1.373 1_545 S
N200 C202 1.340 . S
N201 C198 1.368 . S
N201 C202 1.321 1_565 S
N201 Co204 2.135 . S
C202 N200 1.340 . S
C202 N201 1.321 1_545 S
C202 H226 0.930 . S
H203 C198 0.931 . S
Co204 N201 2.135 . S
Co204 N207 2.121 . S
Co204 O212 2.055 . S
Co204 O215 2.039 . S
Co204 N218 2.140 . S
C205 O206 1.227 . S
C205 O215 1.265 . S
O206 C205 1.227 . S
N207 Co204 2.121 . S
N207 C209 1.375 . S
N207 C210 1.313 . S
C208 C209 1.338 . S
C208 N211 1.377 . S
C208 H228 0.930 . S
C209 N207 1.375 . S
C209 C208 1.338 . S
C209 H213 0.931 . S
C210 N207 1.313 . S
C210 N211 1.344 . S
C210 H214 0.930 . S
N211 C208 1.377 . S
N211 C210 1.344 . S
O212 Co204 2.055 . S
O212 C216 1.253 . S
H213 C209 0.931 . S
H214 C210 0.930 . S
O215 Co204 2.039 . S
O215 C205 1.265 . S
C216 O212 1.253 . S
C216 O217 1.227 . S
O217 C216 1.227 . S
N218 Co204 2.140 . S
N218 C221 1.346 . S
N218 C222 1.345 . S
C219 C220 1.387 . S
C219 C223 1.391 . S
C220 C219 1.387 . S
C220 C221 1.369 . S
C220 H229 0.929 . S
C221 N218 1.346 . S
C221 C220 1.369 . S
C221 H224 0.928 . S
C222 N218 1.345 . S
C222 C223 1.371 . S
C222 H225 0.931 . S
C223 C219 1.391 . S
C223 C222 1.371 . S
C223 H230 0.930 . S
H224 C221 0.928 . S
H225 C222 0.931 . S
H226 C202 0.930 . S
H227 C199 0.930 . S
H228 C208 0.930 . S
H229 C220 0.929 . S
H230 C223 0.930 . S
C231 C232 1.351 . S
C231 N234 1.368 . S
C231 H236 0.931 . S
C232 C231 1.351 . S
C232 N233 1.373 1_655 S
C232 H260 0.930 . S
N233 C232 1.373 1_455 S
N233 C235 1.340 . S
N234 C231 1.368 . S
N234 C235 1.321 1_655 S
N234 Co237 2.135 . S
C235 N233 1.340 . S
C235 N234 1.321 1_455 S
C235 H259 0.930 . S
H236 C231 0.931 . S
Co237 N234 2.135 . S
Co237 N240 2.121 . S
Co237 O245 2.055 . S
Co237 O248 2.039 . S
Co237 N251 2.140 . S
C238 O239 1.227 . S
C238 O248 1.265 . S
O239 C238 1.227 . S
N240 Co237 2.121 . S
N240 C242 1.375 . S
N240 C243 1.313 . S
C241 C242 1.338 . S
C241 N244 1.377 . S
C241 H261 0.930 . S
C242 N240 1.375 . S
C242 C241 1.338 . S
C242 H246 0.931 . S
C243 N240 1.313 . S
C243 N244 1.344 . S
C243 H247 0.930 . S
N244 C241 1.377 . S
N244 C243 1.344 . S
O245 Co237 2.055 . S
O245 C249 1.253 . S
H246 C242 0.931 . S
H247 C243 0.930 . S
O248 Co237 2.039 . S
O248 C238 1.265 . S
C249 O245 1.253 . S
C249 O250 1.227 . S
O250 C249 1.227 . S
N251 Co237 2.140 . S
N251 C254 1.346 . S
N251 C255 1.345 . S
C252 C253 1.387 . S
C252 C256 1.391 . S
C253 C252 1.387 . S
C253 C254 1.369 . S
C253 H262 0.929 . S
C254 N251 1.346 . S
C254 C253 1.369 . S
C254 H257 0.928 . S
C255 N251 1.345 . S
C255 C256 1.371 . S
C255 H258 0.931 . S
C256 C252 1.391 . S
C256 C255 1.371 . S
C256 H263 0.930 . S
H257 C254 0.928 . S
H258 C255 0.931 . S
H259 C235 0.930 . S
H260 C232 0.930 . S
H261 C241 0.930 . S
H262 C253 0.929 . S
H263 C256 0.930 . S
C264 C265 1.387 . S
C264 H268 0.950 . S
C264 C273 1.390 . S
C265 C264 1.387 . S
C265 C267 1.387 . S
H266 C273 0.950 . S
C267 C265 1.387 . S
C267 C269 1.390 . S
C267 H271 0.950 . S
H268 C264 0.950 . S
C269 C267 1.390 . S
C269 C270 1.387 . S
C269 H272 0.950 . S
C270 C269 1.387 . S
C270 C273 1.387 . S
H271 C267 0.950 . S
H272 C269 0.950 . S
C273 C264 1.390 . S
C273 H266 0.950 . S
C273 C270 1.387 . S
C274 C275 1.387 . S
C274 H278 0.950 . S
C274 C283 1.390 . S
C275 C274 1.387 . S
C275 C277 1.387 . S
H276 C283 0.950 . S
C277 C275 1.387 . S
C277 C279 1.390 . S
C277 H281 0.950 . S
H278 C274 0.950 . S
C279 C277 1.390 . S
C279 C280 1.387 . S
C279 H282 0.950 . S
C280 C279 1.387 . S
C280 C283 1.387 . S
H281 C277 0.950 . S
H282 C279 0.950 . S
C283 C274 1.390 . S
C283 H276 0.950 . S
C283 C280 1.387 . S
C284 C285 1.387 . S
C284 H288 0.950 . S
C284 C293 1.390 . S
C285 C284 1.387 . S
C285 C287 1.387 . S
H286 C293 0.950 . S
C287 C285 1.387 . S
C287 C289 1.390 . S
C287 H291 0.950 . S
H288 C284 0.950 . S
C289 C287 1.390 . S
C289 C290 1.387 . S
C289 H292 0.950 . S
C290 C289 1.387 . S
C290 C293 1.387 . S
H291 C287 0.950 . S
H292 C289 0.950 . S
C293 C284 1.390 . S
C293 H286 0.950 . S
C293 C290 1.387 . S
C294 C295 1.387 . S
C294 H298 0.950 . S
C294 C303 1.390 . S
C295 C294 1.387 . S
C295 C297 1.387 . S
H296 C303 0.950 . S
C297 C295 1.387 . S
C297 C299 1.390 . S
C297 H301 0.950 . S
H298 C294 0.950 . S
C299 C297 1.390 . S
C299 C300 1.387 . S
C299 H302 0.950 . S
C300 C299 1.387 . S
C300 C303 1.387 . S
H301 C297 0.950 . S
H302 C299 0.950 . S
C303 C294 1.390 . S
C303 H296 0.950 . S
C303 C300 1.387 . S
C304 C305 1.387 . S
C304 H308 0.950 . S
C304 C313 1.390 . S
C305 C304 1.387 . S
C305 C307 1.387 . S
H306 C313 0.950 . S
C307 C305 1.387 . S
C307 C309 1.390 1_556 S
C307 H311 0.950 1_556 S
H308 C304 0.950 . S
C309 C307 1.390 1_554 S
C309 C310 1.387 . S
C309 H312 0.950 . S
C310 C309 1.387 . S
C310 C313 1.387 1_554 S
H311 C307 0.950 1_554 S
H312 C309 0.950 . S
C313 C304 1.390 . S
C313 H306 0.950 . S
C313 C310 1.387 1_556 S
C314 C315 1.387 . S
C314 H318 0.950 . S
C314 C323 1.390 1_554 S
C315 C314 1.387 . S
C315 C317 1.387 . S
H316 C323 0.950 . S
C317 C315 1.387 . S
C317 C319 1.390 . S
C317 H321 0.950 . S
H318 C314 0.950 . S
C319 C317 1.390 . S
C319 C320 1.387 1_554 S
C319 H322 0.948 1_554 S
C320 C319 1.387 1_556 S
C320 C323 1.387 . S
H321 C317 0.950 . S
H322 C319 0.948 1_556 S
C323 C314 1.390 1_556 S
C323 H316 0.950 . S
C323 C320 1.387 . S
C324 C325 1.387 . S
C324 H328 0.950 . S
C324 C333 1.390 1_556 S
C325 C324 1.387 . S
C325 C327 1.387 . S
H326 C333 0.950 . S
C327 C325 1.387 . S
C327 C329 1.390 . S
C327 H331 0.950 . S
H328 C324 0.950 . S
C329 C327 1.390 . S
C329 C330 1.387 1_556 S
C329 H332 0.950 . S
C330 C329 1.387 1_554 S
C330 C333 1.387 . S
H331 C327 0.950 . S
H332 C329 0.950 . S
C333 C324 1.390 1_554 S
C333 H326 0.950 . S
C333 C330 1.387 . S
C334 C335 1.387 1_554 S
C334 H338 0.950 . S
C334 C343 1.390 . S
C335 C334 1.387 1_556 S
C335 C337 1.387 . S
H336 C343 0.950 . S
C337 C335 1.387 . S
C337 C339 1.390 1_556 S
C337 H341 0.950 . S
H338 C334 0.950 . S
C339 C337 1.390 1_554 S
C339 C340 1.387 . S
C339 H342 0.950 . S
C340 C339 1.387 . S
C340 C343 1.387 . S
H341 C337 0.950 . S
H342 C339 0.950 . S
C343 C334 1.390 . S
C343 H336 0.950 . S
C343 C340 1.387 . S
C344 C345 1.387 . S
C344 H348 0.950 . S
C344 C353 1.390 1_565 S
C345 C344 1.387 . S
C345 C347 1.387 . S
H346 C353 0.950 . S
C347 C345 1.387 . S
C347 C349 1.390 1_565 S
C347 H351 0.950 . S
H348 C344 0.950 . S
C349 C347 1.390 1_545 S
C349 C350 1.387 . S
C349 H352 0.950 . S
C350 C349 1.387 . S
C350 C353 1.387 . S
H351 C347 0.950 . S
H352 C349 0.950 . S
C353 C344 1.390 1_545 S
C353 H346 0.950 . S
C353 C350 1.387 . S
C354 C355 1.387 . S
C354 H358 0.950 . S
C354 C363 1.390 1_455 S
C355 C354 1.387 . S
C355 C357 1.387 . S
H356 C363 0.950 . S
C357 C355 1.387 . S
C357 C359 1.390 1_455 S
C357 H361 0.950 . S
H358 C354 0.950 . S
C359 C357 1.390 1_655 S
C359 C360 1.387 . S
C359 H362 0.950 . S
C360 C359 1.387 . S
C360 C363 1.387 . S
H361 C357 0.950 . S
H362 C359 0.950 . S
C363 C354 1.390 1_655 S
C363 H356 0.950 . S
C363 C360 1.387 . S
C364 C365 1.387 . S
C364 H368 0.950 . S
C364 C373 1.390 1_545 S
C365 C364 1.387 . S
C365 C367 1.387 . S
H366 C373 0.950 . S
C367 C365 1.387 . S
C367 C369 1.390 1_545 S
C367 H371 0.950 . S
H368 C364 0.950 . S
C369 C367 1.390 1_565 S
C369 C370 1.387 . S
C369 H372 0.950 . S
C370 C369 1.387 . S
C370 C373 1.387 . S
H371 C367 0.950 . S
H372 C369 0.950 . S
C373 C364 1.390 1_565 S
C373 H366 0.950 . S
C373 C370 1.387 . S
C374 C375 1.387 . S
C374 H378 0.950 . S
C374 C383 1.390 1_455 S
C375 C374 1.387 . S
C375 C377 1.387 . S
H376 C383 0.950 . S
C377 C375 1.387 . S
C377 C379 1.390 1_455 S
C377 H381 0.950 . S
H378 C374 0.950 . S
C379 C377 1.390 1_655 S
C379 C380 1.387 . S
C379 H382 0.950 . S
C380 C379 1.387 . S
C380 C383 1.387 . S
H381 C377 0.950 . S
H382 C379 0.950 . S
C383 C374 1.390 1_655 S
C383 H376 0.950 . S
C383 C380 1.387 . S
C384 C385 1.387 . S
C384 H388 0.950 . S
C384 C393 1.390 1_445 S
C385 C384 1.387 . S
C385 C387 1.387 . S
H386 C393 0.950 . S
C387 C385 1.387 . S
C387 C389 1.390 1_445 S
C387 H391 0.950 . S
H388 C384 0.950 . S
C389 C387 1.390 1_665 S
C389 C390 1.387 . S
C389 H392 0.950 . S
C390 C389 1.387 . S
C390 C393 1.387 . S
H391 C387 0.950 . S
H392 C389 0.950 . S
C393 C384 1.390 1_665 S
C393 H386 0.950 . S
C393 C390 1.387 . S
C394 C395 1.387 . S
C394 H398 0.950 . S
C394 C403 1.390 1_465 S
C395 C394 1.387 . S
C395 C397 1.387 . S
H396 C403 0.950 . S
C397 C395 1.387 . S
C397 C399 1.390 1_465 S
C397 H401 0.950 . S
H398 C394 0.950 . S
C399 C397 1.390 1_645 S
C399 C400 1.387 . S
C399 H402 0.950 . S
C400 C399 1.387 . S
C400 C403 1.387 . S
H401 C397 0.950 . S
H402 C399 0.950 . S
C403 C394 1.390 1_645 S
C403 H396 0.950 . S
C403 C400 1.387 . S
C404 C405 1.387 . S
C404 H408 0.950 . S
C404 C413 1.390 1_465 S
C405 C404 1.387 . S
C405 C407 1.387 . S
H406 C413 0.950 . S
C407 C405 1.387 . S
C407 C409 1.390 1_465 S
C407 H411 0.950 . S
H408 C404 0.950 . S
C409 C407 1.390 1_645 S
C409 C410 1.387 . S
C409 H412 0.950 . S
C410 C409 1.387 . S
C410 C413 1.387 . S
H411 C407 0.950 . S
H412 C409 0.950 . S
C413 C404 1.390 1_645 S
C413 H406 0.950 . S
C413 C410 1.387 . S
C414 C415 1.387 . S
C414 H418 0.950 . S
C414 C423 1.390 1_665 S
C415 C414 1.387 . S
C415 C417 1.387 . S
H416 C423 0.950 . S
C417 C415 1.387 . S
C417 C419 1.390 1_665 S
C417 H421 0.950 . S
H418 C414 0.950 . S
C419 C417 1.390 1_445 S
C419 C420 1.387 . S
C419 H422 0.950 . S
C420 C419 1.387 . S
C420 C423 1.387 . S
H421 C417 0.950 . S
H422 C419 0.950 . S
C423 C414 1.390 1_445 S
C423 H416 0.950 . S
C423 C420 1.387 . S
C424 C425 1.387 . S
C424 H428 0.950 . S
C424 C433 1.390 . S
C425 C424 1.387 . S
C425 C427 1.387 . S
H426 C433 0.950 . S
C427 C425 1.387 . S
C427 C429 1.390 . S
C427 H431 0.950 . S
H428 C424 0.950 . S
C429 C427 1.390 . S
C429 C430 1.387 . S
C429 H432 0.950 . S
C430 C429 1.387 . S
C430 C433 1.387 . S
H431 C427 0.950 . S
H432 C429 0.950 . S
C433 C424 1.390 . S
C433 H426 0.950 . S
C433 C430 1.387 . S
C434 C435 1.387 . S
C434 H438 0.950 . S
C434 C443 1.390 . S
C435 C434 1.387 . S
C435 C437 1.387 . S
H436 C443 0.950 . S
C437 C435 1.387 . S
C437 C439 1.390 . S
C437 H441 0.950 . S
H438 C434 0.950 . S
C439 C437 1.390 . S
C439 C440 1.387 . S
C439 H442 0.950 . S
C440 C439 1.387 . S
C440 C443 1.387 . S
H441 C437 0.950 . S
H442 C439 0.950 . S
C443 C434 1.390 . S
C443 H436 0.950 . S
C443 C440 1.387 . S
C444 C445 1.387 . S
C444 H448 0.950 . S
C444 C453 1.390 . S
C445 C444 1.387 . S
C445 C447 1.387 . S
H446 C453 0.950 . S
C447 C445 1.387 . S
C447 C449 1.390 . S
C447 H451 0.950 . S
H448 C444 0.950 . S
C449 C447 1.390 . S
C449 C450 1.387 . S
C449 H452 0.950 . S
C450 C449 1.387 . S
C450 C453 1.387 . S
H451 C447 0.950 . S
H452 C449 0.950 . S
C453 C444 1.390 . S
C453 H446 0.950 . S
C453 C450 1.387 . S
C454 C455 1.387 . S
C454 H458 0.950 . S
C454 C463 1.390 . S
C455 C454 1.387 . S
C455 C457 1.387 . S
H456 C463 0.950 . S
C457 C455 1.387 . S
C457 C459 1.390 . S
C457 H461 0.950 . S
H458 C454 0.950 . S
C459 C457 1.390 . S
C459 C460 1.387 . S
C459 H462 0.950 . S
C460 C459 1.387 . S
C460 C463 1.387 . S
H461 C457 0.950 . S
H462 C459 0.950 . S
C463 C454 1.390 . S
C463 H456 0.950 . S
C463 C460 1.387 . S
C265 N2 1.327 . S
C270 C54 1.147 . S
C275 C87 1.141 . S
C280 N35 1.323 . S
C285 N68 1.323 . S
C290 C120 1.142 . S
C295 C21 1.144 . S
C300 N101 1.325 . S
C305 C252 1.141 . S
C310 N134 1.323 . S
C315 C153 1.146 . S
C320 N167 1.326 . S
C325 C186 1.148 . S
C330 N200 1.327 . S
C335 N233 1.325 . S
C340 C219 1.145 . S
C345 C84 1.620 . S
C350 C18 1.620 . S
C355 C51 1.617 . S
C360 C117 1.617 . S
C365 C150 1.617 . S
C370 C216 1.617 . S
C375 C183 1.620 . S
C380 C249 1.620 . S
C385 C7 1.250 . S
C390 C73 1.250 . S
C395 C40 1.250 . S
C400 C106 1.250 . S
C405 C205 1.250 . S
C410 C139 1.250 . S
C415 C238 1.250 . S
C420 C172 1.250 . S
C425 N13 1.674 . S
C430 N178 1.676 . S
C435 N211 1.677 . S
C440 N46 1.674 . S
C445 N244 1.674 . S
C450 N79 1.677 . S
C455 N112 1.675 . S
C460 N145 1.675 . S
