# Generated by pormake.
# Topology uke, (4)-cn, num edge types: 1
# Building blocks:
#     Node 0, Type 0, BuildingBlock: QUQFOY_clean_sbu_1, # of connection points: 4
#     Node 1, Type 0, BuildingBlock: QUQFOY_clean_sbu_1, # of connection points: 4
#     Node 2, Type 0, BuildingBlock: QUQFOY_clean_sbu_1, # of connection points: 4
#     Node 3, Type 0, BuildingBlock: QUQFOY_clean_sbu_1, # of connection points: 4
#     Node 4, Type 0, BuildingBlock: QUQFOY_clean_sbu_1, # of connection points: 4
#     Node 5, Type 0, BuildingBlock: QUQFOY_clean_sbu_1, # of connection points: 4
#     Node 6, Type 0, BuildingBlock: QUQFOY_clean_sbu_1, # of connection points: 4
#     Node 7, Type 0, BuildingBlock: QUQFOY_clean_sbu_1, # of connection points: 4
#     Node 8, Type 0, BuildingBlock: QUQFOY_clean_sbu_1, # of connection points: 4
#     Node 9, Type 0, BuildingBlock: QUQFOY_clean_sbu_1, # of connection points: 4
#     Node 10, Type 0, BuildingBlock: QUQFOY_clean_sbu_1, # of connection points: 4
#     Node 11, Type 0, BuildingBlock: QUQFOY_clean_sbu_1, # of connection points: 4
#     Node 12, Type 0, BuildingBlock: QUQFOY_clean_sbu_1, # of connection points: 4
#     Node 13, Type 0, BuildingBlock: QUQFOY_clean_sbu_1, # of connection points: 4
#     Node 14, Type 0, BuildingBlock: QUQFOY_clean_sbu_1, # of connection points: 4
#     Node 15, Type 0, BuildingBlock: QUQFOY_clean_sbu_1, # of connection points: 4
#     Node 16, Type 0, BuildingBlock: QUQFOY_clean_sbu_1, # of connection points: 4
#     Node 17, Type 0, BuildingBlock: QUQFOY_clean_sbu_1, # of connection points: 4
#     Node 18, Type 0, BuildingBlock: QUQFOY_clean_sbu_1, # of connection points: 4
#     Node 19, Type 0, BuildingBlock: QUQFOY_clean_sbu_1, # of connection points: 4
#     Node 20, Type 0, BuildingBlock: QUQFOY_clean_sbu_1, # of connection points: 4
#     Node 21, Type 0, BuildingBlock: QUQFOY_clean_sbu_1, # of connection points: 4
#     Node 22, Type 0, BuildingBlock: QUQFOY_clean_sbu_1, # of connection points: 4
#     Node 23, Type 0, BuildingBlock: QUQFOY_clean_sbu_1, # of connection points: 4
#     Node 24, Type 0, BuildingBlock: QUQFOY_clean_sbu_1, # of connection points: 4
#     Node 25, Type 0, BuildingBlock: QUQFOY_clean_sbu_1, # of connection points: 4
#     Node 26, Type 0, BuildingBlock: QUQFOY_clean_sbu_1, # of connection points: 4
#     Node 27, Type 0, BuildingBlock: QUQFOY_clean_sbu_1, # of connection points: 4
#     Node 28, Type 0, BuildingBlock: QUQFOY_clean_sbu_1, # of connection points: 4
#     Node 29, Type 0, BuildingBlock: QUQFOY_clean_sbu_1, # of connection points: 4
#     Node 30, Type 0, BuildingBlock: QUQFOY_clean_sbu_1, # of connection points: 4
#     Node 31, Type 0, BuildingBlock: QUQFOY_clean_sbu_1, # of connection points: 4
#     Edge 32, Type (0, 0), BuildingBlock: ZUJKAS_clean_linker_0, # of connection points: 2
#     Edge 33, Type (0, 0), BuildingBlock: ZUJKAS_clean_linker_0, # of connection points: 2
#     Edge 34, Type (0, 0), BuildingBlock: ZUJKAS_clean_linker_0, # of connection points: 2
#     Edge 35, Type (0, 0), BuildingBlock: ZUJKAS_clean_linker_0, # of connection points: 2
#     Edge 36, Type (0, 0), BuildingBlock: ZUJKAS_clean_linker_0, # of connection points: 2
#     Edge 37, Type (0, 0), BuildingBlock: ZUJKAS_clean_linker_0, # of connection points: 2
#     Edge 38, Type (0, 0), BuildingBlock: ZUJKAS_clean_linker_0, # of connection points: 2
#     Edge 39, Type (0, 0), BuildingBlock: ZUJKAS_clean_linker_0, # of connection points: 2
#     Edge 40, Type (0, 0), BuildingBlock: ZUJKAS_clean_linker_0, # of connection points: 2
#     Edge 41, Type (0, 0), BuildingBlock: ZUJKAS_clean_linker_0, # of connection points: 2
#     Edge 42, Type (0, 0), BuildingBlock: ZUJKAS_clean_linker_0, # of connection points: 2
#     Edge 43, Type (0, 0), BuildingBlock: ZUJKAS_clean_linker_0, # of connection points: 2
#     Edge 44, Type (0, 0), BuildingBlock: ZUJKAS_clean_linker_0, # of connection points: 2
#     Edge 45, Type (0, 0), BuildingBlock: ZUJKAS_clean_linker_0, # of connection points: 2
#     Edge 46, Type (0, 0), BuildingBlock: ZUJKAS_clean_linker_0, # of connection points: 2
#     Edge 47, Type (0, 0), BuildingBlock: ZUJKAS_clean_linker_0, # of connection points: 2
#     Edge 48, Type (0, 0), BuildingBlock: ZUJKAS_clean_linker_0, # of connection points: 2
#     Edge 49, Type (0, 0), BuildingBlock: ZUJKAS_clean_linker_0, # of connection points: 2
#     Edge 50, Type (0, 0), BuildingBlock: ZUJKAS_clean_linker_0, # of connection points: 2
#     Edge 51, Type (0, 0), BuildingBlock: ZUJKAS_clean_linker_0, # of connection points: 2
#     Edge 52, Type (0, 0), BuildingBlock: ZUJKAS_clean_linker_0, # of connection points: 2
#     Edge 53, Type (0, 0), BuildingBlock: ZUJKAS_clean_linker_0, # of connection points: 2
#     Edge 54, Type (0, 0), BuildingBlock: ZUJKAS_clean_linker_0, # of connection points: 2
#     Edge 55, Type (0, 0), BuildingBlock: ZUJKAS_clean_linker_0, # of connection points: 2
#     Edge 56, Type (0, 0), BuildingBlock: ZUJKAS_clean_linker_0, # of connection points: 2
#     Edge 57, Type (0, 0), BuildingBlock: ZUJKAS_clean_linker_0, # of connection points: 2
#     Edge 58, Type (0, 0), BuildingBlock: ZUJKAS_clean_linker_0, # of connection points: 2
#     Edge 59, Type (0, 0), BuildingBlock: ZUJKAS_clean_linker_0, # of connection points: 2
#     Edge 60, Type (0, 0), BuildingBlock: ZUJKAS_clean_linker_0, # of connection points: 2
#     Edge 61, Type (0, 0), BuildingBlock: ZUJKAS_clean_linker_0, # of connection points: 2
#     Edge 62, Type (0, 0), BuildingBlock: ZUJKAS_clean_linker_0, # of connection points: 2
#     Edge 63, Type (0, 0), BuildingBlock: ZUJKAS_clean_linker_0, # of connection points: 2
#     Edge 64, Type (0, 0), BuildingBlock: ZUJKAS_clean_linker_0, # of connection points: 2
#     Edge 65, Type (0, 0), BuildingBlock: ZUJKAS_clean_linker_0, # of connection points: 2
#     Edge 66, Type (0, 0), BuildingBlock: ZUJKAS_clean_linker_0, # of connection points: 2
#     Edge 67, Type (0, 0), BuildingBlock: ZUJKAS_clean_linker_0, # of connection points: 2
#     Edge 68, Type (0, 0), BuildingBlock: ZUJKAS_clean_linker_0, # of connection points: 2
#     Edge 69, Type (0, 0), BuildingBlock: ZUJKAS_clean_linker_0, # of connection points: 2
#     Edge 70, Type (0, 0), BuildingBlock: ZUJKAS_clean_linker_0, # of connection points: 2
#     Edge 71, Type (0, 0), BuildingBlock: ZUJKAS_clean_linker_0, # of connection points: 2
#     Edge 72, Type (0, 0), BuildingBlock: ZUJKAS_clean_linker_0, # of connection points: 2
#     Edge 73, Type (0, 0), BuildingBlock: ZUJKAS_clean_linker_0, # of connection points: 2
#     Edge 74, Type (0, 0), BuildingBlock: ZUJKAS_clean_linker_0, # of connection points: 2
#     Edge 75, Type (0, 0), BuildingBlock: ZUJKAS_clean_linker_0, # of connection points: 2
#     Edge 76, Type (0, 0), BuildingBlock: ZUJKAS_clean_linker_0, # of connection points: 2
#     Edge 77, Type (0, 0), BuildingBlock: ZUJKAS_clean_linker_0, # of connection points: 2
#     Edge 78, Type (0, 0), BuildingBlock: ZUJKAS_clean_linker_0, # of connection points: 2
#     Edge 79, Type (0, 0), BuildingBlock: ZUJKAS_clean_linker_0, # of connection points: 2
#     Edge 80, Type (0, 0), BuildingBlock: ZUJKAS_clean_linker_0, # of connection points: 2
#     Edge 81, Type (0, 0), BuildingBlock: ZUJKAS_clean_linker_0, # of connection points: 2
#     Edge 82, Type (0, 0), BuildingBlock: ZUJKAS_clean_linker_0, # of connection points: 2
#     Edge 83, Type (0, 0), BuildingBlock: ZUJKAS_clean_linker_0, # of connection points: 2
#     Edge 84, Type (0, 0), BuildingBlock: ZUJKAS_clean_linker_0, # of connection points: 2
#     Edge 85, Type (0, 0), BuildingBlock: ZUJKAS_clean_linker_0, # of connection points: 2
#     Edge 86, Type (0, 0), BuildingBlock: ZUJKAS_clean_linker_0, # of connection points: 2
#     Edge 87, Type (0, 0), BuildingBlock: ZUJKAS_clean_linker_0, # of connection points: 2
#     Edge 88, Type (0, 0), BuildingBlock: ZUJKAS_clean_linker_0, # of connection points: 2
#     Edge 89, Type (0, 0), BuildingBlock: ZUJKAS_clean_linker_0, # of connection points: 2
#     Edge 90, Type (0, 0), BuildingBlock: ZUJKAS_clean_linker_0, # of connection points: 2
#     Edge 91, Type (0, 0), BuildingBlock: ZUJKAS_clean_linker_0, # of connection points: 2
#     Edge 92, Type (0, 0), BuildingBlock: ZUJKAS_clean_linker_0, # of connection points: 2
#     Edge 93, Type (0, 0), BuildingBlock: ZUJKAS_clean_linker_0, # of connection points: 2
#     Edge 94, Type (0, 0), BuildingBlock: ZUJKAS_clean_linker_0, # of connection points: 2
#     Edge 95, Type (0, 0), BuildingBlock: ZUJKAS_clean_linker_0, # of connection points: 2
# Relax obj value: 0.024
# Max RMSD: 0.091
# Mean RMSD: 0.091
data_MOF--net-uke--node1-QUQFOY_clean_sbu_1--edge1-ZUJKAS_clean_linker_0
_symmetry_space_group_name_H-M    P1
_symmetry_Int_Tables_number       1
_symmetry_cell_setting            triclinic
loop_
_symmetry_equiv_pos_as_xyz
'x, y, z'
_cell_length_a     31.95757
_cell_length_b     145.04369
_cell_length_c     67.822214
_cell_angle_alpha  89.98051
_cell_angle_beta   89.975977
_cell_angle_gamma 90.001053
loop_
_atom_site_label
_atom_site_type_symbol
_atom_site_fract_x
_atom_site_fract_y
_atom_site_fract_z
_atom_type_partial_charge
O0 O 0.08169 0.08564 0.2828 0.0
Cd1 Cd 0.06397 0.07261 0.27379 0.0
Cd2 Cd 0.14556 0.07048 0.27584 0.0
O3 O 0.14582 0.08245 0.29258 0.0
O4 O 1.00376 0.07172 0.28164 0.0
O5 O 0.05356 0.06323 0.29519 0.0
C6 C 0.01485 0.06581 0.29489 0.0
C7 C 0.17637 0.05625 0.28229 0.0
C8 C 0.11542 0.0881 0.29125 0.0
C9 C 0.10771 0.07068 0.23567 0.0
O10 O 0.13991 0.07231 0.24605 0.0
O11 O 0.07239 0.06945 0.24401 0.0
O12 O 0.19889 0.06342 0.27842 0.0
O13 O 0.13658 0.05743 0.28473 0.0
O14 O 0.18088 0.18841 0.28463 0.0
Cd15 Cd 0.19824 0.20147 0.27566 0.0
Cd16 Cd 0.11608 0.20328 0.27703 0.0
O17 O 0.1157 0.1912 0.29342 0.0
O18 O 0.25854 0.20214 0.28333 0.0
O19 O 0.20955 0.21073 0.29721 0.0
C20 C 0.24803 0.20799 0.29678 0.0
C21 C 0.08455 0.21741 0.28361 0.0
C22 C 0.1469 0.18575 0.29256 0.0
C23 C 0.15563 0.20341 0.23719 0.0
O24 O 0.12308 0.20167 0.24726 0.0
O25 O 0.19059 0.20465 0.24584 0.0
O26 O 0.06244 0.21022 0.27937 0.0
O27 O 0.12428 0.21628 0.28636 0.0
O28 O 0.08068 0.18839 0.97943 0.0
Cd29 Cd 0.06169 0.20141 0.9879 0.0
Cd30 Cd 0.14343 0.20381 0.9867 0.0
O31 O 0.14532 0.19166 0.97056 0.0
O32 O 1.00175 0.20193 0.97958 0.0
O33 O 0.05101 0.21063 0.96619 0.0
C34 C 0.01262 0.20782 0.96627 0.0
C35 C 0.17442 0.21797 0.97976 0.0
C36 C 0.1151 0.18596 0.97159 0.0
C37 C 0.10313 0.20379 0.02646 0.0
O38 O 0.13614 0.20233 0.01652 0.0
O39 O 0.06811 0.2047 0.01768 0.0
O40 O 0.19677 0.21087 0.98439 0.0
O41 O 0.1348 0.21673 0.97691 0.0
O42 O 0.18656 0.0856 0.97755 0.0
Cd43 Cd 0.20436 0.07253 0.98629 0.0
Cd44 Cd 0.12195 0.07062 0.98554 0.0
O45 O 0.12088 0.08283 0.96961 0.0
O46 O 0.26437 0.07187 0.97811 0.0
O47 O 0.21493 0.06324 0.96471 0.0
C48 C 0.25342 0.06598 0.96482 0.0
C49 C 0.08983 0.0566 0.97856 0.0
C50 C 0.1521 0.08828 0.97013 0.0
C51 C 0.16312 0.07038 0.0251 0.0
O52 O 0.13002 0.07196 0.01533 0.0
O53 O 0.19793 0.06937 0.01618 0.0
O54 O 0.06807 0.06376 0.98336 0.0
O55 O 0.1295 0.0577 0.97556 0.0
O56 O 0.93704 0.93785 0.72841 0.0
Cd57 Cd 0.95485 0.95106 0.73616 0.0
Cd58 Cd 0.87321 0.95325 0.73466 0.0
O59 O 0.87265 0.941 0.7189 0.0
O60 O 0.01469 0.95216 0.72779 0.0
O61 O 0.96325 0.95991 0.71363 0.0
C62 C 1.00236 0.95764 0.71396 0.0
C63 C 0.8415 0.96728 0.72734 0.0
C64 C 0.90292 0.93533 0.7204 0.0
C65 C 0.91255 0.95379 0.77444 0.0
O66 O 0.87986 0.952 0.76454 0.0
O67 O 0.94754 0.95479 0.76568 0.0
O68 O 0.81946 0.96013 0.73195 0.0
O69 O 0.88124 0.96615 0.72466 0.0
O70 O 0.83131 0.83493 0.72856 0.0
Cd71 Cd 0.81471 0.82176 0.73714 0.0
Cd72 Cd 0.89664 0.81989 0.73506 0.0
O73 O 0.89605 0.83209 0.71907 0.0
O74 O 0.75439 0.82053 0.72963 0.0
O75 O 0.80516 0.81274 0.71502 0.0
C76 C 0.76605 0.81498 0.71579 0.0
C77 C 0.92739 0.80577 0.72766 0.0
C78 C 0.86509 0.83758 0.7204 0.0
C79 C 0.85888 0.81952 0.7752 0.0
O80 O 0.8911 0.82129 0.76493 0.0
O81 O 0.82359 0.81837 0.7668 0.0
O82 O 0.94997 0.81289 0.73186 0.0
O83 O 0.88758 0.80698 0.72542 0.0
O84 O 0.93745 0.83575 0.03243 0.0
Cd85 Cd 0.9542 0.82253 0.02431 0.0
Cd86 Cd 0.87211 0.82081 0.02529 0.0
O87 O 0.87218 0.83301 0.04122 0.0
O88 O 0.01411 0.8213 0.03248 0.0
O89 O 0.96262 0.81358 0.04669 0.0
C90 C 1.00178 0.8158 0.04629 0.0
C91 C 0.84013 0.80678 0.03227 0.0
C92 C 0.90335 0.83847 0.04019 0.0
C93 C 0.91223 0.82019 0.98573 0.0
O94 O 0.87953 0.82215 0.99549 0.0
O95 O 0.94686 0.81896 0.99466 0.0
O96 O 0.81823 0.81396 0.02774 0.0
O97 O 0.87984 0.80788 0.03509 0.0
O98 O 0.83112 0.93861 0.03114 0.0
Cd99 Cd 0.81338 0.95175 0.02282 0.0
Cd100 Cd 0.89483 0.95405 0.02508 0.0
O101 O 0.895 0.94189 0.04119 0.0
O102 O 0.75317 0.95285 0.03057 0.0
O103 O 0.80386 0.96073 0.045 0.0
C104 C 0.7648 0.95843 0.04435 0.0
C105 C 0.92611 0.96815 0.03229 0.0
C106 C 0.86494 0.93617 0.03954 0.0
C107 C 0.85725 0.9542 0.98486 0.0
O108 O 0.88951 0.95256 0.99519 0.0
O109 O 0.82184 0.95524 0.99322 0.0
O110 O 0.94838 0.96098 0.02806 0.0
O111 O 0.88628 0.96701 0.03462 0.0
O112 O 0.07836 0.58482 0.78232 0.0
Cd113 Cd 0.06101 0.57164 0.77424 0.0
Cd114 Cd 0.14292 0.5695 0.77574 0.0
O115 O 0.14313 0.58179 0.79144 0.0
O116 O 1.00103 0.5705 0.78233 0.0
O117 O 0.0522 0.5627 0.79659 0.0
C118 C 0.0131 0.56497 0.79613 0.0
C119 C 0.17485 0.55552 0.78326 0.0
C120 C 0.11253 0.58739 0.7902 0.0
C121 C 0.10355 0.56902 0.7359 0.0
O122 O 0.13632 0.57069 0.74584 0.0
O123 O 0.06847 0.5681 0.74462 0.0
O124 O 0.19678 0.56267 0.77859 0.0
O125 O 0.13507 0.55662 0.78586 0.0
O126 O 0.18157 0.68786 0.78241 0.0
Cd127 Cd 0.19929 0.70093 0.77362 0.0
Cd128 Cd 0.11696 0.70284 0.77466 0.0
O129 O 0.11597 0.69062 0.79056 0.0
O130 O 0.25946 0.70161 0.78157 0.0
O131 O 0.21017 0.71021 0.79519 0.0
C132 C 0.24868 0.70749 0.79492 0.0
C133 C 0.08585 0.71694 0.78178 0.0
C134 C 0.1472 0.68517 0.78992 0.0
C135 C 0.15732 0.70311 0.73497 0.0
O136 O 0.1244 0.70148 0.74486 0.0
O137 O 0.19224 0.70414 0.74377 0.0
O138 O 0.06353 0.70984 0.77715 0.0
O139 O 0.12551 0.71572 0.78458 0.0
O140 O 0.0798 0.68762 0.47742 0.0
Cd141 Cd 0.06141 0.70065 0.48612 0.0
Cd142 Cd 0.14304 0.70294 0.48428 0.0
O143 O 0.144 0.69088 0.46783 0.0
O144 O 1.00131 0.70129 0.4781 0.0
O145 O 0.05063 0.70991 0.46451 0.0
C146 C 0.01214 0.70717 0.46474 0.0
C147 C 0.17472 0.71707 0.47773 0.0
C148 C 0.11377 0.68519 0.46915 0.0
C149 C 0.10421 0.70281 0.52435 0.0
O150 O 0.13669 0.70127 0.51409 0.0
O151 O 0.06893 0.70389 0.51589 0.0
O152 O 0.19674 0.70986 0.4819 0.0
O153 O 0.13496 0.71597 0.47505 0.0
O154 O 0.1813 0.58494 0.47752 0.0
Cd155 Cd 0.19863 0.57191 0.48677 0.0
Cd156 Cd 0.11654 0.57013 0.48553 0.0
O157 O 0.11614 0.58211 0.4688 0.0
O158 O 0.25893 0.57119 0.47909 0.0
O159 O 0.20991 0.56253 0.46544 0.0
C160 C 0.2484 0.56527 0.4658 0.0
C161 C 0.08535 0.55593 0.47931 0.0
C162 C 0.14733 0.58756 0.46953 0.0
C163 C 0.15612 0.57025 0.52532 0.0
O164 O 0.12358 0.57196 0.51524 0.0
O165 O 0.191 0.56889 0.51667 0.0
O166 O 0.06306 0.56312 0.48336 0.0
O167 O 0.12507 0.55708 0.47657 0.0
O168 O 0.93544 0.43857 0.2285 0.0
Cd169 Cd 0.95235 0.45172 0.23709 0.0
Cd170 Cd 0.87005 0.45336 0.2361 0.0
O171 O 0.86985 0.44117 0.22012 0.0
O172 O 0.01246 0.45261 0.22909 0.0
O173 O 0.96248 0.46099 0.21542 0.0
C174 C 1.00122 0.45843 0.21572 0.0
C175 C 0.83818 0.46741 0.22918 0.0
C176 C 0.9013 0.43579 0.22093 0.0
C177 C 0.91035 0.45374 0.27574 0.0
O178 O 0.87761 0.45194 0.26588 0.0
O179 O 0.9451 0.45498 0.26689 0.0
O180 O 0.81623 0.46024 0.23373 0.0
O181 O 0.87789 0.4663 0.22635 0.0
O182 O 0.82543 0.33583 0.22883 0.0
Cd183 Cd 0.80519 0.323 0.23758 0.0
Cd184 Cd 0.88786 0.31979 0.23696 0.0
O185 O 0.89112 0.33235 0.2221 0.0
O186 O 0.74578 0.32219 0.22862 0.0
O187 O 0.7966 0.31368 0.21599 0.0
C188 C 0.75789 0.31627 0.2156 0.0
C189 C 0.92157 0.30599 0.22942 0.0
C190 C 0.86108 0.33813 0.22211 0.0
C191 C 0.84467 0.31982 0.2764 0.0
O192 O 0.87869 0.32036 0.26682 0.0
O193 O 0.80961 0.32006 0.26752 0.0
O194 O 0.94236 0.31314 0.23508 0.0
O195 O 0.88212 0.30702 0.22577 0.0
O196 O 0.93405 0.3352 0.5339 0.0
Cd197 Cd 0.95532 0.32255 0.52454 0.0
Cd198 Cd 0.87176 0.31951 0.52368 0.0
O199 O 0.86718 0.33206 0.53846 0.0
O200 O 0.01479 0.32242 0.53349 0.0
O201 O 0.96681 0.31292 0.54533 0.0
C202 C 1.00461 0.31608 0.54596 0.0
C203 C 0.83815 0.30567 0.53094 0.0
C204 C 0.89785 0.33765 0.53963 0.0
C205 C 0.91817 0.31971 0.48499 0.0
O206 O 0.88343 0.32006 0.49401 0.0
O207 O 0.9526 0.32002 0.49439 0.0
O208 O 0.81747 0.31275 0.52477 0.0
O209 O 0.87729 0.30679 0.53517 0.0
O210 O 0.82634 0.4381 0.53181 0.0
Cd211 Cd 0.80912 0.45132 0.52396 0.0
Cd212 Cd 0.89074 0.45331 0.52627 0.0
O213 O 0.8904 0.44103 0.54202 0.0
O214 O 0.74911 0.45217 0.5321 0.0
O215 O 0.79946 0.46033 0.54613 0.0
C216 C 0.76067 0.4578 0.54578 0.0
C217 C 0.92276 0.4673 0.53369 0.0
C218 C 0.85988 0.43544 0.54013 0.0
C219 C 0.85274 0.45389 0.48607 0.0
O220 O 0.88491 0.45207 0.49634 0.0
O221 O 0.81736 0.45495 0.49444 0.0
O222 O 0.94466 0.4601 0.52929 0.0
O223 O 0.88292 0.46623 0.53616 0.0
O224 O 0.584 0.08523 0.78206 0.0
Cd225 Cd 0.56577 0.07217 0.77341 0.0
Cd226 Cd 0.64739 0.07003 0.77487 0.0
O227 O 0.64833 0.08203 0.79149 0.0
O228 O 0.50562 0.07155 0.7814 0.0
O229 O 0.55484 0.06295 0.79508 0.0
C230 C 0.51636 0.06569 0.7948 0.0
C231 C 0.67821 0.05582 0.78141 0.0
C232 C 0.61797 0.08768 0.79028 0.0
C233 C 0.60818 0.07009 0.735 0.0
O234 O 0.64075 0.07177 0.74508 0.0
O235 O 0.57319 0.06888 0.74365 0.0
O236 O 0.70069 0.06296 0.77721 0.0
O237 O 0.6385 0.05703 0.78406 0.0
O238 O 0.68394 0.18796 0.78426 0.0
Cd239 Cd 0.70112 0.201 0.77508 0.0
Cd240 Cd 0.619 0.2027 0.77609 0.0
O241 O 0.61853 0.1907 0.79272 0.0
O242 O 0.76133 0.20178 0.78289 0.0
O243 O 0.71198 0.21038 0.79644 0.0
C244 C 0.75053 0.20769 0.79616 0.0
C245 C 0.58826 0.21692 0.78249 0.0
C246 C 0.64987 0.18529 0.79209 0.0
C247 C 0.659 0.20268 0.7364 0.0
O248 O 0.62631 0.20095 0.74637 0.0
O249 O 0.69375 0.20403 0.74517 0.0
O250 O 0.56573 0.20979 0.77834 0.0
O251 O 0.62794 0.2157 0.78521 0.0
O252 O 0.58074 0.18727 0.47866 0.0
Cd253 Cd 0.56192 0.20027 0.48744 0.0
Cd254 Cd 0.6438 0.20272 0.48576 0.0
O255 O 0.64539 0.19054 0.46973 0.0
O256 O 0.50186 0.20087 0.47933 0.0
O257 O 0.5511 0.20957 0.46593 0.0
C258 C 0.51265 0.2068 0.46609 0.0
C259 C 0.67501 0.21685 0.47871 0.0
C260 C 0.61511 0.18485 0.47075 0.0
C261 C 0.60443 0.20269 0.52577 0.0
O262 O 0.63719 0.2013 0.51561 0.0
O263 O 0.56908 0.2035 0.51724 0.0
O264 O 0.69726 0.20973 0.48328 0.0
O265 O 0.63534 0.21565 0.47594 0.0
O266 O 0.68701 0.08444 0.47716 0.0
Cd267 Cd 0.70492 0.07138 0.48582 0.0
Cd268 Cd 0.62257 0.06934 0.48461 0.0
O269 O 0.6215 0.08163 0.46894 0.0
O270 O 0.76499 0.07067 0.47771 0.0
O271 O 0.71541 0.06213 0.46416 0.0
C272 C 0.75398 0.06481 0.46436 0.0
C273 C 0.59105 0.05527 0.47741 0.0
C274 C 0.6526 0.08711 0.46968 0.0
C275 C 0.66284 0.06903 0.52438 0.0
O276 O 0.62995 0.07057 0.51443 0.0
O277 O 0.69794 0.06812 0.51565 0.0
O278 O 0.56895 0.06239 0.48215 0.0
O279 O 0.6307 0.05646 0.47452 0.0
O280 O 0.43532 0.93865 0.22756 0.0
Cd281 Cd 0.45209 0.95188 0.23558 0.0
Cd282 Cd 0.36983 0.95359 0.23491 0.0
O283 O 0.36962 0.94128 0.21935 0.0
O284 O 0.51195 0.95307 0.2273 0.0
O285 O 0.46049 0.96083 0.21319 0.0
C286 C 0.49962 0.95858 0.21353 0.0
C287 C 0.33736 0.96754 0.22771 0.0
C288 C 0.40097 0.93587 0.22018 0.0
C289 C 0.41077 0.95426 0.27433 0.0
O290 O 0.37777 0.95242 0.26471 0.0
O291 O 0.44535 0.95538 0.26528 0.0
O292 O 0.31573 0.96036 0.2325 0.0
O293 O 0.37706 0.96648 0.22476 0.0
O294 O 0.33157 0.83545 0.22939 0.0
Cd295 Cd 0.31433 0.82224 0.23746 0.0
Cd296 Cd 0.39607 0.82019 0.23577 0.0
O297 O 0.39606 0.8324 0.21986 0.0
O298 O 0.25421 0.82109 0.2296 0.0
O299 O 0.30522 0.81335 0.21507 0.0
C300 C 0.2661 0.8156 0.21571 0.0
C301 C 0.42726 0.80611 0.22837 0.0
C302 C 0.36554 0.83802 0.22129 0.0
C303 C 0.35744 0.8197 0.27568 0.0
O304 O 0.38994 0.82152 0.26565 0.0
O305 O 0.3224 0.8186 0.26702 0.0
O306 O 0.44959 0.81324 0.23279 0.0
O307 O 0.38747 0.80729 0.22595 0.0
O308 O 0.43521 0.83483 0.53247 0.0
Cd309 Cd 0.45339 0.82169 0.52445 0.0
Cd310 Cd 0.3718 0.81935 0.52617 0.0
O311 O 0.37103 0.83156 0.54211 0.0
O312 O 0.51325 0.82064 0.53279 0.0
O313 O 0.46204 0.81275 0.54683 0.0
C314 C 0.50107 0.8151 0.54654 0.0
C315 C 0.33942 0.80533 0.53311 0.0
C316 C 0.4011 0.83728 0.5406 0.0
C317 C 0.41091 0.81911 0.48623 0.0
O318 O 0.3783 0.82075 0.49632 0.0
O319 O 0.44609 0.81813 0.49482 0.0
O320 O 0.31775 0.81256 0.52867 0.0
O321 O 0.37919 0.80636 0.53585 0.0
O322 O 0.33099 0.93775 0.53149 0.0
Cd323 Cd 0.3151 0.951 0.52311 0.0
Cd324 Cd 0.39698 0.95256 0.52483 0.0
O325 O 0.39578 0.94044 0.54107 0.0
O326 O 0.25488 0.95237 0.53068 0.0
O327 O 0.30607 0.95998 0.54538 0.0
C328 C 0.26683 0.95784 0.54459 0.0
C329 C 0.42824 0.96667 0.53177 0.0
C330 C 0.36455 0.93502 0.53971 0.0
C331 C 0.35886 0.9531 0.48493 0.0
O332 O 0.39094 0.95103 0.49502 0.0
O333 O 0.32398 0.95453 0.49353 0.0
O334 O 0.45057 0.95949 0.52771 0.0
O335 O 0.38842 0.96553 0.53418 0.0
O336 O 0.58068 0.58495 0.28458 0.0
Cd337 Cd 0.56334 0.5719 0.27561 0.0
Cd338 Cd 0.64555 0.57001 0.27721 0.0
O339 O 0.64591 0.58218 0.29331 0.0
O340 O 0.50307 0.57116 0.28334 0.0
O341 O 0.55228 0.56258 0.29709 0.0
C342 C 0.51374 0.56528 0.29671 0.0
C343 C 0.67675 0.55589 0.28422 0.0
C344 C 0.61471 0.58763 0.29242 0.0
C345 C 0.60634 0.56987 0.23724 0.0
O346 O 0.63889 0.57148 0.24739 0.0
O347 O 0.57115 0.56877 0.24577 0.0
O348 O 0.69905 0.56303 0.27984 0.0
O349 O 0.63701 0.55707 0.28685 0.0
O350 O 0.6814 0.68783 0.28201 0.0
Cd351 Cd 0.69968 0.70089 0.27343 0.0
Cd352 Cd 0.61801 0.70304 0.27481 0.0
O353 O 0.61693 0.691 0.2913 0.0
O354 O 0.7598 0.7015 0.28146 0.0
O355 O 0.71053 0.71009 0.29513 0.0
C356 C 0.74901 0.70735 0.29486 0.0
C357 C 0.58732 0.71725 0.28153 0.0
C358 C 0.64733 0.68535 0.29012 0.0
C359 C 0.6575 0.70303 0.23498 0.0
O360 O 0.62482 0.70137 0.24501 0.0
O361 O 0.69245 0.70421 0.24367 0.0
O362 O 0.56478 0.71014 0.27723 0.0
O363 O 0.62701 0.71602 0.28416 0.0
O364 O 0.58278 0.68888 0.97681 0.0
Cd365 Cd 0.56377 0.70185 0.98556 0.0
Cd366 Cd 0.64609 0.70416 0.98455 0.0
O367 O 0.64821 0.69191 0.96879 0.0
O368 O 0.50365 0.70224 0.97749 0.0
O369 O 0.55219 0.71109 0.96397 0.0
C370 C 0.51396 0.70818 0.96416 0.0
C371 C 0.67749 0.71826 0.97754 0.0
C372 C 0.61746 0.68633 0.9694 0.0
C373 C 0.60519 0.70426 0.02423 0.0
O374 O 0.63832 0.70286 0.01435 0.0
O375 O 0.57013 0.70505 0.01544 0.0
O376 O 0.6996 0.71116 0.98235 0.0
O377 O 0.63792 0.71705 0.97448 0.0
O378 O 0.68804 0.58598 0.98072 0.0
Cd379 Cd 0.70472 0.57272 0.98862 0.0
Cd380 Cd 0.6231 0.5708 0.98682 0.0
O381 O 0.62382 0.58299 0.97077 0.0
O382 O 0.76452 0.57134 0.98036 0.0
O383 O 0.71245 0.56381 0.96616 0.0
C384 C 0.75175 0.56591 0.96653 0.0
C385 C 0.59084 0.55681 0.97967 0.0
C386 C 0.65436 0.58858 0.97242 0.0
C387 C 0.66156 0.57025 0.02676 0.0
O388 O 0.62924 0.57217 0.0167 0.0
O389 O 0.69658 0.56905 0.01814 0.0
O390 O 0.56905 0.56404 0.98399 0.0
O391 O 0.63069 0.55784 0.97717 0.0
O392 O 0.43289 0.43775 0.7286 0.0
Cd393 Cd 0.45064 0.45077 0.7377 0.0
Cd394 Cd 0.36897 0.45286 0.73585 0.0
O395 O 0.36855 0.44091 0.71909 0.0
O396 O 0.51086 0.45151 0.72989 0.0
O397 O 0.46153 0.46012 0.7163 0.0
C398 C 0.50007 0.45742 0.71659 0.0
C399 C 0.33807 0.46707 0.72931 0.0
C400 C 0.39909 0.43529 0.72024 0.0
C401 C 0.4073 0.45264 0.77594 0.0
O402 O 0.37498 0.45103 0.76563 0.0
O403 O 0.44253 0.45388 0.76753 0.0
O404 O 0.31561 0.45991 0.73333 0.0
O405 O 0.37786 0.4659 0.72686 0.0
O406 O 0.33568 0.3349 0.72638 0.0
Cd407 Cd 0.31872 0.32184 0.73552 0.0
Cd408 Cd 0.40099 0.32013 0.73432 0.0
O409 O 0.40132 0.33226 0.71812 0.0
O410 O 0.25844 0.32104 0.72793 0.0
O411 O 0.30768 0.31245 0.71421 0.0
C412 C 0.26909 0.31512 0.71465 0.0
C413 C 0.43198 0.30599 0.72746 0.0
C414 C 0.36982 0.33763 0.71872 0.0
C415 C 0.36109 0.31998 0.77409 0.0
O416 O 0.39383 0.32165 0.7641 0.0
O417 O 0.32618 0.31879 0.76538 0.0
O418 O 0.45439 0.31311 0.73181 0.0
O419 O 0.39228 0.30719 0.72478 0.0
O420 O 0.43424 0.33594 0.03105 0.0
Cd421 Cd 0.45088 0.32268 0.0232 0.0
Cd422 Cd 0.36913 0.32082 0.02457 0.0
O423 O 0.36955 0.33304 0.04048 0.0
O424 O 0.51076 0.32134 0.03127 0.0
O425 O 0.45899 0.31377 0.04563 0.0
C426 C 0.49827 0.31587 0.0451 0.0
C427 C 0.33733 0.3068 0.03191 0.0
C428 C 0.40031 0.33859 0.03906 0.0
C429 C 0.40855 0.32018 0.98486 0.0
O430 O 0.3759 0.3221 0.9947 0.0
O431 O 0.44333 0.31902 0.99369 0.0
O432 O 0.31531 0.31397 0.02738 0.0
O433 O 0.3771 0.30791 0.03449 0.0
O434 O 0.331 0.43902 0.03418 0.0
Cd435 Cd 0.31266 0.45203 0.02531 0.0
Cd436 Cd 0.39516 0.45415 0.02606 0.0
O437 O 0.39676 0.44189 0.04184 0.0
O438 O 0.25261 0.45265 0.03349 0.0
O439 O 0.30186 0.46137 0.04677 0.0
C440 C 0.2634 0.45861 0.04667 0.0
C441 C 0.42731 0.46817 0.03303 0.0
C442 C 0.3657 0.4364 0.04144 0.0
C443 C 0.35387 0.45431 0.98649 0.0
O444 O 0.3871 0.45287 0.99627 0.0
O445 O 0.31895 0.45514 0.9954 0.0
O446 O 0.44903 0.46101 0.02818 0.0
O447 O 0.38768 0.46706 0.03612 0.0
H448 H 0.09192 0.06957 0.04703 0.0
H449 H 0.08517 0.06898 0.08274 0.0
H450 H 0.21949 0.06897 0.08861 0.0
H451 H 0.22676 0.0696 0.05254 0.0
H452 H 0.11789 0.05557 0.10994 0.0
H453 H 0.17822 0.09104 0.12306 0.0
H454 H 0.16105 0.08718 0.09908 0.0
H455 H 0.21083 0.08355 0.10854 0.0
C456 C 0.1202 0.06945 0.05582 0.0
C457 C 0.15997 0.06971 0.04688 0.0
C458 C 0.11618 0.06907 0.07627 0.0
C459 C 0.15175 0.06902 0.0883 0.0
C460 C 0.19162 0.06912 0.07954 0.0
H461 H 0.18028 0.07162 0.21476 0.0
H462 H 0.18982 0.07078 0.17925 0.0
C463 C 0.19573 0.06944 0.05895 0.0
C464 C 0.14653 0.069 0.11001 0.0
H465 H 0.15935 0.08234 0.15101 0.0
C466 C 0.12704 0.0614 0.11897 0.0
C467 C 0.15828 0.07665 0.12167 0.0
C468 C 0.17799 0.08511 0.11267 0.0
C469 C 0.11944 0.06119 0.13937 0.0
C470 C 0.13082 0.06888 0.15102 0.0
C471 C 0.15049 0.07646 0.14204 0.0
C472 C 0.12405 0.06912 0.17267 0.0
C473 C 0.10012 0.05267 0.14832 0.0
C474 C 0.08371 0.06851 0.18087 0.0
C475 C 0.07801 0.06896 0.20136 0.0
C476 C 0.11258 0.07011 0.21394 0.0
C477 C 0.15283 0.07075 0.20558 0.0
C478 C 0.15845 0.07027 0.18522 0.0
H479 H 0.10304 0.04661 0.13841 0.0
H480 H 0.11496 0.05098 0.16268 0.0
H481 H 0.06632 0.05392 0.15095 0.0
H482 H 0.0566 0.0678 0.17142 0.0
H483 H 0.04663 0.06848 0.2073 0.0
H484 H 0.17462 0.20427 0.04823 0.0
H485 H 0.1817 0.20483 0.08394 0.0
H486 H 0.04746 0.20547 0.09008 0.0
H487 H 0.03985 0.20485 0.05404 0.0
H488 H 0.15126 0.21831 0.11112 0.0
H489 H 0.08588 0.18332 0.12462 0.0
H490 H 0.10299 0.18707 0.10054 0.0
H491 H 0.05385 0.19099 0.11025 0.0
C492 C 0.14643 0.20452 0.05709 0.0
C493 C 0.10656 0.20443 0.04823 0.0
C494 C 0.15064 0.20488 0.07753 0.0
C495 C 0.11517 0.20509 0.08964 0.0
C496 C 0.07524 0.20518 0.08095 0.0
H497 H 0.08366 0.20307 0.21581 0.0
H498 H 0.07541 0.20394 0.18024 0.0
C499 C 0.07094 0.20486 0.06038 0.0
C500 C 0.1205 0.20511 0.11135 0.0
H501 H 0.10498 0.19203 0.15253 0.0
C502 C 0.1411 0.21258 0.12022 0.0
C503 C 0.10745 0.19759 0.1231 0.0
C504 C 0.08659 0.18924 0.11421 0.0
C505 C 0.14842 0.21281 0.14065 0.0
C506 C 0.13556 0.20527 0.1524 0.0
C507 C 0.11493 0.1978 0.14349 0.0
C508 C 0.14161 0.20508 0.1741 0.0
C509 C 0.16897 0.22121 0.1495 0.0
C510 C 0.18175 0.20543 0.18257 0.0
C511 C 0.1867 0.20497 0.2031 0.0
C512 C 0.15156 0.20407 0.21545 0.0
C513 C 0.11152 0.20373 0.20681 0.0
C514 C 0.10665 0.20423 0.18642 0.0
H515 H 0.16735 0.22724 0.13944 0.0
H516 H 0.15407 0.22309 0.16374 0.0
H517 H 0.20245 0.21969 0.15234 0.0
H518 H 0.20926 0.20591 0.1733 0.0
H519 H 0.21794 0.20521 0.20926 0.0
H520 H 0.79575 0.95553 0.95645 0.0
H521 H 0.80563 0.95601 0.92051 0.0
H522 H 0.9394 0.95511 0.92851 0.0
H523 H 0.93004 0.9545 0.96406 0.0
H524 H 0.8503 0.96867 0.89671 0.0
H525 H 0.91827 0.93357 0.89115 0.0
H526 H 0.89103 0.93755 0.91286 0.0
H527 H 0.94456 0.94084 0.90863 0.0
C528 C 0.82722 0.95543 0.95053 0.0
C529 C 0.86203 0.95486 0.96315 0.0
C530 C 0.83282 0.95571 0.93001 0.0
C531 C 0.87325 0.9554 0.92186 0.0
C532 C 0.90793 0.95512 0.93446 0.0
H533 H 0.97536 0.95509 0.80217 0.0
H534 H 0.96711 0.95615 0.83816 0.0
C535 C 0.90242 0.9548 0.95483 0.0
C536 C 0.87963 0.95541 0.9002 0.0
H537 H 0.92323 0.94301 0.8626 0.0
C538 C 0.86602 0.96304 0.88922 0.0
C539 C 0.90038 0.94807 0.89048 0.0
C540 C 0.91408 0.9395 0.90134 0.0
C541 C 0.87314 0.96359 0.86881 0.0
C542 C 0.89397 0.95627 0.85914 0.0
C543 C 0.90767 0.94865 0.87011 0.0
C544 C 0.89941 0.95608 0.83744 0.0
C545 C 0.85879 0.97206 0.85778 0.0
C546 C 0.86416 0.95562 0.82524 0.0
C547 C 0.86873 0.95496 0.80485 0.0
C548 C 0.90874 0.95474 0.79615 0.0
C549 C 0.94416 0.95527 0.8084 0.0
C550 C 0.93949 0.95587 0.82892 0.0
H551 H 0.85367 0.97799 0.86785 0.0
H552 H 0.88195 0.97408 0.84635 0.0
H553 H 0.82871 0.97053 0.85029 0.0
H554 H 0.83298 0.9556 0.83153 0.0
H555 H 0.8407 0.95457 0.79591 0.0
H556 H 0.84078 0.81998 0.96394 0.0
H557 H 0.83364 0.81889 0.92832 0.0
H558 H 0.96772 0.81727 0.92226 0.0
H559 H 0.97541 0.81838 0.95827 0.0
H560 H 0.92605 0.83064 0.8973 0.0
H561 H 0.85181 0.79612 0.89266 0.0
H562 H 0.82773 0.80382 0.91001 0.0
H563 H 0.88041 0.79994 0.91412 0.0
C564 C 0.86892 0.81935 0.95513 0.0
C565 C 0.90877 0.81928 0.96401 0.0
C566 C 0.86467 0.81866 0.93474 0.0
C567 C 0.90006 0.81786 0.92269 0.0
C568 C 0.93998 0.8178 0.93138 0.0
H569 H 0.9316 0.8189 0.79596 0.0
H570 H 0.94093 0.8183 0.83151 0.0
C571 C 0.94432 0.81844 0.95192 0.0
C572 C 0.89498 0.8176 0.90098 0.0
H573 H 0.85002 0.80531 0.8636 0.0
C574 C 0.90983 0.82507 0.88988 0.0
C575 C 0.87328 0.81037 0.89143 0.0
C576 C 0.85766 0.80206 0.90261 0.0
C577 C 0.90279 0.8256 0.86948 0.0
C578 C 0.88114 0.81836 0.85988 0.0
C579 C 0.86643 0.81087 0.87099 0.0
C580 C 0.87477 0.81833 0.83821 0.0
C581 C 0.91767 0.83404 0.85849 0.0
C582 C 0.83432 0.81817 0.83006 0.0
C583 C 0.82874 0.81843 0.80955 0.0
C584 C 0.86359 0.81884 0.79691 0.0
C585 C 0.90398 0.81873 0.80521 0.0
C586 C 0.90946 0.81843 0.82559 0.0
H587 H 0.92245 0.83999 0.86857 0.0
H588 H 0.94809 0.8325 0.85132 0.0
H589 H 0.89503 0.83608 0.84686 0.0
H590 H 0.80711 0.81801 0.83958 0.0
H591 H 0.79727 0.81846 0.80364 0.0
H592 H 0.04081 0.56895 0.70803 0.0
H593 H 0.04916 0.56834 0.67201 0.0
H594 H 0.18304 0.56669 0.67889 0.0
H595 H 0.1752 0.56729 0.71458 0.0
H596 H 0.09877 0.58137 0.64895 0.0
H597 H 0.15438 0.5453 0.64049 0.0
H598 H 0.12665 0.54925 0.66212 0.0
H599 H 0.18112 0.55193 0.65899 0.0
C600 C 0.07195 0.56837 0.70185 0.0
C601 C 0.1073 0.56819 0.71419 0.0
C602 C 0.07667 0.56803 0.68131 0.0
C603 C 0.1167 0.56735 0.67284 0.0
C604 C 0.15187 0.56705 0.68513 0.0
H605 H 0.21809 0.56764 0.55312 0.0
H606 H 0.20953 0.56706 0.58914 0.0
C607 C 0.14725 0.56747 0.70555 0.0
C608 C 0.12233 0.56751 0.65116 0.0
H609 H 0.16048 0.55502 0.61243 0.0
C610 C 0.11192 0.57559 0.64092 0.0
C611 C 0.14009 0.56 0.64082 0.0
C612 C 0.15095 0.55109 0.6511 0.0
C613 C 0.11934 0.57641 0.6206 0.0
C614 C 0.1368 0.56887 0.61018 0.0
C615 C 0.14729 0.5608 0.62045 0.0
C616 C 0.14245 0.56912 0.58848 0.0
C617 C 0.10926 0.58543 0.61054 0.0
C618 C 0.10758 0.57029 0.57624 0.0
C619 C 0.11235 0.57065 0.55583 0.0
C620 C 0.15215 0.56977 0.5471 0.0
C621 C 0.18709 0.5684 0.55937 0.0
C622 C 0.18223 0.56805 0.57992 0.0
H623 H 0.10804 0.59123 0.62123 0.0
H624 H 0.13273 0.58708 0.59899 0.0
H625 H 0.07811 0.5849 0.60341 0.0
H626 H 0.0765 0.57089 0.58249 0.0
H627 H 0.0846 0.57161 0.5469 0.0
H628 H 0.22045 0.70416 0.7073 0.0
H629 H 0.21254 0.70497 0.67126 0.0
H630 H 0.07835 0.70445 0.67768 0.0
H631 H 0.08572 0.70368 0.71332 0.0
H632 H 0.16863 0.6917 0.647 0.0
H633 H 0.09958 0.7267 0.64093 0.0
H634 H 0.12771 0.72287 0.66253 0.0
H635 H 0.07445 0.71934 0.65864 0.0
C636 C 0.1893 0.70429 0.70101 0.0
C637 C 0.15377 0.70385 0.71322 0.0
C638 C 0.18483 0.70475 0.68046 0.0
C639 C 0.14483 0.70491 0.67186 0.0
C640 C 0.10946 0.70451 0.68402 0.0
H641 H 0.04231 0.70416 0.55261 0.0
H642 H 0.05171 0.70462 0.58858 0.0
C643 C 0.11384 0.704 0.70443 0.0
C644 C 0.13955 0.70499 0.65015 0.0
H645 H 0.09631 0.71726 0.61227 0.0
C646 C 0.15319 0.69732 0.63936 0.0
C647 C 0.11888 0.71229 0.6403 0.0
C648 C 0.10458 0.72081 0.65114 0.0
C649 C 0.14602 0.69666 0.61899 0.0
C650 C 0.12545 0.70397 0.6091 0.0
C651 C 0.11188 0.71166 0.6199 0.0
C652 C 0.11932 0.70389 0.58742 0.0
C653 C 0.15966 0.68803 0.60833 0.0
C654 C 0.15415 0.70353 0.57491 0.0
C655 C 0.14892 0.70323 0.55452 0.0
C656 C 0.10866 0.70337 0.54609 0.0
C657 C 0.07369 0.70399 0.55862 0.0
C658 C 0.07902 0.70426 0.57915 0.0
H659 H 0.16355 0.68214 0.61864 0.0
H660 H 0.13674 0.68606 0.59678 0.0
H661 H 0.19029 0.6893 0.60111 0.0
H662 H 0.18554 0.70348 0.58093 0.0
H663 H 0.17666 0.70288 0.54537 0.0
H664 H 0.92569 0.45481 0.46553 0.0
H665 H 0.93547 0.45577 0.43003 0.0
H666 H 0.8017 0.45573 0.42166 0.0
H667 H 0.79146 0.45494 0.45752 0.0
H668 H 0.91136 0.44333 0.4025 0.0
H669 H 0.83826 0.47732 0.38737 0.0
H670 H 0.8514 0.47355 0.41198 0.0
H671 H 0.80482 0.46936 0.40014 0.0
C672 C 0.89818 0.45505 0.45622 0.0
C673 C 0.85769 0.45478 0.4644 0.0
C674 C 0.90392 0.45561 0.43588 0.0
C675 C 0.8694 0.45591 0.42318 0.0
C676 C 0.82883 0.45569 0.43122 0.0
H677 H 0.83898 0.45319 0.2976 0.0
H678 H 0.83173 0.45403 0.33326 0.0
C679 C 0.823 0.45519 0.45169 0.0
C680 C 0.87642 0.45602 0.40154 0.0
H681 H 0.8575 0.46832 0.35952 0.0
C682 C 0.8998 0.44882 0.39311 0.0
C683 C 0.86147 0.46321 0.38934 0.0
C684 C 0.83792 0.47135 0.39765 0.0
C685 C 0.90787 0.44851 0.37278 0.0
C686 C 0.89256 0.45565 0.36057 0.0
C687 C 0.86936 0.46288 0.36897 0.0
C688 C 0.89798 0.45543 0.33887 0.0
C689 C 0.93169 0.44042 0.36442 0.0
C690 C 0.93779 0.45604 0.33014 0.0
C691 C 0.9422 0.45556 0.30959 0.0
C692 C 0.9068 0.45445 0.2975 0.0
C693 C 0.86703 0.45398 0.3064 0.0
C694 C 0.8627 0.45449 0.32682 0.0
H695 H 0.93438 0.43468 0.37519 0.0
H696 H 0.91621 0.4378 0.35088 0.0
H697 H 0.96374 0.44268 0.36037 0.0
H698 H 0.9654 0.45688 0.33922 0.0
H699 H 0.97321 0.45599 0.30321 0.0
H700 H 0.801 0.32946 0.30426 0.0
H701 H 0.8148 0.32969 0.33991 0.0
H702 H 0.90659 0.30812 0.33254 0.0
H703 H 0.89484 0.30836 0.29696 0.0
H704 H 0.80879 0.31851 0.36899 0.0
H705 H 0.97696 0.32619 0.36052 0.0
H706 H 0.94146 0.3263 0.3399 0.0
H707 H 0.96422 0.31562 0.34831 0.0
C708 C 0.82381 0.32474 0.31038 0.0
C709 C 0.84716 0.31896 0.29798 0.0
C710 C 0.83185 0.32489 0.33069 0.0
C711 C 0.86287 0.31915 0.33888 0.0
C712 C 0.88391 0.31291 0.32655 0.0
H713 H 0.87768 0.3068 0.46371 0.0
H714 H 0.86653 0.30661 0.42805 0.0
C715 C 0.87676 0.31295 0.30626 0.0
C716 C 0.87336 0.31967 0.36023 0.0
H717 H 0.95543 0.32086 0.39242 0.0
C718 C 0.84084 0.31911 0.37409 0.0
C719 C 0.91509 0.32071 0.36701 0.0
C720 C 0.95129 0.32235 0.35313 0.0
C721 C 0.8489 0.3193 0.39444 0.0
C722 C 0.8909 0.3196 0.40118 0.0
C723 C 0.92332 0.32043 0.38733 0.0
C724 C 0.90177 0.31911 0.4225 0.0
C725 C 0.81207 0.31941 0.40839 0.0
C726 C 0.92822 0.32574 0.43111 0.0
C727 C 0.93614 0.32561 0.45143 0.0
C728 C 0.91722 0.31891 0.46339 0.0
C729 C 0.89241 0.31205 0.4547 0.0
C730 C 0.8855 0.31203 0.43438 0.0
H731 H 0.78389 0.32242 0.40126 0.0
H732 H 0.80423 0.31224 0.41269 0.0
H733 H 0.81901 0.32344 0.42191 0.0
H734 H 0.94156 0.33122 0.42225 0.0
H735 H 0.95507 0.33101 0.45791 0.0
H736 H 0.67968 0.07133 0.71331 0.0
H737 H 0.68755 0.07049 0.67768 0.0
H738 H 0.55458 0.06644 0.67138 0.0
H739 H 0.54614 0.06735 0.70734 0.0
H740 H 0.66556 0.05598 0.65172 0.0
H741 H 0.58106 0.08856 0.63482 0.0
H742 H 0.59915 0.08575 0.65931 0.0
H743 H 0.55293 0.08035 0.64964 0.0
C744 C 0.65192 0.07028 0.70444 0.0
C745 C 0.61214 0.06947 0.71324 0.0
C746 C 0.6566 0.06977 0.68403 0.0
C747 C 0.62168 0.06849 0.67188 0.0
C748 C 0.58189 0.06756 0.68051 0.0
H749 H 0.59112 0.06738 0.54562 0.0
H750 H 0.58297 0.06672 0.58123 0.0
C751 C 0.57713 0.06805 0.70105 0.0
C752 C 0.62739 0.06819 0.6502 0.0
H753 H 0.605 0.07982 0.60776 0.0
C754 C 0.6523 0.06118 0.64206 0.0
C755 C 0.61027 0.07501 0.63771 0.0
C756 C 0.58462 0.0829 0.64574 0.0
C757 C 0.65999 0.06072 0.62168 0.0
C758 C 0.643 0.06757 0.60919 0.0
C759 C 0.61809 0.07458 0.61736 0.0
C760 C 0.64922 0.06747 0.58749 0.0
C761 C 0.68541 0.05279 0.61367 0.0
C762 C 0.68937 0.06808 0.57907 0.0
C763 C 0.69428 0.0684 0.55852 0.0
C764 C 0.65903 0.06826 0.54611 0.0
C765 C 0.61901 0.06758 0.55468 0.0
C766 C 0.61421 0.06719 0.57509 0.0
H767 H 0.68701 0.04697 0.62429 0.0
H768 H 0.67207 0.05023 0.59959 0.0
H769 H 0.71783 0.05518 0.61079 0.0
H770 H 0.71683 0.06848 0.58838 0.0
H771 H 0.72547 0.06897 0.55239 0.0
H772 H 0.5878 0.20147 0.71454 0.0
H773 H 0.58051 0.20211 0.67887 0.0
H774 H 0.71374 0.20584 0.67284 0.0
H775 H 0.7216 0.20514 0.70886 0.0
H776 H 0.60396 0.21648 0.65256 0.0
H777 H 0.68627 0.18349 0.63689 0.0
H778 H 0.6678 0.18649 0.66122 0.0
H779 H 0.71452 0.1917 0.65162 0.0
C780 C 0.61575 0.20241 0.70572 0.0
C781 C 0.65542 0.2032 0.71461 0.0
C782 C 0.61139 0.2028 0.68529 0.0
C783 C 0.64655 0.20393 0.67321 0.0
C784 C 0.68624 0.20483 0.68193 0.0
H785 H 0.67664 0.204 0.54677 0.0
H786 H 0.68531 0.20479 0.58233 0.0
C787 C 0.69067 0.20447 0.70249 0.0
C788 C 0.64112 0.20411 0.65151 0.0
H789 H 0.66256 0.19204 0.60954 0.0
C790 C 0.61682 0.21116 0.64311 0.0
C791 C 0.65774 0.19712 0.63929 0.0
C792 C 0.68279 0.18921 0.64764 0.0
C793 C 0.60917 0.21147 0.62272 0.0
C794 C 0.62553 0.20444 0.6105 0.0
C795 C 0.64993 0.19741 0.61893 0.0
C796 C 0.61908 0.20436 0.58882 0.0
C797 C 0.58442 0.21944 0.61441 0.0
C798 C 0.57879 0.20387 0.58054 0.0
C799 C 0.57358 0.20346 0.56002 0.0
C800 C 0.60866 0.20343 0.54749 0.0
C801 C 0.64885 0.20396 0.55592 0.0
C802 C 0.65396 0.20442 0.5763 0.0
H803 H 0.58346 0.22537 0.62477 0.0
H804 H 0.59786 0.22181 0.60018 0.0
H805 H 0.55175 0.21717 0.61171 0.0
H806 H 0.55142 0.20363 0.58995 0.0
H807 H 0.54226 0.20301 0.55401 0.0
H808 H 0.43098 0.95231 0.46367 0.0
H809 H 0.43981 0.95348 0.42816 0.0
H810 H 0.30653 0.95676 0.42108 0.0
H811 H 0.29731 0.95576 0.45698 0.0
H812 H 0.40845 0.94217 0.39986 0.0
H813 H 0.35269 0.97802 0.38828 0.0
H814 H 0.36487 0.9735 0.41241 0.0
H815 H 0.31599 0.97068 0.40077 0.0
C816 C 0.40338 0.95332 0.45466 0.0
C817 C 0.36333 0.95394 0.46322 0.0
C818 C 0.40859 0.95399 0.4343 0.0
C819 C 0.37396 0.95531 0.42197 0.0
C820 C 0.33382 0.95593 0.43037 0.0
H821 H 0.33979 0.95521 0.29638 0.0
H822 H 0.33343 0.95583 0.33212 0.0
C823 C 0.32855 0.9553 0.45087 0.0
C824 C 0.38025 0.95566 0.40029 0.0
H825 H 0.36675 0.96918 0.35954 0.0
C826 C 0.39955 0.9481 0.39106 0.0
C827 C 0.36877 0.96341 0.38886 0.0
C828 C 0.34978 0.97191 0.39807 0.0
C829 C 0.40695 0.94801 0.37067 0.0
C830 C 0.39516 0.95572 0.35922 0.0
C831 C 0.37596 0.9633 0.36841 0.0
C832 C 0.40008 0.9558 0.33751 0.0
C833 C 0.4263 0.93956 0.36141 0.0
C834 C 0.43984 0.95573 0.32864 0.0
C835 C 0.44372 0.95539 0.30806 0.0
C836 C 0.40783 0.95507 0.29608 0.0
C837 C 0.36815 0.95535 0.30511 0.0
C838 C 0.36437 0.95575 0.32557 0.0
H839 H 0.42663 0.93359 0.37167 0.0
H840 H 0.40904 0.93758 0.34785 0.0
H841 H 0.45908 0.94112 0.35715 0.0
H842 H 0.46781 0.95587 0.33765 0.0
H843 H 0.47468 0.95521 0.30156 0.0
H844 H 0.47323 0.81843 0.45808 0.0
H845 H 0.46416 0.81799 0.42207 0.0
H846 H 0.3302 0.81745 0.42956 0.0
H847 H 0.33874 0.81803 0.46515 0.0
H848 H 0.42282 0.80508 0.39768 0.0
H849 H 0.3472 0.83943 0.39294 0.0
H850 H 0.37484 0.83559 0.41465 0.0
H851 H 0.32215 0.83178 0.41008 0.0
C852 C 0.4419 0.81821 0.45202 0.0
C853 C 0.40676 0.81839 0.4645 0.0
C854 C 0.43675 0.81796 0.43148 0.0
C855 C 0.39646 0.8179 0.42316 0.0
C856 C 0.36153 0.81775 0.43563 0.0
H857 H 0.29504 0.8178 0.30349 0.0
H858 H 0.3036 0.81673 0.33944 0.0
C859 C 0.36657 0.81805 0.45603 0.0
C860 C 0.39046 0.81797 0.40148 0.0
H861 H 0.34447 0.83012 0.36413 0.0
C862 C 0.40594 0.81057 0.39032 0.0
C863 C 0.3682 0.82514 0.39191 0.0
C864 C 0.35247 0.83348 0.40297 0.0
C865 C 0.39915 0.81008 0.36987 0.0
C866 C 0.37674 0.81722 0.36036 0.0
C867 C 0.36125 0.82461 0.37151 0.0
C868 C 0.37123 0.81746 0.33867 0.0
C869 C 0.41549 0.80185 0.35865 0.0
C870 C 0.40631 0.81831 0.32644 0.0
C871 C 0.40155 0.81897 0.30605 0.0
C872 C 0.3615 0.81881 0.29739 0.0
C873 C 0.32627 0.81792 0.30967 0.0
C874 C 0.33111 0.81731 0.33018 0.0
H875 H 0.42184 0.79592 0.36858 0.0
H876 H 0.39293 0.79965 0.34713 0.0
H877 H 0.44526 0.80375 0.35127 0.0
H878 H 0.43747 0.81862 0.33269 0.0
H879 H 0.42945 0.81965 0.2971 0.0
H880 H 0.72374 0.56858 0.05471 0.0
H881 H 0.7148 0.5676 0.09066 0.0
H882 H 0.58091 0.56903 0.08359 0.0
H883 H 0.5893 0.56997 0.04799 0.0
H884 H 0.67216 0.58105 0.11493 0.0
H885 H 0.59822 0.54649 0.12 0.0
H886 H 0.62736 0.55022 0.0986 0.0
H887 H 0.57458 0.55412 0.10235 0.0
C888 C 0.69243 0.56861 0.06083 0.0
C889 C 0.65729 0.56937 0.04845 0.0
C890 C 0.68737 0.56806 0.08134 0.0
C891 C 0.64715 0.56811 0.08973 0.0
C892 C 0.61216 0.5688 0.0774 0.0
H893 H 0.54419 0.56888 0.20906 0.0
H894 H 0.5534 0.56847 0.17306 0.0
C895 C 0.61713 0.56941 0.05702 0.0
C896 C 0.6414 0.56796 0.1114 0.0
H897 H 0.59627 0.55576 0.14891 0.0
C898 C 0.65592 0.57548 0.12241 0.0
C899 C 0.61965 0.56075 0.12103 0.0
C900 C 0.60431 0.55239 0.10995 0.0
C901 C 0.64868 0.57608 0.14278 0.0
C902 C 0.62715 0.56884 0.15247 0.0
C903 C 0.61261 0.56131 0.14145 0.0
C904 C 0.62108 0.56882 0.17415 0.0
C905 C 0.66334 0.58456 0.15366 0.0
C906 C 0.65599 0.56892 0.18662 0.0
C907 C 0.65086 0.5692 0.20702 0.0
C908 C 0.61063 0.56927 0.21549 0.0
C909 C 0.57556 0.56888 0.203 0.0
C910 C 0.58078 0.56864 0.18246 0.0
H911 H 0.66785 0.59049 0.14352 0.0
H912 H 0.6407 0.58658 0.16531 0.0
H913 H 0.69386 0.58308 0.16079 0.0
H914 H 0.68735 0.56881 0.18056 0.0
H915 H 0.67867 0.56937 0.21614 0.0
H916 H 0.58627 0.70164 0.21316 0.0
H917 H 0.57871 0.70248 0.17751 0.0
H918 H 0.71155 0.70682 0.17145 0.0
H919 H 0.71968 0.70591 0.20742 0.0
H920 H 0.6 0.71701 0.15166 0.0
H921 H 0.68678 0.68473 0.13473 0.0
H922 H 0.66846 0.68747 0.15923 0.0
H923 H 0.71438 0.693 0.14957 0.0
C924 C 0.61407 0.70275 0.20434 0.0
C925 C 0.65372 0.70364 0.2132 0.0
C926 C 0.60957 0.70326 0.18392 0.0
C927 C 0.64455 0.70462 0.17183 0.0
C928 C 0.68421 0.70563 0.18054 0.0
H929 H 0.67651 0.70611 0.04567 0.0
H930 H 0.68416 0.70671 0.0813 0.0
C931 C 0.68879 0.70514 0.20108 0.0
C932 C 0.63903 0.70493 0.15014 0.0
H933 H 0.66272 0.69346 0.10767 0.0
C934 C 0.61372 0.71187 0.14199 0.0
C935 C 0.65676 0.69819 0.13764 0.0
C936 C 0.68285 0.69037 0.14567 0.0
C937 C 0.60623 0.71234 0.1216 0.0
C938 C 0.62386 0.70557 0.1091 0.0
C939 C 0.64915 0.69863 0.11728 0.0
C940 C 0.6179 0.7057 0.08739 0.0
C941 C 0.58034 0.7202 0.11359 0.0
C942 C 0.57791 0.70497 0.07886 0.0
C943 C 0.57329 0.70468 0.0583 0.0
C944 C 0.60867 0.70499 0.04598 0.0
C945 C 0.64852 0.70579 0.05466 0.0
C946 C 0.65304 0.70614 0.07508 0.0
H947 H 0.57817 0.72599 0.12426 0.0
H948 H 0.59368 0.72284 0.09957 0.0
H949 H 0.54814 0.7177 0.1106 0.0
H950 H 0.55037 0.70444 0.0881 0.0
H951 H 0.54222 0.70401 0.05209 0.0
H952 H 0.46842 0.45533 0.80411 0.0
H953 H 0.45882 0.45597 0.84006 0.0
H954 H 0.32609 0.45197 0.83263 0.0
H955 H 0.33521 0.45119 0.7971 0.0
H956 H 0.40866 0.46806 0.86278 0.0
H957 H 0.35712 0.43179 0.87194 0.0
H958 H 0.38235 0.43589 0.84979 0.0
H959 H 0.32759 0.43805 0.85384 0.0
C960 C 0.43726 0.45455 0.81017 0.0
C961 C 0.4027 0.45313 0.7977 0.0
C962 C 0.43181 0.45493 0.83068 0.0
C963 C 0.39182 0.45385 0.83901 0.0
C964 C 0.35733 0.4526 0.82657 0.0
H965 H 0.29048 0.45399 0.95891 0.0
H966 H 0.29802 0.45451 0.92282 0.0
C967 C 0.36268 0.4522 0.80619 0.0
C968 C 0.38558 0.45415 0.86067 0.0
H969 H 0.34773 0.44168 0.89954 0.0
C970 C 0.39559 0.46228 0.87085 0.0
C971 C 0.36824 0.44662 0.87114 0.0
C972 C 0.35855 0.43756 0.86117 0.0
C973 C 0.38819 0.46312 0.89119 0.0
C974 C 0.37076 0.45559 0.90162 0.0
C975 C 0.36066 0.44747 0.89145 0.0
C976 C 0.3655 0.45575 0.92332 0.0
C977 C 0.39858 0.47208 0.90135 0.0
C978 C 0.40088 0.45622 0.93544 0.0
C979 C 0.39673 0.45586 0.95589 0.0
C980 C 0.35703 0.45502 0.96473 0.0
C981 C 0.32144 0.45466 0.95257 0.0
C982 C 0.3257 0.45495 0.93199 0.0
H983 H 0.40126 0.47787 0.89068 0.0
H984 H 0.37444 0.47385 0.91251 0.0
H985 H 0.42904 0.47137 0.90906 0.0
H986 H 0.43189 0.45668 0.92906 0.0
H987 H 0.42486 0.45618 0.96476 0.0
H988 H 0.29815 0.31868 0.8018 0.0
H989 H 0.30614 0.31824 0.83784 0.0
H990 H 0.44028 0.31923 0.83133 0.0
H991 H 0.43277 0.31982 0.79569 0.0
H992 H 0.34932 0.30564 0.86209 0.0
H993 H 0.41729 0.34069 0.8685 0.0
H994 H 0.39134 0.33673 0.84644 0.0
H995 H 0.44463 0.33345 0.85134 0.0
C996 C 0.32929 0.31882 0.80808 0.0
C997 C 0.36475 0.3194 0.79585 0.0
C998 C 0.33382 0.31856 0.82864 0.0
C999 C 0.3738 0.3189 0.83724 0.0
C1000 C 0.40913 0.3192 0.82504 0.0
H1001 H 0.47177 0.31871 0.95741 0.0
H1002 H 0.46423 0.31775 0.9214 0.0
C1003 C 0.40469 0.3195 0.80461 0.0
C1004 C 0.37906 0.31888 0.85896 0.0
H1005 H 0.42128 0.33119 0.89701 0.0
C1006 C 0.36479 0.31125 0.86976 0.0
C1007 C 0.39946 0.32619 0.86891 0.0
C1008 C 0.41372 0.33477 0.85825 0.0
C1009 C 0.37102 0.31066 0.89023 0.0
C1010 C 0.39164 0.31795 0.90011 0.0
C1011 C 0.40589 0.32557 0.88933 0.0
C1012 C 0.39654 0.31806 0.92182 0.0
C1013 C 0.35602 0.30221 0.90109 0.0
C1014 C 0.36104 0.31862 0.93386 0.0
C1015 C 0.36521 0.31922 0.95428 0.0
C1016 C 0.40505 0.31929 0.96315 0.0
C1017 C 0.44069 0.31865 0.95105 0.0
C1018 C 0.43643 0.31811 0.93051 0.0
H1019 H 0.35068 0.29632 0.89092 0.0
H1020 H 0.37893 0.30009 0.91254 0.0
H1021 H 0.32596 0.30379 0.90855 0.0
H1022 H 0.33002 0.31876 0.92743 0.0
H1023 H 0.33704 0.31969 0.96311 0.0
H1024 H 0.37676 0.98427 0.22453 0.0
H1025 H 0.3484 0.99935 0.2337 0.0
H1026 H 0.22722 0.98708 0.24328 0.0
H1027 H 0.25534 0.97197 0.23438 0.0
H1028 H 0.28144 1.0103 0.2202 0.0
H1029 H 0.25505 0.99847 0.29709 0.0
H1030 H 0.28605 0.99201 0.27966 0.0
H1031 H 0.22988 0.99155 0.27862 0.0
C1032 C 0.34386 0.9848 0.22818 0.0
C1033 C 0.31844 0.97688 0.22888 0.0
C1034 C 0.32774 0.99343 0.23352 0.0
C1035 C 0.28598 0.9943 0.2397 0.0
C1036 C 0.25981 0.98653 0.23906 0.0
H1037 H 0.13571 0.03964 0.28459 0.0
H1038 H 0.16332 0.02452 0.27511 0.0
C1039 C 0.27588 0.9779 0.23376 0.0
C1040 C 0.27033 1.00322 0.24758 0.0
H1041 H 0.23041 0.01341 0.28901 0.0
C1042 C 0.27041 1.01099 0.23526 0.0
C1043 C 0.25603 1.00412 0.26727 0.0
C1044 C 0.25702 0.99613 0.28152 0.0
C1045 C 0.25584 0.01959 0.24195 0.0
C1046 C 0.24154 0.02048 0.26164 0.0
C1047 C 0.24141 0.01271 0.27396 0.0
C1048 C 0.22617 0.02942 0.26956 0.0
C1049 C 0.25501 0.0276 0.22775 0.0
C1050 C 0.2528 0.0371 0.2705 0.0
C1051 C 0.23719 0.04574 0.276 0.0
C1052 C 0.19461 0.04686 0.28074 0.0
C1053 C 0.16865 0.03903 0.28105 0.0
C1054 C 0.18433 0.03038 0.27554 0.0
H1055 H 0.2572 0.02528 0.21217 0.0
H1056 H 0.22594 0.03171 0.22956 0.0
H1057 H 0.28208 0.03218 0.23077 0.0
H1058 H 0.28544 0.03647 0.2664 0.0
H1059 H 0.25814 0.05161 0.27567 0.0
H1060 H 0.88314 0.28919 0.22535 0.0
H1061 H 0.91184 0.27413 0.23446 0.0
H1062 H 0.03193 0.28663 0.24551 0.0
H1063 H 1.00347 0.30171 0.23668 0.0
H1064 H 0.97998 0.26338 0.22146 0.0
H1065 H 1.00215 0.27494 0.2988 0.0
H1066 H 0.97167 0.2814 0.28118 0.0
H1067 H 0.02785 0.282 0.28074 0.0
C1068 C 0.9159 0.28872 0.2293 0.0
C1069 C 0.94088 0.29669 0.23045 0.0
C1070 C 0.9322 0.2801 0.23461 0.0
C1071 C 0.9737 0.27929 0.2412 0.0
C1072 C 0.99951 0.28712 0.24098 0.0
H1073 H 0.12446 0.23409 0.2865 0.0
H1074 H 0.09655 0.2492 0.27708 0.0
C1075 C 0.98326 0.29574 0.23572 0.0
C1076 C 0.98945 0.27037 0.24907 0.0
H1077 H 0.02813 0.26011 0.29069 0.0
C1078 C 0.99037 0.26266 0.23661 0.0
C1079 C 1.00292 0.26943 0.26888 0.0
C1080 C 1.00081 0.27735 0.28326 0.0
C1081 C 1.00515 0.25407 0.24328 0.0
C1082 C 0.01864 0.25313 0.26308 0.0
C1083 C 0.01776 0.26085 0.27554 0.0
C1084 C 0.03411 0.2442 0.27099 0.0
C1085 C 1.00706 0.24613 0.22896 0.0
C1086 C 0.00777 0.23646 0.27161 0.0
C1087 C 0.02354 0.22783 0.27708 0.0
C1088 C 0.066 0.22677 0.28211 0.0
C1089 C 0.09163 0.23466 0.28274 0.0
C1090 C 0.07578 0.24329 0.27726 0.0
H1091 H 1.00534 0.24851 0.2134 0.0
H1092 H 0.03632 0.2421 0.23095 0.0
H1093 H 0.98018 0.24145 0.23167 0.0
H1094 H 0.97526 0.23704 0.26727 0.0
H1095 H 1.00284 0.22193 0.2765 0.0
H1096 H 0.25581 0.22273 0.98691 0.0
H1097 H 0.28253 0.23798 0.99565 0.0
H1098 H 0.16105 0.2498 0.98448 0.0
H1099 H 0.13382 0.23453 0.97594 0.0
H1100 H 0.2861 0.25504 0.97626 0.0
H1101 H 0.18336 0.25666 0.04226 0.0
H1102 H 0.19142 0.24617 0.02847 0.0
H1103 H 0.15635 0.25487 0.01936 0.0
C1104 C 0.23489 0.22859 0.98594 0.0
C1105 C 0.19253 0.22738 0.98088 0.0
C1106 C 0.25022 0.23731 0.99102 0.0
C1107 C 0.22353 0.24499 0.99121 0.0
C1108 C 0.18196 0.24392 0.9849 0.0
H1109 H 0.25565 0.30224 0.02478 0.0
H1110 H 0.22826 0.28705 0.016 0.0
C1111 C 0.16656 0.2352 0.97981 0.0
C1112 C 0.2389 0.25399 0.99878 0.0
H1113 H 0.22405 0.2699 0.03533 0.0
C1114 C 0.27261 0.25828 0.98919 0.0
C1115 C 0.22137 0.2582 0.01573 0.0
C1116 C 0.18637 0.25372 0.0272 0.0
C1117 C 0.28876 0.26674 0.99586 0.0
C1118 C 0.27127 0.27094 0.01283 0.0
C1119 C 0.23751 0.26666 0.02239 0.0
C1120 C 0.28691 0.27991 0.02048 0.0
C1121 C 0.32378 0.27122 0.9844 0.0
C1122 C 0.32849 0.28088 0.02685 0.0
C1123 C 0.34427 0.28956 0.03197 0.0
C1124 C 0.31867 0.29744 0.03087 0.0
C1125 C 0.27628 0.29633 0.02577 0.0
C1126 C 0.26056 0.28765 0.02067 0.0
H1127 H 0.32671 0.2683 0.96932 0.0
H1128 H 0.31883 0.27878 0.98318 0.0
H1129 H 0.35381 0.27004 0.99221 0.0
H1130 H 0.34913 0.27496 0.02727 0.0
H1131 H 0.37702 0.29015 0.03586 0.0
H1132 H 0.12943 0.03991 0.97515 0.0
H1133 H 0.101 0.02475 0.98367 0.0
H1134 H 0.98012 0.03699 0.99423 0.0
H1135 H 0.00804 0.05212 0.98553 0.0
H1136 H 0.0681 0.0205 0.02058 0.0
H1137 H 0.94982 0.01415 0.96234 0.0
H1138 H 0.99037 0.02274 0.95984 0.0
H1139 H 0.94442 0.02513 0.97427 0.0
C1140 C 0.0965 0.03934 0.97874 0.0
C1141 C 0.07102 0.04725 0.97962 0.0
C1142 C 0.08037 0.03067 0.98374 0.0
C1143 C 0.03838 0.02971 0.98952 0.0
C1144 C 0.01242 0.03752 0.98951 0.0
H1145 H 0.88603 0.98479 0.03534 0.0
H1146 H 0.91431 0.99998 0.02689 0.0
C1147 C 0.02851 0.04618 0.98455 0.0
C1148 C 0.02264 0.02074 0.99715 0.0
H1149 H 0.94746 1.0043 0.99037 0.0
C1150 C 0.0419 0.01692 0.01389 0.0
C1151 C 0.98823 0.01611 0.98854 0.0
C1152 C 0.9672 0.01969 0.97015 0.0
C1153 C 0.0273 1.00869 0.02243 0.0
C1154 C 0.99291 1.00406 0.0138 0.0
C1155 C 0.97365 1.00788 0.99706 0.0
C1156 C 0.9772 0.99508 0.02142 0.0
C1157 C 0.04829 1.00514 0.04085 0.0
C1158 C 1.00334 0.9873 0.02163 0.0
C1159 C 0.98734 0.97862 0.02659 0.0
C1160 C 0.94472 0.97752 0.03127 0.0
C1161 C 0.91903 0.98539 0.03194 0.0
C1162 C 0.93509 0.99407 0.02697 0.0
H1163 H 0.06533 1.0107 0.04873 0.0
H1164 H 0.02516 1.00202 0.0511 0.0
H1165 H 0.07136 0.99975 0.03675 0.0
H1166 H 0.03572 0.98785 0.01708 0.0
H1167 H 0.00797 0.97271 0.02576 0.0
H1168 H 0.75976 0.05112 0.77441 0.0
H1169 H 0.78666 0.03595 0.7652 0.0
H1170 H 0.66497 0.02404 0.77543 0.0
H1171 H 0.63755 0.03923 0.78442 0.0
H1172 H 0.78989 0.01875 0.78396 0.0
H1173 H 0.68842 0.01762 0.71753 0.0
H1174 H 0.69617 0.02801 0.73172 0.0
H1175 H 0.66092 0.01923 0.74037 0.0
C1176 C 0.73882 0.04526 0.77506 0.0
C1177 C 0.69636 0.04642 0.78 0.0
C1178 C 0.75426 0.03658 0.76972 0.0
C1179 C 0.72758 0.02891 0.76913 0.0
C1180 C 0.68587 0.02992 0.77531 0.0
H1181 H 0.75978 0.97187 0.73429 0.0
H1182 H 0.73244 0.98704 0.74326 0.0
C1183 C 0.67037 0.0386 0.78067 0.0
C1184 C 0.7431 0.01996 0.76131 0.0
H1185 H 0.7288 1.0043 0.72422 0.0
C1186 C 0.77662 0.0156 0.77088 0.0
C1187 C 0.72586 0.01587 0.74417 0.0
C1188 C 0.69111 0.02044 0.7327 0.0
C1189 C 0.79283 1.00718 0.76401 0.0
C1190 C 0.7756 1.0031 0.74686 0.0
C1191 C 0.74206 1.00745 0.7373 0.0
C1192 C 0.79122 0.99416 0.73904 0.0
C1193 C 0.82763 1.00261 0.77545 0.0
C1194 C 0.83287 0.99319 0.73274 0.0
C1195 C 0.84861 0.98452 0.72751 0.0
C1196 C 0.82293 0.97665 0.72843 0.0
C1197 C 0.78048 0.97777 0.73344 0.0
C1198 C 0.76479 0.98644 0.73865 0.0
H1199 H 0.83043 1.00545 0.79061 0.0
H1200 H 0.82251 0.99505 0.77649 0.0
H1201 H 0.85777 1.0038 0.76773 0.0
H1202 H 0.85357 0.9991 0.73249 0.0
H1203 H 0.88142 0.98393 0.7237 0.0
H1204 H 0.1266 0.7335 0.78502 0.0
H1205 H 0.09918 0.74874 0.77642 0.0
H1206 H 0.9774 0.73689 0.76617 0.0
H1207 H 1.00432 0.72168 0.77495 0.0
H1208 H 0.06648 0.75304 0.73956 0.0
H1209 H 0.94881 0.75988 0.79786 0.0
H1210 H 0.98872 0.75115 0.80038 0.0
H1211 H 0.94255 0.7489 0.78601 0.0
C1212 C 0.09369 0.73417 0.78148 0.0
C1213 C 0.06766 0.72635 0.78071 0.0
C1214 C 0.07813 0.74288 0.77644 0.0
C1215 C 0.03619 0.74398 0.77071 0.0
C1216 C 0.00968 0.73626 0.77084 0.0
H1217 H 0.88658 0.78922 0.72456 0.0
H1218 H 0.9141 0.77398 0.73308 0.0
C1219 C 0.02519 0.72755 0.77585 0.0
C1220 C 0.02105 0.75299 0.76302 0.0
H1221 H 0.94697 0.76967 0.76973 0.0
C1222 C 0.04053 0.75672 0.74624 0.0
C1223 C 0.98696 0.75774 0.77163 0.0
C1224 C 0.96574 0.75427 0.79007 0.0
C1225 C 0.02647 0.76498 0.73765 0.0
C1226 C 0.99239 0.76973 0.74625 0.0
C1227 C 0.97291 0.766 0.76304 0.0
C1228 C 0.97719 0.77874 0.73856 0.0
C1229 C 0.04765 0.76844 0.71919 0.0
C1230 C 1.00372 0.78645 0.73831 0.0
C1231 C 0.98816 0.79516 0.73333 0.0
C1232 C 0.9456 0.79636 0.72864 0.0
C1233 C 0.91955 0.78855 0.72798 0.0
C1234 C 0.93517 0.77983 0.73298 0.0
H1235 H 0.06446 0.76281 0.71138 0.0
H1236 H 0.02469 0.77158 0.70891 0.0
H1237 H 0.07096 0.77378 0.72323 0.0
H1238 H 0.03607 0.78582 0.74288 0.0
H1239 H 0.00906 0.80103 0.73415 0.0
H1240 H 0.75885 0.72296 0.98498 0.0
H1241 H 0.78557 0.73816 0.99408 0.0
H1242 H 0.66446 0.75008 0.98259 0.0
H1243 H 0.6372 0.73486 0.9737 0.0
H1244 H 0.78976 0.75531 0.97511 0.0
H1245 H 0.68557 0.75665 0.04064 0.0
H1246 H 0.69383 0.74622 0.02665 0.0
H1247 H 0.65907 0.75499 0.01756 0.0
C1248 C 0.73802 0.72883 0.98402 0.0
C1249 C 0.69573 0.72766 0.97876 0.0
C1250 C 0.75336 0.73752 0.9893 0.0
C1251 C 0.72675 0.74521 0.98952 0.0
C1252 C 0.68529 0.7442 0.983 0.0
H1253 H 0.75857 0.80226 0.02472 0.0
H1254 H 0.73131 0.78712 0.01542 0.0
C1255 C 0.66988 0.7355 0.9777 0.0
C1256 C 0.74205 0.75418 0.99737 0.0
H1257 H 0.72659 0.7699 0.03424 0.0
C1258 C 0.77603 0.7585 0.98806 0.0
C1259 C 0.7242 0.7583 0.01433 0.0
C1260 C 0.68889 0.75378 0.02552 0.0
C1261 C 0.79213 0.76691 0.99501 0.0
C1262 C 0.77432 0.77103 0.012 0.0
C1263 C 0.7403 0.76672 0.02129 0.0
C1264 C 0.78987 0.77995 0.01994 0.0
C1265 C 0.82745 0.77143 0.98383 0.0
C1266 C 0.83133 0.78088 0.0265 0.0
C1267 C 0.84704 0.78953 0.03192 0.0
C1268 C 0.82148 0.79742 0.03093 0.0
C1269 C 0.77917 0.79634 0.02564 0.0
C1270 C 0.76353 0.78769 0.02023 0.0
H1271 H 0.83065 0.76859 0.96869 0.0
H1272 H 0.82263 0.779 0.98278 0.0
H1273 H 0.8573 0.77018 0.99175 0.0
H1274 H 0.85195 0.77496 0.02685 0.0
H1275 H 0.87973 0.7901 0.03595 0.0
H1276 H 0.13512 0.53885 0.78659 0.0
H1277 H 0.16361 0.52368 0.77822 0.0
H1278 H 0.28481 0.53588 0.76825 0.0
H1279 H 0.25682 0.55102 0.77681 0.0
H1280 H 0.1971 0.5195 0.74141 0.0
H1281 H 0.31428 0.51294 0.80004 0.0
H1282 H 0.27379 0.52155 0.80247 0.0
H1283 H 0.32 0.52394 0.78823 0.0
C1284 C 0.16813 0.53827 0.78317 0.0
C1285 C 0.19367 0.54617 0.7824 0.0
C1286 C 0.1843 0.5296 0.77826 0.0
C1287 C 0.22639 0.52862 0.77266 0.0
C1288 C 0.25243 0.53641 0.77282 0.0
H1289 H 0.37859 0.48369 0.72677 0.0
H1290 H 0.35055 0.49886 0.73544 0.0
C1291 C 0.2363 0.54509 0.7777 0.0
C1292 C 0.24214 0.51965 0.76502 0.0
H1293 H 0.31691 0.50314 0.77195 0.0
C1294 C 0.22311 0.51589 0.74817 0.0
C1295 C 0.27632 0.51498 0.77372 0.0
C1296 C 0.2971 0.5185 0.79222 0.0
C1297 C 0.23771 0.50766 0.73962 0.0
C1298 C 0.27185 0.50298 0.74834 0.0
C1299 C 0.2909 0.50675 0.76519 0.0
C1300 C 0.28751 0.49401 0.7407 0.0
C1301 C 0.21699 0.50417 0.72109 0.0
C1302 C 0.26122 0.48625 0.74032 0.0
C1303 C 0.27708 0.47758 0.73525 0.0
C1304 C 0.3197 0.47646 0.7306 0.0
C1305 C 0.34557 0.4843 0.73014 0.0
C1306 C 0.32966 0.49298 0.73523 0.0
H1307 H 0.20016 0.50977 0.7132 0.0
H1308 H 0.24025 0.50107 0.71089 0.0
H1309 H 0.19377 0.49879 0.72505 0.0
H1310 H 0.2288 0.48682 0.74481 0.0
H1311 H 0.25631 0.47169 0.73592 0.0
H1312 H 0.37864 0.78856 0.53566 0.0
H1313 H 0.34983 0.77355 0.52626 0.0
H1314 H 0.22871 0.78597 0.5175 0.0
H1315 H 0.25724 0.801 0.52666 0.0
H1316 H 0.28247 0.76263 0.53994 0.0
H1317 H 0.25568 0.77476 0.46331 0.0
H1318 H 0.28722 0.78109 0.48073 0.0
H1319 H 0.2311 0.78167 0.48198 0.0
C1320 C 0.34566 0.78808 0.53214 0.0
C1321 C 0.32036 0.79602 0.53176 0.0
C1322 C 0.32929 0.77949 0.52667 0.0
C1323 C 0.2874 0.77868 0.52067 0.0
C1324 C 0.26139 0.78647 0.5216 0.0
H1325 H 0.13489 0.73378 0.47549 0.0
H1326 H 0.16329 0.74882 0.485 0.0
C1327 C 0.2777 0.79505 0.52703 0.0
C1328 C 0.27139 0.76981 0.51269 0.0
H1329 H 0.23063 0.75984 0.47122 0.0
C1330 C 0.27127 0.762 0.5249 0.0
C1331 C 0.25685 0.769 0.49303 0.0
C1332 C 0.25798 0.77704 0.4789 0.0
C1333 C 0.25626 0.75346 0.51813 0.0
C1334 C 0.24173 0.75265 0.49847 0.0
C1335 C 0.24182 0.76046 0.48626 0.0
C1336 C 0.2259 0.74377 0.49047 0.0
C1337 C 0.25518 0.74541 0.53224 0.0
C1338 C 0.25215 0.73603 0.48944 0.0
C1339 C 0.23609 0.72743 0.48393 0.0
C1340 C 0.19344 0.72641 0.47923 0.0
C1341 C 0.16787 0.73431 0.47898 0.0
C1342 C 0.184 0.74291 0.48452 0.0
H1343 H 0.25752 0.74769 0.54784 0.0
H1344 H 0.22596 0.74136 0.53041 0.0
H1345 H 0.28207 0.7408 0.52913 0.0
H1346 H 0.28483 0.73657 0.4935 0.0
H1347 H 0.25674 0.72151 0.48421 0.0
H1348 H 0.88323 0.48402 0.53648 0.0
H1349 H 0.91189 0.4991 0.52741 0.0
H1350 H 0.03336 0.48683 0.51877 0.0
H1351 H 1.00498 0.47173 0.52759 0.0
H1352 H 0.9789 0.51005 0.54139 0.0
H1353 H 1.00671 0.49817 0.46465 0.0
H1354 H 0.97511 0.49176 0.48193 0.0
H1355 H 0.03123 0.49124 0.48331 0.0
C1356 C 0.91625 0.48455 0.53305 0.0
C1357 C 0.9417 0.47663 0.5326 0.0
C1358 C 0.93254 0.49318 0.52778 0.0
C1359 C 0.97449 0.49404 0.5219 0.0
C1360 C 1.00064 0.48628 0.52277 0.0
H1361 H 0.12572 0.53928 0.47705 0.0
H1362 H 0.09789 0.52419 0.48658 0.0
C1363 C 0.98441 0.47766 0.52802 0.0
C1364 C 0.99039 0.50296 0.51407 0.0
H1365 H 0.03111 0.51311 0.47276 0.0
C1366 C 0.99019 0.51073 0.52638 0.0
C1367 C 1.00506 0.50384 0.49443 0.0
C1368 C 1.00428 0.49584 0.48022 0.0
C1369 C 1.00499 0.51932 0.51972 0.0
C1370 C 0.01961 0.5202 0.50008 0.0
C1371 C 0.01986 0.51243 0.48778 0.0
C1372 C 0.03514 0.52914 0.49218 0.0
C1373 C 1.00573 0.52732 0.53393 0.0
C1374 C 0.00865 0.53684 0.49125 0.0
C1375 C 0.02439 0.54547 0.48573 0.0
C1376 C 0.06697 0.54656 0.48094 0.0
C1377 C 0.09279 0.5387 0.48063 0.0
C1378 C 0.07698 0.53007 0.48617 0.0
H1379 H 1.00348 0.52499 0.5495 0.0
H1380 H 0.03479 0.53144 0.53215 0.0
H1381 H 0.97864 0.53189 0.53089 0.0
H1382 H 0.97601 0.53624 0.49536 0.0
H1383 H 1.00355 0.55135 0.48606 0.0
H1384 H 0.63635 0.53928 0.2873 0.0
H1385 H 0.66416 0.52409 0.27864 0.0
H1386 H 0.78569 0.53609 0.2685 0.0
H1387 H 0.7584 0.55125 0.27738 0.0
H1388 H 0.69677 0.5198 0.24194 0.0
H1389 H 0.81514 0.51314 0.29995 0.0
H1390 H 0.77515 0.52185 0.30251 0.0
H1391 H 0.82123 0.52412 0.28806 0.0
C1392 C 0.66929 0.53866 0.28378 0.0
C1393 C 0.69514 0.5465 0.28308 0.0
C1394 C 0.68507 0.52996 0.27869 0.0
C1395 C 0.72707 0.52893 0.27299 0.0
C1396 C 0.75339 0.53668 0.27317 0.0
H1397 H 0.87801 0.48408 0.22599 0.0
H1398 H 0.84989 0.49923 0.23476 0.0
C1399 C 0.73766 0.54536 0.27823 0.0
C1400 C 0.74247 0.51994 0.26527 0.0
H1401 H 0.81737 0.5034 0.27172 0.0
C1402 C 0.72295 0.51618 0.24854 0.0
C1403 C 0.77685 0.51525 0.27377 0.0
C1404 C 0.7981 0.51874 0.29217 0.0
C1405 C 0.73726 0.50794 0.2399 0.0
C1406 C 0.77167 0.50326 0.24839 0.0
C1407 C 0.79117 0.50702 0.26513 0.0
C1408 C 0.78721 0.4943 0.24061 0.0
C1409 C 0.71598 0.50444 0.22152 0.0
C1410 C 0.76111 0.48652 0.2405 0.0
C1411 C 0.77703 0.47785 0.23538 0.0
C1412 C 0.81951 0.47677 0.23039 0.0
C1413 C 0.84511 0.48466 0.22962 0.0
C1414 C 0.82915 0.49333 0.23477 0.0
H1415 H 0.69866 0.51002 0.2138 0.0
H1416 H 0.73898 0.50139 0.21113 0.0
H1417 H 0.69312 0.49902 0.22563 0.0
H1418 H 0.72885 0.48705 0.24526 0.0
H1419 H 0.75647 0.47193 0.23629 0.0
H1420 H 0.87666 0.28897 0.53642 0.0
H1421 H 0.84878 0.27375 0.52788 0.0
H1422 H 0.72966 0.28601 0.5137 0.0
H1423 H 0.75702 0.30122 0.52237 0.0
H1424 H 0.72327 0.26899 0.53387 0.0
H1425 H 0.83063 0.26672 0.4696 0.0
H1426 H 0.85584 0.26865 0.49291 0.0
H1427 H 0.82187 0.27733 0.48287 0.0
C1428 C 0.84425 0.28841 0.53191 0.0
C1429 C 0.81918 0.29633 0.52995 0.0
C1430 C 0.8285 0.27971 0.52682 0.0
C1431 C 0.78747 0.27878 0.51967 0.0
C1432 C 0.76154 0.28658 0.51899 0.0
H1433 H 0.63493 0.23346 0.47442 0.0
H1434 H 0.66225 0.24871 0.483 0.0
C1435 C 0.77724 0.29527 0.52403 0.0
C1436 C 0.77203 0.26979 0.51207 0.0
H1437 H 0.78846 0.25367 0.4761 0.0
C1438 C 0.73744 0.26564 0.52122 0.0
C1439 C 0.79046 0.26546 0.49549 0.0
C1440 C 0.82653 0.26978 0.48449 0.0
C1441 C 0.72132 0.25718 0.51452 0.0
C1442 C 0.73971 0.25285 0.49792 0.0
C1443 C 0.77429 0.25701 0.48876 0.0
C1444 C 0.72436 0.24384 0.49031 0.0
C1445 C 0.6854 0.25284 0.52562 0.0
C1446 C 0.75086 0.23613 0.49038 0.0
C1447 C 0.7355 0.22742 0.48524 0.0
C1448 C 0.69329 0.22625 0.47986 0.0
C1449 C 0.66755 0.2341 0.47854 0.0
C1450 C 0.68299 0.24281 0.48366 0.0
H1451 H 0.68184 0.25582 0.54061 0.0
H1452 H 0.65589 0.25409 0.51743 0.0
H1453 H 0.68981 0.24528 0.52701 0.0
H1454 H 0.78301 0.23677 0.49525 0.0
H1455 H 0.75625 0.22154 0.48641 0.0
H1456 H 0.39117 0.28941 0.72473 0.0
H1457 H 0.41847 0.27425 0.73404 0.0
H1458 H 0.54071 0.28608 0.74306 0.0
H1459 H 0.51369 0.30127 0.734 0.0
H1460 H 0.48494 0.26305 0.72034 0.0
H1461 H 0.51215 0.27489 0.79714 0.0
H1462 H 0.48134 0.2814 0.77972 0.0
H1463 H 0.53751 0.28172 0.77856 0.0
C1464 C 0.42407 0.28877 0.7283 0.0
C1465 C 0.45014 0.29658 0.72878 0.0
C1466 C 0.43958 0.28009 0.73371 0.0
C1467 C 0.48135 0.27908 0.73976 0.0
C1468 C 0.50811 0.28674 0.73893 0.0
H1469 H 0.62928 0.23348 0.785 0.0
H1470 H 0.60219 0.24864 0.7755 0.0
C1471 C 0.49267 0.29541 0.73355 0.0
C1472 C 0.49643 0.27012 0.74768 0.0
H1473 H 0.53579 0.25987 0.78915 0.0
C1474 C 0.49592 0.26234 0.73539 0.0
C1475 C 0.51068 0.2692 0.76737 0.0
C1476 C 0.51018 0.27721 0.78156 0.0
C1477 C 0.51006 0.25371 0.74212 0.0
C1478 C 0.5243 0.2528 0.76181 0.0
C1479 C 0.52482 0.26058 0.7741 0.0
C1480 C 0.5393 0.24383 0.76976 0.0
C1481 C 0.51054 0.2457 0.72794 0.0
C1482 C 0.51245 0.23618 0.77061 0.0
C1483 C 0.52777 0.22752 0.7761 0.0
C1484 C 0.57025 0.22633 0.78095 0.0
C1485 C 0.59641 0.23414 0.78137 0.0
C1486 C 0.58102 0.24281 0.77585 0.0
H1487 H 0.50861 0.24803 0.71236 0.0
H1488 H 0.53936 0.24151 0.72979 0.0
H1489 H 0.48318 0.2412 0.73093 0.0
H1490 H 0.47988 0.23686 0.76644 0.0
H1491 H 0.50668 0.22168 0.77569 0.0
H1492 H 0.50955 0.0506 0.48467 0.0
H1493 H 0.48262 0.0354 0.49368 0.0
H1494 H 0.6038 0.02344 0.48244 0.0
H1495 H 0.63124 0.03866 0.47362 0.0
H1496 H 0.47877 0.0182 0.4746 0.0
H1497 H 0.58179 0.0169 0.54049 0.0
H1498 H 0.57363 0.02733 0.52649 0.0
H1499 H 0.60866 0.01859 0.51751 0.0
C1500 C 0.53035 0.04472 0.48373 0.0
C1501 C 0.5727 0.04588 0.47857 0.0
C1502 C 0.51489 0.03603 0.48897 0.0
C1503 C 0.54145 0.02833 0.48923 0.0
C1504 C 0.58299 0.02934 0.4828 0.0
H1505 H 0.50987 0.97128 0.52461 0.0
H1506 H 0.537 0.98643 0.51532 0.0
C1507 C 0.59851 0.03803 0.47755 0.0
C1508 C 0.52605 0.01936 0.49703 0.0
H1509 H 0.541 1.00363 0.53396 0.0
C1510 C 0.49229 0.01502 0.4876 0.0
C1511 C 0.54363 0.01524 0.51406 0.0
C1512 C 0.57869 0.01977 0.52538 0.0
C1513 C 0.47617 1.00659 0.49448 0.0
C1514 C 0.49372 1.00248 0.51153 0.0
C1515 C 0.5275 1.00681 0.52095 0.0
C1516 C 0.47814 0.99354 0.51942 0.0
C1517 C 0.44115 1.00206 0.48315 0.0
C1518 C 0.43651 0.99257 0.52575 0.0
C1519 C 0.42088 0.98391 0.53115 0.0
C1520 C 0.44667 0.97605 0.5304 0.0
C1521 C 0.48909 0.97717 0.52534 0.0
C1522 C 0.50466 0.98583 0.51994 0.0
H1523 H 0.4383 1.00488 0.46798 0.0
H1524 H 0.44603 0.99449 0.48216 0.0
H1525 H 0.41111 1.0033 0.49091 0.0
H1526 H 0.41573 0.99847 0.52593 0.0
H1527 H 0.3881 0.98331 0.535 0.0
H1528 H 0.62827 0.7338 0.28442 0.0
H1529 H 0.60075 0.74905 0.27594 0.0
H1530 H 0.47873 0.73722 0.26622 0.0
H1531 H 0.50574 0.72201 0.27489 0.0
H1532 H 0.56738 0.75347 0.23938 0.0
H1533 H 0.45069 0.76013 0.29819 0.0
H1534 H 0.49059 0.75137 0.30043 0.0
H1535 H 0.44411 0.74919 0.28623 0.0
C1536 C 0.59531 0.73448 0.28101 0.0
C1537 C 0.56922 0.72667 0.28038 0.0
C1538 C 0.57968 0.7432 0.27604 0.0
C1539 C 0.53762 0.7443 0.27052 0.0
C1540 C 0.5111 0.73659 0.27074 0.0
H1541 H 0.38683 0.78952 0.22515 0.0
H1542 H 0.41475 0.77429 0.23347 0.0
C1543 C 0.52667 0.72787 0.27568 0.0
C1544 C 0.5223 0.75333 0.26299 0.0
H1545 H 0.44814 0.76996 0.27013 0.0
C1546 C 0.54149 0.75711 0.24619 0.0
C1547 C 0.48831 0.75804 0.27177 0.0
C1548 C 0.46743 0.75453 0.29026 0.0
C1549 C 0.52722 0.76539 0.23775 0.0
C1550 C 0.4932 0.7701 0.24651 0.0
C1551 C 0.47403 0.76632 0.26332 0.0
C1552 C 0.47775 0.77911 0.23895 0.0
C1553 C 0.54811 0.76892 0.21927 0.0
C1554 C 0.50409 0.78685 0.23878 0.0
C1555 C 0.48829 0.79556 0.23392 0.0
C1556 C 0.44569 0.79672 0.22926 0.0
C1557 C 0.41982 0.78888 0.22853 0.0
C1558 C 0.43567 0.78017 0.23342 0.0
H1559 H 0.56503 0.76334 0.21137 0.0
H1560 H 0.52493 0.77204 0.20907 0.0
H1561 H 0.57127 0.77429 0.22331 0.0
H1562 H 0.53647 0.78625 0.2433 0.0
H1563 H 0.50905 0.80145 0.23479 0.0
H1564 H 0.38769 0.48487 0.03633 0.0
H1565 H 0.41585 0.49998 0.02719 0.0
H1566 H 0.53702 0.48778 0.01724 0.0
H1567 H 0.50915 0.47265 0.02614 0.0
H1568 H 0.48352 0.51088 0.04078 0.0
H1569 H 0.50802 0.49934 0.96357 0.0
H1570 H 0.4771 0.49286 0.98102 0.0
H1571 H 0.53326 0.4923 0.98183 0.0
C1572 C 0.42055 0.48542 0.0326 0.0
C1573 C 0.44605 0.47752 0.03181 0.0
C1574 C 0.43655 0.49407 0.02728 0.0
C1575 C 0.47824 0.49496 0.02103 0.0
C1576 C 0.50448 0.48721 0.02154 0.0
H1577 H 0.63001 0.54006 0.97655 0.0
H1578 H 0.60132 0.52499 0.98565 0.0
C1579 C 0.48855 0.47857 0.02683 0.0
C1580 C 0.49382 0.50391 0.01322 0.0
H1581 H 0.5334 0.5142 0.97182 0.0
C1582 C 0.49427 0.51162 0.02569 0.0
C1583 C 0.50776 0.50487 0.99349 0.0
C1584 C 0.50624 0.49693 0.97911 0.0
C1585 C 0.50911 0.52022 0.01911 0.0
C1586 C 0.52311 0.52117 0.99938 0.0
C1587 C 0.52262 0.51346 0.9869 0.0
C1588 C 0.53899 0.53009 0.99161 0.0
C1589 C 0.51063 0.52815 0.03348 0.0
C1590 C 0.51297 0.53788 0.991 0.0
C1591 C 0.5292 0.5465 0.98573 0.0
C1592 C 0.57179 0.54749 0.98087 0.0
C1593 C 0.59708 0.53955 0.98019 0.0
C1594 C 0.58079 0.53093 0.98548 0.0
H1595 H 0.50857 0.52576 0.04901 0.0
H1596 H 0.53991 0.53219 0.03165 0.0
H1597 H 0.48379 0.53282 0.03065 0.0
H1598 H 0.48036 0.53735 0.99521 0.0
H1599 H 0.50875 0.55245 0.98634 0.0
H1600 H 0.07576 0.17551 0.29894 0.0
H1601 H 0.07172 0.15883 0.30459 0.0
H1602 H 0.20645 0.15737 0.30669 0.0
H1603 H 0.21072 0.17392 0.30064 0.0
H1604 H 0.17453 0.14538 0.28066 0.0
H1605 H 0.08918 0.14194 0.35142 0.0
H1606 H 0.06237 0.14897 0.33368 0.0
H1607 H 0.11194 0.1527 0.34339 0.0
C1608 C 0.10446 0.17166 0.30107 0.0
C1609 C 0.14354 0.17603 0.29922 0.0
C1610 C 0.10212 0.16213 0.30438 0.0
C1611 C 0.13881 0.15684 0.30622 0.0
C1612 C 0.17773 0.16129 0.30533 0.0
H1613 H 0.1868 0.09722 0.30288 0.0
H1614 H 0.1944 0.1138 0.3091 0.0
C1615 C 0.18009 0.17077 0.30185 0.0
C1616 C 0.13707 0.14659 0.30694 0.0
H1617 H 0.09588 0.12824 0.33197 0.0
C1618 C 0.15777 0.14164 0.29204 0.0
C1619 C 0.11504 0.1417 0.32172 0.0
C1620 C 0.09369 0.14659 0.33857 0.0
C1621 C 0.15616 0.13198 0.29119 0.0
C1622 C 0.13371 0.12709 0.30581 0.0
C1623 C 0.1133 0.13201 0.32085 0.0
C1624 C 0.1288 0.11692 0.30482 0.0
C1625 C 0.1772 0.12711 0.2742 0.0
C1626 C 0.0892 0.11313 0.30121 0.0
C1627 C 0.08475 0.10369 0.29771 0.0
C1628 C 0.11982 0.09781 0.29784 0.0
C1629 C 0.15918 0.10154 0.3026 0.0
C1630 C 0.16361 0.11102 0.30605 0.0
H1631 H 0.18585 0.13194 0.26216 0.0
H1632 H 0.20625 0.12374 0.27953 0.0
H1633 H 0.1565 0.12168 0.26804 0.0
H1634 H 0.06191 0.11754 0.30027 0.0
H1635 H 0.05389 0.10106 0.29427 0.0
H1636 H 0.05445 0.17281 0.96839 0.0
H1637 H 0.06358 0.15633 0.96265 0.0
H1638 H 0.19616 0.1604 0.95478 0.0
H1639 H 0.18745 0.17698 0.96077 0.0
H1640 H 0.09853 0.14574 0.93137 0.0
H1641 H 0.18765 0.14219 1.0014 0.0
H1642 H 0.15816 0.15242 0.99541 0.0
H1643 H 0.20818 0.15041 0.98411 0.0
C1644 C 0.08558 0.17025 0.96523 0.0
C1645 C 0.12033 0.17622 0.96529 0.0
C1646 C 0.09067 0.16081 0.96188 0.0
C1647 C 0.13059 0.15712 0.95861 0.0
C1648 C 0.16513 0.1631 0.9576 0.0
H1649 H 0.21534 0.1003 0.96219 0.0
H1650 H 0.21024 0.11686 0.95644 0.0
C1651 C 0.16007 0.17258 0.96091 0.0
C1652 C 0.13602 0.14696 0.95761 0.0
H1653 H 0.1775 0.12874 0.98275 0.0
C1654 C 0.11601 0.14201 0.94251 0.0
C1655 C 0.15853 0.14211 0.97226 0.0
C1656 C 0.17912 0.14701 0.98933 0.0
C1657 C 0.11821 0.13233 0.9416 0.0
C1658 C 0.14035 0.12747 0.9564 0.0
C1659 C 0.16066 0.13245 0.97136 0.0
C1660 C 0.14259 0.11723 0.95704 0.0
C1661 C 0.09724 0.1274 0.92471 0.0
C1662 C 0.10617 0.11186 0.95888 0.0
C1663 C 0.10897 0.10232 0.96204 0.0
C1664 C 0.14827 0.09802 0.96371 0.0
C1665 C 0.18455 0.10339 0.9611 0.0
C1666 C 0.18172 0.11287 0.9578 0.0
H1667 H 0.09244 0.13206 0.9119 0.0
H1668 H 0.11592 0.12136 0.91984 0.0
H1669 H 0.06608 0.1249 0.92957 0.0
H1670 H 0.07562 0.11508 0.95877 0.0
H1671 H 0.08046 0.0984 0.96415 0.0
H1672 H 0.83087 0.92626 0.70962 0.0
H1673 H 0.82227 0.90966 0.7041 0.0
H1674 H 0.9547 0.90564 0.71251 0.0
H1675 H 0.96372 0.92215 0.7179 0.0
H1676 H 0.91841 0.89492 0.68077 0.0
H1677 H 0.83196 0.89169 0.75168 0.0
H1678 H 0.81163 0.89999 0.73447 0.0
H1679 H 0.86211 0.9018 0.74543 0.0
C1680 C 0.85826 0.92187 0.70999 0.0
C1681 C 0.89791 0.92554 0.71442 0.0
C1682 C 0.85325 0.91238 0.70692 0.0
C1683 C 0.88778 0.90641 0.70819 0.0
C1684 C 0.92764 0.91011 0.71154 0.0
H1685 H 0.93649 0.84759 0.71315 0.0
H1686 H 0.94152 0.86426 0.7077 0.0
C1687 C 0.93266 0.91957 0.71468 0.0
C1688 C 0.88227 0.89625 0.70741 0.0
H1689 H 0.84139 0.87816 0.7332 0.0
C1690 C 0.90137 0.89124 0.69215 0.0
C1691 C 0.86027 0.89147 0.72235 0.0
C1692 C 0.84054 0.89647 0.73953 0.0
C1693 C 0.89871 0.88156 0.69134 0.0
C1694 C 0.87714 0.87677 0.70644 0.0
C1695 C 0.85779 0.88182 0.72158 0.0
C1696 C 0.87454 0.86653 0.70721 0.0
C1697 C 0.91854 0.87657 0.67421 0.0
C1698 C 0.83533 0.86224 0.70873 0.0
C1699 C 0.83241 0.85276 0.7121 0.0
C1700 C 0.86868 0.84734 0.714 0.0
C1701 C 0.90797 0.85156 0.71159 0.0
C1702 C 0.91087 0.86109 0.70839 0.0
H1703 H 0.92247 0.8812 0.66127 0.0
H1704 H 0.95002 0.8741 0.67862 0.0
H1705 H 0.89955 0.87052 0.6697 0.0
H1706 H 0.80686 0.86628 0.70788 0.0
H1707 H 0.80163 0.84973 0.71378 0.0
H1708 H 0.93683 0.92722 0.05097 0.0
H1709 H 0.94564 0.91063 0.05672 0.0
H1710 H 0.81356 0.90645 0.04749 0.0
H1711 H 0.80434 0.92295 0.04189 0.0
H1712 H 0.84915 0.89579 0.07948 0.0
H1713 H 0.93776 0.89263 0.00916 0.0
H1714 H 0.95738 0.90094 0.02649 0.0
H1715 H 0.90723 0.90271 0.01517 0.0
C1716 C 0.90955 0.92279 0.05049 0.0
C1717 C 0.86996 0.92641 0.04575 0.0
C1718 C 0.91468 0.91331 0.05368 0.0
C1719 C 0.88033 0.9073 0.05223 0.0
C1720 C 0.84049 0.91096 0.0486 0.0
H1721 H 0.83187 0.84852 0.04694 0.0
H1722 H 0.82684 0.86518 0.05236 0.0
C1723 C 0.83535 0.9204 0.04534 0.0
C1724 C 0.88604 0.89715 0.05308 0.0
H1725 H 0.92779 0.87909 0.02753 0.0
C1726 C 0.86655 0.89212 0.06822 0.0
C1727 C 0.90852 0.89239 0.03829 0.0
C1728 C 0.92871 0.8974 0.02124 0.0
C1729 C 0.86926 0.88244 0.06903 0.0
C1730 C 0.89127 0.87767 0.05406 0.0
C1731 C 0.91104 0.88274 0.03905 0.0
C1732 C 0.89382 0.86743 0.05326 0.0
C1733 C 0.84899 0.87744 0.08604 0.0
C1734 C 0.93303 0.86312 0.05195 0.0
C1735 C 0.93596 0.85365 0.04858 0.0
C1736 C 0.89969 0.84823 0.04648 0.0
C1737 C 0.86038 0.85247 0.04865 0.0
C1738 C 0.85748 0.862 0.05185 0.0
H1739 H 0.84477 0.88205 0.09897 0.0
H1740 H 0.8176 0.87498 0.08145 0.0
H1741 H 0.86783 0.87138 0.09062 0.0
H1742 H 0.96151 0.86715 0.05297 0.0
H1743 H 0.96675 0.8506 0.04709 0.0
H1744 H 0.18463 0.59681 0.79928 0.0
H1745 H 0.1919 0.61343 0.80506 0.0
H1746 H 0.05821 0.61669 0.80022 0.0
H1747 H 0.0506 0.60017 0.79458 0.0
H1748 H 0.16593 0.62667 0.77719 0.0
H1749 H 0.08651 0.63235 0.84889 0.0
H1750 H 0.10462 0.62113 0.84103 0.0
H1751 H 0.05648 0.62575 0.83152 0.0
C1752 C 0.15671 0.60103 0.79988 0.0
C1753 C 0.11705 0.59715 0.7964 0.0
C1754 C 0.16092 0.61053 0.80314 0.0
C1755 C 0.12555 0.61629 0.80328 0.0
C1756 C 0.08586 0.61237 0.80056 0.0
H1757 H 0.07562 0.67494 0.79528 0.0
H1758 H 0.07112 0.65821 0.80032 0.0
C1759 C 0.08163 0.60292 0.79719 0.0
C1760 C 0.13026 0.62647 0.8041 0.0
H1761 H 0.09992 0.64574 0.82936 0.0
C1762 C 0.15197 0.63083 0.78874 0.0
C1763 C 0.11149 0.63189 0.81902 0.0
C1764 C 0.08875 0.62755 0.83616 0.0
C1765 C 0.15457 0.64048 0.78758 0.0
C1766 C 0.13582 0.64593 0.8025 0.0
C1767 C 0.11433 0.64156 0.81797 0.0
C1768 C 0.1381 0.65616 0.80202 0.0
C1769 C 0.17615 0.64474 0.76999 0.0
C1770 C 0.17708 0.6606 0.80215 0.0
C1771 C 0.17974 0.6701 0.79914 0.0
C1772 C 0.14341 0.67541 0.79622 0.0
C1773 C 0.10417 0.67105 0.79746 0.0
C1774 C 0.10156 0.66149 0.80031 0.0
H1775 H 0.17874 0.63981 0.75752 0.0
H1776 H 0.15916 0.65096 0.76479 0.0
H1777 H 0.2083 0.64684 0.77424 0.0
H1778 H 0.20562 0.65666 0.80395 0.0
H1779 H 0.21045 0.67326 0.79853 0.0
H1780 H 0.05265 0.67214 0.46607 0.0
H1781 H 0.06122 0.65564 0.46038 0.0
H1782 H 0.19382 0.65952 0.45212 0.0
H1783 H 0.18566 0.67611 0.45804 0.0
H1784 H 0.09604 0.64488 0.42904 0.0
H1785 H 0.18474 0.64151 0.49925 0.0
H1786 H 0.15532 0.65173 0.4931 0.0
H1787 H 0.20533 0.64967 0.48183 0.0
C1788 C 0.08366 0.66953 0.46282 0.0
C1789 C 0.11859 0.67545 0.46276 0.0
C1790 C 0.08842 0.66008 0.4595 0.0
C1791 C 0.1282 0.65633 0.45615 0.0
C1792 C 0.16289 0.66227 0.45499 0.0
H1793 H 0.2111 0.59942 0.46145 0.0
H1794 H 0.20666 0.61594 0.45513 0.0
C1795 C 0.15815 0.67175 0.45826 0.0
C1796 C 0.13336 0.64616 0.45532 0.0
H1797 H 0.17408 0.62799 0.48091 0.0
C1798 C 0.11333 0.64117 0.44029 0.0
C1799 C 0.15563 0.64134 0.47011 0.0
C1800 C 0.17625 0.6463 0.4871 0.0
C1801 C 0.11526 0.63148 0.43958 0.0
C1802 C 0.13712 0.62666 0.45452 0.0
C1803 C 0.15746 0.63168 0.46941 0.0
C1804 C 0.13901 0.61642 0.4554 0.0
C1805 C 0.09431 0.62652 0.42273 0.0
C1806 C 0.10238 0.61111 0.45722 0.0
C1807 C 0.10481 0.60159 0.46069 0.0
C1808 C 0.14394 0.59725 0.4627 0.0
C1809 C 0.18044 0.60254 0.46009 0.0
C1810 C 0.17798 0.612 0.45648 0.0
H1811 H 0.08993 0.63112 0.4098 0.0
H1812 H 0.11276 0.62041 0.41807 0.0
H1813 H 0.06296 0.62412 0.42755 0.0
H1814 H 0.07193 0.61438 0.45687 0.0
H1815 H 0.07613 0.59773 0.46279 0.0
H1816 H 0.80136 0.35113 0.21496 0.0
H1817 H 0.81136 0.36756 0.2091 0.0
H1818 H 0.94514 0.36372 0.20932 0.0
H1819 H 0.93542 0.34718 0.2154 0.0
H1820 H 0.91691 0.37729 0.23534 0.0
H1821 H 0.84778 0.38274 0.16134 0.0
H1822 H 0.81424 0.37651 0.17788 0.0
H1823 H 0.86306 0.37149 0.17021 0.0
C1824 C 0.83298 0.35373 0.21343 0.0
C1825 C 0.86763 0.34782 0.21573 0.0
C1826 C 0.8386 0.36313 0.20991 0.0
C1827 C 0.87896 0.36687 0.20853 0.0
C1828 C 0.91368 0.36097 0.21018 0.0
H1829 H 0.96515 0.42379 0.2138 0.0
H1830 H 0.96064 0.40717 0.20866 0.0
C1831 C 0.90809 0.35151 0.21361 0.0
C1832 C 0.8846 0.37703 0.20752 0.0
H1833 H 0.85817 0.39624 0.18107 0.0
C1834 C 0.90461 0.38143 0.22334 0.0
C1835 C 0.86801 0.38242 0.19197 0.0
C1836 C 0.84739 0.37805 0.17429 0.0
C1837 C 0.90745 0.39107 0.22434 0.0
C1838 C 0.89066 0.39648 0.20886 0.0
C1839 C 0.87102 0.39209 0.19291 0.0
C1840 C 0.89301 0.40671 0.20924 0.0
C1841 C 0.92711 0.39539 0.24236 0.0
C1842 C 0.85641 0.41207 0.21017 0.0
C1843 C 0.85884 0.42164 0.2129 0.0
C1844 C 0.89797 0.42599 0.21479 0.0
C1845 C 0.93449 0.42065 0.21267 0.0
C1846 C 0.93201 0.41114 0.20981 0.0
H1847 H 0.92849 0.39048 0.25493 0.0
H1848 H 0.95961 0.39751 0.2388 0.0
H1849 H 0.90948 0.4016 0.24708 0.0
H1850 H 0.82596 0.40879 0.20962 0.0
H1851 H 0.83015 0.42554 0.21445 0.0
H1852 H 0.95794 0.34975 0.55136 0.0
H1853 H 0.95066 0.36626 0.55712 0.0
H1854 H 0.8176 0.36421 0.54753 0.0
H1855 H 0.82455 0.34756 0.54204 0.0
H1856 H 0.92307 0.37814 0.52897 0.0
H1857 H 0.82333 0.38103 0.59564 0.0
H1858 H 0.84944 0.37046 0.58885 0.0
H1859 H 0.80188 0.37381 0.57666 0.0
C1860 C 0.92693 0.35276 0.55084 0.0
C1861 C 0.89181 0.34733 0.54614 0.0
C1862 C 0.92286 0.36221 0.55415 0.0
C1863 C 0.88361 0.36649 0.55286 0.0
C1864 C 0.84813 0.36105 0.54898 0.0
H1865 H 0.79841 0.42239 0.54065 0.0
H1866 H 0.80595 0.40584 0.5458 0.0
C1867 C 0.85214 0.35153 0.54578 0.0
C1868 C 0.88086 0.37672 0.55354 0.0
H1869 H 0.83449 0.39484 0.57723 0.0
C1870 C 0.90403 0.38179 0.53967 0.0
C1871 C 0.85585 0.38148 0.56742 0.0
C1872 C 0.83147 0.37644 0.58311 0.0
C1873 C 0.90218 0.39145 0.53897 0.0
C1874 C 0.87704 0.39622 0.55278 0.0
C1875 C 0.854 0.39117 0.56676 0.0
C1876 C 0.87225 0.40641 0.55201 0.0
C1877 C 0.92601 0.39645 0.52298 0.0
C1878 C 0.90682 0.4123 0.55443 0.0
C1879 C 0.90268 0.42182 0.55143 0.0
C1880 C 0.86384 0.42561 0.546 0.0
C1881 C 0.8289 0.41972 0.54464 0.0
C1882 C 0.83308 0.41024 0.54765 0.0
H1883 H 0.93617 0.39171 0.51103 0.0
H1884 H 0.90664 0.40201 0.51639 0.0
H1885 H 0.95439 0.39965 0.52944 0.0
H1886 H 0.93723 0.4095 0.55815 0.0
H1887 H 0.93016 0.42615 0.55269 0.0
H1888 H 0.55669 0.1007 0.79329 0.0
H1889 H 0.56497 0.11717 0.79941 0.0
H1890 H 0.69741 0.11331 0.8082 0.0
H1891 H 0.68955 0.09675 0.80185 0.0
H1892 H 0.5988 0.12775 0.83118 0.0
H1893 H 0.68943 0.1316 0.7616 0.0
H1894 H 0.66003 0.12132 0.76731 0.0
H1895 H 0.70968 0.12336 0.77892 0.0
C1896 C 0.5876 0.10331 0.79674 0.0
C1897 C 0.62258 0.0974 0.79683 0.0
C1898 C 0.5922 0.11274 0.80031 0.0
C1899 C 0.63185 0.11649 0.80395 0.0
C1900 C 0.66658 0.11057 0.80512 0.0
H1901 H 0.71372 0.17351 0.80048 0.0
H1902 H 0.70955 0.15696 0.80652 0.0
C1903 C 0.66201 0.1011 0.80159 0.0
C1904 C 0.63688 0.12665 0.80509 0.0
H1905 H 0.67803 0.145 0.78024 0.0
C1906 C 0.61634 0.13153 0.82014 0.0
C1907 C 0.6595 0.13157 0.79057 0.0
C1908 C 0.68069 0.12674 0.77357 0.0
C1909 C 0.61809 0.14122 0.82112 0.0
C1910 C 0.64028 0.14614 0.80644 0.0
C1911 C 0.66115 0.14123 0.79154 0.0
C1912 C 0.64193 0.15639 0.8058 0.0
C1913 C 0.59656 0.14607 0.83797 0.0
C1914 C 0.60521 0.16166 0.80385 0.0
C1915 C 0.60748 0.17119 0.80055 0.0
C1916 C 0.64654 0.17559 0.79883 0.0
C1917 C 0.68311 0.17034 0.8016 0.0
C1918 C 0.68081 0.16087 0.80506 0.0
H1919 H 0.59193 0.1414 0.85076 0.0
H1920 H 0.61474 0.15218 0.84288 0.0
H1921 H 0.56528 0.14846 0.83303 0.0
H1922 H 0.57485 0.15835 0.80395 0.0
H1923 H 0.57877 0.17502 0.79831 0.0
H1924 H 0.68781 0.17559 0.46185 0.0
H1925 H 0.69581 0.159 0.45583 0.0
H1926 H 0.5621 0.15551 0.4598 0.0
H1927 H 0.55378 0.17199 0.46567 0.0
H1928 H 0.66982 0.14562 0.48321 0.0
H1929 H 0.59187 0.14005 0.41118 0.0
H1930 H 0.60921 0.15127 0.41931 0.0
H1931 H 0.56109 0.1465 0.42851 0.0
C1932 C 0.66006 0.17133 0.46099 0.0
C1933 C 0.62018 0.17513 0.46431 0.0
C1934 C 0.66468 0.16185 0.45759 0.0
C1935 C 0.62951 0.15603 0.45715 0.0
C1936 C 0.58961 0.15987 0.45968 0.0
H1937 H 0.58082 0.09729 0.46436 0.0
H1938 H 0.57601 0.11404 0.45954 0.0
C1939 C 0.58498 0.16931 0.46319 0.0
C1940 C 0.63455 0.14586 0.4562 0.0
H1941 H 0.60496 0.12661 0.43065 0.0
C1942 C 0.65613 0.14147 0.47158 0.0
C1943 C 0.61612 0.14044 0.44117 0.0
C1944 C 0.59356 0.1448 0.424 0.0
C1945 C 0.65891 0.13183 0.47263 0.0
C1946 C 0.64047 0.12639 0.45761 0.0
C1947 C 0.61912 0.13077 0.44213 0.0
C1948 C 0.64296 0.11616 0.45798 0.0
C1949 C 0.68035 0.12754 0.49023 0.0
C1950 C 0.68203 0.11176 0.45786 0.0
C1951 C 0.68487 0.10225 0.46074 0.0
C1952 C 0.64863 0.09689 0.46352 0.0
C1953 C 0.60931 0.10121 0.46228 0.0
C1954 C 0.60652 0.11078 0.45956 0.0
H1955 H 0.68271 0.13245 0.50276 0.0
H1956 H 0.66338 0.1213 0.49533 0.0
H1957 H 0.71257 0.12548 0.48603 0.0
H1958 H 0.7105 0.11574 0.45617 0.0
H1959 H 0.71564 0.09913 0.46135 0.0
H1960 H 0.32947 0.92561 0.21501 0.0
H1961 H 0.32493 0.90886 0.21036 0.0
H1962 H 0.45947 0.90725 0.20706 0.0
H1963 H 0.46433 0.92387 0.21213 0.0
H1964 H 0.35321 0.89633 0.18177 0.0
H1965 H 0.43268 0.89047 0.25344 0.0
H1966 H 0.41348 0.90164 0.24606 0.0
H1967 H 0.4624 0.8974 0.23657 0.0
C1968 C 0.35803 0.9217 0.213 0.0
C1969 C 0.39728 0.92606 0.21423 0.0
C1970 C 0.3554 0.91213 0.21038 0.0
C1971 C 0.39192 0.90677 0.20886 0.0
C1972 C 0.43094 0.9112 0.20874 0.0
H1973 H 0.43749 0.84738 0.2117 0.0
H1974 H 0.44487 0.864 0.20584 0.0
C1975 C 0.43362 0.92073 0.21154 0.0
C1976 C 0.38951 0.89654 0.2085 0.0
H1977 H 0.41957 0.8773 0.23392 0.0
C1978 C 0.3677 0.89216 0.19316 0.0
C1979 C 0.40834 0.8911 0.22342 0.0
C1980 C 0.4302 0.89538 0.24091 0.0
C1981 C 0.36462 0.88249 0.19224 0.0
C1982 C 0.3835 0.87708 0.20715 0.0
C1983 C 0.40553 0.88146 0.22238 0.0
C1984 C 0.37864 0.86691 0.20808 0.0
C1985 C 0.34148 0.87814 0.17526 0.0
C1986 C 0.33896 0.86303 0.21109 0.0
C1987 C 0.33467 0.85357 0.21452 0.0
C1988 C 0.37002 0.84778 0.21506 0.0
C1989 C 0.40963 0.85163 0.21129 0.0
C1990 C 0.41391 0.86112 0.20798 0.0
H1991 H 0.33892 0.88292 0.16251 0.0
H1992 H 0.35725 0.87171 0.17034 0.0
H1993 H 0.30933 0.87633 0.18009 0.0
H1994 H 0.3114 0.86737 0.2116 0.0
H1995 H 0.30368 0.85086 0.21736 0.0
H1996 H 0.30046 0.92296 0.54586 0.0
H1997 H 0.30493 0.90642 0.55198 0.0
H1998 H 0.43962 0.90824 0.5532 0.0
H1999 H 0.43534 0.92489 0.54753 0.0
H2000 H 0.33993 0.89438 0.52718 0.0
H2001 H 0.41834 0.8915 0.59975 0.0
H2002 H 0.39608 0.90218 0.59095 0.0
H2003 H 0.44679 0.8985 0.58252 0.0
C2004 C 0.33107 0.91989 0.54781 0.0
C2005 C 0.36758 0.92526 0.54615 0.0
C2006 C 0.33355 0.91042 0.55131 0.0
C2007 C 0.37256 0.90606 0.55321 0.0
C2008 C 0.4091 0.91145 0.55224 0.0
H2009 H 0.46169 0.85047 0.54354 0.0
H2010 H 0.45236 0.86699 0.54886 0.0
C2011 C 0.40664 0.92098 0.5489 0.0
C2012 C 0.37482 0.89582 0.55417 0.0
H2013 H 0.41496 0.87772 0.58035 0.0
C2014 C 0.35587 0.89074 0.53896 0.0
C2015 C 0.39577 0.89106 0.56949 0.0
C2016 C 0.41506 0.89608 0.58671 0.0
C2017 C 0.35824 0.88109 0.53834 0.0
C2018 C 0.37971 0.87634 0.55348 0.0
C2019 C 0.39834 0.88138 0.56882 0.0
C2020 C 0.38533 0.86618 0.5528 0.0
C2021 C 0.33901 0.87606 0.52109 0.0
C2022 C 0.35084 0.86019 0.5539 0.0
C2023 C 0.35603 0.8507 0.55087 0.0
C2024 C 0.39584 0.84705 0.54665 0.0
C2025 C 0.43053 0.85304 0.54659 0.0
C2026 C 0.42532 0.86249 0.54969 0.0
H2027 H 0.3307 0.88081 0.50886 0.0
H2028 H 0.36079 0.87073 0.51535 0.0
H2029 H 0.31002 0.87253 0.52601 0.0
H2030 H 0.31975 0.8629 0.55653 0.0
H2031 H 0.32869 0.84629 0.55108 0.0
H2032 H 0.70867 0.67235 0.29332 0.0
H2033 H 0.70043 0.65587 0.2993 0.0
H2034 H 0.56776 0.65964 0.30749 0.0
H2035 H 0.57559 0.67622 0.30129 0.0
H2036 H 0.66596 0.64524 0.3309 0.0
H2037 H 0.57705 0.64137 0.26088 0.0
H2038 H 0.60625 0.65166 0.26674 0.0
H2039 H 0.55631 0.64961 0.27809 0.0
C2040 C 0.67771 0.66972 0.2966 0.0
C2041 C 0.64267 0.67561 0.29657 0.0
C2042 C 0.67313 0.66028 0.30009 0.0
C2043 C 0.63344 0.6565 0.30353 0.0
C2044 C 0.59863 0.66241 0.30457 0.0
H2045 H 0.551 0.59954 0.30021 0.0
H2046 H 0.55546 0.6161 0.30592 0.0
C2047 C 0.60318 0.67189 0.30112 0.0
C2048 C 0.6285 0.64634 0.30463 0.0
H2049 H 0.58787 0.62798 0.27965 0.0
C2050 C 0.64868 0.64145 0.31979 0.0
C2051 C 0.60623 0.64141 0.29001 0.0
C2052 C 0.58546 0.64624 0.27289 0.0
C2053 C 0.64686 0.63177 0.3208 0.0
C2054 C 0.62497 0.62684 0.30604 0.0
C2055 C 0.60452 0.63175 0.29101 0.0
C2056 C 0.6231 0.61659 0.3055 0.0
C2057 C 0.66795 0.62692 0.33777 0.0
C2058 C 0.65973 0.61127 0.30381 0.0
C2059 C 0.65729 0.60172 0.30069 0.0
C2060 C 0.61815 0.59737 0.29891 0.0
C2061 C 0.58166 0.60267 0.30139 0.0
C2062 C 0.58413 0.61216 0.30466 0.0
H2063 H 0.67244 0.63161 0.35054 0.0
H2064 H 0.64954 0.62084 0.34267 0.0
H2065 H 0.69927 0.62449 0.33298 0.0
H2066 H 0.69017 0.61455 0.30399 0.0
H2067 H 0.68595 0.59785 0.29868 0.0
H2068 H 0.6899 0.67637 0.96443 0.0
H2069 H 0.69583 0.65968 0.95947 0.0
H2070 H 0.56149 0.6576 0.95539 0.0
H2071 H 0.5553 0.67416 0.96077 0.0
H2072 H 0.59273 0.64594 0.98233 0.0
H2073 H 0.68313 0.64239 0.91298 0.0
H2074 H 0.70803 0.64965 0.93091 0.0
H2075 H 0.65888 0.65311 0.9203 0.0
C2076 C 0.66172 0.67238 0.96201 0.0
C2077 C 0.62214 0.67659 0.9631 0.0
C2078 C 0.66514 0.66284 0.9591 0.0
C2079 C 0.62909 0.65737 0.9569 0.0
C2080 C 0.58974 0.66165 0.95704 0.0
H2081 H 0.5836 0.59774 0.96016 0.0
H2082 H 0.57614 0.61433 0.95409 0.0
C2083 C 0.58628 0.67114 0.96012 0.0
C2084 C 0.63179 0.64713 0.95657 0.0
H2085 H 0.6758 0.62879 0.93263 0.0
C2086 C 0.6105 0.64219 0.97131 0.0
C2087 C 0.65517 0.64223 0.94226 0.0
C2088 C 0.67729 0.6471 0.9256 0.0
C2089 C 0.61268 0.63254 0.97243 0.0
C2090 C 0.63633 0.62765 0.95824 0.0
C2091 C 0.65747 0.63256 0.94341 0.0
C2092 C 0.64135 0.61749 0.95941 0.0
C2093 C 0.59079 0.62768 0.9892 0.0
C2094 C 0.68074 0.61372 0.9636 0.0
C2095 C 0.68513 0.60427 0.96702 0.0
C2096 C 0.65019 0.59836 0.96623 0.0
C2097 C 0.6111 0.60208 0.96098 0.0
C2098 C 0.60674 0.61157 0.9576 0.0
H2099 H 0.58128 0.63254 1.00105 0.0
H2100 H 0.56218 0.62426 0.98354 0.0
H2101 H 0.61128 0.6223 0.99572 0.0
H2102 H 0.70788 0.61815 0.96499 0.0
H2103 H 0.71578 0.60165 0.97087 0.0
H2104 H 0.46143 0.42268 0.71518 0.0
H2105 H 0.4544 0.40621 0.70882 0.0
H2106 H 0.32063 0.40931 0.70396 0.0
H2107 H 0.32733 0.42588 0.71048 0.0
H2108 H 0.34657 0.39596 0.73136 0.0
H2109 H 0.42728 0.39077 0.65985 0.0
H2110 H 0.45709 0.39729 0.67743 0.0
H2111 H 0.40894 0.40193 0.66796 0.0
C2112 C 0.43051 0.41991 0.71239 0.0
C2113 C 0.39489 0.42561 0.71342 0.0
C2114 C 0.42662 0.41049 0.7086 0.0
C2115 C 0.38707 0.40653 0.7057 0.0
C2116 C 0.3515 0.41224 0.70602 0.0
H2117 H 0.30587 0.34926 0.70953 0.0
H2118 H 0.3095 0.36587 0.70401 0.0
C2119 C 0.35539 0.42171 0.7097 0.0
C2120 C 0.38272 0.39635 0.70461 0.0
H2121 H 0.41477 0.37725 0.6792 0.0
C2122 C 0.36097 0.39187 0.7198 0.0
C2123 C 0.40208 0.39103 0.68968 0.0
C2124 C 0.42487 0.39549 0.67269 0.0
C2125 C 0.35896 0.38222 0.72081 0.0
C2126 C 0.37839 0.37687 0.70591 0.0
C2127 C 0.39985 0.38135 0.69058 0.0
C2128 C 0.37692 0.36663 0.7063 0.0
C2129 C 0.33733 0.37783 0.73825 0.0
C2130 C 0.41384 0.36144 0.70823 0.0
C2131 C 0.41193 0.35188 0.71113 0.0
C2132 C 0.37301 0.34737 0.71222 0.0
C2133 C 0.33633 0.35253 0.70904 0.0
C2134 C 0.33831 0.36204 0.70597 0.0
H2135 H 0.33404 0.38273 0.75075 0.0
H2136 H 0.30548 0.37561 0.73381 0.0
H2137 H 0.35473 0.37167 0.74348 0.0
H2138 H 0.44401 0.36485 0.70838 0.0
H2139 H 0.44072 0.3481 0.71352 0.0
H2140 H 0.30307 0.42432 0.05007 0.0
H2141 H 0.30869 0.40775 0.05553 0.0
H2142 H 0.44313 0.40963 0.05158 0.0
H2143 H 0.43777 0.42632 0.04651 0.0
H2144 H 0.33996 0.39602 0.02863 0.0
H2145 H 0.42933 0.39242 0.09823 0.0
H2146 H 0.40539 0.40315 0.09081 0.0
H2147 H 0.45459 0.39964 0.08033 0.0
C2148 C 0.33395 0.42126 0.05076 0.0
C2149 C 0.37 0.42665 0.04778 0.0
C2150 C 0.33708 0.41177 0.05388 0.0
C2151 C 0.3763 0.40742 0.05408 0.0
C2152 C 0.41254 0.41283 0.0519 0.0
H2153 H 0.46196 0.3516 0.0409 0.0
H2154 H 0.45423 0.36812 0.04663 0.0
C2155 C 0.40944 0.42238 0.04892 0.0
C2156 C 0.37868 0.39718 0.05449 0.0
H2157 H 0.42183 0.37881 0.07866 0.0
C2158 C 0.35746 0.39226 0.03972 0.0
C2159 C 0.40171 0.39227 0.06889 0.0
C2160 C 0.42374 0.39713 0.08558 0.0
C2161 C 0.35941 0.38261 0.03865 0.0
C2162 C 0.38272 0.3777 0.05293 0.0
C2163 C 0.40376 0.38259 0.0678 0.0
C2164 C 0.38754 0.36752 0.05183 0.0
C2165 C 0.33767 0.37776 0.02182 0.0
C2166 C 0.35276 0.36165 0.05347 0.0
C2167 C 0.35701 0.35215 0.05017 0.0
C2168 C 0.39617 0.34838 0.04518 0.0
C2169 C 0.43125 0.35426 0.04455 0.0
C2170 C 0.42697 0.36372 0.04789 0.0
H2171 H 0.32857 0.38263 0.00991 0.0
H2172 H 0.3581 0.37234 0.01542 0.0
H2173 H 0.30883 0.37439 0.0274 0.0
H2174 H 0.32212 0.36444 0.0568 0.0
H2175 H 0.3294 0.34783 0.05085 0.0
H2176 H 0.02264 0.05149 0.32116 0.0
H2177 H 0.97687 0.04795 0.34918 0.0
H2178 H 0.8965 0.07062 0.33297 0.0
H2179 H 0.9406 0.07384 0.30455 0.0
H2180 H 0.9618 0.05728 0.38006 0.0
H2181 H 0.80893 0.05239 0.34436 0.0
H2182 H 0.85678 0.05292 0.33031 0.0
H2183 H 0.82965 0.06335 0.33721 0.0
C2184 C 0.9946 0.05556 0.32332 0.0
C2185 C 0.98507 0.06289 0.3105 0.0
C2186 C 0.9685 0.05356 0.3394 0.0
C2187 C 0.93257 0.0589 0.34313 0.0
C2188 C 0.92298 0.06616 0.33016 0.0
H2189 H 0.82797 0.073 0.45492 0.0
H2190 H 0.87191 0.07013 0.42629 0.0
C2191 C 0.94852 0.06804 0.31391 0.0
C2192 C 0.90719 0.05747 0.3614 0.0
H2193 H 0.80672 0.05724 0.37864 0.0
C2194 C 0.92788 0.0571 0.37967 0.0
C2195 C 0.86289 0.05698 0.36112 0.0
C2196 C 0.83841 0.05632 0.34215 0.0
C2197 C 0.90564 0.05679 0.39756 0.0
C2198 C 0.86133 0.05725 0.3973 0.0
C2199 C 0.84064 0.05708 0.37902 0.0
C2200 C 0.83597 0.05848 0.41564 0.0
C2201 C 0.93013 0.05593 0.41649 0.0
C2202 C 0.80016 0.05307 0.41917 0.0
C2203 C 0.77415 0.05488 0.43539 0.0
C2204 C 0.78365 0.06207 0.44854 0.0
C2205 C 0.82007 0.0673 0.4453 0.0
C2206 C 0.84552 0.06561 0.42893 0.0
H2207 H 0.95966 0.05204 0.41408 0.0
H2208 H 0.93882 0.06291 0.42177 0.0
H2209 H 0.9118 0.05239 0.42816 0.0
H2210 H 0.79183 0.04756 0.40914 0.0
H2211 H 0.7462 0.05076 0.43741 0.0
H2212 H 0.32117 0.19943 0.30606 0.0
H2213 H 0.36506 0.20192 0.3349 0.0
H2214 H 0.28806 0.22503 0.35194 0.0
H2215 H 0.24235 0.22219 0.32354 0.0
H2216 H 0.41284 0.21465 0.34829 0.0
H2217 H 0.28214 0.2107 0.40148 0.0
H2218 H 0.27573 0.20858 0.3755 0.0
H2219 H 0.27525 0.2202 0.38488 0.0
C2220 C 0.31369 0.2051 0.31583 0.0
C2221 C 0.27799 0.21056 0.31258 0.0
C2222 C 0.3389 0.20652 0.33238 0.0
C2223 C 0.32944 0.21352 0.34601 0.0
C2224 C 0.29529 0.21937 0.34211 0.0
H2225 H 0.51852 0.22133 0.44016 0.0
H2226 H 0.47304 0.22455 0.41187 0.0
C2227 C 0.26943 0.21782 0.32572 0.0
C2228 C 0.35483 0.21438 0.36443 0.0
H2229 H 0.34839 0.21407 0.41476 0.0
C2230 C 0.39869 0.21455 0.36283 0.0
C2231 C 0.33655 0.21415 0.38348 0.0
C2232 C 0.28989 0.21331 0.3865 0.0
C2233 C 0.42467 0.21419 0.37955 0.0
C2234 C 0.40639 0.21408 0.39861 0.0
C2235 C 0.36253 0.21422 0.40022 0.0
C2236 C 0.43179 0.21293 0.41695 0.0
C2237 C 0.47133 0.21341 0.37647 0.0
C2238 C 0.42236 0.20572 0.43007 0.0
C2239 C 0.44744 0.20407 0.44658 0.0
C2240 C 0.48298 0.20951 0.45027 0.0
C2241 C 0.49157 0.21696 0.43762 0.0
C2242 C 0.46583 0.21874 0.4213 0.0
H2243 H 0.47909 0.21105 0.36131 0.0
H2244 H 0.48595 0.22027 0.37859 0.0
H2245 H 0.48553 0.20851 0.38712 0.0
H2246 H 0.39627 0.20114 0.42721 0.0
H2247 H 0.43996 0.19825 0.45596 0.0
H2248 H 0.82365 0.19924 0.80596 0.0
H2249 H 0.86711 0.20198 0.83484 0.0
H2250 H 0.78956 0.22516 0.85084 0.0
H2251 H 0.74429 0.22208 0.8224 0.0
H2252 H 0.91451 0.21486 0.84795 0.0
H2253 H 0.78306 0.2112 0.90082 0.0
H2254 H 0.77707 0.20888 0.8749 0.0
H2255 H 0.77629 0.22057 0.88389 0.0
C2256 C 0.81597 0.20498 0.8155 0.0
C2257 C 0.78024 0.21039 0.81196 0.0
C2258 C 0.84092 0.20655 0.83208 0.0
C2259 C 0.83117 0.21364 0.84544 0.0
C2260 C 0.797 0.21944 0.84123 0.0
H2261 H 0.01871 0.22221 0.93999 0.0
H2262 H 0.97362 0.22523 0.91146 0.0
C2263 C 0.7714 0.21774 0.82482 0.0
C2264 C 0.85627 0.21465 0.8639 0.0
H2265 H 0.84905 0.21471 0.91421 0.0
C2266 C 0.90015 0.21485 0.86245 0.0
C2267 C 0.83769 0.21455 0.8829 0.0
C2268 C 0.791 0.2137 0.88579 0.0
C2269 C 0.92587 0.21463 0.87927 0.0
C2270 C 0.9073 0.21464 0.89826 0.0
C2271 C 0.86341 0.21477 0.89972 0.0
C2272 C 0.93241 0.21362 0.91672 0.0
C2273 C 0.97259 0.21385 0.87637 0.0
C2274 C 0.92286 0.20648 0.93001 0.0
C2275 C 0.94771 0.20495 0.94664 0.0
C2276 C 0.98314 0.21043 0.9503 0.0
C2277 C 0.99183 0.21781 0.93748 0.0
C2278 C 0.96633 0.21947 0.92102 0.0
H2279 H 0.98062 0.21141 0.86131 0.0
H2280 H 0.98708 0.22074 0.87835 0.0
H2281 H 0.98668 0.20903 0.88721 0.0
H2282 H 0.89687 0.20187 0.92718 0.0
H2283 H 0.94015 0.19918 0.95616 0.0
H2284 H 0.3262 0.07451 0.95478 0.0
H2285 H 0.36958 0.07177 0.92586 0.0
H2286 H 0.29234 0.04852 0.91007 0.0
H2287 H 0.24713 0.0516 0.93855 0.0
H2288 H 0.41717 0.05892 0.91294 0.0
H2289 H 0.28601 0.06233 0.85989 0.0
H2290 H 0.27981 0.0647 0.88578 0.0
H2291 H 0.27927 0.05299 0.87693 0.0
C2292 C 0.31854 0.06876 0.94527 0.0
C2293 C 0.28294 0.06332 0.9489 0.0
C2294 C 0.34345 0.0672 0.92866 0.0
C2295 C 0.33381 0.06008 0.91537 0.0
C2296 C 0.29971 0.05426 0.91963 0.0
H2297 H 0.52228 0.05137 0.82123 0.0
H2298 H 0.47686 0.04839 0.84969 0.0
C2299 C 0.27414 0.05596 0.93607 0.0
C2300 C 0.35902 0.05903 0.89693 0.0
H2301 H 0.35214 0.05882 0.84661 0.0
C2302 C 0.4029 0.05887 0.89843 0.0
C2303 C 0.34057 0.05906 0.87791 0.0
C2304 C 0.29389 0.05987 0.87496 0.0
C2305 C 0.42873 0.05906 0.88163 0.0
C2306 C 0.41028 0.05897 0.86262 0.0
C2307 C 0.36641 0.05881 0.86112 0.0
C2308 C 0.43553 0.05994 0.84417 0.0
C2309 C 0.47542 0.05988 0.88458 0.0
C2310 C 0.426 0.06703 0.83076 0.0
C2311 C 0.45103 0.06854 0.81417 0.0
C2312 C 0.48663 0.06308 0.81068 0.0
C2313 C 0.49528 0.05574 0.82361 0.0
C2314 C 0.46959 0.0541 0.84003 0.0
H2315 H 0.4833 0.06238 0.8996 0.0
H2316 H 0.49003 0.05299 0.88273 0.0
H2317 H 0.48951 0.06467 0.87367 0.0
H2318 H 0.39989 0.07162 0.83347 0.0
H2319 H 0.4435 0.07427 0.80456 0.0
H2320 H 0.18292 0.95434 0.54681 0.0
H2321 H 0.13675 0.95673 0.57507 0.0
H2322 H 0.23762 0.96973 0.60681 0.0
H2323 H 0.28398 0.96746 0.57848 0.0
H2324 H 0.15112 0.94885 0.6112 0.0
H2325 H 0.13893 0.98683 0.61891 0.0
H2326 H 0.15711 0.98135 0.59658 0.0
H2327 H 0.19165 0.9826 0.61731 0.0
C2328 C 0.19511 0.9579 0.55962 0.0
C2329 C 0.23724 0.96069 0.56036 0.0
C2330 C 0.16864 0.95924 0.5758 0.0
C2331 C 0.18356 0.96346 0.59306 0.0
C2332 C 0.22511 0.96662 0.59355 0.0
H2333 H 0.08556 0.95357 0.7104 0.0
H2334 H 0.13014 0.95581 0.6815 0.0
C2335 C 0.25166 0.96528 0.57734 0.0
C2336 C 0.15699 0.96364 0.61109 0.0
H2337 H 0.11334 0.97782 0.64578 0.0
C2338 C 0.14274 0.95519 0.61869 0.0
C2339 C 0.14582 0.97191 0.62083 0.0
C2340 C 0.15881 0.9812 0.61293 0.0
C2341 C 0.11821 0.95478 0.63584 0.0
C2342 C 0.10804 0.96302 0.64591 0.0
C2343 C 0.12158 0.9715 0.63817 0.0
C2344 C 0.08291 0.96287 0.66436 0.0
C2345 C 0.10296 0.9455 0.64294 0.0
C2346 C 0.04212 0.96646 0.66465 0.0
C2347 C 0.01648 0.96521 0.68123 0.0
C2348 C 0.03129 0.96037 0.69782 0.0
C2349 C 0.07302 0.95728 0.69786 0.0
C2350 C 0.09856 0.95852 0.68132 0.0
H2351 H 0.10534 0.94015 0.63127 0.0
H2352 H 0.12232 0.94325 0.65564 0.0
H2353 H 0.06991 0.94592 0.64794 0.0
H2354 H 0.02949 0.96986 0.65174 0.0
H2355 H 0.98454 0.96769 0.68069 0.0
H2356 H 0.68231 0.81868 0.71354 0.0
H2357 H 0.63601 0.81631 0.68533 0.0
H2358 H 0.73625 0.803 0.65372 0.0
H2359 H 0.78272 0.80524 0.682 0.0
H2360 H 0.65033 0.82403 0.64912 0.0
H2361 H 0.63708 0.78605 0.64188 0.0
H2362 H 0.65565 0.79156 0.6641 0.0
H2363 H 0.68996 0.7902 0.6433 0.0
C2364 C 0.69432 0.81506 0.70077 0.0
C2365 C 0.73631 0.81216 0.70005 0.0
C2366 C 0.66778 0.81373 0.68462 0.0
C2367 C 0.68249 0.80943 0.66741 0.0
C2368 C 0.72389 0.80618 0.66694 0.0
H2369 H 0.58422 0.81923 0.55008 0.0
H2370 H 0.62882 0.81703 0.57897 0.0
C2371 C 0.75051 0.8075 0.68313 0.0
C2372 C 0.65586 0.80924 0.64939 0.0
H2373 H 0.6118 0.79503 0.61489 0.0
C2374 C 0.64178 0.81768 0.64171 0.0
C2375 C 0.64446 0.80095 0.63976 0.0
C2376 C 0.6572 0.79166 0.64775 0.0
C2377 C 0.61722 0.81808 0.62458 0.0
C2378 C 0.60684 0.80982 0.6146 0.0
C2379 C 0.6202 0.80135 0.62243 0.0
C2380 C 0.58169 0.80996 0.59616 0.0
C2381 C 0.60213 0.82736 0.61741 0.0
C2382 C 0.54095 0.80634 0.59587 0.0
C2383 C 0.5153 0.80755 0.5793 0.0
C2384 C 0.53004 0.81239 0.56268 0.0
C2385 C 0.57173 0.81552 0.56262 0.0
C2386 C 0.59727 0.8143 0.57917 0.0
H2387 H 0.60449 0.83272 0.62906 0.0
H2388 H 0.62163 0.82958 0.60473 0.0
H2389 H 0.56912 0.82696 0.61237 0.0
H2390 H 0.52835 0.80294 0.6088 0.0
H2391 H 0.4834 0.80505 0.57985 0.0
H2392 H 0.1824 0.8193 0.21325 0.0
H2393 H 0.13641 0.81694 0.18494 0.0
H2394 H 0.23706 0.80369 0.15349 0.0
H2395 H 0.28324 0.80592 0.18188 0.0
H2396 H 0.15115 0.82468 0.14871 0.0
H2397 H 0.13796 0.78669 0.14155 0.0
H2398 H 0.15621 0.79222 0.16381 0.0
H2399 H 0.19078 0.79086 0.14311 0.0
C2400 C 0.19458 0.8157 0.20049 0.0
C2401 C 0.2366 0.81282 0.19985 0.0
C2402 C 0.16821 0.81437 0.18428 0.0
C2403 C 0.18312 0.81009 0.16709 0.0
C2404 C 0.22456 0.80686 0.16669 0.0
H2405 H 0.08512 0.81976 0.04966 0.0
H2406 H 0.12979 0.81753 0.07851 0.0
C2407 C 0.25101 0.80817 0.18294 0.0
C2408 C 0.15662 0.80988 0.14904 0.0
H2409 H 0.11258 0.79565 0.11458 0.0
C2410 C 0.1426 0.81832 0.14132 0.0
C2411 C 0.14524 0.80159 0.13943 0.0
C2412 C 0.15796 0.79231 0.14746 0.0
C2413 C 0.11808 0.81871 0.12417 0.0
C2414 C 0.10767 0.81045 0.11423 0.0
C2415 C 0.121 0.80198 0.12209 0.0
C2416 C 0.08248 0.81057 0.0958 0.0
C2417 C 0.10305 0.82798 0.11694 0.0
C2418 C 0.04161 0.80702 0.0956 0.0
C2419 C 0.01592 0.80826 0.07905 0.0
C2420 C 0.03075 0.81304 0.06238 0.0
C2421 C 0.07256 0.81609 0.06224 0.0
C2422 C 0.09815 0.81485 0.07877 0.0
H2423 H 0.10558 0.83336 0.12854 0.0
H2424 H 0.12247 0.83017 0.1042 0.0
H2425 H 0.07 0.82759 0.11197 0.0
H2426 H 0.02895 0.80367 0.10857 0.0
H2427 H 0.98391 0.80582 0.07966 0.0
H2428 H 0.68115 0.95466 0.04674 0.0
H2429 H 0.63485 0.95709 0.07493 0.0
H2430 H 0.73496 0.97057 0.10629 0.0
H2431 H 0.78144 0.96826 0.07801 0.0
H2432 H 0.64934 0.94951 0.11128 0.0
H2433 H 0.63551 0.98751 0.11783 0.0
H2434 H 0.65411 0.98193 0.09569 0.0
H2435 H 0.68843 0.98339 0.11644 0.0
C2436 C 0.69314 0.95833 0.05945 0.0
C2437 C 0.7351 0.96125 0.0601 0.0
C2438 C 0.6666 0.9597 0.07559 0.0
C2439 C 0.68126 0.96407 0.09272 0.0
C2440 C 0.72263 0.96734 0.09313 0.0
H2441 H 0.58302 0.95467 0.2102 0.0
H2442 H 0.62769 0.95686 0.18131 0.0
C2443 C 0.74926 0.96598 0.07695 0.0
C2444 C 0.65462 0.96431 0.11074 0.0
H2445 H 0.61021 0.97863 0.14496 0.0
C2446 C 0.64067 0.95589 0.11857 0.0
C2447 C 0.64306 0.97263 0.12021 0.0
C2448 C 0.65569 0.98189 0.11205 0.0
C2449 C 0.61606 0.95554 0.1357 0.0
C2450 C 0.60551 0.96383 0.14552 0.0
C2451 C 0.61875 0.97228 0.13754 0.0
C2452 C 0.58031 0.96374 0.16395 0.0
C2453 C 0.60113 0.94628 0.14305 0.0
C2454 C 0.5394 0.96727 0.16412 0.0
C2455 C 0.51371 0.96606 0.18069 0.0
C2456 C 0.52857 0.96132 0.1974 0.0
C2457 C 0.57043 0.9583 0.19757 0.0
C2458 C 0.59601 0.95951 0.18103 0.0
H2459 H 0.60371 0.94087 0.13153 0.0
H2460 H 0.62057 0.94414 0.15581 0.0
H2461 H 0.56807 0.94667 0.14804 0.0
H2462 H 0.52671 0.97058 0.15111 0.0
H2463 H 0.48167 0.96847 0.18006 0.0
H2464 H 0.03074 0.55529 0.8299 0.0
H2465 H 0.98511 0.55314 0.85855 0.0
H2466 H 0.88409 0.56646 0.82751 0.0
H2467 H 0.92951 0.56873 0.79895 0.0
H2468 H 0.90026 0.57427 0.86361 0.0
H2469 H 0.88553 0.53632 0.87119 0.0
H2470 H 0.93845 0.5404 0.86921 0.0
H2471 H 0.90329 0.54178 0.84874 0.0
C2472 C 0.99853 0.55757 0.82899 0.0
C2473 C 0.98386 0.56221 0.81212 0.0
C2474 C 0.9724 0.5563 0.84539 0.0
C2475 C 0.93104 0.55958 0.84517 0.0
C2476 C 0.91584 0.56385 0.82802 0.0
H2477 H 0.73309 0.55594 0.93328 0.0
H2478 H 0.77775 0.55363 0.90429 0.0
C2479 C 0.94189 0.56512 0.81166 0.0
C2480 C 0.90498 0.55947 0.86337 0.0
H2481 H 0.86089 0.54538 0.89814 0.0
C2482 C 0.89155 0.56795 0.8711 0.0
C2483 C 0.8934 0.55121 0.8731 0.0
C2484 C 0.90554 0.5419 0.86508 0.0
C2485 C 0.86737 0.56842 0.88835 0.0
C2486 C 0.85673 0.56019 0.89839 0.0
C2487 C 0.8695 0.55169 0.89054 0.0
C2488 C 0.83176 0.56041 0.91688 0.0
C2489 C 0.85295 0.57774 0.89557 0.0
C2490 C 0.8478 0.56467 0.93384 0.0
C2491 C 0.82243 0.566 0.95042 0.0
C2492 C 0.78045 0.56307 0.95039 0.0
C2493 C 0.76522 0.5583 0.9338 0.0
C2494 C 0.7907 0.55697 0.91721 0.0
H2495 H 0.85563 0.5831 0.88395 0.0
H2496 H 0.81993 0.57744 0.90065 0.0
H2497 H 0.87263 0.57988 0.90824 0.0
H2498 H 0.87959 0.56726 0.93401 0.0
H2499 H 0.83528 0.56966 0.96295 0.0
H2500 H 0.32194 0.69905 0.80456 0.0
H2501 H 0.36577 0.70181 0.83332 0.0
H2502 H 0.28807 0.72492 0.84961 0.0
H2503 H 0.24247 0.72182 0.8213 0.0
H2504 H 0.41317 0.71476 0.84618 0.0
H2505 H 0.28295 0.71097 0.89966 0.0
H2506 H 0.27649 0.70863 0.87377 0.0
H2507 H 0.27553 0.72032 0.88274 0.0
C2508 C 0.31428 0.70478 0.81415 0.0
C2509 C 0.27844 0.71016 0.81072 0.0
C2510 C 0.33945 0.70635 0.83066 0.0
C2511 C 0.32981 0.71344 0.84405 0.0
C2512 C 0.29546 0.71921 0.83997 0.0
H2513 H 0.51897 0.72251 0.93768 0.0
H2514 H 0.47321 0.72537 0.9093 0.0
C2515 C 0.26966 0.7175 0.82363 0.0
C2516 C 0.35527 0.71449 0.8624 0.0
H2517 H 0.3491 0.71462 0.91274 0.0
C2518 C 0.39911 0.71476 0.86074 0.0
C2519 C 0.3371 0.71439 0.88148 0.0
C2520 C 0.2905 0.71347 0.88459 0.0
C2521 C 0.4252 0.71461 0.87744 0.0
C2522 C 0.40702 0.71463 0.89653 0.0
C2523 C 0.36316 0.71468 0.89818 0.0
C2524 C 0.43256 0.7137 0.91488 0.0
C2525 C 0.47188 0.71391 0.87434 0.0
C2526 C 0.42356 0.70658 0.9283 0.0
C2527 C 0.44879 0.70514 0.94484 0.0
C2528 C 0.48407 0.7107 0.94829 0.0
C2529 C 0.49222 0.71806 0.93534 0.0
C2530 C 0.46633 0.71963 0.91896 0.0
H2531 H 0.47968 0.71144 0.85927 0.0
H2532 H 0.48615 0.72083 0.87617 0.0
H2533 H 0.48637 0.70914 0.88517 0.0
H2534 H 0.39769 0.70192 0.92564 0.0
H2535 H 0.44163 0.69938 0.95445 0.0
H2536 H 0.93931 0.69862 0.45486 0.0
H2537 H 0.8958 0.70133 0.42598 0.0
H2538 H 0.97289 0.72459 0.40998 0.0
H2539 H 0.01821 0.72154 0.43842 0.0
H2540 H 0.84812 0.71417 0.41299 0.0
H2541 H 0.97925 0.71072 0.3599 0.0
H2542 H 0.98547 0.70837 0.38581 0.0
H2543 H 0.986 0.72007 0.37687 0.0
C2544 C 0.94689 0.70437 0.44531 0.0
C2545 C 0.98249 0.70981 0.44887 0.0
C2546 C 0.92191 0.70592 0.42873 0.0
C2547 C 0.93149 0.71303 0.41539 0.0
C2548 C 0.96557 0.71885 0.41959 0.0
H2549 H 0.74304 0.72168 0.32127 0.0
H2550 H 0.78841 0.72467 0.34972 0.0
C2551 C 0.99121 0.71717 0.436 0.0
C2552 C 0.90625 0.71405 0.39696 0.0
H2553 H 0.91312 0.71423 0.34663 0.0
C2554 C 0.86238 0.71421 0.39848 0.0
C2555 C 0.9247 0.71401 0.37793 0.0
C2556 C 0.97138 0.71319 0.37496 0.0
C2557 C 0.83654 0.71401 0.3817 0.0
C2558 C 0.85498 0.71408 0.36267 0.0
C2559 C 0.89886 0.71424 0.36115 0.0
C2560 C 0.82974 0.7131 0.34424 0.0
C2561 C 0.78985 0.7132 0.38466 0.0
C2562 C 0.83927 0.70601 0.33085 0.0
C2563 C 0.81427 0.7045 0.31426 0.0
C2564 C 0.77869 0.70996 0.31075 0.0
C2565 C 0.77003 0.7173 0.32366 0.0
C2566 C 0.79569 0.71894 0.34008 0.0
H2567 H 0.78197 0.7107 0.3997 0.0
H2568 H 0.77526 0.72009 0.38279 0.0
H2569 H 0.77575 0.7084 0.37378 0.0
H2570 H 0.86537 0.70142 0.33356 0.0
H2571 H 0.82181 0.69876 0.30467 0.0
H2572 H 0.44059 0.57377 0.30632 0.0
H2573 H 0.39671 0.57105 0.3351 0.0
H2574 H 0.4739 0.54786 0.35138 0.0
H2575 H 0.51959 0.55092 0.32306 0.0
H2576 H 0.34904 0.5582 0.34804 0.0
H2577 H 0.47952 0.56178 0.4014 0.0
H2578 H 0.486 0.56411 0.3755 0.0
H2579 H 0.48657 0.55242 0.38449 0.0
C2580 C 0.44811 0.56803 0.31591 0.0
C2581 C 0.48385 0.56261 0.31247 0.0
C2582 C 0.42292 0.56648 0.33243 0.0
C2583 C 0.43243 0.55939 0.34583 0.0
C2584 C 0.46663 0.55358 0.34173 0.0
H2585 H 0.24282 0.55086 0.43957 0.0
H2586 H 0.28859 0.5478 0.41127 0.0
C2587 C 0.49248 0.55526 0.32539 0.0
C2588 C 0.40699 0.55837 0.3642 0.0
H2589 H 0.41328 0.55826 0.41454 0.0
C2590 C 0.36314 0.55819 0.36259 0.0
C2591 C 0.42521 0.55844 0.38327 0.0
C2592 C 0.47185 0.55929 0.38634 0.0
C2593 C 0.3371 0.5584 0.37931 0.0
C2594 C 0.35532 0.55836 0.39838 0.0
C2595 C 0.39918 0.55822 0.4 0.0
C2596 C 0.32986 0.55937 0.41675 0.0
C2597 C 0.29044 0.5592 0.37624 0.0
C2598 C 0.33924 0.56649 0.4301 0.0
C2599 C 0.31401 0.56804 0.44661 0.0
C2600 C 0.27836 0.56259 0.45007 0.0
C2601 C 0.26986 0.55522 0.43721 0.0
C2602 C 0.29575 0.55354 0.42088 0.0
H2603 H 0.28272 0.56167 0.36116 0.0
H2604 H 0.27586 0.55231 0.37813 0.0
H2605 H 0.2762 0.56401 0.38705 0.0
H2606 H 0.36538 0.57107 0.42741 0.0
H2607 H 0.32144 0.57379 0.45615 0.0
H2608 H 0.07577 0.45047 0.20638 0.0
H2609 H 0.11992 0.45355 0.17792 0.0
H2610 H 0.03879 0.47595 0.16082 0.0
H2611 H 0.99297 0.47253 0.1889 0.0
H2612 H 0.05458 0.46642 0.13027 0.0
H2613 H 0.20684 0.47189 0.16615 0.0
H2614 H 0.1865 0.46094 0.17364 0.0
H2615 H 0.15886 0.47137 0.1801 0.0
C2616 C 0.06767 0.45618 0.19681 0.0
C2617 C 0.03091 0.46129 0.20001 0.0
C2618 C 0.09325 0.45799 0.18054 0.0
C2619 C 0.08347 0.46513 0.16732 0.0
C2620 C 0.0473 0.47043 0.1708 0.0
H2621 H 0.27053 0.47287 0.07316 0.0
H2622 H 0.22454 0.47621 0.10123 0.0
C2623 C 0.02118 0.4685 0.18692 0.0
C2624 C 0.10898 0.46649 0.14906 0.0
H2625 H 0.20964 0.46677 0.13206 0.0
C2626 C 0.08848 0.46667 0.13073 0.0
C2627 C 0.15326 0.46706 0.14943 0.0
C2628 C 0.1775 0.46792 0.16843 0.0
C2629 C 0.11091 0.46688 0.11289 0.0
C2630 C 0.15524 0.4665 0.11327 0.0
C2631 C 0.17572 0.46686 0.13159 0.0
C2632 C 0.18085 0.46516 0.09504 0.0
C2633 C 0.0866 0.46753 0.09387 0.0
C2634 C 0.1717 0.4579 0.08201 0.0
C2635 C 0.19736 0.45613 0.06575 0.0
C2636 C 0.2336 0.4614 0.06238 0.0
C2637 C 0.24272 0.46871 0.07529 0.0
C2638 C 0.21651 0.4706 0.09139 0.0
H2639 H 0.05691 0.47139 0.09605 0.0
H2640 H 0.10494 0.47101 0.08211 0.0
H2641 H 0.07823 0.46049 0.08883 0.0
H2642 H 0.14546 0.45336 0.08477 0.0
H2643 H 0.18973 0.45034 0.05633 0.0
H2644 H 0.77615 0.30573 0.18308 0.0
H2645 H 0.73209 0.30341 0.1539 0.0
H2646 H 0.63143 0.31812 0.18216 0.0
H2647 H 0.67512 0.32053 0.21127 0.0
H2648 H 0.64763 0.29577 0.14748 0.0
H2649 H 0.6601 0.33326 0.13161 0.0
H2650 H 0.69419 0.32746 0.14883 0.0
H2651 H 0.64178 0.33047 0.15595 0.0
C2652 C 0.74436 0.30832 0.18325 0.0
C2653 C 0.72933 0.3134 0.19945 0.0
C2654 C 0.71923 0.30698 0.16655 0.0
C2655 C 0.67876 0.31073 0.16575 0.0
C2656 C 0.6628 0.31529 0.18237 0.0
H2657 H 0.47977 0.30644 0.07907 0.0
H2658 H 0.52547 0.30408 0.10758 0.0
C2659 C 0.68782 0.31663 0.19903 0.0
C2660 C 0.6544 0.31053 0.1471 0.0
H2661 H 0.61381 0.32465 0.11164 0.0
C2662 C 0.64028 0.30207 0.13958 0.0
C2663 C 0.64543 0.31875 0.13666 0.0
C2664 C 0.66141 0.328 0.14352 0.0
C2665 C 0.61653 0.30164 0.1221 0.0
C2666 C 0.60646 0.30989 0.11202 0.0
C2667 C 0.62136 0.31832 0.11939 0.0
C2668 C 0.58027 0.31008 0.09388 0.0
C2669 C 0.60287 0.29235 0.11445 0.0
C2670 C 0.59583 0.31417 0.0766 0.0
C2671 C 0.56972 0.31558 0.06033 0.0
C2672 C 0.52736 0.31296 0.061 0.0
C2673 C 0.51229 0.30848 0.07799 0.0
C2674 C 0.53846 0.30709 0.09431 0.0
H2675 H 0.62223 0.28669 0.12065 0.0
H2676 H 0.56988 0.29111 0.11881 0.0
H2677 H 0.60473 0.29209 0.09811 0.0
H2678 H 0.62794 0.31655 0.07593 0.0
H2679 H 0.5824 0.31904 0.0475 0.0
H2680 H 0.99971 0.30118 0.571 0.0
H2681 H 0.04517 0.2978 0.59923 0.0
H2682 H 0.11972 0.32178 0.5856 0.0
H2683 H 0.07609 0.32486 0.55695 0.0
H2684 H 0.1687 0.30877 0.59709 0.0
H2685 H 0.03763 0.31067 0.65064 0.0
H2686 H 0.03178 0.30167 0.63275 0.0
H2687 H 0.03111 0.31354 0.62499 0.0
C2688 C 0.02617 0.30565 0.57391 0.0
C2689 C 0.03415 0.31331 0.56177 0.0
C2690 C 0.05188 0.30377 0.59019 0.0
C2691 C 0.08531 0.30968 0.59497 0.0
C2692 C 0.09412 0.31712 0.58237 0.0
H2693 H 0.19497 0.32331 0.70555 0.0
H2694 H 0.15096 0.32054 0.67686 0.0
C2695 C 0.06905 0.31888 0.56593 0.0
C2696 C 0.11074 0.30839 0.61324 0.0
H2697 H 0.10434 0.30747 0.66353 0.0
C2698 C 0.15459 0.30844 0.61162 0.0
C2699 C 0.09244 0.30805 0.63228 0.0
C2700 C 0.04571 0.30856 0.63536 0.0
C2701 C 0.18055 0.30853 0.62836 0.0
C2702 C 0.16227 0.30812 0.64739 0.0
C2703 C 0.11845 0.30771 0.64899 0.0
C2704 C 0.18756 0.30909 0.66579 0.0
C2705 C 0.22713 0.30961 0.62537 0.0
C2706 C 0.22225 0.30339 0.66966 0.0
C2707 C 0.24814 0.3051 0.68596 0.0
C2708 C 0.23911 0.31236 0.69902 0.0
C2709 C 0.20285 0.31765 0.69583 0.0
C2710 C 0.17757 0.31606 0.67937 0.0
H2711 H 0.23468 0.31225 0.61041 0.0
H2712 H 0.24075 0.3144 0.63639 0.0
H2713 H 0.24247 0.30279 0.627 0.0
H2714 H 0.22991 0.29776 0.65985 0.0
H2715 H 0.27566 0.30086 0.68811 0.0
H2716 H 0.49432 0.47192 0.6906 0.0
H2717 H 0.5395 0.47501 0.66212 0.0
H2718 H 0.61599 0.45158 0.67753 0.0
H2719 H 0.57267 0.44883 0.70648 0.0
H2720 H 0.66395 0.46432 0.66451 0.0
H2721 H 0.53185 0.46134 0.61188 0.0
H2722 H 0.52576 0.47065 0.629 0.0
H2723 H 0.52592 0.45893 0.63777 0.0
C2724 C 0.52118 0.46753 0.68805 0.0
C2725 C 0.52977 0.46011 0.70076 0.0
C2726 C 0.54673 0.46923 0.67161 0.0
C2727 C 0.58056 0.46336 0.66721 0.0
C2728 C 0.59006 0.45619 0.68043 0.0
H2729 H 0.68754 0.44937 0.55566 0.0
H2730 H 0.64466 0.45197 0.58482 0.0
C2731 C 0.56519 0.45463 0.69705 0.0
C2732 C 0.60556 0.46439 0.6487 0.0
H2733 H 0.59789 0.46479 0.59842 0.0
C2734 C 0.64946 0.46445 0.65006 0.0
C2735 C 0.58681 0.46446 0.62975 0.0
C2736 C 0.54005 0.46375 0.62694 0.0
C2737 C 0.67502 0.46425 0.63317 0.0
C2738 C 0.65628 0.46444 0.61422 0.0
C2739 C 0.6124 0.46471 0.61287 0.0
C2740 C 0.68117 0.46349 0.59566 0.0
C2741 C 0.72171 0.4633 0.63594 0.0
C2742 C 0.7155 0.46925 0.59151 0.0
C2743 C 0.74078 0.46763 0.57495 0.0
C2744 C 0.73143 0.4604 0.56186 0.0
C2745 C 0.69559 0.45502 0.56537 0.0
C2746 C 0.67098 0.4565 0.58212 0.0
H2747 H 0.72967 0.4607 0.65089 0.0
H2748 H 0.73541 0.45853 0.62489 0.0
H2749 H 0.73662 0.47016 0.6342 0.0
H2750 H 0.72329 0.4749 0.60127 0.0
H2751 H 0.76799 0.47194 0.57256 0.0
loop_
_geom_bond_atom_site_label_1
_geom_bond_atom_site_label_2
_geom_bond_distance
_geom_bond_site_symmetry_2
_ccdc_geom_bond_type
O0 Cd1 2.223 . S
O0 C8 1.315 . S
Cd1 O0 2.223 . S
Cd1 O4 2.296 1_455 S
Cd1 O5 2.439 . S
Cd1 O11 2.240 . S
Cd2 O3 2.240 . S
Cd2 O10 2.223 . S
Cd2 O12 2.297 . S
Cd2 O13 2.439 . S
O3 Cd2 2.240 . S
O3 C8 1.279 . S
O4 Cd1 2.296 1_655 S
O4 C6 1.246 1_655 S
O5 Cd1 2.439 . S
O5 C6 1.208 . S
C6 O4 1.246 1_455 S
C6 O5 1.208 . S
C7 O12 1.247 . S
C7 O13 1.208 . S
C8 O0 1.315 . S
C8 O3 1.279 . S
C9 O10 1.315 . S
C9 O11 1.279 . S
O10 Cd2 2.223 . S
O10 C9 1.315 . S
O11 Cd1 2.240 . S
O11 C9 1.279 . S
O12 Cd2 2.297 . S
O12 C7 1.247 . S
O13 Cd2 2.439 . S
O13 C7 1.208 . S
O14 Cd15 2.223 . S
O14 C22 1.315 . S
Cd15 O14 2.223 . S
Cd15 O18 2.297 . S
Cd15 O19 2.439 . S
Cd15 O25 2.240 . S
Cd16 O17 2.240 . S
Cd16 O24 2.223 . S
Cd16 O26 2.297 . S
Cd16 O27 2.439 . S
O17 Cd16 2.240 . S
O17 C22 1.279 . S
O18 Cd15 2.297 . S
O18 C20 1.247 . S
O19 Cd15 2.439 . S
O19 C20 1.208 . S
C20 O18 1.247 . S
C20 O19 1.208 . S
C21 O26 1.247 . S
C21 O27 1.208 . S
C22 O14 1.315 . S
C22 O17 1.279 . S
C23 O24 1.315 . S
C23 O25 1.279 . S
O24 Cd16 2.223 . S
O24 C23 1.315 . S
O25 Cd15 2.240 . S
O25 C23 1.279 . S
O26 Cd16 2.297 . S
O26 C21 1.247 . S
O27 Cd16 2.439 . S
O27 C21 1.208 . S
O28 Cd29 2.223 . S
O28 C36 1.315 . S
Cd29 O28 2.223 . S
Cd29 O32 2.296 1_455 S
Cd29 O33 2.439 . S
Cd29 O39 2.240 1_556 S
Cd30 O31 2.240 . S
Cd30 O38 2.223 1_556 S
Cd30 O40 2.288 1_556 S
Cd30 O41 2.439 . S
O31 Cd30 2.240 . S
O31 C36 1.279 . S
O32 Cd29 2.296 1_655 S
O32 C34 1.246 1_655 S
O33 Cd29 2.439 . S
O33 C34 1.208 . S
C34 O32 1.246 1_455 S
C34 O33 1.208 . S
C35 O40 1.225 1_556 S
C35 O41 1.208 . S
C36 O28 1.315 . S
C36 O31 1.279 . S
C37 O38 1.315 . S
C37 O39 1.279 . S
O38 Cd30 2.223 1_554 S
O38 C37 1.315 . S
O39 Cd29 2.240 1_554 S
O39 C37 1.279 . S
O40 Cd30 2.288 1_554 S
O40 C35 1.225 1_554 S
O41 Cd30 2.439 . S
O41 C35 1.208 . S
O42 Cd43 2.223 . S
O42 C50 1.315 . S
Cd43 O42 2.223 . S
Cd43 O46 2.297 . S
Cd43 O47 2.439 . S
Cd43 O53 2.240 1_556 S
Cd44 O45 2.240 . S
Cd44 O52 2.223 1_556 S
Cd44 O54 2.288 1_556 S
Cd44 O55 2.439 . S
O45 Cd44 2.240 . S
O45 C50 1.279 . S
O46 Cd43 2.297 . S
O46 C48 1.247 . S
O47 Cd43 2.439 . S
O47 C48 1.208 . S
C48 O46 1.247 . S
C48 O47 1.208 . S
C49 O54 1.225 1_556 S
C49 O55 1.208 . S
C50 O42 1.315 . S
C50 O45 1.279 . S
C51 O52 1.315 . S
C51 O53 1.279 . S
O52 Cd44 2.223 1_554 S
O52 C51 1.315 . S
O53 Cd43 2.240 1_554 S
O53 C51 1.279 . S
O54 Cd44 2.288 1_554 S
O54 C49 1.225 1_554 S
O55 Cd44 2.439 . S
O55 C49 1.208 . S
O56 Cd57 2.223 . S
O56 C64 1.315 . S
Cd57 O56 2.223 . S
Cd57 O60 2.296 1_655 S
Cd57 O61 2.439 . S
Cd57 O67 2.240 . S
Cd58 O59 2.240 . S
Cd58 O66 2.223 . S
Cd58 O68 2.297 . S
Cd58 O69 2.439 . S
O59 Cd58 2.240 . S
O59 C64 1.279 . S
O60 Cd57 2.296 1_455 S
O60 C62 1.246 1_455 S
O61 Cd57 2.439 . S
O61 C62 1.208 . S
C62 O60 1.246 1_655 S
C62 O61 1.208 . S
C63 O68 1.247 . S
C63 O69 1.208 . S
C64 O56 1.315 . S
C64 O59 1.279 . S
C65 O66 1.315 . S
C65 O67 1.279 . S
O66 Cd58 2.223 . S
O66 C65 1.315 . S
O67 Cd57 2.240 . S
O67 C65 1.279 . S
O68 Cd58 2.297 . S
O68 C63 1.247 . S
O69 Cd58 2.439 . S
O69 C63 1.208 . S
O70 Cd71 2.223 . S
O70 C78 1.315 . S
Cd71 O70 2.223 . S
Cd71 O74 2.297 . S
Cd71 O75 2.439 . S
Cd71 O81 2.240 . S
Cd72 O73 2.240 . S
Cd72 O80 2.223 . S
Cd72 O82 2.297 . S
Cd72 O83 2.439 . S
O73 Cd72 2.240 . S
O73 C78 1.279 . S
O74 Cd71 2.297 . S
O74 C76 1.247 . S
O75 Cd71 2.439 . S
O75 C76 1.208 . S
C76 O74 1.247 . S
C76 O75 1.208 . S
C77 O82 1.247 . S
C77 O83 1.208 . S
C78 O70 1.315 . S
C78 O73 1.279 . S
C79 O80 1.315 . S
C79 O81 1.279 . S
O80 Cd72 2.223 . S
O80 C79 1.315 . S
O81 Cd71 2.240 . S
O81 C79 1.279 . S
O82 Cd72 2.297 . S
O82 C77 1.247 . S
O83 Cd72 2.439 . S
O83 C77 1.208 . S
O84 Cd85 2.223 . S
O84 C92 1.315 . S
Cd85 O84 2.223 . S
Cd85 O88 2.296 1_655 S
Cd85 O89 2.439 . S
Cd85 O95 2.240 1_554 S
Cd86 O87 2.240 . S
Cd86 O94 2.223 1_554 S
Cd86 O96 2.288 1_554 S
Cd86 O97 2.439 . S
O87 Cd86 2.240 . S
O87 C92 1.279 . S
O88 Cd85 2.296 1_455 S
O88 C90 1.246 1_455 S
O89 Cd85 2.439 . S
O89 C90 1.208 . S
C90 O88 1.246 1_655 S
C90 O89 1.208 . S
C91 O96 1.225 1_554 S
C91 O97 1.208 . S
C92 O84 1.315 . S
C92 O87 1.279 . S
C93 O94 1.315 . S
C93 O95 1.279 . S
O94 Cd86 2.223 1_556 S
O94 C93 1.315 . S
O95 Cd85 2.240 1_556 S
O95 C93 1.279 . S
O96 Cd86 2.288 1_556 S
O96 C91 1.225 1_556 S
O97 Cd86 2.439 . S
O97 C91 1.208 . S
O98 Cd99 2.223 . S
O98 C106 1.315 . S
Cd99 O98 2.223 . S
Cd99 O102 2.297 . S
Cd99 O103 2.439 . S
Cd99 O109 2.240 1_554 S
Cd100 O101 2.240 . S
Cd100 O108 2.223 1_554 S
Cd100 O110 2.288 1_554 S
Cd100 O111 2.439 . S
O101 Cd100 2.240 . S
O101 C106 1.279 . S
O102 Cd99 2.297 . S
O102 C104 1.247 . S
O103 Cd99 2.439 . S
O103 C104 1.208 . S
C104 O102 1.247 . S
C104 O103 1.208 . S
C105 O110 1.225 1_554 S
C105 O111 1.208 . S
C106 O98 1.315 . S
C106 O101 1.279 . S
C107 O108 1.315 . S
C107 O109 1.279 . S
O108 Cd100 2.223 1_556 S
O108 C107 1.315 . S
O109 Cd99 2.240 1_556 S
O109 C107 1.279 . S
O110 Cd100 2.288 1_556 S
O110 C105 1.225 1_556 S
O111 Cd100 2.439 . S
O111 C105 1.208 . S
O112 Cd113 2.223 . S
O112 C120 1.315 . S
Cd113 O112 2.223 . S
Cd113 O116 2.296 1_455 S
Cd113 O117 2.439 . S
Cd113 O123 2.240 . S
Cd114 O115 2.240 . S
Cd114 O122 2.223 . S
Cd114 O124 2.297 . S
Cd114 O125 2.439 . S
O115 Cd114 2.240 . S
O115 C120 1.279 . S
O116 Cd113 2.296 1_655 S
O116 C118 1.246 1_655 S
O117 Cd113 2.439 . S
O117 C118 1.208 . S
C118 O116 1.246 1_455 S
C118 O117 1.208 . S
C119 O124 1.247 . S
C119 O125 1.208 . S
C120 O112 1.315 . S
C120 O115 1.279 . S
C121 O122 1.315 . S
C121 O123 1.279 . S
O122 Cd114 2.223 . S
O122 C121 1.315 . S
O123 Cd113 2.240 . S
O123 C121 1.279 . S
O124 Cd114 2.297 . S
O124 C119 1.247 . S
O125 Cd114 2.439 . S
O125 C119 1.208 . S
O126 Cd127 2.223 . S
O126 C134 1.315 . S
Cd127 O126 2.223 . S
Cd127 O130 2.297 . S
Cd127 O131 2.439 . S
Cd127 O137 2.240 . S
Cd128 O129 2.240 . S
Cd128 O136 2.223 . S
Cd128 O138 2.297 . S
Cd128 O139 2.439 . S
O129 Cd128 2.240 . S
O129 C134 1.279 . S
O130 Cd127 2.297 . S
O130 C132 1.247 . S
O131 Cd127 2.439 . S
O131 C132 1.208 . S
C132 O130 1.247 . S
C132 O131 1.208 . S
C133 O138 1.247 . S
C133 O139 1.208 . S
C134 O126 1.315 . S
C134 O129 1.279 . S
C135 O136 1.315 . S
C135 O137 1.279 . S
O136 Cd128 2.223 . S
O136 C135 1.315 . S
O137 Cd127 2.240 . S
O137 C135 1.279 . S
O138 Cd128 2.297 . S
O138 C133 1.247 . S
O139 Cd128 2.439 . S
O139 C133 1.208 . S
O140 Cd141 2.223 . S
O140 C148 1.315 . S
Cd141 O140 2.223 . S
Cd141 O144 2.296 1_455 S
Cd141 O145 2.439 . S
Cd141 O151 2.240 . S
Cd142 O143 2.240 . S
Cd142 O150 2.223 . S
Cd142 O152 2.297 . S
Cd142 O153 2.439 . S
O143 Cd142 2.240 . S
O143 C148 1.279 . S
O144 Cd141 2.296 1_655 S
O144 C146 1.246 1_655 S
O145 Cd141 2.439 . S
O145 C146 1.208 . S
C146 O144 1.246 1_455 S
C146 O145 1.208 . S
C147 O152 1.247 . S
C147 O153 1.208 . S
C148 O140 1.315 . S
C148 O143 1.279 . S
C149 O150 1.315 . S
C149 O151 1.279 . S
O150 Cd142 2.223 . S
O150 C149 1.315 . S
O151 Cd141 2.240 . S
O151 C149 1.279 . S
O152 Cd142 2.297 . S
O152 C147 1.247 . S
O153 Cd142 2.439 . S
O153 C147 1.208 . S
O154 Cd155 2.223 . S
O154 C162 1.315 . S
Cd155 O154 2.223 . S
Cd155 O158 2.297 . S
Cd155 O159 2.439 . S
Cd155 O165 2.240 . S
Cd156 O157 2.240 . S
Cd156 O164 2.223 . S
Cd156 O166 2.297 . S
Cd156 O167 2.439 . S
O157 Cd156 2.240 . S
O157 C162 1.279 . S
O158 Cd155 2.297 . S
O158 C160 1.247 . S
O159 Cd155 2.439 . S
O159 C160 1.208 . S
C160 O158 1.247 . S
C160 O159 1.208 . S
C161 O166 1.247 . S
C161 O167 1.208 . S
C162 O154 1.315 . S
C162 O157 1.279 . S
C163 O164 1.315 . S
C163 O165 1.279 . S
O164 Cd156 2.223 . S
O164 C163 1.315 . S
O165 Cd155 2.240 . S
O165 C163 1.279 . S
O166 Cd156 2.297 . S
O166 C161 1.247 . S
O167 Cd156 2.439 . S
O167 C161 1.208 . S
O168 Cd169 2.223 . S
O168 C176 1.315 . S
Cd169 O168 2.223 . S
Cd169 O172 2.296 1_655 S
Cd169 O173 2.439 . S
Cd169 O179 2.240 . S
Cd170 O171 2.240 . S
Cd170 O178 2.223 . S
Cd170 O180 2.297 . S
Cd170 O181 2.439 . S
O171 Cd170 2.240 . S
O171 C176 1.279 . S
O172 Cd169 2.296 1_455 S
O172 C174 1.246 1_455 S
O173 Cd169 2.439 . S
O173 C174 1.208 . S
C174 O172 1.246 1_655 S
C174 O173 1.208 . S
C175 O180 1.247 . S
C175 O181 1.208 . S
C176 O168 1.315 . S
C176 O171 1.279 . S
C177 O178 1.315 . S
C177 O179 1.279 . S
O178 Cd170 2.223 . S
O178 C177 1.315 . S
O179 Cd169 2.240 . S
O179 C177 1.279 . S
O180 Cd170 2.297 . S
O180 C175 1.247 . S
O181 Cd170 2.439 . S
O181 C175 1.208 . S
O182 Cd183 2.223 . S
O182 C190 1.315 . S
Cd183 O182 2.223 . S
Cd183 O186 2.297 . S
Cd183 O187 2.439 . S
Cd183 O193 2.240 . S
Cd184 O185 2.240 . S
Cd184 O192 2.223 . S
Cd184 O194 2.297 . S
Cd184 O195 2.439 . S
O185 Cd184 2.240 . S
O185 C190 1.279 . S
O186 Cd183 2.297 . S
O186 C188 1.247 . S
O187 Cd183 2.439 . S
O187 C188 1.208 . S
C188 O186 1.247 . S
C188 O187 1.208 . S
C189 O194 1.247 . S
C189 O195 1.208 . S
C190 O182 1.315 . S
C190 O185 1.279 . S
C191 O192 1.315 . S
C191 O193 1.279 . S
O192 Cd184 2.223 . S
O192 C191 1.315 . S
O193 Cd183 2.240 . S
O193 C191 1.279 . S
O194 Cd184 2.297 . S
O194 C189 1.247 . S
O195 Cd184 2.439 . S
O195 C189 1.208 . S
O196 Cd197 2.223 . S
O196 C204 1.315 . S
Cd197 O196 2.223 . S
Cd197 O200 2.296 1_655 S
Cd197 O201 2.439 . S
Cd197 O207 2.240 . S
Cd198 O199 2.240 . S
Cd198 O206 2.223 . S
Cd198 O208 2.297 . S
Cd198 O209 2.439 . S
O199 Cd198 2.240 . S
O199 C204 1.279 . S
O200 Cd197 2.296 1_455 S
O200 C202 1.246 1_455 S
O201 Cd197 2.439 . S
O201 C202 1.208 . S
C202 O200 1.246 1_655 S
C202 O201 1.208 . S
C203 O208 1.247 . S
C203 O209 1.208 . S
C204 O196 1.315 . S
C204 O199 1.279 . S
C205 O206 1.315 . S
C205 O207 1.279 . S
O206 Cd198 2.223 . S
O206 C205 1.315 . S
O207 Cd197 2.240 . S
O207 C205 1.279 . S
O208 Cd198 2.297 . S
O208 C203 1.247 . S
O209 Cd198 2.439 . S
O209 C203 1.208 . S
O210 Cd211 2.223 . S
O210 C218 1.315 . S
Cd211 O210 2.223 . S
Cd211 O214 2.297 . S
Cd211 O215 2.439 . S
Cd211 O221 2.240 . S
Cd212 O213 2.240 . S
Cd212 O220 2.223 . S
Cd212 O222 2.297 . S
Cd212 O223 2.439 . S
O213 Cd212 2.240 . S
O213 C218 1.279 . S
O214 Cd211 2.297 . S
O214 C216 1.247 . S
O215 Cd211 2.439 . S
O215 C216 1.208 . S
C216 O214 1.247 . S
C216 O215 1.208 . S
C217 O222 1.247 . S
C217 O223 1.208 . S
C218 O210 1.315 . S
C218 O213 1.279 . S
C219 O220 1.315 . S
C219 O221 1.279 . S
O220 Cd212 2.223 . S
O220 C219 1.315 . S
O221 Cd211 2.240 . S
O221 C219 1.279 . S
O222 Cd212 2.297 . S
O222 C217 1.247 . S
O223 Cd212 2.439 . S
O223 C217 1.208 . S
O224 Cd225 2.223 . S
O224 C232 1.315 . S
Cd225 O224 2.223 . S
Cd225 O228 2.297 . S
Cd225 O229 2.439 . S
Cd225 O235 2.240 . S
Cd226 O227 2.240 . S
Cd226 O234 2.223 . S
Cd226 O236 2.297 . S
Cd226 O237 2.439 . S
O227 Cd226 2.240 . S
O227 C232 1.279 . S
O228 Cd225 2.297 . S
O228 C230 1.247 . S
O229 Cd225 2.439 . S
O229 C230 1.208 . S
C230 O228 1.247 . S
C230 O229 1.208 . S
C231 O236 1.247 . S
C231 O237 1.208 . S
C232 O224 1.315 . S
C232 O227 1.279 . S
C233 O234 1.315 . S
C233 O235 1.279 . S
O234 Cd226 2.223 . S
O234 C233 1.315 . S
O235 Cd225 2.240 . S
O235 C233 1.279 . S
O236 Cd226 2.297 . S
O236 C231 1.247 . S
O237 Cd226 2.439 . S
O237 C231 1.208 . S
O238 Cd239 2.223 . S
O238 C246 1.315 . S
Cd239 O238 2.223 . S
Cd239 O242 2.297 . S
Cd239 O243 2.439 . S
Cd239 O249 2.240 . S
Cd240 O241 2.240 . S
Cd240 O248 2.223 . S
Cd240 O250 2.297 . S
Cd240 O251 2.439 . S
O241 Cd240 2.240 . S
O241 C246 1.279 . S
O242 Cd239 2.297 . S
O242 C244 1.247 . S
O243 Cd239 2.439 . S
O243 C244 1.208 . S
C244 O242 1.247 . S
C244 O243 1.208 . S
C245 O250 1.247 . S
C245 O251 1.208 . S
C246 O238 1.315 . S
C246 O241 1.279 . S
C247 O248 1.315 . S
C247 O249 1.279 . S
O248 Cd240 2.223 . S
O248 C247 1.315 . S
O249 Cd239 2.240 . S
O249 C247 1.279 . S
O250 Cd240 2.297 . S
O250 C245 1.247 . S
O251 Cd240 2.439 . S
O251 C245 1.208 . S
O252 Cd253 2.223 . S
O252 C260 1.315 . S
Cd253 O252 2.223 . S
Cd253 O256 2.297 . S
Cd253 O257 2.439 . S
Cd253 O263 2.240 . S
Cd254 O255 2.240 . S
Cd254 O262 2.223 . S
Cd254 O264 2.297 . S
Cd254 O265 2.439 . S
O255 Cd254 2.240 . S
O255 C260 1.279 . S
O256 Cd253 2.297 . S
O256 C258 1.247 . S
O257 Cd253 2.439 . S
O257 C258 1.208 . S
C258 O256 1.247 . S
C258 O257 1.208 . S
C259 O264 1.247 . S
C259 O265 1.208 . S
C260 O252 1.315 . S
C260 O255 1.279 . S
C261 O262 1.315 . S
C261 O263 1.279 . S
O262 Cd254 2.223 . S
O262 C261 1.315 . S
O263 Cd253 2.240 . S
O263 C261 1.279 . S
O264 Cd254 2.297 . S
O264 C259 1.247 . S
O265 Cd254 2.439 . S
O265 C259 1.208 . S
O266 Cd267 2.223 . S
O266 C274 1.315 . S
Cd267 O266 2.223 . S
Cd267 O270 2.297 . S
Cd267 O271 2.439 . S
Cd267 O277 2.240 . S
Cd268 O269 2.240 . S
Cd268 O276 2.223 . S
Cd268 O278 2.297 . S
Cd268 O279 2.439 . S
O269 Cd268 2.240 . S
O269 C274 1.279 . S
O270 Cd267 2.297 . S
O270 C272 1.247 . S
O271 Cd267 2.439 . S
O271 C272 1.208 . S
C272 O270 1.247 . S
C272 O271 1.208 . S
C273 O278 1.247 . S
C273 O279 1.208 . S
C274 O266 1.315 . S
C274 O269 1.279 . S
C275 O276 1.315 . S
C275 O277 1.279 . S
O276 Cd268 2.223 . S
O276 C275 1.315 . S
O277 Cd267 2.240 . S
O277 C275 1.279 . S
O278 Cd268 2.297 . S
O278 C273 1.247 . S
O279 Cd268 2.439 . S
O279 C273 1.208 . S
O280 Cd281 2.223 . S
O280 C288 1.315 . S
Cd281 O280 2.223 . S
Cd281 O284 2.297 . S
Cd281 O285 2.439 . S
Cd281 O291 2.240 . S
Cd282 O283 2.240 . S
Cd282 O290 2.223 . S
Cd282 O292 2.297 . S
Cd282 O293 2.439 . S
O283 Cd282 2.240 . S
O283 C288 1.279 . S
O284 Cd281 2.297 . S
O284 C286 1.247 . S
O285 Cd281 2.439 . S
O285 C286 1.208 . S
C286 O284 1.247 . S
C286 O285 1.208 . S
C287 O292 1.247 . S
C287 O293 1.208 . S
C288 O280 1.315 . S
C288 O283 1.279 . S
C289 O290 1.315 . S
C289 O291 1.279 . S
O290 Cd282 2.223 . S
O290 C289 1.315 . S
O291 Cd281 2.240 . S
O291 C289 1.279 . S
O292 Cd282 2.297 . S
O292 C287 1.247 . S
O293 Cd282 2.439 . S
O293 C287 1.208 . S
O294 Cd295 2.223 . S
O294 C302 1.315 . S
Cd295 O294 2.223 . S
Cd295 O298 2.297 . S
Cd295 O299 2.439 . S
Cd295 O305 2.240 . S
Cd296 O297 2.240 . S
Cd296 O304 2.223 . S
Cd296 O306 2.297 . S
Cd296 O307 2.439 . S
O297 Cd296 2.240 . S
O297 C302 1.279 . S
O298 Cd295 2.297 . S
O298 C300 1.247 . S
O299 Cd295 2.439 . S
O299 C300 1.208 . S
C300 O298 1.247 . S
C300 O299 1.208 . S
C301 O306 1.247 . S
C301 O307 1.208 . S
C302 O294 1.315 . S
C302 O297 1.279 . S
C303 O304 1.315 . S
C303 O305 1.279 . S
O304 Cd296 2.223 . S
O304 C303 1.315 . S
O305 Cd295 2.240 . S
O305 C303 1.279 . S
O306 Cd296 2.297 . S
O306 C301 1.247 . S
O307 Cd296 2.439 . S
O307 C301 1.208 . S
O308 Cd309 2.223 . S
O308 C316 1.315 . S
Cd309 O308 2.223 . S
Cd309 O312 2.297 . S
Cd309 O313 2.439 . S
Cd309 O319 2.240 . S
Cd310 O311 2.240 . S
Cd310 O318 2.223 . S
Cd310 O320 2.297 . S
Cd310 O321 2.439 . S
O311 Cd310 2.240 . S
O311 C316 1.279 . S
O312 Cd309 2.297 . S
O312 C314 1.247 . S
O313 Cd309 2.439 . S
O313 C314 1.208 . S
C314 O312 1.247 . S
C314 O313 1.208 . S
C315 O320 1.247 . S
C315 O321 1.208 . S
C316 O308 1.315 . S
C316 O311 1.279 . S
C317 O318 1.315 . S
C317 O319 1.279 . S
O318 Cd310 2.223 . S
O318 C317 1.315 . S
O319 Cd309 2.240 . S
O319 C317 1.279 . S
O320 Cd310 2.297 . S
O320 C315 1.247 . S
O321 Cd310 2.439 . S
O321 C315 1.208 . S
O322 Cd323 2.223 . S
O322 C330 1.315 . S
Cd323 O322 2.223 . S
Cd323 O326 2.297 . S
Cd323 O327 2.439 . S
Cd323 O333 2.240 . S
Cd324 O325 2.240 . S
Cd324 O332 2.223 . S
Cd324 O334 2.297 . S
Cd324 O335 2.439 . S
O325 Cd324 2.240 . S
O325 C330 1.279 . S
O326 Cd323 2.297 . S
O326 C328 1.247 . S
O327 Cd323 2.439 . S
O327 C328 1.208 . S
C328 O326 1.247 . S
C328 O327 1.208 . S
C329 O334 1.247 . S
C329 O335 1.208 . S
C330 O322 1.315 . S
C330 O325 1.279 . S
C331 O332 1.315 . S
C331 O333 1.279 . S
O332 Cd324 2.223 . S
O332 C331 1.315 . S
O333 Cd323 2.240 . S
O333 C331 1.279 . S
O334 Cd324 2.297 . S
O334 C329 1.247 . S
O335 Cd324 2.439 . S
O335 C329 1.208 . S
O336 Cd337 2.223 . S
O336 C344 1.315 . S
Cd337 O336 2.223 . S
Cd337 O340 2.297 . S
Cd337 O341 2.439 . S
Cd337 O347 2.240 . S
Cd338 O339 2.240 . S
Cd338 O346 2.223 . S
Cd338 O348 2.297 . S
Cd338 O349 2.439 . S
O339 Cd338 2.240 . S
O339 C344 1.279 . S
O340 Cd337 2.297 . S
O340 C342 1.247 . S
O341 Cd337 2.439 . S
O341 C342 1.208 . S
C342 O340 1.247 . S
C342 O341 1.208 . S
C343 O348 1.247 . S
C343 O349 1.208 . S
C344 O336 1.315 . S
C344 O339 1.279 . S
C345 O346 1.315 . S
C345 O347 1.279 . S
O346 Cd338 2.223 . S
O346 C345 1.315 . S
O347 Cd337 2.240 . S
O347 C345 1.279 . S
O348 Cd338 2.297 . S
O348 C343 1.247 . S
O349 Cd338 2.439 . S
O349 C343 1.208 . S
O350 Cd351 2.223 . S
O350 C358 1.315 . S
Cd351 O350 2.223 . S
Cd351 O354 2.297 . S
Cd351 O355 2.439 . S
Cd351 O361 2.240 . S
Cd352 O353 2.240 . S
Cd352 O360 2.223 . S
Cd352 O362 2.297 . S
Cd352 O363 2.439 . S
O353 Cd352 2.240 . S
O353 C358 1.279 . S
O354 Cd351 2.297 . S
O354 C356 1.247 . S
O355 Cd351 2.439 . S
O355 C356 1.208 . S
C356 O354 1.247 . S
C356 O355 1.208 . S
C357 O362 1.247 . S
C357 O363 1.208 . S
C358 O350 1.315 . S
C358 O353 1.279 . S
C359 O360 1.315 . S
C359 O361 1.279 . S
O360 Cd352 2.223 . S
O360 C359 1.315 . S
O361 Cd351 2.240 . S
O361 C359 1.279 . S
O362 Cd352 2.297 . S
O362 C357 1.247 . S
O363 Cd352 2.439 . S
O363 C357 1.208 . S
O364 Cd365 2.223 . S
O364 C372 1.315 . S
Cd365 O364 2.223 . S
Cd365 O368 2.297 . S
Cd365 O369 2.439 . S
Cd365 O375 2.240 1_556 S
Cd366 O367 2.240 . S
Cd366 O374 2.223 1_556 S
Cd366 O376 2.288 1_556 S
Cd366 O377 2.439 . S
O367 Cd366 2.240 . S
O367 C372 1.279 . S
O368 Cd365 2.297 . S
O368 C370 1.247 . S
O369 Cd365 2.439 . S
O369 C370 1.208 . S
C370 O368 1.247 . S
C370 O369 1.208 . S
C371 O376 1.225 1_556 S
C371 O377 1.208 . S
C372 O364 1.315 . S
C372 O367 1.279 . S
C373 O374 1.315 . S
C373 O375 1.279 . S
O374 Cd366 2.223 1_554 S
O374 C373 1.315 . S
O375 Cd365 2.240 1_554 S
O375 C373 1.279 . S
O376 Cd366 2.288 1_554 S
O376 C371 1.225 1_554 S
O377 Cd366 2.439 . S
O377 C371 1.208 . S
O378 Cd379 2.223 . S
O378 C386 1.315 . S
Cd379 O378 2.223 . S
Cd379 O382 2.297 . S
Cd379 O383 2.439 . S
Cd379 O389 2.240 1_556 S
Cd380 O381 2.240 . S
Cd380 O388 2.223 1_556 S
Cd380 O390 2.288 1_556 S
Cd380 O391 2.439 . S
O381 Cd380 2.240 . S
O381 C386 1.279 . S
O382 Cd379 2.297 . S
O382 C384 1.247 . S
O383 Cd379 2.439 . S
O383 C384 1.208 . S
C384 O382 1.247 . S
C384 O383 1.208 . S
C385 O390 1.225 1_556 S
C385 O391 1.208 . S
C386 O378 1.315 . S
C386 O381 1.279 . S
C387 O388 1.315 . S
C387 O389 1.279 . S
O388 Cd380 2.223 1_554 S
O388 C387 1.315 . S
O389 Cd379 2.240 1_554 S
O389 C387 1.279 . S
O390 Cd380 2.288 1_554 S
O390 C385 1.225 1_554 S
O391 Cd380 2.439 . S
O391 C385 1.208 . S
O392 Cd393 2.223 . S
O392 C400 1.315 . S
Cd393 O392 2.223 . S
Cd393 O396 2.297 . S
Cd393 O397 2.439 . S
Cd393 O403 2.240 . S
Cd394 O395 2.240 . S
Cd394 O402 2.223 . S
Cd394 O404 2.297 . S
Cd394 O405 2.439 . S
O395 Cd394 2.240 . S
O395 C400 1.279 . S
O396 Cd393 2.297 . S
O396 C398 1.247 . S
O397 Cd393 2.439 . S
O397 C398 1.208 . S
C398 O396 1.247 . S
C398 O397 1.208 . S
C399 O404 1.247 . S
C399 O405 1.208 . S
C400 O392 1.315 . S
C400 O395 1.279 . S
C401 O402 1.315 . S
C401 O403 1.279 . S
O402 Cd394 2.223 . S
O402 C401 1.315 . S
O403 Cd393 2.240 . S
O403 C401 1.279 . S
O404 Cd394 2.297 . S
O404 C399 1.247 . S
O405 Cd394 2.439 . S
O405 C399 1.208 . S
O406 Cd407 2.223 . S
O406 C414 1.315 . S
Cd407 O406 2.223 . S
Cd407 O410 2.297 . S
Cd407 O411 2.439 . S
Cd407 O417 2.240 . S
Cd408 O409 2.240 . S
Cd408 O416 2.223 . S
Cd408 O418 2.297 . S
Cd408 O419 2.439 . S
O409 Cd408 2.240 . S
O409 C414 1.279 . S
O410 Cd407 2.297 . S
O410 C412 1.247 . S
O411 Cd407 2.439 . S
O411 C412 1.208 . S
C412 O410 1.247 . S
C412 O411 1.208 . S
C413 O418 1.247 . S
C413 O419 1.208 . S
C414 O406 1.315 . S
C414 O409 1.279 . S
C415 O416 1.315 . S
C415 O417 1.279 . S
O416 Cd408 2.223 . S
O416 C415 1.315 . S
O417 Cd407 2.240 . S
O417 C415 1.279 . S
O418 Cd408 2.297 . S
O418 C413 1.247 . S
O419 Cd408 2.439 . S
O419 C413 1.208 . S
O420 Cd421 2.223 . S
O420 C428 1.315 . S
Cd421 O420 2.223 . S
Cd421 O424 2.297 . S
Cd421 O425 2.439 . S
Cd421 O431 2.240 1_554 S
Cd422 O423 2.240 . S
Cd422 O430 2.223 1_554 S
Cd422 O432 2.288 1_554 S
Cd422 O433 2.439 . S
O423 Cd422 2.240 . S
O423 C428 1.279 . S
O424 Cd421 2.297 . S
O424 C426 1.247 . S
O425 Cd421 2.439 . S
O425 C426 1.208 . S
C426 O424 1.247 . S
C426 O425 1.208 . S
C427 O432 1.225 1_554 S
C427 O433 1.208 . S
C428 O420 1.315 . S
C428 O423 1.279 . S
C429 O430 1.315 . S
C429 O431 1.279 . S
O430 Cd422 2.223 1_556 S
O430 C429 1.315 . S
O431 Cd421 2.240 1_556 S
O431 C429 1.279 . S
O432 Cd422 2.288 1_556 S
O432 C427 1.225 1_556 S
O433 Cd422 2.439 . S
O433 C427 1.208 . S
O434 Cd435 2.223 . S
O434 C442 1.315 . S
Cd435 O434 2.223 . S
Cd435 O438 2.297 . S
Cd435 O439 2.439 . S
Cd435 O445 2.240 1_554 S
Cd436 O437 2.240 . S
Cd436 O444 2.223 1_554 S
Cd436 O446 2.288 1_554 S
Cd436 O447 2.439 . S
O437 Cd436 2.240 . S
O437 C442 1.279 . S
O438 Cd435 2.297 . S
O438 C440 1.247 . S
O439 Cd435 2.439 . S
O439 C440 1.208 . S
C440 O438 1.247 . S
C440 O439 1.208 . S
C441 O446 1.225 1_554 S
C441 O447 1.208 . S
C442 O434 1.315 . S
C442 O437 1.279 . S
C443 O444 1.315 . S
C443 O445 1.279 . S
O444 Cd436 2.223 1_556 S
O444 C443 1.315 . S
O445 Cd435 2.240 1_556 S
O445 C443 1.279 . S
O446 Cd436 2.288 1_556 S
O446 C441 1.225 1_556 S
O447 Cd436 2.439 . S
O447 C441 1.208 . S
H448 C456 0.929 . S
H449 C458 0.930 . S
H450 C460 0.930 . S
H451 C463 0.929 . S
H452 C466 0.930 . S
H453 C468 0.960 . S
H454 C468 0.960 . S
H455 C468 0.960 . S
C456 H448 0.929 . S
C456 C457 1.377 . S
C456 C458 1.384 . S
C457 C456 1.377 . S
C457 C463 1.390 . S
C458 H449 0.930 . S
C458 C456 1.384 . S
C458 C459 1.372 . S
C459 C458 1.372 . S
C459 C460 1.400 . S
C459 C464 1.490 . S
C460 H450 0.930 . S
C460 C459 1.400 . S
C460 C463 1.386 . S
H461 C477 0.930 . S
H462 C478 0.931 . S
C463 H451 0.929 . S
C463 C457 1.390 . S
C463 C460 1.386 . S
C464 C459 1.490 . S
C464 C466 1.395 . S
C464 C467 1.403 . S
H465 C471 0.930 . S
C466 H452 0.930 . S
C466 C464 1.395 . S
C466 C469 1.403 . S
C467 C464 1.403 . S
C467 C468 1.524 . S
C467 C471 1.400 . S
C468 H453 0.960 . S
C468 H454 0.960 . S
C468 H455 0.960 . S
C468 C467 1.524 . S
C469 C466 1.403 . S
C469 C470 1.392 . S
C469 C473 1.495 . S
C470 C469 1.392 . S
C470 C471 1.385 . S
C470 C472 1.478 . S
C471 H465 0.930 . S
C471 C467 1.400 . S
C471 C470 1.385 . S
C472 C470 1.478 . S
C472 C474 1.381 . S
C472 C478 1.383 . S
C473 C469 1.495 . S
C473 H479 0.959 . S
C473 H480 0.961 . S
C473 H481 0.960 . S
C474 C472 1.381 . S
C474 C475 1.394 . S
C474 H482 0.930 . S
C475 C474 1.394 . S
C475 C476 1.383 . S
C475 H483 0.929 . S
C476 C475 1.383 . S
C476 C477 1.377 . S
C477 H461 0.930 . S
C477 C476 1.377 . S
C477 C478 1.379 . S
C478 H462 0.931 . S
C478 C472 1.383 . S
C478 C477 1.379 . S
H479 C473 0.959 . S
H480 C473 0.961 . S
H481 C473 0.960 . S
H482 C474 0.930 . S
H483 C475 0.929 . S
H484 C492 0.929 . S
H485 C494 0.930 . S
H486 C496 0.930 . S
H487 C499 0.929 . S
H488 C502 0.930 . S
H489 C504 0.960 . S
H490 C504 0.960 . S
H491 C504 0.960 . S
C492 H484 0.929 . S
C492 C493 1.377 . S
C492 C494 1.384 . S
C493 C492 1.377 . S
C493 C499 1.390 . S
C494 H485 0.930 . S
C494 C492 1.384 . S
C494 C495 1.372 . S
C495 C494 1.372 . S
C495 C496 1.400 . S
C495 C500 1.490 . S
C496 H486 0.930 . S
C496 C495 1.400 . S
C496 C499 1.386 . S
H497 C513 0.930 . S
H498 C514 0.931 . S
C499 H487 0.929 . S
C499 C493 1.390 . S
C499 C496 1.386 . S
C500 C495 1.490 . S
C500 C502 1.395 . S
C500 C503 1.403 . S
H501 C507 0.930 . S
C502 H488 0.930 . S
C502 C500 1.395 . S
C502 C505 1.403 . S
C503 C500 1.403 . S
C503 C504 1.524 . S
C503 C507 1.400 . S
C504 H489 0.960 . S
C504 H490 0.960 . S
C504 H491 0.960 . S
C504 C503 1.524 . S
C505 C502 1.403 . S
C505 C506 1.392 . S
C505 C509 1.495 . S
C506 C505 1.392 . S
C506 C507 1.385 . S
C506 C508 1.478 . S
C507 H501 0.930 . S
C507 C503 1.400 . S
C507 C506 1.385 . S
C508 C506 1.478 . S
C508 C510 1.381 . S
C508 C514 1.383 . S
C509 C505 1.495 . S
C509 H515 0.959 . S
C509 H516 0.961 . S
C509 H517 0.960 . S
C510 C508 1.381 . S
C510 C511 1.394 . S
C510 H518 0.930 . S
C511 C510 1.394 . S
C511 C512 1.383 . S
C511 H519 0.929 . S
C512 C511 1.383 . S
C512 C513 1.377 . S
C513 H497 0.930 . S
C513 C512 1.377 . S
C513 C514 1.379 . S
C514 H498 0.931 . S
C514 C508 1.383 . S
C514 C513 1.379 . S
H515 C509 0.959 . S
H516 C509 0.961 . S
H517 C509 0.960 . S
H518 C510 0.930 . S
H519 C511 0.929 . S
H520 C528 0.929 . S
H521 C530 0.930 . S
H522 C532 0.930 . S
H523 C535 0.929 . S
H524 C538 0.930 . S
H525 C540 0.960 . S
H526 C540 0.960 . S
H527 C540 0.960 . S
C528 H520 0.929 . S
C528 C529 1.377 . S
C528 C530 1.384 . S
C529 C528 1.377 . S
C529 C535 1.390 . S
C530 H521 0.930 . S
C530 C528 1.384 . S
C530 C531 1.372 . S
C531 C530 1.372 . S
C531 C532 1.400 . S
C531 C536 1.490 . S
C532 H522 0.930 . S
C532 C531 1.400 . S
C532 C535 1.386 . S
H533 C549 0.930 . S
H534 C550 0.931 . S
C535 H523 0.929 . S
C535 C529 1.390 . S
C535 C532 1.386 . S
C536 C531 1.490 . S
C536 C538 1.395 . S
C536 C539 1.403 . S
H537 C543 0.930 . S
C538 H524 0.930 . S
C538 C536 1.395 . S
C538 C541 1.403 . S
C539 C536 1.403 . S
C539 C540 1.524 . S
C539 C543 1.400 . S
C540 H525 0.960 . S
C540 H526 0.960 . S
C540 H527 0.960 . S
C540 C539 1.524 . S
C541 C538 1.403 . S
C541 C542 1.392 . S
C541 C545 1.495 . S
C542 C541 1.392 . S
C542 C543 1.385 . S
C542 C544 1.478 . S
C543 H537 0.930 . S
C543 C539 1.400 . S
C543 C542 1.385 . S
C544 C542 1.478 . S
C544 C546 1.381 . S
C544 C550 1.383 . S
C545 C541 1.495 . S
C545 H551 0.959 . S
C545 H552 0.961 . S
C545 H553 0.960 . S
C546 C544 1.381 . S
C546 C547 1.394 . S
C546 H554 0.930 . S
C547 C546 1.394 . S
C547 C548 1.383 . S
C547 H555 0.929 . S
C548 C547 1.383 . S
C548 C549 1.377 . S
C549 H533 0.930 . S
C549 C548 1.377 . S
C549 C550 1.379 . S
C550 H534 0.931 . S
C550 C544 1.383 . S
C550 C549 1.379 . S
H551 C545 0.959 . S
H552 C545 0.961 . S
H553 C545 0.960 . S
H554 C546 0.930 . S
H555 C547 0.929 . S
H556 C564 0.929 . S
H557 C566 0.930 . S
H558 C568 0.930 . S
H559 C571 0.929 . S
H560 C574 0.930 . S
H561 C576 0.960 . S
H562 C576 0.960 . S
H563 C576 0.960 . S
C564 H556 0.929 . S
C564 C565 1.377 . S
C564 C566 1.384 . S
C565 C564 1.377 . S
C565 C571 1.390 . S
C566 H557 0.930 . S
C566 C564 1.384 . S
C566 C567 1.372 . S
C567 C566 1.372 . S
C567 C568 1.400 . S
C567 C572 1.490 . S
C568 H558 0.930 . S
C568 C567 1.400 . S
C568 C571 1.386 . S
H569 C585 0.930 . S
H570 C586 0.931 . S
C571 H559 0.929 . S
C571 C565 1.390 . S
C571 C568 1.386 . S
C572 C567 1.490 . S
C572 C574 1.395 . S
C572 C575 1.403 . S
H573 C579 0.930 . S
C574 H560 0.930 . S
C574 C572 1.395 . S
C574 C577 1.403 . S
C575 C572 1.403 . S
C575 C576 1.524 . S
C575 C579 1.400 . S
C576 H561 0.960 . S
C576 H562 0.960 . S
C576 H563 0.960 . S
C576 C575 1.524 . S
C577 C574 1.403 . S
C577 C578 1.392 . S
C577 C581 1.495 . S
C578 C577 1.392 . S
C578 C579 1.385 . S
C578 C580 1.478 . S
C579 H573 0.930 . S
C579 C575 1.400 . S
C579 C578 1.385 . S
C580 C578 1.478 . S
C580 C582 1.381 . S
C580 C586 1.383 . S
C581 C577 1.495 . S
C581 H587 0.959 . S
C581 H588 0.961 . S
C581 H589 0.960 . S
C582 C580 1.381 . S
C582 C583 1.394 . S
C582 H590 0.930 . S
C583 C582 1.394 . S
C583 C584 1.383 . S
C583 H591 0.929 . S
C584 C583 1.383 . S
C584 C585 1.377 . S
C585 H569 0.930 . S
C585 C584 1.377 . S
C585 C586 1.379 . S
C586 H570 0.931 . S
C586 C580 1.383 . S
C586 C585 1.379 . S
H587 C581 0.959 . S
H588 C581 0.961 . S
H589 C581 0.960 . S
H590 C582 0.930 . S
H591 C583 0.929 . S
H592 C600 0.929 . S
H593 C602 0.930 . S
H594 C604 0.930 . S
H595 C607 0.929 . S
H596 C610 0.930 . S
H597 C612 0.960 . S
H598 C612 0.960 . S
H599 C612 0.960 . S
C600 H592 0.929 . S
C600 C601 1.377 . S
C600 C602 1.384 . S
C601 C600 1.377 . S
C601 C607 1.390 . S
C602 H593 0.930 . S
C602 C600 1.384 . S
C602 C603 1.372 . S
C603 C602 1.372 . S
C603 C604 1.400 . S
C603 C608 1.490 . S
C604 H594 0.930 . S
C604 C603 1.400 . S
C604 C607 1.386 . S
H605 C621 0.930 . S
H606 C622 0.931 . S
C607 H595 0.929 . S
C607 C601 1.390 . S
C607 C604 1.386 . S
C608 C603 1.490 . S
C608 C610 1.395 . S
C608 C611 1.403 . S
H609 C615 0.930 . S
C610 H596 0.930 . S
C610 C608 1.395 . S
C610 C613 1.403 . S
C611 C608 1.403 . S
C611 C612 1.524 . S
C611 C615 1.400 . S
C612 H597 0.960 . S
C612 H598 0.960 . S
C612 H599 0.960 . S
C612 C611 1.524 . S
C613 C610 1.403 . S
C613 C614 1.392 . S
C613 C617 1.495 . S
C614 C613 1.392 . S
C614 C615 1.385 . S
C614 C616 1.478 . S
C615 H609 0.930 . S
C615 C611 1.400 . S
C615 C614 1.385 . S
C616 C614 1.478 . S
C616 C618 1.381 . S
C616 C622 1.383 . S
C617 C613 1.495 . S
C617 H623 0.959 . S
C617 H624 0.961 . S
C617 H625 0.960 . S
C618 C616 1.381 . S
C618 C619 1.394 . S
C618 H626 0.930 . S
C619 C618 1.394 . S
C619 C620 1.383 . S
C619 H627 0.929 . S
C620 C619 1.383 . S
C620 C621 1.377 . S
C621 H605 0.930 . S
C621 C620 1.377 . S
C621 C622 1.379 . S
C622 H606 0.931 . S
C622 C616 1.383 . S
C622 C621 1.379 . S
H623 C617 0.959 . S
H624 C617 0.961 . S
H625 C617 0.960 . S
H626 C618 0.930 . S
H627 C619 0.929 . S
H628 C636 0.929 . S
H629 C638 0.930 . S
H630 C640 0.930 . S
H631 C643 0.929 . S
H632 C646 0.930 . S
H633 C648 0.960 . S
H634 C648 0.960 . S
H635 C648 0.960 . S
C636 H628 0.929 . S
C636 C637 1.377 . S
C636 C638 1.384 . S
C637 C636 1.377 . S
C637 C643 1.390 . S
C638 H629 0.930 . S
C638 C636 1.384 . S
C638 C639 1.372 . S
C639 C638 1.372 . S
C639 C640 1.400 . S
C639 C644 1.490 . S
C640 H630 0.930 . S
C640 C639 1.400 . S
C640 C643 1.386 . S
H641 C657 0.930 . S
H642 C658 0.931 . S
C643 H631 0.929 . S
C643 C637 1.390 . S
C643 C640 1.386 . S
C644 C639 1.490 . S
C644 C646 1.395 . S
C644 C647 1.403 . S
H645 C651 0.930 . S
C646 H632 0.930 . S
C646 C644 1.395 . S
C646 C649 1.403 . S
C647 C644 1.403 . S
C647 C648 1.524 . S
C647 C651 1.400 . S
C648 H633 0.960 . S
C648 H634 0.960 . S
C648 H635 0.960 . S
C648 C647 1.524 . S
C649 C646 1.403 . S
C649 C650 1.392 . S
C649 C653 1.495 . S
C650 C649 1.392 . S
C650 C651 1.385 . S
C650 C652 1.478 . S
C651 H645 0.930 . S
C651 C647 1.400 . S
C651 C650 1.385 . S
C652 C650 1.478 . S
C652 C654 1.381 . S
C652 C658 1.383 . S
C653 C649 1.495 . S
C653 H659 0.959 . S
C653 H660 0.961 . S
C653 H661 0.960 . S
C654 C652 1.381 . S
C654 C655 1.394 . S
C654 H662 0.930 . S
C655 C654 1.394 . S
C655 C656 1.383 . S
C655 H663 0.929 . S
C656 C655 1.383 . S
C656 C657 1.377 . S
C657 H641 0.930 . S
C657 C656 1.377 . S
C657 C658 1.379 . S
C658 H642 0.931 . S
C658 C652 1.383 . S
C658 C657 1.379 . S
H659 C653 0.959 . S
H660 C653 0.961 . S
H661 C653 0.960 . S
H662 C654 0.930 . S
H663 C655 0.929 . S
H664 C672 0.929 . S
H665 C674 0.930 . S
H666 C676 0.930 . S
H667 C679 0.929 . S
H668 C682 0.930 . S
H669 C684 0.960 . S
H670 C684 0.960 . S
H671 C684 0.960 . S
C672 H664 0.929 . S
C672 C673 1.377 . S
C672 C674 1.384 . S
C673 C672 1.377 . S
C673 C679 1.390 . S
C674 H665 0.930 . S
C674 C672 1.384 . S
C674 C675 1.372 . S
C675 C674 1.372 . S
C675 C676 1.400 . S
C675 C680 1.490 . S
C676 H666 0.930 . S
C676 C675 1.400 . S
C676 C679 1.386 . S
H677 C693 0.930 . S
H678 C694 0.931 . S
C679 H667 0.929 . S
C679 C673 1.390 . S
C679 C676 1.386 . S
C680 C675 1.490 . S
C680 C682 1.395 . S
C680 C683 1.403 . S
H681 C687 0.930 . S
C682 H668 0.930 . S
C682 C680 1.395 . S
C682 C685 1.403 . S
C683 C680 1.403 . S
C683 C684 1.524 . S
C683 C687 1.400 . S
C684 H669 0.960 . S
C684 H670 0.960 . S
C684 H671 0.960 . S
C684 C683 1.524 . S
C685 C682 1.403 . S
C685 C686 1.392 . S
C685 C689 1.495 . S
C686 C685 1.392 . S
C686 C687 1.385 . S
C686 C688 1.478 . S
C687 H681 0.930 . S
C687 C683 1.400 . S
C687 C686 1.385 . S
C688 C686 1.478 . S
C688 C690 1.381 . S
C688 C694 1.383 . S
C689 C685 1.495 . S
C689 H695 0.959 . S
C689 H696 0.961 . S
C689 H697 0.960 . S
C690 C688 1.381 . S
C690 C691 1.394 . S
C690 H698 0.930 . S
C691 C690 1.394 . S
C691 C692 1.383 . S
C691 H699 0.929 . S
C692 C691 1.383 . S
C692 C693 1.377 . S
C693 H677 0.930 . S
C693 C692 1.377 . S
C693 C694 1.379 . S
C694 H678 0.931 . S
C694 C688 1.383 . S
C694 C693 1.379 . S
H695 C689 0.959 . S
H696 C689 0.961 . S
H697 C689 0.960 . S
H698 C690 0.930 . S
H699 C691 0.929 . S
H700 C708 0.929 . S
H701 C710 0.930 . S
H702 C712 0.930 . S
H703 C715 0.929 . S
H704 C718 0.930 . S
H705 C720 0.960 . S
H706 C720 0.960 . S
H707 C720 0.960 . S
C708 H700 0.929 . S
C708 C709 1.377 . S
C708 C710 1.384 . S
C709 C708 1.377 . S
C709 C715 1.390 . S
C710 H701 0.930 . S
C710 C708 1.384 . S
C710 C711 1.372 . S
C711 C710 1.372 . S
C711 C712 1.400 . S
C711 C716 1.490 . S
C712 H702 0.930 . S
C712 C711 1.400 . S
C712 C715 1.386 . S
H713 C729 0.930 . S
H714 C730 0.931 . S
C715 H703 0.929 . S
C715 C709 1.390 . S
C715 C712 1.386 . S
C716 C711 1.490 . S
C716 C718 1.395 . S
C716 C719 1.403 . S
H717 C723 0.930 . S
C718 H704 0.930 . S
C718 C716 1.395 . S
C718 C721 1.403 . S
C719 C716 1.403 . S
C719 C720 1.524 . S
C719 C723 1.400 . S
C720 H705 0.960 . S
C720 H706 0.960 . S
C720 H707 0.960 . S
C720 C719 1.524 . S
C721 C718 1.403 . S
C721 C722 1.392 . S
C721 C725 1.495 . S
C722 C721 1.392 . S
C722 C723 1.385 . S
C722 C724 1.478 . S
C723 H717 0.930 . S
C723 C719 1.400 . S
C723 C722 1.385 . S
C724 C722 1.478 . S
C724 C726 1.381 . S
C724 C730 1.383 . S
C725 C721 1.495 . S
C725 H731 0.959 . S
C725 H732 0.961 . S
C725 H733 0.960 . S
C726 C724 1.381 . S
C726 C727 1.394 . S
C726 H734 0.930 . S
C727 C726 1.394 . S
C727 C728 1.383 . S
C727 H735 0.929 . S
C728 C727 1.383 . S
C728 C729 1.377 . S
C729 H713 0.930 . S
C729 C728 1.377 . S
C729 C730 1.379 . S
C730 H714 0.931 . S
C730 C724 1.383 . S
C730 C729 1.379 . S
H731 C725 0.959 . S
H732 C725 0.961 . S
H733 C725 0.960 . S
H734 C726 0.930 . S
H735 C727 0.929 . S
H736 C744 0.929 . S
H737 C746 0.930 . S
H738 C748 0.930 . S
H739 C751 0.929 . S
H740 C754 0.930 . S
H741 C756 0.960 . S
H742 C756 0.960 . S
H743 C756 0.960 . S
C744 H736 0.929 . S
C744 C745 1.377 . S
C744 C746 1.384 . S
C745 C744 1.377 . S
C745 C751 1.390 . S
C746 H737 0.930 . S
C746 C744 1.384 . S
C746 C747 1.372 . S
C747 C746 1.372 . S
C747 C748 1.400 . S
C747 C752 1.490 . S
C748 H738 0.930 . S
C748 C747 1.400 . S
C748 C751 1.386 . S
H749 C765 0.930 . S
H750 C766 0.931 . S
C751 H739 0.929 . S
C751 C745 1.390 . S
C751 C748 1.386 . S
C752 C747 1.490 . S
C752 C754 1.395 . S
C752 C755 1.403 . S
H753 C759 0.930 . S
C754 H740 0.930 . S
C754 C752 1.395 . S
C754 C757 1.403 . S
C755 C752 1.403 . S
C755 C756 1.524 . S
C755 C759 1.400 . S
C756 H741 0.960 . S
C756 H742 0.960 . S
C756 H743 0.960 . S
C756 C755 1.524 . S
C757 C754 1.403 . S
C757 C758 1.392 . S
C757 C761 1.495 . S
C758 C757 1.392 . S
C758 C759 1.385 . S
C758 C760 1.478 . S
C759 H753 0.930 . S
C759 C755 1.400 . S
C759 C758 1.385 . S
C760 C758 1.478 . S
C760 C762 1.381 . S
C760 C766 1.383 . S
C761 C757 1.495 . S
C761 H767 0.959 . S
C761 H768 0.961 . S
C761 H769 0.960 . S
C762 C760 1.381 . S
C762 C763 1.394 . S
C762 H770 0.930 . S
C763 C762 1.394 . S
C763 C764 1.383 . S
C763 H771 0.929 . S
C764 C763 1.383 . S
C764 C765 1.377 . S
C765 H749 0.930 . S
C765 C764 1.377 . S
C765 C766 1.379 . S
C766 H750 0.931 . S
C766 C760 1.383 . S
C766 C765 1.379 . S
H767 C761 0.959 . S
H768 C761 0.961 . S
H769 C761 0.960 . S
H770 C762 0.930 . S
H771 C763 0.929 . S
H772 C780 0.929 . S
H773 C782 0.930 . S
H774 C784 0.930 . S
H775 C787 0.929 . S
H776 C790 0.930 . S
H777 C792 0.960 . S
H778 C792 0.960 . S
H779 C792 0.960 . S
C780 H772 0.929 . S
C780 C781 1.377 . S
C780 C782 1.384 . S
C781 C780 1.377 . S
C781 C787 1.390 . S
C782 H773 0.930 . S
C782 C780 1.384 . S
C782 C783 1.372 . S
C783 C782 1.372 . S
C783 C784 1.400 . S
C783 C788 1.490 . S
C784 H774 0.930 . S
C784 C783 1.400 . S
C784 C787 1.386 . S
H785 C801 0.930 . S
H786 C802 0.931 . S
C787 H775 0.929 . S
C787 C781 1.390 . S
C787 C784 1.386 . S
C788 C783 1.490 . S
C788 C790 1.395 . S
C788 C791 1.403 . S
H789 C795 0.930 . S
C790 H776 0.930 . S
C790 C788 1.395 . S
C790 C793 1.403 . S
C791 C788 1.403 . S
C791 C792 1.524 . S
C791 C795 1.400 . S
C792 H777 0.960 . S
C792 H778 0.960 . S
C792 H779 0.960 . S
C792 C791 1.524 . S
C793 C790 1.403 . S
C793 C794 1.392 . S
C793 C797 1.495 . S
C794 C793 1.392 . S
C794 C795 1.385 . S
C794 C796 1.478 . S
C795 H789 0.930 . S
C795 C791 1.400 . S
C795 C794 1.385 . S
C796 C794 1.478 . S
C796 C798 1.381 . S
C796 C802 1.383 . S
C797 C793 1.495 . S
C797 H803 0.959 . S
C797 H804 0.961 . S
C797 H805 0.960 . S
C798 C796 1.381 . S
C798 C799 1.394 . S
C798 H806 0.930 . S
C799 C798 1.394 . S
C799 C800 1.383 . S
C799 H807 0.929 . S
C800 C799 1.383 . S
C800 C801 1.377 . S
C801 H785 0.930 . S
C801 C800 1.377 . S
C801 C802 1.379 . S
C802 H786 0.931 . S
C802 C796 1.383 . S
C802 C801 1.379 . S
H803 C797 0.959 . S
H804 C797 0.961 . S
H805 C797 0.960 . S
H806 C798 0.930 . S
H807 C799 0.929 . S
H808 C816 0.929 . S
H809 C818 0.930 . S
H810 C820 0.930 . S
H811 C823 0.929 . S
H812 C826 0.930 . S
H813 C828 0.960 . S
H814 C828 0.960 . S
H815 C828 0.960 . S
C816 H808 0.929 . S
C816 C817 1.377 . S
C816 C818 1.384 . S
C817 C816 1.377 . S
C817 C823 1.390 . S
C818 H809 0.930 . S
C818 C816 1.384 . S
C818 C819 1.372 . S
C819 C818 1.372 . S
C819 C820 1.400 . S
C819 C824 1.490 . S
C820 H810 0.930 . S
C820 C819 1.400 . S
C820 C823 1.386 . S
H821 C837 0.930 . S
H822 C838 0.931 . S
C823 H811 0.929 . S
C823 C817 1.390 . S
C823 C820 1.386 . S
C824 C819 1.490 . S
C824 C826 1.395 . S
C824 C827 1.403 . S
H825 C831 0.930 . S
C826 H812 0.930 . S
C826 C824 1.395 . S
C826 C829 1.403 . S
C827 C824 1.403 . S
C827 C828 1.524 . S
C827 C831 1.400 . S
C828 H813 0.960 . S
C828 H814 0.960 . S
C828 H815 0.960 . S
C828 C827 1.524 . S
C829 C826 1.403 . S
C829 C830 1.392 . S
C829 C833 1.495 . S
C830 C829 1.392 . S
C830 C831 1.385 . S
C830 C832 1.478 . S
C831 H825 0.930 . S
C831 C827 1.400 . S
C831 C830 1.385 . S
C832 C830 1.478 . S
C832 C834 1.381 . S
C832 C838 1.383 . S
C833 C829 1.495 . S
C833 H839 0.959 . S
C833 H840 0.961 . S
C833 H841 0.960 . S
C834 C832 1.381 . S
C834 C835 1.394 . S
C834 H842 0.930 . S
C835 C834 1.394 . S
C835 C836 1.383 . S
C835 H843 0.929 . S
C836 C835 1.383 . S
C836 C837 1.377 . S
C837 H821 0.930 . S
C837 C836 1.377 . S
C837 C838 1.379 . S
C838 H822 0.931 . S
C838 C832 1.383 . S
C838 C837 1.379 . S
H839 C833 0.959 . S
H840 C833 0.961 . S
H841 C833 0.960 . S
H842 C834 0.930 . S
H843 C835 0.929 . S
H844 C852 0.929 . S
H845 C854 0.930 . S
H846 C856 0.930 . S
H847 C859 0.929 . S
H848 C862 0.930 . S
H849 C864 0.960 . S
H850 C864 0.960 . S
H851 C864 0.960 . S
C852 H844 0.929 . S
C852 C853 1.377 . S
C852 C854 1.384 . S
C853 C852 1.377 . S
C853 C859 1.390 . S
C854 H845 0.930 . S
C854 C852 1.384 . S
C854 C855 1.372 . S
C855 C854 1.372 . S
C855 C856 1.400 . S
C855 C860 1.490 . S
C856 H846 0.930 . S
C856 C855 1.400 . S
C856 C859 1.386 . S
H857 C873 0.930 . S
H858 C874 0.931 . S
C859 H847 0.929 . S
C859 C853 1.390 . S
C859 C856 1.386 . S
C860 C855 1.490 . S
C860 C862 1.395 . S
C860 C863 1.403 . S
H861 C867 0.930 . S
C862 H848 0.930 . S
C862 C860 1.395 . S
C862 C865 1.403 . S
C863 C860 1.403 . S
C863 C864 1.524 . S
C863 C867 1.400 . S
C864 H849 0.960 . S
C864 H850 0.960 . S
C864 H851 0.960 . S
C864 C863 1.524 . S
C865 C862 1.403 . S
C865 C866 1.392 . S
C865 C869 1.495 . S
C866 C865 1.392 . S
C866 C867 1.385 . S
C866 C868 1.478 . S
C867 H861 0.930 . S
C867 C863 1.400 . S
C867 C866 1.385 . S
C868 C866 1.478 . S
C868 C870 1.381 . S
C868 C874 1.383 . S
C869 C865 1.495 . S
C869 H875 0.959 . S
C869 H876 0.961 . S
C869 H877 0.960 . S
C870 C868 1.381 . S
C870 C871 1.394 . S
C870 H878 0.930 . S
C871 C870 1.394 . S
C871 C872 1.383 . S
C871 H879 0.929 . S
C872 C871 1.383 . S
C872 C873 1.377 . S
C873 H857 0.930 . S
C873 C872 1.377 . S
C873 C874 1.379 . S
C874 H858 0.931 . S
C874 C868 1.383 . S
C874 C873 1.379 . S
H875 C869 0.959 . S
H876 C869 0.961 . S
H877 C869 0.960 . S
H878 C870 0.930 . S
H879 C871 0.929 . S
H880 C888 0.929 . S
H881 C890 0.930 . S
H882 C892 0.930 . S
H883 C895 0.929 . S
H884 C898 0.930 . S
H885 C900 0.960 . S
H886 C900 0.960 . S
H887 C900 0.960 . S
C888 H880 0.929 . S
C888 C889 1.377 . S
C888 C890 1.384 . S
C889 C888 1.377 . S
C889 C895 1.390 . S
C890 H881 0.930 . S
C890 C888 1.384 . S
C890 C891 1.372 . S
C891 C890 1.372 . S
C891 C892 1.400 . S
C891 C896 1.490 . S
C892 H882 0.930 . S
C892 C891 1.400 . S
C892 C895 1.386 . S
H893 C909 0.930 . S
H894 C910 0.931 . S
C895 H883 0.929 . S
C895 C889 1.390 . S
C895 C892 1.386 . S
C896 C891 1.490 . S
C896 C898 1.395 . S
C896 C899 1.403 . S
H897 C903 0.930 . S
C898 H884 0.930 . S
C898 C896 1.395 . S
C898 C901 1.403 . S
C899 C896 1.403 . S
C899 C900 1.524 . S
C899 C903 1.400 . S
C900 H885 0.960 . S
C900 H886 0.960 . S
C900 H887 0.960 . S
C900 C899 1.524 . S
C901 C898 1.403 . S
C901 C902 1.392 . S
C901 C905 1.495 . S
C902 C901 1.392 . S
C902 C903 1.385 . S
C902 C904 1.478 . S
C903 H897 0.930 . S
C903 C899 1.400 . S
C903 C902 1.385 . S
C904 C902 1.478 . S
C904 C906 1.381 . S
C904 C910 1.383 . S
C905 C901 1.495 . S
C905 H911 0.959 . S
C905 H912 0.961 . S
C905 H913 0.960 . S
C906 C904 1.381 . S
C906 C907 1.394 . S
C906 H914 0.930 . S
C907 C906 1.394 . S
C907 C908 1.383 . S
C907 H915 0.929 . S
C908 C907 1.383 . S
C908 C909 1.377 . S
C909 H893 0.930 . S
C909 C908 1.377 . S
C909 C910 1.379 . S
C910 H894 0.931 . S
C910 C904 1.383 . S
C910 C909 1.379 . S
H911 C905 0.959 . S
H912 C905 0.961 . S
H913 C905 0.960 . S
H914 C906 0.930 . S
H915 C907 0.929 . S
H916 C924 0.929 . S
H917 C926 0.930 . S
H918 C928 0.930 . S
H919 C931 0.929 . S
H920 C934 0.930 . S
H921 C936 0.960 . S
H922 C936 0.960 . S
H923 C936 0.960 . S
C924 H916 0.929 . S
C924 C925 1.377 . S
C924 C926 1.384 . S
C925 C924 1.377 . S
C925 C931 1.390 . S
C926 H917 0.930 . S
C926 C924 1.384 . S
C926 C927 1.372 . S
C927 C926 1.372 . S
C927 C928 1.400 . S
C927 C932 1.490 . S
C928 H918 0.930 . S
C928 C927 1.400 . S
C928 C931 1.386 . S
H929 C945 0.930 . S
H930 C946 0.931 . S
C931 H919 0.929 . S
C931 C925 1.390 . S
C931 C928 1.386 . S
C932 C927 1.490 . S
C932 C934 1.395 . S
C932 C935 1.403 . S
H933 C939 0.930 . S
C934 H920 0.930 . S
C934 C932 1.395 . S
C934 C937 1.403 . S
C935 C932 1.403 . S
C935 C936 1.524 . S
C935 C939 1.400 . S
C936 H921 0.960 . S
C936 H922 0.960 . S
C936 H923 0.960 . S
C936 C935 1.524 . S
C937 C934 1.403 . S
C937 C938 1.392 . S
C937 C941 1.495 . S
C938 C937 1.392 . S
C938 C939 1.385 . S
C938 C940 1.478 . S
C939 H933 0.930 . S
C939 C935 1.400 . S
C939 C938 1.385 . S
C940 C938 1.478 . S
C940 C942 1.381 . S
C940 C946 1.383 . S
C941 C937 1.495 . S
C941 H947 0.959 . S
C941 H948 0.961 . S
C941 H949 0.960 . S
C942 C940 1.381 . S
C942 C943 1.394 . S
C942 H950 0.930 . S
C943 C942 1.394 . S
C943 C944 1.383 . S
C943 H951 0.929 . S
C944 C943 1.383 . S
C944 C945 1.377 . S
C945 H929 0.930 . S
C945 C944 1.377 . S
C945 C946 1.379 . S
C946 H930 0.931 . S
C946 C940 1.383 . S
C946 C945 1.379 . S
H947 C941 0.959 . S
H948 C941 0.961 . S
H949 C941 0.960 . S
H950 C942 0.930 . S
H951 C943 0.929 . S
H952 C960 0.929 . S
H953 C962 0.930 . S
H954 C964 0.930 . S
H955 C967 0.929 . S
H956 C970 0.930 . S
H957 C972 0.960 . S
H958 C972 0.960 . S
H959 C972 0.960 . S
C960 H952 0.929 . S
C960 C961 1.377 . S
C960 C962 1.384 . S
C961 C960 1.377 . S
C961 C967 1.390 . S
C962 H953 0.930 . S
C962 C960 1.384 . S
C962 C963 1.372 . S
C963 C962 1.372 . S
C963 C964 1.400 . S
C963 C968 1.490 . S
C964 H954 0.930 . S
C964 C963 1.400 . S
C964 C967 1.386 . S
H965 C981 0.930 . S
H966 C982 0.931 . S
C967 H955 0.929 . S
C967 C961 1.390 . S
C967 C964 1.386 . S
C968 C963 1.490 . S
C968 C970 1.395 . S
C968 C971 1.403 . S
H969 C975 0.930 . S
C970 H956 0.930 . S
C970 C968 1.395 . S
C970 C973 1.403 . S
C971 C968 1.403 . S
C971 C972 1.524 . S
C971 C975 1.400 . S
C972 H957 0.960 . S
C972 H958 0.960 . S
C972 H959 0.960 . S
C972 C971 1.524 . S
C973 C970 1.403 . S
C973 C974 1.392 . S
C973 C977 1.495 . S
C974 C973 1.392 . S
C974 C975 1.385 . S
C974 C976 1.478 . S
C975 H969 0.930 . S
C975 C971 1.400 . S
C975 C974 1.385 . S
C976 C974 1.478 . S
C976 C978 1.381 . S
C976 C982 1.383 . S
C977 C973 1.495 . S
C977 H983 0.959 . S
C977 H984 0.961 . S
C977 H985 0.960 . S
C978 C976 1.381 . S
C978 C979 1.394 . S
C978 H986 0.930 . S
C979 C978 1.394 . S
C979 C980 1.383 . S
C979 H987 0.929 . S
C980 C979 1.383 . S
C980 C981 1.377 . S
C981 H965 0.930 . S
C981 C980 1.377 . S
C981 C982 1.379 . S
C982 H966 0.931 . S
C982 C976 1.383 . S
C982 C981 1.379 . S
H983 C977 0.959 . S
H984 C977 0.961 . S
H985 C977 0.960 . S
H986 C978 0.930 . S
H987 C979 0.929 . S
H988 C996 0.929 . S
H989 C998 0.930 . S
H990 C1000 0.930 . S
H991 C1003 0.929 . S
H992 C1006 0.930 . S
H993 C1008 0.960 . S
H994 C1008 0.960 . S
H995 C1008 0.960 . S
C996 H988 0.929 . S
C996 C997 1.377 . S
C996 C998 1.384 . S
C997 C996 1.377 . S
C997 C1003 1.390 . S
C998 H989 0.930 . S
C998 C996 1.384 . S
C998 C999 1.372 . S
C999 C998 1.372 . S
C999 C1000 1.400 . S
C999 C1004 1.490 . S
C1000 H990 0.930 . S
C1000 C999 1.400 . S
C1000 C1003 1.386 . S
H1001 C1017 0.930 . S
H1002 C1018 0.931 . S
C1003 H991 0.929 . S
C1003 C997 1.390 . S
C1003 C1000 1.386 . S
C1004 C999 1.490 . S
C1004 C1006 1.395 . S
C1004 C1007 1.403 . S
H1005 C1011 0.930 . S
C1006 H992 0.930 . S
C1006 C1004 1.395 . S
C1006 C1009 1.403 . S
C1007 C1004 1.403 . S
C1007 C1008 1.524 . S
C1007 C1011 1.400 . S
C1008 H993 0.960 . S
C1008 H994 0.960 . S
C1008 H995 0.960 . S
C1008 C1007 1.524 . S
C1009 C1006 1.403 . S
C1009 C1010 1.392 . S
C1009 C1013 1.495 . S
C1010 C1009 1.392 . S
C1010 C1011 1.385 . S
C1010 C1012 1.478 . S
C1011 H1005 0.930 . S
C1011 C1007 1.400 . S
C1011 C1010 1.385 . S
C1012 C1010 1.478 . S
C1012 C1014 1.381 . S
C1012 C1018 1.383 . S
C1013 C1009 1.495 . S
C1013 H1019 0.959 . S
C1013 H1020 0.961 . S
C1013 H1021 0.960 . S
C1014 C1012 1.381 . S
C1014 C1015 1.394 . S
C1014 H1022 0.930 . S
C1015 C1014 1.394 . S
C1015 C1016 1.383 . S
C1015 H1023 0.929 . S
C1016 C1015 1.383 . S
C1016 C1017 1.377 . S
C1017 H1001 0.930 . S
C1017 C1016 1.377 . S
C1017 C1018 1.379 . S
C1018 H1002 0.931 . S
C1018 C1012 1.383 . S
C1018 C1017 1.379 . S
H1019 C1013 0.959 . S
H1020 C1013 0.961 . S
H1021 C1013 0.960 . S
H1022 C1014 0.930 . S
H1023 C1015 0.929 . S
H1024 C1032 0.929 . S
H1025 C1034 0.930 . S
H1026 C1036 0.930 . S
H1027 C1039 0.929 . S
H1028 C1042 0.930 . S
H1029 C1044 1.040 . S
H1030 C1044 0.960 . S
H1031 C1044 0.960 . S
C1032 H1024 0.929 . S
C1032 C1033 1.377 . S
C1032 C1034 1.384 . S
C1033 C1032 1.377 . S
C1033 C1039 1.390 . S
C1034 H1025 0.930 . S
C1034 C1032 1.384 . S
C1034 C1035 1.372 . S
C1035 C1034 1.372 . S
C1035 C1036 1.400 . S
C1035 C1040 1.490 . S
C1036 H1026 0.930 . S
C1036 C1035 1.400 . S
C1036 C1039 1.386 . S
H1037 C1053 0.930 . S
H1038 C1054 0.931 . S
C1039 H1027 0.929 . S
C1039 C1033 1.390 . S
C1039 C1036 1.386 . S
C1040 C1035 1.490 . S
C1040 C1042 1.395 . S
C1040 C1043 1.403 . S
H1041 C1047 0.930 . S
C1042 H1028 0.930 . S
C1042 C1040 1.395 . S
C1042 C1045 1.403 1_565 S
C1043 C1040 1.403 . S
C1043 C1044 1.524 . S
C1043 C1047 1.400 1_565 S
C1044 H1029 1.040 . S
C1044 H1030 0.960 . S
C1044 H1031 0.960 . S
C1044 C1043 1.524 . S
C1045 C1042 1.403 1_545 S
C1045 C1046 1.392 . S
C1045 C1049 1.495 . S
C1046 C1045 1.392 . S
C1046 C1047 1.385 . S
C1046 C1048 1.478 . S
C1047 H1041 0.930 . S
C1047 C1043 1.400 1_545 S
C1047 C1046 1.385 . S
C1048 C1046 1.478 . S
C1048 C1050 1.381 . S
C1048 C1054 1.383 . S
C1049 C1045 1.495 . S
C1049 H1055 0.959 . S
C1049 H1056 0.961 . S
C1049 H1057 0.960 . S
C1050 C1048 1.381 . S
C1050 C1051 1.394 . S
C1050 H1058 0.930 . S
C1051 C1050 1.394 . S
C1051 C1052 1.383 . S
C1051 H1059 0.929 . S
C1052 C1051 1.383 . S
C1052 C1053 1.377 . S
C1053 H1037 0.930 . S
C1053 C1052 1.377 . S
C1053 C1054 1.379 . S
C1054 H1038 0.931 . S
C1054 C1048 1.383 . S
C1054 C1053 1.379 . S
H1055 C1049 0.959 . S
H1056 C1049 0.961 . S
H1057 C1049 0.960 . S
H1058 C1050 0.930 . S
H1059 C1051 0.929 . S
H1060 C1068 0.929 . S
H1061 C1070 0.930 . S
H1062 C1072 0.930 . S
H1063 C1075 0.929 . S
H1064 C1078 0.930 . S
H1065 C1080 0.960 . S
H1066 C1080 0.960 . S
H1067 C1080 0.960 . S
C1068 H1060 0.929 . S
C1068 C1069 1.377 . S
C1068 C1070 1.384 . S
C1069 C1068 1.377 . S
C1069 C1075 1.390 . S
C1070 H1061 0.930 . S
C1070 C1068 1.384 . S
C1070 C1071 1.372 . S
C1071 C1070 1.372 . S
C1071 C1072 1.400 . S
C1071 C1076 1.490 . S
C1072 H1062 0.930 . S
C1072 C1071 1.400 . S
C1072 C1075 1.386 . S
H1073 C1089 0.930 . S
H1074 C1090 0.931 . S
C1075 H1063 0.929 . S
C1075 C1069 1.390 . S
C1075 C1072 1.386 . S
C1076 C1071 1.490 . S
C1076 C1078 1.395 1_655 S
C1076 C1079 1.403 . S
H1077 C1083 0.930 . S
C1078 H1064 0.930 . S
C1078 C1076 1.395 1_455 S
C1078 C1081 1.403 . S
C1079 C1076 1.403 . S
C1079 C1080 1.524 . S
C1079 C1083 1.400 . S
C1080 H1065 0.960 . S
C1080 H1066 0.960 . S
C1080 H1067 0.960 . S
C1080 C1079 1.524 . S
C1081 C1078 1.403 . S
C1081 C1082 1.392 . S
C1081 C1085 1.495 . S
C1082 C1081 1.392 . S
C1082 C1083 1.385 1_455 S
C1082 C1084 1.478 . S
C1083 H1077 0.930 . S
C1083 C1079 1.400 . S
C1083 C1082 1.385 1_655 S
C1084 C1082 1.478 . S
C1084 C1086 1.381 . S
C1084 C1090 1.383 . S
C1085 C1081 1.495 . S
C1085 H1091 0.959 . S
C1085 H1092 0.961 . S
C1085 H1093 0.960 . S
C1086 C1084 1.381 . S
C1086 C1087 1.394 . S
C1086 H1094 0.930 . S
C1087 C1086 1.394 . S
C1087 C1088 1.383 . S
C1087 H1095 0.929 . S
C1088 C1087 1.383 . S
C1088 C1089 1.377 . S
C1089 H1073 0.930 . S
C1089 C1088 1.377 . S
C1089 C1090 1.379 . S
C1090 H1074 0.931 . S
C1090 C1084 1.383 . S
C1090 C1089 1.379 . S
H1091 C1085 0.959 . S
H1092 C1085 0.961 . S
H1093 C1085 0.960 . S
H1094 C1086 0.930 . S
H1095 C1087 0.929 . S
H1096 C1104 0.929 . S
H1097 C1106 0.930 . S
H1098 C1108 0.930 . S
H1099 C1111 0.929 . S
H1100 C1114 0.931 . S
H1101 C1116 0.962 . S
H1102 C1116 0.973 . S
H1103 C1116 0.946 1_556 S
C1104 H1096 0.929 . S
C1104 C1105 1.377 1_554 S
C1104 C1106 1.384 . S
C1105 C1104 1.377 1_556 S
C1105 C1111 1.390 . S
C1106 H1097 0.930 . S
C1106 C1104 1.384 . S
C1106 C1107 1.372 1_554 S
C1107 C1106 1.372 1_556 S
C1107 C1108 1.400 . S
C1107 C1112 1.490 . S
C1108 H1098 0.930 . S
C1108 C1107 1.400 . S
C1108 C1111 1.386 . S
H1109 C1125 0.930 . S
H1110 C1126 0.931 . S
C1111 H1099 0.929 . S
C1111 C1105 1.390 . S
C1111 C1108 1.386 . S
C1112 C1107 1.490 . S
C1112 C1114 1.396 . S
C1112 C1115 1.402 1_556 S
H1113 C1119 0.930 . S
C1114 H1100 0.931 . S
C1114 C1112 1.396 . S
C1114 C1117 1.402 1_556 S
C1115 C1112 1.402 1_554 S
C1115 C1116 1.524 . S
C1115 C1119 1.400 . S
C1116 H1101 0.962 . S
C1116 H1102 0.973 . S
C1116 H1103 0.946 1_554 S
C1116 C1115 1.524 . S
C1117 C1114 1.402 1_554 S
C1117 C1118 1.392 . S
C1117 C1121 1.495 . S
C1118 C1117 1.392 . S
C1118 C1119 1.385 . S
C1118 C1120 1.478 . S
C1119 H1113 0.930 . S
C1119 C1115 1.400 . S
C1119 C1118 1.385 . S
C1120 C1118 1.478 . S
C1120 C1122 1.381 . S
C1120 C1126 1.383 1_554 S
C1121 C1117 1.495 . S
C1121 H1127 0.959 . S
C1121 H1128 0.961 1_554 S
C1121 H1129 0.960 . S
C1122 C1120 1.381 . S
C1122 C1123 1.394 . S
C1122 H1130 0.930 . S
C1123 C1122 1.394 . S
C1123 C1124 1.383 . S
C1123 H1131 0.929 . S
C1124 C1123 1.383 . S
C1124 C1125 1.377 1_554 S
C1125 H1109 0.930 . S
C1125 C1124 1.377 1_556 S
C1125 C1126 1.379 . S
C1126 H1110 0.931 . S
C1126 C1120 1.383 1_556 S
C1126 C1125 1.379 . S
H1127 C1121 0.959 . S
H1128 C1121 0.961 1_556 S
H1129 C1121 0.960 . S
H1130 C1122 0.930 . S
H1131 C1123 0.929 . S
H1132 C1140 0.929 . S
H1133 C1142 0.930 . S
H1134 C1144 0.930 1_655 S
H1135 C1147 0.912 1_554 S
H1136 C1150 0.930 . S
H1137 C1152 0.960 . S
H1138 C1152 0.960 . S
H1139 C1152 0.960 . S
C1140 H1132 0.929 . S
C1140 C1141 1.377 . S
C1140 C1142 1.384 . S
C1141 C1140 1.377 . S
C1141 C1147 1.415 . S
C1142 H1133 0.930 . S
C1142 C1140 1.384 . S
C1142 C1143 1.372 . S
C1143 C1142 1.372 . S
C1143 C1144 1.400 1_556 S
C1143 C1148 1.490 . S
C1144 H1134 0.930 1_455 S
C1144 C1143 1.400 1_554 S
C1144 C1147 1.381 1_554 S
H1145 C1161 0.930 . S
H1146 C1162 0.931 . S
C1147 H1135 0.912 1_556 S
C1147 C1141 1.415 . S
C1147 C1144 1.381 1_556 S
C1148 C1143 1.490 . S
C1148 C1150 1.395 1_556 S
C1148 C1151 1.403 1_455 S
H1149 C1155 0.930 . S
C1150 H1136 0.930 . S
C1150 C1148 1.395 1_554 S
C1150 C1153 1.403 1_545 S
C1151 C1148 1.403 1_655 S
C1151 C1152 1.524 . S
C1151 C1155 1.400 1_545 S
C1152 H1137 0.960 . S
C1152 H1138 0.960 . S
C1152 H1139 0.960 . S
C1152 C1151 1.524 . S
C1153 C1150 1.403 1_565 S
C1153 C1154 1.392 1_455 S
C1153 C1157 1.495 . S
C1154 C1153 1.392 1_655 S
C1154 C1155 1.385 1_554 S
C1154 C1156 1.478 . S
C1155 H1149 0.930 . S
C1155 C1151 1.400 1_565 S
C1155 C1154 1.385 1_556 S
C1156 C1154 1.478 . S
C1156 C1158 1.381 1_554 S
C1156 C1162 1.383 . S
C1157 C1153 1.495 . S
C1157 H1163 0.959 . S
C1157 H1164 0.961 . S
C1157 H1165 0.960 . S
C1158 C1156 1.381 1_556 S
C1158 C1159 1.394 1_556 S
C1158 H1166 0.930 1_655 S
C1159 C1158 1.394 1_554 S
C1159 C1160 1.382 . S
C1159 H1167 0.930 1_554 S
C1160 C1159 1.382 . S
C1160 C1161 1.377 . S
C1161 H1145 0.930 . S
C1161 C1160 1.377 . S
C1161 C1162 1.379 . S
C1162 H1146 0.931 . S
C1162 C1156 1.383 . S
C1162 C1161 1.379 . S
H1163 C1157 0.959 . S
H1164 C1157 0.961 . S
H1165 C1157 0.960 . S
H1166 C1158 0.930 1_455 S
H1167 C1159 0.930 1_556 S
H1168 C1176 0.929 . S
H1169 C1178 0.930 . S
H1170 C1180 0.930 . S
H1171 C1183 0.929 . S
H1172 C1186 0.930 . S
H1173 C1188 1.047 . S
H1174 C1188 0.960 . S
H1175 C1188 0.960 . S
C1176 H1168 0.929 . S
C1176 C1177 1.377 . S
C1176 C1178 1.384 . S
C1177 C1176 1.377 . S
C1177 C1183 1.390 . S
C1178 H1169 0.930 . S
C1178 C1176 1.384 . S
C1178 C1179 1.372 . S
C1179 C1178 1.372 . S
C1179 C1180 1.400 . S
C1179 C1184 1.490 . S
C1180 H1170 0.930 . S
C1180 C1179 1.400 . S
C1180 C1183 1.386 . S
H1181 C1197 0.930 . S
H1182 C1198 0.931 . S
C1183 H1171 0.929 . S
C1183 C1177 1.390 . S
C1183 C1180 1.386 . S
C1184 C1179 1.490 . S
C1184 C1186 1.395 . S
C1184 C1187 1.403 . S
H1185 C1191 0.930 . S
C1186 H1172 0.930 . S
C1186 C1184 1.395 . S
C1186 C1189 1.403 1_545 S
C1187 C1184 1.403 . S
C1187 C1188 1.524 . S
C1187 C1191 1.400 1_545 S
C1188 H1173 1.047 . S
C1188 H1174 0.960 . S
C1188 H1175 0.960 . S
C1188 C1187 1.524 . S
C1189 C1186 1.403 1_565 S
C1189 C1190 1.392 . S
C1189 C1193 1.495 . S
C1190 C1189 1.392 . S
C1190 C1191 1.385 . S
C1190 C1192 1.478 . S
C1191 H1185 0.930 . S
C1191 C1187 1.400 1_565 S
C1191 C1190 1.385 . S
C1192 C1190 1.478 . S
C1192 C1194 1.381 . S
C1192 C1198 1.383 . S
C1193 C1189 1.495 . S
C1193 H1199 0.996 . S
C1193 H1200 0.961 . S
C1193 H1201 0.960 . S
C1194 C1192 1.381 . S
C1194 C1195 1.394 . S
C1194 H1202 0.930 . S
C1195 C1194 1.394 . S
C1195 C1196 1.383 . S
C1195 H1203 0.929 . S
C1196 C1195 1.383 . S
C1196 C1197 1.377 . S
C1197 H1181 0.930 . S
C1197 C1196 1.377 . S
C1197 C1198 1.379 . S
C1198 H1182 0.931 . S
C1198 C1192 1.383 . S
C1198 C1197 1.379 . S
H1199 C1193 0.996 . S
H1200 C1193 0.961 . S
H1201 C1193 0.960 . S
H1202 C1194 0.930 . S
H1203 C1195 0.929 . S
H1204 C1212 0.929 . S
H1205 C1214 0.930 . S
H1206 C1216 0.930 1_655 S
H1207 C1219 0.929 . S
H1208 C1222 0.930 . S
H1209 C1224 0.960 1_655 S
H1210 C1224 0.960 . S
H1211 C1224 0.960 1_655 S
C1212 H1204 0.929 . S
C1212 C1213 1.377 . S
C1212 C1214 1.384 . S
C1213 C1212 1.377 . S
C1213 C1219 1.390 . S
C1214 H1205 0.930 . S
C1214 C1212 1.384 . S
C1214 C1215 1.372 . S
C1215 C1214 1.372 . S
C1215 C1216 1.400 . S
C1215 C1220 1.490 . S
C1216 H1206 0.930 1_455 S
C1216 C1215 1.400 . S
C1216 C1219 1.386 . S
H1217 C1233 0.930 . S
H1218 C1234 0.931 . S
C1219 H1207 0.929 . S
C1219 C1213 1.390 . S
C1219 C1216 1.386 . S
C1220 C1215 1.490 . S
C1220 C1222 1.395 . S
C1220 C1223 1.403 . S
H1221 C1227 0.930 . S
C1222 H1208 0.930 . S
C1222 C1220 1.395 . S
C1222 C1225 1.403 1_455 S
C1223 C1220 1.403 . S
C1223 C1224 1.524 . S
C1223 C1227 1.400 1_455 S
C1224 H1209 0.960 1_455 S
C1224 H1210 0.960 . S
C1224 H1211 0.960 1_455 S
C1224 C1223 1.524 . S
C1225 C1222 1.403 1_655 S
C1225 C1226 1.392 . S
C1225 C1229 1.495 . S
C1226 C1225 1.392 . S
C1226 C1227 1.385 . S
C1226 C1228 1.478 . S
C1227 H1221 0.930 . S
C1227 C1223 1.400 1_655 S
C1227 C1226 1.385 . S
C1228 C1226 1.478 . S
C1228 C1230 1.381 . S
C1228 C1234 1.383 . S
C1229 C1225 1.495 . S
C1229 H1235 0.959 1_655 S
C1229 H1236 0.961 . S
C1229 H1237 0.960 1_655 S
C1230 C1228 1.381 . S
C1230 C1231 1.394 . S
C1230 H1238 0.930 1_655 S
C1231 C1230 1.394 . S
C1231 C1232 1.383 . S
C1231 H1239 0.929 . S
C1232 C1231 1.383 . S
C1232 C1233 1.377 . S
C1233 H1217 0.930 . S
C1233 C1232 1.377 . S
C1233 C1234 1.379 . S
C1234 H1218 0.931 . S
C1234 C1228 1.383 . S
C1234 C1233 1.379 . S
H1235 C1229 0.959 1_455 S
H1236 C1229 0.961 . S
H1237 C1229 0.960 1_455 S
H1238 C1230 0.930 1_455 S
H1239 C1231 0.929 . S
H1240 C1248 0.929 . S
H1241 C1250 0.930 . S
H1242 C1252 0.930 . S
H1243 C1255 0.929 . S
H1244 C1258 0.930 . S
H1245 C1260 0.960 . S
H1246 C1260 0.960 . S
H1247 C1260 0.960 . S
C1248 H1240 0.929 . S
C1248 C1249 1.377 1_554 S
C1248 C1250 1.384 . S
C1249 C1248 1.377 1_556 S
C1249 C1255 1.390 . S
C1250 H1241 0.930 . S
C1250 C1248 1.384 . S
C1250 C1251 1.372 1_554 S
C1251 C1250 1.372 1_556 S
C1251 C1252 1.400 . S
C1251 C1256 1.490 . S
C1252 H1242 0.930 . S
C1252 C1251 1.400 . S
C1252 C1255 1.386 . S
H1253 C1269 0.930 . S
H1254 C1270 0.931 . S
C1255 H1243 0.929 . S
C1255 C1249 1.390 . S
C1255 C1252 1.386 . S
C1256 C1251 1.490 . S
C1256 C1258 1.395 . S
C1256 C1259 1.403 1_556 S
H1257 C1263 0.930 . S
C1258 H1244 0.930 . S
C1258 C1256 1.395 . S
C1258 C1261 1.403 . S
C1259 C1256 1.403 1_554 S
C1259 C1260 1.524 . S
C1259 C1263 1.400 . S
C1260 H1245 0.960 . S
C1260 H1246 0.960 . S
C1260 H1247 0.960 . S
C1260 C1259 1.524 . S
C1261 C1258 1.403 . S
C1261 C1262 1.392 1_556 S
C1261 C1265 1.495 . S
C1262 C1261 1.392 1_554 S
C1262 C1263 1.385 . S
C1262 C1264 1.478 . S
C1263 H1257 0.930 . S
C1263 C1259 1.400 . S
C1263 C1262 1.385 . S
C1264 C1262 1.478 . S
C1264 C1266 1.381 . S
C1264 C1270 1.383 1_554 S
C1265 C1261 1.495 . S
C1265 H1271 0.959 . S
C1265 H1272 0.961 . S
C1265 H1273 0.960 . S
C1266 C1264 1.381 . S
C1266 C1267 1.394 . S
C1266 H1274 0.930 . S
C1267 C1266 1.394 . S
C1267 C1268 1.383 . S
C1267 H1275 0.929 . S
C1268 C1267 1.383 . S
C1268 C1269 1.377 1_554 S
C1269 H1253 0.930 . S
C1269 C1268 1.377 1_556 S
C1269 C1270 1.379 . S
C1270 H1254 0.931 . S
C1270 C1264 1.383 1_556 S
C1270 C1269 1.379 . S
H1271 C1265 0.959 . S
H1272 C1265 0.961 . S
H1273 C1265 0.960 . S
H1274 C1266 0.930 . S
H1275 C1267 0.929 . S
H1276 C1284 0.929 . S
H1277 C1286 0.930 . S
H1278 C1288 0.930 . S
H1279 C1291 0.929 . S
H1280 C1294 0.930 . S
H1281 C1296 0.960 . S
H1282 C1296 0.960 . S
H1283 C1296 0.960 . S
C1284 H1276 0.929 . S
C1284 C1285 1.377 . S
C1284 C1286 1.384 . S
C1285 C1284 1.377 . S
C1285 C1291 1.390 . S
C1286 H1277 0.930 . S
C1286 C1284 1.384 . S
C1286 C1287 1.372 . S
C1287 C1286 1.372 . S
C1287 C1288 1.400 . S
C1287 C1292 1.490 . S
C1288 H1278 0.930 . S
C1288 C1287 1.400 . S
C1288 C1291 1.386 . S
H1289 C1305 0.930 . S
H1290 C1306 0.931 . S
C1291 H1279 0.929 . S
C1291 C1285 1.390 . S
C1291 C1288 1.386 . S
C1292 C1287 1.490 . S
C1292 C1294 1.395 . S
C1292 C1295 1.403 . S
H1293 C1299 0.930 . S
C1294 H1280 0.930 . S
C1294 C1292 1.395 . S
C1294 C1297 1.403 . S
C1295 C1292 1.403 . S
C1295 C1296 1.524 . S
C1295 C1299 1.400 . S
C1296 H1281 0.960 . S
C1296 H1282 0.960 . S
C1296 H1283 0.960 . S
C1296 C1295 1.524 . S
C1297 C1294 1.403 . S
C1297 C1298 1.392 . S
C1297 C1301 1.495 . S
C1298 C1297 1.392 . S
C1298 C1299 1.385 . S
C1298 C1300 1.478 . S
C1299 H1293 0.930 . S
C1299 C1295 1.400 . S
C1299 C1298 1.385 . S
C1300 C1298 1.478 . S
C1300 C1302 1.381 . S
C1300 C1306 1.383 . S
C1301 C1297 1.495 . S
C1301 H1307 0.959 . S
C1301 H1308 0.961 . S
C1301 H1309 0.960 . S
C1302 C1300 1.381 . S
C1302 C1303 1.394 . S
C1302 H1310 0.930 . S
C1303 C1302 1.394 . S
C1303 C1304 1.383 . S
C1303 H1311 0.929 . S
C1304 C1303 1.383 . S
C1304 C1305 1.377 . S
C1305 H1289 0.930 . S
C1305 C1304 1.377 . S
C1305 C1306 1.379 . S
C1306 H1290 0.931 . S
C1306 C1300 1.383 . S
C1306 C1305 1.379 . S
H1307 C1301 0.959 . S
H1308 C1301 0.961 . S
H1309 C1301 0.960 . S
H1310 C1302 0.930 . S
H1311 C1303 0.929 . S
H1312 C1320 0.929 . S
H1313 C1322 0.930 . S
H1314 C1324 0.930 . S
H1315 C1327 0.929 . S
H1316 C1330 0.930 . S
H1317 C1332 0.960 . S
H1318 C1332 0.960 . S
H1319 C1332 0.960 . S
C1320 H1312 0.929 . S
C1320 C1321 1.377 . S
C1320 C1322 1.384 . S
C1321 C1320 1.377 . S
C1321 C1327 1.390 . S
C1322 H1313 0.930 . S
C1322 C1320 1.384 . S
C1322 C1323 1.372 . S
C1323 C1322 1.372 . S
C1323 C1324 1.400 . S
C1323 C1328 1.490 . S
C1324 H1314 0.930 . S
C1324 C1323 1.400 . S
C1324 C1327 1.386 . S
H1325 C1341 0.930 . S
H1326 C1342 0.931 . S
C1327 H1315 0.929 . S
C1327 C1321 1.390 . S
C1327 C1324 1.386 . S
C1328 C1323 1.490 . S
C1328 C1330 1.395 . S
C1328 C1331 1.403 . S
H1329 C1335 0.930 . S
C1330 H1316 0.930 . S
C1330 C1328 1.395 . S
C1330 C1333 1.403 . S
C1331 C1328 1.403 . S
C1331 C1332 1.524 . S
C1331 C1335 1.400 . S
C1332 H1317 0.960 . S
C1332 H1318 0.960 . S
C1332 H1319 0.960 . S
C1332 C1331 1.524 . S
C1333 C1330 1.403 . S
C1333 C1334 1.392 . S
C1333 C1337 1.495 . S
C1334 C1333 1.392 . S
C1334 C1335 1.385 . S
C1334 C1336 1.478 . S
C1335 H1329 0.930 . S
C1335 C1331 1.400 . S
C1335 C1334 1.385 . S
C1336 C1334 1.478 . S
C1336 C1338 1.381 . S
C1336 C1342 1.383 . S
C1337 C1333 1.495 . S
C1337 H1343 0.959 . S
C1337 H1344 0.961 . S
C1337 H1345 0.960 . S
C1338 C1336 1.381 . S
C1338 C1339 1.394 . S
C1338 H1346 0.930 . S
C1339 C1338 1.394 . S
C1339 C1340 1.383 . S
C1339 H1347 0.929 . S
C1340 C1339 1.383 . S
C1340 C1341 1.377 . S
C1341 H1325 0.930 . S
C1341 C1340 1.377 . S
C1341 C1342 1.379 . S
C1342 H1326 0.931 . S
C1342 C1336 1.383 . S
C1342 C1341 1.379 . S
H1343 C1337 0.959 . S
H1344 C1337 0.961 . S
H1345 C1337 0.960 . S
H1346 C1338 0.930 . S
H1347 C1339 0.929 . S
H1348 C1356 0.929 . S
H1349 C1358 0.930 . S
H1350 C1360 0.930 . S
H1351 C1363 0.929 . S
H1352 C1366 0.930 . S
H1353 C1368 0.960 . S
H1354 C1368 0.960 . S
H1355 C1368 0.960 . S
C1356 H1348 0.929 . S
C1356 C1357 1.377 . S
C1356 C1358 1.384 . S
C1357 C1356 1.377 . S
C1357 C1363 1.390 . S
C1358 H1349 0.930 . S
C1358 C1356 1.384 . S
C1358 C1359 1.372 . S
C1359 C1358 1.372 . S
C1359 C1360 1.400 . S
C1359 C1364 1.490 . S
C1360 H1350 0.930 . S
C1360 C1359 1.400 . S
C1360 C1363 1.386 . S
H1361 C1377 0.930 . S
H1362 C1378 0.931 . S
C1363 H1351 0.929 . S
C1363 C1357 1.390 . S
C1363 C1360 1.386 . S
C1364 C1359 1.490 . S
C1364 C1366 1.395 1_655 S
C1364 C1367 1.403 . S
H1365 C1371 0.930 . S
C1366 H1352 0.930 . S
C1366 C1364 1.395 1_455 S
C1366 C1369 1.403 . S
C1367 C1364 1.403 . S
C1367 C1368 1.524 . S
C1367 C1371 1.400 . S
C1368 H1353 0.960 . S
C1368 H1354 0.960 . S
C1368 H1355 0.960 . S
C1368 C1367 1.524 . S
C1369 C1366 1.403 . S
C1369 C1370 1.392 . S
C1369 C1373 1.495 . S
C1370 C1369 1.392 . S
C1370 C1371 1.385 1_455 S
C1370 C1372 1.478 . S
C1371 H1365 0.930 . S
C1371 C1367 1.400 . S
C1371 C1370 1.385 1_655 S
C1372 C1370 1.478 . S
C1372 C1374 1.381 . S
C1372 C1378 1.383 . S
C1373 C1369 1.495 . S
C1373 H1379 0.959 . S
C1373 H1380 0.961 . S
C1373 H1381 0.960 . S
C1374 C1372 1.381 . S
C1374 C1375 1.394 . S
C1374 H1382 0.930 . S
C1375 C1374 1.394 . S
C1375 C1376 1.383 . S
C1375 H1383 0.929 . S
C1376 C1375 1.383 . S
C1376 C1377 1.377 . S
C1377 H1361 0.930 . S
C1377 C1376 1.377 . S
C1377 C1378 1.379 . S
C1378 H1362 0.931 . S
C1378 C1372 1.383 . S
C1378 C1377 1.379 . S
H1379 C1373 0.959 . S
H1380 C1373 0.961 . S
H1381 C1373 0.960 . S
H1382 C1374 0.930 . S
H1383 C1375 0.929 . S
H1384 C1392 0.929 . S
H1385 C1394 0.930 . S
H1386 C1396 0.930 . S
H1387 C1399 0.929 . S
H1388 C1402 0.930 . S
H1389 C1404 0.960 . S
H1390 C1404 0.960 . S
H1391 C1404 0.960 . S
C1392 H1384 0.929 . S
C1392 C1393 1.377 . S
C1392 C1394 1.384 . S
C1393 C1392 1.377 . S
C1393 C1399 1.390 . S
C1394 H1385 0.930 . S
C1394 C1392 1.384 . S
C1394 C1395 1.372 . S
C1395 C1394 1.372 . S
C1395 C1396 1.400 . S
C1395 C1400 1.490 . S
C1396 H1386 0.930 . S
C1396 C1395 1.400 . S
C1396 C1399 1.386 . S
H1397 C1413 0.930 . S
H1398 C1414 0.931 . S
C1399 H1387 0.929 . S
C1399 C1393 1.390 . S
C1399 C1396 1.386 . S
C1400 C1395 1.490 . S
C1400 C1402 1.395 . S
C1400 C1403 1.403 . S
H1401 C1407 0.930 . S
C1402 H1388 0.930 . S
C1402 C1400 1.395 . S
C1402 C1405 1.403 . S
C1403 C1400 1.403 . S
C1403 C1404 1.524 . S
C1403 C1407 1.400 . S
C1404 H1389 0.960 . S
C1404 H1390 0.960 . S
C1404 H1391 0.960 . S
C1404 C1403 1.524 . S
C1405 C1402 1.403 . S
C1405 C1406 1.392 . S
C1405 C1409 1.495 . S
C1406 C1405 1.392 . S
C1406 C1407 1.385 . S
C1406 C1408 1.478 . S
C1407 H1401 0.930 . S
C1407 C1403 1.400 . S
C1407 C1406 1.385 . S
C1408 C1406 1.478 . S
C1408 C1410 1.381 . S
C1408 C1414 1.383 . S
C1409 C1405 1.495 . S
C1409 H1415 0.959 . S
C1409 H1416 0.961 . S
C1409 H1417 0.960 . S
C1410 C1408 1.381 . S
C1410 C1411 1.394 . S
C1410 H1418 0.930 . S
C1411 C1410 1.394 . S
C1411 C1412 1.383 . S
C1411 H1419 0.929 . S
C1412 C1411 1.383 . S
C1412 C1413 1.377 . S
C1413 H1397 0.930 . S
C1413 C1412 1.377 . S
C1413 C1414 1.379 . S
C1414 H1398 0.931 . S
C1414 C1408 1.383 . S
C1414 C1413 1.379 . S
H1415 C1409 0.959 . S
H1416 C1409 0.961 . S
H1417 C1409 0.960 . S
H1418 C1410 0.930 . S
H1419 C1411 0.929 . S
H1420 C1428 0.929 . S
H1421 C1430 0.930 . S
H1422 C1432 0.930 . S
H1423 C1435 0.929 . S
H1424 C1438 0.930 . S
H1425 C1440 0.960 . S
H1426 C1440 0.960 . S
H1427 C1440 0.960 . S
C1428 H1420 0.929 . S
C1428 C1429 1.377 . S
C1428 C1430 1.384 . S
C1429 C1428 1.377 . S
C1429 C1435 1.390 . S
C1430 H1421 0.930 . S
C1430 C1428 1.384 . S
C1430 C1431 1.372 . S
C1431 C1430 1.372 . S
C1431 C1432 1.400 . S
C1431 C1436 1.490 . S
C1432 H1422 0.930 . S
C1432 C1431 1.400 . S
C1432 C1435 1.386 . S
H1433 C1449 0.930 . S
H1434 C1450 0.931 . S
C1435 H1423 0.929 . S
C1435 C1429 1.390 . S
C1435 C1432 1.386 . S
C1436 C1431 1.490 . S
C1436 C1438 1.395 . S
C1436 C1439 1.403 . S
H1437 C1443 0.930 . S
C1438 H1424 0.930 . S
C1438 C1436 1.395 . S
C1438 C1441 1.403 . S
C1439 C1436 1.403 . S
C1439 C1440 1.524 . S
C1439 C1443 1.400 . S
C1440 H1425 0.960 . S
C1440 H1426 0.960 . S
C1440 H1427 0.960 . S
C1440 C1439 1.524 . S
C1441 C1438 1.403 . S
C1441 C1442 1.392 . S
C1441 C1445 1.495 . S
C1442 C1441 1.392 . S
C1442 C1443 1.385 . S
C1442 C1444 1.478 . S
C1443 H1437 0.930 . S
C1443 C1439 1.400 . S
C1443 C1442 1.385 . S
C1444 C1442 1.478 . S
C1444 C1446 1.381 . S
C1444 C1450 1.383 . S
C1445 C1441 1.495 . S
C1445 H1451 0.959 . S
C1445 H1452 0.961 . S
C1445 H1453 0.960 . S
C1446 C1444 1.381 . S
C1446 C1447 1.394 . S
C1446 H1454 0.930 . S
C1447 C1446 1.394 . S
C1447 C1448 1.383 . S
C1447 H1455 0.929 . S
C1448 C1447 1.383 . S
C1448 C1449 1.377 . S
C1449 H1433 0.930 . S
C1449 C1448 1.377 . S
C1449 C1450 1.379 . S
C1450 H1434 0.931 . S
C1450 C1444 1.383 . S
C1450 C1449 1.379 . S
H1451 C1445 0.959 . S
H1452 C1445 0.961 . S
H1453 C1445 0.960 . S
H1454 C1446 0.930 . S
H1455 C1447 0.929 . S
H1456 C1464 0.929 . S
H1457 C1466 0.930 . S
H1458 C1468 0.930 . S
H1459 C1471 0.929 . S
H1460 C1474 0.930 . S
H1461 C1476 0.960 . S
H1462 C1476 0.960 . S
H1463 C1476 0.960 . S
C1464 H1456 0.929 . S
C1464 C1465 1.377 . S
C1464 C1466 1.384 . S
C1465 C1464 1.377 . S
C1465 C1471 1.390 . S
C1466 H1457 0.930 . S
C1466 C1464 1.384 . S
C1466 C1467 1.372 . S
C1467 C1466 1.372 . S
C1467 C1468 1.400 . S
C1467 C1472 1.490 . S
C1468 H1458 0.930 . S
C1468 C1467 1.400 . S
C1468 C1471 1.386 . S
H1469 C1485 0.930 . S
H1470 C1486 0.931 . S
C1471 H1459 0.929 . S
C1471 C1465 1.390 . S
C1471 C1468 1.386 . S
C1472 C1467 1.490 . S
C1472 C1474 1.395 . S
C1472 C1475 1.403 . S
H1473 C1479 0.930 . S
C1474 H1460 0.930 . S
C1474 C1472 1.395 . S
C1474 C1477 1.403 . S
C1475 C1472 1.403 . S
C1475 C1476 1.524 . S
C1475 C1479 1.400 . S
C1476 H1461 0.960 . S
C1476 H1462 0.960 . S
C1476 H1463 0.960 . S
C1476 C1475 1.524 . S
C1477 C1474 1.403 . S
C1477 C1478 1.392 . S
C1477 C1481 1.495 . S
C1478 C1477 1.392 . S
C1478 C1479 1.385 . S
C1478 C1480 1.478 . S
C1479 H1473 0.930 . S
C1479 C1475 1.400 . S
C1479 C1478 1.385 . S
C1480 C1478 1.478 . S
C1480 C1482 1.381 . S
C1480 C1486 1.383 . S
C1481 C1477 1.495 . S
C1481 H1487 0.959 . S
C1481 H1488 0.961 . S
C1481 H1489 0.960 . S
C1482 C1480 1.381 . S
C1482 C1483 1.394 . S
C1482 H1490 0.930 . S
C1483 C1482 1.394 . S
C1483 C1484 1.383 . S
C1483 H1491 0.929 . S
C1484 C1483 1.383 . S
C1484 C1485 1.377 . S
C1485 H1469 0.930 . S
C1485 C1484 1.377 . S
C1485 C1486 1.379 . S
C1486 H1470 0.931 . S
C1486 C1480 1.383 . S
C1486 C1485 1.379 . S
H1487 C1481 0.959 . S
H1488 C1481 0.961 . S
H1489 C1481 0.960 . S
H1490 C1482 0.930 . S
H1491 C1483 0.929 . S
H1492 C1500 0.929 . S
H1493 C1502 0.930 . S
H1494 C1504 0.930 . S
H1495 C1507 0.929 . S
H1496 C1510 0.930 . S
H1497 C1512 0.960 1_565 S
H1498 C1512 0.960 . S
H1499 C1512 0.960 . S
C1500 H1492 0.929 . S
C1500 C1501 1.377 . S
C1500 C1502 1.384 . S
C1501 C1500 1.377 . S
C1501 C1507 1.390 . S
C1502 H1493 0.930 . S
C1502 C1500 1.384 . S
C1502 C1503 1.372 . S
C1503 C1502 1.372 . S
C1503 C1504 1.400 . S
C1503 C1508 1.490 . S
C1504 H1494 0.930 . S
C1504 C1503 1.400 . S
C1504 C1507 1.386 . S
H1505 C1521 0.930 . S
H1506 C1522 0.931 . S
C1507 H1495 0.929 . S
C1507 C1501 1.390 . S
C1507 C1504 1.386 . S
C1508 C1503 1.490 . S
C1508 C1510 1.395 . S
C1508 C1511 1.403 . S
H1509 C1515 0.930 . S
C1510 H1496 0.930 . S
C1510 C1508 1.395 . S
C1510 C1513 1.403 1_545 S
C1511 C1508 1.403 . S
C1511 C1512 1.524 . S
C1511 C1515 1.400 1_545 S
C1512 H1497 0.960 1_545 S
C1512 H1498 0.960 . S
C1512 H1499 0.960 . S
C1512 C1511 1.524 . S
C1513 C1510 1.403 1_565 S
C1513 C1514 1.392 . S
C1513 C1517 1.495 . S
C1514 C1513 1.392 . S
C1514 C1515 1.385 . S
C1514 C1516 1.478 . S
C1515 H1509 0.930 . S
C1515 C1511 1.400 1_565 S
C1515 C1514 1.385 . S
C1516 C1514 1.478 . S
C1516 C1518 1.381 . S
C1516 C1522 1.383 . S
C1517 C1513 1.495 . S
C1517 H1523 0.959 1_565 S
C1517 H1524 0.961 . S
C1517 H1525 0.960 . S
C1518 C1516 1.381 . S
C1518 C1519 1.394 . S
C1518 H1526 0.930 . S
C1519 C1518 1.394 . S
C1519 C1520 1.383 . S
C1519 H1527 0.929 . S
C1520 C1519 1.383 . S
C1520 C1521 1.377 . S
C1521 H1505 0.930 . S
C1521 C1520 1.377 . S
C1521 C1522 1.379 . S
C1522 H1506 0.931 . S
C1522 C1516 1.383 . S
C1522 C1521 1.379 . S
H1523 C1517 0.959 1_545 S
H1524 C1517 0.961 . S
H1525 C1517 0.960 . S
H1526 C1518 0.930 . S
H1527 C1519 0.929 . S
H1528 C1536 0.929 . S
H1529 C1538 0.930 . S
H1530 C1540 0.930 . S
H1531 C1543 0.929 . S
H1532 C1546 0.930 . S
H1533 C1548 0.960 . S
H1534 C1548 0.960 . S
H1535 C1548 0.960 . S
C1536 H1528 0.929 . S
C1536 C1537 1.377 . S
C1536 C1538 1.384 . S
C1537 C1536 1.377 . S
C1537 C1543 1.390 . S
C1538 H1529 0.930 . S
C1538 C1536 1.384 . S
C1538 C1539 1.372 . S
C1539 C1538 1.372 . S
C1539 C1540 1.400 . S
C1539 C1544 1.490 . S
C1540 H1530 0.930 . S
C1540 C1539 1.400 . S
C1540 C1543 1.386 . S
H1541 C1557 0.930 . S
H1542 C1558 0.931 . S
C1543 H1531 0.929 . S
C1543 C1537 1.390 . S
C1543 C1540 1.386 . S
C1544 C1539 1.490 . S
C1544 C1546 1.395 . S
C1544 C1547 1.403 . S
H1545 C1551 0.930 . S
C1546 H1532 0.930 . S
C1546 C1544 1.395 . S
C1546 C1549 1.403 . S
C1547 C1544 1.403 . S
C1547 C1548 1.524 . S
C1547 C1551 1.400 . S
C1548 H1533 0.960 . S
C1548 H1534 0.960 . S
C1548 H1535 0.960 . S
C1548 C1547 1.524 . S
C1549 C1546 1.403 . S
C1549 C1550 1.392 . S
C1549 C1553 1.495 . S
C1550 C1549 1.392 . S
C1550 C1551 1.385 . S
C1550 C1552 1.478 . S
C1551 H1545 0.930 . S
C1551 C1547 1.400 . S
C1551 C1550 1.385 . S
C1552 C1550 1.478 . S
C1552 C1554 1.381 . S
C1552 C1558 1.383 . S
C1553 C1549 1.495 . S
C1553 H1559 0.959 . S
C1553 H1560 0.961 . S
C1553 H1561 0.960 . S
C1554 C1552 1.381 . S
C1554 C1555 1.394 . S
C1554 H1562 0.930 . S
C1555 C1554 1.394 . S
C1555 C1556 1.383 . S
C1555 H1563 0.929 . S
C1556 C1555 1.383 . S
C1556 C1557 1.377 . S
C1557 H1541 0.930 . S
C1557 C1556 1.377 . S
C1557 C1558 1.379 . S
C1558 H1542 0.931 . S
C1558 C1552 1.383 . S
C1558 C1557 1.379 . S
H1559 C1553 0.959 . S
H1560 C1553 0.961 . S
H1561 C1553 0.960 . S
H1562 C1554 0.930 . S
H1563 C1555 0.929 . S
H1564 C1572 0.929 . S
H1565 C1574 0.930 . S
H1566 C1576 0.930 . S
H1567 C1579 0.929 . S
H1568 C1582 0.930 . S
H1569 C1584 0.960 . S
H1570 C1584 0.960 . S
H1571 C1584 0.960 . S
C1572 H1564 0.929 . S
C1572 C1573 1.377 . S
C1572 C1574 1.384 . S
C1573 C1572 1.377 . S
C1573 C1579 1.390 1_554 S
C1574 H1565 0.930 . S
C1574 C1572 1.384 . S
C1574 C1575 1.372 . S
C1575 C1574 1.372 . S
C1575 C1576 1.400 1_554 S
C1575 C1580 1.490 . S
C1576 H1566 0.930 . S
C1576 C1575 1.400 1_556 S
C1576 C1579 1.386 . S
H1577 C1593 0.930 . S
H1578 C1594 0.931 . S
C1579 H1567 0.929 . S
C1579 C1573 1.390 1_556 S
C1579 C1576 1.386 . S
C1580 C1575 1.490 . S
C1580 C1582 1.395 . S
C1580 C1583 1.403 1_554 S
H1581 C1587 0.930 . S
C1582 H1568 0.930 . S
C1582 C1580 1.395 . S
C1582 C1585 1.403 . S
C1583 C1580 1.403 1_556 S
C1583 C1584 1.524 . S
C1583 C1587 1.400 . S
C1584 H1569 0.960 . S
C1584 H1570 0.960 . S
C1584 H1571 0.960 . S
C1584 C1583 1.524 . S
C1585 C1582 1.403 . S
C1585 C1586 1.392 . S
C1585 C1589 1.495 . S
C1586 C1585 1.392 . S
C1586 C1587 1.385 1_554 S
C1586 C1588 1.478 1_554 S
C1587 H1581 0.930 . S
C1587 C1583 1.400 . S
C1587 C1586 1.385 1_556 S
C1588 C1586 1.478 1_556 S
C1588 C1590 1.381 1_556 S
C1588 C1594 1.383 . S
C1589 C1585 1.495 . S
C1589 H1595 0.959 . S
C1589 H1596 0.961 . S
C1589 H1597 0.960 . S
C1590 C1588 1.381 1_554 S
C1590 C1591 1.394 . S
C1590 H1598 0.930 . S
C1591 C1590 1.394 . S
C1591 C1592 1.383 1_554 S
C1591 H1599 0.929 . S
C1592 C1591 1.383 1_556 S
C1592 C1593 1.377 . S
C1593 H1577 0.930 . S
C1593 C1592 1.377 . S
C1593 C1594 1.379 . S
C1594 H1578 0.931 . S
C1594 C1588 1.383 . S
C1594 C1593 1.379 . S
H1595 C1589 0.959 . S
H1596 C1589 0.961 . S
H1597 C1589 0.960 . S
H1598 C1590 0.930 . S
H1599 C1591 0.929 . S
H1600 C1608 0.929 . S
H1601 C1610 0.930 . S
H1602 C1612 0.930 . S
H1603 C1615 0.929 . S
H1604 C1618 0.930 . S
H1605 C1620 0.960 . S
H1606 C1620 0.960 . S
H1607 C1620 0.960 . S
C1608 H1600 0.929 . S
C1608 C1609 1.377 . S
C1608 C1610 1.384 . S
C1609 C1608 1.377 . S
C1609 C1615 1.390 . S
C1610 H1601 0.930 . S
C1610 C1608 1.384 . S
C1610 C1611 1.372 . S
C1611 C1610 1.372 . S
C1611 C1612 1.400 . S
C1611 C1616 1.490 . S
C1612 H1602 0.930 . S
C1612 C1611 1.400 . S
C1612 C1615 1.386 . S
H1613 C1629 0.930 . S
H1614 C1630 0.931 . S
C1615 H1603 0.929 . S
C1615 C1609 1.390 . S
C1615 C1612 1.386 . S
C1616 C1611 1.490 . S
C1616 C1618 1.395 . S
C1616 C1619 1.403 . S
H1617 C1623 0.930 . S
C1618 H1604 0.930 . S
C1618 C1616 1.395 . S
C1618 C1621 1.403 . S
C1619 C1616 1.403 . S
C1619 C1620 1.524 . S
C1619 C1623 1.400 . S
C1620 H1605 0.960 . S
C1620 H1606 0.960 . S
C1620 H1607 0.960 . S
C1620 C1619 1.524 . S
C1621 C1618 1.403 . S
C1621 C1622 1.392 . S
C1621 C1625 1.495 . S
C1622 C1621 1.392 . S
C1622 C1623 1.385 . S
C1622 C1624 1.478 . S
C1623 H1617 0.930 . S
C1623 C1619 1.400 . S
C1623 C1622 1.385 . S
C1624 C1622 1.478 . S
C1624 C1626 1.381 . S
C1624 C1630 1.383 . S
C1625 C1621 1.495 . S
C1625 H1631 0.959 . S
C1625 H1632 0.961 . S
C1625 H1633 0.960 . S
C1626 C1624 1.381 . S
C1626 C1627 1.394 . S
C1626 H1634 0.930 . S
C1627 C1626 1.394 . S
C1627 C1628 1.383 . S
C1627 H1635 0.929 . S
C1628 C1627 1.383 . S
C1628 C1629 1.377 . S
C1629 H1613 0.930 . S
C1629 C1628 1.377 . S
C1629 C1630 1.379 . S
C1630 H1614 0.931 . S
C1630 C1624 1.383 . S
C1630 C1629 1.379 . S
H1631 C1625 0.959 . S
H1632 C1625 0.961 . S
H1633 C1625 0.960 . S
H1634 C1626 0.930 . S
H1635 C1627 0.929 . S
H1636 C1644 0.929 . S
H1637 C1646 0.930 . S
H1638 C1648 0.930 . S
H1639 C1651 0.929 . S
H1640 C1654 0.930 . S
H1641 C1656 0.960 . S
H1642 C1656 0.999 . S
H1643 C1656 0.960 . S
C1644 H1636 0.929 . S
C1644 C1645 1.377 1_554 S
C1644 C1646 1.384 . S
C1645 C1644 1.377 1_556 S
C1645 C1651 1.390 . S
C1646 H1637 0.930 . S
C1646 C1644 1.384 . S
C1646 C1647 1.372 1_554 S
C1647 C1646 1.372 1_556 S
C1647 C1648 1.400 . S
C1647 C1652 1.490 . S
C1648 H1638 0.930 . S
C1648 C1647 1.400 . S
C1648 C1651 1.386 . S
H1649 C1665 0.930 . S
H1650 C1666 0.931 . S
C1651 H1639 0.929 . S
C1651 C1645 1.390 . S
C1651 C1648 1.386 . S
C1652 C1647 1.490 . S
C1652 C1654 1.395 . S
C1652 C1655 1.403 . S
H1653 C1659 0.930 . S
C1654 H1640 0.930 . S
C1654 C1652 1.395 . S
C1654 C1657 1.403 . S
C1655 C1652 1.403 . S
C1655 C1656 1.524 . S
C1655 C1659 1.400 . S
C1656 H1641 0.960 . S
C1656 H1642 0.999 . S
C1656 H1643 0.960 . S
C1656 C1655 1.524 . S
C1657 C1654 1.403 . S
C1657 C1658 1.392 . S
C1657 C1661 1.495 . S
C1658 C1657 1.392 . S
C1658 C1659 1.385 . S
C1658 C1660 1.478 . S
C1659 H1653 0.930 . S
C1659 C1655 1.400 . S
C1659 C1658 1.385 . S
C1660 C1658 1.478 . S
C1660 C1662 1.381 1_556 S
C1660 C1666 1.383 . S
C1661 C1657 1.495 . S
C1661 H1667 0.959 . S
C1661 H1668 0.961 . S
C1661 H1669 0.960 1_556 S
C1662 C1660 1.381 1_554 S
C1662 C1663 1.394 . S
C1662 H1670 0.930 . S
C1663 C1662 1.394 . S
C1663 C1664 1.383 1_554 S
C1663 H1671 0.929 . S
C1664 C1663 1.383 1_556 S
C1664 C1665 1.377 . S
C1665 H1649 0.930 . S
C1665 C1664 1.377 . S
C1665 C1666 1.379 . S
C1666 H1650 0.931 . S
C1666 C1660 1.383 . S
C1666 C1665 1.379 . S
H1667 C1661 0.959 . S
H1668 C1661 0.961 . S
H1669 C1661 0.960 1_554 S
H1670 C1662 0.930 . S
H1671 C1663 0.929 . S
H1672 C1680 0.929 . S
H1673 C1682 0.930 . S
H1674 C1684 0.930 . S
H1675 C1687 0.929 . S
H1676 C1690 0.930 . S
H1677 C1692 0.960 . S
H1678 C1692 0.960 . S
H1679 C1692 0.960 . S
C1680 H1672 0.929 . S
C1680 C1681 1.377 . S
C1680 C1682 1.384 . S
C1681 C1680 1.377 . S
C1681 C1687 1.390 . S
C1682 H1673 0.930 . S
C1682 C1680 1.384 . S
C1682 C1683 1.372 . S
C1683 C1682 1.372 . S
C1683 C1684 1.400 . S
C1683 C1688 1.490 . S
C1684 H1674 0.930 . S
C1684 C1683 1.400 . S
C1684 C1687 1.386 . S
H1685 C1701 0.930 . S
H1686 C1702 0.931 . S
C1687 H1675 0.929 . S
C1687 C1681 1.390 . S
C1687 C1684 1.386 . S
C1688 C1683 1.490 . S
C1688 C1690 1.395 . S
C1688 C1691 1.403 . S
H1689 C1695 0.930 . S
C1690 H1676 0.930 . S
C1690 C1688 1.395 . S
C1690 C1693 1.403 . S
C1691 C1688 1.403 . S
C1691 C1692 1.524 . S
C1691 C1695 1.400 . S
C1692 H1677 0.960 . S
C1692 H1678 0.960 . S
C1692 H1679 0.960 . S
C1692 C1691 1.524 . S
C1693 C1690 1.403 . S
C1693 C1694 1.392 . S
C1693 C1697 1.495 . S
C1694 C1693 1.392 . S
C1694 C1695 1.385 . S
C1694 C1696 1.478 . S
C1695 H1689 0.930 . S
C1695 C1691 1.400 . S
C1695 C1694 1.385 . S
C1696 C1694 1.478 . S
C1696 C1698 1.381 . S
C1696 C1702 1.383 . S
C1697 C1693 1.495 . S
C1697 H1703 0.959 . S
C1697 H1704 0.961 . S
C1697 H1705 0.960 . S
C1698 C1696 1.381 . S
C1698 C1699 1.394 . S
C1698 H1706 0.930 . S
C1699 C1698 1.394 . S
C1699 C1700 1.383 . S
C1699 H1707 0.929 . S
C1700 C1699 1.383 . S
C1700 C1701 1.377 . S
C1701 H1685 0.930 . S
C1701 C1700 1.377 . S
C1701 C1702 1.379 . S
C1702 H1686 0.931 . S
C1702 C1696 1.383 . S
C1702 C1701 1.379 . S
H1703 C1697 0.959 . S
H1704 C1697 0.961 . S
H1705 C1697 0.960 . S
H1706 C1698 0.930 . S
H1707 C1699 0.929 . S
H1708 C1716 0.929 . S
H1709 C1718 0.930 . S
H1710 C1720 0.930 . S
H1711 C1723 0.929 . S
H1712 C1726 0.930 . S
H1713 C1728 0.960 . S
H1714 C1728 0.960 . S
H1715 C1728 0.960 . S
C1716 H1708 0.929 . S
C1716 C1717 1.377 . S
C1716 C1718 1.384 . S
C1717 C1716 1.377 . S
C1717 C1723 1.390 1_554 S
C1718 H1709 0.930 . S
C1718 C1716 1.384 . S
C1718 C1719 1.372 . S
C1719 C1718 1.372 . S
C1719 C1720 1.400 1_554 S
C1719 C1724 1.490 . S
C1720 H1710 0.930 . S
C1720 C1719 1.400 1_556 S
C1720 C1723 1.386 . S
H1721 C1737 0.930 . S
H1722 C1738 0.931 . S
C1723 H1711 0.929 . S
C1723 C1717 1.390 1_556 S
C1723 C1720 1.386 . S
C1724 C1719 1.490 . S
C1724 C1726 1.395 . S
C1724 C1727 1.408 . S
H1725 C1731 0.930 1_556 S
C1726 H1712 0.930 . S
C1726 C1724 1.395 . S
C1726 C1729 1.403 . S
C1727 C1724 1.408 . S
C1727 C1728 1.518 1_554 S
C1727 C1731 1.400 . S
C1728 H1713 0.960 . S
C1728 H1714 0.960 . S
C1728 H1715 0.960 . S
C1728 C1727 1.518 1_556 S
C1729 C1726 1.403 . S
C1729 C1730 1.392 . S
C1729 C1733 1.495 . S
C1730 C1729 1.392 . S
C1730 C1731 1.385 . S
C1730 C1732 1.478 . S
C1731 H1725 0.930 1_554 S
C1731 C1727 1.400 . S
C1731 C1730 1.385 . S
C1732 C1730 1.478 . S
C1732 C1734 1.381 . S
C1732 C1738 1.383 1_554 S
C1733 C1729 1.495 . S
C1733 H1739 0.959 . S
C1733 H1740 0.961 . S
C1733 H1741 0.960 . S
C1734 C1732 1.381 . S
C1734 C1735 1.394 . S
C1734 H1742 0.930 . S
C1735 C1734 1.394 . S
C1735 C1736 1.383 . S
C1735 H1743 0.929 . S
C1736 C1735 1.383 . S
C1736 C1737 1.377 1_554 S
C1737 H1721 0.930 . S
C1737 C1736 1.377 1_556 S
C1737 C1738 1.379 . S
C1738 H1722 0.931 . S
C1738 C1732 1.383 1_556 S
C1738 C1737 1.379 . S
H1739 C1733 0.959 . S
H1740 C1733 0.961 . S
H1741 C1733 0.960 . S
H1742 C1734 0.930 . S
H1743 C1735 0.929 . S
H1744 C1752 0.929 . S
H1745 C1754 0.930 . S
H1746 C1756 0.930 . S
H1747 C1759 0.929 . S
H1748 C1762 0.930 . S
H1749 C1764 0.960 . S
H1750 C1764 0.960 . S
H1751 C1764 0.960 . S
C1752 H1744 0.929 . S
C1752 C1753 1.377 . S
C1752 C1754 1.384 . S
C1753 C1752 1.377 . S
C1753 C1759 1.390 . S
C1754 H1745 0.930 . S
C1754 C1752 1.384 . S
C1754 C1755 1.372 . S
C1755 C1754 1.372 . S
C1755 C1756 1.400 . S
C1755 C1760 1.490 . S
C1756 H1746 0.930 . S
C1756 C1755 1.400 . S
C1756 C1759 1.386 . S
H1757 C1773 0.930 . S
H1758 C1774 0.931 . S
C1759 H1747 0.929 . S
C1759 C1753 1.390 . S
C1759 C1756 1.386 . S
C1760 C1755 1.490 . S
C1760 C1762 1.395 . S
C1760 C1763 1.403 . S
H1761 C1767 0.930 . S
C1762 H1748 0.930 . S
C1762 C1760 1.395 . S
C1762 C1765 1.403 . S
C1763 C1760 1.403 . S
C1763 C1764 1.524 . S
C1763 C1767 1.400 . S
C1764 H1749 0.960 . S
C1764 H1750 0.960 . S
C1764 H1751 0.960 . S
C1764 C1763 1.524 . S
C1765 C1762 1.403 . S
C1765 C1766 1.392 . S
C1765 C1769 1.495 . S
C1766 C1765 1.392 . S
C1766 C1767 1.385 . S
C1766 C1768 1.478 . S
C1767 H1761 0.930 . S
C1767 C1763 1.400 . S
C1767 C1766 1.385 . S
C1768 C1766 1.478 . S
C1768 C1770 1.381 . S
C1768 C1774 1.383 . S
C1769 C1765 1.495 . S
C1769 H1775 0.959 . S
C1769 H1776 0.961 . S
C1769 H1777 0.960 . S
C1770 C1768 1.381 . S
C1770 C1771 1.394 . S
C1770 H1778 0.930 . S
C1771 C1770 1.394 . S
C1771 C1772 1.383 . S
C1771 H1779 0.929 . S
C1772 C1771 1.383 . S
C1772 C1773 1.377 . S
C1773 H1757 0.930 . S
C1773 C1772 1.377 . S
C1773 C1774 1.379 . S
C1774 H1758 0.931 . S
C1774 C1768 1.383 . S
C1774 C1773 1.379 . S
H1775 C1769 0.959 . S
H1776 C1769 0.961 . S
H1777 C1769 0.960 . S
H1778 C1770 0.930 . S
H1779 C1771 0.929 . S
H1780 C1788 0.929 . S
H1781 C1790 0.930 . S
H1782 C1792 0.930 . S
H1783 C1795 0.929 . S
H1784 C1798 0.930 . S
H1785 C1800 0.960 . S
H1786 C1800 0.960 . S
H1787 C1800 0.960 . S
C1788 H1780 0.929 . S
C1788 C1789 1.377 . S
C1788 C1790 1.384 . S
C1789 C1788 1.377 . S
C1789 C1795 1.390 . S
C1790 H1781 0.930 . S
C1790 C1788 1.384 . S
C1790 C1791 1.372 . S
C1791 C1790 1.372 . S
C1791 C1792 1.400 . S
C1791 C1796 1.490 . S
C1792 H1782 0.930 . S
C1792 C1791 1.400 . S
C1792 C1795 1.386 . S
H1793 C1809 0.930 . S
H1794 C1810 0.931 . S
C1795 H1783 0.929 . S
C1795 C1789 1.390 . S
C1795 C1792 1.386 . S
C1796 C1791 1.490 . S
C1796 C1798 1.395 . S
C1796 C1799 1.403 . S
H1797 C1803 0.930 . S
C1798 H1784 0.930 . S
C1798 C1796 1.395 . S
C1798 C1801 1.403 . S
C1799 C1796 1.403 . S
C1799 C1800 1.524 . S
C1799 C1803 1.400 . S
C1800 H1785 0.960 . S
C1800 H1786 0.960 . S
C1800 H1787 0.960 . S
C1800 C1799 1.524 . S
C1801 C1798 1.403 . S
C1801 C1802 1.392 . S
C1801 C1805 1.495 . S
C1802 C1801 1.392 . S
C1802 C1803 1.385 . S
C1802 C1804 1.478 . S
C1803 H1797 0.930 . S
C1803 C1799 1.400 . S
C1803 C1802 1.385 . S
C1804 C1802 1.478 . S
C1804 C1806 1.381 . S
C1804 C1810 1.383 . S
C1805 C1801 1.495 . S
C1805 H1811 0.959 . S
C1805 H1812 0.961 . S
C1805 H1813 0.960 . S
C1806 C1804 1.381 . S
C1806 C1807 1.394 . S
C1806 H1814 0.930 . S
C1807 C1806 1.394 . S
C1807 C1808 1.383 . S
C1807 H1815 0.929 . S
C1808 C1807 1.383 . S
C1808 C1809 1.377 . S
C1809 H1793 0.930 . S
C1809 C1808 1.377 . S
C1809 C1810 1.379 . S
C1810 H1794 0.931 . S
C1810 C1804 1.383 . S
C1810 C1809 1.379 . S
H1811 C1805 0.959 . S
H1812 C1805 0.961 . S
H1813 C1805 0.960 . S
H1814 C1806 0.930 . S
H1815 C1807 0.929 . S
H1816 C1824 0.929 . S
H1817 C1826 0.930 . S
H1818 C1828 0.930 . S
H1819 C1831 0.929 . S
H1820 C1834 0.930 . S
H1821 C1836 0.960 . S
H1822 C1836 0.960 . S
H1823 C1836 0.960 . S
C1824 H1816 0.929 . S
C1824 C1825 1.377 . S
C1824 C1826 1.384 . S
C1825 C1824 1.377 . S
C1825 C1831 1.390 . S
C1826 H1817 0.930 . S
C1826 C1824 1.384 . S
C1826 C1827 1.372 . S
C1827 C1826 1.372 . S
C1827 C1828 1.400 . S
C1827 C1832 1.490 . S
C1828 H1818 0.930 . S
C1828 C1827 1.400 . S
C1828 C1831 1.386 . S
H1829 C1845 0.930 . S
H1830 C1846 0.931 . S
C1831 H1819 0.929 . S
C1831 C1825 1.390 . S
C1831 C1828 1.386 . S
C1832 C1827 1.490 . S
C1832 C1834 1.395 . S
C1832 C1835 1.403 . S
H1833 C1839 0.930 . S
C1834 H1820 0.930 . S
C1834 C1832 1.395 . S
C1834 C1837 1.403 . S
C1835 C1832 1.403 . S
C1835 C1836 1.524 . S
C1835 C1839 1.400 . S
C1836 H1821 0.960 . S
C1836 H1822 0.960 . S
C1836 H1823 0.960 . S
C1836 C1835 1.524 . S
C1837 C1834 1.403 . S
C1837 C1838 1.392 . S
C1837 C1841 1.495 . S
C1838 C1837 1.392 . S
C1838 C1839 1.385 . S
C1838 C1840 1.478 . S
C1839 H1833 0.930 . S
C1839 C1835 1.400 . S
C1839 C1838 1.385 . S
C1840 C1838 1.478 . S
C1840 C1842 1.381 . S
C1840 C1846 1.383 . S
C1841 C1837 1.495 . S
C1841 H1847 0.959 . S
C1841 H1848 0.961 . S
C1841 H1849 0.960 . S
C1842 C1840 1.381 . S
C1842 C1843 1.394 . S
C1842 H1850 0.930 . S
C1843 C1842 1.394 . S
C1843 C1844 1.383 . S
C1843 H1851 0.929 . S
C1844 C1843 1.383 . S
C1844 C1845 1.377 . S
C1845 H1829 0.930 . S
C1845 C1844 1.377 . S
C1845 C1846 1.379 . S
C1846 H1830 0.931 . S
C1846 C1840 1.383 . S
C1846 C1845 1.379 . S
H1847 C1841 0.959 . S
H1848 C1841 0.961 . S
H1849 C1841 0.960 . S
H1850 C1842 0.930 . S
H1851 C1843 0.929 . S
H1852 C1860 0.929 . S
H1853 C1862 0.930 . S
H1854 C1864 0.930 . S
H1855 C1867 0.929 . S
H1856 C1870 0.930 . S
H1857 C1872 0.960 . S
H1858 C1872 0.960 . S
H1859 C1872 0.960 . S
C1860 H1852 0.929 . S
C1860 C1861 1.377 . S
C1860 C1862 1.384 . S
C1861 C1860 1.377 . S
C1861 C1867 1.390 . S
C1862 H1853 0.930 . S
C1862 C1860 1.384 . S
C1862 C1863 1.372 . S
C1863 C1862 1.372 . S
C1863 C1864 1.400 . S
C1863 C1868 1.490 . S
C1864 H1854 0.930 . S
C1864 C1863 1.400 . S
C1864 C1867 1.386 . S
H1865 C1881 0.930 . S
H1866 C1882 0.931 . S
C1867 H1855 0.929 . S
C1867 C1861 1.390 . S
C1867 C1864 1.386 . S
C1868 C1863 1.490 . S
C1868 C1870 1.395 . S
C1868 C1871 1.403 . S
H1869 C1875 0.930 . S
C1870 H1856 0.930 . S
C1870 C1868 1.395 . S
C1870 C1873 1.403 . S
C1871 C1868 1.403 . S
C1871 C1872 1.524 . S
C1871 C1875 1.400 . S
C1872 H1857 0.960 . S
C1872 H1858 0.960 . S
C1872 H1859 0.960 . S
C1872 C1871 1.524 . S
C1873 C1870 1.403 . S
C1873 C1874 1.392 . S
C1873 C1877 1.495 . S
C1874 C1873 1.392 . S
C1874 C1875 1.385 . S
C1874 C1876 1.478 . S
C1875 H1869 0.930 . S
C1875 C1871 1.400 . S
C1875 C1874 1.385 . S
C1876 C1874 1.478 . S
C1876 C1878 1.381 . S
C1876 C1882 1.383 . S
C1877 C1873 1.495 . S
C1877 H1883 0.959 . S
C1877 H1884 0.961 . S
C1877 H1885 0.960 . S
C1878 C1876 1.381 . S
C1878 C1879 1.394 . S
C1878 H1886 0.930 . S
C1879 C1878 1.394 . S
C1879 C1880 1.383 . S
C1879 H1887 0.929 . S
C1880 C1879 1.383 . S
C1880 C1881 1.377 . S
C1881 H1865 0.930 . S
C1881 C1880 1.377 . S
C1881 C1882 1.379 . S
C1882 H1866 0.931 . S
C1882 C1876 1.383 . S
C1882 C1881 1.379 . S
H1883 C1877 0.959 . S
H1884 C1877 0.961 . S
H1885 C1877 0.960 . S
H1886 C1878 0.930 . S
H1887 C1879 0.929 . S
H1888 C1896 0.929 . S
H1889 C1898 0.930 . S
H1890 C1900 0.930 . S
H1891 C1903 0.929 . S
H1892 C1906 0.930 . S
H1893 C1908 0.960 . S
H1894 C1908 0.960 . S
H1895 C1908 0.960 . S
C1896 H1888 0.929 . S
C1896 C1897 1.377 . S
C1896 C1898 1.384 . S
C1897 C1896 1.377 . S
C1897 C1903 1.390 . S
C1898 H1889 0.930 . S
C1898 C1896 1.384 . S
C1898 C1899 1.372 . S
C1899 C1898 1.372 . S
C1899 C1900 1.400 . S
C1899 C1904 1.490 . S
C1900 H1890 0.930 . S
C1900 C1899 1.400 . S
C1900 C1903 1.386 . S
H1901 C1917 0.930 . S
H1902 C1918 0.931 . S
C1903 H1891 0.929 . S
C1903 C1897 1.390 . S
C1903 C1900 1.386 . S
C1904 C1899 1.490 . S
C1904 C1906 1.395 . S
C1904 C1907 1.403 . S
H1905 C1911 0.930 . S
C1906 H1892 0.930 . S
C1906 C1904 1.395 . S
C1906 C1909 1.403 . S
C1907 C1904 1.403 . S
C1907 C1908 1.524 . S
C1907 C1911 1.400 . S
C1908 H1893 0.960 . S
C1908 H1894 0.960 . S
C1908 H1895 0.960 . S
C1908 C1907 1.524 . S
C1909 C1906 1.403 . S
C1909 C1910 1.392 . S
C1909 C1913 1.495 . S
C1910 C1909 1.392 . S
C1910 C1911 1.385 . S
C1910 C1912 1.478 . S
C1911 H1905 0.930 . S
C1911 C1907 1.400 . S
C1911 C1910 1.385 . S
C1912 C1910 1.478 . S
C1912 C1914 1.381 . S
C1912 C1918 1.383 . S
C1913 C1909 1.495 . S
C1913 H1919 0.959 . S
C1913 H1920 0.961 . S
C1913 H1921 0.960 . S
C1914 C1912 1.381 . S
C1914 C1915 1.394 . S
C1914 H1922 0.930 . S
C1915 C1914 1.394 . S
C1915 C1916 1.383 . S
C1915 H1923 0.929 . S
C1916 C1915 1.383 . S
C1916 C1917 1.377 . S
C1917 H1901 0.930 . S
C1917 C1916 1.377 . S
C1917 C1918 1.379 . S
C1918 H1902 0.931 . S
C1918 C1912 1.383 . S
C1918 C1917 1.379 . S
H1919 C1913 0.959 . S
H1920 C1913 0.961 . S
H1921 C1913 0.960 . S
H1922 C1914 0.930 . S
H1923 C1915 0.929 . S
H1924 C1932 0.929 . S
H1925 C1934 0.930 . S
H1926 C1936 0.930 . S
H1927 C1939 0.929 . S
H1928 C1942 0.930 . S
H1929 C1944 0.960 . S
H1930 C1944 0.960 . S
H1931 C1944 0.960 . S
C1932 H1924 0.929 . S
C1932 C1933 1.377 . S
C1932 C1934 1.384 . S
C1933 C1932 1.377 . S
C1933 C1939 1.390 . S
C1934 H1925 0.930 . S
C1934 C1932 1.384 . S
C1934 C1935 1.372 . S
C1935 C1934 1.372 . S
C1935 C1936 1.400 . S
C1935 C1940 1.490 . S
C1936 H1926 0.930 . S
C1936 C1935 1.400 . S
C1936 C1939 1.386 . S
H1937 C1953 0.930 . S
H1938 C1954 0.931 . S
C1939 H1927 0.929 . S
C1939 C1933 1.390 . S
C1939 C1936 1.386 . S
C1940 C1935 1.490 . S
C1940 C1942 1.395 . S
C1940 C1943 1.403 . S
H1941 C1947 0.930 . S
C1942 H1928 0.930 . S
C1942 C1940 1.395 . S
C1942 C1945 1.403 . S
C1943 C1940 1.403 . S
C1943 C1944 1.524 . S
C1943 C1947 1.400 . S
C1944 H1929 0.960 . S
C1944 H1930 0.960 . S
C1944 H1931 0.960 . S
C1944 C1943 1.524 . S
C1945 C1942 1.403 . S
C1945 C1946 1.392 . S
C1945 C1949 1.495 . S
C1946 C1945 1.392 . S
C1946 C1947 1.385 . S
C1946 C1948 1.478 . S
C1947 H1941 0.930 . S
C1947 C1943 1.400 . S
C1947 C1946 1.385 . S
C1948 C1946 1.478 . S
C1948 C1950 1.381 . S
C1948 C1954 1.383 . S
C1949 C1945 1.495 . S
C1949 H1955 0.959 . S
C1949 H1956 0.961 . S
C1949 H1957 0.960 . S
C1950 C1948 1.381 . S
C1950 C1951 1.394 . S
C1950 H1958 0.930 . S
C1951 C1950 1.394 . S
C1951 C1952 1.383 . S
C1951 H1959 0.929 . S
C1952 C1951 1.383 . S
C1952 C1953 1.377 . S
C1953 H1937 0.930 . S
C1953 C1952 1.377 . S
C1953 C1954 1.379 . S
C1954 H1938 0.931 . S
C1954 C1948 1.383 . S
C1954 C1953 1.379 . S
H1955 C1949 0.959 . S
H1956 C1949 0.961 . S
H1957 C1949 0.960 . S
H1958 C1950 0.930 . S
H1959 C1951 0.929 . S
H1960 C1968 0.929 . S
H1961 C1970 0.930 . S
H1962 C1972 0.930 . S
H1963 C1975 0.929 . S
H1964 C1978 0.930 . S
H1965 C1980 0.960 . S
H1966 C1980 0.960 . S
H1967 C1980 0.960 . S
C1968 H1960 0.929 . S
C1968 C1969 1.377 . S
C1968 C1970 1.384 . S
C1969 C1968 1.377 . S
C1969 C1975 1.390 . S
C1970 H1961 0.930 . S
C1970 C1968 1.384 . S
C1970 C1971 1.372 . S
C1971 C1970 1.372 . S
C1971 C1972 1.400 . S
C1971 C1976 1.490 . S
C1972 H1962 0.930 . S
C1972 C1971 1.400 . S
C1972 C1975 1.386 . S
H1973 C1989 0.930 . S
H1974 C1990 0.931 . S
C1975 H1963 0.929 . S
C1975 C1969 1.390 . S
C1975 C1972 1.386 . S
C1976 C1971 1.490 . S
C1976 C1978 1.395 . S
C1976 C1979 1.403 . S
H1977 C1983 0.930 . S
C1978 H1964 0.930 . S
C1978 C1976 1.395 . S
C1978 C1981 1.403 . S
C1979 C1976 1.403 . S
C1979 C1980 1.524 . S
C1979 C1983 1.400 . S
C1980 H1965 0.960 . S
C1980 H1966 0.960 . S
C1980 H1967 0.960 . S
C1980 C1979 1.524 . S
C1981 C1978 1.403 . S
C1981 C1982 1.392 . S
C1981 C1985 1.495 . S
C1982 C1981 1.392 . S
C1982 C1983 1.385 . S
C1982 C1984 1.478 . S
C1983 H1977 0.930 . S
C1983 C1979 1.400 . S
C1983 C1982 1.385 . S
C1984 C1982 1.478 . S
C1984 C1986 1.381 . S
C1984 C1990 1.383 . S
C1985 C1981 1.495 . S
C1985 H1991 0.959 . S
C1985 H1992 0.961 . S
C1985 H1993 0.960 . S
C1986 C1984 1.381 . S
C1986 C1987 1.394 . S
C1986 H1994 0.930 . S
C1987 C1986 1.394 . S
C1987 C1988 1.383 . S
C1987 H1995 0.929 . S
C1988 C1987 1.383 . S
C1988 C1989 1.377 . S
C1989 H1973 0.930 . S
C1989 C1988 1.377 . S
C1989 C1990 1.379 . S
C1990 H1974 0.931 . S
C1990 C1984 1.383 . S
C1990 C1989 1.379 . S
H1991 C1985 0.959 . S
H1992 C1985 0.961 . S
H1993 C1985 0.960 . S
H1994 C1986 0.930 . S
H1995 C1987 0.929 . S
H1996 C2004 0.929 . S
H1997 C2006 0.930 . S
H1998 C2008 0.930 . S
H1999 C2011 0.929 . S
H2000 C2014 0.930 . S
H2001 C2016 0.960 . S
H2002 C2016 0.960 . S
H2003 C2016 0.960 . S
C2004 H1996 0.929 . S
C2004 C2005 1.377 . S
C2004 C2006 1.384 . S
C2005 C2004 1.377 . S
C2005 C2011 1.390 . S
C2006 H1997 0.930 . S
C2006 C2004 1.384 . S
C2006 C2007 1.372 . S
C2007 C2006 1.372 . S
C2007 C2008 1.400 . S
C2007 C2012 1.490 . S
C2008 H1998 0.930 . S
C2008 C2007 1.400 . S
C2008 C2011 1.386 . S
H2009 C2025 0.930 . S
H2010 C2026 0.931 . S
C2011 H1999 0.929 . S
C2011 C2005 1.390 . S
C2011 C2008 1.386 . S
C2012 C2007 1.490 . S
C2012 C2014 1.395 . S
C2012 C2015 1.403 . S
H2013 C2019 0.930 . S
C2014 H2000 0.930 . S
C2014 C2012 1.395 . S
C2014 C2017 1.403 . S
C2015 C2012 1.403 . S
C2015 C2016 1.524 . S
C2015 C2019 1.400 . S
C2016 H2001 0.960 . S
C2016 H2002 0.960 . S
C2016 H2003 0.960 . S
C2016 C2015 1.524 . S
C2017 C2014 1.403 . S
C2017 C2018 1.392 . S
C2017 C2021 1.495 . S
C2018 C2017 1.392 . S
C2018 C2019 1.385 . S
C2018 C2020 1.478 . S
C2019 H2013 0.930 . S
C2019 C2015 1.400 . S
C2019 C2018 1.385 . S
C2020 C2018 1.478 . S
C2020 C2022 1.381 . S
C2020 C2026 1.383 . S
C2021 C2017 1.495 . S
C2021 H2027 0.959 . S
C2021 H2028 0.961 . S
C2021 H2029 0.960 . S
C2022 C2020 1.381 . S
C2022 C2023 1.394 . S
C2022 H2030 0.930 . S
C2023 C2022 1.394 . S
C2023 C2024 1.383 . S
C2023 H2031 0.929 . S
C2024 C2023 1.383 . S
C2024 C2025 1.377 . S
C2025 H2009 0.930 . S
C2025 C2024 1.377 . S
C2025 C2026 1.379 . S
C2026 H2010 0.931 . S
C2026 C2020 1.383 . S
C2026 C2025 1.379 . S
H2027 C2021 0.959 . S
H2028 C2021 0.961 . S
H2029 C2021 0.960 . S
H2030 C2022 0.930 . S
H2031 C2023 0.929 . S
H2032 C2040 0.929 . S
H2033 C2042 0.930 . S
H2034 C2044 0.930 . S
H2035 C2047 0.929 . S
H2036 C2050 0.930 . S
H2037 C2052 0.960 . S
H2038 C2052 0.960 . S
H2039 C2052 0.960 . S
C2040 H2032 0.929 . S
C2040 C2041 1.377 . S
C2040 C2042 1.384 . S
C2041 C2040 1.377 . S
C2041 C2047 1.390 . S
C2042 H2033 0.930 . S
C2042 C2040 1.384 . S
C2042 C2043 1.372 . S
C2043 C2042 1.372 . S
C2043 C2044 1.400 . S
C2043 C2048 1.490 . S
C2044 H2034 0.930 . S
C2044 C2043 1.400 . S
C2044 C2047 1.386 . S
H2045 C2061 0.930 . S
H2046 C2062 0.931 . S
C2047 H2035 0.929 . S
C2047 C2041 1.390 . S
C2047 C2044 1.386 . S
C2048 C2043 1.490 . S
C2048 C2050 1.395 . S
C2048 C2051 1.403 . S
H2049 C2055 0.930 . S
C2050 H2036 0.930 . S
C2050 C2048 1.395 . S
C2050 C2053 1.403 . S
C2051 C2048 1.403 . S
C2051 C2052 1.524 . S
C2051 C2055 1.400 . S
C2052 H2037 0.960 . S
C2052 H2038 0.960 . S
C2052 H2039 0.960 . S
C2052 C2051 1.524 . S
C2053 C2050 1.403 . S
C2053 C2054 1.392 . S
C2053 C2057 1.495 . S
C2054 C2053 1.392 . S
C2054 C2055 1.385 . S
C2054 C2056 1.478 . S
C2055 H2049 0.930 . S
C2055 C2051 1.400 . S
C2055 C2054 1.385 . S
C2056 C2054 1.478 . S
C2056 C2058 1.381 . S
C2056 C2062 1.383 . S
C2057 C2053 1.495 . S
C2057 H2063 0.959 . S
C2057 H2064 0.961 . S
C2057 H2065 0.960 . S
C2058 C2056 1.381 . S
C2058 C2059 1.394 . S
C2058 H2066 0.930 . S
C2059 C2058 1.394 . S
C2059 C2060 1.383 . S
C2059 H2067 0.929 . S
C2060 C2059 1.383 . S
C2060 C2061 1.377 . S
C2061 H2045 0.930 . S
C2061 C2060 1.377 . S
C2061 C2062 1.379 . S
C2062 H2046 0.931 . S
C2062 C2056 1.383 . S
C2062 C2061 1.379 . S
H2063 C2057 0.959 . S
H2064 C2057 0.961 . S
H2065 C2057 0.960 . S
H2066 C2058 0.930 . S
H2067 C2059 0.929 . S
H2068 C2076 0.929 . S
H2069 C2078 0.930 . S
H2070 C2080 0.930 . S
H2071 C2083 0.929 . S
H2072 C2086 0.951 . S
H2073 C2088 0.960 . S
H2074 C2088 0.960 . S
H2075 C2088 0.960 . S
C2076 H2068 0.929 . S
C2076 C2077 1.377 1_554 S
C2076 C2078 1.384 . S
C2077 C2076 1.377 1_556 S
C2077 C2083 1.390 . S
C2078 H2069 0.930 . S
C2078 C2076 1.384 . S
C2078 C2079 1.372 1_554 S
C2079 C2078 1.372 1_556 S
C2079 C2080 1.400 . S
C2079 C2084 1.490 . S
C2080 H2070 0.930 . S
C2080 C2079 1.400 . S
C2080 C2083 1.386 . S
H2081 C2097 0.930 . S
H2082 C2098 0.931 . S
C2083 H2071 0.929 . S
C2083 C2077 1.390 . S
C2083 C2080 1.386 . S
C2084 C2079 1.490 . S
C2084 C2086 1.374 1_556 S
C2084 C2087 1.403 . S
H2085 C2091 0.930 . S
C2086 H2072 0.951 . S
C2086 C2084 1.374 1_554 S
C2086 C2089 1.406 . S
C2087 C2084 1.403 . S
C2087 C2088 1.524 . S
C2087 C2091 1.400 . S
C2088 H2073 0.960 . S
C2088 H2074 0.960 . S
C2088 H2075 0.960 . S
C2088 C2087 1.524 . S
C2089 C2086 1.406 . S
C2089 C2090 1.392 1_554 S
C2089 C2093 1.495 . S
C2090 C2089 1.392 1_556 S
C2090 C2091 1.385 . S
C2090 C2092 1.478 . S
C2091 H2085 0.930 . S
C2091 C2087 1.400 . S
C2091 C2090 1.385 . S
C2092 C2090 1.478 . S
C2092 C2094 1.381 1_556 S
C2092 C2098 1.383 . S
C2093 C2089 1.495 . S
C2093 H2099 0.959 . S
C2093 H2100 0.961 . S
C2093 H2101 0.960 . S
C2094 C2092 1.381 1_554 S
C2094 C2095 1.394 . S
C2094 H2102 0.930 . S
C2095 C2094 1.394 . S
C2095 C2096 1.383 1_554 S
C2095 H2103 0.929 . S
C2096 C2095 1.383 1_556 S
C2096 C2097 1.377 . S
C2097 H2081 0.930 . S
C2097 C2096 1.377 . S
C2097 C2098 1.379 . S
C2098 H2082 0.931 . S
C2098 C2092 1.383 . S
C2098 C2097 1.379 . S
H2099 C2093 0.959 . S
H2100 C2093 0.961 . S
H2101 C2093 0.960 . S
H2102 C2094 0.930 . S
H2103 C2095 0.929 . S
H2104 C2112 0.929 . S
H2105 C2114 0.930 . S
H2106 C2116 0.930 . S
H2107 C2119 0.929 . S
H2108 C2122 0.930 . S
H2109 C2124 0.960 . S
H2110 C2124 0.960 . S
H2111 C2124 0.960 . S
C2112 H2104 0.929 . S
C2112 C2113 1.377 . S
C2112 C2114 1.384 . S
C2113 C2112 1.377 . S
C2113 C2119 1.390 . S
C2114 H2105 0.930 . S
C2114 C2112 1.384 . S
C2114 C2115 1.372 . S
C2115 C2114 1.372 . S
C2115 C2116 1.400 . S
C2115 C2120 1.490 . S
C2116 H2106 0.930 . S
C2116 C2115 1.400 . S
C2116 C2119 1.386 . S
H2117 C2133 0.930 . S
H2118 C2134 0.931 . S
C2119 H2107 0.929 . S
C2119 C2113 1.390 . S
C2119 C2116 1.386 . S
C2120 C2115 1.490 . S
C2120 C2122 1.395 . S
C2120 C2123 1.403 . S
H2121 C2127 0.930 . S
C2122 H2108 0.930 . S
C2122 C2120 1.395 . S
C2122 C2125 1.403 . S
C2123 C2120 1.403 . S
C2123 C2124 1.524 . S
C2123 C2127 1.400 . S
C2124 H2109 0.960 . S
C2124 H2110 0.960 . S
C2124 H2111 0.960 . S
C2124 C2123 1.524 . S
C2125 C2122 1.403 . S
C2125 C2126 1.392 . S
C2125 C2129 1.495 . S
C2126 C2125 1.392 . S
C2126 C2127 1.385 . S
C2126 C2128 1.478 . S
C2127 H2121 0.930 . S
C2127 C2123 1.400 . S
C2127 C2126 1.385 . S
C2128 C2126 1.478 . S
C2128 C2130 1.381 . S
C2128 C2134 1.383 . S
C2129 C2125 1.495 . S
C2129 H2135 0.959 . S
C2129 H2136 0.961 . S
C2129 H2137 0.960 . S
C2130 C2128 1.381 . S
C2130 C2131 1.394 . S
C2130 H2138 0.930 . S
C2131 C2130 1.394 . S
C2131 C2132 1.383 . S
C2131 H2139 0.929 . S
C2132 C2131 1.383 . S
C2132 C2133 1.377 . S
C2133 H2117 0.930 . S
C2133 C2132 1.377 . S
C2133 C2134 1.379 . S
C2134 H2118 0.931 . S
C2134 C2128 1.383 . S
C2134 C2133 1.379 . S
H2135 C2129 0.959 . S
H2136 C2129 0.961 . S
H2137 C2129 0.960 . S
H2138 C2130 0.930 . S
H2139 C2131 0.929 . S
H2140 C2148 0.929 . S
H2141 C2150 0.930 . S
H2142 C2152 0.921 1_556 S
H2143 C2155 0.929 1_556 S
H2144 C2158 0.934 . S
H2145 C2160 0.960 . S
H2146 C2160 0.960 . S
H2147 C2160 0.960 . S
C2148 H2140 0.929 . S
C2148 C2149 1.377 . S
C2148 C2150 1.384 . S
C2149 C2148 1.377 . S
C2149 C2155 1.390 . S
C2150 H2141 0.930 . S
C2150 C2148 1.384 . S
C2150 C2151 1.372 . S
C2151 C2150 1.372 . S
C2151 C2152 1.400 . S
C2151 C2156 1.490 . S
C2152 H2142 0.921 1_554 S
C2152 C2151 1.400 . S
C2152 C2155 1.386 . S
H2153 C2169 0.924 1_556 S
H2154 C2170 0.943 . S
C2155 H2143 0.929 1_554 S
C2155 C2149 1.390 . S
C2155 C2152 1.386 . S
C2156 C2151 1.490 . S
C2156 C2158 1.390 1_554 S
C2156 C2159 1.403 . S
H2157 C2163 0.930 . S
C2158 H2144 0.934 . S
C2158 C2156 1.390 1_556 S
C2158 C2161 1.404 . S
C2159 C2156 1.403 . S
C2159 C2160 1.524 . S
C2159 C2163 1.400 . S
C2160 H2145 0.960 . S
C2160 H2146 0.960 . S
C2160 H2147 0.960 . S
C2160 C2159 1.524 . S
C2161 C2158 1.404 . S
C2161 C2162 1.392 1_556 S
C2161 C2165 1.495 . S
C2162 C2161 1.392 1_554 S
C2162 C2163 1.385 . S
C2162 C2164 1.478 . S
C2163 H2157 0.930 . S
C2163 C2159 1.400 . S
C2163 C2162 1.385 . S
C2164 C2162 1.478 . S
C2164 C2166 1.381 . S
C2164 C2170 1.372 1_554 S
C2165 C2161 1.495 . S
C2165 H2171 0.959 . S
C2165 H2172 0.961 . S
C2165 H2173 0.960 . S
C2166 C2164 1.381 . S
C2166 C2167 1.394 . S
C2166 H2174 0.930 . S
C2167 C2166 1.394 . S
C2167 C2168 1.383 . S
C2167 H2175 0.929 . S
C2168 C2167 1.383 . S
C2168 C2169 1.382 . S
C2169 H2153 0.924 1_554 S
C2169 C2168 1.382 . S
C2169 C2170 1.379 1_554 S
C2170 H2154 0.943 . S
C2170 C2164 1.372 1_556 S
C2170 C2169 1.379 1_556 S
H2171 C2165 0.959 . S
H2172 C2165 0.961 . S
H2173 C2165 0.960 . S
H2174 C2166 0.930 . S
H2175 C2167 0.929 . S
H2176 C2184 0.929 . S
H2177 C2186 0.930 . S
H2178 C2188 0.930 . S
H2179 C2191 0.929 . S
H2180 C2194 0.930 . S
H2181 C2196 0.960 . S
H2182 C2196 0.960 . S
H2183 C2196 0.960 . S
C2184 H2176 0.929 . S
C2184 C2185 1.377 . S
C2184 C2186 1.384 . S
C2185 C2184 1.377 . S
C2185 C2191 1.390 . S
C2186 H2177 0.930 . S
C2186 C2184 1.384 . S
C2186 C2187 1.372 . S
C2187 C2186 1.372 . S
C2187 C2188 1.400 . S
C2187 C2192 1.490 . S
C2188 H2178 0.930 . S
C2188 C2187 1.400 . S
C2188 C2191 1.386 . S
H2189 C2205 0.930 . S
H2190 C2206 0.931 . S
C2191 H2179 0.929 . S
C2191 C2185 1.390 . S
C2191 C2188 1.386 . S
C2192 C2187 1.490 . S
C2192 C2194 1.395 . S
C2192 C2195 1.403 . S
H2193 C2199 0.930 . S
C2194 H2180 0.930 . S
C2194 C2192 1.395 . S
C2194 C2197 1.403 . S
C2195 C2192 1.403 . S
C2195 C2196 1.524 . S
C2195 C2199 1.400 . S
C2196 H2181 0.960 . S
C2196 H2182 0.960 . S
C2196 H2183 0.960 . S
C2196 C2195 1.524 . S
C2197 C2194 1.403 . S
C2197 C2198 1.392 . S
C2197 C2201 1.495 . S
C2198 C2197 1.392 . S
C2198 C2199 1.385 . S
C2198 C2200 1.478 . S
C2199 H2193 0.930 . S
C2199 C2195 1.400 . S
C2199 C2198 1.385 . S
C2200 C2198 1.478 . S
C2200 C2202 1.381 . S
C2200 C2206 1.383 . S
C2201 C2197 1.495 . S
C2201 H2207 0.959 . S
C2201 H2208 0.961 . S
C2201 H2209 0.960 . S
C2202 C2200 1.381 . S
C2202 C2203 1.394 . S
C2202 H2210 0.930 . S
C2203 C2202 1.394 . S
C2203 C2204 1.383 . S
C2203 H2211 0.929 . S
C2204 C2203 1.383 . S
C2204 C2205 1.377 . S
C2205 H2189 0.930 . S
C2205 C2204 1.377 . S
C2205 C2206 1.379 . S
C2206 H2190 0.931 . S
C2206 C2200 1.383 . S
C2206 C2205 1.379 . S
H2207 C2201 0.959 . S
H2208 C2201 0.961 . S
H2209 C2201 0.960 . S
H2210 C2202 0.930 . S
H2211 C2203 0.929 . S
H2212 C2220 0.929 . S
H2213 C2222 0.930 . S
H2214 C2224 0.930 . S
H2215 C2227 0.929 . S
H2216 C2230 0.930 . S
H2217 C2232 0.960 . S
H2218 C2232 0.960 . S
H2219 C2232 0.960 . S
C2220 H2212 0.929 . S
C2220 C2221 1.377 . S
C2220 C2222 1.384 . S
C2221 C2220 1.377 . S
C2221 C2227 1.390 . S
C2222 H2213 0.930 . S
C2222 C2220 1.384 . S
C2222 C2223 1.372 . S
C2223 C2222 1.372 . S
C2223 C2224 1.400 . S
C2223 C2228 1.490 . S
C2224 H2214 0.930 . S
C2224 C2223 1.400 . S
C2224 C2227 1.386 . S
H2225 C2241 0.930 . S
H2226 C2242 0.931 . S
C2227 H2215 0.929 . S
C2227 C2221 1.390 . S
C2227 C2224 1.386 . S
C2228 C2223 1.490 . S
C2228 C2230 1.395 . S
C2228 C2231 1.403 . S
H2229 C2235 0.930 . S
C2230 H2216 0.930 . S
C2230 C2228 1.395 . S
C2230 C2233 1.403 . S
C2231 C2228 1.403 . S
C2231 C2232 1.524 . S
C2231 C2235 1.400 . S
C2232 H2217 0.960 . S
C2232 H2218 0.960 . S
C2232 H2219 0.960 . S
C2232 C2231 1.524 . S
C2233 C2230 1.403 . S
C2233 C2234 1.392 . S
C2233 C2237 1.495 . S
C2234 C2233 1.392 . S
C2234 C2235 1.385 . S
C2234 C2236 1.478 . S
C2235 H2229 0.930 . S
C2235 C2231 1.400 . S
C2235 C2234 1.385 . S
C2236 C2234 1.478 . S
C2236 C2238 1.381 . S
C2236 C2242 1.383 . S
C2237 C2233 1.495 . S
C2237 H2243 0.959 . S
C2237 H2244 0.961 . S
C2237 H2245 0.960 . S
C2238 C2236 1.381 . S
C2238 C2239 1.394 . S
C2238 H2246 0.930 . S
C2239 C2238 1.394 . S
C2239 C2240 1.383 . S
C2239 H2247 0.929 . S
C2240 C2239 1.383 . S
C2240 C2241 1.377 . S
C2241 H2225 0.930 . S
C2241 C2240 1.377 . S
C2241 C2242 1.379 . S
C2242 H2226 0.931 . S
C2242 C2236 1.383 . S
C2242 C2241 1.379 . S
H2243 C2237 0.959 . S
H2244 C2237 0.961 . S
H2245 C2237 0.960 . S
H2246 C2238 0.930 . S
H2247 C2239 0.929 . S
H2248 C2256 0.929 . S
H2249 C2258 0.930 . S
H2250 C2260 0.930 . S
H2251 C2263 0.929 . S
H2252 C2266 0.930 . S
H2253 C2268 0.960 . S
H2254 C2268 0.960 . S
H2255 C2268 0.960 . S
C2256 H2248 0.929 . S
C2256 C2257 1.377 . S
C2256 C2258 1.384 . S
C2257 C2256 1.377 . S
C2257 C2263 1.390 . S
C2258 H2249 0.930 . S
C2258 C2256 1.384 . S
C2258 C2259 1.372 . S
C2259 C2258 1.372 . S
C2259 C2260 1.400 . S
C2259 C2264 1.490 . S
C2260 H2250 0.930 . S
C2260 C2259 1.400 . S
C2260 C2263 1.386 . S
H2261 C2277 0.930 . S
H2262 C2278 0.931 . S
C2263 H2251 0.929 . S
C2263 C2257 1.390 . S
C2263 C2260 1.386 . S
C2264 C2259 1.490 . S
C2264 C2266 1.395 . S
C2264 C2267 1.403 . S
H2265 C2271 0.930 . S
C2266 H2252 0.930 . S
C2266 C2264 1.395 . S
C2266 C2269 1.403 . S
C2267 C2264 1.403 . S
C2267 C2268 1.524 . S
C2267 C2271 1.400 . S
C2268 H2253 0.960 . S
C2268 H2254 0.960 . S
C2268 H2255 0.960 . S
C2268 C2267 1.524 . S
C2269 C2266 1.403 . S
C2269 C2270 1.392 . S
C2269 C2273 1.495 . S
C2270 C2269 1.392 . S
C2270 C2271 1.385 . S
C2270 C2272 1.478 . S
C2271 H2265 0.930 . S
C2271 C2267 1.400 . S
C2271 C2270 1.385 . S
C2272 C2270 1.478 . S
C2272 C2274 1.381 . S
C2272 C2278 1.383 . S
C2273 C2269 1.495 . S
C2273 H2279 0.959 . S
C2273 H2280 0.961 . S
C2273 H2281 0.960 . S
C2274 C2272 1.381 . S
C2274 C2275 1.394 . S
C2274 H2282 0.930 . S
C2275 C2274 1.394 . S
C2275 C2276 1.383 . S
C2275 H2283 0.929 . S
C2276 C2275 1.383 . S
C2276 C2277 1.377 . S
C2277 H2261 0.930 . S
C2277 C2276 1.377 . S
C2277 C2278 1.379 . S
C2278 H2262 0.931 . S
C2278 C2272 1.383 . S
C2278 C2277 1.379 . S
H2279 C2273 0.959 . S
H2280 C2273 0.961 . S
H2281 C2273 0.960 . S
H2282 C2274 0.930 . S
H2283 C2275 0.929 . S
H2284 C2292 0.929 . S
H2285 C2294 0.930 . S
H2286 C2296 0.930 . S
H2287 C2299 0.929 . S
H2288 C2302 0.930 . S
H2289 C2304 0.960 . S
H2290 C2304 0.960 . S
H2291 C2304 0.960 . S
C2292 H2284 0.929 . S
C2292 C2293 1.377 . S
C2292 C2294 1.384 . S
C2293 C2292 1.377 . S
C2293 C2299 1.390 . S
C2294 H2285 0.930 . S
C2294 C2292 1.384 . S
C2294 C2295 1.372 . S
C2295 C2294 1.372 . S
C2295 C2296 1.400 . S
C2295 C2300 1.490 . S
C2296 H2286 0.930 . S
C2296 C2295 1.400 . S
C2296 C2299 1.386 . S
H2297 C2313 0.930 . S
H2298 C2314 0.931 . S
C2299 H2287 0.929 . S
C2299 C2293 1.390 . S
C2299 C2296 1.386 . S
C2300 C2295 1.490 . S
C2300 C2302 1.395 . S
C2300 C2303 1.403 . S
H2301 C2307 0.930 . S
C2302 H2288 0.930 . S
C2302 C2300 1.395 . S
C2302 C2305 1.403 . S
C2303 C2300 1.403 . S
C2303 C2304 1.524 . S
C2303 C2307 1.400 . S
C2304 H2289 0.960 . S
C2304 H2290 0.960 . S
C2304 H2291 0.960 . S
C2304 C2303 1.524 . S
C2305 C2302 1.403 . S
C2305 C2306 1.392 . S
C2305 C2309 1.495 . S
C2306 C2305 1.392 . S
C2306 C2307 1.385 . S
C2306 C2308 1.478 . S
C2307 H2301 0.930 . S
C2307 C2303 1.400 . S
C2307 C2306 1.385 . S
C2308 C2306 1.478 . S
C2308 C2310 1.381 . S
C2308 C2314 1.383 . S
C2309 C2305 1.495 . S
C2309 H2315 0.959 . S
C2309 H2316 0.961 . S
C2309 H2317 0.960 . S
C2310 C2308 1.381 . S
C2310 C2311 1.394 . S
C2310 H2318 0.930 . S
C2311 C2310 1.394 . S
C2311 C2312 1.383 . S
C2311 H2319 0.929 . S
C2312 C2311 1.383 . S
C2312 C2313 1.377 . S
C2313 H2297 0.930 . S
C2313 C2312 1.377 . S
C2313 C2314 1.379 . S
C2314 H2298 0.931 . S
C2314 C2308 1.383 . S
C2314 C2313 1.379 . S
H2315 C2309 0.959 . S
H2316 C2309 0.961 . S
H2317 C2309 0.960 . S
H2318 C2310 0.930 . S
H2319 C2311 0.929 . S
H2320 C2328 0.929 . S
H2321 C2330 0.930 . S
H2322 C2332 0.930 . S
H2323 C2335 0.929 . S
H2324 C2338 0.930 . S
H2325 C2340 0.960 . S
H2326 C2340 0.960 . S
H2327 C2340 0.960 . S
C2328 H2320 0.929 . S
C2328 C2329 1.377 . S
C2328 C2330 1.384 . S
C2329 C2328 1.377 . S
C2329 C2335 1.390 . S
C2330 H2321 0.930 . S
C2330 C2328 1.384 . S
C2330 C2331 1.372 . S
C2331 C2330 1.372 . S
C2331 C2332 1.400 . S
C2331 C2336 1.490 . S
C2332 H2322 0.930 . S
C2332 C2331 1.400 . S
C2332 C2335 1.386 . S
H2333 C2349 0.930 . S
H2334 C2350 0.931 . S
C2335 H2323 0.929 . S
C2335 C2329 1.390 . S
C2335 C2332 1.386 . S
C2336 C2331 1.490 . S
C2336 C2338 1.395 . S
C2336 C2339 1.403 . S
H2337 C2343 0.930 . S
C2338 H2324 0.930 . S
C2338 C2336 1.395 . S
C2338 C2341 1.403 . S
C2339 C2336 1.403 . S
C2339 C2340 1.524 . S
C2339 C2343 1.400 . S
C2340 H2325 0.960 . S
C2340 H2326 0.960 . S
C2340 H2327 0.960 . S
C2340 C2339 1.524 . S
C2341 C2338 1.403 . S
C2341 C2342 1.392 . S
C2341 C2345 1.495 . S
C2342 C2341 1.392 . S
C2342 C2343 1.385 . S
C2342 C2344 1.478 . S
C2343 H2337 0.930 . S
C2343 C2339 1.400 . S
C2343 C2342 1.385 . S
C2344 C2342 1.478 . S
C2344 C2346 1.381 . S
C2344 C2350 1.383 . S
C2345 C2341 1.495 . S
C2345 H2351 0.959 . S
C2345 H2352 0.961 . S
C2345 H2353 0.960 . S
C2346 C2344 1.381 . S
C2346 C2347 1.394 . S
C2346 H2354 0.930 . S
C2347 C2346 1.394 . S
C2347 C2348 1.383 . S
C2347 H2355 0.929 1_455 S
C2348 C2347 1.383 . S
C2348 C2349 1.377 . S
C2349 H2333 0.930 . S
C2349 C2348 1.377 . S
C2349 C2350 1.379 . S
C2350 H2334 0.931 . S
C2350 C2344 1.383 . S
C2350 C2349 1.379 . S
H2351 C2345 0.959 . S
H2352 C2345 0.961 . S
H2353 C2345 0.960 . S
H2354 C2346 0.930 . S
H2355 C2347 0.929 1_655 S
H2356 C2364 0.929 . S
H2357 C2366 0.930 . S
H2358 C2368 0.930 . S
H2359 C2371 0.929 . S
H2360 C2374 0.930 . S
H2361 C2376 0.960 . S
H2362 C2376 0.960 . S
H2363 C2376 0.960 . S
C2364 H2356 0.929 . S
C2364 C2365 1.377 . S
C2364 C2366 1.384 . S
C2365 C2364 1.377 . S
C2365 C2371 1.390 . S
C2366 H2357 0.930 . S
C2366 C2364 1.384 . S
C2366 C2367 1.372 . S
C2367 C2366 1.372 . S
C2367 C2368 1.400 . S
C2367 C2372 1.490 . S
C2368 H2358 0.930 . S
C2368 C2367 1.400 . S
C2368 C2371 1.386 . S
H2369 C2385 0.930 . S
H2370 C2386 0.931 . S
C2371 H2359 0.929 . S
C2371 C2365 1.390 . S
C2371 C2368 1.386 . S
C2372 C2367 1.490 . S
C2372 C2374 1.395 . S
C2372 C2375 1.403 . S
H2373 C2379 0.930 . S
C2374 H2360 0.930 . S
C2374 C2372 1.395 . S
C2374 C2377 1.403 . S
C2375 C2372 1.403 . S
C2375 C2376 1.524 . S
C2375 C2379 1.400 . S
C2376 H2361 0.960 . S
C2376 H2362 0.960 . S
C2376 H2363 0.960 . S
C2376 C2375 1.524 . S
C2377 C2374 1.403 . S
C2377 C2378 1.392 . S
C2377 C2381 1.495 . S
C2378 C2377 1.392 . S
C2378 C2379 1.385 . S
C2378 C2380 1.478 . S
C2379 H2373 0.930 . S
C2379 C2375 1.400 . S
C2379 C2378 1.385 . S
C2380 C2378 1.478 . S
C2380 C2382 1.381 . S
C2380 C2386 1.383 . S
C2381 C2377 1.495 . S
C2381 H2387 0.959 . S
C2381 H2388 0.961 . S
C2381 H2389 0.960 . S
C2382 C2380 1.381 . S
C2382 C2383 1.394 . S
C2382 H2390 0.930 . S
C2383 C2382 1.394 . S
C2383 C2384 1.383 . S
C2383 H2391 0.929 . S
C2384 C2383 1.383 . S
C2384 C2385 1.377 . S
C2385 H2369 0.930 . S
C2385 C2384 1.377 . S
C2385 C2386 1.379 . S
C2386 H2370 0.931 . S
C2386 C2380 1.383 . S
C2386 C2385 1.379 . S
H2387 C2381 0.959 . S
H2388 C2381 0.961 . S
H2389 C2381 0.960 . S
H2390 C2382 0.930 . S
H2391 C2383 0.929 . S
H2392 C2400 0.929 . S
H2393 C2402 0.930 . S
H2394 C2404 0.930 . S
H2395 C2407 0.929 . S
H2396 C2410 0.930 . S
H2397 C2412 0.960 . S
H2398 C2412 0.960 . S
H2399 C2412 0.960 . S
C2400 H2392 0.929 . S
C2400 C2401 1.377 . S
C2400 C2402 1.384 . S
C2401 C2400 1.377 . S
C2401 C2407 1.390 . S
C2402 H2393 0.930 . S
C2402 C2400 1.384 . S
C2402 C2403 1.372 . S
C2403 C2402 1.372 . S
C2403 C2404 1.400 . S
C2403 C2408 1.490 . S
C2404 H2394 0.930 . S
C2404 C2403 1.400 . S
C2404 C2407 1.386 . S
H2405 C2421 0.930 . S
H2406 C2422 0.931 . S
C2407 H2395 0.929 . S
C2407 C2401 1.390 . S
C2407 C2404 1.386 . S
C2408 C2403 1.490 . S
C2408 C2410 1.395 . S
C2408 C2411 1.403 . S
H2409 C2415 0.930 . S
C2410 H2396 0.930 . S
C2410 C2408 1.395 . S
C2410 C2413 1.403 . S
C2411 C2408 1.403 . S
C2411 C2412 1.524 . S
C2411 C2415 1.400 . S
C2412 H2397 0.960 . S
C2412 H2398 0.960 . S
C2412 H2399 0.960 . S
C2412 C2411 1.524 . S
C2413 C2410 1.403 . S
C2413 C2414 1.392 . S
C2413 C2417 1.495 . S
C2414 C2413 1.392 . S
C2414 C2415 1.385 . S
C2414 C2416 1.478 . S
C2415 H2409 0.930 . S
C2415 C2411 1.400 . S
C2415 C2414 1.385 . S
C2416 C2414 1.478 . S
C2416 C2418 1.381 . S
C2416 C2422 1.383 . S
C2417 C2413 1.495 . S
C2417 H2423 0.959 . S
C2417 H2424 0.961 . S
C2417 H2425 0.960 . S
C2418 C2416 1.381 . S
C2418 C2419 1.394 1_455 S
C2418 H2426 0.930 . S
C2419 C2418 1.394 1_655 S
C2419 C2420 1.383 1_655 S
C2419 H2427 0.929 . S
C2420 C2419 1.383 1_455 S
C2420 C2421 1.377 . S
C2421 H2405 0.930 . S
C2421 C2420 1.377 . S
C2421 C2422 1.379 . S
C2422 H2406 0.931 . S
C2422 C2416 1.383 . S
C2422 C2421 1.379 . S
H2423 C2417 0.959 . S
H2424 C2417 0.961 . S
H2425 C2417 0.960 . S
H2426 C2418 0.930 . S
H2427 C2419 0.929 . S
H2428 C2436 0.929 . S
H2429 C2438 0.930 . S
H2430 C2440 0.930 . S
H2431 C2443 0.929 . S
H2432 C2446 0.930 . S
H2433 C2448 0.960 . S
H2434 C2448 0.960 . S
H2435 C2448 0.960 . S
C2436 H2428 0.929 . S
C2436 C2437 1.377 . S
C2436 C2438 1.384 . S
C2437 C2436 1.377 . S
C2437 C2443 1.390 . S
C2438 H2429 0.930 . S
C2438 C2436 1.384 . S
C2438 C2439 1.372 . S
C2439 C2438 1.372 . S
C2439 C2440 1.400 . S
C2439 C2444 1.490 . S
C2440 H2430 0.930 . S
C2440 C2439 1.400 . S
C2440 C2443 1.386 . S
H2441 C2457 0.930 . S
H2442 C2458 0.931 . S
C2443 H2431 0.929 . S
C2443 C2437 1.390 . S
C2443 C2440 1.386 . S
C2444 C2439 1.490 . S
C2444 C2446 1.395 . S
C2444 C2447 1.403 . S
H2445 C2451 0.930 . S
C2446 H2432 0.930 . S
C2446 C2444 1.395 . S
C2446 C2449 1.403 . S
C2447 C2444 1.403 . S
C2447 C2448 1.524 . S
C2447 C2451 1.400 . S
C2448 H2433 0.960 . S
C2448 H2434 0.960 . S
C2448 H2435 0.960 . S
C2448 C2447 1.524 . S
C2449 C2446 1.403 . S
C2449 C2450 1.392 . S
C2449 C2453 1.495 . S
C2450 C2449 1.392 . S
C2450 C2451 1.385 . S
C2450 C2452 1.478 . S
C2451 H2445 0.930 . S
C2451 C2447 1.400 . S
C2451 C2450 1.385 . S
C2452 C2450 1.478 . S
C2452 C2454 1.381 . S
C2452 C2458 1.383 . S
C2453 C2449 1.495 . S
C2453 H2459 0.959 . S
C2453 H2460 0.961 . S
C2453 H2461 0.960 . S
C2454 C2452 1.381 . S
C2454 C2455 1.394 . S
C2454 H2462 0.930 . S
C2455 C2454 1.394 . S
C2455 C2456 1.383 . S
C2455 H2463 0.929 . S
C2456 C2455 1.383 . S
C2456 C2457 1.377 . S
C2457 H2441 0.930 . S
C2457 C2456 1.377 . S
C2457 C2458 1.379 . S
C2458 H2442 0.931 . S
C2458 C2452 1.383 . S
C2458 C2457 1.379 . S
H2459 C2453 0.959 . S
H2460 C2453 0.961 . S
H2461 C2453 0.960 . S
H2462 C2454 0.930 . S
H2463 C2455 0.929 . S
H2464 C2472 0.929 1_455 S
H2465 C2474 0.930 . S
H2466 C2476 0.930 . S
H2467 C2479 0.929 . S
H2468 C2482 0.930 . S
H2469 C2484 0.960 . S
H2470 C2484 0.960 . S
H2471 C2484 0.960 . S
C2472 H2464 0.929 1_655 S
C2472 C2473 1.377 . S
C2472 C2474 1.384 . S
C2473 C2472 1.377 . S
C2473 C2479 1.390 . S
C2474 H2465 0.930 . S
C2474 C2472 1.384 . S
C2474 C2475 1.372 . S
C2475 C2474 1.372 . S
C2475 C2476 1.400 . S
C2475 C2480 1.490 . S
C2476 H2466 0.930 . S
C2476 C2475 1.400 . S
C2476 C2479 1.386 . S
H2477 C2493 0.930 . S
H2478 C2494 0.931 . S
C2479 H2467 0.929 . S
C2479 C2473 1.390 . S
C2479 C2476 1.386 . S
C2480 C2475 1.490 . S
C2480 C2482 1.395 . S
C2480 C2483 1.403 . S
H2481 C2487 0.930 . S
C2482 H2468 0.930 . S
C2482 C2480 1.395 . S
C2482 C2485 1.403 . S
C2483 C2480 1.403 . S
C2483 C2484 1.524 . S
C2483 C2487 1.400 . S
C2484 H2469 0.960 . S
C2484 H2470 0.960 . S
C2484 H2471 0.960 . S
C2484 C2483 1.524 . S
C2485 C2482 1.403 . S
C2485 C2486 1.392 . S
C2485 C2489 1.495 . S
C2486 C2485 1.392 . S
C2486 C2487 1.385 . S
C2486 C2488 1.478 . S
C2487 H2481 0.930 . S
C2487 C2483 1.400 . S
C2487 C2486 1.385 . S
C2488 C2486 1.478 . S
C2488 C2490 1.381 . S
C2488 C2494 1.383 . S
C2489 C2485 1.495 . S
C2489 H2495 0.959 . S
C2489 H2496 0.961 . S
C2489 H2497 0.960 . S
C2490 C2488 1.381 . S
C2490 C2491 1.394 . S
C2490 H2498 0.930 . S
C2491 C2490 1.394 . S
C2491 C2492 1.383 . S
C2491 H2499 0.929 . S
C2492 C2491 1.383 . S
C2492 C2493 1.377 . S
C2493 H2477 0.930 . S
C2493 C2492 1.377 . S
C2493 C2494 1.379 . S
C2494 H2478 0.931 . S
C2494 C2488 1.383 . S
C2494 C2493 1.379 . S
H2495 C2489 0.959 . S
H2496 C2489 0.961 . S
H2497 C2489 0.960 . S
H2498 C2490 0.930 . S
H2499 C2491 0.929 . S
H2500 C2508 0.929 . S
H2501 C2510 0.930 . S
H2502 C2512 0.930 . S
H2503 C2515 0.929 . S
H2504 C2518 0.930 . S
H2505 C2520 0.960 . S
H2506 C2520 0.960 . S
H2507 C2520 0.960 . S
C2508 H2500 0.929 . S
C2508 C2509 1.377 . S
C2508 C2510 1.384 . S
C2509 C2508 1.377 . S
C2509 C2515 1.390 . S
C2510 H2501 0.930 . S
C2510 C2508 1.384 . S
C2510 C2511 1.372 . S
C2511 C2510 1.372 . S
C2511 C2512 1.400 . S
C2511 C2516 1.490 . S
C2512 H2502 0.930 . S
C2512 C2511 1.400 . S
C2512 C2515 1.386 . S
H2513 C2529 0.930 . S
H2514 C2530 0.931 . S
C2515 H2503 0.929 . S
C2515 C2509 1.390 . S
C2515 C2512 1.386 . S
C2516 C2511 1.490 . S
C2516 C2518 1.395 . S
C2516 C2519 1.403 . S
H2517 C2523 0.930 . S
C2518 H2504 0.930 . S
C2518 C2516 1.395 . S
C2518 C2521 1.403 . S
C2519 C2516 1.403 . S
C2519 C2520 1.524 . S
C2519 C2523 1.400 . S
C2520 H2505 0.960 . S
C2520 H2506 0.960 . S
C2520 H2507 0.960 . S
C2520 C2519 1.524 . S
C2521 C2518 1.403 . S
C2521 C2522 1.392 . S
C2521 C2525 1.495 . S
C2522 C2521 1.392 . S
C2522 C2523 1.385 . S
C2522 C2524 1.478 . S
C2523 H2517 0.930 . S
C2523 C2519 1.400 . S
C2523 C2522 1.385 . S
C2524 C2522 1.478 . S
C2524 C2526 1.381 . S
C2524 C2530 1.383 . S
C2525 C2521 1.495 . S
C2525 H2531 0.959 . S
C2525 H2532 0.961 . S
C2525 H2533 0.960 . S
C2526 C2524 1.381 . S
C2526 C2527 1.394 . S
C2526 H2534 0.930 . S
C2527 C2526 1.394 . S
C2527 C2528 1.383 . S
C2527 H2535 0.929 . S
C2528 C2527 1.383 . S
C2528 C2529 1.377 . S
C2529 H2513 0.930 . S
C2529 C2528 1.377 . S
C2529 C2530 1.379 . S
C2530 H2514 0.931 . S
C2530 C2524 1.383 . S
C2530 C2529 1.379 . S
H2531 C2525 0.959 . S
H2532 C2525 0.961 . S
H2533 C2525 0.960 . S
H2534 C2526 0.930 . S
H2535 C2527 0.929 . S
H2536 C2544 0.929 . S
H2537 C2546 0.930 . S
H2538 C2548 0.930 . S
H2539 C2551 0.929 . S
H2540 C2554 0.930 . S
H2541 C2556 0.960 . S
H2542 C2556 0.960 . S
H2543 C2556 0.960 . S
C2544 H2536 0.929 . S
C2544 C2545 1.377 . S
C2544 C2546 1.384 . S
C2545 C2544 1.377 . S
C2545 C2551 1.390 . S
C2546 H2537 0.930 . S
C2546 C2544 1.384 . S
C2546 C2547 1.372 . S
C2547 C2546 1.372 . S
C2547 C2548 1.400 . S
C2547 C2552 1.490 . S
C2548 H2538 0.930 . S
C2548 C2547 1.400 . S
C2548 C2551 1.386 . S
H2549 C2565 0.930 . S
H2550 C2566 0.931 . S
C2551 H2539 0.929 . S
C2551 C2545 1.390 . S
C2551 C2548 1.386 . S
C2552 C2547 1.490 . S
C2552 C2554 1.395 . S
C2552 C2555 1.403 . S
H2553 C2559 0.930 . S
C2554 H2540 0.930 . S
C2554 C2552 1.395 . S
C2554 C2557 1.403 . S
C2555 C2552 1.403 . S
C2555 C2556 1.524 . S
C2555 C2559 1.400 . S
C2556 H2541 0.960 . S
C2556 H2542 0.960 . S
C2556 H2543 0.960 . S
C2556 C2555 1.524 . S
C2557 C2554 1.403 . S
C2557 C2558 1.392 . S
C2557 C2561 1.495 . S
C2558 C2557 1.392 . S
C2558 C2559 1.385 . S
C2558 C2560 1.478 . S
C2559 H2553 0.930 . S
C2559 C2555 1.400 . S
C2559 C2558 1.385 . S
C2560 C2558 1.478 . S
C2560 C2562 1.381 . S
C2560 C2566 1.383 . S
C2561 C2557 1.495 . S
C2561 H2567 0.959 . S
C2561 H2568 0.961 . S
C2561 H2569 0.960 . S
C2562 C2560 1.381 . S
C2562 C2563 1.394 . S
C2562 H2570 0.930 . S
C2563 C2562 1.394 . S
C2563 C2564 1.383 . S
C2563 H2571 0.929 . S
C2564 C2563 1.383 . S
C2564 C2565 1.377 . S
C2565 H2549 0.930 . S
C2565 C2564 1.377 . S
C2565 C2566 1.379 . S
C2566 H2550 0.931 . S
C2566 C2560 1.383 . S
C2566 C2565 1.379 . S
H2567 C2561 0.959 . S
H2568 C2561 0.961 . S
H2569 C2561 0.960 . S
H2570 C2562 0.930 . S
H2571 C2563 0.929 . S
H2572 C2580 0.929 . S
H2573 C2582 0.930 . S
H2574 C2584 0.930 . S
H2575 C2587 0.929 . S
H2576 C2590 0.930 . S
H2577 C2592 0.960 . S
H2578 C2592 0.960 . S
H2579 C2592 0.960 . S
C2580 H2572 0.929 . S
C2580 C2581 1.377 . S
C2580 C2582 1.384 . S
C2581 C2580 1.377 . S
C2581 C2587 1.390 . S
C2582 H2573 0.930 . S
C2582 C2580 1.384 . S
C2582 C2583 1.372 . S
C2583 C2582 1.372 . S
C2583 C2584 1.400 . S
C2583 C2588 1.490 . S
C2584 H2574 0.930 . S
C2584 C2583 1.400 . S
C2584 C2587 1.386 . S
H2585 C2601 0.930 . S
H2586 C2602 0.931 . S
C2587 H2575 0.929 . S
C2587 C2581 1.390 . S
C2587 C2584 1.386 . S
C2588 C2583 1.490 . S
C2588 C2590 1.395 . S
C2588 C2591 1.403 . S
H2589 C2595 0.930 . S
C2590 H2576 0.930 . S
C2590 C2588 1.395 . S
C2590 C2593 1.403 . S
C2591 C2588 1.403 . S
C2591 C2592 1.524 . S
C2591 C2595 1.400 . S
C2592 H2577 0.960 . S
C2592 H2578 0.960 . S
C2592 H2579 0.960 . S
C2592 C2591 1.524 . S
C2593 C2590 1.403 . S
C2593 C2594 1.392 . S
C2593 C2597 1.495 . S
C2594 C2593 1.392 . S
C2594 C2595 1.385 . S
C2594 C2596 1.478 . S
C2595 H2589 0.930 . S
C2595 C2591 1.400 . S
C2595 C2594 1.385 . S
C2596 C2594 1.478 . S
C2596 C2598 1.381 . S
C2596 C2602 1.383 . S
C2597 C2593 1.495 . S
C2597 H2603 0.959 . S
C2597 H2604 0.961 . S
C2597 H2605 0.960 . S
C2598 C2596 1.381 . S
C2598 C2599 1.394 . S
C2598 H2606 0.930 . S
C2599 C2598 1.394 . S
C2599 C2600 1.383 . S
C2599 H2607 0.929 . S
C2600 C2599 1.383 . S
C2600 C2601 1.377 . S
C2601 H2585 0.930 . S
C2601 C2600 1.377 . S
C2601 C2602 1.379 . S
C2602 H2586 0.931 . S
C2602 C2596 1.383 . S
C2602 C2601 1.379 . S
H2603 C2597 0.959 . S
H2604 C2597 0.961 . S
H2605 C2597 0.960 . S
H2606 C2598 0.930 . S
H2607 C2599 0.929 . S
H2608 C2616 0.929 . S
H2609 C2618 0.930 . S
H2610 C2620 0.930 . S
H2611 C2623 0.929 . S
H2612 C2626 0.930 . S
H2613 C2628 0.960 . S
H2614 C2628 0.960 . S
H2615 C2628 0.960 . S
C2616 H2608 0.929 . S
C2616 C2617 1.377 . S
C2616 C2618 1.384 . S
C2617 C2616 1.377 . S
C2617 C2623 1.390 . S
C2618 H2609 0.930 . S
C2618 C2616 1.384 . S
C2618 C2619 1.372 . S
C2619 C2618 1.372 . S
C2619 C2620 1.400 . S
C2619 C2624 1.490 . S
C2620 H2610 0.930 . S
C2620 C2619 1.400 . S
C2620 C2623 1.386 . S
H2621 C2637 0.930 . S
H2622 C2638 0.931 . S
C2623 H2611 0.929 . S
C2623 C2617 1.390 . S
C2623 C2620 1.386 . S
C2624 C2619 1.490 . S
C2624 C2626 1.395 . S
C2624 C2627 1.403 . S
H2625 C2631 0.930 . S
C2626 H2612 0.930 . S
C2626 C2624 1.395 . S
C2626 C2629 1.403 . S
C2627 C2624 1.403 . S
C2627 C2628 1.524 . S
C2627 C2631 1.400 . S
C2628 H2613 0.960 . S
C2628 H2614 0.960 . S
C2628 H2615 0.960 . S
C2628 C2627 1.524 . S
C2629 C2626 1.403 . S
C2629 C2630 1.392 . S
C2629 C2633 1.495 . S
C2630 C2629 1.392 . S
C2630 C2631 1.385 . S
C2630 C2632 1.478 . S
C2631 H2625 0.930 . S
C2631 C2627 1.400 . S
C2631 C2630 1.385 . S
C2632 C2630 1.478 . S
C2632 C2634 1.381 . S
C2632 C2638 1.383 . S
C2633 C2629 1.495 . S
C2633 H2639 0.959 . S
C2633 H2640 0.961 . S
C2633 H2641 0.960 . S
C2634 C2632 1.381 . S
C2634 C2635 1.394 . S
C2634 H2642 0.930 . S
C2635 C2634 1.394 . S
C2635 C2636 1.383 . S
C2635 H2643 0.929 . S
C2636 C2635 1.383 . S
C2636 C2637 1.377 . S
C2637 H2621 0.930 . S
C2637 C2636 1.377 . S
C2637 C2638 1.379 . S
C2638 H2622 0.931 . S
C2638 C2632 1.383 . S
C2638 C2637 1.379 . S
H2639 C2633 0.959 . S
H2640 C2633 0.961 . S
H2641 C2633 0.960 . S
H2642 C2634 0.930 . S
H2643 C2635 0.929 . S
H2644 C2652 0.929 . S
H2645 C2654 0.930 . S
H2646 C2656 0.930 . S
H2647 C2659 0.929 . S
H2648 C2662 0.930 . S
H2649 C2664 0.960 . S
H2650 C2664 0.960 . S
H2651 C2664 0.960 . S
C2652 H2644 0.929 . S
C2652 C2653 1.377 . S
C2652 C2654 1.384 . S
C2653 C2652 1.377 . S
C2653 C2659 1.390 . S
C2654 H2645 0.930 . S
C2654 C2652 1.384 . S
C2654 C2655 1.372 . S
C2655 C2654 1.372 . S
C2655 C2656 1.400 . S
C2655 C2660 1.490 . S
C2656 H2646 0.930 . S
C2656 C2655 1.400 . S
C2656 C2659 1.386 . S
H2657 C2673 0.930 . S
H2658 C2674 0.931 . S
C2659 H2647 0.929 . S
C2659 C2653 1.390 . S
C2659 C2656 1.386 . S
C2660 C2655 1.490 . S
C2660 C2662 1.395 . S
C2660 C2663 1.403 . S
H2661 C2667 0.930 . S
C2662 H2648 0.930 . S
C2662 C2660 1.395 . S
C2662 C2665 1.403 . S
C2663 C2660 1.403 . S
C2663 C2664 1.524 . S
C2663 C2667 1.400 . S
C2664 H2649 0.960 . S
C2664 H2650 0.960 . S
C2664 H2651 0.960 . S
C2664 C2663 1.524 . S
C2665 C2662 1.403 . S
C2665 C2666 1.392 . S
C2665 C2669 1.495 . S
C2666 C2665 1.392 . S
C2666 C2667 1.385 . S
C2666 C2668 1.478 . S
C2667 H2661 0.930 . S
C2667 C2663 1.400 . S
C2667 C2666 1.385 . S
C2668 C2666 1.478 . S
C2668 C2670 1.381 . S
C2668 C2674 1.383 . S
C2669 C2665 1.495 . S
C2669 H2675 0.959 . S
C2669 H2676 0.961 . S
C2669 H2677 0.960 . S
C2670 C2668 1.381 . S
C2670 C2671 1.394 . S
C2670 H2678 0.930 . S
C2671 C2670 1.394 . S
C2671 C2672 1.383 . S
C2671 H2679 0.929 . S
C2672 C2671 1.383 . S
C2672 C2673 1.377 . S
C2673 H2657 0.930 . S
C2673 C2672 1.377 . S
C2673 C2674 1.379 . S
C2674 H2658 0.931 . S
C2674 C2668 1.383 . S
C2674 C2673 1.379 . S
H2675 C2669 0.959 . S
H2676 C2669 0.961 . S
H2677 C2669 0.960 . S
H2678 C2670 0.930 . S
H2679 C2671 0.929 . S
H2680 C2688 0.929 . S
H2681 C2690 0.930 . S
H2682 C2692 0.930 . S
H2683 C2695 0.929 . S
H2684 C2698 0.930 . S
H2685 C2700 0.960 . S
H2686 C2700 0.960 . S
H2687 C2700 0.960 . S
C2688 H2680 0.929 . S
C2688 C2689 1.377 . S
C2688 C2690 1.384 . S
C2689 C2688 1.377 . S
C2689 C2695 1.390 . S
C2690 H2681 0.930 . S
C2690 C2688 1.384 . S
C2690 C2691 1.372 . S
C2691 C2690 1.372 . S
C2691 C2692 1.400 . S
C2691 C2696 1.490 . S
C2692 H2682 0.930 . S
C2692 C2691 1.400 . S
C2692 C2695 1.386 . S
H2693 C2709 0.930 . S
H2694 C2710 0.931 . S
C2695 H2683 0.929 . S
C2695 C2689 1.390 . S
C2695 C2692 1.386 . S
C2696 C2691 1.490 . S
C2696 C2698 1.395 . S
C2696 C2699 1.403 . S
H2697 C2703 0.930 . S
C2698 H2684 0.930 . S
C2698 C2696 1.395 . S
C2698 C2701 1.403 . S
C2699 C2696 1.403 . S
C2699 C2700 1.524 . S
C2699 C2703 1.400 . S
C2700 H2685 0.960 . S
C2700 H2686 0.960 . S
C2700 H2687 0.960 . S
C2700 C2699 1.524 . S
C2701 C2698 1.403 . S
C2701 C2702 1.392 . S
C2701 C2705 1.495 . S
C2702 C2701 1.392 . S
C2702 C2703 1.385 . S
C2702 C2704 1.478 . S
C2703 H2697 0.930 . S
C2703 C2699 1.400 . S
C2703 C2702 1.385 . S
C2704 C2702 1.478 . S
C2704 C2706 1.381 . S
C2704 C2710 1.383 . S
C2705 C2701 1.495 . S
C2705 H2711 0.959 . S
C2705 H2712 0.961 . S
C2705 H2713 0.960 . S
C2706 C2704 1.381 . S
C2706 C2707 1.394 . S
C2706 H2714 0.930 . S
C2707 C2706 1.394 . S
C2707 C2708 1.383 . S
C2707 H2715 0.929 . S
C2708 C2707 1.383 . S
C2708 C2709 1.377 . S
C2709 H2693 0.930 . S
C2709 C2708 1.377 . S
C2709 C2710 1.379 . S
C2710 H2694 0.931 . S
C2710 C2704 1.383 . S
C2710 C2709 1.379 . S
H2711 C2705 0.959 . S
H2712 C2705 0.961 . S
H2713 C2705 0.960 . S
H2714 C2706 0.930 . S
H2715 C2707 0.929 . S
H2716 C2724 0.929 . S
H2717 C2726 0.930 . S
H2718 C2728 0.930 . S
H2719 C2731 0.929 . S
H2720 C2734 0.930 . S
H2721 C2736 0.960 . S
H2722 C2736 0.960 . S
H2723 C2736 0.960 . S
C2724 H2716 0.929 . S
C2724 C2725 1.377 . S
C2724 C2726 1.384 . S
C2725 C2724 1.377 . S
C2725 C2731 1.390 . S
C2726 H2717 0.930 . S
C2726 C2724 1.384 . S
C2726 C2727 1.372 . S
C2727 C2726 1.372 . S
C2727 C2728 1.400 . S
C2727 C2732 1.490 . S
C2728 H2718 0.930 . S
C2728 C2727 1.400 . S
C2728 C2731 1.386 . S
H2729 C2745 0.930 . S
H2730 C2746 0.931 . S
C2731 H2719 0.929 . S
C2731 C2725 1.390 . S
C2731 C2728 1.386 . S
C2732 C2727 1.490 . S
C2732 C2734 1.395 . S
C2732 C2735 1.403 . S
H2733 C2739 0.930 . S
C2734 H2720 0.930 . S
C2734 C2732 1.395 . S
C2734 C2737 1.403 . S
C2735 C2732 1.403 . S
C2735 C2736 1.524 . S
C2735 C2739 1.400 . S
C2736 H2721 0.960 . S
C2736 H2722 0.960 . S
C2736 H2723 0.960 . S
C2736 C2735 1.524 . S
C2737 C2734 1.403 . S
C2737 C2738 1.392 . S
C2737 C2741 1.495 . S
C2738 C2737 1.392 . S
C2738 C2739 1.385 . S
C2738 C2740 1.478 . S
C2739 H2733 0.930 . S
C2739 C2735 1.400 . S
C2739 C2738 1.385 . S
C2740 C2738 1.478 . S
C2740 C2742 1.381 . S
C2740 C2746 1.383 . S
C2741 C2737 1.495 . S
C2741 H2747 0.959 . S
C2741 H2748 0.961 . S
C2741 H2749 0.960 . S
C2742 C2740 1.381 . S
C2742 C2743 1.394 . S
C2742 H2750 0.930 . S
C2743 C2742 1.394 . S
C2743 C2744 1.383 . S
C2743 H2751 0.929 . S
C2744 C2743 1.383 . S
C2744 C2745 1.377 . S
C2745 H2729 0.930 . S
C2745 C2744 1.377 . S
C2745 C2746 1.379 . S
C2746 H2730 0.931 . S
C2746 C2740 1.383 . S
C2746 C2745 1.379 . S
H2747 C2741 0.959 . S
H2748 C2741 0.961 . S
H2749 C2741 0.960 . S
H2750 C2742 0.930 . S
H2751 C2743 0.929 . S
C457 C51 1.118 . S
C476 C9 1.093 . S
C493 C37 1.120 . S
C512 C23 1.111 . S
C529 C107 1.129 . S
C548 C65 1.098 . S
C565 C93 1.120 . S
C584 C79 1.101 . S
C601 C121 1.131 . S
C620 C163 1.148 . S
C637 C135 1.125 . S
C656 C149 1.112 . S
C673 C219 1.119 . S
C692 C177 1.144 . S
C709 C191 1.121 . S
C728 C205 1.095 . S
C745 C233 1.126 . S
C764 C275 1.144 . S
C781 C247 1.125 . S
C800 C261 1.138 . S
C817 C331 1.119 . S
C836 C289 1.105 . S
C853 C317 1.124 . S
C872 C303 1.090 . S
C889 C387 1.123 . S
C908 C345 1.104 . S
C925 C359 1.129 . S
C944 C373 1.153 . S
C961 C401 1.131 . S
C980 C443 1.122 . S
C997 C415 1.129 . S
C1016 C429 1.098 . S
C1033 C287 1.366 . S
C1052 C7 1.356 . S
C1069 C189 1.366 . S
C1088 C21 1.359 . S
C1105 C35 1.362 . S
C1124 C427 1.372 . S
C1141 C49 1.366 . S
C1160 C105 1.358 . S
C1177 C231 1.359 . S
C1196 C63 1.354 . S
C1213 C133 1.367 . S
C1232 C77 1.373 . S
C1249 C371 1.361 . S
C1268 C91 1.366 . S
C1285 C119 1.367 . S
C1304 C399 1.367 . S
C1321 C315 1.361 . S
C1340 C147 1.343 . S
C1357 C217 1.367 . S
C1376 C161 1.358 . S
C1393 C343 1.367 . S
C1412 C175 1.360 . S
C1429 C203 1.367 . S
C1448 C259 1.368 . S
C1465 C413 1.365 . S
C1484 C245 1.350 . S
C1501 C273 1.360 . S
C1520 C329 1.359 . S
C1537 C357 1.367 . S
C1556 C301 1.370 . S
C1573 C441 1.366 . S
C1592 C385 1.353 . S
C1609 C22 1.308 . S
C1628 C8 1.323 . S
C1645 C36 1.306 . S
C1664 C50 1.327 . S
C1681 C64 1.308 . S
C1700 C78 1.324 . S
C1717 C106 1.309 . S
C1736 C92 1.323 . S
C1753 C120 1.301 . S
C1772 C134 1.274 . S
C1789 C148 1.304 . S
C1808 C162 1.326 . S
C1825 C190 1.298 . S
C1844 C176 1.280 . S
C1861 C204 1.306 . S
C1880 C218 1.327 . S
C1897 C232 1.305 . S
C1916 C246 1.327 . S
C1933 C260 1.308 . S
C1952 C274 1.296 . S
C1969 C288 1.304 . S
C1988 C302 1.279 . S
C2005 C330 1.300 . S
C2024 C316 1.314 . S
C2041 C358 1.302 . S
C2060 C344 1.320 . S
C2077 C372 1.308 . S
C2096 C386 1.324 . S
C2113 C400 1.298 . S
C2132 C414 1.277 . S
C2149 C442 1.302 . S
C2168 C428 1.320 . S
C2185 C6 1.571 1_655 S
C2204 C272 1.558 . S
C2221 C20 1.573 . S
C2240 C258 1.580 . S
C2257 C244 1.574 . S
C2276 C34 1.577 1_655 S
C2293 C48 1.574 . S
C2312 C230 1.575 . S
C2329 C328 1.574 . S
C2348 C62 1.579 1_455 S
C2365 C76 1.574 . S
C2384 C314 1.577 . S
C2401 C300 1.571 . S
C2420 C90 1.567 1_455 S
C2437 C104 1.572 . S
C2456 C286 1.569 . S
C2473 C118 1.575 1_655 S
C2492 C384 1.565 . S
C2509 C132 1.572 . S
C2528 C370 1.582 . S
C2545 C146 1.574 1_655 S
C2564 C356 1.577 . S
C2581 C342 1.572 . S
C2600 C160 1.582 . S
C2617 C174 1.569 1_455 S
C2636 C440 1.554 . S
C2653 C188 1.572 . S
C2672 C426 1.564 . S
C2689 C202 1.575 1_455 S
C2708 C412 1.584 . S
C2725 C398 1.575 . S
C2744 C216 1.584 . S
