# Generated by pormake.
# Topology upc, (4)-cn, num edge types: 1
# Building blocks:
#     Node 0, Type 0, BuildingBlock: ICAMEG_clean_sbu_1, # of connection points: 4
#     Node 1, Type 0, BuildingBlock: ICAMEG_clean_sbu_1, # of connection points: 4
#     Node 2, Type 0, BuildingBlock: ICAMEG_clean_sbu_1, # of connection points: 4
#     Node 3, Type 0, BuildingBlock: ICAMEG_clean_sbu_1, # of connection points: 4
#     Node 4, Type 0, BuildingBlock: ICAMEG_clean_sbu_1, # of connection points: 4
#     Node 5, Type 0, BuildingBlock: ICAMEG_clean_sbu_1, # of connection points: 4
#     Node 6, Type 0, BuildingBlock: ICAMEG_clean_sbu_1, # of connection points: 4
#     Node 7, Type 0, BuildingBlock: ICAMEG_clean_sbu_1, # of connection points: 4
#     Node 8, Type 0, BuildingBlock: ICAMEG_clean_sbu_1, # of connection points: 4
#     Node 9, Type 0, BuildingBlock: ICAMEG_clean_sbu_1, # of connection points: 4
#     Node 10, Type 0, BuildingBlock: ICAMEG_clean_sbu_1, # of connection points: 4
#     Node 11, Type 0, BuildingBlock: ICAMEG_clean_sbu_1, # of connection points: 4
#     Node 12, Type 0, BuildingBlock: ICAMEG_clean_sbu_1, # of connection points: 4
#     Node 13, Type 0, BuildingBlock: ICAMEG_clean_sbu_1, # of connection points: 4
#     Node 14, Type 0, BuildingBlock: ICAMEG_clean_sbu_1, # of connection points: 4
#     Node 15, Type 0, BuildingBlock: ICAMEG_clean_sbu_1, # of connection points: 4
#     Edge 16, Type (0, 0), BuildingBlock: OJICUG_clean_linker_0, # of connection points: 2
#     Edge 17, Type (0, 0), BuildingBlock: OJICUG_clean_linker_0, # of connection points: 2
#     Edge 18, Type (0, 0), BuildingBlock: OJICUG_clean_linker_0, # of connection points: 2
#     Edge 19, Type (0, 0), BuildingBlock: OJICUG_clean_linker_0, # of connection points: 2
#     Edge 20, Type (0, 0), BuildingBlock: OJICUG_clean_linker_0, # of connection points: 2
#     Edge 21, Type (0, 0), BuildingBlock: OJICUG_clean_linker_0, # of connection points: 2
#     Edge 22, Type (0, 0), BuildingBlock: OJICUG_clean_linker_0, # of connection points: 2
#     Edge 23, Type (0, 0), BuildingBlock: OJICUG_clean_linker_0, # of connection points: 2
#     Edge 24, Type (0, 0), BuildingBlock: OJICUG_clean_linker_0, # of connection points: 2
#     Edge 25, Type (0, 0), BuildingBlock: OJICUG_clean_linker_0, # of connection points: 2
#     Edge 26, Type (0, 0), BuildingBlock: OJICUG_clean_linker_0, # of connection points: 2
#     Edge 27, Type (0, 0), BuildingBlock: OJICUG_clean_linker_0, # of connection points: 2
#     Edge 28, Type (0, 0), BuildingBlock: OJICUG_clean_linker_0, # of connection points: 2
#     Edge 29, Type (0, 0), BuildingBlock: OJICUG_clean_linker_0, # of connection points: 2
#     Edge 30, Type (0, 0), BuildingBlock: OJICUG_clean_linker_0, # of connection points: 2
#     Edge 31, Type (0, 0), BuildingBlock: OJICUG_clean_linker_0, # of connection points: 2
#     Edge 32, Type (0, 0), BuildingBlock: OJICUG_clean_linker_0, # of connection points: 2
#     Edge 33, Type (0, 0), BuildingBlock: OJICUG_clean_linker_0, # of connection points: 2
#     Edge 34, Type (0, 0), BuildingBlock: OJICUG_clean_linker_0, # of connection points: 2
#     Edge 35, Type (0, 0), BuildingBlock: OJICUG_clean_linker_0, # of connection points: 2
#     Edge 36, Type (0, 0), BuildingBlock: OJICUG_clean_linker_0, # of connection points: 2
#     Edge 37, Type (0, 0), BuildingBlock: OJICUG_clean_linker_0, # of connection points: 2
#     Edge 38, Type (0, 0), BuildingBlock: OJICUG_clean_linker_0, # of connection points: 2
#     Edge 39, Type (0, 0), BuildingBlock: OJICUG_clean_linker_0, # of connection points: 2
#     Edge 40, Type (0, 0), BuildingBlock: OJICUG_clean_linker_0, # of connection points: 2
#     Edge 41, Type (0, 0), BuildingBlock: OJICUG_clean_linker_0, # of connection points: 2
#     Edge 42, Type (0, 0), BuildingBlock: OJICUG_clean_linker_0, # of connection points: 2
#     Edge 43, Type (0, 0), BuildingBlock: OJICUG_clean_linker_0, # of connection points: 2
#     Edge 44, Type (0, 0), BuildingBlock: OJICUG_clean_linker_0, # of connection points: 2
#     Edge 45, Type (0, 0), BuildingBlock: OJICUG_clean_linker_0, # of connection points: 2
#     Edge 46, Type (0, 0), BuildingBlock: OJICUG_clean_linker_0, # of connection points: 2
#     Edge 47, Type (0, 0), BuildingBlock: OJICUG_clean_linker_0, # of connection points: 2
# Relax obj value: 0.215
# Max RMSD: 0.212
# Mean RMSD: 0.212
data_MOF--net-upc--node1-ICAMEG_clean_sbu_1--edge1-OJICUG_clean_linker_0
_symmetry_space_group_name_H-M    P1
_symmetry_Int_Tables_number       1
_symmetry_cell_setting            triclinic
loop_
_symmetry_equiv_pos_as_xyz
'x, y, z'
_cell_length_a     26.136284
_cell_length_b     26.139672
_cell_length_c     34.795736
_cell_angle_alpha  90.001698
_cell_angle_beta   89.933739
_cell_angle_gamma 89.998046
loop_
_atom_site_label
_atom_site_type_symbol
_atom_site_fract_x
_atom_site_fract_y
_atom_site_fract_z
_atom_type_partial_charge
Co0 Co 0.13478 0.61838 0.16879 0.0
Co1 Co 0.04608 0.67713 0.11038 0.0
O2 O 0.07784 0.61648 0.13301 0.0
C3 C 0.05266 0.57407 0.21157 0.0
O4 O 0.0239 0.60991 0.1966 0.0
C5 C 0.05655 0.59299 0.05135 0.0
O6 O 0.10347 0.58451 0.06314 0.0
O7 O 0.11561 0.7009 0.09199 0.0
O8 O 0.1709 0.66966 0.13625 0.0
H9 H 0.03133 0.86382 0.07771 0.0
H10 H 0.10135 0.51901 0.13599 0.0
O11 O 0.09837 0.56792 0.20059 0.0
H12 H 0.28519 0.53315 0.1056 0.0
H13 H 0.2097 0.55572 0.28945 0.0
H14 H 0.19989 0.7012 0.19983 0.0
H15 H 0.24129 0.60091 0.14251 0.0
H16 H 0.18278 0.54238 0.22233 0.0
O17 O 0.03348 0.63394 0.06211 0.0
H18 H 0.06902 0.78811 0.10931 0.0
H19 H 0.95737 0.69235 0.05762 0.0
H20 H 0.23006 0.71545 0.26583 0.0
H21 H 0.14364 0.45019 0.09912 0.0
H22 H 0.23045 0.64345 0.3121 0.0
H23 H 0.23615 0.45724 0.0835 0.0
O24 O 0.10176 0.67246 0.19884 0.0
H25 H 0.90555 0.54871 0.13392 0.0
H26 H 0.95849 0.72853 0.14968 0.0
H27 H 0.87364 0.70123 0.1728 0.0
H28 H 0.84643 0.61081 0.16465 0.0
H29 H 0.99033 0.57719 0.11198 0.0
H30 H 0.91831 0.76695 0.02568 0.0
H31 H 0.95474 0.85347 0.0362 0.0
O32 O 0.0535 0.71996 0.16007 0.0
C33 C 0.16059 0.6968 0.10668 0.0
C34 C 0.01479 0.82633 0.07323 0.0
C35 C 0.95142 0.77195 0.04396 0.0
N36 N 0.01529 0.73596 0.08549 0.0
C37 C 0.03597 0.78337 0.09104 0.0
C38 C 0.97381 0.72983 0.06203 0.0
C39 C 0.972 0.8205 0.04977 0.0
C40 C 0.14169 0.52208 0.12949 0.0
N41 N 0.1688 0.56404 0.14097 0.0
C42 C 0.1654 0.4831 0.10855 0.0
C43 C 0.2173 0.48711 0.09975 0.0
C44 C 0.24482 0.52973 0.11209 0.0
C45 C 0.21979 0.56801 0.13287 0.0
C46 C 0.20839 0.58771 0.26973 0.0
C47 C 0.20462 0.66858 0.21857 0.0
C48 C 0.19397 0.58029 0.23146 0.0
N49 N 0.18833 0.62115 0.20731 0.0
C50 C 0.22013 0.67731 0.2564 0.0
C51 C 0.22006 0.63688 0.28245 0.0
C52 C 0.07272 0.71024 0.19328 0.0
C53 C 0.91676 0.5883 0.13731 0.0
C54 C 0.94719 0.68903 0.14621 0.0
C55 C 0.89896 0.67383 0.15928 0.0
C56 C 0.88369 0.62313 0.15467 0.0
N57 N 0.97934 0.65477 0.12886 0.0
C58 C 0.96468 0.60485 0.12459 0.0
Co59 Co 0.9133 0.13598 0.16346 0.0
Co60 Co 0.84435 0.05358 0.10644 0.0
O61 O 0.90835 0.08027 0.12694 0.0
C62 C 0.95622 0.05088 0.20318 0.0
O63 O 0.91938 0.02384 0.1878 0.0
C64 C 0.92454 0.06213 0.04481 0.0
O65 O 0.93389 0.10908 0.0562 0.0
O66 O 0.8239 0.12507 0.09031 0.0
O67 O 0.86065 0.17625 0.13493 0.0
H68 H 0.65436 0.04944 0.08424 0.0
H69 H 0.00761 0.09781 0.12549 0.0
O70 O 0.96465 0.09613 0.19197 0.0
H71 H 1.00139 0.28268 0.09748 0.0
H72 H 1.0028 0.21532 0.27311 0.0
H73 H 0.83789 0.19903 0.20564 0.0
H74 H 0.93391 0.24173 0.13655 0.0
H75 H 0.99959 0.18349 0.2065 0.0
O76 O 0.8836 0.0398 0.05645 0.0
H77 H 0.73481 0.08228 0.11196 0.0
H78 H 0.81956 0.96893 0.05197 0.0
H79 H 0.83921 0.23008 0.27247 0.0
H80 H 0.07653 0.13726 0.08697 0.0
H81 H 0.92186 0.2351 0.30735 0.0
H82 H 0.07359 0.23032 0.07278 0.0
O83 O 0.86013 0.10472 0.19613 0.0
H84 H 0.96401 0.90388 0.12294 0.0
H85 H 0.78978 0.96889 0.14669 0.0
H86 H 0.81258 0.88184 0.16772 0.0
H87 H 0.90017 0.84856 0.15558 0.0
H88 H 0.94 0.99072 0.10281 0.0
H89 H 0.74016 0.93516 0.02337 0.0
H90 H 0.6568 0.97506 0.03985 0.0
O91 O 0.80606 0.06277 0.15788 0.0
C92 C 0.83073 0.16891 0.10635 0.0
C93 C 0.69048 0.03164 0.07693 0.0
C94 C 0.73864 0.96756 0.0427 0.0
N95 N 0.78181 0.02753 0.08367 0.0
C96 C 0.73613 0.05005 0.09256 0.0
C97 C 0.78352 0.98701 0.05886 0.0
C98 C 0.69186 0.99 0.05193 0.0
C99 C 0.00624 0.13836 0.11947 0.0
N100 N 0.96657 0.16742 0.13281 0.0
C101 C 0.04525 0.16046 0.09759 0.0
C102 C 0.0435 0.21265 0.08953 0.0
C103 C 1.003 0.24205 0.10339 0.0
C104 C 0.96473 0.21866 0.12524 0.0
C105 C 0.96649 0.21232 0.25836 0.0
C106 C 0.87431 0.20433 0.21981 0.0
C107 C 0.96453 0.19554 0.22031 0.0
N108 N 0.91851 0.18855 0.20245 0.0
C109 C 0.87466 0.22063 0.258 0.0
C110 C 0.92104 0.22339 0.2776 0.0
C111 C 0.81947 0.07938 0.19118 0.0
C112 C 0.92556 0.91766 0.12793 0.0
C113 C 0.82805 0.95488 0.14137 0.0
C114 C 0.84069 0.90543 0.15329 0.0
C115 C 0.88979 0.88675 0.14643 0.0
N116 N 0.86321 0.98491 0.12292 0.0
C117 C 0.91153 0.96681 0.11628 0.0
Co118 Co 0.363 0.899 0.16895 0.0
Co119 Co 0.44981 0.83979 0.10874 0.0
O120 O 0.41994 0.9003 0.13297 0.0
C121 C 0.44781 0.93476 0.21286 0.0
O122 O 0.47427 0.89921 0.19533 0.0
C123 C 0.43962 0.9259 0.05128 0.0
O124 O 0.39363 0.93567 0.06455 0.0
O125 O 0.37929 0.81752 0.09133 0.0
O126 O 0.3244 0.85195 0.13468 0.0
H127 H 0.46342 0.65309 0.07543 0.0
H128 H 0.40229 0.99859 0.14059 0.0
O129 O 0.40229 0.94467 0.20294 0.0
H130 H 0.2187 0.9964 0.10794 0.0
H131 H 0.28949 0.96031 0.29056 0.0
H132 H 0.29443 0.81772 0.19807 0.0
H133 H 0.25806 0.92402 0.14266 0.0
H134 H 0.31784 0.97479 0.22382 0.0
O135 O 0.46177 0.88392 0.06081 0.0
H136 H 0.42582 0.72888 0.10714 0.0
H137 H 0.53634 0.82473 0.05396 0.0
H138 H 0.26385 0.80218 0.26388 0.0
H139 H 0.36459 0.07197 0.10601 0.0
H140 H 0.26575 0.87252 0.31152 0.0
H141 H 0.27223 0.0709 0.08917 0.0
O142 O 0.3926 0.8411 0.19682 0.0
H143 H 0.59351 0.96504 0.13124 0.0
H144 H 0.53751 0.78594 0.14584 0.0
H145 H 0.62345 0.81113 0.16782 0.0
H146 H 0.65219 0.90115 0.16026 0.0
H147 H 0.50747 0.9387 0.11068 0.0
H148 H 0.57481 0.75024 0.02155 0.0
H149 H 0.53894 0.66373 0.03272 0.0
O150 O 0.44303 0.79599 0.15789 0.0
C151 C 0.33418 0.82387 0.10549 0.0
C152 C 0.47954 0.69067 0.0705 0.0
C153 C 0.542 0.7452 0.04018 0.0
N154 N 0.47898 0.78109 0.08256 0.0
C155 C 0.45845 0.73366 0.08839 0.0
C156 C 0.51989 0.78728 0.05849 0.0
C157 C 0.52176 0.69662 0.04641 0.0
C158 C 0.36199 0.99817 0.13364 0.0
N159 N 0.33241 0.95704 0.14326 0.0
C160 C 0.34088 0.03971 0.11398 0.0
C161 C 0.28907 0.03906 0.10451 0.0
C162 C 0.25902 0.99723 0.11497 0.0
C163 C 0.28149 0.95634 0.13453 0.0
C164 C 0.28978 0.92897 0.27022 0.0
C165 C 0.29094 0.84976 0.21753 0.0
C166 C 0.30481 0.93713 0.23216 0.0
N167 N 0.30915 0.89689 0.20728 0.0
C168 C 0.27517 0.84025 0.2552 0.0
C169 C 0.27644 0.8798 0.282 0.0
C170 C 0.42207 0.80378 0.1908 0.0
C171 C 0.58156 0.92561 0.13445 0.0
C172 C 0.54945 0.82529 0.14265 0.0
C173 C 0.5983 0.83929 0.15508 0.0
C174 C 0.61442 0.88978 0.15081 0.0
N175 N 0.51749 0.86053 0.12629 0.0
C176 C 0.53293 0.91028 0.12245 0.0
Co177 Co 0.61719 0.36364 0.17006 0.0
Co178 Co 0.67479 0.45486 0.11292 0.0
O179 O 0.6144 0.42059 0.13415 0.0
C180 C 0.56789 0.4438 0.21173 0.0
O181 O 0.60344 0.47366 0.19756 0.0
C182 C 0.59292 0.44333 0.05214 0.0
O183 O 0.58411 0.39649 0.06397 0.0
O184 O 0.70191 0.38638 0.09482 0.0
O185 O 0.67118 0.32985 0.13851 0.0
H186 H 0.86249 0.47969 0.0872 0.0
H187 H 0.51771 0.39304 0.13544 0.0
O188 O 0.56396 0.39779 0.20096 0.0
H189 H 0.54091 0.21031 0.1046 0.0
H190 H 0.55421 0.28601 0.28974 0.0
H191 H 0.70162 0.30197 0.20231 0.0
H192 H 0.60529 0.25669 0.1431 0.0
H193 H 0.54158 0.31218 0.22233 0.0
O194 O 0.63336 0.46663 0.06366 0.0
H195 H 0.78674 0.43644 0.11455 0.0
H196 H 0.68889 0.54474 0.06103 0.0
H197 H 0.71546 0.27289 0.26858 0.0
H198 H 0.45222 0.34824 0.09693 0.0
H199 H 0.6422 0.26958 0.3138 0.0
H200 H 0.46389 0.25631 0.08103 0.0
O201 O 0.66867 0.39866 0.20128 0.0
H202 H 0.54071 0.59093 0.13376 0.0
H203 H 0.72127 0.54355 0.15414 0.0
H204 H 0.69012 0.62711 0.177 0.0
H205 H 0.59935 0.65155 0.16654 0.0
H206 H 0.57289 0.50723 0.11242 0.0
H207 H 0.76343 0.58896 0.03303 0.0
H208 H 0.85094 0.55735 0.04695 0.0
O209 O 0.71586 0.44837 0.16332 0.0
C210 C 0.69907 0.34126 0.10953 0.0
C211 C 0.8245 0.49416 0.08129 0.0
C212 C 0.7689 0.55542 0.0508 0.0
N213 N 0.7335 0.48823 0.08965 0.0
C214 C 0.78151 0.46983 0.09669 0.0
C215 C 0.72682 0.53005 0.0666 0.0
C216 C 0.81803 0.53752 0.05849 0.0
C217 C 0.52274 0.35293 0.12886 0.0
N218 N 0.56538 0.32753 0.1411 0.0
C219 C 0.48565 0.3278 0.10698 0.0
C220 C 0.49224 0.27623 0.09804 0.0
C221 C 0.53549 0.25042 0.1112 0.0
C222 C 0.57185 0.27685 0.13289 0.0
C223 C 0.58666 0.28872 0.27049 0.0
C224 C 0.66872 0.29588 0.22056 0.0
C225 C 0.57968 0.30267 0.23207 0.0
N226 N 0.62093 0.31007 0.20854 0.0
C227 C 0.67712 0.28109 0.25859 0.0
C228 C 0.63597 0.27944 0.28401 0.0
C229 C 0.7057 0.42883 0.19634 0.0
C230 C 0.58044 0.58087 0.13825 0.0
C231 C 0.6816 0.55356 0.1497 0.0
C232 C 0.66422 0.6011 0.16262 0.0
C233 C 0.61332 0.61481 0.15672 0.0
N234 N 0.64926 0.52054 0.13127 0.0
C235 C 0.59911 0.53361 0.1258 0.0
Co236 Co 0.11759 0.91795 0.35746 0.0
Co237 Co 0.05615 0.84453 0.42237 0.0
O238 O 0.07562 0.9111 0.4028 0.0
C239 C 0.03055 0.98353 0.34517 0.0
O240 O 1.00408 0.9475 0.36199 0.0
C241 C 0.06708 0.92359 0.48501 0.0
O242 O 0.1119 0.93674 0.47118 0.0
O243 O 0.13122 0.82909 0.42956 0.0
O244 O 0.15781 0.85398 0.37083 0.0
H245 H 0.07235 0.65407 0.43797 0.0
H246 H 0.11038 0.00795 0.40934 0.0
O247 O 0.07889 0.98032 0.34403 0.0
H248 H 0.29421 0.96658 0.40176 0.0
H249 H 0.18764 0.02249 0.24959 0.0
H250 H 0.14803 0.84796 0.29409 0.0
H251 H 0.23088 0.91584 0.36568 0.0
H252 H 0.16634 0.00625 0.31752 0.0
O253 O 0.04783 0.88022 0.47496 0.0
H254 H 0.09264 0.73834 0.40994 0.0
H255 H 0.98378 0.80939 0.48329 0.0
H256 H 0.16534 0.86303 0.22538 0.0
H257 H 0.17237 0.06002 0.44575 0.0
H258 H 0.18483 0.95097 0.20261 0.0
H259 H 0.26503 0.03929 0.44219 0.0
O260 O 0.06678 0.87701 0.32871 0.0
H261 H 0.89203 0.94675 0.43021 0.0
H262 H 0.97129 0.7859 0.38639 0.0
H263 H 0.87926 0.79992 0.37597 0.0
H264 H 0.83879 0.88066 0.39824 0.0
H265 H 0.9841 0.93223 0.43852 0.0
H266 H 0.96286 0.72594 0.5125 0.0
H267 H 0.00701 0.64758 0.48953 0.0
O268 O 0.06019 0.81067 0.3685 0.0
C269 C 0.16354 0.8273 0.40162 0.0
C270 C 0.05274 0.68798 0.44808 0.0
C271 C 0.99132 0.72834 0.48995 0.0
N272 N 0.03917 0.7787 0.44475 0.0
C273 C 0.06394 0.73578 0.43222 0.0
C274 C 1.00347 0.7755 0.47339 0.0
C275 C 0.01614 0.68435 0.4771 0.0
C276 C 0.15068 0.99899 0.40738 0.0
N277 N 0.167 0.95873 0.38555 0.0
C278 C 0.18558 0.02849 0.42818 0.0
C279 C 0.23755 0.01678 0.42623 0.0
C280 C 0.25394 0.97594 0.40361 0.0
C281 C 0.21791 0.94722 0.38332 0.0
C282 C 0.17889 0.98405 0.2591 0.0
C283 C 0.15666 0.88626 0.28451 0.0
C284 C 0.16789 0.9744 0.29774 0.0
N285 N 0.15539 0.9262 0.30981 0.0
C286 C 0.16615 0.89463 0.24547 0.0
C287 C 0.17703 0.94397 0.23271 0.0
C288 C 0.05705 0.83017 0.33449 0.0
C289 C 0.90909 0.91123 0.42064 0.0
C290 C 0.95438 0.82154 0.39569 0.0
C291 C 0.90202 0.82906 0.38994 0.0
C292 C 0.8793 0.87426 0.40255 0.0
N293 N 0.98359 0.85801 0.41343 0.0
C294 C 0.96133 0.90235 0.42592 0.0
Co295 Co 0.60199 0.11757 0.35234 0.0
Co296 Co 0.67595 0.05935 0.41842 0.0
O297 O 0.60967 0.07467 0.39692 0.0
C298 C 0.54589 0.02531 0.33767 0.0
O299 O 0.58692 1.00205 0.35021 0.0
C300 C 0.59312 0.06554 0.47855 0.0
O301 O 0.57973 0.11046 0.46509 0.0
O302 O 0.68582 0.13493 0.42716 0.0
O303 O 0.66149 0.16241 0.36852 0.0
H304 H 0.86387 0.08692 0.43965 0.0
H305 H 0.50995 0.10051 0.40107 0.0
O306 O 0.54433 0.07374 0.33673 0.0
H307 H 0.53611 0.28731 0.39937 0.0
H308 H 0.49628 0.18234 0.24357 0.0
H309 H 0.67181 0.15484 0.29085 0.0
H310 H 0.59384 0.23014 0.36328 0.0
H311 H 0.51176 0.1604 0.31143 0.0
O312 O 0.63747 0.04761 0.46953 0.0
H313 H 0.7798 0.10317 0.40997 0.0
H314 H 0.71215 0.98799 0.47955 0.0
H315 H 0.65775 0.17286 0.22214 0.0
H316 H 0.45088 0.15623 0.43724 0.0
H317 H 0.56936 0.18612 0.19796 0.0
H318 H 0.46406 0.25033 0.43681 0.0
O319 O 0.6488 0.07204 0.32382 0.0
H320 H 0.58321 0.88966 0.42041 0.0
H321 H 0.74206 0.97898 0.38377 0.0
H322 H 0.73419 0.88651 0.37183 0.0
H323 H 0.65449 0.84103 0.39046 0.0
H324 H 0.5918 0.98226 0.43037 0.0
H325 H 0.79547 0.97099 0.5104 0.0
H326 H 0.87199 0.02018 0.48981 0.0
O327 O 0.71289 0.06684 0.36575 0.0
C328 C 0.68642 0.16849 0.4001 0.0
C329 C 0.83075 0.06506 0.44858 0.0
C330 C 0.79232 1.00001 0.48833 0.0
N331 N 0.74127 0.04621 0.44275 0.0
C332 C 0.7831 0.07397 0.43181 0.0
C333 C 0.74525 0.00994 0.47088 0.0
C334 C 0.83527 0.0277 0.4769 0.0
C335 C 0.51555 0.14146 0.40032 0.0
N336 N 0.55548 0.16206 0.3802 0.0
C337 C 0.48213 0.17281 0.42103 0.0
C338 C 0.48958 0.22559 0.42083 0.0
C339 C 0.53006 0.24635 0.39989 0.0
C340 C 0.56276 0.21381 0.37961 0.0
C341 C 0.53495 0.17636 0.25371 0.0
C342 C 0.63328 0.16093 0.28068 0.0
C343 C 0.54409 0.1651 0.29235 0.0
N344 N 0.5927 0.15612 0.30521 0.0
C345 C 0.62552 0.17081 0.24163 0.0
C346 C 0.57593 0.17818 0.22808 0.0
C347 C 0.69559 0.06421 0.33106 0.0
C348 C 0.61829 0.90895 0.4124 0.0
C349 C 0.7069 0.95981 0.39152 0.0
C350 C 0.70284 0.90726 0.3849 0.0
C351 C 0.6582 0.88174 0.39546 0.0
N352 N 0.66763 0.98642 0.40818 0.0
C353 C 0.62374 0.96146 0.41859 0.0
Co354 Co 0.37803 0.59004 0.35121 0.0
Co355 Co 0.43945 0.66197 0.41727 0.0
O356 O 0.42056 0.59609 0.3963 0.0
C357 C 0.46727 0.52888 0.33763 0.0
O358 O 0.4917 0.56822 0.35179 0.0
C359 C 0.4304 0.58024 0.47804 0.0
O360 O 0.38551 0.56713 0.46441 0.0
O361 O 0.36434 0.67594 0.42549 0.0
O362 O 0.33627 0.65231 0.36678 0.0
H363 H 0.42176 0.85162 0.43691 0.0
H364 H 0.38918 0.49811 0.40073 0.0
O365 O 0.41884 0.52962 0.3359 0.0
H366 H 0.20411 0.53449 0.39721 0.0
H367 H 0.30827 0.48723 0.24248 0.0
H368 H 0.34555 0.66124 0.2892 0.0
H369 H 0.26494 0.5882 0.36097 0.0
H370 H 0.33064 0.50199 0.31035 0.0
O371 O 0.44893 0.62427 0.46889 0.0
H372 H 0.40129 0.76806 0.40777 0.0
H373 H 0.51229 0.69555 0.47827 0.0
H374 H 0.32714 0.6477 0.22049 0.0
H375 H 0.32975 0.44309 0.43718 0.0
H376 H 0.30901 0.56001 0.19659 0.0
H377 H 0.23651 0.46141 0.43582 0.0
O378 O 0.42667 0.63371 0.32281 0.0
H379 H 0.60474 0.56137 0.42147 0.0
H380 H 0.52326 0.72314 0.38213 0.0
H381 H 0.61541 0.71073 0.37092 0.0
H382 H 0.65698 0.62958 0.39098 0.0
H383 H 0.5125 0.57433 0.43044 0.0
H384 H 0.53344 0.77825 0.50854 0.0
H385 H 0.48855 0.85705 0.48737 0.0
O386 O 0.43432 0.69809 0.3643 0.0
C387 C 0.33115 0.67796 0.39819 0.0
C388 C 0.4418 0.81755 0.44615 0.0
C389 C 0.50445 0.77635 0.4864 0.0
N390 N 0.45589 0.72706 0.44103 0.0
C391 C 0.43048 0.77015 0.42968 0.0
C392 C 0.49215 0.7296 0.46926 0.0
C393 C 0.47919 0.82057 0.47457 0.0
C394 C 0.34861 0.50596 0.39963 0.0
N395 N 0.33055 0.54653 0.37894 0.0
C396 C 0.31516 0.47481 0.42047 0.0
C397 C 0.26286 0.48516 0.41974 0.0
C398 C 0.24467 0.52622 0.39816 0.0
C399 C 0.27928 0.55663 0.37779 0.0
C400 C 0.31642 0.52557 0.25249 0.0
C401 C 0.33739 0.62304 0.27913 0.0
C402 C 0.32798 0.53436 0.29113 0.0
N403 N 0.33968 0.58247 0.30383 0.0
C404 C 0.32726 0.61555 0.2401 0.0
C405 C 0.31713 0.56636 0.22671 0.0
C406 C 0.43682 0.6801 0.3298 0.0
C407 C 0.58718 0.59708 0.41286 0.0
C408 C 0.54067 0.68733 0.39045 0.0
C409 C 0.59307 0.6807 0.38425 0.0
C410 C 0.61641 0.63525 0.39561 0.0
N411 N 0.51204 0.64976 0.40743 0.0
C412 C 0.53487 0.60507 0.41858 0.0
Co413 Co 0.9164 0.3902 0.35741 0.0
Co414 Co 0.84379 0.44894 0.42431 0.0
O415 O 0.91002 0.43164 0.40296 0.0
C416 C 0.97602 0.48065 0.34409 0.0
O417 O 0.93733 0.50435 0.35988 0.0
C418 C 0.92583 0.43895 0.4845 0.0
O419 O 0.93859 0.39435 0.4701 0.0
O420 O 0.83079 0.37345 0.43174 0.0
O421 O 0.85506 0.34752 0.37269 0.0
H422 H 0.65449 0.42813 0.44444 0.0
H423 H 0.00931 0.40152 0.40584 0.0
O424 O 0.97599 0.43221 0.34224 0.0
H425 H 0.97374 0.21634 0.4019 0.0
H426 H 0.01616 0.32941 0.24411 0.0
H427 H 0.84354 0.35317 0.29838 0.0
H428 H 0.91866 0.27717 0.36698 0.0
H429 H 0.00472 0.34891 0.31293 0.0
O430 O 0.88179 0.45788 0.47585 0.0
H431 H 0.73828 0.40906 0.41501 0.0
H432 H 0.80937 0.52072 0.48575 0.0
H433 H 0.85322 0.33552 0.22921 0.0
H434 H 0.06561 0.34209 0.44106 0.0
H435 H 0.94016 0.32456 0.20142 0.0
H436 H 0.04776 0.24878 0.43943 0.0
O437 O 0.872 0.43871 0.32978 0.0
H438 H 0.94181 0.61569 0.43007 0.0
H439 H 0.78143 0.53232 0.38987 0.0
H440 H 0.79257 0.62472 0.37927 0.0
H441 H 0.87304 0.66724 0.39974 0.0
H442 H 0.93011 0.52324 0.43849 0.0
H443 H 0.72631 0.54104 0.51587 0.0
H444 H 0.64821 0.49477 0.49502 0.0
O445 O 0.80747 0.4441 0.37137 0.0
C446 C 0.82933 0.34111 0.40385 0.0
C447 C 0.6883 0.44864 0.45366 0.0
C448 C 0.72865 0.51189 0.49386 0.0
N449 N 0.77858 0.46402 0.44843 0.0
C450 C 0.73583 0.43806 0.43706 0.0
C451 C 0.77557 0.50016 0.47674 0.0
C452 C 0.68479 0.48595 0.48213 0.0
C453 C 1.00173 0.36091 0.40453 0.0
N454 N 0.96083 0.34279 0.38426 0.0
C455 C 0.03358 0.32747 0.42471 0.0
C456 C 0.02349 0.27512 0.42384 0.0
C457 C 0.98194 0.2569 0.40284 0.0
C458 C 0.95086 0.29151 0.38311 0.0
C459 C 0.97811 0.33449 0.2558 0.0
C460 C 0.88139 0.34717 0.28677 0.0
C461 C 0.97133 0.34455 0.29492 0.0
N462 N 0.9235 0.35265 0.30965 0.0
C463 C 0.88669 0.33797 0.24742 0.0
C464 C 0.93547 0.33199 0.23183 0.0
C465 C 0.82539 0.44755 0.33688 0.0
C466 C 0.90637 0.59773 0.42133 0.0
C467 C 0.81695 0.55014 0.39837 0.0
C468 C 0.82285 0.6027 0.39254 0.0
C469 C 0.8679 0.62657 0.40414 0.0
N470 N 0.85487 0.52188 0.41523 0.0
C471 C 0.8991 0.54528 0.42673 0.0
Co472 Co 0.86415 0.40854 0.86406 0.0
Co473 Co 0.94941 0.34292 0.92114 0.0
O474 O 0.92077 0.40573 0.89995 0.0
C475 C 0.94862 0.44935 0.82233 0.0
O476 O 0.97538 0.41257 0.83805 0.0
C477 C 0.9397 0.42397 0.98207 0.0
O478 O 0.89265 0.43264 0.97062 0.0
O479 O 0.8786 0.32081 0.93807 0.0
O480 O 0.8251 0.35747 0.89491 0.0
H481 H 0.96061 0.15353 0.94478 0.0
H482 H 0.90324 0.50454 0.89879 0.0
O483 O 0.90327 0.45824 0.8332 0.0
H484 H 0.71969 0.49834 0.93155 0.0
H485 H 0.7864 0.48899 0.75053 0.0
H486 H 0.79875 0.33073 0.8269 0.0
H487 H 0.7591 0.43035 0.89209 0.0
H488 H 0.81647 0.49171 0.81761 0.0
O489 O 0.96265 0.38332 0.9706 0.0
H490 H 0.92315 0.23259 0.91799 0.0
H491 H 0.03633 0.3218 0.97423 0.0
H492 H 0.76835 0.32624 0.76005 0.0
H493 H 0.8654 0.57376 0.93789 0.0
H494 H 0.76596 0.40525 0.7206 0.0
H495 H 0.77308 0.57059 0.95481 0.0
O496 O 0.89439 0.35383 0.83248 0.0
H497 H 0.09618 0.46612 0.90363 0.0
H498 H 0.03515 0.29032 0.88044 0.0
H499 H 0.12149 0.31515 0.85899 0.0
H500 H 0.15278 0.40346 0.87088 0.0
H501 H 0.00965 0.44031 0.92352 0.0
H502 H 0.07511 0.24388 1.00137 0.0
H503 H 0.03782 0.15905 0.98615 0.0
O504 O 0.94085 0.30321 0.87037 0.0
C505 C 0.83395 0.32765 0.9233 0.0
C506 C 0.97733 0.19034 0.95148 0.0
C507 C 0.0415 0.24105 0.98339 0.0
N508 N 0.97763 0.28169 0.9444 0.0
C509 C 0.95627 0.2352 0.93643 0.0
C510 C 0.01925 0.28507 0.96801 0.0
C511 C 0.02048 0.19342 0.97487 0.0
C512 C 0.86294 0.50326 0.90576 0.0
N513 N 0.83343 0.4633 0.89359 0.0
C514 C 0.84176 0.54243 0.92798 0.0
C515 C 0.78997 0.5406 0.93751 0.0
C516 C 0.76001 0.50002 0.92452 0.0
C517 C 0.78252 0.46155 0.90235 0.0
C518 C 0.78842 0.45416 0.76728 0.0
C519 C 0.79397 0.36584 0.81087 0.0
C520 C 0.80421 0.45561 0.80557 0.0
N521 N 0.81048 0.41127 0.82583 0.0
C522 C 0.77823 0.36281 0.77263 0.0
C523 C 0.77693 0.40717 0.75046 0.0
C524 C 0.92181 0.3146 0.83743 0.0
C525 C 0.08313 0.42741 0.89852 0.0
C526 C 0.04817 0.32898 0.88548 0.0
C527 C 0.09725 0.34275 0.87336 0.0
C528 C 0.11481 0.39228 0.88007 0.0
N529 N 0.01736 0.36348 0.9039 0.0
C530 C 0.03423 0.41233 0.91015 0.0
Co531 Co 0.12087 0.86362 0.85762 0.0
Co532 Co 0.17737 0.95369 0.91639 0.0
O533 O 0.11763 0.92112 0.89299 0.0
C534 C 0.08005 0.94588 0.81325 0.0
O535 O 0.1159 0.97403 0.8288 0.0
C536 C 0.09171 0.9433 0.9745 0.0
O537 O 0.08238 0.89692 0.9619 0.0
O538 O 0.2018 0.88444 0.93502 0.0
O539 O 0.16998 0.82773 0.89195 0.0
H540 H 0.36392 0.97431 0.9478 0.0
H541 H 0.02012 0.89878 0.88689 0.0
O542 O 0.0727 0.90023 0.82397 0.0
H543 H 0.03072 0.71562 0.92005 0.0
H544 H 0.06449 0.78888 0.73541 0.0
H545 H 0.20446 0.79674 0.82985 0.0
H546 H 0.10089 0.75795 0.88464 0.0
H547 H 0.04739 0.81582 0.80208 0.0
O548 O 0.13326 0.96583 0.96436 0.0
H549 H 0.28887 0.93288 0.91799 0.0
H550 H 0.19034 0.04249 0.96945 0.0
H551 H 0.22241 0.76662 0.76433 0.0
H552 H 0.94894 0.8581 0.92225 0.0
H553 H 0.15334 0.76734 0.71564 0.0
H554 H 0.95422 0.76596 0.93932 0.0
O555 O 0.17687 0.89525 0.82885 0.0
H556 H 0.04733 0.0923 0.89148 0.0
H557 H 0.22825 0.04199 0.87759 0.0
H558 H 0.20014 0.1263 0.85409 0.0
H559 H 0.10918 0.15218 0.86126 0.0
H560 H 0.0766 0.00792 0.91361 0.0
H561 H 0.26413 0.0847 1.00007 0.0
H562 H 0.35168 0.05156 0.98838 0.0
O563 O 0.22116 0.94695 0.86721 0.0
C564 C 0.19721 0.83893 0.92127 0.0
C565 C 0.32592 0.98943 0.95275 0.0
C566 C 0.26991 0.05135 0.98215 0.0
N567 N 0.23536 0.98546 0.94171 0.0
C568 C 0.28333 0.96616 0.93594 0.0
C569 C 0.22824 0.02709 0.9649 0.0
C570 C 0.31906 0.03256 0.97573 0.0
C571 C 0.0224 0.85858 0.89398 0.0
N572 N 0.06466 0.83078 0.8841 0.0
C573 C 0.98209 0.83579 0.91407 0.0
C574 C 0.9851 0.78409 0.92367 0.0
C575 C 0.02805 0.75584 0.91293 0.0
C576 C 0.06768 0.77998 0.89298 0.0
C577 C 0.09527 0.78979 0.75618 0.0
C578 C 0.17296 0.79243 0.81003 0.0
C579 C 0.08568 0.80419 0.7942 0.0
N580 N 0.12511 0.8094 0.81968 0.0
C581 C 0.18384 0.777 0.77248 0.0
C582 C 0.14506 0.77768 0.74508 0.0
C583 C 0.21344 0.92574 0.83442 0.0
C584 C 0.08715 0.08161 0.88842 0.0
C585 C 0.18851 0.05269 0.88064 0.0
C586 C 0.17285 0.10062 0.86734 0.0
C587 C 0.12183 0.11514 0.87139 0.0
N588 N 0.15439 0.02008 0.89767 0.0
C589 C 0.10414 0.03394 0.90131 0.0
Co590 Co 0.63664 0.1158 0.86137 0.0
Co591 Co 0.54719 0.17483 0.91915 0.0
O592 O 0.58009 0.11383 0.89769 0.0
C593 C 0.55582 0.06636 0.82046 0.0
O594 O 0.5259 0.10167 0.83491 0.0
C595 C 0.55778 0.09249 0.97965 0.0
O596 O 0.60453 0.0833 0.96773 0.0
O597 O 0.61634 0.20038 0.93695 0.0
O598 O 0.67143 0.16982 0.89222 0.0
H599 H 0.52928 0.36255 0.94746 0.0
H600 H 0.60718 0.01693 0.89707 0.0
O601 O 0.60183 0.06245 0.83121 0.0
H602 H 0.79093 0.03863 0.92486 0.0
H603 H 0.7142 0.05064 0.74194 0.0
H604 H 0.69809 0.19953 0.82782 0.0
H605 H 0.74404 0.1033 0.88701 0.0
H606 H 0.68713 0.03926 0.80931 0.0
O607 O 0.53497 0.13333 0.96838 0.0
H608 H 0.56825 0.2862 0.91762 0.0
H609 H 0.45827 0.19079 0.97185 0.0
H610 H 0.72801 0.21213 0.76157 0.0
H611 H 0.65251 0.9511 0.93492 0.0
H612 H 0.73156 0.13811 0.71712 0.0
H613 H 0.74501 0.96194 0.94916 0.0
O614 O 0.60134 0.16708 0.83012 0.0
H615 H 0.40817 0.04378 0.89888 0.0
H616 H 0.459 0.22347 0.87879 0.0
H617 H 0.37445 0.19426 0.85658 0.0
H618 H 0.34827 0.10393 0.86692 0.0
H619 H 0.49273 0.07406 0.91972 0.0
H620 H 0.41817 0.26601 1.00226 0.0
H621 H 0.45316 0.35267 0.98963 0.0
O622 O 0.55406 0.21598 0.86863 0.0
C623 C 0.66106 0.19733 0.92161 0.0
C624 C 0.5134 0.325 0.9529 0.0
C625 C 0.45111 0.2708 0.98372 0.0
N626 N 0.51544 0.23415 0.9428 0.0
C627 C 0.5353 0.28166 0.93608 0.0
C628 C 0.47412 0.22832 0.96653 0.0
C629 C 0.47084 0.31943 0.9767 0.0
C630 C 0.64749 0.02167 0.90304 0.0
N631 N 0.67291 0.06406 0.8903 0.0
C632 C 0.67292 0.98438 0.92453 0.0
C633 C 0.72481 0.99052 0.93256 0.0
C634 C 0.75059 0.03357 0.91898 0.0
C635 C 0.72386 0.07012 0.89768 0.0
C636 C 0.71145 0.08341 0.76085 0.0
C637 C 0.70414 0.16631 0.80991 0.0
C638 C 0.69696 0.07714 0.79924 0.0
N639 N 0.68971 0.11879 0.82237 0.0
C640 C 0.71945 0.174 0.77189 0.0
C641 C 0.72124 0.13243 0.7469 0.0
C642 C 0.57227 0.20492 0.83531 0.0
C643 C 0.41894 0.08333 0.8945 0.0
C644 C 0.4482 0.18398 0.88318 0.0
C645 C 0.40012 0.16771 0.87063 0.0
C646 C 0.38542 0.11706 0.87647 0.0
N647 N 0.4808 0.15082 0.9012 0.0
C648 C 0.46673 0.10093 0.90664 0.0
Co649 Co 0.40325 0.63751 0.86277 0.0
Co650 Co 0.34176 0.55074 0.92152 0.0
O651 O 0.40332 0.5807 0.89878 0.0
C652 C 0.44407 0.55402 0.81984 0.0
O653 O 0.40873 0.52617 0.8364 0.0
C654 C 0.42573 0.56039 0.98053 0.0
O655 O 0.43496 0.607 0.96832 0.0
O656 O 0.31925 0.62108 0.93911 0.0
O657 O 0.35311 0.67535 0.89516 0.0
H658 H 0.15397 0.53901 0.95181 0.0
H659 H 0.50163 0.60086 0.89516 0.0
O660 O 0.45231 0.59944 0.83072 0.0
H661 H 0.49349 0.78493 0.92581 0.0
H662 H 0.47102 0.71264 0.74357 0.0
H663 H 0.32229 0.70368 0.83039 0.0
H664 H 0.42411 0.74331 0.88921 0.0
H665 H 0.48155 0.68453 0.81074 0.0
O666 O 0.38433 0.53793 0.97007 0.0
H667 H 0.23098 0.57522 0.92092 0.0
H668 H 0.32409 0.46395 0.97574 0.0
H669 H 0.31059 0.7341 0.76412 0.0
H670 H 0.57214 0.64089 0.93158 0.0
H671 H 0.38425 0.73421 0.71928 0.0
H672 H 0.56815 0.73352 0.94724 0.0
O673 O 0.34799 0.60615 0.83287 0.0
H674 H 0.46722 0.40714 0.89942 0.0
H675 H 0.28866 0.46376 0.88291 0.0
H676 H 0.31422 0.37807 0.8605 0.0
H677 H 0.40401 0.34901 0.86901 0.0
H678 H 0.44044 0.49266 0.92082 0.0
H679 H 0.24829 0.42695 1.00753 0.0
H680 H 0.16246 0.46411 0.99528 0.0
O681 O 0.2997 0.55843 0.87159 0.0
C682 C 0.32492 0.6659 0.92436 0.0
C683 C 0.19119 0.52237 0.95726 0.0
C684 C 0.24413 0.45952 0.98858 0.0
N685 N 0.28194 0.52166 0.94639 0.0
C686 C 0.23489 0.54266 0.9398 0.0
C687 C 0.28696 0.4808 0.97062 0.0
C688 C 0.19596 0.48043 0.98173 0.0
C689 C 0.49989 0.64125 0.90172 0.0
N690 N 0.45872 0.66971 0.89048 0.0
C691 C 0.53981 0.66368 0.9224 0.0
C692 C 0.5375 0.71564 0.93125 0.0
C693 C 0.4956 0.7445 0.91926 0.0
C694 C 0.45638 0.72075 0.89868 0.0
C695 C 0.43832 0.71149 0.76267 0.0
C696 C 0.35555 0.70807 0.8122 0.0
C697 C 0.44418 0.69657 0.80097 0.0
N698 N 0.40238 0.69112 0.82425 0.0
C699 C 0.3483 0.72375 0.77425 0.0
C700 C 0.3897 0.72361 0.74902 0.0
C701 C 0.30967 0.57775 0.83843 0.0
C702 C 0.42787 0.41911 0.89594 0.0
C703 C 0.32787 0.45161 0.88661 0.0
C704 C 0.34209 0.40292 0.87393 0.0
C705 C 0.39243 0.38661 0.87874 0.0
N706 N 0.36273 0.4832 0.90381 0.0
C707 C 0.41229 0.46749 0.90835 0.0
Co708 Co 0.88317 0.09609 0.67863 0.0
Co709 Co 0.94155 0.16866 0.61139 0.0
O710 O 0.92571 0.10289 0.63368 0.0
C711 C 0.97576 0.04112 0.69334 0.0
O712 O 0.99807 0.08239 0.68027 0.0
C713 C 0.935 0.08461 0.55224 0.0
O714 O 0.89032 0.07119 0.56618 0.0
O715 O 0.86593 0.17912 0.60297 0.0
O716 O 0.83833 0.1553 0.66183 0.0
H717 H 0.91689 0.35682 0.58866 0.0
H718 H 0.90005 1.003 0.63112 0.0
O719 O 0.92735 0.03882 0.69489 0.0
H720 H 0.71325 0.02938 0.63289 0.0
H721 H 0.81779 0.99277 0.78873 0.0
H722 H 0.84626 0.1672 0.73938 0.0
H723 H 0.77056 0.08778 0.66813 0.0
H724 H 0.84044 0.00678 0.72078 0.0
O725 O 0.95274 0.12925 0.56061 0.0
H726 H 0.89886 0.27328 0.61873 0.0
H727 H 0.01313 0.20299 0.54973 0.0
H728 H 0.82758 0.15461 0.80819 0.0
H729 H 0.8442 0.94327 0.5958 0.0
H730 H 0.81378 0.06679 0.8334 0.0
H731 H 0.7501 0.95656 0.59625 0.0
O732 O 0.92869 0.14345 0.70642 0.0
H733 H 0.11058 0.07455 0.60946 0.0
H734 H 0.02267 0.23451 0.64518 0.0
H735 H 0.11516 0.2261 0.65678 0.0
H736 H 0.15994 0.14584 0.63858 0.0
H737 H 0.01798 0.08366 0.59992 0.0
H738 H 0.03193 0.2857 0.51856 0.0
H739 H 0.98432 0.36338 0.53869 0.0
O740 O 0.93466 0.20658 0.66364 0.0
C741 C 0.83243 0.18011 0.63014 0.0
C742 C 0.93815 0.32323 0.57993 0.0
C743 C 1.00268 0.28328 0.54054 0.0
N744 N 0.95529 0.23344 0.5863 0.0
C745 C 0.92821 0.27585 0.59692 0.0
C746 C 0.99171 0.23653 0.55817 0.0
C747 C 0.97587 0.32687 0.55175 0.0
C748 C 0.8591 0.00866 0.63188 0.0
N749 N 0.83857 0.04901 0.65153 0.0
C750 C 0.82768 0.97485 0.61165 0.0
C751 C 0.77489 0.98237 0.61187 0.0
C752 C 0.7542 0.02328 0.63235 0.0
C753 C 0.78683 0.05636 0.65215 0.0
C754 C 0.82397 0.0312 0.77814 0.0
C755 C 0.83995 0.1289 0.75001 0.0
C756 C 0.83565 0.0395 0.73943 0.0
N757 N 0.8448 0.08781 0.72599 0.0
C758 C 0.82969 0.12198 0.7891 0.0
C759 C 0.82201 0.07271 0.80323 0.0
C760 C 0.93718 0.18991 0.69851 0.0
C761 C 0.09161 0.10988 0.61726 0.0
C762 C 0.04153 0.19911 0.63764 0.0
C763 C 0.0941 0.19474 0.64406 0.0
C764 C 0.11923 0.14979 0.63374 0.0
N765 N 0.01451 0.15984 0.6214 0.0
C766 C 0.03909 0.11564 0.61125 0.0
Co767 Co 0.42444 0.88373 0.67295 0.0
Co768 Co 0.3513 0.94305 0.60662 0.0
O769 O 0.41772 0.92499 0.62724 0.0
C770 C 0.48598 0.97318 0.68553 0.0
O771 O 0.44844 0.99735 0.66872 0.0
C772 C 0.43221 0.93281 0.54522 0.0
O773 O 0.44565 0.88836 0.5595 0.0
O774 O 0.33746 0.86767 0.59964 0.0
O775 O 0.36207 0.8416 0.65857 0.0
H776 H 0.16154 0.92332 0.5884 0.0
H777 H 0.51583 0.89356 0.62275 0.0
O778 O 0.48506 0.92476 0.68748 0.0
H779 H 0.47934 0.70866 0.62915 0.0
H780 H 0.52727 0.81715 0.78286 0.0
H781 H 0.35325 0.85165 0.73508 0.0
H782 H 0.42597 0.77041 0.66479 0.0
H783 H 0.51281 0.83801 0.71464 0.0
O784 O 0.38827 0.9515 0.55453 0.0
H785 H 0.24553 0.90429 0.61735 0.0
H786 H 0.31637 0.01471 0.54526 0.0
H787 H 0.3664 0.8347 0.80404 0.0
H788 H 0.5705 0.83321 0.58683 0.0
H789 H 0.45406 0.81779 0.82846 0.0
H790 H 0.55212 0.74004 0.58967 0.0
O791 O 0.38122 0.93332 0.70084 0.0
H792 H 0.4506 0.10896 0.59931 0.0
H793 H 0.29025 0.02712 0.64151 0.0
H794 H 0.3023 0.11947 0.6517 0.0
H795 H 0.38277 0.16125 0.63022 0.0
H796 H 0.43799 0.0166 0.59122 0.0
H797 H 0.23314 0.03483 0.51549 0.0
H798 H 0.15501 0.98918 0.53723 0.0
O799 O 0.316 0.93888 0.65997 0.0
C800 C 0.33584 0.83542 0.62761 0.0
C801 C 0.19533 0.94358 0.57879 0.0
C802 C 0.23555 0.00606 0.53778 0.0
N803 N 0.28576 0.95862 0.58323 0.0
C804 C 0.24299 0.93304 0.59513 0.0
C805 C 0.28259 0.99443 0.5547 0.0
C806 C 0.19169 0.98046 0.55 0.0
C807 C 0.50799 0.85302 0.62449 0.0
N808 N 0.46763 0.8355 0.64571 0.0
C809 C 0.53893 0.81905 0.60395 0.0
C810 C 0.52855 0.76679 0.60551 0.0
C811 C 0.48766 0.74917 0.62759 0.0
C812 C 0.45747 0.7843 0.64764 0.0
C813 C 0.48894 0.82475 0.77262 0.0
C814 C 0.39144 0.84404 0.74537 0.0
C815 C 0.48034 0.83548 0.73381 0.0
N816 N 0.43222 0.84649 0.72083 0.0
C817 C 0.39871 0.8348 0.78455 0.0
C818 C 0.4479 0.82539 0.79824 0.0
C819 C 0.33453 0.94253 0.69423 0.0
C820 C 0.41516 0.09135 0.60847 0.0
C821 C 0.32578 0.0446 0.63256 0.0
C822 C 0.33218 0.09714 0.63817 0.0
C823 C 0.37722 0.12059 0.62599 0.0
N824 N 0.36318 0.01594 0.61537 0.0
C825 C 0.40737 0.03893 0.60328 0.0
Co826 Co 0.61228 0.41262 0.67109 0.0
Co827 Co 0.55265 0.33874 0.60578 0.0
O828 O 0.57055 0.40544 0.62582 0.0
C829 C 0.52335 0.47552 0.68327 0.0
O830 O 0.49801 0.43739 0.66819 0.0
C831 C 0.56268 0.41887 0.54404 0.0
O832 O 0.60744 0.43204 0.55791 0.0
O833 O 0.62801 0.32502 0.59831 0.0
O834 O 0.65395 0.34997 0.65711 0.0
H835 H 0.57282 0.14894 0.58862 0.0
H836 H 0.60289 0.50397 0.62064 0.0
O837 O 0.57174 0.47365 0.6849 0.0
H838 H 0.78749 0.46579 0.62634 0.0
H839 H 0.67478 0.51587 0.78183 0.0
H840 H 0.6472 0.34151 0.73213 0.0
H841 H 0.72537 0.41241 0.66153 0.0
H842 H 0.65603 0.50169 0.71322 0.0
O843 O 0.54378 0.37513 0.55358 0.0
H844 H 0.59141 0.23322 0.61728 0.0
H845 H 0.48115 0.30306 0.54465 0.0
H846 H 0.6634 0.35407 0.80123 0.0
H847 H 0.66363 0.55856 0.58507 0.0
H848 H 0.67643 0.44192 0.82668 0.0
H849 H 0.7567 0.53956 0.5878 0.0
O850 O 0.56273 0.37009 0.69963 0.0
H851 H 0.3866 0.43782 0.59917 0.0
H852 H 0.469 0.27782 0.64131 0.0
H853 H 0.37672 0.28989 0.65209 0.0
H854 H 0.33469 0.37021 0.63068 0.0
H855 H 0.47891 0.42519 0.59048 0.0
H856 H 0.46187 0.2196 0.51486 0.0
H857 H 0.50759 0.14187 0.53719 0.0
O858 O 0.55739 0.30412 0.65942 0.0
C859 C 0.66032 0.32377 0.62618 0.0
C860 C 0.55255 0.18259 0.57881 0.0
C861 C 0.49031 0.22227 0.53736 0.0
N862 N 0.53712 0.27294 0.58287 0.0
C863 C 0.56277 0.23038 0.59502 0.0
C864 C 0.50151 0.26943 0.55425 0.0
C865 C 0.51602 0.17864 0.54984 0.0
C866 C 0.64336 0.49578 0.62229 0.0
N867 N 0.66061 0.45514 0.6433 0.0
C868 C 0.67755 0.52669 0.60193 0.0
C869 C 0.72975 0.51593 0.60339 0.0
C870 C 0.74705 0.47453 0.62499 0.0
C871 C 0.71171 0.4444 0.64487 0.0
C872 C 0.66878 0.47745 0.77116 0.0
C873 C 0.65379 0.37973 0.74278 0.0
C874 C 0.65919 0.46907 0.73216 0.0
N875 N 0.64988 0.42083 0.7187 0.0
C876 C 0.66229 0.38668 0.78208 0.0
C877 C 0.66947 0.43598 0.79634 0.0
C878 C 0.55394 0.32319 0.69357 0.0
C879 C 0.40435 0.40248 0.60835 0.0
C880 C 0.45138 0.31326 0.63236 0.0
C881 C 0.3989 0.31969 0.63831 0.0
C882 C 0.3753 0.36465 0.62619 0.0
N883 N 0.47984 0.35056 0.61489 0.0
C884 C 0.45672 0.39467 0.60284 0.0
Co885 Co 0.09786 0.62129 0.67639 0.0
Co886 Co 0.17022 0.55974 0.6109 0.0
O887 O 0.10415 0.57862 0.63146 0.0
C888 C 0.03471 0.53305 0.68982 0.0
O889 O 0.0732 0.50722 0.67565 0.0
C890 C 0.08937 0.56945 0.54964 0.0
O891 O 0.07699 0.61474 0.56296 0.0
O892 O 0.18431 0.6348 0.6027 0.0
O893 O 0.16083 0.66248 0.66154 0.0
H894 H 0.35999 0.57768 0.59245 0.0
H895 H 0.00672 0.61126 0.62593 0.0
O896 O 0.03671 0.58144 0.69096 0.0
H897 H 0.04501 0.79589 0.6302 0.0
H898 H 0.99338 0.69156 0.78412 0.0
H899 H 0.16806 0.65272 0.73937 0.0
H900 H 0.0974 0.73442 0.66681 0.0
H901 H 0.00953 0.66975 0.7163 0.0
O902 O 0.13296 0.55021 0.55913 0.0
H903 H 0.2761 0.59782 0.62122 0.0
H904 H 0.20453 0.48704 0.54996 0.0
H905 H 0.15306 0.67048 0.80804 0.0
H906 H 0.95299 0.67135 0.58911 0.0
H907 H 0.06502 0.68942 0.83093 0.0
H908 H 0.97228 0.76436 0.59084 0.0
O909 O 0.1406 0.57199 0.70507 0.0
H910 H 0.06947 0.39464 0.60642 0.0
H911 H 0.23109 0.47597 0.64625 0.0
H912 H 0.21851 0.38386 0.65742 0.0
H913 H 0.1374 0.34237 0.63715 0.0
H914 H 0.08268 0.48684 0.59737 0.0
H915 H 0.28762 0.46626 0.51999 0.0
H916 H 0.36602 0.51129 0.54177 0.0
O917 O 0.2057 0.56497 0.66411 0.0
C918 C 0.18653 0.66775 0.63016 0.0
C919 C 0.32604 0.55763 0.58295 0.0
C920 C 0.28539 0.49512 0.54224 0.0
N921 N 0.23555 0.54331 0.58753 0.0
C922 C 0.27847 0.56874 0.59922 0.0
C923 C 0.23845 0.50719 0.5592 0.0
C924 C 0.3294 0.52047 0.55437 0.0
C925 C 0.01499 0.65174 0.6272 0.0
N926 N 0.05538 0.66931 0.64831 0.0
C927 C 0.98456 0.68556 0.60615 0.0
C928 C 0.99546 0.73773 0.60708 0.0
C929 C 0.03632 0.75543 0.62909 0.0
C930 C 0.06599 0.72045 0.64966 0.0
C931 C 0.03186 0.68305 0.77455 0.0
C932 C 0.12972 0.66114 0.74902 0.0
C933 C 0.04147 0.6718 0.73594 0.0
N934 N 0.08974 0.65962 0.72378 0.0
C935 C 0.1214 0.67096 0.78802 0.0
C936 C 0.07201 0.68155 0.80085 0.0
C937 C 0.18725 0.56231 0.69848 0.0
C938 C 0.10515 0.41216 0.61514 0.0
C939 C 0.19531 0.45858 0.63782 0.0
C940 C 0.18858 0.4062 0.644 0.0
C941 C 0.14317 0.38291 0.63252 0.0
N942 N 0.15789 0.48722 0.62072 0.0
C943 C 0.11325 0.46444 0.60943 0.0
C944 C 0.19779 0.78217 0.09052 0.0
C945 C 0.20324 0.72882 0.09214 0.0
H946 H 0.23593 0.85472 0.09311 0.0
C947 C 0.25266 0.7077 0.08908 0.0
H948 H 0.16037 0.79956 0.09323 0.0
C949 C 0.29601 0.7393 0.08822 0.0
C950 C 0.29072 0.79257 0.0914 0.0
H951 H 0.25795 0.66664 0.09031 0.0
H952 H 0.33353 0.72179 0.08917 0.0
C953 C 0.24116 0.81375 0.09059 0.0
C954 C 0.74578 0.20749 0.0893 0.0
C955 C 0.79868 0.21339 0.09481 0.0
H956 H 0.67229 0.24417 0.08949 0.0
C957 C 0.81879 0.26335 0.09689 0.0
H958 H 0.72898 0.16971 0.08776 0.0
C959 C 0.78639 0.30615 0.09691 0.0
C960 C 0.73312 0.29978 0.09568 0.0
H961 H 0.8594 0.26923 0.10098 0.0
H962 H 0.80278 0.34368 0.10158 0.0
C963 C 0.71328 0.25021 0.0903 0.0
C964 C 0.22687 0.76889 0.43652 0.0
C965 C 0.20655 0.78911 0.40217 0.0
H966 H 0.28266 0.71882 0.46256 0.0
C967 C 0.22745 0.77181 0.36715 0.0
H968 H 0.21183 0.78118 0.46403 0.0
C969 C 0.26686 0.7355 0.3663 0.0
C970 C 0.28777 0.71558 0.40045 0.0
H971 H 0.21288 0.78592 0.34 0.0
H972 H 0.28161 0.72364 0.33858 0.0
C973 C 0.26751 0.73313 0.43568 0.0
C974 C 0.77502 0.27432 0.43894 0.0
C975 C 0.79223 0.29731 0.40461 0.0
H976 H 0.72891 0.21498 0.46477 0.0
C977 C 0.77324 0.27814 0.36959 0.0
H978 H 0.78871 0.28806 0.46643 0.0
C979 C 0.73847 0.23749 0.36867 0.0
C980 C 0.7218 0.21361 0.40271 0.0
H981 H 0.78493 0.29491 0.3425 0.0
H982 H 0.72541 0.22411 0.3409 0.0
C983 C 0.74075 0.23242 0.43797 0.0
C984 C 0.74018 0.31602 0.93566 0.0
C985 C 0.79007 0.29554 0.93592 0.0
H986 H 0.6596 0.30068 0.93248 0.0
C987 C 0.7959 0.24241 0.93988 0.0
H988 H 0.73442 0.35684 0.9327 0.0
C989 C 0.75295 0.21021 0.93906 0.0
C990 C 0.7033 0.23055 0.93531 0.0
H991 H 0.83364 0.22536 0.93989 0.0
H992 H 0.75879 0.1692 0.93871 0.0
C993 C 0.69719 0.28387 0.93578 0.0
C994 C 0.23978 0.70382 0.94054 0.0
C995 C 0.29308 0.7093 0.93795 0.0
H996 H 0.16703 0.74158 0.93758 0.0
C997 C 0.31406 0.75894 0.93901 0.0
H998 H 0.22244 0.66624 0.93942 0.0
C999 C 0.28232 0.80221 0.9387 0.0
C1000 C 0.22903 0.79655 0.93646 0.0
H1001 H 0.35507 0.76431 0.93704 0.0
H1002 H 0.29963 0.83969 0.93615 0.0
C1003 C 0.20804 0.74705 0.93933 0.0
C1004 C 0.72628 0.26827 0.59124 0.0
C1005 C 0.70409 0.28658 0.62556 0.0
H1006 H 0.78481 0.2211 0.56541 0.0
C1007 C 0.72404 0.26862 0.66064 0.0
H1008 H 0.71196 0.28117 0.56371 0.0
C1009 C 0.76456 0.23366 0.6616 0.0
C1010 C 0.78755 0.21581 0.62754 0.0
H1011 H 0.70797 0.28124 0.68775 0.0
H1012 H 0.77854 0.22136 0.68941 0.0
C1013 C 0.76805 0.23384 0.59223 0.0
C1014 C 0.24491 0.73097 0.66239 0.0
C1015 C 0.22448 0.71084 0.62815 0.0
H1016 H 0.29568 0.78438 0.68897 0.0
C1017 C 0.24169 0.73172 0.59304 0.0
H1018 H 0.23332 0.71571 0.69002 0.0
C1019 C 0.27751 0.77231 0.59242 0.0
C1020 C 0.29813 0.79196 0.62685 0.0
H1021 H 0.22698 0.71717 0.56609 0.0
H1022 H 0.28939 0.78793 0.565 0.0
C1023 C 0.28128 0.77034 0.66175 0.0
C1024 C 0.04145 0.48204 0.29291 0.0
C1025 C 0.00712 0.50865 0.31667 0.0
H1026 H 0.08191 0.48215 0.23949 0.0
C1027 C 0.99344 0.5592 0.30793 0.0
H1028 H 0.05314 0.44324 0.29947 0.0
C1029 C 0.0081 0.58026 0.27325 0.0
C1030 C 0.03808 0.55168 0.2478 0.0
H1031 H 0.9679 0.58102 0.32622 0.0
H1032 H 0.9952 0.6185 0.2661 0.0
C1033 C 0.05708 0.50371 0.25849 0.0
C1034 C 0.94172 0.0094 0.26548 0.0
C1035 C 0.97384 0.03769 0.24125 0.0
H1036 H 0.9332 0.97317 0.31968 0.0
C1037 C 0.01983 0.05788 0.25514 0.0
H1038 H 0.90471 0.99579 0.25586 0.0
C1039 C 0.03601 0.04545 0.29189 0.0
C1040 C 0.00616 0.01274 0.31477 0.0
H1041 H 0.04401 0.08158 0.23714 0.0
H1042 H 0.07347 0.05817 0.3012 0.0
C1043 C 0.95743 0.99767 0.30234 0.0
C1044 C 0.52281 0.94702 0.30296 0.0
C1045 C 0.51041 0.99718 0.31366 0.0
H1046 H 0.51344 0.88853 0.26108 0.0
C1047 C 0.47105 0.02354 0.29467 0.0
H1048 H 0.55219 0.92544 0.31777 0.0
C1049 C 0.44905 1.0024 0.26213 0.0
C1050 C 0.46656 0.95511 0.24868 0.0
H1051 H 0.46019 0.06198 0.30302 0.0
H1052 H 0.42074 0.02418 0.24634 0.0
C1053 C 0.50141 0.92631 0.27021 0.0
C1054 C 0.57146 0.48555 0.27438 0.0
C1055 C 0.54325 0.45831 0.24709 0.0
H1056 H 0.56962 0.52634 0.32706 0.0
C1057 C 0.49274 0.44377 0.25456 0.0
H1058 H 0.61137 0.49494 0.26964 0.0
C1059 C 0.46849 0.46211 0.2873 0.0
C1060 C 0.49524 0.4944 0.31254 0.0
H1061 H 0.47134 0.42106 0.23407 0.0
H1062 H 0.42805 0.45447 0.2911 0.0
C1063 C 0.54779 0.50271 0.30742 0.0
C1064 C 0.01084 0.45656 0.72645 0.0
C1065 C 1.00043 0.50743 0.71644 0.0
H1066 H 1.00405 0.3991 0.76943 0.0
C1067 C 0.96623 0.53657 0.73863 0.0
H1068 H 0.03607 0.43282 0.70931 0.0
C1069 C 0.94812 0.51721 0.77316 0.0
C1070 C 0.96434 0.46893 0.78542 0.0
H1071 H 0.95688 0.57566 0.73099 0.0
H1072 H 0.92385 0.54086 0.79114 0.0
C1073 C 0.99349 0.43766 0.76116 0.0
C1074 C 0.08206 0.99619 0.75407 0.0
C1075 C 0.05538 0.96344 0.77873 0.0
H1076 H 0.07788 0.04452 0.70519 0.0
C1077 C 0.0058 0.94722 0.76983 0.0
H1078 H 0.12133 0.00713 0.75978 0.0
C1079 C 0.98072 0.96869 0.73868 0.0
C1080 C 0.0056 0.006 0.71647 0.0
H1081 H 0.98553 0.92054 0.7882 0.0
H1082 H 0.9409 0.95908 0.73391 0.0
C1083 C 0.05747 0.01685 0.72262 0.0
C1084 C 0.56173 0.99541 0.77404 0.0
C1085 C 0.54255 0.04355 0.7841 0.0
H1086 H 0.55972 0.93492 0.73293 0.0
C1087 C 0.51425 0.07229 0.75773 0.0
H1088 H 0.58535 0.97376 0.7938 0.0
C1089 C 0.50163 0.0514 0.72256 0.0
C1090 C 0.5155 1.00078 0.71416 0.0
H1091 H 0.50126 0.11064 0.76445 0.0
H1092 H 0.47747 0.07349 0.70347 0.0
C1093 C 0.54798 0.97382 0.73911 0.0
C1094 C 0.52596 0.54334 0.73242 0.0
C1095 C 0.4974 0.50791 0.711 0.0
H1096 H 0.53162 0.58462 0.78526 0.0
C1097 C 0.44818 0.4939 0.72308 0.0
H1098 H 0.56371 0.55538 0.72321 0.0
C1099 C 0.43099 0.50896 0.75888 0.0
C1100 C 0.4621 0.53958 0.78216 0.0
H1101 H 0.42485 0.46752 0.70666 0.0
H1102 H 0.39392 0.49564 0.76865 0.0
C1103 C 0.50823 0.55921 0.76804 0.0
C1104 C 0.04579 0.7923 0.22818 0.0
C1105 C 0.06063 0.74072 0.22892 0.0
H1106 H 0.0324 0.86075 0.26087 0.0
C1107 C 0.06777 0.71756 0.26541 0.0
H1108 H 0.03983 0.81154 0.20099 0.0
C1109 C 0.06305 0.74536 0.29977 0.0
C1110 C 0.05139 0.79764 0.29905 0.0
H1111 H 0.0787 0.67768 0.26758 0.0
H1112 H 0.07125 0.7264 0.32675 0.0
C1113 C 0.0415 0.82039 0.26274 0.0
C1114 C 0.81019 0.07917 0.26367 0.0
C1115 C 0.78849 0.06943 0.22701 0.0
H1116 H 0.79912 0.08429 0.32489 0.0
C1117 C 0.73763 0.05233 0.22586 0.0
H1118 H 0.84951 0.09185 0.26619 0.0
C1119 C 0.7088 0.04779 0.25997 0.0
C1120 C 0.72991 0.0598 0.29643 0.0
H1121 H 0.71951 0.04415 0.19856 0.0
H1122 H 0.66907 0.03644 0.25759 0.0
C1123 C 0.7815 0.0743 0.29775 0.0
C1124 C 0.45305 0.69205 0.25848 0.0
C1125 C 0.44286 0.7138 0.2951 0.0
H1126 H 0.45504 0.70253 0.19691 0.0
C1127 C 0.43122 0.76602 0.29668 0.0
H1128 H 0.46226 0.65178 0.25598 0.0
C1129 C 0.42668 0.79473 0.26276 0.0
C1130 C 0.43391 0.77246 0.22595 0.0
H1131 H 0.42287 0.78419 0.32396 0.0
H1132 H 0.41591 0.83459 0.2655 0.0
C1133 C 0.44889 0.721 0.22439 0.0
C1134 C 0.71306 0.43079 0.2686 0.0
C1135 C 0.73527 0.44138 0.23221 0.0
H1136 H 0.72287 0.42549 0.32982 0.0
C1137 C 0.78533 0.46066 0.23158 0.0
H1138 H 0.6743 0.41636 0.27068 0.0
C1139 C 0.8132 0.46596 0.26604 0.0
C1140 C 0.79171 0.45271 0.30217 0.0
H1141 H 0.80372 0.46945 0.20446 0.0
H1142 H 0.85263 0.47853 0.2642 0.0
C1143 C 0.74066 0.43655 0.30294 0.0
C1144 C 0.92643 0.27593 0.73117 0.0
C1145 C 0.94211 0.22472 0.73269 0.0
H1146 H 0.90774 0.34374 0.76249 0.0
C1147 C 0.9553 0.20423 0.76911 0.0
H1148 H 0.9155 0.29301 0.70403 0.0
C1149 C 0.95064 0.23323 0.80309 0.0
C1150 C 0.93216 0.28357 0.80178 0.0
H1151 H 0.96757 0.16478 0.77158 0.0
H1152 H 0.95968 0.21559 0.83042 0.0
C1153 C 0.92139 0.30476 0.7651 0.0
C1154 C 0.24932 0.93524 0.72818 0.0
C1155 C 0.30123 0.94829 0.7292 0.0
H1156 H 0.18168 0.91826 0.76008 0.0
C1157 C 0.32326 0.95939 0.76555 0.0
H1158 H 0.23096 0.92613 0.70113 0.0
C1159 C 0.29494 0.9547 0.79994 0.0
C1160 C 0.2439 0.93827 0.79895 0.0
H1161 H 0.36331 0.96967 0.7676 0.0
H1162 H 0.31366 0.96155 0.82722 0.0
C1163 C 0.22126 0.93018 0.76239 0.0
C1164 C 0.56853 0.21146 0.76301 0.0
C1165 C 0.55977 0.23455 0.79936 0.0
H1166 H 0.57257 0.22008 0.70164 0.0
C1167 C 0.54265 0.28542 0.79977 0.0
H1168 H 0.58132 0.17213 0.76108 0.0
C1169 C 0.5376 0.313 0.76509 0.0
C1170 C 0.54898 0.29046 0.72894 0.0
H1171 H 0.53538 0.30457 0.82683 0.0
H1172 H 0.52668 0.35292 0.76674 0.0
C1173 C 0.56304 0.23878 0.72849 0.0
C1174 C 0.30099 0.57486 0.76626 0.0
C1175 C 0.27869 0.56643 0.80294 0.0
H1176 H 0.29085 0.57911 0.70504 0.0
C1177 C 0.22749 0.55038 0.80412 0.0
H1178 H 0.34056 0.58673 0.76373 0.0
C1179 C 0.19887 0.54599 0.76987 0.0
C1180 C 0.22071 0.55694 0.7334 0.0
H1181 H 0.20894 0.54336 0.83146 0.0
H1182 H 0.1588 0.53585 0.77212 0.0
C1183 C 0.27265 0.56998 0.73217 0.0
C1184 C 0.04969 0.50194 0.02621 0.0
C1185 C 0.0272 0.55047 0.03199 0.0
H1186 H 0.0404 0.42433 1.0068 0.0
C1187 C 0.97518 0.55611 0.02226 0.0
H1188 H 0.08931 0.49551 0.03382 0.0
C1189 C 0.94687 0.51486 1.00715 0.0
C1190 C 0.96927 0.46632 1.00144 0.0
H1191 H 0.95605 0.59242 0.02657 0.0
H1192 H 0.90733 0.52133 0.99939 0.0
C1193 C 0.02132 0.46065 1.01114 0.0
C1194 C 0.05661 0.02418 1.00555 0.0
C1195 C 0.04958 0.97296 0.99415 0.0
H1196 H 0.0235 0.09178 0.0301 0.0
C1197 C 1.00019 0.95179 0.9986 0.0
H1198 H 0.09364 0.0423 1.00238 0.0
C1199 C 0.95943 0.98066 1.01405 0.0
C1200 C 0.96646 0.03197 0.02532 0.0
H1201 H 0.99271 0.91287 0.98959 0.0
H1202 H 0.92238 0.9626 0.01731 0.0
C1203 C 0.01589 0.053 0.02097 0.0
C1204 C 0.44861 0.01749 0.0278 0.0
C1205 C 0.46938 0.96786 0.03153 0.0
H1206 H 0.45943 0.09523 1.00916 0.0
C1207 C 0.52026 0.96048 0.0193 0.0
H1208 H 0.41014 0.02533 0.0377 0.0
C1209 C 0.54905 1.00107 1.00359 0.0
C1210 C 0.52816 0.05064 0.99965 0.0
H1211 H 0.53812 0.92327 0.02204 0.0
H1212 H 0.58763 0.99325 0.9939 0.0
C1213 C 0.4773 0.05803 1.01193 0.0
C1214 C 0.5171 0.55205 1.00445 0.0
C1215 C 0.46783 0.53068 1.00011 0.0
H1216 H 0.59469 0.54204 0.02357 0.0
C1217 C 0.46104 0.47941 1.01156 0.0
H1218 H 0.52458 0.59074 0.995 0.0
C1219 C 0.50184 0.45091 0.02725 0.0
C1220 C 0.55098 0.47251 0.03195 0.0
H1221 H 0.42416 0.46105 1.00824 0.0
H1222 H 0.49452 0.41198 0.03632 0.0
C1223 C 0.55781 0.52367 0.0203 0.0
C1224 C 0.98609 0.95272 0.52017 0.0
C1225 C 0.03448 0.96412 0.5045 0.0
H1226 H 0.91755 0.98067 0.54701 0.0
C1227 C 0.04949 0.01618 0.50423 0.0
H1228 H 0.97259 0.91356 0.52076 0.0
C1229 C 0.01729 0.05522 0.51869 0.0
C1230 C 0.9687 0.04385 0.53406 0.0
H1231 H 0.08602 0.02717 0.49206 0.0
H1232 H 0.03066 0.09442 0.51793 0.0
C1233 C 0.95407 0.99169 0.53485 0.0
C1234 C 0.5003 0.04645 0.49617 0.0
C1235 C 0.55245 0.03183 0.4968 0.0
H1236 H 0.42213 0.02763 0.51 0.0
C1237 C 0.56387 0.98315 0.51192 0.0
H1238 H 0.48921 0.08293 0.48405 0.0
C1239 C 0.52487 0.95083 0.52628 0.0
C1240 C 0.47277 0.96572 0.52603 0.0
H1241 H 0.60309 0.96979 0.51254 0.0
H1242 H 0.5359 0.9142 0.53821 0.0
C1243 C 0.46133 0.01422 0.51061 0.0
C1244 C 0.48162 0.44815 0.50917 0.0
C1245 C 0.52971 0.45961 0.52526 0.0
H1246 H 0.41321 0.47617 0.48227 0.0
C1247 C 0.5441 0.5118 0.52658 0.0
H1248 H 0.46855 0.40887 0.50788 0.0
C1249 C 0.51189 0.55085 0.51232 0.0
C1250 C 0.46373 0.5394 0.49634 0.0
H1251 H 0.58018 0.52287 0.53937 0.0
H1252 H 0.52489 0.59015 0.51371 0.0
C1253 C 0.44944 0.48719 0.49486 0.0
C1254 C 0.95654 0.52033 0.5184 0.0
C1255 C 0.96713 0.47164 0.50294 0.0
H1256 H 0.98574 0.58878 0.54455 0.0
C1257 C 0.01905 0.4562 0.50197 0.0
H1258 H 0.91751 0.5342 0.51944 0.0
C1259 C 0.05864 0.48795 0.516 0.0
C1260 C 0.04806 0.53669 0.53136 0.0
H1261 H 0.02948 0.41951 0.48984 0.0
H1262 H 0.09767 0.47407 0.51499 0.0
C1263 C 0.99614 0.55211 0.53237 0.0
loop_
_geom_bond_atom_site_label_1
_geom_bond_atom_site_label_2
_geom_bond_distance
_geom_bond_site_symmetry_2
_ccdc_geom_bond_type
Co0 O2 2.143 . S
Co0 O8 2.074 . S
Co0 O11 2.093 . S
Co0 O24 2.097 . S
Co0 N41 2.151 . S
Co0 N49 2.214 . S
Co1 O2 2.160 . S
Co1 O7 2.058 . S
Co1 O17 2.057 . S
Co1 O32 2.037 . S
Co1 N36 2.145 . S
Co1 N57 2.257 1_455 S
O2 Co0 2.143 . S
O2 Co1 2.160 . S
C3 O4 1.278 . S
C3 O11 1.224 1_655 S
O4 C3 1.278 . S
C5 O6 1.245 . S
C5 O17 1.232 . S
O6 C5 1.245 . S
O7 Co1 2.058 . S
O7 C33 1.269 . S
O8 Co0 2.074 . S
O8 C33 1.257 . S
H9 C34 0.930 . S
H10 C40 0.930 . S
O11 Co0 2.093 . S
O11 C3 1.224 1_455 S
H12 C44 0.929 . S
H13 C46 0.930 . S
H14 C47 0.930 . S
H15 C45 0.929 . S
H16 C48 0.928 . S
O17 Co1 2.057 . S
O17 C5 1.232 . S
H18 C37 0.929 . S
H19 C38 0.929 . S
H20 C50 0.931 . S
H21 C42 0.929 . S
H22 C51 0.930 . S
H23 C43 0.931 . S
O24 Co0 2.097 . S
O24 C52 1.214 . S
H25 C53 0.929 . S
H26 C54 0.929 . S
H27 C55 0.930 . S
H28 C56 0.929 . S
H29 C58 0.930 . S
H30 C35 0.925 1_656 S
H31 C39 0.930 . S
O32 Co1 2.037 . S
O32 C52 1.234 . S
C33 O7 1.269 . S
C33 O8 1.257 . S
C34 H9 0.930 . S
C34 C37 1.388 . S
C34 C39 1.418 . S
C35 H30 0.925 1_454 S
C35 C38 1.404 . S
C35 C39 1.353 . S
N36 Co1 2.145 . S
N36 C37 1.397 . S
N36 C38 1.334 . S
C37 H18 0.929 . S
C37 C34 1.388 . S
C37 N36 1.397 . S
C38 H19 0.929 . S
C38 C35 1.404 . S
C38 N36 1.334 . S
C39 H31 0.930 . S
C39 C34 1.418 . S
C39 C35 1.353 . S
C40 H10 0.930 . S
C40 N41 1.330 . S
C40 C42 1.446 . S
N41 Co0 2.151 . S
N41 C40 1.330 . S
N41 C45 1.418 . S
C42 H21 0.929 . S
C42 C40 1.446 . S
C42 C43 1.332 . S
C43 H23 0.931 . S
C43 C42 1.332 . S
C43 C44 1.267 . S
C44 H12 0.929 . S
C44 C43 1.267 . S
C44 C45 1.251 . S
C45 H15 0.929 . S
C45 N41 1.418 . S
C45 C44 1.251 . S
C46 H13 0.930 . S
C46 C48 1.406 . S
C46 C51 1.261 . S
C47 H14 0.930 . S
C47 N49 1.325 . S
C47 C50 1.357 . S
C48 H16 0.928 . S
C48 C46 1.406 . S
C48 N49 1.261 . S
N49 Co0 2.214 . S
N49 C47 1.325 . S
N49 C48 1.261 . S
C50 H20 0.931 . S
C50 C47 1.357 . S
C50 C51 1.312 . S
C51 H22 0.930 . S
C51 C46 1.261 . S
C51 C50 1.312 . S
C52 O24 1.214 . S
C52 O32 1.234 . S
C53 H25 0.929 . S
C53 C56 1.391 . S
C53 C58 1.391 . S
C54 H26 0.929 . S
C54 C55 1.390 . S
C54 N57 1.391 . S
C55 H27 0.930 . S
C55 C54 1.390 . S
C55 C56 1.392 . S
C56 H28 0.929 . S
C56 C53 1.391 . S
C56 C55 1.392 . S
N57 Co1 2.257 1_655 S
N57 C54 1.391 . S
N57 C58 1.388 . S
C58 H29 0.930 . S
C58 C53 1.391 . S
C58 N57 1.388 . S
Co59 O61 2.143 . S
Co59 O67 2.074 . S
Co59 O70 2.093 . S
Co59 O83 2.097 . S
Co59 N100 2.151 . S
Co59 N108 2.214 . S
Co60 O61 2.160 . S
Co60 O66 2.058 . S
Co60 O76 2.057 . S
Co60 O91 2.037 . S
Co60 N95 2.145 . S
Co60 N116 2.257 1_545 S
O61 Co59 2.143 . S
O61 Co60 2.160 . S
C62 O63 1.278 . S
C62 O70 1.224 1_565 S
O63 C62 1.278 . S
C64 O65 1.245 . S
C64 O76 1.232 . S
O65 C64 1.245 . S
O66 Co60 2.058 . S
O66 C92 1.269 . S
O67 Co59 2.074 . S
O67 C92 1.257 . S
H68 C93 0.930 . S
H69 C99 0.930 . S
O70 Co59 2.093 . S
O70 C62 1.224 1_545 S
H71 C103 0.929 . S
H72 C105 0.930 . S
H73 C106 0.930 . S
H74 C104 0.929 . S
H75 C107 0.928 . S
O76 Co60 2.057 . S
O76 C64 1.232 . S
H77 C96 0.929 . S
H78 C97 0.929 . S
H79 C109 0.931 . S
H80 C101 0.929 . S
H81 C110 0.930 . S
H82 C102 0.931 . S
O83 Co59 2.097 . S
O83 C111 1.214 . S
H84 C112 0.929 . S
H85 C113 0.929 . S
H86 C114 0.930 . S
H87 C115 0.929 . S
H88 C117 0.930 . S
H89 C94 0.925 1_566 S
H90 C98 0.930 . S
O91 Co60 2.037 . S
O91 C111 1.234 . S
C92 O66 1.269 . S
C92 O67 1.257 . S
C93 H68 0.930 . S
C93 C96 1.388 . S
C93 C98 1.418 . S
C94 H89 0.925 1_544 S
C94 C97 1.404 . S
C94 C98 1.353 . S
N95 Co60 2.145 . S
N95 C96 1.397 . S
N95 C97 1.334 . S
C96 H77 0.929 . S
C96 C93 1.388 . S
C96 N95 1.397 . S
C97 H78 0.929 . S
C97 C94 1.404 . S
C97 N95 1.334 . S
C98 H90 0.930 . S
C98 C93 1.418 . S
C98 C94 1.353 . S
C99 H69 0.930 . S
C99 N100 1.330 . S
C99 C101 1.446 1_655 S
N100 Co59 2.151 . S
N100 C99 1.330 . S
N100 C104 1.418 . S
C101 H80 0.929 . S
C101 C99 1.446 1_455 S
C101 C102 1.332 . S
C102 H82 0.931 . S
C102 C101 1.332 . S
C102 C103 1.267 1_455 S
C103 H71 0.929 . S
C103 C102 1.267 1_655 S
C103 C104 1.251 . S
C104 H74 0.929 . S
C104 N100 1.418 . S
C104 C103 1.251 . S
C105 H72 0.930 . S
C105 C107 1.406 . S
C105 C110 1.261 . S
C106 H73 0.930 . S
C106 N108 1.325 . S
C106 C109 1.357 . S
C107 H75 0.928 . S
C107 C105 1.406 . S
C107 N108 1.261 . S
N108 Co59 2.214 . S
N108 C106 1.325 . S
N108 C107 1.261 . S
C109 H79 0.931 . S
C109 C106 1.357 . S
C109 C110 1.312 . S
C110 H81 0.930 . S
C110 C105 1.261 . S
C110 C109 1.312 . S
C111 O83 1.214 . S
C111 O91 1.234 . S
C112 H84 0.929 . S
C112 C115 1.391 . S
C112 C117 1.391 . S
C113 H85 0.929 . S
C113 C114 1.390 . S
C113 N116 1.391 . S
C114 H86 0.930 . S
C114 C113 1.390 . S
C114 C115 1.392 . S
C115 H87 0.929 . S
C115 C112 1.391 . S
C115 C114 1.392 . S
N116 Co60 2.257 1_565 S
N116 C113 1.391 . S
N116 C117 1.388 . S
C117 H88 0.930 . S
C117 C112 1.391 . S
C117 N116 1.388 . S
Co118 O120 2.143 . S
Co118 O126 2.074 . S
Co118 O129 2.093 . S
Co118 O142 2.097 . S
Co118 N159 2.151 . S
Co118 N167 2.214 . S
Co119 O120 2.160 . S
Co119 O125 2.058 . S
Co119 O135 2.057 . S
Co119 O150 2.037 . S
Co119 N154 2.145 . S
Co119 N175 2.257 . S
O120 Co118 2.143 . S
O120 Co119 2.160 . S
C121 O122 1.278 . S
C121 O129 1.224 . S
O122 C121 1.278 . S
C123 O124 1.245 . S
C123 O135 1.232 . S
O124 C123 1.245 . S
O125 Co119 2.058 . S
O125 C151 1.269 . S
O126 Co118 2.074 . S
O126 C151 1.257 . S
H127 C152 0.930 . S
H128 C158 0.930 . S
O129 Co118 2.093 . S
O129 C121 1.224 . S
H130 C162 0.929 . S
H131 C164 0.930 . S
H132 C165 0.930 . S
H133 C163 0.929 . S
H134 C166 0.928 . S
O135 Co119 2.057 . S
O135 C123 1.232 . S
H136 C155 0.929 . S
H137 C156 0.929 . S
H138 C168 0.931 . S
H139 C160 0.929 . S
H140 C169 0.930 . S
H141 C161 0.931 . S
O142 Co118 2.097 . S
O142 C170 1.214 . S
H143 C171 0.929 . S
H144 C172 0.929 . S
H145 C173 0.930 . S
H146 C174 0.929 . S
H147 C176 0.930 . S
H148 C153 0.930 1_556 S
H149 C157 0.930 . S
O150 Co119 2.037 . S
O150 C170 1.234 . S
C151 O125 1.269 . S
C151 O126 1.257 . S
C152 H127 0.930 . S
C152 C155 1.388 . S
C152 C157 1.418 . S
C153 H148 0.930 1_554 S
C153 C156 1.404 . S
C153 C157 1.353 . S
N154 Co119 2.145 . S
N154 C155 1.397 . S
N154 C156 1.334 . S
C155 H136 0.929 . S
C155 C152 1.388 . S
C155 N154 1.397 . S
C156 H137 0.929 . S
C156 C153 1.404 . S
C156 N154 1.334 . S
C157 H149 0.930 . S
C157 C152 1.418 . S
C157 C153 1.353 . S
C158 H128 0.930 . S
C158 N159 1.330 . S
C158 C160 1.446 1_565 S
N159 Co118 2.151 . S
N159 C158 1.330 . S
N159 C163 1.418 . S
C160 H139 0.929 . S
C160 C158 1.446 1_545 S
C160 C161 1.332 . S
C161 H141 0.931 . S
C161 C160 1.332 . S
C161 C162 1.267 1_545 S
C162 H130 0.929 . S
C162 C161 1.267 1_565 S
C162 C163 1.251 . S
C163 H133 0.929 . S
C163 N159 1.418 . S
C163 C162 1.251 . S
C164 H131 0.930 . S
C164 C166 1.406 . S
C164 C169 1.261 . S
C165 H132 0.930 . S
C165 N167 1.325 . S
C165 C168 1.357 . S
C166 H134 0.928 . S
C166 C164 1.406 . S
C166 N167 1.261 . S
N167 Co118 2.214 . S
N167 C165 1.325 . S
N167 C166 1.261 . S
C168 H138 0.931 . S
C168 C165 1.357 . S
C168 C169 1.312 . S
C169 H140 0.930 . S
C169 C164 1.261 . S
C169 C168 1.312 . S
C170 O142 1.214 . S
C170 O150 1.234 . S
C171 H143 0.929 . S
C171 C174 1.391 . S
C171 C176 1.391 . S
C172 H144 0.929 . S
C172 C173 1.390 . S
C172 N175 1.391 . S
C173 H145 0.930 . S
C173 C172 1.390 . S
C173 C174 1.392 . S
C174 H146 0.929 . S
C174 C171 1.391 . S
C174 C173 1.392 . S
N175 Co119 2.257 . S
N175 C172 1.391 . S
N175 C176 1.388 . S
C176 H147 0.930 . S
C176 C171 1.391 . S
C176 N175 1.388 . S
Co177 O179 2.143 . S
Co177 O185 2.074 . S
Co177 O188 2.093 . S
Co177 O201 2.097 . S
Co177 N218 2.151 . S
Co177 N226 2.214 . S
Co178 O179 2.160 . S
Co178 O184 2.058 . S
Co178 O194 2.057 . S
Co178 O209 2.037 . S
Co178 N213 2.145 . S
Co178 N234 2.257 . S
O179 Co177 2.143 . S
O179 Co178 2.160 . S
C180 O181 1.278 . S
C180 O188 1.224 . S
O181 C180 1.278 . S
C182 O183 1.245 . S
C182 O194 1.232 . S
O183 C182 1.245 . S
O184 Co178 2.058 . S
O184 C210 1.269 . S
O185 Co177 2.074 . S
O185 C210 1.257 . S
H186 C211 0.930 . S
H187 C217 0.930 . S
O188 Co177 2.093 . S
O188 C180 1.224 . S
H189 C221 0.929 . S
H190 C223 0.930 . S
H191 C224 0.930 . S
H192 C222 0.929 . S
H193 C225 0.928 . S
O194 Co178 2.057 . S
O194 C182 1.232 . S
H195 C214 0.929 . S
H196 C215 0.929 . S
H197 C227 0.931 . S
H198 C219 0.929 . S
H199 C228 0.930 . S
H200 C220 0.931 . S
O201 Co177 2.097 . S
O201 C229 1.214 . S
H202 C230 0.929 . S
H203 C231 0.929 . S
H204 C232 0.930 . S
H205 C233 0.929 . S
H206 C235 0.930 . S
H207 C212 0.930 1_556 S
H208 C216 0.930 . S
O209 Co178 2.037 . S
O209 C229 1.234 . S
C210 O184 1.269 . S
C210 O185 1.257 . S
C211 H186 0.930 . S
C211 C214 1.388 . S
C211 C216 1.418 . S
C212 H207 0.930 1_554 S
C212 C215 1.404 . S
C212 C216 1.353 . S
N213 Co178 2.145 . S
N213 C214 1.397 . S
N213 C215 1.334 . S
C214 H195 0.929 . S
C214 C211 1.388 . S
C214 N213 1.397 . S
C215 H196 0.929 . S
C215 C212 1.404 . S
C215 N213 1.334 . S
C216 H208 0.930 . S
C216 C211 1.418 . S
C216 C212 1.353 . S
C217 H187 0.930 . S
C217 N218 1.330 . S
C217 C219 1.446 . S
N218 Co177 2.151 . S
N218 C217 1.330 . S
N218 C222 1.418 . S
C219 H198 0.929 . S
C219 C217 1.446 . S
C219 C220 1.332 . S
C220 H200 0.931 . S
C220 C219 1.332 . S
C220 C221 1.267 . S
C221 H189 0.929 . S
C221 C220 1.267 . S
C221 C222 1.251 . S
C222 H192 0.929 . S
C222 N218 1.418 . S
C222 C221 1.251 . S
C223 H190 0.930 . S
C223 C225 1.406 . S
C223 C228 1.261 . S
C224 H191 0.930 . S
C224 N226 1.325 . S
C224 C227 1.357 . S
C225 H193 0.928 . S
C225 C223 1.406 . S
C225 N226 1.261 . S
N226 Co177 2.214 . S
N226 C224 1.325 . S
N226 C225 1.261 . S
C227 H197 0.931 . S
C227 C224 1.357 . S
C227 C228 1.312 . S
C228 H199 0.930 . S
C228 C223 1.261 . S
C228 C227 1.312 . S
C229 O201 1.214 . S
C229 O209 1.234 . S
C230 H202 0.929 . S
C230 C233 1.391 . S
C230 C235 1.391 . S
C231 H203 0.929 . S
C231 C232 1.390 . S
C231 N234 1.391 . S
C232 H204 0.930 . S
C232 C231 1.390 . S
C232 C233 1.392 . S
C233 H205 0.929 . S
C233 C230 1.391 . S
C233 C232 1.392 . S
N234 Co178 2.257 . S
N234 C231 1.391 . S
N234 C235 1.388 . S
C235 H206 0.930 . S
C235 C230 1.391 . S
C235 N234 1.388 . S
Co236 O238 2.143 . S
Co236 O244 2.074 . S
Co236 O247 2.093 . S
Co236 O260 2.097 . S
Co236 N277 2.151 . S
Co236 N285 2.214 . S
Co237 O238 2.160 . S
Co237 O243 2.058 . S
Co237 O253 2.057 . S
Co237 O268 2.037 . S
Co237 N272 2.145 . S
Co237 N293 2.257 1_455 S
O238 Co236 2.143 . S
O238 Co237 2.160 . S
C239 O240 1.278 . S
C239 O247 1.224 1_655 S
O240 C239 1.278 . S
C241 O242 1.245 . S
C241 O253 1.232 . S
O242 C241 1.245 . S
O243 Co237 2.058 . S
O243 C269 1.269 . S
O244 Co236 2.074 . S
O244 C269 1.257 . S
H245 C270 0.930 . S
H246 C276 0.930 . S
O247 Co236 2.093 . S
O247 C239 1.224 1_455 S
H248 C280 0.929 . S
H249 C282 0.930 . S
H250 C283 0.930 . S
H251 C281 0.929 . S
H252 C284 0.928 . S
O253 Co237 2.057 . S
O253 C241 1.232 . S
H254 C273 0.929 . S
H255 C274 0.929 . S
H256 C286 0.931 . S
H257 C278 0.929 . S
H258 C287 0.930 . S
H259 C279 0.931 . S
O260 Co236 2.097 . S
O260 C288 1.214 . S
H261 C289 0.929 . S
H262 C290 0.929 . S
H263 C291 0.930 . S
H264 C292 0.929 . S
H265 C294 0.930 . S
H266 C271 0.925 1_655 S
H267 C275 0.930 . S
O268 Co237 2.037 . S
O268 C288 1.234 . S
C269 O243 1.269 . S
C269 O244 1.257 . S
C270 H245 0.930 . S
C270 C273 1.388 . S
C270 C275 1.418 . S
C271 H266 0.925 1_455 S
C271 C274 1.404 . S
C271 C275 1.353 . S
N272 Co237 2.145 . S
N272 C273 1.397 . S
N272 C274 1.334 . S
C273 H254 0.929 . S
C273 C270 1.388 . S
C273 N272 1.397 . S
C274 H255 0.929 . S
C274 C271 1.404 . S
C274 N272 1.334 . S
C275 H267 0.930 . S
C275 C270 1.418 . S
C275 C271 1.353 . S
C276 H246 0.930 . S
C276 N277 1.330 . S
C276 C278 1.446 1_565 S
N277 Co236 2.151 . S
N277 C276 1.330 . S
N277 C281 1.418 . S
C278 H257 0.929 . S
C278 C276 1.446 1_545 S
C278 C279 1.332 . S
C279 H259 0.931 . S
C279 C278 1.332 . S
C279 C280 1.267 1_545 S
C280 H248 0.929 . S
C280 C279 1.267 1_565 S
C280 C281 1.251 . S
C281 H251 0.929 . S
C281 N277 1.418 . S
C281 C280 1.251 . S
C282 H249 0.930 . S
C282 C284 1.406 . S
C282 C287 1.261 . S
C283 H250 0.930 . S
C283 N285 1.325 . S
C283 C286 1.357 . S
C284 H252 0.928 . S
C284 C282 1.406 . S
C284 N285 1.261 . S
N285 Co236 2.214 . S
N285 C283 1.325 . S
N285 C284 1.261 . S
C286 H256 0.931 . S
C286 C283 1.357 . S
C286 C287 1.312 . S
C287 H258 0.930 . S
C287 C282 1.261 . S
C287 C286 1.312 . S
C288 O260 1.214 . S
C288 O268 1.234 . S
C289 H261 0.929 . S
C289 C292 1.391 . S
C289 C294 1.391 . S
C290 H262 0.929 . S
C290 C291 1.390 . S
C290 N293 1.391 . S
C291 H263 0.930 . S
C291 C290 1.390 . S
C291 C292 1.392 . S
C292 H264 0.929 . S
C292 C289 1.391 . S
C292 C291 1.392 . S
N293 Co237 2.257 1_655 S
N293 C290 1.391 . S
N293 C294 1.388 . S
C294 H265 0.930 . S
C294 C289 1.391 . S
C294 N293 1.388 . S
Co295 O297 2.143 . S
Co295 O303 2.074 . S
Co295 O306 2.093 . S
Co295 O319 2.097 . S
Co295 N336 2.151 . S
Co295 N344 2.214 . S
Co296 O297 2.160 . S
Co296 O302 2.058 . S
Co296 O312 2.057 . S
Co296 O327 2.037 . S
Co296 N331 2.145 . S
Co296 N352 2.257 1_545 S
O297 Co295 2.143 . S
O297 Co296 2.160 . S
C298 O299 1.278 . S
C298 O306 1.224 1_565 S
O299 C298 1.278 . S
C300 O301 1.245 . S
C300 O312 1.232 . S
O301 C300 1.245 . S
O302 Co296 2.058 . S
O302 C328 1.269 . S
O303 Co295 2.074 . S
O303 C328 1.257 . S
H304 C329 0.930 . S
H305 C335 0.930 . S
O306 Co295 2.093 . S
O306 C298 1.224 1_545 S
H307 C339 0.929 . S
H308 C341 0.930 . S
H309 C342 0.930 . S
H310 C340 0.929 . S
H311 C343 0.928 . S
O312 Co296 2.057 . S
O312 C300 1.232 . S
H313 C332 0.929 . S
H314 C333 0.929 . S
H315 C345 0.931 . S
H316 C337 0.929 . S
H317 C346 0.930 . S
H318 C338 0.931 . S
O319 Co295 2.097 . S
O319 C347 1.214 . S
H320 C348 0.929 . S
H321 C349 0.929 . S
H322 C350 0.930 . S
H323 C351 0.929 . S
H324 C353 0.930 . S
H325 C330 0.925 1_565 S
H326 C334 0.930 . S
O327 Co296 2.037 . S
O327 C347 1.234 . S
C328 O302 1.269 . S
C328 O303 1.257 . S
C329 H304 0.930 . S
C329 C332 1.388 . S
C329 C334 1.418 . S
C330 H325 0.925 1_545 S
C330 C333 1.404 . S
C330 C334 1.353 . S
N331 Co296 2.145 . S
N331 C332 1.397 . S
N331 C333 1.334 . S
C332 H313 0.929 . S
C332 C329 1.388 . S
C332 N331 1.397 . S
C333 H314 0.929 . S
C333 C330 1.404 . S
C333 N331 1.334 . S
C334 H326 0.930 . S
C334 C329 1.418 . S
C334 C330 1.353 . S
C335 H305 0.930 . S
C335 N336 1.330 . S
C335 C337 1.446 . S
N336 Co295 2.151 . S
N336 C335 1.330 . S
N336 C340 1.418 . S
C337 H316 0.929 . S
C337 C335 1.446 . S
C337 C338 1.332 . S
C338 H318 0.931 . S
C338 C337 1.332 . S
C338 C339 1.267 . S
C339 H307 0.929 . S
C339 C338 1.267 . S
C339 C340 1.251 . S
C340 H310 0.929 . S
C340 N336 1.418 . S
C340 C339 1.251 . S
C341 H308 0.930 . S
C341 C343 1.406 . S
C341 C346 1.261 . S
C342 H309 0.930 . S
C342 N344 1.325 . S
C342 C345 1.357 . S
C343 H311 0.928 . S
C343 C341 1.406 . S
C343 N344 1.261 . S
N344 Co295 2.214 . S
N344 C342 1.325 . S
N344 C343 1.261 . S
C345 H315 0.931 . S
C345 C342 1.357 . S
C345 C346 1.312 . S
C346 H317 0.930 . S
C346 C341 1.261 . S
C346 C345 1.312 . S
C347 O319 1.214 . S
C347 O327 1.234 . S
C348 H320 0.929 . S
C348 C351 1.391 . S
C348 C353 1.391 . S
C349 H321 0.929 . S
C349 C350 1.390 . S
C349 N352 1.391 . S
C350 H322 0.930 . S
C350 C349 1.390 . S
C350 C351 1.392 . S
C351 H323 0.929 . S
C351 C348 1.391 . S
C351 C350 1.392 . S
N352 Co296 2.257 1_565 S
N352 C349 1.391 . S
N352 C353 1.388 . S
C353 H324 0.930 . S
C353 C348 1.391 . S
C353 N352 1.388 . S
Co354 O356 2.143 . S
Co354 O362 2.074 . S
Co354 O365 2.093 . S
Co354 O378 2.097 . S
Co354 N395 2.151 . S
Co354 N403 2.214 . S
Co355 O356 2.160 . S
Co355 O361 2.058 . S
Co355 O371 2.057 . S
Co355 O386 2.037 . S
Co355 N390 2.145 . S
Co355 N411 2.257 . S
O356 Co354 2.143 . S
O356 Co355 2.160 . S
C357 O358 1.278 . S
C357 O365 1.224 . S
O358 C357 1.278 . S
C359 O360 1.245 . S
C359 O371 1.232 . S
O360 C359 1.245 . S
O361 Co355 2.058 . S
O361 C387 1.269 . S
O362 Co354 2.074 . S
O362 C387 1.257 . S
H363 C388 0.930 . S
H364 C394 0.930 . S
O365 Co354 2.093 . S
O365 C357 1.224 . S
H366 C398 0.929 . S
H367 C400 0.930 . S
H368 C401 0.930 . S
H369 C399 0.929 . S
H370 C402 0.928 . S
O371 Co355 2.057 . S
O371 C359 1.232 . S
H372 C391 0.929 . S
H373 C392 0.929 . S
H374 C404 0.931 . S
H375 C396 0.929 . S
H376 C405 0.930 . S
H377 C397 0.931 . S
O378 Co354 2.097 . S
O378 C406 1.214 . S
H379 C407 0.929 . S
H380 C408 0.929 . S
H381 C409 0.930 . S
H382 C410 0.929 . S
H383 C412 0.930 . S
H384 C389 0.930 . S
H385 C393 0.930 . S
O386 Co355 2.037 . S
O386 C406 1.234 . S
C387 O361 1.269 . S
C387 O362 1.257 . S
C388 H363 0.930 . S
C388 C391 1.388 . S
C388 C393 1.418 . S
C389 H384 0.930 . S
C389 C392 1.404 . S
C389 C393 1.353 . S
N390 Co355 2.145 . S
N390 C391 1.397 . S
N390 C392 1.334 . S
C391 H372 0.929 . S
C391 C388 1.388 . S
C391 N390 1.397 . S
C392 H373 0.929 . S
C392 C389 1.404 . S
C392 N390 1.334 . S
C393 H385 0.930 . S
C393 C388 1.418 . S
C393 C389 1.353 . S
C394 H364 0.930 . S
C394 N395 1.330 . S
C394 C396 1.446 . S
N395 Co354 2.151 . S
N395 C394 1.330 . S
N395 C399 1.418 . S
C396 H375 0.929 . S
C396 C394 1.446 . S
C396 C397 1.332 . S
C397 H377 0.931 . S
C397 C396 1.332 . S
C397 C398 1.267 . S
C398 H366 0.929 . S
C398 C397 1.267 . S
C398 C399 1.251 . S
C399 H369 0.929 . S
C399 N395 1.418 . S
C399 C398 1.251 . S
C400 H367 0.930 . S
C400 C402 1.406 . S
C400 C405 1.261 . S
C401 H368 0.930 . S
C401 N403 1.325 . S
C401 C404 1.357 . S
C402 H370 0.928 . S
C402 C400 1.406 . S
C402 N403 1.261 . S
N403 Co354 2.214 . S
N403 C401 1.325 . S
N403 C402 1.261 . S
C404 H374 0.931 . S
C404 C401 1.357 . S
C404 C405 1.312 . S
C405 H376 0.930 . S
C405 C400 1.261 . S
C405 C404 1.312 . S
C406 O378 1.214 . S
C406 O386 1.234 . S
C407 H379 0.929 . S
C407 C410 1.391 . S
C407 C412 1.391 . S
C408 H380 0.929 . S
C408 C409 1.390 . S
C408 N411 1.391 . S
C409 H381 0.930 . S
C409 C408 1.390 . S
C409 C410 1.392 . S
C410 H382 0.929 . S
C410 C407 1.391 . S
C410 C409 1.392 . S
N411 Co355 2.257 . S
N411 C408 1.391 . S
N411 C412 1.388 . S
C412 H383 0.930 . S
C412 C407 1.391 . S
C412 N411 1.388 . S
Co413 O415 2.143 . S
Co413 O421 2.074 . S
Co413 O424 2.093 . S
Co413 O437 2.097 . S
Co413 N454 2.151 . S
Co413 N462 2.214 . S
Co414 O415 2.160 . S
Co414 O420 2.058 . S
Co414 O430 2.057 . S
Co414 O445 2.037 . S
Co414 N449 2.145 . S
Co414 N470 2.257 . S
O415 Co413 2.143 . S
O415 Co414 2.160 . S
C416 O417 1.278 . S
C416 O424 1.224 . S
O417 C416 1.278 . S
C418 O419 1.245 . S
C418 O430 1.232 . S
O419 C418 1.245 . S
O420 Co414 2.058 . S
O420 C446 1.269 . S
O421 Co413 2.074 . S
O421 C446 1.257 . S
H422 C447 0.930 . S
H423 C453 0.930 . S
O424 Co413 2.093 . S
O424 C416 1.224 . S
H425 C457 0.929 . S
H426 C459 0.930 . S
H427 C460 0.930 . S
H428 C458 0.929 . S
H429 C461 0.928 . S
O430 Co414 2.057 . S
O430 C418 1.232 . S
H431 C450 0.929 . S
H432 C451 0.929 . S
H433 C463 0.931 . S
H434 C455 0.929 . S
H435 C464 0.930 . S
H436 C456 0.931 . S
O437 Co413 2.097 . S
O437 C465 1.214 . S
H438 C466 0.929 . S
H439 C467 0.929 . S
H440 C468 0.930 . S
H441 C469 0.929 . S
H442 C471 0.930 . S
H443 C448 0.930 . S
H444 C452 0.930 . S
O445 Co414 2.037 . S
O445 C465 1.234 . S
C446 O420 1.269 . S
C446 O421 1.257 . S
C447 H422 0.930 . S
C447 C450 1.388 . S
C447 C452 1.418 . S
C448 H443 0.930 . S
C448 C451 1.404 . S
C448 C452 1.353 . S
N449 Co414 2.145 . S
N449 C450 1.397 . S
N449 C451 1.334 . S
C450 H431 0.929 . S
C450 C447 1.388 . S
C450 N449 1.397 . S
C451 H432 0.929 . S
C451 C448 1.404 . S
C451 N449 1.334 . S
C452 H444 0.930 . S
C452 C447 1.418 . S
C452 C448 1.353 . S
C453 H423 0.930 . S
C453 N454 1.330 . S
C453 C455 1.446 1_655 S
N454 Co413 2.151 . S
N454 C453 1.330 . S
N454 C458 1.418 . S
C455 H434 0.929 . S
C455 C453 1.446 1_455 S
C455 C456 1.332 . S
C456 H436 0.931 . S
C456 C455 1.332 . S
C456 C457 1.267 1_455 S
C457 H425 0.929 . S
C457 C456 1.267 1_655 S
C457 C458 1.251 . S
C458 H428 0.929 . S
C458 N454 1.418 . S
C458 C457 1.251 . S
C459 H426 0.930 . S
C459 C461 1.406 . S
C459 C464 1.261 . S
C460 H427 0.930 . S
C460 N462 1.325 . S
C460 C463 1.357 . S
C461 H429 0.928 . S
C461 C459 1.406 . S
C461 N462 1.261 . S
N462 Co413 2.214 . S
N462 C460 1.325 . S
N462 C461 1.261 . S
C463 H433 0.931 . S
C463 C460 1.357 . S
C463 C464 1.312 . S
C464 H435 0.930 . S
C464 C459 1.261 . S
C464 C463 1.312 . S
C465 O437 1.214 . S
C465 O445 1.234 . S
C466 H438 0.929 . S
C466 C469 1.391 . S
C466 C471 1.391 . S
C467 H439 0.929 . S
C467 C468 1.390 . S
C467 N470 1.391 . S
C468 H440 0.930 . S
C468 C467 1.390 . S
C468 C469 1.392 . S
C469 H441 0.929 . S
C469 C466 1.391 . S
C469 C468 1.392 . S
N470 Co414 2.257 . S
N470 C467 1.391 . S
N470 C471 1.388 . S
C471 H442 0.930 . S
C471 C466 1.391 . S
C471 N470 1.388 . S
Co472 O474 2.143 . S
Co472 O480 2.074 . S
Co472 O483 2.093 . S
Co472 O496 2.097 . S
Co472 N513 2.151 . S
Co472 N521 2.214 . S
Co473 O474 2.160 . S
Co473 O479 2.058 . S
Co473 O489 2.057 . S
Co473 O504 2.037 . S
Co473 N508 2.145 . S
Co473 N529 2.257 1_655 S
O474 Co472 2.143 . S
O474 Co473 2.160 . S
C475 O476 1.278 . S
C475 O483 1.224 1_455 S
O476 C475 1.278 . S
C477 O478 1.245 . S
C477 O489 1.232 . S
O478 C477 1.245 . S
O479 Co473 2.058 . S
O479 C505 1.269 . S
O480 Co472 2.074 . S
O480 C505 1.257 . S
H481 C506 0.930 . S
H482 C512 0.930 . S
O483 Co472 2.093 . S
O483 C475 1.224 1_655 S
H484 C516 0.929 . S
H485 C518 0.930 . S
H486 C519 0.930 . S
H487 C517 0.929 . S
H488 C520 0.928 . S
O489 Co473 2.057 . S
O489 C477 1.232 . S
H490 C509 0.929 . S
H491 C510 0.929 . S
H492 C522 0.931 . S
H493 C514 0.929 . S
H494 C523 0.930 . S
H495 C515 0.931 . S
O496 Co472 2.097 . S
O496 C524 1.214 . S
H497 C525 0.929 . S
H498 C526 0.929 . S
H499 C527 0.930 . S
H500 C528 0.929 . S
H501 C530 0.930 . S
H502 C507 0.925 1_454 S
H503 C511 0.930 . S
O504 Co473 2.037 . S
O504 C524 1.234 . S
C505 O479 1.269 . S
C505 O480 1.257 . S
C506 H481 0.930 . S
C506 C509 1.388 . S
C506 C511 1.418 . S
C507 H502 0.925 1_656 S
C507 C510 1.404 . S
C507 C511 1.353 . S
N508 Co473 2.145 . S
N508 C509 1.397 . S
N508 C510 1.334 . S
C509 H490 0.929 . S
C509 C506 1.388 . S
C509 N508 1.397 . S
C510 H491 0.929 . S
C510 C507 1.404 . S
C510 N508 1.334 . S
C511 H503 0.930 . S
C511 C506 1.418 . S
C511 C507 1.353 . S
C512 H482 0.930 . S
C512 N513 1.330 . S
C512 C514 1.446 . S
N513 Co472 2.151 . S
N513 C512 1.330 . S
N513 C517 1.418 . S
C514 H493 0.929 . S
C514 C512 1.446 . S
C514 C515 1.332 . S
C515 H495 0.931 . S
C515 C514 1.332 . S
C515 C516 1.267 . S
C516 H484 0.929 . S
C516 C515 1.267 . S
C516 C517 1.251 . S
C517 H487 0.929 . S
C517 N513 1.418 . S
C517 C516 1.251 . S
C518 H485 0.930 . S
C518 C520 1.406 . S
C518 C523 1.261 . S
C519 H486 0.930 . S
C519 N521 1.325 . S
C519 C522 1.357 . S
C520 H488 0.928 . S
C520 C518 1.406 . S
C520 N521 1.261 . S
N521 Co472 2.214 . S
N521 C519 1.325 . S
N521 C520 1.261 . S
C522 H492 0.931 . S
C522 C519 1.357 . S
C522 C523 1.312 . S
C523 H494 0.930 . S
C523 C518 1.261 . S
C523 C522 1.312 . S
C524 O496 1.214 . S
C524 O504 1.234 . S
C525 H497 0.929 . S
C525 C528 1.391 . S
C525 C530 1.391 . S
C526 H498 0.929 . S
C526 C527 1.390 . S
C526 N529 1.391 . S
C527 H499 0.930 . S
C527 C526 1.390 . S
C527 C528 1.392 . S
C528 H500 0.929 . S
C528 C525 1.391 . S
C528 C527 1.392 . S
N529 Co473 2.257 1_455 S
N529 C526 1.391 . S
N529 C530 1.388 . S
C530 H501 0.930 . S
C530 C525 1.391 . S
C530 N529 1.388 . S
Co531 O533 2.143 . S
Co531 O539 2.074 . S
Co531 O542 2.093 . S
Co531 O555 2.097 . S
Co531 N572 2.151 . S
Co531 N580 2.214 . S
Co532 O533 2.160 . S
Co532 O538 2.058 . S
Co532 O548 2.057 . S
Co532 O563 2.037 . S
Co532 N567 2.145 . S
Co532 N588 2.257 1_565 S
O533 Co531 2.143 . S
O533 Co532 2.160 . S
C534 O535 1.278 . S
C534 O542 1.224 1_545 S
O535 C534 1.278 . S
C536 O537 1.245 . S
C536 O548 1.232 . S
O537 C536 1.245 . S
O538 Co532 2.058 . S
O538 C564 1.269 . S
O539 Co531 2.074 . S
O539 C564 1.257 . S
H540 C565 0.930 . S
H541 C571 0.930 . S
O542 Co531 2.093 . S
O542 C534 1.224 1_565 S
H543 C575 0.929 . S
H544 C577 0.930 . S
H545 C578 0.930 . S
H546 C576 0.929 . S
H547 C579 0.928 . S
O548 Co532 2.057 . S
O548 C536 1.232 . S
H549 C568 0.929 . S
H550 C569 0.929 . S
H551 C581 0.931 . S
H552 C573 0.929 . S
H553 C582 0.930 . S
H554 C574 0.931 . S
O555 Co531 2.097 . S
O555 C583 1.214 . S
H556 C584 0.929 . S
H557 C585 0.929 . S
H558 C586 0.930 . S
H559 C587 0.929 . S
H560 C589 0.930 . S
H561 C566 0.925 1_544 S
H562 C570 0.930 . S
O563 Co532 2.037 . S
O563 C583 1.234 . S
C564 O538 1.269 . S
C564 O539 1.257 . S
C565 H540 0.930 . S
C565 C568 1.388 . S
C565 C570 1.418 . S
C566 H561 0.925 1_566 S
C566 C569 1.404 . S
C566 C570 1.353 . S
N567 Co532 2.145 . S
N567 C568 1.397 . S
N567 C569 1.334 . S
C568 H549 0.929 . S
C568 C565 1.388 . S
C568 N567 1.397 . S
C569 H550 0.929 . S
C569 C566 1.404 . S
C569 N567 1.334 . S
C570 H562 0.930 . S
C570 C565 1.418 . S
C570 C566 1.353 . S
C571 H541 0.930 . S
C571 N572 1.330 . S
C571 C573 1.446 1_455 S
N572 Co531 2.151 . S
N572 C571 1.330 . S
N572 C576 1.418 . S
C573 H552 0.929 . S
C573 C571 1.446 1_655 S
C573 C574 1.332 . S
C574 H554 0.931 . S
C574 C573 1.332 . S
C574 C575 1.267 1_655 S
C575 H543 0.929 . S
C575 C574 1.267 1_455 S
C575 C576 1.251 . S
C576 H546 0.929 . S
C576 N572 1.418 . S
C576 C575 1.251 . S
C577 H544 0.930 . S
C577 C579 1.406 . S
C577 C582 1.261 . S
C578 H545 0.930 . S
C578 N580 1.325 . S
C578 C581 1.357 . S
C579 H547 0.928 . S
C579 C577 1.406 . S
C579 N580 1.261 . S
N580 Co531 2.214 . S
N580 C578 1.325 . S
N580 C579 1.261 . S
C581 H551 0.931 . S
C581 C578 1.357 . S
C581 C582 1.312 . S
C582 H553 0.930 . S
C582 C577 1.261 . S
C582 C581 1.312 . S
C583 O555 1.214 . S
C583 O563 1.234 . S
C584 H556 0.929 . S
C584 C587 1.391 . S
C584 C589 1.391 . S
C585 H557 0.929 . S
C585 C586 1.390 . S
C585 N588 1.391 . S
C586 H558 0.930 . S
C586 C585 1.390 . S
C586 C587 1.392 . S
C587 H559 0.929 . S
C587 C584 1.391 . S
C587 C586 1.392 . S
N588 Co532 2.257 1_545 S
N588 C585 1.391 . S
N588 C589 1.388 . S
C589 H560 0.930 . S
C589 C584 1.391 . S
C589 N588 1.388 . S
Co590 O592 2.143 . S
Co590 O598 2.074 . S
Co590 O601 2.093 . S
Co590 O614 2.097 . S
Co590 N631 2.151 . S
Co590 N639 2.214 . S
Co591 O592 2.160 . S
Co591 O597 2.058 . S
Co591 O607 2.057 . S
Co591 O622 2.037 . S
Co591 N626 2.145 . S
Co591 N647 2.257 . S
O592 Co590 2.143 . S
O592 Co591 2.160 . S
C593 O594 1.278 . S
C593 O601 1.224 . S
O594 C593 1.278 . S
C595 O596 1.245 . S
C595 O607 1.232 . S
O596 C595 1.245 . S
O597 Co591 2.058 . S
O597 C623 1.269 . S
O598 Co590 2.074 . S
O598 C623 1.257 . S
H599 C624 0.930 . S
H600 C630 0.930 . S
O601 Co590 2.093 . S
O601 C593 1.224 . S
H602 C634 0.929 . S
H603 C636 0.930 . S
H604 C637 0.930 . S
H605 C635 0.929 . S
H606 C638 0.928 . S
O607 Co591 2.057 . S
O607 C595 1.232 . S
H608 C627 0.929 . S
H609 C628 0.929 . S
H610 C640 0.931 . S
H611 C632 0.929 . S
H612 C641 0.930 . S
H613 C633 0.931 . S
O614 Co590 2.097 . S
O614 C642 1.214 . S
H615 C643 0.929 . S
H616 C644 0.929 . S
H617 C645 0.930 . S
H618 C646 0.929 . S
H619 C648 0.930 . S
H620 C625 0.930 1_554 S
H621 C629 0.930 . S
O622 Co591 2.037 . S
O622 C642 1.234 . S
C623 O597 1.269 . S
C623 O598 1.257 . S
C624 H599 0.930 . S
C624 C627 1.388 . S
C624 C629 1.418 . S
C625 H620 0.930 1_556 S
C625 C628 1.404 . S
C625 C629 1.353 . S
N626 Co591 2.145 . S
N626 C627 1.397 . S
N626 C628 1.334 . S
C627 H608 0.929 . S
C627 C624 1.388 . S
C627 N626 1.397 . S
C628 H609 0.929 . S
C628 C625 1.404 . S
C628 N626 1.334 . S
C629 H621 0.930 . S
C629 C624 1.418 . S
C629 C625 1.353 . S
C630 H600 0.930 . S
C630 N631 1.330 . S
C630 C632 1.446 1_545 S
N631 Co590 2.151 . S
N631 C630 1.330 . S
N631 C635 1.418 . S
C632 H611 0.929 . S
C632 C630 1.446 1_565 S
C632 C633 1.332 . S
C633 H613 0.931 . S
C633 C632 1.332 . S
C633 C634 1.267 1_565 S
C634 H602 0.929 . S
C634 C633 1.267 1_545 S
C634 C635 1.251 . S
C635 H605 0.929 . S
C635 N631 1.418 . S
C635 C634 1.251 . S
C636 H603 0.930 . S
C636 C638 1.406 . S
C636 C641 1.261 . S
C637 H604 0.930 . S
C637 N639 1.325 . S
C637 C640 1.357 . S
C638 H606 0.928 . S
C638 C636 1.406 . S
C638 N639 1.261 . S
N639 Co590 2.214 . S
N639 C637 1.325 . S
N639 C638 1.261 . S
C640 H610 0.931 . S
C640 C637 1.357 . S
C640 C641 1.312 . S
C641 H612 0.930 . S
C641 C636 1.261 . S
C641 C640 1.312 . S
C642 O614 1.214 . S
C642 O622 1.234 . S
C643 H615 0.929 . S
C643 C646 1.391 . S
C643 C648 1.391 . S
C644 H616 0.929 . S
C644 C645 1.390 . S
C644 N647 1.391 . S
C645 H617 0.930 . S
C645 C644 1.390 . S
C645 C646 1.392 . S
C646 H618 0.929 . S
C646 C643 1.391 . S
C646 C645 1.392 . S
N647 Co591 2.257 . S
N647 C644 1.391 . S
N647 C648 1.388 . S
C648 H619 0.930 . S
C648 C643 1.391 . S
C648 N647 1.388 . S
Co649 O651 2.143 . S
Co649 O657 2.074 . S
Co649 O660 2.093 . S
Co649 O673 2.097 . S
Co649 N690 2.151 . S
Co649 N698 2.214 . S
Co650 O651 2.160 . S
Co650 O656 2.058 . S
Co650 O666 2.057 . S
Co650 O681 2.037 . S
Co650 N685 2.145 . S
Co650 N706 2.257 . S
O651 Co649 2.143 . S
O651 Co650 2.160 . S
C652 O653 1.278 . S
C652 O660 1.224 . S
O653 C652 1.278 . S
C654 O655 1.245 . S
C654 O666 1.232 . S
O655 C654 1.245 . S
O656 Co650 2.058 . S
O656 C682 1.269 . S
O657 Co649 2.074 . S
O657 C682 1.257 . S
H658 C683 0.930 . S
H659 C689 0.930 . S
O660 Co649 2.093 . S
O660 C652 1.224 . S
H661 C693 0.929 . S
H662 C695 0.930 . S
H663 C696 0.930 . S
H664 C694 0.929 . S
H665 C697 0.928 . S
O666 Co650 2.057 . S
O666 C654 1.232 . S
H667 C686 0.929 . S
H668 C687 0.929 . S
H669 C699 0.931 . S
H670 C691 0.929 . S
H671 C700 0.930 . S
H672 C692 0.931 . S
O673 Co649 2.097 . S
O673 C701 1.214 . S
H674 C702 0.929 . S
H675 C703 0.929 . S
H676 C704 0.930 . S
H677 C705 0.929 . S
H678 C707 0.930 . S
H679 C684 0.930 1_554 S
H680 C688 0.930 . S
O681 Co650 2.037 . S
O681 C701 1.234 . S
C682 O656 1.269 . S
C682 O657 1.257 . S
C683 H658 0.930 . S
C683 C686 1.388 . S
C683 C688 1.418 . S
C684 H679 0.930 1_556 S
C684 C687 1.404 . S
C684 C688 1.353 . S
N685 Co650 2.145 . S
N685 C686 1.397 . S
N685 C687 1.334 . S
C686 H667 0.929 . S
C686 C683 1.388 . S
C686 N685 1.397 . S
C687 H668 0.929 . S
C687 C684 1.404 . S
C687 N685 1.334 . S
C688 H680 0.930 . S
C688 C683 1.418 . S
C688 C684 1.353 . S
C689 H659 0.930 . S
C689 N690 1.330 . S
C689 C691 1.446 . S
N690 Co649 2.151 . S
N690 C689 1.330 . S
N690 C694 1.418 . S
C691 H670 0.929 . S
C691 C689 1.446 . S
C691 C692 1.332 . S
C692 H672 0.931 . S
C692 C691 1.332 . S
C692 C693 1.267 . S
C693 H661 0.929 . S
C693 C692 1.267 . S
C693 C694 1.251 . S
C694 H664 0.929 . S
C694 N690 1.418 . S
C694 C693 1.251 . S
C695 H662 0.930 . S
C695 C697 1.406 . S
C695 C700 1.261 . S
C696 H663 0.930 . S
C696 N698 1.325 . S
C696 C699 1.357 . S
C697 H665 0.928 . S
C697 C695 1.406 . S
C697 N698 1.261 . S
N698 Co649 2.214 . S
N698 C696 1.325 . S
N698 C697 1.261 . S
C699 H669 0.931 . S
C699 C696 1.357 . S
C699 C700 1.312 . S
C700 H671 0.930 . S
C700 C695 1.261 . S
C700 C699 1.312 . S
C701 O673 1.214 . S
C701 O681 1.234 . S
C702 H674 0.929 . S
C702 C705 1.391 . S
C702 C707 1.391 . S
C703 H675 0.929 . S
C703 C704 1.390 . S
C703 N706 1.391 . S
C704 H676 0.930 . S
C704 C703 1.390 . S
C704 C705 1.392 . S
C705 H677 0.929 . S
C705 C702 1.391 . S
C705 C704 1.392 . S
N706 Co650 2.257 . S
N706 C703 1.391 . S
N706 C707 1.388 . S
C707 H678 0.930 . S
C707 C702 1.391 . S
C707 N706 1.388 . S
Co708 O710 2.143 . S
Co708 O716 2.074 . S
Co708 O719 2.093 . S
Co708 O732 2.097 . S
Co708 N749 2.151 . S
Co708 N757 2.214 . S
Co709 O710 2.160 . S
Co709 O715 2.058 . S
Co709 O725 2.057 . S
Co709 O740 2.037 . S
Co709 N744 2.145 . S
Co709 N765 2.257 1_655 S
O710 Co708 2.143 . S
O710 Co709 2.160 . S
C711 O712 1.278 . S
C711 O719 1.224 1_455 S
O712 C711 1.278 . S
C713 O714 1.245 . S
C713 O725 1.232 . S
O714 C713 1.245 . S
O715 Co709 2.058 . S
O715 C741 1.269 . S
O716 Co708 2.074 . S
O716 C741 1.257 . S
H717 C742 0.930 . S
H718 C748 0.930 . S
O719 Co708 2.093 . S
O719 C711 1.224 1_655 S
H720 C752 0.929 . S
H721 C754 0.930 . S
H722 C755 0.930 . S
H723 C753 0.929 . S
H724 C756 0.928 . S
O725 Co709 2.057 . S
O725 C713 1.232 . S
H726 C745 0.929 . S
H727 C746 0.929 . S
H728 C758 0.931 . S
H729 C750 0.929 . S
H730 C759 0.930 . S
H731 C751 0.931 . S
O732 Co708 2.097 . S
O732 C760 1.214 . S
H733 C761 0.929 . S
H734 C762 0.929 . S
H735 C763 0.930 . S
H736 C764 0.929 . S
H737 C766 0.930 . S
H738 C743 0.925 1_455 S
H739 C747 0.930 . S
O740 Co709 2.037 . S
O740 C760 1.234 . S
C741 O715 1.269 . S
C741 O716 1.257 . S
C742 H717 0.930 . S
C742 C745 1.388 . S
C742 C747 1.418 . S
C743 H738 0.925 1_655 S
C743 C746 1.404 . S
C743 C747 1.353 . S
N744 Co709 2.145 . S
N744 C745 1.397 . S
N744 C746 1.334 . S
C745 H726 0.929 . S
C745 C742 1.388 . S
C745 N744 1.397 . S
C746 H727 0.929 . S
C746 C743 1.404 . S
C746 N744 1.334 . S
C747 H739 0.930 . S
C747 C742 1.418 . S
C747 C743 1.353 . S
C748 H718 0.930 . S
C748 N749 1.330 . S
C748 C750 1.446 1_545 S
N749 Co708 2.151 . S
N749 C748 1.330 . S
N749 C753 1.418 . S
C750 H729 0.929 . S
C750 C748 1.446 1_565 S
C750 C751 1.332 . S
C751 H731 0.931 . S
C751 C750 1.332 . S
C751 C752 1.267 1_565 S
C752 H720 0.929 . S
C752 C751 1.267 1_545 S
C752 C753 1.251 . S
C753 H723 0.929 . S
C753 N749 1.418 . S
C753 C752 1.251 . S
C754 H721 0.930 . S
C754 C756 1.406 . S
C754 C759 1.261 . S
C755 H722 0.930 . S
C755 N757 1.325 . S
C755 C758 1.357 . S
C756 H724 0.928 . S
C756 C754 1.406 . S
C756 N757 1.261 . S
N757 Co708 2.214 . S
N757 C755 1.325 . S
N757 C756 1.261 . S
C758 H728 0.931 . S
C758 C755 1.357 . S
C758 C759 1.312 . S
C759 H730 0.930 . S
C759 C754 1.261 . S
C759 C758 1.312 . S
C760 O732 1.214 . S
C760 O740 1.234 . S
C761 H733 0.929 . S
C761 C764 1.391 . S
C761 C766 1.391 . S
C762 H734 0.929 . S
C762 C763 1.390 . S
C762 N765 1.391 . S
C763 H735 0.930 . S
C763 C762 1.390 . S
C763 C764 1.392 . S
C764 H736 0.929 . S
C764 C761 1.391 . S
C764 C763 1.392 . S
N765 Co709 2.257 1_455 S
N765 C762 1.391 . S
N765 C766 1.388 . S
C766 H737 0.930 . S
C766 C761 1.391 . S
C766 N765 1.388 . S
Co767 O769 2.143 . S
Co767 O775 2.074 . S
Co767 O778 2.093 . S
Co767 O791 2.097 . S
Co767 N808 2.151 . S
Co767 N816 2.214 . S
Co768 O769 2.160 . S
Co768 O774 2.058 . S
Co768 O784 2.057 . S
Co768 O799 2.037 . S
Co768 N803 2.145 . S
Co768 N824 2.257 1_565 S
O769 Co767 2.143 . S
O769 Co768 2.160 . S
C770 O771 1.278 . S
C770 O778 1.224 1_545 S
O771 C770 1.278 . S
C772 O773 1.245 . S
C772 O784 1.232 . S
O773 C772 1.245 . S
O774 Co768 2.058 . S
O774 C800 1.269 . S
O775 Co767 2.074 . S
O775 C800 1.257 . S
H776 C801 0.930 . S
H777 C807 0.930 . S
O778 Co767 2.093 . S
O778 C770 1.224 1_565 S
H779 C811 0.929 . S
H780 C813 0.930 . S
H781 C814 0.930 . S
H782 C812 0.929 . S
H783 C815 0.928 . S
O784 Co768 2.057 . S
O784 C772 1.232 . S
H785 C804 0.929 . S
H786 C805 0.929 . S
H787 C817 0.931 . S
H788 C809 0.929 . S
H789 C818 0.930 . S
H790 C810 0.931 . S
O791 Co767 2.097 . S
O791 C819 1.214 . S
H792 C820 0.929 . S
H793 C821 0.929 . S
H794 C822 0.930 . S
H795 C823 0.929 . S
H796 C825 0.930 . S
H797 C802 0.925 1_545 S
H798 C806 0.930 . S
O799 Co768 2.037 . S
O799 C819 1.234 . S
C800 O774 1.269 . S
C800 O775 1.257 . S
C801 H776 0.930 . S
C801 C804 1.388 . S
C801 C806 1.418 . S
C802 H797 0.925 1_565 S
C802 C805 1.404 . S
C802 C806 1.353 . S
N803 Co768 2.145 . S
N803 C804 1.397 . S
N803 C805 1.334 . S
C804 H785 0.929 . S
C804 C801 1.388 . S
C804 N803 1.397 . S
C805 H786 0.929 . S
C805 C802 1.404 . S
C805 N803 1.334 . S
C806 H798 0.930 . S
C806 C801 1.418 . S
C806 C802 1.353 . S
C807 H777 0.930 . S
C807 N808 1.330 . S
C807 C809 1.446 . S
N808 Co767 2.151 . S
N808 C807 1.330 . S
N808 C812 1.418 . S
C809 H788 0.929 . S
C809 C807 1.446 . S
C809 C810 1.332 . S
C810 H790 0.931 . S
C810 C809 1.332 . S
C810 C811 1.267 . S
C811 H779 0.929 . S
C811 C810 1.267 . S
C811 C812 1.251 . S
C812 H782 0.929 . S
C812 N808 1.418 . S
C812 C811 1.251 . S
C813 H780 0.930 . S
C813 C815 1.406 . S
C813 C818 1.261 . S
C814 H781 0.930 . S
C814 N816 1.325 . S
C814 C817 1.357 . S
C815 H783 0.928 . S
C815 C813 1.406 . S
C815 N816 1.261 . S
N816 Co767 2.214 . S
N816 C814 1.325 . S
N816 C815 1.261 . S
C817 H787 0.931 . S
C817 C814 1.357 . S
C817 C818 1.312 . S
C818 H789 0.930 . S
C818 C813 1.261 . S
C818 C817 1.312 . S
C819 O791 1.214 . S
C819 O799 1.234 . S
C820 H792 0.929 . S
C820 C823 1.391 . S
C820 C825 1.391 . S
C821 H793 0.929 . S
C821 C822 1.390 . S
C821 N824 1.391 . S
C822 H794 0.930 . S
C822 C821 1.390 . S
C822 C823 1.392 . S
C823 H795 0.929 . S
C823 C820 1.391 . S
C823 C822 1.392 . S
N824 Co768 2.257 1_545 S
N824 C821 1.391 . S
N824 C825 1.388 . S
C825 H796 0.930 . S
C825 C820 1.391 . S
C825 N824 1.388 . S
Co826 O828 2.143 . S
Co826 O834 2.074 . S
Co826 O837 2.093 . S
Co826 O850 2.097 . S
Co826 N867 2.151 . S
Co826 N875 2.214 . S
Co827 O828 2.160 . S
Co827 O833 2.058 . S
Co827 O843 2.057 . S
Co827 O858 2.037 . S
Co827 N862 2.145 . S
Co827 N883 2.257 . S
O828 Co826 2.143 . S
O828 Co827 2.160 . S
C829 O830 1.278 . S
C829 O837 1.224 . S
O830 C829 1.278 . S
C831 O832 1.245 . S
C831 O843 1.232 . S
O832 C831 1.245 . S
O833 Co827 2.058 . S
O833 C859 1.269 . S
O834 Co826 2.074 . S
O834 C859 1.257 . S
H835 C860 0.930 . S
H836 C866 0.930 . S
O837 Co826 2.093 . S
O837 C829 1.224 . S
H838 C870 0.929 . S
H839 C872 0.930 . S
H840 C873 0.930 . S
H841 C871 0.929 . S
H842 C874 0.928 . S
O843 Co827 2.057 . S
O843 C831 1.232 . S
H844 C863 0.929 . S
H845 C864 0.929 . S
H846 C876 0.931 . S
H847 C868 0.929 . S
H848 C877 0.930 . S
H849 C869 0.931 . S
O850 Co826 2.097 . S
O850 C878 1.214 . S
H851 C879 0.929 . S
H852 C880 0.929 . S
H853 C881 0.930 . S
H854 C882 0.929 . S
H855 C884 0.930 . S
H856 C861 0.930 . S
H857 C865 0.930 . S
O858 Co827 2.037 . S
O858 C878 1.234 . S
C859 O833 1.269 . S
C859 O834 1.257 . S
C860 H835 0.930 . S
C860 C863 1.388 . S
C860 C865 1.418 . S
C861 H856 0.930 . S
C861 C864 1.404 . S
C861 C865 1.353 . S
N862 Co827 2.145 . S
N862 C863 1.397 . S
N862 C864 1.334 . S
C863 H844 0.929 . S
C863 C860 1.388 . S
C863 N862 1.397 . S
C864 H845 0.929 . S
C864 C861 1.404 . S
C864 N862 1.334 . S
C865 H857 0.930 . S
C865 C860 1.418 . S
C865 C861 1.353 . S
C866 H836 0.930 . S
C866 N867 1.330 . S
C866 C868 1.446 . S
N867 Co826 2.151 . S
N867 C866 1.330 . S
N867 C871 1.418 . S
C868 H847 0.929 . S
C868 C866 1.446 . S
C868 C869 1.332 . S
C869 H849 0.931 . S
C869 C868 1.332 . S
C869 C870 1.267 . S
C870 H838 0.929 . S
C870 C869 1.267 . S
C870 C871 1.251 . S
C871 H841 0.929 . S
C871 N867 1.418 . S
C871 C870 1.251 . S
C872 H839 0.930 . S
C872 C874 1.406 . S
C872 C877 1.261 . S
C873 H840 0.930 . S
C873 N875 1.325 . S
C873 C876 1.357 . S
C874 H842 0.928 . S
C874 C872 1.406 . S
C874 N875 1.261 . S
N875 Co826 2.214 . S
N875 C873 1.325 . S
N875 C874 1.261 . S
C876 H846 0.931 . S
C876 C873 1.357 . S
C876 C877 1.312 . S
C877 H848 0.930 . S
C877 C872 1.261 . S
C877 C876 1.312 . S
C878 O850 1.214 . S
C878 O858 1.234 . S
C879 H851 0.929 . S
C879 C882 1.391 . S
C879 C884 1.391 . S
C880 H852 0.929 . S
C880 C881 1.390 . S
C880 N883 1.391 . S
C881 H853 0.930 . S
C881 C880 1.390 . S
C881 C882 1.392 . S
C882 H854 0.929 . S
C882 C879 1.391 . S
C882 C881 1.392 . S
N883 Co827 2.257 . S
N883 C880 1.391 . S
N883 C884 1.388 . S
C884 H855 0.930 . S
C884 C879 1.391 . S
C884 N883 1.388 . S
Co885 O887 2.143 . S
Co885 O893 2.074 . S
Co885 O896 2.093 . S
Co885 O909 2.097 . S
Co885 N926 2.151 . S
Co885 N934 2.214 . S
Co886 O887 2.160 . S
Co886 O892 2.058 . S
Co886 O902 2.057 . S
Co886 O917 2.037 . S
Co886 N921 2.145 . S
Co886 N942 2.257 . S
O887 Co885 2.143 . S
O887 Co886 2.160 . S
C888 O889 1.278 . S
C888 O896 1.224 . S
O889 C888 1.278 . S
C890 O891 1.245 . S
C890 O902 1.232 . S
O891 C890 1.245 . S
O892 Co886 2.058 . S
O892 C918 1.269 . S
O893 Co885 2.074 . S
O893 C918 1.257 . S
H894 C919 0.930 . S
H895 C925 0.930 . S
O896 Co885 2.093 . S
O896 C888 1.224 . S
H897 C929 0.929 . S
H898 C931 0.930 . S
H899 C932 0.930 . S
H900 C930 0.929 . S
H901 C933 0.928 . S
O902 Co886 2.057 . S
O902 C890 1.232 . S
H903 C922 0.929 . S
H904 C923 0.929 . S
H905 C935 0.931 . S
H906 C927 0.929 . S
H907 C936 0.930 . S
H908 C928 0.931 . S
O909 Co885 2.097 . S
O909 C937 1.214 . S
H910 C938 0.929 . S
H911 C939 0.929 . S
H912 C940 0.930 . S
H913 C941 0.929 . S
H914 C943 0.930 . S
H915 C920 0.930 . S
H916 C924 0.930 . S
O917 Co886 2.037 . S
O917 C937 1.234 . S
C918 O892 1.269 . S
C918 O893 1.257 . S
C919 H894 0.930 . S
C919 C922 1.388 . S
C919 C924 1.418 . S
C920 H915 0.930 . S
C920 C923 1.404 . S
C920 C924 1.353 . S
N921 Co886 2.145 . S
N921 C922 1.397 . S
N921 C923 1.334 . S
C922 H903 0.929 . S
C922 C919 1.388 . S
C922 N921 1.397 . S
C923 H904 0.929 . S
C923 C920 1.404 . S
C923 N921 1.334 . S
C924 H916 0.930 . S
C924 C919 1.418 . S
C924 C920 1.353 . S
C925 H895 0.930 . S
C925 N926 1.330 . S
C925 C927 1.446 1_455 S
N926 Co885 2.151 . S
N926 C925 1.330 . S
N926 C930 1.418 . S
C927 H906 0.929 . S
C927 C925 1.446 1_655 S
C927 C928 1.332 . S
C928 H908 0.931 . S
C928 C927 1.332 . S
C928 C929 1.267 1_655 S
C929 H897 0.929 . S
C929 C928 1.267 1_455 S
C929 C930 1.251 . S
C930 H900 0.929 . S
C930 N926 1.418 . S
C930 C929 1.251 . S
C931 H898 0.930 . S
C931 C933 1.406 . S
C931 C936 1.261 . S
C932 H899 0.930 . S
C932 N934 1.325 . S
C932 C935 1.357 . S
C933 H901 0.928 . S
C933 C931 1.406 . S
C933 N934 1.261 . S
N934 Co885 2.214 . S
N934 C932 1.325 . S
N934 C933 1.261 . S
C935 H905 0.931 . S
C935 C932 1.357 . S
C935 C936 1.312 . S
C936 H907 0.930 . S
C936 C931 1.261 . S
C936 C935 1.312 . S
C937 O909 1.214 . S
C937 O917 1.234 . S
C938 H910 0.929 . S
C938 C941 1.391 . S
C938 C943 1.391 . S
C939 H911 0.929 . S
C939 C940 1.390 . S
C939 N942 1.391 . S
C940 H912 0.930 . S
C940 C939 1.390 . S
C940 C941 1.392 . S
C941 H913 0.929 . S
C941 C938 1.391 . S
C941 C940 1.392 . S
N942 Co886 2.257 . S
N942 C939 1.391 . S
N942 C943 1.388 . S
C943 H914 0.930 . S
C943 C938 1.391 . S
C943 N942 1.388 . S
C944 C945 1.387 . S
C944 H948 0.950 . S
C944 C953 1.390 . S
C945 C944 1.387 . S
C945 C947 1.387 . S
H946 C953 0.950 . S
C947 C945 1.387 . S
C947 C949 1.390 . S
C947 H951 0.950 . S
H948 C944 0.950 . S
C949 C947 1.390 . S
C949 C950 1.387 . S
C949 H952 0.950 . S
C950 C949 1.387 . S
C950 C953 1.387 . S
H951 C947 0.950 . S
H952 C949 0.950 . S
C953 C944 1.390 . S
C953 H946 0.950 . S
C953 C950 1.387 . S
C954 C955 1.387 . S
C954 H958 0.950 . S
C954 C963 1.390 . S
C955 C954 1.387 . S
C955 C957 1.387 . S
H956 C963 0.950 . S
C957 C955 1.387 . S
C957 C959 1.390 . S
C957 H961 0.950 . S
H958 C954 0.950 . S
C959 C957 1.390 . S
C959 C960 1.387 . S
C959 H962 0.950 . S
C960 C959 1.387 . S
C960 C963 1.387 . S
H961 C957 0.950 . S
H962 C959 0.950 . S
C963 C954 1.390 . S
C963 H956 0.950 . S
C963 C960 1.387 . S
C964 C965 1.387 . S
C964 H968 0.950 . S
C964 C973 1.390 . S
C965 C964 1.387 . S
C965 C967 1.387 . S
H966 C973 0.950 . S
C967 C965 1.387 . S
C967 C969 1.390 . S
C967 H971 0.950 . S
H968 C964 0.950 . S
C969 C967 1.390 . S
C969 C970 1.387 . S
C969 H972 0.950 . S
C970 C969 1.387 . S
C970 C973 1.387 . S
H971 C967 0.950 . S
H972 C969 0.950 . S
C973 C964 1.390 . S
C973 H966 0.950 . S
C973 C970 1.387 . S
C974 C975 1.387 . S
C974 H978 0.950 . S
C974 C983 1.390 . S
C975 C974 1.387 . S
C975 C977 1.387 . S
H976 C983 0.950 . S
C977 C975 1.387 . S
C977 C979 1.390 . S
C977 H981 0.950 . S
H978 C974 0.950 . S
C979 C977 1.390 . S
C979 C980 1.387 . S
C979 H982 0.950 . S
C980 C979 1.387 . S
C980 C983 1.387 . S
H981 C977 0.950 . S
H982 C979 0.950 . S
C983 C974 1.390 . S
C983 H976 0.950 . S
C983 C980 1.387 . S
C984 C985 1.387 . S
C984 H988 0.950 . S
C984 C993 1.390 . S
C985 C984 1.387 . S
C985 C987 1.387 . S
H986 C993 0.950 . S
C987 C985 1.387 . S
C987 C989 1.390 . S
C987 H991 0.950 . S
H988 C984 0.950 . S
C989 C987 1.390 . S
C989 C990 1.387 . S
C989 H992 0.950 . S
C990 C989 1.387 . S
C990 C993 1.387 . S
H991 C987 0.950 . S
H992 C989 0.950 . S
C993 C984 1.390 . S
C993 H986 0.950 . S
C993 C990 1.387 . S
C994 C995 1.387 . S
C994 H998 0.950 . S
C994 C1003 1.390 . S
C995 C994 1.387 . S
C995 C997 1.387 . S
H996 C1003 0.950 . S
C997 C995 1.387 . S
C997 C999 1.390 . S
C997 H1001 0.950 . S
H998 C994 0.950 . S
C999 C997 1.390 . S
C999 C1000 1.387 . S
C999 H1002 0.950 . S
C1000 C999 1.387 . S
C1000 C1003 1.387 . S
H1001 C997 0.950 . S
H1002 C999 0.950 . S
C1003 C994 1.390 . S
C1003 H996 0.950 . S
C1003 C1000 1.387 . S
C1004 C1005 1.387 . S
C1004 H1008 0.950 . S
C1004 C1013 1.390 . S
C1005 C1004 1.387 . S
C1005 C1007 1.387 . S
H1006 C1013 0.950 . S
C1007 C1005 1.387 . S
C1007 C1009 1.390 . S
C1007 H1011 0.950 . S
H1008 C1004 0.950 . S
C1009 C1007 1.390 . S
C1009 C1010 1.387 . S
C1009 H1012 0.950 . S
C1010 C1009 1.387 . S
C1010 C1013 1.387 . S
H1011 C1007 0.950 . S
H1012 C1009 0.950 . S
C1013 C1004 1.390 . S
C1013 H1006 0.950 . S
C1013 C1010 1.387 . S
C1014 C1015 1.387 . S
C1014 H1018 0.950 . S
C1014 C1023 1.390 . S
C1015 C1014 1.387 . S
C1015 C1017 1.387 . S
H1016 C1023 0.950 . S
C1017 C1015 1.387 . S
C1017 C1019 1.390 . S
C1017 H1021 0.950 . S
H1018 C1014 0.950 . S
C1019 C1017 1.390 . S
C1019 C1020 1.387 . S
C1019 H1022 0.950 . S
C1020 C1019 1.387 . S
C1020 C1023 1.387 . S
H1021 C1017 0.950 . S
H1022 C1019 0.950 . S
C1023 C1014 1.390 . S
C1023 H1016 0.950 . S
C1023 C1020 1.387 . S
C1024 C1025 1.387 . S
C1024 H1028 0.950 1_655 S
C1024 C1033 1.390 1_655 S
C1025 C1024 1.387 . S
C1025 C1027 1.387 . S
H1026 C1033 0.950 . S
C1027 C1025 1.387 . S
C1027 C1029 1.390 . S
C1027 H1031 0.950 . S
H1028 C1024 0.950 1_455 S
C1029 C1027 1.390 . S
C1029 C1030 1.387 . S
C1029 H1032 0.950 . S
C1030 C1029 1.387 . S
C1030 C1033 1.387 1_655 S
H1031 C1027 0.950 . S
H1032 C1029 0.950 . S
C1033 C1024 1.390 1_455 S
C1033 H1026 0.950 . S
C1033 C1030 1.387 1_455 S
C1034 C1035 1.387 . S
C1034 H1038 0.950 . S
C1034 C1043 1.390 . S
C1035 C1034 1.387 . S
C1035 C1037 1.387 1_565 S
H1036 C1043 0.950 . S
C1037 C1035 1.387 1_545 S
C1037 C1039 1.390 . S
C1037 H1041 0.950 . S
H1038 C1034 0.950 . S
C1039 C1037 1.390 . S
C1039 C1040 1.387 1_545 S
C1039 H1042 0.950 . S
C1040 C1039 1.387 1_565 S
C1040 C1043 1.387 . S
H1041 C1037 0.950 . S
H1042 C1039 0.950 . S
C1043 C1034 1.390 . S
C1043 H1036 0.950 . S
C1043 C1040 1.387 . S
C1044 C1045 1.387 . S
C1044 H1048 0.950 . S
C1044 C1053 1.390 . S
C1045 C1044 1.387 . S
C1045 C1047 1.387 . S
H1046 C1053 0.950 . S
C1047 C1045 1.387 . S
C1047 C1049 1.390 . S
C1047 H1051 0.945 1_565 S
H1048 C1044 0.950 . S
C1049 C1047 1.390 . S
C1049 C1050 1.387 . S
C1049 H1052 0.950 . S
C1050 C1049 1.387 . S
C1050 C1053 1.387 . S
H1051 C1047 0.945 1_545 S
H1052 C1049 0.950 . S
C1053 C1044 1.390 . S
C1053 H1046 0.950 . S
C1053 C1050 1.387 . S
C1054 C1055 1.387 . S
C1054 H1058 0.950 . S
C1054 C1063 1.390 . S
C1055 C1054 1.387 . S
C1055 C1057 1.387 . S
H1056 C1063 0.950 . S
C1057 C1055 1.387 . S
C1057 C1059 1.390 . S
C1057 H1061 0.950 . S
H1058 C1054 0.950 . S
C1059 C1057 1.390 . S
C1059 C1060 1.387 . S
C1059 H1062 0.950 . S
C1060 C1059 1.387 . S
C1060 C1063 1.387 . S
H1061 C1057 0.950 . S
H1062 C1059 0.950 . S
C1063 C1054 1.390 . S
C1063 H1056 0.950 . S
C1063 C1060 1.387 . S
C1064 C1065 1.387 . S
C1064 H1068 0.950 . S
C1064 C1073 1.390 . S
C1065 C1064 1.387 . S
C1065 C1067 1.387 1_455 S
H1066 C1073 0.950 . S
C1067 C1065 1.387 1_655 S
C1067 C1069 1.390 . S
C1067 H1071 0.950 . S
H1068 C1064 0.950 . S
C1069 C1067 1.390 . S
C1069 C1070 1.387 1_655 S
C1069 H1072 0.950 . S
C1070 C1069 1.387 1_455 S
C1070 C1073 1.387 . S
H1071 C1067 0.950 . S
H1072 C1069 0.950 . S
C1073 C1064 1.390 . S
C1073 H1066 0.950 . S
C1073 C1070 1.387 . S
C1074 C1075 1.387 . S
C1074 H1078 0.950 . S
C1074 C1083 1.390 . S
C1075 C1074 1.387 . S
C1075 C1077 1.387 1_545 S
H1076 C1083 0.950 . S
C1077 C1075 1.387 1_565 S
C1077 C1079 1.390 . S
C1077 H1081 0.950 . S
H1078 C1074 0.950 . S
C1079 C1077 1.390 . S
C1079 C1080 1.387 1_565 S
C1079 H1082 0.950 . S
C1080 C1079 1.387 1_545 S
C1080 C1083 1.387 . S
H1081 C1077 0.950 . S
H1082 C1079 0.950 . S
C1083 C1074 1.390 . S
C1083 H1076 0.950 . S
C1083 C1080 1.387 . S
C1084 C1085 1.387 1_565 S
C1084 H1088 0.950 . S
C1084 C1093 1.390 . S
C1085 C1084 1.387 1_545 S
C1085 C1087 1.387 . S
H1086 C1093 0.950 . S
C1087 C1085 1.387 . S
C1087 C1089 1.390 . S
C1087 H1091 0.950 . S
H1088 C1084 0.950 . S
C1089 C1087 1.390 . S
C1089 C1090 1.387 . S
C1089 H1092 0.950 . S
C1090 C1089 1.387 . S
C1090 C1093 1.387 1_545 S
H1091 C1087 0.950 . S
H1092 C1089 0.950 . S
C1093 C1084 1.390 . S
C1093 H1086 0.950 . S
C1093 C1090 1.387 1_565 S
C1094 C1095 1.387 . S
C1094 H1098 0.950 . S
C1094 C1103 1.390 . S
C1095 C1094 1.387 . S
C1095 C1097 1.387 . S
H1096 C1103 0.950 . S
C1097 C1095 1.387 . S
C1097 C1099 1.390 . S
C1097 H1101 0.950 . S
H1098 C1094 0.950 . S
C1099 C1097 1.390 . S
C1099 C1100 1.387 . S
C1099 H1102 0.950 . S
C1100 C1099 1.387 . S
C1100 C1103 1.387 . S
H1101 C1097 0.950 . S
H1102 C1099 0.950 . S
C1103 C1094 1.390 . S
C1103 H1096 0.950 . S
C1103 C1100 1.387 . S
C1104 C1105 1.387 1_655 S
C1104 H1108 0.950 . S
C1104 C1113 1.390 . S
C1105 C1104 1.387 1_455 S
C1105 C1107 1.387 . S
H1106 C1113 0.950 . S
C1107 C1105 1.387 . S
C1107 C1109 1.390 . S
C1107 H1111 0.950 . S
H1108 C1104 0.950 . S
C1109 C1107 1.390 . S
C1109 C1110 1.387 . S
C1109 H1112 0.950 . S
C1110 C1109 1.387 . S
C1110 C1113 1.387 1_455 S
H1111 C1107 0.950 . S
H1112 C1109 0.950 . S
C1113 C1104 1.390 . S
C1113 H1106 0.950 . S
C1113 C1110 1.387 1_655 S
C1114 C1115 1.387 . S
C1114 H1118 0.950 . S
C1114 C1123 1.390 . S
C1115 C1114 1.387 . S
C1115 C1117 1.387 1_545 S
H1116 C1123 0.950 . S
C1117 C1115 1.387 1_565 S
C1117 C1119 1.390 . S
C1117 H1121 0.950 . S
H1118 C1114 0.950 . S
C1119 C1117 1.390 . S
C1119 C1120 1.387 1_565 S
C1119 H1122 0.950 . S
C1120 C1119 1.387 1_545 S
C1120 C1123 1.387 . S
H1121 C1117 0.950 . S
H1122 C1119 0.950 . S
C1123 C1114 1.390 . S
C1123 H1116 0.950 . S
C1123 C1120 1.387 . S
C1124 C1125 1.387 . S
C1124 H1128 0.950 . S
C1124 C1133 1.390 . S
C1125 C1124 1.387 . S
C1125 C1127 1.387 . S
H1126 C1133 0.950 . S
C1127 C1125 1.387 . S
C1127 C1129 1.390 . S
C1127 H1131 0.950 . S
H1128 C1124 0.950 . S
C1129 C1127 1.390 . S
C1129 C1130 1.387 . S
C1129 H1132 0.950 . S
C1130 C1129 1.387 . S
C1130 C1133 1.387 . S
H1131 C1127 0.950 . S
H1132 C1129 0.950 . S
C1133 C1124 1.390 . S
C1133 H1126 0.950 . S
C1133 C1130 1.387 . S
C1134 C1135 1.387 . S
C1134 H1138 0.950 . S
C1134 C1143 1.390 . S
C1135 C1134 1.387 . S
C1135 C1137 1.387 . S
H1136 C1143 0.950 . S
C1137 C1135 1.387 . S
C1137 C1139 1.390 . S
C1137 H1141 0.950 . S
H1138 C1134 0.950 . S
C1139 C1137 1.390 . S
C1139 C1140 1.387 . S
C1139 H1142 0.950 . S
C1140 C1139 1.387 . S
C1140 C1143 1.387 . S
H1141 C1137 0.950 . S
H1142 C1139 0.950 . S
C1143 C1134 1.390 . S
C1143 H1136 0.950 . S
C1143 C1140 1.387 . S
C1144 C1145 1.387 . S
C1144 H1148 0.950 . S
C1144 C1153 1.390 . S
C1145 C1144 1.387 . S
C1145 C1147 1.387 1_655 S
H1146 C1153 0.950 . S
C1147 C1145 1.387 1_455 S
C1147 C1149 1.390 . S
C1147 H1151 0.950 . S
H1148 C1144 0.950 . S
C1149 C1147 1.390 . S
C1149 C1150 1.387 1_455 S
C1149 H1152 0.950 . S
C1150 C1149 1.387 1_655 S
C1150 C1153 1.387 . S
H1151 C1147 0.950 . S
H1152 C1149 0.950 . S
C1153 C1144 1.390 . S
C1153 H1146 0.950 . S
C1153 C1150 1.387 . S
C1154 C1155 1.387 . S
C1154 H1158 0.950 . S
C1154 C1163 1.390 . S
C1155 C1154 1.387 . S
C1155 C1157 1.387 1_565 S
H1156 C1163 0.950 . S
C1157 C1155 1.387 1_545 S
C1157 C1159 1.390 . S
C1157 H1161 0.950 . S
H1158 C1154 0.950 . S
C1159 C1157 1.390 . S
C1159 C1160 1.387 1_545 S
C1159 H1162 0.950 . S
C1160 C1159 1.387 1_565 S
C1160 C1163 1.387 . S
H1161 C1157 0.950 . S
H1162 C1159 0.950 . S
C1163 C1154 1.390 . S
C1163 H1156 0.950 . S
C1163 C1160 1.387 . S
C1164 C1165 1.387 . S
C1164 H1168 0.950 . S
C1164 C1173 1.390 . S
C1165 C1164 1.387 . S
C1165 C1167 1.387 . S
H1166 C1173 0.950 . S
C1167 C1165 1.387 . S
C1167 C1169 1.390 . S
C1167 H1171 0.950 . S
H1168 C1164 0.950 . S
C1169 C1167 1.390 . S
C1169 C1170 1.387 . S
C1169 H1172 0.950 . S
C1170 C1169 1.387 . S
C1170 C1173 1.387 . S
H1171 C1167 0.950 . S
H1172 C1169 0.950 . S
C1173 C1164 1.390 . S
C1173 H1166 0.950 . S
C1173 C1170 1.387 . S
C1174 C1175 1.387 . S
C1174 H1178 0.950 . S
C1174 C1183 1.390 . S
C1175 C1174 1.387 . S
C1175 C1177 1.387 . S
H1176 C1183 0.950 . S
C1177 C1175 1.387 . S
C1177 C1179 1.390 . S
C1177 H1181 0.950 . S
H1178 C1174 0.950 . S
C1179 C1177 1.390 . S
C1179 C1180 1.387 . S
C1179 H1182 0.950 . S
C1180 C1179 1.387 . S
C1180 C1183 1.387 . S
H1181 C1177 0.950 . S
H1182 C1179 0.950 . S
C1183 C1174 1.390 . S
C1183 H1176 0.950 . S
C1183 C1180 1.387 . S
C1184 C1185 1.387 . S
C1184 H1188 0.950 . S
C1184 C1193 1.390 . S
C1185 C1184 1.387 . S
C1185 C1187 1.387 1_454 S
H1186 C1193 0.950 . S
C1187 C1185 1.387 1_656 S
C1187 C1189 1.390 . S
C1187 H1191 0.950 . S
H1188 C1184 0.950 . S
C1189 C1187 1.390 . S
C1189 C1190 1.387 . S
C1189 H1192 0.950 . S
C1190 C1189 1.387 . S
C1190 C1193 1.387 1_656 S
H1191 C1187 0.950 . S
H1192 C1189 0.950 . S
C1193 C1184 1.390 . S
C1193 H1186 0.950 . S
C1193 C1190 1.387 1_454 S
C1194 C1195 1.387 1_554 S
C1194 H1198 0.950 . S
C1194 C1203 1.390 1_455 S
C1195 C1194 1.387 1_556 S
C1195 C1197 1.387 1_565 S
H1196 C1203 0.950 . S
C1197 C1195 1.387 1_545 S
C1197 C1199 1.390 1_455 S
C1197 H1201 0.950 . S
H1198 C1194 0.950 . S
C1199 C1197 1.390 1_655 S
C1199 C1200 1.387 1_556 S
C1199 H1202 0.950 . S
C1200 C1199 1.387 1_554 S
C1200 C1203 1.387 1_545 S
H1201 C1197 0.950 . S
H1202 C1199 0.950 . S
C1203 C1194 1.390 1_655 S
C1203 H1196 0.950 . S
C1203 C1200 1.387 1_565 S
C1204 C1205 1.387 . S
C1204 H1208 0.950 . S
C1204 C1213 1.390 1_565 S
C1205 C1204 1.387 . S
C1205 C1207 1.387 1_554 S
H1206 C1213 0.950 . S
C1207 C1205 1.387 1_556 S
C1207 C1209 1.390 1_565 S
C1207 H1211 0.950 . S
H1208 C1204 0.950 . S
C1209 C1207 1.390 1_545 S
C1209 C1210 1.387 . S
C1209 H1212 0.950 . S
C1210 C1209 1.387 . S
C1210 C1213 1.387 1_556 S
H1211 C1207 0.950 . S
H1212 C1209 0.950 . S
C1213 C1204 1.390 1_545 S
C1213 H1206 0.950 . S
C1213 C1210 1.387 1_554 S
C1214 C1215 1.387 . S
C1214 H1218 0.950 . S
C1214 C1223 1.390 . S
C1215 C1214 1.387 . S
C1215 C1217 1.387 1_556 S
H1216 C1223 0.950 . S
C1217 C1215 1.387 1_554 S
C1217 C1219 1.390 . S
C1217 H1221 0.950 . S
H1218 C1214 0.950 . S
C1219 C1217 1.390 . S
C1219 C1220 1.387 . S
C1219 H1222 0.950 . S
C1220 C1219 1.387 . S
C1220 C1223 1.387 1_554 S
H1221 C1217 0.950 . S
H1222 C1219 0.950 . S
C1223 C1214 1.390 . S
C1223 H1216 0.950 . S
C1223 C1220 1.387 1_556 S
C1224 C1225 1.387 . S
C1224 H1228 0.950 . S
C1224 C1233 1.390 1_565 S
C1225 C1224 1.387 . S
C1225 C1227 1.387 1_455 S
H1226 C1233 0.950 . S
C1227 C1225 1.387 1_655 S
C1227 C1229 1.390 1_565 S
C1227 H1231 0.950 . S
H1228 C1224 0.950 . S
C1229 C1227 1.390 1_545 S
C1229 C1230 1.387 . S
C1229 H1232 0.950 . S
C1230 C1229 1.387 . S
C1230 C1233 1.387 1_655 S
H1231 C1227 0.950 . S
H1232 C1229 0.950 . S
C1233 C1224 1.390 1_545 S
C1233 H1226 0.950 . S
C1233 C1230 1.387 1_455 S
C1234 C1235 1.387 1_565 S
C1234 H1238 0.950 . S
C1234 C1243 1.390 . S
C1235 C1234 1.387 1_545 S
C1235 C1237 1.387 . S
H1236 C1243 0.950 . S
C1237 C1235 1.387 . S
C1237 C1239 1.390 . S
C1237 H1241 0.950 . S
H1238 C1234 0.950 . S
C1239 C1237 1.390 . S
C1239 C1240 1.387 1_545 S
C1239 H1242 0.950 . S
C1240 C1239 1.387 1_565 S
C1240 C1243 1.387 . S
H1241 C1237 0.950 . S
H1242 C1239 0.950 . S
C1243 C1234 1.390 . S
C1243 H1236 0.950 . S
C1243 C1240 1.387 . S
C1244 C1245 1.387 . S
C1244 H1248 0.950 . S
C1244 C1253 1.390 . S
C1245 C1244 1.387 . S
C1245 C1247 1.387 . S
H1246 C1253 0.950 . S
C1247 C1245 1.387 . S
C1247 C1249 1.390 . S
C1247 H1251 0.950 . S
H1248 C1244 0.950 . S
C1249 C1247 1.390 . S
C1249 C1250 1.387 . S
C1249 H1252 0.950 . S
C1250 C1249 1.387 . S
C1250 C1253 1.387 . S
H1251 C1247 0.950 . S
H1252 C1249 0.950 . S
C1253 C1244 1.390 . S
C1253 H1246 0.950 . S
C1253 C1250 1.387 . S
C1254 C1255 1.387 . S
C1254 H1258 0.950 . S
C1254 C1263 1.390 1_655 S
C1255 C1254 1.387 . S
C1255 C1257 1.387 . S
H1256 C1263 0.950 . S
C1257 C1255 1.387 . S
C1257 C1259 1.390 1_655 S
C1257 H1261 0.950 . S
H1258 C1254 0.950 . S
C1259 C1257 1.390 1_455 S
C1259 C1260 1.387 . S
C1259 H1262 0.950 . S
C1260 C1259 1.387 . S
C1260 C1263 1.387 . S
H1261 C1257 0.950 . S
H1262 C1259 0.950 . S
C1263 C1254 1.390 1_455 S
C1263 H1256 0.950 . S
C1263 C1260 1.387 . S
C945 C33 1.653 . S
C950 C151 1.653 . S
C955 C92 1.655 . S
C960 C210 1.655 . S
C965 C269 1.655 . S
C970 C387 1.655 . S
C975 C446 1.655 . S
C980 C328 1.655 . S
C985 C505 1.655 . S
C990 C623 1.655 . S
C995 C682 1.655 . S
C1000 C564 1.655 . S
C1005 C859 1.653 . S
C1010 C741 1.653 . S
C1015 C918 1.655 . S
C1020 C800 1.655 . S
C1025 C416 1.030 . S
C1030 C3 1.032 . S
C1035 C62 1.028 . S
C1040 C239 1.029 . S
C1045 C298 1.029 . S
C1050 C121 1.028 . S
C1055 C180 1.028 . S
C1060 C357 1.028 . S
C1065 C888 1.033 . S
C1070 C475 1.034 . S
C1075 C534 1.034 . S
C1080 C711 1.032 . S
C1085 C593 1.029 . S
C1090 C770 1.028 . S
C1095 C829 1.028 . S
C1100 C652 1.028 . S
C1105 C52 1.400 . S
C1110 C288 1.400 . S
C1115 C111 1.394 . S
C1120 C347 1.394 . S
C1125 C406 1.400 . S
C1130 C170 1.400 . S
C1135 C229 1.394 . S
C1140 C465 1.394 . S
C1145 C760 1.400 . S
C1150 C524 1.400 . S
C1155 C819 1.400 . S
C1160 C583 1.400 . S
C1165 C642 1.400 . S
C1170 C878 1.400 . S
C1175 C701 1.400 . S
C1180 C937 1.400 . S
C1185 C5 1.937 . S
C1190 C477 1.937 . S
C1195 C536 1.935 . S
C1200 C64 1.935 . S
C1205 C123 1.937 . S
C1210 C595 1.937 . S
C1215 C654 1.938 . S
C1220 C182 1.938 . S
C1225 C241 1.938 . S
C1230 C713 1.938 . S
C1235 C300 1.935 . S
C1240 C772 1.935 . S
C1245 C831 1.937 . S
C1250 C359 1.937 . S
C1255 C418 1.937 . S
C1260 C890 1.937 . S
