# Generated by pormake.
# Topology wgc, (5)-cn, num edge types: 1
# Building blocks:
#     Node 0, Type 0, BuildingBlock: BEQFEK_clean_sbu_0, # of connection points: 5
#     Node 1, Type 0, BuildingBlock: BEQFEK_clean_sbu_0, # of connection points: 5
#     Node 2, Type 0, BuildingBlock: BEQFEK_clean_sbu_0, # of connection points: 5
#     Node 3, Type 0, BuildingBlock: BEQFEK_clean_sbu_0, # of connection points: 5
#     Node 4, Type 0, BuildingBlock: BEQFEK_clean_sbu_0, # of connection points: 5
#     Node 5, Type 0, BuildingBlock: BEQFEK_clean_sbu_0, # of connection points: 5
#     Node 6, Type 0, BuildingBlock: BEQFEK_clean_sbu_0, # of connection points: 5
#     Node 7, Type 0, BuildingBlock: BEQFEK_clean_sbu_0, # of connection points: 5
#     Node 8, Type 0, BuildingBlock: BEQFEK_clean_sbu_0, # of connection points: 5
#     Node 9, Type 0, BuildingBlock: BEQFEK_clean_sbu_0, # of connection points: 5
#     Node 10, Type 0, BuildingBlock: BEQFEK_clean_sbu_0, # of connection points: 5
#     Node 11, Type 0, BuildingBlock: BEQFEK_clean_sbu_0, # of connection points: 5
#     Node 12, Type 0, BuildingBlock: BEQFEK_clean_sbu_0, # of connection points: 5
#     Node 13, Type 0, BuildingBlock: BEQFEK_clean_sbu_0, # of connection points: 5
#     Node 14, Type 0, BuildingBlock: BEQFEK_clean_sbu_0, # of connection points: 5
#     Node 15, Type 0, BuildingBlock: BEQFEK_clean_sbu_0, # of connection points: 5
#     Edge 16, Type (0, 0), BuildingBlock: EZIPEK_clean_linker_0, # of connection points: 2
#     Edge 17, Type (0, 0), BuildingBlock: EZIPEK_clean_linker_0, # of connection points: 2
#     Edge 18, Type (0, 0), BuildingBlock: EZIPEK_clean_linker_0, # of connection points: 2
#     Edge 19, Type (0, 0), BuildingBlock: EZIPEK_clean_linker_0, # of connection points: 2
#     Edge 20, Type (0, 0), BuildingBlock: EZIPEK_clean_linker_0, # of connection points: 2
#     Edge 21, Type (0, 0), BuildingBlock: EZIPEK_clean_linker_0, # of connection points: 2
#     Edge 22, Type (0, 0), BuildingBlock: EZIPEK_clean_linker_0, # of connection points: 2
#     Edge 23, Type (0, 0), BuildingBlock: EZIPEK_clean_linker_0, # of connection points: 2
#     Edge 24, Type (0, 0), BuildingBlock: EZIPEK_clean_linker_0, # of connection points: 2
#     Edge 25, Type (0, 0), BuildingBlock: EZIPEK_clean_linker_0, # of connection points: 2
#     Edge 26, Type (0, 0), BuildingBlock: EZIPEK_clean_linker_0, # of connection points: 2
#     Edge 27, Type (0, 0), BuildingBlock: EZIPEK_clean_linker_0, # of connection points: 2
#     Edge 28, Type (0, 0), BuildingBlock: EZIPEK_clean_linker_0, # of connection points: 2
#     Edge 29, Type (0, 0), BuildingBlock: EZIPEK_clean_linker_0, # of connection points: 2
#     Edge 30, Type (0, 0), BuildingBlock: EZIPEK_clean_linker_0, # of connection points: 2
#     Edge 31, Type (0, 0), BuildingBlock: EZIPEK_clean_linker_0, # of connection points: 2
#     Edge 32, Type (0, 0), BuildingBlock: EZIPEK_clean_linker_0, # of connection points: 2
#     Edge 33, Type (0, 0), BuildingBlock: EZIPEK_clean_linker_0, # of connection points: 2
#     Edge 34, Type (0, 0), BuildingBlock: EZIPEK_clean_linker_0, # of connection points: 2
#     Edge 35, Type (0, 0), BuildingBlock: EZIPEK_clean_linker_0, # of connection points: 2
#     Edge 36, Type (0, 0), BuildingBlock: EZIPEK_clean_linker_0, # of connection points: 2
#     Edge 37, Type (0, 0), BuildingBlock: EZIPEK_clean_linker_0, # of connection points: 2
#     Edge 38, Type (0, 0), BuildingBlock: EZIPEK_clean_linker_0, # of connection points: 2
#     Edge 39, Type (0, 0), BuildingBlock: EZIPEK_clean_linker_0, # of connection points: 2
#     Edge 40, Type (0, 0), BuildingBlock: EZIPEK_clean_linker_0, # of connection points: 2
#     Edge 41, Type (0, 0), BuildingBlock: EZIPEK_clean_linker_0, # of connection points: 2
#     Edge 42, Type (0, 0), BuildingBlock: EZIPEK_clean_linker_0, # of connection points: 2
#     Edge 43, Type (0, 0), BuildingBlock: EZIPEK_clean_linker_0, # of connection points: 2
#     Edge 44, Type (0, 0), BuildingBlock: EZIPEK_clean_linker_0, # of connection points: 2
#     Edge 45, Type (0, 0), BuildingBlock: EZIPEK_clean_linker_0, # of connection points: 2
#     Edge 46, Type (0, 0), BuildingBlock: EZIPEK_clean_linker_0, # of connection points: 2
#     Edge 47, Type (0, 0), BuildingBlock: EZIPEK_clean_linker_0, # of connection points: 2
#     Edge 48, Type (0, 0), BuildingBlock: EZIPEK_clean_linker_0, # of connection points: 2
#     Edge 49, Type (0, 0), BuildingBlock: EZIPEK_clean_linker_0, # of connection points: 2
#     Edge 50, Type (0, 0), BuildingBlock: EZIPEK_clean_linker_0, # of connection points: 2
#     Edge 51, Type (0, 0), BuildingBlock: EZIPEK_clean_linker_0, # of connection points: 2
#     Edge 52, Type (0, 0), BuildingBlock: EZIPEK_clean_linker_0, # of connection points: 2
#     Edge 53, Type (0, 0), BuildingBlock: EZIPEK_clean_linker_0, # of connection points: 2
#     Edge 54, Type (0, 0), BuildingBlock: EZIPEK_clean_linker_0, # of connection points: 2
#     Edge 55, Type (0, 0), BuildingBlock: EZIPEK_clean_linker_0, # of connection points: 2
# Relax obj value: 0.146
# Max RMSD: 0.140
# Mean RMSD: 0.140
data_MOF--net-wgc--node1-BEQFEK_clean_sbu_0--edge1-EZIPEK_clean_linker_0
_symmetry_space_group_name_H-M    P1
_symmetry_Int_Tables_number       1
_symmetry_cell_setting            triclinic
loop_
_symmetry_equiv_pos_as_xyz
'x, y, z'
_cell_length_a     31.525279
_cell_length_b     31.494877
_cell_length_c     40.613159
_cell_angle_alpha  89.920455
_cell_angle_beta   90.088244
_cell_angle_gamma 90.026902
loop_
_atom_site_label
_atom_site_type_symbol
_atom_site_fract_x
_atom_site_fract_y
_atom_site_fract_z
_atom_type_partial_charge
Co0 Co 0.20553 0.12138 0.01152 0.0
Co1 Co 0.29803 0.08334 0.01179 0.0
C2 C 0.26197 0.11595 0.95082 0.0
O3 O 0.22789 0.12319 0.96643 0.0
O4 O 0.29531 0.10232 0.9652 0.0
C5 C 0.13947 0.17494 0.98612 0.0
O6 O 0.16555 0.1813 0.96145 0.0
C7 C 0.38662 0.05197 0.00541 0.0
C8 C 0.39547 0.02284 0.05452 0.0
C9 C 0.41536 0.02952 0.02464 0.0
N10 N 0.35137 0.05859 0.02333 0.0
N11 N 0.35695 0.04099 0.05259 0.0
C12 C 0.39163 0.0651 0.97026 0.0
H13 H 0.38619 0.09981 0.9681 0.0
H14 H 0.42362 0.05706 0.96076 0.0
H15 H 0.36714 0.04895 0.95511 0.0
C16 C 0.24232 0.17319 0.0653 0.0
N17 N 0.24524 0.14285 0.04211 0.0
N18 N 0.28444 0.12836 0.04143 0.0
C19 C 0.30785 0.15004 0.06366 0.0
C20 C 0.28174 0.17885 0.07952 0.0
C21 C 0.20281 0.19699 0.07362 0.0
H22 H 0.1743 0.17814 0.06725 0.0
H23 H 0.20261 0.22721 0.05958 0.0
H24 H 0.20222 0.20501 0.10023 0.0
O25 O 0.19223 0.06179 0.0202 0.0
O26 O 0.25725 0.03546 0.01484 0.0
H27 H 0.35971 0.11791 0.0864 0.0
H28 H 0.36867 0.17362 0.07971 0.0
C29 C 0.35445 0.14451 0.06896 0.0
H30 H 0.37034 0.1369 0.04534 0.0
H31 H 0.33403 0.04076 0.07111 0.0
O32 O 0.15107 0.15279 0.01078 0.0
C33 C 0.21752 0.0305 0.01856 0.0
Co34 Co 0.10589 0.79088 0.98328 0.0
Co35 Co 0.0897 0.69275 0.98983 0.0
C36 C 0.1085 0.74416 0.04847 0.0
O37 O 0.11041 0.77697 0.03034 0.0
O38 O 0.10142 0.70733 0.0366 0.0
C39 C 0.16039 0.85919 0.99538 0.0
O40 O 0.18343 0.82832 0.0078 0.0
C41 C 0.06167 0.60573 0.00494 0.0
C42 C 0.05687 0.57905 0.95475 0.0
C43 C 0.0482 0.57042 0.98741 0.0
N44 N 0.07797 0.63393 0.98347 0.0
N45 N 0.07498 0.61766 0.95356 0.0
C46 C 0.05404 0.61491 0.04054 0.0
H47 H 0.03283 0.6429 0.0427 0.0
H48 H 0.08457 0.62314 0.05257 0.0
H49 H 0.03949 0.58731 0.05327 0.0
C50 C 0.16913 0.75995 0.93509 0.0
N51 N 0.13874 0.75291 0.95765 0.0
N52 N 0.13479 0.71167 0.96231 0.0
C53 C 0.16414 0.69146 0.94389 0.0
C54 C 0.18625 0.72144 0.92586 0.0
C55 C 0.18033 0.80256 0.92157 0.0
H56 H 0.1509 0.82128 0.91801 0.0
H57 H 0.20115 0.81924 0.93938 0.0
H58 H 0.19744 0.79986 0.89779 0.0
O59 O 0.0458 0.78875 0.97144 0.0
O60 O 0.03535 0.71943 0.97661 0.0
H61 H 0.15724 0.62987 0.92263 0.0
H62 H 0.20718 0.63872 0.94239 0.0
C63 C 0.17257 0.64476 0.94433 0.0
H64 H 0.16028 0.63012 0.96725 0.0
H65 H 0.08238 0.63418 0.93204 0.0
O66 O 0.12583 0.85031 0.98078 0.0
C67 C 0.02152 0.75656 0.9707 0.0
Co68 Co 0.78828 0.86392 0.99335 0.0
Co69 Co 0.69929 0.90778 0.00189 0.0
C70 C 0.72838 0.88026 0.93652 0.0
O71 O 0.76275 0.8679 0.94958 0.0
O72 O 0.69828 0.89587 0.95357 0.0
C73 C 0.84839 0.8083 0.96227 0.0
O74 O 0.82119 0.80691 0.93779 0.0
C75 C 0.6105 0.93929 0.00063 0.0
C76 C 0.6072 0.97078 0.04919 0.0
C77 C 0.58405 0.9628 0.02092 0.0
N78 N 0.64763 0.93338 0.01638 0.0
N79 N 0.64535 0.95234 0.04535 0.0
C80 C 0.60154 0.92456 0.96635 0.0
H81 H 0.62178 0.94263 0.94893 0.0
H82 H 0.61002 0.89049 0.9641 0.0
H83 H 0.56772 0.92929 0.95967 0.0
C84 C 0.75532 0.81078 0.04744 0.0
N85 N 0.75034 0.84153 0.02473 0.0
N86 N 0.71236 0.85849 0.02785 0.0
C87 C 0.69171 0.83814 0.05241 0.0
C88 C 0.71845 0.80748 0.06561 0.0
C89 C 0.79543 0.78647 0.05301 0.0
H90 H 0.82339 0.80619 0.04677 0.0
H91 H 0.79509 0.75798 0.03704 0.0
H92 H 0.79793 0.77565 0.07897 0.0
O93 O 0.80603 0.92144 0.00567 0.0
O94 O 0.74285 0.95261 0.00872 0.0
H95 H 0.64957 0.87619 0.08083 0.0
H96 H 0.63383 0.82144 0.07747 0.0
C97 C 0.64796 0.84861 0.06393 0.0
H98 H 0.62754 0.8571 0.04265 0.0
H99 H 0.67025 0.95334 0.0623 0.0
O100 O 0.83977 0.82885 0.98836 0.0
C101 C 0.78317 0.95423 0.00984 0.0
Co102 Co 0.87578 0.20422 0.9972 0.0
Co103 Co 0.90294 0.30003 0.99763 0.0
C104 C 0.87621 0.25867 0.05888 0.0
O105 O 0.87269 0.22376 0.04337 0.0
O106 O 0.8849 0.29335 0.04408 0.0
C107 C 0.85687 0.12151 0.01847 0.0
O108 O 0.88196 0.13256 0.04284 0.0
C109 C 0.9323 0.38877 0.0072 0.0
C110 C 0.95454 0.40322 0.9568 0.0
C111 C 0.9529 0.41923 0.98842 0.0
N112 N 0.92221 0.35599 0.98743 0.0
N113 N 0.93549 0.36504 0.95736 0.0
C114 C 0.92606 0.38911 0.04366 0.0
H115 H 0.89356 0.37803 0.04964 0.0
H116 H 0.93125 0.42135 0.05393 0.0
H117 H 0.94892 0.36681 0.05517 0.0
C118 C 0.81869 0.23599 0.94499 0.0
N119 N 0.84876 0.24238 0.96799 0.0
N120 N 0.85894 0.28293 0.96856 0.0
C121 C 0.83481 0.30375 0.94631 0.0
C122 C 0.80898 0.27459 0.93051 0.0
C123 C 0.80021 0.19355 0.93682 0.0
H124 H 0.82621 0.17063 0.93206 0.0
H125 H 0.78196 0.18171 0.9583 0.0
H126 H 0.77896 0.19526 0.91504 0.0
O127 O 0.93591 0.19741 0.98653 0.0
O128 O 0.95469 0.26507 0.99139 0.0
H129 H 0.85909 0.35793 0.921 0.0
H130 H 0.80409 0.36187 0.93181 0.0
C131 C 0.83556 0.35062 0.94047 0.0
H132 H 0.84444 0.36766 0.96333 0.0
H133 H 0.93341 0.34415 0.9375 0.0
O134 O 0.84921 0.14766 0.99537 0.0
C135 C 0.96405 0.22625 0.98679 0.0
Co136 Co 0.20872 0.38193 0.2367 0.0
Co137 Co 0.30512 0.40687 0.24151 0.0
C138 C 0.25753 0.38356 0.30118 0.0
O139 O 0.22431 0.37908 0.28372 0.0
O140 O 0.29331 0.39299 0.28843 0.0
C141 C 0.14155 0.32502 0.25069 0.0
O142 O 0.17185 0.30453 0.26621 0.0
C143 C 0.39196 0.43816 0.25489 0.0
C144 C 0.4143 0.44903 0.20398 0.0
C145 C 0.42534 0.45452 0.23662 0.0
N146 N 0.36247 0.42337 0.23381 0.0
N147 N 0.37615 0.42999 0.20348 0.0
C148 C 0.38605 0.44082 0.29132 0.0
H149 H 0.35905 0.4623 0.29672 0.0
H150 H 0.37791 0.40895 0.30113 0.0
H151 H 0.41506 0.4529 0.3037 0.0
C152 C 0.24425 0.3206 0.1884 0.0
N153 N 0.24882 0.35222 0.21038 0.0
N154 N 0.28955 0.36054 0.21395 0.0
C155 C 0.31203 0.33317 0.19525 0.0
C156 C 0.28395 0.3075 0.17823 0.0
C157 C 0.20265 0.30399 0.17663 0.0
H158 H 0.18813 0.28466 0.19648 0.0
H159 H 0.20628 0.2839 0.15438 0.0
H160 H 0.18156 0.3312 0.17096 0.0
O161 O 0.2053 0.44221 0.225 0.0
O162 O 0.27328 0.45919 0.22979 0.0
H163 H 0.37164 0.34858 0.17341 0.0
H164 H 0.36918 0.29644 0.19091 0.0
C165 C 0.35933 0.32995 0.19453 0.0
H166 H 0.37326 0.34219 0.21773 0.0
H167 H 0.35832 0.42372 0.18237 0.0
O168 O 0.15053 0.3582 0.23428 0.0
C169 C 0.23492 0.46954 0.22433 0.0
Co170 Co 0.37823 0.79511 0.75732 0.0
Co171 Co 0.40646 0.69922 0.75783 0.0
C172 C 0.37668 0.73742 0.69707 0.0
O173 O 0.37352 0.77234 0.71242 0.0
O174 O 0.38676 0.70303 0.71167 0.0
C175 C 0.34664 0.87182 0.72966 0.0
O176 O 0.35983 0.85468 0.70207 0.0
C177 C 0.4373 0.6113 0.74945 0.0
C178 C 0.4597 0.59748 0.79996 0.0
C179 C 0.45808 0.58117 0.76842 0.0
N180 N 0.42689 0.64409 0.76904 0.0
N181 N 0.44031 0.63549 0.79918 0.0
C182 C 0.431 0.6107 0.71298 0.0
H183 H 0.39718 0.61709 0.70723 0.0
H184 H 0.44051 0.57973 0.70228 0.0
H185 H 0.45017 0.63642 0.70169 0.0
C186 C 0.32311 0.76405 0.81098 0.0
N187 N 0.35312 0.75776 0.788 0.0
N188 N 0.36346 0.71723 0.7875 0.0
C189 C 0.33945 0.69634 0.80973 0.0
C190 C 0.31349 0.72542 0.82537 0.0
C191 C 0.30336 0.80607 0.8185 0.0
H192 H 0.32751 0.8316 0.81689 0.0
H193 H 0.27824 0.8126 0.80005 0.0
H194 H 0.28873 0.80607 0.84335 0.0
O195 O 0.43867 0.80295 0.7662 0.0
O196 O 0.45768 0.73537 0.76098 0.0
H197 H 0.36323 0.64149 0.83446 0.0
H198 H 0.30819 0.63816 0.82355 0.0
C199 C 0.33973 0.64935 0.81505 0.0
H200 H 0.34846 0.63267 0.79202 0.0
H201 H 0.43799 0.65651 0.81893 0.0
O202 O 0.35072 0.85165 0.75668 0.0
C203 C 0.46692 0.77429 0.76505 0.0
Co204 Co 0.79232 0.62379 0.24261 0.0
Co205 Co 0.69608 0.59764 0.24263 0.0
C206 C 0.73892 0.62578 0.30384 0.0
O207 O 0.77276 0.63248 0.28781 0.0
O208 O 0.70526 0.61205 0.29001 0.0
C209 C 0.87298 0.64748 0.26647 0.0
O210 O 0.85799 0.63082 0.29373 0.0
C211 C 0.60828 0.56856 0.25424 0.0
C212 C 0.58921 0.55181 0.20348 0.0
C213 C 0.57603 0.55019 0.23588 0.0
N214 N 0.63921 0.58074 0.23346 0.0
N215 N 0.62748 0.57064 0.2032 0.0
C216 C 0.61174 0.57026 0.29092 0.0
H217 H 0.61832 0.60339 0.29866 0.0
H218 H 0.58224 0.5588 0.3029 0.0
H219 H 0.63891 0.55039 0.299 0.0
C220 C 0.76199 0.67996 0.1889 0.0
N221 N 0.75508 0.65031 0.21222 0.0
N222 N 0.71417 0.64197 0.2137 0.0
C223 C 0.69372 0.6671 0.19185 0.0
C224 C 0.7234 0.69146 0.17519 0.0
C225 C 0.80473 0.69703 0.18001 0.0
H226 H 0.82842 0.671 0.18006 0.0
H227 H 0.81442 0.72073 0.19874 0.0
H228 H 0.80417 0.7127 0.15551 0.0
O229 O 0.79639 0.56191 0.23655 0.0
O230 O 0.72818 0.54487 0.23455 0.0
H231 H 0.63697 0.64814 0.16718 0.0
H232 H 0.63693 0.70216 0.18088 0.0
C233 C 0.64666 0.66939 0.1876 0.0
H234 H 0.63029 0.65963 0.21053 0.0
H235 H 0.64673 0.57433 0.18251 0.0
O236 O 0.85014 0.64783 0.24059 0.0
C237 C 0.76707 0.53434 0.2342 0.0
Co238 Co 0.61981 0.21003 0.75822 0.0
Co239 Co 0.59589 0.30696 0.75695 0.0
C240 C 0.61864 0.26241 0.69573 0.0
O241 O 0.6243 0.22852 0.71217 0.0
O242 O 0.60794 0.29725 0.7094 0.0
C243 C 0.67608 0.14234 0.74364 0.0
O244 O 0.69911 0.1731 0.73103 0.0
C245 C 0.56646 0.39518 0.74683 0.0
C246 C 0.55393 0.41369 0.79842 0.0
C247 C 0.54992 0.42736 0.76624 0.0
N248 N 0.5801 0.36393 0.76683 0.0
N249 N 0.57248 0.37531 0.79758 0.0
C250 C 0.5648 0.39196 0.71015 0.0
H251 H 0.54392 0.36504 0.70315 0.0
H252 H 0.59702 0.385 0.70062 0.0
H253 H 0.55267 0.4217 0.69886 0.0
C254 C 0.67882 0.24074 0.80975 0.0
N255 N 0.6491 0.24764 0.78657 0.0
N256 N 0.64169 0.28873 0.78443 0.0
C257 C 0.66791 0.30922 0.80545 0.0
C258 C 0.69169 0.27935 0.82237 0.0
C259 C 0.69291 0.1979 0.82093 0.0
H260 H 0.71238 0.1832 0.8013 0.0
H261 H 0.71209 0.19962 0.84383 0.0
H262 H 0.66452 0.17789 0.82528 0.0
O263 O 0.55923 0.20695 0.76855 0.0
O264 O 0.54316 0.27549 0.76704 0.0
H265 H 0.65181 0.36663 0.83035 0.0
H266 H 0.70462 0.36551 0.81431 0.0
C267 C 0.67127 0.35632 0.8091 0.0
H268 H 0.66025 0.37261 0.78644 0.0
H269 H 0.57757 0.35572 0.81794 0.0
O270 O 0.64201 0.15137 0.75875 0.0
C271 C 0.53234 0.23686 0.77035 0.0
Co272 Co 0.70379 0.62602 0.50521 0.0
Co273 Co 0.79627 0.58803 0.50612 0.0
C274 C 0.76021 0.62007 0.44467 0.0
O275 O 0.72604 0.62776 0.46003 0.0
O276 O 0.7932 0.60622 0.45938 0.0
C277 C 0.63149 0.66879 0.47833 0.0
O278 O 0.6515 0.66404 0.45027 0.0
C279 C 0.88389 0.55522 0.49847 0.0
C280 C 0.89437 0.52798 0.54804 0.0
C281 C 0.91276 0.53261 0.51738 0.0
N282 N 0.84986 0.56382 0.51728 0.0
N283 N 0.85643 0.54742 0.54683 0.0
C284 C 0.88733 0.56611 0.46275 0.0
H285 H 0.88176 0.60063 0.45939 0.0
H286 H 0.91892 0.55745 0.45276 0.0
H287 H 0.86226 0.54895 0.4489 0.0
C288 C 0.74113 0.68008 0.55757 0.0
N289 N 0.74377 0.64855 0.53532 0.0
N290 N 0.78289 0.6338 0.53498 0.0
C291 C 0.8065 0.65629 0.55657 0.0
C292 C 0.78067 0.68599 0.57169 0.0
C293 C 0.70178 0.70482 0.56476 0.0
H294 H 0.67335 0.68442 0.56193 0.0
H295 H 0.69956 0.73156 0.54704 0.0
H296 H 0.70278 0.7182 0.59003 0.0
O297 O 0.691 0.56635 0.51464 0.0
O298 O 0.75611 0.53988 0.51093 0.0
H299 H 0.85841 0.62497 0.57996 0.0
H300 H 0.86753 0.68031 0.57173 0.0
C301 C 0.85312 0.6508 0.56182 0.0
H302 H 0.86883 0.6421 0.53837 0.0
H303 H 0.8344 0.54851 0.56597 0.0
O304 O 0.64884 0.65682 0.50511 0.0
C305 C 0.71637 0.53506 0.5146 0.0
Co306 Co 0.60632 0.29037 0.49169 0.0
Co307 Co 0.58977 0.19206 0.49461 0.0
C308 C 0.61212 0.23955 0.55483 0.0
O309 O 0.61384 0.27369 0.53814 0.0
O310 O 0.6039 0.20378 0.54149 0.0
C311 C 0.66029 0.36136 0.50143 0.0
O312 O 0.6859 0.332 0.51302 0.0
C313 C 0.56179 0.10429 0.50714 0.0
C314 C 0.55472 0.0809 0.45613 0.0
C315 C 0.54725 0.07027 0.48862 0.0
N316 N 0.57751 0.13369 0.48639 0.0
N317 N 0.57318 0.11937 0.45598 0.0
C318 C 0.55559 0.11128 0.54321 0.0
H319 H 0.53403 0.1387 0.54689 0.0
H320 H 0.58648 0.11935 0.55473 0.0
H321 H 0.54203 0.08272 0.55532 0.0
C322 C 0.66752 0.26193 0.44026 0.0
N323 N 0.63773 0.25397 0.46322 0.0
N324 N 0.6336 0.21252 0.46655 0.0
C325 C 0.66222 0.19308 0.44699 0.0
C326 C 0.68406 0.22376 0.42949 0.0
C327 C 0.67849 0.30504 0.42757 0.0
H328 H 0.64874 0.32261 0.42253 0.0
H329 H 0.69703 0.3224 0.44642 0.0
H330 H 0.69761 0.30324 0.40469 0.0
O331 O 0.54527 0.28879 0.48264 0.0
O332 O 0.53465 0.21932 0.48422 0.0
H333 H 0.65433 0.13245 0.4243 0.0
H334 H 0.70497 0.14025 0.44321 0.0
C335 C 0.67049 0.14635 0.44604 0.0
H336 H 0.65897 0.13077 0.46882 0.0
H337 H 0.57984 0.1372 0.43495 0.0
O338 O 0.6246 0.35044 0.48961 0.0
C339 C 0.52065 0.25692 0.48106 0.0
Co340 Co 0.28563 0.36782 0.50198 0.0
Co341 Co 0.19161 0.40101 0.50431 0.0
C342 C 0.23042 0.37549 0.44144 0.0
O343 O 0.26423 0.36632 0.45683 0.0
O344 O 0.19752 0.38919 0.45623 0.0
C345 C 0.34588 0.30703 0.48057 0.0
O346 O 0.31463 0.29418 0.46166 0.0
C347 C 0.10334 0.43223 0.4967 0.0
C348 C 0.0899 0.45161 0.54795 0.0
C349 C 0.07307 0.45133 0.51652 0.0
N350 N 0.13656 0.42129 0.51576 0.0
N351 N 0.12821 0.43301 0.54632 0.0
C352 C 0.10232 0.42771 0.46009 0.0
H353 H 0.12784 0.44752 0.44919 0.0
H354 H 0.10882 0.39419 0.45342 0.0
H355 H 0.07121 0.4376 0.4498 0.0
C356 C 0.25357 0.31398 0.55607 0.0
N357 N 0.24748 0.34289 0.53211 0.0
N358 N 0.20714 0.35367 0.53126 0.0
C359 C 0.18601 0.3303 0.55385 0.0
C360 C 0.21493 0.305 0.57058 0.0
C361 C 0.2958 0.29645 0.56588 0.0
H362 H 0.32126 0.31984 0.56083 0.0
H363 H 0.30196 0.26732 0.55142 0.0
H364 H 0.29611 0.28774 0.59238 0.0
O365 O 0.29557 0.42798 0.51178 0.0
O366 O 0.22883 0.45035 0.51389 0.0
H367 H 0.13229 0.35487 0.5795 0.0
H368 H 0.12743 0.30029 0.56768 0.0
C369 C 0.1392 0.33185 0.55959 0.0
H370 H 0.12236 0.34173 0.53685 0.0
H371 H 0.14947 0.42979 0.56588 0.0
O372 O 0.34036 0.33751 0.50059 0.0
C373 C 0.26851 0.45759 0.51522 0.0
Co374 Co 0.36868 0.70583 0.49558 0.0
Co375 Co 0.39853 0.80163 0.495 0.0
C376 C 0.37137 0.76034 0.55659 0.0
O377 O 0.36369 0.72664 0.54065 0.0
O378 O 0.38514 0.79384 0.54257 0.0
C379 C 0.33594 0.62821 0.52166 0.0
O380 O 0.34565 0.64577 0.54997 0.0
C381 C 0.42941 0.88928 0.50557 0.0
C382 C 0.44862 0.90613 0.45487 0.0
C383 C 0.44924 0.92047 0.487 0.0
N384 N 0.41745 0.8578 0.48518 0.0
N385 N 0.429 0.86822 0.45494 0.0
C386 C 0.42581 0.88742 0.54223 0.0
H387 H 0.39238 0.88092 0.54912 0.0
H388 H 0.43649 0.91753 0.55376 0.0
H389 H 0.44543 0.86076 0.55163 0.0
C390 C 0.31317 0.7381 0.44227 0.0
N391 N 0.34274 0.74412 0.46576 0.0
N392 N 0.35277 0.78474 0.46693 0.0
C393 C 0.32876 0.80589 0.44474 0.0
C394 C 0.30342 0.77692 0.42824 0.0
C395 C 0.2952 0.69588 0.43287 0.0
H396 H 0.31924 0.67058 0.43631 0.0
H397 H 0.2676 0.68892 0.44889 0.0
H398 H 0.2841 0.69608 0.40691 0.0
O399 O 0.4297 0.69944 0.48692 0.0
O400 O 0.44947 0.7671 0.48601 0.0
H401 H 0.35169 0.8606 0.41932 0.0
H402 H 0.29735 0.86415 0.43184 0.0
C403 C 0.32925 0.85286 0.43945 0.0
H404 H 0.33916 0.86951 0.46224 0.0
H405 H 0.42555 0.84836 0.43457 0.0
O406 O 0.3423 0.64846 0.49493 0.0
C407 C 0.45825 0.72779 0.48428 0.0
Co408 Co 0.70665 0.87847 0.73163 0.0
Co409 Co 0.80082 0.91008 0.73806 0.0
C410 C 0.75495 0.88247 0.79668 0.0
O411 O 0.72238 0.87668 0.77874 0.0
O412 O 0.79066 0.89341 0.78456 0.0
C413 C 0.64261 0.81863 0.747 0.0
O414 O 0.67322 0.80075 0.76406 0.0
C415 C 0.88805 0.94144 0.75136 0.0
C416 C 0.90603 0.96292 0.70141 0.0
C417 C 0.91998 0.96136 0.73365 0.0
N418 N 0.85656 0.93143 0.73033 0.0
N419 N 0.86762 0.9444 0.70058 0.0
C420 C 0.88611 0.9347 0.78774 0.0
H421 H 0.87992 0.90066 0.79292 0.0
H422 H 0.91606 0.94466 0.79992 0.0
H423 H 0.85921 0.95316 0.79797 0.0
C424 C 0.74582 0.82246 0.68214 0.0
N425 N 0.74845 0.85313 0.705 0.0
N426 N 0.78837 0.86468 0.70839 0.0
C427 C 0.81247 0.84053 0.68824 0.0
C428 C 0.78606 0.81334 0.67087 0.0
C429 C 0.70544 0.80229 0.67118 0.0
H430 H 0.6803 0.82681 0.66941 0.0
H431 H 0.69607 0.77822 0.68975 0.0
H432 H 0.70914 0.78627 0.64702 0.0
O433 O 0.6983 0.93824 0.72051 0.0
O434 O 0.76388 0.96025 0.73085 0.0
H435 H 0.86896 0.8659 0.66712 0.0
H436 H 0.87278 0.81102 0.67872 0.0
C437 C 0.85976 0.84233 0.68613 0.0
H438 H 0.87353 0.85197 0.71012 0.0
H439 H 0.84823 0.94182 0.67982 0.0
O440 O 0.65072 0.85049 0.72886 0.0
C441 C 0.72535 0.9678 0.7237 0.0
Co442 Co 0.87818 0.29528 0.26173 0.0
Co443 Co 0.90574 0.199 0.26161 0.0
C444 C 0.87708 0.24062 0.20053 0.0
O445 O 0.8708 0.27442 0.21675 0.0
O446 O 0.89012 0.20658 0.21428 0.0
C447 C 0.82008 0.3594 0.2429 0.0
O448 O 0.80347 0.32845 0.22552 0.0
C449 C 0.93575 0.11073 0.25204 0.0
C450 C 0.95231 0.09366 0.30329 0.0
C451 C 0.95369 0.079 0.27126 0.0
N452 N 0.92383 0.14265 0.27198 0.0
N453 N 0.93388 0.13213 0.30255 0.0
C454 C 0.93374 0.11255 0.2153 0.0
H455 H 0.95297 0.13981 0.20647 0.0
H456 H 0.90046 0.11815 0.20749 0.0
H457 H 0.94565 0.08275 0.20405 0.0
C458 C 0.82366 0.26445 0.31584 0.0
N459 N 0.85306 0.25794 0.2924 0.0
N460 N 0.86165 0.21705 0.2907 0.0
C461 C 0.83659 0.19621 0.31232 0.0
C462 C 0.81214 0.22568 0.329 0.0
C463 C 0.80646 0.30685 0.32546 0.0
H464 H 0.77661 0.31255 0.31174 0.0
H465 H 0.79887 0.30743 0.35214 0.0
H466 H 0.82948 0.33237 0.31969 0.0
O467 O 0.93985 0.30097 0.26806 0.0
O468 O 0.95796 0.23277 0.26793 0.0
H469 H 0.85537 0.13905 0.33654 0.0
H470 H 0.8015 0.13911 0.32247 0.0
C471 C 0.83427 0.14904 0.31608 0.0
H472 H 0.84424 0.13306 0.29305 0.0
H473 H 0.93005 0.15218 0.32276 0.0
O474 O 0.85179 0.3523 0.26151 0.0
C475 C 0.96779 0.27187 0.26912 0.0
Co476 Co 0.29079 0.13006 0.74989 0.0
Co477 Co 0.19695 0.09546 0.74794 0.0
C478 C 0.23646 0.1215 0.81065 0.0
O479 O 0.26985 0.13136 0.79512 0.0
O480 O 0.20375 0.10686 0.79605 0.0
C481 C 0.3585 0.18135 0.77541 0.0
O482 O 0.33333 0.18653 0.8008 0.0
C483 C 0.10887 0.06389 0.75654 0.0
C484 C 0.09479 0.04344 0.70562 0.0
C485 C 0.07842 0.04421 0.73715 0.0
N486 N 0.14176 0.07467 0.73714 0.0
N487 N 0.13302 0.0623 0.70678 0.0
C488 C 0.10831 0.06914 0.79309 0.0
H489 H 0.13371 0.04926 0.80411 0.0
H490 H 0.11528 0.10272 0.79935 0.0
H491 H 0.0772 0.05977 0.80362 0.0
C492 C 0.25656 0.18399 0.69601 0.0
N493 N 0.25165 0.15483 0.72 0.0
N494 N 0.21148 0.14329 0.72121 0.0
C495 C 0.18941 0.1663 0.69892 0.0
C496 C 0.21743 0.19224 0.68197 0.0
C497 C 0.29802 0.20251 0.68542 0.0
H498 H 0.32486 0.18245 0.69363 0.0
H499 H 0.30118 0.23476 0.69606 0.0
H500 H 0.29889 0.20587 0.65821 0.0
O501 O 0.3006 0.06983 0.74005 0.0
O502 O 0.23418 0.04677 0.73715 0.0
H503 H 0.13585 0.14019 0.67385 0.0
H504 H 0.12999 0.19481 0.68525 0.0
C505 C 0.14257 0.16364 0.69352 0.0
H506 H 0.12629 0.15372 0.71646 0.0
H507 H 0.15397 0.06528 0.68704 0.0
O508 O 0.34625 0.15995 0.75059 0.0
C509 C 0.27391 0.03997 0.73599 0.0
Co510 Co 0.13062 0.71164 0.24542 0.0
Co511 Co 0.09172 0.80343 0.25343 0.0
C512 C 0.11861 0.77073 0.18824 0.0
O513 O 0.1313 0.73666 0.20161 0.0
O514 O 0.10203 0.8007 0.20489 0.0
C515 C 0.17645 0.6425 0.21549 0.0
O516 O 0.17495 0.66567 0.18862 0.0
C517 C 0.06067 0.89223 0.24871 0.0
C518 C 0.03406 0.90035 0.29865 0.0
C519 C 0.03842 0.92028 0.26851 0.0
N520 N 0.06927 0.85716 0.26649 0.0
N521 N 0.05332 0.86238 0.29631 0.0
C522 C 0.07062 0.89724 0.21296 0.0
H523 H 0.10417 0.88831 0.20848 0.0
H524 H 0.06496 0.93032 0.20455 0.0
H525 H 0.05028 0.87532 0.19852 0.0
C526 C 0.18476 0.743 0.29999 0.0
N527 N 0.15445 0.74892 0.27704 0.0
N528 N 0.14031 0.78823 0.27903 0.0
C529 C 0.16214 0.80871 0.30286 0.0
C530 C 0.19065 0.78055 0.31696 0.0
C531 C 0.20643 0.70171 0.30685 0.0
H532 H 0.18599 0.67465 0.29965 0.0
H533 H 0.23634 0.70057 0.29257 0.0
H534 H 0.21473 0.69898 0.33334 0.0
O535 O 0.07068 0.69906 0.2548 0.0
O536 O 0.04478 0.76371 0.26285 0.0
H537 H 0.12962 0.85532 0.33127 0.0
H538 H 0.18454 0.8672 0.32406 0.0
C539 C 0.15535 0.85389 0.31273 0.0
H540 H 0.14618 0.87327 0.29105 0.0
H541 H 0.05423 0.83928 0.31474 0.0
O542 O 0.16127 0.6567 0.24235 0.0
C543 C 0.03983 0.72371 0.2612 0.0
C544 C 0.24821 0.15696 0.89922 0.0
C545 C 0.25957 0.11804 0.91456 0.0
C546 C 0.25542 0.08159 0.8615 0.0
C547 C 0.24007 0.11952 0.84679 0.0
N548 N 0.21747 0.19215 0.85151 0.0
N549 N 0.266 0.04157 0.91161 0.0
C550 C 0.23515 0.15694 0.86566 0.0
C551 C 0.26117 0.07985 0.89608 0.0
N552 N 0.25111 0.19398 0.91661 0.0
N553 N 0.26592 0.04757 0.84228 0.0
H554 H 0.27055 0.0384 0.93691 0.0
H555 H 0.26189 0.01254 0.89976 0.0
H556 H 0.26177 0.04726 0.81682 0.0
H557 H 0.28201 0.02104 0.85119 0.0
H558 H 0.24701 0.22392 0.90621 0.0
H559 H 0.2613 0.19496 0.94107 0.0
H560 H 0.20918 0.21928 0.86461 0.0
H561 H 0.2079 0.19292 0.8269 0.0
C562 C 0.07561 0.74112 0.10445 0.0
C563 C 0.11126 0.75052 0.08446 0.0
C564 C 0.14717 0.78329 0.13174 0.0
C565 C 0.11369 0.76946 0.15222 0.0
N566 N 0.04855 0.73003 0.1594 0.0
N567 N 0.18338 0.77533 0.07945 0.0
C568 C 0.07855 0.74701 0.13893 0.0
C569 C 0.14768 0.77047 0.09816 0.0
N570 N 0.03825 0.72841 0.09043 0.0
N571 N 0.1783 0.80865 0.14446 0.0
H572 H 0.18532 0.76478 0.05517 0.0
H573 H 0.21219 0.78621 0.08873 0.0
H574 H 0.17859 0.81808 0.16909 0.0
H575 H 0.20151 0.82325 0.13017 0.0
H576 H 0.00988 0.72601 0.1034 0.0
H577 H 0.0345 0.72388 0.06522 0.0
H578 H 0.02537 0.70875 0.15153 0.0
H579 H 0.04855 0.73475 0.18479 0.0
C580 C 0.72291 0.84462 0.88196 0.0
C581 C 0.72774 0.88254 0.90025 0.0
C582 C 0.74929 0.92081 0.85038 0.0
C583 C 0.74864 0.88187 0.83274 0.0
N584 N 0.7385 0.80608 0.83163 0.0
N585 N 0.74871 0.95609 0.90334 0.0
C586 C 0.73614 0.84358 0.84847 0.0
C587 C 0.74148 0.92057 0.8848 0.0
N588 N 0.70521 0.80985 0.89673 0.0
N589 N 0.75579 0.95829 0.83405 0.0
H590 H 0.74111 0.95805 0.92828 0.0
H591 H 0.7644 0.98289 0.89455 0.0
H592 H 0.76279 0.96009 0.80901 0.0
H593 H 0.75116 0.98798 0.84469 0.0
H594 H 0.69716 0.78215 0.88427 0.0
H595 H 0.69518 0.81013 0.92121 0.0
H596 H 0.7336 0.77645 0.84233 0.0
H597 H 0.74875 0.80426 0.80725 0.0
C598 C 0.90899 0.27337 0.11415 0.0
C599 C 0.87455 0.25715 0.09536 0.0
C600 C 0.84441 0.22497 0.14536 0.0
C601 C 0.87672 0.2445 0.16427 0.0
N602 N 0.93544 0.29413 0.16743 0.0
N603 N 0.8053 0.2245 0.09387 0.0
C604 C 0.90748 0.27096 0.14892 0.0
C605 C 0.84107 0.23476 0.1112 0.0
N606 N 0.94468 0.28853 0.09901 0.0
N607 N 0.81688 0.19727 0.16001 0.0
H608 H 0.801 0.23283 0.06922 0.0
H609 H 0.77823 0.21159 0.1046 0.0
H610 H 0.81751 0.19072 0.18519 0.0
H611 H 0.79556 0.1785 0.1469 0.0
H612 H 0.97272 0.29521 0.11161 0.0
H613 H 0.94827 0.29076 0.07365 0.0
H614 H 0.95428 0.3182 0.15762 0.0
H615 H 0.93795 0.2918 0.19292 0.0
C616 C 0.26312 0.41617 0.35743 0.0
C617 C 0.25271 0.38072 0.33742 0.0
C618 C 0.21983 0.3454 0.38499 0.0
C619 C 0.23396 0.37893 0.40535 0.0
N620 N 0.27481 0.44331 0.41231 0.0
N621 N 0.2282 0.30837 0.3331 0.0
C622 C 0.25733 0.41342 0.39195 0.0
C623 C 0.23279 0.34444 0.35145 0.0
N624 N 0.2764 0.45338 0.34346 0.0
N625 N 0.19412 0.31457 0.39773 0.0
H626 H 0.23939 0.30592 0.30902 0.0
H627 H 0.2173 0.27968 0.34264 0.0
H628 H 0.18481 0.31424 0.42238 0.0
H629 H 0.17922 0.29156 0.38341 0.0
H630 H 0.27919 0.48174 0.35646 0.0
H631 H 0.2812 0.45718 0.31832 0.0
H632 H 0.29679 0.4658 0.40439 0.0
H633 H 0.26979 0.44391 0.43765 0.0
C634 C 0.33724 0.75771 0.646 0.0
C635 C 0.37373 0.73925 0.66081 0.0
C636 C 0.40781 0.73404 0.60692 0.0
C637 C 0.37311 0.75623 0.59267 0.0
N638 N 0.30701 0.79354 0.59839 0.0
N639 N 0.44728 0.71784 0.65631 0.0
C640 C 0.33846 0.7695 0.61218 0.0
C641 C 0.40992 0.72927 0.64155 0.0
N642 N 0.30107 0.76268 0.66413 0.0
N643 N 0.43866 0.71694 0.58733 0.0
H644 H 0.45098 0.71426 0.68163 0.0
H645 H 0.47592 0.71565 0.64368 0.0
H646 H 0.43976 0.72127 0.5619 0.0
H647 H 0.46152 0.6958 0.59599 0.0
H648 H 0.27221 0.77241 0.65419 0.0
H649 H 0.2989 0.75334 0.68873 0.0
H650 H 0.28294 0.80785 0.61193 0.0
H651 H 0.30685 0.80194 0.57353 0.0
C652 C 0.7646 0.58528 0.38941 0.0
C653 C 0.7587 0.62265 0.40835 0.0
C654 C 0.7336 0.66061 0.35914 0.0
C655 C 0.743 0.62436 0.33998 0.0
N656 N 0.77561 0.55511 0.33548 0.0
N657 N 0.74413 0.69773 0.41086 0.0
C658 C 0.76103 0.58761 0.35469 0.0
C659 C 0.74497 0.66091 0.39307 0.0
N660 N 0.77102 0.54693 0.4045 0.0
N661 N 0.71352 0.69444 0.34493 0.0
H662 H 0.75329 0.69915 0.43553 0.0
H663 H 0.73811 0.72741 0.40057 0.0
H664 H 0.70551 0.6952 0.31999 0.0
H665 H 0.70193 0.7202 0.35818 0.0
H666 H 0.77015 0.51812 0.39195 0.0
H667 H 0.77323 0.54307 0.42992 0.0
H668 H 0.79361 0.53001 0.34468 0.0
H669 H 0.77291 0.55485 0.3099 0.0
C670 C 0.65119 0.26264 0.60564 0.0
C671 C 0.61505 0.24316 0.5911 0.0
C672 C 0.58223 0.23572 0.6454 0.0
C673 C 0.61678 0.25822 0.65957 0.0
N674 N 0.68154 0.2979 0.6534 0.0
N675 N 0.54231 0.21974 0.5962 0.0
C676 C 0.65045 0.27332 0.63971 0.0
C677 C 0.5796 0.23175 0.61072 0.0
N678 N 0.68672 0.26941 0.58709 0.0
N679 N 0.55181 0.2179 0.66507 0.0
H680 H 0.53842 0.21726 0.57085 0.0
H681 H 0.51394 0.21615 0.60901 0.0
H682 H 0.55057 0.22221 0.69048 0.0
H683 H 0.52927 0.1964 0.65646 0.0
H684 H 0.71546 0.2799 0.59676 0.0
H685 H 0.68866 0.26092 0.56232 0.0
H686 H 0.70458 0.31366 0.6397 0.0
H687 H 0.68245 0.30515 0.67845 0.0
C688 C 0.18578 0.97622 0.98166 0.0
C689 C 0.1998 0.98775 0.01363 0.0
C690 C 0.18119 0.91732 0.03437 0.0
C691 C 0.17238 0.904 0.00158 0.0
N692 N 0.17137 0.91954 0.94328 0.0
N693 N 0.21554 0.96895 0.06979 0.0
C694 C 0.17563 0.9332 0.97503 0.0
C695 C 0.19898 0.95816 0.03983 0.0
N696 N 0.1821 0.00641 0.95754 0.0
N697 N 0.17047 0.89187 0.06039 0.0
H698 H 0.22728 -0.00078 0.07492 0.0
H699 H 0.2203 0.94715 0.08875 0.0
H700 H 0.15517 0.86274 0.0576 0.0
H701 H 0.17256 0.90151 0.08486 0.0
H702 H 0.16723 0.00093 0.93502 0.0
H703 H 0.19094 0.03803 0.96076 0.0
H704 H 0.17889 0.93805 0.92285 0.0
H705 H 0.16366 0.88849 0.93717 0.0
C706 C 0.96278 0.7888 0.93768 0.0
C707 C 0.97568 0.76304 0.96458 0.0
C708 C 0.90153 0.75575 0.98142 0.0
C709 C 0.8904 0.78832 0.95913 0.0
N710 N 0.91052 0.83818 0.91668 0.0
N711 N 0.95695 0.72528 0.01472 0.0
C712 C 0.92086 0.80516 0.93704 0.0
C713 C 0.94494 0.74674 0.98695 0.0
N714 N 0.99035 0.79689 0.9125 0.0
N715 N 0.87046 0.73319 0.997 0.0
H716 H 0.9883 0.71878 0.0208 0.0
H717 H 0.93585 0.71723 0.03344 0.0
H718 H 0.83834 0.73834 0.99224 0.0
H719 H 0.87654 0.70648 0.01142 0.0
H720 H 0.98147 0.81231 0.89085 0.0
H721 H 0.0209 0.78418 0.91175 0.0
H722 H 0.93287 0.85488 0.90293 0.0
H723 H 0.88007 0.85095 0.91525 0.0
C724 C 0.82908 0.01183 0.98678 0.0
C725 C 0.80385 0.99611 0.01306 0.0
C726 C 0.81136 0.06379 0.04216 0.0
C727 C 0.83926 0.07812 0.0171 0.0
N728 N 0.88188 0.06282 0.96925 0.0
N729 N 0.77673 0.00372 0.0682 0.0
C730 C 0.85021 0.05129 0.99045 0.0
C731 C 0.79662 0.02113 0.0415 0.0
N732 N 0.83132 0.99011 0.95768 0.0
N733 N 0.79754 0.0914 0.06579 0.0
H734 H 0.76579 0.97246 0.06862 0.0
H735 H 0.77441 0.01891 0.09089 0.0
H736 H 0.80737 0.123 0.06697 0.0
H737 H 0.77366 0.08412 0.08255 0.0
H738 H 0.84506 0.00263 0.93647 0.0
H739 H 0.81618 0.96116 0.95365 0.0
H740 H 0.89435 0.04245 0.95156 0.0
H741 H 0.89863 0.09127 0.97134 0.0
C742 C 0.08015 0.21734 0.00967 0.0
C743 C 0.09544 0.19071 0.98434 0.0
C744 C 0.02555 0.1922 0.9578 0.0
C745 C 0.00922 0.21406 0.98549 0.0
N746 N 0.01912 0.2384 0.04138 0.0
N747 N 0.0812 0.14685 0.93673 0.0
C748 C 0.03601 0.22429 0.01244 0.0
C749 C 0.06784 0.17662 0.95888 0.0
N750 N 0.10789 0.23702 0.03051 0.0
N751 N 0.00111 0.18722 0.93025 0.0
H752 H 0.11163 0.13392 0.93695 0.0
H753 H 0.06096 0.13218 0.91994 0.0
H754 H 0.97005 0.19844 0.92859 0.0
H755 H 0.01286 0.17541 0.90813 0.0
H756 H 0.09859 0.25974 0.04767 0.0
H757 H 0.14064 0.23422 0.02792 0.0
H758 H 0.037 0.2426 0.06273 0.0
H759 H 0.98656 0.24108 0.04513 0.0
C760 C 0.17852 0.56807 0.19308 0.0
C761 C 0.19511 0.59949 0.21459 0.0
C762 C 0.23826 0.546 0.24236 0.0
C763 C 0.22395 0.51491 0.2195 0.0
N764 N 0.18947 0.49936 0.1678 0.0
N765 N 0.25003 0.62072 0.25242 0.0
C766 C 0.19685 0.52688 0.19316 0.0
C767 C 0.22796 0.58918 0.23694 0.0
N768 N 0.14396 0.57666 0.17384 0.0
N769 N 0.25932 0.5344 0.27039 0.0
H770 H 0.24447 0.65279 0.24768 0.0
H771 H 0.27685 0.61504 0.2668 0.0
H772 H 0.26586 0.50305 0.27652 0.0
H773 H 0.26631 0.55564 0.2893 0.0
H774 H 0.12797 0.55343 0.16044 0.0
H775 H 0.12881 0.60606 0.1735 0.0
H776 H 0.17318 0.50795 0.14647 0.0
H777 H 0.20352 0.46942 0.16651 0.0
C778 C 0.57233 0.79513 0.72472 0.0
C779 C 0.59794 0.80586 0.75222 0.0
C780 C 0.53753 0.79368 0.78909 0.0
C781 C 0.51146 0.78697 0.76122 0.0
N782 N 0.50146 0.7898 0.70232 0.0
N783 N 0.60277 0.82393 0.81005 0.0
C784 C 0.52808 0.79032 0.72896 0.0
C785 C 0.58008 0.80733 0.78438 0.0
N786 N 0.59048 0.78758 0.69481 0.0
N787 N 0.52178 0.7866 0.81994 0.0
H788 H 0.63344 0.83587 0.8076 0.0
H789 H 0.58976 0.82968 0.83318 0.0
H790 H 0.49031 0.77787 0.82415 0.0
H791 H 0.5406 0.78638 0.84104 0.0
H792 H 0.57394 0.77532 0.67474 0.0
H793 H 0.62301 0.78918 0.69112 0.0
H794 H 0.51139 0.79661 0.67844 0.0
H795 H 0.46864 0.7865 0.70438 0.0
C796 C 0.76793 0.41651 0.2557 0.0
C797 C 0.80443 0.40311 0.23848 0.0
C798 C 0.81065 0.4734 0.21307 0.0
C799 C 0.77834 0.48861 0.23433 0.0
N800 N 0.73177 0.4754 0.28091 0.0
N801 N 0.86295 0.41878 0.20223 0.0
C802 C 0.75816 0.46037 0.25688 0.0
C803 C 0.82661 0.43159 0.21761 0.0
N804 N 0.74236 0.38736 0.27077 0.0
N805 N 0.82472 0.49815 0.18765 0.0
H806 H 0.87445 0.38776 0.20362 0.0
H807 H 0.88311 0.43954 0.18983 0.0
H808 H 0.81239 0.52821 0.18265 0.0
H809 H 0.84532 0.48728 0.16951 0.0
H810 H 0.71299 0.39504 0.28089 0.0
H811 H 0.74835 0.35483 0.27004 0.0
H812 H 0.72031 0.45648 0.29999 0.0
H813 H 0.72466 0.50736 0.28418 0.0
C814 C 0.41383 0.23023 0.7534 0.0
C815 C 0.40195 0.19862 0.77635 0.0
C816 C 0.47348 0.1995 0.79987 0.0
C817 C 0.48689 0.22616 0.77371 0.0
N818 N 0.47076 0.26188 0.72223 0.0
N819 N 0.42114 0.14914 0.81934 0.0
C820 C 0.45731 0.2405 0.74964 0.0
C821 C 0.43186 0.18228 0.79922 0.0
N822 N 0.38339 0.25135 0.73587 0.0
N823 N 0.50007 0.19167 0.8258 0.0
H824 H 0.39099 0.1355 0.8196 0.0
H825 H 0.44307 0.13288 0.83384 0.0
H826 H 0.53045 0.20466 0.82746 0.0
H827 H 0.49057 0.1759 0.84711 0.0
H828 H 0.38984 0.27762 0.72108 0.0
H829 H 0.3511 0.24549 0.73901 0.0
H830 H 0.451 0.2685 0.70229 0.0
H831 H 0.50231 0.2697 0.71778 0.0
C832 C 0.69875 0.4647 0.53984 0.0
C833 C 0.69876 0.49184 0.51206 0.0
C834 C 0.67079 0.43462 0.47723 0.0
C835 C 0.67153 0.40697 0.50501 0.0
N836 N 0.67502 0.39853 0.5641 0.0
N837 N 0.68854 0.50344 0.45389 0.0
C838 C 0.68263 0.42273 0.53671 0.0
C839 C 0.68518 0.47719 0.48071 0.0
N840 N 0.71528 0.4788 0.569 0.0
N841 N 0.65578 0.42043 0.44762 0.0
H842 H 0.69759 0.53522 0.45547 0.0
H843 H 0.68477 0.49371 0.42961 0.0
H844 H 0.64767 0.38907 0.44315 0.0
H845 H 0.64902 0.43992 0.42761 0.0
H846 H 0.7213 0.45914 0.5891 0.0
H847 H 0.72569 0.50993 0.57247 0.0
H848 H 0.67837 0.40961 0.58809 0.0
H849 H 0.6611 0.36851 0.56315 0.0
C850 C 0.44476 0.24454 0.4989 0.0
C851 C 0.47439 0.26421 0.47717 0.0
C852 C 0.41791 0.30948 0.45508 0.0
C853 C 0.38864 0.28918 0.47632 0.0
N854 N 0.37089 0.22913 0.51021 0.0
N855 N 0.48623 0.30572 0.42802 0.0
C856 C 0.401 0.25386 0.49544 0.0
C857 C 0.46004 0.29379 0.45319 0.0
N858 N 0.45818 0.2194 0.52432 0.0
N859 N 0.4057 0.34422 0.43721 0.0
H860 H 0.51664 0.29325 0.42505 0.0
H861 H 0.47629 0.32429 0.40822 0.0
H862 H 0.37455 0.35542 0.43685 0.0
H863 H 0.42694 0.36335 0.42432 0.0
H864 H 0.43808 0.20865 0.54288 0.0
H865 H 0.48979 0.21231 0.52895 0.0
H866 H 0.37784 0.20053 0.52196 0.0
H867 H 0.33849 0.23487 0.50747 0.0
C868 C 0.33756 0.55148 0.53867 0.0
C869 C 0.3176 0.58496 0.52106 0.0
C870 C 0.26652 0.53461 0.49816 0.0
C871 C 0.28366 0.50197 0.51851 0.0
N872 N 0.32842 0.48292 0.56455 0.0
N873 N 0.25589 0.61011 0.49167 0.0
C874 C 0.31709 0.51146 0.54074 0.0
C875 C 0.27992 0.57708 0.50305 0.0
N876 N 0.37693 0.55707 0.55214 0.0
N877 N 0.23919 0.52525 0.47302 0.0
H878 H 0.26342 0.64178 0.49633 0.0
H879 H 0.22607 0.60595 0.48104 0.0
H880 H 0.22934 0.49462 0.46725 0.0
H881 H 0.22972 0.54766 0.45558 0.0
H882 H 0.39439 0.53227 0.56243 0.0
H883 H 0.39411 0.58521 0.54993 0.0
H884 H 0.34995 0.49003 0.58325 0.0
H885 H 0.31286 0.45399 0.56785 0.0
C886 C 0.53423 0.73156 0.50319 0.0
C887 C 0.50318 0.7147 0.48131 0.0
C888 C 0.55592 0.66565 0.459 0.0
C889 C 0.58769 0.68543 0.4785 0.0
N890 N 0.60889 0.7442 0.51278 0.0
N891 N 0.48736 0.67321 0.43285 0.0
C892 C 0.5774 0.72051 0.49871 0.0
C893 C 0.51487 0.68396 0.45752 0.0
N894 N 0.5226 0.7563 0.5293 0.0
N895 N 0.56413 0.62827 0.44317 0.0
H896 H 0.45752 0.68711 0.43019 0.0
H897 H 0.49593 0.654 0.41308 0.0
H898 H 0.59327 0.61272 0.44455 0.0
H899 H 0.54069 0.61047 0.43146 0.0
H900 H 0.54371 0.7653 0.54779 0.0
H901 H 0.49133 0.7644 0.53456 0.0
H902 H 0.60321 0.7726 0.52514 0.0
H903 H 0.64098 0.73797 0.50895 0.0
C904 C 0.71359 0.0411 0.70126 0.0
C905 C 0.71001 0.01163 0.72738 0.0
C906 C 0.68761 0.06805 0.76473 0.0
C907 C 0.68777 0.09726 0.73804 0.0
N908 N 0.69026 0.10848 0.67906 0.0
N909 N 0.68509 0.99471 0.7821 0.0
C910 C 0.69794 0.08302 0.70572 0.0
C911 C 0.69414 0.02436 0.75846 0.0
N912 N 0.732 0.02912 0.6723 0.0
N913 N 0.68365 0.08209 0.79636 0.0
H914 H 0.69052 0.96231 0.77909 0.0
H915 H 0.66884 0.00184 0.80371 0.0
H916 H 0.67987 0.11386 0.80232 0.0
H917 H 0.68846 0.06282 0.8169 0.0
H918 H 0.73976 0.05054 0.65368 0.0
H919 H 0.74224 0.99814 0.66787 0.0
H920 H 0.69339 0.09814 0.65484 0.0
H921 H 0.67627 0.13835 0.68088 0.0
C922 C 0.078 0.31591 0.28727 0.0
C923 C 0.09675 0.31232 0.25554 0.0
C924 C 0.03307 0.27694 0.23476 0.0
C925 C 0.01287 0.28375 0.26555 0.0
N926 N 0.01381 0.31282 0.32033 0.0
N927 N 0.08853 0.29837 0.19745 0.0
C928 C 0.03469 0.3042 0.29162 0.0
C929 C 0.07324 0.29548 0.22882 0.0
N930 N 0.10153 0.33066 0.31319 0.0
N931 N 0.01429 0.25231 0.21112 0.0
H932 H 0.11749 0.31221 0.1919 0.0
H933 H 0.07061 0.2912 0.17661 0.0
H934 H 0.98424 0.23896 0.21344 0.0
H935 H 0.03003 0.24203 0.19005 0.0
H936 H 0.0916 0.32917 0.33759 0.0
H937 H 0.13212 0.3428 0.31059 0.0
H938 H 0.02612 0.33188 0.33896 0.0
H939 H 0.98286 0.30266 0.32488 0.0
C940 C 0.28686 0.92002 0.74502 0.0
C941 C 0.32636 0.91414 0.72915 0.0
C942 C 0.32474 0.98813 0.71082 0.0
C943 C 0.28965 0.99589 0.73182 0.0
N944 N 0.24224 0.96902 0.77428 0.0
N945 N 0.38691 0.94508 0.70151 0.0
C946 C 0.27179 0.96181 0.75032 0.0
C947 C 0.34643 0.94881 0.71313 0.0
N948 N 0.26293 0.88576 0.75407 0.0
N949 N 0.3366 0.01768 0.68794 0.0
H950 H 0.40488 0.91748 0.70396 0.0
H951 H 0.40419 0.97084 0.69255 0.0
H952 H 0.32005 0.04597 0.68426 0.0
H953 H 0.35965 0.01184 0.67014 0.0
H954 H 0.23207 0.88853 0.763 0.0
H955 H 0.27189 0.85458 0.74901 0.0
H956 H 0.23217 0.94543 0.79052 0.0
H957 H 0.23089 -0.00107 0.78049 0.0
C958 C 0.96174 0.7248 0.24758 0.0
C959 C 0.99655 0.70565 0.26435 0.0
C960 C 0.95089 0.64606 0.27991 0.0
C961 C 0.91536 0.66766 0.26643 0.0
N962 N 0.88574 0.7337 0.24658 0.0
N963 N 0.02063 0.65362 0.30401 0.0
C964 C 0.92035 0.70889 0.253 0.0
C965 C 0.99008 0.6679 0.28281 0.0
N966 N 0.96789 0.75659 0.22512 0.0
N967 N 0.94799 0.60423 0.2886 0.0
H968 H 0.04889 0.66997 0.30823 0.0
H969 H 0.01574 0.62833 0.32014 0.0
H970 H 0.92047 0.58632 0.28545 0.0
H971 H 0.97423 0.58621 0.29558 0.0
H972 H 0.94359 0.76812 0.21015 0.0
H973 H 0.99757 0.76829 0.21859 0.0
H974 H 0.8882 0.76545 0.23955 0.0
H975 H 0.85483 0.7243 0.25208 0.0
C976 C 0.46375 0.96848 0.01332 0.0
C977 C 0.45794 0.01299 0.01594 0.0
C978 C 0.53465 0.02356 0.0109 0.0
C979 C 0.54072 0.97916 0.01435 0.0
N980 N 0.51144 0.90879 0.02036 0.0
N981 N 0.48752 0.08353 0.01859 0.0
C982 C 0.50537 0.95131 0.01546 0.0
C983 C 0.49326 0.04083 0.01459 0.0
N984 N 0.42936 0.94276 0.00849 0.0
N985 N 0.56851 0.04906 0.00376 0.0
H986 H 0.45767 0.09746 0.02082 0.0
H987 H 0.5124 0.10489 0.02183 0.0
H988 H 0.59911 0.03715 0.00053 0.0
H989 H 0.56569 0.08114 0.99791 0.0
H990 H 0.43171 0.91048 0.00331 0.0
H991 H 0.39855 0.95461 0.00646 0.0
H992 H 0.48687 0.88763 0.02532 0.0
H993 H 0.54141 0.89492 0.02167 0.0
C994 C 0.04284 0.49479 0.00569 0.0
C995 C 0.02246 0.53384 0.99866 0.0
C996 C 0.95357 0.4981 0.99501 0.0
C997 C 0.97452 0.45865 0.99906 0.0
N998 N 0.03585 0.41916 0.01662 0.0
N999 N 0.9584 0.57517 0.99531 0.0
C1000 C 0.01817 0.457 0.00744 0.0
C1001 C 0.97763 0.53629 0.99643 0.0
N1002 N 0.08599 0.49384 0.00907 0.0
N1003 N 0.91107 0.49865 0.98825 0.0
H1004 H 0.97543 0.60356 0.99604 0.0
H1005 H 0.92574 0.57964 0.99624 0.0
H1006 H 0.89245 0.47124 0.98873 0.0
H1007 H 0.89439 0.52566 0.9812 0.0
H1008 H 0.1038 0.4661 0.01048 0.0
H1009 H 0.1044 0.52138 0.00949 0.0
H1010 H 0.06665 0.41593 0.02549 0.0
H1011 H 0.01847 0.39101 0.01774 0.0
C1012 C 0.54017 0.48271 0.25239 0.0
C1013 C 0.53776 0.52719 0.2472 0.0
C1014 C 0.46017 0.52393 0.24886 0.0
C1015 C 0.46278 0.47902 0.24775 0.0
N1016 N 0.50357 0.41472 0.25127 0.0
N1017 N 0.49695 0.59145 0.24326 0.0
C1018 C 0.50233 0.45811 0.25106 0.0
C1019 C 0.4981 0.54831 0.24694 0.0
N1020 N 0.57872 0.46425 0.25812 0.0
N1021 N 0.42134 0.54296 0.25133 0.0
H1022 H 0.52432 0.61011 0.24345 0.0
H1023 H 0.46938 0.60875 0.23902 0.0
H1024 H 0.39315 0.52568 0.25253 0.0
H1025 H 0.41698 0.57539 0.25476 0.0
H1026 H 0.58273 0.43254 0.2646 0.0
H1027 H 0.60688 0.48161 0.25887 0.0
H1028 H 0.53133 0.39698 0.24979 0.0
H1029 H 0.47615 0.39615 0.25196 0.0
C1030 C 0.54753 0.50466 0.75213 0.0
C1031 C 0.52586 0.46561 0.75625 0.0
C1032 C 0.45769 0.50262 0.7594 0.0
C1033 C 0.47968 0.5418 0.75783 0.0
N1034 N 0.54272 0.581 0.74395 0.0
N1035 N 0.46081 0.42574 0.75463 0.0
C1036 C 0.52379 0.54304 0.7511 0.0
C1037 C 0.48093 0.4641 0.75667 0.0
N1038 N 0.59086 0.50499 0.75087 0.0
N1039 N 0.41494 0.50242 0.76505 0.0
H1040 H 0.4773 0.39715 0.75258 0.0
H1041 H 0.42814 0.42227 0.75217 0.0
H1042 H 0.39689 0.53018 0.76565 0.0
H1043 H 0.39754 0.47519 0.77037 0.0
H1044 H 0.60916 0.53246 0.75179 0.0
H1045 H 0.60882 0.47718 0.75007 0.0
H1046 H 0.57401 0.58399 0.73618 0.0
H1047 H 0.52595 0.60953 0.7432 0.0
C1048 C 0.99136 0.53811 0.50942 0.0
C1049 C 0.95376 0.51356 0.50761 0.0
C1050 C 0.99539 0.44813 0.50326 0.0
C1051 C 0.03291 0.47247 0.50703 0.0
N1052 N 0.06812 0.54014 0.50418 0.0
N1053 N 0.91926 0.44786 0.49368 0.0
C1054 C 0.03131 0.51745 0.50686 0.0
C1055 C 0.95563 0.46933 0.50137 0.0
N1056 N 0.98881 0.58078 0.51524 0.0
N1057 N 0.9977 0.40479 0.50324 0.0
H1058 H 0.88981 0.46286 0.49206 0.0
H1059 H 0.91864 0.41632 0.48609 0.0
H1060 H 0.02645 0.38842 0.50344 0.0
H1061 H 0.97132 0.38498 0.50452 0.0
H1062 H 0.01488 0.59975 0.52082 0.0
H1063 H 0.96001 0.59707 0.51598 0.0
H1064 H 0.06918 0.57293 0.50113 0.0
H1065 H 0.09771 0.52557 0.50201 0.0
C1066 C 0.54154 0.99351 0.50374 0.0
C1067 C 0.52147 0.0333 0.49905 0.0
C1068 C 0.45183 -0.00113 0.49628 0.0
C1069 C 0.47228 0.95889 0.49808 0.0
N1070 N 0.53387 0.91736 0.51187 0.0
N1071 N 0.458 0.07574 0.49942 0.0
C1072 C 0.51634 0.95602 0.50483 0.0
C1073 C 0.47661 0.03656 0.49839 0.0
N1074 N 0.58481 0.99166 0.50555 0.0
N1075 N 0.40902 0.00052 0.49097 0.0
H1076 H 0.47549 0.10381 0.50061 0.0
H1077 H 0.4255 0.08062 0.50164 0.0
H1078 H 0.38995 0.97342 0.491 0.0
H1079 H 0.39245 0.02821 0.48553 0.0
H1080 H 0.60218 0.9636 0.50516 0.0
H1081 H 0.60373 0.01885 0.50647 0.0
H1082 H 0.56508 0.91311 0.51955 0.0
H1083 H 0.51611 0.88943 0.51246 0.0
C1084 C 0.99768 0.95688 0.74584 0.0
C1085 C 0.95982 0.98108 0.74549 0.0
C1086 C 0.00055 0.04716 0.74932 0.0
C1087 C 0.03842 0.02312 0.74707 0.0
N1088 N 0.0743 0.95617 0.7528 0.0
N1089 N 0.92392 0.04695 0.75618 0.0
C1090 C 0.03731 0.97818 0.74867 0.0
C1091 C 0.96091 0.02558 0.75052 0.0
N1092 N 0.99566 0.91385 0.7418 0.0
N1093 N 0.00252 0.0905 0.74849 0.0
H1094 H 0.89459 0.03161 0.75716 0.0
H1095 H 0.92247 0.07886 0.76266 0.0
H1096 H 0.03117 0.10709 0.74885 0.0
H1097 H 0.97609 0.11006 0.74613 0.0
H1098 H 0.02205 0.89469 0.73786 0.0
H1099 H 0.96698 0.89731 0.74115 0.0
H1100 H 0.07574 0.92355 0.75677 0.0
H1101 H 0.10362 0.97129 0.75514 0.0
C1102 C 0.95229 0.00187 0.25603 0.0
C1103 C 0.97579 0.03972 0.2609 0.0
C1104 C 0.04224 -0.0006 0.26255 0.0
C1105 C 0.0185 0.96136 0.25972 0.0
N1106 N 0.95359 0.92608 0.24481 0.0
N1107 N 0.04265 0.07649 0.25953 0.0
C1108 C 0.97429 0.96259 0.25336 0.0
C1109 C 0.02076 0.03907 0.26099 0.0
N1110 N 0.90896 0.00337 0.25563 0.0
N1111 N 0.08492 0.99743 0.26834 0.0
H1112 H 0.0275 0.1059 0.25818 0.0
H1113 H 0.0754 0.07843 0.25673 0.0
H1114 H 0.10176 0.96892 0.2683 0.0
H1115 H 0.10339 0.02361 0.27459 0.0
H1116 H 0.88964 0.97658 0.25612 0.0
H1117 H 0.89209 0.03185 0.25623 0.0
H1118 H 0.9221 0.92509 0.23713 0.0
H1119 H 0.96915 0.89697 0.24263 0.0
C1120 C 0.29798 0.28551 0.11997 0.0
C1121 C 0.29336 0.27416 0.15358 0.0
C1122 C 0.28947 0.19885 0.13893 0.0
C1123 C 0.29266 0.21033 0.10525 0.0
N1124 N 0.3099 0.26209 0.06377 0.0
N1125 N 0.29456 0.22095 0.19612 0.0
C1126 C 0.30034 0.25297 0.09583 0.0
C1127 C 0.29246 0.23098 0.16339 0.0
N1128 N 0.29803 0.32741 0.11109 0.0
N1129 N 0.28167 0.15752 0.14731 0.0
H1130 H 0.29657 0.24398 0.2145 0.0
H1131 H 0.29782 0.19012 0.20501 0.0
H1132 H 0.28105 0.13301 0.13005 0.0
H1133 H 0.2739 0.14762 0.17099 0.0
H1134 H 0.29608 0.33794 0.08684 0.0
H1135 H 0.29788 0.35207 0.12821 0.0
H1136 H 0.31962 0.29188 0.05564 0.0
H1137 H 0.3116 0.23878 0.04558 0.0
C1138 C 0.29394 0.72224 0.885 0.0
C1139 C 0.28192 0.71743 0.85155 0.0
C1140 C 0.20746 0.70918 0.86733 0.0
C1141 C 0.21943 0.71454 0.90074 0.0
N1142 N 0.27348 0.71765 0.94256 0.0
N1143 N 0.2298 0.69824 0.81077 0.0
C1144 C 0.26262 0.71826 0.90994 0.0
C1145 C 0.23941 0.70816 0.8427 0.0
N1146 N 0.33502 0.73213 0.89272 0.0
N1147 N 0.16542 0.70691 0.85911 0.0
H1148 H 0.25237 0.69815 0.79202 0.0
H1149 H 0.20033 0.68701 0.80316 0.0
H1150 H 0.14126 0.70583 0.87661 0.0
H1151 H 0.15413 0.70824 0.83505 0.0
H1152 H 0.34504 0.74105 0.91613 0.0
H1153 H 0.35913 0.73354 0.87518 0.0
H1154 H 0.30458 0.71627 0.95108 0.0
H1155 H 0.25107 0.71514 0.96134 0.0
C1156 C 0.71995 0.79481 0.12673 0.0
C1157 C 0.71175 0.77936 0.09454 0.0
C1158 C 0.70828 0.70643 0.1155 0.0
C1159 C 0.71598 0.72189 0.14778 0.0
N1160 N 0.7202 0.78062 0.18553 0.0
N1161 N 0.68913 0.72274 0.05893 0.0
C1162 C 0.71895 0.76612 0.15383 0.0
C1163 C 0.70292 0.73581 0.08919 0.0
N1164 N 0.73057 0.83651 0.13119 0.0
N1165 N 0.70817 0.66366 0.10972 0.0
H1166 H 0.68503 0.74362 0.0392 0.0
H1167 H 0.67816 0.69219 0.05411 0.0
H1168 H 0.71152 0.64109 0.12835 0.0
H1169 H 0.70772 0.65042 0.08626 0.0
H1170 H 0.74199 0.84867 0.15331 0.0
H1171 H 0.73037 0.85871 0.11211 0.0
H1172 H 0.71811 0.81259 0.1918 0.0
H1173 H 0.71972 0.76037 0.20588 0.0
C1174 C 0.76589 0.2857 0.84337 0.0
C1175 C 0.72179 0.28603 0.84991 0.0
C1176 C 0.73574 0.28838 0.90926 0.0
C1177 C 0.77945 0.28229 0.90275 0.0
N1178 N 0.83698 0.27347 0.86432 0.0
N1179 N 0.66363 0.28608 0.88837 0.0
C1180 C 0.79488 0.28094 0.86997 0.0
C1181 C 0.70636 0.28746 0.88269 0.0
N1182 N 0.77987 0.29029 0.81171 0.0
N1183 N 0.72253 0.29543 0.94084 0.0
H1184 H 0.64114 0.28694 0.86952 0.0
H1185 H 0.65033 0.28175 0.91157 0.0
H1186 H 0.74329 0.29569 0.96087 0.0
H1187 H 0.69177 0.30432 0.94699 0.0
H1188 H 0.81159 0.29436 0.8054 0.0
H1189 H 0.75924 0.2936 0.79175 0.0
H1190 H 0.84953 0.2671 0.84117 0.0
H1191 H 0.85937 0.27116 0.88318 0.0
C1192 C 0.79763 0.76085 0.58742 0.0
C1193 C 0.79222 0.7179 0.59698 0.0
C1194 C 0.79868 0.73796 0.65504 0.0
C1195 C 0.79683 0.78121 0.64561 0.0
N1196 N 0.79518 0.83504 0.60349 0.0
N1197 N 0.78758 0.66445 0.63935 0.0
C1198 C 0.79725 0.79305 0.61193 0.0
C1199 C 0.79351 0.70599 0.63067 0.0
N1200 N 0.80329 0.77061 0.55491 0.0
N1201 N 0.80523 0.72773 0.68737 0.0
H1202 H 0.78482 0.64007 0.62213 0.0
H1203 H 0.78313 0.65424 0.66348 0.0
H1204 H 0.80903 0.75074 0.70561 0.0
H1205 H 0.81058 0.69695 0.69573 0.0
H1206 H 0.81117 0.80078 0.54642 0.0
H1207 H 0.8036 0.74755 0.53648 0.0
H1208 H 0.79005 0.84584 0.57959 0.0
H1209 H 0.79674 0.85938 0.62085 0.0
C1210 C 0.79207 0.22013 0.38851 0.0
C1211 C 0.77994 0.21818 0.3549 0.0
C1212 C 0.7049 0.21539 0.37036 0.0
C1213 C 0.71702 0.21759 0.40397 0.0
N1214 N 0.77103 0.2143 0.44587 0.0
N1215 N 0.72661 0.20612 0.31345 0.0
C1216 C 0.76036 0.2174 0.4133 0.0
C1217 C 0.73683 0.21321 0.34572 0.0
N1218 N 0.83378 0.22619 0.39657 0.0
N1219 N 0.66286 0.21699 0.36204 0.0
H1220 H 0.74926 0.20508 0.29477 0.0
H1221 H 0.69634 0.19807 0.30536 0.0
H1222 H 0.63859 0.21682 0.37947 0.0
H1223 H 0.65184 0.22071 0.33805 0.0
H1224 H 0.84438 0.23302 0.42025 0.0
H1225 H 0.85802 0.22652 0.37911 0.0
H1226 H 0.80187 0.20978 0.45432 0.0
H1227 H 0.74849 0.21308 0.46463 0.0
C1228 C 0.20751 0.26537 0.65882 0.0
C1229 C 0.20888 0.22086 0.65363 0.0
C1230 C 0.20787 0.23156 0.59377 0.0
C1231 C 0.20757 0.2761 0.59895 0.0
N1232 N 0.20052 0.33605 0.63535 0.0
N1233 N 0.20363 0.16068 0.61726 0.0
C1234 C 0.20503 0.29319 0.63121 0.0
C1235 C 0.20667 0.20368 0.62138 0.0
N1236 N 0.21012 0.28091 0.6902 0.0
N1237 N 0.21082 0.21611 0.56238 0.0
H1238 H 0.20453 0.13923 0.63681 0.0
H1239 H 0.19758 0.14605 0.5948 0.0
H1240 H 0.20927 0.23552 0.54158 0.0
H1241 H 0.21648 0.18443 0.55669 0.0
H1242 H 0.21452 0.31278 0.6959 0.0
H1243 H 0.20958 0.26142 0.711 0.0
H1244 H 0.19413 0.35045 0.65782 0.0
H1245 H 0.2006 0.35754 0.61581 0.0
C1246 C 0.23002 0.78499 0.40556 0.0
C1247 C 0.2744 0.78472 0.40011 0.0
C1248 C 0.26278 0.79272 0.34074 0.0
C1249 C 0.21871 0.78705 0.34585 0.0
N1250 N 0.1597 0.77525 0.38246 0.0
N1251 N 0.33392 0.78566 0.36288 0.0
C1252 C 0.20202 0.78298 0.37813 0.0
C1253 C 0.2911 0.78836 0.36781 0.0
N1254 N 0.21479 0.78764 0.43699 0.0
N1255 N 0.27738 0.80268 0.31 0.0
H1256 H 0.35576 0.7833 0.3821 0.0
H1257 H 0.34779 0.78298 0.33973 0.0
H1258 H 0.25732 0.8059 0.28968 0.0
H1259 H 0.30861 0.81134 0.3051 0.0
H1260 H 0.18291 0.79222 0.4426 0.0
H1261 H 0.23459 0.78891 0.45759 0.0
H1262 H 0.14636 0.76688 0.40498 0.0
H1263 H 0.13802 0.77458 0.36305 0.0
loop_
_geom_bond_atom_site_label_1
_geom_bond_atom_site_label_2
_geom_bond_distance
_geom_bond_site_symmetry_2
_ccdc_geom_bond_type
Co0 O3 1.970 1_554 S
Co0 N17 1.989 . S
Co0 O25 1.967 . S
Co0 O32 1.920 . S
Co1 O4 1.966 1_554 S
Co1 N10 2.022 . S
Co1 N18 1.993 . S
Co1 O26 1.941 . S
C2 O3 1.258 . S
C2 O4 1.263 . S
O3 Co0 1.970 1_556 S
O3 C2 1.258 . S
O4 Co1 1.966 1_556 S
O4 C2 1.263 . S
C5 O6 1.235 . S
C5 O32 1.289 1_556 S
O6 C5 1.235 . S
C7 C9 1.400 . S
C7 N10 1.351 . S
C7 C12 1.501 1_554 S
C8 C9 1.387 . S
C8 N11 1.341 . S
C9 C7 1.400 . S
C9 C8 1.387 . S
N10 Co1 2.022 . S
N10 C7 1.351 . S
N10 N11 1.365 . S
N11 C8 1.341 . S
N11 N10 1.365 . S
N11 H31 0.862 . S
C12 C7 1.501 1_556 S
C12 H13 0.961 . S
C12 H14 0.961 . S
C12 H15 0.960 . S
H13 C12 0.961 . S
H14 C12 0.961 . S
H15 C12 0.960 . S
C16 N17 1.342 . S
C16 C20 1.401 . S
C16 C21 1.499 . S
N17 Co0 1.989 . S
N17 C16 1.342 . S
N17 N18 1.388 . S
N18 Co1 1.993 . S
N18 N17 1.388 . S
N18 C19 1.346 . S
C19 N18 1.346 . S
C19 C20 1.396 . S
C19 C29 1.510 . S
C20 C16 1.401 . S
C20 C19 1.396 . S
C21 C16 1.499 . S
C21 H22 0.959 . S
C21 H23 0.960 . S
C21 H24 0.961 . S
H22 C21 0.959 . S
H23 C21 0.960 . S
H24 C21 0.961 . S
O25 Co0 1.967 . S
O25 C33 1.258 . S
O26 Co1 1.941 . S
O26 C33 1.266 . S
H27 C29 0.959 . S
H28 C29 0.961 . S
C29 C19 1.510 . S
C29 H27 0.959 . S
C29 H28 0.961 . S
C29 H30 0.960 . S
H30 C29 0.960 . S
H31 N11 0.862 . S
O32 Co0 1.920 . S
O32 C5 1.289 1_554 S
C33 O25 1.258 . S
C33 O26 1.266 . S
Co34 O37 1.970 1_556 S
Co34 N51 1.989 . S
Co34 O59 1.967 . S
Co34 O66 1.920 . S
Co35 O38 1.966 1_556 S
Co35 N44 2.022 . S
Co35 N52 1.993 . S
Co35 O60 1.941 . S
C36 O37 1.258 . S
C36 O38 1.263 . S
O37 Co34 1.970 1_554 S
O37 C36 1.258 . S
O38 Co35 1.966 1_554 S
O38 C36 1.263 . S
C39 O40 1.235 . S
C39 O66 1.289 1_554 S
O40 C39 1.235 . S
C41 C43 1.400 . S
C41 N44 1.351 . S
C41 C46 1.501 1_556 S
C42 C43 1.387 . S
C42 N45 1.341 . S
C43 C41 1.400 . S
C43 C42 1.387 . S
N44 Co35 2.022 . S
N44 C41 1.351 . S
N44 N45 1.365 . S
N45 C42 1.341 . S
N45 N44 1.365 . S
N45 H65 0.862 . S
C46 C41 1.501 1_554 S
C46 H47 0.961 . S
C46 H48 0.961 . S
C46 H49 0.960 . S
H47 C46 0.961 . S
H48 C46 0.961 . S
H49 C46 0.960 . S
C50 N51 1.342 . S
C50 C54 1.401 . S
C50 C55 1.499 . S
N51 Co34 1.989 . S
N51 C50 1.342 . S
N51 N52 1.388 . S
N52 Co35 1.993 . S
N52 N51 1.388 . S
N52 C53 1.346 . S
C53 N52 1.346 . S
C53 C54 1.396 . S
C53 C63 1.510 . S
C54 C50 1.401 . S
C54 C53 1.396 . S
C55 C50 1.499 . S
C55 H56 0.959 . S
C55 H57 0.960 . S
C55 H58 0.961 . S
H56 C55 0.959 . S
H57 C55 0.960 . S
H58 C55 0.961 . S
O59 Co34 1.967 . S
O59 C67 1.258 . S
O60 Co35 1.941 . S
O60 C67 1.266 . S
H61 C63 0.959 . S
H62 C63 0.961 . S
C63 C53 1.510 . S
C63 H61 0.959 . S
C63 H62 0.961 . S
C63 H64 0.960 . S
H64 C63 0.960 . S
H65 N45 0.862 . S
O66 Co34 1.920 . S
O66 C39 1.289 1_556 S
C67 O59 1.258 . S
C67 O60 1.266 . S
Co68 O71 1.970 1_554 S
Co68 N85 1.989 . S
Co68 O93 1.967 . S
Co68 O100 1.920 . S
Co69 O72 1.966 1_554 S
Co69 N78 2.022 . S
Co69 N86 1.993 . S
Co69 O94 1.941 . S
C70 O71 1.258 . S
C70 O72 1.263 . S
O71 Co68 1.970 1_556 S
O71 C70 1.258 . S
O72 Co69 1.966 1_556 S
O72 C70 1.263 . S
C73 O74 1.235 . S
C73 O100 1.289 1_556 S
O74 C73 1.235 . S
C75 C77 1.400 . S
C75 N78 1.351 . S
C75 C80 1.501 1_554 S
C76 C77 1.387 . S
C76 N79 1.341 . S
C77 C75 1.400 . S
C77 C76 1.387 . S
N78 Co69 2.022 . S
N78 C75 1.351 . S
N78 N79 1.365 . S
N79 C76 1.341 . S
N79 N78 1.365 . S
N79 H99 0.862 . S
C80 C75 1.501 1_556 S
C80 H81 0.961 . S
C80 H82 0.961 . S
C80 H83 0.960 . S
H81 C80 0.961 . S
H82 C80 0.961 . S
H83 C80 0.960 . S
C84 N85 1.342 . S
C84 C88 1.401 . S
C84 C89 1.499 . S
N85 Co68 1.989 . S
N85 C84 1.342 . S
N85 N86 1.388 . S
N86 Co69 1.993 . S
N86 N85 1.388 . S
N86 C87 1.346 . S
C87 N86 1.346 . S
C87 C88 1.396 . S
C87 C97 1.510 . S
C88 C84 1.401 . S
C88 C87 1.396 . S
C89 C84 1.499 . S
C89 H90 0.959 . S
C89 H91 0.960 . S
C89 H92 0.961 . S
H90 C89 0.959 . S
H91 C89 0.960 . S
H92 C89 0.961 . S
O93 Co68 1.967 . S
O93 C101 1.258 . S
O94 Co69 1.941 . S
O94 C101 1.266 . S
H95 C97 0.959 . S
H96 C97 0.961 . S
C97 C87 1.510 . S
C97 H95 0.959 . S
C97 H96 0.961 . S
C97 H98 0.960 . S
H98 C97 0.960 . S
H99 N79 0.862 . S
O100 Co68 1.920 . S
O100 C73 1.289 1_554 S
C101 O93 1.258 . S
C101 O94 1.266 . S
Co102 O105 1.970 1_556 S
Co102 N119 1.989 . S
Co102 O127 1.967 . S
Co102 O134 1.920 . S
Co103 O106 1.966 1_556 S
Co103 N112 2.022 . S
Co103 N120 1.993 . S
Co103 O128 1.941 . S
C104 O105 1.258 . S
C104 O106 1.263 . S
O105 Co102 1.970 1_554 S
O105 C104 1.258 . S
O106 Co103 1.966 1_554 S
O106 C104 1.263 . S
C107 O108 1.235 . S
C107 O134 1.289 1_554 S
O108 C107 1.235 . S
C109 C111 1.400 . S
C109 N112 1.351 . S
C109 C114 1.501 1_556 S
C110 C111 1.387 . S
C110 N113 1.341 . S
C111 C109 1.400 . S
C111 C110 1.387 . S
N112 Co103 2.022 . S
N112 C109 1.351 . S
N112 N113 1.365 . S
N113 C110 1.341 . S
N113 N112 1.365 . S
N113 H133 0.862 . S
C114 C109 1.501 1_554 S
C114 H115 0.961 . S
C114 H116 0.961 . S
C114 H117 0.960 . S
H115 C114 0.961 . S
H116 C114 0.961 . S
H117 C114 0.960 . S
C118 N119 1.342 . S
C118 C122 1.401 . S
C118 C123 1.499 . S
N119 Co102 1.989 . S
N119 C118 1.342 . S
N119 N120 1.388 . S
N120 Co103 1.993 . S
N120 N119 1.388 . S
N120 C121 1.346 . S
C121 N120 1.346 . S
C121 C122 1.396 . S
C121 C131 1.510 . S
C122 C118 1.401 . S
C122 C121 1.396 . S
C123 C118 1.499 . S
C123 H124 0.959 . S
C123 H125 0.960 . S
C123 H126 0.961 . S
H124 C123 0.959 . S
H125 C123 0.960 . S
H126 C123 0.961 . S
O127 Co102 1.967 . S
O127 C135 1.258 . S
O128 Co103 1.941 . S
O128 C135 1.266 . S
H129 C131 0.959 . S
H130 C131 0.961 . S
C131 C121 1.510 . S
C131 H129 0.959 . S
C131 H130 0.961 . S
C131 H132 0.960 . S
H132 C131 0.960 . S
H133 N113 0.862 . S
O134 Co102 1.920 . S
O134 C107 1.289 1_556 S
C135 O127 1.258 . S
C135 O128 1.266 . S
Co136 O139 1.970 . S
Co136 N153 1.989 . S
Co136 O161 1.967 . S
Co136 O168 1.920 . S
Co137 O140 1.966 . S
Co137 N146 2.022 . S
Co137 N154 1.993 . S
Co137 O162 1.941 . S
C138 O139 1.258 . S
C138 O140 1.263 . S
O139 Co136 1.970 . S
O139 C138 1.258 . S
O140 Co137 1.966 . S
O140 C138 1.263 . S
C141 O142 1.235 . S
C141 O168 1.289 . S
O142 C141 1.235 . S
C143 C145 1.400 . S
C143 N146 1.351 . S
C143 C148 1.501 . S
C144 C145 1.387 . S
C144 N147 1.341 . S
C145 C143 1.400 . S
C145 C144 1.387 . S
N146 Co137 2.022 . S
N146 C143 1.351 . S
N146 N147 1.365 . S
N147 C144 1.341 . S
N147 N146 1.365 . S
N147 H167 0.862 . S
C148 C143 1.501 . S
C148 H149 0.961 . S
C148 H150 0.961 . S
C148 H151 0.960 . S
H149 C148 0.961 . S
H150 C148 0.961 . S
H151 C148 0.960 . S
C152 N153 1.342 . S
C152 C156 1.401 . S
C152 C157 1.499 . S
N153 Co136 1.989 . S
N153 C152 1.342 . S
N153 N154 1.388 . S
N154 Co137 1.993 . S
N154 N153 1.388 . S
N154 C155 1.346 . S
C155 N154 1.346 . S
C155 C156 1.396 . S
C155 C165 1.510 . S
C156 C152 1.401 . S
C156 C155 1.396 . S
C157 C152 1.499 . S
C157 H158 0.959 . S
C157 H159 0.960 . S
C157 H160 0.961 . S
H158 C157 0.959 . S
H159 C157 0.960 . S
H160 C157 0.961 . S
O161 Co136 1.967 . S
O161 C169 1.258 . S
O162 Co137 1.941 . S
O162 C169 1.266 . S
H163 C165 0.959 . S
H164 C165 0.961 . S
C165 C155 1.510 . S
C165 H163 0.959 . S
C165 H164 0.961 . S
C165 H166 0.960 . S
H166 C165 0.960 . S
H167 N147 0.862 . S
O168 Co136 1.920 . S
O168 C141 1.289 . S
C169 O161 1.258 . S
C169 O162 1.266 . S
Co170 O173 1.970 . S
Co170 N187 1.989 . S
Co170 O195 1.967 . S
Co170 O202 1.920 . S
Co171 O174 1.966 . S
Co171 N180 2.022 . S
Co171 N188 1.993 . S
Co171 O196 1.941 . S
C172 O173 1.258 . S
C172 O174 1.263 . S
O173 Co170 1.970 . S
O173 C172 1.258 . S
O174 Co171 1.966 . S
O174 C172 1.263 . S
C175 O176 1.235 . S
C175 O202 1.289 . S
O176 C175 1.235 . S
C177 C179 1.400 . S
C177 N180 1.351 . S
C177 C182 1.501 . S
C178 C179 1.387 . S
C178 N181 1.341 . S
C179 C177 1.400 . S
C179 C178 1.387 . S
N180 Co171 2.022 . S
N180 C177 1.351 . S
N180 N181 1.365 . S
N181 C178 1.341 . S
N181 N180 1.365 . S
N181 H201 0.862 . S
C182 C177 1.501 . S
C182 H183 0.961 . S
C182 H184 0.961 . S
C182 H185 0.960 . S
H183 C182 0.961 . S
H184 C182 0.961 . S
H185 C182 0.960 . S
C186 N187 1.342 . S
C186 C190 1.401 . S
C186 C191 1.499 . S
N187 Co170 1.989 . S
N187 C186 1.342 . S
N187 N188 1.388 . S
N188 Co171 1.993 . S
N188 N187 1.388 . S
N188 C189 1.346 . S
C189 N188 1.346 . S
C189 C190 1.396 . S
C189 C199 1.510 . S
C190 C186 1.401 . S
C190 C189 1.396 . S
C191 C186 1.499 . S
C191 H192 0.959 . S
C191 H193 0.960 . S
C191 H194 0.961 . S
H192 C191 0.959 . S
H193 C191 0.960 . S
H194 C191 0.961 . S
O195 Co170 1.967 . S
O195 C203 1.258 . S
O196 Co171 1.941 . S
O196 C203 1.266 . S
H197 C199 0.959 . S
H198 C199 0.961 . S
C199 C189 1.510 . S
C199 H197 0.959 . S
C199 H198 0.961 . S
C199 H200 0.960 . S
H200 C199 0.960 . S
H201 N181 0.862 . S
O202 Co170 1.920 . S
O202 C175 1.289 . S
C203 O195 1.258 . S
C203 O196 1.266 . S
Co204 O207 1.970 . S
Co204 N221 1.989 . S
Co204 O229 1.967 . S
Co204 O236 1.920 . S
Co205 O208 1.966 . S
Co205 N214 2.022 . S
Co205 N222 1.993 . S
Co205 O230 1.941 . S
C206 O207 1.258 . S
C206 O208 1.263 . S
O207 Co204 1.970 . S
O207 C206 1.258 . S
O208 Co205 1.966 . S
O208 C206 1.263 . S
C209 O210 1.235 . S
C209 O236 1.289 . S
O210 C209 1.235 . S
C211 C213 1.400 . S
C211 N214 1.351 . S
C211 C216 1.501 . S
C212 C213 1.387 . S
C212 N215 1.341 . S
C213 C211 1.400 . S
C213 C212 1.387 . S
N214 Co205 2.022 . S
N214 C211 1.351 . S
N214 N215 1.365 . S
N215 C212 1.341 . S
N215 N214 1.365 . S
N215 H235 0.862 . S
C216 C211 1.501 . S
C216 H217 0.961 . S
C216 H218 0.961 . S
C216 H219 0.960 . S
H217 C216 0.961 . S
H218 C216 0.961 . S
H219 C216 0.960 . S
C220 N221 1.342 . S
C220 C224 1.401 . S
C220 C225 1.499 . S
N221 Co204 1.989 . S
N221 C220 1.342 . S
N221 N222 1.388 . S
N222 Co205 1.993 . S
N222 N221 1.388 . S
N222 C223 1.346 . S
C223 N222 1.346 . S
C223 C224 1.396 . S
C223 C233 1.510 . S
C224 C220 1.401 . S
C224 C223 1.396 . S
C225 C220 1.499 . S
C225 H226 0.959 . S
C225 H227 0.960 . S
C225 H228 0.961 . S
H226 C225 0.959 . S
H227 C225 0.960 . S
H228 C225 0.961 . S
O229 Co204 1.967 . S
O229 C237 1.258 . S
O230 Co205 1.941 . S
O230 C237 1.266 . S
H231 C233 0.959 . S
H232 C233 0.961 . S
C233 C223 1.510 . S
C233 H231 0.959 . S
C233 H232 0.961 . S
C233 H234 0.960 . S
H234 C233 0.960 . S
H235 N215 0.862 . S
O236 Co204 1.920 . S
O236 C209 1.289 . S
C237 O229 1.258 . S
C237 O230 1.266 . S
Co238 O241 1.970 . S
Co238 N255 1.989 . S
Co238 O263 1.967 . S
Co238 O270 1.920 . S
Co239 O242 1.966 . S
Co239 N248 2.022 . S
Co239 N256 1.993 . S
Co239 O264 1.941 . S
C240 O241 1.258 . S
C240 O242 1.263 . S
O241 Co238 1.970 . S
O241 C240 1.258 . S
O242 Co239 1.966 . S
O242 C240 1.263 . S
C243 O244 1.235 . S
C243 O270 1.289 . S
O244 C243 1.235 . S
C245 C247 1.400 . S
C245 N248 1.351 . S
C245 C250 1.501 . S
C246 C247 1.387 . S
C246 N249 1.341 . S
C247 C245 1.400 . S
C247 C246 1.387 . S
N248 Co239 2.022 . S
N248 C245 1.351 . S
N248 N249 1.365 . S
N249 C246 1.341 . S
N249 N248 1.365 . S
N249 H269 0.862 . S
C250 C245 1.501 . S
C250 H251 0.961 . S
C250 H252 0.961 . S
C250 H253 0.960 . S
H251 C250 0.961 . S
H252 C250 0.961 . S
H253 C250 0.960 . S
C254 N255 1.342 . S
C254 C258 1.401 . S
C254 C259 1.499 . S
N255 Co238 1.989 . S
N255 C254 1.342 . S
N255 N256 1.388 . S
N256 Co239 1.993 . S
N256 N255 1.388 . S
N256 C257 1.346 . S
C257 N256 1.346 . S
C257 C258 1.396 . S
C257 C267 1.510 . S
C258 C254 1.401 . S
C258 C257 1.396 . S
C259 C254 1.499 . S
C259 H260 0.959 . S
C259 H261 0.960 . S
C259 H262 0.961 . S
H260 C259 0.959 . S
H261 C259 0.960 . S
H262 C259 0.961 . S
O263 Co238 1.967 . S
O263 C271 1.258 . S
O264 Co239 1.941 . S
O264 C271 1.266 . S
H265 C267 0.959 . S
H266 C267 0.961 . S
C267 C257 1.510 . S
C267 H265 0.959 . S
C267 H266 0.961 . S
C267 H268 0.960 . S
H268 C267 0.960 . S
H269 N249 0.862 . S
O270 Co238 1.920 . S
O270 C243 1.289 . S
C271 O263 1.258 . S
C271 O264 1.266 . S
Co272 O275 1.970 . S
Co272 N289 1.989 . S
Co272 O297 1.967 . S
Co272 O304 1.920 . S
Co273 O276 1.966 . S
Co273 N282 2.022 . S
Co273 N290 1.993 . S
Co273 O298 1.941 . S
C274 O275 1.258 . S
C274 O276 1.263 . S
O275 Co272 1.970 . S
O275 C274 1.258 . S
O276 Co273 1.966 . S
O276 C274 1.263 . S
C277 O278 1.235 . S
C277 O304 1.289 . S
O278 C277 1.235 . S
C279 C281 1.400 . S
C279 N282 1.351 . S
C279 C284 1.501 . S
C280 C281 1.387 . S
C280 N283 1.341 . S
C281 C279 1.400 . S
C281 C280 1.387 . S
N282 Co273 2.022 . S
N282 C279 1.351 . S
N282 N283 1.365 . S
N283 C280 1.341 . S
N283 N282 1.365 . S
N283 H303 0.862 . S
C284 C279 1.501 . S
C284 H285 0.961 . S
C284 H286 0.961 . S
C284 H287 0.960 . S
H285 C284 0.961 . S
H286 C284 0.961 . S
H287 C284 0.960 . S
C288 N289 1.342 . S
C288 C292 1.401 . S
C288 C293 1.499 . S
N289 Co272 1.989 . S
N289 C288 1.342 . S
N289 N290 1.388 . S
N290 Co273 1.993 . S
N290 N289 1.388 . S
N290 C291 1.346 . S
C291 N290 1.346 . S
C291 C292 1.396 . S
C291 C301 1.510 . S
C292 C288 1.401 . S
C292 C291 1.396 . S
C293 C288 1.499 . S
C293 H294 0.959 . S
C293 H295 0.960 . S
C293 H296 0.961 . S
H294 C293 0.959 . S
H295 C293 0.960 . S
H296 C293 0.961 . S
O297 Co272 1.967 . S
O297 C305 1.258 . S
O298 Co273 1.941 . S
O298 C305 1.266 . S
H299 C301 0.959 . S
H300 C301 0.961 . S
C301 C291 1.510 . S
C301 H299 0.959 . S
C301 H300 0.961 . S
C301 H302 0.960 . S
H302 C301 0.960 . S
H303 N283 0.862 . S
O304 Co272 1.920 . S
O304 C277 1.289 . S
C305 O297 1.258 . S
C305 O298 1.266 . S
Co306 O309 1.970 . S
Co306 N323 1.989 . S
Co306 O331 1.967 . S
Co306 O338 1.920 . S
Co307 O310 1.966 . S
Co307 N316 2.022 . S
Co307 N324 1.993 . S
Co307 O332 1.941 . S
C308 O309 1.258 . S
C308 O310 1.263 . S
O309 Co306 1.970 . S
O309 C308 1.258 . S
O310 Co307 1.966 . S
O310 C308 1.263 . S
C311 O312 1.235 . S
C311 O338 1.289 . S
O312 C311 1.235 . S
C313 C315 1.400 . S
C313 N316 1.351 . S
C313 C318 1.501 . S
C314 C315 1.387 . S
C314 N317 1.341 . S
C315 C313 1.400 . S
C315 C314 1.387 . S
N316 Co307 2.022 . S
N316 C313 1.351 . S
N316 N317 1.365 . S
N317 C314 1.341 . S
N317 N316 1.365 . S
N317 H337 0.862 . S
C318 C313 1.501 . S
C318 H319 0.961 . S
C318 H320 0.961 . S
C318 H321 0.960 . S
H319 C318 0.961 . S
H320 C318 0.961 . S
H321 C318 0.960 . S
C322 N323 1.342 . S
C322 C326 1.401 . S
C322 C327 1.499 . S
N323 Co306 1.989 . S
N323 C322 1.342 . S
N323 N324 1.388 . S
N324 Co307 1.993 . S
N324 N323 1.388 . S
N324 C325 1.346 . S
C325 N324 1.346 . S
C325 C326 1.396 . S
C325 C335 1.510 . S
C326 C322 1.401 . S
C326 C325 1.396 . S
C327 C322 1.499 . S
C327 H328 0.959 . S
C327 H329 0.960 . S
C327 H330 0.961 . S
H328 C327 0.959 . S
H329 C327 0.960 . S
H330 C327 0.961 . S
O331 Co306 1.967 . S
O331 C339 1.258 . S
O332 Co307 1.941 . S
O332 C339 1.266 . S
H333 C335 0.959 . S
H334 C335 0.961 . S
C335 C325 1.510 . S
C335 H333 0.959 . S
C335 H334 0.961 . S
C335 H336 0.960 . S
H336 C335 0.960 . S
H337 N317 0.862 . S
O338 Co306 1.920 . S
O338 C311 1.289 . S
C339 O331 1.258 . S
C339 O332 1.266 . S
Co340 O343 1.970 . S
Co340 N357 1.989 . S
Co340 O365 1.967 . S
Co340 O372 1.920 . S
Co341 O344 1.966 . S
Co341 N350 2.022 . S
Co341 N358 1.993 . S
Co341 O366 1.941 . S
C342 O343 1.258 . S
C342 O344 1.263 . S
O343 Co340 1.970 . S
O343 C342 1.258 . S
O344 Co341 1.966 . S
O344 C342 1.263 . S
C345 O346 1.235 . S
C345 O372 1.289 . S
O346 C345 1.235 . S
C347 C349 1.400 . S
C347 N350 1.351 . S
C347 C352 1.501 . S
C348 C349 1.387 . S
C348 N351 1.341 . S
C349 C347 1.400 . S
C349 C348 1.387 . S
N350 Co341 2.022 . S
N350 C347 1.351 . S
N350 N351 1.365 . S
N351 C348 1.341 . S
N351 N350 1.365 . S
N351 H371 0.862 . S
C352 C347 1.501 . S
C352 H353 0.961 . S
C352 H354 0.961 . S
C352 H355 0.960 . S
H353 C352 0.961 . S
H354 C352 0.961 . S
H355 C352 0.960 . S
C356 N357 1.342 . S
C356 C360 1.401 . S
C356 C361 1.499 . S
N357 Co340 1.989 . S
N357 C356 1.342 . S
N357 N358 1.388 . S
N358 Co341 1.993 . S
N358 N357 1.388 . S
N358 C359 1.346 . S
C359 N358 1.346 . S
C359 C360 1.396 . S
C359 C369 1.510 . S
C360 C356 1.401 . S
C360 C359 1.396 . S
C361 C356 1.499 . S
C361 H362 0.959 . S
C361 H363 0.960 . S
C361 H364 0.961 . S
H362 C361 0.959 . S
H363 C361 0.960 . S
H364 C361 0.961 . S
O365 Co340 1.967 . S
O365 C373 1.258 . S
O366 Co341 1.941 . S
O366 C373 1.266 . S
H367 C369 0.959 . S
H368 C369 0.961 . S
C369 C359 1.510 . S
C369 H367 0.959 . S
C369 H368 0.961 . S
C369 H370 0.960 . S
H370 C369 0.960 . S
H371 N351 0.862 . S
O372 Co340 1.920 . S
O372 C345 1.289 . S
C373 O365 1.258 . S
C373 O366 1.266 . S
Co374 O377 1.970 . S
Co374 N391 1.989 . S
Co374 O399 1.967 . S
Co374 O406 1.920 . S
Co375 O378 1.966 . S
Co375 N384 2.022 . S
Co375 N392 1.993 . S
Co375 O400 1.941 . S
C376 O377 1.258 . S
C376 O378 1.263 . S
O377 Co374 1.970 . S
O377 C376 1.258 . S
O378 Co375 1.966 . S
O378 C376 1.263 . S
C379 O380 1.235 . S
C379 O406 1.289 . S
O380 C379 1.235 . S
C381 C383 1.400 . S
C381 N384 1.351 . S
C381 C386 1.501 . S
C382 C383 1.387 . S
C382 N385 1.341 . S
C383 C381 1.400 . S
C383 C382 1.387 . S
N384 Co375 2.022 . S
N384 C381 1.351 . S
N384 N385 1.365 . S
N385 C382 1.341 . S
N385 N384 1.365 . S
N385 H405 0.862 . S
C386 C381 1.501 . S
C386 H387 0.961 . S
C386 H388 0.961 . S
C386 H389 0.960 . S
H387 C386 0.961 . S
H388 C386 0.961 . S
H389 C386 0.960 . S
C390 N391 1.342 . S
C390 C394 1.401 . S
C390 C395 1.499 . S
N391 Co374 1.989 . S
N391 C390 1.342 . S
N391 N392 1.388 . S
N392 Co375 1.993 . S
N392 N391 1.388 . S
N392 C393 1.346 . S
C393 N392 1.346 . S
C393 C394 1.396 . S
C393 C403 1.510 . S
C394 C390 1.401 . S
C394 C393 1.396 . S
C395 C390 1.499 . S
C395 H396 0.959 . S
C395 H397 0.960 . S
C395 H398 0.961 . S
H396 C395 0.959 . S
H397 C395 0.960 . S
H398 C395 0.961 . S
O399 Co374 1.967 . S
O399 C407 1.258 . S
O400 Co375 1.941 . S
O400 C407 1.266 . S
H401 C403 0.959 . S
H402 C403 0.961 . S
C403 C393 1.510 . S
C403 H401 0.959 . S
C403 H402 0.961 . S
C403 H404 0.960 . S
H404 C403 0.960 . S
H405 N385 0.862 . S
O406 Co374 1.920 . S
O406 C379 1.289 . S
C407 O399 1.258 . S
C407 O400 1.266 . S
Co408 O411 1.970 . S
Co408 N425 1.989 . S
Co408 O433 1.967 . S
Co408 O440 1.920 . S
Co409 O412 1.966 . S
Co409 N418 2.022 . S
Co409 N426 1.993 . S
Co409 O434 1.941 . S
C410 O411 1.258 . S
C410 O412 1.263 . S
O411 Co408 1.970 . S
O411 C410 1.258 . S
O412 Co409 1.966 . S
O412 C410 1.263 . S
C413 O414 1.235 . S
C413 O440 1.289 . S
O414 C413 1.235 . S
C415 C417 1.400 . S
C415 N418 1.351 . S
C415 C420 1.501 . S
C416 C417 1.387 . S
C416 N419 1.341 . S
C417 C415 1.400 . S
C417 C416 1.387 . S
N418 Co409 2.022 . S
N418 C415 1.351 . S
N418 N419 1.365 . S
N419 C416 1.341 . S
N419 N418 1.365 . S
N419 H439 0.862 . S
C420 C415 1.501 . S
C420 H421 0.961 . S
C420 H422 0.961 . S
C420 H423 0.960 . S
H421 C420 0.961 . S
H422 C420 0.961 . S
H423 C420 0.960 . S
C424 N425 1.342 . S
C424 C428 1.401 . S
C424 C429 1.499 . S
N425 Co408 1.989 . S
N425 C424 1.342 . S
N425 N426 1.388 . S
N426 Co409 1.993 . S
N426 N425 1.388 . S
N426 C427 1.346 . S
C427 N426 1.346 . S
C427 C428 1.396 . S
C427 C437 1.510 . S
C428 C424 1.401 . S
C428 C427 1.396 . S
C429 C424 1.499 . S
C429 H430 0.959 . S
C429 H431 0.960 . S
C429 H432 0.961 . S
H430 C429 0.959 . S
H431 C429 0.960 . S
H432 C429 0.961 . S
O433 Co408 1.967 . S
O433 C441 1.258 . S
O434 Co409 1.941 . S
O434 C441 1.266 . S
H435 C437 0.959 . S
H436 C437 0.961 . S
C437 C427 1.510 . S
C437 H435 0.959 . S
C437 H436 0.961 . S
C437 H438 0.960 . S
H438 C437 0.960 . S
H439 N419 0.862 . S
O440 Co408 1.920 . S
O440 C413 1.289 . S
C441 O433 1.258 . S
C441 O434 1.266 . S
Co442 O445 1.970 . S
Co442 N459 1.989 . S
Co442 O467 1.967 . S
Co442 O474 1.920 . S
Co443 O446 1.966 . S
Co443 N452 2.022 . S
Co443 N460 1.993 . S
Co443 O468 1.941 . S
C444 O445 1.258 . S
C444 O446 1.263 . S
O445 Co442 1.970 . S
O445 C444 1.258 . S
O446 Co443 1.966 . S
O446 C444 1.263 . S
C447 O448 1.235 . S
C447 O474 1.289 . S
O448 C447 1.235 . S
C449 C451 1.400 . S
C449 N452 1.351 . S
C449 C454 1.501 . S
C450 C451 1.387 . S
C450 N453 1.341 . S
C451 C449 1.400 . S
C451 C450 1.387 . S
N452 Co443 2.022 . S
N452 C449 1.351 . S
N452 N453 1.365 . S
N453 C450 1.341 . S
N453 N452 1.365 . S
N453 H473 0.862 . S
C454 C449 1.501 . S
C454 H455 0.961 . S
C454 H456 0.961 . S
C454 H457 0.960 . S
H455 C454 0.961 . S
H456 C454 0.961 . S
H457 C454 0.960 . S
C458 N459 1.342 . S
C458 C462 1.401 . S
C458 C463 1.499 . S
N459 Co442 1.989 . S
N459 C458 1.342 . S
N459 N460 1.388 . S
N460 Co443 1.993 . S
N460 N459 1.388 . S
N460 C461 1.346 . S
C461 N460 1.346 . S
C461 C462 1.396 . S
C461 C471 1.510 . S
C462 C458 1.401 . S
C462 C461 1.396 . S
C463 C458 1.499 . S
C463 H464 0.959 . S
C463 H465 0.960 . S
C463 H466 0.961 . S
H464 C463 0.959 . S
H465 C463 0.960 . S
H466 C463 0.961 . S
O467 Co442 1.967 . S
O467 C475 1.258 . S
O468 Co443 1.941 . S
O468 C475 1.266 . S
H469 C471 0.959 . S
H470 C471 0.961 . S
C471 C461 1.510 . S
C471 H469 0.959 . S
C471 H470 0.961 . S
C471 H472 0.960 . S
H472 C471 0.960 . S
H473 N453 0.862 . S
O474 Co442 1.920 . S
O474 C447 1.289 . S
C475 O467 1.258 . S
C475 O468 1.266 . S
Co476 O479 1.970 . S
Co476 N493 1.989 . S
Co476 O501 1.967 . S
Co476 O508 1.920 . S
Co477 O480 1.966 . S
Co477 N486 2.022 . S
Co477 N494 1.993 . S
Co477 O502 1.941 . S
C478 O479 1.258 . S
C478 O480 1.263 . S
O479 Co476 1.970 . S
O479 C478 1.258 . S
O480 Co477 1.966 . S
O480 C478 1.263 . S
C481 O482 1.235 . S
C481 O508 1.289 . S
O482 C481 1.235 . S
C483 C485 1.400 . S
C483 N486 1.351 . S
C483 C488 1.501 . S
C484 C485 1.387 . S
C484 N487 1.341 . S
C485 C483 1.400 . S
C485 C484 1.387 . S
N486 Co477 2.022 . S
N486 C483 1.351 . S
N486 N487 1.365 . S
N487 C484 1.341 . S
N487 N486 1.365 . S
N487 H507 0.862 . S
C488 C483 1.501 . S
C488 H489 0.961 . S
C488 H490 0.961 . S
C488 H491 0.960 . S
H489 C488 0.961 . S
H490 C488 0.961 . S
H491 C488 0.960 . S
C492 N493 1.342 . S
C492 C496 1.401 . S
C492 C497 1.499 . S
N493 Co476 1.989 . S
N493 C492 1.342 . S
N493 N494 1.388 . S
N494 Co477 1.993 . S
N494 N493 1.388 . S
N494 C495 1.346 . S
C495 N494 1.346 . S
C495 C496 1.396 . S
C495 C505 1.510 . S
C496 C492 1.401 . S
C496 C495 1.396 . S
C497 C492 1.499 . S
C497 H498 0.959 . S
C497 H499 0.960 . S
C497 H500 0.961 . S
H498 C497 0.959 . S
H499 C497 0.960 . S
H500 C497 0.961 . S
O501 Co476 1.967 . S
O501 C509 1.258 . S
O502 Co477 1.941 . S
O502 C509 1.266 . S
H503 C505 0.959 . S
H504 C505 0.961 . S
C505 C495 1.510 . S
C505 H503 0.959 . S
C505 H504 0.961 . S
C505 H506 0.960 . S
H506 C505 0.960 . S
H507 N487 0.862 . S
O508 Co476 1.920 . S
O508 C481 1.289 . S
C509 O501 1.258 . S
C509 O502 1.266 . S
Co510 O513 1.970 . S
Co510 N527 1.989 . S
Co510 O535 1.967 . S
Co510 O542 1.920 . S
Co511 O514 1.966 . S
Co511 N520 2.022 . S
Co511 N528 1.993 . S
Co511 O536 1.941 . S
C512 O513 1.258 . S
C512 O514 1.263 . S
O513 Co510 1.970 . S
O513 C512 1.258 . S
O514 Co511 1.966 . S
O514 C512 1.263 . S
C515 O516 1.235 . S
C515 O542 1.289 . S
O516 C515 1.235 . S
C517 C519 1.400 . S
C517 N520 1.351 . S
C517 C522 1.501 . S
C518 C519 1.387 . S
C518 N521 1.341 . S
C519 C517 1.400 . S
C519 C518 1.387 . S
N520 Co511 2.022 . S
N520 C517 1.351 . S
N520 N521 1.365 . S
N521 C518 1.341 . S
N521 N520 1.365 . S
N521 H541 0.862 . S
C522 C517 1.501 . S
C522 H523 0.961 . S
C522 H524 0.961 . S
C522 H525 0.960 . S
H523 C522 0.961 . S
H524 C522 0.961 . S
H525 C522 0.960 . S
C526 N527 1.342 . S
C526 C530 1.401 . S
C526 C531 1.499 . S
N527 Co510 1.989 . S
N527 C526 1.342 . S
N527 N528 1.388 . S
N528 Co511 1.993 . S
N528 N527 1.388 . S
N528 C529 1.346 . S
C529 N528 1.346 . S
C529 C530 1.396 . S
C529 C539 1.510 . S
C530 C526 1.401 . S
C530 C529 1.396 . S
C531 C526 1.499 . S
C531 H532 0.959 . S
C531 H533 0.960 . S
C531 H534 0.961 . S
H532 C531 0.959 . S
H533 C531 0.960 . S
H534 C531 0.961 . S
O535 Co510 1.967 . S
O535 C543 1.258 . S
O536 Co511 1.941 . S
O536 C543 1.266 . S
H537 C539 0.959 . S
H538 C539 0.961 . S
C539 C529 1.510 . S
C539 H537 0.959 . S
C539 H538 0.961 . S
C539 H540 0.960 . S
H540 C539 0.960 . S
H541 N521 0.862 . S
O542 Co510 1.920 . S
O542 C515 1.289 . S
C543 O535 1.258 . S
C543 O536 1.266 . S
C544 C545 1.363 . S
C544 C550 1.379 . S
C544 N552 1.356 . S
C545 C544 1.363 . S
C545 C551 1.363 . S
C546 C547 1.363 . S
C546 C551 1.379 . S
C546 N553 1.356 . S
C547 C546 1.363 . S
C547 C550 1.363 . S
N548 C550 1.356 . S
N548 H560 0.984 . S
N548 H561 0.985 . S
N549 C551 1.356 . S
N549 H554 0.984 . S
N549 H555 0.985 . S
C550 C544 1.379 . S
C550 C547 1.363 . S
C550 N548 1.356 . S
C551 C545 1.363 . S
C551 C546 1.379 . S
C551 N549 1.356 . S
N552 C544 1.356 . S
N552 H558 0.984 . S
N552 H559 0.984 . S
N553 C546 1.356 . S
N553 H556 0.984 . S
N553 H557 0.985 . S
H554 N549 0.984 . S
H555 N549 0.985 . S
H556 N553 0.984 . S
H557 N553 0.985 . S
H558 N552 0.984 . S
H559 N552 0.984 . S
H560 N548 0.984 . S
H561 N548 0.985 . S
C562 C563 1.363 . S
C562 C568 1.379 . S
C562 N570 1.356 . S
C563 C562 1.363 . S
C563 C569 1.363 . S
C564 C565 1.363 . S
C564 C569 1.379 . S
C564 N571 1.356 . S
C565 C564 1.363 . S
C565 C568 1.363 . S
N566 C568 1.356 . S
N566 H578 0.984 . S
N566 H579 0.985 . S
N567 C569 1.356 . S
N567 H572 0.984 . S
N567 H573 0.985 . S
C568 C562 1.379 . S
C568 C565 1.363 . S
C568 N566 1.356 . S
C569 C563 1.363 . S
C569 C564 1.379 . S
C569 N567 1.356 . S
N570 C562 1.356 . S
N570 H576 0.984 . S
N570 H577 0.984 . S
N571 C564 1.356 . S
N571 H574 0.984 . S
N571 H575 0.985 . S
H572 N567 0.984 . S
H573 N567 0.985 . S
H574 N571 0.984 . S
H575 N571 0.985 . S
H576 N570 0.984 . S
H577 N570 0.984 . S
H578 N566 0.984 . S
H579 N566 0.985 . S
C580 C581 1.363 . S
C580 C586 1.379 . S
C580 N588 1.356 . S
C581 C580 1.363 . S
C581 C587 1.363 . S
C582 C583 1.363 . S
C582 C587 1.379 . S
C582 N589 1.356 . S
C583 C582 1.363 . S
C583 C586 1.363 . S
N584 C586 1.356 . S
N584 H596 0.984 . S
N584 H597 0.985 . S
N585 C587 1.356 . S
N585 H590 0.984 . S
N585 H591 0.985 . S
C586 C580 1.379 . S
C586 C583 1.363 . S
C586 N584 1.356 . S
C587 C581 1.363 . S
C587 C582 1.379 . S
C587 N585 1.356 . S
N588 C580 1.356 . S
N588 H594 0.984 . S
N588 H595 0.984 . S
N589 C582 1.356 . S
N589 H592 0.984 . S
N589 H593 0.985 . S
H590 N585 0.984 . S
H591 N585 0.985 . S
H592 N589 0.984 . S
H593 N589 0.985 . S
H594 N588 0.984 . S
H595 N588 0.984 . S
H596 N584 0.984 . S
H597 N584 0.985 . S
C598 C599 1.363 . S
C598 C604 1.379 . S
C598 N606 1.356 . S
C599 C598 1.363 . S
C599 C605 1.363 . S
C600 C601 1.363 . S
C600 C605 1.379 . S
C600 N607 1.356 . S
C601 C600 1.363 . S
C601 C604 1.363 . S
N602 C604 1.356 . S
N602 H614 0.984 . S
N602 H615 0.985 . S
N603 C605 1.356 . S
N603 H608 0.984 . S
N603 H609 0.985 . S
C604 C598 1.379 . S
C604 C601 1.363 . S
C604 N602 1.356 . S
C605 C599 1.363 . S
C605 C600 1.379 . S
C605 N603 1.356 . S
N606 C598 1.356 . S
N606 H612 0.984 . S
N606 H613 0.984 . S
N607 C600 1.356 . S
N607 H610 0.984 . S
N607 H611 0.985 . S
H608 N603 0.984 . S
H609 N603 0.985 . S
H610 N607 0.984 . S
H611 N607 0.985 . S
H612 N606 0.984 . S
H613 N606 0.984 . S
H614 N602 0.984 . S
H615 N602 0.985 . S
C616 C617 1.363 . S
C616 C622 1.379 . S
C616 N624 1.356 . S
C617 C616 1.363 . S
C617 C623 1.363 . S
C618 C619 1.363 . S
C618 C623 1.379 . S
C618 N625 1.356 . S
C619 C618 1.363 . S
C619 C622 1.363 . S
N620 C622 1.356 . S
N620 H632 0.984 . S
N620 H633 0.985 . S
N621 C623 1.356 . S
N621 H626 0.984 . S
N621 H627 0.985 . S
C622 C616 1.379 . S
C622 C619 1.363 . S
C622 N620 1.356 . S
C623 C617 1.363 . S
C623 C618 1.379 . S
C623 N621 1.356 . S
N624 C616 1.356 . S
N624 H630 0.984 . S
N624 H631 0.984 . S
N625 C618 1.356 . S
N625 H628 0.984 . S
N625 H629 0.985 . S
H626 N621 0.984 . S
H627 N621 0.985 . S
H628 N625 0.984 . S
H629 N625 0.985 . S
H630 N624 0.984 . S
H631 N624 0.984 . S
H632 N620 0.984 . S
H633 N620 0.985 . S
C634 C635 1.363 . S
C634 C640 1.379 . S
C634 N642 1.356 . S
C635 C634 1.363 . S
C635 C641 1.363 . S
C636 C637 1.363 . S
C636 C641 1.379 . S
C636 N643 1.356 . S
C637 C636 1.363 . S
C637 C640 1.363 . S
N638 C640 1.356 . S
N638 H650 0.984 . S
N638 H651 0.985 . S
N639 C641 1.356 . S
N639 H644 0.984 . S
N639 H645 0.985 . S
C640 C634 1.379 . S
C640 C637 1.363 . S
C640 N638 1.356 . S
C641 C635 1.363 . S
C641 C636 1.379 . S
C641 N639 1.356 . S
N642 C634 1.356 . S
N642 H648 0.984 . S
N642 H649 0.984 . S
N643 C636 1.356 . S
N643 H646 0.984 . S
N643 H647 0.985 . S
H644 N639 0.984 . S
H645 N639 0.985 . S
H646 N643 0.984 . S
H647 N643 0.985 . S
H648 N642 0.984 . S
H649 N642 0.984 . S
H650 N638 0.984 . S
H651 N638 0.985 . S
C652 C653 1.363 . S
C652 C658 1.379 . S
C652 N660 1.356 . S
C653 C652 1.363 . S
C653 C659 1.363 . S
C654 C655 1.363 . S
C654 C659 1.379 . S
C654 N661 1.356 . S
C655 C654 1.363 . S
C655 C658 1.363 . S
N656 C658 1.356 . S
N656 H668 0.984 . S
N656 H669 0.985 . S
N657 C659 1.356 . S
N657 H662 0.984 . S
N657 H663 0.985 . S
C658 C652 1.379 . S
C658 C655 1.363 . S
C658 N656 1.356 . S
C659 C653 1.363 . S
C659 C654 1.379 . S
C659 N657 1.356 . S
N660 C652 1.356 . S
N660 H666 0.984 . S
N660 H667 0.984 . S
N661 C654 1.356 . S
N661 H664 0.984 . S
N661 H665 0.985 . S
H662 N657 0.984 . S
H663 N657 0.985 . S
H664 N661 0.984 . S
H665 N661 0.985 . S
H666 N660 0.984 . S
H667 N660 0.984 . S
H668 N656 0.984 . S
H669 N656 0.985 . S
C670 C671 1.363 . S
C670 C676 1.379 . S
C670 N678 1.356 . S
C671 C670 1.363 . S
C671 C677 1.363 . S
C672 C673 1.363 . S
C672 C677 1.379 . S
C672 N679 1.356 . S
C673 C672 1.363 . S
C673 C676 1.363 . S
N674 C676 1.356 . S
N674 H686 0.984 . S
N674 H687 0.985 . S
N675 C677 1.356 . S
N675 H680 0.984 . S
N675 H681 0.985 . S
C676 C670 1.379 . S
C676 C673 1.363 . S
C676 N674 1.356 . S
C677 C671 1.363 . S
C677 C672 1.379 . S
C677 N675 1.356 . S
N678 C670 1.356 . S
N678 H684 0.984 . S
N678 H685 0.984 . S
N679 C672 1.356 . S
N679 H682 0.984 . S
N679 H683 0.985 . S
H680 N675 0.984 . S
H681 N675 0.985 . S
H682 N679 0.984 . S
H683 N679 0.985 . S
H684 N678 0.984 . S
H685 N678 0.984 . S
H686 N674 0.984 . S
H687 N674 0.985 . S
C688 C689 1.363 1_556 S
C688 C694 1.379 . S
C688 N696 1.356 1_565 S
C689 C688 1.363 1_554 S
C689 C695 1.363 . S
C690 C691 1.363 . S
C690 C695 1.379 . S
C690 N697 1.356 . S
C691 C690 1.363 . S
C691 C694 1.363 1_554 S
N692 C694 1.356 . S
N692 H704 0.984 . S
N692 H705 0.985 . S
N693 C695 1.356 . S
N693 H698 0.980 1_565 S
N693 H699 0.985 . S
C694 C688 1.379 . S
C694 C691 1.363 1_556 S
C694 N692 1.356 . S
C695 C689 1.363 . S
C695 C690 1.379 . S
C695 N693 1.356 . S
N696 C688 1.356 1_545 S
N696 H702 0.984 . S
N696 H703 0.984 . S
N697 C690 1.356 . S
N697 H700 0.984 . S
N697 H701 0.985 . S
H698 N693 0.980 1_545 S
H699 N693 0.985 . S
H700 N697 0.984 . S
H701 N697 0.985 . S
H702 N696 0.984 . S
H703 N696 0.984 . S
H704 N692 0.984 . S
H705 N692 0.985 . S
C706 C707 1.363 . S
C706 C712 1.379 . S
C706 N714 1.356 1_655 S
C707 C706 1.363 . S
C707 C713 1.363 . S
C708 C709 1.363 1_554 S
C708 C713 1.379 1_554 S
C708 N715 1.356 . S
C709 C708 1.363 1_556 S
C709 C712 1.363 . S
N710 C712 1.356 . S
N710 H722 0.984 . S
N710 H723 0.985 . S
N711 C713 1.356 1_554 S
N711 H716 0.984 1_654 S
N711 H717 0.985 . S
C712 C706 1.379 . S
C712 C709 1.363 . S
C712 N710 1.356 . S
C713 C707 1.363 . S
C713 C708 1.379 1_556 S
C713 N711 1.356 1_556 S
N714 C706 1.356 1_455 S
N714 H720 0.984 . S
N714 H721 0.984 . S
N715 C708 1.356 . S
N715 H718 0.984 . S
N715 H719 0.985 . S
H716 N711 0.984 1_456 S
H717 N711 0.985 . S
H718 N715 0.984 . S
H719 N715 0.985 . S
H720 N714 0.984 . S
H721 N714 0.984 . S
H722 N710 0.984 . S
H723 N710 0.985 . S
C724 C725 1.363 . S
C724 C730 1.379 . S
C724 N732 1.356 1_545 S
C725 C724 1.363 . S
C725 C731 1.363 . S
C726 C727 1.363 . S
C726 C731 1.379 . S
C726 N733 1.356 . S
C727 C726 1.363 . S
C727 C730 1.363 . S
N728 C730 1.356 1_556 S
N728 H740 0.984 . S
N728 H741 0.985 . S
N729 C731 1.356 . S
N729 H734 0.986 1_545 S
N729 H735 0.985 . S
C730 C724 1.379 . S
C730 C727 1.363 . S
C730 N728 1.356 1_554 S
C731 C725 1.363 . S
C731 C726 1.379 . S
C731 N729 1.356 . S
N732 C724 1.356 1_565 S
N732 H738 0.983 . S
N732 H739 0.984 . S
N733 C726 1.356 . S
N733 H736 0.984 . S
N733 H737 0.985 . S
H734 N729 0.986 1_565 S
H735 N729 0.985 . S
H736 N733 0.984 . S
H737 N733 0.985 . S
H738 N732 0.983 . S
H739 N732 0.984 . S
H740 N728 0.984 . S
H741 N728 0.985 . S
C742 C743 1.363 1_554 S
C742 C748 1.379 . S
C742 N750 1.356 . S
C743 C742 1.363 1_556 S
C743 C749 1.363 . S
C744 C745 1.363 . S
C744 C749 1.379 . S
C744 N751 1.356 . S
C745 C744 1.363 . S
C745 C748 1.363 1_556 S
N746 C748 1.356 . S
N746 H758 0.984 . S
N746 H759 0.985 1_455 S
N747 C749 1.356 . S
N747 H752 0.984 . S
N747 H753 0.985 . S
C748 C742 1.379 . S
C748 C745 1.363 1_554 S
C748 N746 1.356 . S
C749 C743 1.363 . S
C749 C744 1.379 . S
C749 N747 1.356 . S
N750 C742 1.356 . S
N750 H756 0.984 . S
N750 H757 0.984 . S
N751 C744 1.356 . S
N751 H754 0.984 1_455 S
N751 H755 0.985 . S
H752 N747 0.984 . S
H753 N747 0.985 . S
H754 N751 0.984 1_655 S
H755 N751 0.985 . S
H756 N750 0.984 . S
H757 N750 0.984 . S
H758 N746 0.984 . S
H759 N746 0.985 1_655 S
C760 C761 1.363 . S
C760 C766 1.379 . S
C760 N768 1.356 . S
C761 C760 1.363 . S
C761 C767 1.363 . S
C762 C763 1.363 . S
C762 C767 1.379 . S
C762 N769 1.356 . S
C763 C762 1.363 . S
C763 C766 1.363 . S
N764 C766 1.356 . S
N764 H776 0.984 . S
N764 H777 0.985 . S
N765 C767 1.356 . S
N765 H770 0.984 . S
N765 H771 0.985 . S
C766 C760 1.379 . S
C766 C763 1.363 . S
C766 N764 1.356 . S
C767 C761 1.363 . S
C767 C762 1.379 . S
C767 N765 1.356 . S
N768 C760 1.356 . S
N768 H774 0.984 . S
N768 H775 0.984 . S
N769 C762 1.356 . S
N769 H772 0.984 . S
N769 H773 0.985 . S
H770 N765 0.984 . S
H771 N765 0.985 . S
H772 N769 0.984 . S
H773 N769 0.985 . S
H774 N768 0.984 . S
H775 N768 0.984 . S
H776 N764 0.984 . S
H777 N764 0.985 . S
C778 C779 1.363 . S
C778 C784 1.379 . S
C778 N786 1.356 . S
C779 C778 1.363 . S
C779 C785 1.363 . S
C780 C781 1.363 . S
C780 C785 1.379 . S
C780 N787 1.356 . S
C781 C780 1.363 . S
C781 C784 1.363 . S
N782 C784 1.356 . S
N782 H794 0.984 . S
N782 H795 0.985 . S
N783 C785 1.356 . S
N783 H788 0.984 . S
N783 H789 0.985 . S
C784 C778 1.379 . S
C784 C781 1.363 . S
C784 N782 1.356 . S
C785 C779 1.363 . S
C785 C780 1.379 . S
C785 N783 1.356 . S
N786 C778 1.356 . S
N786 H792 0.984 . S
N786 H793 0.984 . S
N787 C780 1.356 . S
N787 H790 0.984 . S
N787 H791 0.985 . S
H788 N783 0.984 . S
H789 N783 0.985 . S
H790 N787 0.984 . S
H791 N787 0.985 . S
H792 N786 0.984 . S
H793 N786 0.984 . S
H794 N782 0.984 . S
H795 N782 0.985 . S
C796 C797 1.363 . S
C796 C802 1.379 . S
C796 N804 1.356 . S
C797 C796 1.363 . S
C797 C803 1.363 . S
C798 C799 1.363 . S
C798 C803 1.379 . S
C798 N805 1.356 . S
C799 C798 1.363 . S
C799 C802 1.363 . S
N800 C802 1.356 . S
N800 H812 0.984 . S
N800 H813 0.985 . S
N801 C803 1.356 . S
N801 H806 0.984 . S
N801 H807 0.985 . S
C802 C796 1.379 . S
C802 C799 1.363 . S
C802 N800 1.356 . S
C803 C797 1.363 . S
C803 C798 1.379 . S
C803 N801 1.356 . S
N804 C796 1.356 . S
N804 H810 0.984 . S
N804 H811 0.984 . S
N805 C798 1.356 . S
N805 H808 0.984 . S
N805 H809 0.985 . S
H806 N801 0.984 . S
H807 N801 0.985 . S
H808 N805 0.984 . S
H809 N805 0.985 . S
H810 N804 0.984 . S
H811 N804 0.984 . S
H812 N800 0.984 . S
H813 N800 0.985 . S
C814 C815 1.363 . S
C814 C820 1.379 . S
C814 N822 1.356 . S
C815 C814 1.363 . S
C815 C821 1.363 . S
C816 C817 1.363 . S
C816 C821 1.379 . S
C816 N823 1.356 . S
C817 C816 1.363 . S
C817 C820 1.363 . S
N818 C820 1.356 . S
N818 H830 0.984 . S
N818 H831 0.985 . S
N819 C821 1.356 . S
N819 H824 0.984 . S
N819 H825 0.985 . S
C820 C814 1.379 . S
C820 C817 1.363 . S
C820 N818 1.356 . S
C821 C815 1.363 . S
C821 C816 1.379 . S
C821 N819 1.356 . S
N822 C814 1.356 . S
N822 H828 0.984 . S
N822 H829 0.984 . S
N823 C816 1.356 . S
N823 H826 0.984 . S
N823 H827 0.985 . S
H824 N819 0.984 . S
H825 N819 0.985 . S
H826 N823 0.984 . S
H827 N823 0.985 . S
H828 N822 0.984 . S
H829 N822 0.984 . S
H830 N818 0.984 . S
H831 N818 0.985 . S
C832 C833 1.363 . S
C832 C838 1.379 . S
C832 N840 1.356 . S
C833 C832 1.363 . S
C833 C839 1.363 . S
C834 C835 1.363 . S
C834 C839 1.379 . S
C834 N841 1.356 . S
C835 C834 1.363 . S
C835 C838 1.363 . S
N836 C838 1.356 . S
N836 H848 0.984 . S
N836 H849 0.985 . S
N837 C839 1.356 . S
N837 H842 0.984 . S
N837 H843 0.985 . S
C838 C832 1.379 . S
C838 C835 1.363 . S
C838 N836 1.356 . S
C839 C833 1.363 . S
C839 C834 1.379 . S
C839 N837 1.356 . S
N840 C832 1.356 . S
N840 H846 0.984 . S
N840 H847 0.984 . S
N841 C834 1.356 . S
N841 H844 0.984 . S
N841 H845 0.985 . S
H842 N837 0.984 . S
H843 N837 0.985 . S
H844 N841 0.984 . S
H845 N841 0.985 . S
H846 N840 0.984 . S
H847 N840 0.984 . S
H848 N836 0.984 . S
H849 N836 0.985 . S
C850 C851 1.363 . S
C850 C856 1.379 . S
C850 N858 1.356 . S
C851 C850 1.363 . S
C851 C857 1.363 . S
C852 C853 1.363 . S
C852 C857 1.379 . S
C852 N859 1.356 . S
C853 C852 1.363 . S
C853 C856 1.363 . S
N854 C856 1.356 . S
N854 H866 0.984 . S
N854 H867 0.985 . S
N855 C857 1.356 . S
N855 H860 0.984 . S
N855 H861 0.985 . S
C856 C850 1.379 . S
C856 C853 1.363 . S
C856 N854 1.356 . S
C857 C851 1.363 . S
C857 C852 1.379 . S
C857 N855 1.356 . S
N858 C850 1.356 . S
N858 H864 0.984 . S
N858 H865 0.984 . S
N859 C852 1.356 . S
N859 H862 0.984 . S
N859 H863 0.985 . S
H860 N855 0.984 . S
H861 N855 0.985 . S
H862 N859 0.984 . S
H863 N859 0.985 . S
H864 N858 0.984 . S
H865 N858 0.984 . S
H866 N854 0.984 . S
H867 N854 0.985 . S
C868 C869 1.363 . S
C868 C874 1.379 . S
C868 N876 1.356 . S
C869 C868 1.363 . S
C869 C875 1.363 . S
C870 C871 1.363 . S
C870 C875 1.379 . S
C870 N877 1.356 . S
C871 C870 1.363 . S
C871 C874 1.363 . S
N872 C874 1.356 . S
N872 H884 0.984 . S
N872 H885 0.985 . S
N873 C875 1.356 . S
N873 H878 0.984 . S
N873 H879 0.985 . S
C874 C868 1.379 . S
C874 C871 1.363 . S
C874 N872 1.356 . S
C875 C869 1.363 . S
C875 C870 1.379 . S
C875 N873 1.356 . S
N876 C868 1.356 . S
N876 H882 0.984 . S
N876 H883 0.984 . S
N877 C870 1.356 . S
N877 H880 0.984 . S
N877 H881 0.985 . S
H878 N873 0.984 . S
H879 N873 0.985 . S
H880 N877 0.984 . S
H881 N877 0.985 . S
H882 N876 0.984 . S
H883 N876 0.984 . S
H884 N872 0.984 . S
H885 N872 0.985 . S
C886 C887 1.363 . S
C886 C892 1.379 . S
C886 N894 1.356 . S
C887 C886 1.363 . S
C887 C893 1.363 . S
C888 C889 1.363 . S
C888 C893 1.379 . S
C888 N895 1.356 . S
C889 C888 1.363 . S
C889 C892 1.363 . S
N890 C892 1.356 . S
N890 H902 0.984 . S
N890 H903 0.985 . S
N891 C893 1.356 . S
N891 H896 0.984 . S
N891 H897 0.985 . S
C892 C886 1.379 . S
C892 C889 1.363 . S
C892 N890 1.356 . S
C893 C887 1.363 . S
C893 C888 1.379 . S
C893 N891 1.356 . S
N894 C886 1.356 . S
N894 H900 0.984 . S
N894 H901 0.984 . S
N895 C888 1.356 . S
N895 H898 0.984 . S
N895 H899 0.985 . S
H896 N891 0.984 . S
H897 N891 0.985 . S
H898 N895 0.984 . S
H899 N895 0.985 . S
H900 N894 0.984 . S
H901 N894 0.984 . S
H902 N890 0.984 . S
H903 N890 0.985 . S
C904 C905 1.363 . S
C904 C910 1.379 . S
C904 N912 1.356 . S
C905 C904 1.363 . S
C905 C911 1.363 . S
C906 C907 1.363 . S
C906 C911 1.379 . S
C906 N913 1.356 . S
C907 C906 1.363 . S
C907 C910 1.363 . S
N908 C910 1.356 . S
N908 H920 0.984 . S
N908 H921 0.985 . S
N909 C911 1.356 1_565 S
N909 H914 0.984 . S
N909 H915 0.985 . S
C910 C904 1.379 . S
C910 C907 1.363 . S
C910 N908 1.356 . S
C911 C905 1.363 . S
C911 C906 1.379 . S
C911 N909 1.356 1_545 S
N912 C904 1.356 . S
N912 H918 0.984 . S
N912 H919 0.984 1_545 S
N913 C906 1.356 . S
N913 H916 0.984 . S
N913 H917 0.985 . S
H914 N909 0.984 . S
H915 N909 0.985 . S
H916 N913 0.984 . S
H917 N913 0.985 . S
H918 N912 0.984 . S
H919 N912 0.984 1_565 S
H920 N908 0.984 . S
H921 N908 0.985 . S
C922 C923 1.363 . S
C922 C928 1.379 . S
C922 N930 1.356 . S
C923 C922 1.363 . S
C923 C929 1.363 . S
C924 C925 1.363 . S
C924 C929 1.379 . S
C924 N931 1.356 1_455 S
C925 C924 1.363 . S
C925 C928 1.363 . S
N926 C928 1.356 . S
N926 H938 0.984 . S
N926 H939 0.985 1_455 S
N927 C929 1.356 . S
N927 H932 0.984 . S
N927 H933 0.985 . S
C928 C922 1.379 . S
C928 C925 1.363 . S
C928 N926 1.356 . S
C929 C923 1.363 . S
C929 C924 1.379 . S
C929 N927 1.356 . S
N930 C922 1.356 . S
N930 H936 0.984 . S
N930 H937 0.984 . S
N931 C924 1.356 1_655 S
N931 H934 0.984 . S
N931 H935 0.985 . S
H932 N927 0.984 . S
H933 N927 0.985 . S
H934 N931 0.984 . S
H935 N931 0.985 . S
H936 N930 0.984 . S
H937 N930 0.984 . S
H938 N926 0.984 . S
H939 N926 0.985 1_655 S
C940 C941 1.363 . S
C940 C946 1.379 . S
C940 N948 1.356 . S
C941 C940 1.363 . S
C941 C947 1.363 . S
C942 C943 1.363 . S
C942 C947 1.379 . S
C942 N949 1.356 . S
C943 C942 1.363 . S
C943 C946 1.363 . S
N944 C946 1.356 . S
N944 H956 0.984 . S
N944 H957 0.985 1_565 S
N945 C947 1.356 . S
N945 H950 0.984 . S
N945 H951 0.985 . S
C946 C940 1.379 . S
C946 C943 1.363 . S
C946 N944 1.356 . S
C947 C941 1.363 . S
C947 C942 1.379 . S
C947 N945 1.356 . S
N948 C940 1.356 . S
N948 H954 0.984 . S
N948 H955 0.984 . S
N949 C942 1.356 . S
N949 H952 0.984 1_565 S
N949 H953 0.985 . S
H950 N945 0.984 . S
H951 N945 0.985 . S
H952 N949 0.984 1_545 S
H953 N949 0.985 . S
H954 N948 0.984 . S
H955 N948 0.984 . S
H956 N944 0.984 . S
H957 N944 0.985 1_545 S
C958 C959 1.363 . S
C958 C964 1.379 . S
C958 N966 1.356 . S
C959 C958 1.363 . S
C959 C965 1.363 . S
C960 C961 1.363 . S
C960 C965 1.379 . S
C960 N967 1.356 . S
C961 C960 1.363 . S
C961 C964 1.363 . S
N962 C964 1.356 . S
N962 H974 0.984 . S
N962 H975 0.985 . S
N963 C965 1.356 1_455 S
N963 H968 0.984 . S
N963 H969 0.985 . S
C964 C958 1.379 . S
C964 C961 1.363 . S
C964 N962 1.356 . S
C965 C959 1.363 . S
C965 C960 1.379 . S
C965 N963 1.356 1_655 S
N966 C958 1.356 . S
N966 H972 0.984 . S
N966 H973 0.984 1_655 S
N967 C960 1.356 . S
N967 H970 0.984 . S
N967 H971 0.985 . S
H968 N963 0.984 . S
H969 N963 0.985 . S
H970 N967 0.984 . S
H971 N967 0.985 . S
H972 N966 0.984 . S
H973 N966 0.984 1_455 S
H974 N962 0.984 . S
H975 N962 0.985 . S
C976 C977 1.363 1_556 S
C976 C982 1.379 1_545 S
C976 N984 1.356 . S
C977 C976 1.363 1_554 S
C977 C983 1.363 . S
C978 C979 1.363 . S
C978 C983 1.379 1_565 S
C978 N985 1.356 . S
C979 C978 1.363 . S
C979 C982 1.363 1_554 S
N980 C982 1.356 . S
N980 H992 0.984 . S
N980 H993 0.985 . S
N981 C983 1.356 . S
N981 H986 0.984 . S
N981 H987 0.985 . S
C982 C976 1.379 1_565 S
C982 C979 1.363 1_556 S
C982 N980 1.356 . S
C983 C977 1.363 . S
C983 C978 1.379 1_545 S
C983 N981 1.356 . S
N984 C976 1.356 . S
N984 H990 0.984 1_545 S
N984 H991 0.984 . S
N985 C978 1.356 . S
N985 H988 0.984 . S
N985 H989 0.985 1_565 S
H986 N981 0.984 . S
H987 N981 0.985 . S
H988 N985 0.984 . S
H989 N985 0.985 1_545 S
H990 N984 0.984 1_565 S
H991 N984 0.984 . S
H992 N980 0.984 . S
H993 N980 0.985 . S
C994 C995 1.363 1_554 S
C994 C1000 1.379 1_455 S
C994 N1002 1.356 . S
C995 C994 1.363 1_556 S
C995 C1001 1.363 . S
C996 C997 1.363 . S
C996 C1001 1.379 1_655 S
C996 N1003 1.356 . S
C997 C996 1.363 . S
C997 C1000 1.363 1_556 S
N998 C1000 1.356 . S
N998 H1010 0.984 1_655 S
N998 H1011 0.985 . S
N999 C1001 1.356 . S
N999 H1004 0.984 . S
N999 H1005 0.985 1_455 S
C1000 C994 1.379 1_655 S
C1000 C997 1.363 1_554 S
C1000 N998 1.356 . S
C1001 C995 1.363 . S
C1001 C996 1.379 1_455 S
C1001 N999 1.356 . S
N1002 C994 1.356 . S
N1002 H1008 0.984 . S
N1002 H1009 0.984 . S
N1003 C996 1.356 . S
N1003 H1006 0.984 . S
N1003 H1007 0.985 . S
H1004 N999 0.984 . S
H1005 N999 0.985 1_655 S
H1006 N1003 0.984 . S
H1007 N1003 0.985 . S
H1008 N1002 0.984 . S
H1009 N1002 0.984 . S
H1010 N998 0.984 1_455 S
H1011 N998 0.985 . S
C1012 C1013 1.363 . S
C1012 C1018 1.379 . S
C1012 N1020 1.356 . S
C1013 C1012 1.363 . S
C1013 C1019 1.363 . S
C1014 C1015 1.363 . S
C1014 C1019 1.379 . S
C1014 N1021 1.356 . S
C1015 C1014 1.363 . S
C1015 C1018 1.363 . S
N1016 C1018 1.356 . S
N1016 H1028 0.984 . S
N1016 H1029 0.985 . S
N1017 C1019 1.356 . S
N1017 H1022 0.984 . S
N1017 H1023 0.985 . S
C1018 C1012 1.379 . S
C1018 C1015 1.363 . S
C1018 N1016 1.356 . S
C1019 C1013 1.363 . S
C1019 C1014 1.379 . S
C1019 N1017 1.356 . S
N1020 C1012 1.356 . S
N1020 H1026 0.984 . S
N1020 H1027 0.984 . S
N1021 C1014 1.356 . S
N1021 H1024 0.984 . S
N1021 H1025 0.985 . S
H1022 N1017 0.984 . S
H1023 N1017 0.985 . S
H1024 N1021 0.984 . S
H1025 N1021 0.985 . S
H1026 N1020 0.984 . S
H1027 N1020 0.984 . S
H1028 N1016 0.984 . S
H1029 N1016 0.985 . S
C1030 C1031 1.363 . S
C1030 C1036 1.379 . S
C1030 N1038 1.356 . S
C1031 C1030 1.363 . S
C1031 C1037 1.363 . S
C1032 C1033 1.363 . S
C1032 C1037 1.379 . S
C1032 N1039 1.356 . S
C1033 C1032 1.363 . S
C1033 C1036 1.363 . S
N1034 C1036 1.356 . S
N1034 H1046 0.984 . S
N1034 H1047 0.985 . S
N1035 C1037 1.356 . S
N1035 H1040 0.984 . S
N1035 H1041 0.985 . S
C1036 C1030 1.379 . S
C1036 C1033 1.363 . S
C1036 N1034 1.356 . S
C1037 C1031 1.363 . S
C1037 C1032 1.379 . S
C1037 N1035 1.356 . S
N1038 C1030 1.356 . S
N1038 H1044 0.984 . S
N1038 H1045 0.984 . S
N1039 C1032 1.356 . S
N1039 H1042 0.984 . S
N1039 H1043 0.985 . S
H1040 N1035 0.984 . S
H1041 N1035 0.985 . S
H1042 N1039 0.984 . S
H1043 N1039 0.985 . S
H1044 N1038 0.984 . S
H1045 N1038 0.984 . S
H1046 N1034 0.984 . S
H1047 N1034 0.985 . S
C1048 C1049 1.360 1_455 S
C1048 C1054 1.382 . S
C1048 N1056 1.355 1_455 S
C1049 C1048 1.360 1_655 S
C1049 C1055 1.363 . S
C1050 C1051 1.360 1_655 S
C1050 C1055 1.382 . S
C1050 N1057 1.355 1_655 S
C1051 C1050 1.360 1_455 S
C1051 C1054 1.363 . S
N1052 C1054 1.356 . S
N1052 H1064 0.984 . S
N1052 H1065 0.985 . S
N1053 C1055 1.356 . S
N1053 H1058 0.984 . S
N1053 H1059 0.985 . S
C1054 C1048 1.382 . S
C1054 C1051 1.363 . S
C1054 N1052 1.356 . S
C1055 C1049 1.363 . S
C1055 C1050 1.382 . S
C1055 N1053 1.356 . S
N1056 C1048 1.355 1_655 S
N1056 H1062 0.984 1_655 S
N1056 H1063 0.984 . S
N1057 C1050 1.355 1_455 S
N1057 H1060 0.984 . S
N1057 H1061 0.985 1_455 S
H1058 N1053 0.984 . S
H1059 N1053 0.985 . S
H1060 N1057 0.984 . S
H1061 N1057 0.985 1_655 S
H1062 N1056 0.984 1_455 S
H1063 N1056 0.984 . S
H1064 N1052 0.984 . S
H1065 N1052 0.985 . S
C1066 C1067 1.360 1_565 S
C1066 C1072 1.382 . S
C1066 N1074 1.355 1_565 S
C1067 C1066 1.360 1_545 S
C1067 C1073 1.363 . S
C1068 C1069 1.360 1_545 S
C1068 C1073 1.382 . S
C1068 N1075 1.355 1_545 S
C1069 C1068 1.360 1_565 S
C1069 C1072 1.363 . S
N1070 C1072 1.356 . S
N1070 H1082 0.984 . S
N1070 H1083 0.985 . S
N1071 C1073 1.356 . S
N1071 H1076 0.984 . S
N1071 H1077 0.985 . S
C1072 C1066 1.382 . S
C1072 C1069 1.363 . S
C1072 N1070 1.356 . S
C1073 C1067 1.363 . S
C1073 C1068 1.382 . S
C1073 N1071 1.356 . S
N1074 C1066 1.355 1_545 S
N1074 H1080 0.984 1_545 S
N1074 H1081 0.984 . S
N1075 C1068 1.355 1_565 S
N1075 H1078 0.984 . S
N1075 H1079 0.985 1_565 S
H1076 N1071 0.984 . S
H1077 N1071 0.985 . S
H1078 N1075 0.984 . S
H1079 N1075 0.985 1_545 S
H1080 N1074 0.984 1_565 S
H1081 N1074 0.984 . S
H1082 N1070 0.984 . S
H1083 N1070 0.985 . S
C1084 C1085 1.360 1_455 S
C1084 C1090 1.382 1_565 S
C1084 N1092 1.355 1_455 S
C1085 C1084 1.360 1_655 S
C1085 C1091 1.363 . S
C1086 C1087 1.360 1_655 S
C1086 C1091 1.382 1_545 S
C1086 N1093 1.355 1_655 S
C1087 C1086 1.360 1_455 S
C1087 C1090 1.363 . S
N1088 C1090 1.356 . S
N1088 H1100 0.984 1_545 S
N1088 H1101 0.985 . S
N1089 C1091 1.356 . S
N1089 H1094 0.984 . S
N1089 H1095 0.985 1_565 S
C1090 C1084 1.382 1_545 S
C1090 C1087 1.363 . S
C1090 N1088 1.356 . S
C1091 C1085 1.363 . S
C1091 C1086 1.382 1_565 S
C1091 N1089 1.356 . S
N1092 C1084 1.355 1_655 S
N1092 H1098 0.984 1_655 S
N1092 H1099 0.984 . S
N1093 C1086 1.355 1_455 S
N1093 H1096 0.984 . S
N1093 H1097 0.985 1_455 S
H1094 N1089 0.984 . S
H1095 N1089 0.985 1_545 S
H1096 N1093 0.984 . S
H1097 N1093 0.985 1_655 S
H1098 N1092 0.984 1_455 S
H1099 N1092 0.984 . S
H1100 N1088 0.984 1_565 S
H1101 N1088 0.985 . S
C1102 C1103 1.360 1_565 S
C1102 C1108 1.382 1_655 S
C1102 N1110 1.355 1_565 S
C1103 C1102 1.360 1_545 S
C1103 C1109 1.363 . S
C1104 C1105 1.360 1_545 S
C1104 C1109 1.382 1_455 S
C1104 N1111 1.355 1_545 S
C1105 C1104 1.360 1_565 S
C1105 C1108 1.363 . S
N1106 C1108 1.356 . S
N1106 H1118 0.984 1_455 S
N1106 H1119 0.985 . S
N1107 C1109 1.356 . S
N1107 H1112 0.984 . S
N1107 H1113 0.985 1_655 S
C1108 C1102 1.382 1_455 S
C1108 C1105 1.363 . S
C1108 N1106 1.356 . S
C1109 C1103 1.363 . S
C1109 C1104 1.382 1_655 S
C1109 N1107 1.356 . S
N1110 C1102 1.355 1_545 S
N1110 H1116 0.984 1_545 S
N1110 H1117 0.984 . S
N1111 C1104 1.355 1_565 S
N1111 H1114 0.984 . S
N1111 H1115 0.985 1_565 S
H1112 N1107 0.984 . S
H1113 N1107 0.985 1_455 S
H1114 N1111 0.984 . S
H1115 N1111 0.985 1_545 S
H1116 N1110 0.984 1_565 S
H1117 N1110 0.984 . S
H1118 N1106 0.984 1_655 S
H1119 N1106 0.985 . S
C1120 C1121 1.363 . S
C1120 C1126 1.379 . S
C1120 N1128 1.356 . S
C1121 C1120 1.363 . S
C1121 C1127 1.363 . S
C1122 C1123 1.363 . S
C1122 C1127 1.379 . S
C1122 N1129 1.356 . S
C1123 C1122 1.363 . S
C1123 C1126 1.363 . S
N1124 C1126 1.356 . S
N1124 H1136 0.984 . S
N1124 H1137 0.985 . S
N1125 C1127 1.356 . S
N1125 H1130 0.984 . S
N1125 H1131 0.985 . S
C1126 C1120 1.379 . S
C1126 C1123 1.363 . S
C1126 N1124 1.356 . S
C1127 C1121 1.363 . S
C1127 C1122 1.379 . S
C1127 N1125 1.356 . S
N1128 C1120 1.356 . S
N1128 H1134 0.984 . S
N1128 H1135 0.984 . S
N1129 C1122 1.356 . S
N1129 H1132 0.984 . S
N1129 H1133 0.985 . S
H1130 N1125 0.984 . S
H1131 N1125 0.985 . S
H1132 N1129 0.984 . S
H1133 N1129 0.985 . S
H1134 N1128 0.984 . S
H1135 N1128 0.984 . S
H1136 N1124 0.984 . S
H1137 N1124 0.985 . S
C1138 C1139 1.363 . S
C1138 C1144 1.379 . S
C1138 N1146 1.356 . S
C1139 C1138 1.363 . S
C1139 C1145 1.363 . S
C1140 C1141 1.363 . S
C1140 C1145 1.379 . S
C1140 N1147 1.356 . S
C1141 C1140 1.363 . S
C1141 C1144 1.363 . S
N1142 C1144 1.356 . S
N1142 H1154 0.984 . S
N1142 H1155 0.985 . S
N1143 C1145 1.356 . S
N1143 H1148 0.984 . S
N1143 H1149 0.985 . S
C1144 C1138 1.379 . S
C1144 C1141 1.363 . S
C1144 N1142 1.356 . S
C1145 C1139 1.363 . S
C1145 C1140 1.379 . S
C1145 N1143 1.356 . S
N1146 C1138 1.356 . S
N1146 H1152 0.984 . S
N1146 H1153 0.984 . S
N1147 C1140 1.356 . S
N1147 H1150 0.984 . S
N1147 H1151 0.985 . S
H1148 N1143 0.984 . S
H1149 N1143 0.985 . S
H1150 N1147 0.984 . S
H1151 N1147 0.985 . S
H1152 N1146 0.984 . S
H1153 N1146 0.984 . S
H1154 N1142 0.984 . S
H1155 N1142 0.985 . S
C1156 C1157 1.363 . S
C1156 C1162 1.379 . S
C1156 N1164 1.356 . S
C1157 C1156 1.363 . S
C1157 C1163 1.363 . S
C1158 C1159 1.363 . S
C1158 C1163 1.379 . S
C1158 N1165 1.356 . S
C1159 C1158 1.363 . S
C1159 C1162 1.363 . S
N1160 C1162 1.356 . S
N1160 H1172 0.984 . S
N1160 H1173 0.985 . S
N1161 C1163 1.356 . S
N1161 H1166 0.984 . S
N1161 H1167 0.985 . S
C1162 C1156 1.379 . S
C1162 C1159 1.363 . S
C1162 N1160 1.356 . S
C1163 C1157 1.363 . S
C1163 C1158 1.379 . S
C1163 N1161 1.356 . S
N1164 C1156 1.356 . S
N1164 H1170 0.984 . S
N1164 H1171 0.984 . S
N1165 C1158 1.356 . S
N1165 H1168 0.984 . S
N1165 H1169 0.985 . S
H1166 N1161 0.984 . S
H1167 N1161 0.985 . S
H1168 N1165 0.984 . S
H1169 N1165 0.985 . S
H1170 N1164 0.984 . S
H1171 N1164 0.984 . S
H1172 N1160 0.984 . S
H1173 N1160 0.985 . S
C1174 C1175 1.363 . S
C1174 C1180 1.379 . S
C1174 N1182 1.356 . S
C1175 C1174 1.363 . S
C1175 C1181 1.363 . S
C1176 C1177 1.363 . S
C1176 C1181 1.379 . S
C1176 N1183 1.356 . S
C1177 C1176 1.363 . S
C1177 C1180 1.363 . S
N1178 C1180 1.356 . S
N1178 H1190 0.984 . S
N1178 H1191 0.985 . S
N1179 C1181 1.356 . S
N1179 H1184 0.984 . S
N1179 H1185 0.985 . S
C1180 C1174 1.379 . S
C1180 C1177 1.363 . S
C1180 N1178 1.356 . S
C1181 C1175 1.363 . S
C1181 C1176 1.379 . S
C1181 N1179 1.356 . S
N1182 C1174 1.356 . S
N1182 H1188 0.984 . S
N1182 H1189 0.984 . S
N1183 C1176 1.356 . S
N1183 H1186 0.984 . S
N1183 H1187 0.985 . S
H1184 N1179 0.984 . S
H1185 N1179 0.985 . S
H1186 N1183 0.984 . S
H1187 N1183 0.985 . S
H1188 N1182 0.984 . S
H1189 N1182 0.984 . S
H1190 N1178 0.984 . S
H1191 N1178 0.985 . S
C1192 C1193 1.363 . S
C1192 C1198 1.379 . S
C1192 N1200 1.356 . S
C1193 C1192 1.363 . S
C1193 C1199 1.363 . S
C1194 C1195 1.363 . S
C1194 C1199 1.379 . S
C1194 N1201 1.356 . S
C1195 C1194 1.363 . S
C1195 C1198 1.363 . S
N1196 C1198 1.356 . S
N1196 H1208 0.984 . S
N1196 H1209 0.985 . S
N1197 C1199 1.356 . S
N1197 H1202 0.984 . S
N1197 H1203 0.985 . S
C1198 C1192 1.379 . S
C1198 C1195 1.363 . S
C1198 N1196 1.356 . S
C1199 C1193 1.363 . S
C1199 C1194 1.379 . S
C1199 N1197 1.356 . S
N1200 C1192 1.356 . S
N1200 H1206 0.984 . S
N1200 H1207 0.984 . S
N1201 C1194 1.356 . S
N1201 H1204 0.984 . S
N1201 H1205 0.985 . S
H1202 N1197 0.984 . S
H1203 N1197 0.985 . S
H1204 N1201 0.984 . S
H1205 N1201 0.985 . S
H1206 N1200 0.984 . S
H1207 N1200 0.984 . S
H1208 N1196 0.984 . S
H1209 N1196 0.985 . S
C1210 C1211 1.363 . S
C1210 C1216 1.379 . S
C1210 N1218 1.356 . S
C1211 C1210 1.363 . S
C1211 C1217 1.363 . S
C1212 C1213 1.363 . S
C1212 C1217 1.379 . S
C1212 N1219 1.356 . S
C1213 C1212 1.363 . S
C1213 C1216 1.363 . S
N1214 C1216 1.356 . S
N1214 H1226 0.984 . S
N1214 H1227 0.985 . S
N1215 C1217 1.356 . S
N1215 H1220 0.984 . S
N1215 H1221 0.985 . S
C1216 C1210 1.379 . S
C1216 C1213 1.363 . S
C1216 N1214 1.356 . S
C1217 C1211 1.363 . S
C1217 C1212 1.379 . S
C1217 N1215 1.356 . S
N1218 C1210 1.356 . S
N1218 H1224 0.984 . S
N1218 H1225 0.984 . S
N1219 C1212 1.356 . S
N1219 H1222 0.984 . S
N1219 H1223 0.985 . S
H1220 N1215 0.984 . S
H1221 N1215 0.985 . S
H1222 N1219 0.984 . S
H1223 N1219 0.985 . S
H1224 N1218 0.984 . S
H1225 N1218 0.984 . S
H1226 N1214 0.984 . S
H1227 N1214 0.985 . S
C1228 C1229 1.363 . S
C1228 C1234 1.379 . S
C1228 N1236 1.356 . S
C1229 C1228 1.363 . S
C1229 C1235 1.363 . S
C1230 C1231 1.363 . S
C1230 C1235 1.379 . S
C1230 N1237 1.356 . S
C1231 C1230 1.363 . S
C1231 C1234 1.363 . S
N1232 C1234 1.356 . S
N1232 H1244 0.984 . S
N1232 H1245 0.985 . S
N1233 C1235 1.356 . S
N1233 H1238 0.984 . S
N1233 H1239 0.985 . S
C1234 C1228 1.379 . S
C1234 C1231 1.363 . S
C1234 N1232 1.356 . S
C1235 C1229 1.363 . S
C1235 C1230 1.379 . S
C1235 N1233 1.356 . S
N1236 C1228 1.356 . S
N1236 H1242 0.984 . S
N1236 H1243 0.984 . S
N1237 C1230 1.356 . S
N1237 H1240 0.984 . S
N1237 H1241 0.985 . S
H1238 N1233 0.984 . S
H1239 N1233 0.985 . S
H1240 N1237 0.984 . S
H1241 N1237 0.985 . S
H1242 N1236 0.984 . S
H1243 N1236 0.984 . S
H1244 N1232 0.984 . S
H1245 N1232 0.985 . S
C1246 C1247 1.363 . S
C1246 C1252 1.379 . S
C1246 N1254 1.356 . S
C1247 C1246 1.363 . S
C1247 C1253 1.363 . S
C1248 C1249 1.363 . S
C1248 C1253 1.379 . S
C1248 N1255 1.356 . S
C1249 C1248 1.363 . S
C1249 C1252 1.363 . S
N1250 C1252 1.356 . S
N1250 H1262 0.984 . S
N1250 H1263 0.985 . S
N1251 C1253 1.356 . S
N1251 H1256 0.984 . S
N1251 H1257 0.985 . S
C1252 C1246 1.379 . S
C1252 C1249 1.363 . S
C1252 N1250 1.356 . S
C1253 C1247 1.363 . S
C1253 C1248 1.379 . S
C1253 N1251 1.356 . S
N1254 C1246 1.356 . S
N1254 H1260 0.984 . S
N1254 H1261 0.984 . S
N1255 C1248 1.356 . S
N1255 H1258 0.984 . S
N1255 H1259 0.985 . S
H1256 N1251 0.984 . S
H1257 N1251 0.985 . S
H1258 N1255 0.984 . S
H1259 N1255 0.985 . S
H1260 N1254 0.984 . S
H1261 N1254 0.984 . S
H1262 N1250 0.984 . S
H1263 N1250 0.985 . S
C545 C2 1.549 . S
C547 C478 1.549 . S
C563 C36 1.549 . S
C565 C512 1.549 . S
C581 C70 1.549 . S
C583 C410 1.549 . S
C599 C104 1.549 . S
C601 C444 1.549 . S
C617 C138 1.549 . S
C619 C342 1.549 . S
C635 C172 1.549 . S
C637 C376 1.549 . S
C653 C274 1.549 . S
C655 C206 1.549 . S
C671 C308 1.549 . S
C673 C240 1.549 . S
C689 C33 1.084 1_565 S
C691 C39 1.095 . S
C707 C67 1.084 1_655 S
C709 C73 1.095 . S
C725 C101 1.084 1_545 S
C727 C107 1.095 . S
C743 C5 1.095 . S
C745 C135 1.084 1_455 S
C761 C515 1.095 . S
C763 C169 1.084 . S
C779 C413 1.095 . S
C781 C203 1.084 . S
C797 C447 1.095 . S
C799 C237 1.084 . S
C815 C481 1.095 . S
C817 C271 1.084 . S
C833 C305 1.084 . S
C835 C311 1.095 . S
C851 C339 1.084 . S
C853 C345 1.095 . S
C869 C379 1.095 . S
C871 C373 1.084 . S
C887 C407 1.084 . S
C889 C277 1.095 . S
C905 C441 1.084 1_545 S
C907 C243 1.095 . S
C923 C141 1.095 . S
C925 C475 1.084 1_455 S
C941 C175 1.095 . S
C943 C509 1.084 1_565 S
C959 C543 1.084 1_655 S
C961 C209 1.095 . S
C977 C9 1.486 . S
C979 C77 1.486 . S
C995 C43 1.486 . S
C997 C111 1.486 . S
C1013 C213 1.486 . S
C1015 C145 1.486 . S
C1031 C247 1.486 . S
C1033 C179 1.486 . S
C1049 C281 1.486 . S
C1051 C349 1.486 . S
C1067 C315 1.486 . S
C1069 C383 1.486 . S
C1085 C417 1.486 . S
C1087 C485 1.486 . S
C1103 C451 1.486 . S
C1105 C519 1.486 . S
C1121 C156 1.966 . S
C1123 C20 1.966 . S
C1139 C190 1.966 . S
C1141 C54 1.966 . S
C1157 C88 1.966 . S
C1159 C224 1.966 . S
C1175 C258 1.966 . S
C1177 C122 1.966 . S
C1193 C292 1.966 . S
C1195 C428 1.966 . S
C1211 C462 1.966 . S
C1213 C326 1.966 . S
C1229 C496 1.966 . S
C1231 C360 1.966 . S
C1247 C394 1.966 . S
C1249 C530 1.966 . S
