# Generated by pormake.
# Topology mon, (4)-cn, num edge types: 1
# Building blocks:
#     Node 0, Type 0, BuildingBlock: CEKHIL_clean_sbu_0, # of connection points: 4
#     Node 1, Type 0, BuildingBlock: CEKHIL_clean_sbu_0, # of connection points: 4
#     Node 2, Type 0, BuildingBlock: CEKHIL_clean_sbu_0, # of connection points: 4
#     Node 3, Type 0, BuildingBlock: CEKHIL_clean_sbu_0, # of connection points: 4
#     Node 4, Type 0, BuildingBlock: CEKHIL_clean_sbu_0, # of connection points: 4
#     Node 5, Type 0, BuildingBlock: CEKHIL_clean_sbu_0, # of connection points: 4
#     Node 6, Type 0, BuildingBlock: CEKHIL_clean_sbu_0, # of connection points: 4
#     Node 7, Type 0, BuildingBlock: CEKHIL_clean_sbu_0, # of connection points: 4
#     Node 8, Type 0, BuildingBlock: CEKHIL_clean_sbu_0, # of connection points: 4
#     Node 9, Type 0, BuildingBlock: CEKHIL_clean_sbu_0, # of connection points: 4
#     Node 10, Type 0, BuildingBlock: CEKHIL_clean_sbu_0, # of connection points: 4
#     Node 11, Type 0, BuildingBlock: CEKHIL_clean_sbu_0, # of connection points: 4
#     Node 12, Type 0, BuildingBlock: CEKHIL_clean_sbu_0, # of connection points: 4
#     Node 13, Type 0, BuildingBlock: CEKHIL_clean_sbu_0, # of connection points: 4
#     Node 14, Type 0, BuildingBlock: CEKHIL_clean_sbu_0, # of connection points: 4
#     Node 15, Type 0, BuildingBlock: CEKHIL_clean_sbu_0, # of connection points: 4
#     Edge 16, Type (0, 0), BuildingBlock: ZUJKAS_clean_linker_0, # of connection points: 2
#     Edge 17, Type (0, 0), BuildingBlock: ZUJKAS_clean_linker_0, # of connection points: 2
#     Edge 18, Type (0, 0), BuildingBlock: ZUJKAS_clean_linker_0, # of connection points: 2
#     Edge 19, Type (0, 0), BuildingBlock: ZUJKAS_clean_linker_0, # of connection points: 2
#     Edge 20, Type (0, 0), BuildingBlock: ZUJKAS_clean_linker_0, # of connection points: 2
#     Edge 21, Type (0, 0), BuildingBlock: ZUJKAS_clean_linker_0, # of connection points: 2
#     Edge 22, Type (0, 0), BuildingBlock: ZUJKAS_clean_linker_0, # of connection points: 2
#     Edge 23, Type (0, 0), BuildingBlock: ZUJKAS_clean_linker_0, # of connection points: 2
#     Edge 24, Type (0, 0), BuildingBlock: ZUJKAS_clean_linker_0, # of connection points: 2
#     Edge 25, Type (0, 0), BuildingBlock: ZUJKAS_clean_linker_0, # of connection points: 2
#     Edge 26, Type (0, 0), BuildingBlock: ZUJKAS_clean_linker_0, # of connection points: 2
#     Edge 27, Type (0, 0), BuildingBlock: ZUJKAS_clean_linker_0, # of connection points: 2
#     Edge 28, Type (0, 0), BuildingBlock: ZUJKAS_clean_linker_0, # of connection points: 2
#     Edge 29, Type (0, 0), BuildingBlock: ZUJKAS_clean_linker_0, # of connection points: 2
#     Edge 30, Type (0, 0), BuildingBlock: ZUJKAS_clean_linker_0, # of connection points: 2
#     Edge 31, Type (0, 0), BuildingBlock: ZUJKAS_clean_linker_0, # of connection points: 2
#     Edge 32, Type (0, 0), BuildingBlock: ZUJKAS_clean_linker_0, # of connection points: 2
#     Edge 33, Type (0, 0), BuildingBlock: ZUJKAS_clean_linker_0, # of connection points: 2
#     Edge 34, Type (0, 0), BuildingBlock: ZUJKAS_clean_linker_0, # of connection points: 2
#     Edge 35, Type (0, 0), BuildingBlock: ZUJKAS_clean_linker_0, # of connection points: 2
#     Edge 36, Type (0, 0), BuildingBlock: ZUJKAS_clean_linker_0, # of connection points: 2
#     Edge 37, Type (0, 0), BuildingBlock: ZUJKAS_clean_linker_0, # of connection points: 2
#     Edge 38, Type (0, 0), BuildingBlock: ZUJKAS_clean_linker_0, # of connection points: 2
#     Edge 39, Type (0, 0), BuildingBlock: ZUJKAS_clean_linker_0, # of connection points: 2
#     Edge 40, Type (0, 0), BuildingBlock: ZUJKAS_clean_linker_0, # of connection points: 2
#     Edge 41, Type (0, 0), BuildingBlock: ZUJKAS_clean_linker_0, # of connection points: 2
#     Edge 42, Type (0, 0), BuildingBlock: ZUJKAS_clean_linker_0, # of connection points: 2
#     Edge 43, Type (0, 0), BuildingBlock: ZUJKAS_clean_linker_0, # of connection points: 2
#     Edge 44, Type (0, 0), BuildingBlock: ZUJKAS_clean_linker_0, # of connection points: 2
#     Edge 45, Type (0, 0), BuildingBlock: ZUJKAS_clean_linker_0, # of connection points: 2
#     Edge 46, Type (0, 0), BuildingBlock: ZUJKAS_clean_linker_0, # of connection points: 2
#     Edge 47, Type (0, 0), BuildingBlock: ZUJKAS_clean_linker_0, # of connection points: 2
# Relax obj value: 0.188
# Max RMSD: 0.178
# Mean RMSD: 0.178
data_MOF--net-mon--node1-CEKHIL_clean_sbu_0--edge1-ZUJKAS_clean_linker_0
_symmetry_space_group_name_H-M    P1
_symmetry_Int_Tables_number       1
_symmetry_cell_setting            triclinic
loop_
_symmetry_equiv_pos_as_xyz
'x, y, z'
_cell_length_a     43.369192
_cell_length_b     43.363147
_cell_length_c     110.29664
_cell_angle_alpha  89.968407
_cell_angle_beta   90.038316
_cell_angle_gamma 89.996116
loop_
_atom_site_label
_atom_site_type_symbol
_atom_site_fract_x
_atom_site_fract_y
_atom_site_fract_z
_atom_type_partial_charge
Co0 Co 0.02217 0.03622 0.58232 0.0
O1 O 0.04252 0.07451 0.57864 0.0
O2 O 0.9952 0.0706 0.58598 0.0
C3 C 0.0622 0.01401 0.59209 0.0
O4 O 0.99418 0.00086 0.58762 0.0
Co5 Co 0.04755 0.97446 0.57169 0.0
O6 O 0.015 0.95554 0.58188 0.0
C7 C 0.01554 0.01889 0.55591 0.0
C8 C 0.01763 0.08822 0.58231 0.0
C9 C 0.99418 0.97114 0.58727 0.0
O10 O 0.00565 0.03393 0.56519 0.0
O11 O 0.03527 0.99701 0.5566 0.0
O12 O 0.04433 0.03318 0.59781 0.0
O13 O 0.05702 0.01143 0.58064 0.0
Co14 Co 0.22445 0.76107 0.83471 0.0
O15 O 0.1861 0.78 0.83008 0.0
O16 O 0.19075 0.73215 0.83682 0.0
C17 C 0.24164 0.80159 0.84562 0.0
O18 O 0.25986 0.73424 0.84092 0.0
Co19 Co 0.28751 0.79026 0.82734 0.0
O20 O 0.30437 0.76059 0.83933 0.0
C21 C 0.24917 0.75787 0.80918 0.0
C22 C 0.17285 0.75429 0.83307 0.0
C23 C 0.28892 0.73742 0.84305 0.0
O24 O 0.23153 0.7467 0.81749 0.0
O25 O 0.27032 0.7778 0.81123 0.0
O26 O 0.22281 0.78187 0.85054 0.0
O27 O 0.24744 0.79731 0.83432 0.0
Co28 Co 0.49824 0.97166 0.08327 0.0
O29 O 0.4806 0.93349 0.07763 0.0
O30 O 0.52508 0.93756 0.08738 0.0
C31 C 0.45462 0.99039 0.09167 0.0
O32 O 0.52346 0.00654 0.09083 0.0
Co33 Co 0.47395 0.0354 0.07403 0.0
O34 O 0.50238 0.05259 0.08626 0.0
C35 C 0.51673 0.99859 0.05887 0.0
C36 C 0.50453 0.91995 0.08229 0.0
C37 C 0.5225 0.03617 0.09166 0.0
O38 O 0.51957 0.9777 0.06712 0.0
O39 O 0.49871 0.02184 0.05975 0.0
O40 O 0.47167 0.97096 0.09764 0.0
O41 O 0.46304 0.99573 0.08067 0.0
Co42 Co 0.29131 0.23377 0.33422 0.0
O43 O 0.32945 0.21332 0.33041 0.0
O44 O 0.32582 0.26101 0.3374 0.0
C45 C 0.27018 0.19382 0.34438 0.0
O46 O 0.25618 0.26194 0.33964 0.0
Co47 Co 0.2286 0.20786 0.3247 0.0
O48 O 0.21081 0.2384 0.3361 0.0
C49 C 0.27143 0.23962 0.30806 0.0
C50 C 0.3433 0.23835 0.33385 0.0
C51 C 0.22659 0.26044 0.34059 0.0
O52 O 0.28785 0.2494 0.317 0.0
O53 O 0.2492 0.22043 0.30923 0.0
O54 O 0.28933 0.21218 0.34988 0.0
O55 O 0.26667 0.19877 0.33297 0.0
Co56 Co 0.01776 0.96385 0.41027 0.0
O57 O 0.03662 0.9256 0.41508 0.0
O58 O 0.99038 0.92965 0.40674 0.0
C59 C 0.05966 0.98348 0.40091 0.0
O60 O 0.99145 0.99916 0.40367 0.0
Co61 Co 0.04347 0.02668 0.41977 0.0
O62 O 0.01557 0.0442 0.40728 0.0
C63 C 0.00829 0.98559 0.43598 0.0
C64 C 0.01197 0.91198 0.41111 0.0
C65 C 0.994 0.0286 0.40236 0.0
O66 O 0.99936 0.96892 0.42699 0.0
O67 O 0.02822 0.00723 0.4351 0.0
O68 O 0.04187 0.96419 0.3952 0.0
O69 O 0.05305 0.98788 0.41215 0.0
Co70 Co 0.29103 0.76198 0.66018 0.0
O71 O 0.32939 0.78283 0.66325 0.0
O72 O 0.32532 0.73458 0.65689 0.0
C73 C 0.26865 0.80092 0.64983 0.0
O74 O 0.25566 0.73336 0.65552 0.0
Co75 Co 0.22929 0.78814 0.67045 0.0
O76 O 0.21031 0.75544 0.66033 0.0
C77 C 0.27406 0.75812 0.6867 0.0
C78 C 0.34301 0.75753 0.65997 0.0
C79 C 0.22594 0.73378 0.6555 0.0
O80 O 0.28924 0.74751 0.67759 0.0
O81 O 0.25185 0.77739 0.68572 0.0
O82 O 0.28757 0.78233 0.64433 0.0
O83 O 0.26623 0.79696 0.66135 0.0
Co84 Co 0.4976 0.02781 0.91068 0.0
O85 O 0.47808 0.06543 0.91592 0.0
O86 O 0.52338 0.06291 0.90676 0.0
C87 C 0.45514 0.00713 0.90204 0.0
O88 O 0.52446 0.99365 0.90342 0.0
Co89 Co 0.47538 0.96347 0.92007 0.0
O90 O 0.50369 0.94725 0.9076 0.0
C91 C 0.51567 0.00244 0.93542 0.0
C92 C 0.50175 0.07986 0.91149 0.0
C93 C 0.52384 0.96403 0.90239 0.0
O94 O 0.51828 0.02302 0.92704 0.0
O95 O 0.49852 0.97854 0.93453 0.0
O96 O 0.47163 0.02709 0.8961 0.0
O97 O 0.46333 0.00245 0.91311 0.0
Co98 Co 0.22708 0.23955 0.16002 0.0
O99 O 0.18879 0.21952 0.16392 0.0
O100 O 0.19293 0.26766 0.15744 0.0
C101 C 0.24673 0.20002 0.1492 0.0
O102 O 0.2624 0.26742 0.15458 0.0
Co103 Co 0.28982 0.21174 0.16863 0.0
O104 O 0.30777 0.24362 0.15785 0.0
C105 C 0.2485 0.24277 0.18604 0.0
C106 C 0.17523 0.24499 0.16082 0.0
C107 C 0.29199 0.26598 0.15361 0.0
O108 O 0.23186 0.25377 0.17738 0.0
O109 O 0.27014 0.22313 0.18441 0.0
O110 O 0.22764 0.21921 0.14411 0.0
O111 O 0.25109 0.20397 0.16063 0.0
Co112 Co 0.79178 0.26555 0.16046 0.0
O113 O 0.83016 0.28612 0.16375 0.0
O114 O 0.826 0.23793 0.15735 0.0
C115 C 0.77009 0.30455 0.14991 0.0
O116 O 0.7563 0.23723 0.15559 0.0
Co117 Co 0.73002 0.29265 0.17043 0.0
O118 O 0.71102 0.2588 0.16095 0.0
C119 C 0.7735 0.26151 0.18691 0.0
C120 C 0.84374 0.2608 0.16048 0.0
C121 C 0.7266 0.23738 0.15594 0.0
O122 O 0.78915 0.25105 0.17788 0.0
O123 O 0.75161 0.28111 0.18579 0.0
O124 O 0.78913 0.2858 0.14457 0.0
O125 O 0.76725 0.30078 0.16144 0.0
Co126 Co 0.72673 0.74353 0.65983 0.0
O127 O 0.68923 0.72353 0.66486 0.0
O128 O 0.69146 0.76878 0.65562 0.0
C129 C 0.74811 0.70117 0.65141 0.0
O130 O 0.7608 0.77082 0.6528 0.0
Co131 Co 0.79078 0.72211 0.66978 0.0
O132 O 0.80748 0.75229 0.65809 0.0
C133 C 0.75065 0.7623 0.68465 0.0
C134 C 0.67465 0.74694 0.66029 0.0
C135 C 0.79051 0.77156 0.65247 0.0
O136 O 0.73043 0.76454 0.67614 0.0
O137 O 0.77478 0.74543 0.68405 0.0
O138 O 0.72837 0.71758 0.64532 0.0
O139 O 0.75236 0.70944 0.6625 0.0
Co140 Co 0.72656 0.26224 0.33412 0.0
O141 O 0.68826 0.28143 0.32959 0.0
O142 O 0.69273 0.23349 0.33625 0.0
C143 C 0.74412 0.30252 0.34508 0.0
O144 O 0.76187 0.23514 0.34022 0.0
Co145 Co 0.78979 0.29118 0.32676 0.0
O146 O 0.80653 0.26122 0.33864 0.0
C147 C 0.75164 0.25841 0.30859 0.0
C148 C 0.6749 0.2558 0.3326 0.0
C149 C 0.79097 0.23808 0.34231 0.0
O150 O 0.73345 0.24792 0.31686 0.0
O151 O 0.7731 0.27799 0.31068 0.0
O152 O 0.72516 0.2829 0.34997 0.0
O153 O 0.74979 0.29834 0.33376 0.0
Co154 Co 0.78924 0.73241 0.83288 0.0
O155 O 0.82716 0.71123 0.82927 0.0
O156 O 0.82406 0.75942 0.83576 0.0
C157 C 0.76751 0.69353 0.84347 0.0
O158 O 0.75462 0.76146 0.83805 0.0
Co159 Co 0.72626 0.70679 0.8235 0.0
O160 O 0.70847 0.74162 0.83276 0.0
C161 C 0.76952 0.73678 0.80662 0.0
C162 C 0.84129 0.73635 0.83243 0.0
C163 C 0.72494 0.76242 0.83774 0.0
O164 O 0.78594 0.74694 0.8155 0.0
O165 O 0.74723 0.71774 0.80795 0.0
O166 O 0.78701 0.71195 0.84875 0.0
O167 O 0.76404 0.69767 0.832 0.0
Co168 Co 0.5187 0.53573 0.0837 0.0
O169 O 0.53779 0.57377 0.07873 0.0
O170 O 0.49252 0.57025 0.08792 0.0
C171 C 0.56092 0.51475 0.09236 0.0
O172 O 0.49219 0.50088 0.09051 0.0
Co173 Co 0.54157 0.47263 0.07347 0.0
O174 O 0.51329 0.45504 0.08576 0.0
C175 C 0.5043 0.51421 0.05818 0.0
C176 C 0.51383 0.58762 0.08321 0.0
C177 C 0.49308 0.47122 0.09124 0.0
O178 O 0.49838 0.53186 0.06726 0.0
O179 O 0.52292 0.49136 0.05858 0.0
O180 O 0.54417 0.53437 0.09836 0.0
O181 O 0.55328 0.51083 0.08117 0.0
Co182 Co 0.99436 0.47126 0.58427 0.0
O183 O 0.97616 0.43364 0.57834 0.0
O184 O 0.02245 0.43714 0.58668 0.0
C185 C 0.95226 0.48782 0.59435 0.0
O186 O 0.02043 0.50529 0.59194 0.0
Co187 Co 0.96799 0.53595 0.57753 0.0
O188 O 0.99576 0.55074 0.59053 0.0
C189 C 0.00634 0.50161 0.55985 0.0
C190 C 0.0011 0.41984 0.58195 0.0
C191 C 0.01784 0.53418 0.5945 0.0
O192 O 0.01221 0.48029 0.56768 0.0
O193 O 0.98785 0.52404 0.56188 0.0
O194 O 0.97066 0.46785 0.59936 0.0
O195 O 0.95857 0.49503 0.5833 0.0
Co196 Co 0.51687 0.46396 0.91096 0.0
O197 O 0.53662 0.42546 0.91482 0.0
O198 O 0.4894 0.42983 0.90739 0.0
C199 C 0.55765 0.48491 0.90128 0.0
O200 O 0.48963 0.49962 0.90527 0.0
Co201 Co 0.54282 0.526 0.92108 0.0
O202 O 0.51371 0.54447 0.90924 0.0
C203 C 0.51004 0.48281 0.93718 0.0
C204 C 0.51169 0.412 0.91105 0.0
C205 C 0.49188 0.52918 0.90434 0.0
O206 O 0.50018 0.46719 0.92803 0.0
O207 O 0.52974 0.50468 0.93633 0.0
O208 O 0.53949 0.46602 0.89554 0.0
O209 O 0.55205 0.48817 0.91266 0.0
Co210 Co 0.99852 0.52807 0.41131 0.0
O211 O 0.9793 0.56505 0.41739 0.0
O212 O 0.02382 0.56361 0.40762 0.0
C213 C 0.95543 0.50834 0.40283 0.0
O214 O 0.02509 0.49504 0.40316 0.0
Co215 Co 0.97794 0.46224 0.41929 0.0
O216 O 0.00209 0.44887 0.40503 0.0
C217 C 0.01838 0.49968 0.43526 0.0
C218 C 0.0025 0.58 0.41283 0.0
C219 C 0.02281 0.46618 0.4005 0.0
O220 O 0.0202 0.52155 0.42737 0.0
O221 O 0.00185 0.47548 0.43388 0.0
O222 O 0.97153 0.52889 0.39704 0.0
O223 O 0.96458 0.5022 0.41368 0.0
H224 H 0.97014 0.12433 0.59061 0.0
H225 H 0.96695 0.18087 0.59028 0.0
H226 H 0.05669 0.18546 0.57359 0.0
H227 H 0.06004 0.12925 0.57383 0.0
H228 H 0.00886 0.22473 0.60096 0.0
H229 H 0.00077 0.23734 0.55096 0.0
H230 H 0.99351 0.20126 0.55863 0.0
H231 H 0.03241 0.21404 0.55614 0.0
C232 C 0.98913 0.1374 0.58684 0.0
C233 C 0.01527 0.1223 0.5822 0.0
C234 C 0.9873 0.16966 0.58668 0.0
C235 C 0.01142 0.18729 0.58177 0.0
C236 C 0.03761 0.17227 0.57723 0.0
H237 H 0.04825 0.38372 0.59049 0.0
H238 H 0.05112 0.32724 0.59044 0.0
C239 C 0.03951 0.14012 0.57743 0.0
C240 C 0.00953 0.22144 0.5815 0.0
H241 H 0.00848 0.28324 0.56228 0.0
C242 C 0.00866 0.23756 0.59252 0.0
C243 C 0.00905 0.23806 0.57046 0.0
C244 C 0.00871 0.22186 0.55836 0.0
C245 C 0.00784 0.26996 0.5928 0.0
C246 C 0.00822 0.2866 0.58175 0.0
C247 C 0.00855 0.27043 0.57074 0.0
C248 C 0.00725 0.3208 0.58144 0.0
C249 C 0.0061 0.2861 0.60489 0.0
C250 C 0.98212 0.3359 0.57605 0.0
C251 C 0.98049 0.36809 0.57601 0.0
C252 C 0.00408 0.38585 0.58129 0.0
C253 C 0.02967 0.3707 0.58638 0.0
C254 C 0.03124 0.33844 0.58644 0.0
H255 H 0.99887 0.27018 0.61226 0.0
H256 H 0.02919 0.29537 0.60724 0.0
H257 H 0.98968 0.30573 0.60452 0.0
H258 H 0.96345 0.32273 0.57207 0.0
H259 H 0.9605 0.37902 0.57198 0.0
H260 H 0.88194 0.68943 0.82857 0.0
H261 H 0.93828 0.69178 0.82869 0.0
H262 H 0.93443 0.78923 0.83619 0.0
H263 H 0.87783 0.78711 0.8362 0.0
H264 H 0.97579 0.76519 0.81531 0.0
H265 H 0.99371 0.70923 0.86022 0.0
H266 H 0.96644 0.69179 0.84999 0.0
H267 H 0.95832 0.72895 0.85635 0.0
C268 C 0.89301 0.7114 0.83026 0.0
C269 C 0.8754 0.7381 0.8324 0.0
C270 C 0.92521 0.71264 0.83036 0.0
C271 C 0.94042 0.7406 0.83254 0.0
C272 C 0.92302 0.7674 0.83455 0.0
H273 H 0.13082 0.80027 0.83031 0.0
H274 H 0.0748 0.7962 0.83002 0.0
C275 C 0.89074 0.76615 0.83455 0.0
C276 C 0.97454 0.74182 0.8325 0.0
H277 H 0.03813 0.72078 0.84879 0.0
C278 C 0.9895 0.75559 0.82263 0.0
C279 C 0.99221 0.72886 0.84199 0.0
C280 C 0.97702 0.71396 0.8528 0.0
C281 C 0.02183 0.75656 0.82193 0.0
C282 C 0.03965 0.74425 0.83157 0.0
C283 C 0.02455 0.73024 0.84141 0.0
C284 C 0.07388 0.74649 0.8318 0.0
C285 C 0.03648 0.7701 0.81072 0.0
C286 C 0.0922 0.72002 0.83338 0.0
C287 C 0.12443 0.72235 0.83379 0.0
C288 C 0.13887 0.7512 0.83257 0.0
C289 C 0.12046 0.77763 0.83109 0.0
C290 C 0.08835 0.77533 0.83084 0.0
H291 H 0.02069 0.7688 0.80279 0.0
H292 H 0.04169 0.7948 0.81234 0.0
H293 H 0.05828 0.75806 0.80839 0.0
H294 H 0.08155 0.69752 0.83424 0.0
H295 H 0.138 0.7016 0.83499 0.0
H296 H 0.48007 0.62467 0.09825 0.0
H297 H 0.47889 0.68115 0.09854 0.0
H298 H 0.54023 0.6835 0.06775 0.0
H299 H 0.54281 0.62724 0.06789 0.0
H300 H 0.5582 0.7238 0.08321 0.0
H301 H 0.43223 0.73891 0.07773 0.0
H302 H 0.44152 0.7169 0.09099 0.0
H303 H 0.45063 0.70186 0.07618 0.0
C304 C 0.49309 0.63731 0.0915 0.0
C305 C 0.51144 0.62161 0.08302 0.0
C306 C 0.49225 0.6696 0.09161 0.0
C307 C 0.50897 0.68674 0.08301 0.0
C308 C 0.52708 0.67092 0.07448 0.0
H309 H 0.47646 0.87978 0.06689 0.0
H310 H 0.47929 0.8235 0.06704 0.0
C311 C 0.52848 0.63873 0.07454 0.0
C312 C 0.50858 0.72111 0.08306 0.0
H313 H 0.46095 0.78383 0.08279 0.0
C314 C 0.53689 0.7369 0.08304 0.0
C315 C 0.48085 0.73835 0.08269 0.0
C316 C 0.44963 0.72313 0.08177 0.0
C317 C 0.5383 0.76925 0.08263 0.0
C318 C 0.51056 0.7865 0.08275 0.0
C319 C 0.48225 0.77072 0.0828 0.0
C320 C 0.51019 0.82086 0.08245 0.0
C321 C 0.56953 0.78441 0.08165 0.0
C322 C 0.52668 0.83833 0.09102 0.0
C323 C 0.52569 0.8706 0.09074 0.0
C324 C 0.50745 0.88598 0.08212 0.0
C325 C 0.49073 0.86854 0.07364 0.0
C326 C 0.49226 0.83635 0.07375 0.0
H327 H 0.58695 0.76843 0.07777 0.0
H328 H 0.56859 0.80541 0.0759 0.0
H329 H 0.57755 0.79109 0.09084 0.0
H330 H 0.53991 0.82705 0.09807 0.0
H331 H 0.53843 0.88347 0.0975 0.0
H332 H 0.63969 0.20328 0.33414 0.0
H333 H 0.58318 0.19976 0.33388 0.0
H334 H 0.57713 0.29881 0.33107 0.0
H335 H 0.63319 0.30234 0.33083 0.0
H336 H 0.54086 0.22177 0.34905 0.0
H337 H 0.52113 0.27469 0.30405 0.0
H338 H 0.55896 0.26322 0.30913 0.0
H339 H 0.54279 0.29959 0.31382 0.0
C340 C 0.62625 0.22423 0.33334 0.0
C341 C 0.64088 0.25304 0.33235 0.0
C342 C 0.59398 0.22222 0.33321 0.0
C343 C 0.57583 0.24898 0.33217 0.0
C344 C 0.59052 0.27776 0.33146 0.0
H345 H 0.37954 0.28912 0.33815 0.0
H346 H 0.43615 0.29161 0.33804 0.0
C347 C 0.62265 0.27974 0.3314 0.0
C348 C 0.54157 0.24705 0.33223 0.0
H349 H 0.47694 0.26991 0.31687 0.0
C350 C 0.52693 0.23208 0.34196 0.0
C351 C 0.52328 0.26046 0.32296 0.0
C352 C 0.53736 0.2751 0.31184 0.0
C353 C 0.49463 0.23073 0.34278 0.0
C354 C 0.47651 0.24473 0.33366 0.0
C355 C 0.491 0.25954 0.32391 0.0
C356 C 0.4424 0.24328 0.33387 0.0
C357 C 0.47997 0.21469 0.35346 0.0
C358 C 0.42733 0.21538 0.33144 0.0
C359 C 0.39516 0.21394 0.3314 0.0
C360 C 0.3774 0.24038 0.33383 0.0
C361 C 0.39257 0.26836 0.33626 0.0
C362 C 0.42485 0.26983 0.3362 0.0
H363 H 0.49696 0.20957 0.36073 0.0
H364 H 0.46115 0.22905 0.35729 0.0
H365 H 0.46967 0.1926 0.35039 0.0
H366 H 0.4405 0.19474 0.3295 0.0
H367 H 0.38422 0.19202 0.32949 0.0
H368 H 0.96355 0.87599 0.40349 0.0
H369 H 0.96009 0.81946 0.40402 0.0
H370 H 0.05111 0.81473 0.41966 0.0
H371 H 0.0546 0.87086 0.41932 0.0
H372 H 0.99861 0.7754 0.39299 0.0
H373 H 0.99953 0.76273 0.44302 0.0
H374 H 0.99225 0.79914 0.4356 0.0
H375 H 0.03107 0.78518 0.43727 0.0
C376 C 0.98273 0.86288 0.40711 0.0
C377 C 0.00925 0.87793 0.41145 0.0
C378 C 0.98075 0.83061 0.40738 0.0
C379 C 0.00515 0.81292 0.41206 0.0
C380 C 0.03174 0.82792 0.41626 0.0
H381 H 0.04526 0.61804 0.40229 0.0
H382 H 0.04528 0.67456 0.40193 0.0
C383 C 0.03373 0.86005 0.416 0.0
C384 C 0.00327 0.77873 0.41238 0.0
H385 H 0.00721 0.71688 0.43152 0.0
C386 C 0.0003 0.76258 0.40141 0.0
C387 C 0.00518 0.76206 0.42339 0.0
C388 C 0.00689 0.77813 0.4355 0.0
C389 C 0.99994 0.73017 0.40114 0.0
C390 C 0.00302 0.71352 0.41212 0.0
C391 C 0.00523 0.72969 0.4231 0.0
C392 C 0.00342 0.67929 0.41244 0.0
C393 C 0.99591 0.71401 0.38913 0.0
C394 C 0.9804 0.66322 0.41875 0.0
C395 C 0.98041 0.63098 0.41902 0.0
C396 C 0.00361 0.61415 0.41306 0.0
C397 C 0.02704 0.63031 0.40696 0.0
C398 C 0.02695 0.6626 0.40666 0.0
H399 H 0.9864 0.72971 0.3821 0.0
H400 H 0.01866 0.7056 0.38594 0.0
H401 H 0.98035 0.69381 0.39005 0.0
H402 H 0.96214 0.67564 0.42334 0.0
H403 H 0.96204 0.61926 0.42382 0.0
H404 H 0.37894 0.70573 0.65773 0.0
H405 H 0.43548 0.70296 0.65799 0.0
H406 H 0.44021 0.80195 0.66137 0.0
H407 H 0.38406 0.80476 0.66152 0.0
H408 H 0.47867 0.72697 0.64313 0.0
H409 H 0.49421 0.77596 0.68908 0.0
H410 H 0.45705 0.76398 0.68344 0.0
H411 H 0.47256 0.80111 0.67938 0.0
C412 C 0.39209 0.72685 0.65858 0.0
C413 C 0.37706 0.75542 0.65975 0.0
C414 C 0.42436 0.72526 0.65872 0.0
C415 C 0.44212 0.75219 0.65998 0.0
C416 C 0.42707 0.78077 0.66077 0.0
H417 H 0.63716 0.79459 0.65317 0.0
H418 H 0.58051 0.79535 0.65285 0.0
C419 C 0.39492 0.78235 0.66078 0.0
C420 C 0.47636 0.75064 0.66028 0.0
H421 H 0.53942 0.77272 0.67676 0.0
C422 C 0.49191 0.73678 0.65053 0.0
C423 C 0.4937 0.76326 0.66998 0.0
C424 C 0.47852 0.77662 0.68111 0.0
C425 C 0.52429 0.73592 0.65009 0.0
C426 C 0.54145 0.74935 0.6596 0.0
C427 C 0.52604 0.76283 0.66941 0.0
C428 C 0.57553 0.74886 0.65967 0.0
C429 C 0.54014 0.7209 0.63946 0.0
C430 C 0.59123 0.72256 0.66369 0.0
C431 C 0.62344 0.72212 0.66397 0.0
C432 C 0.64052 0.74797 0.66018 0.0
C433 C 0.62466 0.77434 0.65614 0.0
C434 C 0.59237 0.77481 0.65595 0.0
H435 H 0.52356 0.71333 0.63238 0.0
H436 H 0.55688 0.73722 0.63535 0.0
H437 H 0.55332 0.7005 0.64266 0.0
H438 H 0.57854 0.70239 0.66664 0.0
H439 H 0.63493 0.70141 0.6671 0.0
H440 H 0.55901 0.37101 0.91166 0.0
H441 H 0.55634 0.31485 0.91105 0.0
H442 H 0.457 0.31958 0.90974 0.0
H443 H 0.45968 0.37608 0.90976 0.0
H444 H 0.53322 0.27562 0.92637 0.0
H445 H 0.47165 0.26063 0.88272 0.0
H446 H 0.48681 0.2974 0.88749 0.0
H447 H 0.45047 0.28376 0.8933 0.0
C448 C 0.53657 0.36011 0.91116 0.0
C449 C 0.50954 0.37795 0.91071 0.0
C450 C 0.53508 0.32795 0.91082 0.0
C451 C 0.50651 0.31281 0.91015 0.0
C452 C 0.47938 0.33061 0.90988 0.0
H453 H 0.45633 0.12012 0.91794 0.0
H454 H 0.45798 0.17652 0.91756 0.0
C455 C 0.4809 0.36291 0.90999 0.0
C456 C 0.50542 0.27846 0.9102 0.0
H457 H 0.47765 0.21566 0.89493 0.0
C458 C 0.52121 0.26259 0.91944 0.0
C459 C 0.48984 0.26129 0.90113 0.0
C460 C 0.474 0.27662 0.89054 0.0
C461 C 0.5216 0.23023 0.91992 0.0
C462 C 0.50568 0.21323 0.91099 0.0
C463 C 0.48977 0.22889 0.90178 0.0
C464 C 0.505 0.17908 0.91117 0.0
C465 C 0.53874 0.21428 0.93004 0.0
C466 C 0.53094 0.16191 0.90767 0.0
C467 C 0.53006 0.12961 0.90781 0.0
C468 C 0.50325 0.11401 0.91153 0.0
C469 C 0.47739 0.1314 0.91508 0.0
C470 C 0.47821 0.16362 0.91483 0.0
H471 H 0.54692 0.23074 0.93706 0.0
H472 H 0.52372 0.19678 0.93441 0.0
H473 H 0.55904 0.20205 0.92625 0.0
H474 H 0.55179 0.17351 0.90477 0.0
H475 H 0.55032 0.11689 0.905 0.0
H476 H 0.13947 0.2967 0.15777 0.0
H477 H 0.08293 0.29965 0.15784 0.0
H478 H 0.07785 0.20129 0.16334 0.0
H479 H 0.13396 0.19833 0.16367 0.0
H480 H 0.04052 0.27335 0.14313 0.0
H481 H 0.02254 0.2312 0.19 0.0
H482 H 0.05999 0.24234 0.18441 0.0
H483 H 0.04461 0.20473 0.18104 0.0
C484 C 0.12625 0.27578 0.15909 0.0
C485 C 0.14117 0.24735 0.16085 0.0
C486 C 0.09397 0.27747 0.15911 0.0
C487 C 0.07612 0.25078 0.16086 0.0
C488 C 0.09106 0.22233 0.16235 0.0
H489 H 0.87959 0.20943 0.1569 0.0
H490 H 0.93621 0.2068 0.15656 0.0
C491 C 0.12321 0.22067 0.16246 0.0
C492 C 0.04188 0.2524 0.16084 0.0
H493 H 0.97794 0.23328 0.17734 0.0
C494 C 0.02687 0.26478 0.15065 0.0
C495 C 0.02401 0.24125 0.17067 0.0
C496 C 0.03861 0.22943 0.18219 0.0
C497 C 0.99453 0.2658 0.14994 0.0
C498 C 0.97682 0.25412 0.15965 0.0
C499 C 0.9917 0.24186 0.16985 0.0
C500 C 0.94274 0.25563 0.15961 0.0
C501 C 0.97938 0.27905 0.13878 0.0
C502 C 0.92788 0.28388 0.16154 0.0
C503 C 0.89573 0.28541 0.16186 0.0
C504 C 0.8778 0.2587 0.16018 0.0
C505 C 0.89277 0.23039 0.1582 0.0
C506 C 0.92504 0.22884 0.158 0.0
H507 H 0.99614 0.28299 0.13133 0.0
H508 H 0.96092 0.26338 0.1355 0.0
H509 H 0.96846 0.30143 0.14111 0.0
H510 H 0.94121 0.30474 0.1629 0.0
H511 H 0.88493 0.3076 0.16338 0.0
H512 H 0.94753 0.98968 0.44213 0.0
H513 H 0.9274 0.99702 0.46284 0.0
H514 H 0.01835 0.98066 0.47731 0.0
H515 H 0.03848 0.97412 0.45678 0.0
H516 H 0.95348 0.95381 0.48999 0.0
H517 H 0.97131 0.07927 0.48154 0.0
H518 H 0.95487 0.05409 0.4702 0.0
H519 H 0.99527 0.05201 0.47356 0.0
C520 C 0.96282 0.98652 0.4498 0.0
C521 C 0.99444 0.98122 0.44798 0.0
C522 C 0.95138 0.99085 0.46156 0.0
C523 C 0.9715 0.98942 0.47152 0.0
C524 C 0.00253 0.9817 0.46971 0.0
H525 H 0.04628 0.01994 0.53469 0.0
H526 H 0.02409 0.01847 0.51437 0.0
C527 C 0.01398 0.97791 0.45802 0.0
C528 C 0.96214 0.99992 0.48368 0.0
H529 H 0.9732 0.06232 0.50197 0.0
C530 C 0.95633 0.97773 0.49262 0.0
C531 C 0.96608 0.03114 0.48701 0.0
C532 C 0.97212 0.0557 0.47761 0.0
C533 C 0.95727 0.98561 0.50496 0.0
C534 C 0.96455 0.01623 0.5083 0.0
C535 C 0.96742 0.03893 0.49933 0.0
C536 C 0.97692 0.02289 0.52047 0.0
C537 C 0.95371 0.96063 0.51437 0.0
C538 C 0.95766 0.02712 0.53055 0.0
C539 C 0.97042 0.02844 0.54223 0.0
C540 C 0.00241 0.025 0.54385 0.0
C541 C 0.02157 0.02258 0.53366 0.0
C542 C 0.00894 0.02175 0.52207 0.0
H543 H 0.94564 0.93856 0.51036 0.0
H544 H 0.97621 0.95657 0.51891 0.0
H545 H 0.93702 0.96803 0.52142 0.0
H546 H 0.93286 0.02797 0.52943 0.0
H547 H 0.9552 0.03001 0.54999 0.0
H548 H 0.25484 0.79212 0.78895 0.0
H549 H 0.26135 0.77372 0.76825 0.0
H550 H 0.24614 0.6802 0.78016 0.0
H551 H 0.23905 0.69877 0.80112 0.0
H552 H 0.31082 0.72678 0.7633 0.0
H553 H 0.19285 0.69408 0.74775 0.0
H554 H 0.19762 0.72255 0.75955 0.0
H555 H 0.20671 0.68298 0.76256 0.0
C556 C 0.2522 0.7677 0.78713 0.0
C557 C 0.24658 0.74682 0.7966 0.0
C558 C 0.25602 0.75722 0.77533 0.0
C559 C 0.25453 0.72564 0.77274 0.0
C560 C 0.24727 0.70469 0.78202 0.0
H561 H 0.28335 0.69853 0.69399 0.0
H562 H 0.28396 0.67975 0.71511 0.0
C563 C 0.24308 0.7153 0.79393 0.0
C564 C 0.263 0.71547 0.76041 0.0
H565 H 0.2305 0.70298 0.7327 0.0
C566 C 0.29351 0.72046 0.75664 0.0
C567 C 0.24042 0.70705 0.75181 0.0
C568 C 0.20749 0.70126 0.75552 0.0
C569 C 0.30132 0.72038 0.74432 0.0
C570 C 0.27803 0.71518 0.73564 0.0
C571 C 0.24828 0.7069 0.73945 0.0
C572 C 0.2821 0.72538 0.72299 0.0
C573 C 0.33376 0.72849 0.7406 0.0
C574 C 0.28138 0.75709 0.72056 0.0
C575 C 0.28055 0.76771 0.70866 0.0
C576 C 0.28092 0.7468 0.69897 0.0
C577 C 0.28345 0.71504 0.70136 0.0
C578 C 0.28362 0.70432 0.71335 0.0
H579 H 0.35048 0.724 0.74803 0.0
H580 H 0.34075 0.71519 0.73245 0.0
H581 H 0.3348 0.7534 0.7383 0.0
H582 H 0.27997 0.77362 0.72791 0.0
H583 H 0.27851 0.79227 0.70702 0.0
H584 H 0.52414 0.9479 0.04445 0.0
H585 H 0.54026 0.9488 0.02306 0.0
H586 H 0.56364 0.04505 0.02634 0.0
H587 H 0.54719 0.04443 0.04753 0.0
H588 H 0.50535 0.00997 0.0095 0.0
H589 H 0.63065 0.98746 0.00259 0.0
H590 H 0.60918 0.96763 0.01429 0.0
H591 H 0.61727 0.00791 0.01586 0.0
C592 C 0.53394 0.96882 0.04072 0.0
C593 C 0.53426 0.99615 0.04752 0.0
C594 C 0.54312 0.96934 0.02854 0.0
C595 C 0.55323 0.99699 0.02323 0.0
C596 C 0.55622 0.02348 0.03036 0.0
H597 H 0.52569 0.05546 0.94836 0.0
H598 H 0.54166 0.05811 0.96975 0.0
C599 C 0.54671 0.0231 0.04241 0.0
C600 C 0.55395 0.0002 0.00994 0.0
H601 H 0.60078 0.99848 0.98511 0.0
C602 C 0.52619 0.00759 0.00414 0.0
C603 C 0.58128 0.99727 0.00313 0.0
C604 C 0.61145 0.98962 0.0092 0.0
C605 C 0.52486 0.01166 0.99157 0.0
C606 C 0.55216 0.00863 0.98467 0.0
C607 C 0.58006 0.00134 0.99049 0.0
C608 C 0.55082 0.00919 0.9713 0.0
C609 C 0.49405 0.01818 0.98571 0.0
C610 C 0.55229 0.98116 0.96505 0.0
C611 C 0.54299 0.97959 0.95299 0.0
C612 C 0.53237 0.0061 0.94695 0.0
C613 C 0.53382 0.03476 0.95283 0.0
C614 C 0.54286 0.03626 0.96502 0.0
H615 H 0.47458 0.01547 0.99217 0.0
H616 H 0.49378 0.0422 0.98224 0.0
H617 H 0.49019 0.00248 0.9779 0.0
H618 H 0.55832 0.96006 0.96976 0.0
H619 H 0.54239 0.95727 0.94858 0.0
H620 H 0.25129 0.20892 0.20648 0.0
H621 H 0.25597 0.22791 0.2272 0.0
H622 H 0.24319 0.32122 0.21462 0.0
H623 H 0.23797 0.30209 0.19364 0.0
H624 H 0.30637 0.27741 0.23192 0.0
H625 H 0.18703 0.30548 0.24706 0.0
H626 H 0.19262 0.27569 0.23585 0.0
H627 H 0.20051 0.31508 0.23202 0.0
C628 C 0.24872 0.23341 0.20815 0.0
C629 C 0.24438 0.25408 0.19851 0.0
C630 C 0.25148 0.24423 0.21996 0.0
C631 C 0.25023 0.27592 0.22236 0.0
C632 C 0.24415 0.29666 0.21288 0.0
H633 H 0.2842 0.29908 0.30121 0.0
H634 H 0.28355 0.31943 0.2803 0.0
C635 C 0.24099 0.28572 0.20097 0.0
C636 C 0.25804 0.2864 0.23471 0.0
H637 H 0.2243 0.29574 0.26234 0.0
C638 C 0.28868 0.28269 0.23856 0.0
C639 C 0.2349 0.29333 0.24326 0.0
C640 C 0.20184 0.29777 0.23943 0.0
C641 C 0.29617 0.28247 0.25091 0.0
C642 C 0.27245 0.28606 0.25952 0.0
C643 C 0.24243 0.29313 0.25565 0.0
C644 C 0.27655 0.27477 0.27202 0.0
C645 C 0.32877 0.27534 0.25475 0.0
C646 C 0.27348 0.24307 0.27411 0.0
C647 C 0.27352 0.23159 0.28588 0.0
C648 C 0.27701 0.25159 0.29578 0.0
C649 C 0.2818 0.28323 0.29368 0.0
C650 C 0.28123 0.29486 0.28181 0.0
H651 H 0.34548 0.27981 0.24732 0.0
H652 H 0.3353 0.28929 0.26279 0.0
H653 H 0.33037 0.25063 0.25731 0.0
H654 H 0.26986 0.2273 0.26662 0.0
H655 H 0.26983 0.20713 0.28727 0.0
H656 H 0.79078 0.20285 0.19352 0.0
H657 H 0.78913 0.18111 0.2142 0.0
H658 H 0.76567 0.27072 0.22837 0.0
H659 H 0.76711 0.29237 0.20799 0.0
H660 H 0.82034 0.21416 0.23937 0.0
H661 H 0.6937 0.19775 0.23579 0.0
H662 H 0.71945 0.19383 0.22298 0.0
H663 H 0.70879 0.23145 0.22832 0.0
C664 C 0.78605 0.21795 0.20112 0.0
C665 C 0.77885 0.24923 0.19919 0.0
C666 C 0.78491 0.20548 0.21286 0.0
C667 C 0.77681 0.22433 0.22269 0.0
C668 C 0.7716 0.25584 0.22083 0.0
H669 H 0.76609 0.28961 0.28821 0.0
H670 H 0.77143 0.26921 0.2678 0.0
C671 C 0.77251 0.26816 0.2092 0.0
C672 C 0.77205 0.21194 0.23498 0.0
H673 H 0.71388 0.20847 0.25573 0.0
C674 C 0.7972 0.21146 0.24294 0.0
C675 C 0.74185 0.20823 0.23957 0.0
C676 C 0.71431 0.20756 0.23123 0.0
C677 C 0.79257 0.21102 0.25551 0.0
C678 C 0.76213 0.2116 0.26011 0.0
C679 C 0.73718 0.20822 0.25216 0.0
C680 C 0.75607 0.22326 0.27245 0.0
C681 C 0.82015 0.21295 0.26381 0.0
C682 C 0.74406 0.20447 0.28168 0.0
C683 C 0.74072 0.21624 0.29347 0.0
C684 C 0.74942 0.24682 0.29604 0.0
C685 C 0.75965 0.26583 0.28655 0.0
C686 C 0.76285 0.2542 0.2749 0.0
H687 H 0.84098 0.20288 0.25948 0.0
H688 H 0.82507 0.23754 0.26583 0.0
H689 H 0.8157 0.20084 0.27251 0.0
H690 H 0.73831 0.18061 0.27986 0.0
H691 H 0.73284 0.2011 0.30064 0.0
H692 H 0.78731 0.80751 0.69313 0.0
H693 H 0.79261 0.82217 0.71446 0.0
H694 H 0.71258 0.76753 0.72326 0.0
H695 H 0.70673 0.75363 0.70182 0.0
H696 H 0.72298 0.82103 0.73903 0.0
H697 H 0.82587 0.74556 0.73275 0.0
H698 H 0.82389 0.77951 0.72344 0.0
H699 H 0.79629 0.74909 0.72135 0.0
C700 C 0.76997 0.79998 0.69955 0.0
C701 C 0.74664 0.7795 0.69596 0.0
C702 C 0.77311 0.8082 0.71172 0.0
C703 C 0.7534 0.79536 0.72043 0.0
C704 C 0.72802 0.77766 0.71664 0.0
H705 H 0.75756 0.70704 0.7856 0.0
H706 H 0.75846 0.72823 0.76516 0.0
C707 C 0.72461 0.76978 0.70442 0.0
C708 C 0.76257 0.79489 0.73334 0.0
H709 H 0.81298 0.75917 0.75254 0.0
C710 C 0.74305 0.80819 0.74202 0.0
C711 C 0.78868 0.77778 0.73715 0.0
C712 C 0.80985 0.76194 0.72824 0.0
C713 C 0.74825 0.8036 0.75447 0.0
C714 C 0.77349 0.78532 0.75821 0.0
C715 C 0.79391 0.77349 0.74957 0.0
C716 C 0.77547 0.77298 0.77064 0.0
C717 C 0.72564 0.81643 0.76354 0.0
C718 C 0.78566 0.79099 0.78042 0.0
C719 C 0.78547 0.77876 0.79219 0.0
C720 C 0.77475 0.74858 0.79424 0.0
C721 C 0.76574 0.73043 0.78431 0.0
C722 C 0.7662 0.74248 0.77264 0.0
H723 H 0.70732 0.83047 0.75916 0.0
H724 H 0.71463 0.79722 0.7686 0.0
H725 H 0.73801 0.83102 0.77022 0.0
H726 H 0.79311 0.81454 0.77897 0.0
H727 H 0.79237 0.79328 0.79971 0.0
H728 H 0.54233 0.47478 0.95779 0.0
H729 H 0.52243 0.47669 0.97851 0.0
H730 H 0.42954 0.48274 0.96473 0.0
H731 H 0.44949 0.4799 0.94383 0.0
H732 H 0.45721 0.53476 0.9814 0.0
H733 H 0.46407 0.41547 -0.00051 0.0
H734 H 0.4957 0.427 0.98995 0.0
H735 H 0.45767 0.42383 0.98361 0.0
C736 C 0.51761 0.47546 0.9592 0.0
C737 C 0.49736 0.47699 0.9493 0.0
C738 C 0.50628 0.47658 0.971 0.0
C739 C 0.47458 0.47978 0.97309 0.0
C740 C 0.45407 0.47999 0.96324 0.0
H741 H 0.44869 0.492 0.05138 0.0
H742 H 0.42995 0.48732 0.03043 0.0
C743 C 0.46542 0.47819 0.95137 0.0
C744 C 0.46411 0.48669 0.98552 0.0
H745 H 0.4669 0.45655 0.014 0.0
C746 C 0.4583 0.51757 0.98854 0.0
C747 C 0.46547 0.4642 0.99474 0.0
C748 C 0.47082 0.43067 0.99183 0.0
C749 C 0.45652 0.52695 0.0007 0.0
C750 C 0.46081 0.50485 0.00997 0.0
C751 C 0.46374 0.47355 0.00689 0.0
C752 C 0.46728 0.51387 0.02266 0.0
C753 C 0.45168 0.56062 0.00351 0.0
C754 C 0.49394 0.53108 0.02524 0.0
C755 C 0.50458 0.53371 0.03714 0.0
C756 C 0.48859 0.51935 0.04661 0.0
C757 C 0.4609 0.50382 0.04418 0.0
C758 C 0.45032 0.50102 0.03225 0.0
H759 H 0.43853 0.57225 0.99616 0.0
H760 H 0.43922 0.56373 0.01222 0.0
H761 H 0.47445 0.57217 0.00424 0.0
H762 H 0.50785 0.54047 0.01796 0.0
H763 H 0.5264 0.54509 0.03884 0.0
H764 H 0.01036 0.54839 0.54349 0.0
H765 H 0.02785 0.54578 0.5226 0.0
H766 H 0.05369 0.45059 0.52765 0.0
H767 H 0.03552 0.45276 0.54872 0.0
H768 H 0.08302 0.53019 0.51069 0.0
H769 H 0.98739 0.44802 0.50101 0.0
H770 H 0.98994 0.46904 0.51507 0.0
H771 H 0.01438 0.43625 0.51248 0.0
C772 C 0.01994 0.52686 0.54024 0.0
C773 C 0.0209 0.50054 0.54772 0.0
C774 C 0.03021 0.52554 0.5283 0.0
C775 C 0.04163 0.49791 0.52354 0.0
C776 C 0.04452 0.47204 0.53114 0.0
H777 H 0.04785 0.45407 0.44724 0.0
H778 H 0.06277 0.45395 0.46857 0.0
C779 C 0.03421 0.47333 0.54317 0.0
C780 C 0.04716 0.49581 0.51033 0.0
H781 H 0.01652 0.46516 0.48456 0.0
C782 C 0.06886 0.51564 0.50495 0.0
C783 C 0.02832 0.47711 0.50289 0.0
C784 C 0.00351 0.45655 0.50809 0.0
C785 C 0.0719 0.51753 0.49229 0.0
C786 C 0.05252 0.49936 0.48488 0.0
C787 C 0.03152 0.47891 0.49028 0.0
C788 C 0.05188 0.50205 0.47149 0.0
C789 C 0.09552 0.5391 0.48694 0.0
C790 C 0.04223 0.52958 0.46591 0.0
C791 C 0.03399 0.52978 0.45362 0.0
C792 C 0.03482 0.50232 0.4469 0.0
C793 C 0.04684 0.4755 0.45227 0.0
C794 C 0.05541 0.47541 0.46444 0.0
H795 H 0.11412 0.54445 0.49355 0.0
H796 H 0.10601 0.52914 0.47864 0.0
H797 H 0.0841 0.5611 0.48443 0.0
H798 H 0.03878 0.55027 0.47123 0.0
H799 H 0.02452 0.55064 0.44969 0.0
H800 H 0.23033 0.84308 0.65997 0.0
H801 H 0.19694 0.88007 0.64971 0.0
H802 H 0.2297 0.84791 0.61504 0.0
H803 H 0.26326 0.81041 0.6253 0.0
H804 H 0.21342 0.92777 0.63318 0.0
H805 H 0.1344 0.84103 0.61281 0.0
H806 H 0.16061 0.83173 0.625 0.0
H807 H 0.17475 0.83553 0.60977 0.0
C808 C 0.23047 0.8438 0.65016 0.0
C809 C 0.2493 0.82372 0.64342 0.0
C810 C 0.21142 0.86502 0.64432 0.0
C811 C 0.21063 0.86647 0.63164 0.0
C812 C 0.22971 0.8468 0.62485 0.0
H813 H 0.102 0.97403 0.58147 0.0
H814 H 0.13878 0.9396 0.59129 0.0
C815 C 0.24893 0.82553 0.63071 0.0
C816 C 0.18967 0.88864 0.62563 0.0
H817 H 0.12558 0.89321 0.60777 0.0
C818 C 0.1942 0.92029 0.62761 0.0
C819 C 0.1646 0.87869 0.61844 0.0
C820 C 0.158 0.8449 0.61642 0.0
C821 C 0.17451 0.94236 0.62243 0.0
C822 C 0.14935 0.93241 0.61528 0.0
C823 C 0.14488 0.90074 0.61328 0.0
C824 C 0.12774 0.9544 0.6095 0.0
C825 C 0.18114 0.97613 0.62446 0.0
C826 C 0.10926 0.97417 0.6165 0.0
C827 C 0.08815 0.99404 0.61089 0.0
C828 C 0.08511 0.9942 0.59821 0.0
C829 C 0.10376 0.97444 0.59126 0.0
C830 C 0.1248 0.95472 0.59685 0.0
H831 H 0.20516 0.97999 0.62762 0.0
H832 H 0.17736 0.98958 0.61602 0.0
H833 H 0.16528 0.98516 0.63151 0.0
H834 H 0.11079 0.97385 0.6263 0.0
H835 H 0.07395 0.00888 0.61647 0.0
H836 H 0.25106 0.80541 0.87022 0.0
H837 H 0.28355 0.84329 0.88087 0.0
H838 H 0.30217 0.88911 0.84695 0.0
H839 H 0.27018 0.85162 0.83633 0.0
H840 H 0.34864 0.85327 0.87443 0.0
H841 H 0.27832 0.95997 0.87075 0.0
H842 H 0.26184 0.92181 0.86956 0.0
H843 H 0.28223 0.93827 0.85696 0.0
C844 C 0.26168 0.82391 0.86511 0.0
C845 C 0.25818 0.82561 0.85247 0.0
C846 C 0.28022 0.84542 0.87117 0.0
C847 C 0.2949 0.86913 0.86468 0.0
C848 C 0.29064 0.87129 0.85213 0.0
H849 H 0.43508 0.00807 0.8784 0.0
H850 H 0.39549 0.97475 0.86925 0.0
C851 C 0.2725 0.84972 0.84608 0.0
C852 C 0.31683 0.89018 0.87072 0.0
H853 H 0.33078 0.9662 0.87665 0.0
C854 C 0.34462 0.87791 0.87506 0.0
C855 C 0.31162 0.92233 0.87132 0.0
C856 C 0.28179 0.93646 0.86699 0.0
C857 C 0.3677 0.89707 0.8798 0.0
C858 C 0.36251 0.92923 0.88041 0.0
C859 C 0.33465 0.94152 0.87611 0.0
C860 C 0.38544 0.95022 0.88588 0.0
C861 C 0.39777 0.88288 0.88386 0.0
C862 C 0.3923 0.94775 0.89825 0.0
C863 C 0.41467 0.96661 0.90345 0.0
C864 C 0.43061 0.98841 0.89639 0.0
C865 C 0.42323 0.9914 0.88404 0.0
C866 C 0.40067 0.97246 0.87882 0.0
H867 H 0.40094 0.85929 0.88013 0.0
H868 H 0.41762 0.89737 0.88102 0.0
H869 H 0.39804 0.88126 0.8939 0.0
H870 H 0.38043 0.93105 0.90387 0.0
H871 H 0.41962 0.96389 0.91302 0.0
H872 H 0.4392 0.99391 0.11574 0.0
H873 H 0.39976 0.02711 0.12488 0.0
H874 H 0.37393 0.05999 0.08938 0.0
H875 H 0.41351 0.02751 0.08025 0.0
H876 H 0.38417 0.10674 0.10535 0.0
H877 H 0.30621 0.01949 0.1257 0.0
H878 H 0.34579 0.01543 0.13019 0.0
H879 H 0.33516 0.00966 0.11459 0.0
C880 C 0.42483 0.00794 0.1099 0.0
C881 C 0.42944 0.00819 0.0973 0.0
C882 C 0.40221 0.02675 0.11512 0.0
C883 C 0.38368 0.04573 0.10778 0.0
C884 C 0.38792 0.04547 0.09519 0.0
H885 H 0.24822 0.19014 0.1246 0.0
H886 H 0.27966 0.15196 0.11372 0.0
C887 C 0.41056 0.02689 0.09 0.0
C888 C 0.36127 0.06746 0.11322 0.0
H889 H 0.29794 0.07182 0.13149 0.0
C890 C 0.36512 0.0991 0.11097 0.0
C891 C 0.33647 0.05738 0.12053 0.0
C892 C 0.33041 0.02362 0.12282 0.0
C893 C 0.34534 0.12106 0.11612 0.0
C894 C 0.32083 0.11101 0.12357 0.0
C895 C 0.31672 0.07936 0.12571 0.0
C896 C 0.3006 0.13314 0.12994 0.0
C897 C 0.35144 0.15486 0.11389 0.0
C898 C 0.30154 0.13463 0.14261 0.0
C899 C 0.28371 0.1562 0.14879 0.0
C900 C 0.26445 0.17666 0.14242 0.0
C901 C 0.26296 0.17474 0.12972 0.0
C902 C 0.28094 0.15307 0.12351 0.0
H903 H 0.37457 0.15888 0.10986 0.0
H904 H 0.33386 0.16403 0.10753 0.0
H905 H 0.34974 0.16812 0.12248 0.0
H906 H 0.31653 0.11941 0.14772 0.0
H907 H 0.28526 0.15698 0.15859 0.0
H908 H 0.10127 0.02124 0.41168 0.0
H909 H 0.1388 0.05505 0.40196 0.0
H910 H 0.11007 0.02203 0.36685 0.0
H911 H 0.07205 0.98803 0.37656 0.0
H912 H 0.18822 0.04056 0.38578 0.0
H913 H 0.0998 0.11727 0.36513 0.0
H914 H 0.09086 0.09037 0.37713 0.0
H915 H 0.09571 0.07687 0.36186 0.0
C916 C 0.10296 0.02104 0.40188 0.0
C917 C 0.08358 0.00214 0.39486 0.0
C918 C 0.12448 0.04032 0.39636 0.0
C919 C 0.12691 0.04127 0.38371 0.0
C920 C 0.10819 0.02187 0.37664 0.0
H921 H 0.23176 0.15221 0.33404 0.0
H922 H 0.19862 0.11474 0.34406 0.0
C923 C 0.08664 0.00239 0.38218 0.0
C924 C 0.14867 0.06314 0.378 0.0
H925 H 0.15183 0.1277 0.36037 0.0
C926 C 0.18035 0.05963 0.38022 0.0
C927 C 0.13818 0.08809 0.37086 0.0
C928 C 0.10428 0.09368 0.36865 0.0
C929 C 0.20197 0.08013 0.37523 0.0
C930 C 0.19148 0.10501 0.36804 0.0
C931 C 0.15976 0.10858 0.3659 0.0
C932 C 0.21296 0.127 0.36221 0.0
C933 C 0.23585 0.0746 0.37746 0.0
C934 C 0.23212 0.14635 0.36912 0.0
C935 C 0.25129 0.1679 0.36339 0.0
C936 C 0.25131 0.17047 0.35069 0.0
C937 C 0.23224 0.15087 0.34385 0.0
C938 C 0.21325 0.12942 0.34955 0.0
H939 H 0.24036 0.05086 0.38081 0.0
H940 H 0.24938 0.07838 0.36904 0.0
H941 H 0.24424 0.09109 0.38441 0.0
H942 H 0.23181 0.14519 0.37893 0.0
H943 H 0.26564 0.18283 0.36888 0.0
H944 H 0.93838 0.00743 0.39361 0.0
H945 H 0.89942 0.03686 0.3823 0.0
H946 H 0.9576 0.11737 0.38362 0.0
H947 H 0.99646 0.08849 0.39481 0.0
H948 H 0.86986 0.09469 0.39014 0.0
H949 H 0.93493 0.10703 0.34716 0.0
H950 H 0.94379 0.07771 0.35828 0.0
H951 H 0.9569 0.11666 0.36044 0.0
C952 C 0.94298 0.03134 0.39141 0.0
C953 C 0.97062 0.04555 0.39512 0.0
C954 C 0.92065 0.0481 0.38499 0.0
C955 C 0.92583 0.07915 0.38203 0.0
C956 C 0.95337 0.09329 0.38567 0.0
H957 H 0.84958 0.23995 0.35128 0.0
H958 H 0.87867 0.19844 0.36077 0.0
C959 C 0.97552 0.07673 0.39213 0.0
C960 C 0.90236 0.09748 0.37545 0.0
H961 H 0.89303 0.142 0.35021 0.0
C962 C 0.87455 0.10465 0.38131 0.0
C963 C 0.90863 0.11031 0.36393 0.0
C964 C 0.93756 0.10235 0.35702 0.0
C965 C 0.85366 0.12591 0.37626 0.0
C966 C 0.86067 0.13986 0.36499 0.0
C967 C 0.88779 0.13144 0.35889 0.0
C968 C 0.84169 0.16507 0.35979 0.0
C969 C 0.82513 0.1345 0.38331 0.0
C970 C 0.81102 0.1602 0.35616 0.0
C971 C 0.79411 0.18409 0.35075 0.0
C972 C 0.80774 0.21313 0.34877 0.0
C973 C 0.83833 0.2179 0.35258 0.0
C974 C 0.85507 0.19415 0.35801 0.0
H975 H 0.82608 0.12611 0.39282 0.0
H976 H 0.82191 0.15991 0.38339 0.0
H977 H 0.80464 0.12408 0.37889 0.0
H978 H 0.80039 0.13778 0.35727 0.0
H979 H 0.77067 0.17956 0.34786 0.0
H980 H 0.54731 0.09153 0.08612 0.0
H981 H 0.58624 0.12032 0.09726 0.0
H982 H 0.59084 0.04765 0.12398 0.0
H983 H 0.55273 0.01781 0.11237 0.0
H984 H 0.58095 0.14366 0.11849 0.0
H985 H 0.68076 0.06382 0.11938 0.0
H986 H 0.64755 0.05732 0.10985 0.0
H987 H 0.64641 0.04726 0.12568 0.0
C988 C 0.55679 0.08153 0.09432 0.0
C989 C 0.54687 0.05254 0.09844 0.0
C990 C 0.57912 0.09799 0.10067 0.0
C991 C 0.59173 0.08615 0.11144 0.0
C992 C 0.58207 0.05699 0.11555 0.0
H993 H 0.67115 0.21461 0.16299 0.0
H994 H 0.64012 0.17525 0.15295 0.0
C995 C 0.56011 0.04007 0.10899 0.0
C996 C 0.61309 0.10575 0.11864 0.0
H997 H 0.68435 0.10856 0.13187 0.0
C998 C 0.60361 0.13592 0.12136 0.0
C999 C 0.64281 0.09587 0.12229 0.0
C1000 C 0.65515 0.06441 0.11905 0.0
C1001 C 0.62293 0.15655 0.12749 0.0
C1002 C 0.65215 0.14636 0.13157 0.0
C1003 C 0.66179 0.11621 0.12887 0.0
C1004 C 0.67293 0.16702 0.13853 0.0
C1005 C 0.61207 0.18938 0.12918 0.0
C1006 C 0.70257 0.17408 0.1342 0.0
C1007 C 0.72075 0.19616 0.14011 0.0
C1008 C 0.70932 0.2117 0.15035 0.0
C1009 C 0.68028 0.20346 0.15497 0.0
C1010 C 0.66248 0.18104 0.14922 0.0
H1011 H 0.59416 0.19572 0.12241 0.0
H1012 H 0.60168 0.19185 0.13832 0.0
H1013 H 0.63146 0.20596 0.12837 0.0
H1014 H 0.71119 0.16335 0.12601 0.0
H1015 H 0.74311 0.20199 0.13639 0.0
H1016 H 0.67454 0.79143 0.82882 0.0
H1017 H 0.64496 0.83294 0.83817 0.0
H1018 H 0.70788 0.83351 0.86852 0.0
H1019 H 0.73868 0.79311 0.85875 0.0
H1020 H 0.61396 0.82929 0.85743 0.0
H1021 H 0.69762 0.9237 0.86449 0.0
H1022 H 0.70622 0.89073 0.85511 0.0
H1023 H 0.71078 0.8886 0.87134 0.0
C1024 C 0.68234 0.80082 0.8374 0.0
C1025 C 0.70879 0.78907 0.8431 0.0
C1026 C 0.66546 0.82458 0.84273 0.0
C1027 C 0.67422 0.8367 0.85403 0.0
C1028 C 0.70104 0.8253 0.85965 0.0
H1029 H 0.54361 0.90517 0.90531 0.0
H1030 H 0.58131 0.87715 0.89329 0.0
C1031 C 0.71848 0.802 0.85413 0.0
C1032 C 0.65337 0.85869 0.86037 0.0
H1033 H 0.6508 0.92637 0.87626 0.0
C1034 C 0.62209 0.8507 0.86138 0.0
C1035 C 0.66365 0.88692 0.86543 0.0
C1036 C 0.69634 0.89815 0.86392 0.0
C1037 C 0.60106 0.86957 0.86751 0.0
C1038 C 0.61173 0.89666 0.87329 0.0
C1039 C 0.64275 0.90533 0.87198 0.0
C1040 C 0.59112 0.91517 0.88118 0.0
C1041 C 0.56751 0.86022 0.86768 0.0
C1042 C 0.58528 0.94648 0.87878 0.0
C1043 C 0.56391 0.96288 0.88583 0.0
C1044 C 0.548 0.94807 0.89529 0.0
C1045 C 0.55492 0.91709 0.89792 0.0
C1046 C 0.57646 0.90098 0.89103 0.0
H1047 H 0.56163 0.84557 0.85975 0.0
H1048 H 0.56285 0.84655 0.87599 0.0
H1049 H 0.5521 0.88067 0.86766 0.0
H1050 H 0.59659 0.95794 0.87128 0.0
H1051 H 0.5592 0.98678 0.88365 0.0
H1052 H 0.77485 0.79737 0.63056 0.0
H1053 H 0.80549 0.83472 0.61881 0.0
H1054 H 0.87114 0.84027 0.64814 0.0
H1055 H 0.84162 0.80219 0.65955 0.0
H1056 H 0.82652 0.89384 0.62213 0.0
H1057 H 0.92524 0.81302 0.62063 0.0
H1058 H 0.88767 0.8015 0.62594 0.0
H1059 H 0.91385 0.82156 0.63588 0.0
C1060 C 0.79574 0.80678 0.63447 0.0
C1061 C 0.80629 0.79649 0.64582 0.0
C1062 C 0.81318 0.82809 0.62779 0.0
C1063 C 0.84107 0.8396 0.63247 0.0
C1064 C 0.85029 0.83092 0.64417 0.0
H1065 H 0.95609 0.99024 0.60571 0.0
H1066 H 0.91664 0.95968 0.61617 0.0
C1067 C 0.83335 0.80924 0.6507 0.0
C1068 C 0.86155 0.85939 0.625 0.0
H1069 H 0.93546 0.8647 0.61465 0.0
C1070 C 0.85028 0.88742 0.62039 0.0
C1071 C 0.89241 0.85074 0.62256 0.0
C1072 C 0.90541 0.81992 0.6264 0.0
C1073 C 0.86932 0.90737 0.61365 0.0
C1074 C 0.9006 0.89933 0.61175 0.0
C1075 C 0.91158 0.87106 0.6162 0.0
C1076 C 0.92248 0.91917 0.60491 0.0
C1077 C 0.85558 0.93648 0.60847 0.0
C1078 C 0.93924 0.90652 0.59523 0.0
C1079 C 0.96219 0.9236 0.58948 0.0
C1080 C 0.96879 0.95392 0.59317 0.0
C1081 C 0.95143 0.96699 0.60262 0.0
C1082 C 0.92868 0.94963 0.60854 0.0
H1083 H 0.83011 0.93471 0.60761 0.0
H1084 H 0.86075 0.95604 0.61462 0.0
H1085 H 0.86542 0.94178 0.59941 0.0
H1086 H 0.93491 0.88311 0.59226 0.0
H1087 H 0.9749 0.91292 0.58214 0.0
H1088 H 0.7306 0.34626 0.15966 0.0
H1089 H 0.69762 0.38297 0.14904 0.0
H1090 H 0.73334 0.35139 0.11474 0.0
H1091 H 0.76646 0.31415 0.12535 0.0
H1092 H 0.71497 0.43093 0.13272 0.0
H1093 H 0.63835 0.3435 0.11137 0.0
H1094 H 0.66369 0.33437 0.12386 0.0
H1095 H 0.679 0.33858 0.10883 0.0
C1096 C 0.73148 0.34705 0.14985 0.0
C1097 C 0.751 0.32721 0.14332 0.0
C1098 C 0.71266 0.36811 0.14381 0.0
C1099 C 0.71284 0.36964 0.13112 0.0
C1100 C 0.7326 0.35021 0.12454 0.0
H1101 H 0.60069 0.47569 0.08115 0.0
H1102 H 0.63909 0.44208 0.0905 0.0
C1103 C 0.75157 0.32909 0.13061 0.0
C1104 C 0.69211 0.39162 0.1249 0.0
H1105 H 0.62875 0.39562 0.10662 0.0
C1106 C 0.69615 0.42329 0.12698 0.0
C1107 C 0.66758 0.38147 0.11746 0.0
C1108 C 0.6616 0.34763 0.11528 0.0
C1109 C 0.6764 0.44519 0.12173 0.0
C1110 C 0.65161 0.43502 0.11441 0.0
C1111 C 0.64777 0.40334 0.11225 0.0
C1112 C 0.62936 0.45676 0.10885 0.0
C1113 C 0.68254 0.47898 0.12391 0.0
C1114 C 0.61111 0.47621 0.11607 0.0
C1115 C 0.5892 0.49566 0.11073 0.0
C1116 C 0.58499 0.49563 0.09811 0.0
C1117 C 0.60338 0.47622 0.09091 0.0
C1118 C 0.62533 0.45697 0.09623 0.0
H1119 H 0.70675 0.48311 0.12679 0.0
H1120 H 0.67784 0.49281 0.11564 0.0
H1121 H 0.66718 0.48734 0.13125 0.0
H1122 H 0.61336 0.4759 0.12585 0.0
H1123 H 0.57518 0.5102 0.1165 0.0
H1124 H 0.77674 0.35019 0.33586 0.0
H1125 H 0.80869 0.38719 0.34677 0.0
H1126 H 0.78233 0.34561 0.38074 0.0
H1127 H 0.75003 0.30814 0.36981 0.0
H1128 H 0.79267 0.43009 0.36603 0.0
H1129 H 0.87901 0.3412 0.37932 0.0
H1130 H 0.85107 0.33486 0.36744 0.0
H1131 H 0.83942 0.33319 0.38303 0.0
C1132 C 0.77752 0.34898 0.34567 0.0
C1133 C 0.76107 0.32615 0.352 0.0
C1134 C 0.79572 0.37022 0.35187 0.0
C1135 C 0.79805 0.3689 0.36452 0.0
C1136 C 0.78097 0.34674 0.37095 0.0
H1137 H 0.91896 0.46578 0.41372 0.0
H1138 H 0.87927 0.4337 0.40448 0.0
C1139 C 0.76248 0.3255 0.36472 0.0
C1140 C 0.81945 0.39006 0.37078 0.0
H1141 H 0.88835 0.39214 0.38568 0.0
C1142 C 0.81353 0.42187 0.3704 0.0
C1143 C 0.84672 0.37915 0.37633 0.0
C1144 C 0.85473 0.34528 0.37653 0.0
C1145 C 0.83412 0.44313 0.37555 0.0
C1146 C 0.86152 0.43223 0.38102 0.0
C1147 C 0.8673 0.40039 0.38146 0.0
C1148 C 0.88438 0.45327 0.38656 0.0
C1149 C 0.82622 0.477 0.37525 0.0
C1150 C 0.90042 0.47501 0.37952 0.0
C1151 C 0.92324 0.49352 0.38479 0.0
C1152 C 0.93042 0.49032 0.39715 0.0
C1153 C 0.91403 0.46876 0.40416 0.0
C1154 C 0.89132 0.45039 0.39891 0.0
H1155 H 0.80134 0.48087 0.37338 0.0
H1156 H 0.83223 0.48826 0.38398 0.0
H1157 H 0.83968 0.48838 0.36796 0.0
H1158 H 0.89576 0.47717 0.36991 0.0
H1159 H 0.9356 0.50984 0.37917 0.0
H1160 H 0.90899 0.52582 0.58492 0.0
H1161 H 0.87257 0.55839 0.5958 0.0
H1162 H 0.90472 0.52149 0.62984 0.0
H1163 H 0.9415 0.48834 0.61893 0.0
H1164 H 0.83664 0.52926 0.62695 0.0
H1165 H 0.90463 0.63395 0.61571 0.0
H1166 H 0.896 0.60972 0.60294 0.0
H1167 H 0.9205 0.5955 0.61484 0.0
C1168 C 0.90823 0.52439 0.59472 0.0
C1169 C 0.92833 0.5048 0.6011 0.0
C1170 C 0.88742 0.54305 0.60091 0.0
C1171 C 0.88639 0.54266 0.61359 0.0
C1172 C 0.90539 0.52215 0.62003 0.0
H1173 H 0.78519 0.66042 0.66314 0.0
H1174 H 0.81734 0.62004 0.65425 0.0
C1175 C 0.92632 0.50329 0.61381 0.0
C1176 C 0.86634 0.56485 0.61998 0.0
H1177 H 0.85426 0.64207 0.62358 0.0
C1178 C 0.84058 0.55391 0.62635 0.0
C1179 C 0.8717 0.59696 0.61914 0.0
C1180 C 0.89985 0.60982 0.61288 0.0
C1181 C 0.81942 0.57446 0.6316 0.0
C1182 C 0.82438 0.60653 0.63045 0.0
C1183 C 0.85042 0.61741 0.62428 0.0
C1184 C 0.80319 0.62937 0.63581 0.0
C1185 C 0.79151 0.56195 0.6381 0.0
C1186 C 0.78474 0.64797 0.62833 0.0
C1187 C 0.76622 0.67103 0.63338 0.0
C1188 C 0.76631 0.67602 0.64596 0.0
C1189 C 0.78468 0.65713 0.65341 0.0
C1190 C 0.80293 0.63396 0.64837 0.0
H1191 H 0.78872 0.53672 0.63672 0.0
H1192 H 0.79381 0.56644 0.64796 0.0
H1193 H 0.77034 0.57386 0.6349 0.0
H1194 H 0.78493 0.6448 0.61859 0.0
H1195 H 0.75235 0.68529 0.62744 0.0
H1196 H 0.72967 0.65061 0.83361 0.0
H1197 H 0.69658 0.61383 0.84409 0.0
H1198 H 0.72947 0.64734 0.87856 0.0
H1199 H 0.76281 0.68464 0.86807 0.0
H1200 H 0.71292 0.56671 0.86114 0.0
H1201 H 0.63386 0.65527 0.88028 0.0
H1202 H 0.66025 0.66357 0.86805 0.0
H1203 H 0.67425 0.66062 0.88333 0.0
C1204 C 0.72995 0.6502 0.84343 0.0
C1205 C 0.74868 0.67065 0.85004 0.0
C1206 C 0.71108 0.62908 0.84939 0.0
C1207 C 0.71038 0.62811 0.86207 0.0
C1208 C 0.72946 0.64806 0.86875 0.0
H1209 H 0.5979 0.52419 0.91201 0.0
H1210 H 0.63594 0.55738 0.90233 0.0
C1211 C 0.74854 0.66922 0.86276 0.0
C1212 C 0.68917 0.60644 0.86819 0.0
H1213 H 0.62397 0.60343 0.88542 0.0
C1214 C 0.69349 0.57466 0.86648 0.0
C1215 C 0.6638 0.61702 0.87506 0.0
C1216 C 0.65746 0.65096 0.87675 0.0
C1217 C 0.67323 0.55306 0.87162 0.0
C1218 C 0.64775 0.56364 0.87843 0.0
C1219 C 0.64353 0.59543 0.88017 0.0
C1220 C 0.62549 0.54221 0.88411 0.0
C1221 C 0.67954 0.51913 0.86989 0.0
C1222 C 0.60696 0.52261 0.87705 0.0
C1223 C 0.58507 0.50346 0.88258 0.0
C1224 C 0.58136 0.50386 0.89523 0.0
C1225 C 0.60014 0.52337 0.90224 0.0
C1226 C 0.62192 0.54238 0.89673 0.0
H1227 H 0.70364 0.51481 0.86694 0.0
H1228 H 0.67522 0.50616 0.87841 0.0
H1229 H 0.66385 0.50992 0.86281 0.0
H1230 H 0.60902 0.52256 0.86727 0.0
H1231 H 0.5708 0.48877 0.87696 0.0
H1232 H 0.43751 0.50768 0.8945 0.0
H1233 H 0.39873 0.53739 0.8832 0.0
H1234 H 0.45368 0.61952 0.88734 0.0
H1235 H 0.49234 0.59041 0.89854 0.0
H1236 H 0.36612 0.59398 0.89141 0.0
H1237 H 0.43691 0.61188 0.85015 0.0
H1238 H 0.44481 0.58164 0.86099 0.0
H1239 H 0.45655 0.62061 0.86408 0.0
C1240 C 0.44139 0.53204 0.89297 0.0
C1241 C 0.46816 0.54658 0.89742 0.0
C1242 C 0.41918 0.54896 0.88654 0.0
C1243 C 0.42357 0.58053 0.88434 0.0
C1244 C 0.45008 0.59507 0.88881 0.0
H1245 H 0.3465 0.74075 0.85292 0.0
H1246 H 0.37575 0.69991 0.8628 0.0
C1247 C 0.47212 0.57834 0.89526 0.0
C1248 C 0.40053 0.59884 0.8775 0.0
H1249 H 0.39335 0.64489 0.85258 0.0
C1250 C 0.37174 0.60476 0.88282 0.0
C1251 C 0.40802 0.61275 0.8663 0.0
C1252 C 0.43814 0.60623 0.85996 0.0
C1253 C 0.35091 0.62575 0.87755 0.0
C1254 C 0.35902 0.6407 0.86659 0.0
C1255 C 0.38724 0.63358 0.86102 0.0
C1256 C 0.33986 0.66551 0.86115 0.0
C1257 C 0.32119 0.63294 0.88406 0.0
C1258 C 0.30974 0.65987 0.85701 0.0
C1259 C 0.29273 0.68338 0.8514 0.0
C1260 C 0.30574 0.71282 0.84969 0.0
C1261 C 0.33577 0.71836 0.854 0.0
C1262 C 0.35258 0.695 0.85965 0.0
H1263 H 0.32136 0.62437 0.89355 0.0
H1264 H 0.31681 0.65817 0.88415 0.0
H1265 H 0.30177 0.62167 0.87923 0.0
H1266 H 0.29965 0.63714 0.85788 0.0
H1267 H 0.26975 0.67827 0.84812 0.0
H1268 H 0.02247 0.59538 0.60005 0.0
H1269 H 0.06413 0.62152 0.61069 0.0
H1270 H 0.11063 0.53475 0.61604 0.0
H1271 H 0.06889 0.50801 0.60526 0.0
H1272 H 0.10476 0.57817 0.63756 0.0
H1273 H 0.15425 0.631 0.59604 0.0
H1274 H 0.11307 0.63437 0.59742 0.0
H1275 H 0.13024 0.59693 0.59567 0.0
C1276 C 0.04142 0.58166 0.60349 0.0
C1277 C 0.04236 0.54953 0.6017 0.0
C1278 C 0.06528 0.59673 0.60954 0.0
C1279 C 0.09057 0.58009 0.61397 0.0
C1280 C 0.09133 0.54795 0.61258 0.0
H1281 H 0.24875 0.68749 0.641 0.0
H1282 H 0.21967 0.64557 0.63138 0.0
C1283 C 0.06746 0.53277 0.60643 0.0
C1284 C 0.11601 0.59678 0.62002 0.0
H1285 H 0.1693 0.65323 0.61496 0.0
C1286 C 0.11929 0.59419 0.63262 0.0
C1287 C 0.13514 0.61733 0.61351 0.0
C1288 C 0.13329 0.61999 0.59989 0.0
C1289 C 0.14 0.61311 0.63899 0.0
C1290 C 0.15755 0.63523 0.63256 0.0
C1291 C 0.15565 0.6364 0.61988 0.0
C1292 C 0.17569 0.65928 0.63888 0.0
C1293 C 0.14239 0.60983 0.65257 0.0
C1294 C 0.16049 0.681 0.64614 0.0
C1295 C 0.17688 0.70502 0.65154 0.0
C1296 C 0.2089 0.70788 0.64981 0.0
C1297 C 0.22415 0.68593 0.64257 0.0
C1298 C 0.20761 0.66196 0.63707 0.0
H1299 H 0.13485 0.5866 0.65562 0.0
H1300 H 0.16638 0.61387 0.65572 0.0
H1301 H 0.12722 0.62717 0.65695 0.0
H1302 H 0.13577 0.67972 0.64744 0.0
H1303 H 0.16432 0.72143 0.65706 0.0
H1304 H 0.0203 0.40916 0.39015 0.0
H1305 H 0.06034 0.38284 0.37868 0.0
H1306 H 0.11858 0.46314 0.38121 0.0
H1307 H 0.07845 0.48991 0.39287 0.0
H1308 H 0.09062 0.40147 0.35634 0.0
H1309 H 0.17097 0.39053 0.39561 0.0
H1310 H 0.13058 0.39925 0.39763 0.0
H1311 H 0.15625 0.42819 0.39189 0.0
C1312 C 0.04151 0.42142 0.38825 0.0
C1313 C 0.04622 0.45161 0.39254 0.0
C1314 C 0.06437 0.40631 0.38166 0.0
C1315 C 0.09253 0.42089 0.37924 0.0
C1316 C 0.09711 0.45137 0.38314 0.0
H1317 H 0.24865 0.31714 0.34779 0.0
H1318 H 0.21897 0.35999 0.35647 0.0
C1319 C 0.07409 0.46666 0.38973 0.0
C1320 C 0.11697 0.40341 0.37287 0.0
H1321 H 0.1838 0.36365 0.37784 0.0
C1322 C 0.11126 0.39359 0.36097 0.0
C1323 C 0.14396 0.39338 0.3789 0.0
C1324 C 0.15097 0.40316 0.39174 0.0
C1325 C 0.13116 0.37295 0.3551 0.0
C1326 C 0.15707 0.36127 0.36142 0.0
C1327 C 0.1638 0.37248 0.37306 0.0
C1328 C 0.17559 0.33538 0.35652 0.0
C1329 C 0.12388 0.36332 0.34227 0.0
C1330 C 0.16122 0.30711 0.35404 0.0
C1331 C 0.17797 0.28272 0.3491 0.0
C1332 C 0.20964 0.2859 0.34663 0.0
C1333 C 0.2243 0.31392 0.34954 0.0
C1334 C 0.20739 0.33845 0.35447 0.0
H1335 H 0.11009 0.3812 0.3375 0.0
H1336 H 0.14525 0.3589 0.33701 0.0
H1337 H 0.11004 0.3418 0.34246 0.0
H1338 H 0.13689 0.30394 0.35588 0.0
H1339 H 0.16594 0.26141 0.34715 0.0
H1340 H 0.48162 0.40933 0.0916 0.0
H1341 H 0.44145 0.38197 0.10263 0.0
H1342 H 0.4095 0.46766 0.1179 0.0
H1343 H 0.44983 0.49563 0.10679 0.0
H1344 H 0.41845 0.41598 0.13493 0.0
H1345 H 0.34677 0.38509 0.0951 0.0
H1346 H 0.38715 0.37711 0.09321 0.0
H1347 H 0.37438 0.41632 0.09487 0.0
C1348 C 0.46615 0.42253 0.09729 0.0
C1349 C 0.46897 0.45478 0.09826 0.0
C1350 C 0.44304 0.4068 0.10353 0.0
C1351 C 0.42226 0.42286 0.11092 0.0
C1352 C 0.42519 0.45494 0.11214 0.0
H1353 H 0.268 0.31754 0.14246 0.0
H1354 H 0.2966 0.35973 0.13281 0.0
C1355 C 0.44824 0.47084 0.10579 0.0
C1356 C 0.39823 0.40558 0.11758 0.0
H1357 H 0.33843 0.35562 0.1132 0.0
C1358 C 0.40058 0.4032 0.13023 0.0
C1359 C 0.37473 0.38927 0.11143 0.0
C1360 C 0.37032 0.39223 0.09791 0.0
C1361 C 0.38118 0.38339 0.1368 0.0
C1362 C 0.35916 0.36535 0.13052 0.0
C1363 C 0.35553 0.36924 0.11798 0.0
C1364 C 0.34159 0.3405 0.13663 0.0
C1365 C 0.3849 0.3814 0.15038 0.0
C1366 C 0.35742 0.31552 0.14177 0.0
C1367 C 0.34126 0.2914 0.14721 0.0
C1368 C 0.30881 0.29163 0.14761 0.0
C1369 C 0.29295 0.31663 0.14235 0.0
C1370 C 0.30923 0.34078 0.13685 0.0
H1371 H 0.3955 0.4027 0.15412 0.0
H1372 H 0.36237 0.37751 0.1549 0.0
H1373 H 0.4003 0.36176 0.15262 0.0
H1374 H 0.38236 0.31449 0.14145 0.0
H1375 H 0.35433 0.27255 0.15111 0.0
loop_
_geom_bond_atom_site_label_1
_geom_bond_atom_site_label_2
_geom_bond_distance
_geom_bond_site_symmetry_2
_ccdc_geom_bond_type
Co0 O1 2.216 . S
Co0 O2 2.091 1_455 S
Co0 O4 2.004 1_455 S
Co0 O10 2.021 1_455 S
Co0 O12 2.137 . S
Co0 O13 2.217 1_545 S
O1 Co0 2.216 . S
O1 C8 1.247 . S
O2 Co0 2.091 1_655 S
O2 C8 1.261 1_655 S
C3 O12 1.247 . S
C3 O13 1.261 1_545 S
O4 Co0 2.004 1_655 S
O4 C9 1.259 1_545 S
Co5 O6 2.061 1_455 S
Co5 O11 2.052 . S
Co5 O13 2.162 . S
O6 Co5 2.061 1_655 S
O6 C9 1.235 . S
C7 O10 1.238 1_455 S
C7 O11 1.241 1_545 S
C8 O1 1.247 . S
C8 O2 1.261 1_455 S
C9 O4 1.259 1_565 S
C9 O6 1.235 . S
O10 Co0 2.021 1_655 S
O10 C7 1.238 1_655 S
O11 Co5 2.052 . S
O11 C7 1.241 1_565 S
O12 Co0 2.137 . S
O12 C3 1.247 . S
O13 Co0 2.217 1_565 S
O13 C3 1.261 1_565 S
O13 Co5 2.162 . S
Co14 O15 2.216 . S
Co14 O16 2.091 . S
Co14 O18 2.004 . S
Co14 O24 2.021 . S
Co14 O26 2.137 . S
Co14 O27 2.244 . S
O15 Co14 2.216 . S
O15 C22 1.247 . S
O16 Co14 2.091 . S
O16 C22 1.261 . S
C17 O26 1.247 . S
C17 O27 1.272 . S
O18 Co14 2.004 . S
O18 C23 1.259 . S
Co19 O20 2.061 . S
Co19 O25 2.052 . S
Co19 O27 2.135 . S
O20 Co19 2.061 . S
O20 C23 1.235 . S
C21 O24 1.238 . S
C21 O25 1.241 . S
C22 O15 1.247 . S
C22 O16 1.261 . S
C23 O18 1.259 . S
C23 O20 1.235 . S
O24 Co14 2.021 . S
O24 C21 1.238 . S
O25 Co19 2.052 . S
O25 C21 1.241 . S
O26 Co14 2.137 . S
O26 C17 1.247 . S
O27 Co14 2.244 . S
O27 C17 1.272 . S
O27 Co19 2.135 . S
Co28 O29 2.216 . S
Co28 O30 2.091 . S
Co28 O32 2.004 . S
Co28 O38 2.021 . S
Co28 O40 2.137 . S
Co28 O41 2.217 1_565 S
O29 Co28 2.216 . S
O29 C36 1.247 . S
O30 Co28 2.091 . S
O30 C36 1.261 . S
C31 O40 1.247 . S
C31 O41 1.261 1_565 S
O32 Co28 2.004 . S
O32 C37 1.259 1_565 S
Co33 O34 2.061 . S
Co33 O39 2.052 . S
Co33 O41 2.162 . S
O34 Co33 2.061 . S
O34 C37 1.235 . S
C35 O38 1.238 . S
C35 O39 1.241 1_565 S
C36 O29 1.247 . S
C36 O30 1.261 . S
C37 O32 1.259 1_545 S
C37 O34 1.235 . S
O38 Co28 2.021 . S
O38 C35 1.238 . S
O39 Co33 2.052 . S
O39 C35 1.241 1_545 S
O40 Co28 2.137 . S
O40 C31 1.247 . S
O41 Co28 2.217 1_545 S
O41 C31 1.261 1_545 S
O41 Co33 2.162 . S
Co42 O43 2.216 . S
Co42 O44 2.091 . S
Co42 O46 2.004 . S
Co42 O52 2.021 . S
Co42 O54 2.137 . S
Co42 O55 2.244 . S
O43 Co42 2.216 . S
O43 C50 1.247 . S
O44 Co42 2.091 . S
O44 C50 1.261 . S
C45 O54 1.247 . S
C45 O55 1.272 . S
O46 Co42 2.004 . S
O46 C51 1.259 . S
Co47 O48 2.061 . S
Co47 O53 2.052 . S
Co47 O55 2.135 . S
O48 Co47 2.061 . S
O48 C51 1.235 . S
C49 O52 1.238 . S
C49 O53 1.241 . S
C50 O43 1.247 . S
C50 O44 1.261 . S
C51 O46 1.259 . S
C51 O48 1.235 . S
O52 Co42 2.021 . S
O52 C49 1.238 . S
O53 Co47 2.052 . S
O53 C49 1.241 . S
O54 Co42 2.137 . S
O54 C45 1.247 . S
O55 Co42 2.244 . S
O55 C45 1.272 . S
O55 Co47 2.135 . S
Co56 O57 2.216 . S
Co56 O58 2.091 1_455 S
Co56 O60 2.004 1_455 S
Co56 O66 2.021 1_455 S
Co56 O68 2.137 . S
Co56 O69 2.217 1_565 S
O57 Co56 2.216 . S
O57 C64 1.247 . S
O58 Co56 2.091 1_655 S
O58 C64 1.261 1_655 S
C59 O68 1.247 . S
C59 O69 1.261 1_565 S
O60 Co56 2.004 1_655 S
O60 C65 1.259 1_565 S
Co61 O62 2.061 1_455 S
Co61 O67 2.052 . S
Co61 O69 2.162 . S
O62 Co61 2.061 1_655 S
O62 C65 1.235 . S
C63 O66 1.238 1_455 S
C63 O67 1.241 1_565 S
C64 O57 1.247 . S
C64 O58 1.261 1_455 S
C65 O60 1.259 1_545 S
C65 O62 1.235 . S
O66 Co56 2.021 1_655 S
O66 C63 1.238 1_655 S
O67 Co61 2.052 . S
O67 C63 1.241 1_545 S
O68 Co56 2.137 . S
O68 C59 1.247 . S
O69 Co56 2.217 1_545 S
O69 C59 1.261 1_545 S
O69 Co61 2.162 . S
Co70 O71 2.216 . S
Co70 O72 2.091 . S
Co70 O74 2.004 . S
Co70 O80 2.021 . S
Co70 O82 2.137 . S
Co70 O83 2.244 . S
O71 Co70 2.216 . S
O71 C78 1.247 . S
O72 Co70 2.091 . S
O72 C78 1.261 . S
C73 O82 1.247 . S
C73 O83 1.272 . S
O74 Co70 2.004 . S
O74 C79 1.259 . S
Co75 O76 2.061 . S
Co75 O81 2.052 . S
Co75 O83 2.135 . S
O76 Co75 2.061 . S
O76 C79 1.235 . S
C77 O80 1.238 . S
C77 O81 1.241 . S
C78 O71 1.247 . S
C78 O72 1.261 . S
C79 O74 1.259 . S
C79 O76 1.235 . S
O80 Co70 2.021 . S
O80 C77 1.238 . S
O81 Co75 2.052 . S
O81 C77 1.241 . S
O82 Co70 2.137 . S
O82 C73 1.247 . S
O83 Co70 2.244 . S
O83 C73 1.272 . S
O83 Co75 2.135 . S
Co84 O85 2.216 . S
Co84 O86 2.091 . S
Co84 O88 2.004 . S
Co84 O94 2.021 . S
Co84 O96 2.137 . S
Co84 O97 2.217 1_545 S
O85 Co84 2.216 . S
O85 C92 1.247 . S
O86 Co84 2.091 . S
O86 C92 1.261 . S
C87 O96 1.247 . S
C87 O97 1.261 1_545 S
O88 Co84 2.004 . S
O88 C93 1.259 1_545 S
Co89 O90 2.061 . S
Co89 O95 2.052 . S
Co89 O97 2.162 . S
O90 Co89 2.061 . S
O90 C93 1.235 . S
C91 O94 1.238 . S
C91 O95 1.241 1_545 S
C92 O85 1.247 . S
C92 O86 1.261 . S
C93 O88 1.259 1_565 S
C93 O90 1.235 . S
O94 Co84 2.021 . S
O94 C91 1.238 . S
O95 Co89 2.052 . S
O95 C91 1.241 1_565 S
O96 Co84 2.137 . S
O96 C87 1.247 . S
O97 Co84 2.217 1_565 S
O97 C87 1.261 1_565 S
O97 Co89 2.162 . S
Co98 O99 2.216 . S
Co98 O100 2.091 . S
Co98 O102 2.004 . S
Co98 O108 2.021 . S
Co98 O110 2.137 . S
Co98 O111 2.244 . S
O99 Co98 2.216 . S
O99 C106 1.247 . S
O100 Co98 2.091 . S
O100 C106 1.261 . S
C101 O110 1.247 . S
C101 O111 1.272 . S
O102 Co98 2.004 . S
O102 C107 1.259 . S
Co103 O104 2.061 . S
Co103 O109 2.052 . S
Co103 O111 2.135 . S
O104 Co103 2.061 . S
O104 C107 1.235 . S
C105 O108 1.238 . S
C105 O109 1.241 . S
C106 O99 1.247 . S
C106 O100 1.261 . S
C107 O102 1.259 . S
C107 O104 1.235 . S
O108 Co98 2.021 . S
O108 C105 1.238 . S
O109 Co103 2.052 . S
O109 C105 1.241 . S
O110 Co98 2.137 . S
O110 C101 1.247 . S
O111 Co98 2.244 . S
O111 C101 1.272 . S
O111 Co103 2.135 . S
Co112 O113 2.216 . S
Co112 O114 2.091 . S
Co112 O116 2.004 . S
Co112 O122 2.021 . S
Co112 O124 2.137 . S
Co112 O125 2.244 . S
O113 Co112 2.216 . S
O113 C120 1.247 . S
O114 Co112 2.091 . S
O114 C120 1.261 . S
C115 O124 1.247 . S
C115 O125 1.272 . S
O116 Co112 2.004 . S
O116 C121 1.259 . S
Co117 O118 2.061 . S
Co117 O123 2.052 . S
Co117 O125 2.135 . S
O118 Co117 2.061 . S
O118 C121 1.235 . S
C119 O122 1.238 . S
C119 O123 1.241 . S
C120 O113 1.247 . S
C120 O114 1.261 . S
C121 O116 1.259 . S
C121 O118 1.235 . S
O122 Co112 2.021 . S
O122 C119 1.238 . S
O123 Co117 2.052 . S
O123 C119 1.241 . S
O124 Co112 2.137 . S
O124 C115 1.247 . S
O125 Co112 2.244 . S
O125 C115 1.272 . S
O125 Co117 2.135 . S
Co126 O127 2.216 . S
Co126 O128 2.091 . S
Co126 O130 2.004 . S
Co126 O136 2.021 . S
Co126 O138 2.137 . S
Co126 O139 2.244 . S
O127 Co126 2.216 . S
O127 C134 1.247 . S
O128 Co126 2.091 . S
O128 C134 1.261 . S
C129 O138 1.247 . S
C129 O139 1.272 . S
O130 Co126 2.004 . S
O130 C135 1.259 . S
Co131 O132 2.061 . S
Co131 O137 2.052 . S
Co131 O139 2.135 . S
O132 Co131 2.061 . S
O132 C135 1.235 . S
C133 O136 1.238 . S
C133 O137 1.241 . S
C134 O127 1.247 . S
C134 O128 1.261 . S
C135 O130 1.259 . S
C135 O132 1.235 . S
O136 Co126 2.021 . S
O136 C133 1.238 . S
O137 Co131 2.052 . S
O137 C133 1.241 . S
O138 Co126 2.137 . S
O138 C129 1.247 . S
O139 Co126 2.244 . S
O139 C129 1.272 . S
O139 Co131 2.135 . S
Co140 O141 2.216 . S
Co140 O142 2.091 . S
Co140 O144 2.004 . S
Co140 O150 2.021 . S
Co140 O152 2.137 . S
Co140 O153 2.244 . S
O141 Co140 2.216 . S
O141 C148 1.247 . S
O142 Co140 2.091 . S
O142 C148 1.261 . S
C143 O152 1.247 . S
C143 O153 1.272 . S
O144 Co140 2.004 . S
O144 C149 1.259 . S
Co145 O146 2.061 . S
Co145 O151 2.052 . S
Co145 O153 2.135 . S
O146 Co145 2.061 . S
O146 C149 1.235 . S
C147 O150 1.238 . S
C147 O151 1.241 . S
C148 O141 1.247 . S
C148 O142 1.261 . S
C149 O144 1.259 . S
C149 O146 1.235 . S
O150 Co140 2.021 . S
O150 C147 1.238 . S
O151 Co145 2.052 . S
O151 C147 1.241 . S
O152 Co140 2.137 . S
O152 C143 1.247 . S
O153 Co140 2.244 . S
O153 C143 1.272 . S
O153 Co145 2.135 . S
Co154 O155 2.216 . S
Co154 O156 2.091 . S
Co154 O158 2.004 . S
Co154 O164 2.021 . S
Co154 O166 2.137 . S
Co154 O167 2.244 . S
O155 Co154 2.216 . S
O155 C162 1.247 . S
O156 Co154 2.091 . S
O156 C162 1.261 . S
C157 O166 1.247 . S
C157 O167 1.272 . S
O158 Co154 2.004 . S
O158 C163 1.259 . S
Co159 O160 2.061 . S
Co159 O165 2.052 . S
Co159 O167 2.135 . S
O160 Co159 2.061 . S
O160 C163 1.235 . S
C161 O164 1.238 . S
C161 O165 1.241 . S
C162 O155 1.247 . S
C162 O156 1.261 . S
C163 O158 1.259 . S
C163 O160 1.235 . S
O164 Co154 2.021 . S
O164 C161 1.238 . S
O165 Co159 2.052 . S
O165 C161 1.241 . S
O166 Co154 2.137 . S
O166 C157 1.247 . S
O167 Co154 2.244 . S
O167 C157 1.272 . S
O167 Co159 2.135 . S
Co168 O169 2.216 . S
Co168 O170 2.091 . S
Co168 O172 2.004 . S
Co168 O178 2.021 . S
Co168 O180 2.137 . S
Co168 O181 2.244 . S
O169 Co168 2.216 . S
O169 C176 1.247 . S
O170 Co168 2.091 . S
O170 C176 1.261 . S
C171 O180 1.247 . S
C171 O181 1.272 . S
O172 Co168 2.004 . S
O172 C177 1.259 . S
Co173 O174 2.061 . S
Co173 O179 2.052 . S
Co173 O181 2.135 . S
O174 Co173 2.061 . S
O174 C177 1.235 . S
C175 O178 1.238 . S
C175 O179 1.241 . S
C176 O169 1.247 . S
C176 O170 1.261 . S
C177 O172 1.259 . S
C177 O174 1.235 . S
O178 Co168 2.021 . S
O178 C175 1.238 . S
O179 Co173 2.052 . S
O179 C175 1.241 . S
O180 Co168 2.137 . S
O180 C171 1.247 . S
O181 Co168 2.244 . S
O181 C171 1.272 . S
O181 Co173 2.135 . S
Co182 O183 2.216 1_455 S
Co182 O184 2.091 . S
Co182 O186 2.004 . S
Co182 O192 2.021 . S
Co182 O194 2.137 1_455 S
Co182 O195 2.244 1_455 S
O183 Co182 2.216 1_655 S
O183 C190 1.247 . S
O184 Co182 2.091 . S
O184 C190 1.261 1_455 S
C185 O194 1.247 . S
C185 O195 1.272 . S
O186 Co182 2.004 . S
O186 C191 1.259 . S
Co187 O188 2.061 1_655 S
Co187 O193 2.052 . S
Co187 O195 2.135 . S
O188 Co187 2.061 1_455 S
O188 C191 1.235 . S
C189 O192 1.238 . S
C189 O193 1.241 1_455 S
C190 O183 1.247 . S
C190 O184 1.261 1_655 S
C191 O186 1.259 . S
C191 O188 1.235 . S
O192 Co182 2.021 . S
O192 C189 1.238 . S
O193 Co187 2.052 . S
O193 C189 1.241 1_655 S
O194 Co182 2.137 1_655 S
O194 C185 1.247 . S
O195 Co182 2.244 1_655 S
O195 C185 1.272 . S
O195 Co187 2.135 . S
Co196 O197 2.216 . S
Co196 O198 2.091 . S
Co196 O200 2.004 . S
Co196 O206 2.021 . S
Co196 O208 2.137 . S
Co196 O209 2.244 . S
O197 Co196 2.216 . S
O197 C204 1.247 . S
O198 Co196 2.091 . S
O198 C204 1.261 . S
C199 O208 1.247 . S
C199 O209 1.272 . S
O200 Co196 2.004 . S
O200 C205 1.259 . S
Co201 O202 2.061 . S
Co201 O207 2.052 . S
Co201 O209 2.135 . S
O202 Co201 2.061 . S
O202 C205 1.235 . S
C203 O206 1.238 . S
C203 O207 1.241 . S
C204 O197 1.247 . S
C204 O198 1.261 . S
C205 O200 1.259 . S
C205 O202 1.235 . S
O206 Co196 2.021 . S
O206 C203 1.238 . S
O207 Co201 2.052 . S
O207 C203 1.241 . S
O208 Co196 2.137 . S
O208 C199 1.247 . S
O209 Co196 2.244 . S
O209 C199 1.272 . S
O209 Co201 2.135 . S
Co210 O211 2.216 1_455 S
Co210 O212 2.091 . S
Co210 O214 2.004 . S
Co210 O220 2.021 . S
Co210 O222 2.137 1_455 S
Co210 O223 2.244 1_455 S
O211 Co210 2.216 1_655 S
O211 C218 1.247 . S
O212 Co210 2.091 . S
O212 C218 1.261 1_455 S
C213 O222 1.247 . S
C213 O223 1.272 . S
O214 Co210 2.004 . S
O214 C219 1.259 . S
Co215 O216 2.061 1_655 S
Co215 O221 2.052 . S
Co215 O223 2.135 . S
O216 Co215 2.061 1_455 S
O216 C219 1.235 . S
C217 O220 1.238 . S
C217 O221 1.241 1_455 S
C218 O211 1.247 . S
C218 O212 1.261 1_655 S
C219 O214 1.259 . S
C219 O216 1.235 . S
O220 Co210 2.021 . S
O220 C217 1.238 . S
O221 Co215 2.052 . S
O221 C217 1.241 1_655 S
O222 Co210 2.137 1_655 S
O222 C213 1.247 . S
O223 Co210 2.244 1_655 S
O223 C213 1.272 . S
O223 Co215 2.135 . S
H224 C232 0.929 . S
H225 C234 0.930 . S
H226 C236 0.930 . S
H227 C239 0.929 . S
H228 C242 0.930 . S
H229 C244 0.958 1_655 S
H230 C244 0.960 1_655 S
H231 C244 0.960 . S
C232 H224 0.929 . S
C232 C233 1.377 1_655 S
C232 C234 1.384 . S
C233 C232 1.377 1_455 S
C233 C239 1.390 . S
C234 H225 0.930 . S
C234 C232 1.384 . S
C234 C235 1.372 1_655 S
C235 C234 1.372 1_455 S
C235 C236 1.400 . S
C235 C240 1.490 . S
C236 H226 0.930 . S
C236 C235 1.400 . S
C236 C239 1.386 . S
H237 C253 0.930 . S
H238 C254 0.931 . S
C239 H227 0.929 . S
C239 C233 1.390 . S
C239 C236 1.386 . S
C240 C235 1.490 . S
C240 C242 1.395 . S
C240 C243 1.403 . S
H241 C247 0.935 . S
C242 H228 0.930 . S
C242 C240 1.395 . S
C242 C245 1.403 . S
C243 C240 1.403 . S
C243 C244 1.524 . S
C243 C247 1.400 . S
C244 H229 0.958 1_455 S
C244 H230 0.960 1_455 S
C244 H231 0.960 . S
C244 C243 1.524 . S
C245 C242 1.403 . S
C245 C246 1.392 . S
C245 C249 1.495 . S
C246 C245 1.392 . S
C246 C247 1.385 . S
C246 C248 1.478 . S
C247 H241 0.935 . S
C247 C243 1.400 . S
C247 C246 1.385 . S
C248 C246 1.478 . S
C248 C250 1.381 1_455 S
C248 C254 1.383 . S
C249 C245 1.495 . S
C249 H255 0.959 . S
C249 H256 0.961 . S
C249 H257 0.960 1_455 S
C250 C248 1.381 1_655 S
C250 C251 1.394 . S
C250 H258 0.930 . S
C251 C250 1.394 . S
C251 C252 1.383 . S
C251 H259 0.929 . S
C252 C251 1.383 . S
C252 C253 1.377 1_655 S
C253 H237 0.930 . S
C253 C252 1.377 1_455 S
C253 C254 1.379 . S
C254 H238 0.931 . S
C254 C248 1.383 . S
C254 C253 1.379 . S
H255 C249 0.959 . S
H256 C249 0.961 . S
H257 C249 0.960 1_655 S
H258 C250 0.930 . S
H259 C251 0.929 . S
H260 C268 0.929 . S
H261 C270 0.930 . S
H262 C272 0.930 . S
H263 C275 0.929 . S
H264 C278 0.930 . S
H265 C280 0.960 1_455 S
H266 C280 0.960 . S
H267 C280 0.960 . S
C268 H260 0.929 . S
C268 C269 1.377 . S
C268 C270 1.384 . S
C269 C268 1.377 . S
C269 C275 1.390 . S
C270 H261 0.930 . S
C270 C268 1.384 . S
C270 C271 1.372 . S
C271 C270 1.372 . S
C271 C272 1.400 . S
C271 C276 1.490 . S
C272 H262 0.930 . S
C272 C271 1.400 . S
C272 C275 1.386 . S
H273 C289 0.930 . S
H274 C290 0.931 . S
C275 H263 0.929 . S
C275 C269 1.390 . S
C275 C272 1.386 . S
C276 C271 1.490 . S
C276 C278 1.395 . S
C276 C279 1.403 . S
H277 C283 0.930 . S
C278 H264 0.930 . S
C278 C276 1.395 . S
C278 C281 1.403 1_655 S
C279 C276 1.403 . S
C279 C280 1.524 . S
C279 C283 1.400 1_655 S
C280 H265 0.960 1_655 S
C280 H266 0.960 . S
C280 H267 0.960 . S
C280 C279 1.524 . S
C281 C278 1.403 1_455 S
C281 C282 1.392 . S
C281 C285 1.495 . S
C282 C281 1.392 . S
C282 C283 1.385 . S
C282 C284 1.478 . S
C283 H277 0.930 . S
C283 C279 1.400 1_455 S
C283 C282 1.385 . S
C284 C282 1.478 . S
C284 C286 1.381 . S
C284 C290 1.383 . S
C285 C281 1.495 . S
C285 H291 0.959 . S
C285 H292 0.961 . S
C285 H293 0.960 . S
C286 C284 1.381 . S
C286 C287 1.394 . S
C286 H294 0.930 . S
C287 C286 1.394 . S
C287 C288 1.383 . S
C287 H295 0.929 . S
C288 C287 1.383 . S
C288 C289 1.377 . S
C289 H273 0.930 . S
C289 C288 1.377 . S
C289 C290 1.379 . S
C290 H274 0.931 . S
C290 C284 1.383 . S
C290 C289 1.379 . S
H291 C285 0.959 . S
H292 C285 0.961 . S
H293 C285 0.960 . S
H294 C286 0.930 . S
H295 C287 0.929 . S
H296 C304 0.929 . S
H297 C306 0.930 . S
H298 C308 0.930 . S
H299 C311 0.929 . S
H300 C314 0.930 . S
H301 C316 0.960 . S
H302 C316 0.960 . S
H303 C316 0.960 . S
C304 H296 0.929 . S
C304 C305 1.377 . S
C304 C306 1.384 . S
C305 C304 1.377 . S
C305 C311 1.390 . S
C306 H297 0.930 . S
C306 C304 1.384 . S
C306 C307 1.372 . S
C307 C306 1.372 . S
C307 C308 1.400 . S
C307 C312 1.490 . S
C308 H298 0.930 . S
C308 C307 1.400 . S
C308 C311 1.386 . S
H309 C325 0.930 . S
H310 C326 0.931 . S
C311 H299 0.929 . S
C311 C305 1.390 . S
C311 C308 1.386 . S
C312 C307 1.490 . S
C312 C314 1.395 . S
C312 C315 1.403 . S
H313 C319 0.930 . S
C314 H300 0.930 . S
C314 C312 1.395 . S
C314 C317 1.403 . S
C315 C312 1.403 . S
C315 C316 1.524 . S
C315 C319 1.400 . S
C316 H301 0.960 . S
C316 H302 0.960 . S
C316 H303 0.960 . S
C316 C315 1.524 . S
C317 C314 1.403 . S
C317 C318 1.392 . S
C317 C321 1.495 . S
C318 C317 1.392 . S
C318 C319 1.385 . S
C318 C320 1.478 . S
C319 H313 0.930 . S
C319 C315 1.400 . S
C319 C318 1.385 . S
C320 C318 1.478 . S
C320 C322 1.381 . S
C320 C326 1.383 . S
C321 C317 1.495 . S
C321 H327 0.959 . S
C321 H328 0.961 . S
C321 H329 0.960 . S
C322 C320 1.381 . S
C322 C323 1.394 . S
C322 H330 0.930 . S
C323 C322 1.394 . S
C323 C324 1.383 . S
C323 H331 0.929 . S
C324 C323 1.383 . S
C324 C325 1.377 . S
C325 H309 0.930 . S
C325 C324 1.377 . S
C325 C326 1.379 . S
C326 H310 0.931 . S
C326 C320 1.383 . S
C326 C325 1.379 . S
H327 C321 0.959 . S
H328 C321 0.961 . S
H329 C321 0.960 . S
H330 C322 0.930 . S
H331 C323 0.929 . S
H332 C340 0.929 . S
H333 C342 0.930 . S
H334 C344 0.930 . S
H335 C347 0.929 . S
H336 C350 0.930 . S
H337 C352 0.960 . S
H338 C352 0.960 . S
H339 C352 0.960 . S
C340 H332 0.929 . S
C340 C341 1.377 . S
C340 C342 1.384 . S
C341 C340 1.377 . S
C341 C347 1.390 . S
C342 H333 0.930 . S
C342 C340 1.384 . S
C342 C343 1.372 . S
C343 C342 1.372 . S
C343 C344 1.400 . S
C343 C348 1.490 . S
C344 H334 0.930 . S
C344 C343 1.400 . S
C344 C347 1.386 . S
H345 C361 0.930 . S
H346 C362 0.931 . S
C347 H335 0.929 . S
C347 C341 1.390 . S
C347 C344 1.386 . S
C348 C343 1.490 . S
C348 C350 1.395 . S
C348 C351 1.403 . S
H349 C355 0.930 . S
C350 H336 0.930 . S
C350 C348 1.395 . S
C350 C353 1.403 . S
C351 C348 1.403 . S
C351 C352 1.524 . S
C351 C355 1.400 . S
C352 H337 0.960 . S
C352 H338 0.960 . S
C352 H339 0.960 . S
C352 C351 1.524 . S
C353 C350 1.403 . S
C353 C354 1.392 . S
C353 C357 1.495 . S
C354 C353 1.392 . S
C354 C355 1.385 . S
C354 C356 1.478 . S
C355 H349 0.930 . S
C355 C351 1.400 . S
C355 C354 1.385 . S
C356 C354 1.478 . S
C356 C358 1.381 . S
C356 C362 1.383 . S
C357 C353 1.495 . S
C357 H363 0.959 . S
C357 H364 0.961 . S
C357 H365 0.960 . S
C358 C356 1.381 . S
C358 C359 1.394 . S
C358 H366 0.930 . S
C359 C358 1.394 . S
C359 C360 1.383 . S
C359 H367 0.929 . S
C360 C359 1.383 . S
C360 C361 1.377 . S
C361 H345 0.930 . S
C361 C360 1.377 . S
C361 C362 1.379 . S
C362 H346 0.931 . S
C362 C356 1.383 . S
C362 C361 1.379 . S
H363 C357 0.959 . S
H364 C357 0.961 . S
H365 C357 0.960 . S
H366 C358 0.930 . S
H367 C359 0.929 . S
H368 C376 0.929 . S
H369 C378 0.930 . S
H370 C380 0.930 . S
H371 C383 0.929 . S
H372 C386 0.930 . S
H373 C388 0.960 . S
H374 C388 0.960 . S
H375 C388 0.960 . S
C376 H368 0.929 . S
C376 C377 1.377 1_655 S
C376 C378 1.384 . S
C377 C376 1.377 1_455 S
C377 C383 1.390 . S
C378 H369 0.930 . S
C378 C376 1.384 . S
C378 C379 1.372 1_655 S
C379 C378 1.372 1_455 S
C379 C380 1.400 . S
C379 C384 1.490 . S
C380 H370 0.930 . S
C380 C379 1.400 . S
C380 C383 1.386 . S
H381 C397 0.930 . S
H382 C398 0.931 . S
C383 H371 0.929 . S
C383 C377 1.390 . S
C383 C380 1.386 . S
C384 C379 1.490 . S
C384 C386 1.395 1_455 S
C384 C387 1.403 . S
H385 C391 0.930 . S
C386 H372 0.930 . S
C386 C384 1.395 1_655 S
C386 C389 1.403 . S
C387 C384 1.403 . S
C387 C388 1.524 . S
C387 C391 1.400 . S
C388 H373 0.960 . S
C388 H374 0.960 . S
C388 H375 0.960 . S
C388 C387 1.524 . S
C389 C386 1.403 . S
C389 C390 1.392 1_655 S
C389 C393 1.495 . S
C390 C389 1.392 1_455 S
C390 C391 1.385 . S
C390 C392 1.477 1_455 S
C391 H385 0.930 . S
C391 C387 1.400 . S
C391 C390 1.385 . S
C392 C390 1.477 1_655 S
C392 C394 1.393 . S
C392 C398 1.371 1_655 S
C393 C389 1.495 . S
C393 H399 0.959 . S
C393 H400 0.961 . S
C393 H401 0.960 . S
C394 C392 1.393 . S
C394 C395 1.394 . S
C394 H402 0.930 . S
C395 C394 1.394 . S
C395 C396 1.383 . S
C395 H403 0.929 . S
C396 C395 1.383 . S
C396 C397 1.377 1_655 S
C397 H381 0.930 . S
C397 C396 1.377 1_455 S
C397 C398 1.379 . S
C398 H382 0.931 . S
C398 C392 1.371 1_455 S
C398 C397 1.379 . S
H399 C393 0.959 . S
H400 C393 0.961 . S
H401 C393 0.960 . S
H402 C394 0.930 . S
H403 C395 0.929 . S
H404 C412 0.929 . S
H405 C414 0.930 . S
H406 C416 0.930 . S
H407 C419 0.929 . S
H408 C422 0.930 . S
H409 C424 0.960 . S
H410 C424 0.960 . S
H411 C424 0.960 . S
C412 H404 0.929 . S
C412 C413 1.377 . S
C412 C414 1.384 . S
C413 C412 1.377 . S
C413 C419 1.390 . S
C414 H405 0.930 . S
C414 C412 1.384 . S
C414 C415 1.372 . S
C415 C414 1.372 . S
C415 C416 1.400 . S
C415 C420 1.490 . S
C416 H406 0.930 . S
C416 C415 1.400 . S
C416 C419 1.386 . S
H417 C433 0.930 . S
H418 C434 0.931 . S
C419 H407 0.929 . S
C419 C413 1.390 . S
C419 C416 1.386 . S
C420 C415 1.490 . S
C420 C422 1.395 . S
C420 C423 1.403 . S
H421 C427 0.930 . S
C422 H408 0.930 . S
C422 C420 1.395 . S
C422 C425 1.403 . S
C423 C420 1.403 . S
C423 C424 1.524 . S
C423 C427 1.400 . S
C424 H409 0.960 . S
C424 H410 0.960 . S
C424 H411 0.960 . S
C424 C423 1.524 . S
C425 C422 1.403 . S
C425 C426 1.392 . S
C425 C429 1.495 . S
C426 C425 1.392 . S
C426 C427 1.385 . S
C426 C428 1.478 . S
C427 H421 0.930 . S
C427 C423 1.400 . S
C427 C426 1.385 . S
C428 C426 1.478 . S
C428 C430 1.381 . S
C428 C434 1.383 . S
C429 C425 1.495 . S
C429 H435 0.959 . S
C429 H436 0.961 . S
C429 H437 0.960 . S
C430 C428 1.381 . S
C430 C431 1.394 . S
C430 H438 0.930 . S
C431 C430 1.394 . S
C431 C432 1.383 . S
C431 H439 0.929 . S
C432 C431 1.383 . S
C432 C433 1.377 . S
C433 H417 0.930 . S
C433 C432 1.377 . S
C433 C434 1.379 . S
C434 H418 0.931 . S
C434 C428 1.383 . S
C434 C433 1.379 . S
H435 C429 0.959 . S
H436 C429 0.961 . S
H437 C429 0.960 . S
H438 C430 0.930 . S
H439 C431 0.929 . S
H440 C448 0.929 . S
H441 C450 0.930 . S
H442 C452 0.930 . S
H443 C455 0.929 . S
H444 C458 0.930 . S
H445 C460 0.960 . S
H446 C460 0.960 . S
H447 C460 0.960 . S
C448 H440 0.929 . S
C448 C449 1.377 . S
C448 C450 1.384 . S
C449 C448 1.377 . S
C449 C455 1.390 . S
C450 H441 0.930 . S
C450 C448 1.384 . S
C450 C451 1.372 . S
C451 C450 1.372 . S
C451 C452 1.400 . S
C451 C456 1.490 . S
C452 H442 0.930 . S
C452 C451 1.400 . S
C452 C455 1.386 . S
H453 C469 0.930 . S
H454 C470 0.931 . S
C455 H443 0.929 . S
C455 C449 1.390 . S
C455 C452 1.386 . S
C456 C451 1.490 . S
C456 C458 1.395 . S
C456 C459 1.403 . S
H457 C463 0.930 . S
C458 H444 0.930 . S
C458 C456 1.395 . S
C458 C461 1.403 . S
C459 C456 1.403 . S
C459 C460 1.524 . S
C459 C463 1.400 . S
C460 H445 0.960 . S
C460 H446 0.960 . S
C460 H447 0.960 . S
C460 C459 1.524 . S
C461 C458 1.403 . S
C461 C462 1.392 . S
C461 C465 1.495 . S
C462 C461 1.392 . S
C462 C463 1.385 . S
C462 C464 1.478 . S
C463 H457 0.930 . S
C463 C459 1.400 . S
C463 C462 1.385 . S
C464 C462 1.478 . S
C464 C466 1.381 . S
C464 C470 1.383 . S
C465 C461 1.495 . S
C465 H471 0.959 . S
C465 H472 0.961 . S
C465 H473 0.960 . S
C466 C464 1.381 . S
C466 C467 1.394 . S
C466 H474 0.930 . S
C467 C466 1.394 . S
C467 C468 1.383 . S
C467 H475 0.929 . S
C468 C467 1.383 . S
C468 C469 1.377 . S
C469 H453 0.930 . S
C469 C468 1.377 . S
C469 C470 1.379 . S
C470 H454 0.931 . S
C470 C464 1.383 . S
C470 C469 1.379 . S
H471 C465 0.959 . S
H472 C465 0.961 . S
H473 C465 0.960 . S
H474 C466 0.930 . S
H475 C467 0.929 . S
H476 C484 0.929 . S
H477 C486 0.930 . S
H478 C488 0.930 . S
H479 C491 0.929 . S
H480 C494 0.930 . S
H481 C496 0.960 . S
H482 C496 0.960 . S
H483 C496 0.960 . S
C484 H476 0.929 . S
C484 C485 1.377 . S
C484 C486 1.384 . S
C485 C484 1.377 . S
C485 C491 1.390 . S
C486 H477 0.930 . S
C486 C484 1.384 . S
C486 C487 1.372 . S
C487 C486 1.372 . S
C487 C488 1.400 . S
C487 C492 1.490 . S
C488 H478 0.930 . S
C488 C487 1.400 . S
C488 C491 1.386 . S
H489 C505 0.930 . S
H490 C506 0.931 . S
C491 H479 0.929 . S
C491 C485 1.390 . S
C491 C488 1.386 . S
C492 C487 1.490 . S
C492 C494 1.395 . S
C492 C495 1.403 . S
H493 C499 0.930 . S
C494 H480 0.930 . S
C494 C492 1.395 . S
C494 C497 1.403 1_455 S
C495 C492 1.403 . S
C495 C496 1.524 . S
C495 C499 1.400 1_455 S
C496 H481 0.960 . S
C496 H482 0.960 . S
C496 H483 0.960 . S
C496 C495 1.524 . S
C497 C494 1.403 1_655 S
C497 C498 1.392 . S
C497 C501 1.495 . S
C498 C497 1.392 . S
C498 C499 1.385 . S
C498 C500 1.478 . S
C499 H493 0.930 . S
C499 C495 1.400 1_655 S
C499 C498 1.385 . S
C500 C498 1.478 . S
C500 C502 1.381 . S
C500 C506 1.383 . S
C501 C497 1.495 . S
C501 H507 0.956 . S
C501 H508 0.961 . S
C501 H509 0.960 . S
C502 C500 1.381 . S
C502 C503 1.394 . S
C502 H510 0.930 . S
C503 C502 1.394 . S
C503 C504 1.383 . S
C503 H511 0.929 . S
C504 C503 1.383 . S
C504 C505 1.377 . S
C505 H489 0.930 . S
C505 C504 1.377 . S
C505 C506 1.379 . S
C506 H490 0.931 . S
C506 C500 1.383 . S
C506 C505 1.379 . S
H507 C501 0.956 . S
H508 C501 0.961 . S
H509 C501 0.960 . S
H510 C502 0.930 . S
H511 C503 0.929 . S
H512 C520 0.929 . S
H513 C522 0.930 1_545 S
H514 C524 0.930 . S
H515 C527 0.929 . S
H516 C530 0.930 . S
H517 C532 0.960 . S
H518 C532 0.960 . S
H519 C532 0.960 . S
C520 H512 0.929 . S
C520 C521 1.376 1_655 S
C520 C522 1.384 . S
C521 C520 1.376 1_455 S
C521 C527 1.391 . S
C522 H513 0.930 1_565 S
C522 C520 1.384 . S
C522 C523 1.372 . S
C523 C522 1.372 . S
C523 C524 1.400 1_655 S
C523 C528 1.490 . S
C524 H514 0.930 . S
C524 C523 1.400 1_455 S
C524 C527 1.386 . S
H525 C541 0.930 . S
H526 C542 0.931 . S
C527 H515 0.929 . S
C527 C521 1.391 . S
C527 C524 1.386 . S
C528 C523 1.490 . S
C528 C530 1.395 . S
C528 C531 1.403 1_665 S
H529 C535 0.930 . S
C530 H516 0.930 . S
C530 C528 1.395 . S
C530 C533 1.403 . S
C531 C528 1.403 1_445 S
C531 C532 1.524 . S
C531 C535 1.400 . S
C532 H517 0.960 . S
C532 H518 0.960 . S
C532 H519 0.960 . S
C532 C531 1.524 . S
C533 C530 1.403 . S
C533 C534 1.392 1_565 S
C533 C537 1.495 . S
C534 C533 1.392 1_545 S
C534 C535 1.385 1_655 S
C534 C536 1.478 . S
C535 H529 0.930 . S
C535 C531 1.400 . S
C535 C534 1.385 1_455 S
C536 C534 1.478 . S
C536 C538 1.381 . S
C536 C542 1.383 1_645 S
C537 C533 1.495 . S
C537 H543 0.959 . S
C537 H544 0.961 . S
C537 H545 0.960 . S
C538 C536 1.381 . S
C538 C539 1.394 . S
C538 H546 0.930 . S
C539 C538 1.394 . S
C539 C540 1.383 . S
C539 H547 0.929 . S
C540 C539 1.383 . S
C540 C541 1.377 1_655 S
C541 H525 0.930 . S
C541 C540 1.377 1_455 S
C541 C542 1.379 1_545 S
C542 H526 0.931 . S
C542 C536 1.383 1_465 S
C542 C541 1.379 1_565 S
H543 C537 0.959 . S
H544 C537 0.961 . S
H545 C537 0.960 . S
H546 C538 0.930 . S
H547 C539 0.929 . S
H548 C556 0.929 . S
H549 C558 0.930 . S
H550 C560 0.930 . S
H551 C563 0.929 . S
H552 C566 0.930 . S
H553 C568 0.960 . S
H554 C568 0.960 . S
H555 C568 0.960 . S
C556 H548 0.929 . S
C556 C557 1.377 . S
C556 C558 1.384 . S
C557 C556 1.377 . S
C557 C563 1.390 . S
C558 H549 0.930 . S
C558 C556 1.384 . S
C558 C559 1.372 . S
C559 C558 1.372 . S
C559 C560 1.400 . S
C559 C564 1.490 . S
C560 H550 0.930 . S
C560 C559 1.400 . S
C560 C563 1.386 . S
H561 C577 0.930 . S
H562 C578 0.931 . S
C563 H551 0.929 . S
C563 C557 1.390 . S
C563 C560 1.386 . S
C564 C559 1.490 . S
C564 C566 1.395 . S
C564 C567 1.403 . S
H565 C571 0.930 . S
C566 H552 0.930 . S
C566 C564 1.395 . S
C566 C569 1.403 . S
C567 C564 1.403 . S
C567 C568 1.524 . S
C567 C571 1.400 . S
C568 H553 0.960 . S
C568 H554 0.960 . S
C568 H555 0.960 . S
C568 C567 1.524 . S
C569 C566 1.403 . S
C569 C570 1.392 . S
C569 C573 1.495 . S
C570 C569 1.392 . S
C570 C571 1.385 . S
C570 C572 1.478 . S
C571 H565 0.930 . S
C571 C567 1.400 . S
C571 C570 1.385 . S
C572 C570 1.478 . S
C572 C574 1.381 . S
C572 C578 1.383 . S
C573 C569 1.495 . S
C573 H579 0.959 . S
C573 H580 0.961 . S
C573 H581 0.960 . S
C574 C572 1.381 . S
C574 C575 1.394 . S
C574 H582 0.930 . S
C575 C574 1.394 . S
C575 C576 1.383 . S
C575 H583 0.929 . S
C576 C575 1.383 . S
C576 C577 1.377 . S
C577 H561 0.930 . S
C577 C576 1.377 . S
C577 C578 1.379 . S
C578 H562 0.931 . S
C578 C572 1.383 . S
C578 C577 1.379 . S
H579 C573 0.959 . S
H580 C573 0.961 . S
H581 C573 0.960 . S
H582 C574 0.930 . S
H583 C575 0.929 . S
H584 C592 0.929 . S
H585 C594 0.930 . S
H586 C596 0.930 . S
H587 C599 0.929 . S
H588 C602 0.930 . S
H589 C604 0.960 . S
H590 C604 0.960 . S
H591 C604 0.960 1_545 S
C592 H584 0.929 . S
C592 C593 1.377 . S
C592 C594 1.384 . S
C593 C592 1.377 . S
C593 C599 1.390 1_565 S
C594 H585 0.930 . S
C594 C592 1.384 . S
C594 C595 1.372 . S
C595 C594 1.372 . S
C595 C596 1.400 1_565 S
C595 C600 1.490 . S
C596 H586 0.930 . S
C596 C595 1.400 1_545 S
C596 C599 1.386 . S
H597 C613 0.930 . S
H598 C614 0.931 . S
C599 H587 0.929 . S
C599 C593 1.390 1_545 S
C599 C596 1.386 . S
C600 C595 1.490 . S
C600 C602 1.395 . S
C600 C603 1.403 . S
H601 C607 0.929 . S
C602 H588 0.930 . S
C602 C600 1.395 . S
C602 C605 1.403 1_564 S
C603 C600 1.403 . S
C603 C604 1.524 . S
C603 C607 1.401 1_564 S
C604 H589 0.960 . S
C604 H590 0.960 . S
C604 H591 0.960 1_565 S
C604 C603 1.524 . S
C605 C602 1.403 1_546 S
C605 C606 1.392 . S
C605 C609 1.495 . S
C606 C605 1.392 . S
C606 C607 1.385 . S
C606 C608 1.478 . S
C607 H601 0.929 . S
C607 C603 1.401 1_546 S
C607 C606 1.385 . S
C608 C606 1.478 . S
C608 C610 1.381 1_545 S
C608 C614 1.383 . S
C609 C605 1.495 . S
C609 H615 0.959 . S
C609 H616 0.961 . S
C609 H617 0.960 1_545 S
C610 C608 1.381 1_565 S
C610 C611 1.394 . S
C610 H618 0.930 . S
C611 C610 1.394 . S
C611 C612 1.383 1_565 S
C611 H619 0.929 . S
C612 C611 1.383 1_545 S
C612 C613 1.377 . S
C613 H597 0.930 . S
C613 C612 1.377 . S
C613 C614 1.379 . S
C614 H598 0.931 . S
C614 C608 1.383 . S
C614 C613 1.379 . S
H615 C609 0.959 . S
H616 C609 0.961 . S
H617 C609 0.960 1_565 S
H618 C610 0.930 . S
H619 C611 0.929 . S
H620 C628 0.929 . S
H621 C630 0.930 . S
H622 C632 0.930 . S
H623 C635 0.929 . S
H624 C638 0.930 . S
H625 C640 0.960 . S
H626 C640 0.960 . S
H627 C640 0.960 . S
C628 H620 0.929 . S
C628 C629 1.377 . S
C628 C630 1.384 . S
C629 C628 1.377 . S
C629 C635 1.390 . S
C630 H621 0.930 . S
C630 C628 1.384 . S
C630 C631 1.372 . S
C631 C630 1.372 . S
C631 C632 1.400 . S
C631 C636 1.490 . S
C632 H622 0.930 . S
C632 C631 1.400 . S
C632 C635 1.386 . S
H633 C649 0.930 . S
H634 C650 0.931 . S
C635 H623 0.929 . S
C635 C629 1.390 . S
C635 C632 1.386 . S
C636 C631 1.490 . S
C636 C638 1.395 . S
C636 C639 1.403 . S
H637 C643 0.930 . S
C638 H624 0.930 . S
C638 C636 1.395 . S
C638 C641 1.403 . S
C639 C636 1.403 . S
C639 C640 1.524 . S
C639 C643 1.400 . S
C640 H625 0.960 . S
C640 H626 0.960 . S
C640 H627 0.960 . S
C640 C639 1.524 . S
C641 C638 1.403 . S
C641 C642 1.392 . S
C641 C645 1.495 . S
C642 C641 1.392 . S
C642 C643 1.385 . S
C642 C644 1.478 . S
C643 H637 0.930 . S
C643 C639 1.400 . S
C643 C642 1.385 . S
C644 C642 1.478 . S
C644 C646 1.381 . S
C644 C650 1.383 . S
C645 C641 1.495 . S
C645 H651 0.959 . S
C645 H652 0.961 . S
C645 H653 0.960 . S
C646 C644 1.381 . S
C646 C647 1.394 . S
C646 H654 0.930 . S
C647 C646 1.394 . S
C647 C648 1.383 . S
C647 H655 0.929 . S
C648 C647 1.383 . S
C648 C649 1.377 . S
C649 H633 0.930 . S
C649 C648 1.377 . S
C649 C650 1.379 . S
C650 H634 0.931 . S
C650 C644 1.383 . S
C650 C649 1.379 . S
H651 C645 0.959 . S
H652 C645 0.961 . S
H653 C645 0.960 . S
H654 C646 0.930 . S
H655 C647 0.929 . S
H656 C664 0.929 . S
H657 C666 0.930 . S
H658 C668 0.930 . S
H659 C671 0.929 . S
H660 C674 0.930 . S
H661 C676 0.960 . S
H662 C676 0.960 . S
H663 C676 0.960 . S
C664 H656 0.929 . S
C664 C665 1.377 . S
C664 C666 1.384 . S
C665 C664 1.377 . S
C665 C671 1.390 . S
C666 H657 0.930 . S
C666 C664 1.384 . S
C666 C667 1.372 . S
C667 C666 1.372 . S
C667 C668 1.400 . S
C667 C672 1.490 . S
C668 H658 0.930 . S
C668 C667 1.400 . S
C668 C671 1.386 . S
H669 C685 0.930 . S
H670 C686 0.931 . S
C671 H659 0.929 . S
C671 C665 1.390 . S
C671 C668 1.386 . S
C672 C667 1.490 . S
C672 C674 1.395 . S
C672 C675 1.403 . S
H673 C679 0.930 . S
C674 H660 0.930 . S
C674 C672 1.395 . S
C674 C677 1.403 . S
C675 C672 1.403 . S
C675 C676 1.524 . S
C675 C679 1.400 . S
C676 H661 0.960 . S
C676 H662 0.960 . S
C676 H663 0.960 . S
C676 C675 1.524 . S
C677 C674 1.403 . S
C677 C678 1.392 . S
C677 C681 1.495 . S
C678 C677 1.392 . S
C678 C679 1.385 . S
C678 C680 1.478 . S
C679 H673 0.930 . S
C679 C675 1.400 . S
C679 C678 1.385 . S
C680 C678 1.478 . S
C680 C682 1.381 . S
C680 C686 1.383 . S
C681 C677 1.495 . S
C681 H687 0.959 . S
C681 H688 0.961 . S
C681 H689 0.960 . S
C682 C680 1.381 . S
C682 C683 1.394 . S
C682 H690 0.930 . S
C683 C682 1.394 . S
C683 C684 1.383 . S
C683 H691 0.929 . S
C684 C683 1.383 . S
C684 C685 1.377 . S
C685 H669 0.930 . S
C685 C684 1.377 . S
C685 C686 1.379 . S
C686 H670 0.931 . S
C686 C680 1.383 . S
C686 C685 1.379 . S
H687 C681 0.959 . S
H688 C681 0.961 . S
H689 C681 0.960 . S
H690 C682 0.930 . S
H691 C683 0.929 . S
H692 C700 0.929 . S
H693 C702 0.930 . S
H694 C704 0.930 . S
H695 C707 0.929 . S
H696 C710 0.930 . S
H697 C712 0.960 . S
H698 C712 0.960 . S
H699 C712 0.960 . S
C700 H692 0.929 . S
C700 C701 1.377 . S
C700 C702 1.384 . S
C701 C700 1.377 . S
C701 C707 1.390 . S
C702 H693 0.930 . S
C702 C700 1.384 . S
C702 C703 1.372 . S
C703 C702 1.372 . S
C703 C704 1.400 . S
C703 C708 1.490 . S
C704 H694 0.930 . S
C704 C703 1.400 . S
C704 C707 1.386 . S
H705 C721 0.930 . S
H706 C722 0.931 . S
C707 H695 0.929 . S
C707 C701 1.390 . S
C707 C704 1.386 . S
C708 C703 1.490 . S
C708 C710 1.395 . S
C708 C711 1.403 . S
H709 C715 0.930 . S
C710 H696 0.930 . S
C710 C708 1.395 . S
C710 C713 1.403 . S
C711 C708 1.403 . S
C711 C712 1.524 . S
C711 C715 1.400 . S
C712 H697 0.960 . S
C712 H698 0.960 . S
C712 H699 0.960 . S
C712 C711 1.524 . S
C713 C710 1.403 . S
C713 C714 1.392 . S
C713 C717 1.495 . S
C714 C713 1.392 . S
C714 C715 1.385 . S
C714 C716 1.478 . S
C715 H709 0.930 . S
C715 C711 1.400 . S
C715 C714 1.385 . S
C716 C714 1.478 . S
C716 C718 1.381 . S
C716 C722 1.383 . S
C717 C713 1.495 . S
C717 H723 0.959 . S
C717 H724 0.961 . S
C717 H725 0.960 . S
C718 C716 1.381 . S
C718 C719 1.394 . S
C718 H726 0.930 . S
C719 C718 1.394 . S
C719 C720 1.383 . S
C719 H727 0.929 . S
C720 C719 1.383 . S
C720 C721 1.377 . S
C721 H705 0.930 . S
C721 C720 1.377 . S
C721 C722 1.379 . S
C722 H706 0.931 . S
C722 C716 1.383 . S
C722 C721 1.379 . S
H723 C717 0.959 . S
H724 C717 0.961 . S
H725 C717 0.960 . S
H726 C718 0.930 . S
H727 C719 0.929 . S
H728 C736 0.929 . S
H729 C738 0.930 . S
H730 C740 0.930 . S
H731 C743 0.929 . S
H732 C746 0.930 . S
H733 C748 0.977 . S
H734 C748 0.960 . S
H735 C748 0.960 . S
C736 H728 0.929 . S
C736 C737 1.377 . S
C736 C738 1.384 . S
C737 C736 1.377 . S
C737 C743 1.390 . S
C738 H729 0.930 . S
C738 C736 1.384 . S
C738 C739 1.372 . S
C739 C738 1.372 . S
C739 C740 1.400 . S
C739 C744 1.490 . S
C740 H730 0.930 . S
C740 C739 1.400 . S
C740 C743 1.386 . S
H741 C757 0.930 . S
H742 C758 0.931 . S
C743 H731 0.929 . S
C743 C737 1.390 . S
C743 C740 1.386 . S
C744 C739 1.490 . S
C744 C746 1.395 . S
C744 C747 1.403 . S
H745 C751 0.930 . S
C746 H732 0.930 . S
C746 C744 1.395 . S
C746 C749 1.403 1_556 S
C747 C744 1.403 . S
C747 C748 1.524 . S
C747 C751 1.400 1_556 S
C748 H733 0.977 . S
C748 H734 0.960 . S
C748 H735 0.960 . S
C748 C747 1.524 . S
C749 C746 1.403 1_554 S
C749 C750 1.392 . S
C749 C753 1.495 . S
C750 C749 1.392 . S
C750 C751 1.385 . S
C750 C752 1.478 . S
C751 H745 0.930 . S
C751 C747 1.400 1_554 S
C751 C750 1.385 . S
C752 C750 1.478 . S
C752 C754 1.381 . S
C752 C758 1.383 . S
C753 C749 1.495 . S
C753 H759 0.985 . S
C753 H760 0.961 . S
C753 H761 0.960 . S
C754 C752 1.381 . S
C754 C755 1.394 . S
C754 H762 0.930 . S
C755 C754 1.394 . S
C755 C756 1.383 . S
C755 H763 0.929 . S
C756 C755 1.383 . S
C756 C757 1.377 . S
C757 H741 0.930 . S
C757 C756 1.377 . S
C757 C758 1.379 . S
C758 H742 0.931 . S
C758 C752 1.383 . S
C758 C757 1.379 . S
H759 C753 0.985 . S
H760 C753 0.961 . S
H761 C753 0.960 . S
H762 C754 0.930 . S
H763 C755 0.929 . S
H764 C772 0.929 . S
H765 C774 0.930 . S
H766 C776 0.930 . S
H767 C779 0.929 . S
H768 C782 0.930 . S
H769 C784 0.960 . S
H770 C784 0.960 . S
H771 C784 0.960 . S
C772 H764 0.929 . S
C772 C773 1.377 . S
C772 C774 1.384 . S
C773 C772 1.377 . S
C773 C779 1.390 . S
C774 H765 0.930 . S
C774 C772 1.384 . S
C774 C775 1.372 . S
C775 C774 1.372 . S
C775 C776 1.400 . S
C775 C780 1.490 . S
C776 H766 0.930 . S
C776 C775 1.400 . S
C776 C779 1.386 . S
H777 C793 0.930 . S
H778 C794 0.931 . S
C779 H767 0.929 . S
C779 C773 1.390 . S
C779 C776 1.386 . S
C780 C775 1.490 . S
C780 C782 1.395 . S
C780 C783 1.403 1_455 S
H781 C787 0.930 . S
C782 H768 0.930 . S
C782 C780 1.395 . S
C782 C785 1.403 . S
C783 C780 1.403 1_655 S
C783 C784 1.524 . S
C783 C787 1.400 . S
C784 H769 0.960 . S
C784 H770 0.960 . S
C784 H771 0.960 . S
C784 C783 1.524 . S
C785 C782 1.403 . S
C785 C786 1.392 . S
C785 C789 1.495 . S
C786 C785 1.392 . S
C786 C787 1.385 1_455 S
C786 C788 1.478 . S
C787 H781 0.930 . S
C787 C783 1.400 . S
C787 C786 1.385 1_655 S
C788 C786 1.478 . S
C788 C790 1.381 . S
C788 C794 1.383 . S
C789 C785 1.495 . S
C789 H795 0.959 . S
C789 H796 0.961 . S
C789 H797 0.960 . S
C790 C788 1.381 . S
C790 C791 1.394 . S
C790 H798 0.930 . S
C791 C790 1.394 . S
C791 C792 1.383 . S
C791 H799 0.929 . S
C792 C791 1.383 . S
C792 C793 1.377 . S
C793 H777 0.930 . S
C793 C792 1.377 . S
C793 C794 1.379 . S
C794 H778 0.931 . S
C794 C788 1.383 . S
C794 C793 1.379 . S
H795 C789 0.959 . S
H796 C789 0.961 . S
H797 C789 0.960 . S
H798 C790 0.930 . S
H799 C791 0.929 . S
H800 C808 0.929 . S
H801 C810 0.930 . S
H802 C812 0.930 . S
H803 C815 0.929 . S
H804 C818 0.930 . S
H805 C820 0.960 . S
H806 C820 0.960 . S
H807 C820 0.960 . S
C808 H800 0.929 . S
C808 C809 1.377 . S
C808 C810 1.384 . S
C809 C808 1.377 . S
C809 C815 1.390 . S
C810 H801 0.930 . S
C810 C808 1.384 . S
C810 C811 1.372 . S
C811 C810 1.372 . S
C811 C812 1.400 . S
C811 C816 1.490 . S
C812 H802 0.930 . S
C812 C811 1.400 . S
C812 C815 1.386 . S
H813 C829 0.930 . S
H814 C830 0.931 . S
C815 H803 0.929 . S
C815 C809 1.390 . S
C815 C812 1.386 . S
C816 C811 1.490 . S
C816 C818 1.395 . S
C816 C819 1.403 . S
H817 C823 0.930 . S
C818 H804 0.930 . S
C818 C816 1.395 . S
C818 C821 1.403 . S
C819 C816 1.403 . S
C819 C820 1.524 . S
C819 C823 1.400 . S
C820 H805 0.960 . S
C820 H806 0.960 . S
C820 H807 0.960 . S
C820 C819 1.524 . S
C821 C818 1.403 . S
C821 C822 1.392 . S
C821 C825 1.495 . S
C822 C821 1.392 . S
C822 C823 1.385 . S
C822 C824 1.478 . S
C823 H817 0.930 . S
C823 C819 1.400 . S
C823 C822 1.385 . S
C824 C822 1.478 . S
C824 C826 1.381 . S
C824 C830 1.383 . S
C825 C821 1.495 . S
C825 H831 0.959 . S
C825 H832 0.961 . S
C825 H833 0.960 . S
C826 C824 1.381 . S
C826 C827 1.394 . S
C826 H834 0.930 . S
C827 C826 1.394 . S
C827 C828 1.383 . S
C827 H835 0.929 1_565 S
C828 C827 1.383 . S
C828 C829 1.377 . S
C829 H813 0.930 . S
C829 C828 1.377 . S
C829 C830 1.379 . S
C830 H814 0.931 . S
C830 C824 1.383 . S
C830 C829 1.379 . S
H831 C825 0.959 . S
H832 C825 0.961 . S
H833 C825 0.960 . S
H834 C826 0.930 . S
H835 C827 0.929 1_545 S
H836 C844 0.929 . S
H837 C846 0.930 . S
H838 C848 0.930 . S
H839 C851 0.929 . S
H840 C854 0.930 . S
H841 C856 0.960 . S
H842 C856 0.960 . S
H843 C856 0.960 . S
C844 H836 0.929 . S
C844 C845 1.377 . S
C844 C846 1.384 . S
C845 C844 1.377 . S
C845 C851 1.390 . S
C846 H837 0.930 . S
C846 C844 1.384 . S
C846 C847 1.372 . S
C847 C846 1.372 . S
C847 C848 1.400 . S
C847 C852 1.490 . S
C848 H838 0.930 . S
C848 C847 1.400 . S
C848 C851 1.386 . S
H849 C865 0.930 1_545 S
H850 C866 0.931 . S
C851 H839 0.929 . S
C851 C845 1.390 . S
C851 C848 1.386 . S
C852 C847 1.490 . S
C852 C854 1.395 . S
C852 C855 1.403 . S
H853 C859 0.930 . S
C854 H840 0.930 . S
C854 C852 1.395 . S
C854 C857 1.403 . S
C855 C852 1.403 . S
C855 C856 1.524 . S
C855 C859 1.400 . S
C856 H841 0.960 . S
C856 H842 0.960 . S
C856 H843 0.960 . S
C856 C855 1.524 . S
C857 C854 1.403 . S
C857 C858 1.392 . S
C857 C861 1.495 . S
C858 C857 1.392 . S
C858 C859 1.385 . S
C858 C860 1.478 . S
C859 H853 0.930 . S
C859 C855 1.400 . S
C859 C858 1.385 . S
C860 C858 1.478 . S
C860 C862 1.381 . S
C860 C866 1.383 . S
C861 C857 1.495 . S
C861 H867 0.959 . S
C861 H868 0.961 . S
C861 H869 0.960 . S
C862 C860 1.381 . S
C862 C863 1.394 . S
C862 H870 0.930 . S
C863 C862 1.394 . S
C863 C864 1.383 . S
C863 H871 0.929 . S
C864 C863 1.383 . S
C864 C865 1.377 . S
C865 H849 0.930 1_565 S
C865 C864 1.377 . S
C865 C866 1.379 . S
C866 H850 0.931 . S
C866 C860 1.383 . S
C866 C865 1.379 . S
H867 C861 0.959 . S
H868 C861 0.961 . S
H869 C861 0.960 . S
H870 C862 0.930 . S
H871 C863 0.929 . S
H872 C880 0.929 . S
H873 C882 0.930 . S
H874 C884 0.930 . S
H875 C887 0.929 1_565 S
H876 C890 0.930 . S
H877 C892 0.960 . S
H878 C892 0.960 . S
H879 C892 0.960 . S
C880 H872 0.929 . S
C880 C881 1.377 . S
C880 C882 1.384 . S
C881 C880 1.377 . S
C881 C887 1.390 . S
C882 H873 0.930 . S
C882 C880 1.384 . S
C882 C883 1.372 . S
C883 C882 1.372 . S
C883 C884 1.400 . S
C883 C888 1.490 . S
C884 H874 0.930 . S
C884 C883 1.400 . S
C884 C887 1.386 . S
H885 C901 0.930 . S
H886 C902 0.931 . S
C887 H875 0.929 1_545 S
C887 C881 1.390 . S
C887 C884 1.386 . S
C888 C883 1.490 . S
C888 C890 1.395 . S
C888 C891 1.403 . S
H889 C895 0.930 . S
C890 H876 0.930 . S
C890 C888 1.395 . S
C890 C893 1.403 . S
C891 C888 1.403 . S
C891 C892 1.524 . S
C891 C895 1.400 . S
C892 H877 0.960 . S
C892 H878 0.960 . S
C892 H879 0.960 . S
C892 C891 1.524 . S
C893 C890 1.403 . S
C893 C894 1.392 . S
C893 C897 1.495 . S
C894 C893 1.392 . S
C894 C895 1.385 . S
C894 C896 1.478 . S
C895 H889 0.930 . S
C895 C891 1.400 . S
C895 C894 1.385 . S
C896 C894 1.478 . S
C896 C898 1.381 . S
C896 C902 1.383 . S
C897 C893 1.495 . S
C897 H903 0.959 . S
C897 H904 0.961 . S
C897 H905 0.960 . S
C898 C896 1.381 . S
C898 C899 1.394 . S
C898 H906 0.930 . S
C899 C898 1.394 . S
C899 C900 1.383 . S
C899 H907 0.929 . S
C900 C899 1.383 . S
C900 C901 1.377 . S
C901 H885 0.930 . S
C901 C900 1.377 . S
C901 C902 1.379 . S
C902 H886 0.931 . S
C902 C896 1.383 . S
C902 C901 1.379 . S
H903 C897 0.959 . S
H904 C897 0.961 . S
H905 C897 0.960 . S
H906 C898 0.930 . S
H907 C899 0.929 . S
H908 C916 0.929 . S
H909 C918 0.930 . S
H910 C920 0.930 . S
H911 C923 0.929 . S
H912 C926 0.930 . S
H913 C928 0.960 . S
H914 C928 0.960 . S
H915 C928 0.960 . S
C916 H908 0.929 . S
C916 C917 1.377 . S
C916 C918 1.384 . S
C917 C916 1.377 . S
C917 C923 1.390 . S
C918 H909 0.930 . S
C918 C916 1.384 . S
C918 C919 1.372 . S
C919 C918 1.372 . S
C919 C920 1.400 . S
C919 C924 1.490 . S
C920 H910 0.930 . S
C920 C919 1.400 . S
C920 C923 1.386 . S
H921 C937 0.930 . S
H922 C938 0.931 . S
C923 H911 0.929 . S
C923 C917 1.390 . S
C923 C920 1.386 . S
C924 C919 1.490 . S
C924 C926 1.395 . S
C924 C927 1.403 . S
H925 C931 0.930 . S
C926 H912 0.930 . S
C926 C924 1.395 . S
C926 C929 1.403 . S
C927 C924 1.403 . S
C927 C928 1.524 . S
C927 C931 1.400 . S
C928 H913 0.960 . S
C928 H914 0.960 . S
C928 H915 0.960 . S
C928 C927 1.524 . S
C929 C926 1.403 . S
C929 C930 1.392 . S
C929 C933 1.495 . S
C930 C929 1.392 . S
C930 C931 1.385 . S
C930 C932 1.478 . S
C931 H925 0.930 . S
C931 C927 1.400 . S
C931 C930 1.385 . S
C932 C930 1.478 . S
C932 C934 1.381 . S
C932 C938 1.383 . S
C933 C929 1.495 . S
C933 H939 0.959 . S
C933 H940 0.961 . S
C933 H941 0.960 . S
C934 C932 1.381 . S
C934 C935 1.394 . S
C934 H942 0.930 . S
C935 C934 1.394 . S
C935 C936 1.383 . S
C935 H943 0.929 . S
C936 C935 1.383 . S
C936 C937 1.377 . S
C937 H921 0.930 . S
C937 C936 1.377 . S
C937 C938 1.379 . S
C938 H922 0.931 . S
C938 C932 1.383 . S
C938 C937 1.379 . S
H939 C933 0.959 . S
H940 C933 0.961 . S
H941 C933 0.960 . S
H942 C934 0.930 . S
H943 C935 0.929 . S
H944 C952 0.929 1_565 S
H945 C954 0.930 . S
H946 C956 0.930 . S
H947 C959 0.929 . S
H948 C962 0.930 . S
H949 C964 0.960 . S
H950 C964 0.960 . S
H951 C964 0.960 . S
C952 H944 0.929 1_545 S
C952 C953 1.377 . S
C952 C954 1.384 . S
C953 C952 1.377 . S
C953 C959 1.390 . S
C954 H945 0.930 . S
C954 C952 1.384 . S
C954 C955 1.372 . S
C955 C954 1.372 . S
C955 C956 1.400 . S
C955 C960 1.490 . S
C956 H946 0.930 . S
C956 C955 1.400 . S
C956 C959 1.386 . S
H957 C973 0.930 . S
H958 C974 0.931 . S
C959 H947 0.929 . S
C959 C953 1.390 . S
C959 C956 1.386 . S
C960 C955 1.490 . S
C960 C962 1.395 . S
C960 C963 1.403 . S
H961 C967 0.930 . S
C962 H948 0.930 . S
C962 C960 1.395 . S
C962 C965 1.403 . S
C963 C960 1.403 . S
C963 C964 1.524 . S
C963 C967 1.400 . S
C964 H949 0.960 . S
C964 H950 0.960 . S
C964 H951 0.960 . S
C964 C963 1.524 . S
C965 C962 1.403 . S
C965 C966 1.392 . S
C965 C969 1.495 . S
C966 C965 1.392 . S
C966 C967 1.385 . S
C966 C968 1.478 . S
C967 H961 0.930 . S
C967 C963 1.400 . S
C967 C966 1.385 . S
C968 C966 1.478 . S
C968 C970 1.381 . S
C968 C974 1.383 . S
C969 C965 1.495 . S
C969 H975 0.959 . S
C969 H976 0.961 . S
C969 H977 0.960 . S
C970 C968 1.381 . S
C970 C971 1.394 . S
C970 H978 0.930 . S
C971 C970 1.394 . S
C971 C972 1.383 . S
C971 H979 0.929 . S
C972 C971 1.383 . S
C972 C973 1.377 . S
C973 H957 0.930 . S
C973 C972 1.377 . S
C973 C974 1.379 . S
C974 H958 0.931 . S
C974 C968 1.383 . S
C974 C973 1.379 . S
H975 C969 0.959 . S
H976 C969 0.961 . S
H977 C969 0.960 . S
H978 C970 0.930 . S
H979 C971 0.929 . S
H980 C988 0.929 . S
H981 C990 0.930 . S
H982 C992 0.930 . S
H983 C995 0.929 . S
H984 C998 0.930 . S
H985 C1000 0.960 . S
H986 C1000 0.960 . S
H987 C1000 0.960 . S
C988 H980 0.929 . S
C988 C989 1.377 . S
C988 C990 1.384 . S
C989 C988 1.377 . S
C989 C995 1.390 . S
C990 H981 0.930 . S
C990 C988 1.384 . S
C990 C991 1.372 . S
C991 C990 1.372 . S
C991 C992 1.400 . S
C991 C996 1.490 . S
C992 H982 0.930 . S
C992 C991 1.400 . S
C992 C995 1.386 . S
H993 C1009 0.930 . S
H994 C1010 0.931 . S
C995 H983 0.929 . S
C995 C989 1.390 . S
C995 C992 1.386 . S
C996 C991 1.490 . S
C996 C998 1.395 . S
C996 C999 1.403 . S
H997 C1003 0.930 . S
C998 H984 0.930 . S
C998 C996 1.395 . S
C998 C1001 1.403 . S
C999 C996 1.403 . S
C999 C1000 1.524 . S
C999 C1003 1.400 . S
C1000 H985 0.960 . S
C1000 H986 0.960 . S
C1000 H987 0.960 . S
C1000 C999 1.524 . S
C1001 C998 1.403 . S
C1001 C1002 1.392 . S
C1001 C1005 1.495 . S
C1002 C1001 1.392 . S
C1002 C1003 1.385 . S
C1002 C1004 1.478 . S
C1003 H997 0.930 . S
C1003 C999 1.400 . S
C1003 C1002 1.385 . S
C1004 C1002 1.478 . S
C1004 C1006 1.381 . S
C1004 C1010 1.383 . S
C1005 C1001 1.495 . S
C1005 H1011 0.959 . S
C1005 H1012 0.961 . S
C1005 H1013 0.960 . S
C1006 C1004 1.381 . S
C1006 C1007 1.394 . S
C1006 H1014 0.930 . S
C1007 C1006 1.394 . S
C1007 C1008 1.383 . S
C1007 H1015 0.929 . S
C1008 C1007 1.383 . S
C1008 C1009 1.377 . S
C1009 H993 0.930 . S
C1009 C1008 1.377 . S
C1009 C1010 1.379 . S
C1010 H994 0.931 . S
C1010 C1004 1.383 . S
C1010 C1009 1.379 . S
H1011 C1005 0.959 . S
H1012 C1005 0.961 . S
H1013 C1005 0.960 . S
H1014 C1006 0.930 . S
H1015 C1007 0.929 . S
H1016 C1024 0.929 . S
H1017 C1026 0.930 . S
H1018 C1028 0.930 . S
H1019 C1031 0.929 . S
H1020 C1034 0.930 . S
H1021 C1036 0.960 . S
H1022 C1036 0.960 . S
H1023 C1036 0.960 . S
C1024 H1016 0.929 . S
C1024 C1025 1.377 . S
C1024 C1026 1.384 . S
C1025 C1024 1.377 . S
C1025 C1031 1.390 . S
C1026 H1017 0.930 . S
C1026 C1024 1.384 . S
C1026 C1027 1.372 . S
C1027 C1026 1.372 . S
C1027 C1028 1.400 . S
C1027 C1032 1.490 . S
C1028 H1018 0.930 . S
C1028 C1027 1.400 . S
C1028 C1031 1.386 . S
H1029 C1045 0.930 . S
H1030 C1046 0.931 . S
C1031 H1019 0.929 . S
C1031 C1025 1.390 . S
C1031 C1028 1.386 . S
C1032 C1027 1.490 . S
C1032 C1034 1.395 . S
C1032 C1035 1.403 . S
H1033 C1039 0.930 . S
C1034 H1020 0.930 . S
C1034 C1032 1.395 . S
C1034 C1037 1.403 . S
C1035 C1032 1.403 . S
C1035 C1036 1.524 . S
C1035 C1039 1.400 . S
C1036 H1021 0.960 . S
C1036 H1022 0.960 . S
C1036 H1023 0.960 . S
C1036 C1035 1.524 . S
C1037 C1034 1.403 . S
C1037 C1038 1.392 . S
C1037 C1041 1.495 . S
C1038 C1037 1.392 . S
C1038 C1039 1.385 . S
C1038 C1040 1.478 . S
C1039 H1033 0.930 . S
C1039 C1035 1.400 . S
C1039 C1038 1.385 . S
C1040 C1038 1.478 . S
C1040 C1042 1.381 . S
C1040 C1046 1.383 . S
C1041 C1037 1.495 . S
C1041 H1047 0.959 . S
C1041 H1048 0.961 . S
C1041 H1049 0.960 . S
C1042 C1040 1.381 . S
C1042 C1043 1.394 . S
C1042 H1050 0.930 . S
C1043 C1042 1.394 . S
C1043 C1044 1.383 . S
C1043 H1051 0.929 . S
C1044 C1043 1.383 . S
C1044 C1045 1.377 . S
C1045 H1029 0.930 . S
C1045 C1044 1.377 . S
C1045 C1046 1.379 . S
C1046 H1030 0.931 . S
C1046 C1040 1.383 . S
C1046 C1045 1.379 . S
H1047 C1041 0.959 . S
H1048 C1041 0.961 . S
H1049 C1041 0.960 . S
H1050 C1042 0.930 . S
H1051 C1043 0.929 . S
H1052 C1060 0.929 . S
H1053 C1062 0.930 . S
H1054 C1064 0.930 . S
H1055 C1067 0.929 . S
H1056 C1070 0.930 . S
H1057 C1072 0.960 . S
H1058 C1072 0.960 . S
H1059 C1072 0.960 . S
C1060 H1052 0.929 . S
C1060 C1061 1.377 . S
C1060 C1062 1.384 . S
C1061 C1060 1.377 . S
C1061 C1067 1.390 . S
C1062 H1053 0.930 . S
C1062 C1060 1.384 . S
C1062 C1063 1.372 . S
C1063 C1062 1.372 . S
C1063 C1064 1.400 . S
C1063 C1068 1.490 . S
C1064 H1054 0.930 . S
C1064 C1063 1.400 . S
C1064 C1067 1.386 . S
H1065 C1081 0.930 . S
H1066 C1082 0.931 . S
C1067 H1055 0.929 . S
C1067 C1061 1.390 . S
C1067 C1064 1.386 . S
C1068 C1063 1.490 . S
C1068 C1070 1.395 . S
C1068 C1071 1.403 . S
H1069 C1075 0.930 . S
C1070 H1056 0.930 . S
C1070 C1068 1.395 . S
C1070 C1073 1.403 . S
C1071 C1068 1.403 . S
C1071 C1072 1.524 . S
C1071 C1075 1.400 . S
C1072 H1057 0.960 . S
C1072 H1058 0.960 . S
C1072 H1059 0.960 . S
C1072 C1071 1.524 . S
C1073 C1070 1.403 . S
C1073 C1074 1.392 . S
C1073 C1077 1.495 . S
C1074 C1073 1.392 . S
C1074 C1075 1.385 . S
C1074 C1076 1.478 . S
C1075 H1069 0.930 . S
C1075 C1071 1.400 . S
C1075 C1074 1.385 . S
C1076 C1074 1.478 . S
C1076 C1078 1.381 . S
C1076 C1082 1.383 . S
C1077 C1073 1.495 . S
C1077 H1083 0.959 . S
C1077 H1084 0.961 . S
C1077 H1085 0.960 . S
C1078 C1076 1.381 . S
C1078 C1079 1.394 . S
C1078 H1086 0.930 . S
C1079 C1078 1.394 . S
C1079 C1080 1.383 . S
C1079 H1087 0.929 . S
C1080 C1079 1.383 . S
C1080 C1081 1.377 . S
C1081 H1065 0.930 . S
C1081 C1080 1.377 . S
C1081 C1082 1.379 . S
C1082 H1066 0.931 . S
C1082 C1076 1.383 . S
C1082 C1081 1.379 . S
H1083 C1077 0.959 . S
H1084 C1077 0.961 . S
H1085 C1077 0.960 . S
H1086 C1078 0.930 . S
H1087 C1079 0.929 . S
H1088 C1096 0.929 . S
H1089 C1098 0.930 . S
H1090 C1100 0.930 . S
H1091 C1103 0.929 . S
H1092 C1106 0.930 . S
H1093 C1108 0.960 . S
H1094 C1108 0.960 . S
H1095 C1108 0.960 . S
C1096 H1088 0.929 . S
C1096 C1097 1.377 . S
C1096 C1098 1.384 . S
C1097 C1096 1.377 . S
C1097 C1103 1.390 . S
C1098 H1089 0.930 . S
C1098 C1096 1.384 . S
C1098 C1099 1.372 . S
C1099 C1098 1.372 . S
C1099 C1100 1.400 . S
C1099 C1104 1.490 . S
C1100 H1090 0.930 . S
C1100 C1099 1.400 . S
C1100 C1103 1.386 . S
H1101 C1117 0.930 . S
H1102 C1118 0.931 . S
C1103 H1091 0.929 . S
C1103 C1097 1.390 . S
C1103 C1100 1.386 . S
C1104 C1099 1.490 . S
C1104 C1106 1.395 . S
C1104 C1107 1.403 . S
H1105 C1111 0.930 . S
C1106 H1092 0.930 . S
C1106 C1104 1.395 . S
C1106 C1109 1.403 . S
C1107 C1104 1.403 . S
C1107 C1108 1.524 . S
C1107 C1111 1.400 . S
C1108 H1093 0.960 . S
C1108 H1094 0.960 . S
C1108 H1095 0.960 . S
C1108 C1107 1.524 . S
C1109 C1106 1.403 . S
C1109 C1110 1.392 . S
C1109 C1113 1.495 . S
C1110 C1109 1.392 . S
C1110 C1111 1.385 . S
C1110 C1112 1.478 . S
C1111 H1105 0.930 . S
C1111 C1107 1.400 . S
C1111 C1110 1.385 . S
C1112 C1110 1.478 . S
C1112 C1114 1.381 . S
C1112 C1118 1.383 . S
C1113 C1109 1.495 . S
C1113 H1119 0.959 . S
C1113 H1120 0.961 . S
C1113 H1121 0.960 . S
C1114 C1112 1.381 . S
C1114 C1115 1.394 . S
C1114 H1122 0.930 . S
C1115 C1114 1.394 . S
C1115 C1116 1.383 . S
C1115 H1123 0.929 . S
C1116 C1115 1.383 . S
C1116 C1117 1.377 . S
C1117 H1101 0.930 . S
C1117 C1116 1.377 . S
C1117 C1118 1.379 . S
C1118 H1102 0.931 . S
C1118 C1112 1.383 . S
C1118 C1117 1.379 . S
H1119 C1113 0.959 . S
H1120 C1113 0.961 . S
H1121 C1113 0.960 . S
H1122 C1114 0.930 . S
H1123 C1115 0.929 . S
H1124 C1132 0.929 . S
H1125 C1134 0.930 . S
H1126 C1136 0.930 . S
H1127 C1139 0.929 . S
H1128 C1142 0.930 . S
H1129 C1144 0.960 . S
H1130 C1144 0.960 . S
H1131 C1144 0.960 . S
C1132 H1124 0.929 . S
C1132 C1133 1.377 . S
C1132 C1134 1.384 . S
C1133 C1132 1.377 . S
C1133 C1139 1.390 . S
C1134 H1125 0.930 . S
C1134 C1132 1.384 . S
C1134 C1135 1.372 . S
C1135 C1134 1.372 . S
C1135 C1136 1.400 . S
C1135 C1140 1.490 . S
C1136 H1126 0.930 . S
C1136 C1135 1.400 . S
C1136 C1139 1.386 . S
H1137 C1153 0.930 . S
H1138 C1154 0.931 . S
C1139 H1127 0.929 . S
C1139 C1133 1.390 . S
C1139 C1136 1.386 . S
C1140 C1135 1.490 . S
C1140 C1142 1.395 . S
C1140 C1143 1.403 . S
H1141 C1147 0.930 . S
C1142 H1128 0.930 . S
C1142 C1140 1.395 . S
C1142 C1145 1.403 . S
C1143 C1140 1.403 . S
C1143 C1144 1.524 . S
C1143 C1147 1.400 . S
C1144 H1129 0.960 . S
C1144 H1130 0.960 . S
C1144 H1131 0.960 . S
C1144 C1143 1.524 . S
C1145 C1142 1.403 . S
C1145 C1146 1.392 . S
C1145 C1149 1.495 . S
C1146 C1145 1.392 . S
C1146 C1147 1.385 . S
C1146 C1148 1.478 . S
C1147 H1141 0.930 . S
C1147 C1143 1.400 . S
C1147 C1146 1.385 . S
C1148 C1146 1.478 . S
C1148 C1150 1.381 . S
C1148 C1154 1.383 . S
C1149 C1145 1.495 . S
C1149 H1155 0.959 . S
C1149 H1156 0.961 . S
C1149 H1157 0.960 . S
C1150 C1148 1.381 . S
C1150 C1151 1.394 . S
C1150 H1158 0.930 . S
C1151 C1150 1.394 . S
C1151 C1152 1.383 . S
C1151 H1159 0.929 . S
C1152 C1151 1.383 . S
C1152 C1153 1.377 . S
C1153 H1137 0.930 . S
C1153 C1152 1.377 . S
C1153 C1154 1.379 . S
C1154 H1138 0.931 . S
C1154 C1148 1.383 . S
C1154 C1153 1.379 . S
H1155 C1149 0.959 . S
H1156 C1149 0.961 . S
H1157 C1149 0.960 . S
H1158 C1150 0.930 . S
H1159 C1151 0.929 . S
H1160 C1168 0.929 . S
H1161 C1170 0.930 . S
H1162 C1172 0.930 . S
H1163 C1175 0.929 . S
H1164 C1178 0.930 . S
H1165 C1180 0.960 . S
H1166 C1180 0.960 . S
H1167 C1180 0.960 . S
C1168 H1160 0.929 . S
C1168 C1169 1.377 . S
C1168 C1170 1.384 . S
C1169 C1168 1.377 . S
C1169 C1175 1.390 . S
C1170 H1161 0.930 . S
C1170 C1168 1.384 . S
C1170 C1171 1.372 . S
C1171 C1170 1.372 . S
C1171 C1172 1.400 . S
C1171 C1176 1.490 . S
C1172 H1162 0.930 . S
C1172 C1171 1.400 . S
C1172 C1175 1.386 . S
H1173 C1189 0.930 . S
H1174 C1190 0.931 . S
C1175 H1163 0.929 . S
C1175 C1169 1.390 . S
C1175 C1172 1.386 . S
C1176 C1171 1.490 . S
C1176 C1178 1.395 . S
C1176 C1179 1.403 . S
H1177 C1183 0.930 . S
C1178 H1164 0.930 . S
C1178 C1176 1.395 . S
C1178 C1181 1.403 . S
C1179 C1176 1.403 . S
C1179 C1180 1.524 . S
C1179 C1183 1.400 . S
C1180 H1165 0.960 . S
C1180 H1166 0.960 . S
C1180 H1167 0.960 . S
C1180 C1179 1.524 . S
C1181 C1178 1.403 . S
C1181 C1182 1.392 . S
C1181 C1185 1.495 . S
C1182 C1181 1.392 . S
C1182 C1183 1.385 . S
C1182 C1184 1.478 . S
C1183 H1177 0.930 . S
C1183 C1179 1.400 . S
C1183 C1182 1.385 . S
C1184 C1182 1.478 . S
C1184 C1186 1.381 . S
C1184 C1190 1.383 . S
C1185 C1181 1.495 . S
C1185 H1191 0.959 . S
C1185 H1192 0.961 . S
C1185 H1193 0.960 . S
C1186 C1184 1.381 . S
C1186 C1187 1.394 . S
C1186 H1194 0.930 . S
C1187 C1186 1.394 . S
C1187 C1188 1.383 . S
C1187 H1195 0.929 . S
C1188 C1187 1.383 . S
C1188 C1189 1.377 . S
C1189 H1173 0.930 . S
C1189 C1188 1.377 . S
C1189 C1190 1.379 . S
C1190 H1174 0.931 . S
C1190 C1184 1.383 . S
C1190 C1189 1.379 . S
H1191 C1185 0.959 . S
H1192 C1185 0.961 . S
H1193 C1185 0.960 . S
H1194 C1186 0.930 . S
H1195 C1187 0.929 . S
H1196 C1204 0.929 . S
H1197 C1206 0.930 . S
H1198 C1208 0.930 . S
H1199 C1211 0.929 . S
H1200 C1214 0.930 . S
H1201 C1216 0.960 . S
H1202 C1216 0.960 . S
H1203 C1216 0.960 . S
C1204 H1196 0.929 . S
C1204 C1205 1.377 . S
C1204 C1206 1.384 . S
C1205 C1204 1.377 . S
C1205 C1211 1.390 . S
C1206 H1197 0.930 . S
C1206 C1204 1.384 . S
C1206 C1207 1.372 . S
C1207 C1206 1.372 . S
C1207 C1208 1.400 . S
C1207 C1212 1.490 . S
C1208 H1198 0.930 . S
C1208 C1207 1.400 . S
C1208 C1211 1.386 . S
H1209 C1225 0.930 . S
H1210 C1226 0.931 . S
C1211 H1199 0.929 . S
C1211 C1205 1.390 . S
C1211 C1208 1.386 . S
C1212 C1207 1.490 . S
C1212 C1214 1.395 . S
C1212 C1215 1.403 . S
H1213 C1219 0.930 . S
C1214 H1200 0.930 . S
C1214 C1212 1.395 . S
C1214 C1217 1.403 . S
C1215 C1212 1.403 . S
C1215 C1216 1.524 . S
C1215 C1219 1.400 . S
C1216 H1201 0.960 . S
C1216 H1202 0.960 . S
C1216 H1203 0.960 . S
C1216 C1215 1.524 . S
C1217 C1214 1.403 . S
C1217 C1218 1.392 . S
C1217 C1221 1.495 . S
C1218 C1217 1.392 . S
C1218 C1219 1.385 . S
C1218 C1220 1.478 . S
C1219 H1213 0.930 . S
C1219 C1215 1.400 . S
C1219 C1218 1.385 . S
C1220 C1218 1.478 . S
C1220 C1222 1.381 . S
C1220 C1226 1.383 . S
C1221 C1217 1.495 . S
C1221 H1227 0.959 . S
C1221 H1228 0.961 . S
C1221 H1229 0.960 . S
C1222 C1220 1.381 . S
C1222 C1223 1.394 . S
C1222 H1230 0.930 . S
C1223 C1222 1.394 . S
C1223 C1224 1.383 . S
C1223 H1231 0.929 . S
C1224 C1223 1.383 . S
C1224 C1225 1.377 . S
C1225 H1209 0.930 . S
C1225 C1224 1.377 . S
C1225 C1226 1.379 . S
C1226 H1210 0.931 . S
C1226 C1220 1.383 . S
C1226 C1225 1.379 . S
H1227 C1221 0.959 . S
H1228 C1221 0.961 . S
H1229 C1221 0.960 . S
H1230 C1222 0.930 . S
H1231 C1223 0.929 . S
H1232 C1240 0.929 . S
H1233 C1242 0.930 . S
H1234 C1244 0.930 . S
H1235 C1247 0.929 . S
H1236 C1250 0.930 . S
H1237 C1252 0.960 . S
H1238 C1252 0.960 . S
H1239 C1252 0.960 . S
C1240 H1232 0.929 . S
C1240 C1241 1.377 . S
C1240 C1242 1.384 . S
C1241 C1240 1.377 . S
C1241 C1247 1.390 . S
C1242 H1233 0.930 . S
C1242 C1240 1.384 . S
C1242 C1243 1.372 . S
C1243 C1242 1.372 . S
C1243 C1244 1.400 . S
C1243 C1248 1.490 . S
C1244 H1234 0.930 . S
C1244 C1243 1.400 . S
C1244 C1247 1.386 . S
H1245 C1261 0.930 . S
H1246 C1262 0.931 . S
C1247 H1235 0.929 . S
C1247 C1241 1.390 . S
C1247 C1244 1.386 . S
C1248 C1243 1.490 . S
C1248 C1250 1.395 . S
C1248 C1251 1.403 . S
H1249 C1255 0.930 . S
C1250 H1236 0.930 . S
C1250 C1248 1.395 . S
C1250 C1253 1.403 . S
C1251 C1248 1.403 . S
C1251 C1252 1.524 . S
C1251 C1255 1.400 . S
C1252 H1237 0.960 . S
C1252 H1238 0.960 . S
C1252 H1239 0.960 . S
C1252 C1251 1.524 . S
C1253 C1250 1.403 . S
C1253 C1254 1.392 . S
C1253 C1257 1.495 . S
C1254 C1253 1.392 . S
C1254 C1255 1.385 . S
C1254 C1256 1.478 . S
C1255 H1249 0.930 . S
C1255 C1251 1.400 . S
C1255 C1254 1.385 . S
C1256 C1254 1.478 . S
C1256 C1258 1.381 . S
C1256 C1262 1.383 . S
C1257 C1253 1.495 . S
C1257 H1263 0.959 . S
C1257 H1264 0.961 . S
C1257 H1265 0.960 . S
C1258 C1256 1.381 . S
C1258 C1259 1.394 . S
C1258 H1266 0.930 . S
C1259 C1258 1.394 . S
C1259 C1260 1.383 . S
C1259 H1267 0.929 . S
C1260 C1259 1.383 . S
C1260 C1261 1.377 . S
C1261 H1245 0.930 . S
C1261 C1260 1.377 . S
C1261 C1262 1.379 . S
C1262 H1246 0.931 . S
C1262 C1256 1.383 . S
C1262 C1261 1.379 . S
H1263 C1257 0.959 . S
H1264 C1257 0.961 . S
H1265 C1257 0.960 . S
H1266 C1258 0.930 . S
H1267 C1259 0.929 . S
H1268 C1276 0.929 . S
H1269 C1278 0.930 . S
H1270 C1280 0.930 . S
H1271 C1283 0.929 . S
H1272 C1286 0.930 . S
H1273 C1288 0.960 . S
H1274 C1288 0.960 . S
H1275 C1288 0.960 . S
C1276 H1268 0.929 . S
C1276 C1277 1.377 . S
C1276 C1278 1.384 . S
C1277 C1276 1.377 . S
C1277 C1283 1.390 . S
C1278 H1269 0.930 . S
C1278 C1276 1.384 . S
C1278 C1279 1.372 . S
C1279 C1278 1.372 . S
C1279 C1280 1.400 . S
C1279 C1284 1.490 . S
C1280 H1270 0.930 . S
C1280 C1279 1.400 . S
C1280 C1283 1.386 . S
H1281 C1297 0.930 . S
H1282 C1298 0.931 . S
C1283 H1271 0.929 . S
C1283 C1277 1.390 . S
C1283 C1280 1.386 . S
C1284 C1279 1.490 . S
C1284 C1286 1.395 . S
C1284 C1287 1.403 . S
H1285 C1291 0.930 . S
C1286 H1272 0.930 . S
C1286 C1284 1.395 . S
C1286 C1289 1.403 . S
C1287 C1284 1.403 . S
C1287 C1288 1.524 . S
C1287 C1291 1.400 . S
C1288 H1273 0.960 . S
C1288 H1274 0.960 . S
C1288 H1275 0.960 . S
C1288 C1287 1.524 . S
C1289 C1286 1.403 . S
C1289 C1290 1.392 . S
C1289 C1293 1.495 . S
C1290 C1289 1.392 . S
C1290 C1291 1.385 . S
C1290 C1292 1.478 . S
C1291 H1285 0.930 . S
C1291 C1287 1.400 . S
C1291 C1290 1.385 . S
C1292 C1290 1.478 . S
C1292 C1294 1.381 . S
C1292 C1298 1.383 . S
C1293 C1289 1.495 . S
C1293 H1299 0.959 . S
C1293 H1300 0.961 . S
C1293 H1301 0.960 . S
C1294 C1292 1.381 . S
C1294 C1295 1.394 . S
C1294 H1302 0.930 . S
C1295 C1294 1.394 . S
C1295 C1296 1.383 . S
C1295 H1303 0.929 . S
C1296 C1295 1.383 . S
C1296 C1297 1.377 . S
C1297 H1281 0.930 . S
C1297 C1296 1.377 . S
C1297 C1298 1.379 . S
C1298 H1282 0.931 . S
C1298 C1292 1.383 . S
C1298 C1297 1.379 . S
H1299 C1293 0.959 . S
H1300 C1293 0.961 . S
H1301 C1293 0.960 . S
H1302 C1294 0.930 . S
H1303 C1295 0.929 . S
H1304 C1312 0.929 . S
H1305 C1314 0.930 . S
H1306 C1316 0.930 . S
H1307 C1319 0.929 . S
H1308 C1322 0.930 . S
H1309 C1324 0.960 . S
H1310 C1324 0.960 . S
H1311 C1324 0.960 . S
C1312 H1304 0.929 . S
C1312 C1313 1.377 . S
C1312 C1314 1.384 . S
C1313 C1312 1.377 . S
C1313 C1319 1.390 . S
C1314 H1305 0.930 . S
C1314 C1312 1.384 . S
C1314 C1315 1.372 . S
C1315 C1314 1.372 . S
C1315 C1316 1.400 . S
C1315 C1320 1.490 . S
C1316 H1306 0.930 . S
C1316 C1315 1.400 . S
C1316 C1319 1.386 . S
H1317 C1333 0.930 . S
H1318 C1334 0.931 . S
C1319 H1307 0.929 . S
C1319 C1313 1.390 . S
C1319 C1316 1.386 . S
C1320 C1315 1.490 . S
C1320 C1322 1.395 . S
C1320 C1323 1.403 . S
H1321 C1327 0.930 . S
C1322 H1308 0.930 . S
C1322 C1320 1.395 . S
C1322 C1325 1.403 . S
C1323 C1320 1.403 . S
C1323 C1324 1.524 . S
C1323 C1327 1.400 . S
C1324 H1309 0.960 . S
C1324 H1310 0.960 . S
C1324 H1311 0.960 . S
C1324 C1323 1.524 . S
C1325 C1322 1.403 . S
C1325 C1326 1.392 . S
C1325 C1329 1.495 . S
C1326 C1325 1.392 . S
C1326 C1327 1.385 . S
C1326 C1328 1.478 . S
C1327 H1321 0.930 . S
C1327 C1323 1.400 . S
C1327 C1326 1.385 . S
C1328 C1326 1.478 . S
C1328 C1330 1.381 . S
C1328 C1334 1.383 . S
C1329 C1325 1.495 . S
C1329 H1335 0.959 . S
C1329 H1336 0.961 . S
C1329 H1337 0.960 . S
C1330 C1328 1.381 . S
C1330 C1331 1.394 . S
C1330 H1338 0.930 . S
C1331 C1330 1.394 . S
C1331 C1332 1.383 . S
C1331 H1339 0.929 . S
C1332 C1331 1.383 . S
C1332 C1333 1.377 . S
C1333 H1317 0.930 . S
C1333 C1332 1.377 . S
C1333 C1334 1.379 . S
C1334 H1318 0.931 . S
C1334 C1328 1.383 . S
C1334 C1333 1.379 . S
H1335 C1329 0.959 . S
H1336 C1329 0.961 . S
H1337 C1329 0.960 . S
H1338 C1330 0.930 . S
H1339 C1331 0.929 . S
H1340 C1348 0.929 . S
H1341 C1350 0.930 . S
H1342 C1352 0.930 . S
H1343 C1355 0.929 . S
H1344 C1358 0.930 . S
H1345 C1360 0.960 . S
H1346 C1360 0.960 . S
H1347 C1360 0.960 . S
C1348 H1340 0.929 . S
C1348 C1349 1.377 . S
C1348 C1350 1.384 . S
C1349 C1348 1.377 . S
C1349 C1355 1.390 . S
C1350 H1341 0.930 . S
C1350 C1348 1.384 . S
C1350 C1351 1.372 . S
C1351 C1350 1.372 . S
C1351 C1352 1.400 . S
C1351 C1356 1.490 . S
C1352 H1342 0.930 . S
C1352 C1351 1.400 . S
C1352 C1355 1.386 . S
H1353 C1369 0.930 . S
H1354 C1370 0.931 . S
C1355 H1343 0.929 . S
C1355 C1349 1.390 . S
C1355 C1352 1.386 . S
C1356 C1351 1.490 . S
C1356 C1358 1.395 . S
C1356 C1359 1.403 . S
H1357 C1363 0.930 . S
C1358 H1344 0.930 . S
C1358 C1356 1.395 . S
C1358 C1361 1.403 . S
C1359 C1356 1.403 . S
C1359 C1360 1.524 . S
C1359 C1363 1.400 . S
C1360 H1345 0.960 . S
C1360 H1346 0.960 . S
C1360 H1347 0.960 . S
C1360 C1359 1.524 . S
C1361 C1358 1.403 . S
C1361 C1362 1.392 . S
C1361 C1365 1.495 . S
C1362 C1361 1.392 . S
C1362 C1363 1.385 . S
C1362 C1364 1.478 . S
C1363 H1357 0.930 . S
C1363 C1359 1.400 . S
C1363 C1362 1.385 . S
C1364 C1362 1.478 . S
C1364 C1366 1.381 . S
C1364 C1370 1.383 . S
C1365 C1361 1.495 . S
C1365 H1371 0.959 . S
C1365 H1372 0.961 . S
C1365 H1373 0.960 . S
C1366 C1364 1.381 . S
C1366 C1367 1.394 . S
C1366 H1374 0.930 . S
C1367 C1366 1.394 . S
C1367 C1368 1.383 . S
C1367 H1375 0.929 . S
C1368 C1367 1.383 . S
C1368 C1369 1.377 . S
C1369 H1353 0.930 . S
C1369 C1368 1.377 . S
C1369 C1370 1.379 . S
C1370 H1354 0.931 . S
C1370 C1364 1.383 . S
C1370 C1369 1.379 . S
H1371 C1365 0.959 . S
H1372 C1365 0.961 . S
H1373 C1365 0.960 . S
H1374 C1366 0.930 . S
H1375 C1367 0.929 . S
C233 C8 1.201 . S
C252 C190 1.198 . S
C269 C162 1.207 . S
C288 C22 1.214 . S
C305 C176 1.202 . S
C324 C36 1.185 . S
C341 C148 1.204 . S
C360 C50 1.217 . S
C377 C64 1.201 . S
C396 C218 1.206 . S
C413 C78 1.203 . S
C432 C134 1.214 . S
C449 C204 1.202 . S
C468 C92 1.185 . S
C485 C106 1.202 . S
C504 C120 1.209 . S
C521 C63 1.617 . S
C540 C7 1.606 1_655 S
C557 C21 1.623 . S
C576 C77 1.631 . S
C593 C35 1.625 . S
C612 C91 1.612 . S
C629 C105 1.622 . S
C648 C49 1.632 . S
C665 C119 1.620 . S
C684 C147 1.594 . S
C701 C133 1.615 . S
C720 C161 1.614 . S
C737 C203 1.620 . S
C756 C175 1.639 . S
C773 C189 1.616 . S
C792 C217 1.632 . S
C809 C73 1.364 . S
C828 C3 1.378 1_565 S
C845 C17 1.369 . S
C864 C87 1.355 1_565 S
C881 C31 1.368 1_545 S
C900 C101 1.358 . S
C917 C59 1.364 1_545 S
C936 C45 1.378 . S
C953 C65 1.112 . S
C972 C149 1.126 . S
C989 C37 1.115 . S
C1008 C121 1.086 . S
C1025 C163 1.116 . S
C1044 C93 1.085 . S
C1061 C135 1.108 . S
C1080 C9 1.133 . S
C1097 C115 1.364 . S
C1116 C171 1.379 . S
C1133 C143 1.365 . S
C1152 C213 1.373 . S
C1169 C185 1.366 . S
C1188 C129 1.371 . S
C1205 C157 1.365 . S
C1224 C199 1.377 . S
C1241 C205 1.111 . S
C1260 C23 1.130 . S
C1277 C191 1.107 . S
C1296 C79 1.121 . S
C1313 C219 1.113 . S
C1332 C51 1.092 . S
C1349 C177 1.111 . S
C1368 C107 1.102 . S
