# Generated by pormake.
# Topology uoh, (4)-cn, num edge types: 1
# Building blocks:
#     Node 0, Type 0, BuildingBlock: CEKHIL_clean_sbu_0, # of connection points: 4
#     Node 1, Type 0, BuildingBlock: CEKHIL_clean_sbu_0, # of connection points: 4
#     Node 2, Type 0, BuildingBlock: CEKHIL_clean_sbu_0, # of connection points: 4
#     Node 3, Type 0, BuildingBlock: CEKHIL_clean_sbu_0, # of connection points: 4
#     Node 4, Type 0, BuildingBlock: CEKHIL_clean_sbu_0, # of connection points: 4
#     Node 5, Type 0, BuildingBlock: CEKHIL_clean_sbu_0, # of connection points: 4
#     Node 6, Type 0, BuildingBlock: CEKHIL_clean_sbu_0, # of connection points: 4
#     Node 7, Type 0, BuildingBlock: CEKHIL_clean_sbu_0, # of connection points: 4
#     Node 8, Type 0, BuildingBlock: CEKHIL_clean_sbu_0, # of connection points: 4
#     Node 9, Type 0, BuildingBlock: CEKHIL_clean_sbu_0, # of connection points: 4
#     Node 10, Type 0, BuildingBlock: CEKHIL_clean_sbu_0, # of connection points: 4
#     Node 11, Type 0, BuildingBlock: CEKHIL_clean_sbu_0, # of connection points: 4
#     Node 12, Type 0, BuildingBlock: CEKHIL_clean_sbu_0, # of connection points: 4
#     Node 13, Type 0, BuildingBlock: CEKHIL_clean_sbu_0, # of connection points: 4
#     Node 14, Type 0, BuildingBlock: CEKHIL_clean_sbu_0, # of connection points: 4
#     Node 15, Type 0, BuildingBlock: CEKHIL_clean_sbu_0, # of connection points: 4
#     Node 16, Type 0, BuildingBlock: CEKHIL_clean_sbu_0, # of connection points: 4
#     Node 17, Type 0, BuildingBlock: CEKHIL_clean_sbu_0, # of connection points: 4
#     Node 18, Type 0, BuildingBlock: CEKHIL_clean_sbu_0, # of connection points: 4
#     Node 19, Type 0, BuildingBlock: CEKHIL_clean_sbu_0, # of connection points: 4
#     Node 20, Type 0, BuildingBlock: CEKHIL_clean_sbu_0, # of connection points: 4
#     Node 21, Type 0, BuildingBlock: CEKHIL_clean_sbu_0, # of connection points: 4
#     Node 22, Type 0, BuildingBlock: CEKHIL_clean_sbu_0, # of connection points: 4
#     Node 23, Type 0, BuildingBlock: CEKHIL_clean_sbu_0, # of connection points: 4
#     Node 24, Type 0, BuildingBlock: CEKHIL_clean_sbu_0, # of connection points: 4
#     Node 25, Type 0, BuildingBlock: CEKHIL_clean_sbu_0, # of connection points: 4
#     Node 26, Type 0, BuildingBlock: CEKHIL_clean_sbu_0, # of connection points: 4
#     Node 27, Type 0, BuildingBlock: CEKHIL_clean_sbu_0, # of connection points: 4
#     Node 28, Type 0, BuildingBlock: CEKHIL_clean_sbu_0, # of connection points: 4
#     Node 29, Type 0, BuildingBlock: CEKHIL_clean_sbu_0, # of connection points: 4
#     Node 30, Type 0, BuildingBlock: CEKHIL_clean_sbu_0, # of connection points: 4
#     Node 31, Type 0, BuildingBlock: CEKHIL_clean_sbu_0, # of connection points: 4
#     Node 32, Type 0, BuildingBlock: CEKHIL_clean_sbu_0, # of connection points: 4
#     Node 33, Type 0, BuildingBlock: CEKHIL_clean_sbu_0, # of connection points: 4
#     Node 34, Type 0, BuildingBlock: CEKHIL_clean_sbu_0, # of connection points: 4
#     Node 35, Type 0, BuildingBlock: CEKHIL_clean_sbu_0, # of connection points: 4
#     Edge 36, Type (0, 0), BuildingBlock: XUDNAN_clean_linker_2, # of connection points: 2
#     Edge 37, Type (0, 0), BuildingBlock: XUDNAN_clean_linker_2, # of connection points: 2
#     Edge 38, Type (0, 0), BuildingBlock: XUDNAN_clean_linker_2, # of connection points: 2
#     Edge 39, Type (0, 0), BuildingBlock: XUDNAN_clean_linker_2, # of connection points: 2
#     Edge 40, Type (0, 0), BuildingBlock: XUDNAN_clean_linker_2, # of connection points: 2
#     Edge 41, Type (0, 0), BuildingBlock: XUDNAN_clean_linker_2, # of connection points: 2
#     Edge 42, Type (0, 0), BuildingBlock: XUDNAN_clean_linker_2, # of connection points: 2
#     Edge 43, Type (0, 0), BuildingBlock: XUDNAN_clean_linker_2, # of connection points: 2
#     Edge 44, Type (0, 0), BuildingBlock: XUDNAN_clean_linker_2, # of connection points: 2
#     Edge 45, Type (0, 0), BuildingBlock: XUDNAN_clean_linker_2, # of connection points: 2
#     Edge 46, Type (0, 0), BuildingBlock: XUDNAN_clean_linker_2, # of connection points: 2
#     Edge 47, Type (0, 0), BuildingBlock: XUDNAN_clean_linker_2, # of connection points: 2
#     Edge 48, Type (0, 0), BuildingBlock: XUDNAN_clean_linker_2, # of connection points: 2
#     Edge 49, Type (0, 0), BuildingBlock: XUDNAN_clean_linker_2, # of connection points: 2
#     Edge 50, Type (0, 0), BuildingBlock: XUDNAN_clean_linker_2, # of connection points: 2
#     Edge 51, Type (0, 0), BuildingBlock: XUDNAN_clean_linker_2, # of connection points: 2
#     Edge 52, Type (0, 0), BuildingBlock: XUDNAN_clean_linker_2, # of connection points: 2
#     Edge 53, Type (0, 0), BuildingBlock: XUDNAN_clean_linker_2, # of connection points: 2
#     Edge 54, Type (0, 0), BuildingBlock: XUDNAN_clean_linker_2, # of connection points: 2
#     Edge 55, Type (0, 0), BuildingBlock: XUDNAN_clean_linker_2, # of connection points: 2
#     Edge 56, Type (0, 0), BuildingBlock: XUDNAN_clean_linker_2, # of connection points: 2
#     Edge 57, Type (0, 0), BuildingBlock: XUDNAN_clean_linker_2, # of connection points: 2
#     Edge 58, Type (0, 0), BuildingBlock: XUDNAN_clean_linker_2, # of connection points: 2
#     Edge 59, Type (0, 0), BuildingBlock: XUDNAN_clean_linker_2, # of connection points: 2
#     Edge 60, Type (0, 0), BuildingBlock: XUDNAN_clean_linker_2, # of connection points: 2
#     Edge 61, Type (0, 0), BuildingBlock: XUDNAN_clean_linker_2, # of connection points: 2
#     Edge 62, Type (0, 0), BuildingBlock: XUDNAN_clean_linker_2, # of connection points: 2
#     Edge 63, Type (0, 0), BuildingBlock: XUDNAN_clean_linker_2, # of connection points: 2
#     Edge 64, Type (0, 0), BuildingBlock: XUDNAN_clean_linker_2, # of connection points: 2
#     Edge 65, Type (0, 0), BuildingBlock: XUDNAN_clean_linker_2, # of connection points: 2
#     Edge 66, Type (0, 0), BuildingBlock: XUDNAN_clean_linker_2, # of connection points: 2
#     Edge 67, Type (0, 0), BuildingBlock: XUDNAN_clean_linker_2, # of connection points: 2
#     Edge 68, Type (0, 0), BuildingBlock: XUDNAN_clean_linker_2, # of connection points: 2
#     Edge 69, Type (0, 0), BuildingBlock: XUDNAN_clean_linker_2, # of connection points: 2
#     Edge 70, Type (0, 0), BuildingBlock: XUDNAN_clean_linker_2, # of connection points: 2
#     Edge 71, Type (0, 0), BuildingBlock: XUDNAN_clean_linker_2, # of connection points: 2
#     Edge 72, Type (0, 0), BuildingBlock: XUDNAN_clean_linker_2, # of connection points: 2
#     Edge 73, Type (0, 0), BuildingBlock: XUDNAN_clean_linker_2, # of connection points: 2
#     Edge 74, Type (0, 0), BuildingBlock: XUDNAN_clean_linker_2, # of connection points: 2
#     Edge 75, Type (0, 0), BuildingBlock: XUDNAN_clean_linker_2, # of connection points: 2
#     Edge 76, Type (0, 0), BuildingBlock: XUDNAN_clean_linker_2, # of connection points: 2
#     Edge 77, Type (0, 0), BuildingBlock: XUDNAN_clean_linker_2, # of connection points: 2
#     Edge 78, Type (0, 0), BuildingBlock: XUDNAN_clean_linker_2, # of connection points: 2
#     Edge 79, Type (0, 0), BuildingBlock: XUDNAN_clean_linker_2, # of connection points: 2
#     Edge 80, Type (0, 0), BuildingBlock: XUDNAN_clean_linker_2, # of connection points: 2
#     Edge 81, Type (0, 0), BuildingBlock: XUDNAN_clean_linker_2, # of connection points: 2
#     Edge 82, Type (0, 0), BuildingBlock: XUDNAN_clean_linker_2, # of connection points: 2
#     Edge 83, Type (0, 0), BuildingBlock: XUDNAN_clean_linker_2, # of connection points: 2
#     Edge 84, Type (0, 0), BuildingBlock: XUDNAN_clean_linker_2, # of connection points: 2
#     Edge 85, Type (0, 0), BuildingBlock: XUDNAN_clean_linker_2, # of connection points: 2
#     Edge 86, Type (0, 0), BuildingBlock: XUDNAN_clean_linker_2, # of connection points: 2
#     Edge 87, Type (0, 0), BuildingBlock: XUDNAN_clean_linker_2, # of connection points: 2
#     Edge 88, Type (0, 0), BuildingBlock: XUDNAN_clean_linker_2, # of connection points: 2
#     Edge 89, Type (0, 0), BuildingBlock: XUDNAN_clean_linker_2, # of connection points: 2
#     Edge 90, Type (0, 0), BuildingBlock: XUDNAN_clean_linker_2, # of connection points: 2
#     Edge 91, Type (0, 0), BuildingBlock: XUDNAN_clean_linker_2, # of connection points: 2
#     Edge 92, Type (0, 0), BuildingBlock: XUDNAN_clean_linker_2, # of connection points: 2
#     Edge 93, Type (0, 0), BuildingBlock: XUDNAN_clean_linker_2, # of connection points: 2
#     Edge 94, Type (0, 0), BuildingBlock: XUDNAN_clean_linker_2, # of connection points: 2
#     Edge 95, Type (0, 0), BuildingBlock: XUDNAN_clean_linker_2, # of connection points: 2
#     Edge 96, Type (0, 0), BuildingBlock: XUDNAN_clean_linker_2, # of connection points: 2
#     Edge 97, Type (0, 0), BuildingBlock: XUDNAN_clean_linker_2, # of connection points: 2
#     Edge 98, Type (0, 0), BuildingBlock: XUDNAN_clean_linker_2, # of connection points: 2
#     Edge 99, Type (0, 0), BuildingBlock: XUDNAN_clean_linker_2, # of connection points: 2
#     Edge 100, Type (0, 0), BuildingBlock: XUDNAN_clean_linker_2, # of connection points: 2
#     Edge 101, Type (0, 0), BuildingBlock: XUDNAN_clean_linker_2, # of connection points: 2
#     Edge 102, Type (0, 0), BuildingBlock: XUDNAN_clean_linker_2, # of connection points: 2
#     Edge 103, Type (0, 0), BuildingBlock: XUDNAN_clean_linker_2, # of connection points: 2
#     Edge 104, Type (0, 0), BuildingBlock: XUDNAN_clean_linker_2, # of connection points: 2
#     Edge 105, Type (0, 0), BuildingBlock: XUDNAN_clean_linker_2, # of connection points: 2
#     Edge 106, Type (0, 0), BuildingBlock: XUDNAN_clean_linker_2, # of connection points: 2
#     Edge 107, Type (0, 0), BuildingBlock: XUDNAN_clean_linker_2, # of connection points: 2
# Relax obj value: 0.090
# Max RMSD: 0.139
# Mean RMSD: 0.138
data_MOF--net-uoh--node1-CEKHIL_clean_sbu_0--edge1-XUDNAN_clean_linker_2
_symmetry_space_group_name_H-M    P1
_symmetry_Int_Tables_number       1
_symmetry_cell_setting            triclinic
loop_
_symmetry_equiv_pos_as_xyz
'x, y, z'
_cell_length_a     88.245297
_cell_length_b     88.300252
_cell_length_c     27.245236
_cell_angle_alpha  89.978833
_cell_angle_beta   90.019333
_cell_angle_gamma 119.98483
loop_
_atom_site_label
_atom_site_type_symbol
_atom_site_fract_x
_atom_site_fract_y
_atom_site_fract_z
_atom_type_partial_charge
Co0 Co 0.24378 0.15113 0.17914 0.0
O1 O 0.22514 0.15633 0.18192 0.0
O2 O 0.25198 0.17376 0.20977 0.0
C3 C 0.23976 0.14214 0.10077 0.0
O4 O 0.26644 0.15001 0.18064 0.0
Co5 Co 0.23431 0.1125 0.16162 0.0
O6 O 0.25998 0.12315 0.15535 0.0
C7 C 0.22901 0.1232 0.2593 0.0
C8 C 0.23614 0.17089 0.20307 0.0
C9 C 0.27102 0.13876 0.16813 0.0
O10 O 0.23641 0.1392 0.24497 0.0
O11 O 0.22586 0.11044 0.2308 0.0
O12 O 0.24869 0.15872 0.11085 0.0
O13 O 0.2321 0.13187 0.1374 0.0
Co14 Co 0.85873 0.08923 0.17064 0.0
O15 O 0.85461 0.06608 0.18455 0.0
O16 O 0.83468 0.07413 0.19172 0.0
C17 C 0.87222 0.09228 0.09849 0.0
O18 O 0.85836 0.11201 0.15807 0.0
Co19 Co 0.89701 0.12019 0.16349 0.0
O20 O 0.88566 0.13306 0.13818 0.0
C21 C 0.881 0.10746 0.26083 0.0
C22 C 0.83861 0.06177 0.19485 0.0
C23 C 0.86939 0.12765 0.14332 0.0
O24 O 0.86643 0.09658 0.24032 0.0
O25 O 0.895 0.11731 0.23672 0.0
O26 O 0.85528 0.08383 0.10097 0.0
O27 O 0.88047 0.09708 0.13979 0.0
Co28 Co 0.91119 0.76209 0.17256 0.0
O29 O 0.93482 0.7811 0.17539 0.0
O30 O 0.92528 0.7557 0.21321 0.0
C31 C 0.90733 0.76253 0.09119 0.0
O32 O 0.88747 0.7394 0.17585 0.0
Co33 Co 0.88257 0.7708 0.14203 0.0
O34 O 0.86812 0.74506 0.13814 0.0
C35 C 0.89563 0.77812 0.24285 0.0
C36 C 0.93813 0.77136 0.20386 0.0
C37 C 0.8721 0.73447 0.15823 0.0
O38 O 0.90536 0.77155 0.23252 0.0
O39 O 0.88576 0.77971 0.21136 0.0
O40 O 0.91527 0.75475 0.10936 0.0
O41 O 0.90415 0.77178 0.12197 0.0
Co42 Co 0.15408 0.24199 0.3045 0.0
O43 O 0.15766 0.22211 0.30368 0.0
O44 O 0.17639 0.24849 0.2752 0.0
C45 C 0.1446 0.23879 0.38273 0.0
O46 O 0.15577 0.26577 0.29985 0.0
Co47 Co 0.11804 0.23933 0.32249 0.0
O48 O 0.13143 0.26527 0.3263 0.0
C49 C 0.12546 0.22753 0.22838 0.0
C50 C 0.17272 0.23253 0.28357 0.0
C51 C 0.14715 0.27351 0.31091 0.0
O52 O 0.14187 0.23485 0.23882 0.0
O53 O 0.11389 0.22645 0.25879 0.0
O54 O 0.16127 0.2464 0.37356 0.0
O55 O 0.13442 0.23237 0.34528 0.0
Co56 Co 0.76124 0.9092 0.306 0.0
O57 O 0.78246 0.93117 0.29318 0.0
O58 O 0.75613 0.92425 0.26639 0.0
C59 C 0.76579 0.9086 0.38786 0.0
O60 O 0.73622 0.88897 0.31262 0.0
Co61 Co 0.76035 0.87601 0.34468 0.0
O62 O 0.73475 0.86602 0.35221 0.0
C63 C 0.76766 0.88524 0.23909 0.0
C64 C 0.7726 0.9359 0.27002 0.0
C65 C 0.7274 0.87368 0.33205 0.0
O66 O 0.76496 0.89818 0.24513 0.0
O67 O 0.7676 0.87577 0.27483 0.0
O68 O 0.7594 0.91786 0.37006 0.0
O69 O 0.7705 0.90094 0.35575 0.0
Co70 Co 0.09053 0.84813 0.31329 0.0
O71 O 0.06976 0.84984 0.31511 0.0
O72 O 0.07074 0.82669 0.2883 0.0
C73 C 0.09948 0.85867 0.38915 0.0
O74 O 0.10972 0.84163 0.30846 0.0
Co75 Co 0.12731 0.88175 0.32376 0.0
O76 O 0.13529 0.86461 0.33287 0.0
C77 C 0.10769 0.8741 0.23054 0.0
C78 C 0.06144 0.83404 0.29799 0.0
C79 C 0.12603 0.84863 0.32026 0.0
O80 O 0.09619 0.8588 0.24578 0.0
O81 O 0.12 0.88547 0.25752 0.0
O82 O 0.08785 0.84228 0.38314 0.0
O83 O 0.10406 0.86817 0.35019 0.0
Co84 Co 0.76322 0.85328 0.80504 0.0
O85 O 0.78397 0.85143 0.79515 0.0
O86 O 0.7578 0.83319 0.76485 0.0
C87 C 0.76641 0.85758 0.88745 0.0
O88 O 0.73868 0.84985 0.80809 0.0
Co89 Co 0.76375 0.88633 0.84347 0.0
O90 O 0.73794 0.87166 0.84805 0.0
C91 C 0.77171 0.88437 0.73845 0.0
C92 C 0.77399 0.8372 0.77074 0.0
C93 C 0.73026 0.8569 0.8265 0.0
O94 O 0.76854 0.86858 0.74467 0.0
O95 O 0.77161 0.89385 0.77392 0.0
O96 O 0.75969 0.84205 0.86865 0.0
O97 O 0.77234 0.87031 0.85611 0.0
Co98 Co 0.15295 0.91073 0.81926 0.0
O99 O 0.158 0.93392 0.80401 0.0
O100 O 0.17695 0.92456 0.79616 0.0
C101 C 0.13999 0.90883 0.89162 0.0
O102 O 0.15202 0.88747 0.83281 0.0
Co103 Co 0.11385 0.88122 0.82994 0.0
O104 O 0.1246 0.86791 0.85638 0.0
C105 C 0.12921 0.89325 0.73169 0.0
C106 C 0.17358 0.93728 0.79191 0.0
C107 C 0.14057 0.87231 0.84943 0.0
O108 O 0.14439 0.90311 0.75056 0.0
O109 O 0.11527 0.88445 0.75705 0.0
O110 O 0.15695 0.91659 0.88876 0.0
O111 O 0.13173 0.90417 0.85043 0.0
Co112 Co 0.09232 0.23695 0.81595 0.0
O113 O 0.07093 0.21648 0.79717 0.0
O114 O 0.07594 0.24357 0.78914 0.0
C115 C 0.09476 0.227 0.88962 0.0
O116 O 0.1131 0.26116 0.83245 0.0
Co117 Co 0.12552 0.23362 0.83065 0.0
O118 O 0.13516 0.25731 0.85882 0.0
C119 C 0.11367 0.2348 0.7306 0.0
C120 C 0.06537 0.22687 0.78314 0.0
C121 C 0.12843 0.26696 0.85151 0.0
O122 O 0.10201 0.23786 0.74858 0.0
O123 O 0.12381 0.2317 0.75708 0.0
O124 O 0.08478 0.23379 0.88411 0.0
O125 O 0.10142 0.22476 0.84997 0.0
Co126 Co 0.85584 0.76657 0.66412 0.0
O127 O 0.85262 0.78583 0.68242 0.0
O128 O 0.83257 0.75795 0.69105 0.0
C129 C 0.86726 0.77712 0.58913 0.0
O130 O 0.85457 0.74325 0.64808 0.0
Co131 Co 0.89338 0.77306 0.64305 0.0
O132 O 0.88055 0.74886 0.6173 0.0
C133 C 0.88057 0.76886 0.74558 0.0
C134 C 0.83685 0.77431 0.69525 0.0
C135 C 0.86462 0.73824 0.62809 0.0
O136 O 0.86563 0.76647 0.73122 0.0
O137 O 0.89332 0.77233 0.71659 0.0
O138 O 0.85045 0.76879 0.59577 0.0
O139 O 0.87652 0.7802 0.62844 0.0
Co140 Co 0.23986 0.0874 0.67236 0.0
O141 O 0.22179 0.06389 0.68414 0.0
O142 O 0.25007 0.07334 0.69311 0.0
C143 C 0.22948 0.09069 0.60016 0.0
O144 O 0.262 0.11098 0.66201 0.0
Co145 Co 0.22918 0.11621 0.66897 0.0
O146 O 0.25372 0.13087 0.64642 0.0
C147 C 0.23227 0.10232 0.764 0.0
C148 C 0.23401 0.06041 0.69524 0.0
C149 C 0.26547 0.12654 0.65017 0.0
O150 O 0.2387 0.09385 0.74244 0.0
O151 O 0.22602 0.11063 0.74101 0.0
O152 O 0.23862 0.08287 0.60204 0.0
O153 O 0.22529 0.09434 0.64209 0.0
Co154 Co 0.91175 0.15272 0.68269 0.0
O155 O 0.93279 0.15157 0.67689 0.0
O156 O 0.9317 0.1741 0.70808 0.0
C157 C 0.90221 0.14288 0.60615 0.0
O158 O 0.89216 0.15855 0.69182 0.0
Co159 Co 0.87547 0.11865 0.67353 0.0
O160 O 0.86653 0.13522 0.66926 0.0
C161 C 0.89736 0.12507 0.76149 0.0
C162 C 0.94112 0.16715 0.69544 0.0
C163 C 0.87563 0.1512 0.68209 0.0
O164 O 0.90709 0.14123 0.74933 0.0
O165 O 0.88536 0.11368 0.73373 0.0
O166 O 0.91355 0.15929 0.61329 0.0
O167 O 0.89817 0.133 0.64431 0.0
Co168 Co 0.90802 0.48692 0.51595 0.0
O169 O 0.88529 0.48468 0.51196 0.0
O170 O 0.90801 0.50681 0.54786 0.0
C171 C 0.90989 0.48065 0.43693 0.0
O172 O 0.93365 0.49325 0.52514 0.0
Co173 Co 0.91067 0.45357 0.49839 0.0
O174 O 0.93601 0.47077 0.49478 0.0
C175 C 0.89891 0.45873 0.59467 0.0
C176 C 0.89153 0.49927 0.53577 0.0
C177 C 0.94286 0.48623 0.51205 0.0
O178 O 0.9014 0.47364 0.57987 0.0
O179 O 0.90095 0.44818 0.56691 0.0
O180 O 0.91366 0.49631 0.44983 0.0
O181 O 0.90304 0.46885 0.47081 0.0
Co182 Co 0.52165 0.42552 0.50437 0.0
O183 O 0.5177 0.40277 0.52252 0.0
O184 O 0.49774 0.41092 0.52634 0.0
C185 C 0.53515 0.42729 0.43322 0.0
O186 O 0.52081 0.44766 0.48716 0.0
Co187 Co 0.55945 0.45687 0.4949 0.0
O188 O 0.54774 0.4687 0.46474 0.0
C189 C 0.54398 0.44519 0.59305 0.0
C190 C 0.50173 0.39871 0.53242 0.0
C191 C 0.5314 0.46294 0.46956 0.0
O192 O 0.52939 0.43412 0.5731 0.0
O193 O 0.5579 0.4549 0.56847 0.0
O194 O 0.5182 0.41873 0.4358 0.0
O195 O 0.54347 0.43309 0.4742 0.0
Co196 Co 0.57935 0.09564 0.51207 0.0
O197 O 0.60154 0.11645 0.52556 0.0
O198 O 0.5939 0.08985 0.55161 0.0
C199 C 0.57914 0.10047 0.43035 0.0
O200 O 0.55876 0.07094 0.50435 0.0
Co201 Co 0.54677 0.09596 0.47323 0.0
O202 O 0.53625 0.07036 0.46446 0.0
C203 C 0.55574 0.10261 0.57905 0.0
C204 C 0.60587 0.10621 0.54827 0.0
C205 C 0.54356 0.06258 0.48419 0.0
O206 O 0.56842 0.0995 0.57292 0.0
O207 O 0.5465 0.10299 0.54329 0.0
O208 O 0.58804 0.0937 0.44829 0.0
O209 O 0.57165 0.10544 0.46233 0.0
Co210 Co 0.81365 0.57495 0.64341 0.0
O211 O 0.81035 0.55183 0.63675 0.0
O212 O 0.83217 0.57538 0.60306 0.0
C213 C 0.80973 0.57322 0.72632 0.0
O214 O 0.82152 0.60109 0.6436 0.0
Co215 Co 0.78373 0.58032 0.68172 0.0
O216 O 0.80169 0.6054 0.68349 0.0
C217 C 0.78347 0.57017 0.57766 0.0
C218 C 0.82463 0.55863 0.61115 0.0
C219 C 0.81628 0.61125 0.66141 0.0
O220 O 0.79851 0.5713 0.58339 0.0
O221 O 0.77507 0.57207 0.61323 0.0
O222 O 0.82474 0.57739 0.70701 0.0
O223 O 0.79714 0.56896 0.69523 0.0
Co224 Co 0.42504 0.24623 0.6443 0.0
O225 O 0.44579 0.26879 0.63535 0.0
O226 O 0.41887 0.26252 0.61647 0.0
C227 C 0.43128 0.24174 0.72092 0.0
O228 O 0.40039 0.22536 0.64914 0.0
Co229 Co 0.42556 0.21195 0.66074 0.0
O230 O 0.40008 0.2009 0.67287 0.0
C231 C 0.43145 0.2271 0.56131 0.0
C232 C 0.43542 0.27407 0.61867 0.0
C233 C 0.39216 0.20914 0.66166 0.0
O234 O 0.42808 0.23882 0.57706 0.0
O235 O 0.43211 0.21579 0.58928 0.0
O236 O 0.42432 0.25146 0.71305 0.0
O237 O 0.43549 0.23605 0.68252 0.0
Co238 Co 0.7581 0.18886 0.65608 0.0
O239 O 0.73494 0.18463 0.64268 0.0
O240 O 0.74419 0.16617 0.6248 0.0
C241 C 0.75931 0.19797 0.73404 0.0
O242 O 0.78128 0.18907 0.66667 0.0
Co243 Co 0.78728 0.227 0.681 0.0
O244 O 0.80047 0.21516 0.69962 0.0
C245 C 0.77538 0.21725 0.57858 0.0
C246 C 0.73145 0.16961 0.62509 0.0
C247 C 0.79622 0.19966 0.68658 0.0
O248 O 0.76647 0.20095 0.59039 0.0
O249 O 0.78304 0.22953 0.61013 0.0
O250 O 0.75164 0.18137 0.72429 0.0
O251 O 0.76426 0.20815 0.69637 0.0
Co252 Co 0.43314 0.18864 0.13931 0.0
O253 O 0.4545 0.18772 0.13139 0.0
O254 O 0.42793 0.16649 0.11172 0.0
C255 C 0.43848 0.19934 0.21636 0.0
O256 O 0.40808 0.18388 0.14386 0.0
Co257 Co 0.43211 0.22283 0.1582 0.0
O258 O 0.40669 0.20727 0.16996 0.0
C259 C 0.44167 0.21561 0.06034 0.0
C260 C 0.44455 0.1719 0.11517 0.0
C261 C 0.39933 0.19119 0.15805 0.0
O262 O 0.43632 0.19958 0.0721 0.0
O263 O 0.44266 0.22706 0.09099 0.0
O264 O 0.43227 0.18273 0.20888 0.0
O265 O 0.44248 0.20892 0.17751 0.0
Co266 Co 0.82104 0.2422 0.1572 0.0
O267 O 0.81796 0.26216 0.15612 0.0
O268 O 0.84101 0.26203 0.12527 0.0
C269 C 0.81341 0.23599 0.23676 0.0
O270 O 0.82856 0.22365 0.15328 0.0
Co271 Co 0.78918 0.20583 0.17615 0.0
O272 O 0.8067 0.19827 0.18252 0.0
C273 C 0.79353 0.22191 0.07906 0.0
C274 C 0.83287 0.27065 0.13392 0.0
C275 C 0.82225 0.20754 0.16649 0.0
O276 O 0.80852 0.23443 0.09267 0.0
O277 O 0.78319 0.20951 0.10762 0.0
O278 O 0.82931 0.24738 0.22429 0.0
O279 O 0.80229 0.22953 0.20109 0.0
Co280 Co 0.75588 0.57433 0.14418 0.0
O281 O 0.73368 0.55351 0.13013 0.0
O282 O 0.74155 0.58013 0.10382 0.0
C283 C 0.75598 0.56986 0.22618 0.0
O284 O 0.77646 0.59901 0.15237 0.0
Co285 Co 0.78826 0.57373 0.18354 0.0
O286 O 0.79897 0.59938 0.19177 0.0
C287 C 0.77969 0.5674 0.07765 0.0
C288 C 0.72952 0.56377 0.10685 0.0
C289 C 0.79168 0.60725 0.1725 0.0
O290 O 0.76702 0.5705 0.08378 0.0
O291 O 0.78884 0.56688 0.11346 0.0
O292 O 0.74702 0.57642 0.20737 0.0
O293 O 0.76343 0.56462 0.19473 0.0
Co294 Co 0.52389 0.09794 0.01339 0.0
O295 O 0.5233 0.11939 0.02406 0.0
O296 O 0.50427 0.09343 0.05397 0.0
C297 C 0.52818 0.10107 0.931 0.0
O298 O 0.51877 0.07284 0.00992 0.0
Co299 Co 0.55547 0.09586 0.97476 0.0
O300 O 0.53973 0.07015 0.97156 0.0
C301 C 0.55461 0.10473 0.07939 0.0
C302 C 0.50898 0.1098 0.04865 0.0
C303 C 0.52485 0.06344 0.9924 0.0
O304 O 0.53909 0.10238 0.07347 0.0
O305 O 0.56366 0.1039 0.0438 0.0
O306 O 0.51275 0.09515 0.94999 0.0
O307 O 0.54092 0.10624 0.96218 0.0
Co308 Co 0.90737 0.42335 0.01479 0.0
O309 O 0.8847 0.4046 0.03289 0.0
O310 O 0.90921 0.40386 0.04193 0.0
C311 C 0.89916 0.42796 0.94002 0.0
O312 O 0.93313 0.44024 -0.00121 0.0
Co313 Co 0.91284 0.46052 0.99322 0.0
O314 O 0.93621 0.4656 0.97047 0.0
C315 C 0.91252 0.4492 0.09607 0.0
C316 C 0.89225 0.39589 0.04625 0.0
C317 C 0.94248 0.45572 0.98054 0.0
O318 O 0.9106 0.4344 0.08205 0.0
O319 O 0.91276 0.46063 0.06667 0.0
O320 O 0.90304 0.41571 0.94609 0.0
O321 O 0.89897 0.4359 0.9795 0.0
Co322 Co 0.5746 0.48439 0.01981 0.0
O323 O 0.59789 0.48756 0.0169 0.0
O324 O 0.59124 0.50653 0.04912 0.0
C325 C 0.56725 0.47547 0.94161 0.0
O326 O 0.55233 0.48591 0.0285 0.0
Co327 Co 0.54139 0.44799 0.0032 0.0
O328 O 0.52885 0.4614 0.00067 0.0
C329 C 0.56182 0.4555 0.09504 0.0
C330 C 0.60317 0.50253 0.03819 0.0
C331 C 0.53593 0.47694 0.01735 0.0
O332 O 0.57047 0.4719 0.08459 0.0
O333 O 0.55103 0.44384 0.06532 0.0
O334 O 0.57649 0.49206 0.95146 0.0
O335 O 0.56407 0.46505 0.97817 0.0
Co336 Co 0.57573 0.82132 0.85167 0.0
O337 O 0.55667 0.82515 0.86641 0.0
O338 O 0.58466 0.84497 0.87574 0.0
C339 C 0.56553 0.80858 0.7785 0.0
O340 O 0.59893 0.82205 0.83843 0.0
Co341 Co 0.56908 0.78334 0.83828 0.0
O342 O 0.59273 0.79575 0.80896 0.0
C343 C 0.57028 0.79718 0.93765 0.0
C344 C 0.56833 0.84091 0.87897 0.0
C345 C 0.60353 0.81177 0.81807 0.0
O346 O 0.57468 0.81236 0.9202 0.0
O347 O 0.56665 0.78382 0.91114 0.0
O348 O 0.57396 0.82552 0.78215 0.0
O349 O 0.56221 0.8001 0.81929 0.0
Co350 Co 0.17864 0.75125 0.84961 0.0
O351 O 0.17677 0.72862 0.85652 0.0
O352 O 0.15565 0.73447 0.87321 0.0
C353 C 0.19122 0.75738 0.77513 0.0
O354 O 0.17507 0.77232 0.8463 0.0
Co355 Co 0.21405 0.78608 0.83737 0.0
O356 O 0.1995 0.79696 0.82461 0.0
C357 C 0.20303 0.76904 0.93482 0.0
C358 C 0.16079 0.72303 0.87093 0.0
C359 C 0.18326 0.78867 0.83496 0.0
O360 O 0.18792 0.75757 0.91838 0.0
O361 O 0.21532 0.78044 0.90782 0.0
O362 O 0.17435 0.74743 0.77916 0.0
O363 O 0.19987 0.76216 0.81566 0.0
Co364 Co 0.24048 0.42973 0.84321 0.0
O365 O 0.26062 0.45267 0.84757 0.0
O366 O 0.25849 0.42938 0.88433 0.0
C367 C 0.23783 0.43024 0.76021 0.0
O368 O 0.22171 0.40383 0.84558 0.0
Co369 Co 0.20544 0.42521 0.80582 0.0
O370 O 0.19778 0.39998 0.80528 0.0
C371 C 0.21631 0.43662 0.90833 0.0
C372 C 0.26788 0.44602 0.87473 0.0
C373 C 0.20623 0.39392 0.82798 0.0
O374 O 0.22968 0.4346 0.90246 0.0
O375 O 0.20585 0.43474 0.8732 0.0
O376 O 0.24857 0.42607 0.78029 0.0
O377 O 0.23002 0.43538 0.79051 0.0
Co378 Co 0.4842 0.9083 0.99049 0.0
O379 O 0.48868 0.88953 0.97812 0.0
O380 O 0.50828 0.91761 0.96988 0.0
C381 C 0.4703 0.89819 0.06261 0.0
O382 O 0.48424 0.93116 0.00127 0.0
Co383 Co 0.44558 0.90034 0.99518 0.0
O384 O 0.45674 0.92496 0.01817 0.0
C385 C 0.46165 0.90171 0.89963 0.0
C386 C 0.50458 0.90139 0.96734 0.0
C387 C 0.47307 0.9358 0.01381 0.0
O388 O 0.47663 0.9076 0.92047 0.0
O389 O 0.44733 0.89634 0.92331 0.0
O390 O 0.48729 0.90665 0.06082 0.0
O391 O 0.46246 0.89453 0.02067 0.0
Co392 Co 0.09651 0.57101 0.97643 0.0
O393 O 0.11443 0.59519 0.97526 0.0
O394 O 0.08765 0.58484 0.94572 0.0
C395 C 0.10028 0.56568 0.05461 0.0
O396 O 0.07455 0.5468 0.97291 0.0
Co397 Co 0.10725 0.54267 0.99331 0.0
O398 O 0.0816 0.52661 0.99639 0.0
C399 C 0.11533 0.56168 0.89997 0.0
C400 C 0.10313 0.59823 0.95363 0.0
C401 C 0.07035 0.53092 0.98359 0.0
O402 O 0.10495 0.56741 0.9113 0.0
O403 O 0.11952 0.55322 0.92993 0.0
O404 O 0.09105 0.57306 0.04474 0.0
O405 O 0.10832 0.56367 0.01795 0.0
Co406 Co 0.42105 0.52074 0.99367 0.0
O407 O 0.40198 0.52415 0.97633 0.0
O408 O 0.40122 0.49892 0.96872 0.0
C409 C 0.42594 0.53417 0.06695 0.0
O410 O 0.439 0.51306 0.0102 0.0
Co411 Co 0.45752 0.55411 0.00577 0.0
O412 O 0.46289 0.5373 0.03809 0.0
C413 C 0.44411 0.54131 0.90649 0.0
C414 C 0.39316 0.50784 0.9641 0.0
C415 C 0.45421 0.52084 0.03107 0.0
O416 O 0.43093 0.5278 0.92545 0.0
O417 O 0.4557 0.55393 0.93222 0.0
O418 O 0.41394 0.5179 0.06215 0.0
O419 O 0.43338 0.54225 0.02679 0.0
Co420 Co 0.09608 0.5171 0.4929 0.0
O421 O 0.11475 0.51272 0.47769 0.0
O422 O 0.0867 0.49283 0.47268 0.0
C423 C 0.10781 0.53104 0.56331 0.0
O424 O 0.07326 0.51726 0.50743 0.0
Co425 Co 0.10393 0.55558 0.49995 0.0
O426 O 0.08035 0.5446 0.52957 0.0
C427 C 0.10084 0.5394 0.40298 0.0
C428 C 0.10296 0.49672 0.46821 0.0
C429 C 0.06918 0.52844 0.52438 0.0
O430 O 0.09614 0.52457 0.42331 0.0
O431 O 0.10541 0.5535 0.42702 0.0
O432 O 0.09883 0.51409 0.56234 0.0
O433 O 0.11064 0.53894 0.52168 0.0
Co434 Co 0.4852 0.57737 0.4821 0.0
O435 O 0.48593 0.59933 0.49047 0.0
O436 O 0.50685 0.59621 0.45536 0.0
C437 C 0.47594 0.5677 0.5591 0.0
O438 O 0.48942 0.55701 0.4695 0.0
Co439 Co 0.4503 0.54201 0.4925 0.0
O440 O 0.46579 0.53171 0.49218 0.0
C441 C 0.45702 0.56384 0.40406 0.0
C442 C 0.50127 0.60657 0.47018 0.0
C443 C 0.48161 0.5404 0.47758 0.0
O444 O 0.47316 0.57363 0.41647 0.0
O445 O 0.44559 0.55184 0.43173 0.0
O446 O 0.49245 0.57835 0.55065 0.0
O447 O 0.46567 0.56443 0.52207 0.0
Co448 Co 0.42219 0.90937 0.48373 0.0
O449 O 0.39824 0.89118 0.48145 0.0
O450 O 0.40805 0.91794 0.4525 0.0
C451 C 0.4271 0.90556 0.56252 0.0
O452 O 0.44633 0.93151 0.4816 0.0
Co453 Co 0.45031 0.89843 0.50191 0.0
O454 O 0.46587 0.92399 0.50808 0.0
C455 C 0.43502 0.89416 0.40354 0.0
C456 C 0.39491 0.90223 0.45966 0.0
C457 C 0.46195 0.93545 0.49462 0.0
O458 O 0.42644 0.90157 0.4181 0.0
O459 O 0.44443 0.89071 0.43202 0.0
O460 O 0.4198 0.91477 0.5518 0.0
O461 O 0.42929 0.89745 0.52629 0.0
Co462 Co 0.18399 0.42808 0.33903 0.0
O463 O 0.18061 0.44713 0.35828 0.0
O464 O 0.16283 0.41948 0.37817 0.0
C465 C 0.1894 0.43567 0.25867 0.0
O466 O 0.18298 0.40491 0.32361 0.0
Co467 Co 0.22024 0.43587 0.30033 0.0
O468 O 0.2069 0.41115 0.27921 0.0
C469 C 0.21479 0.43627 0.40749 0.0
C470 C 0.16625 0.43563 0.37936 0.0
C471 C 0.19203 0.40021 0.29708 0.0
O472 O 0.19853 0.43131 0.40017 0.0
O473 O 0.22571 0.43984 0.37233 0.0
O474 O 0.17352 0.42715 0.27528 0.0
O475 O 0.20153 0.44096 0.29172 0.0
Co476 Co 0.57187 0.75673 0.35457 0.0
O477 O 0.55289 0.73345 0.36601 0.0
O478 O 0.58068 0.74258 0.38382 0.0
C479 C 0.56418 0.75981 0.27828 0.0
O480 O 0.59496 0.77985 0.34614 0.0
Co481 Co 0.56365 0.78691 0.33735 0.0
O482 O 0.58845 0.79974 0.31656 0.0
C483 C 0.56229 0.77373 0.43723 0.0
C484 C 0.56445 0.73001 0.38385 0.0
C485 C 0.59951 0.79503 0.32779 0.0
O486 O 0.56822 0.76392 0.4217 0.0
O487 O 0.55858 0.78303 0.40914 0.0
O488 O 0.57274 0.75152 0.28521 0.0
O489 O 0.55898 0.764 0.31745 0.0
Co490 Co 0.24403 0.81316 0.34824 0.0
O491 O 0.26781 0.81907 0.35923 0.0
O492 O 0.25748 0.83693 0.37306 0.0
C493 C 0.24131 0.80132 0.2737 0.0
O494 O 0.2202 0.81151 0.33911 0.0
Co495 Co 0.21509 0.77397 0.33532 0.0
O496 O 0.20095 0.78436 0.31289 0.0
C497 C 0.22826 0.78801 0.43416 0.0
C498 C 0.27078 0.83436 0.37313 0.0
C499 C 0.20505 0.8001 0.32216 0.0
O500 O 0.23761 0.80355 0.41677 0.0
O501 O 0.21937 0.77445 0.40752 0.0
O502 O 0.24873 0.81818 0.27854 0.0
O503 O 0.23762 0.79252 0.31399 0.0
H504 H 0.21068 0.10585 0.82969 0.0
H505 H 0.25917 0.10474 0.81829 0.0
H506 H 0.26577 0.11372 0.90495 0.0
H507 H 0.22553 0.14242 0.90289 0.0
H508 H 0.20639 0.13435 0.94123 0.0
H509 H 0.20443 0.1262 0.87968 0.0
H510 H 0.19012 0.09443 0.91237 0.0
H511 H 0.19174 0.10245 0.97408 0.0
H512 H 0.20116 0.08904 0.95899 0.0
H513 H 0.26947 0.12754 0.98701 0.0
H514 H 0.26749 0.1403 0.0658 0.0
H515 H 0.21527 0.12938 0.02834 0.0
C516 C 0.22247 0.1071 0.84591 0.0
C517 C 0.23443 0.10463 0.81752 0.0
C518 C 0.24975 0.10641 0.83967 0.0
C519 C 0.25367 0.1116 0.88873 0.0
C520 C 0.24188 0.11448 0.91534 0.0
C521 C 0.22634 0.11181 0.89528 0.0
C522 C 0.21606 0.11601 0.93193 0.0
C523 C 0.21293 0.13062 0.91277 0.0
C524 C 0.19874 0.0995 0.94513 0.0
C525 C 0.22862 0.12219 0.97488 0.0
C526 C 0.24349 0.1213 0.96435 0.0
C527 C 0.25767 0.12778 0.9964 0.0
C528 C 0.25647 0.13501 0.0409 0.0
C529 C 0.24108 0.13534 0.05309 0.0
C530 C 0.22701 0.1289 0.01983 0.0
H531 H 0.90426 0.14297 0.84836 0.0
H532 H 0.89346 0.09351 0.78511 0.0
H533 H 0.89125 0.0814 0.86796 0.0
H534 H 0.92799 0.14068 0.96285 0.0
H535 H 0.91792 0.15007 0.00016 0.0
H536 H 0.92282 0.15629 0.93657 0.0
H537 H 0.89042 0.14742 0.9217 0.0
H538 H 0.88543 0.1411 0.98492 0.0
H539 H 0.87342 0.12558 0.93705 0.0
H540 H 0.88437 0.07279 0.95439 0.0
H541 H 0.87383 0.06852 0.04014 0.0
H542 H 0.88907 0.12325 0.04938 0.0
C543 C 0.90217 0.12985 0.85217 0.0
C544 C 0.89921 0.11919 0.81058 0.0
C545 C 0.89584 0.10187 0.81667 0.0
C546 C 0.89466 0.09492 0.86355 0.0
C547 C 0.8969 0.10546 0.904 0.0
C548 C 0.90072 0.12262 0.89895 0.0
C549 C 0.90008 0.1303 0.94817 0.0
C550 C 0.91829 0.14522 0.9628 0.0
C551 C 0.88653 0.13645 0.94791 0.0
C552 C 0.89437 0.1145 0.98102 0.0
C553 C 0.89297 0.10043 0.95489 0.0
C554 C 0.88595 0.08383 0.97568 0.0
C555 C 0.87997 0.0815 0.0242 0.0
C556 C 0.88117 0.09568 0.0512 0.0
C557 C 0.88871 0.11242 0.02981 0.0
H558 H 0.89511 0.78069 0.03663 0.0
H559 H 0.90694 0.73855 0.02861 0.0
H560 H 0.89898 0.73443 0.9413 0.0
H561 H 0.85797 0.76157 0.94951 0.0
H562 H 0.86376 0.78237 0.92219 0.0
H563 H 0.86897 0.78127 0.98562 0.0
H564 H 0.90156 0.80356 0.96842 0.0
H565 H 0.89647 0.80472 0.90502 0.0
H566 H 0.91288 0.79906 0.9206 0.0
H567 H 0.89242 0.73615 0.85505 0.0
H568 H 0.88709 0.74356 0.77203 0.0
H569 H 0.87864 0.78417 0.83249 0.0
C570 C 0.89578 0.77046 0.01651 0.0
C571 C 0.90166 0.75994 0.03939 0.0
C572 C 0.90255 0.74681 0.01186 0.0
C573 C 0.89797 0.7443 0.96225 0.0
C574 C 0.89249 0.755 0.94055 0.0
C575 C 0.8913 0.7678 0.96651 0.0
C576 C 0.88589 0.77805 0.93299 0.0
C577 C 0.86809 0.77567 0.94851 0.0
C578 C 0.90005 0.7975 0.93169 0.0
C579 C 0.88461 0.7692 0.88411 0.0
C580 C 0.88841 0.75588 0.88976 0.0
C581 C 0.8892 0.74638 0.85012 0.0
C582 C 0.88623 0.75071 0.80321 0.0
C583 C 0.88239 0.76431 0.79627 0.0
C584 C 0.8813 0.77354 0.8372 0.0
H585 H 0.16099 0.2441 0.47238 0.0
H586 H 0.11178 0.23219 0.40409 0.0
H587 H 0.09897 0.23054 0.48534 0.0
H588 H 0.14161 0.21442 0.57314 0.0
H589 H 0.1577 0.2284 0.61752 0.0
H590 H 0.1636 0.22975 0.55373 0.0
H591 H 0.17407 0.2629 0.55362 0.0
H592 H 0.16826 0.26166 0.61748 0.0
H593 H 0.15929 0.27023 0.57326 0.0
H594 H 0.09128 0.23007 0.57289 0.0
H595 H 0.08878 0.22965 0.663 0.0
H596 H 0.1423 0.24032 0.67625 0.0
C597 C 0.14759 0.24132 0.47465 0.0
C598 C 0.13743 0.23843 0.4319 0.0
C599 C 0.11985 0.23454 0.43627 0.0
C600 C 0.11243 0.23358 0.48229 0.0
C601 C 0.1227 0.23635 0.52371 0.0
C602 C 0.13985 0.24004 0.52055 0.0
C603 C 0.14767 0.24172 0.5712 0.0
C604 C 0.15295 0.22774 0.57936 0.0
C605 C 0.16325 0.26023 0.57936 0.0
C606 C 0.13221 0.23836 0.60307 0.0
C607 C 0.11801 0.23545 0.57479 0.0
C608 C 0.10229 0.23229 0.59555 0.0
C609 C 0.10101 0.23212 0.64675 0.0
C610 C 0.11532 0.2349 0.67663 0.0
C611 C 0.13109 0.23799 0.65436 0.0
H612 H 0.76588 0.88224 0.44304 0.0
H613 H 0.77188 0.934 0.45349 0.0
H614 H 0.77647 0.9341 0.54273 0.0
H615 H 0.74105 0.86622 0.55411 0.0
H616 H 0.75045 0.85301 0.57177 0.0
H617 H 0.74915 0.85745 0.50788 0.0
H618 H 0.78255 0.87006 0.4991 0.0
H619 H 0.78396 0.86572 0.56311 0.0
H620 H 0.79731 0.8875 0.53908 0.0
H621 H 0.78 0.9288 0.63002 0.0
H622 H 0.77933 0.91733 0.71251 0.0
H623 H 0.76934 0.868 0.64908 0.0
C624 C 0.76838 0.89364 0.4642 0.0
C625 C 0.7687 0.90821 0.44131 0.0
C626 C 0.7716 0.92273 0.47024 0.0
C627 C 0.77432 0.92295 0.52094 0.0
C628 C 0.77388 0.90844 0.54252 0.0
C629 C 0.77077 0.89394 0.51539 0.0
C630 C 0.76966 0.8796 0.54878 0.0
C631 C 0.7515 0.86309 0.54543 0.0
C632 C 0.78424 0.87548 0.53679 0.0
C633 C 0.77255 0.88832 0.59875 0.0
C634 C 0.77521 0.90505 0.5939 0.0
C635 C 0.77792 0.91571 0.63436 0.0
C636 C 0.77753 0.90903 0.68124 0.0
C637 C 0.77424 0.89169 0.68778 0.0
C638 C 0.772 0.88133 0.64562 0.0
H639 H 0.10376 0.86607 0.67965 0.0
H640 H 0.15183 0.9158 0.66288 0.0
H641 H 0.14984 0.91187 0.57284 0.0
H642 H 0.11269 0.84369 0.5838 0.0
H643 H 0.0902 0.83128 0.56423 0.0
H644 H 0.09528 0.83812 0.62726 0.0
H645 H 0.07684 0.8535 0.62172 0.0
H646 H 0.07162 0.84662 0.5588 0.0
H647 H 0.08156 0.86948 0.5742 0.0
H648 H 0.14205 0.903 0.48542 0.0
H649 H 0.12941 0.88952 0.40561 0.0
H650 H 0.08721 0.84485 0.47996 0.0
C651 C 0.11381 0.87621 0.65706 0.0
C652 C 0.12788 0.8913 0.67804 0.0
C653 C 0.14093 0.90414 0.64738 0.0
C654 C 0.13992 0.90202 0.59634 0.0
C655 C 0.1259 0.88692 0.57691 0.0
C656 C 0.11313 0.8742 0.60628 0.0
C657 C 0.09955 0.85909 0.57628 0.0
C658 C 0.09943 0.84204 0.58864 0.0
C659 C 0.08132 0.85707 0.58316 0.0
C660 C 0.10655 0.86542 0.52528 0.0
C661 C 0.12174 0.88151 0.5265 0.0
C662 C 0.13027 0.89034 0.48394 0.0
C663 C 0.12297 0.88257 0.43884 0.0
C664 C 0.10743 0.8661 0.43683 0.0
C665 C 0.09924 0.85735 0.48058 0.0
H666 H 0.76783 0.90059 0.14936 0.0
H667 H 0.77217 0.85784 0.21373 0.0
H668 H 0.77322 0.8472 0.13148 0.0
H669 H 0.74034 0.87649 0.04955 0.0
H670 H 0.75061 0.89383 0.00503 0.0
H671 H 0.75103 0.899 0.06915 0.0
H672 H 0.78483 0.91751 0.06659 0.0
H673 H 0.78452 0.91248 0.00235 0.0
H674 H 0.79727 0.90774 0.04477 0.0
H675 H 0.77126 0.83939 0.04394 0.0
H676 H 0.76887 0.83623 0.95406 0.0
H677 H 0.76748 0.88455 0.94265 0.0
C678 C 0.76924 0.88913 0.14617 0.0
C679 C 0.76988 0.8801 0.18854 0.0
C680 C 0.77164 0.86509 0.18235 0.0
C681 C 0.77224 0.85887 0.13558 0.0
C682 C 0.77126 0.86784 0.09486 0.0
C683 C 0.77003 0.88276 0.09937 0.0
C684 C 0.769 0.88966 0.04897 0.0
C685 C 0.75171 0.88974 0.04283 0.0
C686 C 0.78485 0.90793 0.04016 0.0
C687 C 0.76957 0.8761 0.01576 0.0
C688 C 0.77078 0.86361 0.04335 0.0
C689 C 0.77056 0.84921 0.02184 0.0
C690 C 0.76912 0.84749 0.97073 0.0
C691 C 0.76815 0.8602 0.94134 0.0
C692 C 0.76849 0.87478 0.96419 0.0
H693 H 0.1348 0.89982 0.17971 0.0
H694 H 0.08089 0.85819 0.16341 0.0
H695 H 0.08232 0.86488 0.07466 0.0
H696 H 0.13423 0.93006 0.08779 0.0
H697 H 0.15609 0.93655 0.0675 0.0
H698 H 0.14989 0.93008 0.13038 0.0
H699 H 0.15935 0.90672 0.12195 0.0
H700 H 0.16551 0.91305 0.05917 0.0
H701 H 0.15 0.8906 0.07385 0.0
H702 H 0.09051 0.87492 0.98702 0.0
H703 H 0.10519 0.88595 0.90721 0.0
H704 H 0.15404 0.91976 0.98242 0.0
C705 C 0.1231 0.89234 0.15789 0.0
C706 C 0.10766 0.8786 0.17849 0.0
C707 C 0.09283 0.86884 0.1483 0.0
C708 C 0.0935 0.8726 0.09802 0.0
C709 C 0.10908 0.8861 0.07885 0.0
C710 C 0.12362 0.89575 0.10794 0.0
C711 C 0.13934 0.90834 0.07809 0.0
C712 C 0.14522 0.92739 0.09175 0.0
C713 C 0.15442 0.90443 0.08359 0.0
C714 C 0.13153 0.90397 0.0273 0.0
C715 C 0.11399 0.89138 0.02846 0.0
C716 C 0.1042 0.88486 0.9857 0.0
C717 C 0.11266 0.89118 0.9406 0.0
C718 C 0.13077 0.9036 0.93885 0.0
C719 C 0.14019 0.91025 0.98276 0.0
H720 H 0.12535 0.2385 0.94012 0.0
H721 H 0.06938 0.20335 0.94824 0.0
H722 H 0.0725 0.19556 0.03331 0.0
H723 H 0.13934 0.21379 0.0242 0.0
H724 H 0.15613 0.23367 0.05195 0.0
H725 H 0.1502 0.23363 0.98858 0.0
H726 H 0.14397 0.25882 0.00659 0.0
H727 H 0.14989 0.25896 0.06979 0.0
H728 H 0.12876 0.25615 0.05457 0.0
H729 H 0.08077 0.19441 0.11866 0.0
H730 H 0.09304 0.20178 0.20197 0.0
H731 H 0.14378 0.239 0.14166 0.0
C732 C 0.1139 0.22873 0.95943 0.0
C733 C 0.09717 0.22116 0.93781 0.0
C734 C 0.0823 0.20901 0.96441 0.0
C735 C 0.08398 0.20446 0.01247 0.0
C736 C 0.10061 0.21237 0.03342 0.0
C737 C 0.11533 0.22436 0.00798 0.0
C738 C 0.13119 0.23293 0.04144 0.0
C739 C 0.14503 0.22822 0.02559 0.0
C740 C 0.13889 0.25289 0.0432 0.0
C741 C 0.12292 0.2244 0.08999 0.0
C742 C 0.10537 0.21225 0.08406 0.0
C743 C 0.09453 0.20368 0.12376 0.0
C744 C 0.10162 0.20801 0.17096 0.0
C745 C 0.11936 0.22093 0.17823 0.0
C746 C 0.13027 0.22882 0.1371 0.0
H747 H 0.86732 0.77345 0.29653 0.0
H748 H 0.92304 0.79287 0.30607 0.0
H749 H 0.92224 0.79737 0.39512 0.0
H750 H 0.8648 0.80168 0.39456 0.0
H751 H 0.84422 0.78426 0.41711 0.0
H752 H 0.84964 0.78515 0.35299 0.0
H753 H 0.8446 0.75366 0.35848 0.0
H754 H 0.83932 0.75273 0.42258 0.0
H755 H 0.85655 0.74874 0.40333 0.0
H756 H 0.91506 0.79718 0.48352 0.0
H757 H 0.90189 0.79186 0.56607 0.0
H758 H 0.85048 0.77143 0.50047 0.0
C759 C 0.87941 0.77919 0.31722 0.0
C760 C 0.89533 0.78307 0.29444 0.0
C761 C 0.91079 0.78994 0.32286 0.0
C762 C 0.91045 0.79258 0.37341 0.0
C763 C 0.89449 0.78817 0.39511 0.0
C764 C 0.87923 0.78164 0.36802 0.0
C765 C 0.86357 0.77633 0.40116 0.0
C766 C 0.85505 0.78753 0.39084 0.0
C767 C 0.85023 0.7567 0.39608 0.0
C768 C 0.87236 0.78051 0.45103 0.0
C769 C 0.89024 0.78757 0.4466 0.0
C770 C 0.9011 0.79183 0.48749 0.0
C771 C 0.89349 0.78872 0.53423 0.0
C772 C 0.87518 0.78124 0.53968 0.0
C773 C 0.86454 0.77724 0.49744 0.0
H774 H 0.22988 0.07823 0.50936 0.0
H775 H 0.22081 0.11614 0.58527 0.0
H776 H 0.21729 0.12739 0.50544 0.0
H777 H 0.2549 0.10497 0.41354 0.0
H778 H 0.24583 0.08821 0.36708 0.0
H779 H 0.24618 0.08234 0.4301 0.0
H780 H 0.21263 0.06128 0.42757 0.0
H781 H 0.21218 0.06707 0.36437 0.0
H782 H 0.19844 0.06946 0.40896 0.0
H783 H 0.2185 0.13675 0.41696 0.0
H784 H 0.22214 0.14194 0.32725 0.0
H785 H 0.22835 0.09648 0.31055 0.0
C786 C 0.22691 0.08873 0.50918 0.0
C787 C 0.2257 0.0964 0.55327 0.0
C788 C 0.22176 0.11008 0.55176 0.0
C789 C 0.21973 0.11655 0.50664 0.0
C790 C 0.22132 0.10889 0.46366 0.0
C791 C 0.22454 0.09509 0.46466 0.0
C792 C 0.2262 0.08947 0.41353 0.0
C793 C 0.24435 0.09137 0.40563 0.0
C794 C 0.21148 0.07071 0.403 0.0
C795 C 0.224 0.10263 0.38352 0.0
C796 C 0.2212 0.11374 0.41295 0.0
C797 C 0.22031 0.12789 0.39347 0.0
C798 C 0.22244 0.13077 0.34261 0.0
C799 C 0.22525 0.11944 0.31202 0.0
C800 C 0.22577 0.10508 0.33286 0.0
H801 H 0.91602 0.15698 0.51644 0.0
H802 H 0.87284 0.1119 0.58629 0.0
H803 H 0.8624 0.09805 0.50529 0.0
H804 H 0.89264 0.15695 0.40532 0.0
H805 H 0.9113 0.16306 0.36626 0.0
H806 H 0.91446 0.17 0.42943 0.0
H807 H 0.93374 0.15583 0.44281 0.0
H808 H 0.93046 0.14865 0.37989 0.0
H809 H 0.92496 0.133 0.42877 0.0
H810 H 0.8572 0.08868 0.41721 0.0
H811 H 0.85755 0.08452 0.32766 0.0
H812 H 0.9049 0.13512 0.31578 0.0
C813 C 0.90418 0.14435 0.5145 0.0
C814 C 0.89514 0.13554 0.55743 0.0
C815 C 0.87992 0.11887 0.55372 0.0
C816 C 0.87389 0.1109 0.50792 0.0
C817 C 0.88332 0.11973 0.46632 0.0
C818 C 0.89813 0.13609 0.46911 0.0
C819 C 0.90633 0.14237 0.41905 0.0
C820 C 0.90616 0.15908 0.40414 0.0
C821 C 0.92498 0.14512 0.41757 0.0
C822 C 0.8939 0.12694 0.38781 0.0
C823 C 0.88064 0.11408 0.41571 0.0
C824 C 0.86751 0.09866 0.39492 0.0
C825 C 0.86783 0.0964 0.34407 0.0
C826 C 0.88131 0.10943 0.31475 0.0
C827 C 0.89454 0.12481 0.3372 0.0
H828 H 0.89506 0.43132 0.1802 0.0
H829 H 0.93913 0.47968 0.12761 0.0
H830 H 0.94513 0.49139 0.21169 0.0
H831 H 0.87974 0.45091 0.2618 0.0
H832 H 0.87301 0.43472 0.30968 0.0
H833 H 0.8736 0.42867 0.24695 0.0
H834 H 0.89418 0.4169 0.2714 0.0
H835 H 0.89356 0.42282 0.3344 0.0
H836 H 0.91427 0.43098 0.30354 0.0
H837 H 0.94425 0.49958 0.29676 0.0
H838 H 0.93688 0.50368 0.38101 0.0
H839 H 0.89356 0.4503 0.38245 0.0
C840 C 0.90624 0.44414 0.18694 0.0
C841 C 0.91672 0.45461 0.14772 0.0
C842 C 0.93097 0.47151 0.15734 0.0
C843 C 0.93454 0.47824 0.20494 0.0
C844 C 0.92372 0.46792 0.24272 0.0
C845 C 0.9099 0.4512 0.23463 0.0
C846 C 0.89941 0.44368 0.28146 0.0
C847 C 0.88031 0.43924 0.27454 0.0
C848 C 0.90042 0.42764 0.29872 0.0
C849 C 0.90917 0.459 0.31631 0.0
C850 C 0.92325 0.47274 0.29304 0.0
C851 C 0.93347 0.48884 0.31577 0.0
C852 C 0.92912 0.49108 0.36348 0.0
C853 C 0.91475 0.47728 0.38811 0.0
C854 C 0.90482 0.46093 0.36459 0.0
H855 H 0.57054 0.4744 0.18058 0.0
H856 H 0.5553 0.42308 0.12171 0.0
H857 H 0.5522 0.41154 0.20554 0.0
H858 H 0.59328 0.47059 0.29573 0.0
H859 H 0.58503 0.482 0.33188 0.0
H860 H 0.5901 0.48732 0.26786 0.0
H861 H 0.55865 0.48154 0.25302 0.0
H862 H 0.55345 0.47608 0.31662 0.0
H863 H 0.54027 0.46066 0.26983 0.0
H864 H 0.54441 0.40406 0.29201 0.0
H865 H 0.53383 0.40155 0.37724 0.0
H866 H 0.55493 0.45755 0.38266 0.0
C867 C 0.56725 0.46092 0.18545 0.0
C868 C 0.56321 0.44964 0.14473 0.0
C869 C 0.55844 0.43195 0.15243 0.0
C870 C 0.55676 0.42529 0.19992 0.0
C871 C 0.56004 0.43652 0.23939 0.0
C872 C 0.56542 0.45404 0.23282 0.0
C873 C 0.56585 0.46269 0.28128 0.0
C874 C 0.58469 0.47647 0.29499 0.0
C875 C 0.55383 0.4707 0.28008 0.0
C876 C 0.55883 0.44708 0.31541 0.0
C877 C 0.55587 0.43218 0.29056 0.0
C878 C 0.54724 0.4157 0.31239 0.0
C879 C 0.54123 0.41437 0.36058 0.0
C880 C 0.54405 0.42942 0.38635 0.0
C881 C 0.55327 0.44599 0.36404 0.0
H882 H 0.55346 0.10186 0.37499 0.0
H883 H 0.60396 0.10484 0.36468 0.0
H884 H 0.60396 0.10865 0.27515 0.0
H885 H 0.53592 0.07627 0.26627 0.0
H886 H 0.52368 0.08662 0.24744 0.0
H887 H 0.52819 0.08572 0.31151 0.0
H888 H 0.54261 0.11941 0.31723 0.0
H889 H 0.53819 0.1204 0.25306 0.0
H890 H 0.56023 0.133 0.27607 0.0
H891 H 0.59856 0.11141 0.18753 0.0
H892 H 0.58702 0.11048 0.10496 0.0
H893 H 0.53905 0.10424 0.16865 0.0
C894 C 0.56459 0.10357 0.3538 0.0
C895 C 0.57881 0.10322 0.37681 0.0
C896 C 0.59296 0.10509 0.34785 0.0
C897 C 0.59313 0.10735 0.29697 0.0
C898 C 0.57894 0.10753 0.27525 0.0
C899 C 0.56483 0.10552 0.30245 0.0
C900 C 0.55074 0.10493 0.26898 0.0
C901 C 0.53362 0.08734 0.27384 0.0
C902 C 0.54777 0.12036 0.27947 0.0
C903 C 0.55912 0.10677 0.21891 0.0
C904 C 0.57549 0.1085 0.22374 0.0
C905 C 0.58576 0.11009 0.18319 0.0
C906 C 0.57904 0.10955 0.13628 0.0
C907 C 0.56206 0.10726 0.12985 0.0
C908 C 0.5521 0.10611 0.17204 0.0
H909 H 0.78364 0.57375 0.78202 0.0
H910 H 0.82979 0.56834 0.7925 0.0
H911 H 0.82572 0.56436 0.88188 0.0
H912 H 0.79237 0.59899 0.89334 0.0
H913 H 0.76971 0.58926 0.91095 0.0
H914 H 0.77551 0.59068 0.84705 0.0
H915 H 0.75512 0.55723 0.83822 0.0
H916 H 0.74936 0.55571 0.90222 0.0
H917 H 0.75813 0.54266 0.87815 0.0
H918 H 0.81698 0.56085 0.96922 0.0
H919 H 0.80582 0.56091 0.05164 0.0
H920 H 0.7659 0.57009 0.98819 0.0
C921 C 0.79279 0.57163 0.80324 0.0
C922 C 0.807 0.57126 0.78021 0.0
C923 C 0.81886 0.56872 0.80925 0.0
C924 C 0.8166 0.56634 0.86009 0.0
C925 C 0.80252 0.56674 0.88173 0.0
C926 C 0.79092 0.56955 0.85455 0.0
C927 C 0.77753 0.57038 0.88794 0.0
C928 C 0.77887 0.5884 0.88462 0.0
C929 C 0.75893 0.55561 0.87591 0.0
C930 C 0.78348 0.56762 0.93792 0.0
C931 C 0.79779 0.56534 0.9331 0.0
C932 C 0.8058 0.56268 0.97355 0.0
C933 C 0.7993 0.56271 0.02039 0.0
C934 C 0.78496 0.56556 0.02691 0.0
C935 C 0.77682 0.56781 0.98475 0.0
H936 H 0.42155 0.21199 0.77446 0.0
H937 H 0.45385 0.26843 0.77761 0.0
H938 H 0.46367 0.26692 0.86147 0.0
H939 H 0.40615 0.20838 0.89484 0.0
H940 H 0.40545 0.18808 0.90887 0.0
H941 H 0.40321 0.19325 0.84638 0.0
H942 H 0.42923 0.18913 0.8211 0.0
H943 H 0.43162 0.18408 0.88377 0.0
H944 H 0.44997 0.2015 0.85196 0.0
H945 H 0.46817 0.25992 0.94526 0.0
H946 H 0.46463 0.24834 0.02905 0.0
H947 H 0.42813 0.19622 0.97573 0.0
C948 C 0.43096 0.22392 0.79275 0.0
C949 C 0.43722 0.24033 0.76997 0.0
C950 C 0.44909 0.25579 0.79485 0.0
C951 C 0.45482 0.25503 0.84215 0.0
C952 C 0.44835 0.2387 0.86409 0.0
C953 C 0.43652 0.2234 0.84065 0.0
C954 C 0.42999 0.20785 0.87508 0.0
C955 C 0.41002 0.19887 0.88168 0.0
C956 C 0.43554 0.19487 0.85688 0.0
C957 C 0.4396 0.21691 0.92184 0.0
C958 C 0.45044 0.23463 0.91404 0.0
C959 C 0.45987 0.24605 0.95184 0.0
C960 C 0.45773 0.23934 -0.00067 0.0
C961 C 0.4461 0.22139 0.00886 0.0
C962 C 0.43734 0.20993 0.96934 0.0
H963 H 0.75203 0.17944 0.82012 0.0
H964 H 0.77762 0.2322 0.76129 0.0
H965 H 0.78758 0.24405 0.84434 0.0
H966 H 0.73786 0.18982 0.93624 0.0
H967 H 0.7418 0.17479 0.97124 0.0
H968 H 0.73565 0.17042 0.90752 0.0
H969 H 0.76336 0.16827 0.88985 0.0
H970 H 0.76963 0.17268 0.95339 0.0
H971 H 0.78456 0.18627 0.90618 0.0
H972 H 0.79694 0.25011 0.93153 0.0
H973 H 0.80411 0.2501 0.01903 0.0
H974 H 0.7716 0.19355 0.02267 0.0
C975 C 0.75953 0.19349 0.82487 0.0
C976 C 0.76409 0.20491 0.78432 0.0
C977 C 0.774 0.22321 0.79186 0.0
C978 C 0.77969 0.23008 0.83889 0.0
C979 C 0.7752 0.21848 0.87801 0.0
C980 C 0.76522 0.20059 0.8717 0.0
C981 C 0.76277 0.19102 0.9198 0.0
C982 C 0.74336 0.18092 0.93457 0.0
C983 C 0.77055 0.17885 0.91712 0.0
C984 C 0.77325 0.20632 0.95386 0.0
C985 C 0.78028 0.22203 0.92893 0.0
C986 C 0.79131 0.23793 0.95168 0.0
C987 C 0.79536 0.23778 0.00129 0.0
C988 C 0.78829 0.22184 0.02762 0.0
C989 C 0.77693 0.20595 0.00364 0.0
H990 H 0.4281 0.19928 0.50766 0.0
H991 H 0.44107 0.25349 0.49469 0.0
H992 H 0.44513 0.25235 0.40547 0.0
H993 H 0.45831 0.20045 0.41544 0.0
H994 H 0.4433 0.17889 0.39245 0.0
H995 H 0.44221 0.18416 0.45576 0.0
H996 H 0.40951 0.17481 0.44475 0.0
H997 H 0.4105 0.16954 0.38142 0.0
H998 H 0.40326 0.18474 0.39698 0.0
H999 H 0.44758 0.24542 0.31837 0.0
H1000 H 0.44712 0.23283 0.23746 0.0
H1001 H 0.43149 0.18269 0.30586 0.0
C1002 C 0.43198 0.21097 0.48613 0.0
C1003 C 0.43438 0.22651 0.50814 0.0
C1004 C 0.43916 0.24144 0.4786 0.0
C1005 C 0.44155 0.24094 0.42794 0.0
C1006 C 0.43898 0.22539 0.4074 0.0
C1007 C 0.43422 0.21065 0.43541 0.0
C1008 C 0.43158 0.1954 0.40377 0.0
C1009 C 0.44463 0.18938 0.41769 0.0
C1010 C 0.41258 0.18023 0.40692 0.0
C1011 C 0.43558 0.20389 0.35358 0.0
C1012 C 0.43994 0.22123 0.35668 0.0
C1013 C 0.44417 0.23186 0.31541 0.0
C1014 C 0.44386 0.22456 0.26961 0.0
C1015 C 0.4392 0.20676 0.26537 0.0
C1016 C 0.43506 0.19633 0.308 0.0
H1017 H 0.77011 0.19633 0.49731 0.0
H1018 H 0.78789 0.24996 0.54131 0.0
H1019 H 0.79777 0.25987 0.45724 0.0
H1020 H 0.80473 0.20516 0.42037 0.0
H1021 H 0.79227 0.18953 0.37319 0.0
H1022 H 0.78433 0.18582 0.43536 0.0
H1023 H 0.7552 0.18333 0.40654 0.0
H1024 H 0.76293 0.18674 0.34404 0.0
H1025 H 0.75567 0.20072 0.37064 0.0
H1026 H 0.80996 0.26484 0.37429 0.0
H1027 H 0.82029 0.26414 0.29071 0.0
H1028 H 0.79323 0.20748 0.29551 0.0
C1029 C 0.77561 0.21008 0.48889 0.0
C1030 C 0.77832 0.22236 0.52615 0.0
C1031 C 0.78579 0.24028 0.51368 0.0
C1032 C 0.79143 0.24608 0.46593 0.0
C1033 C 0.7893 0.2338 0.43068 0.0
C1034 C 0.78124 0.21613 0.44098 0.0
C1035 C 0.7814 0.20592 0.39627 0.0
C1036 C 0.79127 0.19603 0.40697 0.0
C1037 C 0.76269 0.19344 0.37831 0.0
C1038 C 0.79135 0.22073 0.36009 0.0
C1039 C 0.79579 0.23668 0.38105 0.0
C1040 C 0.80625 0.25244 0.35696 0.0
C1041 C 0.81218 0.25192 0.30982 0.0
C1042 C 0.80745 0.23578 0.28709 0.0
C1043 C 0.7968 0.21995 0.31222 0.0
H1044 H 0.79641 0.56593 0.48826 0.0
H1045 H 0.75323 0.56954 0.55264 0.0
H1046 H 0.74148 0.56862 0.4706 0.0
H1047 H 0.80277 0.59277 0.38477 0.0
H1048 H 0.80708 0.57988 0.34172 0.0
H1049 H 0.81197 0.57971 0.40583 0.0
H1050 H 0.79257 0.546 0.40772 0.0
H1051 H 0.78768 0.54605 0.34347 0.0
H1052 H 0.77015 0.53597 0.38748 0.0
H1053 H 0.73539 0.56984 0.3832 0.0
H1054 H 0.73415 0.57117 0.29335 0.0
H1055 H 0.78017 0.56555 0.28142 0.0
C1056 C 0.78435 0.56627 0.48513 0.0
C1057 C 0.77582 0.56782 0.52745 0.0
C1058 C 0.76009 0.56832 0.52134 0.0
C1059 C 0.75325 0.56781 0.47467 0.0
C1060 C 0.76209 0.5666 0.43397 0.0
C1061 C 0.77715 0.56561 0.43842 0.0
C1062 C 0.78405 0.56463 0.38794 0.0
C1063 C 0.80256 0.58018 0.37959 0.0
C1064 C 0.78358 0.54712 0.38127 0.0
C1065 C 0.77075 0.56573 0.35475 0.0
C1066 C 0.75822 0.56683 0.38246 0.0
C1067 C 0.74497 0.56875 0.36102 0.0
C1068 C 0.74443 0.56956 0.30983 0.0
C1069 C 0.75697 0.56834 0.28022 0.0
C1070 C 0.77027 0.56628 0.30307 0.0
H1071 H 0.57086 0.10221 0.66866 0.0
H1072 H 0.52865 0.10761 0.60473 0.0
H1073 H 0.51807 0.10866 0.6871 0.0
H1074 H 0.5464 0.07466 0.76796 0.0
H1075 H 0.56376 0.08458 0.81259 0.0
H1076 H 0.56892 0.08508 0.74844 0.0
H1077 H 0.5879 0.11882 0.7517 0.0
H1078 H 0.58288 0.11842 0.81597 0.0
H1079 H 0.57844 0.13149 0.77392 0.0
H1080 H 0.51027 0.10665 0.77473 0.0
H1081 H 0.50709 0.10413 0.86458 0.0
H1082 H 0.55485 0.10161 0.87546 0.0
C1083 C 0.55953 0.10384 0.67198 0.0
C1084 C 0.55063 0.10479 0.62969 0.0
C1085 C 0.53579 0.10685 0.63605 0.0
C1086 C 0.52961 0.10744 0.68289 0.0
C1087 C 0.53845 0.10616 0.72352 0.0
C1088 C 0.55321 0.10463 0.71885 0.0
C1089 C 0.55999 0.10332 0.76916 0.0
C1090 C 0.55975 0.08587 0.77485 0.0
C1091 C 0.5784 0.11894 0.77821 0.0
C1092 C 0.54655 0.10407 0.8025 0.0
C1093 C 0.53422 0.10563 0.77506 0.0
C1094 C 0.51996 0.10567 0.79672 0.0
C1095 C 0.51823 0.10415 0.84782 0.0
C1096 C 0.53077 0.10281 0.87707 0.0
C1097 C 0.5452 0.10288 0.85406 0.0
H1098 H 0.9015 0.43357 0.64753 0.0
H1099 H 0.88793 0.47437 0.66154 0.0
H1100 H 0.88475 0.46952 0.75097 0.0
H1101 H 0.87235 0.40482 0.74563 0.0
H1102 H 0.88807 0.39879 0.76585 0.0
H1103 H 0.88745 0.40415 0.70233 0.0
H1104 H 0.92029 0.42772 0.70667 0.0
H1105 H 0.92099 0.42254 0.77023 0.0
H1106 H 0.9276 0.44466 0.7525 0.0
H1107 H 0.88554 0.46216 0.83913 0.0
H1108 H 0.88948 0.45219 0.92023 0.0
H1109 H 0.90265 0.41623 0.84952 0.0
C1110 C 0.89744 0.4412 0.66918 0.0
C1111 C 0.89487 0.45429 0.64733 0.0
C1112 C 0.88994 0.46424 0.67729 0.0
C1113 C 0.88807 0.46157 0.72817 0.0
C1114 C 0.89114 0.44889 0.74861 0.0
C1115 C 0.8956 0.43878 0.72009 0.0
C1116 C 0.89922 0.42677 0.75159 0.0
C1117 C 0.88598 0.40749 0.7407 0.0
C1118 C 0.91815 0.43067 0.74483 0.0
C1119 C 0.89643 0.43197 0.80232 0.0
C1120 C 0.89166 0.44467 0.79969 0.0
C1121 C 0.88907 0.45208 0.84166 0.0
C1122 C 0.8914 0.44637 0.88755 0.0
C1123 C 0.89631 0.4334 0.89117 0.0
C1124 C 0.89875 0.42606 0.8479 0.0
H1125 H 0.56712 0.4732 0.64886 0.0
H1126 H 0.52189 0.42099 0.65913 0.0
H1127 H 0.52237 0.42368 0.74925 0.0
H1128 H 0.58939 0.47089 0.75569 0.0
H1129 H 0.59713 0.49319 0.77404 0.0
H1130 H 0.59319 0.48725 0.71018 0.0
H1131 H 0.57221 0.49978 0.70524 0.0
H1132 H 0.57604 0.5057 0.76919 0.0
H1133 H 0.55403 0.49193 0.74717 0.0
H1134 H 0.52851 0.43127 0.83751 0.0
H1135 H 0.53939 0.4437 0.91945 0.0
H1136 H 0.57968 0.4917 0.85283 0.0
C1137 C 0.55736 0.46231 0.6701 0.0
C1138 C 0.54451 0.44684 0.64703 0.0
C1139 C 0.53183 0.43297 0.67603 0.0
C1140 C 0.53199 0.43437 0.72721 0.0
C1141 C 0.54478 0.4498 0.74876 0.0
C1142 C 0.55717 0.46358 0.72126 0.0
C1143 C 0.56941 0.47874 0.75376 0.0
C1144 C 0.5884 0.48274 0.74808 0.0
C1145 C 0.56782 0.495 0.7432 0.0
C1146 C 0.56213 0.47118 0.80387 0.0
C1147 C 0.54794 0.45445 0.8 0.0
C1148 C 0.53948 0.44441 0.84108 0.0
C1149 C 0.54578 0.45159 0.88746 0.0
C1150 C 0.56027 0.4687 0.89239 0.0
C1151 C 0.5684 0.47869 0.85003 0.0
H1152 H 0.56887 0.82278 0.68724 0.0
H1153 H 0.55451 0.7741 0.76258 0.0
H1154 H 0.55098 0.75946 0.68298 0.0
H1155 H 0.53819 0.80271 0.58483 0.0
H1156 H 0.55319 0.81817 0.54077 0.0
H1157 H 0.55385 0.82463 0.60382 0.0
H1158 H 0.58675 0.83403 0.60828 0.0
H1159 H 0.58618 0.82754 0.5454 0.0
H1160 H 0.59355 0.81847 0.59277 0.0
H1161 H 0.55175 0.75088 0.59592 0.0
H1162 H 0.55431 0.74839 0.50625 0.0
H1163 H 0.56628 0.80204 0.48786 0.0
C1164 C 0.56481 0.80901 0.68692 0.0
C1165 C 0.56211 0.7996 0.73094 0.0
C1166 C 0.55674 0.78158 0.72921 0.0
C1167 C 0.55468 0.77313 0.68421 0.0
C1168 C 0.55773 0.78284 0.64144 0.0
C1169 C 0.56243 0.80031 0.64234 0.0
C1170 C 0.56513 0.80779 0.59111 0.0
C1171 C 0.55179 0.81367 0.57946 0.0
C1172 C 0.58402 0.82284 0.584 0.0
C1173 C 0.56159 0.7919 0.56139 0.0
C1174 C 0.55742 0.77766 0.59108 0.0
C1175 C 0.55472 0.76184 0.57215 0.0
C1176 C 0.55628 0.76056 0.52136 0.0
C1177 C 0.56029 0.77493 0.49037 0.0
C1178 C 0.56285 0.79073 0.51071 0.0
H1179 H 0.2009 0.76236 0.48473 0.0
H1180 H 0.25181 0.80875 0.50424 0.0
H1181 H 0.24822 0.80527 0.59439 0.0
H1182 H 0.18002 0.7715 0.5814 0.0
H1183 H 0.16645 0.74897 0.59942 0.0
H1184 H 0.17365 0.75429 0.53676 0.0
H1185 H 0.18728 0.73424 0.54086 0.0
H1186 H 0.18004 0.72877 0.6035 0.0
H1187 H 0.20283 0.73763 0.58857 0.0
H1188 H 0.23895 0.79671 0.68163 0.0
H1189 H 0.22408 0.78485 0.76048 0.0
H1190 H 0.17836 0.74518 0.68325 0.0
C1191 C 0.21143 0.77164 0.50792 0.0
C1192 C 0.22673 0.78571 0.48773 0.0
C1193 C 0.24003 0.79784 0.51918 0.0
C1194 C 0.23812 0.79594 0.57027 0.0
C1195 C 0.22277 0.78198 0.58893 0.0
C1196 C 0.20962 0.77011 0.55874 0.0
C1197 C 0.194 0.75686 0.58788 0.0
C1198 C 0.17756 0.75798 0.57563 0.0
C1199 C 0.19086 0.73827 0.57972 0.0
C1200 C 0.20036 0.76319 0.63934 0.0
C1201 C 0.21707 0.77754 0.63914 0.0
C1202 C 0.22584 0.78554 0.68227 0.0
C1203 C 0.21726 0.7787 0.72685 0.0
C1204 C 0.2 0.76421 0.72782 0.0
C1205 C 0.19148 0.75638 0.68348 0.0
H1206 H 0.19808 0.43381 0.49652 0.0
H1207 H 0.24608 0.4396 0.43441 0.0
H1208 H 0.25654 0.43857 0.51702 0.0
H1209 H 0.21878 0.4609 0.60485 0.0
H1210 H 0.20085 0.44744 0.64526 0.0
H1211 H 0.19682 0.44873 0.58096 0.0
H1212 H 0.18177 0.41503 0.57432 0.0
H1213 H 0.18584 0.41364 0.63852 0.0
H1214 H 0.19349 0.40414 0.59322 0.0
H1215 H 0.26141 0.43515 0.60442 0.0
H1216 H 0.26172 0.43238 0.69415 0.0
H1217 H 0.21169 0.4305 0.70375 0.0
C1218 C 0.21083 0.43498 0.50034 0.0
C1219 C 0.2212 0.43677 0.4585 0.0
C1220 C 0.23784 0.43828 0.46543 0.0
C1221 C 0.24393 0.43764 0.51238 0.0
C1222 C 0.23338 0.43567 0.55254 0.0
C1223 C 0.21729 0.43459 0.54737 0.0
C1224 C 0.2088 0.43275 0.59734 0.0
C1225 C 0.20616 0.44839 0.60771 0.0
C1226 C 0.19144 0.41535 0.60105 0.0
C1227 C 0.22262 0.43287 0.63107 0.0
C1228 C 0.23656 0.43438 0.60406 0.0
C1229 C 0.25066 0.43414 0.62607 0.0
C1230 C 0.25067 0.43248 0.67715 0.0
C1231 C 0.23679 0.43132 0.70607 0.0
C1232 C 0.22256 0.43153 0.68262 0.0
H1233 H 0.48299 0.89856 0.15402 0.0
H1234 H 0.43617 0.88951 0.0769 0.0
H1235 H 0.42096 0.8853 0.15626 0.0
H1236 H 0.46027 0.86634 0.25166 0.0
H1237 H 0.47595 0.87976 0.29763 0.0
H1238 H 0.48269 0.88107 0.23461 0.0
H1239 H 0.49451 0.9145 0.23489 0.0
H1240 H 0.48783 0.9133 0.2978 0.0
H1241 H 0.48012 0.9226 0.25204 0.0
H1242 H 0.4121 0.8853 0.24465 0.0
H1243 H 0.40976 0.88764 0.33465 0.0
H1244 H 0.46172 0.89462 0.35264 0.0
C1245 C 0.46947 0.89551 0.15382 0.0
C1246 C 0.46076 0.89444 0.10948 0.0
C1247 C 0.44307 0.89037 0.11056 0.0
C1248 C 0.43433 0.88795 0.15542 0.0
C1249 C 0.44339 0.88932 0.19863 0.0
C1250 C 0.4605 0.89277 0.1981 0.0
C1251 C 0.46747 0.89398 0.24948 0.0
C1252 C 0.47185 0.87942 0.25888 0.0
C1253 C 0.48342 0.91218 0.25909 0.0
C1254 C 0.45178 0.89112 0.2791 0.0
C1255 C 0.43801 0.88849 0.24924 0.0
C1256 C 0.42266 0.88699 0.26844 0.0
C1257 C 0.42146 0.88837 0.31948 0.0
C1258 C 0.43544 0.891 0.35053 0.0
C1259 C 0.45063 0.89213 0.32993 0.0
H1260 H 0.09405 0.57641 0.14239 0.0
H1261 H 0.1075 0.53986 0.07705 0.0
H1262 H 0.10806 0.52839 0.15913 0.0
H1263 H 0.12259 0.58674 0.24566 0.0
H1264 H 0.10801 0.58882 0.28787 0.0
H1265 H 0.10752 0.59338 0.22366 0.0
H1266 H 0.07436 0.57071 0.22056 0.0
H1267 H 0.07474 0.56607 0.28479 0.0
H1268 H 0.06677 0.54859 0.24051 0.0
H1269 H 0.10671 0.52061 0.24793 0.0
H1270 H 0.10601 0.51874 0.33853 0.0
H1271 H 0.09559 0.56181 0.34611 0.0
C1272 C 0.09696 0.56589 0.14546 0.0
C1273 C 0.10056 0.55888 0.10357 0.0
C1274 C 0.10465 0.54537 0.10879 0.0
C1275 C 0.10495 0.53873 0.1552 0.0
C1276 C 0.1014 0.54596 0.19588 0.0
C1277 C 0.09768 0.55937 0.19158 0.0
C1278 C 0.09531 0.56549 0.24132 0.0
C1279 C 0.10919 0.58475 0.25013 0.0
C1280 C 0.07669 0.56253 0.24712 0.0
C1281 C 0.09825 0.55339 0.2742 0.0
C1282 C 0.10151 0.54207 0.24726 0.0
C1283 C 0.10427 0.52945 0.26951 0.0
C1284 C 0.1038 0.52846 0.32085 0.0
C1285 C 0.10089 0.54022 0.34908 0.0
C1286 C 0.09806 0.5528 0.32535 0.0
H1287 H 0.45692 0.55287 0.11666 0.0
H1288 H 0.40134 0.53434 0.12468 0.0
H1289 H 0.40494 0.54587 0.20895 0.0
H1290 H 0.45974 0.53888 0.2314 0.0
H1291 H 0.48117 0.55672 0.24658 0.0
H1292 H 0.4752 0.55095 0.18343 0.0
H1293 H 0.48258 0.58269 0.16468 0.0
H1294 H 0.48857 0.58856 0.22803 0.0
H1295 H 0.47229 0.59236 0.19984 0.0
H1296 H 0.4132 0.55481 0.29423 0.0
H1297 H 0.42518 0.55876 0.37785 0.0
H1298 H 0.47555 0.57085 0.3181 0.0
C1299 C 0.4457 0.55188 0.13575 0.0
C1300 C 0.42891 0.54309 0.11433 0.0
C1301 C 0.41432 0.54127 0.14066 0.0
C1302 C 0.41627 0.54787 0.1883 0.0
C1303 C 0.4329 0.5561 0.20921 0.0
C1304 C 0.44739 0.55809 0.18399 0.0
C1305 C 0.46318 0.56491 0.21763 0.0
C1306 C 0.47022 0.5521 0.2199 0.0
C1307 C 0.4775 0.58322 0.20158 0.0
C1308 C 0.45505 0.56563 0.26604 0.0
C1309 C 0.43769 0.56093 0.25987 0.0
C1310 C 0.42686 0.55887 0.2995 0.0
C1311 C 0.43376 0.56109 0.34685 0.0
C1312 C 0.4513 0.56527 0.35426 0.0
C1313 C 0.46224 0.56814 0.3133 0.0
H1314 H 0.10081 0.56738 0.81853 0.0
H1315 H 0.14279 0.55865 0.86584 0.0
H1316 H 0.14907 0.5554 0.77971 0.0
H1317 H 0.08379 0.53555 0.73587 0.0
H1318 H 0.07791 0.54642 0.68999 0.0
H1319 H 0.0796 0.55283 0.75314 0.0
H1320 H 0.10213 0.58483 0.73015 0.0
H1321 H 0.10033 0.57854 0.6665 0.0
H1322 H 0.12145 0.58943 0.69592 0.0
H1323 H 0.14639 0.54637 0.69342 0.0
H1324 H 0.13574 0.53364 0.61109 0.0
H1325 H 0.09587 0.54845 0.6183 0.0
C1326 C 0.1118 0.56553 0.81062 0.0
C1327 C 0.12132 0.56328 0.84876 0.0
C1328 C 0.13531 0.56039 0.83712 0.0
C1329 C 0.13905 0.55865 0.78828 0.0
C1330 C 0.12881 0.56 0.75157 0.0
C1331 C 0.11561 0.56364 0.76201 0.0
C1332 C 0.10491 0.5619 0.71672 0.0
C1333 C 0.08541 0.54837 0.72443 0.0
C1334 C 0.10736 0.57974 0.70142 0.0
C1335 C 0.11336 0.55552 0.68016 0.0
C1336 C 0.12739 0.5549 0.70072 0.0
C1337 C 0.13584 0.54735 0.67629 0.0
C1338 C 0.12969 0.54007 0.62989 0.0
C1339 C 0.11531 0.5405 0.60878 0.0
C1340 C 0.10725 0.54856 0.63355 0.0
H1341 H 0.47249 0.56466 0.85171 0.0
H1342 H 0.42016 0.5197 0.83851 0.0
H1343 H 0.42335 0.5208 0.74854 0.0
H1344 H 0.47029 0.58764 0.74665 0.0
H1345 H 0.49272 0.59577 0.72881 0.0
H1346 H 0.48652 0.59121 0.79238 0.0
H1347 H 0.49937 0.57048 0.79577 0.0
H1348 H 0.50554 0.57492 0.7321 0.0
H1349 H 0.49186 0.5527 0.75257 0.0
H1350 H 0.43154 0.52745 0.66034 0.0
H1351 H 0.44433 0.53918 0.57911 0.0
H1352 H 0.49174 0.57923 0.64889 0.0
C1353 C 0.46168 0.55503 0.82998 0.0
C1354 C 0.44605 0.5421 0.85235 0.0
C1355 C 0.43228 0.52971 0.8224 0.0
C1356 C 0.43396 0.53021 0.77121 0.0
C1357 C 0.44953 0.54308 0.75046 0.0
C1358 C 0.46318 0.55525 0.77881 0.0
C1359 C 0.47842 0.56787 0.74712 0.0
C1360 C 0.4822 0.58674 0.75416 0.0
C1361 C 0.49476 0.5664 0.75752 0.0
C1362 C 0.47112 0.56102 0.69649 0.0
C1363 C 0.45443 0.5467 0.69935 0.0
C1364 C 0.44465 0.53854 0.65759 0.0
C1365 C 0.45203 0.54532 0.61163 0.0
C1366 C 0.46906 0.56002 0.60777 0.0
C1367 C 0.4788 0.56781 0.65079 0.0
H1368 H 0.43623 0.87942 0.83585 0.0
H1369 H 0.48567 0.92814 0.84326 0.0
H1370 H 0.48272 0.93382 0.75606 0.0
H1371 H 0.44294 0.86861 0.70753 0.0
H1372 H 0.42001 0.85888 0.69313 0.0
H1373 H 0.42678 0.85801 0.755 0.0
H1374 H 0.40928 0.87246 0.78627 0.0
H1375 H 0.40271 0.87367 0.72453 0.0
H1376 H 0.41384 0.89323 0.76117 0.0
H1377 H 0.47193 0.93661 0.67392 0.0
H1378 H 0.45665 0.93375 0.59555 0.0
H1379 H 0.4161 0.88166 0.63666 0.0
C1380 C 0.4466 0.89106 0.81864 0.0
C1381 C 0.46117 0.90336 0.846 0.0
C1382 C 0.4745 0.91849 0.82263 0.0
C1383 C 0.47289 0.92187 0.77328 0.0
C1384 C 0.45812 0.90974 0.74764 0.0
C1385 C 0.44545 0.89439 0.76896 0.0
C1386 C 0.43082 0.88363 0.73313 0.0
C1387 C 0.4301 0.86625 0.7215 0.0
C1388 C 0.41312 0.88058 0.75245 0.0
C1389 C 0.43688 0.8957 0.68908 0.0
C1390 C 0.45259 0.91076 0.69847 0.0
C1391 C 0.45996 0.92464 0.6654 0.0
C1392 C 0.45122 0.92292 0.62108 0.0
C1393 C 0.43559 0.90731 0.60993 0.0
C1394 C 0.4283 0.89354 0.64423 0.0
H1395 H 0.21636 0.43684 0.2036 0.0
H1396 H 0.16971 0.44134 0.19359 0.0
H1397 H 0.17341 0.44491 0.10387 0.0
H1398 H 0.24119 0.46707 0.10229 0.0
H1399 H 0.24971 0.45355 0.08027 0.0
H1400 H 0.24479 0.45346 0.14452 0.0
H1401 H 0.22447 0.41985 0.1416 0.0
H1402 H 0.22936 0.41985 0.07744 0.0
H1403 H 0.20696 0.41048 0.09731 0.0
H1404 H 0.18094 0.44645 0.01585 0.0
H1405 H 0.1906 0.44387 0.93331 0.0
H1406 H 0.23174 0.43677 0.99741 0.0
C1407 C 0.20718 0.43896 0.18248 0.0
C1408 C 0.19286 0.43906 0.20551 0.0
C1409 C 0.18081 0.44133 0.17664 0.0
C1410 C 0.18284 0.44343 0.12569 0.0
C1411 C 0.19689 0.44302 0.10386 0.0
C1412 C 0.20881 0.44071 0.13109 0.0
C1413 C 0.22176 0.43916 0.09759 0.0
C1414 C 0.24047 0.45421 0.10672 0.0
C1415 C 0.22056 0.42127 0.10386 0.0
C1416 C 0.21511 0.44079 0.04746 0.0
C1417 C 0.20091 0.44325 0.05223 0.0
C1418 C 0.1921 0.44461 0.01158 0.0
C1419 C 0.19772 0.44311 0.96469 0.0
C1420 C 0.21197 0.44011 0.95844 0.0
C1421 C 0.22091 0.43921 0.00066 0.0
H1422 H 0.57848 0.77612 0.99038 0.0
H1423 H 0.55962 0.81283 0.00484 0.0
H1424 H 0.55565 0.80689 0.09416 0.0
H1425 H 0.55028 0.74467 0.07598 0.0
H1426 H 0.56658 0.74015 0.10059 0.0
H1427 H 0.5683 0.74754 0.03817 0.0
H1428 H 0.59944 0.77343 0.05556 0.0
H1429 H 0.5979 0.76599 0.1179 0.0
H1430 H 0.60276 0.78804 0.10583 0.0
H1431 H 0.55173 0.79529 0.17977 0.0
H1432 H 0.5514 0.78161 0.25876 0.0
H1433 H 0.57467 0.75383 0.18915 0.0
C1434 C 0.57358 0.78295 0.01247 0.0
C1435 C 0.56919 0.7948 0.99108 0.0
C1436 C 0.56306 0.80373 0.02089 0.0
C1437 C 0.5607 0.80038 0.07142 0.0
C1438 C 0.56487 0.78836 0.09126 0.0
C1439 C 0.5715 0.78004 0.06292 0.0
C1440 C 0.57534 0.76804 0.09343 0.0
C1441 C 0.56447 0.74897 0.07599 0.0
C1442 C 0.59503 0.77425 0.09317 0.0
C1443 C 0.56942 0.77055 0.14325 0.0
C1444 C 0.56335 0.78226 0.1411 0.0
C1445 C 0.55667 0.78629 0.1821 0.0
C1446 C 0.55652 0.77841 0.22676 0.0
C1447 C 0.56319 0.7668 0.23012 0.0
C1448 C 0.56958 0.76273 0.18769 0.0
H1449 H 0.24759 0.81681 0.18383 0.0
H1450 H 0.2202 0.76633 0.25633 0.0
H1451 H 0.20718 0.75223 0.17716 0.0
H1452 H 0.2138 0.80999 0.10145 0.0
H1453 H 0.22831 0.82129 0.05099 0.0
H1454 H 0.23584 0.8273 0.11315 0.0
H1455 H 0.26177 0.82206 0.09599 0.0
H1456 H 0.25441 0.81618 0.03361 0.0
H1457 H 0.25746 0.80126 0.0719 0.0
H1458 H 0.19561 0.74403 0.09053 0.0
H1459 H 0.18873 0.74215 0.00166 0.0
H1460 H 0.22488 0.79785 0.98723 0.0
C1461 C 0.23898 0.80277 0.18299 0.0
C1462 C 0.2348 0.79267 0.22609 0.0
C1463 C 0.22352 0.77433 0.22362 0.0
C1464 C 0.21604 0.7662 0.1789 0.0
C1465 C 0.22017 0.7766 0.13714 0.0
C1466 C 0.23157 0.79445 0.13874 0.0
C1467 C 0.23391 0.80272 0.08881 0.0
C1468 C 0.22758 0.81611 0.08862 0.0
C1469 C 0.25302 0.81104 0.07157 0.0
C1470 C 0.22199 0.78675 0.0589 0.0
C1471 C 0.21403 0.77181 0.08732 0.0
C1472 C 0.20192 0.7556 0.06773 0.0
C1473 C 0.19804 0.75466 0.01746 0.0
C1474 C 0.20646 0.76981 0.98776 0.0
C1475 C 0.21849 0.78599 0.00895 0.0
H1476 H 0.1659 0.19896 0.27079 0.0
H1477 H 0.20802 0.25292 0.27017 0.0
H1478 H 0.22932 0.24311 0.25317 0.0
H1479 H 0.18954 0.18 0.32677 0.0
H1480 H 0.17952 0.16071 0.28881 0.0
H1481 H 0.16778 0.17198 0.30294 0.0
H1482 H 0.16353 0.17513 0.21007 0.0
H1483 H 0.17517 0.16379 0.19569 0.0
H1484 H 0.1824 0.18519 0.17039 0.0
H1485 H 0.24613 0.22706 0.23812 0.0
H1486 H 0.25647 0.20633 0.21772 0.0
H1487 H 0.20296 0.16337 0.22332 0.0
C1488 C 0.17961 0.2087 0.26727 0.0
C1489 C 0.18535 0.22668 0.27209 0.0
C1490 C 0.20336 0.23906 0.26655 0.0
C1491 C 0.21556 0.23361 0.25715 0.0
C1492 C 0.20948 0.21576 0.25278 0.0
C1493 C 0.19189 0.20352 0.25704 0.0
C1494 C 0.1886 0.18519 0.2484 0.0
C1495 C 0.18091 0.1738 0.29448 0.0
C1496 C 0.17673 0.17684 0.20346 0.0
C1497 C 0.20705 0.18901 0.23862 0.0
C1498 C 0.21899 0.20668 0.24198 0.0
C1499 C 0.23688 0.21321 0.23512 0.0
C1500 C 0.24265 0.20137 0.22376 0.0
C1501 C 0.2305 0.18332 0.21861 0.0
C1502 C 0.21253 0.17714 0.22656 0.0
H1503 H 0.80688 0.96237 0.26413 0.0
H1504 H 0.7536 0.95085 0.23897 0.0
H1505 H 0.76448 0.98189 0.21891 0.0
H1506 H 0.82264 0.00398 0.32001 0.0
H1507 H 0.84385 0.01385 0.29124 0.0
H1508 H 0.83195 0.99066 0.30263 0.0
H1509 H 0.83401 0.9846 0.21052 0.0
H1510 H 0.8461 0.00777 0.19895 0.0
H1511 H 0.82639 0.99403 0.16489 0.0
H1512 H 0.78124 0.0148 0.20618 0.0
H1513 H 0.80276 0.04615 0.19296 0.0
H1514 H 0.845 0.03577 0.2231 0.0
C1515 C 0.79751 0.96634 0.25392 0.0
C1516 C 0.77938 0.95415 0.25316 0.0
C1517 C 0.76756 0.9599 0.2396 0.0
C1518 C 0.77361 0.97755 0.22839 0.0
C1519 C 0.79155 0.98929 0.23039 0.0
C1520 C 0.80334 0.98387 0.24207 0.0
C1521 C 0.82196 0.99905 0.24091 0.0
C1522 C 0.8306 0.00206 0.29173 0.0
C1523 C 0.83275 0.99619 0.20146 0.0
C1524 C 0.8188 0.01387 0.22711 0.0
C1525 C 0.80116 0.00804 0.22165 0.0
C1526 C 0.79509 0.01948 0.21 0.0
C1527 C 0.80739 0.03728 0.20284 0.0
C1528 C 0.82554 0.0434 0.20683 0.0
C1529 C 0.83121 0.03149 0.21953 0.0
H1530 H 0.96594 0.76537 0.19384 0.0
H1531 H 0.94817 0.79654 0.27073 0.0
H1532 H 0.97713 0.81394 0.30876 0.0
H1533 H 0.99718 0.76721 0.29136 0.0
H1534 H 0.01327 0.76937 0.24689 0.0
H1535 H 0.99032 0.75732 0.23162 0.0
H1536 H 0.99629 0.77702 0.15536 0.0
H1537 H 0.01918 0.78925 0.17068 0.0
H1538 H 0.00691 0.8004 0.16306 0.0
H1539 H 0.00794 0.83004 0.33044 0.0
H1540 H 0.03982 0.84407 0.33786 0.0
H1541 H 0.0395 0.80356 0.24662 0.0
C1542 C 0.9681 0.77545 0.22012 0.0
C1543 C 0.95474 0.77933 0.23096 0.0
C1544 C 0.95811 0.79309 0.26351 0.0
C1545 C 0.97454 0.80309 0.28501 0.0
C1546 C 0.9876 0.79928 0.27308 0.0
C1547 C 0.98468 0.78579 0.24165 0.0
C1548 C 0.00164 0.78575 0.23194 0.0
C1549 C 1.00053 0.76891 0.25164 0.0
C1550 C 0.00627 0.78826 0.177 0.0
C1551 C 0.01449 0.80159 0.2617 0.0
C1552 C 0.00593 0.80901 0.28531 0.0
C1553 C 0.01481 0.82425 0.31277 0.0
C1554 C 0.03297 0.83218 0.31646 0.0
C1555 C 0.04218 0.82492 0.29291 0.0
C1556 C 0.03278 0.80931 0.2654 0.0
H1557 H 0.84419 0.80666 0.7265 0.0
H1558 H 0.80098 0.75471 0.69538 0.0
H1559 H 0.7801 0.76528 0.70976 0.0
H1560 H 0.82226 0.81669 0.82431 0.0
H1561 H 0.83232 0.83941 0.80722 0.0
H1562 H 0.84357 0.82744 0.79595 0.0
H1563 H 0.84641 0.83597 0.704 0.0
H1564 H 0.83494 0.84774 0.71481 0.0
H1565 H 0.827 0.83068 0.66921 0.0
H1566 H 0.76418 0.78231 0.72163 0.0
H1567 H 0.75418 0.80331 0.74007 0.0
H1568 H 0.80788 0.84378 0.76688 0.0
C1569 C 0.83032 0.79744 0.72327 0.0
C1570 C 0.82419 0.77986 0.70976 0.0
C1571 C 0.80595 0.7682 0.70601 0.0
C1572 C 0.79402 0.77413 0.7138 0.0
C1573 C 0.80055 0.79167 0.72591 0.0
C1574 C 0.81827 0.80307 0.73152 0.0
C1575 C 0.82195 0.82123 0.74523 0.0
C1576 C 0.83053 0.8265 0.79621 0.0
C1577 C 0.83324 0.8347 0.70596 0.0
C1578 C 0.80355 0.81838 0.74586 0.0
C1579 C 0.79139 0.80129 0.73421 0.0
C1580 C 0.77359 0.79568 0.73123 0.0
C1581 C 0.76805 0.80775 0.74146 0.0
C1582 C 0.78024 0.82519 0.75499 0.0
C1583 C 0.79823 0.83054 0.75676 0.0
H1584 H 0.20131 0.03283 0.70504 0.0
H1585 H 0.2559 0.04719 0.71702 0.0
H1586 H 0.2468 0.01651 0.73974 0.0
H1587 H 0.18599 0.00443 0.8069 0.0
H1588 H 0.16545 0.98946 0.7782 0.0
H1589 H 0.17666 0.0122 0.7614 0.0
H1590 H 0.17632 0.00371 0.67006 0.0
H1591 H 0.16518 0.98092 0.68661 0.0
H1592 H 0.1855 0.99022 0.65319 0.0
H1593 H 0.23065 0.98337 0.76241 0.0
H1594 H 0.20964 0.95261 0.78605 0.0
H1595 H 0.16656 0.96191 0.75867 0.0
C1596 C 0.21145 0.02962 0.71221 0.0
C1597 C 0.22932 0.04239 0.70918 0.0
C1598 C 0.24211 0.03757 0.71914 0.0
C1599 C 0.23705 0.02019 0.7319 0.0
C1600 C 0.2192 0.0079 0.73443 0.0
C1601 C 0.20667 0.01255 0.72491 0.0
C1602 C 0.18836 0.99738 0.73117 0.0
C1603 C 0.17855 0.00109 0.77184 0.0
C1604 C 0.17825 0.99279 0.68235 0.0
C1605 C 0.19239 0.98336 0.74632 0.0
C1606 C 0.21018 0.98945 0.7477 0.0
C1607 C 0.21671 0.97853 0.76135 0.0
C1608 C 0.20472 0.9611 0.77455 0.0
C1609 C 0.18651 0.95494 0.7744 0.0
C1610 C 0.18041 0.96623 0.75948 0.0
H1611 H 0.9634 0.19556 0.7541 0.0
H1612 H 0.96263 0.15947 0.64449 0.0
H1613 H 0.99455 0.17323 0.6497 0.0
H1614 H 0.00561 0.23382 0.71604 0.0
H1615 H 0.01259 0.24091 0.77815 0.0
H1616 H 0.98961 0.22947 0.7632 0.0
H1617 H 0.98394 0.2064 0.83013 0.0
H1618 H 0.00685 0.2178 0.84538 0.0
H1619 H 0.9961 0.19499 0.82884 0.0
H1620 H 0.02563 0.18854 0.67018 0.0
H1621 H 0.05498 0.20465 0.70728 0.0
H1622 H 0.03734 0.23176 0.80379 0.0
C1623 C 0.97004 0.19078 0.73077 0.0
C1624 C 0.96048 0.17643 0.69879 0.0
C1625 C 0.9696 0.17037 0.6694 0.0
C1626 C 0.98779 0.17817 0.67183 0.0
C1627 C 0.99683 0.19209 0.70392 0.0
C1628 C 0.98839 0.1984 0.73305 0.0
C1629 C 1.0014 0.21279 0.76678 0.0
C1630 C 0.00236 0.23028 0.75534 0.0
C1631 C 0.9968 0.20768 0.82099 0.0
C1632 C 0.01831 0.21324 0.75253 0.0
C1633 C 0.01524 0.20123 0.71581 0.0
C1634 C 0.0283 0.19818 0.69839 0.0
C1635 C 0.04491 0.20737 0.71966 0.0
C1636 C 0.04842 0.21958 0.75763 0.0
C1637 C 0.03505 0.22282 0.77381 0.0
H1638 H 0.85893 0.56875 0.58498 0.0
H1639 H 0.80717 0.52341 0.60324 0.0
H1640 H 0.81906 0.50403 0.58666 0.0
H1641 H 0.87319 0.54987 0.48626 0.0
H1642 H 0.89532 0.55967 0.5087 0.0
H1643 H 0.88272 0.57034 0.51896 0.0
H1644 H 0.88836 0.5708 0.61232 0.0
H1645 H 0.90079 0.55995 0.60241 0.0
H1646 H 0.88237 0.5506 0.64374 0.0
H1647 H 0.8359 0.48935 0.57116 0.0
H1648 H 0.8571 0.47971 0.55418 0.0
H1649 H 0.89899 0.53378 0.54759 0.0
C1650 C 0.8501 0.55475 0.58455 0.0
C1651 C 0.83205 0.5476 0.59523 0.0
C1652 C 0.82098 0.52921 0.59516 0.0
C1653 C 0.82762 0.51806 0.58581 0.0
C1654 C 0.84544 0.52542 0.57665 0.0
C1655 C 0.85658 0.5433 0.57555 0.0
C1656 C 0.87531 0.54751 0.56576 0.0
C1657 C 0.88203 0.55744 0.51702 0.0
C1658 C 0.88742 0.55783 0.60863 0.0
C1659 C 0.87286 0.5292 0.56233 0.0
C1660 C 0.85544 0.51675 0.56844 0.0
C1661 C 0.84958 0.49894 0.56617 0.0
C1662 C 0.86175 0.4936 0.55651 0.0
C1663 C 0.87969 0.50596 0.54965 0.0
C1664 C 0.88539 0.52404 0.55324 0.0
H1665 H 0.46955 0.29995 0.60739 0.0
H1666 H 0.4162 0.28989 0.5984 0.0
H1667 H 0.42726 0.32097 0.57802 0.0
H1668 H 0.48853 0.34264 0.66146 0.0
H1669 H 0.50854 0.35135 0.6267 0.0
H1670 H 0.4964 0.32838 0.64114 0.0
H1671 H 0.49487 0.32076 0.54871 0.0
H1672 H 0.5071 0.3437 0.53403 0.0
H1673 H 0.4861 0.32996 0.50582 0.0
H1674 H 0.44438 0.3535 0.55992 0.0
H1675 H 0.46609 0.38424 0.53992 0.0
H1676 H 0.50797 0.37248 0.55876 0.0
C1677 C 0.46019 0.30427 0.60113 0.0
C1678 C 0.44202 0.29252 0.60462 0.0
C1679 C 0.43019 0.29867 0.59584 0.0
C1680 C 0.43635 0.31631 0.58442 0.0
C1681 C 0.45436 0.3276 0.58161 0.0
C1682 C 0.46609 0.32178 0.58929 0.0
C1683 C 0.48478 0.33642 0.58288 0.0
C1684 C 0.49517 0.3399 0.63091 0.0
C1685 C 0.49373 0.33247 0.54032 0.0
C1686 C 0.48174 0.3514 0.57046 0.0
C1687 C 0.46413 0.34612 0.57025 0.0
C1688 C 0.45821 0.35777 0.55987 0.0
C1689 C 0.47062 0.3752 0.54872 0.0
C1690 C 0.4887 0.38074 0.5477 0.0
C1691 C 0.49424 0.36865 0.55913 0.0
H1692 H 0.63267 0.14013 0.55706 0.0
H1693 H 0.62041 0.08633 0.57447 0.0
H1694 H 0.6515 0.09649 0.59224 0.0
H1695 H 0.67404 0.1562 0.49884 0.0
H1696 H 0.68425 0.17695 0.53021 0.0
H1697 H 0.66101 0.16549 0.51932 0.0
H1698 H 0.65522 0.16618 0.61235 0.0
H1699 H 0.67845 0.17788 0.62341 0.0
H1700 H 0.66464 0.15773 0.65552 0.0
H1701 H 0.68457 0.11272 0.60388 0.0
H1702 H 0.71596 0.13382 0.61919 0.0
H1703 H 0.70601 0.17675 0.59761 0.0
C1704 C 0.63649 0.13049 0.56506 0.0
C1705 C 0.6241 0.11244 0.56433 0.0
C1706 C 0.62964 0.10025 0.57507 0.0
C1707 C 0.64731 0.10588 0.58488 0.0
C1708 C 0.65927 0.12377 0.58431 0.0
C1709 C 0.65402 0.1359 0.57552 0.0
C1710 C 0.66935 0.15437 0.57827 0.0
C1711 C 0.67233 0.1638 0.52871 0.0
C1712 C 0.66676 0.16464 0.61987 0.0
C1713 C 0.68404 0.15077 0.58981 0.0
C1714 C 0.67805 0.13304 0.59253 0.0
C1715 C 0.68938 0.12664 0.60212 0.0
C1716 C 0.70719 0.13868 0.61041 0.0
C1717 C 0.71338 0.15688 0.60968 0.0
C1718 C 0.70164 0.1629 0.59857 0.0
H1719 H 0.47841 0.18047 0.09277 0.0
H1720 H 0.42623 0.13641 0.11606 0.0
H1721 H 0.43755 0.11612 0.10581 0.0
H1722 H 0.49013 0.15939 0.9975 0.0
H1723 H 0.51267 0.16928 0.01651 0.0
H1724 H 0.50059 0.18045 0.0272 0.0
H1725 H 0.50802 0.18251 0.11983 0.0
H1726 H 0.51997 0.17118 0.1095 0.0
H1727 H 0.50241 0.16284 0.15362 0.0
H1728 H 0.45446 0.10067 0.09698 0.0
H1729 H 0.47518 0.09047 0.07848 0.0
H1730 H 0.51635 0.14412 0.05452 0.0
C1731 C 0.4694 0.16655 0.09557 0.0
C1732 C 0.45145 0.16 0.10541 0.0
C1733 C 0.44001 0.1417 0.10835 0.0
C1734 C 0.44634 0.13007 0.10291 0.0
C1735 C 0.46411 0.13692 0.09379 0.0
C1736 C 0.47545 0.15468 0.08917 0.0
C1737 C 0.4938 0.15844 0.07684 0.0
C1738 C 0.49964 0.16742 0.02652 0.0
C1739 C 0.50682 0.16939 0.11737 0.0
C1740 C 0.49096 0.14001 0.07552 0.0
C1741 C 0.47377 0.12786 0.08621 0.0
C1742 C 0.46793 0.11003 0.0882 0.0
C1743 C 0.47985 0.10439 0.07786 0.0
C1744 C 0.49739 0.11648 0.06493 0.0
C1745 C 0.50303 0.13456 0.06423 0.0
H1746 H 0.90205 0.37064 0.06 0.0
H1747 H 0.85795 0.37951 0.07029 0.0
H1748 H 0.83872 0.34875 0.09224 0.0
H1749 H 0.8783 0.32777 0.00663 0.0
H1750 H 0.88946 0.3187 0.04049 0.0
H1751 H 0.90047 0.34177 0.02713 0.0
H1752 H 0.90661 0.34884 0.11966 0.0
H1753 H 0.89575 0.32579 0.13326 0.0
H1754 H 0.88866 0.33949 0.16258 0.0
H1755 H 0.82389 0.3176 0.11036 0.0
H1756 H 0.81393 0.28688 0.12843 0.0
H1757 H 0.86678 0.29632 0.10737 0.0
C1758 C 0.88839 0.3661 0.06747 0.0
C1759 C 0.88153 0.37755 0.06337 0.0
C1760 C 0.86355 0.37107 0.07302 0.0
C1761 C 0.85247 0.35357 0.08552 0.0
C1762 C 0.85948 0.34258 0.08837 0.0
C1763 C 0.877 0.34847 0.08005 0.0
C1764 C 0.88083 0.33352 0.08545 0.0
C1765 C 0.88767 0.33025 0.03703 0.0
C1766 C 0.89373 0.33713 0.12776 0.0
C1767 C 0.86268 0.3184 0.0977 0.0
C1768 C 0.85069 0.32411 0.0991 0.0
C1769 C 0.83314 0.31294 0.10965 0.0
C1770 C 0.82762 0.29546 0.11989 0.0
C1771 C 0.83955 0.28913 0.11953 0.0
C1772 C 0.85734 0.30075 0.10771 0.0
H1773 H 0.70278 0.52988 0.09309 0.0
H1774 H 0.71516 0.58395 0.08384 0.0
H1775 H 0.68424 0.57417 0.06548 0.0
H1776 H 0.67074 0.51412 0.9923 0.0
H1777 H 0.65676 0.49344 0.02173 0.0
H1778 H 0.68 0.50473 0.03282 0.0
H1779 H 0.67428 0.50376 0.12635 0.0
H1780 H 0.65104 0.49265 0.11553 0.0
H1781 H 0.66138 0.51279 0.14987 0.0
H1782 H 0.65149 0.55856 0.05605 0.0
H1783 H 0.61981 0.53812 0.04457 0.0
H1784 H 0.62889 0.49424 0.05337 0.0
C1785 C 0.69901 0.53965 0.08653 0.0
C1786 C 0.7114 0.55769 0.08996 0.0
C1787 C 0.70595 0.57006 0.08114 0.0
C1788 C 0.68838 0.56464 0.07095 0.0
C1789 C 0.67643 0.54678 0.06885 0.0
C1790 C 0.68155 0.53446 0.07536 0.0
C1791 C 0.66608 0.51607 0.0705 0.0
C1792 C 0.66854 0.50653 0.02673 0.0
C1793 C 0.66302 0.50571 0.11842 0.0
C1794 C 0.65144 0.52 0.06107 0.0
C1795 C 0.65767 0.5378 0.06085 0.0
C1796 C 0.6465 0.5446 0.05541 0.0
C1797 C 0.62853 0.53291 0.04922 0.0
C1798 C 0.62196 0.51465 0.04769 0.0
C1799 C 0.6336 0.50816 0.05378 0.0
H1800 H 0.49853 0.86851 0.95078 0.0
H1801 H 0.5401 0.92272 0.95327 0.0
H1802 H 0.56164 0.91338 0.93303 0.0
H1803 H 0.52255 0.85016 0.00519 0.0
H1804 H 0.51247 0.83085 0.96732 0.0
H1805 H 0.50067 0.842 0.98215 0.0
H1806 H 0.49599 0.84509 0.88948 0.0
H1807 H 0.50768 0.83385 0.87438 0.0
H1808 H 0.51467 0.85523 0.84918 0.0
H1809 H 0.5786 0.89735 0.91319 0.0
H1810 H 0.58881 0.8766 0.89152 0.0
H1811 H 0.53543 0.83356 0.90181 0.0
C1812 C 0.51216 0.87848 0.94711 0.0
C1813 C 0.51767 0.89634 0.95371 0.0
C1814 C 0.53561 0.90895 0.9483 0.0
C1815 C 0.54792 0.90375 0.93698 0.0
C1816 C 0.54201 0.88595 0.93108 0.0
C1817 C 0.5245 0.87357 0.93572 0.0
C1818 C 0.52124 0.8553 0.92693 0.0
C1819 C 0.5138 0.84391 0.97316 0.0
C1820 C 0.50919 0.84688 0.88234 0.0
C1821 C 0.53964 0.85924 0.91646 0.0
C1822 C 0.55154 0.87693 0.91925 0.0
C1823 C 0.56936 0.88348 0.91087 0.0
C1824 C 0.57505 0.87162 0.89875 0.0
C1825 C 0.5629 0.8535 0.89486 0.0
C1826 C 0.54505 0.84734 0.90429 0.0
H1827 H 0.13603 0.62579 0.94136 0.0
H1828 H 0.08131 0.61118 0.93208 0.0
H1829 H 0.09003 0.64178 0.91061 0.0
H1830 H 0.15209 0.668 0.99402 0.0
H1831 H 0.17211 0.67797 0.95907 0.0
H1832 H 0.16147 0.65504 0.97371 0.0
H1833 H 0.16042 0.64753 0.88133 0.0
H1834 H 0.17114 0.67046 0.86641 0.0
H1835 H 0.15044 0.65549 0.83846 0.0
H1836 H 0.10511 0.6745 0.89406 0.0
H1837 H 0.12506 0.70588 0.87661 0.0
H1838 H 0.16969 0.69822 0.89258 0.0
C1839 C 0.12585 0.62901 0.93483 0.0
C1840 C 0.10799 0.61619 0.93871 0.0
C1841 C 0.09507 0.62084 0.92927 0.0
C1842 C 0.09991 0.63817 0.91724 0.0
C1843 C 0.11769 0.65055 0.91418 0.0
C1844 C 0.13044 0.64609 0.92211 0.0
C1845 C 0.14861 0.66165 0.91548 0.0
C1846 C 0.15919 0.66591 0.96343 0.0
C1847 C 0.15821 0.6586 0.87288 0.0
C1848 C 0.14417 0.67566 0.903 0.0
C1849 C 0.12628 0.66907 0.90284 0.0
C1850 C 0.11912 0.67975 0.8937 0.0
C1851 C 0.13055 0.69755 0.88402 0.0
C1852 C 0.14889 0.70443 0.88298 0.0
C1853 C 0.15572 0.6933 0.89268 0.0
H1854 H 0.29204 0.43636 0.90599 0.0
H1855 H 0.28525 0.48119 0.88061 0.0
H1856 H 0.3162 0.50095 0.89953 0.0
H1857 H 0.32367 0.45602 0.00767 0.0
H1858 H 0.33669 0.44653 0.98874 0.0
H1859 H 0.31359 0.43544 0.97542 0.0
H1860 H 0.32032 0.43483 0.88324 0.0
H1861 H 0.34344 0.4461 0.89619 0.0
H1862 H 0.33477 0.45503 0.85215 0.0
H1863 H 0.34736 0.51602 0.91619 0.0
H1864 H 0.37794 0.52644 0.93693 0.0
H1865 H 0.36661 0.4728 0.95364 0.0
C1866 C 0.29707 0.45033 0.90526 0.0
C1867 C 0.28617 0.45722 0.89176 0.0
C1868 C 0.29328 0.47558 0.89059 0.0
C1869 C 0.31089 0.48695 0.90126 0.0
C1870 C 0.32138 0.47985 0.91311 0.0
C1871 C 0.31486 0.46204 0.91575 0.0
C1872 C 0.32943 0.45822 0.92888 0.0
C1873 C 0.32562 0.44848 0.97811 0.0
C1874 C 0.33215 0.44793 0.88765 0.0
C1875 C 0.34504 0.47669 0.93294 0.0
C1876 C 0.33989 0.48883 0.9234 0.0
C1877 C 0.35158 0.50669 0.92413 0.0
C1878 C 0.369 0.51246 0.93596 0.0
C1879 C 0.37478 0.50049 0.94723 0.0
C1880 C 0.36263 0.48228 0.94506 0.0
H1881 H 0.13531 0.50382 0.43978 0.0
H1882 H 0.08301 0.4606 0.46696 0.0
H1883 H 0.09353 0.4397 0.4505 0.0
H1884 H 0.14573 0.48377 0.3406 0.0
H1885 H 0.16836 0.49349 0.3585 0.0
H1886 H 0.15633 0.5045 0.37209 0.0
H1887 H 0.16429 0.50556 0.46415 0.0
H1888 H 0.17615 0.49434 0.45094 0.0
H1889 H 0.15882 0.48552 0.49579 0.0
H1890 H 0.11078 0.42367 0.43269 0.0
H1891 H 0.13203 0.41434 0.4088 0.0
H1892 H 0.17237 0.46871 0.39354 0.0
C1893 C 0.12598 0.48996 0.44216 0.0
C1894 C 0.10834 0.48382 0.45481 0.0
C1895 C 0.09658 0.46558 0.45713 0.0
C1896 C 0.10248 0.45364 0.44812 0.0
C1897 C 0.12011 0.46021 0.43658 0.0
C1898 C 0.13159 0.47799 0.43309 0.0
C1899 C 0.1498 0.48195 0.41937 0.0
C1900 C 0.15538 0.49148 0.36969 0.0
C1901 C 0.16304 0.49246 0.46 0.0
C1902 C 0.14692 0.46363 0.41579 0.0
C1903 C 0.12978 0.45119 0.42603 0.0
C1904 C 0.12421 0.43334 0.42457 0.0
C1905 C 0.13638 0.42816 0.41124 0.0
C1906 C 0.15386 0.44079 0.39936 0.0
C1907 C 0.15913 0.45871 0.40246 0.0
H1908 H 0.52488 0.62684 0.39847 0.0
H1909 H 0.50176 0.62955 0.53628 0.0
H1910 H 0.5189 0.66173 0.53353 0.0
H1911 H 0.56856 0.6662 0.41638 0.0
H1912 H 0.57025 0.67302 0.3533 0.0
H1913 H 0.55804 0.65011 0.3687 0.0
H1914 H 0.5307 0.64738 0.32506 0.0
H1915 H 0.54284 0.67021 0.30929 0.0
H1916 H 0.52259 0.6617 0.34275 0.0
H1917 H 0.53658 0.69309 0.51434 0.0
H1918 H 0.5518 0.7222 0.47536 0.0
H1919 H 0.56275 0.70014 0.34757 0.0
C1920 C 0.52374 0.63428 0.42837 0.0
C1921 C 0.51216 0.62578 0.46786 0.0
C1922 C 0.51058 0.63585 0.50577 0.0
C1923 C 0.52036 0.65412 0.50473 0.0
C1924 C 0.53154 0.66216 0.46521 0.0
C1925 C 0.53317 0.65265 0.42736 0.0
C1926 C 0.54474 0.6647 0.38679 0.0
C1927 C 0.56139 0.66343 0.38096 0.0
C1928 C 0.53461 0.66076 0.33811 0.0
C1929 C 0.54896 0.68237 0.40736 0.0
C1930 C 0.54149 0.68054 0.45318 0.0
C1931 C 0.54271 0.69475 0.47882 0.0
C1932 C 0.5514 0.71122 0.45658 0.0
C1933 C 0.5587 0.71335 0.40926 0.0
C1934 C 0.55768 0.69883 0.38447 0.0
H1935 H 0.37081 0.86962 0.43223 0.0
H1936 H 0.37846 0.92176 0.44988 0.0
H1937 H 0.34712 0.91042 0.42922 0.0
H1938 H 0.34095 0.85742 0.32847 0.0
H1939 H 0.32847 0.83499 0.34839 0.0
H1940 H 0.35143 0.84773 0.36271 0.0
H1941 H 0.34426 0.84079 0.45514 0.0
H1942 H 0.32129 0.82823 0.44121 0.0
H1943 H 0.32914 0.84608 0.48424 0.0
H1944 H 0.31375 0.892 0.41168 0.0
H1945 H 0.28311 0.86938 0.3923 0.0
H1946 H 0.29905 0.83026 0.3846 0.0
C1947 C 0.36594 0.87871 0.43148 0.0
C1948 C 0.37693 0.89651 0.44295 0.0
C1949 C 0.37018 0.90806 0.44099 0.0
C1950 C 0.35242 0.9017 0.42953 0.0
C1951 C 0.3418 0.88389 0.41937 0.0
C1952 C 0.3485 0.87268 0.41948 0.0
C1953 C 0.33472 0.85418 0.40711 0.0
C1954 C 0.33916 0.84824 0.3588 0.0
C1955 C 0.3322 0.84159 0.44946 0.0
C1956 C 0.31899 0.85648 0.40125 0.0
C1957 C 0.32318 0.87364 0.40834 0.0
C1958 C 0.31042 0.87857 0.40566 0.0
C1959 C 0.29306 0.86565 0.39488 0.0
C1960 C 0.28871 0.84808 0.38683 0.0
C1961 C 0.30191 0.84357 0.39033 0.0
H1962 H 0.30034 0.17147 0.18339 0.0
H1963 H 0.28438 0.11731 0.1508 0.0
H1964 H 0.31512 0.12493 0.14663 0.0
H1965 H 0.33745 0.19053 0.10288 0.0
H1966 H 0.35112 0.2083 0.14347 0.0
H1967 H 0.3277 0.19874 0.14568 0.0
H1968 H 0.32795 0.19255 0.23853 0.0
H1969 H 0.35139 0.20212 0.23663 0.0
H1970 H 0.33792 0.18016 0.25926 0.0
H1971 H 0.3472 0.13796 0.14358 0.0
H1972 H 0.37928 0.15598 0.14246 0.0
H1973 H 0.37536 0.20196 0.17724 0.0
C1974 C 0.30331 0.16121 0.17573 0.0
C1975 C 0.2898 0.14377 0.16748 0.0
C1976 C 0.29435 0.13078 0.15724 0.0
C1977 C 0.31183 0.13494 0.15482 0.0
C1978 C 0.32477 0.15217 0.16276 0.0
C1979 C 0.32082 0.16513 0.17311 0.0
C1980 C 0.33743 0.18268 0.17927 0.0
C1981 C 0.33848 0.19583 0.14051 0.0
C1982 C 0.33875 0.18979 0.23154 0.0
C1983 C 0.35122 0.17747 0.17041 0.0
C1984 C 0.34354 0.15979 0.16106 0.0
C1985 C 0.35341 0.15183 0.15102 0.0
C1986 C 0.37166 0.16222 0.1504 0.0
C1987 C 0.37995 0.18043 0.15978 0.0
C1988 C 0.36949 0.18808 0.1701 0.0
H1989 H 0.81396 0.17471 0.19741 0.0
H1990 H 0.85377 0.2199 0.11846 0.0
H1991 H 0.86924 0.20366 0.10034 0.0
H1992 H 0.8429 0.16163 0.25153 0.0
H1993 H 0.82739 0.13861 0.24577 0.0
H1994 H 0.81975 0.15396 0.25274 0.0
H1995 H 0.80164 0.14217 0.17281 0.0
H1996 H 0.80943 0.12695 0.16521 0.0
H1997 H 0.81247 0.14212 0.11675 0.0
H1998 H 0.87988 0.18217 0.08922 0.0
H1999 H 0.88656 0.15825 0.09211 0.0
H2000 H 0.83972 0.12702 0.17866 0.0
C2001 C 0.82599 0.18131 0.17651 0.0
C2002 C 0.83262 0.19865 0.15928 0.0
C2003 C 0.84844 0.2067 0.13223 0.0
C2004 C 0.85726 0.19752 0.1215 0.0
C2005 C 0.85011 0.18034 0.13815 0.0
C2006 C 0.83493 0.17238 0.16552 0.0
C2007 C 0.83006 0.15388 0.17963 0.0
C2008 C 0.83003 0.15191 0.23574 0.0
C2009 C 0.81235 0.14049 0.15725 0.0
C2010 C 0.84495 0.15263 0.15609 0.0
C2011 C 0.85628 0.168 0.13204 0.0
C2012 C 0.87113 0.17012 0.10806 0.0
C2013 C 0.87478 0.1564 0.1099 0.0
C2014 C 0.86369 0.14071 0.13574 0.0
C2015 C 0.84836 0.13873 0.15821 0.0
H2016 H 0.82687 0.63015 0.18856 0.0
H2017 H 0.77778 0.62822 0.15502 0.0
H2018 H 0.79314 0.66033 0.15124 0.0
H2019 H 0.84552 0.66961 0.26394 0.0
H2020 H 0.86739 0.67796 0.24067 0.0
H2021 H 0.85255 0.65471 0.24321 0.0
H2022 H 0.85715 0.6523 0.15028 0.0
H2023 H 0.87199 0.67553 0.14744 0.0
H2024 H 0.85322 0.66552 0.10742 0.0
H2025 H 0.81325 0.69198 0.14838 0.0
H2026 H 0.83735 0.72221 0.14538 0.0
H2027 H 0.87434 0.70479 0.17989 0.0
C2028 C 0.81933 0.6365 0.18096 0.0
C2029 C 0.80107 0.62662 0.17222 0.0
C2030 C 0.79174 0.63544 0.16174 0.0
C2031 C 0.80034 0.6537 0.15965 0.0
C2032 C 0.8183 0.663 0.16798 0.0
C2033 C 0.82776 0.65481 0.17836 0.0
C2034 C 0.84711 0.66808 0.18394 0.0
C2035 C 0.85352 0.66756 0.23605 0.0
C2036 C 0.85801 0.66518 0.14494 0.0
C2037 C 0.84699 0.68499 0.17483 0.0
C2038 C 0.83016 0.68162 0.16589 0.0
C2039 C 0.82649 0.69483 0.15541 0.0
C2040 C 0.84037 0.71201 0.15364 0.0
C2041 C 0.85786 0.71598 0.16223 0.0
C2042 C 0.86116 0.70223 0.17341 0.0
H2043 H 0.16484 0.37138 0.34301 0.0
H2044 H 0.20542 0.3864 0.23252 0.0
H2045 H 0.1978 0.35575 0.22372 0.0
H2046 H 0.17116 0.33913 0.40103 0.0
H2047 H 0.14831 0.32395 0.41189 0.0
H2048 H 0.15598 0.34703 0.40809 0.0
H2049 H 0.13363 0.34146 0.33895 0.0
H2050 H 0.12575 0.31832 0.34287 0.0
H2051 H 0.13332 0.3295 0.28497 0.0
H2052 H 0.18795 0.32437 0.23115 0.0
H2053 H 0.17426 0.29293 0.24908 0.0
H2054 H 0.13903 0.29715 0.3523 0.0
C2055 C 0.17191 0.36818 0.3164 0.0
C2056 C 0.18582 0.3814 0.28873 0.0
C2057 C 0.19482 0.37661 0.25452 0.0
C2058 C 0.19059 0.3592 0.24912 0.0
C2059 C 0.1772 0.3466 0.2778 0.0
C2060 C 0.1678 0.35074 0.31029 0.0
C2061 C 0.15423 0.33452 0.3372 0.0
C2062 C 0.15763 0.33627 0.39285 0.0
C2063 C 0.13563 0.33073 0.32527 0.0
C2064 C 0.15773 0.32077 0.31514 0.0
C2065 C 0.17111 0.32812 0.28114 0.0
C2066 C 0.17731 0.31837 0.25727 0.0
C2067 C 0.16952 0.30054 0.26798 0.0
C2068 C 0.15554 0.29255 0.30196 0.0
C2069 C 0.14958 0.30285 0.3258 0.0
H2070 H 0.62882 0.79392 0.36029 0.0
H2071 H 0.61287 0.8263 0.28039 0.0
H2072 H 0.6435 0.84954 0.27397 0.0
H2073 H 0.663 0.8284 0.42953 0.0
H2074 H 0.67781 0.81996 0.42585 0.0
H2075 H 0.65454 0.80521 0.42324 0.0
H2076 H 0.65803 0.79289 0.3404 0.0
H2077 H 0.68134 0.80749 0.34296 0.0
H2078 H 0.66909 0.80767 0.29024 0.0
H2079 H 0.67535 0.86987 0.27854 0.0
H2080 H 0.70727 0.88561 0.28948 0.0
H2081 H 0.70352 0.84052 0.36529 0.0
C2082 C 0.6318 0.80582 0.34101 0.0
C2083 C 0.61831 0.80822 0.32112 0.0
C2084 C 0.62284 0.82407 0.29631 0.0
C2085 C 0.64025 0.83742 0.29238 0.0
C2086 C 0.65314 0.83481 0.31316 0.0
C2087 C 0.64924 0.81939 0.33658 0.0
C2088 C 0.66579 0.82017 0.35573 0.0
C2089 C 0.66524 0.81833 0.41193 0.0
C2090 C 0.66873 0.80623 0.33084 0.0
C2091 C 0.67946 0.83848 0.33977 0.0
C2092 C 0.6718 0.84664 0.31533 0.0
C2093 C 0.68156 0.86361 0.29738 0.0
C2094 C 0.69972 0.87247 0.30393 0.0
C2095 C 0.70802 0.86436 0.32819 0.0
C2096 C 0.69764 0.84713 0.3466 0.0
H2097 H 0.20602 0.8309 0.34739 0.0
H2098 H 0.17261 0.77993 0.28167 0.0
H2099 H 0.14882 0.78664 0.2747 0.0
H2100 H 0.17277 0.83225 0.41848 0.0
H2101 H 0.181 0.85527 0.40905 0.0
H2102 H 0.19578 0.84678 0.40781 0.0
H2103 H 0.20636 0.85991 0.32108 0.0
H2104 H 0.19171 0.86855 0.32221 0.0
H2105 H 0.19056 0.85452 0.27261 0.0
H2106 H 0.12814 0.79837 0.27702 0.0
H2107 H 0.11269 0.81513 0.285 0.0
H2108 H 0.15952 0.85837 0.34859 0.0
C2109 C 0.19377 0.8212 0.33114 0.0
C2110 C 0.19127 0.80487 0.31524 0.0
C2111 C 0.17494 0.79254 0.29435 0.0
C2112 C 0.16127 0.7962 0.29019 0.0
C2113 C 0.16408 0.81227 0.30691 0.0
C2114 C 0.17994 0.82463 0.32665 0.0
C2115 C 0.17946 0.84086 0.34205 0.0
C2116 C 0.18242 0.84396 0.39765 0.0
C2117 C 0.19281 0.85691 0.31272 0.0
C2118 C 0.16085 0.83562 0.32804 0.0
C2119 C 0.15218 0.81907 0.30793 0.0
C2120 C 0.13481 0.81139 0.29256 0.0
C2121 C 0.12612 0.82099 0.29737 0.0
C2122 C 0.13485 0.8381 0.31728 0.0
C2123 C 0.15243 0.84536 0.33303 0.0
H2124 H 0.70667 0.86521 0.86733 0.0
H2125 H 0.71035 0.82863 0.76814 0.0
H2126 H 0.67882 0.81476 0.75139 0.0
H2127 H 0.66496 0.83419 0.9187 0.0
H2128 H 0.65736 0.84966 0.92351 0.0
H2129 H 0.68042 0.85713 0.92681 0.0
H2130 H 0.686 0.87862 0.85517 0.0
H2131 H 0.66292 0.87106 0.85129 0.0
H2132 H 0.67459 0.87034 0.79787 0.0
H2133 H 0.64725 0.80475 0.745 0.0
H2134 H 0.61661 0.79735 0.7548 0.0
H2135 H 0.63266 0.83993 0.85896 0.0
C2136 C 0.70085 0.85428 0.84209 0.0
C2137 C 0.71107 0.84806 0.81898 0.0
C2138 C 0.70287 0.83364 0.78645 0.0
C2139 C 0.68496 0.82572 0.77641 0.0
C2140 C 0.67535 0.83229 0.79927 0.0
C2141 C 0.68291 0.84611 0.83181 0.0
C2142 C 0.66936 0.85012 0.85273 0.0
C2143 C 0.66794 0.84762 0.90876 0.0
C2144 C 0.67347 0.86864 0.83839 0.0
C2145 C 0.65301 0.8363 0.82704 0.0
C2146 C 0.65688 0.82631 0.79604 0.0
C2147 C 0.64403 0.81246 0.76914 0.0
C2148 C 0.62665 0.80837 0.77502 0.0
C2149 C 0.62221 0.81803 0.80775 0.0
C2150 C 0.63565 0.83242 0.83329 0.0
H2151 H 0.19487 0.82291 0.80825 0.0
H2152 H 0.15034 0.77698 0.87118 0.0
H2153 H 0.13562 0.79402 0.8852 0.0
H2154 H 0.19431 0.85441 0.88975 0.0
H2155 H 0.19989 0.87091 0.8433 0.0
H2156 H 0.20715 0.85521 0.83733 0.0
H2157 H 0.19238 0.84595 0.75195 0.0
H2158 H 0.1853 0.8618 0.75735 0.0
H2159 H 0.16951 0.83918 0.74581 0.0
H2160 H 0.12615 0.8159 0.89566 0.0
H2161 H 0.12071 0.84056 0.89319 0.0
H2162 H 0.17086 0.87254 0.82133 0.0
C2163 C 0.18197 0.81638 0.82466 0.0
C2164 C 0.17381 0.79857 0.83874 0.0
C2165 C 0.15689 0.79056 0.85995 0.0
C2166 C 0.14844 0.80016 0.86838 0.0
C2167 C 0.157 0.81773 0.85511 0.0
C2168 C 0.17326 0.82575 0.83306 0.0
C2169 C 0.17933 0.84475 0.82144 0.0
C2170 C 0.19617 0.85704 0.84965 0.0
C2171 C 0.18176 0.84811 0.76583 0.0
C2172 C 0.16391 0.84612 0.84045 0.0
C2173 C 0.1513 0.8304 0.86016 0.0
C2174 C 0.13586 0.82826 0.88006 0.0
C2175 C 0.13293 0.84242 0.87851 0.0
C2176 C 0.14531 0.85854 0.85679 0.0
C2177 C 0.16117 0.86046 0.83839 0.0
H2178 H 0.17541 0.36852 0.78746 0.0
H2179 H 0.21593 0.37605 0.89147 0.0
H2180 H 0.19905 0.34472 0.91324 0.0
H2181 H 0.13866 0.3378 0.85892 0.0
H2182 H 0.12656 0.32475 0.80687 0.0
H2183 H 0.14173 0.34777 0.79927 0.0
H2184 H 0.15823 0.34104 0.73181 0.0
H2185 H 0.14293 0.31804 0.73862 0.0
H2186 H 0.16606 0.32613 0.74502 0.0
H2187 H 0.17769 0.31279 0.92437 0.0
H2188 H 0.15499 0.28175 0.9178 0.0
H2189 H 0.1283 0.29484 0.80619 0.0
C2190 C 0.18082 0.36362 0.81473 0.0
C2191 C 0.19703 0.37483 0.83785 0.0
C2192 C 0.20361 0.36777 0.87308 0.0
C2193 C 0.19404 0.35001 0.88597 0.0
C2194 C 0.17795 0.33947 0.86322 0.0
C2195 C 0.17149 0.34595 0.8279 0.0
C2196 C 0.15411 0.33173 0.80788 0.0
C2197 C 0.1394 0.33576 0.81891 0.0
C2198 C 0.15542 0.32908 0.75256 0.0
C2199 C 0.15182 0.31616 0.8373 0.0
C2200 C 0.16566 0.32098 0.86934 0.0
C2201 C 0.1668 0.30887 0.89944 0.0
C2202 C 0.15381 0.29126 0.89548 0.0
C2203 C 0.13985 0.28586 0.86152 0.0
C2204 C 0.13863 0.29859 0.83302 0.0
H2205 H 0.83601 0.7101 0.671 0.0
H2206 H 0.87957 0.72348 0.57233 0.0
H2207 H 0.87225 0.69268 0.57095 0.0
H2208 H 0.84101 0.67954 0.74228 0.0
H2209 H 0.81795 0.66447 0.74981 0.0
H2210 H 0.82568 0.68739 0.74067 0.0
H2211 H 0.80522 0.68026 0.66549 0.0
H2212 H 0.7972 0.65729 0.67491 0.0
H2213 H 0.80623 0.66714 0.61631 0.0
H2214 H 0.86143 0.66068 0.58425 0.0
H2215 H 0.84612 0.62928 0.60567 0.0
H2216 H 0.80967 0.6367 0.69554 0.0
C2217 C 0.84378 0.70651 0.64824 0.0
C2218 C 0.85837 0.7193 0.62175 0.0
C2219 C 0.86834 0.714 0.59305 0.0
C2220 C 0.86432 0.6965 0.59207 0.0
C2221 C 0.85023 0.68435 0.61983 0.0
C2222 C 0.83996 0.68905 0.64687 0.0
C2223 C 0.82577 0.67344 0.67423 0.0
C2224 C 0.82773 0.6764 0.73005 0.0
C2225 C 0.80752 0.66929 0.65667 0.0
C2226 C 0.8298 0.65933 0.65867 0.0
C2227 C 0.84397 0.66589 0.62736 0.0
C2228 C 0.85023 0.65535 0.60852 0.0
C2229 C 0.8415 0.63754 0.62114 0.0
C2230 C 0.82666 0.63041 0.65227 0.0
C2231 C 0.82096 0.64163 0.67163 0.0
H2232 H 0.29564 0.12563 0.67207 0.0
H2233 H 0.27714 0.15954 0.61534 0.0
H2234 H 0.30732 0.18411 0.61352 0.0
H2235 H 0.32848 0.15696 0.75032 0.0
H2236 H 0.34425 0.15009 0.73852 0.0
H2237 H 0.3212 0.13461 0.73344 0.0
H2238 H 0.32559 0.12747 0.64412 0.0
H2239 H 0.34869 0.14276 0.64915 0.0
H2240 H 0.33618 0.14498 0.60019 0.0
H2241 H 0.33897 0.20544 0.62191 0.0
H2242 H 0.37089 0.22185 0.63318 0.0
H2243 H 0.36946 0.1744 0.68331 0.0
C2244 C 0.29795 0.13815 0.65855 0.0
C2245 C 0.28392 0.14059 0.64401 0.0
C2246 C 0.28757 0.15727 0.62691 0.0
C2247 C 0.30471 0.17137 0.62576 0.0
C2248 C 0.31813 0.16864 0.64155 0.0
C2249 C 0.31505 0.15244 0.65705 0.0
C2250 C 0.33195 0.15321 0.6724 0.0
C2251 C 0.33143 0.14844 0.72691 0.0
C2252 C 0.33583 0.14141 0.63949 0.0
C2253 C 0.34491 0.1724 0.66347 0.0
C2254 C 0.3366 0.18102 0.64585 0.0
C2255 C 0.34568 0.19883 0.63536 0.0
C2256 C 0.36383 0.20805 0.6421 0.0
C2257 C 0.37278 0.19946 0.65903 0.0
C2258 C 0.36307 0.18139 0.6703 0.0
H2259 H 0.84245 0.14192 0.65092 0.0
H2260 H 0.88787 0.18346 0.72483 0.0
H2261 H 0.87203 0.1997 0.73571 0.0
H2262 H 0.83048 0.16992 0.58581 0.0
H2263 H 0.80729 0.15512 0.59186 0.0
H2264 H 0.82214 0.1467 0.59028 0.0
H2265 H 0.80972 0.13097 0.6732 0.0
H2266 H 0.7949 0.13943 0.67518 0.0
H2267 H 0.8097 0.14345 0.72554 0.0
H2268 H 0.85124 0.21111 0.7399 0.0
H2269 H 0.82772 0.21813 0.73308 0.0
H2270 H 0.79561 0.16943 0.65472 0.0
C2271 C 0.84911 0.15443 0.66947 0.0
C2272 C 0.86645 0.16137 0.68723 0.0
C2273 C 0.87466 0.17786 0.71086 0.0
C2274 C 0.86573 0.18716 0.71736 0.0
C2275 C 0.84864 0.17984 0.69981 0.0
C2276 C 0.84045 0.16393 0.676 0.0
C2277 C 0.82211 0.15916 0.65982 0.0
C2278 C 0.82041 0.15764 0.60361 0.0
C2279 C 0.80829 0.14225 0.68494 0.0
C2280 C 0.82124 0.1749 0.67834 0.0
C2281 C 0.83668 0.18658 0.7015 0.0
C2282 C 0.83913 0.20209 0.7217 0.0
C2283 C 0.8256 0.20593 0.71756 0.0
C2284 C 0.80971 0.19438 0.69312 0.0
C2285 C 0.80751 0.17854 0.6737 0.0
H2286 H 0.03923 0.4999 0.4884 0.0
H2287 H 0.05721 0.5455 0.58201 0.0
H2288 H 0.027 0.53982 0.58934 0.0
H2289 H 0.00829 0.50571 0.42236 0.0
H2290 H 0.99214 0.48282 0.41854 0.0
H2291 H 0.01497 0.48947 0.42364 0.0
H2292 H 0.00861 0.47011 0.50097 0.0
H2293 H 0.9857 0.46316 0.49564 0.0
H2294 H 0.99718 0.47279 0.55203 0.0
H2295 H 0.99496 0.53051 0.58149 0.0
H2296 H 0.96318 0.51652 0.56468 0.0
H2297 H 0.96627 0.47717 0.47656 0.0
C2298 C 0.03675 0.50844 0.51137 0.0
C2299 C 0.05064 0.52315 0.53455 0.0
C2300 C 0.04683 0.53417 0.56366 0.0
C2301 C 0.02969 0.53108 0.56807 0.0
C2302 C 0.01639 0.51686 0.54335 0.0
C2303 C 0.01967 0.50557 0.51612 0.0
C2304 C 0.00308 0.49153 0.49211 0.0
C2305 C 0.00473 0.49245 0.43583 0.0
C2306 C 0.99836 0.47332 0.51135 0.0
C2307 C 0.99008 0.49684 0.50961 0.0
C2308 C 0.99798 0.51147 0.5391 0.0
C2309 C 0.98859 0.51893 0.55874 0.0
C2310 C 0.97056 0.51097 0.54876 0.0
C2311 C 0.96213 0.4957 0.51948 0.0
C2312 C 0.9722 0.48876 0.49938 0.0
H2313 H 0.47275 0.50735 0.5083 0.0
H2314 H 0.51205 0.55177 0.42579 0.0
H2315 H 0.52761 0.5356 0.4091 0.0
H2316 H 0.50234 0.49652 0.56537 0.0
H2317 H 0.48758 0.47324 0.56311 0.0
H2318 H 0.47902 0.48793 0.56601 0.0
H2319 H 0.46105 0.47401 0.48693 0.0
H2320 H 0.46969 0.45936 0.48357 0.0
H2321 H 0.47209 0.47324 0.43214 0.0
H2322 H 0.53928 0.51504 0.4031 0.0
H2323 H 0.5476 0.49244 0.41331 0.0
H2324 H 0.50096 0.46142 0.50088 0.0
C2325 C 0.48455 0.51365 0.48637 0.0
C2326 C 0.49112 0.53082 0.46814 0.0
C2327 C 0.50676 0.53865 0.44022 0.0
C2328 C 0.51564 0.52953 0.43028 0.0
C2329 C 0.50875 0.51262 0.44865 0.0
C2330 C 0.49365 0.50479 0.47642 0.0
C2331 C 0.48955 0.48685 0.49405 0.0
C2332 C 0.48963 0.4861 0.55047 0.0
C2333 C 0.47206 0.47252 0.4729 0.0
C2334 C 0.50483 0.48587 0.47226 0.0
C2335 C 0.51564 0.50081 0.44579 0.0
C2336 C 0.5309 0.50327 0.42362 0.0
C2337 C 0.53551 0.49034 0.42971 0.0
C2338 C 0.52495 0.47514 0.45799 0.0
C2339 C 0.5092 0.47276 0.47859 0.0
H2340 H 0.50932 0.03958 0.45737 0.0
H2341 H 0.55614 0.04162 0.51591 0.0
H2342 H 0.54026 0.00959 0.52337 0.0
H2343 H 0.4789 0.00524 0.53523 0.0
H2344 H 0.46227 0.99483 0.48881 0.0
H2345 H 0.47736 0.01801 0.48586 0.0
H2346 H 0.48645 0.01457 0.39801 0.0
H2347 H 0.47132 0.99138 0.4006 0.0
H2348 H 0.49408 0.99935 0.38722 0.0
H2349 H 0.51966 0.97794 0.52723 0.0
H2350 H 0.49542 0.94775 0.52595 0.0
H2351 H 0.4612 0.96523 0.46491 0.0
C2352 C 0.51628 0.03329 0.47133 0.0
C2353 C 0.53404 0.0432 0.48603 0.0
C2354 C 0.54259 0.03441 0.50444 0.0
C2355 C 0.53368 0.01619 0.50882 0.0
C2356 C 0.51621 0.00688 0.49461 0.0
C2357 C 0.50756 0.01503 0.47608 0.0
C2358 C 0.48861 0.00178 0.46443 0.0
C2359 C 0.47604 0.00517 0.49544 0.0
C2360 C 0.4849 0.00177 0.40928 0.0
C2361 C 0.48799 0.98495 0.4797 0.0
C2362 C 0.50412 0.98831 0.49686 0.0
C2363 C 0.50698 0.9751 0.51363 0.0
C2364 C 0.49304 0.95793 0.5127 0.0
C2365 C 0.4763 0.95397 0.49509 0.0
C2366 C 0.47379 0.96776 0.47847 0.0
H2367 H 0.53358 0.03849 0.96636 0.0
H2368 H 0.49261 0.04478 0.0351 0.0
H2369 H 0.47583 0.01316 0.05124 0.0
H2370 H 0.50483 0.99729 0.9076 0.0
H2371 H 0.51921 0.98857 0.91744 0.0
H2372 H 0.52815 0.01181 0.91141 0.0
H2373 H 0.54375 0.01654 0.99529 0.0
H2374 H 0.53471 0.99329 0.00178 0.0
H2375 H 0.53108 0.00544 0.04891 0.0
H2376 H 0.46337 0.9811 0.06017 0.0
H2377 H 0.45521 0.95007 0.05733 0.0
H2378 H 0.50409 0.96415 0.98316 0.0
C2379 C 0.52105 0.03323 0.98464 0.0
C2380 C 0.51447 0.04422 -0.00052 0.0
C2381 C 0.498 0.03673 0.02334 0.0
C2382 C 0.48836 0.01876 0.03286 0.0
C2383 C 0.49531 0.00838 0.01834 0.0
C2384 C 0.51121 0.01527 0.99449 0.0
C2385 C 0.51551 0.00108 0.98218 0.0
C2386 C 0.51701 0.9996 0.92634 0.0
C2387 C 0.53225 0.00428 0.00863 0.0
C2388 C 0.49949 0.98516 0.00268 0.0
C2389 C 0.48807 0.98973 0.02355 0.0
C2390 C 0.47221 0.97734 0.04399 0.0
C2391 C 0.4677 0.95973 0.04219 0.0
C2392 C 0.479 0.95463 0.02009 0.0
C2393 C 0.49524 0.96761 0.00079 0.0
H2394 H 0.96693 0.4897 0.95935 0.0
H2395 H 0.96167 0.43911 0.99189 0.0
H2396 H 0.99389 0.45272 0.99184 0.0
H2397 H 0.0056 0.50625 0.88038 0.0
H2398 H 0.01489 0.52818 0.90399 0.0
H2399 H 0.99148 0.51413 0.90201 0.0
H2400 H 0.98976 0.51894 0.99519 0.0
H2401 H 0.01314 0.53287 0.99758 0.0
H2402 H 0.00251 0.5141 0.03737 0.0
H2403 H 0.02657 0.47221 0.99394 0.0
H2404 H 0.05727 0.4958 0.99687 0.0
H2405 H 0.04116 0.53387 0.96414 0.0
C2406 C 0.97246 0.48133 0.96552 0.0
C2407 C 0.96167 0.46325 0.97532 0.0
C2408 C 0.96959 0.45295 0.98404 0.0
C2409 C 0.98789 0.46057 0.9841 0.0
C2410 C 0.99808 0.47849 0.97538 0.0
C2411 C 0.99064 0.48872 0.96604 0.0
C2412 C 0.00446 0.50783 0.96052 0.0
C2413 C 0.00408 0.51448 0.90863 0.0
C2414 C 0.00234 0.51909 2e-05 0.0
C2415 C 0.0209 0.50682 0.96881 0.0
C2416 C 0.01691 0.48976 0.97707 0.0
C2417 C 0.02984 0.48558 0.98715 0.0
C2418 C 0.04728 0.49915 0.98887 0.0
C2419 C 0.05174 0.51679 0.98068 0.0
C2420 C 0.03828 0.52057 0.9703 0.0
H2421 H 0.50635 0.47131 0.96789 0.0
H2422 H 0.53946 0.49893 0.09216 0.0
H2423 H 0.51925 0.50947 0.11509 0.0
H2424 H 0.49709 0.50523 0.9359 0.0
H2425 H 0.47497 0.49042 0.91644 0.0
H2426 H 0.49128 0.48393 0.91233 0.0
H2427 H 0.47154 0.45643 0.96444 0.0
H2428 H 0.45532 0.46306 0.96948 0.0
H2429 H 0.46424 0.45896 0.02409 0.0
H2430 H 0.49596 0.5172 0.12445 0.0
H2431 H 0.47398 0.52622 0.11178 0.0
H2432 H 0.4563 0.49509 0.97892 0.0
C2433 C 0.50927 0.47952 4e-05 0.0
C2434 C 0.52442 0.48423 0.0285 0.0
C2435 C 0.52798 0.49523 0.06978 0.0
C2436 C 0.51647 0.50111 0.08338 0.0
C2437 C 0.50154 0.49605 0.055 0.0
C2438 C 0.49808 0.48583 0.01358 0.0
C2439 C 0.48195 0.48366 0.98707 0.0
C2440 C 0.4866 0.49127 0.93486 0.0
C2441 C 0.4674 0.46438 0.98623 0.0
C2442 C 0.47701 0.49444 0.0198 0.0
C2443 C 0.48831 0.50111 0.05934 0.0
C2444 C 0.48701 0.51203 0.09376 0.0
C2445 C 0.47441 0.517 0.08637 0.0
C2446 C 0.46335 0.51124 0.04462 0.0
C2447 C 0.46427 0.49932 0.01178 0.0
loop_
_geom_bond_atom_site_label_1
_geom_bond_atom_site_label_2
_geom_bond_distance
_geom_bond_site_symmetry_2
_ccdc_geom_bond_type
Co0 O1 2.216 . S
Co0 O2 2.091 . S
Co0 O4 2.004 . S
Co0 O10 2.021 . S
Co0 O12 2.137 . S
Co0 O13 2.244 . S
O1 Co0 2.216 . S
O1 C8 1.247 . S
O2 Co0 2.091 . S
O2 C8 1.261 . S
C3 O12 1.247 . S
C3 O13 1.272 . S
O4 Co0 2.004 . S
O4 C9 1.259 . S
Co5 O6 2.061 . S
Co5 O11 2.052 . S
Co5 O13 2.135 . S
O6 Co5 2.061 . S
O6 C9 1.235 . S
C7 O10 1.238 . S
C7 O11 1.241 . S
C8 O1 1.247 . S
C8 O2 1.261 . S
C9 O4 1.259 . S
C9 O6 1.235 . S
O10 Co0 2.021 . S
O10 C7 1.238 . S
O11 Co5 2.052 . S
O11 C7 1.241 . S
O12 Co0 2.137 . S
O12 C3 1.247 . S
O13 Co0 2.244 . S
O13 C3 1.272 . S
O13 Co5 2.135 . S
Co14 O15 2.216 . S
Co14 O16 2.091 . S
Co14 O18 2.004 . S
Co14 O24 2.021 . S
Co14 O26 2.137 . S
Co14 O27 2.244 . S
O15 Co14 2.216 . S
O15 C22 1.247 . S
O16 Co14 2.091 . S
O16 C22 1.261 . S
C17 O26 1.247 . S
C17 O27 1.272 . S
O18 Co14 2.004 . S
O18 C23 1.259 . S
Co19 O20 2.061 . S
Co19 O25 2.052 . S
Co19 O27 2.135 . S
O20 Co19 2.061 . S
O20 C23 1.235 . S
C21 O24 1.238 . S
C21 O25 1.241 . S
C22 O15 1.247 . S
C22 O16 1.261 . S
C23 O18 1.259 . S
C23 O20 1.235 . S
O24 Co14 2.021 . S
O24 C21 1.238 . S
O25 Co19 2.052 . S
O25 C21 1.241 . S
O26 Co14 2.137 . S
O26 C17 1.247 . S
O27 Co14 2.244 . S
O27 C17 1.272 . S
O27 Co19 2.135 . S
Co28 O29 2.216 . S
Co28 O30 2.091 . S
Co28 O32 2.004 . S
Co28 O38 2.021 . S
Co28 O40 2.137 . S
Co28 O41 2.244 . S
O29 Co28 2.216 . S
O29 C36 1.247 . S
O30 Co28 2.091 . S
O30 C36 1.261 . S
C31 O40 1.247 . S
C31 O41 1.272 . S
O32 Co28 2.004 . S
O32 C37 1.259 . S
Co33 O34 2.061 . S
Co33 O39 2.052 . S
Co33 O41 2.135 . S
O34 Co33 2.061 . S
O34 C37 1.235 . S
C35 O38 1.238 . S
C35 O39 1.241 . S
C36 O29 1.247 . S
C36 O30 1.261 . S
C37 O32 1.259 . S
C37 O34 1.235 . S
O38 Co28 2.021 . S
O38 C35 1.238 . S
O39 Co33 2.052 . S
O39 C35 1.241 . S
O40 Co28 2.137 . S
O40 C31 1.247 . S
O41 Co28 2.244 . S
O41 C31 1.272 . S
O41 Co33 2.135 . S
Co42 O43 2.216 . S
Co42 O44 2.091 . S
Co42 O46 2.004 . S
Co42 O52 2.021 . S
Co42 O54 2.137 . S
Co42 O55 2.244 . S
O43 Co42 2.216 . S
O43 C50 1.247 . S
O44 Co42 2.091 . S
O44 C50 1.261 . S
C45 O54 1.247 . S
C45 O55 1.272 . S
O46 Co42 2.004 . S
O46 C51 1.259 . S
Co47 O48 2.061 . S
Co47 O53 2.052 . S
Co47 O55 2.135 . S
O48 Co47 2.061 . S
O48 C51 1.235 . S
C49 O52 1.238 . S
C49 O53 1.241 . S
C50 O43 1.247 . S
C50 O44 1.261 . S
C51 O46 1.259 . S
C51 O48 1.235 . S
O52 Co42 2.021 . S
O52 C49 1.238 . S
O53 Co47 2.052 . S
O53 C49 1.241 . S
O54 Co42 2.137 . S
O54 C45 1.247 . S
O55 Co42 2.244 . S
O55 C45 1.272 . S
O55 Co47 2.135 . S
Co56 O57 2.216 . S
Co56 O58 2.091 . S
Co56 O60 2.004 . S
Co56 O66 2.021 . S
Co56 O68 2.137 . S
Co56 O69 2.244 . S
O57 Co56 2.216 . S
O57 C64 1.247 . S
O58 Co56 2.091 . S
O58 C64 1.261 . S
C59 O68 1.247 . S
C59 O69 1.272 . S
O60 Co56 2.004 . S
O60 C65 1.259 . S
Co61 O62 2.061 . S
Co61 O67 2.052 . S
Co61 O69 2.135 . S
O62 Co61 2.061 . S
O62 C65 1.235 . S
C63 O66 1.238 . S
C63 O67 1.241 . S
C64 O57 1.247 . S
C64 O58 1.261 . S
C65 O60 1.259 . S
C65 O62 1.235 . S
O66 Co56 2.021 . S
O66 C63 1.238 . S
O67 Co61 2.052 . S
O67 C63 1.241 . S
O68 Co56 2.137 . S
O68 C59 1.247 . S
O69 Co56 2.244 . S
O69 C59 1.272 . S
O69 Co61 2.135 . S
Co70 O71 2.216 . S
Co70 O72 2.091 . S
Co70 O74 2.004 . S
Co70 O80 2.021 . S
Co70 O82 2.137 . S
Co70 O83 2.244 . S
O71 Co70 2.216 . S
O71 C78 1.247 . S
O72 Co70 2.091 . S
O72 C78 1.261 . S
C73 O82 1.247 . S
C73 O83 1.272 . S
O74 Co70 2.004 . S
O74 C79 1.259 . S
Co75 O76 2.061 . S
Co75 O81 2.052 . S
Co75 O83 2.135 . S
O76 Co75 2.061 . S
O76 C79 1.235 . S
C77 O80 1.238 . S
C77 O81 1.241 . S
C78 O71 1.247 . S
C78 O72 1.261 . S
C79 O74 1.259 . S
C79 O76 1.235 . S
O80 Co70 2.021 . S
O80 C77 1.238 . S
O81 Co75 2.052 . S
O81 C77 1.241 . S
O82 Co70 2.137 . S
O82 C73 1.247 . S
O83 Co70 2.244 . S
O83 C73 1.272 . S
O83 Co75 2.135 . S
Co84 O85 2.216 . S
Co84 O86 2.091 . S
Co84 O88 2.004 . S
Co84 O94 2.021 . S
Co84 O96 2.137 . S
Co84 O97 2.244 . S
O85 Co84 2.216 . S
O85 C92 1.247 . S
O86 Co84 2.091 . S
O86 C92 1.261 . S
C87 O96 1.247 . S
C87 O97 1.272 . S
O88 Co84 2.004 . S
O88 C93 1.259 . S
Co89 O90 2.061 . S
Co89 O95 2.052 . S
Co89 O97 2.135 . S
O90 Co89 2.061 . S
O90 C93 1.235 . S
C91 O94 1.238 . S
C91 O95 1.241 . S
C92 O85 1.247 . S
C92 O86 1.261 . S
C93 O88 1.259 . S
C93 O90 1.235 . S
O94 Co84 2.021 . S
O94 C91 1.238 . S
O95 Co89 2.052 . S
O95 C91 1.241 . S
O96 Co84 2.137 . S
O96 C87 1.247 . S
O97 Co84 2.244 . S
O97 C87 1.272 . S
O97 Co89 2.135 . S
Co98 O99 2.216 . S
Co98 O100 2.091 . S
Co98 O102 2.004 . S
Co98 O108 2.021 . S
Co98 O110 2.137 . S
Co98 O111 2.244 . S
O99 Co98 2.216 . S
O99 C106 1.247 . S
O100 Co98 2.091 . S
O100 C106 1.261 . S
C101 O110 1.247 . S
C101 O111 1.272 . S
O102 Co98 2.004 . S
O102 C107 1.259 . S
Co103 O104 2.061 . S
Co103 O109 2.052 . S
Co103 O111 2.135 . S
O104 Co103 2.061 . S
O104 C107 1.235 . S
C105 O108 1.238 . S
C105 O109 1.241 . S
C106 O99 1.247 . S
C106 O100 1.261 . S
C107 O102 1.259 . S
C107 O104 1.235 . S
O108 Co98 2.021 . S
O108 C105 1.238 . S
O109 Co103 2.052 . S
O109 C105 1.241 . S
O110 Co98 2.137 . S
O110 C101 1.247 . S
O111 Co98 2.244 . S
O111 C101 1.272 . S
O111 Co103 2.135 . S
Co112 O113 2.216 . S
Co112 O114 2.091 . S
Co112 O116 2.004 . S
Co112 O122 2.021 . S
Co112 O124 2.137 . S
Co112 O125 2.244 . S
O113 Co112 2.216 . S
O113 C120 1.247 . S
O114 Co112 2.091 . S
O114 C120 1.261 . S
C115 O124 1.247 . S
C115 O125 1.272 . S
O116 Co112 2.004 . S
O116 C121 1.259 . S
Co117 O118 2.061 . S
Co117 O123 2.052 . S
Co117 O125 2.135 . S
O118 Co117 2.061 . S
O118 C121 1.235 . S
C119 O122 1.238 . S
C119 O123 1.241 . S
C120 O113 1.247 . S
C120 O114 1.261 . S
C121 O116 1.259 . S
C121 O118 1.235 . S
O122 Co112 2.021 . S
O122 C119 1.238 . S
O123 Co117 2.052 . S
O123 C119 1.241 . S
O124 Co112 2.137 . S
O124 C115 1.247 . S
O125 Co112 2.244 . S
O125 C115 1.272 . S
O125 Co117 2.135 . S
Co126 O127 2.216 . S
Co126 O128 2.091 . S
Co126 O130 2.004 . S
Co126 O136 2.021 . S
Co126 O138 2.137 . S
Co126 O139 2.244 . S
O127 Co126 2.216 . S
O127 C134 1.247 . S
O128 Co126 2.091 . S
O128 C134 1.261 . S
C129 O138 1.247 . S
C129 O139 1.272 . S
O130 Co126 2.004 . S
O130 C135 1.259 . S
Co131 O132 2.061 . S
Co131 O137 2.052 . S
Co131 O139 2.135 . S
O132 Co131 2.061 . S
O132 C135 1.235 . S
C133 O136 1.238 . S
C133 O137 1.241 . S
C134 O127 1.247 . S
C134 O128 1.261 . S
C135 O130 1.259 . S
C135 O132 1.235 . S
O136 Co126 2.021 . S
O136 C133 1.238 . S
O137 Co131 2.052 . S
O137 C133 1.241 . S
O138 Co126 2.137 . S
O138 C129 1.247 . S
O139 Co126 2.244 . S
O139 C129 1.272 . S
O139 Co131 2.135 . S
Co140 O141 2.216 . S
Co140 O142 2.091 . S
Co140 O144 2.004 . S
Co140 O150 2.021 . S
Co140 O152 2.137 . S
Co140 O153 2.244 . S
O141 Co140 2.216 . S
O141 C148 1.247 . S
O142 Co140 2.091 . S
O142 C148 1.261 . S
C143 O152 1.247 . S
C143 O153 1.272 . S
O144 Co140 2.004 . S
O144 C149 1.259 . S
Co145 O146 2.061 . S
Co145 O151 2.052 . S
Co145 O153 2.135 . S
O146 Co145 2.061 . S
O146 C149 1.235 . S
C147 O150 1.238 . S
C147 O151 1.241 . S
C148 O141 1.247 . S
C148 O142 1.261 . S
C149 O144 1.259 . S
C149 O146 1.235 . S
O150 Co140 2.021 . S
O150 C147 1.238 . S
O151 Co145 2.052 . S
O151 C147 1.241 . S
O152 Co140 2.137 . S
O152 C143 1.247 . S
O153 Co140 2.244 . S
O153 C143 1.272 . S
O153 Co145 2.135 . S
Co154 O155 2.216 . S
Co154 O156 2.091 . S
Co154 O158 2.004 . S
Co154 O164 2.021 . S
Co154 O166 2.137 . S
Co154 O167 2.244 . S
O155 Co154 2.216 . S
O155 C162 1.247 . S
O156 Co154 2.091 . S
O156 C162 1.261 . S
C157 O166 1.247 . S
C157 O167 1.272 . S
O158 Co154 2.004 . S
O158 C163 1.259 . S
Co159 O160 2.061 . S
Co159 O165 2.052 . S
Co159 O167 2.135 . S
O160 Co159 2.061 . S
O160 C163 1.235 . S
C161 O164 1.238 . S
C161 O165 1.241 . S
C162 O155 1.247 . S
C162 O156 1.261 . S
C163 O158 1.259 . S
C163 O160 1.235 . S
O164 Co154 2.021 . S
O164 C161 1.238 . S
O165 Co159 2.052 . S
O165 C161 1.241 . S
O166 Co154 2.137 . S
O166 C157 1.247 . S
O167 Co154 2.244 . S
O167 C157 1.272 . S
O167 Co159 2.135 . S
Co168 O169 2.216 . S
Co168 O170 2.091 . S
Co168 O172 2.004 . S
Co168 O178 2.021 . S
Co168 O180 2.137 . S
Co168 O181 2.244 . S
O169 Co168 2.216 . S
O169 C176 1.247 . S
O170 Co168 2.091 . S
O170 C176 1.261 . S
C171 O180 1.247 . S
C171 O181 1.272 . S
O172 Co168 2.004 . S
O172 C177 1.259 . S
Co173 O174 2.061 . S
Co173 O179 2.052 . S
Co173 O181 2.135 . S
O174 Co173 2.061 . S
O174 C177 1.235 . S
C175 O178 1.238 . S
C175 O179 1.241 . S
C176 O169 1.247 . S
C176 O170 1.261 . S
C177 O172 1.259 . S
C177 O174 1.235 . S
O178 Co168 2.021 . S
O178 C175 1.238 . S
O179 Co173 2.052 . S
O179 C175 1.241 . S
O180 Co168 2.137 . S
O180 C171 1.247 . S
O181 Co168 2.244 . S
O181 C171 1.272 . S
O181 Co173 2.135 . S
Co182 O183 2.216 . S
Co182 O184 2.091 . S
Co182 O186 2.004 . S
Co182 O192 2.021 . S
Co182 O194 2.137 . S
Co182 O195 2.244 . S
O183 Co182 2.216 . S
O183 C190 1.247 . S
O184 Co182 2.091 . S
O184 C190 1.261 . S
C185 O194 1.247 . S
C185 O195 1.272 . S
O186 Co182 2.004 . S
O186 C191 1.259 . S
Co187 O188 2.061 . S
Co187 O193 2.052 . S
Co187 O195 2.135 . S
O188 Co187 2.061 . S
O188 C191 1.235 . S
C189 O192 1.238 . S
C189 O193 1.241 . S
C190 O183 1.247 . S
C190 O184 1.261 . S
C191 O186 1.259 . S
C191 O188 1.235 . S
O192 Co182 2.021 . S
O192 C189 1.238 . S
O193 Co187 2.052 . S
O193 C189 1.241 . S
O194 Co182 2.137 . S
O194 C185 1.247 . S
O195 Co182 2.244 . S
O195 C185 1.272 . S
O195 Co187 2.135 . S
Co196 O197 2.216 . S
Co196 O198 2.091 . S
Co196 O200 2.004 . S
Co196 O206 2.021 . S
Co196 O208 2.137 . S
Co196 O209 2.244 . S
O197 Co196 2.216 . S
O197 C204 1.247 . S
O198 Co196 2.091 . S
O198 C204 1.261 . S
C199 O208 1.247 . S
C199 O209 1.272 . S
O200 Co196 2.004 . S
O200 C205 1.259 . S
Co201 O202 2.061 . S
Co201 O207 2.052 . S
Co201 O209 2.135 . S
O202 Co201 2.061 . S
O202 C205 1.235 . S
C203 O206 1.238 . S
C203 O207 1.241 . S
C204 O197 1.247 . S
C204 O198 1.261 . S
C205 O200 1.259 . S
C205 O202 1.235 . S
O206 Co196 2.021 . S
O206 C203 1.238 . S
O207 Co201 2.052 . S
O207 C203 1.241 . S
O208 Co196 2.137 . S
O208 C199 1.247 . S
O209 Co196 2.244 . S
O209 C199 1.272 . S
O209 Co201 2.135 . S
Co210 O211 2.216 . S
Co210 O212 2.091 . S
Co210 O214 2.004 . S
Co210 O220 2.021 . S
Co210 O222 2.137 . S
Co210 O223 2.244 . S
O211 Co210 2.216 . S
O211 C218 1.247 . S
O212 Co210 2.091 . S
O212 C218 1.261 . S
C213 O222 1.247 . S
C213 O223 1.272 . S
O214 Co210 2.004 . S
O214 C219 1.259 . S
Co215 O216 2.061 . S
Co215 O221 2.052 . S
Co215 O223 2.135 . S
O216 Co215 2.061 . S
O216 C219 1.235 . S
C217 O220 1.238 . S
C217 O221 1.241 . S
C218 O211 1.247 . S
C218 O212 1.261 . S
C219 O214 1.259 . S
C219 O216 1.235 . S
O220 Co210 2.021 . S
O220 C217 1.238 . S
O221 Co215 2.052 . S
O221 C217 1.241 . S
O222 Co210 2.137 . S
O222 C213 1.247 . S
O223 Co210 2.244 . S
O223 C213 1.272 . S
O223 Co215 2.135 . S
Co224 O225 2.216 . S
Co224 O226 2.091 . S
Co224 O228 2.004 . S
Co224 O234 2.021 . S
Co224 O236 2.137 . S
Co224 O237 2.244 . S
O225 Co224 2.216 . S
O225 C232 1.247 . S
O226 Co224 2.091 . S
O226 C232 1.261 . S
C227 O236 1.247 . S
C227 O237 1.272 . S
O228 Co224 2.004 . S
O228 C233 1.259 . S
Co229 O230 2.061 . S
Co229 O235 2.052 . S
Co229 O237 2.135 . S
O230 Co229 2.061 . S
O230 C233 1.235 . S
C231 O234 1.238 . S
C231 O235 1.241 . S
C232 O225 1.247 . S
C232 O226 1.261 . S
C233 O228 1.259 . S
C233 O230 1.235 . S
O234 Co224 2.021 . S
O234 C231 1.238 . S
O235 Co229 2.052 . S
O235 C231 1.241 . S
O236 Co224 2.137 . S
O236 C227 1.247 . S
O237 Co224 2.244 . S
O237 C227 1.272 . S
O237 Co229 2.135 . S
Co238 O239 2.216 . S
Co238 O240 2.091 . S
Co238 O242 2.004 . S
Co238 O248 2.021 . S
Co238 O250 2.137 . S
Co238 O251 2.244 . S
O239 Co238 2.216 . S
O239 C246 1.247 . S
O240 Co238 2.091 . S
O240 C246 1.261 . S
C241 O250 1.247 . S
C241 O251 1.272 . S
O242 Co238 2.004 . S
O242 C247 1.259 . S
Co243 O244 2.061 . S
Co243 O249 2.052 . S
Co243 O251 2.135 . S
O244 Co243 2.061 . S
O244 C247 1.235 . S
C245 O248 1.238 . S
C245 O249 1.241 . S
C246 O239 1.247 . S
C246 O240 1.261 . S
C247 O242 1.259 . S
C247 O244 1.235 . S
O248 Co238 2.021 . S
O248 C245 1.238 . S
O249 Co243 2.052 . S
O249 C245 1.241 . S
O250 Co238 2.137 . S
O250 C241 1.247 . S
O251 Co238 2.244 . S
O251 C241 1.272 . S
O251 Co243 2.135 . S
Co252 O253 2.216 . S
Co252 O254 2.091 . S
Co252 O256 2.004 . S
Co252 O262 2.021 . S
Co252 O264 2.137 . S
Co252 O265 2.244 . S
O253 Co252 2.216 . S
O253 C260 1.247 . S
O254 Co252 2.091 . S
O254 C260 1.261 . S
C255 O264 1.247 . S
C255 O265 1.272 . S
O256 Co252 2.004 . S
O256 C261 1.259 . S
Co257 O258 2.061 . S
Co257 O263 2.052 . S
Co257 O265 2.135 . S
O258 Co257 2.061 . S
O258 C261 1.235 . S
C259 O262 1.238 . S
C259 O263 1.241 . S
C260 O253 1.247 . S
C260 O254 1.261 . S
C261 O256 1.259 . S
C261 O258 1.235 . S
O262 Co252 2.021 . S
O262 C259 1.238 . S
O263 Co257 2.052 . S
O263 C259 1.241 . S
O264 Co252 2.137 . S
O264 C255 1.247 . S
O265 Co252 2.244 . S
O265 C255 1.272 . S
O265 Co257 2.135 . S
Co266 O267 2.216 . S
Co266 O268 2.091 . S
Co266 O270 2.004 . S
Co266 O276 2.021 . S
Co266 O278 2.137 . S
Co266 O279 2.244 . S
O267 Co266 2.216 . S
O267 C274 1.247 . S
O268 Co266 2.091 . S
O268 C274 1.261 . S
C269 O278 1.247 . S
C269 O279 1.272 . S
O270 Co266 2.004 . S
O270 C275 1.259 . S
Co271 O272 2.061 . S
Co271 O277 2.052 . S
Co271 O279 2.135 . S
O272 Co271 2.061 . S
O272 C275 1.235 . S
C273 O276 1.238 . S
C273 O277 1.241 . S
C274 O267 1.247 . S
C274 O268 1.261 . S
C275 O270 1.259 . S
C275 O272 1.235 . S
O276 Co266 2.021 . S
O276 C273 1.238 . S
O277 Co271 2.052 . S
O277 C273 1.241 . S
O278 Co266 2.137 . S
O278 C269 1.247 . S
O279 Co266 2.244 . S
O279 C269 1.272 . S
O279 Co271 2.135 . S
Co280 O281 2.216 . S
Co280 O282 2.091 . S
Co280 O284 2.004 . S
Co280 O290 2.021 . S
Co280 O292 2.137 . S
Co280 O293 2.244 . S
O281 Co280 2.216 . S
O281 C288 1.247 . S
O282 Co280 2.091 . S
O282 C288 1.261 . S
C283 O292 1.247 . S
C283 O293 1.272 . S
O284 Co280 2.004 . S
O284 C289 1.259 . S
Co285 O286 2.061 . S
Co285 O291 2.052 . S
Co285 O293 2.135 . S
O286 Co285 2.061 . S
O286 C289 1.235 . S
C287 O290 1.238 . S
C287 O291 1.241 . S
C288 O281 1.247 . S
C288 O282 1.261 . S
C289 O284 1.259 . S
C289 O286 1.235 . S
O290 Co280 2.021 . S
O290 C287 1.238 . S
O291 Co285 2.052 . S
O291 C287 1.241 . S
O292 Co280 2.137 . S
O292 C283 1.247 . S
O293 Co280 2.244 . S
O293 C283 1.272 . S
O293 Co285 2.135 . S
Co294 O295 2.216 . S
Co294 O296 2.091 . S
Co294 O298 2.004 . S
Co294 O304 2.021 . S
Co294 O306 2.137 1_554 S
Co294 O307 2.244 1_554 S
O295 Co294 2.216 . S
O295 C302 1.247 . S
O296 Co294 2.091 . S
O296 C302 1.261 . S
C297 O306 1.247 . S
C297 O307 1.272 . S
O298 Co294 2.004 . S
O298 C303 1.259 . S
Co299 O300 2.061 . S
Co299 O305 2.052 . S
Co299 O307 2.135 1_554 S
O300 Co299 2.061 . S
O300 C303 1.235 . S
C301 O304 1.238 . S
C301 O305 1.241 . S
C302 O295 1.247 . S
C302 O296 1.261 . S
C303 O298 1.259 . S
C303 O300 1.235 . S
O304 Co294 2.021 . S
O304 C301 1.238 . S
O305 Co299 2.052 . S
O305 C301 1.241 . S
O306 Co294 2.137 1_556 S
O306 C297 1.247 . S
O307 Co294 2.244 1_556 S
O307 C297 1.272 . S
O307 Co299 2.135 1_556 S
Co308 O309 2.216 . S
Co308 O310 2.091 . S
Co308 O312 2.004 . S
Co308 O318 2.021 . S
Co308 O320 2.137 1_554 S
Co308 O321 2.244 1_554 S
O309 Co308 2.216 . S
O309 C316 1.247 . S
O310 Co308 2.091 . S
O310 C316 1.261 . S
C311 O320 1.247 . S
C311 O321 1.272 . S
O312 Co308 2.004 . S
O312 C317 1.259 . S
Co313 O314 2.061 . S
Co313 O319 2.052 . S
Co313 O321 2.135 1_554 S
O314 Co313 2.061 . S
O314 C317 1.235 . S
C315 O318 1.238 . S
C315 O319 1.241 . S
C316 O309 1.247 . S
C316 O310 1.261 . S
C317 O312 1.259 . S
C317 O314 1.235 . S
O318 Co308 2.021 . S
O318 C315 1.238 . S
O319 Co313 2.052 . S
O319 C315 1.241 . S
O320 Co308 2.137 1_556 S
O320 C311 1.247 . S
O321 Co308 2.244 1_556 S
O321 C311 1.272 . S
O321 Co313 2.135 1_556 S
Co322 O323 2.216 . S
Co322 O324 2.091 . S
Co322 O326 2.004 . S
Co322 O332 2.021 . S
Co322 O334 2.137 1_554 S
Co322 O335 2.244 1_554 S
O323 Co322 2.216 . S
O323 C330 1.247 . S
O324 Co322 2.091 . S
O324 C330 1.261 . S
C325 O334 1.247 . S
C325 O335 1.272 . S
O326 Co322 2.004 . S
O326 C331 1.259 . S
Co327 O328 2.061 . S
Co327 O333 2.052 . S
Co327 O335 2.135 1_554 S
O328 Co327 2.061 . S
O328 C331 1.235 . S
C329 O332 1.238 . S
C329 O333 1.241 . S
C330 O323 1.247 . S
C330 O324 1.261 . S
C331 O326 1.259 . S
C331 O328 1.235 . S
O332 Co322 2.021 . S
O332 C329 1.238 . S
O333 Co327 2.052 . S
O333 C329 1.241 . S
O334 Co322 2.137 1_556 S
O334 C325 1.247 . S
O335 Co322 2.244 1_556 S
O335 C325 1.272 . S
O335 Co327 2.135 1_556 S
Co336 O337 2.216 . S
Co336 O338 2.091 . S
Co336 O340 2.004 . S
Co336 O346 2.021 . S
Co336 O348 2.137 . S
Co336 O349 2.244 . S
O337 Co336 2.216 . S
O337 C344 1.247 . S
O338 Co336 2.091 . S
O338 C344 1.261 . S
C339 O348 1.247 . S
C339 O349 1.272 . S
O340 Co336 2.004 . S
O340 C345 1.259 . S
Co341 O342 2.061 . S
Co341 O347 2.052 . S
Co341 O349 2.135 . S
O342 Co341 2.061 . S
O342 C345 1.235 . S
C343 O346 1.238 . S
C343 O347 1.241 . S
C344 O337 1.247 . S
C344 O338 1.261 . S
C345 O340 1.259 . S
C345 O342 1.235 . S
O346 Co336 2.021 . S
O346 C343 1.238 . S
O347 Co341 2.052 . S
O347 C343 1.241 . S
O348 Co336 2.137 . S
O348 C339 1.247 . S
O349 Co336 2.244 . S
O349 C339 1.272 . S
O349 Co341 2.135 . S
Co350 O351 2.216 . S
Co350 O352 2.091 . S
Co350 O354 2.004 . S
Co350 O360 2.021 . S
Co350 O362 2.137 . S
Co350 O363 2.244 . S
O351 Co350 2.216 . S
O351 C358 1.247 . S
O352 Co350 2.091 . S
O352 C358 1.261 . S
C353 O362 1.247 . S
C353 O363 1.272 . S
O354 Co350 2.004 . S
O354 C359 1.259 . S
Co355 O356 2.061 . S
Co355 O361 2.052 . S
Co355 O363 2.135 . S
O356 Co355 2.061 . S
O356 C359 1.235 . S
C357 O360 1.238 . S
C357 O361 1.241 . S
C358 O351 1.247 . S
C358 O352 1.261 . S
C359 O354 1.259 . S
C359 O356 1.235 . S
O360 Co350 2.021 . S
O360 C357 1.238 . S
O361 Co355 2.052 . S
O361 C357 1.241 . S
O362 Co350 2.137 . S
O362 C353 1.247 . S
O363 Co350 2.244 . S
O363 C353 1.272 . S
O363 Co355 2.135 . S
Co364 O365 2.216 . S
Co364 O366 2.091 . S
Co364 O368 2.004 . S
Co364 O374 2.021 . S
Co364 O376 2.137 . S
Co364 O377 2.244 . S
O365 Co364 2.216 . S
O365 C372 1.247 . S
O366 Co364 2.091 . S
O366 C372 1.261 . S
C367 O376 1.247 . S
C367 O377 1.272 . S
O368 Co364 2.004 . S
O368 C373 1.259 . S
Co369 O370 2.061 . S
Co369 O375 2.052 . S
Co369 O377 2.135 . S
O370 Co369 2.061 . S
O370 C373 1.235 . S
C371 O374 1.238 . S
C371 O375 1.241 . S
C372 O365 1.247 . S
C372 O366 1.261 . S
C373 O368 1.259 . S
C373 O370 1.235 . S
O374 Co364 2.021 . S
O374 C371 1.238 . S
O375 Co369 2.052 . S
O375 C371 1.241 . S
O376 Co364 2.137 . S
O376 C367 1.247 . S
O377 Co364 2.244 . S
O377 C367 1.272 . S
O377 Co369 2.135 . S
Co378 O379 2.216 . S
Co378 O380 2.091 . S
Co378 O382 2.004 . S
Co378 O388 2.021 . S
Co378 O390 2.137 1_556 S
Co378 O391 2.244 1_556 S
O379 Co378 2.216 . S
O379 C386 1.247 . S
O380 Co378 2.091 . S
O380 C386 1.261 . S
C381 O390 1.247 . S
C381 O391 1.272 . S
O382 Co378 2.004 . S
O382 C387 1.259 . S
Co383 O384 2.061 . S
Co383 O389 2.052 . S
Co383 O391 2.135 1_556 S
O384 Co383 2.061 . S
O384 C387 1.235 . S
C385 O388 1.238 . S
C385 O389 1.241 . S
C386 O379 1.247 . S
C386 O380 1.261 . S
C387 O382 1.259 . S
C387 O384 1.235 . S
O388 Co378 2.021 . S
O388 C385 1.238 . S
O389 Co383 2.052 . S
O389 C385 1.241 . S
O390 Co378 2.137 1_554 S
O390 C381 1.247 . S
O391 Co378 2.244 1_554 S
O391 C381 1.272 . S
O391 Co383 2.135 1_554 S
Co392 O393 2.216 . S
Co392 O394 2.091 . S
Co392 O396 2.004 . S
Co392 O402 2.021 . S
Co392 O404 2.137 1_556 S
Co392 O405 2.244 1_556 S
O393 Co392 2.216 . S
O393 C400 1.247 . S
O394 Co392 2.091 . S
O394 C400 1.261 . S
C395 O404 1.247 . S
C395 O405 1.272 . S
O396 Co392 2.004 . S
O396 C401 1.259 . S
Co397 O398 2.061 . S
Co397 O403 2.052 . S
Co397 O405 2.135 1_556 S
O398 Co397 2.061 . S
O398 C401 1.235 . S
C399 O402 1.238 . S
C399 O403 1.241 . S
C400 O393 1.247 . S
C400 O394 1.261 . S
C401 O396 1.259 . S
C401 O398 1.235 . S
O402 Co392 2.021 . S
O402 C399 1.238 . S
O403 Co397 2.052 . S
O403 C399 1.241 . S
O404 Co392 2.137 1_554 S
O404 C395 1.247 . S
O405 Co392 2.244 1_554 S
O405 C395 1.272 . S
O405 Co397 2.135 1_554 S
Co406 O407 2.216 . S
Co406 O408 2.091 . S
Co406 O410 2.004 . S
Co406 O416 2.021 . S
Co406 O418 2.137 1_556 S
Co406 O419 2.244 1_556 S
O407 Co406 2.216 . S
O407 C414 1.247 . S
O408 Co406 2.091 . S
O408 C414 1.261 . S
C409 O418 1.247 . S
C409 O419 1.272 . S
O410 Co406 2.004 . S
O410 C415 1.259 . S
Co411 O412 2.061 . S
Co411 O417 2.052 . S
Co411 O419 2.135 1_556 S
O412 Co411 2.061 . S
O412 C415 1.235 . S
C413 O416 1.238 . S
C413 O417 1.241 . S
C414 O407 1.247 . S
C414 O408 1.261 . S
C415 O410 1.259 . S
C415 O412 1.235 . S
O416 Co406 2.021 . S
O416 C413 1.238 . S
O417 Co411 2.052 . S
O417 C413 1.241 . S
O418 Co406 2.137 1_554 S
O418 C409 1.247 . S
O419 Co406 2.244 1_554 S
O419 C409 1.272 . S
O419 Co411 2.135 1_554 S
Co420 O421 2.216 . S
Co420 O422 2.091 . S
Co420 O424 2.004 . S
Co420 O430 2.021 . S
Co420 O432 2.137 . S
Co420 O433 2.244 . S
O421 Co420 2.216 . S
O421 C428 1.247 . S
O422 Co420 2.091 . S
O422 C428 1.261 . S
C423 O432 1.247 . S
C423 O433 1.272 . S
O424 Co420 2.004 . S
O424 C429 1.259 . S
Co425 O426 2.061 . S
Co425 O431 2.052 . S
Co425 O433 2.135 . S
O426 Co425 2.061 . S
O426 C429 1.235 . S
C427 O430 1.238 . S
C427 O431 1.241 . S
C428 O421 1.247 . S
C428 O422 1.261 . S
C429 O424 1.259 . S
C429 O426 1.235 . S
O430 Co420 2.021 . S
O430 C427 1.238 . S
O431 Co425 2.052 . S
O431 C427 1.241 . S
O432 Co420 2.137 . S
O432 C423 1.247 . S
O433 Co420 2.244 . S
O433 C423 1.272 . S
O433 Co425 2.135 . S
Co434 O435 2.216 . S
Co434 O436 2.091 . S
Co434 O438 2.004 . S
Co434 O444 2.021 . S
Co434 O446 2.137 . S
Co434 O447 2.244 . S
O435 Co434 2.216 . S
O435 C442 1.247 . S
O436 Co434 2.091 . S
O436 C442 1.261 . S
C437 O446 1.247 . S
C437 O447 1.272 . S
O438 Co434 2.004 . S
O438 C443 1.259 . S
Co439 O440 2.061 . S
Co439 O445 2.052 . S
Co439 O447 2.135 . S
O440 Co439 2.061 . S
O440 C443 1.235 . S
C441 O444 1.238 . S
C441 O445 1.241 . S
C442 O435 1.247 . S
C442 O436 1.261 . S
C443 O438 1.259 . S
C443 O440 1.235 . S
O444 Co434 2.021 . S
O444 C441 1.238 . S
O445 Co439 2.052 . S
O445 C441 1.241 . S
O446 Co434 2.137 . S
O446 C437 1.247 . S
O447 Co434 2.244 . S
O447 C437 1.272 . S
O447 Co439 2.135 . S
Co448 O449 2.216 . S
Co448 O450 2.091 . S
Co448 O452 2.004 . S
Co448 O458 2.021 . S
Co448 O460 2.137 . S
Co448 O461 2.244 . S
O449 Co448 2.216 . S
O449 C456 1.247 . S
O450 Co448 2.091 . S
O450 C456 1.261 . S
C451 O460 1.247 . S
C451 O461 1.272 . S
O452 Co448 2.004 . S
O452 C457 1.259 . S
Co453 O454 2.061 . S
Co453 O459 2.052 . S
Co453 O461 2.135 . S
O454 Co453 2.061 . S
O454 C457 1.235 . S
C455 O458 1.238 . S
C455 O459 1.241 . S
C456 O449 1.247 . S
C456 O450 1.261 . S
C457 O452 1.259 . S
C457 O454 1.235 . S
O458 Co448 2.021 . S
O458 C455 1.238 . S
O459 Co453 2.052 . S
O459 C455 1.241 . S
O460 Co448 2.137 . S
O460 C451 1.247 . S
O461 Co448 2.244 . S
O461 C451 1.272 . S
O461 Co453 2.135 . S
Co462 O463 2.216 . S
Co462 O464 2.091 . S
Co462 O466 2.004 . S
Co462 O472 2.021 . S
Co462 O474 2.137 . S
Co462 O475 2.244 . S
O463 Co462 2.216 . S
O463 C470 1.247 . S
O464 Co462 2.091 . S
O464 C470 1.261 . S
C465 O474 1.247 . S
C465 O475 1.272 . S
O466 Co462 2.004 . S
O466 C471 1.259 . S
Co467 O468 2.061 . S
Co467 O473 2.052 . S
Co467 O475 2.135 . S
O468 Co467 2.061 . S
O468 C471 1.235 . S
C469 O472 1.238 . S
C469 O473 1.241 . S
C470 O463 1.247 . S
C470 O464 1.261 . S
C471 O466 1.259 . S
C471 O468 1.235 . S
O472 Co462 2.021 . S
O472 C469 1.238 . S
O473 Co467 2.052 . S
O473 C469 1.241 . S
O474 Co462 2.137 . S
O474 C465 1.247 . S
O475 Co462 2.244 . S
O475 C465 1.272 . S
O475 Co467 2.135 . S
Co476 O477 2.216 . S
Co476 O478 2.091 . S
Co476 O480 2.004 . S
Co476 O486 2.021 . S
Co476 O488 2.137 . S
Co476 O489 2.244 . S
O477 Co476 2.216 . S
O477 C484 1.247 . S
O478 Co476 2.091 . S
O478 C484 1.261 . S
C479 O488 1.247 . S
C479 O489 1.272 . S
O480 Co476 2.004 . S
O480 C485 1.259 . S
Co481 O482 2.061 . S
Co481 O487 2.052 . S
Co481 O489 2.135 . S
O482 Co481 2.061 . S
O482 C485 1.235 . S
C483 O486 1.238 . S
C483 O487 1.241 . S
C484 O477 1.247 . S
C484 O478 1.261 . S
C485 O480 1.259 . S
C485 O482 1.235 . S
O486 Co476 2.021 . S
O486 C483 1.238 . S
O487 Co481 2.052 . S
O487 C483 1.241 . S
O488 Co476 2.137 . S
O488 C479 1.247 . S
O489 Co476 2.244 . S
O489 C479 1.272 . S
O489 Co481 2.135 . S
Co490 O491 2.216 . S
Co490 O492 2.091 . S
Co490 O494 2.004 . S
Co490 O500 2.021 . S
Co490 O502 2.137 . S
Co490 O503 2.244 . S
O491 Co490 2.216 . S
O491 C498 1.247 . S
O492 Co490 2.091 . S
O492 C498 1.261 . S
C493 O502 1.247 . S
C493 O503 1.272 . S
O494 Co490 2.004 . S
O494 C499 1.259 . S
Co495 O496 2.061 . S
Co495 O501 2.052 . S
Co495 O503 2.135 . S
O496 Co495 2.061 . S
O496 C499 1.235 . S
C497 O500 1.238 . S
C497 O501 1.241 . S
C498 O491 1.247 . S
C498 O492 1.261 . S
C499 O494 1.259 . S
C499 O496 1.235 . S
O500 Co490 2.021 . S
O500 C497 1.238 . S
O501 Co495 2.052 . S
O501 C497 1.241 . S
O502 Co490 2.137 . S
O502 C493 1.247 . S
O503 Co490 2.244 . S
O503 C493 1.272 . S
O503 Co495 2.135 . S
H504 C516 0.930 . S
H505 C518 0.930 . S
H506 C519 0.930 . S
H507 C523 0.959 . S
H508 C523 0.959 . S
H509 C523 0.961 . S
H510 C524 0.960 . S
H511 C524 0.961 . S
H512 C524 0.959 . S
H513 C527 0.929 . S
H514 C528 0.931 . S
H515 C530 0.930 . S
C516 H504 0.930 . S
C516 C517 1.399 . S
C516 C521 1.399 . S
C517 C516 1.399 . S
C517 C518 1.376 . S
C518 H505 0.930 . S
C518 C517 1.376 . S
C518 C519 1.388 . S
C519 H506 0.930 . S
C519 C518 1.388 . S
C519 C520 1.390 . S
C520 C519 1.390 . S
C520 C521 1.394 . S
C520 C526 1.465 . S
C521 C516 1.399 . S
C521 C520 1.394 . S
C521 C522 1.516 . S
C522 C521 1.516 . S
C522 C523 1.502 . S
C522 C524 1.561 . S
C522 C525 1.526 1_556 S
C523 H507 0.959 . S
C523 H508 0.959 . S
C523 H509 0.961 . S
C523 C522 1.502 . S
C524 H510 0.960 . S
C524 H511 0.961 . S
C524 H512 0.959 . S
C524 C522 1.561 . S
C525 C522 1.526 1_554 S
C525 C526 1.396 1_554 S
C525 C530 1.390 . S
C526 C520 1.465 . S
C526 C525 1.396 1_556 S
C526 C527 1.399 1_556 S
C527 H513 0.929 . S
C527 C526 1.399 1_554 S
C527 C528 1.385 . S
C528 H514 0.931 . S
C528 C527 1.385 . S
C528 C529 1.389 . S
C529 C528 1.389 . S
C529 C530 1.387 . S
C530 H515 0.930 . S
C530 C525 1.390 . S
C530 C529 1.387 . S
H531 C543 0.930 . S
H532 C545 0.930 . S
H533 C546 0.930 . S
H534 C550 0.959 . S
H535 C550 0.964 . S
H536 C550 0.961 . S
H537 C551 0.960 . S
H538 C551 0.961 . S
H539 C551 0.959 . S
H540 C554 0.929 1_556 S
H541 C555 0.931 . S
H542 C557 0.930 . S
C543 H531 0.930 . S
C543 C544 1.399 . S
C543 C548 1.399 . S
C544 C543 1.399 . S
C544 C545 1.376 . S
C545 H532 0.930 . S
C545 C544 1.376 . S
C545 C546 1.388 . S
C546 H533 0.930 . S
C546 C545 1.388 . S
C546 C547 1.390 . S
C547 C546 1.390 . S
C547 C548 1.394 . S
C547 C553 1.465 . S
C548 C543 1.399 . S
C548 C547 1.394 . S
C548 C549 1.516 . S
C549 C548 1.516 . S
C549 C550 1.502 . S
C549 C551 1.561 . S
C549 C552 1.526 1_556 S
C550 H534 0.959 . S
C550 H535 0.964 . S
C550 H536 0.961 . S
C550 C549 1.502 . S
C551 H537 0.960 . S
C551 H538 0.961 . S
C551 H539 0.959 . S
C551 C549 1.561 . S
C552 C549 1.526 1_554 S
C552 C553 1.396 1_554 S
C552 C557 1.390 . S
C553 C547 1.465 . S
C553 C552 1.396 1_556 S
C553 C554 1.399 1_556 S
C554 H540 0.929 1_554 S
C554 C553 1.399 1_554 S
C554 C555 1.385 . S
C555 H541 0.931 . S
C555 C554 1.385 . S
C555 C556 1.389 . S
C556 C555 1.389 . S
C556 C557 1.387 . S
C557 H542 0.930 . S
C557 C552 1.390 . S
C557 C556 1.387 . S
H558 C570 0.930 . S
H559 C572 0.930 . S
H560 C573 0.930 . S
H561 C577 0.959 . S
H562 C577 0.959 . S
H563 C577 0.961 . S
H564 C578 0.960 . S
H565 C578 0.961 . S
H566 C578 0.959 . S
H567 C581 0.929 . S
H568 C582 0.931 . S
H569 C584 0.930 . S
C570 H558 0.930 . S
C570 C571 1.399 . S
C570 C575 1.398 1_554 S
C571 C570 1.399 . S
C571 C572 1.376 . S
C572 H559 0.930 . S
C572 C571 1.376 . S
C572 C573 1.388 . S
C573 H560 0.930 . S
C573 C572 1.388 . S
C573 C574 1.390 1_554 S
C574 C573 1.390 1_556 S
C574 C575 1.394 . S
C574 C580 1.465 . S
C575 C570 1.398 1_556 S
C575 C574 1.394 . S
C575 C576 1.517 . S
C576 C575 1.517 . S
C576 C577 1.502 . S
C576 C578 1.561 . S
C576 C579 1.526 . S
C577 H561 0.959 . S
C577 H562 0.959 . S
C577 H563 0.961 . S
C577 C576 1.502 . S
C578 H564 0.960 . S
C578 H565 0.961 . S
C578 H566 0.959 . S
C578 C576 1.561 . S
C579 C576 1.526 . S
C579 C580 1.396 . S
C579 C584 1.390 . S
C580 C574 1.465 . S
C580 C579 1.396 . S
C580 C581 1.399 . S
C581 H567 0.929 . S
C581 C580 1.399 . S
C581 C582 1.385 . S
C582 H568 0.931 . S
C582 C581 1.385 . S
C582 C583 1.389 . S
C583 C582 1.389 . S
C583 C584 1.387 . S
C584 H569 0.930 . S
C584 C579 1.390 . S
C584 C583 1.387 . S
H585 C597 0.930 . S
H586 C599 0.930 . S
H587 C600 0.930 . S
H588 C604 0.959 . S
H589 C604 0.959 . S
H590 C604 0.961 . S
H591 C605 0.960 . S
H592 C605 0.961 . S
H593 C605 0.959 . S
H594 C608 0.929 . S
H595 C609 0.931 . S
H596 C611 0.930 . S
C597 H585 0.930 . S
C597 C598 1.399 . S
C597 C602 1.399 . S
C598 C597 1.399 . S
C598 C599 1.376 . S
C599 H586 0.930 . S
C599 C598 1.376 . S
C599 C600 1.388 . S
C600 H587 0.930 . S
C600 C599 1.388 . S
C600 C601 1.390 . S
C601 C600 1.390 . S
C601 C602 1.394 . S
C601 C607 1.465 . S
C602 C597 1.399 . S
C602 C601 1.394 . S
C602 C603 1.516 . S
C603 C602 1.516 . S
C603 C604 1.502 . S
C603 C605 1.561 . S
C603 C606 1.526 . S
C604 H588 0.959 . S
C604 H589 0.959 . S
C604 H590 0.961 . S
C604 C603 1.502 . S
C605 H591 0.960 . S
C605 H592 0.961 . S
C605 H593 0.959 . S
C605 C603 1.561 . S
C606 C603 1.526 . S
C606 C607 1.396 . S
C606 C611 1.390 . S
C607 C601 1.465 . S
C607 C606 1.396 . S
C607 C608 1.399 . S
C608 H594 0.929 . S
C608 C607 1.399 . S
C608 C609 1.385 . S
C609 H595 0.931 . S
C609 C608 1.385 . S
C609 C610 1.389 . S
C610 C609 1.389 . S
C610 C611 1.387 . S
C611 H596 0.930 . S
C611 C606 1.390 . S
C611 C610 1.387 . S
H612 C624 0.930 . S
H613 C626 0.930 . S
H614 C627 0.930 . S
H615 C631 0.959 . S
H616 C631 0.959 . S
H617 C631 0.961 . S
H618 C632 0.960 . S
H619 C632 0.961 . S
H620 C632 0.959 . S
H621 C635 0.929 . S
H622 C636 0.931 . S
H623 C638 0.930 . S
C624 H612 0.930 . S
C624 C625 1.399 . S
C624 C629 1.399 . S
C625 C624 1.399 . S
C625 C626 1.376 . S
C626 H613 0.930 . S
C626 C625 1.376 . S
C626 C627 1.388 . S
C627 H614 0.930 . S
C627 C626 1.388 . S
C627 C628 1.390 . S
C628 C627 1.390 . S
C628 C629 1.394 . S
C628 C634 1.465 . S
C629 C624 1.399 . S
C629 C628 1.394 . S
C629 C630 1.516 . S
C630 C629 1.516 . S
C630 C631 1.502 . S
C630 C632 1.561 . S
C630 C633 1.526 . S
C631 H615 0.959 . S
C631 H616 0.959 . S
C631 H617 0.961 . S
C631 C630 1.502 . S
C632 H618 0.960 . S
C632 H619 0.961 . S
C632 H620 0.959 . S
C632 C630 1.561 . S
C633 C630 1.526 . S
C633 C634 1.396 . S
C633 C638 1.390 . S
C634 C628 1.465 . S
C634 C633 1.396 . S
C634 C635 1.399 . S
C635 H621 0.929 . S
C635 C634 1.399 . S
C635 C636 1.385 . S
C636 H622 0.931 . S
C636 C635 1.385 . S
C636 C637 1.389 . S
C637 C636 1.389 . S
C637 C638 1.387 . S
C638 H623 0.930 . S
C638 C633 1.390 . S
C638 C637 1.387 . S
H639 C651 0.930 . S
H640 C653 0.930 . S
H641 C654 0.930 . S
H642 C658 0.959 . S
H643 C658 0.959 . S
H644 C658 0.961 . S
H645 C659 0.960 . S
H646 C659 0.961 . S
H647 C659 0.959 . S
H648 C662 0.929 . S
H649 C663 0.931 . S
H650 C665 0.930 . S
C651 H639 0.930 . S
C651 C652 1.399 . S
C651 C656 1.399 . S
C652 C651 1.399 . S
C652 C653 1.376 . S
C653 H640 0.930 . S
C653 C652 1.376 . S
C653 C654 1.388 . S
C654 H641 0.930 . S
C654 C653 1.388 . S
C654 C655 1.390 . S
C655 C654 1.390 . S
C655 C656 1.394 . S
C655 C661 1.465 . S
C656 C651 1.399 . S
C656 C655 1.394 . S
C656 C657 1.516 . S
C657 C656 1.516 . S
C657 C658 1.502 . S
C657 C659 1.561 . S
C657 C660 1.526 . S
C658 H642 0.959 . S
C658 H643 0.959 . S
C658 H644 0.961 . S
C658 C657 1.502 . S
C659 H645 0.960 . S
C659 H646 0.961 . S
C659 H647 0.959 . S
C659 C657 1.561 . S
C660 C657 1.526 . S
C660 C661 1.396 . S
C660 C665 1.390 . S
C661 C655 1.465 . S
C661 C660 1.396 . S
C661 C662 1.399 . S
C662 H648 0.929 . S
C662 C661 1.399 . S
C662 C663 1.385 . S
C663 H649 0.931 . S
C663 C662 1.385 . S
C663 C664 1.389 . S
C664 C663 1.389 . S
C664 C665 1.387 . S
C665 H650 0.930 . S
C665 C660 1.390 . S
C665 C664 1.387 . S
H666 C678 0.930 . S
H667 C680 0.930 . S
H668 C681 0.930 . S
H669 C685 0.959 . S
H670 C685 0.959 . S
H671 C685 0.961 . S
H672 C686 0.960 . S
H673 C686 0.961 . S
H674 C686 0.959 . S
H675 C689 0.929 1_554 S
H676 C690 0.931 . S
H677 C692 0.930 . S
C678 H666 0.930 . S
C678 C679 1.399 . S
C678 C683 1.399 . S
C679 C678 1.399 . S
C679 C680 1.376 . S
C680 H667 0.930 . S
C680 C679 1.376 . S
C680 C681 1.388 . S
C681 H668 0.930 . S
C681 C680 1.388 . S
C681 C682 1.390 . S
C682 C681 1.390 . S
C682 C683 1.394 . S
C682 C688 1.465 . S
C683 C678 1.399 . S
C683 C682 1.394 . S
C683 C684 1.516 . S
C684 C683 1.516 . S
C684 C685 1.502 . S
C684 C686 1.561 . S
C684 C687 1.526 1_554 S
C685 H669 0.959 . S
C685 H670 0.959 . S
C685 H671 0.961 . S
C685 C684 1.502 . S
C686 H672 0.960 . S
C686 H673 0.961 . S
C686 H674 0.959 . S
C686 C684 1.561 . S
C687 C684 1.526 1_556 S
C687 C688 1.396 1_556 S
C687 C692 1.390 . S
C688 C682 1.465 . S
C688 C687 1.396 1_554 S
C688 C689 1.399 1_554 S
C689 H675 0.929 1_556 S
C689 C688 1.399 1_556 S
C689 C690 1.385 . S
C690 H676 0.931 . S
C690 C689 1.385 . S
C690 C691 1.389 . S
C691 C690 1.389 . S
C691 C692 1.387 . S
C692 H677 0.930 . S
C692 C687 1.390 . S
C692 C691 1.387 . S
H693 C705 0.930 . S
H694 C707 0.930 . S
H695 C708 0.930 . S
H696 C712 0.959 . S
H697 C712 0.959 . S
H698 C712 0.961 . S
H699 C713 0.960 . S
H700 C713 0.961 . S
H701 C713 0.959 . S
H702 C716 0.929 . S
H703 C717 0.931 . S
H704 C719 0.930 . S
C705 H693 0.930 . S
C705 C706 1.399 . S
C705 C710 1.399 . S
C706 C705 1.399 . S
C706 C707 1.376 . S
C707 H694 0.930 . S
C707 C706 1.376 . S
C707 C708 1.388 . S
C708 H695 0.930 . S
C708 C707 1.388 . S
C708 C709 1.390 . S
C709 C708 1.390 . S
C709 C710 1.394 . S
C709 C715 1.465 . S
C710 C705 1.399 . S
C710 C709 1.394 . S
C710 C711 1.516 . S
C711 C710 1.516 . S
C711 C712 1.502 . S
C711 C713 1.561 . S
C711 C714 1.526 . S
C712 H696 0.959 . S
C712 H697 0.959 . S
C712 H698 0.961 . S
C712 C711 1.502 . S
C713 H699 0.960 . S
C713 H700 0.961 . S
C713 H701 0.959 . S
C713 C711 1.561 . S
C714 C711 1.526 . S
C714 C715 1.396 . S
C714 C719 1.390 1_554 S
C715 C709 1.465 . S
C715 C714 1.396 . S
C715 C716 1.399 1_554 S
C716 H702 0.929 . S
C716 C715 1.399 1_556 S
C716 C717 1.385 . S
C717 H703 0.931 . S
C717 C716 1.385 . S
C717 C718 1.389 . S
C718 C717 1.389 . S
C718 C719 1.387 . S
C719 H704 0.930 . S
C719 C714 1.390 1_556 S
C719 C718 1.387 . S
H720 C732 0.930 . S
H721 C734 0.930 . S
H722 C735 0.930 1_554 S
H723 C739 0.959 . S
H724 C739 0.959 . S
H725 C739 0.972 . S
H726 C740 0.960 . S
H727 C740 0.961 . S
H728 C740 0.959 . S
H729 C743 0.929 . S
H730 C744 0.931 . S
H731 C746 0.930 . S
C732 H720 0.930 . S
C732 C733 1.399 . S
C732 C737 1.399 . S
C733 C732 1.399 . S
C733 C734 1.376 . S
C734 H721 0.930 . S
C734 C733 1.376 . S
C734 C735 1.388 . S
C735 H722 0.930 1_556 S
C735 C734 1.388 . S
C735 C736 1.390 1_556 S
C736 C735 1.390 1_554 S
C736 C737 1.394 1_554 S
C736 C742 1.465 . S
C737 C732 1.399 . S
C737 C736 1.394 1_556 S
C737 C738 1.516 1_556 S
C738 C737 1.516 1_554 S
C738 C739 1.502 . S
C738 C740 1.561 . S
C738 C741 1.526 . S
C739 H723 0.959 . S
C739 H724 0.959 . S
C739 H725 0.972 . S
C739 C738 1.502 . S
C740 H726 0.960 . S
C740 H727 0.961 . S
C740 H728 0.959 . S
C740 C738 1.561 . S
C741 C738 1.526 . S
C741 C742 1.396 . S
C741 C746 1.390 . S
C742 C736 1.465 . S
C742 C741 1.396 . S
C742 C743 1.399 . S
C743 H729 0.929 . S
C743 C742 1.399 . S
C743 C744 1.385 . S
C744 H730 0.931 . S
C744 C743 1.385 . S
C744 C745 1.389 . S
C745 C744 1.389 . S
C745 C746 1.387 . S
C746 H731 0.930 . S
C746 C741 1.390 . S
C746 C745 1.387 . S
H747 C759 0.930 . S
H748 C761 0.930 . S
H749 C762 0.930 . S
H750 C766 0.959 . S
H751 C766 0.959 . S
H752 C766 0.961 . S
H753 C767 0.960 . S
H754 C767 0.961 . S
H755 C767 0.959 . S
H756 C770 0.929 . S
H757 C771 0.931 . S
H758 C773 0.930 . S
C759 H747 0.930 . S
C759 C760 1.399 . S
C759 C764 1.399 . S
C760 C759 1.399 . S
C760 C761 1.376 . S
C761 H748 0.930 . S
C761 C760 1.376 . S
C761 C762 1.388 . S
C762 H749 0.930 . S
C762 C761 1.388 . S
C762 C763 1.390 . S
C763 C762 1.390 . S
C763 C764 1.394 . S
C763 C769 1.465 . S
C764 C759 1.399 . S
C764 C763 1.394 . S
C764 C765 1.516 . S
C765 C764 1.516 . S
C765 C766 1.502 . S
C765 C767 1.561 . S
C765 C768 1.526 . S
C766 H750 0.959 . S
C766 H751 0.959 . S
C766 H752 0.961 . S
C766 C765 1.502 . S
C767 H753 0.960 . S
C767 H754 0.961 . S
C767 H755 0.959 . S
C767 C765 1.561 . S
C768 C765 1.526 . S
C768 C769 1.396 . S
C768 C773 1.390 . S
C769 C763 1.465 . S
C769 C768 1.396 . S
C769 C770 1.399 . S
C770 H756 0.929 . S
C770 C769 1.399 . S
C770 C771 1.385 . S
C771 H757 0.931 . S
C771 C770 1.385 . S
C771 C772 1.389 . S
C772 C771 1.389 . S
C772 C773 1.387 . S
C773 H758 0.930 . S
C773 C768 1.390 . S
C773 C772 1.387 . S
H774 C786 0.930 . S
H775 C788 0.930 . S
H776 C789 0.930 . S
H777 C793 0.959 . S
H778 C793 0.959 . S
H779 C793 0.961 . S
H780 C794 0.960 . S
H781 C794 0.961 . S
H782 C794 0.959 . S
H783 C797 0.929 . S
H784 C798 0.931 . S
H785 C800 0.930 . S
C786 H774 0.930 . S
C786 C787 1.399 . S
C786 C791 1.399 . S
C787 C786 1.399 . S
C787 C788 1.376 . S
C788 H775 0.930 . S
C788 C787 1.376 . S
C788 C789 1.388 . S
C789 H776 0.930 . S
C789 C788 1.388 . S
C789 C790 1.390 . S
C790 C789 1.390 . S
C790 C791 1.394 . S
C790 C796 1.465 . S
C791 C786 1.399 . S
C791 C790 1.394 . S
C791 C792 1.516 . S
C792 C791 1.516 . S
C792 C793 1.502 . S
C792 C794 1.561 . S
C792 C795 1.526 . S
C793 H777 0.959 . S
C793 H778 0.959 . S
C793 H779 0.961 . S
C793 C792 1.502 . S
C794 H780 0.960 . S
C794 H781 0.961 . S
C794 H782 0.959 . S
C794 C792 1.561 . S
C795 C792 1.526 . S
C795 C796 1.396 . S
C795 C800 1.390 . S
C796 C790 1.465 . S
C796 C795 1.396 . S
C796 C797 1.399 . S
C797 H783 0.929 . S
C797 C796 1.399 . S
C797 C798 1.385 . S
C798 H784 0.931 . S
C798 C797 1.385 . S
C798 C799 1.389 . S
C799 C798 1.389 . S
C799 C800 1.387 . S
C800 H785 0.930 . S
C800 C795 1.390 . S
C800 C799 1.387 . S
H801 C813 0.930 . S
H802 C815 0.930 . S
H803 C816 0.930 . S
H804 C820 0.959 . S
H805 C820 0.959 . S
H806 C820 0.961 . S
H807 C821 0.960 . S
H808 C821 0.961 . S
H809 C821 0.959 . S
H810 C824 0.929 . S
H811 C825 0.931 . S
H812 C827 0.930 . S
C813 H801 0.930 . S
C813 C814 1.399 . S
C813 C818 1.399 . S
C814 C813 1.399 . S
C814 C815 1.376 . S
C815 H802 0.930 . S
C815 C814 1.376 . S
C815 C816 1.388 . S
C816 H803 0.930 . S
C816 C815 1.388 . S
C816 C817 1.390 . S
C817 C816 1.390 . S
C817 C818 1.394 . S
C817 C823 1.465 . S
C818 C813 1.399 . S
C818 C817 1.394 . S
C818 C819 1.516 . S
C819 C818 1.516 . S
C819 C820 1.502 . S
C819 C821 1.561 . S
C819 C822 1.526 . S
C820 H804 0.959 . S
C820 H805 0.959 . S
C820 H806 0.961 . S
C820 C819 1.502 . S
C821 H807 0.960 . S
C821 H808 0.961 . S
C821 H809 0.959 . S
C821 C819 1.561 . S
C822 C819 1.526 . S
C822 C823 1.396 . S
C822 C827 1.390 . S
C823 C817 1.465 . S
C823 C822 1.396 . S
C823 C824 1.399 . S
C824 H810 0.929 . S
C824 C823 1.399 . S
C824 C825 1.385 . S
C825 H811 0.931 . S
C825 C824 1.385 . S
C825 C826 1.389 . S
C826 C825 1.389 . S
C826 C827 1.387 . S
C827 H812 0.930 . S
C827 C822 1.390 . S
C827 C826 1.387 . S
H828 C840 0.930 . S
H829 C842 0.930 . S
H830 C843 0.930 . S
H831 C847 0.959 . S
H832 C847 0.959 . S
H833 C847 0.961 . S
H834 C848 0.960 . S
H835 C848 0.961 . S
H836 C848 0.959 . S
H837 C851 0.929 . S
H838 C852 0.931 . S
H839 C854 0.930 . S
C840 H828 0.930 . S
C840 C841 1.399 . S
C840 C845 1.399 . S
C841 C840 1.399 . S
C841 C842 1.376 . S
C842 H829 0.930 . S
C842 C841 1.376 . S
C842 C843 1.388 . S
C843 H830 0.930 . S
C843 C842 1.388 . S
C843 C844 1.390 . S
C844 C843 1.390 . S
C844 C845 1.394 . S
C844 C850 1.465 . S
C845 C840 1.399 . S
C845 C844 1.394 . S
C845 C846 1.516 . S
C846 C845 1.516 . S
C846 C847 1.502 . S
C846 C848 1.561 . S
C846 C849 1.526 . S
C847 H831 0.959 . S
C847 H832 0.959 . S
C847 H833 0.961 . S
C847 C846 1.502 . S
C848 H834 0.960 . S
C848 H835 0.961 . S
C848 H836 0.959 . S
C848 C846 1.561 . S
C849 C846 1.526 . S
C849 C850 1.396 . S
C849 C854 1.390 . S
C850 C844 1.465 . S
C850 C849 1.396 . S
C850 C851 1.399 . S
C851 H837 0.929 . S
C851 C850 1.399 . S
C851 C852 1.385 . S
C852 H838 0.931 . S
C852 C851 1.385 . S
C852 C853 1.389 . S
C853 C852 1.389 . S
C853 C854 1.387 . S
C854 H839 0.930 . S
C854 C849 1.390 . S
C854 C853 1.387 . S
H855 C867 0.930 . S
H856 C869 0.930 . S
H857 C870 0.930 . S
H858 C874 0.959 . S
H859 C874 0.959 . S
H860 C874 0.961 . S
H861 C875 0.960 . S
H862 C875 0.961 . S
H863 C875 0.959 . S
H864 C878 0.929 . S
H865 C879 0.931 . S
H866 C881 0.930 . S
C867 H855 0.930 . S
C867 C868 1.399 . S
C867 C872 1.399 . S
C868 C867 1.399 . S
C868 C869 1.376 . S
C869 H856 0.930 . S
C869 C868 1.376 . S
C869 C870 1.388 . S
C870 H857 0.930 . S
C870 C869 1.388 . S
C870 C871 1.390 . S
C871 C870 1.390 . S
C871 C872 1.394 . S
C871 C877 1.465 . S
C872 C867 1.399 . S
C872 C871 1.394 . S
C872 C873 1.516 . S
C873 C872 1.516 . S
C873 C874 1.502 . S
C873 C875 1.561 . S
C873 C876 1.526 . S
C874 H858 0.959 . S
C874 H859 0.959 . S
C874 H860 0.961 . S
C874 C873 1.502 . S
C875 H861 0.960 . S
C875 H862 0.961 . S
C875 H863 0.959 . S
C875 C873 1.561 . S
C876 C873 1.526 . S
C876 C877 1.396 . S
C876 C881 1.390 . S
C877 C871 1.465 . S
C877 C876 1.396 . S
C877 C878 1.399 . S
C878 H864 0.929 . S
C878 C877 1.399 . S
C878 C879 1.385 . S
C879 H865 0.931 . S
C879 C878 1.385 . S
C879 C880 1.389 . S
C880 C879 1.389 . S
C880 C881 1.387 . S
C881 H866 0.930 . S
C881 C876 1.390 . S
C881 C880 1.387 . S
H882 C894 0.930 . S
H883 C896 0.930 . S
H884 C897 0.930 . S
H885 C901 0.959 . S
H886 C901 0.959 . S
H887 C901 0.961 . S
H888 C902 0.960 . S
H889 C902 0.961 . S
H890 C902 0.959 . S
H891 C905 0.929 . S
H892 C906 0.931 . S
H893 C908 0.930 . S
C894 H882 0.930 . S
C894 C895 1.399 . S
C894 C899 1.399 . S
C895 C894 1.399 . S
C895 C896 1.376 . S
C896 H883 0.930 . S
C896 C895 1.376 . S
C896 C897 1.388 . S
C897 H884 0.930 . S
C897 C896 1.388 . S
C897 C898 1.390 . S
C898 C897 1.390 . S
C898 C899 1.394 . S
C898 C904 1.465 . S
C899 C894 1.399 . S
C899 C898 1.394 . S
C899 C900 1.516 . S
C900 C899 1.516 . S
C900 C901 1.502 . S
C900 C902 1.561 . S
C900 C903 1.526 . S
C901 H885 0.959 . S
C901 H886 0.959 . S
C901 H887 0.961 . S
C901 C900 1.502 . S
C902 H888 0.960 . S
C902 H889 0.961 . S
C902 H890 0.959 . S
C902 C900 1.561 . S
C903 C900 1.526 . S
C903 C904 1.396 . S
C903 C908 1.390 . S
C904 C898 1.465 . S
C904 C903 1.396 . S
C904 C905 1.399 . S
C905 H891 0.929 . S
C905 C904 1.399 . S
C905 C906 1.385 . S
C906 H892 0.931 . S
C906 C905 1.385 . S
C906 C907 1.389 . S
C907 C906 1.389 . S
C907 C908 1.387 . S
C908 H893 0.930 . S
C908 C903 1.390 . S
C908 C907 1.387 . S
H909 C921 0.930 . S
H910 C923 0.930 . S
H911 C924 0.930 . S
H912 C928 0.959 . S
H913 C928 0.959 . S
H914 C928 0.961 . S
H915 C929 0.960 . S
H916 C929 0.961 . S
H917 C929 0.959 . S
H918 C932 0.929 . S
H919 C933 0.931 1_554 S
H920 C935 0.930 . S
C921 H909 0.930 . S
C921 C922 1.399 . S
C921 C926 1.399 . S
C922 C921 1.399 . S
C922 C923 1.376 . S
C923 H910 0.930 . S
C923 C922 1.376 . S
C923 C924 1.388 . S
C924 H911 0.930 . S
C924 C923 1.388 . S
C924 C925 1.390 . S
C925 C924 1.390 . S
C925 C926 1.394 . S
C925 C931 1.465 . S
C926 C921 1.399 . S
C926 C925 1.394 . S
C926 C927 1.516 . S
C927 C926 1.516 . S
C927 C928 1.502 . S
C927 C929 1.561 . S
C927 C930 1.526 . S
C928 H912 0.959 . S
C928 H913 0.959 . S
C928 H914 0.961 . S
C928 C927 1.502 . S
C929 H915 0.960 . S
C929 H916 0.961 . S
C929 H917 0.959 . S
C929 C927 1.561 . S
C930 C927 1.526 . S
C930 C931 1.396 . S
C930 C935 1.390 . S
C931 C925 1.465 . S
C931 C930 1.396 . S
C931 C932 1.399 . S
C932 H918 0.929 . S
C932 C931 1.399 . S
C932 C933 1.385 . S
C933 H919 0.931 1_556 S
C933 C932 1.385 . S
C933 C934 1.389 1_556 S
C934 C933 1.389 1_554 S
C934 C935 1.387 1_554 S
C935 H920 0.930 . S
C935 C930 1.390 . S
C935 C934 1.387 1_556 S
H936 C948 0.930 . S
H937 C950 0.930 . S
H938 C951 0.930 . S
H939 C955 0.959 . S
H940 C955 0.959 . S
H941 C955 0.961 . S
H942 C956 0.960 . S
H943 C956 0.961 . S
H944 C956 0.959 . S
H945 C959 0.929 . S
H946 C960 0.931 1_554 S
H947 C962 0.930 . S
C948 H936 0.930 . S
C948 C949 1.399 . S
C948 C953 1.399 . S
C949 C948 1.399 . S
C949 C950 1.376 . S
C950 H937 0.930 . S
C950 C949 1.376 . S
C950 C951 1.388 . S
C951 H938 0.930 . S
C951 C950 1.388 . S
C951 C952 1.390 . S
C952 C951 1.390 . S
C952 C953 1.394 . S
C952 C958 1.465 . S
C953 C948 1.399 . S
C953 C952 1.394 . S
C953 C954 1.516 . S
C954 C953 1.516 . S
C954 C955 1.502 . S
C954 C956 1.561 . S
C954 C957 1.526 . S
C955 H939 0.959 . S
C955 H940 0.959 . S
C955 H941 0.961 . S
C955 C954 1.502 . S
C956 H942 0.960 . S
C956 H943 0.961 . S
C956 H944 0.959 . S
C956 C954 1.561 . S
C957 C954 1.526 . S
C957 C958 1.396 . S
C957 C962 1.390 . S
C958 C952 1.465 . S
C958 C957 1.396 . S
C958 C959 1.399 . S
C959 H945 0.929 . S
C959 C958 1.399 . S
C959 C960 1.385 . S
C960 H946 0.931 1_556 S
C960 C959 1.385 . S
C960 C961 1.389 1_556 S
C961 C960 1.389 1_554 S
C961 C962 1.387 1_554 S
C962 H947 0.930 . S
C962 C957 1.390 . S
C962 C961 1.387 1_556 S
H963 C975 0.930 . S
H964 C977 0.930 . S
H965 C978 0.930 . S
H966 C982 0.959 . S
H967 C982 0.959 . S
H968 C982 0.961 . S
H969 C983 0.960 . S
H970 C983 0.961 . S
H971 C983 0.959 . S
H972 C986 0.929 . S
H973 C987 0.931 1_554 S
H974 C989 0.930 . S
C975 H963 0.930 . S
C975 C976 1.399 . S
C975 C980 1.399 . S
C976 C975 1.399 . S
C976 C977 1.376 . S
C977 H964 0.930 . S
C977 C976 1.376 . S
C977 C978 1.388 . S
C978 H965 0.930 . S
C978 C977 1.388 . S
C978 C979 1.390 . S
C979 C978 1.390 . S
C979 C980 1.394 . S
C979 C985 1.465 . S
C980 C975 1.399 . S
C980 C979 1.394 . S
C980 C981 1.516 . S
C981 C980 1.516 . S
C981 C982 1.502 . S
C981 C983 1.561 . S
C981 C984 1.526 . S
C982 H966 0.959 . S
C982 H967 0.959 . S
C982 H968 0.961 . S
C982 C981 1.502 . S
C983 H969 0.960 . S
C983 H970 0.961 . S
C983 H971 0.959 . S
C983 C981 1.561 . S
C984 C981 1.526 . S
C984 C985 1.396 . S
C984 C989 1.390 . S
C985 C979 1.465 . S
C985 C984 1.396 . S
C985 C986 1.399 . S
C986 H972 0.929 . S
C986 C985 1.399 . S
C986 C987 1.385 . S
C987 H973 0.931 1_556 S
C987 C986 1.385 . S
C987 C988 1.389 1_556 S
C988 C987 1.389 1_554 S
C988 C989 1.387 1_554 S
C989 H974 0.930 . S
C989 C984 1.390 . S
C989 C988 1.387 1_556 S
H990 C1002 0.930 . S
H991 C1004 0.930 . S
H992 C1005 0.930 . S
H993 C1009 0.959 . S
H994 C1009 0.959 . S
H995 C1009 0.961 . S
H996 C1010 0.960 . S
H997 C1010 0.961 . S
H998 C1010 0.959 . S
H999 C1013 0.929 . S
H1000 C1014 0.931 . S
H1001 C1016 0.930 . S
C1002 H990 0.930 . S
C1002 C1003 1.399 . S
C1002 C1007 1.399 . S
C1003 C1002 1.399 . S
C1003 C1004 1.376 . S
C1004 H991 0.930 . S
C1004 C1003 1.376 . S
C1004 C1005 1.388 . S
C1005 H992 0.930 . S
C1005 C1004 1.388 . S
C1005 C1006 1.390 . S
C1006 C1005 1.390 . S
C1006 C1007 1.394 . S
C1006 C1012 1.465 . S
C1007 C1002 1.399 . S
C1007 C1006 1.394 . S
C1007 C1008 1.516 . S
C1008 C1007 1.516 . S
C1008 C1009 1.502 . S
C1008 C1010 1.561 . S
C1008 C1011 1.526 . S
C1009 H993 0.959 . S
C1009 H994 0.959 . S
C1009 H995 0.961 . S
C1009 C1008 1.502 . S
C1010 H996 0.960 . S
C1010 H997 0.961 . S
C1010 H998 0.959 . S
C1010 C1008 1.561 . S
C1011 C1008 1.526 . S
C1011 C1012 1.396 . S
C1011 C1016 1.390 . S
C1012 C1006 1.465 . S
C1012 C1011 1.396 . S
C1012 C1013 1.399 . S
C1013 H999 0.929 . S
C1013 C1012 1.399 . S
C1013 C1014 1.385 . S
C1014 H1000 0.931 . S
C1014 C1013 1.385 . S
C1014 C1015 1.389 . S
C1015 C1014 1.389 . S
C1015 C1016 1.387 . S
C1016 H1001 0.930 . S
C1016 C1011 1.390 . S
C1016 C1015 1.387 . S
H1017 C1029 0.930 . S
H1018 C1031 0.930 . S
H1019 C1032 0.930 . S
H1020 C1036 0.959 . S
H1021 C1036 0.959 . S
H1022 C1036 0.961 . S
H1023 C1037 0.960 . S
H1024 C1037 0.961 . S
H1025 C1037 0.959 . S
H1026 C1040 0.929 . S
H1027 C1041 0.931 . S
H1028 C1043 0.930 . S
C1029 H1017 0.930 . S
C1029 C1030 1.399 . S
C1029 C1034 1.399 . S
C1030 C1029 1.399 . S
C1030 C1031 1.376 . S
C1031 H1018 0.930 . S
C1031 C1030 1.376 . S
C1031 C1032 1.388 . S
C1032 H1019 0.930 . S
C1032 C1031 1.388 . S
C1032 C1033 1.390 . S
C1033 C1032 1.390 . S
C1033 C1034 1.394 . S
C1033 C1039 1.465 . S
C1034 C1029 1.399 . S
C1034 C1033 1.394 . S
C1034 C1035 1.516 . S
C1035 C1034 1.516 . S
C1035 C1036 1.502 . S
C1035 C1037 1.561 . S
C1035 C1038 1.526 . S
C1036 H1020 0.959 . S
C1036 H1021 0.959 . S
C1036 H1022 0.961 . S
C1036 C1035 1.502 . S
C1037 H1023 0.960 . S
C1037 H1024 0.961 . S
C1037 H1025 0.959 . S
C1037 C1035 1.561 . S
C1038 C1035 1.526 . S
C1038 C1039 1.396 . S
C1038 C1043 1.390 . S
C1039 C1033 1.465 . S
C1039 C1038 1.396 . S
C1039 C1040 1.399 . S
C1040 H1026 0.929 . S
C1040 C1039 1.399 . S
C1040 C1041 1.385 . S
C1041 H1027 0.931 . S
C1041 C1040 1.385 . S
C1041 C1042 1.389 . S
C1042 C1041 1.389 . S
C1042 C1043 1.387 . S
C1043 H1028 0.930 . S
C1043 C1038 1.390 . S
C1043 C1042 1.387 . S
H1044 C1056 0.930 . S
H1045 C1058 0.930 . S
H1046 C1059 0.930 . S
H1047 C1063 0.959 . S
H1048 C1063 0.959 . S
H1049 C1063 0.961 . S
H1050 C1064 0.960 . S
H1051 C1064 0.961 . S
H1052 C1064 0.959 . S
H1053 C1067 0.929 . S
H1054 C1068 0.931 . S
H1055 C1070 0.930 . S
C1056 H1044 0.930 . S
C1056 C1057 1.399 . S
C1056 C1061 1.399 . S
C1057 C1056 1.399 . S
C1057 C1058 1.376 . S
C1058 H1045 0.930 . S
C1058 C1057 1.376 . S
C1058 C1059 1.388 . S
C1059 H1046 0.930 . S
C1059 C1058 1.388 . S
C1059 C1060 1.390 . S
C1060 C1059 1.390 . S
C1060 C1061 1.394 . S
C1060 C1066 1.465 . S
C1061 C1056 1.399 . S
C1061 C1060 1.394 . S
C1061 C1062 1.516 . S
C1062 C1061 1.516 . S
C1062 C1063 1.502 . S
C1062 C1064 1.561 . S
C1062 C1065 1.526 . S
C1063 H1047 0.959 . S
C1063 H1048 0.959 . S
C1063 H1049 0.961 . S
C1063 C1062 1.502 . S
C1064 H1050 0.960 . S
C1064 H1051 0.961 . S
C1064 H1052 0.959 . S
C1064 C1062 1.561 . S
C1065 C1062 1.526 . S
C1065 C1066 1.396 . S
C1065 C1070 1.390 . S
C1066 C1060 1.465 . S
C1066 C1065 1.396 . S
C1066 C1067 1.399 . S
C1067 H1053 0.929 . S
C1067 C1066 1.399 . S
C1067 C1068 1.385 . S
C1068 H1054 0.931 . S
C1068 C1067 1.385 . S
C1068 C1069 1.389 . S
C1069 C1068 1.389 . S
C1069 C1070 1.387 . S
C1070 H1055 0.930 . S
C1070 C1065 1.390 . S
C1070 C1069 1.387 . S
H1071 C1083 0.930 . S
H1072 C1085 0.930 . S
H1073 C1086 0.930 . S
H1074 C1090 0.959 . S
H1075 C1090 0.959 . S
H1076 C1090 0.961 . S
H1077 C1091 0.960 . S
H1078 C1091 0.961 . S
H1079 C1091 0.959 . S
H1080 C1094 0.929 . S
H1081 C1095 0.931 . S
H1082 C1097 0.930 . S
C1083 H1071 0.930 . S
C1083 C1084 1.399 . S
C1083 C1088 1.399 . S
C1084 C1083 1.399 . S
C1084 C1085 1.376 . S
C1085 H1072 0.930 . S
C1085 C1084 1.376 . S
C1085 C1086 1.388 . S
C1086 H1073 0.930 . S
C1086 C1085 1.388 . S
C1086 C1087 1.390 . S
C1087 C1086 1.390 . S
C1087 C1088 1.394 . S
C1087 C1093 1.465 . S
C1088 C1083 1.399 . S
C1088 C1087 1.394 . S
C1088 C1089 1.516 . S
C1089 C1088 1.516 . S
C1089 C1090 1.502 . S
C1089 C1091 1.561 . S
C1089 C1092 1.526 . S
C1090 H1074 0.959 . S
C1090 H1075 0.959 . S
C1090 H1076 0.961 . S
C1090 C1089 1.502 . S
C1091 H1077 0.960 . S
C1091 H1078 0.961 . S
C1091 H1079 0.959 . S
C1091 C1089 1.561 . S
C1092 C1089 1.526 . S
C1092 C1093 1.396 . S
C1092 C1097 1.390 . S
C1093 C1087 1.465 . S
C1093 C1092 1.396 . S
C1093 C1094 1.399 . S
C1094 H1080 0.929 . S
C1094 C1093 1.399 . S
C1094 C1095 1.385 . S
C1095 H1081 0.931 . S
C1095 C1094 1.385 . S
C1095 C1096 1.389 . S
C1096 C1095 1.389 . S
C1096 C1097 1.387 . S
C1097 H1082 0.930 . S
C1097 C1092 1.390 . S
C1097 C1096 1.387 . S
H1098 C1110 0.930 . S
H1099 C1112 0.930 . S
H1100 C1113 0.930 . S
H1101 C1117 0.959 . S
H1102 C1117 0.959 . S
H1103 C1117 0.961 . S
H1104 C1118 0.960 . S
H1105 C1118 0.961 . S
H1106 C1118 0.959 . S
H1107 C1121 0.929 . S
H1108 C1122 0.931 . S
H1109 C1124 0.930 . S
C1110 H1098 0.930 . S
C1110 C1111 1.399 . S
C1110 C1115 1.399 . S
C1111 C1110 1.399 . S
C1111 C1112 1.376 . S
C1112 H1099 0.930 . S
C1112 C1111 1.376 . S
C1112 C1113 1.388 . S
C1113 H1100 0.930 . S
C1113 C1112 1.388 . S
C1113 C1114 1.390 . S
C1114 C1113 1.390 . S
C1114 C1115 1.394 . S
C1114 C1120 1.465 . S
C1115 C1110 1.399 . S
C1115 C1114 1.394 . S
C1115 C1116 1.516 . S
C1116 C1115 1.516 . S
C1116 C1117 1.502 . S
C1116 C1118 1.561 . S
C1116 C1119 1.526 . S
C1117 H1101 0.959 . S
C1117 H1102 0.959 . S
C1117 H1103 0.961 . S
C1117 C1116 1.502 . S
C1118 H1104 0.960 . S
C1118 H1105 0.961 . S
C1118 H1106 0.959 . S
C1118 C1116 1.561 . S
C1119 C1116 1.526 . S
C1119 C1120 1.396 . S
C1119 C1124 1.390 . S
C1120 C1114 1.465 . S
C1120 C1119 1.396 . S
C1120 C1121 1.399 . S
C1121 H1107 0.929 . S
C1121 C1120 1.399 . S
C1121 C1122 1.385 . S
C1122 H1108 0.931 . S
C1122 C1121 1.385 . S
C1122 C1123 1.389 . S
C1123 C1122 1.389 . S
C1123 C1124 1.387 . S
C1124 H1109 0.930 . S
C1124 C1119 1.390 . S
C1124 C1123 1.387 . S
H1125 C1137 0.930 . S
H1126 C1139 0.930 . S
H1127 C1140 0.930 . S
H1128 C1144 0.959 . S
H1129 C1144 0.959 . S
H1130 C1144 0.961 . S
H1131 C1145 0.960 . S
H1132 C1145 0.961 . S
H1133 C1145 0.959 . S
H1134 C1148 0.929 . S
H1135 C1149 0.931 . S
H1136 C1151 0.930 . S
C1137 H1125 0.930 . S
C1137 C1138 1.399 . S
C1137 C1142 1.399 . S
C1138 C1137 1.399 . S
C1138 C1139 1.376 . S
C1139 H1126 0.930 . S
C1139 C1138 1.376 . S
C1139 C1140 1.388 . S
C1140 H1127 0.930 . S
C1140 C1139 1.388 . S
C1140 C1141 1.390 . S
C1141 C1140 1.390 . S
C1141 C1142 1.394 . S
C1141 C1147 1.465 . S
C1142 C1137 1.399 . S
C1142 C1141 1.394 . S
C1142 C1143 1.516 . S
C1143 C1142 1.516 . S
C1143 C1144 1.502 . S
C1143 C1145 1.561 . S
C1143 C1146 1.526 . S
C1144 H1128 0.959 . S
C1144 H1129 0.959 . S
C1144 H1130 0.961 . S
C1144 C1143 1.502 . S
C1145 H1131 0.960 . S
C1145 H1132 0.961 . S
C1145 H1133 0.959 . S
C1145 C1143 1.561 . S
C1146 C1143 1.526 . S
C1146 C1147 1.396 . S
C1146 C1151 1.390 . S
C1147 C1141 1.465 . S
C1147 C1146 1.396 . S
C1147 C1148 1.399 . S
C1148 H1134 0.929 . S
C1148 C1147 1.399 . S
C1148 C1149 1.385 . S
C1149 H1135 0.931 . S
C1149 C1148 1.385 . S
C1149 C1150 1.389 . S
C1150 C1149 1.389 . S
C1150 C1151 1.387 . S
C1151 H1136 0.930 . S
C1151 C1146 1.390 . S
C1151 C1150 1.387 . S
H1152 C1164 0.930 . S
H1153 C1166 0.930 . S
H1154 C1167 0.930 . S
H1155 C1171 0.959 . S
H1156 C1171 0.959 . S
H1157 C1171 0.961 . S
H1158 C1172 0.960 . S
H1159 C1172 0.961 . S
H1160 C1172 0.959 . S
H1161 C1175 0.929 . S
H1162 C1176 0.931 . S
H1163 C1178 0.930 . S
C1164 H1152 0.930 . S
C1164 C1165 1.399 . S
C1164 C1169 1.399 . S
C1165 C1164 1.399 . S
C1165 C1166 1.376 . S
C1166 H1153 0.930 . S
C1166 C1165 1.376 . S
C1166 C1167 1.388 . S
C1167 H1154 0.930 . S
C1167 C1166 1.388 . S
C1167 C1168 1.390 . S
C1168 C1167 1.390 . S
C1168 C1169 1.394 . S
C1168 C1174 1.465 . S
C1169 C1164 1.399 . S
C1169 C1168 1.394 . S
C1169 C1170 1.516 . S
C1170 C1169 1.516 . S
C1170 C1171 1.502 . S
C1170 C1172 1.561 . S
C1170 C1173 1.526 . S
C1171 H1155 0.959 . S
C1171 H1156 0.959 . S
C1171 H1157 0.961 . S
C1171 C1170 1.502 . S
C1172 H1158 0.960 . S
C1172 H1159 0.961 . S
C1172 H1160 0.959 . S
C1172 C1170 1.561 . S
C1173 C1170 1.526 . S
C1173 C1174 1.396 . S
C1173 C1178 1.390 . S
C1174 C1168 1.465 . S
C1174 C1173 1.396 . S
C1174 C1175 1.399 . S
C1175 H1161 0.929 . S
C1175 C1174 1.399 . S
C1175 C1176 1.385 . S
C1176 H1162 0.931 . S
C1176 C1175 1.385 . S
C1176 C1177 1.389 . S
C1177 C1176 1.389 . S
C1177 C1178 1.387 . S
C1178 H1163 0.930 . S
C1178 C1173 1.390 . S
C1178 C1177 1.387 . S
H1179 C1191 0.930 . S
H1180 C1193 0.930 . S
H1181 C1194 0.930 . S
H1182 C1198 0.959 . S
H1183 C1198 0.959 . S
H1184 C1198 0.961 . S
H1185 C1199 0.960 . S
H1186 C1199 0.961 . S
H1187 C1199 0.959 . S
H1188 C1202 0.929 . S
H1189 C1203 0.931 . S
H1190 C1205 0.930 . S
C1191 H1179 0.930 . S
C1191 C1192 1.399 . S
C1191 C1196 1.399 . S
C1192 C1191 1.399 . S
C1192 C1193 1.376 . S
C1193 H1180 0.930 . S
C1193 C1192 1.376 . S
C1193 C1194 1.388 . S
C1194 H1181 0.930 . S
C1194 C1193 1.388 . S
C1194 C1195 1.390 . S
C1195 C1194 1.390 . S
C1195 C1196 1.394 . S
C1195 C1201 1.465 . S
C1196 C1191 1.399 . S
C1196 C1195 1.394 . S
C1196 C1197 1.516 . S
C1197 C1196 1.516 . S
C1197 C1198 1.502 . S
C1197 C1199 1.561 . S
C1197 C1200 1.526 . S
C1198 H1182 0.959 . S
C1198 H1183 0.959 . S
C1198 H1184 0.961 . S
C1198 C1197 1.502 . S
C1199 H1185 0.960 . S
C1199 H1186 0.961 . S
C1199 H1187 0.959 . S
C1199 C1197 1.561 . S
C1200 C1197 1.526 . S
C1200 C1201 1.396 . S
C1200 C1205 1.390 . S
C1201 C1195 1.465 . S
C1201 C1200 1.396 . S
C1201 C1202 1.399 . S
C1202 H1188 0.929 . S
C1202 C1201 1.399 . S
C1202 C1203 1.385 . S
C1203 H1189 0.931 . S
C1203 C1202 1.385 . S
C1203 C1204 1.389 . S
C1204 C1203 1.389 . S
C1204 C1205 1.387 . S
C1205 H1190 0.930 . S
C1205 C1200 1.390 . S
C1205 C1204 1.387 . S
H1206 C1218 0.930 . S
H1207 C1220 0.930 . S
H1208 C1221 0.930 . S
H1209 C1225 0.959 . S
H1210 C1225 0.959 . S
H1211 C1225 0.961 . S
H1212 C1226 0.960 . S
H1213 C1226 0.961 . S
H1214 C1226 0.959 . S
H1215 C1229 0.929 . S
H1216 C1230 0.931 . S
H1217 C1232 0.930 . S
C1218 H1206 0.930 . S
C1218 C1219 1.399 . S
C1218 C1223 1.399 . S
C1219 C1218 1.399 . S
C1219 C1220 1.376 . S
C1220 H1207 0.930 . S
C1220 C1219 1.376 . S
C1220 C1221 1.388 . S
C1221 H1208 0.930 . S
C1221 C1220 1.388 . S
C1221 C1222 1.390 . S
C1222 C1221 1.390 . S
C1222 C1223 1.394 . S
C1222 C1228 1.465 . S
C1223 C1218 1.399 . S
C1223 C1222 1.394 . S
C1223 C1224 1.516 . S
C1224 C1223 1.516 . S
C1224 C1225 1.502 . S
C1224 C1226 1.561 . S
C1224 C1227 1.526 . S
C1225 H1209 0.959 . S
C1225 H1210 0.959 . S
C1225 H1211 0.961 . S
C1225 C1224 1.502 . S
C1226 H1212 0.960 . S
C1226 H1213 0.961 . S
C1226 H1214 0.959 . S
C1226 C1224 1.561 . S
C1227 C1224 1.526 . S
C1227 C1228 1.396 . S
C1227 C1232 1.390 . S
C1228 C1222 1.465 . S
C1228 C1227 1.396 . S
C1228 C1229 1.399 . S
C1229 H1215 0.929 . S
C1229 C1228 1.399 . S
C1229 C1230 1.385 . S
C1230 H1216 0.931 . S
C1230 C1229 1.385 . S
C1230 C1231 1.389 . S
C1231 C1230 1.389 . S
C1231 C1232 1.387 . S
C1232 H1217 0.930 . S
C1232 C1227 1.390 . S
C1232 C1231 1.387 . S
H1233 C1245 0.930 . S
H1234 C1247 0.930 . S
H1235 C1248 0.930 . S
H1236 C1252 0.959 . S
H1237 C1252 0.959 . S
H1238 C1252 0.961 . S
H1239 C1253 0.960 . S
H1240 C1253 0.961 . S
H1241 C1253 0.959 . S
H1242 C1256 0.929 . S
H1243 C1257 0.931 . S
H1244 C1259 0.930 . S
C1245 H1233 0.930 . S
C1245 C1246 1.399 . S
C1245 C1250 1.399 . S
C1246 C1245 1.399 . S
C1246 C1247 1.376 . S
C1247 H1234 0.930 . S
C1247 C1246 1.376 . S
C1247 C1248 1.388 . S
C1248 H1235 0.930 . S
C1248 C1247 1.388 . S
C1248 C1249 1.390 . S
C1249 C1248 1.390 . S
C1249 C1250 1.394 . S
C1249 C1255 1.465 . S
C1250 C1245 1.399 . S
C1250 C1249 1.394 . S
C1250 C1251 1.516 . S
C1251 C1250 1.516 . S
C1251 C1252 1.502 . S
C1251 C1253 1.561 . S
C1251 C1254 1.526 . S
C1252 H1236 0.959 . S
C1252 H1237 0.959 . S
C1252 H1238 0.961 . S
C1252 C1251 1.502 . S
C1253 H1239 0.960 . S
C1253 H1240 0.961 . S
C1253 H1241 0.959 . S
C1253 C1251 1.561 . S
C1254 C1251 1.526 . S
C1254 C1255 1.396 . S
C1254 C1259 1.390 . S
C1255 C1249 1.465 . S
C1255 C1254 1.396 . S
C1255 C1256 1.399 . S
C1256 H1242 0.929 . S
C1256 C1255 1.399 . S
C1256 C1257 1.385 . S
C1257 H1243 0.931 . S
C1257 C1256 1.385 . S
C1257 C1258 1.389 . S
C1258 C1257 1.389 . S
C1258 C1259 1.387 . S
C1259 H1244 0.930 . S
C1259 C1254 1.390 . S
C1259 C1258 1.387 . S
H1260 C1272 0.930 . S
H1261 C1274 0.930 . S
H1262 C1275 0.930 . S
H1263 C1279 0.959 . S
H1264 C1279 0.959 . S
H1265 C1279 0.961 . S
H1266 C1280 0.960 . S
H1267 C1280 0.961 . S
H1268 C1280 0.959 . S
H1269 C1283 0.929 . S
H1270 C1284 0.931 . S
H1271 C1286 0.930 . S
C1272 H1260 0.930 . S
C1272 C1273 1.399 . S
C1272 C1277 1.399 . S
C1273 C1272 1.399 . S
C1273 C1274 1.376 . S
C1274 H1261 0.930 . S
C1274 C1273 1.376 . S
C1274 C1275 1.388 . S
C1275 H1262 0.930 . S
C1275 C1274 1.388 . S
C1275 C1276 1.390 . S
C1276 C1275 1.390 . S
C1276 C1277 1.394 . S
C1276 C1282 1.465 . S
C1277 C1272 1.399 . S
C1277 C1276 1.394 . S
C1277 C1278 1.516 . S
C1278 C1277 1.516 . S
C1278 C1279 1.502 . S
C1278 C1280 1.561 . S
C1278 C1281 1.526 . S
C1279 H1263 0.959 . S
C1279 H1264 0.959 . S
C1279 H1265 0.961 . S
C1279 C1278 1.502 . S
C1280 H1266 0.960 . S
C1280 H1267 0.961 . S
C1280 H1268 0.959 . S
C1280 C1278 1.561 . S
C1281 C1278 1.526 . S
C1281 C1282 1.396 . S
C1281 C1286 1.390 . S
C1282 C1276 1.465 . S
C1282 C1281 1.396 . S
C1282 C1283 1.399 . S
C1283 H1269 0.929 . S
C1283 C1282 1.399 . S
C1283 C1284 1.385 . S
C1284 H1270 0.931 . S
C1284 C1283 1.385 . S
C1284 C1285 1.389 . S
C1285 C1284 1.389 . S
C1285 C1286 1.387 . S
C1286 H1271 0.930 . S
C1286 C1281 1.390 . S
C1286 C1285 1.387 . S
H1287 C1299 0.930 . S
H1288 C1301 0.930 . S
H1289 C1302 0.930 . S
H1290 C1306 0.959 . S
H1291 C1306 0.959 . S
H1292 C1306 0.961 . S
H1293 C1307 0.960 . S
H1294 C1307 0.961 . S
H1295 C1307 0.959 . S
H1296 C1310 0.929 . S
H1297 C1311 0.931 . S
H1298 C1313 0.930 . S
C1299 H1287 0.930 . S
C1299 C1300 1.399 . S
C1299 C1304 1.399 . S
C1300 C1299 1.399 . S
C1300 C1301 1.376 . S
C1301 H1288 0.930 . S
C1301 C1300 1.376 . S
C1301 C1302 1.388 . S
C1302 H1289 0.930 . S
C1302 C1301 1.388 . S
C1302 C1303 1.390 . S
C1303 C1302 1.390 . S
C1303 C1304 1.394 . S
C1303 C1309 1.465 . S
C1304 C1299 1.399 . S
C1304 C1303 1.394 . S
C1304 C1305 1.516 . S
C1305 C1304 1.516 . S
C1305 C1306 1.502 . S
C1305 C1307 1.561 . S
C1305 C1308 1.526 . S
C1306 H1290 0.959 . S
C1306 H1291 0.959 . S
C1306 H1292 0.961 . S
C1306 C1305 1.502 . S
C1307 H1293 0.960 . S
C1307 H1294 0.961 . S
C1307 H1295 0.959 . S
C1307 C1305 1.561 . S
C1308 C1305 1.526 . S
C1308 C1309 1.396 . S
C1308 C1313 1.390 . S
C1309 C1303 1.465 . S
C1309 C1308 1.396 . S
C1309 C1310 1.399 . S
C1310 H1296 0.929 . S
C1310 C1309 1.399 . S
C1310 C1311 1.385 . S
C1311 H1297 0.931 . S
C1311 C1310 1.385 . S
C1311 C1312 1.389 . S
C1312 C1311 1.389 . S
C1312 C1313 1.387 . S
C1313 H1298 0.930 . S
C1313 C1308 1.390 . S
C1313 C1312 1.387 . S
H1314 C1326 0.930 . S
H1315 C1328 0.930 . S
H1316 C1329 0.930 . S
H1317 C1333 0.959 . S
H1318 C1333 0.959 . S
H1319 C1333 0.961 . S
H1320 C1334 0.960 . S
H1321 C1334 0.961 . S
H1322 C1334 0.959 . S
H1323 C1337 0.929 . S
H1324 C1338 0.931 . S
H1325 C1340 0.930 . S
C1326 H1314 0.930 . S
C1326 C1327 1.399 . S
C1326 C1331 1.399 . S
C1327 C1326 1.399 . S
C1327 C1328 1.376 . S
C1328 H1315 0.930 . S
C1328 C1327 1.376 . S
C1328 C1329 1.388 . S
C1329 H1316 0.930 . S
C1329 C1328 1.388 . S
C1329 C1330 1.390 . S
C1330 C1329 1.390 . S
C1330 C1331 1.394 . S
C1330 C1336 1.465 . S
C1331 C1326 1.399 . S
C1331 C1330 1.394 . S
C1331 C1332 1.516 . S
C1332 C1331 1.516 . S
C1332 C1333 1.502 . S
C1332 C1334 1.561 . S
C1332 C1335 1.526 . S
C1333 H1317 0.959 . S
C1333 H1318 0.959 . S
C1333 H1319 0.961 . S
C1333 C1332 1.502 . S
C1334 H1320 0.960 . S
C1334 H1321 0.961 . S
C1334 H1322 0.959 . S
C1334 C1332 1.561 . S
C1335 C1332 1.526 . S
C1335 C1336 1.396 . S
C1335 C1340 1.390 . S
C1336 C1330 1.465 . S
C1336 C1335 1.396 . S
C1336 C1337 1.399 . S
C1337 H1323 0.929 . S
C1337 C1336 1.399 . S
C1337 C1338 1.385 . S
C1338 H1324 0.931 . S
C1338 C1337 1.385 . S
C1338 C1339 1.389 . S
C1339 C1338 1.389 . S
C1339 C1340 1.387 . S
C1340 H1325 0.930 . S
C1340 C1335 1.390 . S
C1340 C1339 1.387 . S
H1341 C1353 0.930 . S
H1342 C1355 0.930 . S
H1343 C1356 0.930 . S
H1344 C1360 0.959 . S
H1345 C1360 0.959 . S
H1346 C1360 0.961 . S
H1347 C1361 0.960 . S
H1348 C1361 0.961 . S
H1349 C1361 0.959 . S
H1350 C1364 0.929 . S
H1351 C1365 0.931 . S
H1352 C1367 0.930 . S
C1353 H1341 0.930 . S
C1353 C1354 1.399 . S
C1353 C1358 1.399 . S
C1354 C1353 1.399 . S
C1354 C1355 1.376 . S
C1355 H1342 0.930 . S
C1355 C1354 1.376 . S
C1355 C1356 1.388 . S
C1356 H1343 0.930 . S
C1356 C1355 1.388 . S
C1356 C1357 1.390 . S
C1357 C1356 1.390 . S
C1357 C1358 1.394 . S
C1357 C1363 1.465 . S
C1358 C1353 1.399 . S
C1358 C1357 1.394 . S
C1358 C1359 1.516 . S
C1359 C1358 1.516 . S
C1359 C1360 1.502 . S
C1359 C1361 1.561 . S
C1359 C1362 1.526 . S
C1360 H1344 0.959 . S
C1360 H1345 0.959 . S
C1360 H1346 0.961 . S
C1360 C1359 1.502 . S
C1361 H1347 0.960 . S
C1361 H1348 0.961 . S
C1361 H1349 0.959 . S
C1361 C1359 1.561 . S
C1362 C1359 1.526 . S
C1362 C1363 1.396 . S
C1362 C1367 1.390 . S
C1363 C1357 1.465 . S
C1363 C1362 1.396 . S
C1363 C1364 1.399 . S
C1364 H1350 0.929 . S
C1364 C1363 1.399 . S
C1364 C1365 1.385 . S
C1365 H1351 0.931 . S
C1365 C1364 1.385 . S
C1365 C1366 1.389 . S
C1366 C1365 1.389 . S
C1366 C1367 1.387 . S
C1367 H1352 0.930 . S
C1367 C1362 1.390 . S
C1367 C1366 1.387 . S
H1368 C1380 0.930 . S
H1369 C1382 0.930 . S
H1370 C1383 0.930 . S
H1371 C1387 0.959 . S
H1372 C1387 0.959 . S
H1373 C1387 0.961 . S
H1374 C1388 0.960 . S
H1375 C1388 0.961 . S
H1376 C1388 0.959 . S
H1377 C1391 0.929 . S
H1378 C1392 0.931 . S
H1379 C1394 0.930 . S
C1380 H1368 0.930 . S
C1380 C1381 1.399 . S
C1380 C1385 1.399 . S
C1381 C1380 1.399 . S
C1381 C1382 1.376 . S
C1382 H1369 0.930 . S
C1382 C1381 1.376 . S
C1382 C1383 1.388 . S
C1383 H1370 0.930 . S
C1383 C1382 1.388 . S
C1383 C1384 1.390 . S
C1384 C1383 1.390 . S
C1384 C1385 1.394 . S
C1384 C1390 1.465 . S
C1385 C1380 1.399 . S
C1385 C1384 1.394 . S
C1385 C1386 1.516 . S
C1386 C1385 1.516 . S
C1386 C1387 1.502 . S
C1386 C1388 1.561 . S
C1386 C1389 1.526 . S
C1387 H1371 0.959 . S
C1387 H1372 0.959 . S
C1387 H1373 0.961 . S
C1387 C1386 1.502 . S
C1388 H1374 0.960 . S
C1388 H1375 0.961 . S
C1388 H1376 0.959 . S
C1388 C1386 1.561 . S
C1389 C1386 1.526 . S
C1389 C1390 1.396 . S
C1389 C1394 1.390 . S
C1390 C1384 1.465 . S
C1390 C1389 1.396 . S
C1390 C1391 1.399 . S
C1391 H1377 0.929 . S
C1391 C1390 1.399 . S
C1391 C1392 1.385 . S
C1392 H1378 0.931 . S
C1392 C1391 1.385 . S
C1392 C1393 1.389 . S
C1393 C1392 1.389 . S
C1393 C1394 1.387 . S
C1394 H1379 0.930 . S
C1394 C1389 1.390 . S
C1394 C1393 1.387 . S
H1395 C1407 0.930 . S
H1396 C1409 0.930 . S
H1397 C1410 0.930 . S
H1398 C1414 0.959 . S
H1399 C1414 0.959 . S
H1400 C1414 0.961 . S
H1401 C1415 0.960 . S
H1402 C1415 0.961 . S
H1403 C1415 0.959 . S
H1404 C1418 0.929 . S
H1405 C1419 0.931 1_556 S
H1406 C1421 0.930 . S
C1407 H1395 0.930 . S
C1407 C1408 1.399 . S
C1407 C1412 1.399 . S
C1408 C1407 1.399 . S
C1408 C1409 1.376 . S
C1409 H1396 0.930 . S
C1409 C1408 1.376 . S
C1409 C1410 1.388 . S
C1410 H1397 0.930 . S
C1410 C1409 1.388 . S
C1410 C1411 1.390 . S
C1411 C1410 1.390 . S
C1411 C1412 1.394 . S
C1411 C1417 1.465 . S
C1412 C1407 1.399 . S
C1412 C1411 1.394 . S
C1412 C1413 1.516 . S
C1413 C1412 1.516 . S
C1413 C1414 1.502 . S
C1413 C1415 1.561 . S
C1413 C1416 1.526 . S
C1414 H1398 0.959 . S
C1414 H1399 0.959 . S
C1414 H1400 0.961 . S
C1414 C1413 1.502 . S
C1415 H1401 0.960 . S
C1415 H1402 0.961 . S
C1415 H1403 0.959 . S
C1415 C1413 1.561 . S
C1416 C1413 1.526 . S
C1416 C1417 1.396 . S
C1416 C1421 1.390 . S
C1417 C1411 1.465 . S
C1417 C1416 1.396 . S
C1417 C1418 1.399 . S
C1418 H1404 0.929 . S
C1418 C1417 1.399 . S
C1418 C1419 1.385 . S
C1419 H1405 0.931 1_554 S
C1419 C1418 1.385 . S
C1419 C1420 1.389 1_554 S
C1420 C1419 1.389 1_556 S
C1420 C1421 1.387 1_556 S
C1421 H1406 0.930 . S
C1421 C1416 1.390 . S
C1421 C1420 1.387 1_554 S
H1422 C1434 0.930 . S
H1423 C1436 0.930 1_556 S
H1424 C1437 0.930 . S
H1425 C1441 0.959 . S
H1426 C1441 0.959 . S
H1427 C1441 0.961 . S
H1428 C1442 0.960 . S
H1429 C1442 0.961 . S
H1430 C1442 0.959 . S
H1431 C1445 0.929 . S
H1432 C1446 0.931 . S
H1433 C1448 0.930 . S
C1434 H1422 0.930 . S
C1434 C1435 1.399 1_554 S
C1434 C1439 1.399 . S
C1435 C1434 1.399 1_556 S
C1435 C1436 1.376 1_556 S
C1436 H1423 0.930 1_554 S
C1436 C1435 1.376 1_554 S
C1436 C1437 1.388 . S
C1437 H1424 0.930 . S
C1437 C1436 1.388 . S
C1437 C1438 1.390 . S
C1438 C1437 1.390 . S
C1438 C1439 1.394 . S
C1438 C1444 1.465 . S
C1439 C1434 1.399 . S
C1439 C1438 1.394 . S
C1439 C1440 1.516 . S
C1440 C1439 1.516 . S
C1440 C1441 1.502 . S
C1440 C1442 1.561 . S
C1440 C1443 1.526 . S
C1441 H1425 0.959 . S
C1441 H1426 0.959 . S
C1441 H1427 0.961 . S
C1441 C1440 1.502 . S
C1442 H1428 0.960 . S
C1442 H1429 0.961 . S
C1442 H1430 0.959 . S
C1442 C1440 1.561 . S
C1443 C1440 1.526 . S
C1443 C1444 1.396 . S
C1443 C1448 1.390 . S
C1444 C1438 1.465 . S
C1444 C1443 1.396 . S
C1444 C1445 1.399 . S
C1445 H1431 0.929 . S
C1445 C1444 1.399 . S
C1445 C1446 1.385 . S
C1446 H1432 0.931 . S
C1446 C1445 1.385 . S
C1446 C1447 1.389 . S
C1447 C1446 1.389 . S
C1447 C1448 1.387 . S
C1448 H1433 0.930 . S
C1448 C1443 1.390 . S
C1448 C1447 1.387 . S
H1449 C1461 0.930 . S
H1450 C1463 0.930 . S
H1451 C1464 0.930 . S
H1452 C1468 0.959 . S
H1453 C1468 0.959 . S
H1454 C1468 0.961 . S
H1455 C1469 0.960 . S
H1456 C1469 0.961 . S
H1457 C1469 0.959 . S
H1458 C1472 0.929 . S
H1459 C1473 0.931 1_556 S
H1460 C1475 0.930 . S
C1461 H1449 0.930 . S
C1461 C1462 1.399 . S
C1461 C1466 1.399 . S
C1462 C1461 1.399 . S
C1462 C1463 1.376 . S
C1463 H1450 0.930 . S
C1463 C1462 1.376 . S
C1463 C1464 1.388 . S
C1464 H1451 0.930 . S
C1464 C1463 1.388 . S
C1464 C1465 1.390 . S
C1465 C1464 1.390 . S
C1465 C1466 1.394 . S
C1465 C1471 1.465 . S
C1466 C1461 1.399 . S
C1466 C1465 1.394 . S
C1466 C1467 1.516 . S
C1467 C1466 1.516 . S
C1467 C1468 1.502 . S
C1467 C1469 1.561 . S
C1467 C1470 1.526 . S
C1468 H1452 0.959 . S
C1468 H1453 0.959 . S
C1468 H1454 0.961 . S
C1468 C1467 1.502 . S
C1469 H1455 0.960 . S
C1469 H1456 0.961 . S
C1469 H1457 0.959 . S
C1469 C1467 1.561 . S
C1470 C1467 1.526 . S
C1470 C1471 1.396 . S
C1470 C1475 1.390 . S
C1471 C1465 1.465 . S
C1471 C1470 1.396 . S
C1471 C1472 1.399 . S
C1472 H1458 0.929 . S
C1472 C1471 1.399 . S
C1472 C1473 1.385 . S
C1473 H1459 0.931 1_554 S
C1473 C1472 1.385 . S
C1473 C1474 1.389 1_554 S
C1474 C1473 1.389 1_556 S
C1474 C1475 1.387 1_556 S
C1475 H1460 0.930 . S
C1475 C1470 1.390 . S
C1475 C1474 1.387 1_554 S
H1476 C1488 0.930 . S
H1477 C1490 0.930 . S
H1478 C1491 0.930 . S
H1479 C1495 0.959 . S
H1480 C1495 0.959 . S
H1481 C1495 0.961 . S
H1482 C1496 0.960 . S
H1483 C1496 0.961 . S
H1484 C1496 0.959 . S
H1485 C1499 0.929 . S
H1486 C1500 0.931 . S
H1487 C1502 0.930 . S
C1488 H1476 0.930 . S
C1488 C1489 1.399 . S
C1488 C1493 1.399 . S
C1489 C1488 1.399 . S
C1489 C1490 1.376 . S
C1490 H1477 0.930 . S
C1490 C1489 1.376 . S
C1490 C1491 1.388 . S
C1491 H1478 0.930 . S
C1491 C1490 1.388 . S
C1491 C1492 1.390 . S
C1492 C1491 1.390 . S
C1492 C1493 1.394 . S
C1492 C1498 1.465 . S
C1493 C1488 1.399 . S
C1493 C1492 1.394 . S
C1493 C1494 1.516 . S
C1494 C1493 1.516 . S
C1494 C1495 1.502 . S
C1494 C1496 1.561 . S
C1494 C1497 1.526 . S
C1495 H1479 0.959 . S
C1495 H1480 0.959 . S
C1495 H1481 0.961 . S
C1495 C1494 1.502 . S
C1496 H1482 0.960 . S
C1496 H1483 0.961 . S
C1496 H1484 0.959 . S
C1496 C1494 1.561 . S
C1497 C1494 1.526 . S
C1497 C1498 1.396 . S
C1497 C1502 1.390 . S
C1498 C1492 1.465 . S
C1498 C1497 1.396 . S
C1498 C1499 1.399 . S
C1499 H1485 0.929 . S
C1499 C1498 1.399 . S
C1499 C1500 1.385 . S
C1500 H1486 0.931 . S
C1500 C1499 1.385 . S
C1500 C1501 1.389 . S
C1501 C1500 1.389 . S
C1501 C1502 1.387 . S
C1502 H1487 0.930 . S
C1502 C1497 1.390 . S
C1502 C1501 1.387 . S
H1503 C1515 0.930 . S
H1504 C1517 0.930 . S
H1505 C1518 0.930 . S
H1506 C1522 0.959 . S
H1507 C1522 0.959 . S
H1508 C1522 0.961 1_565 S
H1509 C1523 0.960 1_565 S
H1510 C1523 0.961 . S
H1511 C1523 0.959 . S
H1512 C1526 0.929 . S
H1513 C1527 0.931 . S
H1514 C1529 0.930 . S
C1515 H1503 0.930 . S
C1515 C1516 1.399 . S
C1515 C1520 1.399 . S
C1516 C1515 1.399 . S
C1516 C1517 1.376 . S
C1517 H1504 0.930 . S
C1517 C1516 1.376 . S
C1517 C1518 1.388 . S
C1518 H1505 0.930 . S
C1518 C1517 1.388 . S
C1518 C1519 1.390 . S
C1519 C1518 1.390 . S
C1519 C1520 1.394 . S
C1519 C1525 1.465 1_565 S
C1520 C1515 1.399 . S
C1520 C1519 1.394 . S
C1520 C1521 1.516 1_565 S
C1521 C1520 1.516 1_545 S
C1521 C1522 1.502 . S
C1521 C1523 1.561 . S
C1521 C1524 1.526 . S
C1522 H1506 0.959 . S
C1522 H1507 0.959 . S
C1522 H1508 0.961 1_545 S
C1522 C1521 1.502 . S
C1523 H1509 0.960 1_545 S
C1523 H1510 0.961 . S
C1523 H1511 0.959 . S
C1523 C1521 1.561 . S
C1524 C1521 1.526 . S
C1524 C1525 1.396 . S
C1524 C1529 1.390 . S
C1525 C1519 1.465 1_545 S
C1525 C1524 1.396 . S
C1525 C1526 1.399 . S
C1526 H1512 0.929 . S
C1526 C1525 1.399 . S
C1526 C1527 1.385 . S
C1527 H1513 0.931 . S
C1527 C1526 1.385 . S
C1527 C1528 1.389 . S
C1528 C1527 1.389 . S
C1528 C1529 1.387 . S
C1529 H1514 0.930 . S
C1529 C1524 1.390 . S
C1529 C1528 1.387 . S
H1530 C1542 0.930 . S
H1531 C1544 0.930 . S
H1532 C1545 0.930 . S
H1533 C1549 0.949 1_655 S
H1534 C1549 1.034 . S
H1535 C1549 0.930 1_655 S
H1536 C1550 0.960 1_655 S
H1537 C1550 0.961 . S
H1538 C1550 0.959 . S
H1539 C1553 0.929 . S
H1540 C1554 0.931 . S
H1541 C1556 0.930 . S
C1542 H1530 0.930 . S
C1542 C1543 1.399 . S
C1542 C1547 1.399 . S
C1543 C1542 1.399 . S
C1543 C1544 1.376 . S
C1544 H1531 0.930 . S
C1544 C1543 1.376 . S
C1544 C1545 1.388 . S
C1545 H1532 0.930 . S
C1545 C1544 1.388 . S
C1545 C1546 1.390 . S
C1546 C1545 1.390 . S
C1546 C1547 1.394 . S
C1546 C1552 1.465 1_655 S
C1547 C1542 1.399 . S
C1547 C1546 1.394 . S
C1547 C1548 1.516 1_655 S
C1548 C1547 1.516 1_455 S
C1548 C1549 1.472 . S
C1548 C1550 1.561 . S
C1548 C1551 1.526 . S
C1549 H1533 0.949 1_455 S
C1549 H1534 1.034 . S
C1549 H1535 0.930 1_455 S
C1549 C1548 1.472 . S
C1550 H1536 0.960 1_455 S
C1550 H1537 0.961 . S
C1550 H1538 0.959 . S
C1550 C1548 1.561 . S
C1551 C1548 1.526 . S
C1551 C1552 1.396 . S
C1551 C1556 1.390 . S
C1552 C1546 1.465 1_455 S
C1552 C1551 1.396 . S
C1552 C1553 1.399 . S
C1553 H1539 0.929 . S
C1553 C1552 1.399 . S
C1553 C1554 1.385 . S
C1554 H1540 0.931 . S
C1554 C1553 1.385 . S
C1554 C1555 1.389 . S
C1555 C1554 1.389 . S
C1555 C1556 1.387 . S
C1556 H1541 0.930 . S
C1556 C1551 1.390 . S
C1556 C1555 1.387 . S
H1557 C1569 0.930 . S
H1558 C1571 0.930 . S
H1559 C1572 0.930 . S
H1560 C1576 0.959 . S
H1561 C1576 0.959 . S
H1562 C1576 0.961 . S
H1563 C1577 0.960 . S
H1564 C1577 0.961 . S
H1565 C1577 0.959 . S
H1566 C1580 0.929 . S
H1567 C1581 0.931 . S
H1568 C1583 0.930 . S
C1569 H1557 0.930 . S
C1569 C1570 1.399 . S
C1569 C1574 1.399 . S
C1570 C1569 1.399 . S
C1570 C1571 1.376 . S
C1571 H1558 0.930 . S
C1571 C1570 1.376 . S
C1571 C1572 1.388 . S
C1572 H1559 0.930 . S
C1572 C1571 1.388 . S
C1572 C1573 1.390 . S
C1573 C1572 1.390 . S
C1573 C1574 1.394 . S
C1573 C1579 1.465 . S
C1574 C1569 1.399 . S
C1574 C1573 1.394 . S
C1574 C1575 1.516 . S
C1575 C1574 1.516 . S
C1575 C1576 1.502 . S
C1575 C1577 1.561 . S
C1575 C1578 1.526 . S
C1576 H1560 0.959 . S
C1576 H1561 0.959 . S
C1576 H1562 0.961 . S
C1576 C1575 1.502 . S
C1577 H1563 0.960 . S
C1577 H1564 0.961 . S
C1577 H1565 0.959 . S
C1577 C1575 1.561 . S
C1578 C1575 1.526 . S
C1578 C1579 1.396 . S
C1578 C1583 1.390 . S
C1579 C1573 1.465 . S
C1579 C1578 1.396 . S
C1579 C1580 1.399 . S
C1580 H1566 0.929 . S
C1580 C1579 1.399 . S
C1580 C1581 1.385 . S
C1581 H1567 0.931 . S
C1581 C1580 1.385 . S
C1581 C1582 1.389 . S
C1582 C1581 1.389 . S
C1582 C1583 1.387 . S
C1583 H1568 0.930 . S
C1583 C1578 1.390 . S
C1583 C1582 1.387 . S
H1584 C1596 0.930 . S
H1585 C1598 0.930 . S
H1586 C1599 0.930 . S
H1587 C1603 0.959 . S
H1588 C1603 0.959 . S
H1589 C1603 0.961 1_545 S
H1590 C1604 0.960 1_545 S
H1591 C1604 0.961 . S
H1592 C1604 0.959 . S
H1593 C1607 0.929 . S
H1594 C1608 0.931 . S
H1595 C1610 0.930 . S
C1596 H1584 0.930 . S
C1596 C1597 1.399 . S
C1596 C1601 1.399 . S
C1597 C1596 1.399 . S
C1597 C1598 1.376 . S
C1598 H1585 0.930 . S
C1598 C1597 1.376 . S
C1598 C1599 1.388 . S
C1599 H1586 0.930 . S
C1599 C1598 1.388 . S
C1599 C1600 1.390 . S
C1600 C1599 1.390 . S
C1600 C1601 1.394 . S
C1600 C1606 1.465 1_545 S
C1601 C1596 1.399 . S
C1601 C1600 1.394 . S
C1601 C1602 1.516 1_545 S
C1602 C1601 1.516 1_565 S
C1602 C1603 1.502 . S
C1602 C1604 1.561 . S
C1602 C1605 1.526 . S
C1603 H1587 0.959 . S
C1603 H1588 0.959 . S
C1603 H1589 0.961 1_565 S
C1603 C1602 1.502 . S
C1604 H1590 0.960 1_565 S
C1604 H1591 0.961 . S
C1604 H1592 0.959 . S
C1604 C1602 1.561 . S
C1605 C1602 1.526 . S
C1605 C1606 1.396 . S
C1605 C1610 1.390 . S
C1606 C1600 1.465 1_565 S
C1606 C1605 1.396 . S
C1606 C1607 1.399 . S
C1607 H1593 0.929 . S
C1607 C1606 1.399 . S
C1607 C1608 1.385 . S
C1608 H1594 0.931 . S
C1608 C1607 1.385 . S
C1608 C1609 1.389 . S
C1609 C1608 1.389 . S
C1609 C1610 1.387 . S
C1610 H1595 0.930 . S
C1610 C1605 1.390 . S
C1610 C1609 1.387 . S
H1611 C1623 0.930 . S
H1612 C1625 0.930 . S
H1613 C1626 0.930 . S
H1614 C1630 0.959 . S
H1615 C1630 0.959 1_455 S
H1616 C1630 0.961 . S
H1617 C1631 0.960 . S
H1618 C1631 0.929 1_455 S
H1619 C1631 0.959 . S
H1620 C1634 0.929 . S
H1621 C1635 0.931 . S
H1622 C1637 0.930 . S
C1623 H1611 0.930 . S
C1623 C1624 1.399 . S
C1623 C1628 1.399 . S
C1624 C1623 1.399 . S
C1624 C1625 1.376 . S
C1625 H1612 0.930 . S
C1625 C1624 1.376 . S
C1625 C1626 1.388 . S
C1626 H1613 0.930 . S
C1626 C1625 1.388 . S
C1626 C1627 1.390 . S
C1627 C1626 1.390 . S
C1627 C1628 1.394 . S
C1627 C1633 1.465 1_655 S
C1628 C1623 1.399 . S
C1628 C1627 1.394 . S
C1628 C1629 1.516 . S
C1629 C1628 1.516 . S
C1629 C1630 1.502 . S
C1629 C1631 1.561 . S
C1629 C1632 1.526 1_655 S
C1630 H1614 0.959 . S
C1630 H1615 0.959 1_655 S
C1630 H1616 0.961 . S
C1630 C1629 1.502 . S
C1631 H1617 0.960 . S
C1631 H1618 0.929 1_655 S
C1631 H1619 0.959 . S
C1631 C1629 1.561 . S
C1632 C1629 1.526 1_455 S
C1632 C1633 1.396 . S
C1632 C1637 1.390 . S
C1633 C1627 1.465 1_455 S
C1633 C1632 1.396 . S
C1633 C1634 1.399 . S
C1634 H1620 0.929 . S
C1634 C1633 1.399 . S
C1634 C1635 1.385 . S
C1635 H1621 0.931 . S
C1635 C1634 1.385 . S
C1635 C1636 1.389 . S
C1636 C1635 1.389 . S
C1636 C1637 1.387 . S
C1637 H1622 0.930 . S
C1637 C1632 1.390 . S
C1637 C1636 1.387 . S
H1638 C1650 0.930 . S
H1639 C1652 0.930 . S
H1640 C1653 0.930 . S
H1641 C1657 0.959 . S
H1642 C1657 0.959 . S
H1643 C1657 0.961 . S
H1644 C1658 0.960 . S
H1645 C1658 0.961 . S
H1646 C1658 0.959 . S
H1647 C1661 0.929 . S
H1648 C1662 0.931 . S
H1649 C1664 0.930 . S
C1650 H1638 0.930 . S
C1650 C1651 1.399 . S
C1650 C1655 1.399 . S
C1651 C1650 1.399 . S
C1651 C1652 1.376 . S
C1652 H1639 0.930 . S
C1652 C1651 1.376 . S
C1652 C1653 1.388 . S
C1653 H1640 0.930 . S
C1653 C1652 1.388 . S
C1653 C1654 1.390 . S
C1654 C1653 1.390 . S
C1654 C1655 1.394 . S
C1654 C1660 1.465 . S
C1655 C1650 1.399 . S
C1655 C1654 1.394 . S
C1655 C1656 1.516 . S
C1656 C1655 1.516 . S
C1656 C1657 1.502 . S
C1656 C1658 1.561 . S
C1656 C1659 1.526 . S
C1657 H1641 0.959 . S
C1657 H1642 0.959 . S
C1657 H1643 0.961 . S
C1657 C1656 1.502 . S
C1658 H1644 0.960 . S
C1658 H1645 0.961 . S
C1658 H1646 0.959 . S
C1658 C1656 1.561 . S
C1659 C1656 1.526 . S
C1659 C1660 1.396 . S
C1659 C1664 1.390 . S
C1660 C1654 1.465 . S
C1660 C1659 1.396 . S
C1660 C1661 1.399 . S
C1661 H1647 0.929 . S
C1661 C1660 1.399 . S
C1661 C1662 1.385 . S
C1662 H1648 0.931 . S
C1662 C1661 1.385 . S
C1662 C1663 1.389 . S
C1663 C1662 1.389 . S
C1663 C1664 1.387 . S
C1664 H1649 0.930 . S
C1664 C1659 1.390 . S
C1664 C1663 1.387 . S
H1665 C1677 0.930 . S
H1666 C1679 0.930 . S
H1667 C1680 0.930 . S
H1668 C1684 0.959 . S
H1669 C1684 0.959 . S
H1670 C1684 0.961 . S
H1671 C1685 0.960 . S
H1672 C1685 0.961 . S
H1673 C1685 0.959 . S
H1674 C1688 0.929 . S
H1675 C1689 0.931 . S
H1676 C1691 0.930 . S
C1677 H1665 0.930 . S
C1677 C1678 1.399 . S
C1677 C1682 1.399 . S
C1678 C1677 1.399 . S
C1678 C1679 1.376 . S
C1679 H1666 0.930 . S
C1679 C1678 1.376 . S
C1679 C1680 1.388 . S
C1680 H1667 0.930 . S
C1680 C1679 1.388 . S
C1680 C1681 1.390 . S
C1681 C1680 1.390 . S
C1681 C1682 1.394 . S
C1681 C1687 1.465 . S
C1682 C1677 1.399 . S
C1682 C1681 1.394 . S
C1682 C1683 1.516 . S
C1683 C1682 1.516 . S
C1683 C1684 1.502 . S
C1683 C1685 1.561 . S
C1683 C1686 1.526 . S
C1684 H1668 0.959 . S
C1684 H1669 0.959 . S
C1684 H1670 0.961 . S
C1684 C1683 1.502 . S
C1685 H1671 0.960 . S
C1685 H1672 0.961 . S
C1685 H1673 0.959 . S
C1685 C1683 1.561 . S
C1686 C1683 1.526 . S
C1686 C1687 1.396 . S
C1686 C1691 1.390 . S
C1687 C1681 1.465 . S
C1687 C1686 1.396 . S
C1687 C1688 1.399 . S
C1688 H1674 0.929 . S
C1688 C1687 1.399 . S
C1688 C1689 1.385 . S
C1689 H1675 0.931 . S
C1689 C1688 1.385 . S
C1689 C1690 1.389 . S
C1690 C1689 1.389 . S
C1690 C1691 1.387 . S
C1691 H1676 0.930 . S
C1691 C1686 1.390 . S
C1691 C1690 1.387 . S
H1692 C1704 0.930 . S
H1693 C1706 0.930 . S
H1694 C1707 0.930 . S
H1695 C1711 0.959 . S
H1696 C1711 0.959 . S
H1697 C1711 0.961 . S
H1698 C1712 0.960 . S
H1699 C1712 0.961 . S
H1700 C1712 0.959 . S
H1701 C1715 0.929 . S
H1702 C1716 0.931 . S
H1703 C1718 0.930 . S
C1704 H1692 0.930 . S
C1704 C1705 1.399 . S
C1704 C1709 1.399 . S
C1705 C1704 1.399 . S
C1705 C1706 1.376 . S
C1706 H1693 0.930 . S
C1706 C1705 1.376 . S
C1706 C1707 1.388 . S
C1707 H1694 0.930 . S
C1707 C1706 1.388 . S
C1707 C1708 1.390 . S
C1708 C1707 1.390 . S
C1708 C1709 1.394 . S
C1708 C1714 1.465 . S
C1709 C1704 1.399 . S
C1709 C1708 1.394 . S
C1709 C1710 1.516 . S
C1710 C1709 1.516 . S
C1710 C1711 1.502 . S
C1710 C1712 1.561 . S
C1710 C1713 1.526 . S
C1711 H1695 0.959 . S
C1711 H1696 0.959 . S
C1711 H1697 0.961 . S
C1711 C1710 1.502 . S
C1712 H1698 0.960 . S
C1712 H1699 0.961 . S
C1712 H1700 0.959 . S
C1712 C1710 1.561 . S
C1713 C1710 1.526 . S
C1713 C1714 1.396 . S
C1713 C1718 1.390 . S
C1714 C1708 1.465 . S
C1714 C1713 1.396 . S
C1714 C1715 1.399 . S
C1715 H1701 0.929 . S
C1715 C1714 1.399 . S
C1715 C1716 1.385 . S
C1716 H1702 0.931 . S
C1716 C1715 1.385 . S
C1716 C1717 1.389 . S
C1717 C1716 1.389 . S
C1717 C1718 1.387 . S
C1718 H1703 0.930 . S
C1718 C1713 1.390 . S
C1718 C1717 1.387 . S
H1719 C1731 0.930 . S
H1720 C1733 0.930 . S
H1721 C1734 0.930 . S
H1722 C1738 0.959 . S
H1723 C1738 0.959 . S
H1724 C1738 0.961 . S
H1725 C1739 0.960 . S
H1726 C1739 0.961 . S
H1727 C1739 0.959 . S
H1728 C1742 0.929 . S
H1729 C1743 0.931 . S
H1730 C1745 0.930 . S
C1731 H1719 0.930 . S
C1731 C1732 1.399 . S
C1731 C1736 1.399 . S
C1732 C1731 1.399 . S
C1732 C1733 1.376 . S
C1733 H1720 0.930 . S
C1733 C1732 1.376 . S
C1733 C1734 1.388 . S
C1734 H1721 0.930 . S
C1734 C1733 1.388 . S
C1734 C1735 1.390 . S
C1735 C1734 1.390 . S
C1735 C1736 1.394 . S
C1735 C1741 1.465 . S
C1736 C1731 1.399 . S
C1736 C1735 1.394 . S
C1736 C1737 1.516 . S
C1737 C1736 1.516 . S
C1737 C1738 1.502 1_554 S
C1737 C1739 1.561 . S
C1737 C1740 1.526 . S
C1738 H1722 0.959 . S
C1738 H1723 0.959 . S
C1738 H1724 0.961 . S
C1738 C1737 1.502 1_556 S
C1739 H1725 0.960 . S
C1739 H1726 0.961 . S
C1739 H1727 0.959 . S
C1739 C1737 1.561 . S
C1740 C1737 1.526 . S
C1740 C1741 1.396 . S
C1740 C1745 1.390 . S
C1741 C1735 1.465 . S
C1741 C1740 1.396 . S
C1741 C1742 1.399 . S
C1742 H1728 0.929 . S
C1742 C1741 1.399 . S
C1742 C1743 1.385 . S
C1743 H1729 0.931 . S
C1743 C1742 1.385 . S
C1743 C1744 1.389 . S
C1744 C1743 1.389 . S
C1744 C1745 1.387 . S
C1745 H1730 0.930 . S
C1745 C1740 1.390 . S
C1745 C1744 1.387 . S
H1746 C1758 0.930 . S
H1747 C1760 0.930 1_556 S
H1748 C1761 0.930 1_556 S
H1749 C1765 0.959 . S
H1750 C1765 0.959 . S
H1751 C1765 0.961 . S
H1752 C1766 0.960 . S
H1753 C1766 0.961 . S
H1754 C1766 0.959 . S
H1755 C1769 0.929 . S
H1756 C1770 0.931 . S
H1757 C1772 0.930 . S
C1758 H1746 0.930 . S
C1758 C1759 1.399 . S
C1758 C1763 1.399 . S
C1759 C1758 1.399 . S
C1759 C1760 1.376 . S
C1760 H1747 0.930 1_554 S
C1760 C1759 1.376 . S
C1760 C1761 1.388 . S
C1761 H1748 0.930 1_554 S
C1761 C1760 1.388 . S
C1761 C1762 1.390 . S
C1762 C1761 1.390 . S
C1762 C1763 1.394 . S
C1762 C1768 1.465 . S
C1763 C1758 1.399 . S
C1763 C1762 1.394 . S
C1763 C1764 1.516 . S
C1764 C1763 1.516 . S
C1764 C1765 1.502 . S
C1764 C1766 1.561 . S
C1764 C1767 1.526 . S
C1765 H1749 0.959 . S
C1765 H1750 0.959 . S
C1765 H1751 0.961 . S
C1765 C1764 1.502 . S
C1766 H1752 0.960 . S
C1766 H1753 0.961 . S
C1766 H1754 0.959 . S
C1766 C1764 1.561 . S
C1767 C1764 1.526 . S
C1767 C1768 1.396 . S
C1767 C1772 1.390 . S
C1768 C1762 1.465 . S
C1768 C1767 1.396 . S
C1768 C1769 1.399 . S
C1769 H1755 0.929 . S
C1769 C1768 1.399 . S
C1769 C1770 1.385 . S
C1770 H1756 0.931 . S
C1770 C1769 1.385 . S
C1770 C1771 1.389 . S
C1771 C1770 1.389 . S
C1771 C1772 1.387 . S
C1772 H1757 0.930 . S
C1772 C1767 1.390 . S
C1772 C1771 1.387 . S
H1773 C1785 0.930 . S
H1774 C1787 0.930 . S
H1775 C1788 0.930 . S
H1776 C1792 0.959 . S
H1777 C1792 0.959 . S
H1778 C1792 0.961 . S
H1779 C1793 0.960 . S
H1780 C1793 0.961 . S
H1781 C1793 0.959 . S
H1782 C1796 0.929 . S
H1783 C1797 0.931 . S
H1784 C1799 0.930 . S
C1785 H1773 0.930 . S
C1785 C1786 1.399 . S
C1785 C1790 1.399 . S
C1786 C1785 1.399 . S
C1786 C1787 1.376 . S
C1787 H1774 0.930 . S
C1787 C1786 1.376 . S
C1787 C1788 1.388 . S
C1788 H1775 0.930 . S
C1788 C1787 1.388 . S
C1788 C1789 1.390 . S
C1789 C1788 1.390 . S
C1789 C1790 1.394 . S
C1789 C1795 1.465 . S
C1790 C1785 1.399 . S
C1790 C1789 1.394 . S
C1790 C1791 1.516 . S
C1791 C1790 1.516 . S
C1791 C1792 1.502 . S
C1791 C1793 1.561 . S
C1791 C1794 1.526 . S
C1792 H1776 0.959 . S
C1792 H1777 0.959 . S
C1792 H1778 0.961 . S
C1792 C1791 1.502 . S
C1793 H1779 0.960 . S
C1793 H1780 0.961 . S
C1793 H1781 0.959 . S
C1793 C1791 1.561 . S
C1794 C1791 1.526 . S
C1794 C1795 1.396 . S
C1794 C1799 1.390 . S
C1795 C1789 1.465 . S
C1795 C1794 1.396 . S
C1795 C1796 1.399 . S
C1796 H1782 0.929 . S
C1796 C1795 1.399 . S
C1796 C1797 1.385 . S
C1797 H1783 0.931 . S
C1797 C1796 1.385 . S
C1797 C1798 1.389 . S
C1798 C1797 1.389 . S
C1798 C1799 1.387 . S
C1799 H1784 0.930 . S
C1799 C1794 1.390 . S
C1799 C1798 1.387 . S
H1800 C1812 0.930 . S
H1801 C1814 0.930 . S
H1802 C1815 0.930 . S
H1803 C1819 0.959 . S
H1804 C1819 0.959 . S
H1805 C1819 0.961 . S
H1806 C1820 0.960 . S
H1807 C1820 0.961 . S
H1808 C1820 0.959 . S
H1809 C1823 0.929 . S
H1810 C1824 0.931 . S
H1811 C1826 0.930 . S
C1812 H1800 0.930 . S
C1812 C1813 1.399 . S
C1812 C1817 1.399 . S
C1813 C1812 1.399 . S
C1813 C1814 1.376 . S
C1814 H1801 0.930 . S
C1814 C1813 1.376 . S
C1814 C1815 1.388 . S
C1815 H1802 0.930 . S
C1815 C1814 1.388 . S
C1815 C1816 1.390 . S
C1816 C1815 1.390 . S
C1816 C1817 1.394 . S
C1816 C1822 1.465 . S
C1817 C1812 1.399 . S
C1817 C1816 1.394 . S
C1817 C1818 1.516 . S
C1818 C1817 1.516 . S
C1818 C1819 1.502 1_556 S
C1818 C1820 1.561 . S
C1818 C1821 1.526 . S
C1819 H1803 0.959 . S
C1819 H1804 0.959 . S
C1819 H1805 0.961 . S
C1819 C1818 1.502 1_554 S
C1820 H1806 0.960 . S
C1820 H1807 0.961 . S
C1820 H1808 0.959 . S
C1820 C1818 1.561 . S
C1821 C1818 1.526 . S
C1821 C1822 1.396 . S
C1821 C1826 1.390 . S
C1822 C1816 1.465 . S
C1822 C1821 1.396 . S
C1822 C1823 1.399 . S
C1823 H1809 0.929 . S
C1823 C1822 1.399 . S
C1823 C1824 1.385 . S
C1824 H1810 0.931 . S
C1824 C1823 1.385 . S
C1824 C1825 1.389 . S
C1825 C1824 1.389 . S
C1825 C1826 1.387 . S
C1826 H1811 0.930 . S
C1826 C1821 1.390 . S
C1826 C1825 1.387 . S
H1827 C1839 0.930 . S
H1828 C1841 0.930 1_554 S
H1829 C1842 0.930 1_554 S
H1830 C1846 0.959 . S
H1831 C1846 0.959 . S
H1832 C1846 0.961 . S
H1833 C1847 0.960 . S
H1834 C1847 0.961 . S
H1835 C1847 0.959 . S
H1836 C1850 0.929 . S
H1837 C1851 0.931 . S
H1838 C1853 0.930 . S
C1839 H1827 0.930 . S
C1839 C1840 1.399 . S
C1839 C1844 1.399 . S
C1840 C1839 1.399 . S
C1840 C1841 1.376 . S
C1841 H1828 0.930 1_556 S
C1841 C1840 1.376 . S
C1841 C1842 1.388 . S
C1842 H1829 0.930 1_556 S
C1842 C1841 1.388 . S
C1842 C1843 1.390 . S
C1843 C1842 1.390 . S
C1843 C1844 1.394 . S
C1843 C1849 1.465 . S
C1844 C1839 1.399 . S
C1844 C1843 1.394 . S
C1844 C1845 1.516 . S
C1845 C1844 1.516 . S
C1845 C1846 1.502 . S
C1845 C1847 1.561 . S
C1845 C1848 1.526 . S
C1846 H1830 0.959 . S
C1846 H1831 0.959 . S
C1846 H1832 0.961 . S
C1846 C1845 1.502 . S
C1847 H1833 0.960 . S
C1847 H1834 0.961 . S
C1847 H1835 0.959 . S
C1847 C1845 1.561 . S
C1848 C1845 1.526 . S
C1848 C1849 1.396 . S
C1848 C1853 1.390 . S
C1849 C1843 1.465 . S
C1849 C1848 1.396 . S
C1849 C1850 1.399 . S
C1850 H1836 0.929 . S
C1850 C1849 1.399 . S
C1850 C1851 1.385 . S
C1851 H1837 0.931 . S
C1851 C1850 1.385 . S
C1851 C1852 1.389 . S
C1852 C1851 1.389 . S
C1852 C1853 1.387 . S
C1853 H1838 0.930 . S
C1853 C1848 1.390 . S
C1853 C1852 1.387 . S
H1854 C1866 0.930 . S
H1855 C1868 0.930 . S
H1856 C1869 0.930 . S
H1857 C1873 0.959 . S
H1858 C1873 0.959 . S
H1859 C1873 0.961 . S
H1860 C1874 0.960 . S
H1861 C1874 0.961 . S
H1862 C1874 0.959 . S
H1863 C1877 0.929 . S
H1864 C1878 0.931 . S
H1865 C1880 0.930 . S
C1866 H1854 0.930 . S
C1866 C1867 1.399 . S
C1866 C1871 1.399 . S
C1867 C1866 1.399 . S
C1867 C1868 1.376 . S
C1868 H1855 0.930 . S
C1868 C1867 1.376 . S
C1868 C1869 1.388 . S
C1869 H1856 0.930 . S
C1869 C1868 1.388 . S
C1869 C1870 1.390 . S
C1870 C1869 1.390 . S
C1870 C1871 1.394 . S
C1870 C1876 1.465 . S
C1871 C1866 1.399 . S
C1871 C1870 1.394 . S
C1871 C1872 1.516 . S
C1872 C1871 1.516 . S
C1872 C1873 1.502 . S
C1872 C1874 1.561 . S
C1872 C1875 1.526 . S
C1873 H1857 0.959 . S
C1873 H1858 0.959 . S
C1873 H1859 0.961 . S
C1873 C1872 1.502 . S
C1874 H1860 0.960 . S
C1874 H1861 0.961 . S
C1874 H1862 0.959 . S
C1874 C1872 1.561 . S
C1875 C1872 1.526 . S
C1875 C1876 1.396 . S
C1875 C1880 1.390 . S
C1876 C1870 1.465 . S
C1876 C1875 1.396 . S
C1876 C1877 1.399 . S
C1877 H1863 0.929 . S
C1877 C1876 1.399 . S
C1877 C1878 1.385 . S
C1878 H1864 0.931 . S
C1878 C1877 1.385 . S
C1878 C1879 1.389 . S
C1879 C1878 1.389 . S
C1879 C1880 1.387 . S
C1880 H1865 0.930 . S
C1880 C1875 1.390 . S
C1880 C1879 1.387 . S
H1881 C1893 0.930 . S
H1882 C1895 0.930 . S
H1883 C1896 0.930 . S
H1884 C1900 0.959 . S
H1885 C1900 0.959 . S
H1886 C1900 0.961 . S
H1887 C1901 0.960 . S
H1888 C1901 0.961 . S
H1889 C1901 0.959 . S
H1890 C1904 0.929 . S
H1891 C1905 0.931 . S
H1892 C1907 0.930 . S
C1893 H1881 0.930 . S
C1893 C1894 1.399 . S
C1893 C1898 1.399 . S
C1894 C1893 1.399 . S
C1894 C1895 1.376 . S
C1895 H1882 0.930 . S
C1895 C1894 1.376 . S
C1895 C1896 1.388 . S
C1896 H1883 0.930 . S
C1896 C1895 1.388 . S
C1896 C1897 1.390 . S
C1897 C1896 1.390 . S
C1897 C1898 1.394 . S
C1897 C1903 1.465 . S
C1898 C1893 1.399 . S
C1898 C1897 1.394 . S
C1898 C1899 1.516 . S
C1899 C1898 1.516 . S
C1899 C1900 1.502 . S
C1899 C1901 1.561 . S
C1899 C1902 1.526 . S
C1900 H1884 0.959 . S
C1900 H1885 0.959 . S
C1900 H1886 0.961 . S
C1900 C1899 1.502 . S
C1901 H1887 0.960 . S
C1901 H1888 0.961 . S
C1901 H1889 0.959 . S
C1901 C1899 1.561 . S
C1902 C1899 1.526 . S
C1902 C1903 1.396 . S
C1902 C1907 1.390 . S
C1903 C1897 1.465 . S
C1903 C1902 1.396 . S
C1903 C1904 1.399 . S
C1904 H1890 0.929 . S
C1904 C1903 1.399 . S
C1904 C1905 1.385 . S
C1905 H1891 0.931 . S
C1905 C1904 1.385 . S
C1905 C1906 1.389 . S
C1906 C1905 1.389 . S
C1906 C1907 1.387 . S
C1907 H1892 0.930 . S
C1907 C1902 1.390 . S
C1907 C1906 1.387 . S
H1908 C1920 0.930 . S
H1909 C1922 0.930 . S
H1910 C1923 0.930 . S
H1911 C1927 0.959 . S
H1912 C1927 0.959 . S
H1913 C1927 0.961 . S
H1914 C1928 0.960 . S
H1915 C1928 0.961 . S
H1916 C1928 0.959 . S
H1917 C1931 0.929 . S
H1918 C1932 0.931 . S
H1919 C1934 0.930 . S
C1920 H1908 0.930 . S
C1920 C1921 1.399 . S
C1920 C1925 1.399 . S
C1921 C1920 1.399 . S
C1921 C1922 1.376 . S
C1922 H1909 0.930 . S
C1922 C1921 1.376 . S
C1922 C1923 1.388 . S
C1923 H1910 0.930 . S
C1923 C1922 1.388 . S
C1923 C1924 1.390 . S
C1924 C1923 1.390 . S
C1924 C1925 1.394 . S
C1924 C1930 1.465 . S
C1925 C1920 1.399 . S
C1925 C1924 1.394 . S
C1925 C1926 1.516 . S
C1926 C1925 1.516 . S
C1926 C1927 1.502 . S
C1926 C1928 1.561 . S
C1926 C1929 1.526 . S
C1927 H1911 0.959 . S
C1927 H1912 0.959 . S
C1927 H1913 0.961 . S
C1927 C1926 1.502 . S
C1928 H1914 0.960 . S
C1928 H1915 0.961 . S
C1928 H1916 0.959 . S
C1928 C1926 1.561 . S
C1929 C1926 1.526 . S
C1929 C1930 1.396 . S
C1929 C1934 1.390 . S
C1930 C1924 1.465 . S
C1930 C1929 1.396 . S
C1930 C1931 1.399 . S
C1931 H1917 0.929 . S
C1931 C1930 1.399 . S
C1931 C1932 1.385 . S
C1932 H1918 0.931 . S
C1932 C1931 1.385 . S
C1932 C1933 1.389 . S
C1933 C1932 1.389 . S
C1933 C1934 1.387 . S
C1934 H1919 0.930 . S
C1934 C1929 1.390 . S
C1934 C1933 1.387 . S
H1935 C1947 0.930 . S
H1936 C1949 0.930 . S
H1937 C1950 0.930 . S
H1938 C1954 0.959 . S
H1939 C1954 0.959 . S
H1940 C1954 0.961 . S
H1941 C1955 0.960 . S
H1942 C1955 0.961 . S
H1943 C1955 0.959 . S
H1944 C1958 0.929 . S
H1945 C1959 0.931 . S
H1946 C1961 0.930 . S
C1947 H1935 0.930 . S
C1947 C1948 1.399 . S
C1947 C1952 1.399 . S
C1948 C1947 1.399 . S
C1948 C1949 1.376 . S
C1949 H1936 0.930 . S
C1949 C1948 1.376 . S
C1949 C1950 1.388 . S
C1950 H1937 0.930 . S
C1950 C1949 1.388 . S
C1950 C1951 1.390 . S
C1951 C1950 1.390 . S
C1951 C1952 1.394 . S
C1951 C1957 1.465 . S
C1952 C1947 1.399 . S
C1952 C1951 1.394 . S
C1952 C1953 1.516 . S
C1953 C1952 1.516 . S
C1953 C1954 1.502 . S
C1953 C1955 1.561 . S
C1953 C1956 1.526 . S
C1954 H1938 0.959 . S
C1954 H1939 0.959 . S
C1954 H1940 0.961 . S
C1954 C1953 1.502 . S
C1955 H1941 0.960 . S
C1955 H1942 0.961 . S
C1955 H1943 0.959 . S
C1955 C1953 1.561 . S
C1956 C1953 1.526 . S
C1956 C1957 1.396 . S
C1956 C1961 1.390 . S
C1957 C1951 1.465 . S
C1957 C1956 1.396 . S
C1957 C1958 1.399 . S
C1958 H1944 0.929 . S
C1958 C1957 1.399 . S
C1958 C1959 1.385 . S
C1959 H1945 0.931 . S
C1959 C1958 1.385 . S
C1959 C1960 1.389 . S
C1960 C1959 1.389 . S
C1960 C1961 1.387 . S
C1961 H1946 0.930 . S
C1961 C1956 1.390 . S
C1961 C1960 1.387 . S
H1962 C1974 0.930 . S
H1963 C1976 0.930 . S
H1964 C1977 0.930 . S
H1965 C1981 0.959 . S
H1966 C1981 0.959 . S
H1967 C1981 0.961 . S
H1968 C1982 0.960 . S
H1969 C1982 0.961 . S
H1970 C1982 0.959 . S
H1971 C1985 0.929 . S
H1972 C1986 0.931 . S
H1973 C1988 0.930 . S
C1974 H1962 0.930 . S
C1974 C1975 1.399 . S
C1974 C1979 1.399 . S
C1975 C1974 1.399 . S
C1975 C1976 1.376 . S
C1976 H1963 0.930 . S
C1976 C1975 1.376 . S
C1976 C1977 1.388 . S
C1977 H1964 0.930 . S
C1977 C1976 1.388 . S
C1977 C1978 1.390 . S
C1978 C1977 1.390 . S
C1978 C1979 1.394 . S
C1978 C1984 1.465 . S
C1979 C1974 1.399 . S
C1979 C1978 1.394 . S
C1979 C1980 1.516 . S
C1980 C1979 1.516 . S
C1980 C1981 1.502 . S
C1980 C1982 1.561 . S
C1980 C1983 1.526 . S
C1981 H1965 0.959 . S
C1981 H1966 0.959 . S
C1981 H1967 0.961 . S
C1981 C1980 1.502 . S
C1982 H1968 0.960 . S
C1982 H1969 0.961 . S
C1982 H1970 0.959 . S
C1982 C1980 1.561 . S
C1983 C1980 1.526 . S
C1983 C1984 1.396 . S
C1983 C1988 1.390 . S
C1984 C1978 1.465 . S
C1984 C1983 1.396 . S
C1984 C1985 1.399 . S
C1985 H1971 0.929 . S
C1985 C1984 1.399 . S
C1985 C1986 1.385 . S
C1986 H1972 0.931 . S
C1986 C1985 1.385 . S
C1986 C1987 1.389 . S
C1987 C1986 1.389 . S
C1987 C1988 1.387 . S
C1988 H1973 0.930 . S
C1988 C1983 1.390 . S
C1988 C1987 1.387 . S
H1989 C2001 0.930 . S
H1990 C2003 0.930 . S
H1991 C2004 0.930 . S
H1992 C2008 0.959 . S
H1993 C2008 0.959 . S
H1994 C2008 0.961 . S
H1995 C2009 0.960 . S
H1996 C2009 0.961 . S
H1997 C2009 0.959 . S
H1998 C2012 0.929 . S
H1999 C2013 0.931 . S
H2000 C2015 0.930 . S
C2001 H1989 0.930 . S
C2001 C2002 1.399 . S
C2001 C2006 1.399 . S
C2002 C2001 1.399 . S
C2002 C2003 1.376 . S
C2003 H1990 0.930 . S
C2003 C2002 1.376 . S
C2003 C2004 1.388 . S
C2004 H1991 0.930 . S
C2004 C2003 1.388 . S
C2004 C2005 1.390 . S
C2005 C2004 1.390 . S
C2005 C2006 1.394 . S
C2005 C2011 1.465 . S
C2006 C2001 1.399 . S
C2006 C2005 1.394 . S
C2006 C2007 1.516 . S
C2007 C2006 1.516 . S
C2007 C2008 1.502 . S
C2007 C2009 1.561 . S
C2007 C2010 1.526 . S
C2008 H1992 0.959 . S
C2008 H1993 0.959 . S
C2008 H1994 0.961 . S
C2008 C2007 1.502 . S
C2009 H1995 0.960 . S
C2009 H1996 0.961 . S
C2009 H1997 0.959 . S
C2009 C2007 1.561 . S
C2010 C2007 1.526 . S
C2010 C2011 1.396 . S
C2010 C2015 1.390 . S
C2011 C2005 1.465 . S
C2011 C2010 1.396 . S
C2011 C2012 1.399 . S
C2012 H1998 0.929 . S
C2012 C2011 1.399 . S
C2012 C2013 1.385 . S
C2013 H1999 0.931 . S
C2013 C2012 1.385 . S
C2013 C2014 1.389 . S
C2014 C2013 1.389 . S
C2014 C2015 1.387 . S
C2015 H2000 0.930 . S
C2015 C2010 1.390 . S
C2015 C2014 1.387 . S
H2016 C2028 0.930 . S
H2017 C2030 0.930 . S
H2018 C2031 0.930 . S
H2019 C2035 0.959 . S
H2020 C2035 0.959 . S
H2021 C2035 0.961 . S
H2022 C2036 0.960 . S
H2023 C2036 0.961 . S
H2024 C2036 0.959 . S
H2025 C2039 0.929 . S
H2026 C2040 0.931 . S
H2027 C2042 0.930 . S
C2028 H2016 0.930 . S
C2028 C2029 1.399 . S
C2028 C2033 1.399 . S
C2029 C2028 1.399 . S
C2029 C2030 1.376 . S
C2030 H2017 0.930 . S
C2030 C2029 1.376 . S
C2030 C2031 1.388 . S
C2031 H2018 0.930 . S
C2031 C2030 1.388 . S
C2031 C2032 1.390 . S
C2032 C2031 1.390 . S
C2032 C2033 1.394 . S
C2032 C2038 1.465 . S
C2033 C2028 1.399 . S
C2033 C2032 1.394 . S
C2033 C2034 1.516 . S
C2034 C2033 1.516 . S
C2034 C2035 1.502 . S
C2034 C2036 1.561 . S
C2034 C2037 1.526 . S
C2035 H2019 0.959 . S
C2035 H2020 0.959 . S
C2035 H2021 0.961 . S
C2035 C2034 1.502 . S
C2036 H2022 0.960 . S
C2036 H2023 0.961 . S
C2036 H2024 0.959 . S
C2036 C2034 1.561 . S
C2037 C2034 1.526 . S
C2037 C2038 1.396 . S
C2037 C2042 1.390 . S
C2038 C2032 1.465 . S
C2038 C2037 1.396 . S
C2038 C2039 1.399 . S
C2039 H2025 0.929 . S
C2039 C2038 1.399 . S
C2039 C2040 1.385 . S
C2040 H2026 0.931 . S
C2040 C2039 1.385 . S
C2040 C2041 1.389 . S
C2041 C2040 1.389 . S
C2041 C2042 1.387 . S
C2042 H2027 0.930 . S
C2042 C2037 1.390 . S
C2042 C2041 1.387 . S
H2043 C2055 0.930 . S
H2044 C2057 0.930 . S
H2045 C2058 0.930 . S
H2046 C2062 0.959 . S
H2047 C2062 0.959 . S
H2048 C2062 0.961 . S
H2049 C2063 0.960 . S
H2050 C2063 0.961 . S
H2051 C2063 0.959 . S
H2052 C2066 0.929 . S
H2053 C2067 0.931 . S
H2054 C2069 0.930 . S
C2055 H2043 0.930 . S
C2055 C2056 1.399 . S
C2055 C2060 1.399 . S
C2056 C2055 1.399 . S
C2056 C2057 1.376 . S
C2057 H2044 0.930 . S
C2057 C2056 1.376 . S
C2057 C2058 1.388 . S
C2058 H2045 0.930 . S
C2058 C2057 1.388 . S
C2058 C2059 1.390 . S
C2059 C2058 1.390 . S
C2059 C2060 1.394 . S
C2059 C2065 1.465 . S
C2060 C2055 1.399 . S
C2060 C2059 1.394 . S
C2060 C2061 1.516 . S
C2061 C2060 1.516 . S
C2061 C2062 1.502 . S
C2061 C2063 1.561 . S
C2061 C2064 1.526 . S
C2062 H2046 0.959 . S
C2062 H2047 0.959 . S
C2062 H2048 0.961 . S
C2062 C2061 1.502 . S
C2063 H2049 0.960 . S
C2063 H2050 0.961 . S
C2063 H2051 0.959 . S
C2063 C2061 1.561 . S
C2064 C2061 1.526 . S
C2064 C2065 1.396 . S
C2064 C2069 1.390 . S
C2065 C2059 1.465 . S
C2065 C2064 1.396 . S
C2065 C2066 1.399 . S
C2066 H2052 0.929 . S
C2066 C2065 1.399 . S
C2066 C2067 1.385 . S
C2067 H2053 0.931 . S
C2067 C2066 1.385 . S
C2067 C2068 1.389 . S
C2068 C2067 1.389 . S
C2068 C2069 1.387 . S
C2069 H2054 0.930 . S
C2069 C2064 1.390 . S
C2069 C2068 1.387 . S
H2070 C2082 0.930 . S
H2071 C2084 0.930 . S
H2072 C2085 0.930 . S
H2073 C2089 0.959 . S
H2074 C2089 0.959 . S
H2075 C2089 0.961 . S
H2076 C2090 0.960 . S
H2077 C2090 0.961 . S
H2078 C2090 0.959 . S
H2079 C2093 0.929 . S
H2080 C2094 0.931 . S
H2081 C2096 0.930 . S
C2082 H2070 0.930 . S
C2082 C2083 1.399 . S
C2082 C2087 1.399 . S
C2083 C2082 1.399 . S
C2083 C2084 1.376 . S
C2084 H2071 0.930 . S
C2084 C2083 1.376 . S
C2084 C2085 1.388 . S
C2085 H2072 0.930 . S
C2085 C2084 1.388 . S
C2085 C2086 1.390 . S
C2086 C2085 1.390 . S
C2086 C2087 1.394 . S
C2086 C2092 1.465 . S
C2087 C2082 1.399 . S
C2087 C2086 1.394 . S
C2087 C2088 1.516 . S
C2088 C2087 1.516 . S
C2088 C2089 1.502 . S
C2088 C2090 1.561 . S
C2088 C2091 1.526 . S
C2089 H2073 0.959 . S
C2089 H2074 0.959 . S
C2089 H2075 0.961 . S
C2089 C2088 1.502 . S
C2090 H2076 0.960 . S
C2090 H2077 0.961 . S
C2090 H2078 0.959 . S
C2090 C2088 1.561 . S
C2091 C2088 1.526 . S
C2091 C2092 1.396 . S
C2091 C2096 1.390 . S
C2092 C2086 1.465 . S
C2092 C2091 1.396 . S
C2092 C2093 1.399 . S
C2093 H2079 0.929 . S
C2093 C2092 1.399 . S
C2093 C2094 1.385 . S
C2094 H2080 0.931 . S
C2094 C2093 1.385 . S
C2094 C2095 1.389 . S
C2095 C2094 1.389 . S
C2095 C2096 1.387 . S
C2096 H2081 0.930 . S
C2096 C2091 1.390 . S
C2096 C2095 1.387 . S
H2097 C2109 0.930 . S
H2098 C2111 0.930 . S
H2099 C2112 0.930 . S
H2100 C2116 0.959 . S
H2101 C2116 0.959 . S
H2102 C2116 0.961 . S
H2103 C2117 0.960 . S
H2104 C2117 0.961 . S
H2105 C2117 0.959 . S
H2106 C2120 0.929 . S
H2107 C2121 0.931 . S
H2108 C2123 0.930 . S
C2109 H2097 0.930 . S
C2109 C2110 1.399 . S
C2109 C2114 1.399 . S
C2110 C2109 1.399 . S
C2110 C2111 1.376 . S
C2111 H2098 0.930 . S
C2111 C2110 1.376 . S
C2111 C2112 1.388 . S
C2112 H2099 0.930 . S
C2112 C2111 1.388 . S
C2112 C2113 1.390 . S
C2113 C2112 1.390 . S
C2113 C2114 1.394 . S
C2113 C2119 1.465 . S
C2114 C2109 1.399 . S
C2114 C2113 1.394 . S
C2114 C2115 1.516 . S
C2115 C2114 1.516 . S
C2115 C2116 1.502 . S
C2115 C2117 1.561 . S
C2115 C2118 1.526 . S
C2116 H2100 0.959 . S
C2116 H2101 0.959 . S
C2116 H2102 0.961 . S
C2116 C2115 1.502 . S
C2117 H2103 0.960 . S
C2117 H2104 0.961 . S
C2117 H2105 0.959 . S
C2117 C2115 1.561 . S
C2118 C2115 1.526 . S
C2118 C2119 1.396 . S
C2118 C2123 1.390 . S
C2119 C2113 1.465 . S
C2119 C2118 1.396 . S
C2119 C2120 1.399 . S
C2120 H2106 0.929 . S
C2120 C2119 1.399 . S
C2120 C2121 1.385 . S
C2121 H2107 0.931 . S
C2121 C2120 1.385 . S
C2121 C2122 1.389 . S
C2122 C2121 1.389 . S
C2122 C2123 1.387 . S
C2123 H2108 0.930 . S
C2123 C2118 1.390 . S
C2123 C2122 1.387 . S
H2124 C2136 0.930 . S
H2125 C2138 0.930 . S
H2126 C2139 0.930 . S
H2127 C2143 0.959 . S
H2128 C2143 0.959 . S
H2129 C2143 0.961 . S
H2130 C2144 0.960 . S
H2131 C2144 0.961 . S
H2132 C2144 0.959 . S
H2133 C2147 0.929 . S
H2134 C2148 0.931 . S
H2135 C2150 0.930 . S
C2136 H2124 0.930 . S
C2136 C2137 1.399 . S
C2136 C2141 1.399 . S
C2137 C2136 1.399 . S
C2137 C2138 1.376 . S
C2138 H2125 0.930 . S
C2138 C2137 1.376 . S
C2138 C2139 1.388 . S
C2139 H2126 0.930 . S
C2139 C2138 1.388 . S
C2139 C2140 1.390 . S
C2140 C2139 1.390 . S
C2140 C2141 1.394 . S
C2140 C2146 1.465 . S
C2141 C2136 1.399 . S
C2141 C2140 1.394 . S
C2141 C2142 1.516 . S
C2142 C2141 1.516 . S
C2142 C2143 1.502 . S
C2142 C2144 1.561 . S
C2142 C2145 1.526 . S
C2143 H2127 0.959 . S
C2143 H2128 0.959 . S
C2143 H2129 0.961 . S
C2143 C2142 1.502 . S
C2144 H2130 0.960 . S
C2144 H2131 0.961 . S
C2144 H2132 0.959 . S
C2144 C2142 1.561 . S
C2145 C2142 1.526 . S
C2145 C2146 1.396 . S
C2145 C2150 1.390 . S
C2146 C2140 1.465 . S
C2146 C2145 1.396 . S
C2146 C2147 1.399 . S
C2147 H2133 0.929 . S
C2147 C2146 1.399 . S
C2147 C2148 1.385 . S
C2148 H2134 0.931 . S
C2148 C2147 1.385 . S
C2148 C2149 1.389 . S
C2149 C2148 1.389 . S
C2149 C2150 1.387 . S
C2150 H2135 0.930 . S
C2150 C2145 1.390 . S
C2150 C2149 1.387 . S
H2151 C2163 0.930 . S
H2152 C2165 0.930 . S
H2153 C2166 0.930 . S
H2154 C2170 0.959 . S
H2155 C2170 0.959 . S
H2156 C2170 0.961 . S
H2157 C2171 0.960 . S
H2158 C2171 0.961 . S
H2159 C2171 0.959 . S
H2160 C2174 0.929 . S
H2161 C2175 0.931 . S
H2162 C2177 0.930 . S
C2163 H2151 0.930 . S
C2163 C2164 1.399 . S
C2163 C2168 1.399 . S
C2164 C2163 1.399 . S
C2164 C2165 1.376 . S
C2165 H2152 0.930 . S
C2165 C2164 1.376 . S
C2165 C2166 1.388 . S
C2166 H2153 0.930 . S
C2166 C2165 1.388 . S
C2166 C2167 1.390 . S
C2167 C2166 1.390 . S
C2167 C2168 1.394 . S
C2167 C2173 1.465 . S
C2168 C2163 1.399 . S
C2168 C2167 1.394 . S
C2168 C2169 1.516 . S
C2169 C2168 1.516 . S
C2169 C2170 1.502 . S
C2169 C2171 1.561 . S
C2169 C2172 1.526 . S
C2170 H2154 0.959 . S
C2170 H2155 0.959 . S
C2170 H2156 0.961 . S
C2170 C2169 1.502 . S
C2171 H2157 0.960 . S
C2171 H2158 0.961 . S
C2171 H2159 0.959 . S
C2171 C2169 1.561 . S
C2172 C2169 1.526 . S
C2172 C2173 1.396 . S
C2172 C2177 1.390 . S
C2173 C2167 1.465 . S
C2173 C2172 1.396 . S
C2173 C2174 1.399 . S
C2174 H2160 0.929 . S
C2174 C2173 1.399 . S
C2174 C2175 1.385 . S
C2175 H2161 0.931 . S
C2175 C2174 1.385 . S
C2175 C2176 1.389 . S
C2176 C2175 1.389 . S
C2176 C2177 1.387 . S
C2177 H2162 0.930 . S
C2177 C2172 1.390 . S
C2177 C2176 1.387 . S
H2178 C2190 0.930 . S
H2179 C2192 0.930 . S
H2180 C2193 0.930 . S
H2181 C2197 0.959 . S
H2182 C2197 0.959 . S
H2183 C2197 0.961 . S
H2184 C2198 0.960 . S
H2185 C2198 0.961 . S
H2186 C2198 0.959 . S
H2187 C2201 0.929 . S
H2188 C2202 0.931 . S
H2189 C2204 0.930 . S
C2190 H2178 0.930 . S
C2190 C2191 1.399 . S
C2190 C2195 1.399 . S
C2191 C2190 1.399 . S
C2191 C2192 1.376 . S
C2192 H2179 0.930 . S
C2192 C2191 1.376 . S
C2192 C2193 1.388 . S
C2193 H2180 0.930 . S
C2193 C2192 1.388 . S
C2193 C2194 1.390 . S
C2194 C2193 1.390 . S
C2194 C2195 1.394 . S
C2194 C2200 1.465 . S
C2195 C2190 1.399 . S
C2195 C2194 1.394 . S
C2195 C2196 1.516 . S
C2196 C2195 1.516 . S
C2196 C2197 1.502 . S
C2196 C2198 1.561 . S
C2196 C2199 1.526 . S
C2197 H2181 0.959 . S
C2197 H2182 0.959 . S
C2197 H2183 0.961 . S
C2197 C2196 1.502 . S
C2198 H2184 0.960 . S
C2198 H2185 0.961 . S
C2198 H2186 0.959 . S
C2198 C2196 1.561 . S
C2199 C2196 1.526 . S
C2199 C2200 1.396 . S
C2199 C2204 1.390 . S
C2200 C2194 1.465 . S
C2200 C2199 1.396 . S
C2200 C2201 1.399 . S
C2201 H2187 0.929 . S
C2201 C2200 1.399 . S
C2201 C2202 1.385 . S
C2202 H2188 0.931 . S
C2202 C2201 1.385 . S
C2202 C2203 1.389 . S
C2203 C2202 1.389 . S
C2203 C2204 1.387 . S
C2204 H2189 0.930 . S
C2204 C2199 1.390 . S
C2204 C2203 1.387 . S
H2205 C2217 0.930 . S
H2206 C2219 0.930 . S
H2207 C2220 0.930 . S
H2208 C2224 0.959 . S
H2209 C2224 0.959 . S
H2210 C2224 0.961 . S
H2211 C2225 0.960 . S
H2212 C2225 0.961 . S
H2213 C2225 0.959 . S
H2214 C2228 0.929 . S
H2215 C2229 0.931 . S
H2216 C2231 0.930 . S
C2217 H2205 0.930 . S
C2217 C2218 1.399 . S
C2217 C2222 1.399 . S
C2218 C2217 1.399 . S
C2218 C2219 1.376 . S
C2219 H2206 0.930 . S
C2219 C2218 1.376 . S
C2219 C2220 1.388 . S
C2220 H2207 0.930 . S
C2220 C2219 1.388 . S
C2220 C2221 1.390 . S
C2221 C2220 1.390 . S
C2221 C2222 1.394 . S
C2221 C2227 1.465 . S
C2222 C2217 1.399 . S
C2222 C2221 1.394 . S
C2222 C2223 1.516 . S
C2223 C2222 1.516 . S
C2223 C2224 1.502 . S
C2223 C2225 1.561 . S
C2223 C2226 1.526 . S
C2224 H2208 0.959 . S
C2224 H2209 0.959 . S
C2224 H2210 0.961 . S
C2224 C2223 1.502 . S
C2225 H2211 0.960 . S
C2225 H2212 0.961 . S
C2225 H2213 0.959 . S
C2225 C2223 1.561 . S
C2226 C2223 1.526 . S
C2226 C2227 1.396 . S
C2226 C2231 1.390 . S
C2227 C2221 1.465 . S
C2227 C2226 1.396 . S
C2227 C2228 1.399 . S
C2228 H2214 0.929 . S
C2228 C2227 1.399 . S
C2228 C2229 1.385 . S
C2229 H2215 0.931 . S
C2229 C2228 1.385 . S
C2229 C2230 1.389 . S
C2230 C2229 1.389 . S
C2230 C2231 1.387 . S
C2231 H2216 0.930 . S
C2231 C2226 1.390 . S
C2231 C2230 1.387 . S
H2232 C2244 0.930 . S
H2233 C2246 0.930 . S
H2234 C2247 0.930 . S
H2235 C2251 0.959 . S
H2236 C2251 0.959 . S
H2237 C2251 0.961 . S
H2238 C2252 0.960 . S
H2239 C2252 0.961 . S
H2240 C2252 0.959 . S
H2241 C2255 0.929 . S
H2242 C2256 0.931 . S
H2243 C2258 0.930 . S
C2244 H2232 0.930 . S
C2244 C2245 1.399 . S
C2244 C2249 1.399 . S
C2245 C2244 1.399 . S
C2245 C2246 1.376 . S
C2246 H2233 0.930 . S
C2246 C2245 1.376 . S
C2246 C2247 1.388 . S
C2247 H2234 0.930 . S
C2247 C2246 1.388 . S
C2247 C2248 1.390 . S
C2248 C2247 1.390 . S
C2248 C2249 1.394 . S
C2248 C2254 1.465 . S
C2249 C2244 1.399 . S
C2249 C2248 1.394 . S
C2249 C2250 1.516 . S
C2250 C2249 1.516 . S
C2250 C2251 1.502 . S
C2250 C2252 1.561 . S
C2250 C2253 1.526 . S
C2251 H2235 0.959 . S
C2251 H2236 0.959 . S
C2251 H2237 0.961 . S
C2251 C2250 1.502 . S
C2252 H2238 0.960 . S
C2252 H2239 0.961 . S
C2252 H2240 0.959 . S
C2252 C2250 1.561 . S
C2253 C2250 1.526 . S
C2253 C2254 1.396 . S
C2253 C2258 1.390 . S
C2254 C2248 1.465 . S
C2254 C2253 1.396 . S
C2254 C2255 1.399 . S
C2255 H2241 0.929 . S
C2255 C2254 1.399 . S
C2255 C2256 1.385 . S
C2256 H2242 0.931 . S
C2256 C2255 1.385 . S
C2256 C2257 1.389 . S
C2257 C2256 1.389 . S
C2257 C2258 1.387 . S
C2258 H2243 0.930 . S
C2258 C2253 1.390 . S
C2258 C2257 1.387 . S
H2259 C2271 0.930 . S
H2260 C2273 0.930 . S
H2261 C2274 0.930 . S
H2262 C2278 0.959 . S
H2263 C2278 0.959 . S
H2264 C2278 0.961 . S
H2265 C2279 0.960 . S
H2266 C2279 0.961 . S
H2267 C2279 0.959 . S
H2268 C2282 0.929 . S
H2269 C2283 0.931 . S
H2270 C2285 0.930 . S
C2271 H2259 0.930 . S
C2271 C2272 1.399 . S
C2271 C2276 1.399 . S
C2272 C2271 1.399 . S
C2272 C2273 1.376 . S
C2273 H2260 0.930 . S
C2273 C2272 1.376 . S
C2273 C2274 1.388 . S
C2274 H2261 0.930 . S
C2274 C2273 1.388 . S
C2274 C2275 1.390 . S
C2275 C2274 1.390 . S
C2275 C2276 1.394 . S
C2275 C2281 1.465 . S
C2276 C2271 1.399 . S
C2276 C2275 1.394 . S
C2276 C2277 1.516 . S
C2277 C2276 1.516 . S
C2277 C2278 1.502 . S
C2277 C2279 1.561 . S
C2277 C2280 1.526 . S
C2278 H2262 0.959 . S
C2278 H2263 0.959 . S
C2278 H2264 0.961 . S
C2278 C2277 1.502 . S
C2279 H2265 0.960 . S
C2279 H2266 0.961 . S
C2279 H2267 0.959 . S
C2279 C2277 1.561 . S
C2280 C2277 1.526 . S
C2280 C2281 1.396 . S
C2280 C2285 1.390 . S
C2281 C2275 1.465 . S
C2281 C2280 1.396 . S
C2281 C2282 1.399 . S
C2282 H2268 0.929 . S
C2282 C2281 1.399 . S
C2282 C2283 1.385 . S
C2283 H2269 0.931 . S
C2283 C2282 1.385 . S
C2283 C2284 1.389 . S
C2284 C2283 1.389 . S
C2284 C2285 1.387 . S
C2285 H2270 0.930 . S
C2285 C2280 1.390 . S
C2285 C2284 1.387 . S
H2286 C2298 0.930 . S
H2287 C2300 0.930 . S
H2288 C2301 0.930 . S
H2289 C2305 0.959 . S
H2290 C2305 0.959 . S
H2291 C2305 0.981 . S
H2292 C2306 0.923 1_455 S
H2293 C2306 0.981 . S
H2294 C2306 0.968 1_455 S
H2295 C2309 0.929 . S
H2296 C2310 0.931 . S
H2297 C2312 0.930 . S
C2298 H2286 0.930 . S
C2298 C2299 1.399 . S
C2298 C2303 1.399 . S
C2299 C2298 1.399 . S
C2299 C2300 1.376 . S
C2300 H2287 0.930 . S
C2300 C2299 1.376 . S
C2300 C2301 1.388 . S
C2301 H2288 0.930 . S
C2301 C2300 1.388 . S
C2301 C2302 1.390 . S
C2302 C2301 1.390 . S
C2302 C2303 1.394 . S
C2302 C2308 1.465 1_455 S
C2303 C2298 1.399 . S
C2303 C2302 1.394 . S
C2303 C2304 1.516 1_455 S
C2304 C2303 1.516 1_655 S
C2304 C2305 1.502 . S
C2304 C2306 1.571 . S
C2304 C2307 1.526 . S
C2305 H2289 0.959 . S
C2305 H2290 0.959 . S
C2305 H2291 0.981 . S
C2305 C2304 1.502 . S
C2306 H2292 0.923 1_655 S
C2306 H2293 0.981 . S
C2306 H2294 0.968 1_655 S
C2306 C2304 1.571 . S
C2307 C2304 1.526 . S
C2307 C2308 1.396 . S
C2307 C2312 1.390 . S
C2308 C2302 1.465 1_655 S
C2308 C2307 1.396 . S
C2308 C2309 1.399 . S
C2309 H2295 0.929 . S
C2309 C2308 1.399 . S
C2309 C2310 1.385 . S
C2310 H2296 0.931 . S
C2310 C2309 1.385 . S
C2310 C2311 1.389 . S
C2311 C2310 1.389 . S
C2311 C2312 1.387 . S
C2312 H2297 0.930 . S
C2312 C2307 1.390 . S
C2312 C2311 1.387 . S
H2313 C2325 0.930 . S
H2314 C2327 0.930 . S
H2315 C2328 0.930 . S
H2316 C2332 0.959 . S
H2317 C2332 0.959 . S
H2318 C2332 0.961 . S
H2319 C2333 0.960 . S
H2320 C2333 0.961 . S
H2321 C2333 0.959 . S
H2322 C2336 0.929 . S
H2323 C2337 0.931 . S
H2324 C2339 0.930 . S
C2325 H2313 0.930 . S
C2325 C2326 1.399 . S
C2325 C2330 1.399 . S
C2326 C2325 1.399 . S
C2326 C2327 1.376 . S
C2327 H2314 0.930 . S
C2327 C2326 1.376 . S
C2327 C2328 1.388 . S
C2328 H2315 0.930 . S
C2328 C2327 1.388 . S
C2328 C2329 1.390 . S
C2329 C2328 1.390 . S
C2329 C2330 1.394 . S
C2329 C2335 1.465 . S
C2330 C2325 1.399 . S
C2330 C2329 1.394 . S
C2330 C2331 1.516 . S
C2331 C2330 1.516 . S
C2331 C2332 1.502 . S
C2331 C2333 1.561 . S
C2331 C2334 1.526 . S
C2332 H2316 0.959 . S
C2332 H2317 0.959 . S
C2332 H2318 0.961 . S
C2332 C2331 1.502 . S
C2333 H2319 0.960 . S
C2333 H2320 0.961 . S
C2333 H2321 0.959 . S
C2333 C2331 1.561 . S
C2334 C2331 1.526 . S
C2334 C2335 1.396 . S
C2334 C2339 1.390 . S
C2335 C2329 1.465 . S
C2335 C2334 1.396 . S
C2335 C2336 1.399 . S
C2336 H2322 0.929 . S
C2336 C2335 1.399 . S
C2336 C2337 1.385 . S
C2337 H2323 0.931 . S
C2337 C2336 1.385 . S
C2337 C2338 1.389 . S
C2338 C2337 1.389 . S
C2338 C2339 1.387 . S
C2339 H2324 0.930 . S
C2339 C2334 1.390 . S
C2339 C2338 1.387 . S
H2340 C2352 0.930 . S
H2341 C2354 0.930 . S
H2342 C2355 0.930 . S
H2343 C2359 0.959 . S
H2344 C2359 0.959 . S
H2345 C2359 0.961 . S
H2346 C2360 0.960 . S
H2347 C2360 0.961 . S
H2348 C2360 0.959 . S
H2349 C2363 0.929 . S
H2350 C2364 0.931 . S
H2351 C2366 0.930 . S
C2352 H2340 0.930 . S
C2352 C2353 1.399 . S
C2352 C2357 1.399 . S
C2353 C2352 1.399 . S
C2353 C2354 1.376 . S
C2354 H2341 0.930 . S
C2354 C2353 1.376 . S
C2354 C2355 1.388 . S
C2355 H2342 0.930 . S
C2355 C2354 1.388 . S
C2355 C2356 1.390 . S
C2356 C2355 1.390 . S
C2356 C2357 1.394 . S
C2356 C2362 1.465 1_545 S
C2357 C2352 1.399 . S
C2357 C2356 1.394 . S
C2357 C2358 1.516 . S
C2358 C2357 1.516 . S
C2358 C2359 1.502 . S
C2358 C2360 1.561 . S
C2358 C2361 1.526 1_545 S
C2359 H2343 0.959 . S
C2359 H2344 0.959 . S
C2359 H2345 0.961 . S
C2359 C2358 1.502 . S
C2360 H2346 0.960 . S
C2360 H2347 0.961 . S
C2360 H2348 0.959 . S
C2360 C2358 1.561 . S
C2361 C2358 1.526 1_565 S
C2361 C2362 1.396 . S
C2361 C2366 1.390 . S
C2362 C2356 1.465 1_565 S
C2362 C2361 1.396 . S
C2362 C2363 1.399 . S
C2363 H2349 0.929 . S
C2363 C2362 1.399 . S
C2363 C2364 1.385 . S
C2364 H2350 0.931 . S
C2364 C2363 1.385 . S
C2364 C2365 1.389 . S
C2365 C2364 1.389 . S
C2365 C2366 1.387 . S
C2366 H2351 0.930 . S
C2366 C2361 1.390 . S
C2366 C2365 1.387 . S
H2367 C2379 0.930 . S
H2368 C2381 0.930 . S
H2369 C2382 0.930 . S
H2370 C2386 0.959 . S
H2371 C2386 0.959 . S
H2372 C2386 0.961 . S
H2373 C2387 0.960 . S
H2374 C2387 0.961 1_565 S
H2375 C2387 0.958 1_565 S
H2376 C2390 0.929 1_554 S
H2377 C2391 0.931 . S
H2378 C2393 0.930 . S
C2379 H2367 0.930 . S
C2379 C2380 1.399 . S
C2379 C2384 1.399 . S
C2380 C2379 1.399 . S
C2380 C2381 1.376 . S
C2381 H2368 0.930 . S
C2381 C2380 1.376 . S
C2381 C2382 1.388 . S
C2382 H2369 0.930 . S
C2382 C2381 1.388 . S
C2382 C2383 1.390 . S
C2383 C2382 1.390 . S
C2383 C2384 1.394 . S
C2383 C2389 1.465 1_545 S
C2384 C2379 1.399 . S
C2384 C2383 1.394 . S
C2384 C2385 1.516 . S
C2385 C2384 1.516 . S
C2385 C2386 1.502 1_554 S
C2385 C2387 1.561 . S
C2385 C2388 1.526 1_544 S
C2386 H2370 0.959 . S
C2386 H2371 0.959 . S
C2386 H2372 0.961 . S
C2386 C2385 1.502 1_556 S
C2387 H2373 0.960 . S
C2387 H2374 0.961 1_545 S
C2387 H2375 0.958 1_545 S
C2387 C2385 1.561 . S
C2388 C2385 1.526 1_566 S
C2388 C2389 1.396 1_556 S
C2388 C2393 1.390 . S
C2389 C2383 1.465 1_565 S
C2389 C2388 1.396 1_554 S
C2389 C2390 1.399 1_554 S
C2390 H2376 0.929 1_556 S
C2390 C2389 1.399 1_556 S
C2390 C2391 1.385 . S
C2391 H2377 0.931 . S
C2391 C2390 1.385 . S
C2391 C2392 1.389 . S
C2392 C2391 1.389 . S
C2392 C2393 1.387 . S
C2393 H2378 0.930 . S
C2393 C2388 1.390 . S
C2393 C2392 1.387 . S
H2394 C2406 0.930 . S
H2395 C2408 0.930 . S
H2396 C2409 0.930 . S
H2397 C2413 0.959 . S
H2398 C2413 0.959 1_455 S
H2399 C2413 0.961 . S
H2400 C2414 0.960 1_655 S
H2401 C2414 0.961 . S
H2402 C2414 0.959 . S
H2403 C2417 0.929 . S
H2404 C2418 0.931 . S
H2405 C2420 0.930 . S
C2406 H2394 0.930 . S
C2406 C2407 1.399 . S
C2406 C2411 1.399 . S
C2407 C2406 1.399 . S
C2407 C2408 1.376 1_554 S
C2408 H2395 0.930 . S
C2408 C2407 1.376 1_556 S
C2408 C2409 1.388 . S
C2409 H2396 0.930 . S
C2409 C2408 1.388 . S
C2409 C2410 1.390 . S
C2410 C2409 1.390 . S
C2410 C2411 1.394 1_556 S
C2410 C2416 1.465 1_655 S
C2411 C2406 1.399 . S
C2411 C2410 1.394 1_554 S
C2411 C2412 1.516 1_655 S
C2412 C2411 1.516 1_455 S
C2412 C2413 1.502 1_455 S
C2412 C2414 1.561 . S
C2412 C2415 1.526 . S
C2413 H2397 0.959 . S
C2413 H2398 0.959 1_655 S
C2413 H2399 0.961 . S
C2413 C2412 1.502 1_655 S
C2414 H2400 0.960 1_455 S
C2414 H2401 0.961 . S
C2414 H2402 0.959 . S
C2414 C2412 1.561 . S
C2415 C2412 1.526 . S
C2415 C2416 1.396 1_554 S
C2415 C2420 1.390 . S
C2416 C2410 1.465 1_455 S
C2416 C2415 1.396 1_556 S
C2416 C2417 1.399 . S
C2417 H2403 0.929 . S
C2417 C2416 1.399 . S
C2417 C2418 1.385 . S
C2418 H2404 0.931 . S
C2418 C2417 1.385 . S
C2418 C2419 1.389 . S
C2419 C2418 1.389 . S
C2419 C2420 1.387 1_556 S
C2420 H2405 0.930 . S
C2420 C2415 1.390 . S
C2420 C2419 1.387 1_554 S
H2421 C2433 0.930 . S
H2422 C2435 0.930 . S
H2423 C2436 0.930 . S
H2424 C2440 0.959 . S
H2425 C2440 0.959 . S
H2426 C2440 0.961 . S
H2427 C2441 0.960 . S
H2428 C2441 0.961 . S
H2429 C2441 0.959 . S
H2430 C2444 0.929 . S
H2431 C2445 0.931 . S
H2432 C2447 0.930 . S
C2433 H2421 0.930 . S
C2433 C2434 1.399 1_556 S
C2433 C2438 1.399 . S
C2434 C2433 1.399 1_554 S
C2434 C2435 1.376 . S
C2435 H2422 0.930 . S
C2435 C2434 1.376 . S
C2435 C2436 1.388 . S
C2436 H2423 0.930 . S
C2436 C2435 1.388 . S
C2436 C2437 1.390 . S
C2437 C2436 1.390 . S
C2437 C2438 1.394 1_554 S
C2437 C2443 1.465 . S
C2438 C2433 1.399 . S
C2438 C2437 1.394 1_556 S
C2438 C2439 1.516 . S
C2439 C2438 1.516 . S
C2439 C2440 1.502 . S
C2439 C2441 1.561 . S
C2439 C2442 1.526 . S
C2440 H2424 0.959 . S
C2440 H2425 0.959 . S
C2440 H2426 0.961 . S
C2440 C2439 1.502 . S
C2441 H2427 0.960 . S
C2441 H2428 0.961 . S
C2441 H2429 0.959 . S
C2441 C2439 1.561 . S
C2442 C2439 1.526 . S
C2442 C2443 1.396 1_556 S
C2442 C2447 1.390 . S
C2443 C2437 1.465 . S
C2443 C2442 1.396 1_554 S
C2443 C2444 1.399 . S
C2444 H2430 0.929 . S
C2444 C2443 1.399 . S
C2444 C2445 1.385 . S
C2445 H2431 0.931 . S
C2445 C2444 1.385 . S
C2445 C2446 1.389 1_554 S
C2446 C2445 1.389 1_556 S
C2446 C2447 1.387 . S
C2447 H2432 0.930 . S
C2447 C2442 1.390 . S
C2447 C2446 1.387 . S
C517 C147 1.170 . S
C529 C3 1.123 . S
C544 C161 1.189 . S
C556 C17 1.147 . S
C571 C31 1.120 . S
C583 C133 1.172 . S
C598 C45 1.212 . S
C610 C119 1.215 . S
C625 C59 1.188 . S
C637 C91 1.209 . S
C652 C105 1.217 . S
C664 C73 1.210 . S
C679 C63 1.190 . S
C691 C87 1.129 . S
C706 C77 1.173 . S
C718 C101 1.156 . S
C733 C115 1.154 . S
C745 C49 1.206 . S
C760 C35 1.208 . S
C772 C129 1.212 . S
C787 C143 1.210 . S
C799 C7 1.202 . S
C814 C157 1.212 . S
C826 C21 1.211 . S
C841 C315 1.170 . S
C853 C171 1.122 . S
C868 C329 1.184 . S
C880 C185 1.138 . S
C895 C199 1.120 . S
C907 C301 1.172 . S
C922 C213 1.204 . S
C934 C287 1.215 . S
C949 C227 1.196 . S
C961 C259 1.212 . S
C976 C241 1.187 . S
C988 C273 1.199 . S
C1003 C231 1.192 . S
C1015 C255 1.199 . S
C1030 C245 1.214 . S
C1042 C269 1.178 . S
C1057 C217 1.176 . S
C1069 C283 1.122 . S
C1084 C203 1.175 . S
C1096 C297 1.123 . S
C1111 C175 1.173 . S
C1123 C311 1.157 . S
C1138 C189 1.193 . S
C1150 C325 1.200 . S
C1165 C339 1.196 . S
C1177 C483 1.204 . S
C1192 C497 1.187 . S
C1204 C353 1.165 . S
C1219 C469 1.206 . S
C1231 C367 1.181 . S
C1246 C381 1.212 . S
C1258 C455 1.216 . S
C1273 C395 1.136 . S
C1285 C427 1.175 . S
C1300 C409 1.148 . S
C1312 C441 1.190 . S
C1327 C399 1.199 . S
C1339 C423 1.140 . S
C1354 C413 1.170 . S
C1366 C437 1.140 . S
C1381 C385 1.174 . S
C1393 C451 1.123 . S
C1408 C465 1.164 . S
C1420 C371 1.210 . S
C1435 C343 1.216 . S
C1447 C479 1.202 . S
C1462 C493 1.204 . S
C1474 C357 1.216 . S
C1489 C50 1.510 . S
C1501 C8 1.507 . S
C1516 C64 1.515 . S
C1528 C22 1.519 . S
C1543 C36 1.522 . S
C1555 C78 1.522 . S
C1570 C134 1.507 . S
C1582 C92 1.510 . S
C1597 C148 1.508 . S
C1609 C106 1.515 . S
C1624 C162 1.522 . S
C1636 C120 1.516 . S
C1651 C218 1.516 . S
C1663 C176 1.512 . S
C1678 C232 1.514 . S
C1690 C190 1.510 . S
C1705 C204 1.513 . S
C1717 C246 1.518 . S
C1732 C260 1.518 . S
C1744 C302 1.509 . S
C1759 C316 1.522 . S
C1771 C274 1.516 . S
C1786 C288 1.509 . S
C1798 C330 1.508 . S
C1813 C386 1.510 . S
C1825 C344 1.515 . S
C1840 C400 1.512 . S
C1852 C358 1.509 . S
C1867 C372 1.520 . S
C1879 C414 1.523 . S
C1894 C428 1.522 . S
C1906 C470 1.515 . S
C1921 C442 1.522 . S
C1933 C484 1.520 . S
C1948 C456 1.522 . S
C1960 C498 1.516 . S
C1975 C9 1.460 . S
C1987 C261 1.513 . S
C2002 C275 1.501 . S
C2014 C23 1.480 . S
C2029 C289 1.500 . S
C2041 C37 1.482 . S
C2056 C471 1.494 . S
C2068 C51 1.487 . S
C2083 C485 1.470 . S
C2095 C65 1.495 . S
C2110 C499 1.479 . S
C2122 C79 1.501 . S
C2137 C93 1.479 . S
C2149 C345 1.486 . S
C2164 C359 1.490 . S
C2176 C107 1.476 . S
C2191 C373 1.512 . S
C2203 C121 1.465 . S
C2218 C135 1.477 . S
C2230 C219 1.488 . S
C2245 C149 1.465 . S
C2257 C233 1.501 . S
C2272 C163 1.497 . S
C2284 C247 1.469 . S
C2299 C429 1.460 . S
C2311 C177 1.508 . S
C2326 C443 1.475 . S
C2338 C191 1.490 . S
C2353 C205 1.513 . S
C2365 C457 1.461 . S
C2380 C303 1.513 . S
C2392 C387 1.461 . S
C2407 C317 1.501 . S
C2419 C401 1.481 . S
C2434 C331 1.486 . S
C2446 C415 1.479 . S
