# Generated by pormake.
# Topology ums, (4)-cn, num edge types: 1
# Building blocks:
#     Node 0, Type 0, BuildingBlock: CEKHIL_clean_sbu_0, # of connection points: 4
#     Node 1, Type 0, BuildingBlock: CEKHIL_clean_sbu_0, # of connection points: 4
#     Node 2, Type 0, BuildingBlock: CEKHIL_clean_sbu_0, # of connection points: 4
#     Node 3, Type 0, BuildingBlock: CEKHIL_clean_sbu_0, # of connection points: 4
#     Node 4, Type 0, BuildingBlock: CEKHIL_clean_sbu_0, # of connection points: 4
#     Node 5, Type 0, BuildingBlock: CEKHIL_clean_sbu_0, # of connection points: 4
#     Node 6, Type 0, BuildingBlock: CEKHIL_clean_sbu_0, # of connection points: 4
#     Node 7, Type 0, BuildingBlock: CEKHIL_clean_sbu_0, # of connection points: 4
#     Node 8, Type 0, BuildingBlock: CEKHIL_clean_sbu_0, # of connection points: 4
#     Node 9, Type 0, BuildingBlock: CEKHIL_clean_sbu_0, # of connection points: 4
#     Node 10, Type 0, BuildingBlock: CEKHIL_clean_sbu_0, # of connection points: 4
#     Node 11, Type 0, BuildingBlock: CEKHIL_clean_sbu_0, # of connection points: 4
#     Node 12, Type 0, BuildingBlock: CEKHIL_clean_sbu_0, # of connection points: 4
#     Node 13, Type 0, BuildingBlock: CEKHIL_clean_sbu_0, # of connection points: 4
#     Node 14, Type 0, BuildingBlock: CEKHIL_clean_sbu_0, # of connection points: 4
#     Node 15, Type 0, BuildingBlock: CEKHIL_clean_sbu_0, # of connection points: 4
#     Node 16, Type 0, BuildingBlock: CEKHIL_clean_sbu_0, # of connection points: 4
#     Node 17, Type 0, BuildingBlock: CEKHIL_clean_sbu_0, # of connection points: 4
#     Node 18, Type 0, BuildingBlock: CEKHIL_clean_sbu_0, # of connection points: 4
#     Node 19, Type 0, BuildingBlock: CEKHIL_clean_sbu_0, # of connection points: 4
#     Node 20, Type 0, BuildingBlock: CEKHIL_clean_sbu_0, # of connection points: 4
#     Node 21, Type 0, BuildingBlock: CEKHIL_clean_sbu_0, # of connection points: 4
#     Node 22, Type 0, BuildingBlock: CEKHIL_clean_sbu_0, # of connection points: 4
#     Node 23, Type 0, BuildingBlock: CEKHIL_clean_sbu_0, # of connection points: 4
#     Node 24, Type 0, BuildingBlock: CEKHIL_clean_sbu_0, # of connection points: 4
#     Node 25, Type 0, BuildingBlock: CEKHIL_clean_sbu_0, # of connection points: 4
#     Node 26, Type 0, BuildingBlock: CEKHIL_clean_sbu_0, # of connection points: 4
#     Node 27, Type 0, BuildingBlock: CEKHIL_clean_sbu_0, # of connection points: 4
#     Node 28, Type 0, BuildingBlock: CEKHIL_clean_sbu_0, # of connection points: 4
#     Node 29, Type 0, BuildingBlock: CEKHIL_clean_sbu_0, # of connection points: 4
#     Node 30, Type 0, BuildingBlock: CEKHIL_clean_sbu_0, # of connection points: 4
#     Node 31, Type 0, BuildingBlock: CEKHIL_clean_sbu_0, # of connection points: 4
#     Node 32, Type 0, BuildingBlock: CEKHIL_clean_sbu_0, # of connection points: 4
#     Node 33, Type 0, BuildingBlock: CEKHIL_clean_sbu_0, # of connection points: 4
#     Node 34, Type 0, BuildingBlock: CEKHIL_clean_sbu_0, # of connection points: 4
#     Node 35, Type 0, BuildingBlock: CEKHIL_clean_sbu_0, # of connection points: 4
#     Edge 36, Type (0, 0), BuildingBlock: CIFDUS_clean_linker_0, # of connection points: 2
#     Edge 37, Type (0, 0), BuildingBlock: CIFDUS_clean_linker_0, # of connection points: 2
#     Edge 38, Type (0, 0), BuildingBlock: CIFDUS_clean_linker_0, # of connection points: 2
#     Edge 39, Type (0, 0), BuildingBlock: CIFDUS_clean_linker_0, # of connection points: 2
#     Edge 40, Type (0, 0), BuildingBlock: CIFDUS_clean_linker_0, # of connection points: 2
#     Edge 41, Type (0, 0), BuildingBlock: CIFDUS_clean_linker_0, # of connection points: 2
#     Edge 42, Type (0, 0), BuildingBlock: CIFDUS_clean_linker_0, # of connection points: 2
#     Edge 43, Type (0, 0), BuildingBlock: CIFDUS_clean_linker_0, # of connection points: 2
#     Edge 44, Type (0, 0), BuildingBlock: CIFDUS_clean_linker_0, # of connection points: 2
#     Edge 45, Type (0, 0), BuildingBlock: CIFDUS_clean_linker_0, # of connection points: 2
#     Edge 46, Type (0, 0), BuildingBlock: CIFDUS_clean_linker_0, # of connection points: 2
#     Edge 47, Type (0, 0), BuildingBlock: CIFDUS_clean_linker_0, # of connection points: 2
#     Edge 48, Type (0, 0), BuildingBlock: CIFDUS_clean_linker_0, # of connection points: 2
#     Edge 49, Type (0, 0), BuildingBlock: CIFDUS_clean_linker_0, # of connection points: 2
#     Edge 50, Type (0, 0), BuildingBlock: CIFDUS_clean_linker_0, # of connection points: 2
#     Edge 51, Type (0, 0), BuildingBlock: CIFDUS_clean_linker_0, # of connection points: 2
#     Edge 52, Type (0, 0), BuildingBlock: CIFDUS_clean_linker_0, # of connection points: 2
#     Edge 53, Type (0, 0), BuildingBlock: CIFDUS_clean_linker_0, # of connection points: 2
#     Edge 54, Type (0, 0), BuildingBlock: CIFDUS_clean_linker_0, # of connection points: 2
#     Edge 55, Type (0, 0), BuildingBlock: CIFDUS_clean_linker_0, # of connection points: 2
#     Edge 56, Type (0, 0), BuildingBlock: CIFDUS_clean_linker_0, # of connection points: 2
#     Edge 57, Type (0, 0), BuildingBlock: CIFDUS_clean_linker_0, # of connection points: 2
#     Edge 58, Type (0, 0), BuildingBlock: CIFDUS_clean_linker_0, # of connection points: 2
#     Edge 59, Type (0, 0), BuildingBlock: CIFDUS_clean_linker_0, # of connection points: 2
#     Edge 60, Type (0, 0), BuildingBlock: CIFDUS_clean_linker_0, # of connection points: 2
#     Edge 61, Type (0, 0), BuildingBlock: CIFDUS_clean_linker_0, # of connection points: 2
#     Edge 62, Type (0, 0), BuildingBlock: CIFDUS_clean_linker_0, # of connection points: 2
#     Edge 63, Type (0, 0), BuildingBlock: CIFDUS_clean_linker_0, # of connection points: 2
#     Edge 64, Type (0, 0), BuildingBlock: CIFDUS_clean_linker_0, # of connection points: 2
#     Edge 65, Type (0, 0), BuildingBlock: CIFDUS_clean_linker_0, # of connection points: 2
#     Edge 66, Type (0, 0), BuildingBlock: CIFDUS_clean_linker_0, # of connection points: 2
#     Edge 67, Type (0, 0), BuildingBlock: CIFDUS_clean_linker_0, # of connection points: 2
#     Edge 68, Type (0, 0), BuildingBlock: CIFDUS_clean_linker_0, # of connection points: 2
#     Edge 69, Type (0, 0), BuildingBlock: CIFDUS_clean_linker_0, # of connection points: 2
#     Edge 70, Type (0, 0), BuildingBlock: CIFDUS_clean_linker_0, # of connection points: 2
#     Edge 71, Type (0, 0), BuildingBlock: CIFDUS_clean_linker_0, # of connection points: 2
#     Edge 72, Type (0, 0), BuildingBlock: CIFDUS_clean_linker_0, # of connection points: 2
#     Edge 73, Type (0, 0), BuildingBlock: CIFDUS_clean_linker_0, # of connection points: 2
#     Edge 74, Type (0, 0), BuildingBlock: CIFDUS_clean_linker_0, # of connection points: 2
#     Edge 75, Type (0, 0), BuildingBlock: CIFDUS_clean_linker_0, # of connection points: 2
#     Edge 76, Type (0, 0), BuildingBlock: CIFDUS_clean_linker_0, # of connection points: 2
#     Edge 77, Type (0, 0), BuildingBlock: CIFDUS_clean_linker_0, # of connection points: 2
#     Edge 78, Type (0, 0), BuildingBlock: CIFDUS_clean_linker_0, # of connection points: 2
#     Edge 79, Type (0, 0), BuildingBlock: CIFDUS_clean_linker_0, # of connection points: 2
#     Edge 80, Type (0, 0), BuildingBlock: CIFDUS_clean_linker_0, # of connection points: 2
#     Edge 81, Type (0, 0), BuildingBlock: CIFDUS_clean_linker_0, # of connection points: 2
#     Edge 82, Type (0, 0), BuildingBlock: CIFDUS_clean_linker_0, # of connection points: 2
#     Edge 83, Type (0, 0), BuildingBlock: CIFDUS_clean_linker_0, # of connection points: 2
#     Edge 84, Type (0, 0), BuildingBlock: CIFDUS_clean_linker_0, # of connection points: 2
#     Edge 85, Type (0, 0), BuildingBlock: CIFDUS_clean_linker_0, # of connection points: 2
#     Edge 86, Type (0, 0), BuildingBlock: CIFDUS_clean_linker_0, # of connection points: 2
#     Edge 87, Type (0, 0), BuildingBlock: CIFDUS_clean_linker_0, # of connection points: 2
#     Edge 88, Type (0, 0), BuildingBlock: CIFDUS_clean_linker_0, # of connection points: 2
#     Edge 89, Type (0, 0), BuildingBlock: CIFDUS_clean_linker_0, # of connection points: 2
#     Edge 90, Type (0, 0), BuildingBlock: CIFDUS_clean_linker_0, # of connection points: 2
#     Edge 91, Type (0, 0), BuildingBlock: CIFDUS_clean_linker_0, # of connection points: 2
#     Edge 92, Type (0, 0), BuildingBlock: CIFDUS_clean_linker_0, # of connection points: 2
#     Edge 93, Type (0, 0), BuildingBlock: CIFDUS_clean_linker_0, # of connection points: 2
#     Edge 94, Type (0, 0), BuildingBlock: CIFDUS_clean_linker_0, # of connection points: 2
#     Edge 95, Type (0, 0), BuildingBlock: CIFDUS_clean_linker_0, # of connection points: 2
#     Edge 96, Type (0, 0), BuildingBlock: CIFDUS_clean_linker_0, # of connection points: 2
#     Edge 97, Type (0, 0), BuildingBlock: CIFDUS_clean_linker_0, # of connection points: 2
#     Edge 98, Type (0, 0), BuildingBlock: CIFDUS_clean_linker_0, # of connection points: 2
#     Edge 99, Type (0, 0), BuildingBlock: CIFDUS_clean_linker_0, # of connection points: 2
#     Edge 100, Type (0, 0), BuildingBlock: CIFDUS_clean_linker_0, # of connection points: 2
#     Edge 101, Type (0, 0), BuildingBlock: CIFDUS_clean_linker_0, # of connection points: 2
#     Edge 102, Type (0, 0), BuildingBlock: CIFDUS_clean_linker_0, # of connection points: 2
#     Edge 103, Type (0, 0), BuildingBlock: CIFDUS_clean_linker_0, # of connection points: 2
#     Edge 104, Type (0, 0), BuildingBlock: CIFDUS_clean_linker_0, # of connection points: 2
#     Edge 105, Type (0, 0), BuildingBlock: CIFDUS_clean_linker_0, # of connection points: 2
#     Edge 106, Type (0, 0), BuildingBlock: CIFDUS_clean_linker_0, # of connection points: 2
#     Edge 107, Type (0, 0), BuildingBlock: CIFDUS_clean_linker_0, # of connection points: 2
# Relax obj value: 0.197
# Max RMSD: 0.150
# Mean RMSD: 0.149
data_MOF--net-ums--node1-CEKHIL_clean_sbu_0--edge1-CIFDUS_clean_linker_0
_symmetry_space_group_name_H-M    P1
_symmetry_Int_Tables_number       1
_symmetry_cell_setting            triclinic
loop_
_symmetry_equiv_pos_as_xyz
'x, y, z'
_cell_length_a     87.517385
_cell_length_b     87.475156
_cell_length_c     20.814566
_cell_angle_alpha  89.997889
_cell_angle_beta   89.968915
_cell_angle_gamma 119.99444
loop_
_atom_site_label
_atom_site_type_symbol
_atom_site_fract_x
_atom_site_fract_y
_atom_site_fract_z
_atom_type_partial_charge
Co0 Co 0.18045 0.25933 0.22716 0.0
O1 O 0.1999 0.25961 0.27129 0.0
O2 O 0.17802 0.23601 0.22542 0.0
C3 C 0.19715 0.28415 0.16923 0.0
O4 O 0.15895 0.25408 0.17312 0.0
Co5 Co 0.17228 0.28989 0.24287 0.0
O6 O 0.15512 0.27769 0.17271 0.0
C7 C 0.1636 0.26412 0.34733 0.0
C8 C 0.19307 0.24313 0.25537 0.0
C9 C 0.15109 0.2623 0.15326 0.0
O10 O 0.16642 0.25394 0.31037 0.0
O11 O 0.16702 0.27963 0.33133 0.0
O12 O 0.19506 0.26909 0.15018 0.0
O13 O 0.19038 0.284 0.22442 0.0
Co14 Co 0.74403 0.91988 0.2104 0.0
O15 O 0.74694 0.94088 0.25243 0.0
O16 O 0.76757 0.93952 0.19535 0.0
C17 C 0.71717 0.91168 0.16762 0.0
O18 O 0.74601 0.90161 0.15571 0.0
Co19 Co 0.71336 0.88216 0.24218 0.0
O20 O 0.72187 0.87484 0.16633 0.0
C21 C 0.7432 0.90043 0.3321 0.0
C22 C 0.76277 0.949 0.22844 0.0
C23 C 0.73663 0.88525 0.13986 0.0
O24 O 0.75216 0.91262 0.29049 0.0
O25 O 0.72712 0.88841 0.32399 0.0
O26 O 0.73144 0.92358 0.13926 0.0
O27 O 0.71952 0.90615 0.22202 0.0
Co28 Co 0.09056 0.82283 0.22656 0.0
O29 O 0.06997 0.80352 0.26393 0.0
O30 O 0.07041 0.82672 0.2202 0.0
C31 C 0.09828 0.80578 0.16879 0.0
O32 O 0.10972 0.84474 0.18026 0.0
Co33 Co 0.12695 0.82594 0.25862 0.0
O34 O 0.1354 0.84484 0.19304 0.0
C35 C 0.10906 0.8361 0.355 0.0
C36 C 0.06128 0.81124 0.24689 0.0
C37 C 0.12636 0.85124 0.1692 0.0
O38 O 0.09792 0.83536 0.31281 0.0
O39 O 0.12005 0.83078 0.34446 0.0
O40 O 0.08658 0.8094 0.14671 0.0
O41 O 0.10347 0.81104 0.2266 0.0
Co42 Co 0.25609 0.17253 0.30157 0.0
O43 O 0.25376 0.19092 0.25985 0.0
O44 O 0.23184 0.16746 0.30658 0.0
C45 C 0.28078 0.19094 0.35698 0.0
O46 O 0.25355 0.15167 0.35404 0.0
Co47 Co 0.28909 0.16846 0.28015 0.0
O48 O 0.27908 0.15129 0.35179 0.0
C49 C 0.26236 0.15807 0.17826 0.0
C50 C 0.23733 0.18246 0.27731 0.0
C51 C 0.26346 0.14553 0.37288 0.0
O52 O 0.25143 0.159 0.21755 0.0
O53 O 0.27843 0.16319 0.19237 0.0
O54 O 0.26538 0.18728 0.3786 0.0
O55 O 0.2808 0.18458 0.30118 0.0
Co56 Co 0.82272 0.08326 0.27631 0.0
O57 O 0.80337 0.06431 0.23077 0.0
O58 O 0.82416 0.06182 0.2819 0.0
C59 C 0.80618 0.09248 0.32948 0.0
O60 O 0.84386 0.09928 0.33254 0.0
Co61 Co 0.83238 0.12234 0.25564 0.0
O62 O 0.84835 0.12696 0.32952 0.0
C63 C 0.84331 0.10491 0.15957 0.0
C64 C 0.80944 0.05423 0.24976 0.0
C65 C 0.85184 0.11546 0.35155 0.0
O66 O 0.83791 0.09114 0.19556 0.0
O67 O 0.84098 0.11787 0.17274 0.0
O68 O 0.80741 0.07917 0.35051 0.0
O69 O 0.81355 0.09872 0.27461 0.0
Co70 Co 0.92693 0.74695 0.2799 0.0
O71 O 0.94888 0.75014 0.24737 0.0
O72 O 0.9456 0.77145 0.29011 0.0
C73 C 0.91957 0.72192 0.33536 0.0
O74 O 0.90644 0.74814 0.32245 0.0
Co75 Co 0.89166 0.71307 0.24271 0.0
O76 O 0.88171 0.72181 0.30923 0.0
C77 C 0.91051 0.7413 0.14767 0.0
C78 C 0.95608 0.76649 0.26516 0.0
C79 C 0.88996 0.73726 0.33351 0.0
O80 O 0.92053 0.75201 0.19166 0.0
O81 O 0.89973 0.72491 0.15743 0.0
O82 O 0.93027 0.73723 0.36043 0.0
O83 O 0.9151 0.72229 0.27675 0.0
Co84 Co 0.83461 0.75332 0.77405 0.0
O85 O 0.81633 0.75533 0.73033 0.0
O86 O 0.83907 0.77741 0.77925 0.0
C87 C 0.81614 0.72832 0.82804 0.0
O88 O 0.85527 0.75607 0.82838 0.0
Co89 Co 0.83945 0.72073 0.75287 0.0
O90 O 0.85628 0.73085 0.82534 0.0
C91 C 0.85029 0.7479 0.65225 0.0
C92 C 0.82429 0.77172 0.74833 0.0
C93 C 0.86163 0.74634 0.84713 0.0
O94 O 0.84878 0.75852 0.69136 0.0
O95 O 0.84535 0.73182 0.66578 0.0
O96 O 0.81939 0.74358 0.84977 0.0
O97 O 0.82291 0.72857 0.7728 0.0
Co98 Co 0.26262 0.08101 0.80725 0.0
O99 O 0.25894 0.05864 0.77707 0.0
O100 O 0.23804 0.0628 0.81885 0.0
C101 C 0.28752 0.08824 0.86315 0.0
O102 O 0.26192 0.10199 0.84788 0.0
Co103 Co 0.29683 0.11575 0.76827 0.0
O104 O 0.28863 0.12622 0.83476 0.0
C105 C 0.26853 0.09674 0.67371 0.0
C106 C 0.24268 0.05194 0.79535 0.0
C107 C 0.27315 0.11838 0.85891 0.0
O108 O 0.25771 0.08709 0.71816 0.0
O109 O 0.28497 0.10734 0.68326 0.0
O110 O 0.27215 0.07787 0.88849 0.0
O111 O 0.28725 0.09243 0.80405 0.0
Co112 Co 0.92108 0.17957 0.78025 0.0
O113 O 0.94144 0.19919 0.74295 0.0
O114 O 0.94162 0.17634 0.78723 0.0
C115 C 0.91289 0.19643 0.83639 0.0
O116 O 0.90223 0.15744 0.82718 0.0
Co117 Co 0.88408 0.175 0.74883 0.0
O118 O 0.87612 0.1565 0.81556 0.0
C119 C 0.90292 0.16614 0.65191 0.0
C120 C 0.95044 0.19183 0.76032 0.0
C121 C 0.88559 0.15058 0.83932 0.0
O122 O 0.91428 0.16724 0.69377 0.0
O123 O 0.89119 0.17043 0.66303 0.0
O124 O 0.92468 0.19308 0.85946 0.0
O125 O 0.90763 0.19078 0.77898 0.0
Co126 Co 0.74254 0.8238 0.70395 0.0
O127 O 0.74367 0.80389 0.73661 0.0
O128 O 0.76668 0.82812 0.69929 0.0
C129 C 0.71841 0.80771 0.64249 0.0
O130 O 0.74585 0.84648 0.66212 0.0
Co131 Co 0.7092 0.82697 0.73331 0.0
O132 O 0.72025 0.84665 0.67092 0.0
C133 C 0.73508 0.83359 0.83502 0.0
C134 C 0.76029 0.81221 0.72211 0.0
C135 C 0.73598 0.85321 0.64981 0.0
O136 O 0.74642 0.83437 0.79354 0.0
O137 O 0.71908 0.82882 0.82124 0.0
O138 O 0.73394 0.81177 0.62109 0.0
O139 O 0.71793 0.81215 0.70107 0.0
Co140 Co 0.18208 0.92014 0.72593 0.0
O141 O 0.1982 0.94232 0.76509 0.0
O142 O 0.17386 0.93698 0.7143 0.0
C143 C 0.20268 0.91627 0.67405 0.0
O144 O 0.16283 0.89874 0.67778 0.0
Co145 Co 0.18509 0.88723 0.76525 0.0
O146 O 0.16736 0.87589 0.69612 0.0
C147 C 0.16919 0.90141 0.85432 0.0
C148 C 0.18806 0.94817 0.74509 0.0
C149 C 0.15907 0.88263 0.6686 0.0
O150 O 0.16857 0.91131 0.80975 0.0
O151 O 0.17713 0.89256 0.84811 0.0
O152 O 0.19706 0.92619 0.64932 0.0
O153 O 0.19727 0.91087 0.73163 0.0
Co154 Co 0.08479 0.25959 0.72419 0.0
O155 O 0.06251 0.25513 0.75783 0.0
O156 O 0.06652 0.23527 0.70676 0.0
C157 C 0.09175 0.28577 0.67874 0.0
O158 O 0.10587 0.26 0.67923 0.0
Co159 Co 0.11946 0.29294 0.76977 0.0
O160 O 0.13005 0.28634 0.69865 0.0
C161 C 0.10025 0.2625 0.85623 0.0
C162 C 0.0557 0.23928 0.73504 0.0
C163 C 0.1223 0.27147 0.66997 0.0
O164 O 0.09078 0.25264 0.80954 0.0
O165 O 0.11086 0.27911 0.85111 0.0
O166 O 0.08168 0.27115 0.64818 0.0
O167 O 0.09602 0.28397 0.73615 0.0
Co168 Co 0.8497 0.59902 0.53086 0.0
O169 O 0.86816 0.59687 0.57333 0.0
O170 O 0.84513 0.575 0.52457 0.0
C171 C 0.86797 0.62427 0.47802 0.0
O172 O 0.82887 0.59605 0.47689 0.0
Co173 Co 0.84377 0.63087 0.55157 0.0
O174 O 0.82739 0.62099 0.47789 0.0
C175 C 0.83305 0.60359 0.65197 0.0
C176 C 0.85988 0.58046 0.55528 0.0
C177 C 0.82234 0.60552 0.45678 0.0
O178 O 0.83581 0.59352 0.61423 0.0
O179 O 0.83676 0.61928 0.6376 0.0
O180 O 0.86484 0.60912 0.45533 0.0
O181 O 0.86105 0.62378 0.53322 0.0
Co182 Co 0.40295 0.25196 0.56091 0.0
O183 O 0.40431 0.27289 0.59598 0.0
O184 O 0.42671 0.27223 0.55001 0.0
C185 C 0.37749 0.24328 0.50655 0.0
O186 O 0.40561 0.23258 0.51581 0.0
Co187 Co 0.37051 0.21554 0.59877 0.0
O188 O 0.38032 0.20683 0.53167 0.0
C189 C 0.3995 0.23452 0.69088 0.0
C190 C 0.42046 0.28153 0.576 0.0
C191 C 0.39554 0.21586 0.50603 0.0
O192 O 0.40926 0.24561 0.64723 0.0
O193 O 0.38321 0.22309 0.68267 0.0
O194 O 0.39248 0.25491 0.48189 0.0
O195 O 0.37827 0.23871 0.56471 0.0
Co196 Co 0.75406 0.16103 0.54497 0.0
O197 O 0.7335 0.14235 0.58673 0.0
O198 O 0.73465 0.16572 0.54073 0.0
C199 C 0.76097 0.14319 0.48838 0.0
O200 O 0.77208 0.18214 0.49287 0.0
Co201 Co 0.79143 0.16599 0.56665 0.0
O202 O 0.79833 0.18327 0.4954 0.0
C203 C 0.77496 0.17641 0.6679 0.0
C204 C 0.72536 0.15073 0.57025 0.0
C205 C 0.78819 0.1887 0.47434 0.0
O206 O 0.76272 0.17465 0.62893 0.0
O207 O 0.78634 0.17181 0.65412 0.0
O208 O 0.74892 0.14649 0.46754 0.0
O209 O 0.76721 0.1494 0.54452 0.0
Co210 Co 0.93251 0.51914 0.61697 0.0
O211 O 0.93366 0.53884 0.57115 0.0
O212 O 0.91009 0.51857 0.62274 0.0
C213 C 0.95851 0.53509 0.6684 0.0
O214 O 0.92653 0.49785 0.67424 0.0
Co215 Co 0.96044 0.5074 0.59898 0.0
O216 O 0.94899 0.49225 0.67448 0.0
C217 C 0.93279 0.4981 0.50095 0.0
C218 C 0.91757 0.5332 0.59 0.0
C219 C 0.93418 0.48953 0.69552 0.0
O220 O 0.92489 0.50424 0.53578 0.0
O221 O 0.94746 0.49919 0.51602 0.0
O222 O 0.94431 0.53442 0.69057 0.0
O223 O 0.95687 0.52724 0.61425 0.0
Co224 Co 0.4911 0.41595 0.61096 0.0
O225 O 0.47301 0.3951 0.56795 0.0
O226 O 0.49483 0.39614 0.62494 0.0
C227 C 0.47239 0.42406 0.65352 0.0
O228 O 0.51132 0.43381 0.66719 0.0
Co229 Co 0.49885 0.45413 0.58418 0.0
O230 O 0.51412 0.46074 0.66115 0.0
C231 C 0.50973 0.43598 0.49052 0.0
C232 C 0.48061 0.38681 0.59143 0.0
C233 C 0.51822 0.44996 0.68588 0.0
O234 O 0.50625 0.42332 0.53028 0.0
O235 O 0.50633 0.44835 0.50144 0.0
O236 O 0.4747 0.41211 0.68188 0.0
O237 O 0.4806 0.42994 0.59988 0.0
Co238 Co 0.59175 0.07728 0.63961 0.0
O239 O 0.6102 0.07583 0.59407 0.0
O240 O 0.61363 0.09968 0.64389 0.0
C241 C 0.58158 0.05147 0.69312 0.0
O242 O 0.57676 0.08381 0.696 0.0
Co243 Co 0.55205 0.04975 0.62341 0.0
O244 O 0.54848 0.06188 0.69708 0.0
C245 C 0.57023 0.07707 0.5241 0.0
C246 C 0.62068 0.09206 0.61157 0.0
C247 C 0.56081 0.07669 0.71711 0.0
O248 O 0.58447 0.08469 0.5579 0.0
O249 O 0.55648 0.06265 0.54022 0.0
O250 O 0.59522 0.06576 0.71416 0.0
O251 O 0.5753 0.05287 0.63873 0.0
Co252 Co 0.49353 0.08228 0.13764 0.0
O253 O 0.47409 0.08135 0.09098 0.0
O254 O 0.49419 0.10484 0.14309 0.0
C255 C 0.47732 0.05618 0.18859 0.0
O256 O 0.51462 0.08789 0.19557 0.0
Co257 Co 0.50476 0.0539 0.11892 0.0
O258 O 0.51978 0.06511 0.19481 0.0
C259 C 0.51406 0.08157 0.02094 0.0
C260 C 0.47973 0.09747 0.10947 0.0
C261 C 0.52268 0.07993 0.21655 0.0
O262 O 0.50855 0.08986 0.05674 0.0
O263 O 0.51251 0.06666 0.0354 0.0
O264 O 0.47798 0.07038 0.21083 0.0
O265 O 0.48525 0.05792 0.13461 0.0
Co266 Co 0.93259 0.41807 0.11714 0.0
O267 O 0.93344 0.39959 0.06982 0.0
O268 O 0.90992 0.39639 0.12133 0.0
C269 C 0.95848 0.42746 0.16911 0.0
O270 O 0.92681 0.43336 0.17533 0.0
Co271 Co 0.96096 0.45761 0.10134 0.0
O272 O 0.94927 0.46141 0.17589 0.0
C273 C 0.93349 0.44003 0.00226 0.0
C274 C 0.91722 0.38924 0.0876 0.0
C275 C 0.93441 0.44933 0.19659 0.0
O276 O 0.92534 0.42591 0.03653 0.0
O277 O 0.94825 0.45341 0.0179 0.0
O278 O 0.94408 0.41397 0.19039 0.0
O279 O 0.95708 0.43403 0.11542 0.0
Co280 Co 0.59033 0.51764 0.11304 0.0
O281 O 0.61021 0.53693 0.06983 0.0
O282 O 0.61059 0.51436 0.11628 0.0
C283 C 0.58236 0.53476 0.1687 0.0
O284 O 0.57379 0.49622 0.16735 0.0
Co285 Co 0.55159 0.50919 0.09853 0.0
O286 O 0.54645 0.49244 0.17035 0.0
C287 C 0.56861 0.50054 0.99346 0.0
C288 C 0.61914 0.52932 0.08612 0.0
C289 C 0.55789 0.48848 0.18902 0.0
O290 O 0.58195 0.5039 0.02935 0.0
O291 O 0.55614 0.50325 0.01055 0.0
O292 O 0.59507 0.53243 0.18938 0.0
O293 O 0.57572 0.5277 0.11389 0.0
Co294 Co 0.40947 0.16105 0.0613 0.0
O295 O 0.41431 0.14372 0.0975 0.0
O296 O 0.43436 0.16827 0.05039 0.0
C297 C 0.38472 0.1414 0.00845 0.0
O298 O 0.40861 0.18132 0.01505 0.0
Co299 Co 0.37425 0.15967 0.09976 0.0
O300 O 0.38157 0.17783 0.03164 0.0
C301 C 0.40393 0.17376 0.1907 0.0
C302 C 0.43041 0.15336 0.07789 0.0
C303 C 0.39678 0.18577 0.00531 0.0
O304 O 0.41442 0.17398 0.1467 0.0
O305 O 0.38724 0.16668 0.18326 0.0
O306 O 0.40016 0.1467 0.98326 0.0
O307 O 0.38492 0.14673 0.06625 0.0
Co308 Co 0.85032 0.25524 0.04119 0.0
O309 O 0.86899 0.27741 0.07252 0.0
O310 O 0.84387 0.2735 0.03246 0.0
C311 C 0.86797 0.24839 0.98377 0.0
O312 O 0.82869 0.23431 -0.00012 0.0
Co313 Co 0.8503 0.22057 0.07802 0.0
O314 O 0.8315 0.21021 0.01206 0.0
C315 C 0.84112 0.23921 0.17437 0.0
C316 C 0.85942 0.28425 0.05603 0.0
C317 C 0.82371 0.21796 0.98843 0.0
O318 O 0.83947 0.24869 0.13044 0.0
O319 O 0.84725 0.22889 0.16382 0.0
O320 O 0.86293 0.25884 0.95942 0.0
O321 O 0.8636 0.24397 0.04273 0.0
Co322 Co 0.75299 0.60578 0.03049 0.0
O323 O 0.73385 0.60672 0.07281 0.0
O324 O 0.73153 0.58305 0.02521 0.0
C325 C 0.76294 0.63136 0.97582 0.0
O326 O 0.76891 0.59979 0.97706 0.0
Co327 Co 0.79232 0.63436 0.04993 0.0
O328 O 0.79676 0.6226 0.97694 0.0
C329 C 0.77339 0.60809 0.15166 0.0
C330 C 0.72385 0.59041 0.05528 0.0
C331 C 0.78495 0.60754 0.95664 0.0
O332 O 0.76005 0.59909 0.11444 0.0
O333 O 0.78664 0.62301 0.13648 0.0
O334 O 0.74969 0.61685 0.95408 0.0
O335 O 0.76887 0.63023 0.03128 0.0
Co336 Co 0.51676 0.92749 0.88618 0.0
O337 O 0.53583 0.92761 0.93266 0.0
O338 O 0.51547 0.90464 0.87916 0.0
C339 C 0.53369 0.95364 0.83574 0.0
O340 O 0.49594 0.92281 0.82862 0.0
Co341 Co 0.5072 0.95702 0.90796 0.0
O342 O 0.49166 0.94615 0.83275 0.0
C343 C 0.49601 0.92825 0.00261 0.0
C344 C 0.52999 0.91161 0.91246 0.0
C345 C 0.48818 0.93125 0.80968 0.0
O346 O 0.50121 0.91981 0.96607 0.0
O347 O 0.4986 0.94368 0.99023 0.0
O348 O 0.53253 0.93925 0.81332 0.0
O349 O 0.52594 0.95207 0.89004 0.0
Co350 Co 0.08208 0.59171 0.8599 0.0
O351 O 0.08126 0.61063 0.90397 0.0
O352 O 0.10492 0.61317 0.8555 0.0
C353 C 0.05653 0.58232 0.80597 0.0
O354 O 0.08776 0.57579 0.80495 0.0
Co355 Co 0.05306 0.55243 0.87825 0.0
O356 O 0.06471 0.54802 0.8049 0.0
C357 C 0.07943 0.57086 0.97995 0.0
C358 C 0.09758 0.62069 0.88676 0.0
C359 C 0.07979 0.55974 0.78436 0.0
O360 O 0.08864 0.5842 0.94295 0.0
O361 O 0.0644 0.55781 0.96471 0.0
O362 O 0.0711 0.59552 0.78431 0.0
O363 O 0.05762 0.57609 0.86082 0.0
Co364 Co 0.4214 0.49117 0.88674 0.0
O365 O 0.40075 0.47299 0.93039 0.0
O366 O 0.40134 0.49436 0.87156 0.0
C367 C 0.42989 0.47253 0.84601 0.0
O368 O 0.43902 0.51132 0.82981 0.0
Co369 Co 0.45965 0.49961 0.91522 0.0
O370 O 0.46635 0.51532 0.83919 0.0
C371 C 0.44097 0.51032 0.00693 0.0
C372 C 0.39222 0.48016 0.90552 0.0
C373 C 0.45535 0.51889 0.81297 0.0
O374 O 0.42866 0.50697 0.96577 0.0
O375 O 0.45316 0.50653 0.99788 0.0
O376 O 0.41778 0.47448 0.81725 0.0
O377 O 0.43568 0.48103 0.89915 0.0
Co378 Co 0.60094 0.84793 0.92326 0.0
O379 O 0.59552 0.86525 0.89026 0.0
O380 O 0.57677 0.84149 0.94482 0.0
C381 C 0.62759 0.86771 0.96517 0.0
O382 O 0.60228 0.82784 0.96835 0.0
Co383 Co 0.63396 0.84688 0.87215 0.0
O384 O 0.62836 0.82999 0.94398 0.0
C385 C 0.60179 0.83248 0.79309 0.0
C386 C 0.58007 0.85608 0.9163 0.0
C387 C 0.61385 0.82293 0.9751 0.0
O388 O 0.59292 0.83376 0.84024 0.0
O389 O 0.61849 0.83872 0.79447 0.0
O390 O 0.61319 0.86328 0.99703 0.0
O391 O 0.62528 0.86139 0.90788 0.0
Co392 Co 0.16631 0.75396 0.95083 0.0
O393 O 0.14814 0.73328 0.90847 0.0
O394 O 0.17169 0.73495 0.95471 0.0
C395 C 0.14779 0.75987 0.00728 0.0
O396 O 0.18702 0.77246 0.00349 0.0
Co397 Co 0.16957 0.79073 0.92912 0.0
O398 O 0.1866 0.79799 0.00118 0.0
C399 C 0.18072 0.77493 0.8277 0.0
C400 C 0.15677 0.72542 0.92503 0.0
C401 C 0.19272 0.78845 0.02238 0.0
O402 O 0.17988 0.76313 0.86702 0.0
O403 O 0.17529 0.78567 0.84147 0.0
O404 O 0.15158 0.74815 0.02803 0.0
O405 O 0.15394 0.76631 0.95131 0.0
Co406 Co 0.25811 0.40465 0.94913 0.0
O407 O 0.27708 0.40339 0.90654 0.0
O408 O 0.2796 0.42737 0.95215 0.0
C409 C 0.24835 0.37949 0.00653 0.0
O410 O 0.24266 0.4112 0.00252 0.0
Co411 Co 0.21859 0.37617 0.93425 0.0
O412 O 0.21473 0.3886 0.00622 0.0
C413 C 0.23639 0.40247 0.83135 0.0
C414 C 0.28718 0.4198 0.92287 0.0
C415 C 0.22677 0.40381 0.02429 0.0
O416 O 0.25061 0.41086 0.86506 0.0
O417 O 0.22289 0.38804 0.84902 0.0
O418 O 0.26178 0.39414 0.02632 0.0
O419 O 0.2421 0.38016 0.95112 0.0
Co420 Co 0.1573 0.40369 0.44321 0.0
O421 O 0.13823 0.40356 0.39617 0.0
O422 O 0.15755 0.42578 0.45577 0.0
C423 C 0.14062 0.37629 0.4844 0.0
O424 O 0.17781 0.40851 0.50314 0.0
Co425 Co 0.17002 0.37677 0.41897 0.0
O426 O 0.18452 0.38686 0.49686 0.0
C427 C 0.17935 0.40599 0.32752 0.0
C428 C 0.14354 0.41916 0.4198 0.0
C429 C 0.18646 0.40097 0.52213 0.0
O430 O 0.17327 0.41338 0.36527 0.0
O431 O 0.17807 0.39101 0.33847 0.0
O432 O 0.14079 0.38976 0.51156 0.0
O433 O 0.14966 0.37962 0.43217 0.0
Co434 Co 0.59882 0.75312 0.42066 0.0
O435 O 0.59826 0.73287 0.38297 0.0
O436 O 0.57496 0.73253 0.42498 0.0
C437 C 0.62328 0.76088 0.48016 0.0
O438 O 0.59527 0.77181 0.46729 0.0
Co439 Co 0.63195 0.79009 0.39329 0.0
O440 O 0.6206 0.7979 0.45749 0.0
C441 C 0.60522 0.77199 0.29274 0.0
C442 C 0.5818 0.72375 0.39904 0.0
C443 C 0.60501 0.78845 0.47966 0.0
O444 O 0.59427 0.76075 0.33367 0.0
O445 O 0.62135 0.78302 0.30584 0.0
O446 O 0.6079 0.74898 0.50115 0.0
O447 O 0.62345 0.76638 0.42272 0.0
Co448 Co 0.25858 0.85229 0.45568 0.0
O449 O 0.28067 0.87061 0.42225 0.0
O450 O 0.27653 0.84534 0.46138 0.0
C451 C 0.25257 0.87029 0.51555 0.0
O452 O 0.23776 0.83086 0.49811 0.0
Co453 Co 0.22407 0.853 0.42324 0.0
O454 O 0.21374 0.83386 0.4881 0.0
C455 C 0.24145 0.8431 0.32408 0.0
C456 C 0.28733 0.86074 0.43679 0.0
C457 C 0.22147 0.82591 0.51038 0.0
O458 O 0.2512 0.84142 0.36673 0.0
O459 O 0.23144 0.8495 0.33613 0.0
O460 O 0.263 0.86496 0.53783 0.0
O461 O 0.2477 0.86601 0.45685 0.0
Co462 Co 0.08239 0.49162 0.35922 0.0
O463 O 0.08323 0.47235 0.40138 0.0
O464 O 0.10577 0.49462 0.35194 0.0
C465 C 0.05663 0.47469 0.30714 0.0
O466 O 0.08674 0.51296 0.30553 0.0
Co467 Co 0.05246 0.50036 0.38117 0.0
O468 O 0.06298 0.51646 0.30698 0.0
C469 C 0.0801 0.51014 0.47947 0.0
C470 C 0.09959 0.47981 0.383 0.0
C471 C 0.07817 0.52047 0.28562 0.0
O472 O 0.08903 0.50569 0.44231 0.0
O473 O 0.06487 0.50784 0.46555 0.0
O474 O 0.07132 0.47672 0.28385 0.0
O475 O 0.05776 0.48178 0.36253 0.0
Co476 Co 0.51569 0.58908 0.37862 0.0
O477 O 0.53409 0.61135 0.41095 0.0
O478 O 0.50888 0.6071 0.37098 0.0
C479 C 0.53378 0.58286 0.32029 0.0
O480 O 0.49417 0.56834 0.33624 0.0
Co481 Co 0.5157 0.55416 0.41045 0.0
O482 O 0.49651 0.54393 0.34598 0.0
C483 C 0.50592 0.57168 0.50982 0.0
C484 C 0.52435 0.61802 0.39456 0.0
C485 C 0.48886 0.55198 0.32389 0.0
O486 O 0.50474 0.5819 0.46776 0.0
O487 O 0.5119 0.56133 0.49734 0.0
O488 O 0.52847 0.5932 0.2969 0.0
O489 O 0.52925 0.57799 0.37882 0.0
Co490 Co 0.42201 0.93229 0.37943 0.0
O491 O 0.40213 0.93262 0.4165 0.0
O492 O 0.40069 0.90912 0.37119 0.0
C493 C 0.43177 0.9579 0.32477 0.0
O494 O 0.44003 0.92774 0.33265 0.0
Co495 Co 0.45985 0.963 0.41219 0.0
O496 O 0.46697 0.95178 0.34522 0.0
C497 C 0.43997 0.93496 0.50718 0.0
C498 C 0.39248 0.91635 0.3987 0.0
C499 C 0.45678 0.93661 0.32106 0.0
O500 O 0.42795 0.92568 0.4656 0.0
O501 O 0.45265 0.95062 0.49675 0.0
O502 O 0.41948 0.94315 0.30066 0.0
O503 O 0.43666 0.95688 0.38219 0.0
H504 H 0.24821 0.21712 0.27941 0.0
H505 H 0.20136 0.16609 0.2628 0.0
H506 H 0.18321 0.18022 0.25452 0.0
H507 H 0.18091 0.20745 0.25161 0.0
H508 H 0.22807 0.25799 0.27792 0.0
H509 H 0.24579 0.24371 0.28343 0.0
C510 C 0.23403 0.20908 0.27347 0.0
C511 C 0.22614 0.19063 0.27058 0.0
C512 C 0.22372 0.21724 0.2711 0.0
C513 C 0.20772 0.18035 0.26459 0.0
C514 C 0.19737 0.18843 0.26001 0.0
C515 C 0.19504 0.21527 0.259 0.0
C516 C 0.20313 0.23378 0.26425 0.0
C517 C 0.20523 0.20691 0.26329 0.0
C518 C 0.22145 0.24374 0.27414 0.0
C519 C 0.23165 0.2356 0.27693 0.0
H520 H 0.82066 0.02998 0.2523 0.0
H521 H 0.77424 0.03483 0.22997 0.0
H522 H 0.75576 1.00285 0.22499 0.0
H523 H 0.7525 0.97336 0.22828 0.0
H524 H 0.79871 0.96795 0.23971 0.0
H525 H 0.81752 1.00013 0.24797 0.0
C526 C 0.80652 0.024 0.24595 0.0
C527 C 0.79886 0.03481 0.24164 0.0
C528 C 0.7959 0.00547 0.24168 0.0
C529 C 0.78052 0.02687 0.23299 0.0
C530 C 0.76989 0.00854 0.2305 0.0
C531 C 0.76669 0.97925 0.23298 0.0
C532 C 0.77422 0.96835 0.23444 0.0
C533 C 0.7774 0.99771 0.23521 0.0
C534 C 0.79263 0.97612 0.23893 0.0
C535 C 0.80337 0.9945 0.24355 0.0
H536 H 0.98012 0.75612 0.26009 0.0
H537 H 0.97567 0.80299 0.26304 0.0
H538 H 0.00801 0.82145 0.2561 0.0
H539 H 0.03783 0.82395 0.24892 0.0
H540 H 0.04067 0.77605 0.25409 0.0
H541 H 0.00882 0.75844 0.2581 0.0
C542 C 0.98617 0.77039 0.25888 0.0
C543 C 0.9755 0.77816 0.26127 0.0
C544 C 1.00459 0.78077 0.25654 0.0
C545 C 0.98361 0.79668 0.26098 0.0
C546 C 1.00209 0.80721 0.25699 0.0
C547 C 0.03141 0.80968 0.25105 0.0
C548 C 0.04172 0.80139 0.25124 0.0
C549 C 0.01278 0.79939 0.25471 0.0
C550 C 0.03318 0.78286 0.25439 0.0
C551 C 0.0149 0.77269 0.25644 0.0
H552 H 0.78972 0.75968 0.73083 0.0
H553 H 0.83948 0.80796 0.74971 0.0
H554 H 0.82433 0.82516 0.74112 0.0
H555 H 0.7964 0.8262 0.73045 0.0
H556 H 0.74696 0.77704 0.72093 0.0
H557 H 0.76248 0.76055 0.72383 0.0
C558 C 0.79732 0.77399 0.73244 0.0
C559 C 0.81571 0.78254 0.74008 0.0
C560 C 0.7885 0.78365 0.72965 0.0
C561 C 0.82529 0.80107 0.74346 0.0
C562 C 0.81662 0.81089 0.73869 0.0
C563 C 0.7891 0.8119 0.72905 0.0
C564 C 0.77052 0.8029 0.72558 0.0
C565 C 0.79816 0.80231 0.73218 0.0
C566 C 0.76123 0.78434 0.72416 0.0
C567 C 0.77009 0.77484 0.72552 0.0
H568 H 0.21266 0.02963 0.72754 0.0
H569 H 0.24828 0.03115 0.8736 0.0
H570 H 0.23319 0.99898 0.87581 0.0
H571 H 0.21196 0.97071 0.82953 0.0
H572 H 0.17665 0.96812 0.68018 0.0
H573 H 0.18928 1.00028 0.68614 0.0
C574 C 0.2168 0.02281 0.76051 0.0
C575 C 0.23149 0.03262 0.80059 0.0
C576 C 0.20824 0.00416 0.76043 0.0
C577 C 0.23698 0.02377 0.84254 0.0
C578 C 0.2284 0.00541 0.84367 0.0
C579 C 0.20685 0.97712 0.79868 0.0
C580 C 0.19349 0.96705 0.75411 0.0
C581 C 0.21433 0.9955 0.80177 0.0
C582 C 0.18691 0.97557 0.71501 0.0
C583 C 0.19422 0.99397 0.71818 0.0
H584 H 0.03107 0.2486 0.74949 0.0
H585 H 0.03686 0.20279 0.72711 0.0
H586 H 1.00463 0.18354 0.73511 0.0
H587 H 0.9745 0.18003 0.74884 0.0
H588 H 0.9703 0.22706 0.76339 0.0
H589 H 1.0021 0.24542 0.75835 0.0
C590 C 0.02535 0.23439 0.7466 0.0
C591 C 0.03635 0.22714 0.73841 0.0
C592 C 0.00699 0.22359 0.74982 0.0
C593 C 0.02865 0.20871 0.73356 0.0
C594 C 0.01023 0.19772 0.73825 0.0
C595 C 0.98063 0.19428 0.75092 0.0
C596 C 0.96998 0.20212 0.75645 0.0
C597 C 0.99921 0.20502 0.74649 0.0
C598 C 0.9781 0.22063 0.7586 0.0
C599 C 0.99633 0.23121 0.75594 0.0
H600 H 0.89445 0.59047 0.55604 0.0
H601 H 0.84266 0.5447 0.5735 0.0
H602 H 0.8558 0.52581 0.58661 0.0
H603 H 0.88229 0.52244 0.59289 0.0
H604 H 0.93374 0.56826 0.56526 0.0
H605 H 0.92052 0.58693 0.55579 0.0
C606 C 0.88606 0.57637 0.56318 0.0
C607 C 0.86765 0.56899 0.56479 0.0
C608 C 0.89367 0.56558 0.56831 0.0
C609 C 0.85689 0.55067 0.57251 0.0
C610 C 0.8644 0.53988 0.5799 0.0
C611 C 0.89056 0.5365 0.58449 0.0
C612 C 0.90898 0.54394 0.57992 0.0
C613 C 0.8828 0.54719 0.57773 0.0
C614 C 0.91953 0.56216 0.56858 0.0
C615 C 0.91198 0.57289 0.56349 0.0
H616 H 0.45634 0.30512 0.58285 0.0
H617 H 0.40564 0.30195 0.56828 0.0
H618 H 0.41977 0.33394 0.56685 0.0
H619 H 0.44624 0.36296 0.57255 0.0
H620 H 0.49705 0.36712 0.59741 0.0
H621 H 0.48333 0.33486 0.59176 0.0
C622 C 0.44846 0.31149 0.57929 0.0
C623 C 0.42994 0.30112 0.57584 0.0
C624 C 0.4567 0.33013 0.58023 0.0
C625 C 0.41989 0.30957 0.57165 0.0
C626 C 0.42796 0.32791 0.57053 0.0
C627 C 0.45435 0.35682 0.57608 0.0
C628 C 0.47264 0.36741 0.58469 0.0
C629 C 0.44631 0.33833 0.57511 0.0
C630 C 0.48292 0.35923 0.59051 0.0
C631 C 0.47507 0.34079 0.58738 0.0
H632 H 0.70108 0.11607 0.57185 0.0
H633 H 0.7065 0.16764 0.58874 0.0
H634 H 0.67449 0.15415 0.60356 0.0
H635 H 0.64486 0.12742 0.61205 0.0
H636 H 0.63978 0.07615 0.58561 0.0
H637 H 0.67167 0.08974 0.57365 0.0
C638 C 0.69526 0.12434 0.57919 0.0
C639 C 0.70612 0.1428 0.58019 0.0
C640 C 0.67687 0.11652 0.58547 0.0
C641 C 0.69838 0.15339 0.5882 0.0
C642 C 0.6801 0.14568 0.59658 0.0
C643 C 0.65077 0.11927 0.60337 0.0
C644 C 0.63995 0.10078 0.59993 0.0
C645 C 0.66918 0.12723 0.59527 0.0
C646 C 0.64777 0.09039 0.58815 0.0
C647 C 0.66603 0.09815 0.58162 0.0
H648 H 0.49014 0.13291 0.1129 0.0
H649 H 0.44506 0.0812 0.08022 0.0
H650 H 0.42617 0.09401 0.06823 0.0
H651 H 0.42198 0.11949 0.07009 0.0
H652 H 0.46658 0.17177 0.09399 0.0
H653 H 0.48614 0.15925 0.10602 0.0
C654 C 0.4762 0.12451 0.10278 0.0
C655 C 0.46904 0.10608 0.09781 0.0
C656 C 0.46532 0.13206 0.0946 0.0
C657 C 0.45098 0.09539 0.0841 0.0
C658 C 0.44011 0.1027 0.07746 0.0
C659 C 0.436 0.12818 0.07798 0.0
C660 C 0.44281 0.14649 0.08213 0.0
C661 C 0.44708 0.12094 0.08319 0.0
C662 C 0.46103 0.15761 0.0909 0.0
C663 C 0.47218 0.15043 0.09789 0.0
H664 H 0.89345 0.30915 0.04455 0.0
H665 H 0.84188 0.30266 0.076 0.0
H666 H 0.85508 0.3348 0.08814 0.0
H667 H 0.88178 0.36479 0.09328 0.0
H668 H 0.93278 0.37039 0.05387 0.0
H669 H 0.91932 0.33861 0.04103 0.0
C670 C 0.88508 0.31476 0.05408 0.0
C671 C 0.86677 0.30358 0.06032 0.0
C672 C 0.89269 0.33312 0.05946 0.0
C673 C 0.85603 0.31104 0.07127 0.0
C674 C 0.86359 0.32939 0.07831 0.0
C675 C 0.88988 0.35902 0.08146 0.0
C676 C 0.9083 0.36999 0.07491 0.0
C677 C 0.88197 0.34058 0.07301 0.0
C678 C 0.91861 0.36233 0.05903 0.0
C679 C 0.91093 0.34411 0.05192 0.0
H680 H 0.64262 0.56433 0.08575 0.0
H681 H 0.63886 0.51353 0.06601 0.0
H682 H 0.67098 0.52783 0.05408 0.0
H683 H 0.70028 0.55497 0.05036 0.0
H684 H 0.70383 0.60548 0.0796 0.0
H685 H 0.67178 0.59116 0.08739 0.0
C686 C 0.64884 0.55642 0.0782 0.0
C687 C 0.63841 0.53794 0.07576 0.0
C688 C 0.66733 0.5647 0.07378 0.0
C689 C 0.64665 0.5278 0.06758 0.0
C690 C 0.665 0.53597 0.06094 0.0
C691 C 0.69401 0.56281 0.05869 0.0
C692 C 0.70445 0.58128 0.06428 0.0
C693 C 0.6755 0.55443 0.06427 0.0
C694 C 0.69614 0.59124 0.07549 0.0
C695 C 0.67779 0.58308 0.07961 0.0
H696 H 0.51972 0.87623 0.90387 0.0
H697 H 0.56489 0.92781 0.93753 0.0
H698 H 0.58409 0.91518 0.94063 0.0
H699 H 0.58854 0.88989 0.93003 0.0
H700 H 0.54385 0.83769 0.90628 0.0
H701 H 0.52401 0.85003 0.90319 0.0
C702 C 0.53374 0.88463 0.91242 0.0
C703 C 0.54083 0.90298 0.92015 0.0
C704 C 0.54483 0.87719 0.91552 0.0
C705 C 0.55902 0.91366 0.93168 0.0
C706 C 0.57008 0.90647 0.93316 0.0
C707 C 0.57444 0.88121 0.9242 0.0
C708 C 0.56766 0.86296 0.9174 0.0
C709 C 0.56318 0.88833 0.92444 0.0
C710 C 0.54935 0.8518 0.91131 0.0
C711 C 0.53804 0.85888 0.90946 0.0
H712 H 0.13314 0.64461 0.88681 0.0
H713 H 0.08207 0.64022 0.90967 0.0
H714 H 0.09589 0.67211 0.92047 0.0
H715 H 0.12225 0.70128 0.9225 0.0
H716 H 0.17372 0.70637 0.9093 0.0
H717 H 0.16007 0.67426 0.89548 0.0
C718 C 0.1251 0.65068 0.89443 0.0
C719 C 0.10658 0.64003 0.89725 0.0
C720 C 0.13319 0.66915 0.90196 0.0
C721 C 0.09632 0.64805 0.90764 0.0
C722 C 0.10421 0.66632 0.91353 0.0
C723 C 0.13049 0.69538 0.91617 0.0
C724 C 0.14894 0.70616 0.9159 0.0
C725 C 0.12259 0.67699 0.91043 0.0
C726 C 0.15947 0.69831 0.90924 0.0
C727 C 0.15166 0.67997 0.90142 0.0
H728 H 0.31083 0.45524 0.9236 0.0
H729 H 0.30717 0.40439 0.90513 0.0
H730 H 0.33928 0.4185 0.90195 0.0
H731 H 0.36852 0.44525 0.90618 0.0
H732 H 0.37249 0.49632 0.91448 0.0
H733 H 0.34025 0.48227 0.92042 0.0
C734 C 0.31709 0.44729 0.91843 0.0
C735 C 0.3066 0.42878 0.91477 0.0
C736 C 0.33563 0.45554 0.91548 0.0
C737 C 0.3149 0.41865 0.90765 0.0
C738 C 0.33328 0.42671 0.90624 0.0
C739 C 0.3623 0.45327 0.90979 0.0
C740 C 0.37282 0.47176 0.91104 0.0
C741 C 0.34379 0.44511 0.91066 0.0
C742 C 0.36463 0.48205 0.914 0.0
C743 C 0.34621 0.47401 0.91722 0.0
H744 H 0.08832 0.44488 0.38257 0.0
H745 H 0.13504 0.4958 0.40472 0.0
H746 H 0.15291 0.48163 0.41961 0.0
H747 H 0.15518 0.45453 0.42562 0.0
H748 H 0.10867 0.40396 0.39267 0.0
H749 H 0.09084 0.41814 0.38225 0.0
C750 C 0.1024 0.45284 0.39111 0.0
C751 C 0.11035 0.47131 0.39347 0.0
C752 C 0.11264 0.44464 0.39719 0.0
C753 C 0.12865 0.48153 0.40306 0.0
C754 C 0.13885 0.47343 0.41149 0.0
C755 C 0.14115 0.44667 0.41599 0.0
C756 C 0.13325 0.42822 0.41013 0.0
C757 C 0.131 0.45498 0.40847 0.0
C758 C 0.11509 0.41819 0.39704 0.0
C759 C 0.10486 0.42627 0.39138 0.0
H760 H 0.55847 0.64304 0.38997 0.0
H761 H 0.50641 0.63652 0.40283 0.0
H762 H 0.51928 0.66879 0.4061 0.0
H763 H 0.54592 0.69919 0.40579 0.0
H764 H 0.5973 0.70408 0.38413 0.0
H765 H 0.58412 0.67231 0.38357 0.0
C766 C 0.54989 0.64863 0.3939 0.0
C767 C 0.53154 0.6374 0.39712 0.0
C768 C 0.55731 0.66703 0.3938 0.0
C769 C 0.52061 0.6449 0.40068 0.0
C770 C 0.52798 0.66336 0.4025 0.0
C771 C 0.55415 0.69325 0.40062 0.0
C772 C 0.57262 0.70415 0.39504 0.0
C773 C 0.54639 0.67462 0.39908 0.0
C774 C 0.58308 0.69617 0.3881 0.0
C775 C 0.57557 0.67791 0.38806 0.0
H776 H 0.36765 0.88067 0.40616 0.0
H777 H 0.37349 0.93271 0.40418 0.0
H778 H 0.34183 0.92004 0.41356 0.0
H779 H 0.31253 0.89465 0.4235 0.0
H780 H 0.30533 0.84224 0.4332 0.0
H781 H 0.33731 0.85449 0.41987 0.0
C782 C 0.36192 0.88915 0.40771 0.0
C783 C 0.373 0.90764 0.40452 0.0
C784 C 0.34344 0.88174 0.41458 0.0
C785 C 0.36537 0.91847 0.40704 0.0
C786 C 0.34721 0.91125 0.41222 0.0
C787 C 0.31788 0.88583 0.4224 0.0
C788 C 0.30653 0.86755 0.42876 0.0
C789 C 0.33615 0.89296 0.41619 0.0
C790 C 0.31379 0.85638 0.42826 0.0
C791 C 0.33207 0.8634 0.42059 0.0
H792 H 0.11512 0.24276 0.88458 0.0
H793 H 0.08747 0.26714 0.96741 0.0
H794 H 0.09897 0.26648 0.07361 0.0
H795 H 0.12208 0.2653 0.13613 0.0
H796 H 0.15091 0.24211 0.05311 0.0
H797 H 0.1337 0.23574 0.9541 0.0
C798 C 0.11092 0.24704 0.9266 0.0
C799 C 0.10041 0.25488 0.91876 0.0
C800 C 0.11827 0.24734 0.98703 0.0
C801 C 0.09537 0.26085 0.9729 0.0
C802 C 0.10217 0.26072 0.03335 0.0
C803 C 0.12425 0.25843 0.09691 0.0
C804 C 0.13793 0.25449 0.10122 0.0
C805 C 0.11447 0.25502 0.04007 0.0
C806 C 0.14048 0.24534 0.05069 0.0
C807 C 0.13071 0.24179 0.99392 0.0
H808 H 0.72713 0.85115 0.11512 0.0
H809 H 0.75954 0.90412 0.04312 0.0
H810 H 0.76539 0.89253 0.94507 0.0
H811 H 0.75701 0.86714 0.87268 0.0
H812 H 0.72342 0.81441 0.94356 0.0
H813 H 0.72276 0.826 0.04971 0.0
C814 C 0.7357 0.86017 0.07842 0.0
C815 C 0.74259 0.87844 0.0859 0.0
C816 C 0.73887 0.85342 0.02196 0.0
C817 C 0.75395 0.88998 0.03843 0.0
C818 C 0.75727 0.88336 0.98219 0.0
C819 C 0.75026 0.85823 0.91235 0.0
C820 C 0.74045 0.83998 0.90097 0.0
C821 C 0.74928 0.86508 0.97244 0.0
C822 C 0.73128 0.8285 0.95188 0.0
C823 C 0.73069 0.83514 0.0122 0.0
H824 H 0.11329 0.86031 0.06491 0.0
H825 H 0.16093 0.87599 0.17315 0.0
H826 H 0.17852 0.89615 0.08802 0.0
H827 H 0.18089 0.90478 0.97528 0.0
H828 H 0.13393 0.88921 0.86416 0.0
H829 H 0.11555 0.87395 0.95787 0.0
C830 C 0.12745 0.86855 0.07054 0.0
C831 C 0.13582 0.86633 0.1246 0.0
C832 C 0.13765 0.88002 0.0205 0.0
C833 C 0.15419 0.87715 0.13138 0.0
C834 C 0.1643 0.88871 0.0827 0.0
C835 C 0.16663 0.89862 0.97249 0.0
C836 C 0.15872 0.89803 0.91336 0.0
C837 C 0.15626 0.88959 0.02587 0.0
C838 C 0.14026 0.88996 0.90967 0.0
C839 C 0.12977 0.88103 0.963 0.0
H840 H 0.24578 0.10786 0.64042 0.0
H841 H 0.27862 0.08858 0.56293 0.0
H842 H 0.2776 0.09999 0.45692 0.0
H843 H 0.27247 0.1205 0.39319 0.0
H844 H 0.24082 0.14122 0.47089 0.0
H845 H 0.23608 0.12413 0.56943 0.0
C846 C 0.25199 0.10548 0.59949 0.0
C847 C 0.26216 0.09732 0.60895 0.0
C848 C 0.25197 0.11279 0.5392 0.0
C849 C 0.27057 0.09467 0.55624 0.0
C850 C 0.27018 0.1014 0.49591 0.0
C851 C 0.26421 0.12096 0.43115 0.0
C852 C 0.25727 0.13233 0.42531 0.0
C853 C 0.26175 0.11131 0.48781 0.0
C854 C 0.24636 0.13261 0.47435 0.0
C855 C 0.24373 0.12291 0.53088 0.0
H856 H 0.88032 0.14772 0.37077 0.0
H857 H 0.85197 0.09543 0.45205 0.0
H858 H 0.86901 0.10624 0.55145 0.0
H859 H 0.88762 0.13171 0.62145 0.0
H860 H 0.91466 0.18402 0.54076 0.0
H861 H 0.90297 0.17209 0.43433 0.0
C862 C 0.87817 0.13862 0.40976 0.0
C863 C 0.8647 0.1209 0.40473 0.0
C864 C 0.88782 0.14498 0.46685 0.0
C865 C 0.86222 0.10916 0.45499 0.0
C866 C 0.87189 0.11536 0.51195 0.0
C867 C 0.89159 0.14031 0.57979 0.0
C868 C 0.9021 0.15864 0.58821 0.0
C869 C 0.88417 0.13339 0.51938 0.0
C870 C 0.90682 0.16984 0.53472 0.0
C871 C 0.89992 0.16304 0.47419 0.0
H872 H 0.83646 0.73503 0.53694 0.0
H873 H 0.88431 0.77349 0.62969 0.0
H874 H 0.9013 0.77566 0.53277 0.0
H875 H 0.90286 0.7622 0.42959 0.0
H876 H 0.85444 0.72291 0.3405 0.0
H877 H 0.83739 0.72565 0.42722 0.0
C878 C 0.85051 0.74441 0.53479 0.0
C879 C 0.85916 0.75415 0.5898 0.0
C880 C 0.86015 0.74512 0.47993 0.0
C881 C 0.87738 0.76609 0.58729 0.0
C882 C 0.8871 0.7671 0.53223 0.0
C883 C 0.88858 0.75459 0.42837 0.0
C884 C 0.88 0.74207 0.37923 0.0
C885 C 0.87872 0.75602 0.47935 0.0
C886 C 0.86144 0.73237 0.37832 0.0
C887 C 0.85162 0.73393 0.42792 0.0
H888 H 0.8871 0.73796 0.867 0.0
H889 H 0.86521 0.76839 0.94638 0.0
H890 H 0.88217 0.77307 0.04517 0.0
H891 H 0.89873 0.76358 0.11559 0.0
H892 H 0.91912 0.73187 0.03642 0.0
H893 H 0.90777 0.73304 0.93047 0.0
C894 C 0.88635 0.74595 0.90541 0.0
C895 C 0.8747 0.75255 0.89994 0.0
C896 C 0.89592 0.74835 0.96219 0.0
C897 C 0.87404 0.76311 0.94956 0.0
C898 C 0.88367 0.7657 0.00622 0.0
C899 C 0.90135 0.75766 0.07433 0.0
C900 C 0.90984 0.74778 0.08322 0.0
C901 C 0.89408 0.75775 0.01409 0.0
C902 C 0.9128 0.73972 0.03013 0.0
C903 C 0.9061 0.74019 0.96984 0.0
H904 H 0.2475 0.10602 0.95261 0.0
H905 H 0.28914 0.15404 0.86873 0.0
H906 H 0.2868 0.1712 0.95591 0.0
H907 H 0.27679 0.17207 0.0646 0.0
H908 H 0.23586 0.1246 0.15213 0.0
H909 H 0.23368 0.10782 0.0546 0.0
C910 C 0.25573 0.12027 0.95259 0.0
C911 C 0.26875 0.12864 0.90477 0.0
C912 C 0.25451 0.13019 0.00382 0.0
C913 C 0.27926 0.14717 0.90546 0.0
C914 C 0.27793 0.15705 0.95535 0.0
C915 C 0.26692 0.15818 0.06121 0.0
C916 C 0.25648 0.14955 0.115 0.0
C917 C 0.26616 0.14863 0.00604 0.0
C918 C 0.24385 0.13154 0.11075 0.0
C919 C 0.24281 0.12191 0.05535 0.0
H920 H 0.83177 0.09807 0.0376 0.0
H921 H 0.87861 0.11855 0.15337 0.0
H922 H 0.89704 0.13268 0.05882 0.0
H923 H 0.89908 0.14404 0.94811 0.0
H924 H 0.85165 0.12417 0.83487 0.0
H925 H 0.83431 0.10474 0.92232 0.0
C926 C 0.84604 0.10494 0.04127 0.0
C927 C 0.85389 0.10711 0.10176 0.0
C928 C 0.85645 0.11348 0.98714 0.0
C929 C 0.87236 0.11644 0.10675 0.0
C930 C 0.88287 0.12473 0.05285 0.0
C931 C 0.88507 0.13501 0.94194 0.0
C932 C 0.87663 0.13579 0.88551 0.0
C933 C 0.875 0.12408 0.99338 0.0
C934 C 0.85842 0.12404 0.87826 0.0
C935 C 0.84845 0.11293 0.92833 0.0
H936 H 0.7364 0.90647 0.45177 0.0
H937 H 0.76673 0.88898 0.34378 0.0
H938 H 0.77006 0.87466 0.43982 0.0
H939 H 0.75858 0.86185 0.54751 0.0
H940 H 0.72686 0.87856 0.65193 0.0
H941 H 0.73012 0.89868 0.56539 0.0
C942 C 0.74447 0.90025 0.45029 0.0
C943 C 0.75145 0.89887 0.39136 0.0
C944 C 0.74569 0.89152 0.50491 0.0
C945 C 0.76154 0.89046 0.38915 0.0
C946 C 0.76317 0.88203 0.44384 0.0
C947 C 0.75291 0.87034 0.55213 0.0
C948 C 0.7422 0.86845 0.60552 0.0
C949 C 0.75446 0.88165 0.50108 0.0
C950 C 0.73489 0.87953 0.61082 0.0
C951 C 0.73673 0.89104 0.56128 0.0
H952 H 0.11098 0.82439 0.47176 0.0
H953 H 0.11366 0.86902 0.37407 0.0
H954 H 0.1279 0.8877 0.46817 0.0
H955 H 0.14439 0.89219 0.57037 0.0
H956 H 0.14177 0.84689 0.66435 0.0
H957 H 0.12267 0.82771 0.58021 0.0
C958 C 0.1141 0.83806 0.47213 0.0
C959 C 0.11134 0.84536 0.41644 0.0
C960 C 0.12272 0.84873 0.5253 0.0
C961 C 0.11548 0.86308 0.41693 0.0
C962 C 0.12389 0.87382 0.47035 0.0
C963 C 0.13932 0.87809 0.57307 0.0
C964 C 0.14493 0.87112 0.62288 0.0
C965 C 0.12834 0.86696 0.52367 0.0
C966 C 0.13808 0.85275 0.62587 0.0
C967 C 0.12706 0.84168 0.57781 0.0
H968 H 0.11064 0.24683 0.5724 0.0
H969 H 0.15799 0.2886 0.65935 0.0
H970 H 0.17558 0.28753 0.57126 0.0
H971 H 0.17703 0.27834 0.46173 0.0
H972 H 0.13034 0.23711 0.37159 0.0
H973 H 0.1131 0.23401 0.46883 0.0
C974 C 0.12484 0.2554 0.57275 0.0
C975 C 0.13286 0.26806 0.62194 0.0
C976 C 0.13504 0.25486 0.52111 0.0
C977 C 0.15133 0.27899 0.62165 0.0
C978 C 0.16149 0.27839 0.57124 0.0
C979 C 0.16323 0.26821 0.4645 0.0
C980 C 0.15495 0.25788 0.41019 0.0
C981 C 0.15341 0.26688 0.51962 0.0
C982 C 0.13702 0.24498 0.41349 0.0
C983 C 0.12712 0.24341 0.46873 0.0
H984 H 0.7956 0.61208 0.43454 0.0
H985 H 0.821 0.58474 0.35688 0.0
H986 H 0.80474 0.5797 0.25624 0.0
H987 H 0.78755 0.588 0.18445 0.0
H988 H 0.76254 0.61561 0.26217 0.0
H989 H 0.77393 0.61522 0.36911 0.0
C990 C 0.79724 0.60466 0.39607 0.0
C991 C 0.80968 0.59904 0.40266 0.0
C992 C 0.78789 0.60187 0.33833 0.0
C993 C 0.81153 0.58923 0.3529 0.0
C994 C 0.80231 0.58643 0.29518 0.0
C995 C 0.78394 0.59315 0.22557 0.0
C996 C 0.77407 0.60162 0.21607 0.0
C997 C 0.791 0.59332 0.28648 0.0
C998 C 0.76984 0.60873 0.26896 0.0
C999 C 0.77657 0.60874 0.32982 0.0
H1000 H 0.39468 0.1615 0.3107 0.0
H1001 H 0.42771 0.20878 0.20321 0.0
H1002 H 0.43042 0.22688 0.2973 0.0
H1003 H 0.41834 0.22896 0.40316 0.0
H1004 H 0.38472 0.18098 0.50763 0.0
H1005 H 0.38753 0.16353 0.42262 0.0
C1006 C 0.40306 0.17574 0.30889 0.0
C1007 C 0.411 0.18384 0.25057 0.0
C1008 C 0.40412 0.18597 0.36237 0.0
C1009 C 0.42169 0.20229 0.24811 0.0
C1010 C 0.423 0.21263 0.30163 0.0
C1011 C 0.41206 0.21474 0.40801 0.0
C1012 C 0.40097 0.20628 0.461 0.0
C1013 C 0.41352 0.20461 0.35807 0.0
C1014 C 0.39299 0.18782 0.46671 0.0
C1015 C 0.39459 0.17778 0.41811 0.0
H1016 H 0.80726 0.22757 0.20901 0.0
H1017 H 0.85961 0.24726 0.28453 0.0
H1018 H 0.84746 0.23525 0.39032 0.0
H1019 H 0.82208 0.21415 0.45384 0.0
H1020 H 0.76951 0.19303 0.37786 0.0
H1021 H 0.78148 0.21066 0.28022 0.0
C1022 C 0.81595 0.2299 0.24954 0.0
C1023 C 0.83426 0.23834 0.23952 0.0
C1024 C 0.8088 0.22224 0.3096 0.0
C1025 C 0.84547 0.24095 0.29168 0.0
C1026 C 0.83852 0.23388 0.35185 0.0
C1027 C 0.81322 0.21369 0.41646 0.0
C1028 C 0.79498 0.20207 0.42247 0.0
C1029 C 0.82021 0.22368 0.36029 0.0
C1030 C 0.78362 0.20182 0.37423 0.0
C1031 C 0.79048 0.21184 0.31821 0.0
H1032 H 0.93383 0.45881 0.71704 0.0
H1033 H 0.91814 0.49404 0.79984 0.0
H1034 H 0.91293 0.47895 0.9033 0.0
H1035 H 0.91862 0.45967 0.97398 0.0
H1036 H 0.93419 0.42443 0.89122 0.0
H1037 H 0.93326 0.4352 0.78348 0.0
C1038 C 0.92879 0.46282 0.75735 0.0
C1039 C 0.92662 0.47764 0.75135 0.0
C1040 C 0.92589 0.45412 0.81663 0.0
C1041 C 0.9199 0.48266 0.80345 0.0
C1042 C 0.91705 0.47411 0.86272 0.0
C1043 C 0.921 0.45383 0.93192 0.0
C1044 C 0.92636 0.44125 0.93991 0.0
C1045 C 0.92077 0.46036 0.8705 0.0
C1046 C 0.92977 0.43393 0.88569 0.0
C1047 C 0.92948 0.44027 0.82431 0.0
H1048 H 0.55284 0.46621 0.95969 0.0
H1049 H 0.57911 0.51898 0.88301 0.0
H1050 H 0.56707 0.50758 0.77631 0.0
H1051 H 0.54505 0.48315 0.71035 0.0
H1052 H 0.51847 0.43025 0.78697 0.0
H1053 H 0.53471 0.44102 0.88783 0.0
C1054 C 0.55652 0.47506 0.91881 0.0
C1055 C 0.56702 0.49334 0.92851 0.0
C1056 C 0.54912 0.46841 0.85807 0.0
C1057 C 0.57134 0.50483 0.876 0.0
C1058 C 0.56424 0.49832 0.81531 0.0
C1059 C 0.54307 0.47394 0.74873 0.0
C1060 C 0.53038 0.45599 0.74161 0.0
C1061 C 0.55247 0.48023 0.80655 0.0
C1062 C 0.52813 0.44415 0.79131 0.0
C1063 C 0.53736 0.45031 0.84914 0.0
H1064 H 0.53061 0.07746 0.73784 0.0
H1065 H 0.58198 0.09422 0.81841 0.0
H1066 H 0.57289 0.10138 0.91988 0.0
H1067 H 0.54845 0.09692 0.99098 0.0
H1068 H 0.49712 0.08001 0.91074 0.0
H1069 H 0.50813 0.07936 0.80322 0.0
C1070 C 0.53993 0.08312 0.77715 0.0
C1071 C 0.55681 0.08502 0.7713 0.0
C1072 C 0.53459 0.08715 0.83531 0.0
C1073 C 0.56889 0.0926 0.82198 0.0
C1074 C 0.56367 0.09659 0.88011 0.0
C1075 C 0.53997 0.09398 0.94932 0.0
C1076 C 0.52209 0.08866 0.95816 0.0
C1077 C 0.54631 0.09316 0.88816 0.0
C1078 C 0.51102 0.08446 0.90452 0.0
C1079 C 0.51725 0.0838 0.84331 0.0
H1080 H 0.55299 0.07951 0.23818 0.0
H1081 H 0.51815 0.09551 0.32229 0.0
H1082 H 0.53258 0.09942 0.4265 0.0
H1083 H 0.55108 0.09252 0.49673 0.0
H1084 H 0.58593 0.07663 0.41268 0.0
H1085 H 0.57588 0.0788 0.30497 0.0
C1086 C 0.54894 0.08437 0.27898 0.0
C1087 C 0.5344 0.087 0.273 0.0
C1088 C 0.55723 0.08647 0.3387 0.0
C1089 C 0.52933 0.09343 0.32581 0.0
C1090 C 0.53748 0.09551 0.3855 0.0
C1091 C 0.55698 0.0903 0.4545 0.0
C1092 C 0.56925 0.08452 0.46205 0.0
C1093 C 0.55089 0.09129 0.39305 0.0
C1094 C 0.57667 0.08135 0.40756 0.0
C1095 C 0.57074 0.08237 0.34616 0.0
H1096 H 0.93417 0.4798 0.21702 0.0
H1097 H 0.91772 0.42875 0.30026 0.0
H1098 H 0.91188 0.43859 0.40269 0.0
H1099 H 0.91733 0.46355 0.47291 0.0
H1100 H 0.93383 0.51454 0.38982 0.0
H1101 H 0.93332 0.50286 0.28244 0.0
C1102 C 0.92884 0.47071 0.25717 0.0
C1103 C 0.92664 0.4537 0.25167 0.0
C1104 C 0.92558 0.4765 0.31586 0.0
C1105 C 0.91953 0.44192 0.30351 0.0
C1106 C 0.91631 0.44759 0.36218 0.0
C1107 C 0.91997 0.47182 0.43079 0.0
C1108 C 0.92548 0.4898 0.43868 0.0
C1109 C 0.92006 0.46508 0.36962 0.0
C1110 C 0.92925 0.50059 0.38439 0.0
C1111 C 0.92923 0.49396 0.32322 0.0
H1112 H 0.54427 0.45346 0.45993 0.0
H1113 H 0.49227 0.42208 0.38022 0.0
H1114 H 0.50335 0.43441 0.27363 0.0
H1115 H 0.52646 0.45864 0.20952 0.0
H1116 H 0.5786 0.49009 0.289 0.0
H1117 H 0.569 0.47318 0.38898 0.0
C1118 C 0.53563 0.44866 0.41844 0.0
C1119 C 0.51756 0.43676 0.42739 0.0
C1120 C 0.54203 0.45625 0.35772 0.0
C1121 C 0.5063 0.43097 0.37392 0.0
C1122 C 0.51258 0.43827 0.31325 0.0
C1123 C 0.5358 0.46146 0.24822 0.0
C1124 C 0.5531 0.47575 0.24248 0.0
C1125 C 0.5302 0.45164 0.30546 0.0
C1126 C 0.56519 0.47917 0.29245 0.0
C1127 C 0.55968 0.46956 0.34975 0.0
H1128 H 0.38834 0.23518 0.81009 0.0
H1129 H 0.42686 0.22829 0.70532 0.0
H1130 H 0.43153 0.21415 0.79924 0.0
H1131 H 0.42015 0.19871 0.9038 0.0
H1132 H 0.38088 0.20552 0.00512 0.0
H1133 H 0.38119 0.22483 0.92077 0.0
C1134 C 0.3983 0.23124 0.80889 0.0
C1135 C 0.40727 0.23277 0.7513 0.0
C1136 C 0.40045 0.22268 0.86213 0.0
C1137 C 0.42 0.22747 0.74966 0.0
C1138 C 0.42243 0.21911 0.80304 0.0
C1139 C 0.41202 0.20479 0.90809 0.0
C1140 C 0.40018 0.20028 0.96004 0.0
C1141 C 0.41206 0.21585 0.85851 0.0
C1142 C 0.38981 0.20839 0.96501 0.0
C1143 C 0.38998 0.2195 0.9168 0.0
H1144 H 0.77467 0.16317 0.78416 0.0
H1145 H 0.78243 0.2102 0.68912 0.0
H1146 H 0.7965 0.22763 0.78597 0.0
H1147 H 0.8113 0.22999 0.89052 0.0
H1148 H 0.80339 0.18234 0.98271 0.0
H1149 H 0.78447 0.16468 0.8951 0.0
C1150 C 0.77884 0.17712 0.7857 0.0
C1151 C 0.7775 0.18542 0.7301 0.0
C1152 C 0.78722 0.18701 0.84079 0.0
C1153 C 0.78311 0.20352 0.73193 0.0
C1154 C 0.79138 0.21351 0.78701 0.0
C1155 C 0.80503 0.21572 0.89224 0.0
C1156 C 0.80912 0.20757 0.94257 0.0
C1157 C 0.79422 0.20551 0.84078 0.0
C1158 C 0.80081 0.18903 0.94404 0.0
C1159 C 0.78995 0.17886 0.89388 0.0
H1160 H 0.81645 0.60951 0.93502 0.0
H1161 H 0.76411 0.58824 0.85674 0.0
H1162 H 0.77383 0.58145 0.75591 0.0
H1163 H 0.7986 0.58692 0.68416 0.0
H1164 H 0.85088 0.60857 0.7625 0.0
H1165 H 0.83981 0.60942 0.8696 0.0
C1166 C 0.80709 0.60298 0.89639 0.0
C1167 C 0.78968 0.59964 0.9028 0.0
C1168 C 0.8128 0.59921 0.83853 0.0
C1169 C 0.77759 0.59097 0.85286 0.0
C1170 C 0.78317 0.58719 0.79503 0.0
C1171 C 0.80734 0.59101 0.72541 0.0
C1172 C 0.82545 0.59748 0.71609 0.0
C1173 C 0.80092 0.59194 0.78643 0.0
C1174 C 0.83683 0.60323 0.76916 0.0
C1175 C 0.83054 0.60396 0.83012 0.0
H1176 H 0.45513 0.9156 0.53546 0.0
H1177 H 0.42716 0.93958 0.61875 0.0
H1178 H 0.43776 0.93778 0.72565 0.0
H1179 H 0.45976 0.93511 0.79009 0.0
H1180 H 0.48893 0.91236 0.70645 0.0
H1181 H 0.47294 0.90762 0.60523 0.0
C1182 C 0.45072 0.91961 0.57762 0.0
C1183 C 0.44025 0.9275 0.56992 0.0
C1184 C 0.45747 0.91916 0.63844 0.0
C1185 C 0.43496 0.93317 0.62415 0.0
C1186 C 0.44123 0.93238 0.68501 0.0
C1187 C 0.46229 0.92872 0.75014 0.0
C1188 C 0.47571 0.92438 0.75517 0.0
C1189 C 0.45325 0.9263 0.69203 0.0
C1190 C 0.4787 0.91586 0.70359 0.0
C1191 C 0.46964 0.91326 0.64558 0.0
H1192 H 0.07806 0.52833 0.76359 0.0
H1193 H 0.09794 0.58017 0.68199 0.0
H1194 H 0.10346 0.56991 0.57991 0.0
H1195 H 0.09699 0.54472 0.509 0.0
H1196 H 0.07683 0.49293 0.5906 0.0
H1197 H 0.07747 0.50464 0.69799 0.0
C1198 C 0.08406 0.53748 0.72392 0.0
C1199 C 0.08734 0.55489 0.72981 0.0
C1200 C 0.08707 0.53145 0.66536 0.0
C1201 C 0.09529 0.5667 0.67852 0.0
C1202 C 0.09833 0.5608 0.61999 0.0
C1203 C 0.09355 0.53623 0.55086 0.0
C1204 C 0.08704 0.51807 0.54252 0.0
C1205 C 0.09353 0.54301 0.61208 0.0
C1206 C 0.08218 0.50701 0.59645 0.0
C1207 C 0.0823 0.51367 0.65761 0.0
H1208 H 0.48863 0.54566 0.78955 0.0
H1209 H 0.43571 0.52043 0.71375 0.0
H1210 H 0.4465 0.538 0.61556 0.0
H1211 H 0.47169 0.55688 0.54463 0.0
H1212 H 0.52452 0.5811 0.61994 0.0
H1213 H 0.5131 0.56814 0.72546 0.0
C1214 C 0.47942 0.5442 0.75195 0.0
C1215 C 0.46145 0.53151 0.75846 0.0
C1216 C 0.48573 0.55431 0.69557 0.0
C1217 C 0.44963 0.53002 0.70982 0.0
C1218 C 0.4558 0.54005 0.65352 0.0
C1219 C 0.48057 0.55996 0.5851 0.0
C1220 C 0.49888 0.57009 0.57512 0.0
C1221 C 0.47391 0.5518 0.64496 0.0
C1222 C 0.51036 0.57358 0.62712 0.0
C1223 C 0.50384 0.56594 0.68711 0.0
H1224 H 0.58833 0.80816 0.06921 0.0
H1225 H 0.63262 0.80599 0.98741 0.0
H1226 H 0.63119 0.78656 0.07315 0.0
H1227 H 0.6207 0.77417 0.17969 0.0
H1228 H 0.57726 0.77664 0.26563 0.0
H1229 H 0.5746 0.79137 0.16936 0.0
C1230 C 0.59745 0.80319 0.06952 0.0
C1231 C 0.61083 0.80895 0.0225 0.0
C1232 C 0.5967 0.79199 0.11979 0.0
C1233 C 0.62241 0.80216 0.02349 0.0
C1234 C 0.6216 0.79095 0.0725 0.0
C1235 C 0.61023 0.77734 0.17621 0.0
C1236 C 0.59919 0.77436 0.2293 0.0
C1237 C 0.60925 0.78633 0.12203 0.0
C1238 C 0.58574 0.7786 0.22481 0.0
C1239 C 0.58443 0.7873 0.1702 0.0
H1240 H 0.2311 0.80942 0.28896 0.0
H1241 H 0.24742 0.86123 0.21376 0.0
H1242 H 0.23589 0.84872 0.10802 0.0
H1243 H 0.21639 0.82283 0.0438 0.0
H1244 H 0.1984 0.77065 0.11919 0.0
H1245 H 0.21547 0.7834 0.21747 0.0
C1246 C 0.23275 0.81796 0.24858 0.0
C1247 C 0.24014 0.8362 0.25864 0.0
C1248 C 0.22539 0.81054 0.18843 0.0
C1249 C 0.24188 0.84717 0.20664 0.0
C1250 C 0.23512 0.83999 0.14645 0.0
C1251 C 0.21649 0.81424 0.08121 0.0
C1252 C 0.20592 0.79584 0.07473 0.0
C1253 C 0.22607 0.82165 0.13777 0.0
C1254 C 0.2064 0.78487 0.12309 0.0
C1255 C 0.21608 0.79216 0.1795 0.0
H1256 H 0.19637 0.40422 0.04465 0.0
H1257 H 0.24792 0.42175 0.12486 0.0
H1258 H 0.2386 0.42839 0.22679 0.0
H1259 H 0.21388 0.4228 0.29843 0.0
H1260 H 0.16239 0.4052 0.21848 0.0
H1261 H 0.17364 0.40555 0.11053 0.0
C1262 C 0.20568 0.41 0.08393 0.0
C1263 C 0.22267 0.4122 0.07793 0.0
C1264 C 0.2002 0.41372 0.14239 0.0
C1265 C 0.23475 0.4199 0.12858 0.0
C1266 C 0.22939 0.42359 0.18699 0.0
C1267 C 0.20542 0.41998 0.25681 0.0
C1268 C 0.18741 0.41407 0.26582 0.0
C1269 C 0.2119 0.41972 0.19533 0.0
C1270 C 0.17637 0.41005 0.21217 0.0
C1271 C 0.18274 0.40996 0.15067 0.0
H1272 H 0.21679 0.41722 0.80127 0.0
H1273 H 0.25136 0.4006 0.72 0.0
H1274 H 0.24016 0.40075 0.61227 0.0
H1275 H 0.21664 0.40028 0.54552 0.0
H1276 H 0.18205 0.41697 0.62709 0.0
H1277 H 0.19726 0.42242 0.73028 0.0
C1278 C 0.22239 0.41441 0.75946 0.0
C1279 C 0.23496 0.40907 0.76801 0.0
C1280 C 0.21557 0.41416 0.6981 0.0
C1281 C 0.24192 0.40507 0.71409 0.0
C1282 C 0.23531 0.4049 0.65273 0.0
C1283 C 0.21271 0.40549 0.58556 0.0
C1284 C 0.19806 0.40794 0.57912 0.0
C1285 C 0.22153 0.40858 0.64471 0.0
C1286 C 0.19325 0.41494 0.63093 0.0
C1287 C 0.20189 0.41796 0.69005 0.0
H1288 H 0.60579 0.84319 0.67045 0.0
H1289 H 0.57914 0.79712 0.79032 0.0
H1290 H 0.57472 0.77806 0.69758 0.0
H1291 H 0.58452 0.77537 0.588 0.0
H1292 H 0.61209 0.82214 0.47101 0.0
H1293 H 0.60972 0.83994 0.55592 0.0
C1294 C 0.59827 0.82893 0.67543 0.0
C1295 C 0.59273 0.82152 0.73667 0.0
C1296 C 0.59631 0.81818 0.62244 0.0
C1297 C 0.58326 0.80307 0.74321 0.0
C1298 C 0.581 0.79219 0.69034 0.0
C1299 C 0.58942 0.78933 0.58042 0.0
C1300 C 0.59879 0.79748 0.52382 0.0
C1301 C 0.58836 0.79968 0.63042 0.0
C1302 C 0.60511 0.81561 0.51463 0.0
C1303 C 0.60379 0.82583 0.56323 0.0
H1304 H 0.16718 0.77527 0.71293 0.0
H1305 H 0.21443 0.7824 0.80397 0.0
H1306 H 0.2316 0.79714 0.70726 0.0
H1307 H 0.23369 0.81275 0.60491 0.0
H1308 H 0.18587 0.80572 0.51735 0.0
H1309 H 0.16842 0.78603 0.60374 0.0
C1310 C 0.18112 0.77947 0.7105 0.0
C1311 C 0.18957 0.77779 0.76503 0.0
C1312 C 0.19087 0.78829 0.65571 0.0
C1313 C 0.20764 0.78337 0.76201 0.0
C1314 C 0.21748 0.79202 0.70706 0.0
C1315 C 0.21943 0.80653 0.60392 0.0
C1316 C 0.21117 0.81106 0.55538 0.0
C1317 C 0.20935 0.7953 0.65473 0.0
C1318 C 0.19264 0.8028 0.55474 0.0
C1319 C 0.1826 0.79149 0.60416 0.0
H1320 H 0.09777 0.5549 0.01314 0.0
H1321 H 0.0733 0.58314 0.08983 0.0
H1322 H 0.07281 0.57147 0.19713 0.0
H1323 H 0.07399 0.54872 0.26298 0.0
H1324 H 0.0982 0.52014 0.18609 0.0
H1325 H 0.1044 0.53656 0.08532 0.0
C1326 C 0.09314 0.55913 0.05412 0.0
C1327 C 0.08577 0.56998 0.04427 0.0
C1328 C 0.09244 0.55192 0.11516 0.0
C1329 C 0.07934 0.57506 0.09694 0.0
C1330 C 0.07881 0.56816 0.15799 0.0
C1331 C 0.08099 0.54641 0.22464 0.0
C1332 C 0.08536 0.53305 0.23142 0.0
C1333 C 0.08447 0.55587 0.16683 0.0
C1334 C 0.09466 0.53033 0.1819 0.0
C1335 C 0.09812 0.53965 0.12412 0.0
H1336 H 0.43719 0.49731 0.12554 0.0
H1337 H 0.44983 0.5447 0.02168 0.0
H1338 H 0.46397 0.56249 0.11768 0.0
H1339 H 0.47799 0.56461 0.2236 0.0
H1340 H 0.46632 0.51668 0.32314 0.0
H1341 H 0.4464 0.49908 0.23736 0.0
C1342 C 0.44232 0.51146 0.12503 0.0
C1343 C 0.44237 0.51972 0.0672 0.0
C1344 C 0.45104 0.52155 0.17938 0.0
C1345 C 0.44936 0.53807 0.06622 0.0
C1346 C 0.45772 0.54825 0.12082 0.0
C1347 C 0.47067 0.55034 0.22729 0.0
C1348 C 0.47391 0.54198 0.27913 0.0
C1349 C 0.45946 0.54018 0.17665 0.0
C1350 C 0.46433 0.52345 0.28322 0.0
C1351 C 0.45291 0.51334 0.23416 0.0
H1352 H 0.50814 0.93288 0.12342 0.0
H1353 H 0.46062 0.90724 0.01094 0.0
H1354 H 0.44295 0.90467 0.10595 0.0
H1355 H 0.44207 0.91566 0.21494 0.0
H1356 H 0.49028 0.94272 0.32434 0.0
H1357 H 0.50651 0.93852 0.23779 0.0
C1358 C 0.49384 0.92593 0.1207 0.0
C1359 C 0.48562 0.92003 0.06088 0.0
C1360 C 0.48391 0.9252 0.17488 0.0
C1361 C 0.46714 0.91152 0.05706 0.0
C1362 C 0.45708 0.91034 0.11118 0.0
C1363 C 0.45599 0.92011 0.22052 0.0
C1364 C 0.46501 0.92982 0.27544 0.0
C1365 C 0.46543 0.91801 0.16957 0.0
C1366 C 0.48308 0.93552 0.282 0.0
C1367 C 0.49241 0.93313 0.23249 0.0
H1368 H 0.23018 0.34571 0.96468 0.0
H1369 H 0.24775 0.37713 0.13714 0.0
H1370 H 0.23295 0.35035 0.20289 0.0
H1371 H 0.21483 0.31796 0.2111 0.0
H1372 H 0.19945 0.28644 0.03871 0.0
H1373 H 0.21357 0.31325 0.97294 0.0
C1374 C 0.23075 0.34665 0.01669 0.0
C1375 C 0.23993 0.36332 0.04618 0.0
C1376 C 0.22261 0.33119 0.05401 0.0
C1377 C 0.2408 0.36441 0.11348 0.0
C1378 C 0.2323 0.34912 0.15101 0.0
C1379 C 0.21459 0.317 0.15911 0.0
C1380 C 0.20604 0.3003 0.12962 0.0
C1381 C 0.22314 0.33245 0.12179 0.0
C1382 C 0.206 0.29917 0.06235 0.0
C1383 C 0.21402 0.31449 0.02481 0.0
H1384 H 0.70837 0.91053 0.04102 0.0
H1385 H 0.68592 0.89526 0.23067 0.0
H1386 H 0.65621 0.88126 0.18566 0.0
H1387 H 0.63645 0.87231 0.09196 0.0
H1388 H 0.6588 0.88561 0.90166 0.0
H1389 H 0.68853 0.90139 0.94698 0.0
C1390 C 0.69695 0.90426 0.07237 0.0
C1391 C 0.69934 0.90399 0.13905 0.0
C1392 C 0.67983 0.8958 0.04596 0.0
C1393 C 0.68443 0.89562 0.17912 0.0
C1394 C 0.66742 0.88761 0.15344 0.0
C1395 C 0.64783 0.8788 0.06054 0.0
C1396 C 0.64543 0.87787 0.99364 0.0
C1397 C 0.66494 0.88747 0.0869 0.0
C1398 C 0.66031 0.88613 0.95341 0.0
C1399 C 0.67733 0.89516 0.97927 0.0
H1400 H 0.13049 0.77632 0.96522 0.0
H1401 H 0.1443 0.75872 0.13777 0.0
H1402 H 0.13027 0.77154 0.20321 0.0
H1403 H 0.11467 0.78838 0.21115 0.0
H1404 H 0.09932 0.80437 0.03823 0.0
H1405 H 0.11333 0.79153 0.97292 0.0
C1406 C 0.13037 0.77525 0.01717 0.0
C1407 C 0.13848 0.76669 0.04677 0.0
C1408 C 0.12204 0.78239 0.05426 0.0
C1409 C 0.13809 0.76521 0.11398 0.0
C1410 C 0.13013 0.77259 0.15136 0.0
C1411 C 0.11438 0.78901 0.15915 0.0
C1412 C 0.10609 0.79739 0.12942 0.0
C1413 C 0.12216 0.78131 0.12201 0.0
C1414 C 0.1056 0.79795 0.06209 0.0
C1415 C 0.11364 0.79066 0.0248 0.0
H1416 H 0.31408 0.20834 0.31112 0.0
H1417 H 0.28415 0.19541 0.48717 0.0
H1418 H 0.31156 0.21041 0.54931 0.0
H1419 H 0.3441 0.22665 0.55328 0.0
H1420 H 0.37382 0.24107 0.3765 0.0
H1421 H 0.34642 0.22605 0.31471 0.0
C1422 C 0.31357 0.20885 0.36312 0.0
C1423 C 0.29717 0.20071 0.39468 0.0
C1424 C 0.32933 0.21773 0.39823 0.0
C1425 C 0.29665 0.20162 0.46191 0.0
C1426 C 0.31231 0.21014 0.49738 0.0
C1427 C 0.34454 0.22651 0.50121 0.0
C1428 C 0.36091 0.23484 0.46938 0.0
C1429 C 0.32872 0.21814 0.46604 0.0
C1430 C 0.36135 0.23477 0.40197 0.0
C1431 C 0.3457 0.22615 0.36668 0.0
H1432 H 0.77639 0.12495 0.53112 0.0
H1433 H 0.76163 0.14122 0.3576 0.0
H1434 H 0.77477 0.12736 0.29278 0.0
H1435 H 0.79083 0.11086 0.28574 0.0
H1436 H 0.8034 0.09263 0.45952 0.0
H1437 H 0.79077 0.10698 0.52406 0.0
C1438 C 0.77604 0.12542 0.47908 0.0
C1439 C 0.76816 0.13416 0.44907 0.0
C1440 C 0.78325 0.11709 0.44229 0.0
C1441 C 0.76758 0.13451 0.3817 0.0
C1442 C 0.77515 0.12665 0.34469 0.0
C1443 C 0.79078 0.11005 0.33775 0.0
C1444 C 0.79811 0.10081 0.36795 0.0
C1445 C 0.78308 0.11795 0.37447 0.0
C1446 C 0.79778 0.09964 0.43527 0.0
C1447 C 0.79061 0.10788 0.47215 0.0
H1448 H 0.90477 0.68884 0.28742 0.0
H1449 H 0.91654 0.71768 0.46569 0.0
H1450 H 0.90155 0.68987 0.52562 0.0
H1451 H 0.8843 0.65738 0.52673 0.0
H1452 H 0.87395 0.62857 0.34883 0.0
H1453 H 0.88923 0.65638 0.28909 0.0
C1454 C 0.90411 0.68902 0.33945 0.0
C1455 C 0.91164 0.70525 0.37218 0.0
C1456 C 0.8957 0.67301 0.37344 0.0
C1457 C 0.91087 0.70534 0.43953 0.0
C1458 C 0.90225 0.68945 0.47371 0.0
C1459 C 0.88544 0.65721 0.47487 0.0
C1460 C 0.87791 0.64098 0.44206 0.0
C1461 C 0.89449 0.67322 0.44111 0.0
C1462 C 0.87965 0.64091 0.37505 0.0
C1463 C 0.88834 0.6568 0.34093 0.0
H1464 H 0.79775 0.69513 0.78107 0.0
H1465 H 0.81268 0.72462 0.9582 0.0
H1466 H 0.79768 0.69708 0.01972 0.0
H1467 H 0.78081 0.66457 0.02282 0.0
H1468 H 0.76398 0.63521 0.84565 0.0
H1469 H 0.77919 0.66274 0.78415 0.0
C1470 C 0.79767 0.69549 0.83316 0.0
C1471 C 0.80637 0.71182 0.86523 0.0
C1472 C 0.7887 0.67965 0.86799 0.0
C1473 C 0.80601 0.71219 0.9326 0.0
C1474 C 0.7975 0.69646 0.9677 0.0
C1475 C 0.78047 0.66424 0.97072 0.0
C1476 C 0.77142 0.64794 0.93864 0.0
C1477 C 0.78888 0.68012 0.93589 0.0
C1478 C 0.77084 0.64763 0.87126 0.0
C1479 C 0.77957 0.66335 0.83617 0.0
H1480 H 0.35151 0.12349 0.05668 0.0
H1481 H 0.38072 0.13652 0.87883 0.0
H1482 H 0.35314 0.12092 0.81838 0.0
H1483 H 0.32074 0.10437 0.81598 0.0
H1484 H 0.29146 0.09028 0.99373 0.0
H1485 H 0.31908 0.10541 0.05453 0.0
C1486 C 0.35182 0.12286 0.00468 0.0
C1487 C 0.36811 0.13123 0.97216 0.0
C1488 C 0.33593 0.11369 0.97036 0.0
C1489 C 0.36835 0.13017 0.9049 0.0
C1490 C 0.35259 0.12129 0.87034 0.0
C1491 C 0.32041 0.10456 0.86807 0.0
C1492 C 0.30411 0.09632 0.90039 0.0
C1493 C 0.33631 0.11312 0.90255 0.0
C1494 C 0.30386 0.0965 0.96782 0.0
C1495 C 0.31963 0.1052 0.00254 0.0
H1496 H 0.89625 0.21304 0.78893 0.0
H1497 H 0.91385 0.20121 0.96589 0.0
H1498 H 0.90168 0.21658 0.02688 0.0
H1499 H 0.88563 0.23286 0.02984 0.0
H1500 H 0.86913 0.24595 0.853 0.0
H1501 H 0.88145 0.23072 0.7916 0.0
C1502 C 0.89739 0.21383 0.84087 0.0
C1503 C 0.90579 0.20592 0.87308 0.0
C1504 C 0.89065 0.22295 0.87539 0.0
C1505 C 0.90742 0.2072 0.94019 0.0
C1506 C 0.90046 0.21597 0.975 0.0
C1507 C 0.88479 0.23243 0.9778 0.0
C1508 C 0.87643 0.24042 0.94586 0.0
C1509 C 0.89201 0.22382 0.94309 0.0
C1510 C 0.87557 0.23994 0.87852 0.0
C1511 C 0.88253 0.23117 0.84352 0.0
H1512 H 0.6847 0.79016 0.684 0.0
H1513 H 0.71625 0.80654 0.5115 0.0
H1514 H 0.68943 0.7936 0.44589 0.0
H1515 H 0.65703 0.77803 0.43807 0.0
H1516 H 0.62556 0.76022 0.61062 0.0
H1517 H 0.65238 0.77332 0.67607 0.0
C1518 C 0.68568 0.79087 0.63201 0.0
C1519 C 0.70237 0.79936 0.60246 0.0
C1520 C 0.67026 0.78318 0.59484 0.0
C1521 C 0.70352 0.80004 0.53518 0.0
C1522 C 0.68821 0.79269 0.49776 0.0
C1523 C 0.65607 0.77703 0.49003 0.0
C1524 C 0.63939 0.76829 0.51967 0.0
C1525 C 0.67152 0.7843 0.52712 0.0
C1526 C 0.63828 0.76687 0.58686 0.0
C1527 C 0.65359 0.77439 0.62422 0.0
H1528 H 0.22004 0.89985 0.71838 0.0
H1529 H 0.20737 0.91799 0.54445 0.0
H1530 H 0.22199 0.90563 0.48049 0.0
H1531 H 0.23744 0.88879 0.47355 0.0
H1532 H 0.25127 0.8715 0.64682 0.0
H1533 H 0.23724 0.88449 0.71163 0.0
C1534 C 0.22058 0.90116 0.66649 0.0
C1535 C 0.21255 0.90974 0.63614 0.0
C1536 C 0.22919 0.89416 0.62998 0.0
C1537 C 0.21345 0.91147 0.56896 0.0
C1538 C 0.22178 0.90436 0.53234 0.0
C1539 C 0.23745 0.88793 0.52555 0.0
C1540 C 0.24527 0.87912 0.55542 0.0
C1541 C 0.22954 0.89555 0.56228 0.0
C1542 C 0.24536 0.87826 0.62277 0.0
C1543 C 0.23729 0.88562 0.65977 0.0
H1544 H 0.12788 0.36632 0.60563 0.0
H1545 H 0.13133 0.34568 0.4214 0.0
H1546 H 0.11518 0.3156 0.46337 0.0
H1547 H 0.10087 0.29509 0.55386 0.0
H1548 H 0.09959 0.31601 0.73998 0.0
H1549 H 0.11386 0.34591 0.69605 0.0
C1550 C 0.12501 0.35521 0.57472 0.0
C1551 C 0.13076 0.3582 0.51062 0.0
C1552 C 0.11604 0.33796 0.59952 0.0
C1553 C 0.1271 0.34372 0.47112 0.0
C1554 C 0.11782 0.3265 0.49498 0.0
C1555 C 0.10353 0.3062 0.58435 0.0
C1556 C 0.09909 0.30342 0.64974 0.0
C1557 C 0.1123 0.32345 0.55923 0.0
C1558 C 0.1029 0.31791 0.68933 0.0
C1559 C 0.11108 0.33499 0.66433 0.0
H1560 H 0.02374 0.5665 0.85619 0.0
H1561 H 0.05188 0.58096 0.67614 0.0
H1562 H 0.02385 0.56713 0.61741 0.0
H1563 H 0.99131 0.55066 0.61775 0.0
H1564 H 0.96331 0.53854 0.79792 0.0
H1565 H 0.99132 0.55176 0.85653 0.0
C1566 C 0.02369 0.5666 0.80407 0.0
C1567 C 0.03976 0.57458 0.77032 0.0
C1568 C 0.00758 0.55907 0.77092 0.0
C1569 C 0.03962 0.5749 0.70294 0.0
C1570 C 0.02362 0.56697 0.66947 0.0
C1571 C 0.9914 0.55094 0.66986 0.0
C1572 C 0.97535 0.54357 0.7037 0.0
C1573 C 0.00753 0.55897 0.70299 0.0
C1574 C 0.97554 0.5442 0.77105 0.0
C1575 C 0.99152 0.55169 0.80447 0.0
H1576 H 0.43006 0.46286 0.72154 0.0
H1577 H 0.44632 0.45827 0.91265 0.0
H1578 H 0.4596 0.44146 0.87135 0.0
H1579 H 0.46794 0.42919 0.77984 0.0
H1580 H 0.45393 0.43611 0.58793 0.0
H1581 H 0.43839 0.45064 0.63019 0.0
C1582 C 0.43638 0.45804 0.75405 0.0
C1583 C 0.43718 0.46177 0.81995 0.0
C1584 C 0.44444 0.44877 0.72972 0.0
C1585 C 0.4456 0.45562 0.86156 0.0
C1586 C 0.45318 0.44597 0.83804 0.0
C1587 C 0.46127 0.43369 0.74758 0.0
C1588 C 0.46195 0.4315 0.68104 0.0
C1589 C 0.45286 0.44261 0.7721 0.0
C1590 C 0.45356 0.43766 0.63945 0.0
C1591 C 0.44469 0.44599 0.66353 0.0
H1592 H 0.5497 0.98675 0.88469 0.0
H1593 H 0.53657 0.95805 0.70596 0.0
H1594 H 0.54966 0.98585 0.64589 0.0
H1595 H 0.56478 0.01837 0.64439 0.0
H1596 H 0.58039 0.04712 0.82295 0.0
H1597 H 0.56643 0.01931 0.88313 0.0
C1598 C 0.54974 0.98663 0.83258 0.0
C1599 C 0.54213 0.97043 0.79965 0.0
C1600 C 0.55772 1.00266 0.7985 0.0
C1601 C 0.54242 0.97039 0.73223 0.0
C1602 C 0.54985 0.98626 0.69793 0.0
C1603 C 0.56508 0.0185 0.6965 0.0
C1604 C 0.57345 0.03471 0.72937 0.0
C1605 C 0.55751 1.00247 0.73056 0.0
C1606 C 0.57402 0.03477 0.79676 0.0
C1607 C 0.56602 0.01889 0.8311 0.0
H1608 H 0.46345 0.02349 0.13791 0.0
H1609 H 0.47246 0.05108 0.31795 0.0
H1610 H 0.45961 0.023 0.37622 0.0
H1611 H 0.44604 0.99062 0.37566 0.0
H1612 H 0.43484 0.96289 0.19515 0.0
H1613 H 0.44834 0.99102 0.13702 0.0
C1614 C 0.46257 0.02332 0.18993 0.0
C1615 C 0.46895 0.03927 0.22378 0.0
C1616 C 0.45482 0.00713 0.22279 0.0
C1617 C 0.46756 0.03893 0.29099 0.0
C1618 C 0.46029 0.0229 0.32424 0.0
C1619 C 0.44661 0.99078 0.32358 0.0
C1620 C 0.43963 0.97479 0.28956 0.0
C1621 C 0.45393 0.00694 0.29063 0.0
C1622 C 0.44015 0.97508 0.22219 0.0
C1623 C 0.44787 0.99113 0.18905 0.0
H1624 H 0.02374 0.45788 0.35708 0.0
H1625 H 0.05193 0.47211 0.17713 0.0
H1626 H 0.02393 0.45912 0.11836 0.0
H1627 H 0.9914 0.44413 0.1186 0.0
H1628 H 0.96326 0.42775 0.29842 0.0
H1629 H 0.99126 0.44116 0.3571 0.0
C1630 C 0.02372 0.45808 0.30497 0.0
C1631 C 0.03982 0.46601 0.27133 0.0
C1632 C 0.0076 0.45025 0.27169 0.0
C1633 C 0.03967 0.46601 0.20391 0.0
C1634 C 0.02368 0.45866 0.1704 0.0
C1635 C 0.99144 0.44353 0.17065 0.0
C1636 C 0.97535 0.43513 0.20435 0.0
C1637 C 0.00757 0.45083 0.20382 0.0
C1638 C 0.97552 0.43415 0.27161 0.0
C1639 C 0.9915 0.44184 0.30509 0.0
H1640 H 0.56419 0.54999 0.12307 0.0
H1641 H 0.58456 0.54056 0.29808 0.0
H1642 H 0.57145 0.55489 0.36027 0.0
H1643 H 0.55347 0.56929 0.36493 0.0
H1644 H 0.53445 0.58018 0.18954 0.0
H1645 H 0.54787 0.56617 0.1271 0.0
C1646 C 0.56578 0.55111 0.17484 0.0
C1647 C 0.5752 0.54412 0.20614 0.0
C1648 C 0.55848 0.55963 0.21 0.0
C1649 C 0.57737 0.54586 0.27303 0.0
C1650 C 0.56985 0.554 0.30853 0.0
C1651 C 0.55234 0.56866 0.31297 0.0
C1652 C 0.54291 0.57564 0.28179 0.0
C1653 C 0.56028 0.56082 0.27755 0.0
C1654 C 0.54169 0.57493 0.21452 0.0
C1655 C 0.54929 0.56687 0.17891 0.0
loop_
_geom_bond_atom_site_label_1
_geom_bond_atom_site_label_2
_geom_bond_distance
_geom_bond_site_symmetry_2
_ccdc_geom_bond_type
Co0 O1 2.216 . S
Co0 O2 2.091 . S
Co0 O4 2.004 . S
Co0 O10 2.021 . S
Co0 O12 2.137 . S
Co0 O13 2.244 . S
O1 Co0 2.216 . S
O1 C8 1.247 . S
O2 Co0 2.091 . S
O2 C8 1.261 . S
C3 O12 1.247 . S
C3 O13 1.272 . S
O4 Co0 2.004 . S
O4 C9 1.259 . S
Co5 O6 2.061 . S
Co5 O11 2.052 . S
Co5 O13 2.135 . S
O6 Co5 2.061 . S
O6 C9 1.235 . S
C7 O10 1.238 . S
C7 O11 1.241 . S
C8 O1 1.247 . S
C8 O2 1.261 . S
C9 O4 1.259 . S
C9 O6 1.235 . S
O10 Co0 2.021 . S
O10 C7 1.238 . S
O11 Co5 2.052 . S
O11 C7 1.241 . S
O12 Co0 2.137 . S
O12 C3 1.247 . S
O13 Co0 2.244 . S
O13 C3 1.272 . S
O13 Co5 2.135 . S
Co14 O15 2.216 . S
Co14 O16 2.091 . S
Co14 O18 2.004 . S
Co14 O24 2.021 . S
Co14 O26 2.137 . S
Co14 O27 2.244 . S
O15 Co14 2.216 . S
O15 C22 1.247 . S
O16 Co14 2.091 . S
O16 C22 1.261 . S
C17 O26 1.247 . S
C17 O27 1.272 . S
O18 Co14 2.004 . S
O18 C23 1.259 . S
Co19 O20 2.061 . S
Co19 O25 2.052 . S
Co19 O27 2.135 . S
O20 Co19 2.061 . S
O20 C23 1.235 . S
C21 O24 1.238 . S
C21 O25 1.241 . S
C22 O15 1.247 . S
C22 O16 1.261 . S
C23 O18 1.259 . S
C23 O20 1.235 . S
O24 Co14 2.021 . S
O24 C21 1.238 . S
O25 Co19 2.052 . S
O25 C21 1.241 . S
O26 Co14 2.137 . S
O26 C17 1.247 . S
O27 Co14 2.244 . S
O27 C17 1.272 . S
O27 Co19 2.135 . S
Co28 O29 2.216 . S
Co28 O30 2.091 . S
Co28 O32 2.004 . S
Co28 O38 2.021 . S
Co28 O40 2.137 . S
Co28 O41 2.244 . S
O29 Co28 2.216 . S
O29 C36 1.247 . S
O30 Co28 2.091 . S
O30 C36 1.261 . S
C31 O40 1.247 . S
C31 O41 1.272 . S
O32 Co28 2.004 . S
O32 C37 1.259 . S
Co33 O34 2.061 . S
Co33 O39 2.052 . S
Co33 O41 2.135 . S
O34 Co33 2.061 . S
O34 C37 1.235 . S
C35 O38 1.238 . S
C35 O39 1.241 . S
C36 O29 1.247 . S
C36 O30 1.261 . S
C37 O32 1.259 . S
C37 O34 1.235 . S
O38 Co28 2.021 . S
O38 C35 1.238 . S
O39 Co33 2.052 . S
O39 C35 1.241 . S
O40 Co28 2.137 . S
O40 C31 1.247 . S
O41 Co28 2.244 . S
O41 C31 1.272 . S
O41 Co33 2.135 . S
Co42 O43 2.216 . S
Co42 O44 2.091 . S
Co42 O46 2.004 . S
Co42 O52 2.021 . S
Co42 O54 2.137 . S
Co42 O55 2.244 . S
O43 Co42 2.216 . S
O43 C50 1.247 . S
O44 Co42 2.091 . S
O44 C50 1.261 . S
C45 O54 1.247 . S
C45 O55 1.272 . S
O46 Co42 2.004 . S
O46 C51 1.259 . S
Co47 O48 2.061 . S
Co47 O53 2.052 . S
Co47 O55 2.135 . S
O48 Co47 2.061 . S
O48 C51 1.235 . S
C49 O52 1.238 . S
C49 O53 1.241 . S
C50 O43 1.247 . S
C50 O44 1.261 . S
C51 O46 1.259 . S
C51 O48 1.235 . S
O52 Co42 2.021 . S
O52 C49 1.238 . S
O53 Co47 2.052 . S
O53 C49 1.241 . S
O54 Co42 2.137 . S
O54 C45 1.247 . S
O55 Co42 2.244 . S
O55 C45 1.272 . S
O55 Co47 2.135 . S
Co56 O57 2.216 . S
Co56 O58 2.091 . S
Co56 O60 2.004 . S
Co56 O66 2.021 . S
Co56 O68 2.137 . S
Co56 O69 2.244 . S
O57 Co56 2.216 . S
O57 C64 1.247 . S
O58 Co56 2.091 . S
O58 C64 1.261 . S
C59 O68 1.247 . S
C59 O69 1.272 . S
O60 Co56 2.004 . S
O60 C65 1.259 . S
Co61 O62 2.061 . S
Co61 O67 2.052 . S
Co61 O69 2.135 . S
O62 Co61 2.061 . S
O62 C65 1.235 . S
C63 O66 1.238 . S
C63 O67 1.241 . S
C64 O57 1.247 . S
C64 O58 1.261 . S
C65 O60 1.259 . S
C65 O62 1.235 . S
O66 Co56 2.021 . S
O66 C63 1.238 . S
O67 Co61 2.052 . S
O67 C63 1.241 . S
O68 Co56 2.137 . S
O68 C59 1.247 . S
O69 Co56 2.244 . S
O69 C59 1.272 . S
O69 Co61 2.135 . S
Co70 O71 2.216 . S
Co70 O72 2.091 . S
Co70 O74 2.004 . S
Co70 O80 2.021 . S
Co70 O82 2.137 . S
Co70 O83 2.244 . S
O71 Co70 2.216 . S
O71 C78 1.247 . S
O72 Co70 2.091 . S
O72 C78 1.261 . S
C73 O82 1.247 . S
C73 O83 1.272 . S
O74 Co70 2.004 . S
O74 C79 1.259 . S
Co75 O76 2.061 . S
Co75 O81 2.052 . S
Co75 O83 2.135 . S
O76 Co75 2.061 . S
O76 C79 1.235 . S
C77 O80 1.238 . S
C77 O81 1.241 . S
C78 O71 1.247 . S
C78 O72 1.261 . S
C79 O74 1.259 . S
C79 O76 1.235 . S
O80 Co70 2.021 . S
O80 C77 1.238 . S
O81 Co75 2.052 . S
O81 C77 1.241 . S
O82 Co70 2.137 . S
O82 C73 1.247 . S
O83 Co70 2.244 . S
O83 C73 1.272 . S
O83 Co75 2.135 . S
Co84 O85 2.216 . S
Co84 O86 2.091 . S
Co84 O88 2.004 . S
Co84 O94 2.021 . S
Co84 O96 2.137 . S
Co84 O97 2.244 . S
O85 Co84 2.216 . S
O85 C92 1.247 . S
O86 Co84 2.091 . S
O86 C92 1.261 . S
C87 O96 1.247 . S
C87 O97 1.272 . S
O88 Co84 2.004 . S
O88 C93 1.259 . S
Co89 O90 2.061 . S
Co89 O95 2.052 . S
Co89 O97 2.135 . S
O90 Co89 2.061 . S
O90 C93 1.235 . S
C91 O94 1.238 . S
C91 O95 1.241 . S
C92 O85 1.247 . S
C92 O86 1.261 . S
C93 O88 1.259 . S
C93 O90 1.235 . S
O94 Co84 2.021 . S
O94 C91 1.238 . S
O95 Co89 2.052 . S
O95 C91 1.241 . S
O96 Co84 2.137 . S
O96 C87 1.247 . S
O97 Co84 2.244 . S
O97 C87 1.272 . S
O97 Co89 2.135 . S
Co98 O99 2.216 . S
Co98 O100 2.091 . S
Co98 O102 2.004 . S
Co98 O108 2.021 . S
Co98 O110 2.137 . S
Co98 O111 2.244 . S
O99 Co98 2.216 . S
O99 C106 1.247 . S
O100 Co98 2.091 . S
O100 C106 1.261 . S
C101 O110 1.247 . S
C101 O111 1.272 . S
O102 Co98 2.004 . S
O102 C107 1.259 . S
Co103 O104 2.061 . S
Co103 O109 2.052 . S
Co103 O111 2.135 . S
O104 Co103 2.061 . S
O104 C107 1.235 . S
C105 O108 1.238 . S
C105 O109 1.241 . S
C106 O99 1.247 . S
C106 O100 1.261 . S
C107 O102 1.259 . S
C107 O104 1.235 . S
O108 Co98 2.021 . S
O108 C105 1.238 . S
O109 Co103 2.052 . S
O109 C105 1.241 . S
O110 Co98 2.137 . S
O110 C101 1.247 . S
O111 Co98 2.244 . S
O111 C101 1.272 . S
O111 Co103 2.135 . S
Co112 O113 2.216 . S
Co112 O114 2.091 . S
Co112 O116 2.004 . S
Co112 O122 2.021 . S
Co112 O124 2.137 . S
Co112 O125 2.244 . S
O113 Co112 2.216 . S
O113 C120 1.247 . S
O114 Co112 2.091 . S
O114 C120 1.261 . S
C115 O124 1.247 . S
C115 O125 1.272 . S
O116 Co112 2.004 . S
O116 C121 1.259 . S
Co117 O118 2.061 . S
Co117 O123 2.052 . S
Co117 O125 2.135 . S
O118 Co117 2.061 . S
O118 C121 1.235 . S
C119 O122 1.238 . S
C119 O123 1.241 . S
C120 O113 1.247 . S
C120 O114 1.261 . S
C121 O116 1.259 . S
C121 O118 1.235 . S
O122 Co112 2.021 . S
O122 C119 1.238 . S
O123 Co117 2.052 . S
O123 C119 1.241 . S
O124 Co112 2.137 . S
O124 C115 1.247 . S
O125 Co112 2.244 . S
O125 C115 1.272 . S
O125 Co117 2.135 . S
Co126 O127 2.216 . S
Co126 O128 2.091 . S
Co126 O130 2.004 . S
Co126 O136 2.021 . S
Co126 O138 2.137 . S
Co126 O139 2.244 . S
O127 Co126 2.216 . S
O127 C134 1.247 . S
O128 Co126 2.091 . S
O128 C134 1.261 . S
C129 O138 1.247 . S
C129 O139 1.272 . S
O130 Co126 2.004 . S
O130 C135 1.259 . S
Co131 O132 2.061 . S
Co131 O137 2.052 . S
Co131 O139 2.135 . S
O132 Co131 2.061 . S
O132 C135 1.235 . S
C133 O136 1.238 . S
C133 O137 1.241 . S
C134 O127 1.247 . S
C134 O128 1.261 . S
C135 O130 1.259 . S
C135 O132 1.235 . S
O136 Co126 2.021 . S
O136 C133 1.238 . S
O137 Co131 2.052 . S
O137 C133 1.241 . S
O138 Co126 2.137 . S
O138 C129 1.247 . S
O139 Co126 2.244 . S
O139 C129 1.272 . S
O139 Co131 2.135 . S
Co140 O141 2.216 . S
Co140 O142 2.091 . S
Co140 O144 2.004 . S
Co140 O150 2.021 . S
Co140 O152 2.137 . S
Co140 O153 2.244 . S
O141 Co140 2.216 . S
O141 C148 1.247 . S
O142 Co140 2.091 . S
O142 C148 1.261 . S
C143 O152 1.247 . S
C143 O153 1.272 . S
O144 Co140 2.004 . S
O144 C149 1.259 . S
Co145 O146 2.061 . S
Co145 O151 2.052 . S
Co145 O153 2.135 . S
O146 Co145 2.061 . S
O146 C149 1.235 . S
C147 O150 1.238 . S
C147 O151 1.241 . S
C148 O141 1.247 . S
C148 O142 1.261 . S
C149 O144 1.259 . S
C149 O146 1.235 . S
O150 Co140 2.021 . S
O150 C147 1.238 . S
O151 Co145 2.052 . S
O151 C147 1.241 . S
O152 Co140 2.137 . S
O152 C143 1.247 . S
O153 Co140 2.244 . S
O153 C143 1.272 . S
O153 Co145 2.135 . S
Co154 O155 2.216 . S
Co154 O156 2.091 . S
Co154 O158 2.004 . S
Co154 O164 2.021 . S
Co154 O166 2.137 . S
Co154 O167 2.244 . S
O155 Co154 2.216 . S
O155 C162 1.247 . S
O156 Co154 2.091 . S
O156 C162 1.261 . S
C157 O166 1.247 . S
C157 O167 1.272 . S
O158 Co154 2.004 . S
O158 C163 1.259 . S
Co159 O160 2.061 . S
Co159 O165 2.052 . S
Co159 O167 2.135 . S
O160 Co159 2.061 . S
O160 C163 1.235 . S
C161 O164 1.238 . S
C161 O165 1.241 . S
C162 O155 1.247 . S
C162 O156 1.261 . S
C163 O158 1.259 . S
C163 O160 1.235 . S
O164 Co154 2.021 . S
O164 C161 1.238 . S
O165 Co159 2.052 . S
O165 C161 1.241 . S
O166 Co154 2.137 . S
O166 C157 1.247 . S
O167 Co154 2.244 . S
O167 C157 1.272 . S
O167 Co159 2.135 . S
Co168 O169 2.216 . S
Co168 O170 2.091 . S
Co168 O172 2.004 . S
Co168 O178 2.021 . S
Co168 O180 2.137 . S
Co168 O181 2.244 . S
O169 Co168 2.216 . S
O169 C176 1.247 . S
O170 Co168 2.091 . S
O170 C176 1.261 . S
C171 O180 1.247 . S
C171 O181 1.272 . S
O172 Co168 2.004 . S
O172 C177 1.259 . S
Co173 O174 2.061 . S
Co173 O179 2.052 . S
Co173 O181 2.135 . S
O174 Co173 2.061 . S
O174 C177 1.235 . S
C175 O178 1.238 . S
C175 O179 1.241 . S
C176 O169 1.247 . S
C176 O170 1.261 . S
C177 O172 1.259 . S
C177 O174 1.235 . S
O178 Co168 2.021 . S
O178 C175 1.238 . S
O179 Co173 2.052 . S
O179 C175 1.241 . S
O180 Co168 2.137 . S
O180 C171 1.247 . S
O181 Co168 2.244 . S
O181 C171 1.272 . S
O181 Co173 2.135 . S
Co182 O183 2.216 . S
Co182 O184 2.091 . S
Co182 O186 2.004 . S
Co182 O192 2.021 . S
Co182 O194 2.137 . S
Co182 O195 2.244 . S
O183 Co182 2.216 . S
O183 C190 1.247 . S
O184 Co182 2.091 . S
O184 C190 1.261 . S
C185 O194 1.247 . S
C185 O195 1.272 . S
O186 Co182 2.004 . S
O186 C191 1.259 . S
Co187 O188 2.061 . S
Co187 O193 2.052 . S
Co187 O195 2.135 . S
O188 Co187 2.061 . S
O188 C191 1.235 . S
C189 O192 1.238 . S
C189 O193 1.241 . S
C190 O183 1.247 . S
C190 O184 1.261 . S
C191 O186 1.259 . S
C191 O188 1.235 . S
O192 Co182 2.021 . S
O192 C189 1.238 . S
O193 Co187 2.052 . S
O193 C189 1.241 . S
O194 Co182 2.137 . S
O194 C185 1.247 . S
O195 Co182 2.244 . S
O195 C185 1.272 . S
O195 Co187 2.135 . S
Co196 O197 2.216 . S
Co196 O198 2.091 . S
Co196 O200 2.004 . S
Co196 O206 2.021 . S
Co196 O208 2.137 . S
Co196 O209 2.244 . S
O197 Co196 2.216 . S
O197 C204 1.247 . S
O198 Co196 2.091 . S
O198 C204 1.261 . S
C199 O208 1.247 . S
C199 O209 1.272 . S
O200 Co196 2.004 . S
O200 C205 1.259 . S
Co201 O202 2.061 . S
Co201 O207 2.052 . S
Co201 O209 2.135 . S
O202 Co201 2.061 . S
O202 C205 1.235 . S
C203 O206 1.238 . S
C203 O207 1.241 . S
C204 O197 1.247 . S
C204 O198 1.261 . S
C205 O200 1.259 . S
C205 O202 1.235 . S
O206 Co196 2.021 . S
O206 C203 1.238 . S
O207 Co201 2.052 . S
O207 C203 1.241 . S
O208 Co196 2.137 . S
O208 C199 1.247 . S
O209 Co196 2.244 . S
O209 C199 1.272 . S
O209 Co201 2.135 . S
Co210 O211 2.216 . S
Co210 O212 2.091 . S
Co210 O214 2.004 . S
Co210 O220 2.021 . S
Co210 O222 2.137 . S
Co210 O223 2.244 . S
O211 Co210 2.216 . S
O211 C218 1.247 . S
O212 Co210 2.091 . S
O212 C218 1.261 . S
C213 O222 1.247 . S
C213 O223 1.272 . S
O214 Co210 2.004 . S
O214 C219 1.259 . S
Co215 O216 2.061 . S
Co215 O221 2.052 . S
Co215 O223 2.135 . S
O216 Co215 2.061 . S
O216 C219 1.235 . S
C217 O220 1.238 . S
C217 O221 1.241 . S
C218 O211 1.247 . S
C218 O212 1.261 . S
C219 O214 1.259 . S
C219 O216 1.235 . S
O220 Co210 2.021 . S
O220 C217 1.238 . S
O221 Co215 2.052 . S
O221 C217 1.241 . S
O222 Co210 2.137 . S
O222 C213 1.247 . S
O223 Co210 2.244 . S
O223 C213 1.272 . S
O223 Co215 2.135 . S
Co224 O225 2.216 . S
Co224 O226 2.091 . S
Co224 O228 2.004 . S
Co224 O234 2.021 . S
Co224 O236 2.137 . S
Co224 O237 2.244 . S
O225 Co224 2.216 . S
O225 C232 1.247 . S
O226 Co224 2.091 . S
O226 C232 1.261 . S
C227 O236 1.247 . S
C227 O237 1.272 . S
O228 Co224 2.004 . S
O228 C233 1.259 . S
Co229 O230 2.061 . S
Co229 O235 2.052 . S
Co229 O237 2.135 . S
O230 Co229 2.061 . S
O230 C233 1.235 . S
C231 O234 1.238 . S
C231 O235 1.241 . S
C232 O225 1.247 . S
C232 O226 1.261 . S
C233 O228 1.259 . S
C233 O230 1.235 . S
O234 Co224 2.021 . S
O234 C231 1.238 . S
O235 Co229 2.052 . S
O235 C231 1.241 . S
O236 Co224 2.137 . S
O236 C227 1.247 . S
O237 Co224 2.244 . S
O237 C227 1.272 . S
O237 Co229 2.135 . S
Co238 O239 2.216 . S
Co238 O240 2.091 . S
Co238 O242 2.004 . S
Co238 O248 2.021 . S
Co238 O250 2.137 . S
Co238 O251 2.244 . S
O239 Co238 2.216 . S
O239 C246 1.247 . S
O240 Co238 2.091 . S
O240 C246 1.261 . S
C241 O250 1.247 . S
C241 O251 1.272 . S
O242 Co238 2.004 . S
O242 C247 1.259 . S
Co243 O244 2.061 . S
Co243 O249 2.052 . S
Co243 O251 2.135 . S
O244 Co243 2.061 . S
O244 C247 1.235 . S
C245 O248 1.238 . S
C245 O249 1.241 . S
C246 O239 1.247 . S
C246 O240 1.261 . S
C247 O242 1.259 . S
C247 O244 1.235 . S
O248 Co238 2.021 . S
O248 C245 1.238 . S
O249 Co243 2.052 . S
O249 C245 1.241 . S
O250 Co238 2.137 . S
O250 C241 1.247 . S
O251 Co238 2.244 . S
O251 C241 1.272 . S
O251 Co243 2.135 . S
Co252 O253 2.216 . S
Co252 O254 2.091 . S
Co252 O256 2.004 . S
Co252 O262 2.021 . S
Co252 O264 2.137 . S
Co252 O265 2.244 . S
O253 Co252 2.216 . S
O253 C260 1.247 . S
O254 Co252 2.091 . S
O254 C260 1.261 . S
C255 O264 1.247 . S
C255 O265 1.272 . S
O256 Co252 2.004 . S
O256 C261 1.259 . S
Co257 O258 2.061 . S
Co257 O263 2.052 . S
Co257 O265 2.135 . S
O258 Co257 2.061 . S
O258 C261 1.235 . S
C259 O262 1.238 . S
C259 O263 1.241 . S
C260 O253 1.247 . S
C260 O254 1.261 . S
C261 O256 1.259 . S
C261 O258 1.235 . S
O262 Co252 2.021 . S
O262 C259 1.238 . S
O263 Co257 2.052 . S
O263 C259 1.241 . S
O264 Co252 2.137 . S
O264 C255 1.247 . S
O265 Co252 2.244 . S
O265 C255 1.272 . S
O265 Co257 2.135 . S
Co266 O267 2.216 . S
Co266 O268 2.091 . S
Co266 O270 2.004 . S
Co266 O276 2.021 . S
Co266 O278 2.137 . S
Co266 O279 2.244 . S
O267 Co266 2.216 . S
O267 C274 1.247 . S
O268 Co266 2.091 . S
O268 C274 1.261 . S
C269 O278 1.247 . S
C269 O279 1.272 . S
O270 Co266 2.004 . S
O270 C275 1.259 . S
Co271 O272 2.061 . S
Co271 O277 2.052 . S
Co271 O279 2.135 . S
O272 Co271 2.061 . S
O272 C275 1.235 . S
C273 O276 1.238 . S
C273 O277 1.241 . S
C274 O267 1.247 . S
C274 O268 1.261 . S
C275 O270 1.259 . S
C275 O272 1.235 . S
O276 Co266 2.021 . S
O276 C273 1.238 . S
O277 Co271 2.052 . S
O277 C273 1.241 . S
O278 Co266 2.137 . S
O278 C269 1.247 . S
O279 Co266 2.244 . S
O279 C269 1.272 . S
O279 Co271 2.135 . S
Co280 O281 2.216 . S
Co280 O282 2.091 . S
Co280 O284 2.004 . S
Co280 O290 2.021 . S
Co280 O292 2.137 . S
Co280 O293 2.244 . S
O281 Co280 2.216 . S
O281 C288 1.247 . S
O282 Co280 2.091 . S
O282 C288 1.261 . S
C283 O292 1.247 . S
C283 O293 1.272 . S
O284 Co280 2.004 . S
O284 C289 1.259 . S
Co285 O286 2.061 . S
Co285 O291 2.052 . S
Co285 O293 2.135 . S
O286 Co285 2.061 . S
O286 C289 1.235 . S
C287 O290 1.238 . S
C287 O291 1.241 . S
C288 O281 1.247 . S
C288 O282 1.261 . S
C289 O284 1.259 . S
C289 O286 1.235 . S
O290 Co280 2.021 . S
O290 C287 1.238 . S
O291 Co285 2.052 . S
O291 C287 1.241 . S
O292 Co280 2.137 . S
O292 C283 1.247 . S
O293 Co280 2.244 . S
O293 C283 1.272 . S
O293 Co285 2.135 . S
Co294 O295 2.216 1_556 S
Co294 O296 2.091 . S
Co294 O298 2.004 . S
Co294 O304 2.021 1_556 S
Co294 O306 2.137 . S
Co294 O307 2.245 . S
O295 Co294 2.216 1_554 S
O295 C302 1.247 . S
O296 Co294 2.091 . S
O296 C302 1.261 1_556 S
C297 O306 1.247 . S
C297 O307 1.282 . S
O298 Co294 2.004 . S
O298 C303 1.259 . S
Co299 O300 2.061 1_554 S
Co299 O305 2.052 . S
Co299 O307 2.134 1_554 S
O300 Co299 2.061 1_556 S
O300 C303 1.235 . S
C301 O304 1.238 . S
C301 O305 1.241 . S
C302 O295 1.247 . S
C302 O296 1.261 1_554 S
C303 O298 1.259 . S
C303 O300 1.235 . S
O304 Co294 2.021 1_554 S
O304 C301 1.238 . S
O305 Co299 2.052 . S
O305 C301 1.241 . S
O306 Co294 2.137 . S
O306 C297 1.247 . S
O307 Co294 2.245 . S
O307 C297 1.282 . S
O307 Co299 2.134 1_556 S
Co308 O309 2.216 1_556 S
Co308 O310 2.091 . S
Co308 O312 2.004 . S
Co308 O318 2.021 1_556 S
Co308 O320 2.137 . S
Co308 O321 2.245 . S
O309 Co308 2.216 1_554 S
O309 C316 1.247 . S
O310 Co308 2.091 . S
O310 C316 1.261 1_556 S
C311 O320 1.247 . S
C311 O321 1.282 . S
O312 Co308 2.004 . S
O312 C317 1.259 . S
Co313 O314 2.061 1_554 S
Co313 O319 2.052 . S
Co313 O321 2.134 1_554 S
O314 Co313 2.061 1_556 S
O314 C317 1.235 . S
C315 O318 1.238 . S
C315 O319 1.241 . S
C316 O309 1.247 . S
C316 O310 1.261 1_554 S
C317 O312 1.259 . S
C317 O314 1.235 . S
O318 Co308 2.021 1_554 S
O318 C315 1.238 . S
O319 Co313 2.052 . S
O319 C315 1.241 . S
O320 Co308 2.137 . S
O320 C311 1.247 . S
O321 Co308 2.245 . S
O321 C311 1.282 . S
O321 Co313 2.134 1_556 S
Co322 O323 2.216 1_556 S
Co322 O324 2.091 . S
Co322 O326 2.004 . S
Co322 O332 2.021 1_556 S
Co322 O334 2.137 . S
Co322 O335 2.245 . S
O323 Co322 2.216 1_554 S
O323 C330 1.247 . S
O324 Co322 2.091 . S
O324 C330 1.261 1_556 S
C325 O334 1.247 . S
C325 O335 1.282 . S
O326 Co322 2.004 . S
O326 C331 1.259 . S
Co327 O328 2.061 1_554 S
Co327 O333 2.052 . S
Co327 O335 2.134 1_554 S
O328 Co327 2.061 1_556 S
O328 C331 1.235 . S
C329 O332 1.238 . S
C329 O333 1.241 . S
C330 O323 1.247 . S
C330 O324 1.261 1_554 S
C331 O326 1.259 . S
C331 O328 1.235 . S
O332 Co322 2.021 1_554 S
O332 C329 1.238 . S
O333 Co327 2.052 . S
O333 C329 1.241 . S
O334 Co322 2.137 . S
O334 C325 1.247 . S
O335 Co322 2.245 . S
O335 C325 1.282 . S
O335 Co327 2.134 1_556 S
Co336 O337 2.216 . S
Co336 O338 2.091 . S
Co336 O340 2.004 . S
Co336 O346 2.021 . S
Co336 O348 2.137 . S
Co336 O349 2.244 . S
O337 Co336 2.216 . S
O337 C344 1.247 . S
O338 Co336 2.091 . S
O338 C344 1.261 . S
C339 O348 1.247 . S
C339 O349 1.272 . S
O340 Co336 2.004 . S
O340 C345 1.259 . S
Co341 O342 2.061 . S
Co341 O347 2.052 . S
Co341 O349 2.135 . S
O342 Co341 2.061 . S
O342 C345 1.235 . S
C343 O346 1.238 . S
C343 O347 1.241 . S
C344 O337 1.247 . S
C344 O338 1.261 . S
C345 O340 1.259 . S
C345 O342 1.235 . S
O346 Co336 2.021 . S
O346 C343 1.238 . S
O347 Co341 2.052 . S
O347 C343 1.241 . S
O348 Co336 2.137 . S
O348 C339 1.247 . S
O349 Co336 2.244 . S
O349 C339 1.272 . S
O349 Co341 2.135 . S
Co350 O351 2.216 . S
Co350 O352 2.091 . S
Co350 O354 2.004 . S
Co350 O360 2.021 . S
Co350 O362 2.137 . S
Co350 O363 2.244 . S
O351 Co350 2.216 . S
O351 C358 1.247 . S
O352 Co350 2.091 . S
O352 C358 1.261 . S
C353 O362 1.247 . S
C353 O363 1.272 . S
O354 Co350 2.004 . S
O354 C359 1.259 . S
Co355 O356 2.061 . S
Co355 O361 2.052 . S
Co355 O363 2.135 . S
O356 Co355 2.061 . S
O356 C359 1.235 . S
C357 O360 1.238 . S
C357 O361 1.241 . S
C358 O351 1.247 . S
C358 O352 1.261 . S
C359 O354 1.259 . S
C359 O356 1.235 . S
O360 Co350 2.021 . S
O360 C357 1.238 . S
O361 Co355 2.052 . S
O361 C357 1.241 . S
O362 Co350 2.137 . S
O362 C353 1.247 . S
O363 Co350 2.244 . S
O363 C353 1.272 . S
O363 Co355 2.135 . S
Co364 O365 2.216 . S
Co364 O366 2.091 . S
Co364 O368 2.004 . S
Co364 O374 2.021 . S
Co364 O376 2.137 . S
Co364 O377 2.244 . S
O365 Co364 2.216 . S
O365 C372 1.247 . S
O366 Co364 2.091 . S
O366 C372 1.261 . S
C367 O376 1.247 . S
C367 O377 1.272 . S
O368 Co364 2.004 . S
O368 C373 1.259 . S
Co369 O370 2.061 . S
Co369 O375 2.052 . S
Co369 O377 2.135 . S
O370 Co369 2.061 . S
O370 C373 1.235 . S
C371 O374 1.238 . S
C371 O375 1.241 . S
C372 O365 1.247 . S
C372 O366 1.261 . S
C373 O368 1.259 . S
C373 O370 1.235 . S
O374 Co364 2.021 . S
O374 C371 1.238 . S
O375 Co369 2.052 . S
O375 C371 1.241 . S
O376 Co364 2.137 . S
O376 C367 1.247 . S
O377 Co364 2.244 . S
O377 C367 1.272 . S
O377 Co369 2.135 . S
Co378 O379 2.216 1_554 S
Co378 O380 2.091 . S
Co378 O382 2.004 . S
Co378 O388 2.021 1_554 S
Co378 O390 2.137 . S
Co378 O391 2.245 . S
O379 Co378 2.216 1_556 S
O379 C386 1.247 . S
O380 Co378 2.091 . S
O380 C386 1.261 1_554 S
C381 O390 1.247 . S
C381 O391 1.282 . S
O382 Co378 2.004 . S
O382 C387 1.259 . S
Co383 O384 2.061 1_556 S
Co383 O389 2.052 . S
Co383 O391 2.134 1_556 S
O384 Co383 2.061 1_554 S
O384 C387 1.235 . S
C385 O388 1.238 . S
C385 O389 1.241 . S
C386 O379 1.247 . S
C386 O380 1.261 1_556 S
C387 O382 1.259 . S
C387 O384 1.235 . S
O388 Co378 2.021 1_556 S
O388 C385 1.238 . S
O389 Co383 2.052 . S
O389 C385 1.241 . S
O390 Co378 2.137 . S
O390 C381 1.247 . S
O391 Co378 2.245 . S
O391 C381 1.282 . S
O391 Co383 2.134 1_554 S
Co392 O393 2.216 1_554 S
Co392 O394 2.091 . S
Co392 O396 2.004 . S
Co392 O402 2.021 1_554 S
Co392 O404 2.137 . S
Co392 O405 2.245 . S
O393 Co392 2.216 1_556 S
O393 C400 1.247 . S
O394 Co392 2.091 . S
O394 C400 1.261 1_554 S
C395 O404 1.247 . S
C395 O405 1.282 . S
O396 Co392 2.004 . S
O396 C401 1.259 . S
Co397 O398 2.061 1_556 S
Co397 O403 2.052 . S
Co397 O405 2.134 1_556 S
O398 Co397 2.061 1_554 S
O398 C401 1.235 . S
C399 O402 1.238 . S
C399 O403 1.241 . S
C400 O393 1.247 . S
C400 O394 1.261 1_556 S
C401 O396 1.259 . S
C401 O398 1.235 . S
O402 Co392 2.021 1_556 S
O402 C399 1.238 . S
O403 Co397 2.052 . S
O403 C399 1.241 . S
O404 Co392 2.137 . S
O404 C395 1.247 . S
O405 Co392 2.245 . S
O405 C395 1.282 . S
O405 Co397 2.134 1_554 S
Co406 O407 2.216 1_554 S
Co406 O408 2.091 . S
Co406 O410 2.004 . S
Co406 O416 2.021 1_554 S
Co406 O418 2.137 . S
Co406 O419 2.245 . S
O407 Co406 2.216 1_556 S
O407 C414 1.247 . S
O408 Co406 2.091 . S
O408 C414 1.261 1_554 S
C409 O418 1.247 . S
C409 O419 1.282 . S
O410 Co406 2.004 . S
O410 C415 1.259 . S
Co411 O412 2.061 1_556 S
Co411 O417 2.052 . S
Co411 O419 2.134 1_556 S
O412 Co411 2.061 1_554 S
O412 C415 1.235 . S
C413 O416 1.238 . S
C413 O417 1.241 . S
C414 O407 1.247 . S
C414 O408 1.261 1_556 S
C415 O410 1.259 . S
C415 O412 1.235 . S
O416 Co406 2.021 1_556 S
O416 C413 1.238 . S
O417 Co411 2.052 . S
O417 C413 1.241 . S
O418 Co406 2.137 . S
O418 C409 1.247 . S
O419 Co406 2.245 . S
O419 C409 1.282 . S
O419 Co411 2.134 1_554 S
Co420 O421 2.216 . S
Co420 O422 2.091 . S
Co420 O424 2.004 . S
Co420 O430 2.021 . S
Co420 O432 2.137 . S
Co420 O433 2.244 . S
O421 Co420 2.216 . S
O421 C428 1.247 . S
O422 Co420 2.091 . S
O422 C428 1.261 . S
C423 O432 1.247 . S
C423 O433 1.272 . S
O424 Co420 2.004 . S
O424 C429 1.259 . S
Co425 O426 2.061 . S
Co425 O431 2.052 . S
Co425 O433 2.135 . S
O426 Co425 2.061 . S
O426 C429 1.235 . S
C427 O430 1.238 . S
C427 O431 1.241 . S
C428 O421 1.247 . S
C428 O422 1.261 . S
C429 O424 1.259 . S
C429 O426 1.235 . S
O430 Co420 2.021 . S
O430 C427 1.238 . S
O431 Co425 2.052 . S
O431 C427 1.241 . S
O432 Co420 2.137 . S
O432 C423 1.247 . S
O433 Co420 2.244 . S
O433 C423 1.272 . S
O433 Co425 2.135 . S
Co434 O435 2.216 . S
Co434 O436 2.091 . S
Co434 O438 2.004 . S
Co434 O444 2.021 . S
Co434 O446 2.137 . S
Co434 O447 2.244 . S
O435 Co434 2.216 . S
O435 C442 1.247 . S
O436 Co434 2.091 . S
O436 C442 1.261 . S
C437 O446 1.247 . S
C437 O447 1.272 . S
O438 Co434 2.004 . S
O438 C443 1.259 . S
Co439 O440 2.061 . S
Co439 O445 2.052 . S
Co439 O447 2.135 . S
O440 Co439 2.061 . S
O440 C443 1.235 . S
C441 O444 1.238 . S
C441 O445 1.241 . S
C442 O435 1.247 . S
C442 O436 1.261 . S
C443 O438 1.259 . S
C443 O440 1.235 . S
O444 Co434 2.021 . S
O444 C441 1.238 . S
O445 Co439 2.052 . S
O445 C441 1.241 . S
O446 Co434 2.137 . S
O446 C437 1.247 . S
O447 Co434 2.244 . S
O447 C437 1.272 . S
O447 Co439 2.135 . S
Co448 O449 2.216 . S
Co448 O450 2.091 . S
Co448 O452 2.004 . S
Co448 O458 2.021 . S
Co448 O460 2.137 . S
Co448 O461 2.244 . S
O449 Co448 2.216 . S
O449 C456 1.247 . S
O450 Co448 2.091 . S
O450 C456 1.261 . S
C451 O460 1.247 . S
C451 O461 1.272 . S
O452 Co448 2.004 . S
O452 C457 1.259 . S
Co453 O454 2.061 . S
Co453 O459 2.052 . S
Co453 O461 2.135 . S
O454 Co453 2.061 . S
O454 C457 1.235 . S
C455 O458 1.238 . S
C455 O459 1.241 . S
C456 O449 1.247 . S
C456 O450 1.261 . S
C457 O452 1.259 . S
C457 O454 1.235 . S
O458 Co448 2.021 . S
O458 C455 1.238 . S
O459 Co453 2.052 . S
O459 C455 1.241 . S
O460 Co448 2.137 . S
O460 C451 1.247 . S
O461 Co448 2.244 . S
O461 C451 1.272 . S
O461 Co453 2.135 . S
Co462 O463 2.216 . S
Co462 O464 2.091 . S
Co462 O466 2.004 . S
Co462 O472 2.021 . S
Co462 O474 2.137 . S
Co462 O475 2.244 . S
O463 Co462 2.216 . S
O463 C470 1.247 . S
O464 Co462 2.091 . S
O464 C470 1.261 . S
C465 O474 1.247 . S
C465 O475 1.272 . S
O466 Co462 2.004 . S
O466 C471 1.259 . S
Co467 O468 2.061 . S
Co467 O473 2.052 . S
Co467 O475 2.135 . S
O468 Co467 2.061 . S
O468 C471 1.235 . S
C469 O472 1.238 . S
C469 O473 1.241 . S
C470 O463 1.247 . S
C470 O464 1.261 . S
C471 O466 1.259 . S
C471 O468 1.235 . S
O472 Co462 2.021 . S
O472 C469 1.238 . S
O473 Co467 2.052 . S
O473 C469 1.241 . S
O474 Co462 2.137 . S
O474 C465 1.247 . S
O475 Co462 2.244 . S
O475 C465 1.272 . S
O475 Co467 2.135 . S
Co476 O477 2.216 . S
Co476 O478 2.091 . S
Co476 O480 2.004 . S
Co476 O486 2.021 . S
Co476 O488 2.137 . S
Co476 O489 2.244 . S
O477 Co476 2.216 . S
O477 C484 1.247 . S
O478 Co476 2.091 . S
O478 C484 1.261 . S
C479 O488 1.247 . S
C479 O489 1.272 . S
O480 Co476 2.004 . S
O480 C485 1.259 . S
Co481 O482 2.061 . S
Co481 O487 2.052 . S
Co481 O489 2.135 . S
O482 Co481 2.061 . S
O482 C485 1.235 . S
C483 O486 1.238 . S
C483 O487 1.241 . S
C484 O477 1.247 . S
C484 O478 1.261 . S
C485 O480 1.259 . S
C485 O482 1.235 . S
O486 Co476 2.021 . S
O486 C483 1.238 . S
O487 Co481 2.052 . S
O487 C483 1.241 . S
O488 Co476 2.137 . S
O488 C479 1.247 . S
O489 Co476 2.244 . S
O489 C479 1.272 . S
O489 Co481 2.135 . S
Co490 O491 2.216 . S
Co490 O492 2.091 . S
Co490 O494 2.004 . S
Co490 O500 2.021 . S
Co490 O502 2.137 . S
Co490 O503 2.244 . S
O491 Co490 2.216 . S
O491 C498 1.247 . S
O492 Co490 2.091 . S
O492 C498 1.261 . S
C493 O502 1.247 . S
C493 O503 1.272 . S
O494 Co490 2.004 . S
O494 C499 1.259 . S
Co495 O496 2.061 . S
Co495 O501 2.052 . S
Co495 O503 2.135 . S
O496 Co495 2.061 . S
O496 C499 1.235 . S
C497 O500 1.238 . S
C497 O501 1.241 . S
C498 O491 1.247 . S
C498 O492 1.261 . S
C499 O494 1.259 . S
C499 O496 1.235 . S
O500 Co490 2.021 . S
O500 C497 1.238 . S
O501 Co495 2.052 . S
O501 C497 1.241 . S
O502 Co490 2.137 . S
O502 C493 1.247 . S
O503 Co490 2.244 . S
O503 C493 1.272 . S
O503 Co495 2.135 . S
H504 C510 0.930 . S
H505 C513 0.930 . S
H506 C514 0.930 . S
H507 C515 0.930 . S
H508 C518 0.930 . S
H509 C519 0.930 . S
C510 H504 0.930 . S
C510 C511 1.355 . S
C510 C512 1.415 . S
C511 C510 1.355 . S
C511 C513 1.419 . S
C512 C510 1.415 . S
C512 C517 1.425 . S
C512 C519 1.409 . S
C513 H505 0.930 . S
C513 C511 1.419 . S
C513 C514 1.362 . S
C514 H506 0.930 . S
C514 C513 1.362 . S
C514 C517 1.409 . S
C515 H507 0.930 . S
C515 C516 1.355 . S
C515 C517 1.415 . S
C516 C515 1.355 . S
C516 C518 1.419 . S
C517 C512 1.425 . S
C517 C514 1.409 . S
C517 C515 1.415 . S
C518 H508 0.930 . S
C518 C516 1.419 . S
C518 C519 1.362 . S
C519 H509 0.930 . S
C519 C512 1.409 . S
C519 C518 1.362 . S
H520 C526 0.930 . S
H521 C529 0.930 . S
H522 C530 0.930 1_565 S
H523 C531 0.930 . S
H524 C534 0.930 . S
H525 C535 0.930 1_545 S
C526 H520 0.930 . S
C526 C527 1.355 . S
C526 C528 1.415 . S
C527 C526 1.355 . S
C527 C529 1.419 . S
C528 C526 1.415 . S
C528 C533 1.425 1_545 S
C528 C535 1.409 1_545 S
C529 H521 0.930 . S
C529 C527 1.419 . S
C529 C530 1.362 . S
C530 H522 0.930 1_545 S
C530 C529 1.362 . S
C530 C533 1.409 1_545 S
C531 H523 0.930 . S
C531 C532 1.355 . S
C531 C533 1.415 . S
C532 C531 1.355 . S
C532 C534 1.419 . S
C533 C528 1.425 1_565 S
C533 C530 1.409 1_565 S
C533 C531 1.415 . S
C534 H524 0.930 . S
C534 C532 1.419 . S
C534 C535 1.362 . S
C535 H525 0.930 1_565 S
C535 C528 1.409 1_565 S
C535 C534 1.362 . S
H536 C542 0.930 . S
H537 C545 0.930 . S
H538 C546 0.930 1_455 S
H539 C547 0.930 . S
H540 C550 0.930 . S
H541 C551 0.930 1_655 S
C542 H536 0.930 . S
C542 C543 1.355 . S
C542 C544 1.415 . S
C543 C542 1.355 . S
C543 C545 1.419 . S
C544 C542 1.415 . S
C544 C549 1.425 1_655 S
C544 C551 1.409 1_655 S
C545 H537 0.930 . S
C545 C543 1.419 . S
C545 C546 1.362 . S
C546 H538 0.930 1_655 S
C546 C545 1.362 . S
C546 C549 1.409 1_655 S
C547 H539 0.930 . S
C547 C548 1.355 . S
C547 C549 1.415 . S
C548 C547 1.355 . S
C548 C550 1.419 . S
C549 C544 1.425 1_455 S
C549 C546 1.409 1_455 S
C549 C547 1.415 . S
C550 H540 0.930 . S
C550 C548 1.419 . S
C550 C551 1.362 . S
C551 H541 0.930 1_455 S
C551 C544 1.409 1_455 S
C551 C550 1.362 . S
H552 C558 0.930 . S
H553 C561 0.930 . S
H554 C562 0.930 . S
H555 C563 0.930 . S
H556 C566 0.930 . S
H557 C567 0.930 . S
C558 H552 0.930 . S
C558 C559 1.355 . S
C558 C560 1.415 . S
C559 C558 1.355 . S
C559 C561 1.419 . S
C560 C558 1.415 . S
C560 C565 1.425 . S
C560 C567 1.409 . S
C561 H553 0.930 . S
C561 C559 1.419 . S
C561 C562 1.362 . S
C562 H554 0.930 . S
C562 C561 1.362 . S
C562 C565 1.409 . S
C563 H555 0.930 . S
C563 C564 1.355 . S
C563 C565 1.415 . S
C564 C563 1.355 . S
C564 C566 1.419 . S
C565 C560 1.425 . S
C565 C562 1.409 . S
C565 C563 1.415 . S
C566 H556 0.930 . S
C566 C564 1.419 . S
C566 C567 1.362 . S
C567 H557 0.930 . S
C567 C560 1.409 . S
C567 C566 1.362 . S
H568 C574 0.930 . S
H569 C577 0.930 . S
H570 C578 0.930 1_565 S
H571 C579 0.930 . S
H572 C582 0.930 . S
H573 C583 0.930 1_545 S
C574 H568 0.930 . S
C574 C575 1.355 . S
C574 C576 1.415 . S
C575 C574 1.355 . S
C575 C577 1.419 . S
C576 C574 1.415 . S
C576 C581 1.425 1_545 S
C576 C583 1.409 1_545 S
C577 H569 0.930 . S
C577 C575 1.419 . S
C577 C578 1.362 . S
C578 H570 0.930 1_545 S
C578 C577 1.362 . S
C578 C581 1.409 1_545 S
C579 H571 0.930 . S
C579 C580 1.355 . S
C579 C581 1.415 . S
C580 C579 1.355 . S
C580 C582 1.419 . S
C581 C576 1.425 1_565 S
C581 C578 1.409 1_565 S
C581 C579 1.415 . S
C582 H572 0.930 . S
C582 C580 1.419 . S
C582 C583 1.362 . S
C583 H573 0.930 1_565 S
C583 C576 1.409 1_565 S
C583 C582 1.362 . S
H584 C590 0.930 . S
H585 C593 0.930 . S
H586 C594 0.930 . S
H587 C595 0.930 . S
H588 C598 0.930 . S
H589 C599 0.930 . S
C590 H584 0.930 . S
C590 C591 1.355 . S
C590 C592 1.415 . S
C591 C590 1.355 . S
C591 C593 1.419 . S
C592 C590 1.415 . S
C592 C597 1.425 1_455 S
C592 C599 1.409 1_455 S
C593 H585 0.930 . S
C593 C591 1.419 . S
C593 C594 1.362 . S
C594 H586 0.930 . S
C594 C593 1.362 . S
C594 C597 1.409 1_455 S
C595 H587 0.930 . S
C595 C596 1.355 . S
C595 C597 1.415 . S
C596 C595 1.355 . S
C596 C598 1.419 . S
C597 C592 1.425 1_655 S
C597 C594 1.409 1_655 S
C597 C595 1.415 . S
C598 H588 0.930 . S
C598 C596 1.419 . S
C598 C599 1.362 . S
C599 H589 0.930 . S
C599 C592 1.409 1_655 S
C599 C598 1.362 . S
H600 C606 0.930 . S
H601 C609 0.930 . S
H602 C610 0.930 . S
H603 C611 0.930 . S
H604 C614 0.930 . S
H605 C615 0.930 . S
C606 H600 0.930 . S
C606 C607 1.355 . S
C606 C608 1.415 . S
C607 C606 1.355 . S
C607 C609 1.419 . S
C608 C606 1.415 . S
C608 C613 1.425 . S
C608 C615 1.409 . S
C609 H601 0.930 . S
C609 C607 1.419 . S
C609 C610 1.362 . S
C610 H602 0.930 . S
C610 C609 1.362 . S
C610 C613 1.409 . S
C611 H603 0.930 . S
C611 C612 1.355 . S
C611 C613 1.415 . S
C612 C611 1.355 . S
C612 C614 1.419 . S
C613 C608 1.425 . S
C613 C610 1.409 . S
C613 C611 1.415 . S
C614 H604 0.930 . S
C614 C612 1.419 . S
C614 C615 1.362 . S
C615 H605 0.930 . S
C615 C608 1.409 . S
C615 C614 1.362 . S
H616 C622 0.930 . S
H617 C625 0.930 . S
H618 C626 0.930 . S
H619 C627 0.930 . S
H620 C630 0.930 . S
H621 C631 0.930 . S
C622 H616 0.930 . S
C622 C623 1.355 . S
C622 C624 1.415 . S
C623 C622 1.355 . S
C623 C625 1.419 . S
C624 C622 1.415 . S
C624 C629 1.425 . S
C624 C631 1.409 . S
C625 H617 0.930 . S
C625 C623 1.419 . S
C625 C626 1.362 . S
C626 H618 0.930 . S
C626 C625 1.362 . S
C626 C629 1.409 . S
C627 H619 0.930 . S
C627 C628 1.355 . S
C627 C629 1.415 . S
C628 C627 1.355 . S
C628 C630 1.419 . S
C629 C624 1.425 . S
C629 C626 1.409 . S
C629 C627 1.415 . S
C630 H620 0.930 . S
C630 C628 1.419 . S
C630 C631 1.362 . S
C631 H621 0.930 . S
C631 C624 1.409 . S
C631 C630 1.362 . S
H632 C638 0.930 . S
H633 C641 0.930 . S
H634 C642 0.930 . S
H635 C643 0.930 . S
H636 C646 0.930 . S
H637 C647 0.930 . S
C638 H632 0.930 . S
C638 C639 1.355 . S
C638 C640 1.415 . S
C639 C638 1.355 . S
C639 C641 1.419 . S
C640 C638 1.415 . S
C640 C645 1.425 . S
C640 C647 1.409 . S
C641 H633 0.930 . S
C641 C639 1.419 . S
C641 C642 1.362 . S
C642 H634 0.930 . S
C642 C641 1.362 . S
C642 C645 1.409 . S
C643 H635 0.930 . S
C643 C644 1.355 . S
C643 C645 1.415 . S
C644 C643 1.355 . S
C644 C646 1.419 . S
C645 C640 1.425 . S
C645 C642 1.409 . S
C645 C643 1.415 . S
C646 H636 0.930 . S
C646 C644 1.419 . S
C646 C647 1.362 . S
C647 H637 0.930 . S
C647 C640 1.409 . S
C647 C646 1.362 . S
H648 C654 0.930 . S
H649 C657 0.930 . S
H650 C658 0.930 . S
H651 C659 0.930 . S
H652 C662 0.930 . S
H653 C663 0.930 . S
C654 H648 0.930 . S
C654 C655 1.355 . S
C654 C656 1.415 . S
C655 C654 1.355 . S
C655 C657 1.419 . S
C656 C654 1.415 . S
C656 C661 1.425 . S
C656 C663 1.409 . S
C657 H649 0.930 . S
C657 C655 1.419 . S
C657 C658 1.362 . S
C658 H650 0.930 . S
C658 C657 1.362 . S
C658 C661 1.409 . S
C659 H651 0.930 . S
C659 C660 1.355 . S
C659 C661 1.415 . S
C660 C659 1.355 . S
C660 C662 1.419 . S
C661 C656 1.425 . S
C661 C658 1.409 . S
C661 C659 1.415 . S
C662 H652 0.930 . S
C662 C660 1.419 . S
C662 C663 1.362 . S
C663 H653 0.930 . S
C663 C656 1.409 . S
C663 C662 1.362 . S
H664 C670 0.930 . S
H665 C673 0.930 . S
H666 C674 0.930 . S
H667 C675 0.930 . S
H668 C678 0.930 . S
H669 C679 0.930 . S
C670 H664 0.930 . S
C670 C671 1.355 . S
C670 C672 1.415 . S
C671 C670 1.355 . S
C671 C673 1.419 . S
C672 C670 1.415 . S
C672 C677 1.425 . S
C672 C679 1.409 . S
C673 H665 0.930 . S
C673 C671 1.419 . S
C673 C674 1.362 . S
C674 H666 0.930 . S
C674 C673 1.362 . S
C674 C677 1.409 . S
C675 H667 0.930 . S
C675 C676 1.355 . S
C675 C677 1.415 . S
C676 C675 1.355 . S
C676 C678 1.419 . S
C677 C672 1.425 . S
C677 C674 1.409 . S
C677 C675 1.415 . S
C678 H668 0.930 . S
C678 C676 1.419 . S
C678 C679 1.362 . S
C679 H669 0.930 . S
C679 C672 1.409 . S
C679 C678 1.362 . S
H680 C686 0.930 . S
H681 C689 0.930 . S
H682 C690 0.930 . S
H683 C691 0.930 . S
H684 C694 0.930 . S
H685 C695 0.930 . S
C686 H680 0.930 . S
C686 C687 1.355 . S
C686 C688 1.415 . S
C687 C686 1.355 . S
C687 C689 1.419 . S
C688 C686 1.415 . S
C688 C693 1.425 . S
C688 C695 1.409 . S
C689 H681 0.930 . S
C689 C687 1.419 . S
C689 C690 1.362 . S
C690 H682 0.930 . S
C690 C689 1.362 . S
C690 C693 1.409 . S
C691 H683 0.930 . S
C691 C692 1.355 . S
C691 C693 1.415 . S
C692 C691 1.355 . S
C692 C694 1.419 . S
C693 C688 1.425 . S
C693 C690 1.409 . S
C693 C691 1.415 . S
C694 H684 0.930 . S
C694 C692 1.419 . S
C694 C695 1.362 . S
C695 H685 0.930 . S
C695 C688 1.409 . S
C695 C694 1.362 . S
H696 C702 0.930 . S
H697 C705 0.930 . S
H698 C706 0.930 . S
H699 C707 0.930 . S
H700 C710 0.930 1_554 S
H701 C711 0.930 . S
C702 H696 0.930 . S
C702 C703 1.355 . S
C702 C704 1.415 . S
C703 C702 1.355 . S
C703 C705 1.419 . S
C704 C702 1.415 . S
C704 C709 1.425 . S
C704 C711 1.409 . S
C705 H697 0.930 . S
C705 C703 1.419 . S
C705 C706 1.362 . S
C706 H698 0.930 . S
C706 C705 1.362 . S
C706 C709 1.409 . S
C707 H699 0.930 . S
C707 C708 1.355 . S
C707 C709 1.415 . S
C708 C707 1.355 . S
C708 C710 1.419 . S
C709 C704 1.425 . S
C709 C706 1.409 . S
C709 C707 1.415 . S
C710 H700 0.930 1_556 S
C710 C708 1.419 . S
C710 C711 1.362 . S
C711 H701 0.930 . S
C711 C704 1.409 . S
C711 C710 1.362 . S
H712 C718 0.930 . S
H713 C721 0.930 . S
H714 C722 0.930 . S
H715 C723 0.930 . S
H716 C726 0.930 . S
H717 C727 0.930 1_554 S
C718 H712 0.930 . S
C718 C719 1.355 . S
C718 C720 1.415 . S
C719 C718 1.355 . S
C719 C721 1.419 . S
C720 C718 1.415 . S
C720 C725 1.425 . S
C720 C727 1.409 . S
C721 H713 0.930 . S
C721 C719 1.419 . S
C721 C722 1.362 . S
C722 H714 0.930 . S
C722 C721 1.362 . S
C722 C725 1.409 . S
C723 H715 0.930 . S
C723 C724 1.355 . S
C723 C725 1.415 . S
C724 C723 1.355 . S
C724 C726 1.419 1_556 S
C725 C720 1.425 . S
C725 C722 1.409 . S
C725 C723 1.415 . S
C726 H716 0.930 . S
C726 C724 1.419 1_554 S
C726 C727 1.362 1_554 S
C727 H717 0.930 1_556 S
C727 C720 1.409 . S
C727 C726 1.362 1_556 S
H728 C734 0.930 . S
H729 C737 0.930 . S
H730 C738 0.930 . S
H731 C739 0.930 . S
H732 C742 0.930 . S
H733 C743 0.930 . S
C734 H728 0.930 . S
C734 C735 1.355 . S
C734 C736 1.415 . S
C735 C734 1.355 . S
C735 C737 1.419 . S
C736 C734 1.415 . S
C736 C741 1.425 . S
C736 C743 1.409 . S
C737 H729 0.930 . S
C737 C735 1.419 . S
C737 C738 1.362 . S
C738 H730 0.930 . S
C738 C737 1.362 . S
C738 C741 1.409 . S
C739 H731 0.930 . S
C739 C740 1.355 . S
C739 C741 1.415 . S
C740 C739 1.355 . S
C740 C742 1.419 . S
C741 C736 1.425 . S
C741 C738 1.409 . S
C741 C739 1.415 . S
C742 H732 0.930 . S
C742 C740 1.419 . S
C742 C743 1.362 . S
C743 H733 0.930 . S
C743 C736 1.409 . S
C743 C742 1.362 . S
H744 C750 0.930 . S
H745 C753 0.930 . S
H746 C754 0.930 . S
H747 C755 0.930 . S
H748 C758 0.930 . S
H749 C759 0.930 . S
C750 H744 0.930 . S
C750 C751 1.355 . S
C750 C752 1.415 . S
C751 C750 1.355 . S
C751 C753 1.419 . S
C752 C750 1.415 . S
C752 C757 1.425 . S
C752 C759 1.409 . S
C753 H745 0.930 . S
C753 C751 1.419 . S
C753 C754 1.362 . S
C754 H746 0.930 . S
C754 C753 1.362 . S
C754 C757 1.409 . S
C755 H747 0.930 . S
C755 C756 1.355 . S
C755 C757 1.415 . S
C756 C755 1.355 . S
C756 C758 1.419 . S
C757 C752 1.425 . S
C757 C754 1.409 . S
C757 C755 1.415 . S
C758 H748 0.930 . S
C758 C756 1.419 . S
C758 C759 1.362 . S
C759 H749 0.930 . S
C759 C752 1.409 . S
C759 C758 1.362 . S
H760 C766 0.930 . S
H761 C769 0.930 . S
H762 C770 0.930 . S
H763 C771 0.930 . S
H764 C774 0.930 . S
H765 C775 0.930 . S
C766 H760 0.930 . S
C766 C767 1.355 . S
C766 C768 1.415 . S
C767 C766 1.355 . S
C767 C769 1.419 . S
C768 C766 1.415 . S
C768 C773 1.425 . S
C768 C775 1.409 . S
C769 H761 0.930 . S
C769 C767 1.419 . S
C769 C770 1.362 . S
C770 H762 0.930 . S
C770 C769 1.362 . S
C770 C773 1.409 . S
C771 H763 0.930 . S
C771 C772 1.355 . S
C771 C773 1.415 . S
C772 C771 1.355 . S
C772 C774 1.419 . S
C773 C768 1.425 . S
C773 C770 1.409 . S
C773 C771 1.415 . S
C774 H764 0.930 . S
C774 C772 1.419 . S
C774 C775 1.362 . S
C775 H765 0.930 . S
C775 C768 1.409 . S
C775 C774 1.362 . S
H776 C782 0.930 . S
H777 C785 0.930 . S
H778 C786 0.930 . S
H779 C787 0.930 . S
H780 C790 0.930 . S
H781 C791 0.930 . S
C782 H776 0.930 . S
C782 C783 1.355 . S
C782 C784 1.415 . S
C783 C782 1.355 . S
C783 C785 1.419 . S
C784 C782 1.415 . S
C784 C789 1.425 . S
C784 C791 1.409 . S
C785 H777 0.930 . S
C785 C783 1.419 . S
C785 C786 1.362 . S
C786 H778 0.930 . S
C786 C785 1.362 . S
C786 C789 1.409 . S
C787 H779 0.930 . S
C787 C788 1.355 . S
C787 C789 1.415 . S
C788 C787 1.355 . S
C788 C790 1.419 . S
C789 C784 1.425 . S
C789 C786 1.409 . S
C789 C787 1.415 . S
C790 H780 0.930 . S
C790 C788 1.419 . S
C790 C791 1.362 . S
C791 H781 0.930 . S
C791 C784 1.409 . S
C791 C790 1.362 . S
H792 C798 0.930 . S
H793 C801 0.930 . S
H794 C802 0.930 . S
H795 C803 0.930 1_554 S
H796 C806 0.930 . S
H797 C807 0.930 . S
C798 H792 0.930 . S
C798 C799 1.355 . S
C798 C800 1.415 . S
C799 C798 1.355 . S
C799 C801 1.419 . S
C800 C798 1.415 . S
C800 C805 1.425 . S
C800 C807 1.409 . S
C801 H793 0.930 . S
C801 C799 1.419 . S
C801 C802 1.362 . S
C802 H794 0.930 . S
C802 C801 1.362 . S
C802 C805 1.409 . S
C803 H795 0.930 1_556 S
C803 C804 1.355 . S
C803 C805 1.415 . S
C804 C803 1.355 . S
C804 C806 1.419 . S
C805 C800 1.425 . S
C805 C802 1.409 . S
C805 C803 1.415 . S
C806 H796 0.930 . S
C806 C804 1.419 . S
C806 C807 1.362 . S
C807 H797 0.930 . S
C807 C800 1.409 . S
C807 C806 1.362 . S
H808 C814 0.930 1_554 S
H809 C817 0.930 . S
H810 C818 0.930 . S
H811 C819 0.930 . S
H812 C822 0.930 . S
H813 C823 0.930 . S
C814 H808 0.930 1_556 S
C814 C815 1.355 . S
C814 C816 1.415 . S
C815 C814 1.355 . S
C815 C817 1.419 . S
C816 C814 1.415 . S
C816 C821 1.425 . S
C816 C823 1.409 . S
C817 H809 0.930 . S
C817 C815 1.419 . S
C817 C818 1.362 . S
C818 H810 0.930 . S
C818 C817 1.362 . S
C818 C821 1.409 . S
C819 H811 0.930 . S
C819 C820 1.355 . S
C819 C821 1.415 . S
C820 C819 1.355 . S
C820 C822 1.419 . S
C821 C816 1.425 . S
C821 C818 1.409 . S
C821 C819 1.415 . S
C822 H812 0.930 . S
C822 C820 1.419 . S
C822 C823 1.362 . S
C823 H813 0.930 . S
C823 C816 1.409 . S
C823 C822 1.362 . S
H824 C830 0.930 . S
H825 C833 0.930 . S
H826 C834 0.930 . S
H827 C835 0.930 . S
H828 C838 0.930 . S
H829 C839 0.930 . S
C830 H824 0.930 . S
C830 C831 1.355 . S
C830 C832 1.415 . S
C831 C830 1.355 . S
C831 C833 1.419 1_556 S
C832 C830 1.415 . S
C832 C837 1.425 . S
C832 C839 1.409 . S
C833 H825 0.930 . S
C833 C831 1.419 1_554 S
C833 C834 1.362 1_554 S
C834 H826 0.930 . S
C834 C833 1.362 1_556 S
C834 C837 1.409 . S
C835 H827 0.930 . S
C835 C836 1.355 . S
C835 C837 1.415 . S
C836 C835 1.355 . S
C836 C838 1.419 . S
C837 C832 1.425 . S
C837 C834 1.409 . S
C837 C835 1.415 . S
C838 H828 0.930 . S
C838 C836 1.419 . S
C838 C839 1.362 . S
C839 H829 0.930 . S
C839 C832 1.409 . S
C839 C838 1.362 . S
H840 C846 0.930 . S
H841 C849 0.930 . S
H842 C850 0.930 . S
H843 C851 0.930 . S
H844 C854 0.930 . S
H845 C855 0.930 . S
C846 H840 0.930 . S
C846 C847 1.355 . S
C846 C848 1.415 . S
C847 C846 1.355 . S
C847 C849 1.419 . S
C848 C846 1.415 . S
C848 C853 1.425 . S
C848 C855 1.409 . S
C849 H841 0.930 . S
C849 C847 1.419 . S
C849 C850 1.362 . S
C850 H842 0.930 . S
C850 C849 1.362 . S
C850 C853 1.409 . S
C851 H843 0.930 . S
C851 C852 1.355 . S
C851 C853 1.415 . S
C852 C851 1.355 . S
C852 C854 1.419 . S
C853 C848 1.425 . S
C853 C850 1.409 . S
C853 C851 1.415 . S
C854 H844 0.930 . S
C854 C852 1.419 . S
C854 C855 1.362 . S
C855 H845 0.930 . S
C855 C848 1.409 . S
C855 C854 1.362 . S
H856 C862 0.930 . S
H857 C865 0.930 . S
H858 C866 0.930 . S
H859 C867 0.930 . S
H860 C870 0.930 . S
H861 C871 0.930 . S
C862 H856 0.930 . S
C862 C863 1.355 . S
C862 C864 1.415 . S
C863 C862 1.355 . S
C863 C865 1.419 . S
C864 C862 1.415 . S
C864 C869 1.425 . S
C864 C871 1.409 . S
C865 H857 0.930 . S
C865 C863 1.419 . S
C865 C866 1.362 . S
C866 H858 0.930 . S
C866 C865 1.362 . S
C866 C869 1.409 . S
C867 H859 0.930 . S
C867 C868 1.355 . S
C867 C869 1.415 . S
C868 C867 1.355 . S
C868 C870 1.419 . S
C869 C864 1.425 . S
C869 C866 1.409 . S
C869 C867 1.415 . S
C870 H860 0.930 . S
C870 C868 1.419 . S
C870 C871 1.362 . S
C871 H861 0.930 . S
C871 C864 1.409 . S
C871 C870 1.362 . S
H872 C878 0.930 . S
H873 C881 0.930 . S
H874 C882 0.930 . S
H875 C883 0.930 . S
H876 C886 0.930 . S
H877 C887 0.930 . S
C878 H872 0.930 . S
C878 C879 1.355 . S
C878 C880 1.415 . S
C879 C878 1.355 . S
C879 C881 1.419 . S
C880 C878 1.415 . S
C880 C885 1.425 . S
C880 C887 1.409 . S
C881 H873 0.930 . S
C881 C879 1.419 . S
C881 C882 1.362 . S
C882 H874 0.930 . S
C882 C881 1.362 . S
C882 C885 1.409 . S
C883 H875 0.930 . S
C883 C884 1.355 . S
C883 C885 1.415 . S
C884 C883 1.355 . S
C884 C886 1.419 . S
C885 C880 1.425 . S
C885 C882 1.409 . S
C885 C883 1.415 . S
C886 H876 0.930 . S
C886 C884 1.419 . S
C886 C887 1.362 . S
C887 H877 0.930 . S
C887 C880 1.409 . S
C887 C886 1.362 . S
H888 C894 0.930 1_556 S
H889 C897 0.930 . S
H890 C898 0.930 . S
H891 C899 0.930 . S
H892 C902 0.930 . S
H893 C903 0.930 . S
C894 H888 0.930 1_554 S
C894 C895 1.355 . S
C894 C896 1.415 . S
C895 C894 1.355 . S
C895 C897 1.419 . S
C896 C894 1.415 . S
C896 C901 1.425 . S
C896 C903 1.409 . S
C897 H889 0.930 . S
C897 C895 1.419 . S
C897 C898 1.362 . S
C898 H890 0.930 . S
C898 C897 1.362 . S
C898 C901 1.409 . S
C899 H891 0.930 . S
C899 C900 1.355 . S
C899 C901 1.415 . S
C900 C899 1.355 . S
C900 C902 1.419 . S
C901 C896 1.425 . S
C901 C898 1.409 . S
C901 C899 1.415 . S
C902 H892 0.930 . S
C902 C900 1.419 . S
C902 C903 1.362 . S
C903 H893 0.930 . S
C903 C896 1.409 . S
C903 C902 1.362 . S
H904 C910 0.930 . S
H905 C913 0.930 . S
H906 C914 0.930 . S
H907 C915 0.930 . S
H908 C918 0.930 . S
H909 C919 0.930 . S
C910 H904 0.930 . S
C910 C911 1.355 . S
C910 C912 1.415 . S
C911 C910 1.355 . S
C911 C913 1.419 1_554 S
C912 C910 1.415 . S
C912 C917 1.425 . S
C912 C919 1.409 . S
C913 H905 0.930 . S
C913 C911 1.419 1_556 S
C913 C914 1.362 1_556 S
C914 H906 0.930 . S
C914 C913 1.362 1_554 S
C914 C917 1.409 . S
C915 H907 0.930 . S
C915 C916 1.355 . S
C915 C917 1.415 . S
C916 C915 1.355 . S
C916 C918 1.419 . S
C917 C912 1.425 . S
C917 C914 1.409 . S
C917 C915 1.415 . S
C918 H908 0.930 . S
C918 C916 1.419 . S
C918 C919 1.362 . S
C919 H909 0.930 . S
C919 C912 1.409 . S
C919 C918 1.362 . S
H920 C926 0.930 . S
H921 C929 0.930 . S
H922 C930 0.930 . S
H923 C931 0.930 . S
H924 C934 0.930 . S
H925 C935 0.930 . S
C926 H920 0.930 . S
C926 C927 1.355 . S
C926 C928 1.415 . S
C927 C926 1.355 . S
C927 C929 1.419 . S
C928 C926 1.415 . S
C928 C933 1.425 . S
C928 C935 1.409 . S
C929 H921 0.930 . S
C929 C927 1.419 . S
C929 C930 1.362 . S
C930 H922 0.930 . S
C930 C929 1.362 . S
C930 C933 1.409 . S
C931 H923 0.930 . S
C931 C932 1.355 . S
C931 C933 1.415 . S
C932 C931 1.355 . S
C932 C934 1.419 1_554 S
C933 C928 1.425 . S
C933 C930 1.409 . S
C933 C931 1.415 . S
C934 H924 0.930 . S
C934 C932 1.419 1_556 S
C934 C935 1.362 1_556 S
C935 H925 0.930 . S
C935 C928 1.409 . S
C935 C934 1.362 1_554 S
H936 C942 0.930 . S
H937 C945 0.930 . S
H938 C946 0.930 . S
H939 C947 0.930 . S
H940 C950 0.930 . S
H941 C951 0.930 . S
C942 H936 0.930 . S
C942 C943 1.355 . S
C942 C944 1.415 . S
C943 C942 1.355 . S
C943 C945 1.419 . S
C944 C942 1.415 . S
C944 C949 1.425 . S
C944 C951 1.409 . S
C945 H937 0.930 . S
C945 C943 1.419 . S
C945 C946 1.362 . S
C946 H938 0.930 . S
C946 C945 1.362 . S
C946 C949 1.409 . S
C947 H939 0.930 . S
C947 C948 1.355 . S
C947 C949 1.415 . S
C948 C947 1.355 . S
C948 C950 1.419 . S
C949 C944 1.425 . S
C949 C946 1.409 . S
C949 C947 1.415 . S
C950 H940 0.930 . S
C950 C948 1.419 . S
C950 C951 1.362 . S
C951 H941 0.930 . S
C951 C944 1.409 . S
C951 C950 1.362 . S
H952 C958 0.930 . S
H953 C961 0.930 . S
H954 C962 0.930 . S
H955 C963 0.930 . S
H956 C966 0.930 . S
H957 C967 0.930 . S
C958 H952 0.930 . S
C958 C959 1.355 . S
C958 C960 1.415 . S
C959 C958 1.355 . S
C959 C961 1.419 . S
C960 C958 1.415 . S
C960 C965 1.425 . S
C960 C967 1.409 . S
C961 H953 0.930 . S
C961 C959 1.419 . S
C961 C962 1.362 . S
C962 H954 0.930 . S
C962 C961 1.362 . S
C962 C965 1.409 . S
C963 H955 0.930 . S
C963 C964 1.355 . S
C963 C965 1.415 . S
C964 C963 1.355 . S
C964 C966 1.419 . S
C965 C960 1.425 . S
C965 C962 1.409 . S
C965 C963 1.415 . S
C966 H956 0.930 . S
C966 C964 1.419 . S
C966 C967 1.362 . S
C967 H957 0.930 . S
C967 C960 1.409 . S
C967 C966 1.362 . S
H968 C974 0.930 . S
H969 C977 0.930 . S
H970 C978 0.930 . S
H971 C979 0.930 . S
H972 C982 0.930 . S
H973 C983 0.930 . S
C974 H968 0.930 . S
C974 C975 1.355 . S
C974 C976 1.415 . S
C975 C974 1.355 . S
C975 C977 1.419 . S
C976 C974 1.415 . S
C976 C981 1.425 . S
C976 C983 1.409 . S
C977 H969 0.930 . S
C977 C975 1.419 . S
C977 C978 1.362 . S
C978 H970 0.930 . S
C978 C977 1.362 . S
C978 C981 1.409 . S
C979 H971 0.930 . S
C979 C980 1.355 . S
C979 C981 1.415 . S
C980 C979 1.355 . S
C980 C982 1.419 . S
C981 C976 1.425 . S
C981 C978 1.409 . S
C981 C979 1.415 . S
C982 H972 0.930 . S
C982 C980 1.419 . S
C982 C983 1.362 . S
C983 H973 0.930 . S
C983 C976 1.409 . S
C983 C982 1.362 . S
H984 C990 0.930 . S
H985 C993 0.930 . S
H986 C994 0.930 . S
H987 C995 0.930 . S
H988 C998 0.930 . S
H989 C999 0.930 . S
C990 H984 0.930 . S
C990 C991 1.355 . S
C990 C992 1.415 . S
C991 C990 1.355 . S
C991 C993 1.419 . S
C992 C990 1.415 . S
C992 C997 1.425 . S
C992 C999 1.409 . S
C993 H985 0.930 . S
C993 C991 1.419 . S
C993 C994 1.362 . S
C994 H986 0.930 . S
C994 C993 1.362 . S
C994 C997 1.409 . S
C995 H987 0.930 . S
C995 C996 1.355 . S
C995 C997 1.415 . S
C996 C995 1.355 . S
C996 C998 1.419 . S
C997 C992 1.425 . S
C997 C994 1.409 . S
C997 C995 1.415 . S
C998 H988 0.930 . S
C998 C996 1.419 . S
C998 C999 1.362 . S
C999 H989 0.930 . S
C999 C992 1.409 . S
C999 C998 1.362 . S
H1000 C1006 0.930 . S
H1001 C1009 0.930 . S
H1002 C1010 0.930 . S
H1003 C1011 0.930 . S
H1004 C1014 0.930 . S
H1005 C1015 0.930 . S
C1006 H1000 0.930 . S
C1006 C1007 1.355 . S
C1006 C1008 1.415 . S
C1007 C1006 1.355 . S
C1007 C1009 1.419 . S
C1008 C1006 1.415 . S
C1008 C1013 1.425 . S
C1008 C1015 1.409 . S
C1009 H1001 0.930 . S
C1009 C1007 1.419 . S
C1009 C1010 1.362 . S
C1010 H1002 0.930 . S
C1010 C1009 1.362 . S
C1010 C1013 1.409 . S
C1011 H1003 0.930 . S
C1011 C1012 1.355 . S
C1011 C1013 1.415 . S
C1012 C1011 1.355 . S
C1012 C1014 1.419 . S
C1013 C1008 1.425 . S
C1013 C1010 1.409 . S
C1013 C1011 1.415 . S
C1014 H1004 0.930 . S
C1014 C1012 1.419 . S
C1014 C1015 1.362 . S
C1015 H1005 0.930 . S
C1015 C1008 1.409 . S
C1015 C1014 1.362 . S
H1016 C1022 0.930 . S
H1017 C1025 0.930 . S
H1018 C1026 0.930 . S
H1019 C1027 0.930 . S
H1020 C1030 0.930 . S
H1021 C1031 0.930 . S
C1022 H1016 0.930 . S
C1022 C1023 1.355 . S
C1022 C1024 1.415 . S
C1023 C1022 1.355 . S
C1023 C1025 1.419 . S
C1024 C1022 1.415 . S
C1024 C1029 1.425 . S
C1024 C1031 1.409 . S
C1025 H1017 0.930 . S
C1025 C1023 1.419 . S
C1025 C1026 1.362 . S
C1026 H1018 0.930 . S
C1026 C1025 1.362 . S
C1026 C1029 1.409 . S
C1027 H1019 0.930 . S
C1027 C1028 1.355 . S
C1027 C1029 1.415 . S
C1028 C1027 1.355 . S
C1028 C1030 1.419 . S
C1029 C1024 1.425 . S
C1029 C1026 1.409 . S
C1029 C1027 1.415 . S
C1030 H1020 0.930 . S
C1030 C1028 1.419 . S
C1030 C1031 1.362 . S
C1031 H1021 0.930 . S
C1031 C1024 1.409 . S
C1031 C1030 1.362 . S
H1032 C1038 0.930 . S
H1033 C1041 0.930 . S
H1034 C1042 0.930 . S
H1035 C1043 0.930 . S
H1036 C1046 0.930 . S
H1037 C1047 0.930 . S
C1038 H1032 0.930 . S
C1038 C1039 1.355 . S
C1038 C1040 1.415 . S
C1039 C1038 1.355 . S
C1039 C1041 1.419 . S
C1040 C1038 1.415 . S
C1040 C1045 1.425 . S
C1040 C1047 1.409 . S
C1041 H1033 0.930 . S
C1041 C1039 1.419 . S
C1041 C1042 1.362 . S
C1042 H1034 0.930 . S
C1042 C1041 1.362 . S
C1042 C1045 1.409 . S
C1043 H1035 0.930 . S
C1043 C1044 1.355 . S
C1043 C1045 1.415 1_554 S
C1044 C1043 1.355 . S
C1044 C1046 1.419 . S
C1045 C1040 1.425 . S
C1045 C1042 1.409 . S
C1045 C1043 1.415 1_556 S
C1046 H1036 0.930 . S
C1046 C1044 1.419 . S
C1046 C1047 1.362 1_554 S
C1047 H1037 0.930 . S
C1047 C1040 1.409 . S
C1047 C1046 1.362 1_556 S
H1048 C1054 0.930 . S
H1049 C1057 0.930 1_554 S
H1050 C1058 0.930 . S
H1051 C1059 0.930 . S
H1052 C1062 0.930 . S
H1053 C1063 0.930 . S
C1054 H1048 0.930 . S
C1054 C1055 1.355 . S
C1054 C1056 1.415 1_554 S
C1055 C1054 1.355 . S
C1055 C1057 1.419 1_554 S
C1056 C1054 1.415 1_556 S
C1056 C1061 1.425 . S
C1056 C1063 1.409 . S
C1057 H1049 0.930 1_556 S
C1057 C1055 1.419 1_556 S
C1057 C1058 1.362 . S
C1058 H1050 0.930 . S
C1058 C1057 1.362 . S
C1058 C1061 1.409 . S
C1059 H1051 0.930 . S
C1059 C1060 1.355 . S
C1059 C1061 1.415 . S
C1060 C1059 1.355 . S
C1060 C1062 1.419 . S
C1061 C1056 1.425 . S
C1061 C1058 1.409 . S
C1061 C1059 1.415 . S
C1062 H1052 0.930 . S
C1062 C1060 1.419 . S
C1062 C1063 1.362 . S
C1063 H1053 0.930 . S
C1063 C1056 1.409 . S
C1063 C1062 1.362 . S
H1064 C1070 0.930 . S
H1065 C1073 0.930 . S
H1066 C1074 0.930 . S
H1067 C1075 0.930 . S
H1068 C1078 0.930 1_554 S
H1069 C1079 0.930 . S
C1070 H1064 0.930 . S
C1070 C1071 1.355 . S
C1070 C1072 1.415 . S
C1071 C1070 1.355 . S
C1071 C1073 1.419 . S
C1072 C1070 1.415 . S
C1072 C1077 1.425 . S
C1072 C1079 1.409 . S
C1073 H1065 0.930 . S
C1073 C1071 1.419 . S
C1073 C1074 1.362 . S
C1074 H1066 0.930 . S
C1074 C1073 1.362 . S
C1074 C1077 1.409 . S
C1075 H1067 0.930 . S
C1075 C1076 1.355 . S
C1075 C1077 1.415 1_554 S
C1076 C1075 1.355 . S
C1076 C1078 1.419 1_554 S
C1077 C1072 1.425 . S
C1077 C1074 1.409 . S
C1077 C1075 1.415 1_556 S
C1078 H1068 0.930 1_556 S
C1078 C1076 1.419 1_556 S
C1078 C1079 1.362 . S
C1079 H1069 0.930 . S
C1079 C1072 1.409 . S
C1079 C1078 1.362 . S
H1080 C1086 0.930 . S
H1081 C1089 0.930 . S
H1082 C1090 0.930 . S
H1083 C1091 0.930 . S
H1084 C1094 0.930 . S
H1085 C1095 0.930 . S
C1086 H1080 0.930 . S
C1086 C1087 1.355 . S
C1086 C1088 1.415 . S
C1087 C1086 1.355 . S
C1087 C1089 1.419 . S
C1088 C1086 1.415 . S
C1088 C1093 1.425 . S
C1088 C1095 1.409 . S
C1089 H1081 0.930 . S
C1089 C1087 1.419 . S
C1089 C1090 1.362 . S
C1090 H1082 0.930 . S
C1090 C1089 1.362 . S
C1090 C1093 1.409 . S
C1091 H1083 0.930 . S
C1091 C1092 1.355 . S
C1091 C1093 1.415 . S
C1092 C1091 1.355 . S
C1092 C1094 1.419 . S
C1093 C1088 1.425 . S
C1093 C1090 1.409 . S
C1093 C1091 1.415 . S
C1094 H1084 0.930 . S
C1094 C1092 1.419 . S
C1094 C1095 1.362 . S
C1095 H1085 0.930 . S
C1095 C1088 1.409 . S
C1095 C1094 1.362 . S
H1096 C1102 0.930 . S
H1097 C1105 0.930 . S
H1098 C1106 0.930 . S
H1099 C1107 0.930 . S
H1100 C1110 0.930 . S
H1101 C1111 0.930 . S
C1102 H1096 0.930 . S
C1102 C1103 1.355 . S
C1102 C1104 1.415 . S
C1103 C1102 1.355 . S
C1103 C1105 1.419 . S
C1104 C1102 1.415 . S
C1104 C1109 1.425 . S
C1104 C1111 1.409 . S
C1105 H1097 0.930 . S
C1105 C1103 1.419 . S
C1105 C1106 1.362 . S
C1106 H1098 0.930 . S
C1106 C1105 1.362 . S
C1106 C1109 1.409 . S
C1107 H1099 0.930 . S
C1107 C1108 1.355 . S
C1107 C1109 1.415 . S
C1108 C1107 1.355 . S
C1108 C1110 1.419 . S
C1109 C1104 1.425 . S
C1109 C1106 1.409 . S
C1109 C1107 1.415 . S
C1110 H1100 0.930 . S
C1110 C1108 1.419 . S
C1110 C1111 1.362 . S
C1111 H1101 0.930 . S
C1111 C1104 1.409 . S
C1111 C1110 1.362 . S
H1112 C1118 0.930 . S
H1113 C1121 0.930 . S
H1114 C1122 0.930 . S
H1115 C1123 0.930 . S
H1116 C1126 0.930 . S
H1117 C1127 0.930 . S
C1118 H1112 0.930 . S
C1118 C1119 1.355 . S
C1118 C1120 1.415 . S
C1119 C1118 1.355 . S
C1119 C1121 1.419 . S
C1120 C1118 1.415 . S
C1120 C1125 1.425 . S
C1120 C1127 1.409 . S
C1121 H1113 0.930 . S
C1121 C1119 1.419 . S
C1121 C1122 1.362 . S
C1122 H1114 0.930 . S
C1122 C1121 1.362 . S
C1122 C1125 1.409 . S
C1123 H1115 0.930 . S
C1123 C1124 1.355 . S
C1123 C1125 1.415 . S
C1124 C1123 1.355 . S
C1124 C1126 1.419 . S
C1125 C1120 1.425 . S
C1125 C1122 1.409 . S
C1125 C1123 1.415 . S
C1126 H1116 0.930 . S
C1126 C1124 1.419 . S
C1126 C1127 1.362 . S
C1127 H1117 0.930 . S
C1127 C1120 1.409 . S
C1127 C1126 1.362 . S
H1128 C1134 0.930 . S
H1129 C1137 0.930 . S
H1130 C1138 0.930 . S
H1131 C1139 0.930 . S
H1132 C1142 0.930 . S
H1133 C1143 0.930 . S
C1134 H1128 0.930 . S
C1134 C1135 1.355 . S
C1134 C1136 1.415 . S
C1135 C1134 1.355 . S
C1135 C1137 1.419 . S
C1136 C1134 1.415 . S
C1136 C1141 1.425 . S
C1136 C1143 1.409 . S
C1137 H1129 0.930 . S
C1137 C1135 1.419 . S
C1137 C1138 1.362 . S
C1138 H1130 0.930 . S
C1138 C1137 1.362 . S
C1138 C1141 1.409 . S
C1139 H1131 0.930 . S
C1139 C1140 1.355 . S
C1139 C1141 1.415 . S
C1140 C1139 1.355 . S
C1140 C1142 1.419 . S
C1141 C1136 1.425 . S
C1141 C1138 1.409 . S
C1141 C1139 1.415 . S
C1142 H1132 0.930 . S
C1142 C1140 1.419 . S
C1142 C1143 1.362 . S
C1143 H1133 0.930 . S
C1143 C1136 1.409 . S
C1143 C1142 1.362 . S
H1144 C1150 0.930 . S
H1145 C1153 0.930 . S
H1146 C1154 0.930 . S
H1147 C1155 0.930 . S
H1148 C1158 0.930 . S
H1149 C1159 0.930 . S
C1150 H1144 0.930 . S
C1150 C1151 1.355 . S
C1150 C1152 1.415 . S
C1151 C1150 1.355 . S
C1151 C1153 1.419 . S
C1152 C1150 1.415 . S
C1152 C1157 1.425 . S
C1152 C1159 1.409 . S
C1153 H1145 0.930 . S
C1153 C1151 1.419 . S
C1153 C1154 1.362 . S
C1154 H1146 0.930 . S
C1154 C1153 1.362 . S
C1154 C1157 1.409 . S
C1155 H1147 0.930 . S
C1155 C1156 1.355 . S
C1155 C1157 1.415 . S
C1156 C1155 1.355 . S
C1156 C1158 1.419 . S
C1157 C1152 1.425 . S
C1157 C1154 1.409 . S
C1157 C1155 1.415 . S
C1158 H1148 0.930 . S
C1158 C1156 1.419 . S
C1158 C1159 1.362 . S
C1159 H1149 0.930 . S
C1159 C1152 1.409 . S
C1159 C1158 1.362 . S
H1160 C1166 0.930 . S
H1161 C1169 0.930 . S
H1162 C1170 0.930 . S
H1163 C1171 0.930 . S
H1164 C1174 0.930 . S
H1165 C1175 0.930 . S
C1166 H1160 0.930 . S
C1166 C1167 1.355 . S
C1166 C1168 1.415 . S
C1167 C1166 1.355 . S
C1167 C1169 1.419 . S
C1168 C1166 1.415 . S
C1168 C1173 1.425 . S
C1168 C1175 1.409 . S
C1169 H1161 0.930 . S
C1169 C1167 1.419 . S
C1169 C1170 1.362 . S
C1170 H1162 0.930 . S
C1170 C1169 1.362 . S
C1170 C1173 1.409 . S
C1171 H1163 0.930 . S
C1171 C1172 1.355 . S
C1171 C1173 1.415 . S
C1172 C1171 1.355 . S
C1172 C1174 1.419 . S
C1173 C1168 1.425 . S
C1173 C1170 1.409 . S
C1173 C1171 1.415 . S
C1174 H1164 0.930 . S
C1174 C1172 1.419 . S
C1174 C1175 1.362 . S
C1175 H1165 0.930 . S
C1175 C1168 1.409 . S
C1175 C1174 1.362 . S
H1176 C1182 0.930 . S
H1177 C1185 0.930 . S
H1178 C1186 0.930 . S
H1179 C1187 0.930 . S
H1180 C1190 0.930 . S
H1181 C1191 0.930 . S
C1182 H1176 0.930 . S
C1182 C1183 1.355 . S
C1182 C1184 1.415 . S
C1183 C1182 1.355 . S
C1183 C1185 1.419 . S
C1184 C1182 1.415 . S
C1184 C1189 1.425 . S
C1184 C1191 1.409 . S
C1185 H1177 0.930 . S
C1185 C1183 1.419 . S
C1185 C1186 1.362 . S
C1186 H1178 0.930 . S
C1186 C1185 1.362 . S
C1186 C1189 1.409 . S
C1187 H1179 0.930 . S
C1187 C1188 1.355 . S
C1187 C1189 1.415 . S
C1188 C1187 1.355 . S
C1188 C1190 1.419 . S
C1189 C1184 1.425 . S
C1189 C1186 1.409 . S
C1189 C1187 1.415 . S
C1190 H1180 0.930 . S
C1190 C1188 1.419 . S
C1190 C1191 1.362 . S
C1191 H1181 0.930 . S
C1191 C1184 1.409 . S
C1191 C1190 1.362 . S
H1192 C1198 0.930 . S
H1193 C1201 0.930 . S
H1194 C1202 0.930 . S
H1195 C1203 0.930 . S
H1196 C1206 0.930 . S
H1197 C1207 0.930 . S
C1198 H1192 0.930 . S
C1198 C1199 1.355 . S
C1198 C1200 1.415 . S
C1199 C1198 1.355 . S
C1199 C1201 1.419 . S
C1200 C1198 1.415 . S
C1200 C1205 1.425 . S
C1200 C1207 1.409 . S
C1201 H1193 0.930 . S
C1201 C1199 1.419 . S
C1201 C1202 1.362 . S
C1202 H1194 0.930 . S
C1202 C1201 1.362 . S
C1202 C1205 1.409 . S
C1203 H1195 0.930 . S
C1203 C1204 1.355 . S
C1203 C1205 1.415 . S
C1204 C1203 1.355 . S
C1204 C1206 1.419 . S
C1205 C1200 1.425 . S
C1205 C1202 1.409 . S
C1205 C1203 1.415 . S
C1206 H1196 0.930 . S
C1206 C1204 1.419 . S
C1206 C1207 1.362 . S
C1207 H1197 0.930 . S
C1207 C1200 1.409 . S
C1207 C1206 1.362 . S
H1208 C1214 0.930 . S
H1209 C1217 0.930 . S
H1210 C1218 0.930 . S
H1211 C1219 0.930 . S
H1212 C1222 0.930 . S
H1213 C1223 0.930 . S
C1214 H1208 0.930 . S
C1214 C1215 1.355 . S
C1214 C1216 1.415 . S
C1215 C1214 1.355 . S
C1215 C1217 1.419 . S
C1216 C1214 1.415 . S
C1216 C1221 1.425 . S
C1216 C1223 1.409 . S
C1217 H1209 0.930 . S
C1217 C1215 1.419 . S
C1217 C1218 1.362 . S
C1218 H1210 0.930 . S
C1218 C1217 1.362 . S
C1218 C1221 1.409 . S
C1219 H1211 0.930 . S
C1219 C1220 1.355 . S
C1219 C1221 1.415 . S
C1220 C1219 1.355 . S
C1220 C1222 1.419 . S
C1221 C1216 1.425 . S
C1221 C1218 1.409 . S
C1221 C1219 1.415 . S
C1222 H1212 0.930 . S
C1222 C1220 1.419 . S
C1222 C1223 1.362 . S
C1223 H1213 0.930 . S
C1223 C1216 1.409 . S
C1223 C1222 1.362 . S
H1224 C1230 0.930 . S
H1225 C1233 0.930 . S
H1226 C1234 0.930 . S
H1227 C1235 0.930 . S
H1228 C1238 0.930 . S
H1229 C1239 0.930 . S
C1230 H1224 0.930 . S
C1230 C1231 1.355 . S
C1230 C1232 1.415 . S
C1231 C1230 1.355 . S
C1231 C1233 1.419 . S
C1232 C1230 1.415 . S
C1232 C1237 1.425 . S
C1232 C1239 1.409 . S
C1233 H1225 0.930 . S
C1233 C1231 1.419 . S
C1233 C1234 1.362 . S
C1234 H1226 0.930 . S
C1234 C1233 1.362 . S
C1234 C1237 1.409 . S
C1235 H1227 0.930 . S
C1235 C1236 1.355 . S
C1235 C1237 1.415 . S
C1236 C1235 1.355 . S
C1236 C1238 1.419 . S
C1237 C1232 1.425 . S
C1237 C1234 1.409 . S
C1237 C1235 1.415 . S
C1238 H1228 0.930 . S
C1238 C1236 1.419 . S
C1238 C1239 1.362 . S
C1239 H1229 0.930 . S
C1239 C1232 1.409 . S
C1239 C1238 1.362 . S
H1240 C1246 0.930 . S
H1241 C1249 0.930 . S
H1242 C1250 0.930 . S
H1243 C1251 0.930 . S
H1244 C1254 0.930 . S
H1245 C1255 0.930 . S
C1246 H1240 0.930 . S
C1246 C1247 1.355 . S
C1246 C1248 1.415 . S
C1247 C1246 1.355 . S
C1247 C1249 1.419 . S
C1248 C1246 1.415 . S
C1248 C1253 1.425 . S
C1248 C1255 1.409 . S
C1249 H1241 0.930 . S
C1249 C1247 1.419 . S
C1249 C1250 1.362 . S
C1250 H1242 0.930 . S
C1250 C1249 1.362 . S
C1250 C1253 1.409 . S
C1251 H1243 0.930 . S
C1251 C1252 1.355 . S
C1251 C1253 1.415 . S
C1252 C1251 1.355 . S
C1252 C1254 1.419 . S
C1253 C1248 1.425 . S
C1253 C1250 1.409 . S
C1253 C1251 1.415 . S
C1254 H1244 0.930 . S
C1254 C1252 1.419 . S
C1254 C1255 1.362 . S
C1255 H1245 0.930 . S
C1255 C1248 1.409 . S
C1255 C1254 1.362 . S
H1256 C1262 0.930 . S
H1257 C1265 0.930 . S
H1258 C1266 0.930 . S
H1259 C1267 0.930 . S
H1260 C1270 0.930 . S
H1261 C1271 0.930 . S
C1262 H1256 0.930 . S
C1262 C1263 1.355 . S
C1262 C1264 1.415 . S
C1263 C1262 1.355 . S
C1263 C1265 1.419 . S
C1264 C1262 1.415 . S
C1264 C1269 1.425 . S
C1264 C1271 1.409 . S
C1265 H1257 0.930 . S
C1265 C1263 1.419 . S
C1265 C1266 1.362 . S
C1266 H1258 0.930 . S
C1266 C1265 1.362 . S
C1266 C1269 1.409 . S
C1267 H1259 0.930 . S
C1267 C1268 1.355 . S
C1267 C1269 1.415 . S
C1268 C1267 1.355 . S
C1268 C1270 1.419 . S
C1269 C1264 1.425 . S
C1269 C1266 1.409 . S
C1269 C1267 1.415 . S
C1270 H1260 0.930 . S
C1270 C1268 1.419 . S
C1270 C1271 1.362 . S
C1271 H1261 0.930 . S
C1271 C1264 1.409 . S
C1271 C1270 1.362 . S
H1272 C1278 0.930 . S
H1273 C1281 0.930 . S
H1274 C1282 0.930 . S
H1275 C1283 0.930 . S
H1276 C1286 0.930 . S
H1277 C1287 0.930 . S
C1278 H1272 0.930 . S
C1278 C1279 1.355 . S
C1278 C1280 1.415 . S
C1279 C1278 1.355 . S
C1279 C1281 1.419 . S
C1280 C1278 1.415 . S
C1280 C1285 1.425 . S
C1280 C1287 1.409 . S
C1281 H1273 0.930 . S
C1281 C1279 1.419 . S
C1281 C1282 1.362 . S
C1282 H1274 0.930 . S
C1282 C1281 1.362 . S
C1282 C1285 1.409 . S
C1283 H1275 0.930 . S
C1283 C1284 1.355 . S
C1283 C1285 1.415 . S
C1284 C1283 1.355 . S
C1284 C1286 1.419 . S
C1285 C1280 1.425 . S
C1285 C1282 1.409 . S
C1285 C1283 1.415 . S
C1286 H1276 0.930 . S
C1286 C1284 1.419 . S
C1286 C1287 1.362 . S
C1287 H1277 0.930 . S
C1287 C1280 1.409 . S
C1287 C1286 1.362 . S
H1288 C1294 0.930 . S
H1289 C1297 0.930 . S
H1290 C1298 0.930 . S
H1291 C1299 0.930 . S
H1292 C1302 0.930 . S
H1293 C1303 0.930 . S
C1294 H1288 0.930 . S
C1294 C1295 1.355 . S
C1294 C1296 1.415 . S
C1295 C1294 1.355 . S
C1295 C1297 1.419 . S
C1296 C1294 1.415 . S
C1296 C1301 1.425 . S
C1296 C1303 1.409 . S
C1297 H1289 0.930 . S
C1297 C1295 1.419 . S
C1297 C1298 1.362 . S
C1298 H1290 0.930 . S
C1298 C1297 1.362 . S
C1298 C1301 1.409 . S
C1299 H1291 0.930 . S
C1299 C1300 1.355 . S
C1299 C1301 1.415 . S
C1300 C1299 1.355 . S
C1300 C1302 1.419 . S
C1301 C1296 1.425 . S
C1301 C1298 1.409 . S
C1301 C1299 1.415 . S
C1302 H1292 0.930 . S
C1302 C1300 1.419 . S
C1302 C1303 1.362 . S
C1303 H1293 0.930 . S
C1303 C1296 1.409 . S
C1303 C1302 1.362 . S
H1304 C1310 0.930 . S
H1305 C1313 0.930 . S
H1306 C1314 0.930 . S
H1307 C1315 0.930 . S
H1308 C1318 0.930 . S
H1309 C1319 0.930 . S
C1310 H1304 0.930 . S
C1310 C1311 1.355 . S
C1310 C1312 1.415 . S
C1311 C1310 1.355 . S
C1311 C1313 1.419 . S
C1312 C1310 1.415 . S
C1312 C1317 1.425 . S
C1312 C1319 1.409 . S
C1313 H1305 0.930 . S
C1313 C1311 1.419 . S
C1313 C1314 1.362 . S
C1314 H1306 0.930 . S
C1314 C1313 1.362 . S
C1314 C1317 1.409 . S
C1315 H1307 0.930 . S
C1315 C1316 1.355 . S
C1315 C1317 1.415 . S
C1316 C1315 1.355 . S
C1316 C1318 1.419 . S
C1317 C1312 1.425 . S
C1317 C1314 1.409 . S
C1317 C1315 1.415 . S
C1318 H1308 0.930 . S
C1318 C1316 1.419 . S
C1318 C1319 1.362 . S
C1319 H1309 0.930 . S
C1319 C1312 1.409 . S
C1319 C1318 1.362 . S
H1320 C1326 0.930 . S
H1321 C1329 0.930 . S
H1322 C1330 0.930 . S
H1323 C1331 0.930 . S
H1324 C1334 0.930 . S
H1325 C1335 0.930 . S
C1326 H1320 0.930 . S
C1326 C1327 1.355 . S
C1326 C1328 1.415 1_556 S
C1327 C1326 1.355 . S
C1327 C1329 1.419 1_556 S
C1328 C1326 1.415 1_554 S
C1328 C1333 1.425 . S
C1328 C1335 1.409 . S
C1329 H1321 0.930 . S
C1329 C1327 1.419 1_554 S
C1329 C1330 1.362 . S
C1330 H1322 0.930 . S
C1330 C1329 1.362 . S
C1330 C1333 1.409 . S
C1331 H1323 0.930 . S
C1331 C1332 1.355 . S
C1331 C1333 1.415 . S
C1332 C1331 1.355 . S
C1332 C1334 1.419 . S
C1333 C1328 1.425 . S
C1333 C1330 1.409 . S
C1333 C1331 1.415 . S
C1334 H1324 0.930 . S
C1334 C1332 1.419 . S
C1334 C1335 1.362 . S
C1335 H1325 0.930 . S
C1335 C1328 1.409 . S
C1335 C1334 1.362 . S
H1336 C1342 0.930 . S
H1337 C1345 0.930 . S
H1338 C1346 0.929 1_556 S
H1339 C1347 0.930 . S
H1340 C1350 0.930 . S
H1341 C1351 0.930 . S
C1342 H1336 0.930 . S
C1342 C1343 1.355 1_554 S
C1342 C1344 1.415 . S
C1343 C1342 1.355 1_556 S
C1343 C1345 1.419 . S
C1344 C1342 1.415 . S
C1344 C1349 1.425 . S
C1344 C1351 1.409 . S
C1345 H1337 0.930 . S
C1345 C1343 1.419 . S
C1345 C1346 1.356 1_556 S
C1346 H1338 0.929 1_554 S
C1346 C1345 1.356 1_554 S
C1346 C1349 1.417 . S
C1347 H1339 0.930 . S
C1347 C1348 1.355 . S
C1347 C1349 1.415 . S
C1348 C1347 1.355 . S
C1348 C1350 1.419 . S
C1349 C1344 1.425 . S
C1349 C1346 1.417 . S
C1349 C1347 1.415 . S
C1350 H1340 0.930 . S
C1350 C1348 1.419 . S
C1350 C1351 1.362 . S
C1351 H1341 0.930 . S
C1351 C1344 1.409 . S
C1351 C1350 1.362 . S
H1352 C1358 0.930 . S
H1353 C1361 0.930 . S
H1354 C1362 0.930 . S
H1355 C1363 0.930 . S
H1356 C1366 0.930 . S
H1357 C1367 0.930 . S
C1358 H1352 0.930 . S
C1358 C1359 1.355 1_554 S
C1358 C1360 1.415 . S
C1359 C1358 1.355 1_556 S
C1359 C1361 1.419 . S
C1360 C1358 1.415 . S
C1360 C1365 1.425 . S
C1360 C1367 1.409 . S
C1361 H1353 0.930 . S
C1361 C1359 1.419 . S
C1361 C1362 1.362 . S
C1362 H1354 0.930 . S
C1362 C1361 1.362 . S
C1362 C1365 1.409 1_556 S
C1363 H1355 0.930 . S
C1363 C1364 1.355 . S
C1363 C1365 1.415 . S
C1364 C1363 1.355 . S
C1364 C1366 1.419 . S
C1365 C1360 1.425 . S
C1365 C1362 1.409 1_554 S
C1365 C1363 1.415 . S
C1366 H1356 0.930 . S
C1366 C1364 1.419 . S
C1366 C1367 1.362 . S
C1367 H1357 0.930 . S
C1367 C1360 1.409 . S
C1367 C1366 1.362 . S
H1368 C1374 0.930 1_556 S
H1369 C1377 0.930 . S
H1370 C1378 0.930 . S
H1371 C1379 0.930 . S
H1372 C1382 0.930 . S
H1373 C1383 0.930 1_556 S
C1374 H1368 0.930 1_554 S
C1374 C1375 1.355 . S
C1374 C1376 1.415 . S
C1375 C1374 1.355 . S
C1375 C1377 1.419 . S
C1376 C1374 1.415 . S
C1376 C1381 1.425 . S
C1376 C1383 1.409 . S
C1377 H1369 0.930 . S
C1377 C1375 1.419 . S
C1377 C1378 1.362 . S
C1378 H1370 0.930 . S
C1378 C1377 1.362 . S
C1378 C1381 1.409 . S
C1379 H1371 0.930 . S
C1379 C1380 1.355 . S
C1379 C1381 1.415 . S
C1380 C1379 1.355 . S
C1380 C1382 1.419 . S
C1381 C1376 1.425 . S
C1381 C1378 1.409 . S
C1381 C1379 1.415 . S
C1382 H1372 0.930 . S
C1382 C1380 1.419 . S
C1382 C1383 1.362 . S
C1383 H1373 0.930 1_554 S
C1383 C1376 1.409 . S
C1383 C1382 1.362 . S
H1384 C1390 0.930 . S
H1385 C1393 0.930 . S
H1386 C1394 0.930 . S
H1387 C1395 0.930 . S
H1388 C1398 0.930 1_556 S
H1389 C1399 0.930 1_556 S
C1390 H1384 0.930 . S
C1390 C1391 1.355 . S
C1390 C1392 1.415 . S
C1391 C1390 1.355 . S
C1391 C1393 1.419 . S
C1392 C1390 1.415 . S
C1392 C1397 1.425 . S
C1392 C1399 1.409 . S
C1393 H1385 0.930 . S
C1393 C1391 1.419 . S
C1393 C1394 1.362 . S
C1394 H1386 0.930 . S
C1394 C1393 1.362 . S
C1394 C1397 1.409 . S
C1395 H1387 0.930 . S
C1395 C1396 1.355 . S
C1395 C1397 1.415 . S
C1396 C1395 1.355 . S
C1396 C1398 1.419 . S
C1397 C1392 1.425 . S
C1397 C1394 1.409 . S
C1397 C1395 1.415 . S
C1398 H1388 0.930 1_554 S
C1398 C1396 1.419 . S
C1398 C1399 1.362 . S
C1399 H1389 0.930 1_554 S
C1399 C1392 1.409 . S
C1399 C1398 1.362 . S
H1400 C1406 0.930 1_556 S
H1401 C1409 0.930 . S
H1402 C1410 0.930 . S
H1403 C1411 0.930 . S
H1404 C1414 0.930 . S
H1405 C1415 0.930 1_556 S
C1406 H1400 0.930 1_554 S
C1406 C1407 1.355 . S
C1406 C1408 1.415 . S
C1407 C1406 1.355 . S
C1407 C1409 1.419 . S
C1408 C1406 1.415 . S
C1408 C1413 1.425 . S
C1408 C1415 1.409 . S
C1409 H1401 0.930 . S
C1409 C1407 1.419 . S
C1409 C1410 1.362 . S
C1410 H1402 0.930 . S
C1410 C1409 1.362 . S
C1410 C1413 1.409 . S
C1411 H1403 0.930 . S
C1411 C1412 1.355 . S
C1411 C1413 1.415 . S
C1412 C1411 1.355 . S
C1412 C1414 1.419 . S
C1413 C1408 1.425 . S
C1413 C1410 1.409 . S
C1413 C1411 1.415 . S
C1414 H1404 0.930 . S
C1414 C1412 1.419 . S
C1414 C1415 1.362 . S
C1415 H1405 0.930 1_554 S
C1415 C1408 1.409 . S
C1415 C1414 1.362 . S
H1416 C1422 0.930 . S
H1417 C1425 0.930 . S
H1418 C1426 0.930 . S
H1419 C1427 0.930 . S
H1420 C1430 0.930 . S
H1421 C1431 0.930 . S
C1422 H1416 0.930 . S
C1422 C1423 1.355 . S
C1422 C1424 1.415 . S
C1423 C1422 1.355 . S
C1423 C1425 1.419 . S
C1424 C1422 1.415 . S
C1424 C1429 1.425 . S
C1424 C1431 1.409 . S
C1425 H1417 0.930 . S
C1425 C1423 1.419 . S
C1425 C1426 1.362 . S
C1426 H1418 0.930 . S
C1426 C1425 1.362 . S
C1426 C1429 1.409 . S
C1427 H1419 0.930 . S
C1427 C1428 1.355 . S
C1427 C1429 1.415 . S
C1428 C1427 1.355 . S
C1428 C1430 1.419 . S
C1429 C1424 1.425 . S
C1429 C1426 1.409 . S
C1429 C1427 1.415 . S
C1430 H1420 0.930 . S
C1430 C1428 1.419 . S
C1430 C1431 1.362 . S
C1431 H1421 0.930 . S
C1431 C1424 1.409 . S
C1431 C1430 1.362 . S
H1432 C1438 0.930 . S
H1433 C1441 0.930 . S
H1434 C1442 0.930 . S
H1435 C1443 0.930 . S
H1436 C1446 0.930 . S
H1437 C1447 0.930 . S
C1438 H1432 0.930 . S
C1438 C1439 1.355 . S
C1438 C1440 1.415 . S
C1439 C1438 1.355 . S
C1439 C1441 1.419 . S
C1440 C1438 1.415 . S
C1440 C1445 1.425 . S
C1440 C1447 1.409 . S
C1441 H1433 0.930 . S
C1441 C1439 1.419 . S
C1441 C1442 1.362 . S
C1442 H1434 0.930 . S
C1442 C1441 1.362 . S
C1442 C1445 1.409 . S
C1443 H1435 0.930 . S
C1443 C1444 1.355 . S
C1443 C1445 1.415 . S
C1444 C1443 1.355 . S
C1444 C1446 1.419 . S
C1445 C1440 1.425 . S
C1445 C1442 1.409 . S
C1445 C1443 1.415 . S
C1446 H1436 0.930 . S
C1446 C1444 1.419 . S
C1446 C1447 1.362 . S
C1447 H1437 0.930 . S
C1447 C1440 1.409 . S
C1447 C1446 1.362 . S
H1448 C1454 0.930 . S
H1449 C1457 0.930 . S
H1450 C1458 0.930 . S
H1451 C1459 0.930 . S
H1452 C1462 0.930 . S
H1453 C1463 0.930 . S
C1454 H1448 0.930 . S
C1454 C1455 1.355 . S
C1454 C1456 1.415 . S
C1455 C1454 1.355 . S
C1455 C1457 1.419 . S
C1456 C1454 1.415 . S
C1456 C1461 1.425 . S
C1456 C1463 1.409 . S
C1457 H1449 0.930 . S
C1457 C1455 1.419 . S
C1457 C1458 1.362 . S
C1458 H1450 0.930 . S
C1458 C1457 1.362 . S
C1458 C1461 1.409 . S
C1459 H1451 0.930 . S
C1459 C1460 1.355 . S
C1459 C1461 1.415 . S
C1460 C1459 1.355 . S
C1460 C1462 1.419 . S
C1461 C1456 1.425 . S
C1461 C1458 1.409 . S
C1461 C1459 1.415 . S
C1462 H1452 0.930 . S
C1462 C1460 1.419 . S
C1462 C1463 1.362 . S
C1463 H1453 0.930 . S
C1463 C1456 1.409 . S
C1463 C1462 1.362 . S
H1464 C1470 0.930 . S
H1465 C1473 0.930 . S
H1466 C1474 0.930 . S
H1467 C1475 0.930 . S
H1468 C1478 0.930 . S
H1469 C1479 0.930 . S
C1470 H1464 0.930 . S
C1470 C1471 1.355 . S
C1470 C1472 1.415 . S
C1471 C1470 1.355 . S
C1471 C1473 1.419 . S
C1472 C1470 1.415 . S
C1472 C1477 1.425 . S
C1472 C1479 1.409 . S
C1473 H1465 0.930 . S
C1473 C1471 1.419 . S
C1473 C1474 1.362 . S
C1474 H1466 0.930 . S
C1474 C1473 1.362 . S
C1474 C1477 1.409 . S
C1475 H1467 0.930 . S
C1475 C1476 1.355 . S
C1475 C1477 1.415 . S
C1476 C1475 1.355 . S
C1476 C1478 1.419 . S
C1477 C1472 1.425 . S
C1477 C1474 1.409 . S
C1477 C1475 1.415 . S
C1478 H1468 0.930 . S
C1478 C1476 1.419 . S
C1478 C1479 1.362 . S
C1479 H1469 0.930 . S
C1479 C1472 1.409 . S
C1479 C1478 1.362 . S
H1480 C1486 0.930 1_554 S
H1481 C1489 0.930 . S
H1482 C1490 0.930 . S
H1483 C1491 0.930 . S
H1484 C1494 0.930 . S
H1485 C1495 0.930 1_554 S
C1486 H1480 0.930 1_556 S
C1486 C1487 1.355 . S
C1486 C1488 1.415 . S
C1487 C1486 1.355 . S
C1487 C1489 1.419 . S
C1488 C1486 1.415 . S
C1488 C1493 1.425 . S
C1488 C1495 1.409 . S
C1489 H1481 0.930 . S
C1489 C1487 1.419 . S
C1489 C1490 1.362 . S
C1490 H1482 0.930 . S
C1490 C1489 1.362 . S
C1490 C1493 1.409 . S
C1491 H1483 0.930 . S
C1491 C1492 1.355 . S
C1491 C1493 1.415 . S
C1492 C1491 1.355 . S
C1492 C1494 1.419 . S
C1493 C1488 1.425 . S
C1493 C1490 1.409 . S
C1493 C1491 1.415 . S
C1494 H1484 0.930 . S
C1494 C1492 1.419 . S
C1494 C1495 1.362 . S
C1495 H1485 0.930 1_556 S
C1495 C1488 1.409 . S
C1495 C1494 1.362 . S
H1496 C1502 0.930 . S
H1497 C1505 0.930 . S
H1498 C1506 0.930 . S
H1499 C1507 0.930 . S
H1500 C1510 0.930 . S
H1501 C1511 0.930 . S
C1502 H1496 0.930 . S
C1502 C1503 1.355 . S
C1502 C1504 1.415 . S
C1503 C1502 1.355 . S
C1503 C1505 1.419 . S
C1504 C1502 1.415 . S
C1504 C1509 1.425 . S
C1504 C1511 1.409 . S
C1505 H1497 0.930 . S
C1505 C1503 1.419 . S
C1505 C1506 1.362 . S
C1506 H1498 0.930 . S
C1506 C1505 1.362 . S
C1506 C1509 1.409 . S
C1507 H1499 0.930 . S
C1507 C1508 1.355 . S
C1507 C1509 1.415 . S
C1508 C1507 1.355 . S
C1508 C1510 1.419 . S
C1509 C1504 1.425 . S
C1509 C1506 1.409 . S
C1509 C1507 1.415 . S
C1510 H1500 0.930 . S
C1510 C1508 1.419 . S
C1510 C1511 1.362 . S
C1511 H1501 0.930 . S
C1511 C1504 1.409 . S
C1511 C1510 1.362 . S
H1512 C1518 0.930 . S
H1513 C1521 0.930 . S
H1514 C1522 0.930 . S
H1515 C1523 0.930 . S
H1516 C1526 0.930 . S
H1517 C1527 0.930 . S
C1518 H1512 0.930 . S
C1518 C1519 1.355 . S
C1518 C1520 1.415 . S
C1519 C1518 1.355 . S
C1519 C1521 1.419 . S
C1520 C1518 1.415 . S
C1520 C1525 1.425 . S
C1520 C1527 1.409 . S
C1521 H1513 0.930 . S
C1521 C1519 1.419 . S
C1521 C1522 1.362 . S
C1522 H1514 0.930 . S
C1522 C1521 1.362 . S
C1522 C1525 1.409 . S
C1523 H1515 0.930 . S
C1523 C1524 1.355 . S
C1523 C1525 1.415 . S
C1524 C1523 1.355 . S
C1524 C1526 1.419 . S
C1525 C1520 1.425 . S
C1525 C1522 1.409 . S
C1525 C1523 1.415 . S
C1526 H1516 0.930 . S
C1526 C1524 1.419 . S
C1526 C1527 1.362 . S
C1527 H1517 0.930 . S
C1527 C1520 1.409 . S
C1527 C1526 1.362 . S
H1528 C1534 0.930 . S
H1529 C1537 0.930 . S
H1530 C1538 0.930 . S
H1531 C1539 0.930 . S
H1532 C1542 0.930 . S
H1533 C1543 0.930 . S
C1534 H1528 0.930 . S
C1534 C1535 1.355 . S
C1534 C1536 1.415 . S
C1535 C1534 1.355 . S
C1535 C1537 1.419 . S
C1536 C1534 1.415 . S
C1536 C1541 1.425 . S
C1536 C1543 1.409 . S
C1537 H1529 0.930 . S
C1537 C1535 1.419 . S
C1537 C1538 1.362 . S
C1538 H1530 0.930 . S
C1538 C1537 1.362 . S
C1538 C1541 1.409 . S
C1539 H1531 0.930 . S
C1539 C1540 1.355 . S
C1539 C1541 1.415 . S
C1540 C1539 1.355 . S
C1540 C1542 1.419 . S
C1541 C1536 1.425 . S
C1541 C1538 1.409 . S
C1541 C1539 1.415 . S
C1542 H1532 0.930 . S
C1542 C1540 1.419 . S
C1542 C1543 1.362 . S
C1543 H1533 0.930 . S
C1543 C1536 1.409 . S
C1543 C1542 1.362 . S
H1544 C1550 0.930 . S
H1545 C1553 0.930 . S
H1546 C1554 0.930 . S
H1547 C1555 0.930 . S
H1548 C1558 0.930 . S
H1549 C1559 0.930 . S
C1550 H1544 0.930 . S
C1550 C1551 1.355 . S
C1550 C1552 1.415 . S
C1551 C1550 1.355 . S
C1551 C1553 1.419 . S
C1552 C1550 1.415 . S
C1552 C1557 1.425 . S
C1552 C1559 1.409 . S
C1553 H1545 0.930 . S
C1553 C1551 1.419 . S
C1553 C1554 1.362 . S
C1554 H1546 0.930 . S
C1554 C1553 1.362 . S
C1554 C1557 1.409 . S
C1555 H1547 0.930 . S
C1555 C1556 1.355 . S
C1555 C1557 1.415 . S
C1556 C1555 1.355 . S
C1556 C1558 1.419 . S
C1557 C1552 1.425 . S
C1557 C1554 1.409 . S
C1557 C1555 1.415 . S
C1558 H1548 0.930 . S
C1558 C1556 1.419 . S
C1558 C1559 1.362 . S
C1559 H1549 0.930 . S
C1559 C1552 1.409 . S
C1559 C1558 1.362 . S
H1560 C1566 0.930 . S
H1561 C1569 0.930 . S
H1562 C1570 0.930 . S
H1563 C1571 0.930 . S
H1564 C1574 0.930 . S
H1565 C1575 0.930 . S
C1566 H1560 0.930 . S
C1566 C1567 1.355 . S
C1566 C1568 1.415 . S
C1567 C1566 1.355 . S
C1567 C1569 1.419 . S
C1568 C1566 1.415 . S
C1568 C1573 1.425 1_455 S
C1568 C1575 1.409 1_455 S
C1569 H1561 0.930 . S
C1569 C1567 1.419 . S
C1569 C1570 1.362 . S
C1570 H1562 0.930 . S
C1570 C1569 1.362 . S
C1570 C1573 1.409 1_455 S
C1571 H1563 0.930 . S
C1571 C1572 1.355 . S
C1571 C1573 1.415 . S
C1572 C1571 1.355 . S
C1572 C1574 1.419 . S
C1573 C1568 1.425 1_655 S
C1573 C1570 1.409 1_655 S
C1573 C1571 1.415 . S
C1574 H1564 0.930 . S
C1574 C1572 1.419 . S
C1574 C1575 1.362 . S
C1575 H1565 0.930 . S
C1575 C1568 1.409 1_655 S
C1575 C1574 1.362 . S
H1576 C1582 0.930 . S
H1577 C1585 0.930 . S
H1578 C1586 0.930 . S
H1579 C1587 0.930 . S
H1580 C1590 0.930 . S
H1581 C1591 0.930 . S
C1582 H1576 0.930 . S
C1582 C1583 1.355 . S
C1582 C1584 1.415 . S
C1583 C1582 1.355 . S
C1583 C1585 1.419 . S
C1584 C1582 1.415 . S
C1584 C1589 1.425 . S
C1584 C1591 1.409 . S
C1585 H1577 0.930 . S
C1585 C1583 1.419 . S
C1585 C1586 1.362 . S
C1586 H1578 0.930 . S
C1586 C1585 1.362 . S
C1586 C1589 1.409 . S
C1587 H1579 0.930 . S
C1587 C1588 1.355 . S
C1587 C1589 1.415 . S
C1588 C1587 1.355 . S
C1588 C1590 1.419 . S
C1589 C1584 1.425 . S
C1589 C1586 1.409 . S
C1589 C1587 1.415 . S
C1590 H1580 0.930 . S
C1590 C1588 1.419 . S
C1590 C1591 1.362 . S
C1591 H1581 0.930 . S
C1591 C1584 1.409 . S
C1591 C1590 1.362 . S
H1592 C1598 0.930 . S
H1593 C1601 0.930 . S
H1594 C1602 0.930 . S
H1595 C1603 0.930 . S
H1596 C1606 0.930 . S
H1597 C1607 0.930 . S
C1598 H1592 0.930 . S
C1598 C1599 1.355 . S
C1598 C1600 1.415 . S
C1599 C1598 1.355 . S
C1599 C1601 1.419 . S
C1600 C1598 1.415 . S
C1600 C1605 1.425 1_565 S
C1600 C1607 1.409 1_565 S
C1601 H1593 0.930 . S
C1601 C1599 1.419 . S
C1601 C1602 1.362 . S
C1602 H1594 0.930 . S
C1602 C1601 1.362 . S
C1602 C1605 1.409 1_565 S
C1603 H1595 0.930 . S
C1603 C1604 1.355 . S
C1603 C1605 1.415 . S
C1604 C1603 1.355 . S
C1604 C1606 1.419 . S
C1605 C1600 1.425 1_545 S
C1605 C1602 1.409 1_545 S
C1605 C1603 1.415 . S
C1606 H1596 0.930 . S
C1606 C1604 1.419 . S
C1606 C1607 1.362 . S
C1607 H1597 0.930 . S
C1607 C1600 1.409 1_545 S
C1607 C1606 1.362 . S
H1608 C1614 0.930 . S
H1609 C1617 0.930 . S
H1610 C1618 0.930 . S
H1611 C1619 0.930 . S
H1612 C1622 0.930 . S
H1613 C1623 0.930 . S
C1614 H1608 0.930 . S
C1614 C1615 1.355 . S
C1614 C1616 1.415 . S
C1615 C1614 1.355 . S
C1615 C1617 1.419 . S
C1616 C1614 1.415 . S
C1616 C1621 1.425 1_545 S
C1616 C1623 1.409 1_545 S
C1617 H1609 0.930 . S
C1617 C1615 1.419 . S
C1617 C1618 1.362 . S
C1618 H1610 0.930 . S
C1618 C1617 1.362 . S
C1618 C1621 1.409 1_545 S
C1619 H1611 0.930 . S
C1619 C1620 1.355 . S
C1619 C1621 1.415 . S
C1620 C1619 1.355 . S
C1620 C1622 1.419 . S
C1621 C1616 1.425 1_565 S
C1621 C1618 1.409 1_565 S
C1621 C1619 1.415 . S
C1622 H1612 0.930 . S
C1622 C1620 1.419 . S
C1622 C1623 1.362 . S
C1623 H1613 0.930 . S
C1623 C1616 1.409 1_565 S
C1623 C1622 1.362 . S
H1624 C1630 0.930 . S
H1625 C1633 0.930 . S
H1626 C1634 0.930 . S
H1627 C1635 0.930 . S
H1628 C1638 0.930 . S
H1629 C1639 0.930 . S
C1630 H1624 0.930 . S
C1630 C1631 1.355 . S
C1630 C1632 1.415 . S
C1631 C1630 1.355 . S
C1631 C1633 1.419 . S
C1632 C1630 1.415 . S
C1632 C1637 1.425 1_455 S
C1632 C1639 1.409 1_455 S
C1633 H1625 0.930 . S
C1633 C1631 1.419 . S
C1633 C1634 1.362 . S
C1634 H1626 0.930 . S
C1634 C1633 1.362 . S
C1634 C1637 1.409 1_455 S
C1635 H1627 0.930 . S
C1635 C1636 1.355 . S
C1635 C1637 1.415 . S
C1636 C1635 1.355 . S
C1636 C1638 1.419 . S
C1637 C1632 1.425 1_655 S
C1637 C1634 1.409 1_655 S
C1637 C1635 1.415 . S
C1638 H1628 0.930 . S
C1638 C1636 1.419 . S
C1638 C1639 1.362 . S
C1639 H1629 0.930 . S
C1639 C1632 1.409 1_655 S
C1639 C1638 1.362 . S
H1640 C1646 0.930 . S
H1641 C1649 0.930 . S
H1642 C1650 0.930 . S
H1643 C1651 0.930 . S
H1644 C1654 0.930 . S
H1645 C1655 0.930 . S
C1646 H1640 0.930 . S
C1646 C1647 1.355 . S
C1646 C1648 1.415 . S
C1647 C1646 1.355 . S
C1647 C1649 1.419 . S
C1648 C1646 1.415 . S
C1648 C1653 1.425 . S
C1648 C1655 1.409 . S
C1649 H1641 0.930 . S
C1649 C1647 1.419 . S
C1649 C1650 1.362 . S
C1650 H1642 0.930 . S
C1650 C1649 1.362 . S
C1650 C1653 1.409 . S
C1651 H1643 0.930 . S
C1651 C1652 1.355 . S
C1651 C1653 1.415 . S
C1652 C1651 1.355 . S
C1652 C1654 1.419 . S
C1653 C1648 1.425 . S
C1653 C1650 1.409 . S
C1653 C1651 1.415 . S
C1654 H1644 0.930 . S
C1654 C1652 1.419 . S
C1654 C1655 1.362 . S
C1655 H1645 0.930 . S
C1655 C1648 1.409 . S
C1655 C1654 1.362 . S
C511 C50 1.170 . S
C516 C8 1.166 . S
C527 C64 1.173 . S
C532 C22 1.167 . S
C543 C78 1.167 . S
C548 C36 1.169 . S
C559 C92 1.168 . S
C564 C134 1.174 . S
C575 C106 1.166 . S
C580 C148 1.170 . S
C591 C162 1.168 . S
C596 C120 1.174 . S
C607 C176 1.154 . S
C612 C218 1.161 . S
C623 C190 1.167 . S
C628 C232 1.163 . S
C639 C204 1.156 . S
C644 C246 1.162 . S
C655 C260 1.162 . S
C660 C302 1.154 . S
C671 C316 1.160 . S
C676 C274 1.164 . S
C687 C288 1.155 . S
C692 C330 1.161 . S
C703 C344 1.159 . S
C708 C386 1.152 . S
C719 C358 1.153 . S
C724 C400 1.151 . S
C735 C414 1.162 . S
C740 C372 1.155 . S
C751 C470 1.158 . S
C756 C428 1.164 . S
C767 C484 1.162 . S
C772 C442 1.167 . S
C783 C498 1.167 . S
C788 C456 1.161 . S
C799 C161 1.519 . S
C804 C9 1.508 1_556 S
C815 C23 1.518 1_556 S
C820 C133 1.511 . S
C831 C37 1.511 1_556 S
C836 C147 1.466 . S
C847 C105 1.460 . S
C852 C51 1.556 . S
C863 C65 1.549 . S
C868 C119 1.490 . S
C879 C91 1.459 . S
C884 C79 1.534 . S
C895 C93 1.504 1_554 S
C900 C77 1.521 . S
C911 C107 1.525 1_554 S
C916 C49 1.449 . S
C927 C63 1.474 . S
C932 C121 1.506 1_554 S
C943 C21 1.523 . S
C948 C135 1.504 . S
C959 C35 1.511 . S
C964 C149 1.504 . S
C975 C163 1.511 . S
C980 C7 1.492 . S
C991 C177 1.519 . S
C996 C329 1.445 . S
C1007 C301 1.418 . S
C1012 C191 1.520 . S
C1023 C315 1.483 . S
C1028 C205 1.468 . S
C1039 C219 1.549 . S
C1044 C273 1.441 . S
C1055 C287 1.470 . S
C1060 C233 1.547 . S
C1071 C247 1.511 . S
C1076 C259 1.518 . S
C1087 C261 1.527 . S
C1092 C245 1.497 . S
C1103 C275 1.516 . S
C1108 C217 1.509 . S
C1119 C231 1.437 . S
C1124 C289 1.545 . S
C1135 C189 1.492 . S
C1140 C303 1.536 . S
C1151 C203 1.485 . S
C1156 C317 1.540 . S
C1167 C331 1.567 . S
C1172 C175 1.495 . S
C1183 C497 1.516 . S
C1188 C345 1.501 . S
C1199 C359 1.543 . S
C1204 C469 1.435 . S
C1215 C373 1.528 . S
C1220 C483 1.495 . S
C1231 C387 1.560 . S
C1236 C441 1.466 . S
C1247 C455 1.538 . S
C1252 C401 1.523 . S
C1263 C415 1.526 . S
C1268 C427 1.543 . S
C1279 C413 1.464 . S
C1284 C429 1.508 . S
C1295 C385 1.474 . S
C1300 C443 1.469 . S
C1311 C399 1.465 . S
C1316 C457 1.472 . S
C1327 C357 1.461 . S
C1332 C471 1.549 . S
C1343 C371 1.446 . S
C1348 C485 1.530 . S
C1359 C343 1.461 . S
C1364 C499 1.517 . S
C1375 C409 1.406 . S
C1380 C3 1.407 . S
C1391 C17 1.395 . S
C1396 C381 1.409 . S
C1407 C395 1.396 . S
C1412 C31 1.416 . S
C1423 C45 1.389 . S
C1428 C185 1.420 . S
C1439 C199 1.389 . S
C1444 C59 1.420 . S
C1455 C73 1.397 . S
C1460 C171 1.418 . S
C1471 C87 1.418 . S
C1476 C325 1.388 . S
C1487 C297 1.419 . S
C1492 C101 1.391 . S
C1503 C115 1.393 . S
C1508 C311 1.418 . S
C1519 C129 1.415 . S
C1524 C437 1.401 . S
C1535 C143 1.422 . S
C1540 C451 1.391 . S
C1551 C423 1.404 . S
C1556 C157 1.402 . S
C1567 C353 1.390 . S
C1572 C213 1.421 . S
C1583 C367 1.395 . S
C1588 C227 1.411 . S
C1599 C339 1.394 . S
C1604 C241 1.412 . S
C1615 C255 1.423 . S
C1620 C493 1.393 . S
C1631 C465 1.391 . S
C1636 C269 1.423 . S
C1647 C283 1.402 . S
C1652 C479 1.419 . S
