# Generated by pormake.
# Topology ato, (4)-cn, num edge types: 1
# Building blocks:
#     Node 0, Type 0, BuildingBlock: NAHDIM_clean_sbu_0, # of connection points: 4
#     Node 1, Type 0, BuildingBlock: NAHDIM_clean_sbu_0, # of connection points: 4
#     Node 2, Type 0, BuildingBlock: NAHDIM_clean_sbu_0, # of connection points: 4
#     Node 3, Type 0, BuildingBlock: NAHDIM_clean_sbu_0, # of connection points: 4
#     Node 4, Type 0, BuildingBlock: NAHDIM_clean_sbu_0, # of connection points: 4
#     Node 5, Type 0, BuildingBlock: NAHDIM_clean_sbu_0, # of connection points: 4
#     Node 6, Type 0, BuildingBlock: NAHDIM_clean_sbu_0, # of connection points: 4
#     Node 7, Type 0, BuildingBlock: NAHDIM_clean_sbu_0, # of connection points: 4
#     Node 8, Type 0, BuildingBlock: NAHDIM_clean_sbu_0, # of connection points: 4
#     Node 9, Type 0, BuildingBlock: NAHDIM_clean_sbu_0, # of connection points: 4
#     Node 10, Type 0, BuildingBlock: NAHDIM_clean_sbu_0, # of connection points: 4
#     Node 11, Type 0, BuildingBlock: NAHDIM_clean_sbu_0, # of connection points: 4
#     Node 12, Type 0, BuildingBlock: NAHDIM_clean_sbu_0, # of connection points: 4
#     Node 13, Type 0, BuildingBlock: NAHDIM_clean_sbu_0, # of connection points: 4
#     Node 14, Type 0, BuildingBlock: NAHDIM_clean_sbu_0, # of connection points: 4
#     Node 15, Type 0, BuildingBlock: NAHDIM_clean_sbu_0, # of connection points: 4
#     Node 16, Type 0, BuildingBlock: NAHDIM_clean_sbu_0, # of connection points: 4
#     Node 17, Type 0, BuildingBlock: NAHDIM_clean_sbu_0, # of connection points: 4
#     Node 18, Type 0, BuildingBlock: NAHDIM_clean_sbu_0, # of connection points: 4
#     Node 19, Type 0, BuildingBlock: NAHDIM_clean_sbu_0, # of connection points: 4
#     Node 20, Type 0, BuildingBlock: NAHDIM_clean_sbu_0, # of connection points: 4
#     Node 21, Type 0, BuildingBlock: NAHDIM_clean_sbu_0, # of connection points: 4
#     Node 22, Type 0, BuildingBlock: NAHDIM_clean_sbu_0, # of connection points: 4
#     Node 23, Type 0, BuildingBlock: NAHDIM_clean_sbu_0, # of connection points: 4
#     Node 24, Type 0, BuildingBlock: NAHDIM_clean_sbu_0, # of connection points: 4
#     Node 25, Type 0, BuildingBlock: NAHDIM_clean_sbu_0, # of connection points: 4
#     Node 26, Type 0, BuildingBlock: NAHDIM_clean_sbu_0, # of connection points: 4
#     Node 27, Type 0, BuildingBlock: NAHDIM_clean_sbu_0, # of connection points: 4
#     Node 28, Type 0, BuildingBlock: NAHDIM_clean_sbu_0, # of connection points: 4
#     Node 29, Type 0, BuildingBlock: NAHDIM_clean_sbu_0, # of connection points: 4
#     Node 30, Type 0, BuildingBlock: NAHDIM_clean_sbu_0, # of connection points: 4
#     Node 31, Type 0, BuildingBlock: NAHDIM_clean_sbu_0, # of connection points: 4
#     Node 32, Type 0, BuildingBlock: NAHDIM_clean_sbu_0, # of connection points: 4
#     Node 33, Type 0, BuildingBlock: NAHDIM_clean_sbu_0, # of connection points: 4
#     Node 34, Type 0, BuildingBlock: NAHDIM_clean_sbu_0, # of connection points: 4
#     Node 35, Type 0, BuildingBlock: NAHDIM_clean_sbu_0, # of connection points: 4
#     Edge 36, Type (0, 0), BuildingBlock: XUDNAN_clean_linker_2, # of connection points: 2
#     Edge 37, Type (0, 0), BuildingBlock: XUDNAN_clean_linker_2, # of connection points: 2
#     Edge 38, Type (0, 0), BuildingBlock: XUDNAN_clean_linker_2, # of connection points: 2
#     Edge 39, Type (0, 0), BuildingBlock: XUDNAN_clean_linker_2, # of connection points: 2
#     Edge 40, Type (0, 0), BuildingBlock: XUDNAN_clean_linker_2, # of connection points: 2
#     Edge 41, Type (0, 0), BuildingBlock: XUDNAN_clean_linker_2, # of connection points: 2
#     Edge 42, Type (0, 0), BuildingBlock: XUDNAN_clean_linker_2, # of connection points: 2
#     Edge 43, Type (0, 0), BuildingBlock: XUDNAN_clean_linker_2, # of connection points: 2
#     Edge 44, Type (0, 0), BuildingBlock: XUDNAN_clean_linker_2, # of connection points: 2
#     Edge 45, Type (0, 0), BuildingBlock: XUDNAN_clean_linker_2, # of connection points: 2
#     Edge 46, Type (0, 0), BuildingBlock: XUDNAN_clean_linker_2, # of connection points: 2
#     Edge 47, Type (0, 0), BuildingBlock: XUDNAN_clean_linker_2, # of connection points: 2
#     Edge 48, Type (0, 0), BuildingBlock: XUDNAN_clean_linker_2, # of connection points: 2
#     Edge 49, Type (0, 0), BuildingBlock: XUDNAN_clean_linker_2, # of connection points: 2
#     Edge 50, Type (0, 0), BuildingBlock: XUDNAN_clean_linker_2, # of connection points: 2
#     Edge 51, Type (0, 0), BuildingBlock: XUDNAN_clean_linker_2, # of connection points: 2
#     Edge 52, Type (0, 0), BuildingBlock: XUDNAN_clean_linker_2, # of connection points: 2
#     Edge 53, Type (0, 0), BuildingBlock: XUDNAN_clean_linker_2, # of connection points: 2
#     Edge 54, Type (0, 0), BuildingBlock: XUDNAN_clean_linker_2, # of connection points: 2
#     Edge 55, Type (0, 0), BuildingBlock: XUDNAN_clean_linker_2, # of connection points: 2
#     Edge 56, Type (0, 0), BuildingBlock: XUDNAN_clean_linker_2, # of connection points: 2
#     Edge 57, Type (0, 0), BuildingBlock: XUDNAN_clean_linker_2, # of connection points: 2
#     Edge 58, Type (0, 0), BuildingBlock: XUDNAN_clean_linker_2, # of connection points: 2
#     Edge 59, Type (0, 0), BuildingBlock: XUDNAN_clean_linker_2, # of connection points: 2
#     Edge 60, Type (0, 0), BuildingBlock: XUDNAN_clean_linker_2, # of connection points: 2
#     Edge 61, Type (0, 0), BuildingBlock: XUDNAN_clean_linker_2, # of connection points: 2
#     Edge 62, Type (0, 0), BuildingBlock: XUDNAN_clean_linker_2, # of connection points: 2
#     Edge 63, Type (0, 0), BuildingBlock: XUDNAN_clean_linker_2, # of connection points: 2
#     Edge 64, Type (0, 0), BuildingBlock: XUDNAN_clean_linker_2, # of connection points: 2
#     Edge 65, Type (0, 0), BuildingBlock: XUDNAN_clean_linker_2, # of connection points: 2
#     Edge 66, Type (0, 0), BuildingBlock: XUDNAN_clean_linker_2, # of connection points: 2
#     Edge 67, Type (0, 0), BuildingBlock: XUDNAN_clean_linker_2, # of connection points: 2
#     Edge 68, Type (0, 0), BuildingBlock: XUDNAN_clean_linker_2, # of connection points: 2
#     Edge 69, Type (0, 0), BuildingBlock: XUDNAN_clean_linker_2, # of connection points: 2
#     Edge 70, Type (0, 0), BuildingBlock: XUDNAN_clean_linker_2, # of connection points: 2
#     Edge 71, Type (0, 0), BuildingBlock: XUDNAN_clean_linker_2, # of connection points: 2
#     Edge 72, Type (0, 0), BuildingBlock: XUDNAN_clean_linker_2, # of connection points: 2
#     Edge 73, Type (0, 0), BuildingBlock: XUDNAN_clean_linker_2, # of connection points: 2
#     Edge 74, Type (0, 0), BuildingBlock: XUDNAN_clean_linker_2, # of connection points: 2
#     Edge 75, Type (0, 0), BuildingBlock: XUDNAN_clean_linker_2, # of connection points: 2
#     Edge 76, Type (0, 0), BuildingBlock: XUDNAN_clean_linker_2, # of connection points: 2
#     Edge 77, Type (0, 0), BuildingBlock: XUDNAN_clean_linker_2, # of connection points: 2
#     Edge 78, Type (0, 0), BuildingBlock: XUDNAN_clean_linker_2, # of connection points: 2
#     Edge 79, Type (0, 0), BuildingBlock: XUDNAN_clean_linker_2, # of connection points: 2
#     Edge 80, Type (0, 0), BuildingBlock: XUDNAN_clean_linker_2, # of connection points: 2
#     Edge 81, Type (0, 0), BuildingBlock: XUDNAN_clean_linker_2, # of connection points: 2
#     Edge 82, Type (0, 0), BuildingBlock: XUDNAN_clean_linker_2, # of connection points: 2
#     Edge 83, Type (0, 0), BuildingBlock: XUDNAN_clean_linker_2, # of connection points: 2
#     Edge 84, Type (0, 0), BuildingBlock: XUDNAN_clean_linker_2, # of connection points: 2
#     Edge 85, Type (0, 0), BuildingBlock: XUDNAN_clean_linker_2, # of connection points: 2
#     Edge 86, Type (0, 0), BuildingBlock: XUDNAN_clean_linker_2, # of connection points: 2
#     Edge 87, Type (0, 0), BuildingBlock: XUDNAN_clean_linker_2, # of connection points: 2
#     Edge 88, Type (0, 0), BuildingBlock: XUDNAN_clean_linker_2, # of connection points: 2
#     Edge 89, Type (0, 0), BuildingBlock: XUDNAN_clean_linker_2, # of connection points: 2
#     Edge 90, Type (0, 0), BuildingBlock: XUDNAN_clean_linker_2, # of connection points: 2
#     Edge 91, Type (0, 0), BuildingBlock: XUDNAN_clean_linker_2, # of connection points: 2
#     Edge 92, Type (0, 0), BuildingBlock: XUDNAN_clean_linker_2, # of connection points: 2
#     Edge 93, Type (0, 0), BuildingBlock: XUDNAN_clean_linker_2, # of connection points: 2
#     Edge 94, Type (0, 0), BuildingBlock: XUDNAN_clean_linker_2, # of connection points: 2
#     Edge 95, Type (0, 0), BuildingBlock: XUDNAN_clean_linker_2, # of connection points: 2
#     Edge 96, Type (0, 0), BuildingBlock: XUDNAN_clean_linker_2, # of connection points: 2
#     Edge 97, Type (0, 0), BuildingBlock: XUDNAN_clean_linker_2, # of connection points: 2
#     Edge 98, Type (0, 0), BuildingBlock: XUDNAN_clean_linker_2, # of connection points: 2
#     Edge 99, Type (0, 0), BuildingBlock: XUDNAN_clean_linker_2, # of connection points: 2
#     Edge 100, Type (0, 0), BuildingBlock: XUDNAN_clean_linker_2, # of connection points: 2
#     Edge 101, Type (0, 0), BuildingBlock: XUDNAN_clean_linker_2, # of connection points: 2
#     Edge 102, Type (0, 0), BuildingBlock: XUDNAN_clean_linker_2, # of connection points: 2
#     Edge 103, Type (0, 0), BuildingBlock: XUDNAN_clean_linker_2, # of connection points: 2
#     Edge 104, Type (0, 0), BuildingBlock: XUDNAN_clean_linker_2, # of connection points: 2
#     Edge 105, Type (0, 0), BuildingBlock: XUDNAN_clean_linker_2, # of connection points: 2
#     Edge 106, Type (0, 0), BuildingBlock: XUDNAN_clean_linker_2, # of connection points: 2
#     Edge 107, Type (0, 0), BuildingBlock: XUDNAN_clean_linker_2, # of connection points: 2
# Relax obj value: 0.059
# Max RMSD: 0.064
# Mean RMSD: 0.064
data_MOF--net-ato--node1-NAHDIM_clean_sbu_0--edge1-XUDNAN_clean_linker_2
_symmetry_space_group_name_H-M    P1
_symmetry_Int_Tables_number       1
_symmetry_cell_setting            triclinic
loop_
_symmetry_equiv_pos_as_xyz
'x, y, z'
_cell_length_a     101.0001
_cell_length_b     100.98858
_cell_length_c     24.371395
_cell_angle_alpha  89.98005
_cell_angle_beta   90.012193
_cell_angle_gamma 120.00036
loop_
_atom_site_label
_atom_site_type_symbol
_atom_site_fract_x
_atom_site_fract_y
_atom_site_fract_z
_atom_type_partial_charge
C0 C 0.23812 0.0366 0.36973 0.0
O1 O 0.22628 0.03691 0.34893 0.0
O2 O 0.24344 0.06741 0.28118 0.0
Zn3 Zn 0.25082 0.05234 0.27067 0.0
O4 O 0.23698 0.03485 0.22129 0.0
C5 C 0.27674 0.07453 0.20744 0.0
O6 O 0.26741 0.07967 0.19609 0.0
O7 O 0.25069 0.04304 0.3436 0.0
C8 C 0.23841 0.03531 0.16943 0.0
O9 O 0.24879 0.04799 0.14591 0.0
C10 C 0.23621 0.07036 0.24503 0.0
O11 O 0.23272 0.06296 0.19816 0.0
O12 O 0.27224 0.06305 0.23914 0.0
C13 C 0.96539 0.20813 0.36672 0.0
O14 O 0.96062 0.19362 0.35738 0.0
O15 O 0.93435 0.184 0.2776 0.0
Zn16 Zn 0.95116 0.20551 0.2626 0.0
O17 O 0.9665 0.20529 0.2106 0.0
C18 C 0.9293 0.21559 0.24056 0.0
O19 O 0.92095 0.20519 0.27721 0.0
O20 O 0.96231 0.21562 0.33213 0.0
C21 C 0.96567 0.20688 0.15922 0.0
O22 O 0.95427 0.20819 0.13959 0.0
C23 C 0.92523 0.17616 0.23937 0.0
O24 O 0.927 0.1823 0.19046 0.0
O25 O 0.9425 0.21777 0.22887 0.0
C26 C 0.80006 0.76173 0.38148 0.0
O27 O 0.8112 0.77392 0.35782 0.0
O28 O 0.82739 0.75529 0.30166 0.0
Zn29 Zn 0.80509 0.74799 0.28859 0.0
O30 O 0.80193 0.76145 0.23512 0.0
C31 C 0.80187 0.72197 0.22886 0.0
O32 O 0.81592 0.73191 0.21416 0.0
O33 O 0.79542 0.74873 0.35958 0.0
C34 C 0.79881 0.75815 0.18471 0.0
O35 O 0.79837 0.74584 0.16498 0.0
C36 C 0.83795 0.76294 0.26718 0.0
O37 O 0.83452 0.7671 0.22066 0.0
O38 O 0.79476 0.72619 0.261 0.0
C39 C 0.03163 0.24081 0.69175 0.0
O40 O 0.02878 0.22883 0.72153 0.0
O41 O 0.07024 0.25032 0.76201 0.0
Zn42 Zn 0.05429 0.2564 0.77522 0.0
O43 O 0.03992 0.24353 0.83488 0.0
C44 C 0.07742 0.28864 0.7853 0.0
O45 O 0.08525 0.28519 0.75093 0.0
O46 O 0.04224 0.25394 0.70644 0.0
C47 C 0.04481 0.24072 0.87885 0.0
O48 O 0.05954 0.24593 0.88455 0.0
C49 C 0.06705 0.23645 0.76346 0.0
O50 O 0.05292 0.22568 0.77321 0.0
O51 O 0.06421 0.27827 0.80044 0.0
C52 C 0.7627 0.7935 0.69872 0.0
O53 O 0.77168 0.8082 0.7073 0.0
O54 O 0.75536 0.8177 0.78811 0.0
Zn55 Zn 0.74664 0.79496 0.79597 0.0
O56 O 0.75518 0.79056 0.86344 0.0
C57 C 0.7175 0.79069 0.77088 0.0
O58 O 0.72603 0.80149 0.73572 0.0
O59 O 0.75144 0.78588 0.73062 0.0
C60 C 0.75668 0.7975 0.90849 0.0
O61 O 0.75221 0.80767 0.91162 0.0
C62 C 0.76884 0.82796 0.80103 0.0
O63 O 0.77855 0.82393 0.81936 0.0
O64 O 0.72381 0.78545 0.80247 0.0
C65 C 0.20409 0.96877 0.69038 0.0
O66 O 0.19027 0.9656 0.7047 0.0
O67 O 0.17734 0.9337 0.75746 0.0
Zn68 Zn 0.19948 0.9477 0.77737 0.0
O69 O 0.20188 0.95983 0.8456 0.0
C70 C 0.20591 0.92405 0.75362 0.0
O71 O 0.1969 0.92244 0.71216 0.0
O72 O 0.21036 0.96233 0.71565 0.0
C73 C 0.20083 0.95435 0.89337 0.0
O74 O 0.19771 0.94013 0.89889 0.0
C75 C 0.1664 0.92816 0.7918 0.0
O76 O 0.16916 0.93241 0.84337 0.0
O77 O 0.20904 0.93458 0.78841 0.0
C78 C 0.76365 0.96398 0.67416 0.0
O79 O 0.75584 0.96861 0.70361 0.0
O80 O 0.76104 0.92556 0.7729 0.0
Zn81 Zn 0.75755 0.9434 0.7655 0.0
O82 O 0.76879 0.95854 0.82606 0.0
C83 C 0.72443 0.92246 0.77005 0.0
O84 O 0.72787 0.91172 0.76061 0.0
O85 O 0.76567 0.95334 0.69242 0.0
C86 C 0.76286 0.96579 0.84792 0.0
O87 O 0.74966 0.96353 0.82967 0.0
C88 C 0.77439 0.92769 0.78115 0.0
O89 O 0.78591 0.94173 0.78544 0.0
O90 O 0.73507 0.93633 0.77212 0.0
C91 C 0.04173 0.80321 0.63484 0.0
O92 O 0.04583 0.81577 0.66292 0.0
O93 O 0.06937 0.81995 0.73089 0.0
Zn94 Zn 0.05282 0.79769 0.73222 0.0
O95 O 0.03561 0.79367 0.78457 0.0
C96 C 0.07262 0.79009 0.79038 0.0
O97 O 0.07704 0.80369 0.81091 0.0
O98 O 0.04359 0.79275 0.65617 0.0
C99 C 0.03633 0.79272 0.83639 0.0
O100 O 0.04907 0.79493 0.85895 0.0
C101 C 0.07203 0.83018 0.76647 0.0
O102 O 0.06368 0.82659 0.81118 0.0
O103 O 0.06231 0.78478 0.75354 0.0
C104 C 0.20014 0.2367 0.64633 0.0
O105 O 0.19258 0.22514 0.68 0.0
O106 O 0.17322 0.24668 0.73004 0.0
Zn107 Zn 0.19543 0.25285 0.73351 0.0
O108 O 0.199 0.24068 0.79113 0.0
C109 C 0.20302 0.27869 0.79922 0.0
O110 O 0.19162 0.26801 0.82763 0.0
O111 O 0.20271 0.24989 0.66034 0.0
C112 C 0.21222 0.24645 0.81247 0.0
O113 O 0.22303 0.25993 0.79567 0.0
C114 C 0.16226 0.23314 0.73744 0.0
O115 O 0.16526 0.2221 0.74674 0.0
O116 O 0.20705 0.27501 0.75504 0.0
C117 C 0.97777 0.77192 0.3045 0.0
O118 O 0.97531 0.78021 0.26883 0.0
O119 O 0.93749 0.75392 0.26063 0.0
Zn120 Zn 0.954 0.749 0.24164 0.0
O121 O 0.96462 0.75843 0.17034 0.0
C122 C 0.93114 0.71764 0.22092 0.0
O123 O 0.92276 0.72388 0.20933 0.0
O124 O 0.96977 0.75744 0.30156 0.0
C125 C 0.95819 0.75505 0.12358 0.0
O126 O 0.94348 0.74521 0.12022 0.0
C127 C 0.93388 0.76241 0.23351 0.0
O128 O 0.94132 0.76902 0.18825 0.0
O129 O 0.94489 0.72616 0.23644 0.0
C130 C 0.2347 0.20261 0.32778 0.0
O131 O 0.22951 0.18783 0.33105 0.0
O132 O 0.24467 0.17926 0.25148 0.0
Zn133 Zn 0.25116 0.20103 0.23212 0.0
O134 O 0.2424 0.20213 0.15934 0.0
C135 C 0.28253 0.21427 0.19093 0.0
O136 O 0.27611 0.20719 0.14491 0.0
O137 O 0.24384 0.21025 0.2893 0.0
C138 C 0.24748 0.21496 0.13556 0.0
O139 O 0.25869 0.22723 0.15847 0.0
C140 C 0.24158 0.1691 0.21514 0.0
O141 O 0.24236 0.1728 0.16307 0.0
O142 O 0.27415 0.21319 0.23152 0.0
C143 C 0.802 0.02583 0.3389 0.0
O144 O 0.81128 0.02605 0.30068 0.0
O145 O 0.82455 0.06694 0.28287 0.0
Zn146 Zn 0.80338 0.04925 0.27049 0.0
O147 O 0.80323 0.03768 0.20298 0.0
C148 C 0.79176 0.07064 0.26479 0.0
O149 O 0.80526 0.08073 0.28386 0.0
O150 O 0.79692 0.03505 0.33532 0.0
C151 C 0.79068 0.0299 0.17745 0.0
O152 O 0.77835 0.02964 0.19606 0.0
C153 C 0.83177 0.07578 0.24317 0.0
O154 O 0.82528 0.07297 0.19456 0.0
O155 O 0.78857 0.05688 0.258 0.0
C156 C 0.92141 0.37718 0.67661 0.0
O157 O 0.93291 0.39115 0.66985 0.0
O158 O 0.91689 0.39731 0.55352 0.0
Zn159 Zn 0.91972 0.37905 0.56 0.0
O160 O 0.90735 0.36356 0.50258 0.0
C161 C 0.94675 0.37897 0.51907 0.0
O162 O 0.93683 0.36527 0.50101 0.0
O163 O 0.91387 0.36965 0.63491 0.0
C164 C 0.89429 0.36076 0.48584 0.0
O165 O 0.88792 0.36813 0.50752 0.0
C166 C 0.90855 0.40022 0.58456 0.0
O167 O 0.90061 0.39058 0.62383 0.0
O168 O 0.94201 0.38656 0.54606 0.0
C169 C 0.63286 0.53747 0.6738 0.0
O170 O 0.62336 0.52264 0.6746 0.0
O171 O 0.6013 0.51509 0.58586 0.0
Zn172 Zn 0.61803 0.53656 0.57012 0.0
O173 O 0.63033 0.53676 0.5047 0.0
C174 C 0.59559 0.54679 0.56827 0.0
O175 O 0.58689 0.53416 0.59571 0.0
O176 O 0.63236 0.54537 0.63412 0.0
C177 C 0.62935 0.54206 0.45851 0.0
O178 O 0.61967 0.54706 0.45254 0.0
C179 C 0.59176 0.50739 0.54849 0.0
O180 O 0.59321 0.51358 0.49984 0.0
O181 O 0.609 0.54999 0.55449 0.0
C182 C 0.46305 0.10632 0.64795 0.0
O183 O 0.46895 0.11315 0.60105 0.0
O184 O 0.48633 0.08896 0.58526 0.0
Zn185 Zn 0.464 0.08208 0.59223 0.0
O186 O 0.45605 0.08649 0.52308 0.0
C187 C 0.45076 0.05117 0.5608 0.0
O188 O 0.45662 0.05801 0.51387 0.0
O189 O 0.46019 0.09267 0.65504 0.0
C190 C 0.4643 0.0956 0.48547 0.0
O191 O 0.47925 0.10304 0.49082 0.0
C192 C 0.49228 0.08413 0.62014 0.0
O193 O 0.4838 0.07538 0.66053 0.0
O194 O 0.45246 0.05928 0.60295 0.0
C195 C 0.70196 0.56785 0.9911 0.0
O196 O 0.69789 0.55611 0.02392 0.0
O197 O 0.73941 0.57554 0.06575 0.0
Zn198 Zn 0.72523 0.58392 0.07341 0.0
O199 O 0.71107 0.57355 0.13693 0.0
C200 C 0.73716 0.61407 0.12582 0.0
O201 O 0.72595 0.60707 0.16119 0.0
O202 O 0.71332 0.58073 0.00393 0.0
C203 C 0.69875 0.57385 0.14331 0.0
O204 O 0.69514 0.58131 0.10771 0.0
C205 C 0.73564 0.56174 0.07557 0.0
O206 O 0.72147 0.55194 0.08942 0.0
O207 O 0.73856 0.60652 0.08677 0.0
C208 C 0.42394 0.13786 0.96054 0.0
O209 O 0.41957 0.1481 0.96356 0.0
O210 O 0.42395 0.15647 0.08527 0.0
Zn211 Zn 0.41498 0.13388 0.07333 0.0
O212 O 0.41991 0.12453 0.13716 0.0
C213 C 0.38295 0.11256 0.09462 0.0
O214 O 0.38838 0.10485 0.12036 0.0
O215 O 0.42286 0.13001 0.00284 0.0
C216 C 0.43326 0.12844 0.15418 0.0
O217 O 0.44519 0.13939 0.12882 0.0
C218 C 0.4374 0.16674 0.07206 0.0
O219 O 0.44678 0.16272 0.05029 0.0
O220 O 0.39214 0.12488 0.06996 0.0
C221 C 0.88308 0.3122 0.00422 0.0
O222 O 0.8888 0.3144 0.05397 0.0
O223 O 0.84202 0.26584 0.02905 0.0
Zn224 Zn 0.86258 0.28327 0.05142 0.0
O225 O 0.86096 0.29292 0.12202 0.0
C226 C 0.8724 0.2632 0.09418 0.0
O227 O 0.85887 0.25702 0.11749 0.0
O228 O 0.87144 0.2994 0.99247 0.0
C229 C 0.8709 0.29655 0.15966 0.0
O230 O 0.88223 0.29386 0.15239 0.0
C231 C 0.82977 0.2625 0.0546 0.0
O232 O 0.83025 0.2712 0.09549 0.0
O233 O 0.87658 0.27469 0.06288 0.0
C234 C 0.42718 0.30008 0.00367 0.0
O235 O 0.42347 0.30752 0.03889 0.0
O236 O 0.42708 0.26261 0.10009 0.0
Zn237 Zn 0.42143 0.27906 0.0946 0.0
O238 O 0.43286 0.29574 0.15048 0.0
C239 C 0.39457 0.26797 0.15892 0.0
O240 O 0.40496 0.27245 0.19773 0.0
O241 O 0.42676 0.28782 0.0186 0.0
C242 C 0.44324 0.29635 0.18173 0.0
O243 O 0.44736 0.28597 0.17701 0.0
C244 C 0.43938 0.26448 0.07867 0.0
O245 O 0.44863 0.27751 0.05428 0.0
O246 O 0.39881 0.2696 0.10906 0.0
C247 C 0.69658 0.12838 0.00017 0.0
O248 O 0.70225 0.14306 0.00941 0.0
O249 O 0.73342 0.15139 0.06453 0.0
Zn250 Zn 0.71616 0.13107 0.09015 0.0
O251 O 0.7049 0.13298 0.15471 0.0
C252 C 0.73774 0.12264 0.13232 0.0
O253 O 0.74662 0.1375 0.13738 0.0
O254 O 0.70103 0.12092 0.02933 0.0
C255 C 0.71119 0.13826 0.20085 0.0
O256 O 0.72595 0.14361 0.20634 0.0
C257 C 0.73531 0.16428 0.07934 0.0
O258 O 0.72546 0.16484 0.11307 0.0
O259 O 0.72441 0.11737 0.11238 0.0
C260 C 0.86373 0.56099 0.02643 0.0
O261 O 0.8493 0.55709 0.02079 0.0
O262 O 0.84085 0.57046 0.11251 0.0
Zn263 Zn 0.86219 0.57497 0.12947 0.0
O264 O 0.86187 0.56311 0.19548 0.0
C265 C 0.87219 0.60737 0.14501 0.0
O266 O 0.85806 0.60339 0.13181 0.0
O267 O 0.87114 0.56873 0.06799 0.0
C268 C 0.85549 0.56318 0.24026 0.0
O269 O 0.84847 0.57114 0.2438 0.0
C270 C 0.82948 0.55705 0.11807 0.0
O271 O 0.83182 0.54596 0.13404 0.0
O272 O 0.8762 0.59729 0.14592 0.0
C273 C 0.63022 0.09628 0.67622 0.0
O274 O 0.63225 0.10842 0.64927 0.0
O275 O 0.5987 0.08703 0.57267 0.0
Zn276 Zn 0.61528 0.0816 0.57644 0.0
O277 O 0.6331 0.09621 0.53053 0.0
C278 C 0.59631 0.05305 0.5178 0.0
O279 O 0.5888 0.05983 0.5014 0.0
O280 O 0.62278 0.08324 0.65361 0.0
C281 C 0.6317 0.09794 0.47969 0.0
O282 O 0.61817 0.09011 0.45667 0.0
C283 C 0.5881 0.08195 0.60828 0.0
O284 O 0.58818 0.07315 0.64788 0.0
O285 O 0.60774 0.06014 0.5495 0.0
C286 C 0.89715 0.52575 0.70964 0.0
O287 O 0.88591 0.51933 0.67404 0.0
O288 O 0.91469 0.5086 0.59809 0.0
Zn289 Zn 0.91484 0.52814 0.61476 0.0
O290 O 0.89909 0.52961 0.56951 0.0
C291 C 0.94326 0.54529 0.55609 0.0
O292 O 0.93795 0.5325 0.52824 0.0
O293 O 0.91068 0.52988 0.69413 0.0
C294 C 0.89659 0.52535 0.51978 0.0
O295 O 0.90435 0.51951 0.49727 0.0
C296 C 0.90673 0.49598 0.62297 0.0
O297 O 0.89783 0.49517 0.66366 0.0
O298 O 0.93537 0.54605 0.59531 0.0
C299 C 0.46481 0.35823 0.66044 0.0
O300 O 0.47319 0.35711 0.62146 0.0
O301 O 0.48899 0.4002 0.60317 0.0
Zn302 Zn 0.46806 0.38219 0.59019 0.0
O303 O 0.46922 0.37024 0.52588 0.0
C304 C 0.45541 0.40252 0.58726 0.0
O305 O 0.46748 0.41155 0.61682 0.0
O306 O 0.46112 0.36852 0.65683 0.0
C307 C 0.46168 0.36799 0.48174 0.0
O308 O 0.4527 0.37384 0.47631 0.0
C309 C 0.49573 0.40929 0.56356 0.0
O310 O 0.4888 0.40658 0.51581 0.0
O311 O 0.45324 0.38949 0.57286 0.0
C312 C 0.5641 0.69839 0.98074 0.0
O313 O 0.55448 0.70317 0.96909 0.0
O314 O 0.57399 0.73333 0.91441 0.0
Zn315 Zn 0.57987 0.71784 0.89055 0.0
O316 O 0.56773 0.70537 0.8255 0.0
C317 C 0.60748 0.74249 0.84775 0.0
O318 O 0.59826 0.74798 0.84011 0.0
O319 O 0.57626 0.70334 0.95262 0.0
C320 C 0.56741 0.71102 0.77925 0.0
O321 O 0.57485 0.72593 0.77285 0.0
C322 C 0.56306 0.73488 0.8962 0.0
O323 O 0.55365 0.72521 0.8596 0.0
O324 O 0.60227 0.72942 0.86997 0.0
C325 C 0.28968 0.86784 0.02603 0.0
O326 O 0.27763 0.85439 0.03542 0.0
O327 O 0.26401 0.84056 0.92554 0.0
Zn328 Zn 0.2787 0.86293 0.91239 0.0
O329 O 0.29228 0.86605 0.84744 0.0
C330 C 0.25752 0.86666 0.85058 0.0
O331 O 0.25733 0.85499 0.826 0.0
O332 O 0.29201 0.87348 0.97801 0.0
C333 C 0.2923 0.85565 0.81812 0.0
O334 O 0.28304 0.84122 0.83024 0.0
C335 C 0.26716 0.8304 0.94061 0.0
O336 O 0.28143 0.83426 0.95051 0.0
O337 O 0.26615 0.87256 0.89203 0.0
C338 C 0.13735 0.45164 0.94792 0.0
O339 O 0.14271 0.45904 0.90152 0.0
O340 O 0.16522 0.43543 0.90356 0.0
Zn341 Zn 0.14327 0.42981 0.89432 0.0
O342 O 0.14008 0.43751 0.82247 0.0
C343 C 0.1337 0.39863 0.86718 0.0
O344 O 0.1465 0.40524 0.83898 0.0
O345 O 0.13679 0.43888 0.9549 0.0
C346 C 0.14749 0.43899 0.77862 0.0
O347 O 0.15824 0.43529 0.77836 0.0
C348 C 0.17636 0.44886 0.89578 0.0
O349 O 0.17361 0.45982 0.88178 0.0
O350 O 0.12997 0.40689 0.89511 0.0
C351 C 0.35944 0.90094 0.34131 0.0
O352 O 0.35596 0.88902 0.37246 0.0
O353 O 0.39948 0.91075 0.4024 0.0
Zn354 Zn 0.38307 0.91562 0.42182 0.0
O355 O 0.36906 0.90094 0.47895 0.0
C356 C 0.39598 0.94012 0.502 0.0
O357 O 0.39216 0.9288 0.53659 0.0
O358 O 0.37081 0.91382 0.35418 0.0
C359 C 0.35952 0.90381 0.5021 0.0
O360 O 0.35913 0.91617 0.48797 0.0
C361 C 0.40738 0.90921 0.43978 0.0
O362 O 0.40434 0.91033 0.49139 0.0
O363 O 0.39315 0.93722 0.45116 0.0
C364 C 0.09231 0.47356 0.2674 0.0
O365 O 0.08815 0.4838 0.27594 0.0
O366 O 0.08314 0.4843 0.39609 0.0
Zn367 Zn 0.08443 0.46532 0.38301 0.0
O368 O 0.09952 0.46445 0.43426 0.0
C369 C 0.05469 0.44788 0.431 0.0
O370 O 0.05935 0.46079 0.45748 0.0
O371 O 0.09133 0.4647 0.3062 0.0
C372 C 0.09937 0.46642 0.48565 0.0
O373 O 0.08924 0.46953 0.50642 0.0
C374 C 0.0941 0.49802 0.39392 0.0
O375 O 0.10791 0.50075 0.38164 0.0
O376 O 0.06356 0.44693 0.39623 0.0
C377 C 0.52812 0.63137 0.30329 0.0
O378 O 0.51845 0.63398 0.33069 0.0
O379 O 0.50482 0.59741 0.40302 0.0
Zn380 Zn 0.5266 0.61469 0.4009 0.0
O381 O 0.5294 0.63193 0.44955 0.0
C382 C 0.53682 0.59552 0.45444 0.0
O383 O 0.52242 0.58707 0.46889 0.0
O384 O 0.53278 0.62295 0.32462 0.0
C385 C 0.52868 0.63064 0.50144 0.0
O386 O 0.52568 0.61759 0.52378 0.0
C387 C 0.4938 0.59961 0.41461 0.0
O388 O 0.49662 0.61357 0.42431 0.0
O389 O 0.5409 0.6075 0.42603 0.0
C390 C 0.1004 0.63681 0.36099 0.0
O391 O 0.10902 0.63869 0.40397 0.0
O392 O 0.0783 0.59459 0.42967 0.0
Zn393 Zn 0.07715 0.6139 0.43048 0.0
O394 O 0.08712 0.62616 0.49861 0.0
C395 C 0.04996 0.61501 0.45954 0.0
O396 O 0.05986 0.62852 0.47919 0.0
O397 O 0.08634 0.62662 0.36243 0.0
C398 C 0.09824 0.62641 0.52394 0.0
O399 O 0.10424 0.61839 0.50505 0.0
C400 C 0.08895 0.59257 0.41143 0.0
O401 O 0.10121 0.60413 0.38992 0.0
O402 O 0.05482 0.60714 0.43513 0.0
C403 C 0.3672 0.4673 0.31952 0.0
O404 O 0.36425 0.47589 0.35195 0.0
O405 O 0.40126 0.49007 0.41592 0.0
Zn406 Zn 0.3846 0.46801 0.4125 0.0
O407 O 0.36713 0.46408 0.462 0.0
C408 C 0.40415 0.45821 0.46484 0.0
O409 O 0.41147 0.4723 0.48349 0.0
O410 O 0.37617 0.46274 0.33612 0.0
C411 C 0.36782 0.46346 0.51386 0.0
O412 O 0.38056 0.46577 0.53686 0.0
C413 C 0.3985 0.50064 0.42898 0.0
O414 O 0.38442 0.49709 0.44093 0.0
O415 O 0.39259 0.45405 0.43399 0.0
C416 C 0.52734 0.89872 0.26941 0.0
O417 O 0.51397 0.89137 0.29382 0.0
O418 O 0.51251 0.91126 0.36959 0.0
Zn419 Zn 0.53398 0.91484 0.36941 0.0
O420 O 0.53616 0.90081 0.42261 0.0
C421 C 0.54587 0.9474 0.3813 0.0
O422 O 0.53311 0.94425 0.35621 0.0
O423 O 0.53837 0.90989 0.29397 0.0
C424 C 0.53978 0.90459 0.47242 0.0
O425 O 0.54164 0.91772 0.4899 0.0
C426 C 0.50509 0.91112 0.41185 0.0
O427 O 0.51151 0.9134 0.4604 0.0
O428 O 0.54881 0.93672 0.38989 0.0
C429 C 0.29766 0.43552 0.00415 0.0
O430 O 0.29023 0.44311 0.00317 0.0
O431 O 0.26646 0.42929 0.91485 0.0
Zn432 Zn 0.28006 0.42022 0.90558 0.0
O433 O 0.29238 0.42807 0.83664 0.0
C434 C 0.26789 0.3888 0.86753 0.0
O435 O 0.279 0.39487 0.83131 0.0
O436 O 0.29484 0.42541 0.96792 0.0
C437 C 0.28686 0.42898 0.79091 0.0
O438 O 0.27224 0.42455 0.78741 0.0
C439 C 0.27011 0.44289 0.90202 0.0
O440 O 0.28392 0.45224 0.88341 0.0
O441 O 0.26646 0.39738 0.90228 0.0
C442 C 0.56114 0.86814 0.9402 0.0
O443 O 0.55309 0.85791 0.90263 0.0
O444 O 0.57948 0.84598 0.89754 0.0
Zn445 Zn 0.58412 0.8673 0.87872 0.0
O446 O 0.57437 0.86833 0.80821 0.0
C447 C 0.61478 0.87554 0.85124 0.0
O448 O 0.60787 0.86105 0.83711 0.0
O449 O 0.57563 0.87441 0.93909 0.0
C450 C 0.57435 0.86206 0.76302 0.0
O451 O 0.58085 0.85361 0.76012 0.0
C452 C 0.56826 0.83352 0.88048 0.0
O453 O 0.55835 0.83383 0.84638 0.0
O454 O 0.60692 0.88101 0.87145 0.0
C455 C 0.12374 0.695 0.0167 0.0
O456 O 0.11175 0.68908 0.98426 0.0
O457 O 0.16058 0.73413 0.92484 0.0
Zn458 Zn 0.13885 0.71694 0.92774 0.0
O459 O 0.13556 0.702 0.86742 0.0
C460 C 0.122 0.73002 0.87536 0.0
O461 O 0.12749 0.72771 0.82978 0.0
O462 O 0.13601 0.70669 0.00095 0.0
C463 C 0.12275 0.69348 0.84448 0.0
O464 O 0.11071 0.69425 0.86007 0.0
C465 C 0.17148 0.7318 0.93706 0.0
O466 O 0.16838 0.71791 0.95005 0.0
O467 O 0.12505 0.726 0.92095 0.0
H468 H 0.19293 0.98232 0.62134 0.0
H469 H 0.23374 0.97985 0.65759 0.0
H470 H 0.24732 0.99791 0.58202 0.0
H471 H 0.19668 0.98322 0.4761 0.0
H472 H 0.18967 0.99632 0.4658 0.0
H473 H 0.18343 0.98377 0.52434 0.0
H474 H 0.19263 0.00712 0.58904 0.0
H475 H 0.19893 0.01976 0.53065 0.0
H476 H 0.21216 0.02251 0.58508 0.0
H477 H 0.25628 0.01583 0.50113 0.0
H478 H 0.25964 0.03156 0.41902 0.0
H479 H 0.21285 0.02199 0.43549 0.0
C480 C 0.20476 0.98564 0.61367 0.0
C481 C 0.21228 0.9797 0.64548 0.0
C482 C 0.22773 0.98425 0.63377 0.0
C483 C 0.23556 0.99454 0.59104 0.0
C484 C 0.22778 0.00015 0.5604 0.0
C485 C 0.21271 0.99583 0.57109 0.0
C486 C 0.20681 0.00311 0.53096 0.0
C487 C 0.19335 0.99088 0.49731 0.0
C488 C 0.20237 0.01376 0.56072 0.0
C489 C 0.22087 0.01209 0.49569 0.0
C490 C 0.23288 0.01032 0.51356 0.0
C491 C 0.24697 0.01733 0.48686 0.0
C492 C 0.24877 0.02626 0.44029 0.0
C493 C 0.23651 0.02801 0.4208 0.0
C494 C 0.22245 0.02091 0.44935 0.0
H495 H 0.01132 0.21416 0.64038 0.0
H496 H 0.03116 0.26343 0.63112 0.0
H497 H 0.01558 0.26037 0.54889 0.0
H498 H 0.0107 0.20791 0.4959 0.0
H499 H 0.99287 0.19005 0.49741 0.0
H500 H 0.00517 0.19614 0.55663 0.0
H501 H 0.98289 0.19381 0.61653 0.0
H502 H 0.97053 0.18776 0.55741 0.0
H503 H 0.97324 0.20403 0.59687 0.0
H504 H 0.99786 0.25191 0.46754 0.0
H505 H 0.98035 0.23878 0.39017 0.0
H506 H 0.97261 0.19511 0.45175 0.0
C507 C 0.01235 0.22432 0.62125 0.0
C508 C 0.02241 0.23904 0.64228 0.0
C509 C 0.02353 0.25204 0.6157 0.0
C510 C 0.01469 0.25042 0.5691 0.0
C511 C 0.00486 0.23573 0.5495 0.0
C512 C 0.00371 0.22292 0.57453 0.0
C513 C 0.99266 0.20846 0.54428 0.0
C514 C 0.00084 0.20016 0.52224 0.0
C515 C 0.97902 0.1979 0.58097 0.0
C516 C 0.98782 0.21515 0.49816 0.0
C517 C 0.99488 0.23088 0.50214 0.0
C518 C 0.99225 0.23959 0.464 0.0
C519 C 0.98227 0.23202 0.42026 0.0
C520 C 0.97513 0.21592 0.41484 0.0
C521 C 0.97789 0.20742 0.45468 0.0
H522 H 0.80752 0.78793 0.43848 0.0
H523 H 0.77564 0.73902 0.43703 0.0
H524 H 0.76262 0.74181 0.51827 0.0
H525 H 0.81071 0.7922 0.58589 0.0
H526 H 0.81179 0.81057 0.58499 0.0
H527 H 0.81872 0.80463 0.52733 0.0
H528 H 0.80087 0.80895 0.46253 0.0
H529 H 0.79385 0.81484 0.52 0.0
H530 H 0.78065 0.7994 0.4766 0.0
H531 H 0.75272 0.75004 0.59831 0.0
H532 H 0.74709 0.763 0.67294 0.0
H533 H 0.78557 0.80649 0.62198 0.0
C534 C 0.79785 0.77778 0.45533 0.0
C535 C 0.7926 0.76325 0.43137 0.0
C536 C 0.77988 0.75027 0.45472 0.0
C537 C 0.7724 0.75173 0.50081 0.0
C538 C 0.7778 0.76624 0.5231 0.0
C539 C 0.79027 0.77902 0.5013 0.0
C540 C 0.79375 0.79332 0.5328 0.0
C541 C 0.80969 0.8006 0.55933 0.0
C542 C 0.79218 0.8048 0.49577 0.0
C543 C 0.78123 0.7866 0.5756 0.0
C544 C 0.77215 0.77097 0.5693 0.0
C545 C 0.75978 0.76227 0.60376 0.0
C546 C 0.75666 0.76975 0.64597 0.0
C547 C 0.76589 0.78577 0.65338 0.0
C548 C 0.77831 0.79424 0.61751 0.0
H549 H 0.7619 0.98735 0.6233 0.0
H550 H 0.78059 0.9571 0.60441 0.0
H551 H 0.79218 0.96948 0.5163 0.0
H552 H 0.75291 0.98813 0.48024 0.0
H553 H 0.75816 0.00801 0.48147 0.0
H554 H 0.75113 0.99663 0.54283 0.0
H555 H 0.77558 0.01606 0.59496 0.0
H556 H 0.78269 0.02749 0.53376 0.0
H557 H 0.79407 0.02082 0.56808 0.0
H558 H 0.80214 0.98539 0.4313 0.0
H559 H 0.80955 0.00359 0.3543 0.0
H560 H 0.78429 0.02341 0.42816 0.0
C561 C 0.76839 0.98328 0.60059 0.0
C562 C 0.77033 0.97124 0.62081 0.0
C563 C 0.77893 0.96629 0.5898 0.0
C564 C 0.78556 0.97325 0.53968 0.0
C565 C 0.78348 0.98512 0.52109 0.0
C566 C 0.77508 0.99009 0.55046 0.0
C567 C 0.77469 0.00315 0.52143 0.0
C568 C 0.75824 0.99871 0.50555 0.0
C569 C 0.78221 0.01774 0.55666 0.0
C570 C 0.78423 0.00478 0.47125 0.0
C571 C 0.78919 0.99427 0.47189 0.0
C572 C 0.7983 0.99365 0.43025 0.0
C573 C 0.80246 0.00406 0.38672 0.0
C574 C 0.7975 0.01493 0.38514 0.0
C575 C 0.78824 0.01523 0.42807 0.0
H576 H 0.02367 0.77652 0.57804 0.0
H577 H 0.04366 0.82581 0.56888 0.0
H578 H 0.03068 0.82312 0.48059 0.0
H579 H 0.02478 0.76981 0.42995 0.0
H580 H 0.00657 0.75235 0.43079 0.0
H581 H 0.01855 0.75815 0.49095 0.0
H582 H 0.99631 0.75675 0.54851 0.0
H583 H 0.9843 0.75101 0.48856 0.0
H584 H 0.98743 0.76756 0.52709 0.0
H585 H 0.0146 0.81525 0.39663 0.0
H586 H 0.99597 0.80256 0.32215 0.0
H587 H 0.98573 0.75824 0.38582 0.0
C588 C 0.02552 0.78674 0.55689 0.0
C589 C 0.03473 0.80138 0.58013 0.0
C590 C 0.03665 0.81448 0.55183 0.0
C591 C 0.02936 0.81308 0.50156 0.0
C592 C 0.02016 0.7985 0.48017 0.0
C593 C 0.01818 0.78554 0.50678 0.0
C594 C 0.0069 0.7712 0.47631 0.0
C595 C 0.01467 0.76236 0.45578 0.0
C596 C 0.99291 0.76104 0.51226 0.0
C597 C 0.00269 0.77814 0.429 0.0
C598 C 0.0106 0.79391 0.43183 0.0
C599 C 0.0084 0.8029 0.3937 0.0
C600 C 0.99776 0.79557 0.35158 0.0
C601 C 0.98938 0.77941 0.34809 0.0
C602 C 0.99199 0.77062 0.38723 0.0
H603 H 0.21712 0.19015 0.41981 0.0
H604 H 0.2424 0.23274 0.32959 0.0
H605 H 0.23564 0.24593 0.39988 0.0
H606 H 0.18636 0.19619 0.4656 0.0
H607 H 0.18494 0.18765 0.53188 0.0
H608 H 0.1913 0.18143 0.47338 0.0
H609 H 0.21606 0.18743 0.5255 0.0
H610 H 0.20979 0.19368 0.5841 0.0
H611 H 0.22807 0.20631 0.55321 0.0
H612 H 0.22674 0.25465 0.48116 0.0
H613 H 0.21644 0.25829 0.56811 0.0
H614 H 0.19708 0.21003 0.60526 0.0
C615 C 0.22116 0.20223 0.41458 0.0
C616 C 0.23028 0.2104 0.36914 0.0
C617 C 0.23539 0.22623 0.36405 0.0
C618 C 0.2316 0.23382 0.40371 0.0
C619 C 0.22267 0.22544 0.44815 0.0
C620 C 0.2175 0.21 0.4538 0.0
C621 C 0.20839 0.20373 0.50614 0.0
C622 C 0.19176 0.19153 0.49347 0.0
C623 C 0.21604 0.19742 0.54449 0.0
C624 C 0.20937 0.2181 0.52927 0.0
C625 C 0.21759 0.23048 0.49509 0.0
C626 C 0.22023 0.24503 0.50818 0.0
C627 C 0.21434 0.24698 0.55768 0.0
C628 C 0.20594 0.23445 0.5935 0.0
C629 C 0.20341 0.21983 0.57875 0.0
H630 H 0.8984 0.34845 0.70408 0.0
H631 H 0.9354 0.39014 0.77407 0.0
H632 H 0.9291 0.37827 0.86599 0.0
H633 H 0.87193 0.33918 0.81736 0.0
H634 H 0.86463 0.31889 0.81176 0.0
H635 H 0.87176 0.33085 0.75175 0.0
H636 H 0.89058 0.32092 0.73387 0.0
H637 H 0.88353 0.30895 0.79382 0.0
H638 H 0.90366 0.3225 0.78724 0.0
H639 H 0.91935 0.36159 0.94958 0.0
H640 H 0.90671 0.34136 0.01931 0.0
H641 H 0.87598 0.31062 0.89468 0.0
C642 C 0.90515 0.35514 0.73873 0.0
C643 C 0.9174 0.37024 0.73188 0.0
C644 C 0.92595 0.37856 0.77831 0.0
C645 C 0.92246 0.37192 0.83069 0.0
C646 C 0.91037 0.35699 0.83591 0.0
C647 C 0.90181 0.34871 0.79124 0.0
C648 C 0.88959 0.33276 0.80781 0.0
C649 C 0.87353 0.33028 0.79651 0.0
C650 C 0.89199 0.32056 0.77898 0.0
C651 C 0.8927 0.33331 0.86875 0.0
C652 C 0.9047 0.34739 0.88413 0.0
C653 C 0.90989 0.35054 0.93809 0.0
C654 C 0.90264 0.33895 0.97737 0.0
C655 C 0.89034 0.3244 0.9625 0.0
C656 C 0.8853 0.32163 0.90743 0.0
H657 H 0.63651 0.52432 0.76707 0.0
H658 H 0.65535 0.56748 0.67957 0.0
H659 H 0.67498 0.57988 0.75132 0.0
H660 H 0.64229 0.54033 0.90351 0.0
H661 H 0.64721 0.52695 0.93269 0.0
H662 H 0.63451 0.52145 0.87463 0.0
H663 H 0.65226 0.51448 0.82047 0.0
H664 H 0.66503 0.51999 0.8783 0.0
H665 H 0.67216 0.52861 0.81214 0.0
H666 H 0.69279 0.58754 0.83137 0.0
H667 H 0.70737 0.59008 0.91571 0.0
H668 H 0.67689 0.542 0.95159 0.0
C669 C 0.64473 0.53638 0.76302 0.0
C670 C 0.64438 0.54492 0.71764 0.0
C671 C 0.65536 0.5607 0.71397 0.0
C672 C 0.66658 0.56786 0.75448 0.0
C673 C 0.66664 0.5591 0.7985 0.0
C674 C 0.65599 0.54373 0.80318 0.0
C675 C 0.65861 0.53695 0.85468 0.0
C676 C 0.64484 0.53108 0.89368 0.0
C677 C 0.66224 0.52426 0.84052 0.0
C678 C 0.67247 0.5509 0.87795 0.0
C679 C 0.67689 0.56354 0.84491 0.0
C680 C 0.68942 0.57773 0.85768 0.0
C681 C 0.69763 0.57905 0.90567 0.0
C682 C 0.69328 0.56624 0.9403 0.0
C683 C 0.68052 0.552 0.92603 0.0
H684 H 0.45254 0.0964 0.75243 0.0
H685 H 0.46383 0.13368 0.63867 0.0
H686 H 0.45539 0.14596 0.70681 0.0
H687 H 0.41887 0.09413 0.8069 0.0
H688 H 0.42216 0.09019 0.87615 0.0
H689 H 0.42959 0.08454 0.81925 0.0
H690 H 0.45689 0.09979 0.86004 0.0
H691 H 0.44953 0.10543 0.91725 0.0
H692 H 0.46478 0.11977 0.87603 0.0
H693 H 0.44447 0.1535 0.78512 0.0
H694 H 0.43315 0.15654 0.87061 0.0
H695 H 0.42961 0.11472 0.93433 0.0
C696 C 0.45334 0.1072 0.74197 0.0
C697 C 0.45883 0.11406 0.69017 0.0
C698 C 0.4597 0.12821 0.67812 0.0
C699 C 0.45491 0.13527 0.71651 0.0
C700 C 0.44939 0.1281 0.76689 0.0
C701 C 0.44871 0.11446 0.77994 0.0
C702 C 0.44221 0.10911 0.83688 0.0
C703 C 0.42732 0.09357 0.83462 0.0
C704 C 0.45406 0.1085 0.87478 0.0
C705 C 0.43917 0.1218 0.85352 0.0
C706 C 0.44336 0.13261 0.81251 0.0
C707 C 0.44125 0.14517 0.81773 0.0
C708 C 0.43476 0.14676 0.86635 0.0
C709 C 0.43054 0.1359 0.90917 0.0
C710 C 0.43282 0.12328 0.90249 0.0
H711 H 0.45087 0.35956 0.75565 0.0
H712 H 0.46702 0.33249 0.67086 0.0
H713 H 0.45839 0.31434 0.7482 0.0
H714 H 0.46236 0.35502 0.89023 0.0
H715 H 0.44598 0.35392 0.92409 0.0
H716 H 0.45294 0.36457 0.86122 0.0
H717 H 0.42612 0.34847 0.81744 0.0
H718 H 0.41908 0.33774 0.88018 0.0
H719 H 0.41722 0.32791 0.81643 0.0
H720 H 0.44822 0.29922 0.83419 0.0
H721 H 0.43803 0.28854 0.92551 0.0
H722 H 0.42887 0.3256 0.95596 0.0
C723 C 0.45253 0.34978 0.75325 0.0
C724 C 0.45959 0.34743 0.70712 0.0
C725 C 0.46166 0.33455 0.70577 0.0
C726 C 0.45676 0.32414 0.74942 0.0
C727 C 0.44986 0.3268 0.79424 0.0
C728 C 0.4478 0.33931 0.79669 0.0
C729 C 0.44044 0.33969 0.85042 0.0
C730 C 0.45107 0.35416 0.88343 0.0
C731 C 0.42478 0.33837 0.8405 0.0
C732 C 0.43875 0.32546 0.8778 0.0
C733 C 0.44417 0.31815 0.84446 0.0
C734 C 0.44393 0.30482 0.86071 0.0
C735 C 0.43809 0.29884 0.91268 0.0
C736 C 0.43265 0.30622 0.94798 0.0
C737 C 0.43293 0.31967 0.92998 0.0
H738 H 0.68748 0.14147 0.92105 0.0
H739 H 0.6797 0.09762 0.98075 0.0
H740 H 0.66065 0.08453 0.90757 0.0
H741 H 0.6482 0.12886 0.8813 0.0
H742 H 0.65372 0.14071 0.8208 0.0
H743 H 0.66614 0.14661 0.87975 0.0
H744 H 0.68827 0.1488 0.81928 0.0
H745 H 0.67593 0.14296 0.76018 0.0
H746 H 0.68542 0.13255 0.77939 0.0
H747 H 0.6431 0.07627 0.82644 0.0
H748 H 0.62902 0.07345 0.74049 0.0
H749 H 0.64848 0.12272 0.73304 0.0
C750 C 0.68168 0.1291 0.91905 0.0
C751 C 0.68504 0.12056 0.95671 0.0
C752 C 0.67732 0.10441 0.95232 0.0
C753 C 0.66643 0.09686 0.91104 0.0
C754 C 0.66342 0.10563 0.87448 0.0
C755 C 0.67085 0.12139 0.87794 0.0
C756 C 0.66601 0.12816 0.83201 0.0
C757 C 0.65804 0.13658 0.85485 0.0
C758 C 0.67972 0.13874 0.79556 0.0
C759 C 0.65484 0.11375 0.80182 0.0
C760 C 0.65342 0.10087 0.82728 0.0
C761 C 0.64406 0.08626 0.80624 0.0
C762 C 0.63611 0.08479 0.7574 0.0
C763 C 0.63764 0.09786 0.73001 0.0
C764 C 0.647 0.11249 0.75308 0.0
H765 H 0.87062 0.52322 0.74907 0.0
H766 H 0.91762 0.53819 0.79422 0.0
H767 H 0.91378 0.5478 0.88245 0.0
H768 H 0.86973 0.55498 0.80123 0.0
H769 H 0.85029 0.54448 0.82554 0.0
H770 H 0.85616 0.53734 0.76844 0.0
H771 H 0.84705 0.51167 0.81939 0.0
H772 H 0.84098 0.51867 0.8765 0.0
H773 H 0.85415 0.51179 0.88736 0.0
H774 H 0.90546 0.55756 0.96211 0.0
H775 H 0.89297 0.56597 0.02946 0.0
H776 H 0.85145 0.54477 0.93168 0.0
C777 C 0.88003 0.52824 0.77792 0.0
C778 C 0.89441 0.52992 0.76485 0.0
C779 C 0.90649 0.53675 0.80344 0.0
C780 C 0.90442 0.54224 0.85364 0.0
C781 C 0.89021 0.54076 0.86459 0.0
C782 C 0.87818 0.53382 0.82804 0.0
C783 C 0.8643 0.53437 0.84843 0.0
C784 C 0.85987 0.54333 0.80853 0.0
C785 C 0.85083 0.51816 0.85853 0.0
C786 C 0.8705 0.54293 0.90174 0.0
C787 C 0.88543 0.54645 0.91044 0.0
C788 C 0.89373 0.55475 0.95603 0.0
C789 C 0.88654 0.55953 0.99392 0.0
C790 C 0.87122 0.55601 0.98588 0.0
C791 C 0.86314 0.54758 0.93913 0.0
H792 H 0.52035 0.64978 0.24536 0.0
H793 H 0.55072 0.63094 0.24254 0.0
H794 H 0.56288 0.64562 0.15841 0.0
H795 H 0.5154 0.64984 0.09703 0.0
H796 H 0.51513 0.66755 0.09798 0.0
H797 H 0.50836 0.65499 0.15655 0.0
H798 H 0.52741 0.67717 0.21887 0.0
H799 H 0.5343 0.68977 0.16049 0.0
H800 H 0.5475 0.68708 0.20229 0.0
H801 H 0.57281 0.66358 0.07802 0.0
H802 H 0.57882 0.68246 0.00395 0.0
H803 H 0.5416 0.68908 0.0584 0.0
C804 C 0.52945 0.6486 0.22678 0.0
C805 C 0.53458 0.63922 0.25058 0.0
C806 C 0.54656 0.63803 0.225 0.0
C807 C 0.55356 0.64634 0.17724 0.0
C808 C 0.54839 0.65568 0.15538 0.0
C809 C 0.53651 0.65674 0.17899 0.0
C810 C 0.53329 0.6678 0.14786 0.0
C811 C 0.51709 0.65955 0.1234 0.0
C812 C 0.53578 0.68125 0.18458 0.0
C813 C 0.54535 0.67294 0.10349 0.0
C814 C 0.55395 0.66584 0.10856 0.0
C815 C 0.56607 0.66912 0.07331 0.0
C816 C 0.56943 0.6799 0.03152 0.0
C817 C 0.56064 0.6872 0.02528 0.0
C818 C 0.54845 0.68361 0.06182 0.0
H819 H 0.33326 0.87546 0.30707 0.0
H820 H 0.36501 0.92265 0.26305 0.0
H821 H 0.35005 0.9196 0.17902 0.0
H822 H 0.32738 0.86015 0.17215 0.0
H823 H 0.30737 0.84666 0.18233 0.0
H824 H 0.32031 0.85273 0.23975 0.0
H825 H 0.30344 0.86139 0.29101 0.0
H826 H 0.29045 0.85535 0.23369 0.0
H827 H 0.29898 0.87472 0.25847 0.0
H828 H 0.3323 0.91101 0.09776 0.0
H829 H 0.31273 0.8977 0.02616 0.0
H830 H 0.29229 0.85635 0.12479 0.0
C831 C 0.33706 0.88519 0.27994 0.0
C832 C 0.35032 0.8993 0.29161 0.0
C833 C 0.35487 0.91173 0.25499 0.0
C834 C 0.34645 0.91012 0.20718 0.0
C835 C 0.33347 0.89603 0.19681 0.0
C836 C 0.32876 0.8838 0.23227 0.0
C837 C 0.31453 0.86982 0.21128 0.0
C838 C 0.31759 0.85656 0.20074 0.0
C839 C 0.30105 0.86505 0.25098 0.0
C840 C 0.31205 0.87604 0.15817 0.0
C841 C 0.3231 0.89117 0.15054 0.0
C842 C 0.32351 0.8992 0.10349 0.0
C843 C 0.31237 0.89153 0.06303 0.0
C844 C 0.30093 0.87602 0.07004 0.0
C845 C 0.30075 0.86826 0.11852 0.0
H846 H 0.0995 0.45205 0.23413 0.0
H847 H 0.09987 0.49321 0.18013 0.0
H848 H 0.1117 0.49226 0.09251 0.0
H849 H 0.13539 0.46073 0.17639 0.0
H850 H 0.12915 0.44127 0.15677 0.0
H851 H 0.12053 0.44509 0.21477 0.0
H852 H 0.09372 0.42877 0.17108 0.0
H853 H 0.10224 0.42483 0.11307 0.0
H854 H 0.09029 0.43317 0.10267 0.0
H855 H 0.12403 0.48706 0.01169 0.0
H856 H 0.13491 0.47742 0.94217 0.0
H857 H 0.12612 0.43954 0.04948 0.0
C858 C 0.10202 0.46086 0.20389 0.0
C859 C 0.09878 0.47273 0.21399 0.0
C860 C 0.10221 0.48399 0.17322 0.0
C861 C 0.10897 0.48357 0.12342 0.0
C862 C 0.11213 0.47177 0.11504 0.0
C863 C 0.10867 0.46057 0.15402 0.0
C864 C 0.11313 0.44908 0.13495 0.0
C865 C 0.12527 0.44905 0.17298 0.0
C866 C 0.099 0.43302 0.13014 0.0
C867 C 0.11972 0.4556 0.07917 0.0
C868 C 0.11907 0.46871 0.06846 0.0
C869 C 0.12456 0.47678 0.01956 0.0
C870 C 0.13075 0.47123 0.98039 0.0
C871 C 0.13136 0.45772 0.99034 0.0
C872 C 0.12581 0.44989 0.04057 0.0
H873 H 0.0857 0.63625 0.26533 0.0
H874 H 0.1298 0.66007 0.3469 0.0
H875 H 0.14054 0.67735 0.26739 0.0
H876 H 0.10038 0.6385 0.12796 0.0
H877 H 0.08592 0.64139 0.09607 0.0
H878 H 0.08175 0.63068 0.15902 0.0
H879 H 0.07392 0.64893 0.20461 0.0
H880 H 0.07811 0.65973 0.14189 0.0
H881 H 0.08723 0.66922 0.20498 0.0
H882 H 0.14637 0.69239 0.1804 0.0
H883 H 0.14707 0.70396 0.0906 0.0
H884 H 0.0992 0.67033 0.06514 0.0
C885 C 0.09763 0.64505 0.26641 0.0
C886 C 0.10691 0.6468 0.3124 0.0
C887 C 0.12247 0.65849 0.31216 0.0
C888 C 0.12868 0.66837 0.26719 0.0
C889 C 0.1192 0.6664 0.22274 0.0
C890 C 0.10403 0.65501 0.22184 0.0
C891 C 0.09631 0.65545 0.16913 0.0
C892 C 0.09077 0.64062 0.1361 0.0
C893 C 0.08312 0.65852 0.18088 0.0
C894 C 0.10949 0.66893 0.14071 0.0
C895 C 0.12258 0.67507 0.17237 0.0
C896 C 0.1362 0.68767 0.15513 0.0
C897 C 0.13647 0.69417 0.10406 0.0
C898 C 0.12319 0.68806 0.07074 0.0
C899 C 0.10954 0.67526 0.08953 0.0
H900 H 0.34645 0.47406 0.27422 0.0
H901 H 0.36961 0.44826 0.24524 0.0
H902 H 0.35482 0.43789 0.15989 0.0
H903 H 0.30995 0.44566 0.22929 0.0
H904 H 0.30514 0.45881 0.19739 0.0
H905 H 0.31821 0.46498 0.25441 0.0
H906 H 0.33868 0.4873 0.19602 0.0
H907 H 0.32563 0.48126 0.13887 0.0
H908 H 0.34428 0.48326 0.13073 0.0
H909 H 0.33653 0.42923 0.08086 0.0
H910 H 0.31664 0.42355 0.0114 0.0
H911 H 0.30551 0.45515 0.09171 0.0
C912 C 0.34856 0.46637 0.24966 0.0
C913 C 0.3592 0.46197 0.2664 0.0
C914 C 0.36154 0.45181 0.23319 0.0
C915 C 0.35319 0.44586 0.18466 0.0
C916 C 0.34261 0.45024 0.16986 0.0
C917 C 0.34034 0.46034 0.20112 0.0
C918 C 0.328 0.46289 0.17681 0.0
C919 C 0.31453 0.45777 0.21686 0.0
C920 C 0.33454 0.47967 0.15958 0.0
C921 C 0.32352 0.45246 0.12739 0.0
C922 C 0.33211 0.4453 0.12408 0.0
C923 C 0.3298 0.43485 0.08276 0.0
C924 C 0.31843 0.43166 0.04361 0.0
C925 C 0.30952 0.43892 0.04605 0.0
C926 C 0.31216 0.44946 0.08856 0.0
H927 H 0.55441 0.90674 0.21692 0.0
H928 H 0.50514 0.87877 0.19998 0.0
H929 H 0.50853 0.86895 0.11168 0.0
H930 H 0.56296 0.916 0.07137 0.0
H931 H 0.58014 0.91474 0.07388 0.0
H932 H 0.57386 0.92044 0.13402 0.0
H933 H 0.57397 0.8986 0.18953 0.0
H934 H 0.58019 0.89281 0.12959 0.0
H935 H 0.56306 0.87921 0.16498 0.0
H936 H 0.51711 0.8613 0.02782 0.0
H937 H 0.53039 0.85599 0.95374 0.0
H938 H 0.57418 0.88854 0.02537 0.0
C939 C 0.54434 0.89871 0.19425 0.0
C940 C 0.52951 0.89356 0.21519 0.0
C941 C 0.51661 0.88288 0.18472 0.0
C942 C 0.51841 0.87726 0.13445 0.0
C943 C 0.53318 0.88241 0.11529 0.0
C944 C 0.54593 0.89289 0.14413 0.0
C945 C 0.56052 0.89596 0.11552 0.0
C946 C 0.56992 0.91279 0.09763 0.0
C947 C 0.56999 0.89137 0.15209 0.0
C948 C 0.55395 0.88544 0.06649 0.0
C949 C 0.53816 0.87783 0.067 0.0
C950 C 0.52948 0.86725 0.02674 0.0
C951 C 0.53714 0.8643 0.98486 0.0
C952 C 0.55333 0.87185 0.98371 0.0
C953 C 0.5618 0.88262 0.025 0.0
H954 H 0.21496 0.98552 0.89674 0.0
H955 H 0.19305 0.94511 -6e-05 0.0
H956 H 0.19843 0.96155 0.08166 0.0
H957 H 0.2453 0.0075 0.98707 0.0
H958 H 0.24618 0.02536 0.97131 0.0
H959 H 0.23925 0.0104 0.92073 0.0
H960 H 0.21405 0.01116 0.91258 0.0
H961 H 0.2209 0.02614 0.96327 0.0
H962 H 0.20288 0.00881 0.97329 0.0
H963 H 0.20714 0.98244 0.15222 0.0
H964 H 0.21998 0.00613 0.20708 0.0
H965 H 0.23696 0.03277 0.05744 0.0
C966 C 0.21108 0.98011 0.93642 0.0
C967 C 0.20349 0.96405 0.94206 0.0
C968 C 0.19886 0.95741 0.99477 0.0
C969 C 0.2018 0.96664 0.04132 0.0
C970 C 0.20942 0.98245 0.03435 0.0
C971 C 0.21407 0.98913 0.98325 0.0
C972 C 0.22303 0.00639 0.98721 0.0
C973 C 0.23941 0.01278 0.9653 0.0
C974 C 0.21471 0.01354 0.95732 0.0
C975 C 0.22291 0.0084 0.04866 0.0
C976 C 0.21482 0.99447 0.07507 0.0
C977 C 0.21345 0.99341 0.13198 0.0
C978 C 0.22077 0.00694 0.16276 0.0
C979 C 0.22949 0.0213 0.13653 0.0
C980 C 0.23036 0.02198 0.0787 0.0
H981 H 0.96843 0.21267 0.04888 0.0
H982 H 0.99129 0.20555 0.18714 0.0
H983 H 0.01324 0.21107 0.12759 0.0
H984 H 0.98265 0.19676 0.94225 0.0
H985 H 0.98468 0.21088 0.89256 0.0
H986 H 0.97006 0.20458 0.94449 0.0
H987 H 0.98066 0.23268 0.97522 0.0
H988 H 0.99532 0.23904 0.92366 0.0
H989 H 0.00049 0.24401 0.99457 0.0
H990 H 0.03375 0.22002 0.05556 0.0
H991 H 0.05107 0.23137 0.97625 0.0
H992 H 0.01458 0.23236 0.8854 0.0
C993 C 0.9779 0.21196 0.06647 0.0
C994 C 0.97813 0.20865 0.12264 0.0
C995 C 0.99084 0.20802 0.14415 0.0
C996 C 0.00335 0.2111 0.11064 0.0
C997 C 0.0029 0.21467 0.05569 0.0
C998 C 0.99045 0.21499 0.03366 0.0
C999 C 0.99322 0.22015 0.97441 0.0
C1000 C 0.98199 0.20732 0.93617 0.0
C1001 C 0.99238 0.23484 0.96655 0.0
C1002 C 0.00935 0.22312 0.96702 0.0
C1003 C 0.01469 0.21975 0.01415 0.0
C1004 C 0.02962 0.22248 0.01816 0.0
C1005 C 0.03938 0.22898 0.97296 0.0
C1006 C 0.03417 0.2327 0.92458 0.0
C1007 C 0.01887 0.22949 0.92154 0.0
H1008 H 0.76544 0.77594 0.91674 0.0
H1009 H 0.76384 0.812 0.0083 0.0
H1010 H 0.77573 0.80675 0.08778 0.0
H1011 H 0.75592 0.75003 0.02822 0.0
H1012 H 0.76843 0.74309 0.00664 0.0
H1013 H 0.76039 0.75016 0.95653 0.0
H1014 H 0.78762 0.76945 0.92168 0.0
H1015 H 0.79575 0.76248 0.97188 0.0
H1016 H 0.80173 0.78254 0.96946 0.0
H1017 H 0.7873 0.79713 0.15793 0.0
H1018 H 0.79672 0.78324 0.21443 0.0
H1019 H 0.79053 0.75349 0.07638 0.0
C1020 C 0.76764 0.7828 0.95338 0.0
C1021 C 0.76373 0.7944 0.95628 0.0
C1022 C 0.76673 0.80304 0.00514 0.0
C1023 C 0.77352 0.80019 0.05043 0.0
C1024 C 0.77724 0.78867 0.04611 0.0
C1025 C 0.77436 0.78009 0.99887 0.0
C1026 C 0.77899 0.76805 0.00522 0.0
C1027 C 0.7651 0.75188 0.99879 0.0
C1028 C 0.79178 0.7708 0.96465 0.0
C1029 C 0.78479 0.77108 0.06367 0.0
C1030 C 0.7838 0.78308 0.08646 0.0
C1031 C 0.78819 0.78775 0.14044 0.0
C1032 C 0.79354 0.7798 0.17217 0.0
C1033 C 0.79438 0.76728 0.14984 0.0
C1034 C 0.7901 0.76304 0.09465 0.0
H1035 H 0.75074 0.97883 0.91418 0.0
H1036 H 0.79175 0.97593 0.88835 0.0
H1037 H 0.80377 0.99269 0.96873 0.0
H1038 H 0.76943 0.01824 0.95845 0.0
H1039 H 0.755 0.01476 0.0089 0.0
H1040 H 0.75 0.00312 0.94804 0.0
H1041 H 0.73904 0.97872 0.00827 0.0
H1042 H 0.74403 0.99028 0.06929 0.0
H1043 H 0.75102 0.97714 0.0597 0.0
H1044 H 0.8111 0.00958 0.05306 0.0
H1045 H 0.81285 0.02458 0.13573 0.0
H1046 H 0.76667 0.01558 0.10642 0.0
C1047 C 0.76231 0.9818 0.92503 0.0
C1048 C 0.77035 0.97614 0.89487 0.0
C1049 C 0.78539 0.98017 0.91088 0.0
C1050 C 0.79231 0.98969 0.95639 0.0
C1051 C 0.784 0.995 0.98544 0.0
C1052 C 0.76931 0.99116 0.97042 0.0
C1053 C 0.76261 0.99791 0.00937 0.0
C1054 C 0.75906 0.00918 0.97939 0.0
C1055 C 0.74833 0.98526 0.03837 0.0
C1056 C 0.77579 0.00611 0.0489 0.0
C1057 C 0.78808 0.0044 0.03429 0.0
C1058 C 0.80155 0.01099 0.06486 0.0
C1059 C 0.80244 0.01949 0.11169 0.0
C1060 C 0.78989 0.02121 0.12759 0.0
C1061 C 0.77645 0.01443 0.09553 0.0
H1062 H 0.03479 0.79225 0.94848 0.0
H1063 H 0.00696 0.78292 0.80219 0.0
H1064 H 0.98392 0.77367 0.86011 0.0
H1065 H 0.00902 0.75981 0.02272 0.0
H1066 H 0.01316 0.7693 0.0883 0.0
H1067 H 0.02754 0.77627 0.03553 0.0
H1068 H 0.03013 0.80309 0.04213 0.0
H1069 H 0.01577 0.79621 0.09514 0.0
H1070 H 0.01339 0.80495 0.03428 0.0
H1071 H 0.96366 0.76335 0.93405 0.0
H1072 H 0.948 0.75375 0.01825 0.0
H1073 H 0.98936 0.77062 0.11542 0.0
C1074 C 0.02389 0.78844 0.92855 0.0
C1075 C 0.02268 0.78829 0.87081 0.0
C1076 C 0.00818 0.78318 0.84639 0.0
C1077 C 0.99503 0.77791 0.87893 0.0
C1078 C 0.9966 0.77798 0.93576 0.0
C1079 C 0.0107 0.78326 0.96034 0.0
C1080 C 0.00928 0.78167 0.02209 0.0
C1081 C 0.01509 0.77113 0.04338 0.0
C1082 C 0.01764 0.79742 0.05005 0.0
C1083 C 0.99214 0.77433 0.02839 0.0
C1084 C 0.98501 0.77233 0.97821 0.0
C1085 C 0.96914 0.76504 0.97364 0.0
C1086 C 0.96034 0.75959 0.02164 0.0
C1087 C 0.96745 0.76152 0.0734 0.0
C1088 C 0.98357 0.76914 0.07658 0.0
H1089 H 0.25732 0.2401 0.06957 0.0
H1090 H 0.22151 0.19268 0.08572 0.0
H1091 H 0.20894 0.19525 0.0027 0.0
H1092 H 0.23368 0.2547 0.02654 0.0
H1093 H 0.24735 0.26824 0.97866 0.0
H1094 H 0.25387 0.26244 0.03783 0.0
H1095 H 0.26896 0.25396 0.97483 0.0
H1096 H 0.26252 0.25978 0.91542 0.0
H1097 H 0.25911 0.24051 0.92029 0.0
H1098 H 0.19944 0.20353 0.92115 0.0
H1099 H 0.19442 0.21661 0.84492 0.0
H1100 H 0.23689 0.2583 0.88125 0.0
C1101 C 0.24689 0.23021 0.05548 0.0
C1102 C 0.24038 0.2162 0.08419 0.0
C1103 C 0.22673 0.20353 0.06432 0.0
C1104 C 0.21949 0.20487 0.01723 0.0
C1105 C 0.22613 0.21892 0.99027 0.0
C1106 C 0.2396 0.23132 0.00842 0.0
C1107 C 0.24426 0.24521 0.97262 0.0
C1108 C 0.24481 0.25842 0.0059 0.0
C1109 C 0.25962 0.25015 0.9441 0.0
C1110 C 0.23121 0.23875 0.93194 0.0
C1111 C 0.22085 0.22358 0.94278 0.0
C1112 C 0.20755 0.21537 0.91192 0.0
C1113 C 0.20478 0.2229 0.86886 0.0
C1114 C 0.2153 0.23843 0.85698 0.0
C1115 C 0.2287 0.24637 0.88888 0.0
H1116 H 0.90465 0.34373 0.43409 0.0
H1117 H 0.86737 0.35348 0.43336 0.0
H1118 H 0.85618 0.3366 0.35266 0.0
H1119 H 0.90951 0.34449 0.29198 0.0
H1120 H 0.91384 0.32921 0.29069 0.0
H1121 H 0.91807 0.34093 0.35094 0.0
H1122 H 0.90184 0.31676 0.41011 0.0
H1123 H 0.89759 0.30493 0.34998 0.0
H1124 H 0.88225 0.30374 0.39141 0.0
H1125 H 0.85014 0.31998 0.26778 0.0
H1126 H 0.84977 0.30506 0.1867 0.0
H1127 H 0.89111 0.30652 0.24492 0.0
C1128 C 0.89402 0.34219 0.41753 0.0
C1129 C 0.88687 0.34991 0.44006 0.0
C1130 C 0.87303 0.34764 0.41685 0.0
C1131 C 0.86658 0.33807 0.37107 0.0
C1132 C 0.87408 0.33082 0.34939 0.0
C1133 C 0.88746 0.33272 0.37212 0.0
C1134 C 0.89372 0.32428 0.33991 0.0
C1135 C 0.90973 0.3354 0.31703 0.0
C1136 C 0.89385 0.31168 0.37495 0.0
C1137 C 0.88195 0.31757 0.29468 0.0
C1138 C 0.87063 0.32133 0.30094 0.0
C1139 C 0.85887 0.31685 0.26277 0.0
C1140 C 0.85876 0.3084 0.21685 0.0
C1141 C 0.8704 0.30461 0.20951 0.0
C1142 C 0.882 0.30915 0.24939 0.0
H1143 H 0.67375 0.57556 0.17716 0.0
H1144 H 0.70166 0.5554 0.21879 0.0
H1145 H 0.6859 0.54372 0.30129 0.0
H1146 H 0.66944 0.58524 0.31271 0.0
H1147 H 0.65 0.581 0.3035 0.0
H1148 H 0.6628 0.58689 0.24575 0.0
H1149 H 0.64375 0.56232 0.19329 0.0
H1150 H 0.63086 0.55636 0.25094 0.0
H1151 H 0.63733 0.5439 0.2244 0.0
H1152 H 0.668 0.53539 0.38169 0.0
H1153 H 0.64937 0.53121 0.45477 0.0
H1154 H 0.63317 0.55679 0.36037 0.0
C1155 C 0.67645 0.56855 0.20325 0.0
C1156 C 0.68892 0.56636 0.19147 0.0
C1157 C 0.69217 0.55724 0.227 0.0
C1158 C 0.68325 0.55052 0.27388 0.0
C1159 C 0.67113 0.55302 0.28457 0.0
C1160 C 0.66771 0.5618 0.25027 0.0
C1161 C 0.6545 0.56328 0.27237 0.0
C1162 C 0.65949 0.5801 0.2843 0.0
C1163 C 0.6408 0.55603 0.2329 0.0
C1164 C 0.65116 0.55411 0.32479 0.0
C1165 C 0.66082 0.54822 0.33094 0.0
C1166 C 0.66028 0.53984 0.37715 0.0
C1167 C 0.64968 0.53754 0.41845 0.0
C1168 C 0.63978 0.54363 0.41324 0.0
C1169 C 0.64047 0.55186 0.36541 0.0
H1170 H 0.45994 0.13526 0.20753 0.0
H1171 H 0.41078 0.10463 0.21199 0.0
H1172 H 0.41359 0.0925 0.29542 0.0
H1173 H 0.4705 0.10766 0.25554 0.0
H1174 H 0.48632 0.12151 0.29604 0.0
H1175 H 0.48058 0.12748 0.23523 0.0
H1176 H 0.47739 0.14733 0.29248 0.0
H1177 H 0.4831 0.1414 0.35345 0.0
H1178 H 0.46508 0.14106 0.35182 0.0
H1179 H 0.42143 0.08425 0.37957 0.0
H1180 H 0.43392 0.08025 0.4596 0.0
H1181 H 0.47806 0.11613 0.40113 0.0
C1182 C 0.44978 0.12593 0.22579 0.0
C1183 C 0.43514 0.1209 0.20315 0.0
C1184 C 0.42212 0.1087 0.22853 0.0
C1185 C 0.42359 0.10171 0.27592 0.0
C1186 C 0.43815 0.10701 0.29741 0.0
C1187 C 0.45103 0.11881 0.27323 0.0
C1188 C 0.4653 0.12253 0.30557 0.0
C1189 C 0.47632 0.11961 0.27103 0.0
C1190 C 0.47317 0.13906 0.32711 0.0
C1191 C 0.45837 0.11108 0.35193 0.0
C1192 C 0.4427 0.10222 0.34625 0.0
C1193 C 0.43371 0.09106 0.38441 0.0
C1194 C 0.44092 0.0889 0.42978 0.0
C1195 C 0.45698 0.09787 0.43665 0.0
C1196 C 0.46578 0.10905 0.39694 0.0
H1197 H 0.4345 0.31707 0.21116 0.0
H1198 H 0.46627 0.3015 0.25314 0.0
H1199 H 0.47566 0.31944 0.3313 0.0
H1200 H 0.45938 0.35731 0.24934 0.0
H1201 H 0.44372 0.35905 0.27648 0.0
H1202 H 0.44045 0.34593 0.22112 0.0
H1203 H 0.41949 0.32376 0.27862 0.0
H1204 H 0.42272 0.33677 0.33416 0.0
H1205 H 0.42413 0.3199 0.346 0.0
H1206 H 0.48029 0.3377 0.40848 0.0
H1207 H 0.47992 0.35507 0.47889 0.0
H1208 H 0.44509 0.35865 0.38634 0.0
C1209 C 0.44361 0.31759 0.2362 0.0
C1210 C 0.44969 0.30791 0.22592 0.0
C1211 C 0.46146 0.30882 0.26014 0.0
C1212 C 0.46689 0.319 0.30458 0.0
C1213 C 0.46047 0.3282 0.31408 0.0
C1214 C 0.44913 0.32764 0.28073 0.0
C1215 C 0.44359 0.33816 0.30147 0.0
C1216 C 0.447 0.35087 0.25961 0.0
C1217 C 0.42647 0.3291 0.31593 0.0
C1218 C 0.45337 0.3445 0.35232 0.0
C1219 C 0.46311 0.33871 0.35864 0.0
C1220 C 0.47282 0.34244 0.4037 0.0
C1221 C 0.4725 0.35229 0.44352 0.0
C1222 C 0.46251 0.35826 0.43808 0.0
C1223 C 0.45294 0.35438 0.39152 0.0
H1224 H 0.68003 0.12464 0.20492 0.0
H1225 H 0.72075 0.14793 0.30608 0.0
H1226 H 0.70454 0.14251 0.3883 0.0
H1227 H 0.65596 0.13601 0.28515 0.0
H1228 H 0.63905 0.11766 0.2748 0.0
H1229 H 0.65384 0.12534 0.2233 0.0
H1230 H 0.65574 0.1007 0.2281 0.0
H1231 H 0.64107 0.093 0.27974 0.0
H1232 H 0.65939 0.09465 0.29322 0.0
H1233 H 0.68403 0.13189 0.46016 0.0
H1234 H 0.66081 0.11715 0.5162 0.0
H1235 H 0.63355 0.10077 0.36776 0.0
C1236 C 0.68557 0.12894 0.24414 0.0
C1237 C 0.70166 0.13675 0.24907 0.0
C1238 C 0.70844 0.14197 0.30129 0.0
C1239 C 0.69933 0.13898 0.34821 0.0
C1240 C 0.68349 0.13086 0.34206 0.0
C1241 C 0.67666 0.12602 0.29126 0.0
C1242 C 0.65945 0.11641 0.29616 0.0
C1243 C 0.65162 0.12433 0.2682 0.0
C1244 C 0.65358 0.10024 0.27295 0.0
C1245 C 0.65768 0.11614 0.35782 0.0
C1246 C 0.67165 0.1247 0.38354 0.0
C1247 C 0.673 0.12534 0.44048 0.0
C1248 C 0.65975 0.11688 0.47193 0.0
C1249 C 0.64536 0.10784 0.44634 0.0
C1250 C 0.64434 0.1077 0.38855 0.0
H1251 H 0.89349 0.52382 0.40817 0.0
H1252 H 0.87664 0.53431 0.5562 0.0
H1253 H 0.86154 0.54229 0.49988 0.0
H1254 H 0.89941 0.55543 0.33528 0.0
H1255 H 0.89371 0.54608 0.26952 0.0
H1256 H 0.90115 0.53884 0.32111 0.0
H1257 H 0.87667 0.5122 0.31495 0.0
H1258 H 0.86916 0.51935 0.26296 0.0
H1259 H 0.85821 0.51059 0.32413 0.0
H1260 H 0.8508 0.55202 0.4277 0.0
H1261 H 0.84551 0.56289 0.34529 0.0
H1262 H 0.8696 0.54615 0.24511 0.0
C1263 C 0.88631 0.5274 0.42879 0.0
C1264 C 0.88619 0.52839 0.4865 0.0
C1265 C 0.87688 0.53344 0.51195 0.0
C1266 C 0.86821 0.53793 0.48034 0.0
C1267 C 0.86891 0.53723 0.42343 0.0
C1268 C 0.87766 0.532 0.39789 0.0
C1269 C 0.87764 0.53373 0.33627 0.0
C1270 C 0.89394 0.54414 0.3143 0.0
C1271 C 0.86996 0.51803 0.30791 0.0
C1272 C 0.86798 0.54126 0.33129 0.0
C1273 C 0.86284 0.54297 0.38185 0.0
C1274 C 0.85455 0.55053 0.38776 0.0
C1275 C 0.85163 0.5567 0.34076 0.0
C1276 C 0.85713 0.55536 0.2888 0.0
C1277 C 0.86514 0.54728 0.28416 0.0
H1278 H 0.53191 0.63296 0.61326 0.0
H1279 H 0.53388 0.65871 0.46773 0.0
H1280 H 0.5419 0.68168 0.52465 0.0
H1281 H 0.51833 0.65204 0.70854 0.0
H1282 H 0.52989 0.65165 0.76421 0.0
H1283 H 0.52274 0.63684 0.71282 0.0
H1284 H 0.55038 0.64267 0.69331 0.0
H1285 H 0.5576 0.6575 0.74441 0.0
H1286 H 0.56483 0.66186 0.67523 0.0
H1287 H 0.55192 0.70237 0.59588 0.0
H1288 H 0.5631 0.7192 0.67643 0.0
H1289 H 0.55445 0.67988 0.77525 0.0
C1290 C 0.53375 0.64335 0.59345 0.0
C1291 C 0.53224 0.64403 0.53607 0.0
C1292 C 0.53495 0.6579 0.51166 0.0
C1293 C 0.53947 0.67101 0.54365 0.0
C1294 C 0.54114 0.67003 0.59998 0.0
C1295 C 0.53829 0.65653 0.62473 0.0
C1296 C 0.54186 0.65875 0.68546 0.0
C1297 C 0.52734 0.64926 0.71978 0.0
C1298 C 0.55441 0.65498 0.70045 0.0
C1299 C 0.54754 0.67569 0.69071 0.0
C1300 C 0.5469 0.68196 0.64107 0.0
C1301 C 0.5523 0.69756 0.63515 0.0
C1302 C 0.55866 0.70703 0.68109 0.0
C1303 C 0.5596 0.70085 0.73217 0.0
C1304 C 0.55375 0.68494 0.73696 0.0
H1305 H 0.30666 0.88332 0.7663 0.0
H1306 H 0.30029 0.83754 0.75952 0.0
H1307 H 0.31696 0.84483 0.67755 0.0
H1308 H 0.30557 0.88815 0.62114 0.0
H1309 H 0.31977 0.90818 0.62254 0.0
H1310 H 0.30772 0.89942 0.68136 0.0
H1311 H 0.33171 0.90859 0.74277 0.0
H1312 H 0.34383 0.9174 0.68415 0.0
H1313 H 0.34597 0.90361 0.72444 0.0
H1314 H 0.33492 0.8575 0.59758 0.0
H1315 H 0.35163 0.87412 0.52312 0.0
H1316 H 0.34496 0.91103 0.58076 0.0
C1317 C 0.30883 0.87483 0.74782 0.0
C1318 C 0.30229 0.85989 0.76942 0.0
C1319 C 0.30522 0.84906 0.7436 0.0
C1320 C 0.31468 0.8531 0.69715 0.0
C1321 C 0.32094 0.86795 0.67689 0.0
C1322 C 0.31804 0.8786 0.70121 0.0
C1323 C 0.32582 0.89367 0.6708 0.0
C1324 C 0.31401 0.89757 0.64758 0.0
C1325 C 0.33753 0.90657 0.70775 0.0
C1326 C 0.3336 0.88987 0.62557 0.0
C1327 C 0.33077 0.87503 0.62996 0.0
C1328 C 0.33713 0.86911 0.59354 0.0
C1329 C 0.34662 0.87862 0.55152 0.0
C1330 C 0.34948 0.89379 0.54605 0.0
C1331 C 0.34283 0.89941 0.58353 0.0
H1332 H 0.12665 0.44857 0.76788 0.0
H1333 H 0.15939 0.44159 0.67529 0.0
H1334 H 0.15181 0.44956 0.59054 0.0
H1335 H 0.09749 0.43386 0.66887 0.0
H1336 H 0.09131 0.44748 0.68232 0.0
H1337 H 0.10013 0.44233 0.73598 0.0
H1338 H 0.12048 0.47088 0.74954 0.0
H1339 H 0.1117 0.47613 0.69587 0.0
H1340 H 0.1317 0.48194 0.69173 0.0
H1341 H 0.13938 0.45663 0.51521 0.0
H1342 H 0.12319 0.46234 0.4551 0.0
H1343 H 0.09887 0.46491 0.5979 0.0
C1344 C 0.13236 0.44885 0.72993 0.0
C1345 C 0.14362 0.44445 0.72818 0.0
C1346 C 0.15076 0.44494 0.67762 0.0
C1347 C 0.14655 0.44947 0.62931 0.0
C1348 C 0.13528 0.45357 0.63247 0.0
C1349 C 0.12834 0.45336 0.68155 0.0
C1350 C 0.11612 0.45769 0.67371 0.0
C1351 C 0.10033 0.44456 0.69124 0.0
C1352 C 0.12025 0.47255 0.70454 0.0
C1353 C 0.11703 0.46007 0.61228 0.0
C1354 C 0.12821 0.45773 0.58926 0.0
C1355 C 0.13071 0.45863 0.53284 0.0
C1356 C 0.12143 0.46185 0.49905 0.0
C1357 C 0.1098 0.46412 0.52182 0.0
C1358 C 0.10775 0.46339 0.57926 0.0
H1359 H 0.09947 0.67892 0.77026 0.0
H1360 H 0.14348 0.68464 0.81746 0.0
H1361 H 0.14175 0.66756 0.74187 0.0
H1362 H 0.08167 0.63918 0.73036 0.0
H1363 H 0.0717 0.64143 0.67295 0.0
H1364 H 0.07615 0.65362 0.73212 0.0
H1365 H 0.09024 0.67753 0.66987 0.0
H1366 H 0.08585 0.66541 0.61056 0.0
H1367 H 0.10541 0.67945 0.62566 0.0
H1368 H 0.13522 0.64987 0.66091 0.0
H1369 H 0.1248 0.6337 0.57826 0.0
H1370 H 0.08554 0.64036 0.58265 0.0
C1371 C 0.10869 0.67649 0.76499 0.0
C1372 C 0.12157 0.68304 0.79987 0.0
C1373 C 0.1335 0.67974 0.79117 0.0
C1374 C 0.13261 0.67002 0.74846 0.0
C1375 C 0.11977 0.66381 0.71463 0.0
C1376 C 0.10806 0.66696 0.72224 0.0
C1377 C 0.09578 0.65925 0.67901 0.0
C1378 C 0.08042 0.64768 0.70519 0.0
C1379 C 0.09424 0.67112 0.64422 0.0
C1380 C 0.10242 0.65128 0.64589 0.0
C1381 C 0.1162 0.65395 0.66728 0.0
C1382 C 0.12444 0.64771 0.64372 0.0
C1383 C 0.11843 0.63853 0.59686 0.0
C1384 C 0.1044 0.63582 0.57392 0.0
C1385 C 0.09633 0.64228 0.59901 0.0
H1386 H 0.31734 0.43836 0.7854 0.0
H1387 H 0.27907 0.43261 0.6863 0.0
H1388 H 0.29593 0.44184 0.60491 0.0
H1389 H 0.34641 0.4728 0.71922 0.0
H1390 H 0.36076 0.46723 0.72419 0.0
H1391 H 0.34579 0.46071 0.77477 0.0
H1392 H 0.33831 0.43261 0.75469 0.0
H1393 H 0.35326 0.43903 0.70411 0.0
H1394 H 0.33381 0.42549 0.68538 0.0
H1395 H 0.31685 0.45092 0.53398 0.0
H1396 H 0.34009 0.45891 0.4786 0.0
H1397 H 0.36451 0.45867 0.62495 0.0
C1398 C 0.31248 0.43911 0.74671 0.0
C1399 C 0.29688 0.43478 0.7422 0.0
C1400 C 0.29099 0.43589 0.69072 0.0
C1401 C 0.30048 0.44113 0.64432 0.0
C1402 C 0.3158 0.44525 0.65025 0.0
C1403 C 0.32175 0.44431 0.70017 0.0
C1404 C 0.33848 0.44904 0.69546 0.0
C1405 C 0.34844 0.46329 0.73048 0.0
C1406 C 0.34111 0.43575 0.7108 0.0
C1407 C 0.341 0.45265 0.63487 0.0
C1408 C 0.32781 0.45046 0.60954 0.0
C1409 C 0.32726 0.45274 0.55343 0.0
C1410 C 0.34053 0.45727 0.52234 0.0
C1411 C 0.35413 0.45943 0.54746 0.0
C1412 C 0.35434 0.45719 0.60456 0.0
H1413 H 0.56518 0.88317 0.75168 0.0
H1414 H 0.56865 0.84777 0.66283 0.0
H1415 H 0.5584 0.85361 0.57976 0.0
H1416 H 0.53026 0.87771 0.68677 0.0
H1417 H 0.53682 0.89791 0.68569 0.0
H1418 H 0.54321 0.89004 0.73896 0.0
H1419 H 0.5714 0.90914 0.71345 0.0
H1420 H 0.56511 0.91705 0.66014 0.0
H1421 H 0.57773 0.90981 0.64381 0.0
H1422 H 0.54875 0.86415 0.50551 0.0
H1423 H 0.54161 0.87922 0.44503 0.0
H1424 H 0.54527 0.90807 0.58292 0.0
C1425 C 0.5636 0.87647 0.71502 0.0
C1426 C 0.56763 0.86495 0.71377 0.0
C1427 C 0.56561 0.85664 0.6647 0.0
C1428 C 0.55975 0.85984 0.61743 0.0
C1429 C 0.55603 0.87139 0.62001 0.0
C1430 C 0.55792 0.8796 0.66756 0.0
C1431 C 0.55394 0.89204 0.65894 0.0
C1432 C 0.54024 0.88925 0.69471 0.0
C1433 C 0.56788 0.90795 0.66971 0.0
C1434 C 0.54974 0.88973 0.5988 0.0
C1435 C 0.55082 0.87765 0.57718 0.0
C1436 C 0.5478 0.87358 0.52207 0.0
C1437 C 0.54374 0.8822 0.48807 0.0
C1438 C 0.54291 0.89484 0.50924 0.0
C1439 C 0.5458 0.89849 0.56548 0.0
H1440 H 0.36093 0.08894 0.15541 0.0
H1441 H 0.36802 0.12577 0.04541 0.0
H1442 H 0.34128 0.11938 0.05977 0.0
H1443 H 0.32128 0.06226 0.11562 0.0
H1444 H 0.31565 0.05531 0.18468 0.0
H1445 H 0.33501 0.06207 0.16243 0.0
H1446 H 0.34506 0.08119 0.24362 0.0
H1447 H 0.32576 0.0746 0.26586 0.0
H1448 H 0.33836 0.09461 0.25184 0.0
H1449 H 0.31438 0.1101 0.09063 0.0
H1450 H 0.28886 0.09806 0.13356 0.0
H1451 H 0.29933 0.06729 0.22363 0.0
C1452 C 0.35681 0.09552 0.13362 0.0
C1453 C 0.36657 0.10784 0.09917 0.0
C1454 C 0.36075 0.11626 0.07191 0.0
C1455 C 0.34558 0.11272 0.0798 0.0
C1456 C 0.33637 0.10071 0.11491 0.0
C1457 C 0.34172 0.09216 0.14109 0.0
C1458 C 0.32965 0.08023 0.17836 0.0
C1459 C 0.32513 0.06401 0.1591 0.0
C1460 C 0.33503 0.08282 0.23847 0.0
C1461 C 0.31675 0.08355 0.16969 0.0
C1462 C 0.32085 0.09536 0.13276 0.0
C1463 C 0.31099 0.10076 0.11928 0.0
C1464 C 0.29654 0.09387 0.14404 0.0
C1465 C 0.29207 0.08172 0.18194 0.0
C1466 C 0.30236 0.07652 0.19471 0.0
H1467 H 0.86777 0.24031 0.16569 0.0
H1468 H 0.90111 0.27343 0.05258 0.0
H1469 H 0.9192 0.26466 0.07705 0.0
H1470 H 0.89426 0.24443 0.27012 0.0
H1471 H 0.88442 0.22444 0.2882 0.0
H1472 H 0.87388 0.23293 0.26039 0.0
H1473 H 0.8633 0.2126 0.18303 0.0
H1474 H 0.87377 0.20401 0.21074 0.0
H1475 H 0.87645 0.21013 0.14013 0.0
H1476 H 0.93383 0.25265 0.1152 0.0
H1477 H 0.94392 0.23811 0.16371 0.0
H1478 H 0.90106 0.21298 0.25244 0.0
C1479 C 0.87883 0.24566 0.14574 0.0
C1480 C 0.88301 0.25754 0.10712 0.0
C1481 C 0.89764 0.26429 0.08222 0.0
C1482 C 0.908 0.25939 0.09585 0.0
C1483 C 0.90355 0.24774 0.13442 0.0
C1484 C 0.88931 0.24094 0.15893 0.0
C1485 C 0.88745 0.22882 0.19977 0.0
C1486 C 0.88485 0.23291 0.25807 0.0
C1487 C 0.87448 0.21295 0.18235 0.0
C1488 C 0.90291 0.22993 0.19463 0.0
C1489 C 0.91201 0.24089 0.15663 0.0
C1490 C 0.9268 0.24403 0.14498 0.0
C1491 C 0.93243 0.23571 0.17283 0.0
C1492 C 0.92329 0.22442 0.21197 0.0
C1493 C 0.90834 0.22155 0.22286 0.0
H1494 H 0.73673 0.63434 0.20013 0.0
H1495 H 0.76328 0.63095 0.06625 0.0
H1496 H 0.78262 0.65813 0.07829 0.0
H1497 H 0.74427 0.67243 0.16787 0.0
H1498 H 0.74543 0.67803 0.23871 0.0
H1499 H 0.73358 0.65827 0.21953 0.0
H1500 H 0.74797 0.65057 0.28908 0.0
H1501 H 0.75988 0.67031 0.30837 0.0
H1502 H 0.76848 0.65942 0.28481 0.0
H1503 H 0.7994 0.68535 0.10618 0.0
H1504 H 0.81211 0.71128 0.14575 0.0
H1505 H 0.77445 0.69728 0.2602 0.0
C1506 C 0.74659 0.63931 0.17325 0.0
C1507 C 0.74849 0.6305 0.13229 0.0
C1508 C 0.76155 0.63746 0.09789 0.0
C1509 C 0.77262 0.65289 0.10443 0.0
C1510 C 0.77044 0.66123 0.14536 0.0
C1511 C 0.75772 0.65474 0.179 0.0
C1512 C 0.75814 0.66628 0.21968 0.0
C1513 C 0.74455 0.66891 0.21089 0.0
C1514 C 0.75865 0.66135 0.27899 0.0
C1515 C 0.77311 0.68026 0.2037 0.0
C1516 C 0.78003 0.67705 0.1609 0.0
C1517 C 0.79407 0.68803 0.13956 0.0
C1518 C 0.80121 0.70272 0.16243 0.0
C1519 C 0.79426 0.70632 0.20597 0.0
C1520 C 0.78001 0.6949 0.22675 0.0
H1521 H 0.10498 0.3139 0.75932 0.0
H1522 H 0.06419 0.29916 0.85826 0.0
H1523 H 0.07451 0.32552 0.89209 0.0
H1524 H 0.13178 0.34128 0.85694 0.0
H1525 H 0.14332 0.35479 0.80475 0.0
H1526 H 0.13293 0.33465 0.78939 0.0
H1527 H 0.11966 0.33977 0.7077 0.0
H1528 H 0.13001 0.35992 0.72278 0.0
H1529 H 0.10943 0.34989 0.71944 0.0
H1530 H 0.08893 0.35357 0.91355 0.0
H1531 H 0.10642 0.38143 0.92049 0.0
H1532 H 0.13778 0.37788 0.80766 0.0
C1533 C 0.09823 0.31619 0.78828 0.0
C1534 C 0.08377 0.30444 0.80612 0.0
C1535 C 0.0753 0.30795 0.84395 0.0
C1536 C 0.08107 0.32289 0.8635 0.0
C1537 C 0.09533 0.3342 0.84494 0.0
C1538 C 0.10381 0.33104 0.80822 0.0
C1539 C 0.11869 0.34535 0.79398 0.0
C1540 C 0.13249 0.34393 0.81238 0.0
C1541 C 0.11948 0.34894 0.73232 0.0
C1542 C 0.11717 0.35706 0.82804 0.0
C1543 C 0.10365 0.35038 0.8573 0.0
C1544 C 0.09959 0.35893 0.89099 0.0
C1545 C 0.1096 0.37475 0.89464 0.0
C1546 C 0.12348 0.38186 0.86468 0.0
C1547 C 0.12729 0.37281 0.83125 0.0
H1548 H 0.69568 0.76606 0.82918 0.0
H1549 H 0.70191 0.80301 0.72138 0.0
H1550 H 0.67447 0.79449 0.72902 0.0
H1551 H 0.6586 0.73789 0.77608 0.0
H1552 H 0.65127 0.72935 0.8422 0.0
H1553 H 0.67145 0.73828 0.82821 0.0
H1554 H 0.6772 0.75575 0.91317 0.0
H1555 H 0.65704 0.74689 0.92737 0.0
H1556 H 0.6683 0.76734 0.91904 0.0
H1557 H 0.64675 0.78268 0.75045 0.0
H1558 H 0.62001 0.76755 0.78132 0.0
H1559 H 0.63132 0.73767 0.87317 0.0
C1560 C 0.69126 0.77233 0.8071 0.0
C1561 C 0.70095 0.78522 0.77472 0.0
C1562 C 0.69471 0.79309 0.74631 0.0
C1563 C 0.67914 0.78836 0.75045 0.0
C1564 C 0.66993 0.77567 0.78283 0.0
C1565 C 0.67569 0.76769 0.8104 0.0
C1566 C 0.66323 0.75438 0.84221 0.0
C1567 C 0.66101 0.73907 0.82088 0.0
C1568 C 0.66665 0.75621 0.90412 0.0
C1569 C 0.64961 0.75623 0.82849 0.0
C1570 C 0.65377 0.76862 0.79433 0.0
C1571 C 0.64331 0.77289 0.77695 0.0
C1572 C 0.62816 0.76424 0.79485 0.0
C1573 C 0.62357 0.7514 0.82952 0.0
C1574 C 0.63447 0.74735 0.84637 0.0
H1575 H 0.22572 0.92481 0.83257 0.0
H1576 H 0.20004 0.89962 0.68887 0.0
H1577 H 0.21014 0.88201 0.6992 0.0
H1578 H 0.25913 0.92196 0.80521 0.0
H1579 H 0.26256 0.91976 0.87631 0.0
H1580 H 0.25314 0.93029 0.85818 0.0
H1581 H 0.23026 0.91261 0.92065 0.0
H1582 H 0.23961 0.90202 0.93892 0.0
H1583 H 0.22061 0.89221 0.91032 0.0
H1584 H 0.22302 0.86724 0.72459 0.0
H1585 H 0.23822 0.85643 0.76253 0.0
H1586 H 0.25567 0.89126 0.8896 0.0
C1587 C 0.2222 0.91558 0.80329 0.0
C1588 C 0.21208 0.91359 0.7599 0.0
C1589 C 0.20779 0.90139 0.72241 0.0
C1590 C 0.21345 0.89131 0.72796 0.0
C1591 C 0.22339 0.89359 0.77116 0.0
C1592 C 0.22776 0.90543 0.80814 0.0
C1593 C 0.23874 0.90542 0.85054 0.0
C1594 C 0.25432 0.92024 0.84733 0.0
C1595 C 0.23189 0.90291 0.90854 0.0
C1596 C 0.23986 0.89175 0.83149 0.0
C1597 C 0.23088 0.88508 0.78573 0.0
C1598 C 0.23009 0.87235 0.76044 0.0
C1599 C 0.23877 0.8663 0.78234 0.0
C1600 C 0.24814 0.87299 0.82904 0.0
C1601 C 0.24861 0.88586 0.85393 0.0
H1602 H 0.69871 0.894 0.76787 0.0
H1603 H 0.71407 0.94185 0.7996 0.0
H1604 H 0.68771 0.9351 0.82372 0.0
H1605 H 0.66228 0.88469 0.70749 0.0
H1606 H 0.65233 0.8659 0.73783 0.0
H1607 H 0.67239 0.87458 0.72205 0.0
H1608 H 0.67798 0.87096 0.82306 0.0
H1609 H 0.65796 0.86235 0.83921 0.0
H1610 H 0.67182 0.87871 0.87753 0.0
H1611 H 0.65979 0.92303 0.84734 0.0
H1612 H 0.63213 0.90661 0.86494 0.0
H1613 H 0.63504 0.86675 0.81663 0.0
C1614 C 0.69654 0.90308 0.77956 0.0
C1615 C 0.70848 0.91846 0.78183 0.0
C1616 C 0.70512 0.92999 0.79743 0.0
C1617 C 0.69018 0.92627 0.81132 0.0
C1618 C 0.67871 0.91098 0.80919 0.0
C1619 C 0.68169 0.89958 0.79338 0.0
C1620 C 0.66732 0.88404 0.7947 0.0
C1621 C 0.66335 0.87689 0.73709 0.0
C1622 C 0.66887 0.87339 0.8361 0.0
C1623 C 0.65582 0.88848 0.81401 0.0
C1624 C 0.66262 0.90407 0.82226 0.0
C1625 C 0.65433 0.91082 0.84079 0.0
C1626 C 0.63863 0.90139 0.85081 0.0
C1627 C 0.63141 0.8854 0.84207 0.0
C1628 C 0.64019 0.87893 0.82354 0.0
H1629 H 0.07858 0.76961 0.73694 0.0
H1630 H 0.08095 0.79 0.8959 0.0
H1631 H 0.09212 0.77534 0.93604 0.0
H1632 H 0.07035 0.73189 0.7857 0.0
H1633 H 0.08253 0.73022 0.73544 0.0
H1634 H 0.07333 0.74115 0.71995 0.0
H1635 H 0.09966 0.76478 0.69768 0.0
H1636 H 0.10892 0.75392 0.71305 0.0
H1637 H 0.11468 0.77168 0.74828 0.0
H1638 H 0.10335 0.75898 0.95884 0.0
H1639 H 0.11618 0.74366 0.96141 0.0
H1640 H 0.10831 0.73509 0.78653 0.0
C1641 C 0.08126 0.77077 0.78032 0.0
C1642 C 0.07881 0.7808 0.81356 0.0
C1643 C 0.08276 0.78235 0.86985 0.0
C1644 C 0.08902 0.77402 0.89306 0.0
C1645 C 0.09145 0.76434 0.85923 0.0
C1646 C 0.08786 0.76277 0.80397 0.0
C1647 C 0.0928 0.75251 0.77608 0.0
C1648 C 0.07892 0.73808 0.75293 0.0
C1649 C 0.10472 0.76125 0.73113 0.0
C1650 C 0.09981 0.74869 0.82422 0.0
C1651 C 0.09866 0.75542 0.87193 0.0
C1652 C 0.10433 0.75364 0.92177 0.0
C1653 C 0.11157 0.74488 0.92283 0.0
C1654 C 0.11329 0.73822 0.87417 0.0
C1655 C 0.10721 0.74008 0.82436 0.0
H1656 H 0.22811 0.3033 0.75341 0.0
H1657 H 0.19615 0.29026 0.88928 0.0
H1658 H 0.2095 0.31694 0.92211 0.0
H1659 H 0.2615 0.33043 0.8286 0.0
H1660 H 0.26945 0.34357 0.7719 0.0
H1661 H 0.25742 0.32341 0.75909 0.0
H1662 H 0.23955 0.32896 0.69915 0.0
H1663 H 0.25153 0.34913 0.71172 0.0
H1664 H 0.23142 0.33979 0.72769 0.0
H1665 H 0.22603 0.345 0.93951 0.0
H1666 H 0.24474 0.37263 0.9406 0.0
H1667 H 0.26609 0.36737 0.79386 0.0
C1668 C 0.22391 0.30604 0.79007 0.0
C1669 C 0.21107 0.29469 0.81875 0.0
C1670 C 0.20597 0.29876 0.86662 0.0
C1671 C 0.21347 0.31388 0.88563 0.0
C1672 C 0.22608 0.32478 0.85639 0.0
C1673 C 0.23128 0.32107 0.80971 0.0
C1674 C 0.24507 0.33497 0.78583 0.0
C1675 C 0.2592 0.33297 0.78642 0.0
C1676 C 0.24168 0.33842 0.72766 0.0
C1677 C 0.24675 0.3471 0.82626 0.0
C1678 C 0.23568 0.34097 0.86664 0.0
C1679 C 0.23478 0.34994 0.9082 0.0
C1680 C 0.24546 0.36562 0.90842 0.0
C1681 C 0.2569 0.37217 0.86737 0.0
C1682 C 0.25753 0.36272 0.82594 0.0
H1683 H 0.90224 0.69634 0.18774 0.0
H1684 H 0.9457 0.70127 0.23859 0.0
H1685 H 0.93528 0.67357 0.22517 0.0
H1686 H 0.87824 0.65976 0.25214 0.0
H1687 H 0.86442 0.65279 0.19727 0.0
H1688 H 0.87526 0.67297 0.21156 0.0
H1689 H 0.88467 0.67823 0.11075 0.0
H1690 H 0.87389 0.65806 0.09617 0.0
H1691 H 0.89414 0.66865 0.08248 0.0
H1692 H 0.9203 0.64547 0.20462 0.0
H1693 H 0.90169 0.61882 0.17991 0.0
H1694 H 0.86795 0.63222 0.14289 0.0
C1695 C 0.90957 0.69161 0.19627 0.0
C1696 C 0.9248 0.70099 0.21425 0.0
C1697 C 0.934 0.69432 0.22484 0.0
C1698 C 0.92819 0.6786 0.21731 0.0
C1699 C 0.91315 0.66971 0.19928 0.0
C1700 C 0.90396 0.67595 0.18903 0.0
C1701 C 0.88823 0.66389 0.16966 0.0
C1702 C 0.87581 0.66226 0.21008 0.0
C1703 C 0.88505 0.66742 0.1113 0.0
C1704 C 0.89004 0.64989 0.17046 0.0
C1705 C 0.9045 0.6535 0.18763 0.0
C1706 C 0.90893 0.6425 0.19124 0.0
C1707 C 0.89827 0.62739 0.17703 0.0
C1708 C 0.88334 0.6234 0.15948 0.0
C1709 C 0.87924 0.63486 0.15624 0.0
H1710 H 0.36953 0.25305 0.09112 0.0
H1711 H 0.38265 0.26721 0.26007 0.0
H1712 H 0.35549 0.25546 0.28582 0.0
H1713 H 0.33703 0.25902 0.08754 0.0
H1714 H 0.32555 0.24239 0.04589 0.0
H1715 H 0.34608 0.25231 0.04011 0.0
H1716 H 0.34603 0.22712 0.06085 0.0
H1717 H 0.32551 0.21712 0.06674 0.0
H1718 H 0.33696 0.21662 0.12252 0.0
H1719 H 0.32709 0.24216 0.29371 0.0
H1720 H 0.29907 0.22751 0.28379 0.0
H1721 H 0.30413 0.22136 0.11015 0.0
C1722 C 0.36669 0.25376 0.13345 0.0
C1723 C 0.37822 0.26109 0.17357 0.0
C1724 C 0.37403 0.26165 0.22862 0.0
C1725 C 0.35862 0.25503 0.24367 0.0
C1726 C 0.34754 0.24784 0.20326 0.0
C1727 C 0.35134 0.24711 0.14932 0.0
C1728 C 0.33714 0.23834 0.1143 0.0
C1729 C 0.33641 0.24863 0.06931 0.0
C1730 C 0.33637 0.22394 0.08967 0.0
C1731 C 0.3248 0.23424 0.15707 0.0
C1732 C 0.33107 0.23991 0.20801 0.0
C1733 C 0.32203 0.23765 0.25404 0.0
C1734 C 0.30611 0.22931 0.24794 0.0
C1735 C 0.29938 0.22326 0.19621 0.0
C1736 C 0.30891 0.2258 0.15025 0.0
H1737 H 0.76531 0.13012 0.17934 0.0
H1738 H 0.72217 0.09134 0.12737 0.0
H1739 H 0.73094 0.07378 0.15884 0.0
H1740 H 0.789 0.11488 0.13853 0.0
H1741 H 0.80175 0.12271 0.19632 0.0
H1742 H 0.79192 0.1322 0.17079 0.0
H1743 H 0.78068 0.13084 0.2676 0.0
H1744 H 0.79043 0.12129 0.29339 0.0
H1745 H 0.77002 0.11258 0.3014 0.0
H1746 H 0.7446 0.06047 0.194 0.0
H1747 H 0.76235 0.05235 0.22921 0.0
H1748 H 0.79645 0.09982 0.25908 0.0
C1749 C 0.75768 0.11794 0.17461 0.0
C1750 C 0.74304 0.11212 0.15085 0.0
C1751 C 0.73343 0.09609 0.14543 0.0
C1752 C 0.7383 0.08601 0.16327 0.0
C1753 C 0.75278 0.09214 0.18657 0.0
C1754 C 0.76234 0.10772 0.19227 0.0
C1755 C 0.77745 0.11136 0.2179 0.0
C1756 C 0.79081 0.12084 0.17853 0.0
C1757 C 0.77977 0.1195 0.27337 0.0
C1758 C 0.77493 0.09538 0.22535 0.0
C1759 C 0.76062 0.08446 0.20716 0.0
C1760 C 0.75582 0.06891 0.20861 0.0
C1761 C 0.76598 0.06442 0.22871 0.0
C1762 C 0.78078 0.07544 0.2471 0.0
C1763 C 0.78519 0.09111 0.24577 0.0
H1764 H 0.0326 0.44722 0.49764 0.0
H1765 H 0.04154 0.41909 0.38602 0.0
H1766 H 0.01522 0.39769 0.40068 0.0
H1767 H 0.00855 0.41697 0.59334 0.0
H1768 H 0.99596 0.42454 0.60457 0.0
H1769 H 0.01575 0.43724 0.5877 0.0
H1770 H 0.0076 0.44771 0.50504 0.0
H1771 H 0.98781 0.43507 0.52166 0.0
H1772 H 0.99483 0.43458 0.45414 0.0
H1773 H 0.98747 0.37975 0.4248 0.0
H1774 H 0.96046 0.36699 0.45453 0.0
H1775 H 0.97003 0.40715 0.54971 0.0
C1776 C 0.02911 0.43652 0.47661 0.0
C1777 C 0.03915 0.43482 0.44076 0.0
C1778 C 0.03405 0.42066 0.41374 0.0
C1779 C 0.01915 0.40843 0.42191 0.0
C1780 C 0.00952 0.41055 0.45729 0.0
C1781 C 0.01432 0.42426 0.48419 0.0
C1782 C 0.00161 0.42387 0.51825 0.0
C1783 C 0.00572 0.42576 0.5796 0.0
C1784 C 0.99773 0.43602 0.49857 0.0
C1785 C 0.98881 0.40788 0.50568 0.0
C1786 C 0.9936 0.40031 0.47084 0.0
C1787 C 0.98362 0.38553 0.45237 0.0
C1788 C 0.9683 0.37838 0.46951 0.0
C1789 C 0.96312 0.38606 0.50449 0.0
C1790 C 0.97362 0.40093 0.52314 0.0
H1791 H 0.56624 0.54151 0.5776 0.0
H1792 H 0.61153 0.57485 0.51942 0.0
H1793 H 0.60153 0.59131 0.48711 0.0
H1794 H 0.54578 0.54525 0.46584 0.0
H1795 H 0.52998 0.54309 0.50693 0.0
H1796 H 0.54082 0.53427 0.52842 0.0
H1797 H 0.54632 0.54826 0.62195 0.0
H1798 H 0.53546 0.5571 0.60079 0.0
H1799 H 0.55496 0.56879 0.62332 0.0
H1800 H 0.58657 0.60369 0.45812 0.0
H1801 H 0.56756 0.61123 0.43398 0.0
H1802 H 0.53189 0.56979 0.51032 0.0
C1803 C 0.57409 0.55235 0.55861 0.0
C1804 C 0.58968 0.55692 0.55122 0.0
C1805 C 0.59955 0.57111 0.52561 0.0
C1806 C 0.59399 0.58056 0.50717 0.0
C1807 C 0.57854 0.57565 0.51461 0.0
C1808 C 0.56873 0.5619 0.53974 0.0
C1809 C 0.55252 0.55908 0.54094 0.0
C1810 C 0.54164 0.54457 0.50859 0.0
C1811 C 0.54699 0.55826 0.60028 0.0
C1812 C 0.55476 0.57335 0.51215 0.0
C1813 C 0.56987 0.58277 0.49753 0.0
C1814 C 0.57471 0.59645 0.46955 0.0
C1815 C 0.56381 0.60062 0.45596 0.0
C1816 C 0.54823 0.59111 0.47027 0.0
C1817 C 0.54371 0.57733 0.49898 0.0
H1818 H 0.44149 0.03094 0.47538 0.0
H1819 H 0.44066 0.03325 0.65314 0.0
H1820 H 0.42645 0.005 0.65761 0.0
H1821 H 0.40364 0.99869 0.46003 0.0
H1822 H 0.40882 0.99065 0.4036 0.0
H1823 H 0.41903 0.01101 0.41466 0.0
H1824 H 0.4446 0.01086 0.41852 0.0
H1825 H 0.43448 0.99051 0.40745 0.0
H1826 H 0.4467 0.99844 0.46652 0.0
H1827 H 0.41273 0.97647 0.64237 0.0
H1828 H 0.39991 0.94985 0.60868 0.0
H1829 H 0.40928 0.96644 0.4408 0.0
C1830 C 0.43836 0.02553 0.51532 0.0
C1831 C 0.44222 0.03429 0.56396 0.0
C1832 C 0.43781 0.02676 0.61535 0.0
C1833 C 0.42976 0.01073 0.61829 0.0
C1834 C 0.42614 0.00245 0.56948 0.0
C1835 C 0.43025 0.0096 0.51897 0.0
C1836 C 0.42486 0.9981 0.47259 0.0
C1837 C 0.4134 -0.00029 0.43555 0.0
C1838 C 0.43847 0.99957 0.43933 0.0
C1839 C 0.41713 0.98334 0.50487 0.0
C1840 C 0.41803 0.98607 0.56069 0.0
C1841 C 0.4119 0.97419 0.59875 0.0
C1842 C 0.40467 0.95911 0.5792 0.0
C1843 C 0.40355 0.95606 0.52211 0.0
C1844 C 0.40986 0.96839 0.48466 0.0
H1845 H 0.57135 0.0339 0.45524 0.0
H1846 H 0.61039 0.03646 0.54006 0.0
H1847 H 0.60226 0.01005 0.51137 0.0
H1848 H 0.54482 0.99524 0.49057 0.0
H1849 H 0.53504 0.99071 0.42548 0.0
H1850 H 0.54426 0.01002 0.45091 0.0
H1851 H 0.5601 0.01959 0.3613 0.0
H1852 H 0.55094 0.00028 0.3356 0.0
H1853 H 0.5715 0.01135 0.33972 0.0
H1854 H 0.58955 0.98316 0.4755 0.0
H1855 H 0.57293 0.95753 0.43619 0.0
H1856 H 0.54217 0.9725 0.37493 0.0
C1857 C 0.57825 0.02895 0.46756 0.0
C1858 C 0.59153 0.03728 0.49986 0.0
C1859 C 0.60017 0.03033 0.51532 0.0
C1860 C 0.59567 0.01534 0.49915 0.0
C1861 C 0.5825 0.00744 0.46749 0.0
C1862 C 0.57391 0.01399 0.45186 0.0
C1863 C 0.56002 0.0029 0.41896 0.0
C1864 C 0.54516 0.99952 0.44825 0.0
C1865 C 0.56069 0.00889 0.36042 0.0
C1866 C 0.56208 0.98904 0.41893 0.0
C1867 C 0.57516 0.99193 0.44691 0.0
C1868 C 0.57932 0.98078 0.45328 0.0
C1869 C 0.5698 0.96626 0.43077 0.0
C1870 C 0.55625 0.963 0.40235 0.0
C1871 C 0.55247 0.97463 0.39615 0.0
H1872 H 0.96474 0.5461 0.48559 0.0
H1873 H 0.95605 0.5744 0.59715 0.0
H1874 H 0.98173 0.59624 0.57749 0.0
H1875 H 0.00287 0.56005 0.52418 0.0
H1876 H 0.00949 0.55927 0.45622 0.0
H1877 H 0.98992 0.5464 0.4749 0.0
H1878 H 0.98078 0.55594 0.39229 0.0
H1879 H 0.00036 0.56889 0.37341 0.0
H1880 H 0.98747 0.57608 0.38508 0.0
H1881 H 0.00896 0.61448 0.55019 0.0
H1882 H 0.03595 0.62732 0.5206 0.0
H1883 H 0.02675 0.5869 0.42776 0.0
C1884 C 0.96814 0.55694 0.50532 0.0
C1885 C 0.95837 0.55856 0.54275 0.0
C1886 C 0.96334 0.57289 0.56827 0.0
C1887 C 0.97788 0.58538 0.55718 0.0
C1888 C 0.98728 0.58335 0.52044 0.0
C1889 C 0.98261 0.56948 0.49494 0.0
C1890 C 0.99524 0.56998 0.46002 0.0
C1891 C -0.00036 0.55823 0.48006 0.0
C1892 C 0.99069 0.56758 0.39908 0.0
C1893 C 0.00786 0.58619 0.47084 0.0
C1894 C 0.003 0.5938 0.50519 0.0
C1895 C 0.01286 0.60869 0.52286 0.0
C1896 C 0.02817 0.61589 0.5058 0.0
C1897 C 0.03348 0.60813 0.47181 0.0
C1898 C 0.02306 0.5932 0.45343 0.0
H1899 H 0.42885 0.46347 0.52795 0.0
H1900 H 0.39087 0.42807 0.43543 0.0
H1901 H 0.39933 0.40974 0.45965 0.0
H1902 H 0.45627 0.4527 0.48979 0.0
H1903 H 0.46549 0.45695 0.55593 0.0
H1904 H 0.45617 0.46717 0.53279 0.0
H1905 H 0.43955 0.45907 0.62084 0.0
H1906 H 0.44881 0.44879 0.64421 0.0
H1907 H 0.42828 0.43907 0.63799 0.0
H1908 H 0.41224 0.39544 0.49174 0.0
H1909 H 0.42893 0.38622 0.5287 0.0
H1910 H 0.45842 0.43089 0.60068 0.0
C1911 C 0.42227 0.45185 0.51294 0.0
C1912 C 0.40919 0.44722 0.4798 0.0
C1913 C 0.40093 0.43191 0.46086 0.0
C1914 C 0.40562 0.42139 0.47447 0.0
C1915 C 0.41857 0.42635 0.50711 0.0
C1916 C 0.42678 0.44121 0.52611 0.0
C1917 C 0.44048 0.44368 0.55957 0.0
C1918 C 0.45549 0.45584 0.53291 0.0
C1919 C 0.43919 0.4479 0.61919 0.0
C1920 C 0.43874 0.42792 0.55604 0.0
C1921 C 0.426 0.41808 0.52575 0.0
C1922 C 0.42221 0.40301 0.51576 0.0
C1923 C 0.43176 0.39788 0.53694 0.0
C1924 C 0.44496 0.40781 0.56774 0.0
C1925 C 0.44837 0.42298 0.57765 0.0
H1926 H 0.23171 0.08684 0.16562 0.0
H1927 H 0.23604 0.08395 0.34174 0.0
H1928 H 0.23513 0.10777 0.35387 0.0
H1929 H 0.2564 0.12584 0.15596 0.0
H1930 H 0.246 0.12926 0.10303 0.0
H1931 H 0.24454 0.11082 0.1086 0.0
H1932 H 0.21506 0.09788 0.11628 0.0
H1933 H 0.21641 0.1163 0.11035 0.0
H1934 H 0.20676 0.10418 0.16829 0.0
H1935 H 0.23632 0.13304 0.34617 0.0
H1936 H 0.24001 0.15821 0.31927 0.0
H1937 H 0.23564 0.14498 0.14778 0.0
C1938 C 0.23202 0.09098 0.20685 0.0
C1939 C 0.23379 0.08349 0.25282 0.0
C1940 C 0.23461 0.08949 0.30601 0.0
C1941 C 0.23405 0.10297 0.31331 0.0
C1942 C 0.2327 0.11031 0.26699 0.0
C1943 C 0.23167 0.10451 0.21479 0.0
C1944 C 0.23177 0.11534 0.17153 0.0
C1945 C 0.24549 0.12062 0.13251 0.0
C1946 C 0.21659 0.10798 0.13975 0.0
C1947 C 0.23345 0.12831 0.20748 0.0
C1948 C 0.23373 0.12508 0.26244 0.0
C1949 C 0.23593 0.13563 0.30331 0.0
C1950 C 0.23806 0.14991 0.28758 0.0
C1951 C 0.23811 0.15358 0.2314 0.0
C1952 C 0.23556 0.14251 0.19105 0.0
H1953 H 0.84879 0.09852 0.16945 0.0
H1954 H 0.84856 0.08451 0.3381 0.0
H1955 H 0.873 0.1083 0.3547 0.0
H1956 H 0.88985 0.11663 0.14781 0.0
H1957 H 0.8906 0.13185 0.10676 0.0
H1958 H 0.87351 0.11335 0.10753 0.0
H1959 H 0.85768 0.12594 0.13691 0.0
H1960 H 0.87472 0.14446 0.1364 0.0
H1961 H 0.86315 0.13776 0.1975 0.0
H1962 H 0.89691 0.13411 0.3539 0.0
H1963 H 0.91859 0.15999 0.33558 0.0
H1964 H 0.903 0.157 0.16756 0.0
C1965 C 0.85394 0.10035 0.20974 0.0
C1966 C 0.84678 0.08963 0.25245 0.0
C1967 C 0.85385 0.09255 0.30471 0.0
C1968 C 0.86773 0.10602 0.31454 0.0
C1969 C 0.8744 0.11642 0.27168 0.0
C1970 C 0.86776 0.11373 0.22029 0.0
C1971 C 0.87699 0.12696 0.18174 0.0
C1972 C 0.8831 0.12189 0.13309 0.0
C1973 C 0.86757 0.1342 0.162 0.0
C1974 C 0.88979 0.13758 0.21964 0.0
C1975 C 0.88813 0.13128 0.27126 0.0
C1976 C 0.89838 0.13913 0.31354 0.0
C1977 C 0.91064 0.15382 0.30274 0.0
C1978 C 0.91251 0.16051 0.25013 0.0
C1979 C 0.90194 0.1522 0.20814 0.0
H1980 H 0.91767 0.77249 0.1733 0.0
H1981 H 0.9205 0.75588 0.33471 0.0
H1982 H 0.89771 0.75703 0.36386 0.0
H1983 H 0.90328 0.79804 0.21835 0.0
H1984 H 0.89067 0.79325 0.16018 0.0
H1985 H 0.90831 0.79295 0.1539 0.0
H1986 H 0.89326 0.76486 0.1203 0.0
H1987 H 0.87562 0.76508 0.12645 0.0
H1988 H 0.87796 0.75072 0.16198 0.0
H1989 H 0.87355 0.7578 0.37321 0.0
H1990 H 0.84905 0.75726 0.36115 0.0
H1991 H 0.86158 0.77305 0.19329 0.0
C1992 C 0.91369 0.76941 0.21512 0.0
C1993 C 0.92091 0.76419 0.25186 0.0
C1994 C 0.91515 0.75993 0.30589 0.0
C1995 C 0.90227 0.76062 0.32293 0.0
C1996 C 0.89526 0.76558 0.28548 0.0
C1997 C 0.90074 0.7699 0.23268 0.0
C1998 C 0.89033 0.77355 0.19916 0.0
C1999 C 0.89865 0.79045 0.18189 0.0
C2000 C 0.88391 0.76291 0.14904 0.0
C2001 C 0.87794 0.77022 0.24095 0.0
C2002 C 0.88113 0.76585 0.29069 0.0
C2003 C 0.871 0.76138 0.33468 0.0
C2004 C 0.8571 0.76109 0.32738 0.0
C2005 C 0.8534 0.76515 0.27633 0.0
C2006 C 0.86414 0.77006 0.23301 0.0
H2007 H 0.09752 0.2561 0.74468 0.0
H2008 H 0.06425 0.20802 0.76745 0.0
H2009 H 0.08485 0.2017 0.75966 0.0
H2010 H 0.12134 0.25074 0.6458 0.0
H2011 H 0.13884 0.2662 0.67323 0.0
H2012 H 0.12135 0.26679 0.67826 0.0
H2013 H 0.12481 0.27014 0.78369 0.0
H2014 H 0.14229 0.26954 0.779 0.0
H2015 H 0.12711 0.25634 0.82331 0.0
H2016 H 0.10938 0.20082 0.75335 0.0
H2017 H 0.13583 0.20548 0.74835 0.0
H2018 H 0.15272 0.25409 0.72913 0.0
C2019 C 0.09451 0.24422 0.7476 0.0
C2020 C 0.07926 0.23255 0.75662 0.0
C2021 C 0.07585 0.21716 0.76046 0.0
C2022 C 0.08747 0.21345 0.75604 0.0
C2023 C 0.10241 0.22525 0.7476 0.0
C2024 C 0.10594 0.24032 0.74325 0.0
C2025 C 0.12292 0.25092 0.73561 0.0
C2026 C 0.12631 0.25914 0.67991 0.0
C2027 C 0.12968 0.26241 0.78325 0.0
C2028 C 0.12844 0.23949 0.73698 0.0
C2029 C 0.11646 0.22474 0.74375 0.0
C2030 C 0.11885 0.21231 0.74768 0.0
C2031 C 0.13391 0.21507 0.74485 0.0
C2032 C 0.14634 0.23013 0.73819 0.0
C2033 C 0.14347 0.24243 0.73387 0.0
H2034 H 0.75031 0.83963 0.77586 0.0
H2035 H 0.79704 0.85313 0.81997 0.0
H2036 H 0.80378 0.88029 0.81801 0.0
H2037 H 0.7592 0.87108 0.68383 0.0
H2038 H 0.74298 0.8727 0.70514 0.0
H2039 H 0.7421 0.85445 0.70807 0.0
H2040 H 0.73512 0.85218 0.8113 0.0
H2041 H 0.73603 0.87043 0.80877 0.0
H2042 H 0.74751 0.86721 0.85772 0.0
H2043 H 0.80518 0.90599 0.81285 0.0
H2044 H 0.80111 0.92811 0.8055 0.0
H2045 H 0.75333 0.8974 0.76633 0.0
C2046 C 0.762 0.84828 0.7847 0.0
C2047 C 0.77317 0.84426 0.79791 0.0
C2048 C 0.7883 0.85594 0.80966 0.0
C2049 C 0.79224 0.87139 0.80862 0.0
C2050 C 0.7809 0.87492 0.79587 0.0
C2051 C 0.76609 0.86368 0.78411 0.0
C2052 C 0.75592 0.87042 0.773 0.0
C2053 C 0.74969 0.86696 0.714 0.0
C2054 C 0.74288 0.86472 0.81523 0.0
C2055 C 0.76729 0.88722 0.78061 0.0
C2056 C 0.78165 0.88962 0.79355 0.0
C2057 C 0.79399 0.90424 0.80266 0.0
C2058 C 0.79156 0.91673 0.79841 0.0
C2059 C 0.7769 0.9145 0.78541 0.0
C2060 C 0.76466 0.89951 0.77642 0.0
H2061 H 0.1419 0.9103 0.85807 0.0
H2062 H 0.15682 0.91706 0.68815 0.0
H2063 H 0.13285 0.89388 0.66201 0.0
H2064 H 0.12651 0.87115 0.86004 0.0
H2065 H 0.11047 0.86697 0.90362 0.0
H2066 H 0.12768 0.88525 0.90821 0.0
H2067 H 0.11225 0.89898 0.88978 0.0
H2068 H 0.09492 0.88071 0.88559 0.0
H2069 H 0.10033 0.8941 0.82961 0.0
H2070 H 0.1091 0.86847 0.65605 0.0
H2071 H 0.08654 0.84293 0.67007 0.0
H2072 H 0.08675 0.85269 0.84362 0.0
C2073 C 0.13996 0.90714 0.81514 0.0
C2074 C 0.15122 0.91553 0.77513 0.0
C2075 C 0.14835 0.91085 0.71952 0.0
C2076 C 0.13475 0.89771 0.70423 0.0
C2077 C 0.1241 0.88945 0.74494 0.0
C2078 C 0.12646 0.89405 0.79918 0.0
C2079 C 0.11372 0.8825 0.83548 0.0
C2080 C 0.11998 0.87609 0.8794 0.0
C2081 C 0.10477 0.88949 0.86165 0.0
C2082 C 0.10412 0.87045 0.79343 0.0
C2083 C 0.11024 0.87476 0.74139 0.0
C2084 C 0.10404 0.86507 0.69641 0.0
C2085 C 0.09128 0.85056 0.70486 0.0
C2086 C 0.08486 0.84587 0.75788 0.0
C2087 C 0.09126 0.85605 0.8025 0.0
H2088 H 0.89454 0.41177 0.6501 0.0
H2089 H 0.92293 0.4218 0.50488 0.0
H2090 H 0.92451 0.44686 0.49691 0.0
H2091 H 0.87364 0.43076 0.60382 0.0
H2092 H 0.87325 0.43784 0.67133 0.0
H2093 H 0.87349 0.42022 0.66374 0.0
H2094 H 0.89762 0.43099 0.72522 0.0
H2095 H 0.89749 0.44865 0.7328 0.0
H2096 H 0.91432 0.44885 0.70702 0.0
H2097 H 0.92436 0.4713 0.50742 0.0
H2098 H 0.92208 0.49355 0.53483 0.0
H2099 H 0.89369 0.46781 0.67307 0.0
C2100 C 0.90093 0.41915 0.61622 0.0
C2101 C 0.9086 0.4148 0.57809 0.0
C2102 C 0.91695 0.42486 0.53461 0.0
C2103 C 0.91791 0.43912 0.52965 0.0
C2104 C 0.9104 0.44314 0.56834 0.0
C2105 C 0.90201 0.43345 0.61063 0.0
C2106 C 0.8955 0.44083 0.64778 0.0
C2107 C 0.87792 0.43188 0.64657 0.0
C2108 C 0.9016 0.44242 0.70668 0.0
C2109 C 0.90179 0.45627 0.62025 0.0
C2110 C 0.91028 0.45731 0.57435 0.0
C2111 C 0.91764 0.47059 0.54302 0.0
C2112 C 0.9163 0.48319 0.55906 0.0
C2113 C 0.90769 0.48242 0.60607 0.0
C2114 C 0.90027 0.46872 0.63677 0.0
H2115 H 0.5124 0.43179 0.48863 0.0
H2116 H 0.51344 0.41781 0.65638 0.0
H2117 H 0.53861 0.44099 0.66987 0.0
H2118 H 0.5528 0.44791 0.46046 0.0
H2119 H 0.55399 0.46343 0.42005 0.0
H2120 H 0.53631 0.44547 0.42311 0.0
H2121 H 0.52217 0.4595 0.45613 0.0
H2122 H 0.53979 0.47749 0.45316 0.0
H2123 H 0.52899 0.47153 0.5161 0.0
H2124 H 0.56332 0.46607 0.6658 0.0
H2125 H 0.58565 0.49131 0.64471 0.0
H2126 H 0.56831 0.48875 0.47964 0.0
C2127 C 0.51794 0.43353 0.52813 0.0
C2128 C 0.51096 0.42297 0.57143 0.0
C2129 C 0.51857 0.42574 0.62257 0.0
C2130 C 0.53288 0.43886 0.63063 0.0
C2131 C 0.53941 0.44906 0.58713 0.0
C2132 C 0.53219 0.44655 0.53689 0.0
C2133 C 0.54146 0.45947 0.49725 0.0
C2134 C 0.54643 0.45372 0.44727 0.0
C2135 C 0.53257 0.46747 0.47965 0.0
C2136 C 0.55497 0.46972 0.5332 0.0
C2137 C 0.55361 0.4635 0.58481 0.0
C2138 C 0.56455 0.47103 0.62545 0.0
C2139 C 0.57718 0.48536 0.61307 0.0
C2140 C 0.57875 0.492 0.5605 0.0
C2141 C 0.5675 0.48397 0.52011 0.0
H2142 H 0.56315 0.07199 0.6755 0.0
H2143 H 0.58461 0.09967 0.53096 0.0
H2144 H 0.56313 0.10463 0.52164 0.0
H2145 H 0.52531 0.05427 0.62632 0.0
H2146 H 0.51692 0.05426 0.69161 0.0
H2147 H 0.5345 0.05381 0.68916 0.0
H2148 H 0.54764 0.07805 0.75023 0.0
H2149 H 0.53008 0.07858 0.75287 0.0
H2150 H 0.5474 0.09505 0.72925 0.0
H2151 H 0.53863 0.10538 0.52507 0.0
H2152 H 0.51282 0.10164 0.54058 0.0
H2153 H 0.50752 0.07354 0.68297 0.0
C2154 C 0.56343 0.07923 0.6422 0.0
C2155 C 0.57558 0.08547 0.60402 0.0
C2156 C 0.57544 0.09479 0.5608 0.0
C2157 C 0.56331 0.0977 0.55521 0.0
C2158 C 0.55145 0.09126 0.59329 0.0
C2159 C 0.55143 0.08226 0.63602 0.0
C2160 C 0.53702 0.07619 0.67006 0.0
C2161 C 0.5279 0.05859 0.6692 0.0
C2162 C 0.54076 0.08234 0.7291 0.0
C2163 C 0.52879 0.08293 0.63914 0.0
C2164 C 0.53735 0.0917 0.59526 0.0
C2165 C 0.53187 0.09865 0.55958 0.0
C2166 C 0.5172 0.09645 0.56871 0.0
C2167 C 0.50815 0.08733 0.61305 0.0
C2168 C 0.51417 0.08066 0.64894 0.0
H2169 H 0.76636 0.58023 0.05988 0.0
H2170 H 0.73184 0.53322 0.09444 0.0
H2171 H 0.75211 0.52642 0.10325 0.0
H2172 H 0.79241 0.57188 0.98223 0.0
H2173 H 0.80917 0.58804 0.01077 0.0
H2174 H 0.79182 0.58877 0.00218 0.0
H2175 H 0.79233 0.59517 0.10544 0.0
H2176 H 0.80959 0.59438 0.1144 0.0
H2177 H 0.79308 0.58255 0.15609 0.0
H2178 H 0.77638 0.52527 0.11475 0.0
H2179 H 0.8026 0.52981 0.12765 0.0
H2180 H 0.82092 0.57767 0.08626 0.0
C2181 C 0.76299 0.56844 0.0684 0.0
C2182 C 0.7475 0.55724 0.0763 0.0
C2183 C 0.74363 0.54198 0.08806 0.0
C2184 C 0.75506 0.53801 0.09307 0.0
C2185 C 0.77026 0.54942 0.08603 0.0
C2186 C 0.77421 0.56431 0.07371 0.0
C2187 C 0.79137 0.57463 0.07114 0.0
C2188 C 0.79649 0.58121 0.01312 0.0
C2189 C 0.79691 0.58743 0.11435 0.0
C2190 C 0.79649 0.56329 0.08497 0.0
C2191 C 0.78417 0.54878 0.09299 0.0
C2192 C 0.78611 0.53655 0.10808 0.0
C2193 C 0.80105 0.53926 0.1154 0.0
C2194 C 0.81381 0.55409 0.10789 0.0
C2195 C 0.81142 0.56618 0.09205 0.0
H2196 H 0.42026 0.1785 0.11322 0.0
H2197 H 0.46427 0.1918 0.03919 0.0
H2198 H 0.47043 0.21877 0.0388 0.0
H2199 H 0.4124 0.20287 0.03639 0.0
H2200 H 0.40331 0.20725 0.0915 0.0
H2201 H 0.40305 0.18931 0.0911 0.0
H2202 H 0.41542 0.1951 0.18776 0.0
H2203 H 0.41564 0.21305 0.18861 0.0
H2204 H 0.43311 0.21267 0.19931 0.0
H2205 H 0.47076 0.24394 0.03928 0.0
H2206 H 0.46546 0.26531 0.04222 0.0
H2207 H 0.42127 0.23527 0.11637 0.0
C2208 C 0.43131 0.18709 0.09772 0.0
C2209 C 0.4418 0.18304 0.0763 0.0
C2210 C 0.45608 0.19464 0.056 0.0
C2211 C 0.45968 0.20999 0.05564 0.0
C2212 C 0.44893 0.21353 0.07607 0.0
C2213 C 0.43508 0.20241 0.0971 0.0
C2214 C 0.42516 0.20902 0.11394 0.0
C2215 C 0.4101 0.20168 0.08127 0.0
C2216 C 0.42216 0.20736 0.1761 0.0
C2217 C 0.43544 0.22556 0.09792 0.0
C2218 C 0.44914 0.22797 0.07652 0.0
C2219 C 0.46015 0.24222 0.05656 0.0
C2220 C 0.45701 0.25427 0.05827 0.0
C2221 C 0.44297 0.25198 0.07968 0.0
C2222 C 0.43216 0.23744 0.1002 0.0
H2223 H 0.747 0.19305 0.12247 0.0
H2224 H 0.75472 0.16748 0.99569 0.0
H2225 H 0.77857 0.19078 0.96914 0.0
H2226 H 0.76326 0.2298 0.0477 0.0
H2227 H 0.77179 0.24085 0.10886 0.0
H2228 H 0.75439 0.22265 0.11352 0.0
H2229 H 0.76726 0.21334 0.18365 0.0
H2230 H 0.78467 0.23147 0.17918 0.0
H2231 H 0.78492 0.21405 0.16558 0.0
H2232 H 0.8025 0.21614 0.96134 0.0
H2233 H 0.82528 0.24153 0.97494 0.0
H2234 H 0.80221 0.25052 0.10784 0.0
C2235 C 0.75354 0.19243 0.08837 0.0
C2236 C 0.74896 0.17848 0.06091 0.0
C2237 C 0.758 0.17806 0.01724 0.0
C2238 C 0.77152 0.19124 0.00169 0.0
C2239 C 0.77585 0.20475 0.03019 0.0
C2240 C 0.76713 0.20545 0.07261 0.0
C2241 C 0.77496 0.22106 0.09949 0.0
C2242 C 0.76554 0.22906 0.09192 0.0
C2243 C 0.77814 0.2199 0.16057 0.0
C2244 C 0.78962 0.22889 0.0665 0.0
C2245 C 0.7898 0.21936 0.02622 0.0
C2246 C 0.80243 0.22377 0.99234 0.0
C2247 C 0.81533 0.23822 0.00044 0.0
C2248 C 0.81554 0.24804 0.0424 0.0
C2249 C 0.80238 0.24336 0.07511 0.0
H2250 H 0.54785 0.74718 0.84234 0.0
H2251 H 0.57737 0.75419 0.9819 0.0
H2252 H 0.57949 0.77923 -0.00106 0.0
H2253 H 0.56814 0.78386 0.7923 0.0
H2254 H 0.55192 0.78537 0.77011 0.0
H2255 H 0.55052 0.76693 0.77387 0.0
H2256 H 0.52708 0.75719 0.83832 0.0
H2257 H 0.5283 0.7756 0.83437 0.0
H2258 H 0.52855 0.7676 0.90025 0.0
H2259 H 0.5814 0.80463 0.99341 0.0
H2260 H 0.58224 0.82864 0.96755 0.0
H2261 H 0.55135 0.80538 0.83193 0.0
C2262 C 0.55436 0.75377 0.87749 0.0
C2263 C 0.56238 0.74871 0.91098 0.0
C2264 C 0.5711 0.75783 0.95578 0.0
C2265 C 0.57234 0.77205 0.96592 0.0
C2266 C 0.56473 0.77695 0.93106 0.0
C2267 C 0.55578 0.76805 0.88805 0.0
C2268 C 0.54994 0.77661 0.85382 0.0
C2269 C 0.55547 0.77829 0.79401 0.0
C2270 C 0.53243 0.76878 0.8569 0.0
C2271 C 0.55746 0.79187 0.88319 0.0
C2272 C 0.56579 0.79174 0.92797 0.0
C2273 C 0.57469 0.80481 0.95908 0.0
C2274 C 0.57516 0.81841 0.94387 0.0
C2275 C 0.56679 0.81884 0.89794 0.0
C2276 C 0.55766 0.80533 0.86777 0.0
H2277 H 0.1814 0.76199 0.91664 0.0
H2278 H 0.1975 0.73089 0.96243 0.0
H2279 H 0.2239 0.75272 0.96861 0.0
H2280 H 0.2138 0.78721 0.83346 0.0
H2281 H 0.21354 0.80413 0.85528 0.0
H2282 H 0.19605 0.78599 0.85365 0.0
H2283 H 0.19136 0.78914 0.9562 0.0
H2284 H 0.20886 0.80726 0.95819 0.0
H2285 H 0.20586 0.79241 0.00612 0.0
H2286 H 0.24861 0.77824 0.97105 0.0
H2287 H 0.26949 0.80521 0.96785 0.0
H2288 H 0.23675 0.81911 0.92089 0.0
C2289 C 0.19046 0.75972 0.92773 0.0
C2290 C 0.18738 0.74472 0.93902 0.0
C2291 C 0.19959 0.74229 0.95354 0.0
C2292 C 0.21462 0.75461 0.95721 0.0
C2293 C 0.21722 0.76926 0.94622 0.0
C2294 C 0.20547 0.77184 0.93163 0.0
C2295 C 0.21121 0.78865 0.9223 0.0
C2296 C 0.20849 0.79167 0.86263 0.0
C2297 C 0.20389 0.79471 0.96315 0.0
C2298 C 0.22804 0.79516 0.934 0.0
C2299 C 0.23132 0.78384 0.94773 0.0
C2300 C 0.24616 0.7872 0.96029 0.0
C2301 C 0.25794 0.80254 0.95845 0.0
C2302 C 0.25477 0.81428 0.94418 0.0
C2303 C 0.23959 0.81044 0.93202 0.0
H2304 H 0.1856 0.42864 0.92553 0.0
H2305 H 0.20297 0.47562 0.87374 0.0
H2306 H 0.2293 0.47985 0.87515 0.0
H2307 H 0.2173 0.43601 0.01646 0.0
H2308 H 0.21674 0.41847 0.99776 0.0
H2309 H 0.19948 0.41957 0.99617 0.0
H2310 H 0.19526 0.41096 0.89437 0.0
H2311 H 0.21249 0.40985 0.89562 0.0
H2312 H 0.21019 0.42157 0.84504 0.0
H2313 H 0.25361 0.4783 0.87649 0.0
H2314 H 0.27372 0.47113 0.87824 0.0
H2315 H 0.24002 0.42529 0.93008 0.0
C2316 C 0.19493 0.43989 0.91506 0.0
C2317 C 0.19223 0.45181 0.89958 0.0
C2318 C 0.20477 0.46632 0.8859 0.0
C2319 C 0.21977 0.46884 0.88663 0.0
C2320 C 0.22199 0.45676 0.90148 0.0
C2321 C 0.2099 0.4426 0.91571 0.0
C2322 C 0.21519 0.43131 0.92803 0.0
C2323 C 0.21199 0.42603 0.98818 0.0
C2324 C 0.20785 0.41762 0.88839 0.0
C2325 C 0.23214 0.44123 0.91752 0.0
C2326 C 0.23589 0.4559 0.90255 0.0
C2327 C 0.25082 0.46689 0.88869 0.0
C2328 C 0.26215 0.4627 0.88976 0.0
C2329 C 0.25846 0.44767 0.90447 0.0
C2330 C 0.24327 0.43691 0.91907 0.0
H2331 H 0.42903 0.90972 0.50897 0.0
H2332 H 0.41559 0.9046 0.33755 0.0
H2333 H 0.43845 0.90305 0.31257 0.0
H2334 H 0.46842 0.93382 0.48701 0.0
H2335 H 0.4744 0.92569 0.54074 0.0
H2336 H 0.45633 0.92507 0.54587 0.0
H2337 H 0.44244 0.89561 0.557 0.0
H2338 H 0.4605 0.89614 0.55212 0.0
H2339 H 0.44513 0.88424 0.50605 0.0
H2340 H 0.46342 0.90358 0.30557 0.0
H2341 H 0.48887 0.90619 0.31679 0.0
H2342 H 0.4862 0.91122 0.4928 0.0
C2343 C 0.43076 0.90804 0.46626 0.0
C2344 C 0.42049 0.90723 0.42522 0.0
C2345 C 0.42328 0.90523 0.36972 0.0
C2346 C 0.43622 0.9043 0.35512 0.0
C2347 C 0.44622 0.90537 0.39651 0.0
C2348 C 0.44363 0.90715 0.45096 0.0
C2349 C 0.45655 0.90874 0.48712 0.0
C2350 C 0.46438 0.92425 0.51691 0.0
C2351 C 0.45081 0.89539 0.52798 0.0
C2352 C 0.46695 0.90787 0.44434 0.0
C2353 C 0.46071 0.9058 0.39242 0.0
C2354 C 0.46838 0.90509 0.34606 0.0
C2355 C 0.48285 0.90662 0.35289 0.0
C2356 C 0.48954 0.9089 0.4057 0.0
C2357 C 0.48138 0.90942 0.45195 0.0
H2358 H 0.11012 0.58403 0.38398 0.0
H2359 H 0.06394 0.56623 0.4459 0.0
H2360 H 0.0607 0.54044 0.45048 0.0
H2361 H 0.1022 0.55198 0.29941 0.0
H2362 H 0.11999 0.55259 0.31414 0.0
H2363 H 0.11895 0.56987 0.31688 0.0
H2364 H 0.12907 0.57452 0.41681 0.0
H2365 H 0.13013 0.55724 0.41439 0.0
H2366 H 0.11924 0.55982 0.46764 0.0
H2367 H 0.06197 0.51657 0.44587 0.0
H2368 H 0.06779 0.49583 0.43307 0.0
H2369 H 0.11329 0.5288 0.37548 0.0
C2370 C 0.09935 0.57471 0.39862 0.0
C2371 C 0.08728 0.57718 0.41454 0.0
C2372 C 0.07337 0.56467 0.43354 0.0
C2373 C 0.0714 0.54995 0.43634 0.0
C2374 C 0.08347 0.54791 0.42029 0.0
C2375 C 0.0972 0.55991 0.40196 0.0
C2376 C 0.10825 0.55447 0.38673 0.0
C2377 C 0.1126 0.5574 0.32566 0.0
C2378 C 0.12251 0.56196 0.4236 0.0
C2379 C 0.0985 0.53752 0.39871 0.0
C2380 C 0.08427 0.53404 0.41815 0.0
C2381 C 0.0731 0.51914 0.43095 0.0
C2382 C 0.07651 0.50744 0.42342 0.0
C2383 C 0.091 0.51069 0.40334 0.0
C2384 C 0.10216 0.52597 0.39123 0.0
H2385 H 0.48429 0.56924 0.3995 0.0
H2386 H 0.46767 0.60032 0.43901 0.0
H2387 H 0.44144 0.57837 0.44723 0.0
H2388 H 0.45199 0.54305 0.31823 0.0
H2389 H 0.45235 0.52638 0.3426 0.0
H2390 H 0.46978 0.54456 0.33967 0.0
H2391 H 0.47447 0.54235 0.44299 0.0
H2392 H 0.45705 0.52418 0.44626 0.0
H2393 H 0.45991 0.53937 0.49218 0.0
H2394 H 0.41705 0.55297 0.45183 0.0
H2395 H 0.39625 0.52603 0.45134 0.0
H2396 H 0.42896 0.51172 0.40867 0.0
C2397 C 0.47514 0.57146 0.40974 0.0
C2398 C 0.47804 0.58651 0.41856 0.0
C2399 C 0.46574 0.5889 0.43202 0.0
C2400 C 0.4508 0.5765 0.43681 0.0
C2401 C 0.44837 0.56182 0.42802 0.0
C2402 C 0.46019 0.55925 0.41469 0.0
C2403 C 0.45455 0.54237 0.40743 0.0
C2404 C 0.45733 0.53889 0.34847 0.0
C2405 C 0.46193 0.53674 0.44975 0.0
C2406 C 0.43769 0.53583 0.41873 0.0
C2407 C 0.43434 0.54723 0.43059 0.0
C2408 C 0.41952 0.54395 0.44255 0.0
C2409 C 0.40779 0.52861 0.4422 0.0
C2410 C 0.41096 0.51676 0.42992 0.0
C2411 C 0.42614 0.5205 0.41815 0.0
loop_
_geom_bond_atom_site_label_1
_geom_bond_atom_site_label_2
_geom_bond_distance
_geom_bond_site_symmetry_2
_ccdc_geom_bond_type
C0 O1 1.160 . S
C0 O7 1.185 . S
O1 C0 1.160 . S
O2 Zn3 1.899 . S
O2 C10 1.284 . S
Zn3 O2 1.899 . S
Zn3 O4 2.032 . S
Zn3 O7 2.086 . S
Zn3 O12 1.977 . S
O4 Zn3 2.032 . S
O4 C8 1.278 . S
C5 O6 1.203 . S
C5 O12 1.267 . S
O6 C5 1.203 . S
O7 C0 1.185 . S
O7 Zn3 2.086 . S
C8 O4 1.278 . S
C8 O9 1.211 . S
O9 C8 1.211 . S
C10 O2 1.284 . S
C10 O11 1.273 . S
O11 C10 1.273 . S
O12 Zn3 1.977 . S
O12 C5 1.267 . S
C13 O14 1.160 . S
C13 O20 1.185 . S
O14 C13 1.160 . S
O15 Zn16 1.899 . S
O15 C23 1.284 . S
Zn16 O15 1.899 . S
Zn16 O17 2.032 . S
Zn16 O20 2.086 . S
Zn16 O25 1.977 . S
O17 Zn16 2.032 . S
O17 C21 1.278 . S
C18 O19 1.203 . S
C18 O25 1.267 . S
O19 C18 1.203 . S
O20 C13 1.185 . S
O20 Zn16 2.086 . S
C21 O17 1.278 . S
C21 O22 1.211 . S
O22 C21 1.211 . S
C23 O15 1.284 . S
C23 O24 1.273 . S
O24 C23 1.273 . S
O25 Zn16 1.977 . S
O25 C18 1.267 . S
C26 O27 1.160 . S
C26 O33 1.185 . S
O27 C26 1.160 . S
O28 Zn29 1.899 . S
O28 C36 1.284 . S
Zn29 O28 1.899 . S
Zn29 O30 2.032 . S
Zn29 O33 2.086 . S
Zn29 O38 1.977 . S
O30 Zn29 2.032 . S
O30 C34 1.278 . S
C31 O32 1.203 . S
C31 O38 1.267 . S
O32 C31 1.203 . S
O33 C26 1.185 . S
O33 Zn29 2.086 . S
C34 O30 1.278 . S
C34 O35 1.211 . S
O35 C34 1.211 . S
C36 O28 1.284 . S
C36 O37 1.273 . S
O37 C36 1.273 . S
O38 Zn29 1.977 . S
O38 C31 1.267 . S
C39 O40 1.160 . S
C39 O46 1.185 . S
O40 C39 1.160 . S
O41 Zn42 1.899 . S
O41 C49 1.284 . S
Zn42 O41 1.899 . S
Zn42 O43 2.032 . S
Zn42 O46 2.086 . S
Zn42 O51 1.977 . S
O43 Zn42 2.032 . S
O43 C47 1.278 . S
C44 O45 1.203 . S
C44 O51 1.267 . S
O45 C44 1.203 . S
O46 C39 1.185 . S
O46 Zn42 2.086 . S
C47 O43 1.278 . S
C47 O48 1.211 . S
O48 C47 1.211 . S
C49 O41 1.284 . S
C49 O50 1.273 . S
O50 C49 1.273 . S
O51 Zn42 1.977 . S
O51 C44 1.267 . S
C52 O53 1.160 . S
C52 O59 1.185 . S
O53 C52 1.160 . S
O54 Zn55 1.899 . S
O54 C62 1.284 . S
Zn55 O54 1.899 . S
Zn55 O56 2.032 . S
Zn55 O59 2.086 . S
Zn55 O64 1.977 . S
O56 Zn55 2.032 . S
O56 C60 1.278 . S
C57 O58 1.203 . S
C57 O64 1.267 . S
O58 C57 1.203 . S
O59 C52 1.185 . S
O59 Zn55 2.086 . S
C60 O56 1.278 . S
C60 O61 1.211 . S
O61 C60 1.211 . S
C62 O54 1.284 . S
C62 O63 1.273 . S
O63 C62 1.273 . S
O64 Zn55 1.977 . S
O64 C57 1.267 . S
C65 O66 1.160 . S
C65 O72 1.185 . S
O66 C65 1.160 . S
O67 Zn68 1.899 . S
O67 C75 1.284 . S
Zn68 O67 1.899 . S
Zn68 O69 2.032 . S
Zn68 O72 2.086 . S
Zn68 O77 1.977 . S
O69 Zn68 2.032 . S
O69 C73 1.278 . S
C70 O71 1.203 . S
C70 O77 1.267 . S
O71 C70 1.203 . S
O72 C65 1.185 . S
O72 Zn68 2.086 . S
C73 O69 1.278 . S
C73 O74 1.211 . S
O74 C73 1.211 . S
C75 O67 1.284 . S
C75 O76 1.273 . S
O76 C75 1.273 . S
O77 Zn68 1.977 . S
O77 C70 1.267 . S
C78 O79 1.160 . S
C78 O85 1.185 . S
O79 C78 1.160 . S
O80 Zn81 1.899 . S
O80 C88 1.284 . S
Zn81 O80 1.899 . S
Zn81 O82 2.032 . S
Zn81 O85 2.086 . S
Zn81 O90 1.977 . S
O82 Zn81 2.032 . S
O82 C86 1.278 . S
C83 O84 1.203 . S
C83 O90 1.267 . S
O84 C83 1.203 . S
O85 C78 1.185 . S
O85 Zn81 2.086 . S
C86 O82 1.278 . S
C86 O87 1.211 . S
O87 C86 1.211 . S
C88 O80 1.284 . S
C88 O89 1.273 . S
O89 C88 1.273 . S
O90 Zn81 1.977 . S
O90 C83 1.267 . S
C91 O92 1.160 . S
C91 O98 1.185 . S
O92 C91 1.160 . S
O93 Zn94 1.899 . S
O93 C101 1.284 . S
Zn94 O93 1.899 . S
Zn94 O95 2.032 . S
Zn94 O98 2.086 . S
Zn94 O103 1.977 . S
O95 Zn94 2.032 . S
O95 C99 1.278 . S
C96 O97 1.203 . S
C96 O103 1.267 . S
O97 C96 1.203 . S
O98 C91 1.185 . S
O98 Zn94 2.086 . S
C99 O95 1.278 . S
C99 O100 1.211 . S
O100 C99 1.211 . S
C101 O93 1.284 . S
C101 O102 1.273 . S
O102 C101 1.273 . S
O103 Zn94 1.977 . S
O103 C96 1.267 . S
C104 O105 1.160 . S
C104 O111 1.185 . S
O105 C104 1.160 . S
O106 Zn107 1.899 . S
O106 C114 1.284 . S
Zn107 O106 1.899 . S
Zn107 O108 2.032 . S
Zn107 O111 2.086 . S
Zn107 O116 1.977 . S
O108 Zn107 2.032 . S
O108 C112 1.278 . S
C109 O110 1.203 . S
C109 O116 1.267 . S
O110 C109 1.203 . S
O111 C104 1.185 . S
O111 Zn107 2.086 . S
C112 O108 1.278 . S
C112 O113 1.211 . S
O113 C112 1.211 . S
C114 O106 1.284 . S
C114 O115 1.273 . S
O115 C114 1.273 . S
O116 Zn107 1.977 . S
O116 C109 1.267 . S
C117 O118 1.160 . S
C117 O124 1.185 . S
O118 C117 1.160 . S
O119 Zn120 1.899 . S
O119 C127 1.284 . S
Zn120 O119 1.899 . S
Zn120 O121 2.032 . S
Zn120 O124 2.086 . S
Zn120 O129 1.977 . S
O121 Zn120 2.032 . S
O121 C125 1.278 . S
C122 O123 1.203 . S
C122 O129 1.267 . S
O123 C122 1.203 . S
O124 C117 1.185 . S
O124 Zn120 2.086 . S
C125 O121 1.278 . S
C125 O126 1.211 . S
O126 C125 1.211 . S
C127 O119 1.284 . S
C127 O128 1.273 . S
O128 C127 1.273 . S
O129 Zn120 1.977 . S
O129 C122 1.267 . S
C130 O131 1.160 . S
C130 O137 1.185 . S
O131 C130 1.160 . S
O132 Zn133 1.899 . S
O132 C140 1.284 . S
Zn133 O132 1.899 . S
Zn133 O134 2.032 . S
Zn133 O137 2.086 . S
Zn133 O142 1.977 . S
O134 Zn133 2.032 . S
O134 C138 1.278 . S
C135 O136 1.203 . S
C135 O142 1.267 . S
O136 C135 1.203 . S
O137 C130 1.185 . S
O137 Zn133 2.086 . S
C138 O134 1.278 . S
C138 O139 1.211 . S
O139 C138 1.211 . S
C140 O132 1.284 . S
C140 O141 1.273 . S
O141 C140 1.273 . S
O142 Zn133 1.977 . S
O142 C135 1.267 . S
C143 O144 1.160 . S
C143 O150 1.185 . S
O144 C143 1.160 . S
O145 Zn146 1.899 . S
O145 C153 1.284 . S
Zn146 O145 1.899 . S
Zn146 O147 2.032 . S
Zn146 O150 2.086 . S
Zn146 O155 1.977 . S
O147 Zn146 2.032 . S
O147 C151 1.278 . S
C148 O149 1.203 . S
C148 O155 1.267 . S
O149 C148 1.203 . S
O150 C143 1.185 . S
O150 Zn146 2.086 . S
C151 O147 1.278 . S
C151 O152 1.211 . S
O152 C151 1.211 . S
C153 O145 1.284 . S
C153 O154 1.273 . S
O154 C153 1.273 . S
O155 Zn146 1.977 . S
O155 C148 1.267 . S
C156 O157 1.160 . S
C156 O163 1.185 . S
O157 C156 1.160 . S
O158 Zn159 1.899 . S
O158 C166 1.284 . S
Zn159 O158 1.899 . S
Zn159 O160 2.032 . S
Zn159 O163 2.086 . S
Zn159 O168 1.977 . S
O160 Zn159 2.032 . S
O160 C164 1.278 . S
C161 O162 1.203 . S
C161 O168 1.267 . S
O162 C161 1.203 . S
O163 C156 1.185 . S
O163 Zn159 2.086 . S
C164 O160 1.278 . S
C164 O165 1.211 . S
O165 C164 1.211 . S
C166 O158 1.284 . S
C166 O167 1.273 . S
O167 C166 1.273 . S
O168 Zn159 1.977 . S
O168 C161 1.267 . S
C169 O170 1.160 . S
C169 O176 1.185 . S
O170 C169 1.160 . S
O171 Zn172 1.899 . S
O171 C179 1.284 . S
Zn172 O171 1.899 . S
Zn172 O173 2.032 . S
Zn172 O176 2.086 . S
Zn172 O181 1.977 . S
O173 Zn172 2.032 . S
O173 C177 1.278 . S
C174 O175 1.203 . S
C174 O181 1.267 . S
O175 C174 1.203 . S
O176 C169 1.185 . S
O176 Zn172 2.086 . S
C177 O173 1.278 . S
C177 O178 1.211 . S
O178 C177 1.211 . S
C179 O171 1.284 . S
C179 O180 1.273 . S
O180 C179 1.273 . S
O181 Zn172 1.977 . S
O181 C174 1.267 . S
C182 O183 1.160 . S
C182 O189 1.185 . S
O183 C182 1.160 . S
O184 Zn185 1.899 . S
O184 C192 1.284 . S
Zn185 O184 1.899 . S
Zn185 O186 2.032 . S
Zn185 O189 2.086 . S
Zn185 O194 1.977 . S
O186 Zn185 2.032 . S
O186 C190 1.278 . S
C187 O188 1.203 . S
C187 O194 1.267 . S
O188 C187 1.203 . S
O189 C182 1.185 . S
O189 Zn185 2.086 . S
C190 O186 1.278 . S
C190 O191 1.211 . S
O191 C190 1.211 . S
C192 O184 1.284 . S
C192 O193 1.273 . S
O193 C192 1.273 . S
O194 Zn185 1.977 . S
O194 C187 1.267 . S
C195 O196 1.160 1_556 S
C195 O202 1.185 1_556 S
O196 C195 1.160 1_554 S
O197 Zn198 1.899 . S
O197 C205 1.284 . S
Zn198 O197 1.899 . S
Zn198 O199 2.032 . S
Zn198 O202 2.086 . S
Zn198 O207 1.977 . S
O199 Zn198 2.032 . S
O199 C203 1.278 . S
C200 O201 1.203 . S
C200 O207 1.267 . S
O201 C200 1.203 . S
O202 C195 1.185 1_554 S
O202 Zn198 2.086 . S
C203 O199 1.278 . S
C203 O204 1.211 . S
O204 C203 1.211 . S
C205 O197 1.284 . S
C205 O206 1.273 . S
O206 C205 1.273 . S
O207 Zn198 1.977 . S
O207 C200 1.267 . S
C208 O209 1.160 1_556 S
C208 O215 1.185 1_556 S
O209 C208 1.160 1_554 S
O210 Zn211 1.899 . S
O210 C218 1.284 . S
Zn211 O210 1.899 . S
Zn211 O212 2.032 . S
Zn211 O215 2.086 . S
Zn211 O220 1.977 . S
O212 Zn211 2.032 . S
O212 C216 1.278 . S
C213 O214 1.203 . S
C213 O220 1.267 . S
O214 C213 1.203 . S
O215 C208 1.185 1_554 S
O215 Zn211 2.086 . S
C216 O212 1.278 . S
C216 O217 1.211 . S
O217 C216 1.211 . S
C218 O210 1.284 . S
C218 O219 1.273 . S
O219 C218 1.273 . S
O220 Zn211 1.977 . S
O220 C213 1.267 . S
C221 O222 1.160 1_556 S
C221 O228 1.185 1_556 S
O222 C221 1.160 1_554 S
O223 Zn224 1.899 . S
O223 C231 1.284 . S
Zn224 O223 1.899 . S
Zn224 O225 2.032 . S
Zn224 O228 2.086 . S
Zn224 O233 1.977 . S
O225 Zn224 2.032 . S
O225 C229 1.278 . S
C226 O227 1.203 . S
C226 O233 1.267 . S
O227 C226 1.203 . S
O228 C221 1.185 1_554 S
O228 Zn224 2.086 . S
C229 O225 1.278 . S
C229 O230 1.211 . S
O230 C229 1.211 . S
C231 O223 1.284 . S
C231 O232 1.273 . S
O232 C231 1.273 . S
O233 Zn224 1.977 . S
O233 C226 1.267 . S
C234 O235 1.160 1_556 S
C234 O241 1.185 1_556 S
O235 C234 1.160 1_554 S
O236 Zn237 1.899 . S
O236 C244 1.284 . S
Zn237 O236 1.899 . S
Zn237 O238 2.032 . S
Zn237 O241 2.086 . S
Zn237 O246 1.977 . S
O238 Zn237 2.032 . S
O238 C242 1.278 . S
C239 O240 1.203 . S
C239 O246 1.267 . S
O240 C239 1.203 . S
O241 C234 1.185 1_554 S
O241 Zn237 2.086 . S
C242 O238 1.278 . S
C242 O243 1.211 . S
O243 C242 1.211 . S
C244 O236 1.284 . S
C244 O245 1.273 . S
O245 C244 1.273 . S
O246 Zn237 1.977 . S
O246 C239 1.267 . S
C247 O248 1.160 1_556 S
C247 O254 1.185 1_556 S
O248 C247 1.160 1_554 S
O249 Zn250 1.899 . S
O249 C257 1.284 . S
Zn250 O249 1.899 . S
Zn250 O251 2.032 . S
Zn250 O254 2.086 . S
Zn250 O259 1.977 . S
O251 Zn250 2.032 . S
O251 C255 1.278 . S
C252 O253 1.203 . S
C252 O259 1.267 . S
O253 C252 1.203 . S
O254 C247 1.185 1_554 S
O254 Zn250 2.086 . S
C255 O251 1.278 . S
C255 O256 1.211 . S
O256 C255 1.211 . S
C257 O249 1.284 . S
C257 O258 1.273 . S
O258 C257 1.273 . S
O259 Zn250 1.977 . S
O259 C252 1.267 . S
C260 O261 1.160 1_556 S
C260 O267 1.185 1_556 S
O261 C260 1.160 1_554 S
O262 Zn263 1.899 . S
O262 C270 1.284 . S
Zn263 O262 1.899 . S
Zn263 O264 2.032 . S
Zn263 O267 2.086 . S
Zn263 O272 1.977 . S
O264 Zn263 2.032 . S
O264 C268 1.278 . S
C265 O266 1.203 . S
C265 O272 1.267 . S
O266 C265 1.203 . S
O267 C260 1.185 1_554 S
O267 Zn263 2.086 . S
C268 O264 1.278 . S
C268 O269 1.211 . S
O269 C268 1.211 . S
C270 O262 1.284 . S
C270 O271 1.273 . S
O271 C270 1.273 . S
O272 Zn263 1.977 . S
O272 C265 1.267 . S
C273 O274 1.160 . S
C273 O280 1.185 . S
O274 C273 1.160 . S
O275 Zn276 1.899 . S
O275 C283 1.284 . S
Zn276 O275 1.899 . S
Zn276 O277 2.032 . S
Zn276 O280 2.086 . S
Zn276 O285 1.977 . S
O277 Zn276 2.032 . S
O277 C281 1.278 . S
C278 O279 1.203 . S
C278 O285 1.267 . S
O279 C278 1.203 . S
O280 C273 1.185 . S
O280 Zn276 2.086 . S
C281 O277 1.278 . S
C281 O282 1.211 . S
O282 C281 1.211 . S
C283 O275 1.284 . S
C283 O284 1.273 . S
O284 C283 1.273 . S
O285 Zn276 1.977 . S
O285 C278 1.267 . S
C286 O287 1.160 . S
C286 O293 1.185 . S
O287 C286 1.160 . S
O288 Zn289 1.899 . S
O288 C296 1.284 . S
Zn289 O288 1.899 . S
Zn289 O290 2.032 . S
Zn289 O293 2.086 . S
Zn289 O298 1.977 . S
O290 Zn289 2.032 . S
O290 C294 1.278 . S
C291 O292 1.203 . S
C291 O298 1.267 . S
O292 C291 1.203 . S
O293 C286 1.185 . S
O293 Zn289 2.086 . S
C294 O290 1.278 . S
C294 O295 1.211 . S
O295 C294 1.211 . S
C296 O288 1.284 . S
C296 O297 1.273 . S
O297 C296 1.273 . S
O298 Zn289 1.977 . S
O298 C291 1.267 . S
C299 O300 1.160 . S
C299 O306 1.185 . S
O300 C299 1.160 . S
O301 Zn302 1.899 . S
O301 C309 1.284 . S
Zn302 O301 1.899 . S
Zn302 O303 2.032 . S
Zn302 O306 2.086 . S
Zn302 O311 1.977 . S
O303 Zn302 2.032 . S
O303 C307 1.278 . S
C304 O305 1.203 . S
C304 O311 1.267 . S
O305 C304 1.203 . S
O306 C299 1.185 . S
O306 Zn302 2.086 . S
C307 O303 1.278 . S
C307 O308 1.211 . S
O308 C307 1.211 . S
C309 O301 1.284 . S
C309 O310 1.273 . S
O310 C309 1.273 . S
O311 Zn302 1.977 . S
O311 C304 1.267 . S
C312 O313 1.160 1_554 S
C312 O319 1.185 1_554 S
O313 C312 1.160 1_556 S
O314 Zn315 1.899 . S
O314 C322 1.284 . S
Zn315 O314 1.899 . S
Zn315 O316 2.032 . S
Zn315 O319 2.086 . S
Zn315 O324 1.977 . S
O316 Zn315 2.032 . S
O316 C320 1.278 . S
C317 O318 1.203 . S
C317 O324 1.267 . S
O318 C317 1.203 . S
O319 C312 1.185 1_556 S
O319 Zn315 2.086 . S
C320 O316 1.278 . S
C320 O321 1.211 . S
O321 C320 1.211 . S
C322 O314 1.284 . S
C322 O323 1.273 . S
O323 C322 1.273 . S
O324 Zn315 1.977 . S
O324 C317 1.267 . S
C325 O326 1.160 1_554 S
C325 O332 1.185 1_554 S
O326 C325 1.160 1_556 S
O327 Zn328 1.899 . S
O327 C335 1.284 . S
Zn328 O327 1.899 . S
Zn328 O329 2.032 . S
Zn328 O332 2.086 . S
Zn328 O337 1.977 . S
O329 Zn328 2.032 . S
O329 C333 1.278 . S
C330 O331 1.203 . S
C330 O337 1.267 . S
O331 C330 1.203 . S
O332 C325 1.185 1_556 S
O332 Zn328 2.086 . S
C333 O329 1.278 . S
C333 O334 1.211 . S
O334 C333 1.211 . S
C335 O327 1.284 . S
C335 O336 1.273 . S
O336 C335 1.273 . S
O337 Zn328 1.977 . S
O337 C330 1.267 . S
C338 O339 1.160 1_554 S
C338 O345 1.185 1_554 S
O339 C338 1.160 1_556 S
O340 Zn341 1.899 . S
O340 C348 1.284 . S
Zn341 O340 1.899 . S
Zn341 O342 2.032 . S
Zn341 O345 2.086 . S
Zn341 O350 1.977 . S
O342 Zn341 2.032 . S
O342 C346 1.278 . S
C343 O344 1.203 . S
C343 O350 1.267 . S
O344 C343 1.203 . S
O345 C338 1.185 1_556 S
O345 Zn341 2.086 . S
C346 O342 1.278 . S
C346 O347 1.211 . S
O347 C346 1.211 . S
C348 O340 1.284 . S
C348 O349 1.273 . S
O349 C348 1.273 . S
O350 Zn341 1.977 . S
O350 C343 1.267 . S
C351 O352 1.160 . S
C351 O358 1.185 . S
O352 C351 1.160 . S
O353 Zn354 1.899 . S
O353 C361 1.284 . S
Zn354 O353 1.899 . S
Zn354 O355 2.032 . S
Zn354 O358 2.086 . S
Zn354 O363 1.977 . S
O355 Zn354 2.032 . S
O355 C359 1.278 . S
C356 O357 1.203 . S
C356 O363 1.267 . S
O357 C356 1.203 . S
O358 C351 1.185 . S
O358 Zn354 2.086 . S
C359 O355 1.278 . S
C359 O360 1.211 . S
O360 C359 1.211 . S
C361 O353 1.284 . S
C361 O362 1.273 . S
O362 C361 1.273 . S
O363 Zn354 1.977 . S
O363 C356 1.267 . S
C364 O365 1.160 . S
C364 O371 1.185 . S
O365 C364 1.160 . S
O366 Zn367 1.899 . S
O366 C374 1.284 . S
Zn367 O366 1.899 . S
Zn367 O368 2.032 . S
Zn367 O371 2.086 . S
Zn367 O376 1.977 . S
O368 Zn367 2.032 . S
O368 C372 1.278 . S
C369 O370 1.203 . S
C369 O376 1.267 . S
O370 C369 1.203 . S
O371 C364 1.185 . S
O371 Zn367 2.086 . S
C372 O368 1.278 . S
C372 O373 1.211 . S
O373 C372 1.211 . S
C374 O366 1.284 . S
C374 O375 1.273 . S
O375 C374 1.273 . S
O376 Zn367 1.977 . S
O376 C369 1.267 . S
C377 O378 1.160 . S
C377 O384 1.185 . S
O378 C377 1.160 . S
O379 Zn380 1.899 . S
O379 C387 1.284 . S
Zn380 O379 1.899 . S
Zn380 O381 2.032 . S
Zn380 O384 2.086 . S
Zn380 O389 1.977 . S
O381 Zn380 2.032 . S
O381 C385 1.278 . S
C382 O383 1.203 . S
C382 O389 1.267 . S
O383 C382 1.203 . S
O384 C377 1.185 . S
O384 Zn380 2.086 . S
C385 O381 1.278 . S
C385 O386 1.211 . S
O386 C385 1.211 . S
C387 O379 1.284 . S
C387 O388 1.273 . S
O388 C387 1.273 . S
O389 Zn380 1.977 . S
O389 C382 1.267 . S
C390 O391 1.160 . S
C390 O397 1.185 . S
O391 C390 1.160 . S
O392 Zn393 1.899 . S
O392 C400 1.284 . S
Zn393 O392 1.899 . S
Zn393 O394 2.032 . S
Zn393 O397 2.086 . S
Zn393 O402 1.977 . S
O394 Zn393 2.032 . S
O394 C398 1.278 . S
C395 O396 1.203 . S
C395 O402 1.267 . S
O396 C395 1.203 . S
O397 C390 1.185 . S
O397 Zn393 2.086 . S
C398 O394 1.278 . S
C398 O399 1.211 . S
O399 C398 1.211 . S
C400 O392 1.284 . S
C400 O401 1.273 . S
O401 C400 1.273 . S
O402 Zn393 1.977 . S
O402 C395 1.267 . S
C403 O404 1.160 . S
C403 O410 1.185 . S
O404 C403 1.160 . S
O405 Zn406 1.899 . S
O405 C413 1.284 . S
Zn406 O405 1.899 . S
Zn406 O407 2.032 . S
Zn406 O410 2.086 . S
Zn406 O415 1.977 . S
O407 Zn406 2.032 . S
O407 C411 1.278 . S
C408 O409 1.203 . S
C408 O415 1.267 . S
O409 C408 1.203 . S
O410 C403 1.185 . S
O410 Zn406 2.086 . S
C411 O407 1.278 . S
C411 O412 1.211 . S
O412 C411 1.211 . S
C413 O405 1.284 . S
C413 O414 1.273 . S
O414 C413 1.273 . S
O415 Zn406 1.977 . S
O415 C408 1.267 . S
C416 O417 1.160 . S
C416 O423 1.185 . S
O417 C416 1.160 . S
O418 Zn419 1.899 . S
O418 C426 1.284 . S
Zn419 O418 1.899 . S
Zn419 O420 2.032 . S
Zn419 O423 2.086 . S
Zn419 O428 1.977 . S
O420 Zn419 2.032 . S
O420 C424 1.278 . S
C421 O422 1.203 . S
C421 O428 1.267 . S
O422 C421 1.203 . S
O423 C416 1.185 . S
O423 Zn419 2.086 . S
C424 O420 1.278 . S
C424 O425 1.211 . S
O425 C424 1.211 . S
C426 O418 1.284 . S
C426 O427 1.273 . S
O427 C426 1.273 . S
O428 Zn419 1.977 . S
O428 C421 1.267 . S
C429 O430 1.160 1_554 S
C429 O436 1.185 1_554 S
O430 C429 1.160 1_556 S
O431 Zn432 1.899 . S
O431 C439 1.284 . S
Zn432 O431 1.899 . S
Zn432 O433 2.032 . S
Zn432 O436 2.086 . S
Zn432 O441 1.977 . S
O433 Zn432 2.032 . S
O433 C437 1.278 . S
C434 O435 1.203 . S
C434 O441 1.267 . S
O435 C434 1.203 . S
O436 C429 1.185 1_556 S
O436 Zn432 2.086 . S
C437 O433 1.278 . S
C437 O438 1.211 . S
O438 C437 1.211 . S
C439 O431 1.284 . S
C439 O440 1.273 . S
O440 C439 1.273 . S
O441 Zn432 1.977 . S
O441 C434 1.267 . S
C442 O443 1.160 1_554 S
C442 O449 1.185 1_554 S
O443 C442 1.160 1_556 S
O444 Zn445 1.899 . S
O444 C452 1.284 . S
Zn445 O444 1.899 . S
Zn445 O446 2.032 . S
Zn445 O449 2.086 . S
Zn445 O454 1.977 . S
O446 Zn445 2.032 . S
O446 C450 1.278 . S
C447 O448 1.203 . S
C447 O454 1.267 . S
O448 C447 1.203 . S
O449 C442 1.185 1_556 S
O449 Zn445 2.086 . S
C450 O446 1.278 . S
C450 O451 1.211 . S
O451 C450 1.211 . S
C452 O444 1.284 . S
C452 O453 1.273 . S
O453 C452 1.273 . S
O454 Zn445 1.977 . S
O454 C447 1.267 . S
C455 O456 1.160 1_554 S
C455 O462 1.185 1_554 S
O456 C455 1.160 1_556 S
O457 Zn458 1.899 . S
O457 C465 1.284 . S
Zn458 O457 1.899 . S
Zn458 O459 2.032 . S
Zn458 O462 2.086 . S
Zn458 O467 1.977 . S
O459 Zn458 2.032 . S
O459 C463 1.278 . S
C460 O461 1.203 . S
C460 O467 1.267 . S
O461 C460 1.203 . S
O462 C455 1.185 1_556 S
O462 Zn458 2.086 . S
C463 O459 1.278 . S
C463 O464 1.211 . S
O464 C463 1.211 . S
C465 O457 1.284 . S
C465 O466 1.273 . S
O466 C465 1.273 . S
O467 Zn458 1.977 . S
O467 C460 1.267 . S
H468 C480 0.930 . S
H469 C482 0.930 . S
H470 C483 0.930 . S
H471 C487 0.959 . S
H472 C487 0.959 . S
H473 C487 0.961 . S
H474 C488 0.960 . S
H475 C488 0.961 . S
H476 C488 0.959 . S
H477 C491 0.929 . S
H478 C492 0.931 . S
H479 C494 0.930 . S
C480 H468 0.930 . S
C480 C481 1.399 . S
C480 C485 1.399 . S
C481 C480 1.399 . S
C481 C482 1.376 . S
C482 H469 0.930 . S
C482 C481 1.376 . S
C482 C483 1.388 . S
C483 H470 0.930 . S
C483 C482 1.388 . S
C483 C484 1.390 . S
C484 C483 1.390 . S
C484 C485 1.394 . S
C484 C490 1.487 . S
C485 C480 1.399 . S
C485 C484 1.394 . S
C485 C486 1.516 1_565 S
C486 C485 1.516 1_545 S
C486 C487 1.502 . S
C486 C488 1.561 . S
C486 C489 1.526 . S
C487 H471 0.959 . S
C487 H472 0.959 . S
C487 H473 0.961 . S
C487 C486 1.502 . S
C488 H474 0.960 . S
C488 H475 0.961 . S
C488 H476 0.959 . S
C488 C486 1.561 . S
C489 C486 1.526 . S
C489 C490 1.352 1_545 S
C489 C494 1.390 . S
C490 C484 1.487 . S
C490 C489 1.352 1_565 S
C490 C491 1.415 . S
C491 H477 0.929 . S
C491 C490 1.415 . S
C491 C492 1.385 1_565 S
C492 H478 0.931 . S
C492 C491 1.385 1_545 S
C492 C493 1.389 . S
C493 C492 1.389 . S
C493 C494 1.387 . S
C494 H479 0.930 . S
C494 C489 1.390 . S
C494 C493 1.387 . S
H495 C507 0.930 . S
H496 C509 0.930 . S
H497 C510 0.930 . S
H498 C514 0.959 1_455 S
H499 C514 0.959 . S
H500 C514 0.961 1_455 S
H501 C515 0.960 . S
H502 C515 0.961 . S
H503 C515 0.959 . S
H504 C518 0.929 . S
H505 C519 0.931 . S
H506 C521 0.930 . S
C507 H495 0.930 . S
C507 C508 1.399 . S
C507 C512 1.399 . S
C508 C507 1.399 . S
C508 C509 1.376 . S
C509 H496 0.930 . S
C509 C508 1.376 . S
C509 C510 1.388 . S
C510 H497 0.930 . S
C510 C509 1.388 . S
C510 C511 1.390 . S
C511 C510 1.390 . S
C511 C512 1.394 . S
C511 C517 1.465 1_455 S
C512 C507 1.399 . S
C512 C511 1.394 . S
C512 C513 1.516 1_455 S
C513 C512 1.516 1_655 S
C513 C514 1.502 . S
C513 C515 1.561 . S
C513 C516 1.526 . S
C514 H498 0.959 1_655 S
C514 H499 0.959 . S
C514 H500 0.961 1_655 S
C514 C513 1.502 . S
C515 H501 0.960 . S
C515 H502 0.961 . S
C515 H503 0.959 . S
C515 C513 1.561 . S
C516 C513 1.526 . S
C516 C517 1.396 . S
C516 C521 1.390 . S
C517 C511 1.465 1_655 S
C517 C516 1.396 . S
C517 C518 1.399 . S
C518 H504 0.929 . S
C518 C517 1.399 . S
C518 C519 1.385 . S
C519 H505 0.931 . S
C519 C518 1.385 . S
C519 C520 1.389 . S
C520 C519 1.389 . S
C520 C521 1.387 . S
C521 H506 0.930 . S
C521 C516 1.390 . S
C521 C520 1.387 . S
H522 C534 0.930 . S
H523 C536 0.930 . S
H524 C537 0.930 . S
H525 C541 0.959 . S
H526 C541 0.959 . S
H527 C541 0.961 . S
H528 C542 0.960 . S
H529 C542 0.961 . S
H530 C542 0.959 . S
H531 C545 0.929 . S
H532 C546 0.931 . S
H533 C548 0.930 . S
C534 H522 0.930 . S
C534 C535 1.399 . S
C534 C539 1.399 . S
C535 C534 1.399 . S
C535 C536 1.376 . S
C536 H523 0.930 . S
C536 C535 1.376 . S
C536 C537 1.388 . S
C537 H524 0.930 . S
C537 C536 1.388 . S
C537 C538 1.390 . S
C538 C537 1.390 . S
C538 C539 1.394 . S
C538 C544 1.465 . S
C539 C534 1.399 . S
C539 C538 1.394 . S
C539 C540 1.516 . S
C540 C539 1.516 . S
C540 C541 1.502 . S
C540 C542 1.561 . S
C540 C543 1.526 . S
C541 H525 0.959 . S
C541 H526 0.959 . S
C541 H527 0.961 . S
C541 C540 1.502 . S
C542 H528 0.960 . S
C542 H529 0.961 . S
C542 H530 0.959 . S
C542 C540 1.561 . S
C543 C540 1.526 . S
C543 C544 1.396 . S
C543 C548 1.390 . S
C544 C538 1.465 . S
C544 C543 1.396 . S
C544 C545 1.399 . S
C545 H531 0.929 . S
C545 C544 1.399 . S
C545 C546 1.385 . S
C546 H532 0.931 . S
C546 C545 1.385 . S
C546 C547 1.389 . S
C547 C546 1.389 . S
C547 C548 1.387 . S
C548 H533 0.930 . S
C548 C543 1.390 . S
C548 C547 1.387 . S
H549 C561 0.930 . S
H550 C563 0.930 . S
H551 C564 0.930 . S
H552 C568 0.959 . S
H553 C568 0.959 . S
H554 C568 0.961 . S
H555 C569 0.960 . S
H556 C569 0.961 . S
H557 C569 0.959 . S
H558 C572 0.929 . S
H559 C573 0.931 . S
H560 C575 0.930 . S
C561 H549 0.930 . S
C561 C562 1.399 . S
C561 C566 1.399 . S
C562 C561 1.399 . S
C562 C563 1.376 . S
C563 H550 0.930 . S
C563 C562 1.376 . S
C563 C564 1.388 . S
C564 H551 0.930 . S
C564 C563 1.388 . S
C564 C565 1.390 . S
C565 C564 1.390 . S
C565 C566 1.394 . S
C565 C571 1.508 . S
C566 C561 1.399 . S
C566 C565 1.394 . S
C566 C567 1.516 1_565 S
C567 C566 1.516 1_545 S
C567 C568 1.502 . S
C567 C569 1.561 . S
C567 C570 1.526 . S
C568 H552 0.959 . S
C568 H553 0.959 . S
C568 H554 0.961 . S
C568 C567 1.502 . S
C569 H555 0.960 . S
C569 H556 0.961 . S
C569 H557 0.959 . S
C569 C567 1.561 . S
C570 C567 1.526 . S
C570 C571 1.314 1_545 S
C570 C575 1.390 . S
C571 C565 1.508 . S
C571 C570 1.314 1_565 S
C571 C572 1.429 . S
C572 H558 0.929 . S
C572 C571 1.429 . S
C572 C573 1.385 1_565 S
C573 H559 0.931 . S
C573 C572 1.385 1_545 S
C573 C574 1.389 . S
C574 C573 1.389 . S
C574 C575 1.387 . S
C575 H560 0.930 . S
C575 C570 1.390 . S
C575 C574 1.387 . S
H576 C588 0.930 . S
H577 C590 0.930 . S
H578 C591 0.930 . S
H579 C595 0.959 . S
H580 C595 0.959 . S
H581 C595 0.961 . S
H582 C596 0.960 . S
H583 C596 0.961 . S
H584 C596 0.959 . S
H585 C599 0.929 . S
H586 C600 0.931 . S
H587 C602 0.930 . S
C588 H576 0.930 . S
C588 C589 1.399 . S
C588 C593 1.399 . S
C589 C588 1.399 . S
C589 C590 1.376 . S
C590 H577 0.930 . S
C590 C589 1.376 . S
C590 C591 1.388 . S
C591 H578 0.930 . S
C591 C590 1.388 . S
C591 C592 1.390 . S
C592 C591 1.390 . S
C592 C593 1.394 . S
C592 C598 1.463 1_455 S
C593 C588 1.399 . S
C593 C592 1.394 . S
C593 C594 1.516 1_455 S
C594 C593 1.516 1_655 S
C594 C595 1.502 . S
C594 C596 1.561 . S
C594 C597 1.526 . S
C595 H579 0.959 . S
C595 H580 0.959 . S
C595 H581 0.961 . S
C595 C594 1.502 . S
C596 H582 0.960 . S
C596 H583 0.961 . S
C596 H584 0.959 . S
C596 C594 1.561 . S
C597 C594 1.526 . S
C597 C598 1.398 . S
C597 C602 1.390 . S
C598 C592 1.463 1_655 S
C598 C597 1.398 . S
C598 C599 1.399 1_655 S
C599 H585 0.929 . S
C599 C598 1.399 1_455 S
C599 C600 1.385 1_455 S
C600 H586 0.931 . S
C600 C599 1.385 1_655 S
C600 C601 1.389 . S
C601 C600 1.389 . S
C601 C602 1.387 . S
C602 H587 0.930 . S
C602 C597 1.390 . S
C602 C601 1.387 . S
H603 C615 0.930 . S
H604 C617 0.930 . S
H605 C618 0.930 . S
H606 C622 0.959 . S
H607 C622 0.959 . S
H608 C622 0.961 . S
H609 C623 0.960 . S
H610 C623 0.961 . S
H611 C623 0.959 . S
H612 C626 0.929 . S
H613 C627 0.931 . S
H614 C629 0.930 . S
C615 H603 0.930 . S
C615 C616 1.399 . S
C615 C620 1.399 . S
C616 C615 1.399 . S
C616 C617 1.376 . S
C617 H604 0.930 . S
C617 C616 1.376 . S
C617 C618 1.388 . S
C618 H605 0.930 . S
C618 C617 1.388 . S
C618 C619 1.390 . S
C619 C618 1.390 . S
C619 C620 1.394 . S
C619 C625 1.465 . S
C620 C615 1.399 . S
C620 C619 1.394 . S
C620 C621 1.516 . S
C621 C620 1.516 . S
C621 C622 1.502 . S
C621 C623 1.561 . S
C621 C624 1.526 . S
C622 H606 0.959 . S
C622 H607 0.959 . S
C622 H608 0.961 . S
C622 C621 1.502 . S
C623 H609 0.960 . S
C623 H610 0.961 . S
C623 H611 0.959 . S
C623 C621 1.561 . S
C624 C621 1.526 . S
C624 C625 1.396 . S
C624 C629 1.390 . S
C625 C619 1.465 . S
C625 C624 1.396 . S
C625 C626 1.399 . S
C626 H612 0.929 . S
C626 C625 1.399 . S
C626 C627 1.385 . S
C627 H613 0.931 . S
C627 C626 1.385 . S
C627 C628 1.389 . S
C628 C627 1.389 . S
C628 C629 1.387 . S
C629 H614 0.930 . S
C629 C624 1.390 . S
C629 C628 1.387 . S
H630 C642 0.930 . S
H631 C644 0.930 . S
H632 C645 0.930 . S
H633 C649 0.959 . S
H634 C649 0.959 . S
H635 C649 0.961 . S
H636 C650 0.960 . S
H637 C650 0.961 . S
H638 C650 0.959 . S
H639 C653 0.929 . S
H640 C654 0.931 1_554 S
H641 C656 0.930 . S
C642 H630 0.930 . S
C642 C643 1.399 . S
C642 C647 1.399 . S
C643 C642 1.399 . S
C643 C644 1.376 . S
C644 H631 0.930 . S
C644 C643 1.376 . S
C644 C645 1.388 . S
C645 H632 0.930 . S
C645 C644 1.388 . S
C645 C646 1.390 . S
C646 C645 1.390 . S
C646 C647 1.394 . S
C646 C652 1.465 . S
C647 C642 1.399 . S
C647 C646 1.394 . S
C647 C648 1.516 . S
C648 C647 1.516 . S
C648 C649 1.502 . S
C648 C650 1.561 . S
C648 C651 1.526 . S
C649 H633 0.959 . S
C649 H634 0.959 . S
C649 H635 0.961 . S
C649 C648 1.502 . S
C650 H636 0.960 . S
C650 H637 0.961 . S
C650 H638 0.959 . S
C650 C648 1.561 . S
C651 C648 1.526 . S
C651 C652 1.396 . S
C651 C656 1.390 . S
C652 C646 1.465 . S
C652 C651 1.396 . S
C652 C653 1.399 . S
C653 H639 0.929 . S
C653 C652 1.399 . S
C653 C654 1.385 . S
C654 H640 0.931 1_556 S
C654 C653 1.385 . S
C654 C655 1.389 . S
C655 C654 1.389 . S
C655 C656 1.387 . S
C656 H641 0.930 . S
C656 C651 1.390 . S
C656 C655 1.387 . S
H657 C669 0.930 . S
H658 C671 0.930 . S
H659 C672 0.930 . S
H660 C676 0.959 . S
H661 C676 0.959 . S
H662 C676 0.961 . S
H663 C677 0.960 . S
H664 C677 0.961 . S
H665 C677 0.959 . S
H666 C680 0.929 . S
H667 C681 0.931 . S
H668 C683 0.930 . S
C669 H657 0.930 . S
C669 C670 1.399 . S
C669 C674 1.399 . S
C670 C669 1.399 . S
C670 C671 1.376 . S
C671 H658 0.930 . S
C671 C670 1.376 . S
C671 C672 1.388 . S
C672 H659 0.930 . S
C672 C671 1.388 . S
C672 C673 1.390 . S
C673 C672 1.390 . S
C673 C674 1.394 . S
C673 C679 1.465 . S
C674 C669 1.399 . S
C674 C673 1.394 . S
C674 C675 1.516 . S
C675 C674 1.516 . S
C675 C676 1.502 . S
C675 C677 1.561 . S
C675 C678 1.526 . S
C676 H660 0.959 . S
C676 H661 0.959 . S
C676 H662 0.961 . S
C676 C675 1.502 . S
C677 H663 0.960 . S
C677 H664 0.961 . S
C677 H665 0.959 . S
C677 C675 1.561 . S
C678 C675 1.526 . S
C678 C679 1.396 . S
C678 C683 1.390 . S
C679 C673 1.465 . S
C679 C678 1.396 . S
C679 C680 1.399 . S
C680 H666 0.929 . S
C680 C679 1.399 . S
C680 C681 1.385 . S
C681 H667 0.931 . S
C681 C680 1.385 . S
C681 C682 1.389 . S
C682 C681 1.389 . S
C682 C683 1.387 . S
C683 H668 0.930 . S
C683 C678 1.390 . S
C683 C682 1.387 . S
H684 C696 0.930 . S
H685 C698 0.930 . S
H686 C699 0.930 . S
H687 C703 0.959 . S
H688 C703 0.959 . S
H689 C703 0.961 . S
H690 C704 0.960 . S
H691 C704 0.961 . S
H692 C704 0.959 . S
H693 C707 0.929 . S
H694 C708 0.931 . S
H695 C710 0.930 . S
C696 H684 0.930 . S
C696 C697 1.399 . S
C696 C701 1.399 . S
C697 C696 1.399 . S
C697 C698 1.376 . S
C698 H685 0.930 . S
C698 C697 1.376 . S
C698 C699 1.388 . S
C699 H686 0.930 . S
C699 C698 1.388 . S
C699 C700 1.390 . S
C700 C699 1.390 . S
C700 C701 1.394 . S
C700 C706 1.465 . S
C701 C696 1.399 . S
C701 C700 1.394 . S
C701 C702 1.516 . S
C702 C701 1.516 . S
C702 C703 1.502 . S
C702 C704 1.561 . S
C702 C705 1.526 . S
C703 H687 0.959 . S
C703 H688 0.959 . S
C703 H689 0.961 . S
C703 C702 1.502 . S
C704 H690 0.960 . S
C704 H691 0.961 . S
C704 H692 0.959 . S
C704 C702 1.561 . S
C705 C702 1.526 . S
C705 C706 1.396 . S
C705 C710 1.390 . S
C706 C700 1.465 . S
C706 C705 1.396 . S
C706 C707 1.399 . S
C707 H693 0.929 . S
C707 C706 1.399 . S
C707 C708 1.385 . S
C708 H694 0.931 . S
C708 C707 1.385 . S
C708 C709 1.389 . S
C709 C708 1.389 . S
C709 C710 1.387 . S
C710 H695 0.930 . S
C710 C705 1.390 . S
C710 C709 1.387 . S
H711 C723 0.930 . S
H712 C725 0.930 . S
H713 C726 0.930 . S
H714 C730 0.959 . S
H715 C730 0.959 . S
H716 C730 0.961 . S
H717 C731 0.960 . S
H718 C731 0.961 . S
H719 C731 0.959 . S
H720 C734 0.929 . S
H721 C735 0.931 . S
H722 C737 0.930 . S
C723 H711 0.930 . S
C723 C724 1.399 . S
C723 C728 1.399 . S
C724 C723 1.399 . S
C724 C725 1.376 . S
C725 H712 0.930 . S
C725 C724 1.376 . S
C725 C726 1.388 . S
C726 H713 0.930 . S
C726 C725 1.388 . S
C726 C727 1.390 . S
C727 C726 1.390 . S
C727 C728 1.394 . S
C727 C733 1.465 . S
C728 C723 1.399 . S
C728 C727 1.394 . S
C728 C729 1.516 . S
C729 C728 1.516 . S
C729 C730 1.502 . S
C729 C731 1.561 . S
C729 C732 1.526 . S
C730 H714 0.959 . S
C730 H715 0.959 . S
C730 H716 0.961 . S
C730 C729 1.502 . S
C731 H717 0.960 . S
C731 H718 0.961 . S
C731 H719 0.959 . S
C731 C729 1.561 . S
C732 C729 1.526 . S
C732 C733 1.396 . S
C732 C737 1.390 . S
C733 C727 1.465 . S
C733 C732 1.396 . S
C733 C734 1.399 . S
C734 H720 0.929 . S
C734 C733 1.399 . S
C734 C735 1.385 . S
C735 H721 0.931 . S
C735 C734 1.385 . S
C735 C736 1.389 . S
C736 C735 1.389 . S
C736 C737 1.387 . S
C737 H722 0.930 . S
C737 C732 1.390 . S
C737 C736 1.387 . S
H738 C750 0.930 . S
H739 C752 0.930 . S
H740 C753 0.930 . S
H741 C757 0.959 . S
H742 C757 0.959 . S
H743 C757 0.961 . S
H744 C758 0.960 . S
H745 C758 0.961 . S
H746 C758 0.959 . S
H747 C761 0.929 . S
H748 C762 0.931 . S
H749 C764 0.930 . S
C750 H738 0.930 . S
C750 C751 1.399 . S
C750 C755 1.399 . S
C751 C750 1.399 . S
C751 C752 1.376 . S
C752 H739 0.930 . S
C752 C751 1.376 . S
C752 C753 1.388 . S
C753 H740 0.930 . S
C753 C752 1.388 . S
C753 C754 1.390 . S
C754 C753 1.390 . S
C754 C755 1.394 . S
C754 C760 1.465 . S
C755 C750 1.399 . S
C755 C754 1.394 . S
C755 C756 1.516 . S
C756 C755 1.516 . S
C756 C757 1.502 . S
C756 C758 1.561 . S
C756 C759 1.526 . S
C757 H741 0.959 . S
C757 H742 0.959 . S
C757 H743 0.961 . S
C757 C756 1.502 . S
C758 H744 0.960 . S
C758 H745 0.961 . S
C758 H746 0.959 . S
C758 C756 1.561 . S
C759 C756 1.526 . S
C759 C760 1.396 . S
C759 C764 1.390 . S
C760 C754 1.465 . S
C760 C759 1.396 . S
C760 C761 1.399 . S
C761 H747 0.929 . S
C761 C760 1.399 . S
C761 C762 1.385 . S
C762 H748 0.931 . S
C762 C761 1.385 . S
C762 C763 1.389 . S
C763 C762 1.389 . S
C763 C764 1.387 . S
C764 H749 0.930 . S
C764 C759 1.390 . S
C764 C763 1.387 . S
H765 C777 0.930 . S
H766 C779 0.930 . S
H767 C780 0.930 . S
H768 C784 0.959 . S
H769 C784 0.959 . S
H770 C784 0.961 . S
H771 C785 0.960 . S
H772 C785 0.961 . S
H773 C785 0.959 . S
H774 C788 0.929 . S
H775 C789 0.931 . S
H776 C791 0.930 . S
C777 H765 0.930 . S
C777 C778 1.399 . S
C777 C782 1.399 . S
C778 C777 1.399 . S
C778 C779 1.376 . S
C779 H766 0.930 . S
C779 C778 1.376 . S
C779 C780 1.388 . S
C780 H767 0.930 . S
C780 C779 1.388 . S
C780 C781 1.390 . S
C781 C780 1.390 . S
C781 C782 1.394 . S
C781 C787 1.465 . S
C782 C777 1.399 . S
C782 C781 1.394 . S
C782 C783 1.516 . S
C783 C782 1.516 . S
C783 C784 1.502 . S
C783 C785 1.561 . S
C783 C786 1.526 . S
C784 H768 0.959 . S
C784 H769 0.959 . S
C784 H770 0.961 . S
C784 C783 1.502 . S
C785 H771 0.960 . S
C785 H772 0.961 . S
C785 H773 0.959 . S
C785 C783 1.561 . S
C786 C783 1.526 . S
C786 C787 1.396 . S
C786 C791 1.390 . S
C787 C781 1.465 . S
C787 C786 1.396 . S
C787 C788 1.399 . S
C788 H774 0.929 . S
C788 C787 1.399 . S
C788 C789 1.385 . S
C789 H775 0.931 . S
C789 C788 1.385 . S
C789 C790 1.389 . S
C790 C789 1.389 . S
C790 C791 1.387 . S
C791 H776 0.930 . S
C791 C786 1.390 . S
C791 C790 1.387 . S
H792 C804 0.930 . S
H793 C806 0.930 . S
H794 C807 0.930 . S
H795 C811 0.959 . S
H796 C811 0.959 . S
H797 C811 0.961 . S
H798 C812 0.960 . S
H799 C812 0.961 . S
H800 C812 0.959 . S
H801 C815 0.929 . S
H802 C816 0.931 1_556 S
H803 C818 0.930 . S
C804 H792 0.930 . S
C804 C805 1.399 . S
C804 C809 1.399 . S
C805 C804 1.399 . S
C805 C806 1.376 . S
C806 H793 0.930 . S
C806 C805 1.376 . S
C806 C807 1.388 . S
C807 H794 0.930 . S
C807 C806 1.388 . S
C807 C808 1.390 . S
C808 C807 1.390 . S
C808 C809 1.394 . S
C808 C814 1.465 . S
C809 C804 1.399 . S
C809 C808 1.394 . S
C809 C810 1.516 . S
C810 C809 1.516 . S
C810 C811 1.502 . S
C810 C812 1.561 . S
C810 C813 1.526 . S
C811 H795 0.959 . S
C811 H796 0.959 . S
C811 H797 0.961 . S
C811 C810 1.502 . S
C812 H798 0.960 . S
C812 H799 0.961 . S
C812 H800 0.959 . S
C812 C810 1.561 . S
C813 C810 1.526 . S
C813 C814 1.396 . S
C813 C818 1.390 . S
C814 C808 1.465 . S
C814 C813 1.396 . S
C814 C815 1.399 . S
C815 H801 0.929 . S
C815 C814 1.399 . S
C815 C816 1.385 . S
C816 H802 0.931 1_554 S
C816 C815 1.385 . S
C816 C817 1.389 . S
C817 C816 1.389 . S
C817 C818 1.387 . S
C818 H803 0.930 . S
C818 C813 1.390 . S
C818 C817 1.387 . S
H819 C831 0.930 . S
H820 C833 0.930 . S
H821 C834 0.930 . S
H822 C838 0.959 . S
H823 C838 0.959 . S
H824 C838 0.961 . S
H825 C839 0.960 . S
H826 C839 0.961 . S
H827 C839 0.959 . S
H828 C842 0.929 . S
H829 C843 0.931 . S
H830 C845 0.930 . S
C831 H819 0.930 . S
C831 C832 1.399 . S
C831 C836 1.399 . S
C832 C831 1.399 . S
C832 C833 1.376 . S
C833 H820 0.930 . S
C833 C832 1.376 . S
C833 C834 1.388 . S
C834 H821 0.930 . S
C834 C833 1.388 . S
C834 C835 1.390 . S
C835 C834 1.390 . S
C835 C836 1.394 . S
C835 C841 1.465 . S
C836 C831 1.399 . S
C836 C835 1.394 . S
C836 C837 1.516 . S
C837 C836 1.516 . S
C837 C838 1.502 . S
C837 C839 1.561 . S
C837 C840 1.526 . S
C838 H822 0.959 . S
C838 H823 0.959 . S
C838 H824 0.961 . S
C838 C837 1.502 . S
C839 H825 0.960 . S
C839 H826 0.961 . S
C839 H827 0.959 . S
C839 C837 1.561 . S
C840 C837 1.526 . S
C840 C841 1.396 . S
C840 C845 1.390 . S
C841 C835 1.465 . S
C841 C840 1.396 . S
C841 C842 1.399 . S
C842 H828 0.929 . S
C842 C841 1.399 . S
C842 C843 1.385 . S
C843 H829 0.931 . S
C843 C842 1.385 . S
C843 C844 1.389 . S
C844 C843 1.389 . S
C844 C845 1.387 . S
C845 H830 0.930 . S
C845 C840 1.390 . S
C845 C844 1.387 . S
H846 C858 0.930 . S
H847 C860 0.930 . S
H848 C861 0.930 . S
H849 C865 0.959 . S
H850 C865 0.959 . S
H851 C865 0.961 . S
H852 C866 0.960 . S
H853 C866 0.961 . S
H854 C866 0.959 . S
H855 C869 0.929 . S
H856 C870 0.931 . S
H857 C872 0.930 . S
C858 H846 0.930 . S
C858 C859 1.399 . S
C858 C863 1.399 . S
C859 C858 1.399 . S
C859 C860 1.376 . S
C860 H847 0.930 . S
C860 C859 1.376 . S
C860 C861 1.388 . S
C861 H848 0.930 . S
C861 C860 1.388 . S
C861 C862 1.390 . S
C862 C861 1.390 . S
C862 C863 1.394 . S
C862 C868 1.465 . S
C863 C858 1.399 . S
C863 C862 1.394 . S
C863 C864 1.516 . S
C864 C863 1.516 . S
C864 C865 1.502 . S
C864 C866 1.561 . S
C864 C867 1.526 . S
C865 H849 0.959 . S
C865 H850 0.959 . S
C865 H851 0.961 . S
C865 C864 1.502 . S
C866 H852 0.960 . S
C866 H853 0.961 . S
C866 H854 0.959 . S
C866 C864 1.561 . S
C867 C864 1.526 . S
C867 C868 1.396 . S
C867 C872 1.390 . S
C868 C862 1.465 . S
C868 C867 1.396 . S
C868 C869 1.399 . S
C869 H855 0.929 . S
C869 C868 1.399 . S
C869 C870 1.385 . S
C870 H856 0.931 . S
C870 C869 1.385 . S
C870 C871 1.389 . S
C871 C870 1.389 . S
C871 C872 1.387 . S
C872 H857 0.930 . S
C872 C867 1.390 . S
C872 C871 1.387 . S
H873 C885 0.930 . S
H874 C887 0.930 . S
H875 C888 0.930 . S
H876 C892 0.959 . S
H877 C892 0.959 . S
H878 C892 0.961 . S
H879 C893 0.960 . S
H880 C893 0.961 . S
H881 C893 0.959 . S
H882 C896 0.929 . S
H883 C897 0.931 . S
H884 C899 0.930 . S
C885 H873 0.930 . S
C885 C886 1.399 . S
C885 C890 1.399 . S
C886 C885 1.399 . S
C886 C887 1.376 . S
C887 H874 0.930 . S
C887 C886 1.376 . S
C887 C888 1.388 . S
C888 H875 0.930 . S
C888 C887 1.388 . S
C888 C889 1.390 . S
C889 C888 1.390 . S
C889 C890 1.394 . S
C889 C895 1.465 . S
C890 C885 1.399 . S
C890 C889 1.394 . S
C890 C891 1.516 . S
C891 C890 1.516 . S
C891 C892 1.502 . S
C891 C893 1.561 . S
C891 C894 1.526 . S
C892 H876 0.959 . S
C892 H877 0.959 . S
C892 H878 0.961 . S
C892 C891 1.502 . S
C893 H879 0.960 . S
C893 H880 0.961 . S
C893 H881 0.959 . S
C893 C891 1.561 . S
C894 C891 1.526 . S
C894 C895 1.396 . S
C894 C899 1.390 . S
C895 C889 1.465 . S
C895 C894 1.396 . S
C895 C896 1.399 . S
C896 H882 0.929 . S
C896 C895 1.399 . S
C896 C897 1.385 . S
C897 H883 0.931 . S
C897 C896 1.385 . S
C897 C898 1.389 . S
C898 C897 1.389 . S
C898 C899 1.387 . S
C899 H884 0.930 . S
C899 C894 1.390 . S
C899 C898 1.387 . S
H900 C912 0.930 . S
H901 C914 0.930 . S
H902 C915 0.930 . S
H903 C919 0.959 . S
H904 C919 0.959 . S
H905 C919 0.961 . S
H906 C920 0.960 . S
H907 C920 0.961 . S
H908 C920 0.959 . S
H909 C923 0.929 . S
H910 C924 0.931 . S
H911 C926 0.930 . S
C912 H900 0.930 . S
C912 C913 1.399 . S
C912 C917 1.399 . S
C913 C912 1.399 . S
C913 C914 1.376 . S
C914 H901 0.930 . S
C914 C913 1.376 . S
C914 C915 1.388 . S
C915 H902 0.930 . S
C915 C914 1.388 . S
C915 C916 1.390 . S
C916 C915 1.390 . S
C916 C917 1.394 . S
C916 C922 1.465 . S
C917 C912 1.399 . S
C917 C916 1.394 . S
C917 C918 1.516 . S
C918 C917 1.516 . S
C918 C919 1.502 . S
C918 C920 1.561 . S
C918 C921 1.526 . S
C919 H903 0.959 . S
C919 H904 0.959 . S
C919 H905 0.961 . S
C919 C918 1.502 . S
C920 H906 0.960 . S
C920 H907 0.961 . S
C920 H908 0.959 . S
C920 C918 1.561 . S
C921 C918 1.526 . S
C921 C922 1.396 . S
C921 C926 1.390 . S
C922 C916 1.465 . S
C922 C921 1.396 . S
C922 C923 1.399 . S
C923 H909 0.929 . S
C923 C922 1.399 . S
C923 C924 1.385 . S
C924 H910 0.931 . S
C924 C923 1.385 . S
C924 C925 1.389 . S
C925 C924 1.389 . S
C925 C926 1.387 . S
C926 H911 0.930 . S
C926 C921 1.390 . S
C926 C925 1.387 . S
H927 C939 0.930 . S
H928 C941 0.930 . S
H929 C942 0.930 . S
H930 C946 0.959 . S
H931 C946 0.959 . S
H932 C946 0.961 . S
H933 C947 0.960 . S
H934 C947 0.961 . S
H935 C947 0.959 . S
H936 C950 0.929 . S
H937 C951 0.931 . S
H938 C953 0.930 . S
C939 H927 0.930 . S
C939 C940 1.399 . S
C939 C944 1.399 . S
C940 C939 1.399 . S
C940 C941 1.376 . S
C941 H928 0.930 . S
C941 C940 1.376 . S
C941 C942 1.388 . S
C942 H929 0.930 . S
C942 C941 1.388 . S
C942 C943 1.390 . S
C943 C942 1.390 . S
C943 C944 1.394 . S
C943 C949 1.465 . S
C944 C939 1.399 . S
C944 C943 1.394 . S
C944 C945 1.516 . S
C945 C944 1.516 . S
C945 C946 1.502 . S
C945 C947 1.561 . S
C945 C948 1.526 . S
C946 H930 0.959 . S
C946 H931 0.959 . S
C946 H932 0.961 . S
C946 C945 1.502 . S
C947 H933 0.960 . S
C947 H934 0.961 . S
C947 H935 0.959 . S
C947 C945 1.561 . S
C948 C945 1.526 . S
C948 C949 1.396 . S
C948 C953 1.390 . S
C949 C943 1.465 . S
C949 C948 1.396 . S
C949 C950 1.399 . S
C950 H936 0.929 . S
C950 C949 1.399 . S
C950 C951 1.385 . S
C951 H937 0.931 . S
C951 C950 1.385 . S
C951 C952 1.389 . S
C952 C951 1.389 . S
C952 C953 1.387 . S
C953 H938 0.930 . S
C953 C948 1.390 . S
C953 C952 1.387 . S
H954 C966 0.930 . S
H955 C968 0.930 . S
H956 C969 0.930 1_554 S
H957 C973 0.959 . S
H958 C973 0.959 . S
H959 C973 0.961 . S
H960 C974 0.960 . S
H961 C974 0.961 . S
H962 C974 0.959 . S
H963 C977 0.929 . S
H964 C978 0.931 . S
H965 C980 0.930 . S
C966 H954 0.930 . S
C966 C967 1.399 . S
C966 C971 1.399 . S
C967 C966 1.399 . S
C967 C968 1.376 . S
C968 H955 0.930 . S
C968 C967 1.376 . S
C968 C969 1.388 . S
C969 H956 0.930 1_556 S
C969 C968 1.388 . S
C969 C970 1.390 . S
C970 C969 1.390 . S
C970 C971 1.394 . S
C970 C976 1.465 1_556 S
C971 C966 1.399 . S
C971 C970 1.394 . S
C971 C972 1.516 1_565 S
C972 C971 1.516 1_545 S
C972 C973 1.502 . S
C972 C974 1.561 . S
C972 C975 1.526 1_556 S
C973 H957 0.959 . S
C973 H958 0.959 . S
C973 H959 0.961 . S
C973 C972 1.502 . S
C974 H960 0.960 . S
C974 H961 0.961 . S
C974 H962 0.959 . S
C974 C972 1.561 . S
C975 C972 1.526 1_554 S
C975 C976 1.396 1_545 S
C975 C980 1.390 . S
C976 C970 1.465 1_554 S
C976 C975 1.396 1_565 S
C976 C977 1.399 . S
C977 H963 0.929 . S
C977 C976 1.399 . S
C977 C978 1.385 1_565 S
C978 H964 0.931 . S
C978 C977 1.385 1_545 S
C978 C979 1.389 . S
C979 C978 1.389 . S
C979 C980 1.387 . S
C980 H965 0.930 . S
C980 C975 1.390 . S
C980 C979 1.387 . S
H981 C993 0.930 . S
H982 C995 0.930 . S
H983 C996 0.930 . S
H984 C1000 0.959 . S
H985 C1000 0.959 . S
H986 C1000 0.961 . S
H987 C1001 0.960 . S
H988 C1001 0.961 1_556 S
H989 C1001 0.959 . S
H990 C1004 0.929 . S
H991 C1005 0.931 . S
H992 C1007 0.930 . S
C993 H981 0.930 . S
C993 C994 1.399 . S
C993 C998 1.399 . S
C994 C993 1.399 . S
C994 C995 1.376 . S
C995 H982 0.930 . S
C995 C994 1.376 . S
C995 C996 1.388 . S
C996 H983 0.930 . S
C996 C995 1.388 . S
C996 C997 1.390 . S
C997 C996 1.390 . S
C997 C998 1.394 . S
C997 C1003 1.465 1_654 S
C998 C993 1.399 . S
C998 C997 1.394 . S
C998 C999 1.516 1_554 S
C999 C998 1.516 1_556 S
C999 C1000 1.502 . S
C999 C1001 1.561 1_656 S
C999 C1002 1.526 1_655 S
C1000 H984 0.959 . S
C1000 H985 0.959 . S
C1000 H986 0.961 . S
C1000 C999 1.502 . S
C1001 H987 0.960 . S
C1001 H988 0.961 1_554 S
C1001 H989 0.959 . S
C1001 C999 1.561 1_454 S
C1002 C999 1.526 1_455 S
C1002 C1003 1.396 . S
C1002 C1007 1.390 . S
C1003 C997 1.465 1_456 S
C1003 C1002 1.396 . S
C1003 C1004 1.399 . S
C1004 H990 0.929 . S
C1004 C1003 1.399 . S
C1004 C1005 1.385 . S
C1005 H991 0.931 . S
C1005 C1004 1.385 . S
C1005 C1006 1.389 . S
C1006 C1005 1.389 . S
C1006 C1007 1.387 . S
C1007 H992 0.930 . S
C1007 C1002 1.390 . S
C1007 C1006 1.387 . S
H1008 C1020 0.930 . S
H1009 C1022 0.930 . S
H1010 C1023 0.930 1_554 S
H1011 C1027 0.959 . S
H1012 C1027 0.959 . S
H1013 C1027 0.961 . S
H1014 C1028 0.960 . S
H1015 C1028 0.961 . S
H1016 C1028 0.959 . S
H1017 C1031 0.929 . S
H1018 C1032 0.931 . S
H1019 C1034 0.930 . S
C1020 H1008 0.930 . S
C1020 C1021 1.399 . S
C1020 C1025 1.399 . S
C1021 C1020 1.399 . S
C1021 C1022 1.376 . S
C1022 H1009 0.930 . S
C1022 C1021 1.376 . S
C1022 C1023 1.388 . S
C1023 H1010 0.930 1_556 S
C1023 C1022 1.388 . S
C1023 C1024 1.390 . S
C1024 C1023 1.390 . S
C1024 C1025 1.394 . S
C1024 C1030 1.465 1_556 S
C1025 C1020 1.399 . S
C1025 C1024 1.394 . S
C1025 C1026 1.516 . S
C1026 C1025 1.516 . S
C1026 C1027 1.502 . S
C1026 C1028 1.561 . S
C1026 C1029 1.526 1_556 S
C1027 H1011 0.959 . S
C1027 H1012 0.959 . S
C1027 H1013 0.961 . S
C1027 C1026 1.502 . S
C1028 H1014 0.960 . S
C1028 H1015 0.961 . S
C1028 H1016 0.959 . S
C1028 C1026 1.561 . S
C1029 C1026 1.526 1_554 S
C1029 C1030 1.396 . S
C1029 C1034 1.390 . S
C1030 C1024 1.465 1_554 S
C1030 C1029 1.396 . S
C1030 C1031 1.399 . S
C1031 H1017 0.929 . S
C1031 C1030 1.399 . S
C1031 C1032 1.385 . S
C1032 H1018 0.931 . S
C1032 C1031 1.385 . S
C1032 C1033 1.389 . S
C1033 C1032 1.389 . S
C1033 C1034 1.387 . S
C1034 H1019 0.930 . S
C1034 C1029 1.390 . S
C1034 C1033 1.387 . S
H1035 C1047 0.930 . S
H1036 C1049 0.930 . S
H1037 C1050 0.930 . S
H1038 C1054 0.959 . S
H1039 C1054 0.959 1_554 S
H1040 C1054 0.961 . S
H1041 C1055 0.960 . S
H1042 C1055 0.961 . S
H1043 C1055 0.959 . S
H1044 C1058 0.929 . S
H1045 C1059 0.931 . S
H1046 C1061 0.930 . S
C1047 H1035 0.930 . S
C1047 C1048 1.399 . S
C1047 C1052 1.399 . S
C1048 C1047 1.399 . S
C1048 C1049 1.376 . S
C1049 H1036 0.930 . S
C1049 C1048 1.376 . S
C1049 C1050 1.388 . S
C1050 H1037 0.930 . S
C1050 C1049 1.388 . S
C1050 C1051 1.390 . S
C1051 C1050 1.390 . S
C1051 C1052 1.394 . S
C1051 C1057 1.465 1_566 S
C1052 C1047 1.399 . S
C1052 C1051 1.394 . S
C1052 C1053 1.516 1_556 S
C1053 C1052 1.516 1_554 S
C1053 C1054 1.502 1_564 S
C1053 C1055 1.561 . S
C1053 C1056 1.526 1_565 S
C1054 H1038 0.959 . S
C1054 H1039 0.959 1_556 S
C1054 H1040 0.961 . S
C1054 C1053 1.502 1_546 S
C1055 H1041 0.960 . S
C1055 H1042 0.961 . S
C1055 H1043 0.959 . S
C1055 C1053 1.561 . S
C1056 C1053 1.526 1_545 S
C1056 C1057 1.396 . S
C1056 C1061 1.390 . S
C1057 C1051 1.465 1_544 S
C1057 C1056 1.396 . S
C1057 C1058 1.399 . S
C1058 H1044 0.929 . S
C1058 C1057 1.399 . S
C1058 C1059 1.385 . S
C1059 H1045 0.931 . S
C1059 C1058 1.385 . S
C1059 C1060 1.389 . S
C1060 C1059 1.389 . S
C1060 C1061 1.387 . S
C1061 H1046 0.930 . S
C1061 C1056 1.390 . S
C1061 C1060 1.387 . S
H1062 C1074 0.930 . S
H1063 C1076 0.930 . S
H1064 C1077 0.930 . S
H1065 C1081 0.959 . S
H1066 C1081 0.959 . S
H1067 C1081 0.961 . S
H1068 C1082 0.960 . S
H1069 C1082 0.961 . S
H1070 C1082 0.959 . S
H1071 C1085 0.929 1_556 S
H1072 C1086 0.931 . S
H1073 C1088 0.930 . S
C1074 H1062 0.930 . S
C1074 C1075 1.399 . S
C1074 C1079 1.399 . S
C1075 C1074 1.399 . S
C1075 C1076 1.376 . S
C1076 H1063 0.930 . S
C1076 C1075 1.376 . S
C1076 C1077 1.388 1_455 S
C1077 H1064 0.930 . S
C1077 C1076 1.388 1_655 S
C1077 C1078 1.384 . S
C1078 C1077 1.384 . S
C1078 C1079 1.365 1_655 S
C1078 C1084 1.499 1_556 S
C1079 C1074 1.399 . S
C1079 C1078 1.365 1_455 S
C1079 C1080 1.516 1_556 S
C1080 C1079 1.516 1_554 S
C1080 C1081 1.502 . S
C1080 C1082 1.561 . S
C1080 C1083 1.526 1_455 S
C1081 H1065 0.959 . S
C1081 H1066 0.959 . S
C1081 H1067 0.961 . S
C1081 C1080 1.502 . S
C1082 H1068 0.960 . S
C1082 H1069 0.961 . S
C1082 H1070 0.959 . S
C1082 C1080 1.561 . S
C1083 C1080 1.526 1_655 S
C1083 C1084 1.396 . S
C1083 C1088 1.390 . S
C1084 C1078 1.499 1_554 S
C1084 C1083 1.396 . S
C1084 C1085 1.399 . S
C1085 H1071 0.929 1_554 S
C1085 C1084 1.399 . S
C1085 C1086 1.385 . S
C1086 H1072 0.931 . S
C1086 C1085 1.385 . S
C1086 C1087 1.389 . S
C1087 C1086 1.389 . S
C1087 C1088 1.387 . S
C1088 H1073 0.930 . S
C1088 C1083 1.390 . S
C1088 C1087 1.387 . S
H1089 C1101 0.930 . S
H1090 C1103 0.930 . S
H1091 C1104 0.930 . S
H1092 C1108 0.959 . S
H1093 C1108 0.959 . S
H1094 C1108 0.961 . S
H1095 C1109 0.970 . S
H1096 C1109 0.961 . S
H1097 C1109 0.959 . S
H1098 C1112 0.929 . S
H1099 C1113 0.931 . S
H1100 C1115 0.930 . S
C1101 H1089 0.930 . S
C1101 C1102 1.399 . S
C1101 C1106 1.399 . S
C1102 C1101 1.399 . S
C1102 C1103 1.376 . S
C1103 H1090 0.930 . S
C1103 C1102 1.376 . S
C1103 C1104 1.388 . S
C1104 H1091 0.930 . S
C1104 C1103 1.388 . S
C1104 C1105 1.390 . S
C1105 C1104 1.390 . S
C1105 C1106 1.394 . S
C1105 C1111 1.465 1_554 S
C1106 C1101 1.399 . S
C1106 C1105 1.394 . S
C1106 C1107 1.516 . S
C1107 C1106 1.516 . S
C1107 C1108 1.502 . S
C1107 C1109 1.561 1_554 S
C1107 C1110 1.526 1_554 S
C1108 H1092 0.959 . S
C1108 H1093 0.959 . S
C1108 H1094 0.961 . S
C1108 C1107 1.502 . S
C1109 H1095 0.970 . S
C1109 H1096 0.961 . S
C1109 H1097 0.959 . S
C1109 C1107 1.561 1_556 S
C1110 C1107 1.526 1_556 S
C1110 C1111 1.396 . S
C1110 C1115 1.390 . S
C1111 C1105 1.465 1_556 S
C1111 C1110 1.396 . S
C1111 C1112 1.399 . S
C1112 H1098 0.929 . S
C1112 C1111 1.399 . S
C1112 C1113 1.385 . S
C1113 H1099 0.931 . S
C1113 C1112 1.385 . S
C1113 C1114 1.389 . S
C1114 C1113 1.389 . S
C1114 C1115 1.387 . S
C1115 H1100 0.930 . S
C1115 C1110 1.390 . S
C1115 C1114 1.387 . S
H1116 C1128 0.930 . S
H1117 C1130 0.930 . S
H1118 C1131 0.930 . S
H1119 C1135 0.959 . S
H1120 C1135 0.959 . S
H1121 C1135 0.961 . S
H1122 C1136 0.960 . S
H1123 C1136 0.961 . S
H1124 C1136 0.959 . S
H1125 C1139 0.929 . S
H1126 C1140 0.931 . S
H1127 C1142 0.930 . S
C1128 H1116 0.930 . S
C1128 C1129 1.399 . S
C1128 C1133 1.399 . S
C1129 C1128 1.399 . S
C1129 C1130 1.376 . S
C1130 H1117 0.930 . S
C1130 C1129 1.376 . S
C1130 C1131 1.388 . S
C1131 H1118 0.930 . S
C1131 C1130 1.388 . S
C1131 C1132 1.390 . S
C1132 C1131 1.390 . S
C1132 C1133 1.394 . S
C1132 C1138 1.465 . S
C1133 C1128 1.399 . S
C1133 C1132 1.394 . S
C1133 C1134 1.516 . S
C1134 C1133 1.516 . S
C1134 C1135 1.502 . S
C1134 C1136 1.561 . S
C1134 C1137 1.526 . S
C1135 H1119 0.959 . S
C1135 H1120 0.959 . S
C1135 H1121 0.961 . S
C1135 C1134 1.502 . S
C1136 H1122 0.960 . S
C1136 H1123 0.961 . S
C1136 H1124 0.959 . S
C1136 C1134 1.561 . S
C1137 C1134 1.526 . S
C1137 C1138 1.396 . S
C1137 C1142 1.390 . S
C1138 C1132 1.465 . S
C1138 C1137 1.396 . S
C1138 C1139 1.399 . S
C1139 H1125 0.929 . S
C1139 C1138 1.399 . S
C1139 C1140 1.385 . S
C1140 H1126 0.931 . S
C1140 C1139 1.385 . S
C1140 C1141 1.389 . S
C1141 C1140 1.389 . S
C1141 C1142 1.387 . S
C1142 H1127 0.930 . S
C1142 C1137 1.390 . S
C1142 C1141 1.387 . S
H1143 C1155 0.930 . S
H1144 C1157 0.930 . S
H1145 C1158 0.930 . S
H1146 C1162 0.959 . S
H1147 C1162 0.959 . S
H1148 C1162 0.961 . S
H1149 C1163 0.960 . S
H1150 C1163 0.961 . S
H1151 C1163 0.959 . S
H1152 C1166 0.929 . S
H1153 C1167 0.931 . S
H1154 C1169 0.930 . S
C1155 H1143 0.930 . S
C1155 C1156 1.399 . S
C1155 C1160 1.399 . S
C1156 C1155 1.399 . S
C1156 C1157 1.376 . S
C1157 H1144 0.930 . S
C1157 C1156 1.376 . S
C1157 C1158 1.388 . S
C1158 H1145 0.930 . S
C1158 C1157 1.388 . S
C1158 C1159 1.390 . S
C1159 C1158 1.390 . S
C1159 C1160 1.394 . S
C1159 C1165 1.465 . S
C1160 C1155 1.399 . S
C1160 C1159 1.394 . S
C1160 C1161 1.516 . S
C1161 C1160 1.516 . S
C1161 C1162 1.502 . S
C1161 C1163 1.561 . S
C1161 C1164 1.526 . S
C1162 H1146 0.959 . S
C1162 H1147 0.959 . S
C1162 H1148 0.961 . S
C1162 C1161 1.502 . S
C1163 H1149 0.960 . S
C1163 H1150 0.961 . S
C1163 H1151 0.959 . S
C1163 C1161 1.561 . S
C1164 C1161 1.526 . S
C1164 C1165 1.396 . S
C1164 C1169 1.390 . S
C1165 C1159 1.465 . S
C1165 C1164 1.396 . S
C1165 C1166 1.399 . S
C1166 H1152 0.929 . S
C1166 C1165 1.399 . S
C1166 C1167 1.385 . S
C1167 H1153 0.931 . S
C1167 C1166 1.385 . S
C1167 C1168 1.389 . S
C1168 C1167 1.389 . S
C1168 C1169 1.387 . S
C1169 H1154 0.930 . S
C1169 C1164 1.390 . S
C1169 C1168 1.387 . S
H1170 C1182 0.930 . S
H1171 C1184 0.930 . S
H1172 C1185 0.930 . S
H1173 C1189 0.959 . S
H1174 C1189 0.959 . S
H1175 C1189 0.961 . S
H1176 C1190 0.960 . S
H1177 C1190 0.961 . S
H1178 C1190 0.959 . S
H1179 C1193 0.929 . S
H1180 C1194 0.931 . S
H1181 C1196 0.930 . S
C1182 H1170 0.930 . S
C1182 C1183 1.399 . S
C1182 C1187 1.399 . S
C1183 C1182 1.399 . S
C1183 C1184 1.376 . S
C1184 H1171 0.930 . S
C1184 C1183 1.376 . S
C1184 C1185 1.388 . S
C1185 H1172 0.930 . S
C1185 C1184 1.388 . S
C1185 C1186 1.390 . S
C1186 C1185 1.390 . S
C1186 C1187 1.394 . S
C1186 C1192 1.465 . S
C1187 C1182 1.399 . S
C1187 C1186 1.394 . S
C1187 C1188 1.516 . S
C1188 C1187 1.516 . S
C1188 C1189 1.502 . S
C1188 C1190 1.561 . S
C1188 C1191 1.526 . S
C1189 H1173 0.959 . S
C1189 H1174 0.959 . S
C1189 H1175 0.961 . S
C1189 C1188 1.502 . S
C1190 H1176 0.960 . S
C1190 H1177 0.961 . S
C1190 H1178 0.959 . S
C1190 C1188 1.561 . S
C1191 C1188 1.526 . S
C1191 C1192 1.396 . S
C1191 C1196 1.390 . S
C1192 C1186 1.465 . S
C1192 C1191 1.396 . S
C1192 C1193 1.399 . S
C1193 H1179 0.929 . S
C1193 C1192 1.399 . S
C1193 C1194 1.385 . S
C1194 H1180 0.931 . S
C1194 C1193 1.385 . S
C1194 C1195 1.389 . S
C1195 C1194 1.389 . S
C1195 C1196 1.387 . S
C1196 H1181 0.930 . S
C1196 C1191 1.390 . S
C1196 C1195 1.387 . S
H1197 C1209 0.930 . S
H1198 C1211 0.930 . S
H1199 C1212 0.930 . S
H1200 C1216 0.959 . S
H1201 C1216 0.959 . S
H1202 C1216 0.961 . S
H1203 C1217 0.960 . S
H1204 C1217 0.961 . S
H1205 C1217 0.959 . S
H1206 C1220 0.929 . S
H1207 C1221 0.931 . S
H1208 C1223 0.930 . S
C1209 H1197 0.930 . S
C1209 C1210 1.399 . S
C1209 C1214 1.399 . S
C1210 C1209 1.399 . S
C1210 C1211 1.376 . S
C1211 H1198 0.930 . S
C1211 C1210 1.376 . S
C1211 C1212 1.388 . S
C1212 H1199 0.930 . S
C1212 C1211 1.388 . S
C1212 C1213 1.390 . S
C1213 C1212 1.390 . S
C1213 C1214 1.394 . S
C1213 C1219 1.465 . S
C1214 C1209 1.399 . S
C1214 C1213 1.394 . S
C1214 C1215 1.516 . S
C1215 C1214 1.516 . S
C1215 C1216 1.502 . S
C1215 C1217 1.561 . S
C1215 C1218 1.526 . S
C1216 H1200 0.959 . S
C1216 H1201 0.959 . S
C1216 H1202 0.961 . S
C1216 C1215 1.502 . S
C1217 H1203 0.960 . S
C1217 H1204 0.961 . S
C1217 H1205 0.959 . S
C1217 C1215 1.561 . S
C1218 C1215 1.526 . S
C1218 C1219 1.396 . S
C1218 C1223 1.390 . S
C1219 C1213 1.465 . S
C1219 C1218 1.396 . S
C1219 C1220 1.399 . S
C1220 H1206 0.929 . S
C1220 C1219 1.399 . S
C1220 C1221 1.385 . S
C1221 H1207 0.931 . S
C1221 C1220 1.385 . S
C1221 C1222 1.389 . S
C1222 C1221 1.389 . S
C1222 C1223 1.387 . S
C1223 H1208 0.930 . S
C1223 C1218 1.390 . S
C1223 C1222 1.387 . S
H1224 C1236 0.930 . S
H1225 C1238 0.930 . S
H1226 C1239 0.930 . S
H1227 C1243 0.959 . S
H1228 C1243 0.959 . S
H1229 C1243 0.961 . S
H1230 C1244 0.960 . S
H1231 C1244 0.961 . S
H1232 C1244 0.959 . S
H1233 C1247 0.929 . S
H1234 C1248 0.931 . S
H1235 C1250 0.930 . S
C1236 H1224 0.930 . S
C1236 C1237 1.399 . S
C1236 C1241 1.399 . S
C1237 C1236 1.399 . S
C1237 C1238 1.376 . S
C1238 H1225 0.930 . S
C1238 C1237 1.376 . S
C1238 C1239 1.388 . S
C1239 H1226 0.930 . S
C1239 C1238 1.388 . S
C1239 C1240 1.390 . S
C1240 C1239 1.390 . S
C1240 C1241 1.394 . S
C1240 C1246 1.465 . S
C1241 C1236 1.399 . S
C1241 C1240 1.394 . S
C1241 C1242 1.516 . S
C1242 C1241 1.516 . S
C1242 C1243 1.502 . S
C1242 C1244 1.561 . S
C1242 C1245 1.526 . S
C1243 H1227 0.959 . S
C1243 H1228 0.959 . S
C1243 H1229 0.961 . S
C1243 C1242 1.502 . S
C1244 H1230 0.960 . S
C1244 H1231 0.961 . S
C1244 H1232 0.959 . S
C1244 C1242 1.561 . S
C1245 C1242 1.526 . S
C1245 C1246 1.396 . S
C1245 C1250 1.390 . S
C1246 C1240 1.465 . S
C1246 C1245 1.396 . S
C1246 C1247 1.399 . S
C1247 H1233 0.929 . S
C1247 C1246 1.399 . S
C1247 C1248 1.385 . S
C1248 H1234 0.931 . S
C1248 C1247 1.385 . S
C1248 C1249 1.389 . S
C1249 C1248 1.389 . S
C1249 C1250 1.387 . S
C1250 H1235 0.930 . S
C1250 C1245 1.390 . S
C1250 C1249 1.387 . S
H1251 C1263 0.930 . S
H1252 C1265 0.930 . S
H1253 C1266 0.930 . S
H1254 C1270 0.959 . S
H1255 C1270 0.959 . S
H1256 C1270 0.961 . S
H1257 C1271 0.960 . S
H1258 C1271 0.961 . S
H1259 C1271 0.959 . S
H1260 C1274 0.929 . S
H1261 C1275 0.931 . S
H1262 C1277 0.930 . S
C1263 H1251 0.930 . S
C1263 C1264 1.399 . S
C1263 C1268 1.399 . S
C1264 C1263 1.399 . S
C1264 C1265 1.376 . S
C1265 H1252 0.930 . S
C1265 C1264 1.376 . S
C1265 C1266 1.388 . S
C1266 H1253 0.930 . S
C1266 C1265 1.388 . S
C1266 C1267 1.390 . S
C1267 C1266 1.390 . S
C1267 C1268 1.394 . S
C1267 C1273 1.465 . S
C1268 C1263 1.399 . S
C1268 C1267 1.394 . S
C1268 C1269 1.516 . S
C1269 C1268 1.516 . S
C1269 C1270 1.502 . S
C1269 C1271 1.561 . S
C1269 C1272 1.526 . S
C1270 H1254 0.959 . S
C1270 H1255 0.959 . S
C1270 H1256 0.961 . S
C1270 C1269 1.502 . S
C1271 H1257 0.960 . S
C1271 H1258 0.961 . S
C1271 H1259 0.959 . S
C1271 C1269 1.561 . S
C1272 C1269 1.526 . S
C1272 C1273 1.396 . S
C1272 C1277 1.390 . S
C1273 C1267 1.465 . S
C1273 C1272 1.396 . S
C1273 C1274 1.399 . S
C1274 H1260 0.929 . S
C1274 C1273 1.399 . S
C1274 C1275 1.385 . S
C1275 H1261 0.931 . S
C1275 C1274 1.385 . S
C1275 C1276 1.389 . S
C1276 C1275 1.389 . S
C1276 C1277 1.387 . S
C1277 H1262 0.930 . S
C1277 C1272 1.390 . S
C1277 C1276 1.387 . S
H1278 C1290 0.930 . S
H1279 C1292 0.930 . S
H1280 C1293 0.930 . S
H1281 C1297 0.959 . S
H1282 C1297 0.959 . S
H1283 C1297 0.961 . S
H1284 C1298 0.960 . S
H1285 C1298 0.961 . S
H1286 C1298 0.959 . S
H1287 C1301 0.929 . S
H1288 C1302 0.931 . S
H1289 C1304 0.930 . S
C1290 H1278 0.930 . S
C1290 C1291 1.399 . S
C1290 C1295 1.399 . S
C1291 C1290 1.399 . S
C1291 C1292 1.376 . S
C1292 H1279 0.930 . S
C1292 C1291 1.376 . S
C1292 C1293 1.388 . S
C1293 H1280 0.930 . S
C1293 C1292 1.388 . S
C1293 C1294 1.390 . S
C1294 C1293 1.390 . S
C1294 C1295 1.394 . S
C1294 C1300 1.465 . S
C1295 C1290 1.399 . S
C1295 C1294 1.394 . S
C1295 C1296 1.516 . S
C1296 C1295 1.516 . S
C1296 C1297 1.502 . S
C1296 C1298 1.561 . S
C1296 C1299 1.526 . S
C1297 H1281 0.959 . S
C1297 H1282 0.959 . S
C1297 H1283 0.961 . S
C1297 C1296 1.502 . S
C1298 H1284 0.960 . S
C1298 H1285 0.961 . S
C1298 H1286 0.959 . S
C1298 C1296 1.561 . S
C1299 C1296 1.526 . S
C1299 C1300 1.396 . S
C1299 C1304 1.390 . S
C1300 C1294 1.465 . S
C1300 C1299 1.396 . S
C1300 C1301 1.399 . S
C1301 H1287 0.929 . S
C1301 C1300 1.399 . S
C1301 C1302 1.385 . S
C1302 H1288 0.931 . S
C1302 C1301 1.385 . S
C1302 C1303 1.389 . S
C1303 C1302 1.389 . S
C1303 C1304 1.387 . S
C1304 H1289 0.930 . S
C1304 C1299 1.390 . S
C1304 C1303 1.387 . S
H1305 C1317 0.930 . S
H1306 C1319 0.930 . S
H1307 C1320 0.930 . S
H1308 C1324 0.959 . S
H1309 C1324 0.959 . S
H1310 C1324 0.961 . S
H1311 C1325 0.960 . S
H1312 C1325 0.961 . S
H1313 C1325 0.959 . S
H1314 C1328 0.929 . S
H1315 C1329 0.931 . S
H1316 C1331 0.930 . S
C1317 H1305 0.930 . S
C1317 C1318 1.399 . S
C1317 C1322 1.399 . S
C1318 C1317 1.399 . S
C1318 C1319 1.376 . S
C1319 H1306 0.930 . S
C1319 C1318 1.376 . S
C1319 C1320 1.388 . S
C1320 H1307 0.930 . S
C1320 C1319 1.388 . S
C1320 C1321 1.390 . S
C1321 C1320 1.390 . S
C1321 C1322 1.394 . S
C1321 C1327 1.465 . S
C1322 C1317 1.399 . S
C1322 C1321 1.394 . S
C1322 C1323 1.516 . S
C1323 C1322 1.516 . S
C1323 C1324 1.502 . S
C1323 C1325 1.561 . S
C1323 C1326 1.526 . S
C1324 H1308 0.959 . S
C1324 H1309 0.959 . S
C1324 H1310 0.961 . S
C1324 C1323 1.502 . S
C1325 H1311 0.960 . S
C1325 H1312 0.961 . S
C1325 H1313 0.959 . S
C1325 C1323 1.561 . S
C1326 C1323 1.526 . S
C1326 C1327 1.396 . S
C1326 C1331 1.390 . S
C1327 C1321 1.465 . S
C1327 C1326 1.396 . S
C1327 C1328 1.399 . S
C1328 H1314 0.929 . S
C1328 C1327 1.399 . S
C1328 C1329 1.385 . S
C1329 H1315 0.931 . S
C1329 C1328 1.385 . S
C1329 C1330 1.389 . S
C1330 C1329 1.389 . S
C1330 C1331 1.387 . S
C1331 H1316 0.930 . S
C1331 C1326 1.390 . S
C1331 C1330 1.387 . S
H1332 C1344 0.930 . S
H1333 C1346 0.930 . S
H1334 C1347 0.930 . S
H1335 C1351 0.959 . S
H1336 C1351 0.959 . S
H1337 C1351 0.961 . S
H1338 C1352 0.960 . S
H1339 C1352 0.961 . S
H1340 C1352 0.959 . S
H1341 C1355 0.929 . S
H1342 C1356 0.931 . S
H1343 C1358 0.930 . S
C1344 H1332 0.930 . S
C1344 C1345 1.399 . S
C1344 C1349 1.399 . S
C1345 C1344 1.399 . S
C1345 C1346 1.376 . S
C1346 H1333 0.930 . S
C1346 C1345 1.376 . S
C1346 C1347 1.388 . S
C1347 H1334 0.930 . S
C1347 C1346 1.388 . S
C1347 C1348 1.390 . S
C1348 C1347 1.390 . S
C1348 C1349 1.394 . S
C1348 C1354 1.465 . S
C1349 C1344 1.399 . S
C1349 C1348 1.394 . S
C1349 C1350 1.516 . S
C1350 C1349 1.516 . S
C1350 C1351 1.502 . S
C1350 C1352 1.561 . S
C1350 C1353 1.526 . S
C1351 H1335 0.959 . S
C1351 H1336 0.959 . S
C1351 H1337 0.961 . S
C1351 C1350 1.502 . S
C1352 H1338 0.960 . S
C1352 H1339 0.961 . S
C1352 H1340 0.959 . S
C1352 C1350 1.561 . S
C1353 C1350 1.526 . S
C1353 C1354 1.396 . S
C1353 C1358 1.390 . S
C1354 C1348 1.465 . S
C1354 C1353 1.396 . S
C1354 C1355 1.399 . S
C1355 H1341 0.929 . S
C1355 C1354 1.399 . S
C1355 C1356 1.385 . S
C1356 H1342 0.931 . S
C1356 C1355 1.385 . S
C1356 C1357 1.389 . S
C1357 C1356 1.389 . S
C1357 C1358 1.387 . S
C1358 H1343 0.930 . S
C1358 C1353 1.390 . S
C1358 C1357 1.387 . S
H1359 C1371 0.930 . S
H1360 C1373 0.930 . S
H1361 C1374 0.930 . S
H1362 C1378 0.959 . S
H1363 C1378 0.959 . S
H1364 C1378 0.961 . S
H1365 C1379 0.960 . S
H1366 C1379 0.961 . S
H1367 C1379 0.959 . S
H1368 C1382 0.929 . S
H1369 C1383 0.931 . S
H1370 C1385 0.930 . S
C1371 H1359 0.930 . S
C1371 C1372 1.399 . S
C1371 C1376 1.399 . S
C1372 C1371 1.399 . S
C1372 C1373 1.376 . S
C1373 H1360 0.930 . S
C1373 C1372 1.376 . S
C1373 C1374 1.388 . S
C1374 H1361 0.930 . S
C1374 C1373 1.388 . S
C1374 C1375 1.390 . S
C1375 C1374 1.390 . S
C1375 C1376 1.394 . S
C1375 C1381 1.465 . S
C1376 C1371 1.399 . S
C1376 C1375 1.394 . S
C1376 C1377 1.516 . S
C1377 C1376 1.516 . S
C1377 C1378 1.502 . S
C1377 C1379 1.561 . S
C1377 C1380 1.526 . S
C1378 H1362 0.959 . S
C1378 H1363 0.959 . S
C1378 H1364 0.961 . S
C1378 C1377 1.502 . S
C1379 H1365 0.960 . S
C1379 H1366 0.961 . S
C1379 H1367 0.959 . S
C1379 C1377 1.561 . S
C1380 C1377 1.526 . S
C1380 C1381 1.396 . S
C1380 C1385 1.390 . S
C1381 C1375 1.465 . S
C1381 C1380 1.396 . S
C1381 C1382 1.399 . S
C1382 H1368 0.929 . S
C1382 C1381 1.399 . S
C1382 C1383 1.385 . S
C1383 H1369 0.931 . S
C1383 C1382 1.385 . S
C1383 C1384 1.389 . S
C1384 C1383 1.389 . S
C1384 C1385 1.387 . S
C1385 H1370 0.930 . S
C1385 C1380 1.390 . S
C1385 C1384 1.387 . S
H1386 C1398 0.930 . S
H1387 C1400 0.930 . S
H1388 C1401 0.930 . S
H1389 C1405 0.959 . S
H1390 C1405 0.959 . S
H1391 C1405 0.961 . S
H1392 C1406 0.960 . S
H1393 C1406 0.961 . S
H1394 C1406 0.959 . S
H1395 C1409 0.929 . S
H1396 C1410 0.931 . S
H1397 C1412 0.930 . S
C1398 H1386 0.930 . S
C1398 C1399 1.399 . S
C1398 C1403 1.399 . S
C1399 C1398 1.399 . S
C1399 C1400 1.376 . S
C1400 H1387 0.930 . S
C1400 C1399 1.376 . S
C1400 C1401 1.388 . S
C1401 H1388 0.930 . S
C1401 C1400 1.388 . S
C1401 C1402 1.390 . S
C1402 C1401 1.390 . S
C1402 C1403 1.394 . S
C1402 C1408 1.465 . S
C1403 C1398 1.399 . S
C1403 C1402 1.394 . S
C1403 C1404 1.516 . S
C1404 C1403 1.516 . S
C1404 C1405 1.502 . S
C1404 C1406 1.561 . S
C1404 C1407 1.526 . S
C1405 H1389 0.959 . S
C1405 H1390 0.959 . S
C1405 H1391 0.961 . S
C1405 C1404 1.502 . S
C1406 H1392 0.960 . S
C1406 H1393 0.961 . S
C1406 H1394 0.959 . S
C1406 C1404 1.561 . S
C1407 C1404 1.526 . S
C1407 C1408 1.396 . S
C1407 C1412 1.390 . S
C1408 C1402 1.465 . S
C1408 C1407 1.396 . S
C1408 C1409 1.399 . S
C1409 H1395 0.929 . S
C1409 C1408 1.399 . S
C1409 C1410 1.385 . S
C1410 H1396 0.931 . S
C1410 C1409 1.385 . S
C1410 C1411 1.389 . S
C1411 C1410 1.389 . S
C1411 C1412 1.387 . S
C1412 H1397 0.930 . S
C1412 C1407 1.390 . S
C1412 C1411 1.387 . S
H1413 C1425 0.930 . S
H1414 C1427 0.930 . S
H1415 C1428 0.930 . S
H1416 C1432 0.959 . S
H1417 C1432 0.959 . S
H1418 C1432 0.961 . S
H1419 C1433 0.960 . S
H1420 C1433 0.961 . S
H1421 C1433 0.959 . S
H1422 C1436 0.929 . S
H1423 C1437 0.931 . S
H1424 C1439 0.930 . S
C1425 H1413 0.930 . S
C1425 C1426 1.399 . S
C1425 C1430 1.399 . S
C1426 C1425 1.399 . S
C1426 C1427 1.376 . S
C1427 H1414 0.930 . S
C1427 C1426 1.376 . S
C1427 C1428 1.388 . S
C1428 H1415 0.930 . S
C1428 C1427 1.388 . S
C1428 C1429 1.390 . S
C1429 C1428 1.390 . S
C1429 C1430 1.394 . S
C1429 C1435 1.465 . S
C1430 C1425 1.399 . S
C1430 C1429 1.394 . S
C1430 C1431 1.516 . S
C1431 C1430 1.516 . S
C1431 C1432 1.502 . S
C1431 C1433 1.561 . S
C1431 C1434 1.526 . S
C1432 H1416 0.959 . S
C1432 H1417 0.959 . S
C1432 H1418 0.961 . S
C1432 C1431 1.502 . S
C1433 H1419 0.960 . S
C1433 H1420 0.961 . S
C1433 H1421 0.959 . S
C1433 C1431 1.561 . S
C1434 C1431 1.526 . S
C1434 C1435 1.396 . S
C1434 C1439 1.390 . S
C1435 C1429 1.465 . S
C1435 C1434 1.396 . S
C1435 C1436 1.399 . S
C1436 H1422 0.929 . S
C1436 C1435 1.399 . S
C1436 C1437 1.385 . S
C1437 H1423 0.931 . S
C1437 C1436 1.385 . S
C1437 C1438 1.389 . S
C1438 C1437 1.389 . S
C1438 C1439 1.387 . S
C1439 H1424 0.930 . S
C1439 C1434 1.390 . S
C1439 C1438 1.387 . S
H1440 C1452 0.930 . S
H1441 C1454 0.930 . S
H1442 C1455 0.930 . S
H1443 C1459 0.959 . S
H1444 C1459 0.959 . S
H1445 C1459 0.961 . S
H1446 C1460 0.960 . S
H1447 C1460 0.961 . S
H1448 C1460 0.959 . S
H1449 C1463 0.929 . S
H1450 C1464 0.931 . S
H1451 C1466 0.930 . S
C1452 H1440 0.930 . S
C1452 C1453 1.399 . S
C1452 C1457 1.399 . S
C1453 C1452 1.399 . S
C1453 C1454 1.376 . S
C1454 H1441 0.930 . S
C1454 C1453 1.376 . S
C1454 C1455 1.388 . S
C1455 H1442 0.930 . S
C1455 C1454 1.388 . S
C1455 C1456 1.390 . S
C1456 C1455 1.390 . S
C1456 C1457 1.394 . S
C1456 C1462 1.465 . S
C1457 C1452 1.399 . S
C1457 C1456 1.394 . S
C1457 C1458 1.516 . S
C1458 C1457 1.516 . S
C1458 C1459 1.502 . S
C1458 C1460 1.561 . S
C1458 C1461 1.526 . S
C1459 H1443 0.959 . S
C1459 H1444 0.959 . S
C1459 H1445 0.961 . S
C1459 C1458 1.502 . S
C1460 H1446 0.960 . S
C1460 H1447 0.961 . S
C1460 H1448 0.959 . S
C1460 C1458 1.561 . S
C1461 C1458 1.526 . S
C1461 C1462 1.396 . S
C1461 C1466 1.390 . S
C1462 C1456 1.465 . S
C1462 C1461 1.396 . S
C1462 C1463 1.399 . S
C1463 H1449 0.929 . S
C1463 C1462 1.399 . S
C1463 C1464 1.385 . S
C1464 H1450 0.931 . S
C1464 C1463 1.385 . S
C1464 C1465 1.389 . S
C1465 C1464 1.389 . S
C1465 C1466 1.387 . S
C1466 H1451 0.930 . S
C1466 C1461 1.390 . S
C1466 C1465 1.387 . S
H1467 C1479 0.930 . S
H1468 C1481 0.930 . S
H1469 C1482 0.930 . S
H1470 C1486 0.959 . S
H1471 C1486 0.959 . S
H1472 C1486 0.961 . S
H1473 C1487 0.960 . S
H1474 C1487 0.961 . S
H1475 C1487 0.959 . S
H1476 C1490 0.929 . S
H1477 C1491 0.931 . S
H1478 C1493 0.930 . S
C1479 H1467 0.930 . S
C1479 C1480 1.399 . S
C1479 C1484 1.399 . S
C1480 C1479 1.399 . S
C1480 C1481 1.376 . S
C1481 H1468 0.930 . S
C1481 C1480 1.376 . S
C1481 C1482 1.388 . S
C1482 H1469 0.930 . S
C1482 C1481 1.388 . S
C1482 C1483 1.390 . S
C1483 C1482 1.390 . S
C1483 C1484 1.394 . S
C1483 C1489 1.465 . S
C1484 C1479 1.399 . S
C1484 C1483 1.394 . S
C1484 C1485 1.516 . S
C1485 C1484 1.516 . S
C1485 C1486 1.502 . S
C1485 C1487 1.561 . S
C1485 C1488 1.526 . S
C1486 H1470 0.959 . S
C1486 H1471 0.959 . S
C1486 H1472 0.961 . S
C1486 C1485 1.502 . S
C1487 H1473 0.960 . S
C1487 H1474 0.961 . S
C1487 H1475 0.959 . S
C1487 C1485 1.561 . S
C1488 C1485 1.526 . S
C1488 C1489 1.396 . S
C1488 C1493 1.390 . S
C1489 C1483 1.465 . S
C1489 C1488 1.396 . S
C1489 C1490 1.399 . S
C1490 H1476 0.929 . S
C1490 C1489 1.399 . S
C1490 C1491 1.385 . S
C1491 H1477 0.931 . S
C1491 C1490 1.385 . S
C1491 C1492 1.389 . S
C1492 C1491 1.389 . S
C1492 C1493 1.387 . S
C1493 H1478 0.930 . S
C1493 C1488 1.390 . S
C1493 C1492 1.387 . S
H1494 C1506 0.930 . S
H1495 C1508 0.930 . S
H1496 C1509 0.930 . S
H1497 C1513 0.959 . S
H1498 C1513 0.959 . S
H1499 C1513 0.961 . S
H1500 C1514 0.960 . S
H1501 C1514 0.961 . S
H1502 C1514 0.959 . S
H1503 C1517 0.929 . S
H1504 C1518 0.931 . S
H1505 C1520 0.930 . S
C1506 H1494 0.930 . S
C1506 C1507 1.399 . S
C1506 C1511 1.399 . S
C1507 C1506 1.399 . S
C1507 C1508 1.376 . S
C1508 H1495 0.930 . S
C1508 C1507 1.376 . S
C1508 C1509 1.388 . S
C1509 H1496 0.930 . S
C1509 C1508 1.388 . S
C1509 C1510 1.390 . S
C1510 C1509 1.390 . S
C1510 C1511 1.394 . S
C1510 C1516 1.465 . S
C1511 C1506 1.399 . S
C1511 C1510 1.394 . S
C1511 C1512 1.516 . S
C1512 C1511 1.516 . S
C1512 C1513 1.502 . S
C1512 C1514 1.561 . S
C1512 C1515 1.526 . S
C1513 H1497 0.959 . S
C1513 H1498 0.959 . S
C1513 H1499 0.961 . S
C1513 C1512 1.502 . S
C1514 H1500 0.960 . S
C1514 H1501 0.961 . S
C1514 H1502 0.959 . S
C1514 C1512 1.561 . S
C1515 C1512 1.526 . S
C1515 C1516 1.396 . S
C1515 C1520 1.390 . S
C1516 C1510 1.465 . S
C1516 C1515 1.396 . S
C1516 C1517 1.399 . S
C1517 H1503 0.929 . S
C1517 C1516 1.399 . S
C1517 C1518 1.385 . S
C1518 H1504 0.931 . S
C1518 C1517 1.385 . S
C1518 C1519 1.389 . S
C1519 C1518 1.389 . S
C1519 C1520 1.387 . S
C1520 H1505 0.930 . S
C1520 C1515 1.390 . S
C1520 C1519 1.387 . S
H1521 C1533 0.930 . S
H1522 C1535 0.930 . S
H1523 C1536 0.930 . S
H1524 C1540 0.959 . S
H1525 C1540 0.959 . S
H1526 C1540 0.961 . S
H1527 C1541 0.960 . S
H1528 C1541 0.961 . S
H1529 C1541 0.959 . S
H1530 C1544 0.929 . S
H1531 C1545 0.931 . S
H1532 C1547 0.930 . S
C1533 H1521 0.930 . S
C1533 C1534 1.399 . S
C1533 C1538 1.399 . S
C1534 C1533 1.399 . S
C1534 C1535 1.376 . S
C1535 H1522 0.930 . S
C1535 C1534 1.376 . S
C1535 C1536 1.388 . S
C1536 H1523 0.930 . S
C1536 C1535 1.388 . S
C1536 C1537 1.390 . S
C1537 C1536 1.390 . S
C1537 C1538 1.394 . S
C1537 C1543 1.465 . S
C1538 C1533 1.399 . S
C1538 C1537 1.394 . S
C1538 C1539 1.516 . S
C1539 C1538 1.516 . S
C1539 C1540 1.502 . S
C1539 C1541 1.561 . S
C1539 C1542 1.526 . S
C1540 H1524 0.959 . S
C1540 H1525 0.959 . S
C1540 H1526 0.961 . S
C1540 C1539 1.502 . S
C1541 H1527 0.960 . S
C1541 H1528 0.961 . S
C1541 H1529 0.959 . S
C1541 C1539 1.561 . S
C1542 C1539 1.526 . S
C1542 C1543 1.396 . S
C1542 C1547 1.390 . S
C1543 C1537 1.465 . S
C1543 C1542 1.396 . S
C1543 C1544 1.399 . S
C1544 H1530 0.929 . S
C1544 C1543 1.399 . S
C1544 C1545 1.385 . S
C1545 H1531 0.931 . S
C1545 C1544 1.385 . S
C1545 C1546 1.389 . S
C1546 C1545 1.389 . S
C1546 C1547 1.387 . S
C1547 H1532 0.930 . S
C1547 C1542 1.390 . S
C1547 C1546 1.387 . S
H1548 C1560 0.930 . S
H1549 C1562 0.930 . S
H1550 C1563 0.930 . S
H1551 C1567 0.959 . S
H1552 C1567 0.959 . S
H1553 C1567 0.961 . S
H1554 C1568 0.960 . S
H1555 C1568 0.961 . S
H1556 C1568 0.959 . S
H1557 C1571 0.929 . S
H1558 C1572 0.931 . S
H1559 C1574 0.930 . S
C1560 H1548 0.930 . S
C1560 C1561 1.399 . S
C1560 C1565 1.399 . S
C1561 C1560 1.399 . S
C1561 C1562 1.376 . S
C1562 H1549 0.930 . S
C1562 C1561 1.376 . S
C1562 C1563 1.388 . S
C1563 H1550 0.930 . S
C1563 C1562 1.388 . S
C1563 C1564 1.390 . S
C1564 C1563 1.390 . S
C1564 C1565 1.394 . S
C1564 C1570 1.465 . S
C1565 C1560 1.399 . S
C1565 C1564 1.394 . S
C1565 C1566 1.516 . S
C1566 C1565 1.516 . S
C1566 C1567 1.502 . S
C1566 C1568 1.561 . S
C1566 C1569 1.526 . S
C1567 H1551 0.959 . S
C1567 H1552 0.959 . S
C1567 H1553 0.961 . S
C1567 C1566 1.502 . S
C1568 H1554 0.960 . S
C1568 H1555 0.961 . S
C1568 H1556 0.959 . S
C1568 C1566 1.561 . S
C1569 C1566 1.526 . S
C1569 C1570 1.396 . S
C1569 C1574 1.390 . S
C1570 C1564 1.465 . S
C1570 C1569 1.396 . S
C1570 C1571 1.399 . S
C1571 H1557 0.929 . S
C1571 C1570 1.399 . S
C1571 C1572 1.385 . S
C1572 H1558 0.931 . S
C1572 C1571 1.385 . S
C1572 C1573 1.389 . S
C1573 C1572 1.389 . S
C1573 C1574 1.387 . S
C1574 H1559 0.930 . S
C1574 C1569 1.390 . S
C1574 C1573 1.387 . S
H1575 C1587 0.930 . S
H1576 C1589 0.930 . S
H1577 C1590 0.930 . S
H1578 C1594 0.959 . S
H1579 C1594 0.959 . S
H1580 C1594 0.961 . S
H1581 C1595 0.960 . S
H1582 C1595 0.961 . S
H1583 C1595 0.959 . S
H1584 C1598 0.929 . S
H1585 C1599 0.931 . S
H1586 C1601 0.930 . S
C1587 H1575 0.930 . S
C1587 C1588 1.399 . S
C1587 C1592 1.399 . S
C1588 C1587 1.399 . S
C1588 C1589 1.376 . S
C1589 H1576 0.930 . S
C1589 C1588 1.376 . S
C1589 C1590 1.388 . S
C1590 H1577 0.930 . S
C1590 C1589 1.388 . S
C1590 C1591 1.390 . S
C1591 C1590 1.390 . S
C1591 C1592 1.394 . S
C1591 C1597 1.465 . S
C1592 C1587 1.399 . S
C1592 C1591 1.394 . S
C1592 C1593 1.516 . S
C1593 C1592 1.516 . S
C1593 C1594 1.502 . S
C1593 C1595 1.561 . S
C1593 C1596 1.526 . S
C1594 H1578 0.959 . S
C1594 H1579 0.959 . S
C1594 H1580 0.961 . S
C1594 C1593 1.502 . S
C1595 H1581 0.960 . S
C1595 H1582 0.961 . S
C1595 H1583 0.959 . S
C1595 C1593 1.561 . S
C1596 C1593 1.526 . S
C1596 C1597 1.396 . S
C1596 C1601 1.390 . S
C1597 C1591 1.465 . S
C1597 C1596 1.396 . S
C1597 C1598 1.399 . S
C1598 H1584 0.929 . S
C1598 C1597 1.399 . S
C1598 C1599 1.385 . S
C1599 H1585 0.931 . S
C1599 C1598 1.385 . S
C1599 C1600 1.389 . S
C1600 C1599 1.389 . S
C1600 C1601 1.387 . S
C1601 H1586 0.930 . S
C1601 C1596 1.390 . S
C1601 C1600 1.387 . S
H1602 C1614 0.930 . S
H1603 C1616 0.930 . S
H1604 C1617 0.930 . S
H1605 C1621 0.959 . S
H1606 C1621 0.959 . S
H1607 C1621 0.961 . S
H1608 C1622 0.960 . S
H1609 C1622 0.961 . S
H1610 C1622 0.959 . S
H1611 C1625 0.929 . S
H1612 C1626 0.931 . S
H1613 C1628 0.930 . S
C1614 H1602 0.930 . S
C1614 C1615 1.399 . S
C1614 C1619 1.399 . S
C1615 C1614 1.399 . S
C1615 C1616 1.376 . S
C1616 H1603 0.930 . S
C1616 C1615 1.376 . S
C1616 C1617 1.388 . S
C1617 H1604 0.930 . S
C1617 C1616 1.388 . S
C1617 C1618 1.390 . S
C1618 C1617 1.390 . S
C1618 C1619 1.394 . S
C1618 C1624 1.465 . S
C1619 C1614 1.399 . S
C1619 C1618 1.394 . S
C1619 C1620 1.516 . S
C1620 C1619 1.516 . S
C1620 C1621 1.502 . S
C1620 C1622 1.561 . S
C1620 C1623 1.526 . S
C1621 H1605 0.959 . S
C1621 H1606 0.959 . S
C1621 H1607 0.961 . S
C1621 C1620 1.502 . S
C1622 H1608 0.960 . S
C1622 H1609 0.961 . S
C1622 H1610 0.959 . S
C1622 C1620 1.561 . S
C1623 C1620 1.526 . S
C1623 C1624 1.396 . S
C1623 C1628 1.390 . S
C1624 C1618 1.465 . S
C1624 C1623 1.396 . S
C1624 C1625 1.399 . S
C1625 H1611 0.929 . S
C1625 C1624 1.399 . S
C1625 C1626 1.385 . S
C1626 H1612 0.931 . S
C1626 C1625 1.385 . S
C1626 C1627 1.389 . S
C1627 C1626 1.389 . S
C1627 C1628 1.387 . S
C1628 H1613 0.930 . S
C1628 C1623 1.390 . S
C1628 C1627 1.387 . S
H1629 C1641 0.930 . S
H1630 C1643 0.930 . S
H1631 C1644 0.930 . S
H1632 C1648 0.959 . S
H1633 C1648 0.959 . S
H1634 C1648 0.961 . S
H1635 C1649 0.960 . S
H1636 C1649 0.961 . S
H1637 C1649 0.959 . S
H1638 C1652 0.929 . S
H1639 C1653 0.931 . S
H1640 C1655 0.930 . S
C1641 H1629 0.930 . S
C1641 C1642 1.399 . S
C1641 C1646 1.399 . S
C1642 C1641 1.399 . S
C1642 C1643 1.376 . S
C1643 H1630 0.930 . S
C1643 C1642 1.376 . S
C1643 C1644 1.388 . S
C1644 H1631 0.930 . S
C1644 C1643 1.388 . S
C1644 C1645 1.390 . S
C1645 C1644 1.390 . S
C1645 C1646 1.394 . S
C1645 C1651 1.465 . S
C1646 C1641 1.399 . S
C1646 C1645 1.394 . S
C1646 C1647 1.516 . S
C1647 C1646 1.516 . S
C1647 C1648 1.502 . S
C1647 C1649 1.561 . S
C1647 C1650 1.526 . S
C1648 H1632 0.959 . S
C1648 H1633 0.959 . S
C1648 H1634 0.961 . S
C1648 C1647 1.502 . S
C1649 H1635 0.960 . S
C1649 H1636 0.961 . S
C1649 H1637 0.959 . S
C1649 C1647 1.561 . S
C1650 C1647 1.526 . S
C1650 C1651 1.396 . S
C1650 C1655 1.390 . S
C1651 C1645 1.465 . S
C1651 C1650 1.396 . S
C1651 C1652 1.399 . S
C1652 H1638 0.929 . S
C1652 C1651 1.399 . S
C1652 C1653 1.385 . S
C1653 H1639 0.931 . S
C1653 C1652 1.385 . S
C1653 C1654 1.389 . S
C1654 C1653 1.389 . S
C1654 C1655 1.387 . S
C1655 H1640 0.930 . S
C1655 C1650 1.390 . S
C1655 C1654 1.387 . S
H1656 C1668 0.930 . S
H1657 C1670 0.930 . S
H1658 C1671 0.930 . S
H1659 C1675 0.959 . S
H1660 C1675 0.959 . S
H1661 C1675 0.961 . S
H1662 C1676 0.960 . S
H1663 C1676 0.961 . S
H1664 C1676 0.959 . S
H1665 C1679 0.929 . S
H1666 C1680 0.931 . S
H1667 C1682 0.930 . S
C1668 H1656 0.930 . S
C1668 C1669 1.399 . S
C1668 C1673 1.399 . S
C1669 C1668 1.399 . S
C1669 C1670 1.376 . S
C1670 H1657 0.930 . S
C1670 C1669 1.376 . S
C1670 C1671 1.388 . S
C1671 H1658 0.930 . S
C1671 C1670 1.388 . S
C1671 C1672 1.390 . S
C1672 C1671 1.390 . S
C1672 C1673 1.394 . S
C1672 C1678 1.465 . S
C1673 C1668 1.399 . S
C1673 C1672 1.394 . S
C1673 C1674 1.516 . S
C1674 C1673 1.516 . S
C1674 C1675 1.502 . S
C1674 C1676 1.561 . S
C1674 C1677 1.526 . S
C1675 H1659 0.959 . S
C1675 H1660 0.959 . S
C1675 H1661 0.961 . S
C1675 C1674 1.502 . S
C1676 H1662 0.960 . S
C1676 H1663 0.961 . S
C1676 H1664 0.959 . S
C1676 C1674 1.561 . S
C1677 C1674 1.526 . S
C1677 C1678 1.396 . S
C1677 C1682 1.390 . S
C1678 C1672 1.465 . S
C1678 C1677 1.396 . S
C1678 C1679 1.399 . S
C1679 H1665 0.929 . S
C1679 C1678 1.399 . S
C1679 C1680 1.385 . S
C1680 H1666 0.931 . S
C1680 C1679 1.385 . S
C1680 C1681 1.389 . S
C1681 C1680 1.389 . S
C1681 C1682 1.387 . S
C1682 H1667 0.930 . S
C1682 C1677 1.390 . S
C1682 C1681 1.387 . S
H1683 C1695 0.930 . S
H1684 C1697 0.930 . S
H1685 C1698 0.930 . S
H1686 C1702 0.959 . S
H1687 C1702 0.959 . S
H1688 C1702 0.961 . S
H1689 C1703 0.960 . S
H1690 C1703 0.961 . S
H1691 C1703 0.959 . S
H1692 C1706 0.929 . S
H1693 C1707 0.931 . S
H1694 C1709 0.930 . S
C1695 H1683 0.930 . S
C1695 C1696 1.399 . S
C1695 C1700 1.399 . S
C1696 C1695 1.399 . S
C1696 C1697 1.376 . S
C1697 H1684 0.930 . S
C1697 C1696 1.376 . S
C1697 C1698 1.388 . S
C1698 H1685 0.930 . S
C1698 C1697 1.388 . S
C1698 C1699 1.390 . S
C1699 C1698 1.390 . S
C1699 C1700 1.394 . S
C1699 C1705 1.465 . S
C1700 C1695 1.399 . S
C1700 C1699 1.394 . S
C1700 C1701 1.516 . S
C1701 C1700 1.516 . S
C1701 C1702 1.502 . S
C1701 C1703 1.561 . S
C1701 C1704 1.526 . S
C1702 H1686 0.959 . S
C1702 H1687 0.959 . S
C1702 H1688 0.961 . S
C1702 C1701 1.502 . S
C1703 H1689 0.960 . S
C1703 H1690 0.961 . S
C1703 H1691 0.959 . S
C1703 C1701 1.561 . S
C1704 C1701 1.526 . S
C1704 C1705 1.396 . S
C1704 C1709 1.390 . S
C1705 C1699 1.465 . S
C1705 C1704 1.396 . S
C1705 C1706 1.399 . S
C1706 H1692 0.929 . S
C1706 C1705 1.399 . S
C1706 C1707 1.385 . S
C1707 H1693 0.931 . S
C1707 C1706 1.385 . S
C1707 C1708 1.389 . S
C1708 C1707 1.389 . S
C1708 C1709 1.387 . S
C1709 H1694 0.930 . S
C1709 C1704 1.390 . S
C1709 C1708 1.387 . S
H1710 C1722 0.930 . S
H1711 C1724 0.930 . S
H1712 C1725 0.930 . S
H1713 C1729 0.959 . S
H1714 C1729 0.959 . S
H1715 C1729 0.961 . S
H1716 C1730 0.960 . S
H1717 C1730 0.961 . S
H1718 C1730 0.959 . S
H1719 C1733 0.929 . S
H1720 C1734 0.931 . S
H1721 C1736 0.930 . S
C1722 H1710 0.930 . S
C1722 C1723 1.399 . S
C1722 C1727 1.399 . S
C1723 C1722 1.399 . S
C1723 C1724 1.376 . S
C1724 H1711 0.930 . S
C1724 C1723 1.376 . S
C1724 C1725 1.388 . S
C1725 H1712 0.930 . S
C1725 C1724 1.388 . S
C1725 C1726 1.390 . S
C1726 C1725 1.390 . S
C1726 C1727 1.394 . S
C1726 C1732 1.465 . S
C1727 C1722 1.399 . S
C1727 C1726 1.394 . S
C1727 C1728 1.516 . S
C1728 C1727 1.516 . S
C1728 C1729 1.502 . S
C1728 C1730 1.561 . S
C1728 C1731 1.526 . S
C1729 H1713 0.959 . S
C1729 H1714 0.959 . S
C1729 H1715 0.961 . S
C1729 C1728 1.502 . S
C1730 H1716 0.960 . S
C1730 H1717 0.961 . S
C1730 H1718 0.959 . S
C1730 C1728 1.561 . S
C1731 C1728 1.526 . S
C1731 C1732 1.396 . S
C1731 C1736 1.390 . S
C1732 C1726 1.465 . S
C1732 C1731 1.396 . S
C1732 C1733 1.399 . S
C1733 H1719 0.929 . S
C1733 C1732 1.399 . S
C1733 C1734 1.385 . S
C1734 H1720 0.931 . S
C1734 C1733 1.385 . S
C1734 C1735 1.389 . S
C1735 C1734 1.389 . S
C1735 C1736 1.387 . S
C1736 H1721 0.930 . S
C1736 C1731 1.390 . S
C1736 C1735 1.387 . S
H1737 C1749 0.930 . S
H1738 C1751 0.930 . S
H1739 C1752 0.930 . S
H1740 C1756 0.959 . S
H1741 C1756 0.959 . S
H1742 C1756 0.961 . S
H1743 C1757 0.960 . S
H1744 C1757 0.961 . S
H1745 C1757 0.959 . S
H1746 C1760 0.929 . S
H1747 C1761 0.931 . S
H1748 C1763 0.930 . S
C1749 H1737 0.930 . S
C1749 C1750 1.399 . S
C1749 C1754 1.399 . S
C1750 C1749 1.399 . S
C1750 C1751 1.376 . S
C1751 H1738 0.930 . S
C1751 C1750 1.376 . S
C1751 C1752 1.388 . S
C1752 H1739 0.930 . S
C1752 C1751 1.388 . S
C1752 C1753 1.390 . S
C1753 C1752 1.390 . S
C1753 C1754 1.394 . S
C1753 C1759 1.465 . S
C1754 C1749 1.399 . S
C1754 C1753 1.394 . S
C1754 C1755 1.516 . S
C1755 C1754 1.516 . S
C1755 C1756 1.502 . S
C1755 C1757 1.561 . S
C1755 C1758 1.526 . S
C1756 H1740 0.959 . S
C1756 H1741 0.959 . S
C1756 H1742 0.961 . S
C1756 C1755 1.502 . S
C1757 H1743 0.960 . S
C1757 H1744 0.961 . S
C1757 H1745 0.959 . S
C1757 C1755 1.561 . S
C1758 C1755 1.526 . S
C1758 C1759 1.396 . S
C1758 C1763 1.390 . S
C1759 C1753 1.465 . S
C1759 C1758 1.396 . S
C1759 C1760 1.399 . S
C1760 H1746 0.929 . S
C1760 C1759 1.399 . S
C1760 C1761 1.385 . S
C1761 H1747 0.931 . S
C1761 C1760 1.385 . S
C1761 C1762 1.389 . S
C1762 C1761 1.389 . S
C1762 C1763 1.387 . S
C1763 H1748 0.930 . S
C1763 C1758 1.390 . S
C1763 C1762 1.387 . S
H1764 C1776 0.930 . S
H1765 C1778 0.930 . S
H1766 C1779 0.930 . S
H1767 C1783 0.950 1_655 S
H1768 C1783 0.959 1_655 S
H1769 C1783 0.961 . S
H1770 C1784 0.960 . S
H1771 C1784 0.937 1_655 S
H1772 C1784 0.959 . S
H1773 C1787 0.929 . S
H1774 C1788 0.931 . S
H1775 C1790 0.930 . S
C1776 H1764 0.930 . S
C1776 C1777 1.399 . S
C1776 C1781 1.399 . S
C1777 C1776 1.399 . S
C1777 C1778 1.376 . S
C1778 H1765 0.930 . S
C1778 C1777 1.376 . S
C1778 C1779 1.388 . S
C1779 H1766 0.930 . S
C1779 C1778 1.388 . S
C1779 C1780 1.390 . S
C1780 C1779 1.390 . S
C1780 C1781 1.394 . S
C1780 C1786 1.465 1_455 S
C1781 C1776 1.399 . S
C1781 C1780 1.394 . S
C1781 C1782 1.516 . S
C1782 C1781 1.516 . S
C1782 C1783 1.502 . S
C1782 C1784 1.561 . S
C1782 C1785 1.526 1_455 S
C1783 H1767 0.950 1_455 S
C1783 H1768 0.959 1_455 S
C1783 H1769 0.961 . S
C1783 C1782 1.502 . S
C1784 H1770 0.960 . S
C1784 H1771 0.937 1_455 S
C1784 H1772 0.959 . S
C1784 C1782 1.561 . S
C1785 C1782 1.526 1_655 S
C1785 C1786 1.396 . S
C1785 C1790 1.390 . S
C1786 C1780 1.465 1_655 S
C1786 C1785 1.396 . S
C1786 C1787 1.399 . S
C1787 H1773 0.929 . S
C1787 C1786 1.399 . S
C1787 C1788 1.385 . S
C1788 H1774 0.931 . S
C1788 C1787 1.385 . S
C1788 C1789 1.389 . S
C1789 C1788 1.389 . S
C1789 C1790 1.387 . S
C1790 H1775 0.930 . S
C1790 C1785 1.390 . S
C1790 C1789 1.387 . S
H1791 C1803 0.930 . S
H1792 C1805 0.930 . S
H1793 C1806 0.930 . S
H1794 C1810 0.959 . S
H1795 C1810 0.959 . S
H1796 C1810 0.961 . S
H1797 C1811 0.960 . S
H1798 C1811 0.961 . S
H1799 C1811 0.959 . S
H1800 C1814 0.929 . S
H1801 C1815 0.931 . S
H1802 C1817 0.930 . S
C1803 H1791 0.930 . S
C1803 C1804 1.399 . S
C1803 C1808 1.399 . S
C1804 C1803 1.399 . S
C1804 C1805 1.376 . S
C1805 H1792 0.930 . S
C1805 C1804 1.376 . S
C1805 C1806 1.388 . S
C1806 H1793 0.930 . S
C1806 C1805 1.388 . S
C1806 C1807 1.390 . S
C1807 C1806 1.390 . S
C1807 C1808 1.394 . S
C1807 C1813 1.465 . S
C1808 C1803 1.399 . S
C1808 C1807 1.394 . S
C1808 C1809 1.516 . S
C1809 C1808 1.516 . S
C1809 C1810 1.502 . S
C1809 C1811 1.561 . S
C1809 C1812 1.526 . S
C1810 H1794 0.959 . S
C1810 H1795 0.959 . S
C1810 H1796 0.961 . S
C1810 C1809 1.502 . S
C1811 H1797 0.960 . S
C1811 H1798 0.961 . S
C1811 H1799 0.959 . S
C1811 C1809 1.561 . S
C1812 C1809 1.526 . S
C1812 C1813 1.396 . S
C1812 C1817 1.390 . S
C1813 C1807 1.465 . S
C1813 C1812 1.396 . S
C1813 C1814 1.399 . S
C1814 H1800 0.929 . S
C1814 C1813 1.399 . S
C1814 C1815 1.385 . S
C1815 H1801 0.931 . S
C1815 C1814 1.385 . S
C1815 C1816 1.389 . S
C1816 C1815 1.389 . S
C1816 C1817 1.387 . S
C1817 H1802 0.930 . S
C1817 C1812 1.390 . S
C1817 C1816 1.387 . S
H1818 C1830 0.930 . S
H1819 C1832 0.930 . S
H1820 C1833 0.930 . S
H1821 C1837 0.959 . S
H1822 C1837 0.959 1_565 S
H1823 C1837 0.961 . S
H1824 C1838 0.960 . S
H1825 C1838 0.952 1_565 S
H1826 C1838 0.959 . S
H1827 C1841 0.929 . S
H1828 C1842 0.931 . S
H1829 C1844 0.930 . S
C1830 H1818 0.930 . S
C1830 C1831 1.399 . S
C1830 C1835 1.399 . S
C1831 C1830 1.399 . S
C1831 C1832 1.376 . S
C1832 H1819 0.930 . S
C1832 C1831 1.376 . S
C1832 C1833 1.388 . S
C1833 H1820 0.930 . S
C1833 C1832 1.388 . S
C1833 C1834 1.390 . S
C1834 C1833 1.390 . S
C1834 C1835 1.394 . S
C1834 C1840 1.465 1_545 S
C1835 C1830 1.399 . S
C1835 C1834 1.394 . S
C1835 C1836 1.516 . S
C1836 C1835 1.516 . S
C1836 C1837 1.502 . S
C1836 C1838 1.561 . S
C1836 C1839 1.526 1_545 S
C1837 H1821 0.959 . S
C1837 H1822 0.959 1_545 S
C1837 H1823 0.961 . S
C1837 C1836 1.502 . S
C1838 H1824 0.960 . S
C1838 H1825 0.952 1_545 S
C1838 H1826 0.959 . S
C1838 C1836 1.561 . S
C1839 C1836 1.526 1_565 S
C1839 C1840 1.396 . S
C1839 C1844 1.390 . S
C1840 C1834 1.465 1_565 S
C1840 C1839 1.396 . S
C1840 C1841 1.399 . S
C1841 H1827 0.929 . S
C1841 C1840 1.399 . S
C1841 C1842 1.385 . S
C1842 H1828 0.931 . S
C1842 C1841 1.385 . S
C1842 C1843 1.389 . S
C1843 C1842 1.389 . S
C1843 C1844 1.387 . S
C1844 H1829 0.930 . S
C1844 C1839 1.390 . S
C1844 C1843 1.387 . S
H1845 C1857 0.930 . S
H1846 C1859 0.930 . S
H1847 C1860 0.930 . S
H1848 C1864 0.959 . S
H1849 C1864 0.959 1_565 S
H1850 C1864 0.961 . S
H1851 C1865 0.960 . S
H1852 C1865 0.920 1_565 S
H1853 C1865 0.959 . S
H1854 C1868 0.929 . S
H1855 C1869 0.931 . S
H1856 C1871 0.930 . S
C1857 H1845 0.930 . S
C1857 C1858 1.399 . S
C1857 C1862 1.399 . S
C1858 C1857 1.399 . S
C1858 C1859 1.376 . S
C1859 H1846 0.930 . S
C1859 C1858 1.376 . S
C1859 C1860 1.388 . S
C1860 H1847 0.930 . S
C1860 C1859 1.388 . S
C1860 C1861 1.390 . S
C1861 C1860 1.390 . S
C1861 C1862 1.394 . S
C1861 C1867 1.465 1_545 S
C1862 C1857 1.399 . S
C1862 C1861 1.394 . S
C1862 C1863 1.516 . S
C1863 C1862 1.516 . S
C1863 C1864 1.502 . S
C1863 C1865 1.561 . S
C1863 C1866 1.526 1_545 S
C1864 H1848 0.959 . S
C1864 H1849 0.959 1_545 S
C1864 H1850 0.961 . S
C1864 C1863 1.502 . S
C1865 H1851 0.960 . S
C1865 H1852 0.920 1_545 S
C1865 H1853 0.959 . S
C1865 C1863 1.561 . S
C1866 C1863 1.526 1_565 S
C1866 C1867 1.396 . S
C1866 C1871 1.390 . S
C1867 C1861 1.465 1_565 S
C1867 C1866 1.396 . S
C1867 C1868 1.399 . S
C1868 H1854 0.929 . S
C1868 C1867 1.399 . S
C1868 C1869 1.385 . S
C1869 H1855 0.931 . S
C1869 C1868 1.385 . S
C1869 C1870 1.389 . S
C1870 C1869 1.389 . S
C1870 C1871 1.387 . S
C1871 H1856 0.930 . S
C1871 C1866 1.390 . S
C1871 C1870 1.387 . S
H1872 C1884 0.930 . S
H1873 C1886 0.930 . S
H1874 C1887 0.930 . S
H1875 C1891 0.959 . S
H1876 C1891 0.959 1_455 S
H1877 C1891 0.961 . S
H1878 C1892 0.960 . S
H1879 C1892 0.939 1_455 S
H1880 C1892 0.959 . S
H1881 C1895 0.929 . S
H1882 C1896 0.931 . S
H1883 C1898 0.930 . S
C1884 H1872 0.930 . S
C1884 C1885 1.399 . S
C1884 C1889 1.399 . S
C1885 C1884 1.399 . S
C1885 C1886 1.376 . S
C1886 H1873 0.930 . S
C1886 C1885 1.376 . S
C1886 C1887 1.388 . S
C1887 H1874 0.930 . S
C1887 C1886 1.388 . S
C1887 C1888 1.390 . S
C1888 C1887 1.390 . S
C1888 C1889 1.394 . S
C1888 C1894 1.465 1_655 S
C1889 C1884 1.399 . S
C1889 C1888 1.394 . S
C1889 C1890 1.516 . S
C1890 C1889 1.516 . S
C1890 C1891 1.502 . S
C1890 C1892 1.561 . S
C1890 C1893 1.526 1_655 S
C1891 H1875 0.959 . S
C1891 H1876 0.959 1_655 S
C1891 H1877 0.961 . S
C1891 C1890 1.502 . S
C1892 H1878 0.960 . S
C1892 H1879 0.939 1_655 S
C1892 H1880 0.959 . S
C1892 C1890 1.561 . S
C1893 C1890 1.526 1_455 S
C1893 C1894 1.396 . S
C1893 C1898 1.390 . S
C1894 C1888 1.465 1_455 S
C1894 C1893 1.396 . S
C1894 C1895 1.399 . S
C1895 H1881 0.929 . S
C1895 C1894 1.399 . S
C1895 C1896 1.385 . S
C1896 H1882 0.931 . S
C1896 C1895 1.385 . S
C1896 C1897 1.389 . S
C1897 C1896 1.389 . S
C1897 C1898 1.387 . S
C1898 H1883 0.930 . S
C1898 C1893 1.390 . S
C1898 C1897 1.387 . S
H1899 C1911 0.930 . S
H1900 C1913 0.930 . S
H1901 C1914 0.930 . S
H1902 C1918 0.959 . S
H1903 C1918 0.959 . S
H1904 C1918 0.961 . S
H1905 C1919 0.960 . S
H1906 C1919 0.961 . S
H1907 C1919 0.959 . S
H1908 C1922 0.929 . S
H1909 C1923 0.931 . S
H1910 C1925 0.930 . S
C1911 H1899 0.930 . S
C1911 C1912 1.399 . S
C1911 C1916 1.399 . S
C1912 C1911 1.399 . S
C1912 C1913 1.376 . S
C1913 H1900 0.930 . S
C1913 C1912 1.376 . S
C1913 C1914 1.388 . S
C1914 H1901 0.930 . S
C1914 C1913 1.388 . S
C1914 C1915 1.390 . S
C1915 C1914 1.390 . S
C1915 C1916 1.394 . S
C1915 C1921 1.465 . S
C1916 C1911 1.399 . S
C1916 C1915 1.394 . S
C1916 C1917 1.516 . S
C1917 C1916 1.516 . S
C1917 C1918 1.502 . S
C1917 C1919 1.561 . S
C1917 C1920 1.526 . S
C1918 H1902 0.959 . S
C1918 H1903 0.959 . S
C1918 H1904 0.961 . S
C1918 C1917 1.502 . S
C1919 H1905 0.960 . S
C1919 H1906 0.961 . S
C1919 H1907 0.959 . S
C1919 C1917 1.561 . S
C1920 C1917 1.526 . S
C1920 C1921 1.396 . S
C1920 C1925 1.390 . S
C1921 C1915 1.465 . S
C1921 C1920 1.396 . S
C1921 C1922 1.399 . S
C1922 H1908 0.929 . S
C1922 C1921 1.399 . S
C1922 C1923 1.385 . S
C1923 H1909 0.931 . S
C1923 C1922 1.385 . S
C1923 C1924 1.389 . S
C1924 C1923 1.389 . S
C1924 C1925 1.387 . S
C1925 H1910 0.930 . S
C1925 C1920 1.390 . S
C1925 C1924 1.387 . S
H1926 C1938 0.930 . S
H1927 C1940 0.930 . S
H1928 C1941 0.930 . S
H1929 C1945 0.959 . S
H1930 C1945 0.959 . S
H1931 C1945 0.961 . S
H1932 C1946 0.960 . S
H1933 C1946 0.961 . S
H1934 C1946 0.959 . S
H1935 C1949 0.929 . S
H1936 C1950 0.931 . S
H1937 C1952 0.930 . S
C1938 H1926 0.930 . S
C1938 C1939 1.399 . S
C1938 C1943 1.399 . S
C1939 C1938 1.399 . S
C1939 C1940 1.376 . S
C1940 H1927 0.930 . S
C1940 C1939 1.376 . S
C1940 C1941 1.388 . S
C1941 H1928 0.930 . S
C1941 C1940 1.388 . S
C1941 C1942 1.390 . S
C1942 C1941 1.390 . S
C1942 C1943 1.394 . S
C1942 C1948 1.465 . S
C1943 C1938 1.399 . S
C1943 C1942 1.394 . S
C1943 C1944 1.516 . S
C1944 C1943 1.516 . S
C1944 C1945 1.502 . S
C1944 C1946 1.561 . S
C1944 C1947 1.526 . S
C1945 H1929 0.959 . S
C1945 H1930 0.959 . S
C1945 H1931 0.961 . S
C1945 C1944 1.502 . S
C1946 H1932 0.960 . S
C1946 H1933 0.961 . S
C1946 H1934 0.959 . S
C1946 C1944 1.561 . S
C1947 C1944 1.526 . S
C1947 C1948 1.396 . S
C1947 C1952 1.390 . S
C1948 C1942 1.465 . S
C1948 C1947 1.396 . S
C1948 C1949 1.399 . S
C1949 H1935 0.929 . S
C1949 C1948 1.399 . S
C1949 C1950 1.385 . S
C1950 H1936 0.931 . S
C1950 C1949 1.385 . S
C1950 C1951 1.389 . S
C1951 C1950 1.389 . S
C1951 C1952 1.387 . S
C1952 H1937 0.930 . S
C1952 C1947 1.390 . S
C1952 C1951 1.387 . S
H1953 C1965 0.930 . S
H1954 C1967 0.930 . S
H1955 C1968 0.930 . S
H1956 C1972 0.959 . S
H1957 C1972 0.959 . S
H1958 C1972 0.961 . S
H1959 C1973 0.960 . S
H1960 C1973 0.961 . S
H1961 C1973 0.959 . S
H1962 C1976 0.929 . S
H1963 C1977 0.931 . S
H1964 C1979 0.930 . S
C1965 H1953 0.930 . S
C1965 C1966 1.399 . S
C1965 C1970 1.399 . S
C1966 C1965 1.399 . S
C1966 C1967 1.376 . S
C1967 H1954 0.930 . S
C1967 C1966 1.376 . S
C1967 C1968 1.388 . S
C1968 H1955 0.930 . S
C1968 C1967 1.388 . S
C1968 C1969 1.390 . S
C1969 C1968 1.390 . S
C1969 C1970 1.394 . S
C1969 C1975 1.465 . S
C1970 C1965 1.399 . S
C1970 C1969 1.394 . S
C1970 C1971 1.516 . S
C1971 C1970 1.516 . S
C1971 C1972 1.502 . S
C1971 C1973 1.561 . S
C1971 C1974 1.526 . S
C1972 H1956 0.959 . S
C1972 H1957 0.959 . S
C1972 H1958 0.961 . S
C1972 C1971 1.502 . S
C1973 H1959 0.960 . S
C1973 H1960 0.961 . S
C1973 H1961 0.959 . S
C1973 C1971 1.561 . S
C1974 C1971 1.526 . S
C1974 C1975 1.396 . S
C1974 C1979 1.390 . S
C1975 C1969 1.465 . S
C1975 C1974 1.396 . S
C1975 C1976 1.399 . S
C1976 H1962 0.929 . S
C1976 C1975 1.399 . S
C1976 C1977 1.385 . S
C1977 H1963 0.931 . S
C1977 C1976 1.385 . S
C1977 C1978 1.389 . S
C1978 C1977 1.389 . S
C1978 C1979 1.387 . S
C1979 H1964 0.930 . S
C1979 C1974 1.390 . S
C1979 C1978 1.387 . S
H1980 C1992 0.930 . S
H1981 C1994 0.930 . S
H1982 C1995 0.930 . S
H1983 C1999 0.959 . S
H1984 C1999 0.959 . S
H1985 C1999 0.961 . S
H1986 C2000 0.960 . S
H1987 C2000 0.961 . S
H1988 C2000 0.959 . S
H1989 C2003 0.929 . S
H1990 C2004 0.931 . S
H1991 C2006 0.930 . S
C1992 H1980 0.930 . S
C1992 C1993 1.399 . S
C1992 C1997 1.399 . S
C1993 C1992 1.399 . S
C1993 C1994 1.376 . S
C1994 H1981 0.930 . S
C1994 C1993 1.376 . S
C1994 C1995 1.388 . S
C1995 H1982 0.930 . S
C1995 C1994 1.388 . S
C1995 C1996 1.390 . S
C1996 C1995 1.390 . S
C1996 C1997 1.394 . S
C1996 C2002 1.465 . S
C1997 C1992 1.399 . S
C1997 C1996 1.394 . S
C1997 C1998 1.516 . S
C1998 C1997 1.516 . S
C1998 C1999 1.502 . S
C1998 C2000 1.561 . S
C1998 C2001 1.526 . S
C1999 H1983 0.959 . S
C1999 H1984 0.959 . S
C1999 H1985 0.961 . S
C1999 C1998 1.502 . S
C2000 H1986 0.960 . S
C2000 H1987 0.961 . S
C2000 H1988 0.959 . S
C2000 C1998 1.561 . S
C2001 C1998 1.526 . S
C2001 C2002 1.396 . S
C2001 C2006 1.390 . S
C2002 C1996 1.465 . S
C2002 C2001 1.396 . S
C2002 C2003 1.399 . S
C2003 H1989 0.929 . S
C2003 C2002 1.399 . S
C2003 C2004 1.385 . S
C2004 H1990 0.931 . S
C2004 C2003 1.385 . S
C2004 C2005 1.389 . S
C2005 C2004 1.389 . S
C2005 C2006 1.387 . S
C2006 H1991 0.930 . S
C2006 C2001 1.390 . S
C2006 C2005 1.387 . S
H2007 C2019 0.930 . S
H2008 C2021 0.930 . S
H2009 C2022 0.930 . S
H2010 C2026 0.959 . S
H2011 C2026 0.959 . S
H2012 C2026 0.961 . S
H2013 C2027 0.960 . S
H2014 C2027 0.961 . S
H2015 C2027 0.959 . S
H2016 C2030 0.929 . S
H2017 C2031 0.931 . S
H2018 C2033 0.930 . S
C2019 H2007 0.930 . S
C2019 C2020 1.399 . S
C2019 C2024 1.399 . S
C2020 C2019 1.399 . S
C2020 C2021 1.376 . S
C2021 H2008 0.930 . S
C2021 C2020 1.376 . S
C2021 C2022 1.388 . S
C2022 H2009 0.930 . S
C2022 C2021 1.388 . S
C2022 C2023 1.390 . S
C2023 C2022 1.390 . S
C2023 C2024 1.394 . S
C2023 C2029 1.465 . S
C2024 C2019 1.399 . S
C2024 C2023 1.394 . S
C2024 C2025 1.516 . S
C2025 C2024 1.516 . S
C2025 C2026 1.502 . S
C2025 C2027 1.561 . S
C2025 C2028 1.526 . S
C2026 H2010 0.959 . S
C2026 H2011 0.959 . S
C2026 H2012 0.961 . S
C2026 C2025 1.502 . S
C2027 H2013 0.960 . S
C2027 H2014 0.961 . S
C2027 H2015 0.959 . S
C2027 C2025 1.561 . S
C2028 C2025 1.526 . S
C2028 C2029 1.396 . S
C2028 C2033 1.390 . S
C2029 C2023 1.465 . S
C2029 C2028 1.396 . S
C2029 C2030 1.399 . S
C2030 H2016 0.929 . S
C2030 C2029 1.399 . S
C2030 C2031 1.385 . S
C2031 H2017 0.931 . S
C2031 C2030 1.385 . S
C2031 C2032 1.389 . S
C2032 C2031 1.389 . S
C2032 C2033 1.387 . S
C2033 H2018 0.930 . S
C2033 C2028 1.390 . S
C2033 C2032 1.387 . S
H2034 C2046 0.930 . S
H2035 C2048 0.930 . S
H2036 C2049 0.930 . S
H2037 C2053 0.959 . S
H2038 C2053 0.959 . S
H2039 C2053 0.961 . S
H2040 C2054 0.960 . S
H2041 C2054 0.961 . S
H2042 C2054 0.959 . S
H2043 C2057 0.929 . S
H2044 C2058 0.931 . S
H2045 C2060 0.930 . S
C2046 H2034 0.930 . S
C2046 C2047 1.399 . S
C2046 C2051 1.399 . S
C2047 C2046 1.399 . S
C2047 C2048 1.376 . S
C2048 H2035 0.930 . S
C2048 C2047 1.376 . S
C2048 C2049 1.388 . S
C2049 H2036 0.930 . S
C2049 C2048 1.388 . S
C2049 C2050 1.390 . S
C2050 C2049 1.390 . S
C2050 C2051 1.394 . S
C2050 C2056 1.465 . S
C2051 C2046 1.399 . S
C2051 C2050 1.394 . S
C2051 C2052 1.516 . S
C2052 C2051 1.516 . S
C2052 C2053 1.502 . S
C2052 C2054 1.561 . S
C2052 C2055 1.526 . S
C2053 H2037 0.959 . S
C2053 H2038 0.959 . S
C2053 H2039 0.961 . S
C2053 C2052 1.502 . S
C2054 H2040 0.960 . S
C2054 H2041 0.961 . S
C2054 H2042 0.959 . S
C2054 C2052 1.561 . S
C2055 C2052 1.526 . S
C2055 C2056 1.396 . S
C2055 C2060 1.390 . S
C2056 C2050 1.465 . S
C2056 C2055 1.396 . S
C2056 C2057 1.399 . S
C2057 H2043 0.929 . S
C2057 C2056 1.399 . S
C2057 C2058 1.385 . S
C2058 H2044 0.931 . S
C2058 C2057 1.385 . S
C2058 C2059 1.389 . S
C2059 C2058 1.389 . S
C2059 C2060 1.387 . S
C2060 H2045 0.930 . S
C2060 C2055 1.390 . S
C2060 C2059 1.387 . S
H2061 C2073 0.930 . S
H2062 C2075 0.930 . S
H2063 C2076 0.930 . S
H2064 C2080 0.959 . S
H2065 C2080 0.959 . S
H2066 C2080 0.961 . S
H2067 C2081 0.960 . S
H2068 C2081 0.961 . S
H2069 C2081 0.959 . S
H2070 C2084 0.929 . S
H2071 C2085 0.931 . S
H2072 C2087 0.930 . S
C2073 H2061 0.930 . S
C2073 C2074 1.399 . S
C2073 C2078 1.399 . S
C2074 C2073 1.399 . S
C2074 C2075 1.376 . S
C2075 H2062 0.930 . S
C2075 C2074 1.376 . S
C2075 C2076 1.388 . S
C2076 H2063 0.930 . S
C2076 C2075 1.388 . S
C2076 C2077 1.390 . S
C2077 C2076 1.390 . S
C2077 C2078 1.394 . S
C2077 C2083 1.465 . S
C2078 C2073 1.399 . S
C2078 C2077 1.394 . S
C2078 C2079 1.516 . S
C2079 C2078 1.516 . S
C2079 C2080 1.502 . S
C2079 C2081 1.561 . S
C2079 C2082 1.526 . S
C2080 H2064 0.959 . S
C2080 H2065 0.959 . S
C2080 H2066 0.961 . S
C2080 C2079 1.502 . S
C2081 H2067 0.960 . S
C2081 H2068 0.961 . S
C2081 H2069 0.959 . S
C2081 C2079 1.561 . S
C2082 C2079 1.526 . S
C2082 C2083 1.396 . S
C2082 C2087 1.390 . S
C2083 C2077 1.465 . S
C2083 C2082 1.396 . S
C2083 C2084 1.399 . S
C2084 H2070 0.929 . S
C2084 C2083 1.399 . S
C2084 C2085 1.385 . S
C2085 H2071 0.931 . S
C2085 C2084 1.385 . S
C2085 C2086 1.389 . S
C2086 C2085 1.389 . S
C2086 C2087 1.387 . S
C2087 H2072 0.930 . S
C2087 C2082 1.390 . S
C2087 C2086 1.387 . S
H2088 C2100 0.930 . S
H2089 C2102 0.930 . S
H2090 C2103 0.930 . S
H2091 C2107 0.959 . S
H2092 C2107 0.959 . S
H2093 C2107 0.961 . S
H2094 C2108 0.960 . S
H2095 C2108 0.961 . S
H2096 C2108 0.959 . S
H2097 C2111 0.929 . S
H2098 C2112 0.931 . S
H2099 C2114 0.930 . S
C2100 H2088 0.930 . S
C2100 C2101 1.399 . S
C2100 C2105 1.399 . S
C2101 C2100 1.399 . S
C2101 C2102 1.376 . S
C2102 H2089 0.930 . S
C2102 C2101 1.376 . S
C2102 C2103 1.388 . S
C2103 H2090 0.930 . S
C2103 C2102 1.388 . S
C2103 C2104 1.390 . S
C2104 C2103 1.390 . S
C2104 C2105 1.394 . S
C2104 C2110 1.465 . S
C2105 C2100 1.399 . S
C2105 C2104 1.394 . S
C2105 C2106 1.516 . S
C2106 C2105 1.516 . S
C2106 C2107 1.502 . S
C2106 C2108 1.561 . S
C2106 C2109 1.526 . S
C2107 H2091 0.959 . S
C2107 H2092 0.959 . S
C2107 H2093 0.961 . S
C2107 C2106 1.502 . S
C2108 H2094 0.960 . S
C2108 H2095 0.961 . S
C2108 H2096 0.959 . S
C2108 C2106 1.561 . S
C2109 C2106 1.526 . S
C2109 C2110 1.396 . S
C2109 C2114 1.390 . S
C2110 C2104 1.465 . S
C2110 C2109 1.396 . S
C2110 C2111 1.399 . S
C2111 H2097 0.929 . S
C2111 C2110 1.399 . S
C2111 C2112 1.385 . S
C2112 H2098 0.931 . S
C2112 C2111 1.385 . S
C2112 C2113 1.389 . S
C2113 C2112 1.389 . S
C2113 C2114 1.387 . S
C2114 H2099 0.930 . S
C2114 C2109 1.390 . S
C2114 C2113 1.387 . S
H2115 C2127 0.930 . S
H2116 C2129 0.930 . S
H2117 C2130 0.930 . S
H2118 C2134 0.959 . S
H2119 C2134 0.959 . S
H2120 C2134 0.961 . S
H2121 C2135 0.960 . S
H2122 C2135 0.961 . S
H2123 C2135 0.959 . S
H2124 C2138 0.929 . S
H2125 C2139 0.931 . S
H2126 C2141 0.930 . S
C2127 H2115 0.930 . S
C2127 C2128 1.399 . S
C2127 C2132 1.399 . S
C2128 C2127 1.399 . S
C2128 C2129 1.376 . S
C2129 H2116 0.930 . S
C2129 C2128 1.376 . S
C2129 C2130 1.388 . S
C2130 H2117 0.930 . S
C2130 C2129 1.388 . S
C2130 C2131 1.390 . S
C2131 C2130 1.390 . S
C2131 C2132 1.394 . S
C2131 C2137 1.465 . S
C2132 C2127 1.399 . S
C2132 C2131 1.394 . S
C2132 C2133 1.516 . S
C2133 C2132 1.516 . S
C2133 C2134 1.502 . S
C2133 C2135 1.561 . S
C2133 C2136 1.526 . S
C2134 H2118 0.959 . S
C2134 H2119 0.959 . S
C2134 H2120 0.961 . S
C2134 C2133 1.502 . S
C2135 H2121 0.960 . S
C2135 H2122 0.961 . S
C2135 H2123 0.959 . S
C2135 C2133 1.561 . S
C2136 C2133 1.526 . S
C2136 C2137 1.396 . S
C2136 C2141 1.390 . S
C2137 C2131 1.465 . S
C2137 C2136 1.396 . S
C2137 C2138 1.399 . S
C2138 H2124 0.929 . S
C2138 C2137 1.399 . S
C2138 C2139 1.385 . S
C2139 H2125 0.931 . S
C2139 C2138 1.385 . S
C2139 C2140 1.389 . S
C2140 C2139 1.389 . S
C2140 C2141 1.387 . S
C2141 H2126 0.930 . S
C2141 C2136 1.390 . S
C2141 C2140 1.387 . S
H2142 C2154 0.930 . S
H2143 C2156 0.930 . S
H2144 C2157 0.930 . S
H2145 C2161 0.959 . S
H2146 C2161 0.959 . S
H2147 C2161 0.961 . S
H2148 C2162 0.960 . S
H2149 C2162 0.961 . S
H2150 C2162 0.959 . S
H2151 C2165 0.929 . S
H2152 C2166 0.931 . S
H2153 C2168 0.930 . S
C2154 H2142 0.930 . S
C2154 C2155 1.399 . S
C2154 C2159 1.399 . S
C2155 C2154 1.399 . S
C2155 C2156 1.376 . S
C2156 H2143 0.930 . S
C2156 C2155 1.376 . S
C2156 C2157 1.388 . S
C2157 H2144 0.930 . S
C2157 C2156 1.388 . S
C2157 C2158 1.390 . S
C2158 C2157 1.390 . S
C2158 C2159 1.394 . S
C2158 C2164 1.465 . S
C2159 C2154 1.399 . S
C2159 C2158 1.394 . S
C2159 C2160 1.516 . S
C2160 C2159 1.516 . S
C2160 C2161 1.502 . S
C2160 C2162 1.561 . S
C2160 C2163 1.526 . S
C2161 H2145 0.959 . S
C2161 H2146 0.959 . S
C2161 H2147 0.961 . S
C2161 C2160 1.502 . S
C2162 H2148 0.960 . S
C2162 H2149 0.961 . S
C2162 H2150 0.959 . S
C2162 C2160 1.561 . S
C2163 C2160 1.526 . S
C2163 C2164 1.396 . S
C2163 C2168 1.390 . S
C2164 C2158 1.465 . S
C2164 C2163 1.396 . S
C2164 C2165 1.399 . S
C2165 H2151 0.929 . S
C2165 C2164 1.399 . S
C2165 C2166 1.385 . S
C2166 H2152 0.931 . S
C2166 C2165 1.385 . S
C2166 C2167 1.389 . S
C2167 C2166 1.389 . S
C2167 C2168 1.387 . S
C2168 H2153 0.930 . S
C2168 C2163 1.390 . S
C2168 C2167 1.387 . S
H2169 C2181 0.930 . S
H2170 C2183 0.930 . S
H2171 C2184 0.930 . S
H2172 C2188 0.959 . S
H2173 C2188 0.959 . S
H2174 C2188 0.961 . S
H2175 C2189 0.960 . S
H2176 C2189 0.961 . S
H2177 C2189 0.959 . S
H2178 C2192 0.929 . S
H2179 C2193 0.931 . S
H2180 C2195 0.930 . S
C2181 H2169 0.930 . S
C2181 C2182 1.399 . S
C2181 C2186 1.399 . S
C2182 C2181 1.399 . S
C2182 C2183 1.376 . S
C2183 H2170 0.930 . S
C2183 C2182 1.376 . S
C2183 C2184 1.388 . S
C2184 H2171 0.930 . S
C2184 C2183 1.388 . S
C2184 C2185 1.390 . S
C2185 C2184 1.390 . S
C2185 C2186 1.394 . S
C2185 C2191 1.465 . S
C2186 C2181 1.399 . S
C2186 C2185 1.394 . S
C2186 C2187 1.516 . S
C2187 C2186 1.516 . S
C2187 C2188 1.502 . S
C2187 C2189 1.561 . S
C2187 C2190 1.526 . S
C2188 H2172 0.959 . S
C2188 H2173 0.959 . S
C2188 H2174 0.961 . S
C2188 C2187 1.502 . S
C2189 H2175 0.960 . S
C2189 H2176 0.961 . S
C2189 H2177 0.959 . S
C2189 C2187 1.561 . S
C2190 C2187 1.526 . S
C2190 C2191 1.396 . S
C2190 C2195 1.390 . S
C2191 C2185 1.465 . S
C2191 C2190 1.396 . S
C2191 C2192 1.399 . S
C2192 H2178 0.929 . S
C2192 C2191 1.399 . S
C2192 C2193 1.385 . S
C2193 H2179 0.931 . S
C2193 C2192 1.385 . S
C2193 C2194 1.389 . S
C2194 C2193 1.389 . S
C2194 C2195 1.387 . S
C2195 H2180 0.930 . S
C2195 C2190 1.390 . S
C2195 C2194 1.387 . S
H2196 C2208 0.930 . S
H2197 C2210 0.930 . S
H2198 C2211 0.930 . S
H2199 C2215 0.959 . S
H2200 C2215 0.959 . S
H2201 C2215 0.961 . S
H2202 C2216 0.960 . S
H2203 C2216 0.961 . S
H2204 C2216 0.959 . S
H2205 C2219 0.929 . S
H2206 C2220 0.931 . S
H2207 C2222 0.930 . S
C2208 H2196 0.930 . S
C2208 C2209 1.399 . S
C2208 C2213 1.399 . S
C2209 C2208 1.399 . S
C2209 C2210 1.376 . S
C2210 H2197 0.930 . S
C2210 C2209 1.376 . S
C2210 C2211 1.388 . S
C2211 H2198 0.930 . S
C2211 C2210 1.388 . S
C2211 C2212 1.390 . S
C2212 C2211 1.390 . S
C2212 C2213 1.394 . S
C2212 C2218 1.465 . S
C2213 C2208 1.399 . S
C2213 C2212 1.394 . S
C2213 C2214 1.516 . S
C2214 C2213 1.516 . S
C2214 C2215 1.502 1_554 S
C2214 C2216 1.561 . S
C2214 C2217 1.526 . S
C2215 H2199 0.959 . S
C2215 H2200 0.959 . S
C2215 H2201 0.961 . S
C2215 C2214 1.502 1_556 S
C2216 H2202 0.960 . S
C2216 H2203 0.961 . S
C2216 H2204 0.959 . S
C2216 C2214 1.561 . S
C2217 C2214 1.526 . S
C2217 C2218 1.396 . S
C2217 C2222 1.390 . S
C2218 C2212 1.465 . S
C2218 C2217 1.396 . S
C2218 C2219 1.399 . S
C2219 H2205 0.929 . S
C2219 C2218 1.399 . S
C2219 C2220 1.385 . S
C2220 H2206 0.931 . S
C2220 C2219 1.385 . S
C2220 C2221 1.389 . S
C2221 C2220 1.389 . S
C2221 C2222 1.387 . S
C2222 H2207 0.930 . S
C2222 C2217 1.390 . S
C2222 C2221 1.387 . S
H2223 C2235 0.930 . S
H2224 C2237 0.930 . S
H2225 C2238 0.930 . S
H2226 C2242 0.959 . S
H2227 C2242 0.959 . S
H2228 C2242 0.961 . S
H2229 C2243 0.960 . S
H2230 C2243 0.961 . S
H2231 C2243 0.959 . S
H2232 C2246 0.929 . S
H2233 C2247 0.931 . S
H2234 C2249 0.930 . S
C2235 H2223 0.930 . S
C2235 C2236 1.399 . S
C2235 C2240 1.399 . S
C2236 C2235 1.399 . S
C2236 C2237 1.376 . S
C2237 H2224 0.930 . S
C2237 C2236 1.376 . S
C2237 C2238 1.388 . S
C2238 H2225 0.930 . S
C2238 C2237 1.388 . S
C2238 C2239 1.390 . S
C2239 C2238 1.390 . S
C2239 C2240 1.394 . S
C2239 C2245 1.465 . S
C2240 C2235 1.399 . S
C2240 C2239 1.394 . S
C2240 C2241 1.516 . S
C2241 C2240 1.516 . S
C2241 C2242 1.502 . S
C2241 C2243 1.561 . S
C2241 C2244 1.526 . S
C2242 H2226 0.959 . S
C2242 H2227 0.959 . S
C2242 H2228 0.961 . S
C2242 C2241 1.502 . S
C2243 H2229 0.960 . S
C2243 H2230 0.961 . S
C2243 H2231 0.959 . S
C2243 C2241 1.561 . S
C2244 C2241 1.526 . S
C2244 C2245 1.396 . S
C2244 C2249 1.390 . S
C2245 C2239 1.465 . S
C2245 C2244 1.396 . S
C2245 C2246 1.399 . S
C2246 H2232 0.929 . S
C2246 C2245 1.399 . S
C2246 C2247 1.385 . S
C2247 H2233 0.931 . S
C2247 C2246 1.385 . S
C2247 C2248 1.389 . S
C2248 C2247 1.389 . S
C2248 C2249 1.387 . S
C2249 H2234 0.930 . S
C2249 C2244 1.390 . S
C2249 C2248 1.387 . S
H2250 C2262 0.930 . S
H2251 C2264 0.930 . S
H2252 C2265 0.930 . S
H2253 C2269 0.959 . S
H2254 C2269 0.959 . S
H2255 C2269 0.961 . S
H2256 C2270 0.960 . S
H2257 C2270 0.961 . S
H2258 C2270 0.959 . S
H2259 C2273 0.929 . S
H2260 C2274 0.931 . S
H2261 C2276 0.930 . S
C2262 H2250 0.930 . S
C2262 C2263 1.399 . S
C2262 C2267 1.399 . S
C2263 C2262 1.399 . S
C2263 C2264 1.376 . S
C2264 H2251 0.930 . S
C2264 C2263 1.376 . S
C2264 C2265 1.388 . S
C2265 H2252 0.930 . S
C2265 C2264 1.388 . S
C2265 C2266 1.390 . S
C2266 C2265 1.390 . S
C2266 C2267 1.394 . S
C2266 C2272 1.465 . S
C2267 C2262 1.399 . S
C2267 C2266 1.394 . S
C2267 C2268 1.516 . S
C2268 C2267 1.516 . S
C2268 C2269 1.502 . S
C2268 C2270 1.561 . S
C2268 C2271 1.526 . S
C2269 H2253 0.959 . S
C2269 H2254 0.959 . S
C2269 H2255 0.961 . S
C2269 C2268 1.502 . S
C2270 H2256 0.960 . S
C2270 H2257 0.961 . S
C2270 H2258 0.959 . S
C2270 C2268 1.561 . S
C2271 C2268 1.526 . S
C2271 C2272 1.396 . S
C2271 C2276 1.390 . S
C2272 C2266 1.465 . S
C2272 C2271 1.396 . S
C2272 C2273 1.399 . S
C2273 H2259 0.929 . S
C2273 C2272 1.399 . S
C2273 C2274 1.385 . S
C2274 H2260 0.931 . S
C2274 C2273 1.385 . S
C2274 C2275 1.389 . S
C2275 C2274 1.389 . S
C2275 C2276 1.387 . S
C2276 H2261 0.930 . S
C2276 C2271 1.390 . S
C2276 C2275 1.387 . S
H2277 C2289 0.930 . S
H2278 C2291 0.930 . S
H2279 C2292 0.930 . S
H2280 C2296 0.959 1_556 S
H2281 C2296 0.959 . S
H2282 C2296 0.961 . S
H2283 C2297 0.960 1_554 S
H2284 C2297 0.961 1_554 S
H2285 C2297 0.959 . S
H2286 C2300 0.929 . S
H2287 C2301 0.931 . S
H2288 C2303 0.930 . S
C2289 H2277 0.930 . S
C2289 C2290 1.399 . S
C2289 C2294 1.399 . S
C2290 C2289 1.399 . S
C2290 C2291 1.376 . S
C2291 H2278 0.930 . S
C2291 C2290 1.376 . S
C2291 C2292 1.388 . S
C2292 H2279 0.930 . S
C2292 C2291 1.388 . S
C2292 C2293 1.390 . S
C2293 C2292 1.390 . S
C2293 C2294 1.394 . S
C2293 C2299 1.465 . S
C2294 C2289 1.399 . S
C2294 C2293 1.394 . S
C2294 C2295 1.516 . S
C2295 C2294 1.516 . S
C2295 C2296 1.502 1_556 S
C2295 C2297 1.561 . S
C2295 C2298 1.526 . S
C2296 H2280 0.959 1_554 S
C2296 H2281 0.959 . S
C2296 H2282 0.961 . S
C2296 C2295 1.502 1_554 S
C2297 H2283 0.960 1_556 S
C2297 H2284 0.961 1_556 S
C2297 H2285 0.959 . S
C2297 C2295 1.561 . S
C2298 C2295 1.526 . S
C2298 C2299 1.396 . S
C2298 C2303 1.390 . S
C2299 C2293 1.465 . S
C2299 C2298 1.396 . S
C2299 C2300 1.399 . S
C2300 H2286 0.929 . S
C2300 C2299 1.399 . S
C2300 C2301 1.385 . S
C2301 H2287 0.931 . S
C2301 C2300 1.385 . S
C2301 C2302 1.389 . S
C2302 C2301 1.389 . S
C2302 C2303 1.387 . S
C2303 H2288 0.930 . S
C2303 C2298 1.390 . S
C2303 C2302 1.387 . S
H2304 C2316 0.930 . S
H2305 C2318 0.930 . S
H2306 C2319 0.930 . S
H2307 C2323 0.955 1_554 S
H2308 C2323 0.953 1_554 S
H2309 C2323 0.954 1_554 S
H2310 C2324 0.960 . S
H2311 C2324 0.961 . S
H2312 C2324 0.959 . S
H2313 C2327 0.929 . S
H2314 C2328 0.931 . S
H2315 C2330 0.930 . S
C2316 H2304 0.930 . S
C2316 C2317 1.399 . S
C2316 C2321 1.399 . S
C2317 C2316 1.399 . S
C2317 C2318 1.376 . S
C2318 H2305 0.930 . S
C2318 C2317 1.376 . S
C2318 C2319 1.388 . S
C2319 H2306 0.930 . S
C2319 C2318 1.388 . S
C2319 C2320 1.390 . S
C2320 C2319 1.390 . S
C2320 C2321 1.394 . S
C2320 C2326 1.465 . S
C2321 C2316 1.399 . S
C2321 C2320 1.394 . S
C2321 C2322 1.516 . S
C2322 C2321 1.516 . S
C2322 C2323 1.519 . S
C2322 C2324 1.561 . S
C2322 C2325 1.526 . S
C2323 H2307 0.955 1_556 S
C2323 H2308 0.953 1_556 S
C2323 H2309 0.954 1_556 S
C2323 C2322 1.519 . S
C2324 H2310 0.960 . S
C2324 H2311 0.961 . S
C2324 H2312 0.959 . S
C2324 C2322 1.561 . S
C2325 C2322 1.526 . S
C2325 C2326 1.396 . S
C2325 C2330 1.390 . S
C2326 C2320 1.465 . S
C2326 C2325 1.396 . S
C2326 C2327 1.399 . S
C2327 H2313 0.929 . S
C2327 C2326 1.399 . S
C2327 C2328 1.385 . S
C2328 H2314 0.931 . S
C2328 C2327 1.385 . S
C2328 C2329 1.389 . S
C2329 C2328 1.389 . S
C2329 C2330 1.387 . S
C2330 H2315 0.930 . S
C2330 C2325 1.390 . S
C2330 C2329 1.387 . S
H2331 C2343 0.930 . S
H2332 C2345 0.930 . S
H2333 C2346 0.930 . S
H2334 C2350 0.959 . S
H2335 C2350 0.959 . S
H2336 C2350 0.961 . S
H2337 C2351 0.960 . S
H2338 C2351 0.961 . S
H2339 C2351 0.959 . S
H2340 C2354 0.929 . S
H2341 C2355 0.931 . S
H2342 C2357 0.930 . S
C2343 H2331 0.930 . S
C2343 C2344 1.399 . S
C2343 C2348 1.399 . S
C2344 C2343 1.399 . S
C2344 C2345 1.376 . S
C2345 H2332 0.930 . S
C2345 C2344 1.376 . S
C2345 C2346 1.388 . S
C2346 H2333 0.930 . S
C2346 C2345 1.388 . S
C2346 C2347 1.390 . S
C2347 C2346 1.390 . S
C2347 C2348 1.394 . S
C2347 C2353 1.465 . S
C2348 C2343 1.399 . S
C2348 C2347 1.394 . S
C2348 C2349 1.516 . S
C2349 C2348 1.516 . S
C2349 C2350 1.502 . S
C2349 C2351 1.561 . S
C2349 C2352 1.526 . S
C2350 H2334 0.959 . S
C2350 H2335 0.959 . S
C2350 H2336 0.961 . S
C2350 C2349 1.502 . S
C2351 H2337 0.960 . S
C2351 H2338 0.961 . S
C2351 H2339 0.959 . S
C2351 C2349 1.561 . S
C2352 C2349 1.526 . S
C2352 C2353 1.396 . S
C2352 C2357 1.390 . S
C2353 C2347 1.465 . S
C2353 C2352 1.396 . S
C2353 C2354 1.399 . S
C2354 H2340 0.929 . S
C2354 C2353 1.399 . S
C2354 C2355 1.385 . S
C2355 H2341 0.931 . S
C2355 C2354 1.385 . S
C2355 C2356 1.389 . S
C2356 C2355 1.389 . S
C2356 C2357 1.387 . S
C2357 H2342 0.930 . S
C2357 C2352 1.390 . S
C2357 C2356 1.387 . S
H2358 C2370 0.930 . S
H2359 C2372 0.930 . S
H2360 C2373 0.930 . S
H2361 C2377 0.959 . S
H2362 C2377 0.959 . S
H2363 C2377 0.961 . S
H2364 C2378 0.960 . S
H2365 C2378 0.961 . S
H2366 C2378 0.959 . S
H2367 C2381 0.929 . S
H2368 C2382 0.931 . S
H2369 C2384 0.930 . S
C2370 H2358 0.930 . S
C2370 C2371 1.399 . S
C2370 C2375 1.399 . S
C2371 C2370 1.399 . S
C2371 C2372 1.376 . S
C2372 H2359 0.930 . S
C2372 C2371 1.376 . S
C2372 C2373 1.388 . S
C2373 H2360 0.930 . S
C2373 C2372 1.388 . S
C2373 C2374 1.390 . S
C2374 C2373 1.390 . S
C2374 C2375 1.394 . S
C2374 C2380 1.465 . S
C2375 C2370 1.399 . S
C2375 C2374 1.394 . S
C2375 C2376 1.516 . S
C2376 C2375 1.516 . S
C2376 C2377 1.502 . S
C2376 C2378 1.561 . S
C2376 C2379 1.526 . S
C2377 H2361 0.959 . S
C2377 H2362 0.959 . S
C2377 H2363 0.961 . S
C2377 C2376 1.502 . S
C2378 H2364 0.960 . S
C2378 H2365 0.961 . S
C2378 H2366 0.959 . S
C2378 C2376 1.561 . S
C2379 C2376 1.526 . S
C2379 C2380 1.396 . S
C2379 C2384 1.390 . S
C2380 C2374 1.465 . S
C2380 C2379 1.396 . S
C2380 C2381 1.399 . S
C2381 H2367 0.929 . S
C2381 C2380 1.399 . S
C2381 C2382 1.385 . S
C2382 H2368 0.931 . S
C2382 C2381 1.385 . S
C2382 C2383 1.389 . S
C2383 C2382 1.389 . S
C2383 C2384 1.387 . S
C2384 H2369 0.930 . S
C2384 C2379 1.390 . S
C2384 C2383 1.387 . S
H2385 C2397 0.930 . S
H2386 C2399 0.930 . S
H2387 C2400 0.930 . S
H2388 C2404 0.959 . S
H2389 C2404 0.959 . S
H2390 C2404 0.961 . S
H2391 C2405 0.960 . S
H2392 C2405 0.961 . S
H2393 C2405 0.959 . S
H2394 C2408 0.929 . S
H2395 C2409 0.931 . S
H2396 C2411 0.930 . S
C2397 H2385 0.930 . S
C2397 C2398 1.399 . S
C2397 C2402 1.399 . S
C2398 C2397 1.399 . S
C2398 C2399 1.376 . S
C2399 H2386 0.930 . S
C2399 C2398 1.376 . S
C2399 C2400 1.388 . S
C2400 H2387 0.930 . S
C2400 C2399 1.388 . S
C2400 C2401 1.390 . S
C2401 C2400 1.390 . S
C2401 C2402 1.394 . S
C2401 C2407 1.465 . S
C2402 C2397 1.399 . S
C2402 C2401 1.394 . S
C2402 C2403 1.516 . S
C2403 C2402 1.516 . S
C2403 C2404 1.502 . S
C2403 C2405 1.561 . S
C2403 C2406 1.526 . S
C2404 H2388 0.959 . S
C2404 H2389 0.959 . S
C2404 H2390 0.961 . S
C2404 C2403 1.502 . S
C2405 H2391 0.960 . S
C2405 H2392 0.961 . S
C2405 H2393 0.959 . S
C2405 C2403 1.561 . S
C2406 C2403 1.526 . S
C2406 C2407 1.396 . S
C2406 C2411 1.390 . S
C2407 C2401 1.465 . S
C2407 C2406 1.396 . S
C2407 C2408 1.399 . S
C2408 H2394 0.929 . S
C2408 C2407 1.399 . S
C2408 C2409 1.385 . S
C2409 H2395 0.931 . S
C2409 C2408 1.385 . S
C2409 C2410 1.389 . S
C2410 C2409 1.389 . S
C2410 C2411 1.387 . S
C2411 H2396 0.930 . S
C2411 C2406 1.390 . S
C2411 C2410 1.387 . S
C481 C65 1.526 . S
C493 C0 1.549 . S
C508 C39 1.541 . S
C520 C13 1.544 . S
C535 C26 1.548 . S
C547 C52 1.536 . S
C562 C78 1.504 . S
C574 C143 1.536 . S
C589 C91 1.505 . S
C601 C117 1.530 . S
C616 C130 1.534 . S
C628 C104 1.540 . S
C643 C156 1.510 . S
C655 C221 1.543 . S
C670 C169 1.539 . S
C682 C195 1.508 . S
C697 C182 1.522 . S
C709 C208 1.504 . S
C724 C299 1.548 . S
C736 C234 1.509 . S
C751 C247 1.538 . S
C763 C273 1.536 . S
C778 C286 1.511 . S
C790 C260 1.549 . S
C805 C377 1.525 . S
C817 C312 1.549 . S
C832 C351 1.535 . S
C844 C325 1.548 . S
C859 C364 1.504 . S
C871 C338 1.524 . S
C886 C390 1.547 . S
C898 C455 1.506 . S
C913 C403 1.532 . S
C925 C429 1.541 . S
C940 C416 1.544 . S
C952 C442 1.505 . S
C967 C73 1.191 . S
C979 C8 1.223 . S
C994 C21 1.241 . S
C1006 C47 1.223 . S
C1021 C60 1.183 . S
C1033 C34 1.217 . S
C1048 C86 1.222 . S
C1060 C151 1.238 . S
C1075 C99 1.214 . S
C1087 C125 1.158 . S
C1102 C138 1.214 . S
C1114 C112 1.241 . S
C1129 C164 1.187 . S
C1141 C229 1.220 . S
C1156 C203 1.242 . S
C1168 C177 1.231 . S
C1183 C216 1.149 . S
C1195 C190 1.158 . S
C1210 C242 1.151 . S
C1222 C307 1.203 . S
C1237 C255 1.188 . S
C1249 C281 1.238 . S
C1264 C294 1.215 . S
C1276 C268 1.159 . S
C1291 C385 1.156 . S
C1303 C320 1.151 . S
C1318 C333 1.239 . S
C1330 C359 1.238 . S
C1345 C346 1.157 . S
C1357 C372 1.187 . S
C1372 C463 1.233 . S
C1384 C398 1.231 . S
C1399 C437 1.160 . S
C1411 C411 1.160 . S
C1426 C450 1.199 . S
C1438 C424 1.241 . S
C1453 C213 1.550 . S
C1465 C5 1.538 . S
C1480 C226 1.592 . S
C1492 C18 1.591 . S
C1507 C200 1.558 . S
C1519 C31 1.540 . S
C1534 C44 1.574 . S
C1546 C343 1.592 . S
C1561 C57 1.544 . S
C1573 C317 1.538 . S
C1588 C70 1.544 . S
C1600 C330 1.538 . S
C1615 C83 1.547 . S
C1627 C447 1.586 . S
C1642 C96 1.537 . S
C1654 C460 1.569 . S
C1669 C109 1.537 . S
C1681 C434 1.563 . S
C1696 C122 1.592 . S
C1708 C265 1.557 . S
C1723 C239 1.544 . S
C1735 C135 1.583 . S
C1750 C252 1.594 . S
C1762 C148 1.573 . S
C1777 C369 1.547 . S
C1789 C161 1.537 . S
C1804 C174 1.592 . S
C1816 C382 1.591 . S
C1831 C187 1.555 . S
C1843 C356 1.539 . S
C1858 C278 1.592 . S
C1870 C421 1.556 . S
C1885 C291 1.593 . S
C1897 C395 1.562 . S
C1912 C408 1.594 . S
C1924 C304 1.571 . S
C1939 C10 1.306 . S
C1951 C140 1.308 . S
C1966 C153 1.308 . S
C1978 C23 1.308 . S
C1993 C127 1.308 . S
C2005 C36 1.306 . S
C2020 C49 1.283 . S
C2032 C114 1.289 . S
C2047 C62 1.275 . S
C2059 C88 1.272 . S
C2074 C75 1.307 . S
C2086 C101 1.308 . S
C2101 C166 1.290 . S
C2113 C296 1.285 . S
C2128 C309 1.296 . S
C2140 C179 1.301 . S
C2155 C283 1.273 . S
C2167 C192 1.277 . S
C2182 C205 1.281 . S
C2194 C270 1.287 . S
C2209 C218 1.271 . S
C2221 C244 1.275 . S
C2236 C257 1.284 . S
C2248 C231 1.290 . S
C2263 C322 1.306 . S
C2275 C452 1.308 . S
C2290 C465 1.275 . S
C2302 C335 1.272 . S
C2317 C348 1.273 . S
C2329 C439 1.278 . S
C2344 C361 1.297 . S
C2356 C426 1.291 . S
C2371 C400 1.297 . S
C2383 C374 1.302 . S
C2398 C387 1.270 . S
C2410 C413 1.272 . S
