# Generated by pormake.
# Topology tzs, (4)-cn, num edge types: 1
# Building blocks:
#     Node 0, Type 0, BuildingBlock: QUQFOY_clean_sbu_3, # of connection points: 4
#     Node 1, Type 0, BuildingBlock: QUQFOY_clean_sbu_3, # of connection points: 4
#     Node 2, Type 0, BuildingBlock: QUQFOY_clean_sbu_3, # of connection points: 4
#     Node 3, Type 0, BuildingBlock: QUQFOY_clean_sbu_3, # of connection points: 4
#     Node 4, Type 0, BuildingBlock: QUQFOY_clean_sbu_3, # of connection points: 4
#     Node 5, Type 0, BuildingBlock: QUQFOY_clean_sbu_3, # of connection points: 4
#     Node 6, Type 0, BuildingBlock: QUQFOY_clean_sbu_3, # of connection points: 4
#     Node 7, Type 0, BuildingBlock: QUQFOY_clean_sbu_3, # of connection points: 4
#     Node 8, Type 0, BuildingBlock: QUQFOY_clean_sbu_3, # of connection points: 4
#     Node 9, Type 0, BuildingBlock: QUQFOY_clean_sbu_3, # of connection points: 4
#     Node 10, Type 0, BuildingBlock: QUQFOY_clean_sbu_3, # of connection points: 4
#     Node 11, Type 0, BuildingBlock: QUQFOY_clean_sbu_3, # of connection points: 4
#     Node 12, Type 0, BuildingBlock: QUQFOY_clean_sbu_3, # of connection points: 4
#     Node 13, Type 0, BuildingBlock: QUQFOY_clean_sbu_3, # of connection points: 4
#     Node 14, Type 0, BuildingBlock: QUQFOY_clean_sbu_3, # of connection points: 4
#     Node 15, Type 0, BuildingBlock: QUQFOY_clean_sbu_3, # of connection points: 4
#     Edge 16, Type (0, 0), BuildingBlock: XIVTED_clean_linker_0, # of connection points: 2
#     Edge 17, Type (0, 0), BuildingBlock: XIVTED_clean_linker_0, # of connection points: 2
#     Edge 18, Type (0, 0), BuildingBlock: XIVTED_clean_linker_0, # of connection points: 2
#     Edge 19, Type (0, 0), BuildingBlock: XIVTED_clean_linker_0, # of connection points: 2
#     Edge 20, Type (0, 0), BuildingBlock: XIVTED_clean_linker_0, # of connection points: 2
#     Edge 21, Type (0, 0), BuildingBlock: XIVTED_clean_linker_0, # of connection points: 2
#     Edge 22, Type (0, 0), BuildingBlock: XIVTED_clean_linker_0, # of connection points: 2
#     Edge 23, Type (0, 0), BuildingBlock: XIVTED_clean_linker_0, # of connection points: 2
#     Edge 24, Type (0, 0), BuildingBlock: XIVTED_clean_linker_0, # of connection points: 2
#     Edge 25, Type (0, 0), BuildingBlock: XIVTED_clean_linker_0, # of connection points: 2
#     Edge 26, Type (0, 0), BuildingBlock: XIVTED_clean_linker_0, # of connection points: 2
#     Edge 27, Type (0, 0), BuildingBlock: XIVTED_clean_linker_0, # of connection points: 2
#     Edge 28, Type (0, 0), BuildingBlock: XIVTED_clean_linker_0, # of connection points: 2
#     Edge 29, Type (0, 0), BuildingBlock: XIVTED_clean_linker_0, # of connection points: 2
#     Edge 30, Type (0, 0), BuildingBlock: XIVTED_clean_linker_0, # of connection points: 2
#     Edge 31, Type (0, 0), BuildingBlock: XIVTED_clean_linker_0, # of connection points: 2
#     Edge 32, Type (0, 0), BuildingBlock: XIVTED_clean_linker_0, # of connection points: 2
#     Edge 33, Type (0, 0), BuildingBlock: XIVTED_clean_linker_0, # of connection points: 2
#     Edge 34, Type (0, 0), BuildingBlock: XIVTED_clean_linker_0, # of connection points: 2
#     Edge 35, Type (0, 0), BuildingBlock: XIVTED_clean_linker_0, # of connection points: 2
#     Edge 36, Type (0, 0), BuildingBlock: XIVTED_clean_linker_0, # of connection points: 2
#     Edge 37, Type (0, 0), BuildingBlock: XIVTED_clean_linker_0, # of connection points: 2
#     Edge 38, Type (0, 0), BuildingBlock: XIVTED_clean_linker_0, # of connection points: 2
#     Edge 39, Type (0, 0), BuildingBlock: XIVTED_clean_linker_0, # of connection points: 2
#     Edge 40, Type (0, 0), BuildingBlock: XIVTED_clean_linker_0, # of connection points: 2
#     Edge 41, Type (0, 0), BuildingBlock: XIVTED_clean_linker_0, # of connection points: 2
#     Edge 42, Type (0, 0), BuildingBlock: XIVTED_clean_linker_0, # of connection points: 2
#     Edge 43, Type (0, 0), BuildingBlock: XIVTED_clean_linker_0, # of connection points: 2
#     Edge 44, Type (0, 0), BuildingBlock: XIVTED_clean_linker_0, # of connection points: 2
#     Edge 45, Type (0, 0), BuildingBlock: XIVTED_clean_linker_0, # of connection points: 2
#     Edge 46, Type (0, 0), BuildingBlock: XIVTED_clean_linker_0, # of connection points: 2
#     Edge 47, Type (0, 0), BuildingBlock: XIVTED_clean_linker_0, # of connection points: 2
# Relax obj value: 0.118
# Max RMSD: 0.119
# Mean RMSD: 0.119
data_MOF--net-tzs--node1-QUQFOY_clean_sbu_3--edge1-XIVTED_clean_linker_0
_symmetry_space_group_name_H-M    P1
_symmetry_Int_Tables_number       1
_symmetry_cell_setting            triclinic
loop_
_symmetry_equiv_pos_as_xyz
'x, y, z'
_cell_length_a     51.125778
_cell_length_b     50.990406
_cell_length_c     41.481361
_cell_angle_alpha  90.045
_cell_angle_beta   89.782775
_cell_angle_gamma 90.086764
loop_
_atom_site_label
_atom_site_type_symbol
_atom_site_fract_x
_atom_site_fract_y
_atom_site_fract_z
_atom_type_partial_charge
C0 C 0.06031 0.3415 0.17084 0.0
O1 O 0.05929 0.35596 0.14596 0.0
Cd2 Cd 0.09712 0.37036 0.1173 0.0
O3 O 0.08223 0.33416 0.18226 0.0
Cd4 Cd 0.12911 0.339 0.16846 0.0
C5 C 0.12938 0.40516 0.17554 0.0
O6 O 0.12127 0.33043 0.11288 0.0
O7 O 0.1606 0.34338 0.12304 0.0
O8 O 0.13679 0.29344 0.18122 0.0
C9 C 0.14461 0.3331 0.1034 0.0
O10 O 0.11746 0.40554 0.14866 0.0
C11 C 0.15467 0.29767 0.20162 0.0
O12 O 0.13474 0.38349 0.18916 0.0
O13 O 0.15999 0.32143 0.20808 0.0
C14 C 0.6112 0.04934 0.15832 0.0
O15 O 0.59565 0.04761 0.1346 0.0
Cd16 Cd 0.58086 0.08522 0.1058 0.0
O17 O 0.61905 0.07166 0.16826 0.0
Cd18 Cd 0.61291 0.11801 0.15283 0.0
C19 C 0.5474 0.11721 0.16475 0.0
O20 O 0.6213 0.10836 0.09688 0.0
O21 O 0.60945 0.14817 0.10654 0.0
O22 O 0.6573 0.12464 0.1729 0.0
C23 C 0.6196 0.13178 0.08724 0.0
O24 O 0.54578 0.10552 0.13773 0.0
C25 C 0.65248 0.14691 0.18522 0.0
O26 O 0.56962 0.12259 0.17667 0.0
O27 O 0.62898 0.15481 0.1841 0.0
C28 C 0.9009 0.61411 0.17974 0.0
O29 O 0.9031 0.60052 0.15421 0.0
Cd30 Cd 0.86758 0.58658 0.12195 0.0
O31 O 0.87846 0.62097 0.19036 0.0
Cd32 Cd 0.83253 0.61528 0.17173 0.0
C33 C 0.83487 0.54913 0.17692 0.0
O34 O 0.84456 0.62725 0.11796 0.0
O35 O 0.80515 0.61284 0.12218 0.0
O36 O 0.82311 0.65831 0.19475 0.0
C37 C 0.82226 0.62474 0.10551 0.0
O38 O 0.84722 0.54953 0.15023 0.0
C39 C 0.80072 0.65189 0.20551 0.0
O40 O 0.82858 0.5704 0.19088 0.0
O41 O 0.79398 0.62808 0.20225 0.0
C42 C 0.33917 0.90573 0.1683 0.0
O43 O 0.35353 0.91059 0.14399 0.0
Cd44 Cd 0.37459 0.87712 0.11397 0.0
O45 O 0.33442 0.88217 0.17686 0.0
Cd46 Cd 0.34335 0.83716 0.15672 0.0
C47 C 0.40761 0.84386 0.17349 0.0
O48 O 0.33814 0.84948 0.10156 0.0
O49 O 0.35201 0.80988 0.10866 0.0
O50 O 0.29773 0.82566 0.1627 0.0
C51 C 0.34245 0.82699 0.08988 0.0
O52 O 0.40808 0.86038 0.15052 0.0
C53 C 0.30135 0.80699 0.18226 0.0
O54 O 0.38655 0.83199 0.18097 0.0
O55 O 0.32467 0.80274 0.19129 0.0
C56 C 0.06974 0.63675 0.29222 0.0
O57 O 0.07001 0.62549 0.3195 0.0
Cd58 Cd 0.10862 0.61464 0.34792 0.0
O59 O 0.091 0.64377 0.27843 0.0
Cd60 Cd 0.13841 0.64295 0.2918 0.0
C61 C 0.13838 0.57667 0.29016 0.0
O62 O 0.13183 0.65527 0.34639 0.0
O63 O 0.17023 0.63969 0.33697 0.0
O64 O 0.14556 0.68753 0.27371 0.0
C65 C 0.15505 0.65214 0.35578 0.0
O66 O 0.12755 0.57765 0.31784 0.0
C67 C 0.1643 0.682 0.25481 0.0
O68 O 0.14346 0.59762 0.27473 0.0
O69 O 0.16997 0.65792 0.25134 0.0
C70 C 0.31943 0.06336 0.30072 0.0
O71 O 0.33273 0.06097 0.32634 0.0
Cd72 Cd 0.34896 0.09701 0.3567 0.0
O73 O 0.3132 0.08595 0.29007 0.0
Cd74 Cd 0.31882 0.13215 0.30724 0.0
C75 C 0.38443 0.12754 0.29726 0.0
O76 O 0.31077 0.12347 0.3628 0.0
O77 O 0.32684 0.16188 0.35352 0.0
O78 O 0.27384 0.14342 0.29558 0.0
C79 C 0.31573 0.14625 0.37306 0.0
O80 O 0.38479 0.1151 0.32387 0.0
C81 C 0.27939 0.1616 0.27588 0.0
O82 O 0.36289 0.13505 0.28516 0.0
O83 O 0.30339 0.16537 0.26943 0.0
C84 C 0.89164 0.31169 0.28187 0.0
O85 O 0.89281 0.32216 0.3096 0.0
Cd86 Cd 0.85629 0.3348 0.34094 0.0
O87 O 0.86968 0.30598 0.26909 0.0
Cd88 Cd 0.82305 0.30857 0.28682 0.0
C89 C 0.82718 0.3746 0.28508 0.0
O90 O 0.8311 0.29536 0.34102 0.0
O91 O 0.794 0.3141 0.33481 0.0
O92 O 0.8128 0.2659 0.26313 0.0
C93 C 0.80908 0.30099 0.35284 0.0
O94 O 0.8384 0.37309 0.31238 0.0
C95 C 0.79162 0.27361 0.25035 0.0
O96 O 0.82075 0.35394 0.26987 0.0
O97 O 0.78614 0.29778 0.253 0.0
C98 C 0.63886 0.89099 0.28956 0.0
O99 O 0.63141 0.89609 0.3181 0.0
Cd100 Cd 0.61571 0.86382 0.35379 0.0
O101 O 0.64053 0.86736 0.27952 0.0
Cd102 Cd 0.63616 0.8224 0.30337 0.0
C103 C 0.57141 0.83342 0.30275 0.0
O104 O 0.65261 0.83535 0.3548 0.0
O105 O 0.63334 0.79784 0.35496 0.0
O106 O 0.67735 0.81135 0.27732 0.0
C107 C 0.64768 0.81429 0.36956 0.0
O108 O 0.57583 0.84908 0.32605 0.0
C109 C 0.67028 0.78848 0.26891 0.0
O110 O 0.58999 0.82069 0.28965 0.0
O111 O 0.64674 0.78205 0.27479 0.0
C112 C 0.82683 0.57454 0.7854 0.0
O113 O 0.83614 0.56803 0.81255 0.0
Cd114 Cd 0.85527 0.59826 0.84832 0.0
O115 O 0.82536 0.59859 0.77702 0.0
Cd116 Cd 0.83307 0.64234 0.80275 0.0
C117 C 0.8973 0.6296 0.79506 0.0
O118 O 0.81934 0.62759 0.8548 0.0
O119 O 0.83866 0.6651 0.85521 0.0
O120 O 0.791 0.65497 0.78071 0.0
C121 C 0.82519 0.64811 0.87019 0.0
O122 O 0.89381 0.61295 0.81755 0.0
C123 C 0.79815 0.67788 0.77261 0.0
O124 O 0.87841 0.64344 0.78485 0.0
O125 O 0.822 0.6838 0.77709 0.0
C126 C 0.40208 0.8318 0.79014 0.0
O127 O 0.40203 0.84333 0.81728 0.0
Cd128 Cd 0.36445 0.8551 0.84708 0.0
O129 O 0.38072 0.82517 0.77646 0.0
Cd130 Cd 0.33342 0.82795 0.79165 0.0
C131 C 0.33581 0.89428 0.79052 0.0
O132 O 0.34163 0.81421 0.84544 0.0
O133 O 0.30329 0.83038 0.83919 0.0
O134 O 0.32411 0.78569 0.76627 0.0
C135 C 0.31898 0.81754 0.85671 0.0
O136 O 0.34632 0.89314 0.81826 0.0
C137 C 0.30297 0.79339 0.75338 0.0
O138 O 0.33045 0.87341 0.77515 0.0
O139 O 0.29717 0.81742 0.75668 0.0
C140 C 0.1379 0.40721 0.79586 0.0
O141 O 0.12428 0.40957 0.82136 0.0
Cd142 Cd 0.10824 0.37372 0.85192 0.0
O143 O 0.14426 0.38463 0.78512 0.0
Cd144 Cd 0.13799 0.33854 0.80284 0.0
C145 C 0.07253 0.34397 0.79281 0.0
O146 O 0.14784 0.34911 0.85757 0.0
O147 O 0.13258 0.31013 0.85104 0.0
O148 O 0.18152 0.32858 0.78183 0.0
C149 C 0.14412 0.32652 0.86907 0.0
O150 O 0.07192 0.35604 0.81967 0.0
C151 C 0.17489 0.30653 0.77016 0.0
O152 O 0.09418 0.33654 0.7808 0.0
O153 O 0.15088 0.30035 0.77205 0.0
C154 C 0.57372 0.15142 0.79032 0.0
O155 O 0.57257 0.13998 0.81746 0.0
Cd156 Cd 0.60943 0.1269 0.84763 0.0
O157 O 0.59569 0.15745 0.77759 0.0
Cd158 Cd 0.64247 0.15414 0.79376 0.0
C159 C 0.63853 0.08814 0.79024 0.0
O160 O 0.63409 0.16672 0.8481 0.0
O161 O 0.67173 0.14897 0.84134 0.0
O162 O 0.65113 0.19692 0.76965 0.0
C163 C 0.65633 0.16172 0.85953 0.0
O164 O 0.62744 0.08915 0.81776 0.0
C165 C 0.67261 0.18995 0.7568 0.0
O166 O 0.64477 0.10908 0.77549 0.0
O167 O 0.67915 0.1661 0.75989 0.0
C168 C 0.84344 0.41759 0.65215 0.0
O169 O 0.85944 0.41973 0.6288 0.0
Cd170 Cd 0.87635 0.38259 0.60062 0.0
O171 O 0.8362 0.39508 0.66213 0.0
Cd172 Cd 0.84462 0.34898 0.64724 0.0
C173 C 0.90978 0.35273 0.66072 0.0
O174 O 0.83705 0.35773 0.591 0.0
O175 O 0.85018 0.3185 0.60143 0.0
O176 O 0.80042 0.33997 0.66703 0.0
C177 C 0.83991 0.33433 0.58165 0.0
O178 O 0.9117 0.36411 0.63353 0.0
C179 C 0.80659 0.31845 0.68033 0.0
O180 O 0.88747 0.34664 0.67202 0.0
O181 O 0.83054 0.31203 0.67949 0.0
C182 C 0.57054 0.85125 0.67544 0.0
O183 O 0.5685 0.86504 0.6501 0.0
Cd184 Cd 0.60471 0.87866 0.61829 0.0
O185 O 0.59295 0.84442 0.68597 0.0
Cd186 Cd 0.63914 0.85057 0.6687 0.0
C187 C 0.63582 0.91678 0.67352 0.0
O188 O 0.62807 0.83798 0.61499 0.0
O189 O 0.66757 0.85205 0.6198 0.0
O190 O 0.64781 0.8081 0.69339 0.0
C191 C 0.65067 0.84006 0.60303 0.0
O192 O 0.62401 0.91621 0.64659 0.0
C193 C 0.66998 0.81466 0.7045 0.0
O194 O 0.64213 0.8956 0.68755 0.0
O195 O 0.67702 0.8383 0.70041 0.0
C196 C 0.12957 0.56616 0.66308 0.0
O197 O 0.11735 0.56228 0.63693 0.0
Cd198 Cd 0.09955 0.59683 0.60624 0.0
O199 O 0.13377 0.58936 0.67345 0.0
Cd200 Cd 0.12686 0.63516 0.65439 0.0
C201 C 0.06181 0.62732 0.66415 0.0
O202 O 0.13823 0.62307 0.60036 0.0
O203 O 0.1238 0.66256 0.60533 0.0
O204 O 0.17011 0.64316 0.67673 0.0
C205 C 0.13532 0.64553 0.58814 0.0
O206 O 0.063 0.6121 0.63987 0.0
C207 C 0.16487 0.66607 0.68677 0.0
O208 O 0.08225 0.63858 0.67469 0.0
O209 O 0.14149 0.67391 0.68344 0.0
C210 C 0.4054 0.13343 0.67681 0.0
O211 O 0.40688 0.11973 0.65129 0.0
Cd212 Cd 0.36995 0.10496 0.62183 0.0
O213 O 0.38327 0.14 0.68858 0.0
Cd214 Cd 0.33674 0.13404 0.67359 0.0
C215 C 0.33984 0.06802 0.67984 0.0
O216 O 0.3455 0.14483 0.61836 0.0
O217 O 0.30657 0.13037 0.62711 0.0
O218 O 0.32899 0.17756 0.69607 0.0
C219 C 0.3225 0.14166 0.60818 0.0
O220 O 0.35117 0.06826 0.65246 0.0
C221 C 0.30719 0.17154 0.7088 0.0
O222 O 0.33386 0.08938 0.69384 0.0
O223 O 0.30011 0.14773 0.7068 0.0
H224 H 0.27726 0.18548 0.21706 0.0
H225 H 0.17836 0.29417 0.26051 0.0
H226 H 0.23597 0.17816 0.30752 0.0
H227 H 0.16714 0.25243 0.17108 0.0
H228 H 0.20722 0.25858 0.27897 0.0
H229 H 0.2443 0.21743 0.19915 0.0
C230 C 0.26118 0.19051 0.23298 0.0
C231 C 0.25905 0.17918 0.26361 0.0
C232 C 0.19817 0.25729 0.25544 0.0
C233 C 0.22233 0.21591 0.24394 0.0
C234 C 0.18186 0.27746 0.24495 0.0
C235 C 0.17035 0.27599 0.21441 0.0
C236 C 0.20359 0.23624 0.2347 0.0
C237 C 0.1755 0.25406 0.19494 0.0
C238 C 0.24251 0.20858 0.2228 0.0
C239 C 0.23801 0.18634 0.28355 0.0
N240 N 0.19217 0.23518 0.2052 0.0
N241 N 0.22061 0.20467 0.27358 0.0
H242 H 0.74314 0.28438 0.22679 0.0
H243 H 0.70449 0.13527 0.19242 0.0
H244 H 0.79669 0.22037 0.24307 0.0
H245 H 0.64853 0.19796 0.20398 0.0
H246 H 0.73967 0.166 0.20607 0.0
H247 H 0.7096 0.25288 0.21126 0.0
C248 C 0.74796 0.2637 0.22671 0.0
C249 C 0.77269 0.25496 0.23643 0.0
C250 C 0.71965 0.17291 0.2058 0.0
C251 C 0.73426 0.21877 0.21903 0.0
C252 C 0.69958 0.1554 0.19816 0.0
C253 C 0.67357 0.1641 0.19709 0.0
C254 C 0.71361 0.19929 0.212 0.0
C255 C 0.6683 0.19039 0.20459 0.0
C256 C 0.72872 0.24571 0.21809 0.0
C257 C 0.77783 0.22792 0.23583 0.0
N258 N 0.68817 0.20709 0.21149 0.0
N259 N 0.75869 0.21072 0.22741 0.0
H260 H 0.75044 0.64418 0.2258 0.0
H261 H 0.72185 0.79662 0.25418 0.0
H262 H 0.80868 0.70468 0.21267 0.0
H263 H 0.66222 0.73658 0.25587 0.0
H264 H 0.75426 0.76334 0.24002 0.0
H265 H 0.71843 0.67776 0.23985 0.0
C266 C 0.75658 0.66452 0.22623 0.0
C267 C 0.78225 0.67166 0.21799 0.0
C268 C 0.73405 0.75748 0.24328 0.0
C269 C 0.74561 0.71024 0.23363 0.0
C270 C 0.71552 0.77648 0.2512 0.0
C271 C 0.68931 0.76933 0.25625 0.0
C272 C 0.72633 0.73113 0.24059 0.0
C273 C 0.68221 0.74296 0.25216 0.0
C274 C 0.73824 0.6837 0.23402 0.0
C275 C 0.78909 0.69831 0.21886 0.0
N276 N 0.70066 0.72479 0.24478 0.0
N277 N 0.77083 0.71667 0.22642 0.0
H278 H 0.26024 0.79154 0.14578 0.0
H279 H 0.1746 0.72954 0.28113 0.0
H280 H 0.29327 0.78389 0.24086 0.0
H281 H 0.19273 0.68102 0.19874 0.0
H282 H 0.20752 0.76136 0.26291 0.0
H283 H 0.22464 0.76169 0.16169 0.0
C284 C 0.25979 0.78377 0.17008 0.0
C285 C 0.27956 0.79003 0.19215 0.0
C286 C 0.20391 0.74389 0.24872 0.0
C287 C 0.23898 0.75683 0.21036 0.0
C288 C 0.18508 0.7259 0.25882 0.0
C289 C 0.18104 0.70272 0.24129 0.0
C290 C 0.21808 0.73895 0.22047 0.0
C291 C 0.19538 0.6987 0.21284 0.0
C292 C 0.23967 0.76677 0.17896 0.0
C293 C 0.27836 0.77937 0.22322 0.0
N294 N 0.21328 0.7168 0.2031 0.0
N295 N 0.25813 0.76343 0.23162 0.0
H296 H 0.71982 0.82253 0.72592 0.0
H297 H 0.74624 0.67048 0.75982 0.0
H298 H 0.66118 0.76229 0.71409 0.0
H299 H 0.80659 0.72981 0.75999 0.0
H300 H 0.71423 0.70399 0.74549 0.0
H301 H 0.75105 0.78908 0.74252 0.0
C302 C 0.71342 0.80229 0.72717 0.0
C303 C 0.6879 0.79515 0.71849 0.0
C304 C 0.73449 0.70965 0.74854 0.0
C305 C 0.72364 0.75674 0.73708 0.0
C306 C 0.75279 0.69053 0.75658 0.0
C307 C 0.77912 0.69739 0.76106 0.0
C308 C 0.74256 0.73583 0.74511 0.0
C309 C 0.78651 0.72365 0.75668 0.0
C310 C 0.73132 0.78318 0.73645 0.0
C311 C 0.68069 0.76864 0.72052 0.0
N312 N 0.76829 0.74194 0.74907 0.0
N313 N 0.69853 0.75036 0.72948 0.0
H314 H 0.21627 0.65443 0.69822 0.0
H315 H 0.25512 0.8043 0.72799 0.0
H316 H 0.16074 0.71811 0.70113 0.0
H317 H 0.30797 0.74014 0.74654 0.0
H318 H 0.2217 0.77287 0.71185 0.0
H319 H 0.25117 0.68538 0.71184 0.0
C320 C 0.21138 0.67487 0.70204 0.0
C321 C 0.18557 0.68374 0.69858 0.0
C322 C 0.24065 0.76565 0.71928 0.0
C323 C 0.22538 0.7192 0.71352 0.0
C324 C 0.25982 0.7836 0.72826 0.0
C325 C 0.28431 0.7748 0.73881 0.0
C326 C 0.24599 0.73869 0.72078 0.0
C327 C 0.28931 0.74774 0.73864 0.0
C328 C 0.23132 0.69251 0.70966 0.0
C329 C 0.18034 0.71041 0.70366 0.0
N330 N 0.27023 0.73059 0.72993 0.0
N331 N 0.20011 0.72722 0.71069 0.0
H332 H 0.16653 0.25624 0.75048 0.0
H333 H 0.31675 0.22405 0.71664 0.0
H334 H 0.22781 0.31359 0.76358 0.0
H335 H 0.25691 0.16508 0.72937 0.0
H336 H 0.28472 0.25788 0.73072 0.0
H337 H 0.19952 0.22345 0.73739 0.0
C338 C 0.18693 0.26202 0.75025 0.0
C339 C 0.19446 0.28766 0.75822 0.0
C340 C 0.27872 0.2375 0.73069 0.0
C341 C 0.23235 0.25011 0.74362 0.0
C342 C 0.29698 0.21819 0.72281 0.0
C343 C 0.28943 0.19174 0.72175 0.0
C344 C 0.25273 0.23024 0.73718 0.0
C345 C 0.26358 0.18523 0.72987 0.0
C346 C 0.20577 0.24322 0.74305 0.0
C347 C 0.22118 0.29402 0.7576 0.0
N348 N 0.2461 0.20438 0.73695 0.0
N349 N 0.23923 0.27532 0.75049 0.0
H350 H 0.6642 0.24231 0.74594 0.0
H351 H 0.814 0.26902 0.70325 0.0
H352 H 0.72207 0.18135 0.73473 0.0
H353 H 0.75384 0.32679 0.68688 0.0
H354 H 0.78054 0.23781 0.72004 0.0
H355 H 0.69657 0.27455 0.72758 0.0
C356 C 0.6836 0.23567 0.73926 0.0
C357 C 0.69052 0.20914 0.74195 0.0
C358 C 0.77463 0.25732 0.71282 0.0
C359 C 0.72758 0.24584 0.72159 0.0
C360 C 0.79375 0.27522 0.70347 0.0
C361 C 0.78667 0.30051 0.6936 0.0
C362 C 0.74822 0.26477 0.71252 0.0
C363 C 0.76011 0.30745 0.69429 0.0
C364 C 0.70205 0.25407 0.7289 0.0
C365 C 0.7159 0.2016 0.73306 0.0
N366 N 0.74178 0.28964 0.7036 0.0
N367 N 0.73357 0.21989 0.72355 0.0
H368 H 0.12654 0.28622 0.90727 0.0
H369 H 0.18514 0.35197 0.06639 0.0
H370 H 0.17652 0.35452 0.90762 0.0
H371 H 0.11989 0.2982 0.06505 0.0
H372 H 0.19152 0.34425 0.00843 0.0
H373 H 0.1334 0.2817 0.96546 0.0
C374 C 0.13922 0.30001 0.91952 0.0
C375 C 0.15047 0.32112 0.90293 0.0
C376 C 0.17608 0.33387 0.02103 0.0
C377 C 0.15848 0.31607 0.96899 0.0
C378 C 0.1725 0.33824 0.05399 0.0
C379 C 0.15161 0.32617 0.07012 0.0
C380 C 0.15877 0.31718 0.00449 0.0
C381 C 0.13586 0.30836 0.05319 0.0
C382 C 0.14313 0.29745 0.95264 0.0
C383 C 0.16699 0.3383 0.91975 0.0
N384 N 0.13959 0.3046 0.0212 0.0
N385 N 0.17028 0.33558 0.95197 0.0
H386 H 0.63476 0.19749 0.89973 0.0
H387 H 0.65063 0.1027 0.04776 0.0
H388 H 0.68578 0.1302 0.8986 0.0
H389 H 0.61351 0.17846 0.05529 0.0
H390 H 0.66741 0.11471 -0.00518 0.0
H391 H 0.63156 0.19423 0.95825 0.0
C392 C 0.64579 0.1824 0.912 0.0
C393 C 0.66018 0.16382 0.89447 0.0
C394 C 0.65583 0.12885 0.00812 0.0
C395 C 0.65614 0.15954 0.96116 0.0
C396 C 0.64602 0.12191 0.03824 0.0
C397 C 0.63025 0.13947 0.05563 0.0
C398 C 0.64953 0.15338 -0.00496 0.0
C399 C 0.62532 0.16424 0.04244 0.0
C400 C 0.64393 0.1805 0.94537 0.0
C401 C 0.67432 0.14481 0.91134 0.0
N402 N 0.63465 0.17036 0.01266 0.0
N403 N 0.67148 0.14277 0.94381 0.0
H404 H 0.79049 0.61882 0.90438 0.0
H405 H 0.8508 0.66013 0.07178 0.0
H406 H 0.84678 0.68139 0.91479 0.0
H407 H 0.78375 0.60909 0.06362 0.0
H408 H 0.84686 0.67112 0.01495 0.0
H409 H 0.78477 0.61787 0.9627 0.0
C410 C 0.80149 0.63254 0.91899 0.0
C411 C 0.81949 0.64991 0.90489 0.0
C412 C 0.83278 0.65776 0.02557 0.0
C413 C 0.81314 0.64881 0.97161 0.0
C414 C 0.8351 0.65137 0.05798 0.0
C415 C 0.81783 0.63332 0.07217 0.0
C416 C 0.8133 0.6457 0.00703 0.0
C417 C 0.79759 0.6229 0.05344 0.0
C418 C 0.79812 0.63205 0.95228 0.0
C419 C 0.8329 0.66753 0.92479 0.0
N420 N 0.79612 0.62894 0.02158 0.0
N421 N 0.82975 0.66625 0.95729 0.0
H422 H 0.35464 0.78363 0.0534 0.0
H423 H 0.28433 0.84209 0.89734 0.0
H424 H 0.31177 0.8565 0.05103 0.0
H425 H 0.34327 0.78167 0.89406 0.0
H426 H 0.28464 0.83962 0.95635 0.0
H427 H 0.342 0.77562 -0.0028 0.0
C428 C 0.3425 0.79783 0.04112 0.0
C429 C 0.33467 0.82098 0.05657 0.0
C430 C 0.29715 0.82658 0.94263 0.0
C431 C 0.31984 0.81182 -0.00706 0.0
C432 C 0.29683 0.82788 0.90903 0.0
C433 C 0.3142 0.81246 0.89106 0.0
C434 C 0.31488 0.80968 0.95803 0.0
C435 C 0.32997 0.79427 0.90725 0.0
C436 C 0.33522 0.79323 0.00919 0.0
C437 C 0.31868 0.83862 0.03979 0.0
N438 N 0.33021 0.79362 0.9399 0.0
N439 N 0.31191 0.83375 0.00883 0.0
H440 H 0.16786 0.61541 0.55188 0.0
H441 H 0.13559 0.69145 0.39217 0.0
H442 H 0.12487 0.68819 0.55005 0.0
H443 H 0.18848 0.62574 0.39576 0.0
H444 H 0.13767 0.69512 0.45065 0.0
H445 H 0.18106 0.62256 0.49616 0.0
C446 C 0.16128 0.633 0.53974 0.0
C447 C 0.14476 0.65099 0.5553 0.0
C448 C 0.14927 0.6802 0.43873 0.0
C449 C 0.15986 0.65929 0.49149 0.0
C450 C 0.14809 0.67812 0.40537 0.0
C451 C 0.16151 0.65795 0.38942 0.0
C452 C 0.16352 0.6616 0.45625 0.0
C453 C 0.1777 0.64141 0.40734 0.0
C454 C 0.16901 0.63715 0.50798 0.0
C455 C 0.13729 0.67366 0.53872 0.0
N456 N 0.1778 0.64322 0.44003 0.0
N457 N 0.14458 0.67698 0.50746 0.0
H458 H 0.27993 0.126 0.57297 0.0
H459 H 0.33907 0.18465 0.40949 0.0
H460 H 0.35014 0.17296 0.56756 0.0
H461 H 0.28225 0.12206 0.41407 0.0
H462 H 0.33545 0.18978 0.46818 0.0
H463 H 0.27284 0.13366 0.51533 0.0
C464 C 0.29363 0.13817 0.55974 0.0
C465 C 0.31593 0.14838 0.57473 0.0
C466 C 0.32352 0.17519 0.45618 0.0
C467 C 0.30797 0.1573 0.50927 0.0
C468 C 0.32556 0.17232 0.42279 0.0
C469 C 0.31137 0.15254 0.40721 0.0
C470 C 0.30705 0.15828 0.47377 0.0
C471 C 0.29396 0.13718 0.42537 0.0
C472 C 0.28961 0.14253 0.52693 0.0
C473 C 0.33297 0.16426 0.55668 0.0
N474 N 0.29247 0.1402 0.45776 0.0
N475 N 0.32878 0.16803 0.52478 0.0
H476 H 0.83222 0.26697 0.39393 0.0
H477 H 0.80873 0.36181 0.54102 0.0
H478 H 0.7781 0.33176 0.39132 0.0
H479 H 0.84914 0.28792 0.55009 0.0
H480 H 0.79407 0.3489 0.48758 0.0
H481 H 0.83446 0.27102 0.45244 0.0
C482 C 0.82037 0.2817 0.40584 0.0
C483 C 0.80532 0.29937 0.38789 0.0
C484 C 0.80593 0.33536 0.50131 0.0
C485 C 0.8082 0.30449 0.45457 0.0
C486 C 0.81451 0.34281 0.53173 0.0
C487 C 0.83055 0.32606 0.54973 0.0
C488 C 0.81373 0.31111 0.48855 0.0
C489 C 0.83705 0.30152 0.53679 0.0
C490 C 0.82168 0.28404 0.43921 0.0
C491 C 0.79011 0.3179 0.40434 0.0
N492 N 0.82889 0.2949 0.50673 0.0
N493 N 0.79237 0.32035 0.43681 0.0
H494 H 0.62324 0.80318 0.57058 0.0
H495 H 0.68392 0.84239 0.40254 0.0
H496 H 0.68978 0.8548 0.56114 0.0
H497 H 0.62697 0.78056 0.41439 0.0
H498 H 0.69045 0.84317 0.46069 0.0
H499 H 0.6281 0.79065 0.5143 0.0
C500 C 0.63904 0.81174 0.55662 0.0
C501 C 0.65584 0.83044 0.57022 0.0
C502 C 0.67682 0.82914 0.4506 0.0
C503 C 0.66142 0.81632 0.50569 0.0
C504 C 0.67301 0.82873 0.41742 0.0
C505 C 0.65447 0.81175 0.40381 0.0
C506 C 0.66169 0.81269 0.47033 0.0
C507 C 0.64121 0.79417 0.42402 0.0
C508 C 0.64189 0.80446 0.52452 0.0
C509 C 0.67626 0.84052 0.55136 0.0
N510 N 0.64475 0.79541 0.45642 0.0
N511 N 0.67822 0.83366 0.51976 0.0
H512 H 0.13605 0.52774 0.31757 0.0
H513 H 0.13091 0.45431 0.14921 0.0
H514 H 0.15035 0.56689 0.22692 0.0
H515 H 0.14201 0.41311 0.23899 0.0
H516 H 0.13779 0.49581 0.17738 0.0
H517 H 0.13823 0.4855 0.28968 0.0
C518 C 0.13993 0.52746 0.29188 0.0
C519 C 0.14281 0.55093 0.27453 0.0
C520 C 0.13899 0.47768 0.19087 0.0
C521 C 0.145 0.50268 0.24245 0.0
C522 C 0.13496 0.45398 0.17482 0.0
C523 C 0.13571 0.4302 0.1918 0.0
C524 C 0.14337 0.47769 0.22427 0.0
C525 C 0.14123 0.43097 0.22494 0.0
C526 C 0.14121 0.50333 0.27599 0.0
C527 C 0.14792 0.54934 0.24129 0.0
N528 N 0.14453 0.45436 0.24018 0.0
N529 N 0.14851 0.52566 0.22628 0.0
H530 H 0.49666 0.11766 0.1435 0.0
H531 H 0.43483 0.12282 0.31886 0.0
H532 H 0.54341 0.13003 0.22864 0.0
H533 H 0.39003 0.13988 0.23341 0.0
H534 H 0.47487 0.1241 0.2864 0.0
H535 H 0.45715 0.12428 0.17596 0.0
C536 C 0.49863 0.12193 0.16896 0.0
C537 C 0.52338 0.12316 0.18339 0.0
C538 C 0.45629 0.12785 0.27486 0.0
C539 C 0.47827 0.13048 0.2207 0.0
C540 C 0.43343 0.12708 0.29335 0.0
C541 C 0.40902 0.13113 0.27882 0.0
C542 C 0.4547 0.13223 0.2415 0.0
C543 C 0.40841 0.13666 0.24565 0.0
C544 C 0.47608 0.1258 0.18744 0.0
C545 C 0.52475 0.12889 0.21648 0.0
N546 N 0.43087 0.1367 0.22804 0.0
N547 N 0.5025 0.13203 0.23409 0.0
H548 H 0.82154 0.54053 0.24001 0.0
H549 H 0.81503 0.38469 0.22216 0.0
H550 H 0.83568 0.49996 0.15023 0.0
H551 H 0.83122 0.42347 0.31252 0.0
H552 H 0.81328 0.42742 0.1957 0.0
H553 H 0.81594 0.49817 0.26689 0.0
C554 C 0.82318 0.52274 0.22586 0.0
C555 C 0.82926 0.52377 0.19283 0.0
C556 C 0.81703 0.42655 0.22135 0.0
C557 C 0.82274 0.47536 0.22346 0.0
C558 C 0.81791 0.40219 0.23655 0.0
C559 C 0.82348 0.40047 0.26962 0.0
C560 C 0.82143 0.44941 0.23937 0.0
C561 C 0.82707 0.42386 0.28695 0.0
C562 C 0.8201 0.4986 0.24127 0.0
C563 C 0.83122 0.50008 0.17577 0.0
N564 N 0.82603 0.44739 0.2716 0.0
N565 N 0.82798 0.47683 0.19128 0.0
H566 H 0.53416 0.87151 0.30444 0.0
H567 H 0.42382 0.79945 0.20507 0.0
H568 H 0.54911 0.79391 0.26705 0.0
H569 H 0.44484 0.88015 0.18729 0.0
H570 H 0.46295 0.79496 0.23924 0.0
H571 H 0.4933 0.87271 0.27394 0.0
C572 C 0.5286 0.85451 0.29034 0.0
C573 C 0.54509 0.8326 0.28815 0.0
C574 C 0.45885 0.81356 0.22774 0.0
C575 C 0.49838 0.83387 0.25354 0.0
C576 C 0.43665 0.81615 0.20837 0.0
C577 C 0.43127 0.84015 0.19322 0.0
C578 C 0.4751 0.83537 0.23273 0.0
C579 C 0.44843 0.86124 0.19826 0.0
C580 C 0.50543 0.85533 0.27279 0.0
C581 C 0.537 0.81122 0.26923 0.0
N582 N 0.46942 0.85845 0.21789 0.0
N583 N 0.5141 0.81234 0.25263 0.0
H584 H 0.82706 0.57627 0.71941 0.0
H585 H 0.81338 0.42065 0.70673 0.0
H586 H 0.81101 0.52505 0.7999 0.0
H587 H 0.85094 0.46878 0.63441 0.0
H588 H 0.80092 0.4603 0.73593 0.0
H589 H 0.82388 0.53845 0.68303 0.0
C590 C 0.82226 0.55719 0.7293 0.0
C591 C 0.81978 0.55358 0.76267 0.0
C592 C 0.81165 0.46215 0.71349 0.0
C593 C 0.8162 0.51056 0.72152 0.0
C594 C 0.81881 0.43954 0.69682 0.0
C595 C 0.8337 0.4414 0.66843 0.0
C596 C 0.81938 0.48676 0.70165 0.0
C597 C 0.83988 0.46643 0.65652 0.0
C598 C 0.82061 0.53565 0.70861 0.0
C599 C 0.81355 0.52853 0.77432 0.0
N600 N 0.8329 0.48816 0.67338 0.0
N601 N 0.81225 0.5079 0.7538 0.0
H602 H 0.56652 0.82491 0.73291 0.0
H603 H 0.45002 0.82981 0.81811 0.0
H604 H 0.51991 0.8581 0.6565 0.0
H605 H 0.41183 0.82433 0.72571 0.0
H606 H 0.49224 0.82912 0.7911 0.0
H607 H 0.52634 0.81304 0.76145 0.0
C608 C 0.54786 0.82979 0.7222 0.0
C609 C 0.54658 0.84301 0.69259 0.0
C610 C 0.47475 0.82726 0.77668 0.0
C611 C 0.50062 0.82989 0.7253 0.0
C612 C 0.45057 0.82796 0.79209 0.0
C613 C 0.42742 0.82737 0.77406 0.0
C614 C 0.4758 0.82616 0.74291 0.0
C615 C 0.42924 0.82485 0.74048 0.0
C616 C 0.52493 0.82315 0.7386 0.0
C617 C 0.52186 0.84837 0.67955 0.0
N618 N 0.45309 0.82483 0.72589 0.0
N619 N 0.49985 0.84189 0.69607 0.0
H620 H 0.13831 0.45771 0.8175 0.0
H621 H 0.13574 0.51589 0.64209 0.0
H622 H 0.15315 0.41079 0.73271 0.0
H623 H 0.1432 0.56452 0.72683 0.0
H624 H 0.14536 0.47741 0.6747 0.0
H625 H 0.14353 0.49727 0.78514 0.0
C626 C 0.14297 0.45575 0.79211 0.0
C627 C 0.14485 0.43097 0.7776 0.0
C628 C 0.14527 0.49652 0.68611 0.0
C629 C 0.15061 0.47611 0.74044 0.0
C630 C 0.13962 0.51848 0.66755 0.0
C631 C 0.13824 0.54335 0.68194 0.0
C632 C 0.14912 0.49939 0.71939 0.0
C633 C 0.14384 0.54565 0.71488 0.0
C634 C 0.14606 0.47835 0.77369 0.0
C635 C 0.15131 0.42954 0.74477 0.0
N636 N 0.14863 0.52384 0.73265 0.0
N637 N 0.15351 0.45185 0.72713 0.0
H638 H 0.41114 0.15322 0.73779 0.0
H639 H 0.56712 0.15934 0.72555 0.0
H640 H 0.45496 0.13283 0.65216 0.0
H641 H 0.52449 0.15406 0.81537 0.0
H642 H 0.52545 0.1607 0.69664 0.0
H643 H 0.45221 0.1642 0.76477 0.0
C644 C 0.42935 0.15125 0.7246 0.0
C645 C 0.4297 0.14172 0.69288 0.0
C646 C 0.5253 0.15956 0.72271 0.0
C647 C 0.47653 0.15442 0.7234 0.0
C648 C 0.54902 0.15891 0.73919 0.0
C649 C 0.54919 0.15616 0.77281 0.0
C650 C 0.50173 0.1577 0.74008 0.0
C651 C 0.5252 0.15574 0.78937 0.0
C652 C 0.45274 0.15751 0.73999 0.0
C653 C 0.45384 0.13971 0.67682 0.0
N654 N 0.50241 0.1563 0.7728 0.0
N655 N 0.47632 0.14589 0.69233 0.0
H656 H 0.63543 0.03886 0.81664 0.0
H657 H 0.63391 0.96615 0.64749 0.0
H658 H 0.65018 0.07909 0.72682 0.0
H659 H 0.64805 0.92526 0.73683 0.0
H660 H 0.63811 0.00789 0.67615 0.0
H661 H 0.63831 -0.00308 0.78806 0.0
C662 C 0.63946 0.03888 0.79098 0.0
C663 C 0.64245 0.06254 0.77409 0.0
C664 C 0.64054 -0.01024 0.68939 0.0
C665 C 0.64546 0.01469 0.74125 0.0
C666 C 0.63809 0.96594 0.67307 0.0
C667 C 0.64054 0.94217 0.6898 0.0
C668 C 0.64504 -0.01018 0.72278 0.0
C669 C 0.64603 0.9431 0.72294 0.0
C670 C 0.64117 0.01495 0.77472 0.0
C671 C 0.64774 0.06136 0.74085 0.0
N672 N 0.6478 0.96653 0.73842 0.0
N673 N 0.64878 0.03786 0.72547 0.0
H674 H 0.9329 0.59034 0.78828 0.0
H675 H 0.04439 0.66922 0.69973 0.0
H676 H 0.91938 0.67128 0.76306 0.0
H677 H 0.02317 0.59089 0.67022 0.0
H678 H 0.00427 0.67123 0.73272 0.0
H679 H 0.97291 0.59092 0.75563 0.0
C680 C 0.93857 0.60835 0.7763 0.0
C681 C 0.92282 0.6308 0.77832 0.0
C682 C 0.00845 0.65374 0.7188 0.0
C683 C 0.96853 0.63156 0.74129 0.0
C684 C 0.03123 0.65255 0.70007 0.0
C685 C 0.03696 0.6299 0.68214 0.0
C686 C -0.00809 0.63181 0.72033 0.0
C687 C 0.01935 0.6088 0.68345 0.0
C688 C 0.96123 0.60857 0.7575 0.0
C689 C 0.93097 0.65354 0.762 0.0
N690 N -0.00221 0.61012 0.7026 0.0
N691 N 0.95343 0.65342 0.74425 0.0
H692 H 0.3281 0.05983 0.74352 0.0
H693 H 0.32338 0.90374 0.72753 0.0
H694 H 0.34062 0.01861 0.65384 0.0
H695 H 0.33906 0.94346 0.81741 0.0
H696 H 0.3208 0.94621 0.70061 0.0
H697 H 0.32344 0.01766 0.77111 0.0
C698 C 0.32961 0.04194 0.72956 0.0
C699 C 0.33494 0.04275 0.69633 0.0
C700 C 0.32464 0.94561 0.72626 0.0
C701 C 0.3295 -0.00547 0.72776 0.0
C702 C 0.326 0.92138 0.74173 0.0
C703 C 0.33166 0.92 0.77479 0.0
C704 C 0.32868 0.96868 0.744 0.0
C705 C 0.33486 0.94358 0.79186 0.0
C706 C 0.32705 0.01791 0.74536 0.0
C707 C 0.33673 0.01892 0.67951 0.0
N708 N 0.33339 0.96697 0.77624 0.0
N709 N 0.33404 -0.00422 0.69541 0.0
H710 H 0.06807 0.33086 0.72913 0.0
H711 H 0.91235 0.34095 0.72494 0.0
H712 H 0.02168 0.34994 0.81311 0.0
H713 H 0.9611 0.35325 0.64107 0.0
H714 H 0.95168 0.33544 0.7576 0.0
H715 H 0.02823 0.32998 0.6968 0.0
C716 C 0.04949 0.33454 0.7409 0.0
C717 C 0.04824 0.34065 0.7739 0.0
C718 C 0.95372 0.33922 0.73202 0.0
C719 C 0.00261 0.33961 0.73693 0.0
C720 C 0.93131 0.34226 0.71331 0.0
C721 C 0.93344 0.34772 0.68021 0.0
C722 C 0.97844 0.34126 0.71749 0.0
C723 C 0.95854 0.34925 0.66651 0.0
C724 C 0.02679 0.33418 0.72235 0.0
C725 C 0.02358 0.34532 0.78774 0.0
N726 N 0.98008 0.34601 0.68522 0.0
N727 N 0.00172 0.34473 0.76917 0.0
H728 H 0.30483 0.06059 0.23742 0.0
H729 H 0.32056 0.90492 0.23027 0.0
H730 H 0.3202 0.01236 0.32075 0.0
H731 H 0.33355 0.95656 0.1493 0.0
H732 H 0.30762 0.94287 0.26286 0.0
H733 H 0.30209 0.02094 0.20439 0.0
C734 C 0.30714 0.04166 0.24889 0.0
C735 C 0.31326 0.03974 0.28173 0.0
C736 C 0.31299 0.94576 0.23783 0.0
C737 C 0.31015 -0.00547 0.24419 0.0
C738 C 0.32034 0.92417 0.21924 0.0
C739 C 0.32858 0.92773 0.18725 0.0
C740 C 0.31363 0.97092 0.22413 0.0
C741 C 0.32779 0.95304 0.17407 0.0
C742 C 0.30567 0.01909 0.23001 0.0
C743 C 0.31593 0.01472 0.29537 0.0
N744 N 0.32063 0.97372 0.19265 0.0
N745 N 0.31461 -0.00695 0.27645 0.0
H746 H 0.89835 0.30997 0.21636 0.0
H747 H 0.05421 0.31719 0.22919 0.0
H748 H 0.94067 0.30637 0.3061 0.0
H749 H 0.01064 0.34503 0.14705 0.0
H750 H 0.01316 0.30352 0.2545 0.0
H751 H 0.94015 0.31243 0.18731 0.0
C752 C 0.91643 0.30915 0.22987 0.0
C753 C 0.91615 0.30835 0.26364 0.0
C754 C 0.01265 0.3125 0.23086 0.0
C755 C 0.96369 0.31124 0.2308 0.0
C756 C 0.03604 0.32034 0.21643 0.0
C757 C 0.0358 0.33259 0.18617 0.0
C758 C -0.01108 0.31674 0.21479 0.0
C759 C 0.0117 0.33599 0.17062 0.0
C760 C 0.94021 0.31074 0.21334 0.0
C761 C 0.94007 0.30738 0.28004 0.0
N762 N -0.01082 0.32818 0.18517 0.0
N763 N 0.9629 0.30905 0.26346 0.0
H764 H 0.65359 0.94062 0.30503 0.0
H765 H 0.60331 -0.00162 0.13979 0.0
H766 H 0.63328 0.8917 0.22394 0.0
H767 H 0.64011 0.04548 0.21345 0.0
H768 H 0.61675 0.95887 0.16847 0.0
H769 H 0.65237 0.97896 0.27009 0.0
C770 C 0.64927 0.93794 0.27969 0.0
C771 C 0.64317 0.91307 0.26738 0.0
C772 C 0.62212 0.97785 0.17816 0.0
C773 C 0.64124 0.95688 0.22737 0.0
C774 C 0.6143 0.00043 0.16193 0.0
C775 C 0.62027 0.02528 0.1745 0.0
C776 C 0.63575 0.98017 0.20733 0.0
C777 C 0.63484 0.02674 0.20303 0.0
C778 C 0.64858 0.95983 0.25974 0.0
C779 C 0.638 0.9106 0.23435 0.0
N780 N 0.64184 0.00448 0.21866 0.0
N781 N 0.63666 0.93236 0.21554 0.0
H782 H 0.06126 0.64678 0.22828 0.0
H783 H 0.90595 0.6311 0.24222 0.0
H784 H 0.0208 0.63427 0.31857 0.0
H785 H 0.9503 0.61628 0.15531 0.0
H786 H 0.94677 0.64251 0.26985 0.0
H787 H 0.01911 0.64646 0.20054 0.0
C788 C 0.04351 0.64435 0.24231 0.0
C789 C 0.04452 0.64013 0.27568 0.0
C790 C 0.94743 0.63692 0.24467 0.0
C791 C -0.00355 0.63974 0.2442 0.0
C792 C 0.92421 0.63044 0.22893 0.0
C793 C 0.92484 0.62238 0.19661 0.0
C794 C 0.97125 0.63567 0.22775 0.0
C795 C 0.94899 0.62198 0.18041 0.0
C796 C 0.01951 0.64405 0.22647 0.0
C797 C 0.02091 0.63717 0.29272 0.0
N798 N 0.97124 0.62847 0.19618 0.0
N799 N -0.00219 0.63685 0.27674 0.0
loop_
_geom_bond_atom_site_label_1
_geom_bond_atom_site_label_2
_geom_bond_distance
_geom_bond_site_symmetry_2
_ccdc_geom_bond_type
C0 O1 1.306 . S
C0 O3 1.160 . S
O1 C0 1.306 . S
O1 Cd2 2.228 . S
Cd2 O1 2.228 . S
Cd2 O6 2.273 . S
Cd2 O10 2.277 . S
O3 C0 1.160 . S
O3 Cd4 2.203 . S
Cd4 O3 2.203 . S
Cd4 O6 2.411 . S
Cd4 O7 2.333 . S
Cd4 O8 2.352 . S
Cd4 O12 2.277 . S
Cd4 O13 2.356 . S
C5 O10 1.209 . S
C5 O12 1.226 . S
O6 Cd2 2.273 . S
O6 Cd4 2.411 . S
O6 C9 1.320 . S
O7 Cd4 2.333 . S
O7 C9 1.214 . S
O8 Cd4 2.352 . S
O8 C11 1.258 . S
C9 O6 1.320 . S
C9 O7 1.214 . S
O10 Cd2 2.277 . S
O10 C5 1.209 . S
C11 O8 1.258 . S
C11 O13 1.282 . S
O12 Cd4 2.277 . S
O12 C5 1.226 . S
O13 Cd4 2.356 . S
O13 C11 1.282 . S
C14 O15 1.306 . S
C14 O17 1.160 . S
O15 C14 1.306 . S
O15 Cd16 2.228 . S
Cd16 O15 2.228 . S
Cd16 O20 2.273 . S
Cd16 O24 2.277 . S
O17 C14 1.160 . S
O17 Cd18 2.203 . S
Cd18 O17 2.203 . S
Cd18 O20 2.411 . S
Cd18 O21 2.333 . S
Cd18 O22 2.352 . S
Cd18 O26 2.277 . S
Cd18 O27 2.356 . S
C19 O24 1.209 . S
C19 O26 1.226 . S
O20 Cd16 2.273 . S
O20 Cd18 2.411 . S
O20 C23 1.320 . S
O21 Cd18 2.333 . S
O21 C23 1.214 . S
O22 Cd18 2.352 . S
O22 C25 1.258 . S
C23 O20 1.320 . S
C23 O21 1.214 . S
O24 Cd16 2.277 . S
O24 C19 1.209 . S
C25 O22 1.258 . S
C25 O27 1.282 . S
O26 Cd18 2.277 . S
O26 C19 1.226 . S
O27 Cd18 2.356 . S
O27 C25 1.282 . S
C28 O29 1.306 . S
C28 O31 1.160 . S
O29 C28 1.306 . S
O29 Cd30 2.228 . S
Cd30 O29 2.228 . S
Cd30 O34 2.273 . S
Cd30 O38 2.277 . S
O31 C28 1.160 . S
O31 Cd32 2.203 . S
Cd32 O31 2.203 . S
Cd32 O34 2.411 . S
Cd32 O35 2.333 . S
Cd32 O36 2.352 . S
Cd32 O40 2.277 . S
Cd32 O41 2.356 . S
C33 O38 1.209 . S
C33 O40 1.226 . S
O34 Cd30 2.273 . S
O34 Cd32 2.411 . S
O34 C37 1.320 . S
O35 Cd32 2.333 . S
O35 C37 1.214 . S
O36 Cd32 2.352 . S
O36 C39 1.258 . S
C37 O34 1.320 . S
C37 O35 1.214 . S
O38 Cd30 2.277 . S
O38 C33 1.209 . S
C39 O36 1.258 . S
C39 O41 1.282 . S
O40 Cd32 2.277 . S
O40 C33 1.226 . S
O41 Cd32 2.356 . S
O41 C39 1.282 . S
C42 O43 1.306 . S
C42 O45 1.160 . S
O43 C42 1.306 . S
O43 Cd44 2.228 . S
Cd44 O43 2.228 . S
Cd44 O48 2.273 . S
Cd44 O52 2.277 . S
O45 C42 1.160 . S
O45 Cd46 2.203 . S
Cd46 O45 2.203 . S
Cd46 O48 2.411 . S
Cd46 O49 2.333 . S
Cd46 O50 2.352 . S
Cd46 O54 2.277 . S
Cd46 O55 2.356 . S
C47 O52 1.209 . S
C47 O54 1.226 . S
O48 Cd44 2.273 . S
O48 Cd46 2.411 . S
O48 C51 1.320 . S
O49 Cd46 2.333 . S
O49 C51 1.214 . S
O50 Cd46 2.352 . S
O50 C53 1.258 . S
C51 O48 1.320 . S
C51 O49 1.214 . S
O52 Cd44 2.277 . S
O52 C47 1.209 . S
C53 O50 1.258 . S
C53 O55 1.282 . S
O54 Cd46 2.277 . S
O54 C47 1.226 . S
O55 Cd46 2.356 . S
O55 C53 1.282 . S
C56 O57 1.306 . S
C56 O59 1.160 . S
O57 C56 1.306 . S
O57 Cd58 2.228 . S
Cd58 O57 2.228 . S
Cd58 O62 2.273 . S
Cd58 O66 2.277 . S
O59 C56 1.160 . S
O59 Cd60 2.203 . S
Cd60 O59 2.203 . S
Cd60 O62 2.411 . S
Cd60 O63 2.333 . S
Cd60 O64 2.352 . S
Cd60 O68 2.277 . S
Cd60 O69 2.356 . S
C61 O66 1.209 . S
C61 O68 1.226 . S
O62 Cd58 2.273 . S
O62 Cd60 2.411 . S
O62 C65 1.320 . S
O63 Cd60 2.333 . S
O63 C65 1.214 . S
O64 Cd60 2.352 . S
O64 C67 1.258 . S
C65 O62 1.320 . S
C65 O63 1.214 . S
O66 Cd58 2.277 . S
O66 C61 1.209 . S
C67 O64 1.258 . S
C67 O69 1.282 . S
O68 Cd60 2.277 . S
O68 C61 1.226 . S
O69 Cd60 2.356 . S
O69 C67 1.282 . S
C70 O71 1.306 . S
C70 O73 1.160 . S
O71 C70 1.306 . S
O71 Cd72 2.228 . S
Cd72 O71 2.228 . S
Cd72 O76 2.273 . S
Cd72 O80 2.277 . S
O73 C70 1.160 . S
O73 Cd74 2.203 . S
Cd74 O73 2.203 . S
Cd74 O76 2.411 . S
Cd74 O77 2.333 . S
Cd74 O78 2.352 . S
Cd74 O82 2.277 . S
Cd74 O83 2.356 . S
C75 O80 1.209 . S
C75 O82 1.226 . S
O76 Cd72 2.273 . S
O76 Cd74 2.411 . S
O76 C79 1.320 . S
O77 Cd74 2.333 . S
O77 C79 1.214 . S
O78 Cd74 2.352 . S
O78 C81 1.258 . S
C79 O76 1.320 . S
C79 O77 1.214 . S
O80 Cd72 2.277 . S
O80 C75 1.209 . S
C81 O78 1.258 . S
C81 O83 1.282 . S
O82 Cd74 2.277 . S
O82 C75 1.226 . S
O83 Cd74 2.356 . S
O83 C81 1.282 . S
C84 O85 1.306 . S
C84 O87 1.160 . S
O85 C84 1.306 . S
O85 Cd86 2.228 . S
Cd86 O85 2.228 . S
Cd86 O90 2.273 . S
Cd86 O94 2.277 . S
O87 C84 1.160 . S
O87 Cd88 2.203 . S
Cd88 O87 2.203 . S
Cd88 O90 2.411 . S
Cd88 O91 2.333 . S
Cd88 O92 2.352 . S
Cd88 O96 2.277 . S
Cd88 O97 2.356 . S
C89 O94 1.209 . S
C89 O96 1.226 . S
O90 Cd86 2.273 . S
O90 Cd88 2.411 . S
O90 C93 1.320 . S
O91 Cd88 2.333 . S
O91 C93 1.214 . S
O92 Cd88 2.352 . S
O92 C95 1.258 . S
C93 O90 1.320 . S
C93 O91 1.214 . S
O94 Cd86 2.277 . S
O94 C89 1.209 . S
C95 O92 1.258 . S
C95 O97 1.282 . S
O96 Cd88 2.277 . S
O96 C89 1.226 . S
O97 Cd88 2.356 . S
O97 C95 1.282 . S
C98 O99 1.306 . S
C98 O101 1.160 . S
O99 C98 1.306 . S
O99 Cd100 2.228 . S
Cd100 O99 2.228 . S
Cd100 O104 2.273 . S
Cd100 O108 2.277 . S
O101 C98 1.160 . S
O101 Cd102 2.203 . S
Cd102 O101 2.203 . S
Cd102 O104 2.411 . S
Cd102 O105 2.333 . S
Cd102 O106 2.352 . S
Cd102 O110 2.277 . S
Cd102 O111 2.356 . S
C103 O108 1.209 . S
C103 O110 1.226 . S
O104 Cd100 2.273 . S
O104 Cd102 2.411 . S
O104 C107 1.320 . S
O105 Cd102 2.333 . S
O105 C107 1.214 . S
O106 Cd102 2.352 . S
O106 C109 1.258 . S
C107 O104 1.320 . S
C107 O105 1.214 . S
O108 Cd100 2.277 . S
O108 C103 1.209 . S
C109 O106 1.258 . S
C109 O111 1.282 . S
O110 Cd102 2.277 . S
O110 C103 1.226 . S
O111 Cd102 2.356 . S
O111 C109 1.282 . S
C112 O113 1.306 . S
C112 O115 1.160 . S
O113 C112 1.306 . S
O113 Cd114 2.228 . S
Cd114 O113 2.228 . S
Cd114 O118 2.273 . S
Cd114 O122 2.277 . S
O115 C112 1.160 . S
O115 Cd116 2.203 . S
Cd116 O115 2.203 . S
Cd116 O118 2.411 . S
Cd116 O119 2.333 . S
Cd116 O120 2.352 . S
Cd116 O124 2.277 . S
Cd116 O125 2.356 . S
C117 O122 1.209 . S
C117 O124 1.226 . S
O118 Cd114 2.273 . S
O118 Cd116 2.411 . S
O118 C121 1.320 . S
O119 Cd116 2.333 . S
O119 C121 1.214 . S
O120 Cd116 2.352 . S
O120 C123 1.258 . S
C121 O118 1.320 . S
C121 O119 1.214 . S
O122 Cd114 2.277 . S
O122 C117 1.209 . S
C123 O120 1.258 . S
C123 O125 1.282 . S
O124 Cd116 2.277 . S
O124 C117 1.226 . S
O125 Cd116 2.356 . S
O125 C123 1.282 . S
C126 O127 1.306 . S
C126 O129 1.160 . S
O127 C126 1.306 . S
O127 Cd128 2.228 . S
Cd128 O127 2.228 . S
Cd128 O132 2.273 . S
Cd128 O136 2.277 . S
O129 C126 1.160 . S
O129 Cd130 2.203 . S
Cd130 O129 2.203 . S
Cd130 O132 2.411 . S
Cd130 O133 2.333 . S
Cd130 O134 2.352 . S
Cd130 O138 2.277 . S
Cd130 O139 2.356 . S
C131 O136 1.209 . S
C131 O138 1.226 . S
O132 Cd128 2.273 . S
O132 Cd130 2.411 . S
O132 C135 1.320 . S
O133 Cd130 2.333 . S
O133 C135 1.214 . S
O134 Cd130 2.352 . S
O134 C137 1.258 . S
C135 O132 1.320 . S
C135 O133 1.214 . S
O136 Cd128 2.277 . S
O136 C131 1.209 . S
C137 O134 1.258 . S
C137 O139 1.282 . S
O138 Cd130 2.277 . S
O138 C131 1.226 . S
O139 Cd130 2.356 . S
O139 C137 1.282 . S
C140 O141 1.306 . S
C140 O143 1.160 . S
O141 C140 1.306 . S
O141 Cd142 2.228 . S
Cd142 O141 2.228 . S
Cd142 O146 2.273 . S
Cd142 O150 2.277 . S
O143 C140 1.160 . S
O143 Cd144 2.203 . S
Cd144 O143 2.203 . S
Cd144 O146 2.411 . S
Cd144 O147 2.333 . S
Cd144 O148 2.352 . S
Cd144 O152 2.277 . S
Cd144 O153 2.356 . S
C145 O150 1.209 . S
C145 O152 1.226 . S
O146 Cd142 2.273 . S
O146 Cd144 2.411 . S
O146 C149 1.320 . S
O147 Cd144 2.333 . S
O147 C149 1.214 . S
O148 Cd144 2.352 . S
O148 C151 1.258 . S
C149 O146 1.320 . S
C149 O147 1.214 . S
O150 Cd142 2.277 . S
O150 C145 1.209 . S
C151 O148 1.258 . S
C151 O153 1.282 . S
O152 Cd144 2.277 . S
O152 C145 1.226 . S
O153 Cd144 2.356 . S
O153 C151 1.282 . S
C154 O155 1.306 . S
C154 O157 1.160 . S
O155 C154 1.306 . S
O155 Cd156 2.228 . S
Cd156 O155 2.228 . S
Cd156 O160 2.273 . S
Cd156 O164 2.277 . S
O157 C154 1.160 . S
O157 Cd158 2.203 . S
Cd158 O157 2.203 . S
Cd158 O160 2.411 . S
Cd158 O161 2.333 . S
Cd158 O162 2.352 . S
Cd158 O166 2.277 . S
Cd158 O167 2.356 . S
C159 O164 1.209 . S
C159 O166 1.226 . S
O160 Cd156 2.273 . S
O160 Cd158 2.411 . S
O160 C163 1.320 . S
O161 Cd158 2.333 . S
O161 C163 1.214 . S
O162 Cd158 2.352 . S
O162 C165 1.258 . S
C163 O160 1.320 . S
C163 O161 1.214 . S
O164 Cd156 2.277 . S
O164 C159 1.209 . S
C165 O162 1.258 . S
C165 O167 1.282 . S
O166 Cd158 2.277 . S
O166 C159 1.226 . S
O167 Cd158 2.356 . S
O167 C165 1.282 . S
C168 O169 1.306 . S
C168 O171 1.160 . S
O169 C168 1.306 . S
O169 Cd170 2.228 . S
Cd170 O169 2.228 . S
Cd170 O174 2.273 . S
Cd170 O178 2.277 . S
O171 C168 1.160 . S
O171 Cd172 2.203 . S
Cd172 O171 2.203 . S
Cd172 O174 2.411 . S
Cd172 O175 2.333 . S
Cd172 O176 2.352 . S
Cd172 O180 2.277 . S
Cd172 O181 2.356 . S
C173 O178 1.209 . S
C173 O180 1.226 . S
O174 Cd170 2.273 . S
O174 Cd172 2.411 . S
O174 C177 1.320 . S
O175 Cd172 2.333 . S
O175 C177 1.214 . S
O176 Cd172 2.352 . S
O176 C179 1.258 . S
C177 O174 1.320 . S
C177 O175 1.214 . S
O178 Cd170 2.277 . S
O178 C173 1.209 . S
C179 O176 1.258 . S
C179 O181 1.282 . S
O180 Cd172 2.277 . S
O180 C173 1.226 . S
O181 Cd172 2.356 . S
O181 C179 1.282 . S
C182 O183 1.306 . S
C182 O185 1.160 . S
O183 C182 1.306 . S
O183 Cd184 2.228 . S
Cd184 O183 2.228 . S
Cd184 O188 2.273 . S
Cd184 O192 2.277 . S
O185 C182 1.160 . S
O185 Cd186 2.203 . S
Cd186 O185 2.203 . S
Cd186 O188 2.411 . S
Cd186 O189 2.333 . S
Cd186 O190 2.352 . S
Cd186 O194 2.277 . S
Cd186 O195 2.356 . S
C187 O192 1.209 . S
C187 O194 1.226 . S
O188 Cd184 2.273 . S
O188 Cd186 2.411 . S
O188 C191 1.320 . S
O189 Cd186 2.333 . S
O189 C191 1.214 . S
O190 Cd186 2.352 . S
O190 C193 1.258 . S
C191 O188 1.320 . S
C191 O189 1.214 . S
O192 Cd184 2.277 . S
O192 C187 1.209 . S
C193 O190 1.258 . S
C193 O195 1.282 . S
O194 Cd186 2.277 . S
O194 C187 1.226 . S
O195 Cd186 2.356 . S
O195 C193 1.282 . S
C196 O197 1.306 . S
C196 O199 1.160 . S
O197 C196 1.306 . S
O197 Cd198 2.228 . S
Cd198 O197 2.228 . S
Cd198 O202 2.273 . S
Cd198 O206 2.277 . S
O199 C196 1.160 . S
O199 Cd200 2.203 . S
Cd200 O199 2.203 . S
Cd200 O202 2.411 . S
Cd200 O203 2.333 . S
Cd200 O204 2.352 . S
Cd200 O208 2.277 . S
Cd200 O209 2.356 . S
C201 O206 1.209 . S
C201 O208 1.226 . S
O202 Cd198 2.273 . S
O202 Cd200 2.411 . S
O202 C205 1.320 . S
O203 Cd200 2.333 . S
O203 C205 1.214 . S
O204 Cd200 2.352 . S
O204 C207 1.258 . S
C205 O202 1.320 . S
C205 O203 1.214 . S
O206 Cd198 2.277 . S
O206 C201 1.209 . S
C207 O204 1.258 . S
C207 O209 1.282 . S
O208 Cd200 2.277 . S
O208 C201 1.226 . S
O209 Cd200 2.356 . S
O209 C207 1.282 . S
C210 O211 1.306 . S
C210 O213 1.160 . S
O211 C210 1.306 . S
O211 Cd212 2.228 . S
Cd212 O211 2.228 . S
Cd212 O216 2.273 . S
Cd212 O220 2.277 . S
O213 C210 1.160 . S
O213 Cd214 2.203 . S
Cd214 O213 2.203 . S
Cd214 O216 2.411 . S
Cd214 O217 2.333 . S
Cd214 O218 2.352 . S
Cd214 O222 2.277 . S
Cd214 O223 2.356 . S
C215 O220 1.209 . S
C215 O222 1.226 . S
O216 Cd212 2.273 . S
O216 Cd214 2.411 . S
O216 C219 1.320 . S
O217 Cd214 2.333 . S
O217 C219 1.214 . S
O218 Cd214 2.352 . S
O218 C221 1.258 . S
C219 O216 1.320 . S
C219 O217 1.214 . S
O220 Cd212 2.277 . S
O220 C215 1.209 . S
C221 O218 1.258 . S
C221 O223 1.282 . S
O222 Cd214 2.277 . S
O222 C215 1.226 . S
O223 Cd214 2.356 . S
O223 C221 1.282 . S
H224 C230 0.930 . S
H225 C234 0.930 . S
H226 C239 0.929 . S
H227 C237 0.929 . S
H228 C232 0.929 . S
H229 C238 0.929 . S
C230 H224 0.930 . S
C230 C231 1.367 . S
C230 C238 1.378 . S
C231 C230 1.367 . S
C231 C239 1.433 . S
C232 H228 0.929 . S
C232 C234 1.378 . S
C232 C236 1.350 . S
C233 C236 1.463 . S
C233 C238 1.350 . S
C233 N241 1.427 . S
C234 H225 0.930 . S
C234 C232 1.378 . S
C234 C235 1.367 . S
C235 C234 1.367 . S
C235 C237 1.433 . S
C236 C232 1.350 . S
C236 C233 1.463 . S
C236 N240 1.427 . S
C237 H227 0.929 . S
C237 C235 1.433 . S
C237 N240 1.384 . S
C238 H229 0.929 . S
C238 C230 1.378 . S
C238 C233 1.350 . S
C239 H226 0.929 . S
C239 C231 1.433 . S
C239 N241 1.384 . S
N240 C236 1.427 . S
N240 C237 1.384 . S
N241 C233 1.427 . S
N241 C239 1.384 . S
H242 C248 0.930 . S
H243 C252 0.930 . S
H244 C257 0.929 . S
H245 C255 0.929 . S
H246 C250 0.929 . S
H247 C256 0.929 . S
C248 H242 0.930 . S
C248 C249 1.367 . S
C248 C256 1.378 . S
C249 C248 1.367 . S
C249 C257 1.433 . S
C250 H246 0.929 . S
C250 C252 1.378 . S
C250 C254 1.350 . S
C251 C254 1.463 . S
C251 C256 1.350 . S
C251 N259 1.427 . S
C252 H243 0.930 . S
C252 C250 1.378 . S
C252 C253 1.367 . S
C253 C252 1.367 . S
C253 C255 1.433 . S
C254 C250 1.350 . S
C254 C251 1.463 . S
C254 N258 1.427 . S
C255 H245 0.929 . S
C255 C253 1.433 . S
C255 N258 1.384 . S
C256 H247 0.929 . S
C256 C248 1.378 . S
C256 C251 1.350 . S
C257 H244 0.929 . S
C257 C249 1.433 . S
C257 N259 1.384 . S
N258 C254 1.427 . S
N258 C255 1.384 . S
N259 C251 1.427 . S
N259 C257 1.384 . S
H260 C266 0.930 . S
H261 C270 0.930 . S
H262 C275 0.929 . S
H263 C273 0.929 . S
H264 C268 0.929 . S
H265 C274 0.929 . S
C266 H260 0.930 . S
C266 C267 1.367 . S
C266 C274 1.378 . S
C267 C266 1.367 . S
C267 C275 1.433 . S
C268 H264 0.929 . S
C268 C270 1.378 . S
C268 C272 1.350 . S
C269 C272 1.463 . S
C269 C274 1.350 . S
C269 N277 1.427 . S
C270 H261 0.930 . S
C270 C268 1.378 . S
C270 C271 1.367 . S
C271 C270 1.367 . S
C271 C273 1.433 . S
C272 C268 1.350 . S
C272 C269 1.463 . S
C272 N276 1.427 . S
C273 H263 0.929 . S
C273 C271 1.433 . S
C273 N276 1.384 . S
C274 H265 0.929 . S
C274 C266 1.378 . S
C274 C269 1.350 . S
C275 H262 0.929 . S
C275 C267 1.433 . S
C275 N277 1.384 . S
N276 C272 1.427 . S
N276 C273 1.384 . S
N277 C269 1.427 . S
N277 C275 1.384 . S
H278 C284 0.930 . S
H279 C288 0.930 . S
H280 C293 0.929 . S
H281 C291 0.929 . S
H282 C286 0.929 . S
H283 C292 0.929 . S
C284 H278 0.930 . S
C284 C285 1.367 . S
C284 C292 1.378 . S
C285 C284 1.367 . S
C285 C293 1.433 . S
C286 H282 0.929 . S
C286 C288 1.378 . S
C286 C290 1.350 . S
C287 C290 1.463 . S
C287 C292 1.350 . S
C287 N295 1.427 . S
C288 H279 0.930 . S
C288 C286 1.378 . S
C288 C289 1.367 . S
C289 C288 1.367 . S
C289 C291 1.433 . S
C290 C286 1.350 . S
C290 C287 1.463 . S
C290 N294 1.427 . S
C291 H281 0.929 . S
C291 C289 1.433 . S
C291 N294 1.384 . S
C292 H283 0.929 . S
C292 C284 1.378 . S
C292 C287 1.350 . S
C293 H280 0.929 . S
C293 C285 1.433 . S
C293 N295 1.384 . S
N294 C290 1.427 . S
N294 C291 1.384 . S
N295 C287 1.427 . S
N295 C293 1.384 . S
H296 C302 0.930 . S
H297 C306 0.930 . S
H298 C311 0.929 . S
H299 C309 0.929 . S
H300 C304 0.929 . S
H301 C310 0.929 . S
C302 H296 0.930 . S
C302 C303 1.367 . S
C302 C310 1.378 . S
C303 C302 1.367 . S
C303 C311 1.433 . S
C304 H300 0.929 . S
C304 C306 1.378 . S
C304 C308 1.350 . S
C305 C308 1.463 . S
C305 C310 1.350 . S
C305 N313 1.427 . S
C306 H297 0.930 . S
C306 C304 1.378 . S
C306 C307 1.367 . S
C307 C306 1.367 . S
C307 C309 1.433 . S
C308 C304 1.350 . S
C308 C305 1.463 . S
C308 N312 1.427 . S
C309 H299 0.929 . S
C309 C307 1.433 . S
C309 N312 1.384 . S
C310 H301 0.929 . S
C310 C302 1.378 . S
C310 C305 1.350 . S
C311 H298 0.929 . S
C311 C303 1.433 . S
C311 N313 1.384 . S
N312 C308 1.427 . S
N312 C309 1.384 . S
N313 C305 1.427 . S
N313 C311 1.384 . S
H314 C320 0.930 . S
H315 C324 0.930 . S
H316 C329 0.929 . S
H317 C327 0.929 . S
H318 C322 0.929 . S
H319 C328 0.929 . S
C320 H314 0.930 . S
C320 C321 1.367 . S
C320 C328 1.378 . S
C321 C320 1.367 . S
C321 C329 1.433 . S
C322 H318 0.929 . S
C322 C324 1.378 . S
C322 C326 1.350 . S
C323 C326 1.463 . S
C323 C328 1.350 . S
C323 N331 1.427 . S
C324 H315 0.930 . S
C324 C322 1.378 . S
C324 C325 1.367 . S
C325 C324 1.367 . S
C325 C327 1.433 . S
C326 C322 1.350 . S
C326 C323 1.463 . S
C326 N330 1.427 . S
C327 H317 0.929 . S
C327 C325 1.433 . S
C327 N330 1.384 . S
C328 H319 0.929 . S
C328 C320 1.378 . S
C328 C323 1.350 . S
C329 H316 0.929 . S
C329 C321 1.433 . S
C329 N331 1.384 . S
N330 C326 1.427 . S
N330 C327 1.384 . S
N331 C323 1.427 . S
N331 C329 1.384 . S
H332 C338 0.930 . S
H333 C342 0.930 . S
H334 C347 0.929 . S
H335 C345 0.929 . S
H336 C340 0.929 . S
H337 C346 0.929 . S
C338 H332 0.930 . S
C338 C339 1.367 . S
C338 C346 1.378 . S
C339 C338 1.367 . S
C339 C347 1.433 . S
C340 H336 0.929 . S
C340 C342 1.378 . S
C340 C344 1.350 . S
C341 C344 1.463 . S
C341 C346 1.350 . S
C341 N349 1.427 . S
C342 H333 0.930 . S
C342 C340 1.378 . S
C342 C343 1.367 . S
C343 C342 1.367 . S
C343 C345 1.433 . S
C344 C340 1.350 . S
C344 C341 1.463 . S
C344 N348 1.427 . S
C345 H335 0.929 . S
C345 C343 1.433 . S
C345 N348 1.384 . S
C346 H337 0.929 . S
C346 C338 1.378 . S
C346 C341 1.350 . S
C347 H334 0.929 . S
C347 C339 1.433 . S
C347 N349 1.384 . S
N348 C344 1.427 . S
N348 C345 1.384 . S
N349 C341 1.427 . S
N349 C347 1.384 . S
H350 C356 0.930 . S
H351 C360 0.930 . S
H352 C365 0.929 . S
H353 C363 0.929 . S
H354 C358 0.929 . S
H355 C364 0.929 . S
C356 H350 0.930 . S
C356 C357 1.367 . S
C356 C364 1.378 . S
C357 C356 1.367 . S
C357 C365 1.433 . S
C358 H354 0.929 . S
C358 C360 1.378 . S
C358 C362 1.350 . S
C359 C362 1.463 . S
C359 C364 1.350 . S
C359 N367 1.427 . S
C360 H351 0.930 . S
C360 C358 1.378 . S
C360 C361 1.367 . S
C361 C360 1.367 . S
C361 C363 1.433 . S
C362 C358 1.350 . S
C362 C359 1.463 . S
C362 N366 1.427 . S
C363 H353 0.929 . S
C363 C361 1.433 . S
C363 N366 1.384 . S
C364 H355 0.929 . S
C364 C356 1.378 . S
C364 C359 1.350 . S
C365 H352 0.929 . S
C365 C357 1.433 . S
C365 N367 1.384 . S
N366 C362 1.427 . S
N366 C363 1.384 . S
N367 C359 1.427 . S
N367 C365 1.384 . S
H368 C374 0.930 . S
H369 C378 0.930 . S
H370 C383 0.929 . S
H371 C381 0.929 . S
H372 C376 0.929 . S
H373 C382 0.929 . S
C374 H368 0.930 . S
C374 C375 1.367 . S
C374 C382 1.378 . S
C375 C374 1.367 . S
C375 C383 1.433 . S
C376 H372 0.929 . S
C376 C378 1.378 . S
C376 C380 1.350 . S
C377 C380 1.463 1_556 S
C377 C382 1.350 . S
C377 N385 1.427 . S
C378 H369 0.930 . S
C378 C376 1.378 . S
C378 C379 1.367 . S
C379 C378 1.367 . S
C379 C381 1.433 . S
C380 C376 1.350 . S
C380 C377 1.463 1_554 S
C380 N384 1.427 . S
C381 H371 0.929 . S
C381 C379 1.433 . S
C381 N384 1.384 . S
C382 H373 0.929 . S
C382 C374 1.378 . S
C382 C377 1.350 . S
C383 H370 0.929 . S
C383 C375 1.433 . S
C383 N385 1.384 . S
N384 C380 1.427 . S
N384 C381 1.384 . S
N385 C377 1.427 . S
N385 C383 1.384 . S
H386 C392 0.930 . S
H387 C396 0.930 . S
H388 C401 0.929 . S
H389 C399 0.929 . S
H390 C394 0.929 . S
H391 C400 0.929 . S
C392 H386 0.930 . S
C392 C393 1.367 . S
C392 C400 1.378 . S
C393 C392 1.367 . S
C393 C401 1.433 . S
C394 H390 0.929 . S
C394 C396 1.378 . S
C394 C398 1.350 . S
C395 C398 1.463 1_556 S
C395 C400 1.350 . S
C395 N403 1.427 . S
C396 H387 0.930 . S
C396 C394 1.378 . S
C396 C397 1.367 . S
C397 C396 1.367 . S
C397 C399 1.433 . S
C398 C394 1.350 . S
C398 C395 1.463 1_554 S
C398 N402 1.427 . S
C399 H389 0.929 . S
C399 C397 1.433 . S
C399 N402 1.384 . S
C400 H391 0.929 . S
C400 C392 1.378 . S
C400 C395 1.350 . S
C401 H388 0.929 . S
C401 C393 1.433 . S
C401 N403 1.384 . S
N402 C398 1.427 . S
N402 C399 1.384 . S
N403 C395 1.427 . S
N403 C401 1.384 . S
H404 C410 0.930 . S
H405 C414 0.930 . S
H406 C419 0.929 . S
H407 C417 0.929 . S
H408 C412 0.929 . S
H409 C418 0.929 . S
C410 H404 0.930 . S
C410 C411 1.367 . S
C410 C418 1.378 . S
C411 C410 1.367 . S
C411 C419 1.433 . S
C412 H408 0.929 . S
C412 C414 1.378 . S
C412 C416 1.350 . S
C413 C416 1.463 1_556 S
C413 C418 1.350 . S
C413 N421 1.427 . S
C414 H405 0.930 . S
C414 C412 1.378 . S
C414 C415 1.367 . S
C415 C414 1.367 . S
C415 C417 1.433 . S
C416 C412 1.350 . S
C416 C413 1.463 1_554 S
C416 N420 1.427 . S
C417 H407 0.929 . S
C417 C415 1.433 . S
C417 N420 1.384 . S
C418 H409 0.929 . S
C418 C410 1.378 . S
C418 C413 1.350 . S
C419 H406 0.929 . S
C419 C411 1.433 . S
C419 N421 1.384 . S
N420 C416 1.427 . S
N420 C417 1.384 . S
N421 C413 1.427 . S
N421 C419 1.384 . S
H422 C428 0.930 . S
H423 C432 0.930 . S
H424 C437 0.929 . S
H425 C435 0.929 . S
H426 C430 0.929 . S
H427 C436 0.929 . S
C428 H422 0.930 . S
C428 C429 1.367 . S
C428 C436 1.378 . S
C429 C428 1.367 . S
C429 C437 1.433 . S
C430 H426 0.929 . S
C430 C432 1.378 . S
C430 C434 1.350 . S
C431 C434 1.463 1_554 S
C431 C436 1.350 . S
C431 N439 1.427 . S
C432 H423 0.930 . S
C432 C430 1.378 . S
C432 C433 1.367 . S
C433 C432 1.367 . S
C433 C435 1.433 . S
C434 C430 1.350 . S
C434 C431 1.463 1_556 S
C434 N438 1.427 . S
C435 H425 0.929 . S
C435 C433 1.433 . S
C435 N438 1.384 . S
C436 H427 0.929 . S
C436 C428 1.378 . S
C436 C431 1.350 . S
C437 H424 0.929 . S
C437 C429 1.433 . S
C437 N439 1.384 . S
N438 C434 1.427 . S
N438 C435 1.384 . S
N439 C431 1.427 . S
N439 C437 1.384 . S
H440 C446 0.930 . S
H441 C450 0.930 . S
H442 C455 0.929 . S
H443 C453 0.929 . S
H444 C448 0.929 . S
H445 C454 0.929 . S
C446 H440 0.930 . S
C446 C447 1.367 . S
C446 C454 1.378 . S
C447 C446 1.367 . S
C447 C455 1.433 . S
C448 H444 0.929 . S
C448 C450 1.378 . S
C448 C452 1.350 . S
C449 C452 1.463 . S
C449 C454 1.350 . S
C449 N457 1.427 . S
C450 H441 0.930 . S
C450 C448 1.378 . S
C450 C451 1.367 . S
C451 C450 1.367 . S
C451 C453 1.433 . S
C452 C448 1.350 . S
C452 C449 1.463 . S
C452 N456 1.427 . S
C453 H443 0.929 . S
C453 C451 1.433 . S
C453 N456 1.384 . S
C454 H445 0.929 . S
C454 C446 1.378 . S
C454 C449 1.350 . S
C455 H442 0.929 . S
C455 C447 1.433 . S
C455 N457 1.384 . S
N456 C452 1.427 . S
N456 C453 1.384 . S
N457 C449 1.427 . S
N457 C455 1.384 . S
H458 C464 0.930 . S
H459 C468 0.930 . S
H460 C473 0.929 . S
H461 C471 0.929 . S
H462 C466 0.929 . S
H463 C472 0.929 . S
C464 H458 0.930 . S
C464 C465 1.367 . S
C464 C472 1.378 . S
C465 C464 1.367 . S
C465 C473 1.433 . S
C466 H462 0.929 . S
C466 C468 1.378 . S
C466 C470 1.350 . S
C467 C470 1.463 . S
C467 C472 1.350 . S
C467 N475 1.427 . S
C468 H459 0.930 . S
C468 C466 1.378 . S
C468 C469 1.367 . S
C469 C468 1.367 . S
C469 C471 1.433 . S
C470 C466 1.350 . S
C470 C467 1.463 . S
C470 N474 1.427 . S
C471 H461 0.929 . S
C471 C469 1.433 . S
C471 N474 1.384 . S
C472 H463 0.929 . S
C472 C464 1.378 . S
C472 C467 1.350 . S
C473 H460 0.929 . S
C473 C465 1.433 . S
C473 N475 1.384 . S
N474 C470 1.427 . S
N474 C471 1.384 . S
N475 C467 1.427 . S
N475 C473 1.384 . S
H476 C482 0.930 . S
H477 C486 0.930 . S
H478 C491 0.929 . S
H479 C489 0.929 . S
H480 C484 0.929 . S
H481 C490 0.929 . S
C482 H476 0.930 . S
C482 C483 1.367 . S
C482 C490 1.378 . S
C483 C482 1.367 . S
C483 C491 1.433 . S
C484 H480 0.929 . S
C484 C486 1.378 . S
C484 C488 1.350 . S
C485 C488 1.463 . S
C485 C490 1.350 . S
C485 N493 1.427 . S
C486 H477 0.930 . S
C486 C484 1.378 . S
C486 C487 1.367 . S
C487 C486 1.367 . S
C487 C489 1.433 . S
C488 C484 1.350 . S
C488 C485 1.463 . S
C488 N492 1.427 . S
C489 H479 0.929 . S
C489 C487 1.433 . S
C489 N492 1.384 . S
C490 H481 0.929 . S
C490 C482 1.378 . S
C490 C485 1.350 . S
C491 H478 0.929 . S
C491 C483 1.433 . S
C491 N493 1.384 . S
N492 C488 1.427 . S
N492 C489 1.384 . S
N493 C485 1.427 . S
N493 C491 1.384 . S
H494 C500 0.930 . S
H495 C504 0.930 . S
H496 C509 0.929 . S
H497 C507 0.929 . S
H498 C502 0.929 . S
H499 C508 0.929 . S
C500 H494 0.930 . S
C500 C501 1.367 . S
C500 C508 1.378 . S
C501 C500 1.367 . S
C501 C509 1.433 . S
C502 H498 0.929 . S
C502 C504 1.378 . S
C502 C506 1.350 . S
C503 C506 1.463 . S
C503 C508 1.350 . S
C503 N511 1.427 . S
C504 H495 0.930 . S
C504 C502 1.378 . S
C504 C505 1.367 . S
C505 C504 1.367 . S
C505 C507 1.433 . S
C506 C502 1.350 . S
C506 C503 1.463 . S
C506 N510 1.427 . S
C507 H497 0.929 . S
C507 C505 1.433 . S
C507 N510 1.384 . S
C508 H499 0.929 . S
C508 C500 1.378 . S
C508 C503 1.350 . S
C509 H496 0.929 . S
C509 C501 1.433 . S
C509 N511 1.384 . S
N510 C506 1.427 . S
N510 C507 1.384 . S
N511 C503 1.427 . S
N511 C509 1.384 . S
H512 C518 0.930 . S
H513 C522 0.930 . S
H514 C527 0.929 . S
H515 C525 0.929 . S
H516 C520 0.929 . S
H517 C526 0.929 . S
C518 H512 0.930 . S
C518 C519 1.367 . S
C518 C526 1.378 . S
C519 C518 1.367 . S
C519 C527 1.433 . S
C520 H516 0.929 . S
C520 C522 1.378 . S
C520 C524 1.350 . S
C521 C524 1.463 . S
C521 C526 1.350 . S
C521 N529 1.427 . S
C522 H513 0.930 . S
C522 C520 1.378 . S
C522 C523 1.367 . S
C523 C522 1.367 . S
C523 C525 1.433 . S
C524 C520 1.350 . S
C524 C521 1.463 . S
C524 N528 1.427 . S
C525 H515 0.929 . S
C525 C523 1.433 . S
C525 N528 1.384 . S
C526 H517 0.929 . S
C526 C518 1.378 . S
C526 C521 1.350 . S
C527 H514 0.929 . S
C527 C519 1.433 . S
C527 N529 1.384 . S
N528 C524 1.427 . S
N528 C525 1.384 . S
N529 C521 1.427 . S
N529 C527 1.384 . S
H530 C536 0.930 . S
H531 C540 0.930 . S
H532 C545 0.929 . S
H533 C543 0.929 . S
H534 C538 0.929 . S
H535 C544 0.929 . S
C536 H530 0.930 . S
C536 C537 1.367 . S
C536 C544 1.378 . S
C537 C536 1.367 . S
C537 C545 1.433 . S
C538 H534 0.929 . S
C538 C540 1.378 . S
C538 C542 1.350 . S
C539 C542 1.463 . S
C539 C544 1.350 . S
C539 N547 1.427 . S
C540 H531 0.930 . S
C540 C538 1.378 . S
C540 C541 1.367 . S
C541 C540 1.367 . S
C541 C543 1.433 . S
C542 C538 1.350 . S
C542 C539 1.463 . S
C542 N546 1.427 . S
C543 H533 0.929 . S
C543 C541 1.433 . S
C543 N546 1.384 . S
C544 H535 0.929 . S
C544 C536 1.378 . S
C544 C539 1.350 . S
C545 H532 0.929 . S
C545 C537 1.433 . S
C545 N547 1.384 . S
N546 C542 1.427 . S
N546 C543 1.384 . S
N547 C539 1.427 . S
N547 C545 1.384 . S
H548 C554 0.930 . S
H549 C558 0.930 . S
H550 C563 0.929 . S
H551 C561 0.929 . S
H552 C556 0.929 . S
H553 C562 0.929 . S
C554 H548 0.930 . S
C554 C555 1.367 . S
C554 C562 1.378 . S
C555 C554 1.367 . S
C555 C563 1.433 . S
C556 H552 0.929 . S
C556 C558 1.378 . S
C556 C560 1.350 . S
C557 C560 1.463 . S
C557 C562 1.350 . S
C557 N565 1.427 . S
C558 H549 0.930 . S
C558 C556 1.378 . S
C558 C559 1.367 . S
C559 C558 1.367 . S
C559 C561 1.433 . S
C560 C556 1.350 . S
C560 C557 1.463 . S
C560 N564 1.427 . S
C561 H551 0.929 . S
C561 C559 1.433 . S
C561 N564 1.384 . S
C562 H553 0.929 . S
C562 C554 1.378 . S
C562 C557 1.350 . S
C563 H550 0.929 . S
C563 C555 1.433 . S
C563 N565 1.384 . S
N564 C560 1.427 . S
N564 C561 1.384 . S
N565 C557 1.427 . S
N565 C563 1.384 . S
H566 C572 0.930 . S
H567 C576 0.930 . S
H568 C581 0.929 . S
H569 C579 0.929 . S
H570 C574 0.929 . S
H571 C580 0.929 . S
C572 H566 0.930 . S
C572 C573 1.367 . S
C572 C580 1.378 . S
C573 C572 1.367 . S
C573 C581 1.433 . S
C574 H570 0.929 . S
C574 C576 1.378 . S
C574 C578 1.350 . S
C575 C578 1.463 . S
C575 C580 1.350 . S
C575 N583 1.427 . S
C576 H567 0.930 . S
C576 C574 1.378 . S
C576 C577 1.367 . S
C577 C576 1.367 . S
C577 C579 1.433 . S
C578 C574 1.350 . S
C578 C575 1.463 . S
C578 N582 1.427 . S
C579 H569 0.929 . S
C579 C577 1.433 . S
C579 N582 1.384 . S
C580 H571 0.929 . S
C580 C572 1.378 . S
C580 C575 1.350 . S
C581 H568 0.929 . S
C581 C573 1.433 . S
C581 N583 1.384 . S
N582 C578 1.427 . S
N582 C579 1.384 . S
N583 C575 1.427 . S
N583 C581 1.384 . S
H584 C590 0.930 . S
H585 C594 0.930 . S
H586 C599 0.929 . S
H587 C597 0.929 . S
H588 C592 0.929 . S
H589 C598 0.929 . S
C590 H584 0.930 . S
C590 C591 1.367 . S
C590 C598 1.378 . S
C591 C590 1.367 . S
C591 C599 1.433 . S
C592 H588 0.929 . S
C592 C594 1.378 . S
C592 C596 1.350 . S
C593 C596 1.463 . S
C593 C598 1.350 . S
C593 N601 1.427 . S
C594 H585 0.930 . S
C594 C592 1.378 . S
C594 C595 1.367 . S
C595 C594 1.367 . S
C595 C597 1.433 . S
C596 C592 1.350 . S
C596 C593 1.463 . S
C596 N600 1.427 . S
C597 H587 0.929 . S
C597 C595 1.433 . S
C597 N600 1.384 . S
C598 H589 0.929 . S
C598 C590 1.378 . S
C598 C593 1.350 . S
C599 H586 0.929 . S
C599 C591 1.433 . S
C599 N601 1.384 . S
N600 C596 1.427 . S
N600 C597 1.384 . S
N601 C593 1.427 . S
N601 C599 1.384 . S
H602 C608 0.930 . S
H603 C612 0.930 . S
H604 C617 0.929 . S
H605 C615 0.929 . S
H606 C610 0.929 . S
H607 C616 0.929 . S
C608 H602 0.930 . S
C608 C609 1.367 . S
C608 C616 1.378 . S
C609 C608 1.367 . S
C609 C617 1.433 . S
C610 H606 0.929 . S
C610 C612 1.378 . S
C610 C614 1.350 . S
C611 C614 1.463 . S
C611 C616 1.350 . S
C611 N619 1.427 . S
C612 H603 0.930 . S
C612 C610 1.378 . S
C612 C613 1.367 . S
C613 C612 1.367 . S
C613 C615 1.433 . S
C614 C610 1.350 . S
C614 C611 1.463 . S
C614 N618 1.427 . S
C615 H605 0.929 . S
C615 C613 1.433 . S
C615 N618 1.384 . S
C616 H607 0.929 . S
C616 C608 1.378 . S
C616 C611 1.350 . S
C617 H604 0.929 . S
C617 C609 1.433 . S
C617 N619 1.384 . S
N618 C614 1.427 . S
N618 C615 1.384 . S
N619 C611 1.427 . S
N619 C617 1.384 . S
H620 C626 0.930 . S
H621 C630 0.930 . S
H622 C635 0.929 . S
H623 C633 0.929 . S
H624 C628 0.929 . S
H625 C634 0.929 . S
C626 H620 0.930 . S
C626 C627 1.367 . S
C626 C634 1.378 . S
C627 C626 1.367 . S
C627 C635 1.433 . S
C628 H624 0.929 . S
C628 C630 1.378 . S
C628 C632 1.350 . S
C629 C632 1.463 . S
C629 C634 1.350 . S
C629 N637 1.427 . S
C630 H621 0.930 . S
C630 C628 1.378 . S
C630 C631 1.367 . S
C631 C630 1.367 . S
C631 C633 1.433 . S
C632 C628 1.350 . S
C632 C629 1.463 . S
C632 N636 1.427 . S
C633 H623 0.929 . S
C633 C631 1.433 . S
C633 N636 1.384 . S
C634 H625 0.929 . S
C634 C626 1.378 . S
C634 C629 1.350 . S
C635 H622 0.929 . S
C635 C627 1.433 . S
C635 N637 1.384 . S
N636 C632 1.427 . S
N636 C633 1.384 . S
N637 C629 1.427 . S
N637 C635 1.384 . S
H638 C644 0.930 . S
H639 C648 0.930 . S
H640 C653 0.929 . S
H641 C651 0.929 . S
H642 C646 0.929 . S
H643 C652 0.929 . S
C644 H638 0.930 . S
C644 C645 1.367 . S
C644 C652 1.378 . S
C645 C644 1.367 . S
C645 C653 1.433 . S
C646 H642 0.929 . S
C646 C648 1.378 . S
C646 C650 1.350 . S
C647 C650 1.463 . S
C647 C652 1.350 . S
C647 N655 1.427 . S
C648 H639 0.930 . S
C648 C646 1.378 . S
C648 C649 1.367 . S
C649 C648 1.367 . S
C649 C651 1.433 . S
C650 C646 1.350 . S
C650 C647 1.463 . S
C650 N654 1.427 . S
C651 H641 0.929 . S
C651 C649 1.433 . S
C651 N654 1.384 . S
C652 H643 0.929 . S
C652 C644 1.378 . S
C652 C647 1.350 . S
C653 H640 0.929 . S
C653 C645 1.433 . S
C653 N655 1.384 . S
N654 C650 1.427 . S
N654 C651 1.384 . S
N655 C647 1.427 . S
N655 C653 1.384 . S
H656 C662 0.930 . S
H657 C666 0.930 . S
H658 C671 0.929 . S
H659 C669 0.929 . S
H660 C664 0.929 . S
H661 C670 0.929 . S
C662 H656 0.930 . S
C662 C663 1.367 . S
C662 C670 1.378 . S
C663 C662 1.367 . S
C663 C671 1.433 . S
C664 H660 0.929 . S
C664 C666 1.378 . S
C664 C668 1.350 . S
C665 C668 1.463 1_545 S
C665 C670 1.350 . S
C665 N673 1.427 . S
C666 H657 0.930 . S
C666 C664 1.378 . S
C666 C667 1.367 . S
C667 C666 1.367 . S
C667 C669 1.433 . S
C668 C664 1.350 . S
C668 C665 1.463 1_565 S
C668 N672 1.427 . S
C669 H659 0.929 . S
C669 C667 1.433 . S
C669 N672 1.384 . S
C670 H661 0.929 . S
C670 C662 1.378 . S
C670 C665 1.350 . S
C671 H658 0.929 . S
C671 C663 1.433 . S
C671 N673 1.384 . S
N672 C668 1.427 . S
N672 C669 1.384 . S
N673 C665 1.427 . S
N673 C671 1.384 . S
H674 C680 0.930 . S
H675 C684 0.930 . S
H676 C689 0.929 . S
H677 C687 0.929 . S
H678 C682 0.929 . S
H679 C688 0.929 . S
C680 H674 0.930 . S
C680 C681 1.367 . S
C680 C688 1.378 . S
C681 C680 1.367 . S
C681 C689 1.433 . S
C682 H678 0.929 . S
C682 C684 1.378 . S
C682 C686 1.350 . S
C683 C686 1.463 1_655 S
C683 C688 1.350 . S
C683 N691 1.427 . S
C684 H675 0.930 . S
C684 C682 1.378 . S
C684 C685 1.367 . S
C685 C684 1.367 . S
C685 C687 1.433 . S
C686 C682 1.350 . S
C686 C683 1.463 1_455 S
C686 N690 1.427 . S
C687 H677 0.929 . S
C687 C685 1.433 . S
C687 N690 1.384 . S
C688 H679 0.929 . S
C688 C680 1.378 . S
C688 C683 1.350 . S
C689 H676 0.929 . S
C689 C681 1.433 . S
C689 N691 1.384 . S
N690 C686 1.427 . S
N690 C687 1.384 . S
N691 C683 1.427 . S
N691 C689 1.384 . S
H692 C698 0.930 . S
H693 C702 0.930 . S
H694 C707 0.929 . S
H695 C705 0.929 . S
H696 C700 0.929 . S
H697 C706 0.929 . S
C698 H692 0.930 . S
C698 C699 1.367 . S
C698 C706 1.378 . S
C699 C698 1.367 . S
C699 C707 1.433 . S
C700 H696 0.929 . S
C700 C702 1.378 . S
C700 C704 1.350 . S
C701 C704 1.463 1_545 S
C701 C706 1.350 . S
C701 N709 1.427 . S
C702 H693 0.930 . S
C702 C700 1.378 . S
C702 C703 1.367 . S
C703 C702 1.367 . S
C703 C705 1.433 . S
C704 C700 1.350 . S
C704 C701 1.463 1_565 S
C704 N708 1.427 . S
C705 H695 0.929 . S
C705 C703 1.433 . S
C705 N708 1.384 . S
C706 H697 0.929 . S
C706 C698 1.378 . S
C706 C701 1.350 . S
C707 H694 0.929 . S
C707 C699 1.433 . S
C707 N709 1.384 . S
N708 C704 1.427 . S
N708 C705 1.384 . S
N709 C701 1.427 . S
N709 C707 1.384 . S
H710 C716 0.930 . S
H711 C720 0.930 . S
H712 C725 0.929 . S
H713 C723 0.929 . S
H714 C718 0.929 . S
H715 C724 0.929 . S
C716 H710 0.930 . S
C716 C717 1.367 . S
C716 C724 1.378 . S
C717 C716 1.367 . S
C717 C725 1.433 . S
C718 H714 0.929 . S
C718 C720 1.378 . S
C718 C722 1.350 . S
C719 C722 1.463 1_455 S
C719 C724 1.350 . S
C719 N727 1.427 . S
C720 H711 0.930 . S
C720 C718 1.378 . S
C720 C721 1.367 . S
C721 C720 1.367 . S
C721 C723 1.433 . S
C722 C718 1.350 . S
C722 C719 1.463 1_655 S
C722 N726 1.427 . S
C723 H713 0.929 . S
C723 C721 1.433 . S
C723 N726 1.384 . S
C724 H715 0.929 . S
C724 C716 1.378 . S
C724 C719 1.350 . S
C725 H712 0.929 . S
C725 C717 1.433 . S
C725 N727 1.384 . S
N726 C722 1.427 . S
N726 C723 1.384 . S
N727 C719 1.427 . S
N727 C725 1.384 . S
H728 C734 0.930 . S
H729 C738 0.930 . S
H730 C743 0.929 . S
H731 C741 0.929 . S
H732 C736 0.929 . S
H733 C742 0.929 . S
C734 H728 0.930 . S
C734 C735 1.367 . S
C734 C742 1.378 . S
C735 C734 1.367 . S
C735 C743 1.433 . S
C736 H732 0.929 . S
C736 C738 1.378 . S
C736 C740 1.350 . S
C737 C740 1.463 1_545 S
C737 C742 1.350 . S
C737 N745 1.427 . S
C738 H729 0.930 . S
C738 C736 1.378 . S
C738 C739 1.367 . S
C739 C738 1.367 . S
C739 C741 1.433 . S
C740 C736 1.350 . S
C740 C737 1.463 1_565 S
C740 N744 1.427 . S
C741 H731 0.929 . S
C741 C739 1.433 . S
C741 N744 1.384 . S
C742 H733 0.929 . S
C742 C734 1.378 . S
C742 C737 1.350 . S
C743 H730 0.929 . S
C743 C735 1.433 . S
C743 N745 1.384 . S
N744 C740 1.427 . S
N744 C741 1.384 . S
N745 C737 1.427 . S
N745 C743 1.384 . S
H746 C752 0.930 . S
H747 C756 0.930 . S
H748 C761 0.929 . S
H749 C759 0.929 . S
H750 C754 0.929 . S
H751 C760 0.929 . S
C752 H746 0.930 . S
C752 C753 1.367 . S
C752 C760 1.378 . S
C753 C752 1.367 . S
C753 C761 1.433 . S
C754 H750 0.929 . S
C754 C756 1.378 . S
C754 C758 1.350 . S
C755 C758 1.463 1_655 S
C755 C760 1.350 . S
C755 N763 1.427 . S
C756 H747 0.930 . S
C756 C754 1.378 . S
C756 C757 1.367 . S
C757 C756 1.367 . S
C757 C759 1.433 . S
C758 C754 1.350 . S
C758 C755 1.463 1_455 S
C758 N762 1.427 . S
C759 H749 0.929 . S
C759 C757 1.433 . S
C759 N762 1.384 . S
C760 H751 0.929 . S
C760 C752 1.378 . S
C760 C755 1.350 . S
C761 H748 0.929 . S
C761 C753 1.433 . S
C761 N763 1.384 . S
N762 C758 1.427 . S
N762 C759 1.384 . S
N763 C755 1.427 . S
N763 C761 1.384 . S
H764 C770 0.930 . S
H765 C774 0.930 . S
H766 C779 0.929 . S
H767 C777 0.929 . S
H768 C772 0.929 . S
H769 C778 0.929 . S
C770 H764 0.930 . S
C770 C771 1.367 . S
C770 C778 1.378 . S
C771 C770 1.367 . S
C771 C779 1.433 . S
C772 H768 0.929 . S
C772 C774 1.378 . S
C772 C776 1.350 . S
C773 C776 1.463 1_565 S
C773 C778 1.350 . S
C773 N781 1.427 . S
C774 H765 0.930 . S
C774 C772 1.378 . S
C774 C775 1.367 . S
C775 C774 1.367 . S
C775 C777 1.433 . S
C776 C772 1.350 . S
C776 C773 1.463 1_545 S
C776 N780 1.427 . S
C777 H767 0.929 . S
C777 C775 1.433 . S
C777 N780 1.384 . S
C778 H769 0.929 . S
C778 C770 1.378 . S
C778 C773 1.350 . S
C779 H766 0.929 . S
C779 C771 1.433 . S
C779 N781 1.384 . S
N780 C776 1.427 . S
N780 C777 1.384 . S
N781 C773 1.427 . S
N781 C779 1.384 . S
H782 C788 0.930 . S
H783 C792 0.930 . S
H784 C797 0.929 . S
H785 C795 0.929 . S
H786 C790 0.929 . S
H787 C796 0.929 . S
C788 H782 0.930 . S
C788 C789 1.367 . S
C788 C796 1.378 . S
C789 C788 1.367 . S
C789 C797 1.433 . S
C790 H786 0.929 . S
C790 C792 1.378 . S
C790 C794 1.350 . S
C791 C794 1.463 1_455 S
C791 C796 1.350 . S
C791 N799 1.427 . S
C792 H783 0.930 . S
C792 C790 1.378 . S
C792 C793 1.367 . S
C793 C792 1.367 . S
C793 C795 1.433 . S
C794 C790 1.350 . S
C794 C791 1.463 1_655 S
C794 N798 1.427 . S
C795 H785 0.929 . S
C795 C793 1.433 . S
C795 N798 1.384 . S
C796 H787 0.929 . S
C796 C788 1.378 . S
C796 C791 1.350 . S
C797 H784 0.929 . S
C797 C789 1.433 . S
C797 N799 1.384 . S
N798 C794 1.427 . S
N798 C795 1.384 . S
N799 C791 1.427 . S
N799 C797 1.384 . S
C231 C81 1.405 . S
C235 C11 1.405 . S
C249 C95 1.403 . S
C253 C25 1.408 . S
C267 C39 1.403 . S
C271 C109 1.409 . S
C285 C53 1.407 . S
C289 C67 1.409 . S
C303 C193 1.404 . S
C307 C123 1.410 . S
C321 C207 1.409 . S
C325 C137 1.403 . S
C339 C151 1.403 . S
C343 C221 1.409 . S
C357 C165 1.409 . S
C361 C179 1.406 . S
C375 C149 1.541 . S
C379 C9 1.541 . S
C393 C163 1.540 . S
C397 C23 1.541 . S
C411 C121 1.540 . S
C415 C37 1.541 . S
C429 C51 1.541 . S
C433 C135 1.541 . S
C447 C205 1.541 . S
C451 C65 1.540 . S
C465 C219 1.542 . S
C469 C79 1.541 . S
C483 C93 1.540 . S
C487 C177 1.540 . S
C501 C191 1.540 . S
C505 C107 1.540 . S
C519 C61 1.929 . S
C523 C5 1.930 . S
C537 C19 1.929 . S
C541 C75 1.930 . S
C555 C33 1.928 . S
C559 C89 1.927 . S
C573 C103 1.928 . S
C577 C47 1.930 . S
C591 C112 0.922 . S
C595 C168 0.932 . S
C609 C182 0.915 . S
C613 C126 0.930 . S
C627 C140 0.917 . S
C631 C196 0.913 . S
C645 C210 0.916 . S
C649 C154 0.931 . S
C663 C159 1.929 . S
C667 C187 1.930 . S
C681 C117 1.927 . S
C685 C201 1.928 . S
C699 C215 1.928 . S
C703 C131 1.927 . S
C717 C145 1.927 . S
C721 C173 1.928 . S
C735 C70 0.923 . S
C739 C42 0.932 . S
C753 C84 0.927 . S
C757 C0 0.930 . S
C771 C98 0.916 . S
C775 C14 0.913 . S
C789 C56 0.931 . S
C793 C28 0.926 . S
