# Generated by pormake.
# Topology dft, (4)-cn, num edge types: 1
# Building blocks:
#     Node 0, Type 0, BuildingBlock: CEKHIL_clean_sbu_0, # of connection points: 4
#     Node 1, Type 0, BuildingBlock: CEKHIL_clean_sbu_0, # of connection points: 4
#     Node 2, Type 0, BuildingBlock: CEKHIL_clean_sbu_0, # of connection points: 4
#     Node 3, Type 0, BuildingBlock: CEKHIL_clean_sbu_0, # of connection points: 4
#     Node 4, Type 0, BuildingBlock: CEKHIL_clean_sbu_0, # of connection points: 4
#     Node 5, Type 0, BuildingBlock: CEKHIL_clean_sbu_0, # of connection points: 4
#     Node 6, Type 0, BuildingBlock: CEKHIL_clean_sbu_0, # of connection points: 4
#     Node 7, Type 0, BuildingBlock: CEKHIL_clean_sbu_0, # of connection points: 4
#     Edge 8, Type (0, 0), BuildingBlock: FUNLAD_clean_linker_0, # of connection points: 2
#     Edge 9, Type (0, 0), BuildingBlock: FUNLAD_clean_linker_0, # of connection points: 2
#     Edge 10, Type (0, 0), BuildingBlock: FUNLAD_clean_linker_0, # of connection points: 2
#     Edge 11, Type (0, 0), BuildingBlock: FUNLAD_clean_linker_0, # of connection points: 2
#     Edge 12, Type (0, 0), BuildingBlock: FUNLAD_clean_linker_0, # of connection points: 2
#     Edge 13, Type (0, 0), BuildingBlock: FUNLAD_clean_linker_0, # of connection points: 2
#     Edge 14, Type (0, 0), BuildingBlock: FUNLAD_clean_linker_0, # of connection points: 2
#     Edge 15, Type (0, 0), BuildingBlock: FUNLAD_clean_linker_0, # of connection points: 2
#     Edge 16, Type (0, 0), BuildingBlock: FUNLAD_clean_linker_0, # of connection points: 2
#     Edge 17, Type (0, 0), BuildingBlock: FUNLAD_clean_linker_0, # of connection points: 2
#     Edge 18, Type (0, 0), BuildingBlock: FUNLAD_clean_linker_0, # of connection points: 2
#     Edge 19, Type (0, 0), BuildingBlock: FUNLAD_clean_linker_0, # of connection points: 2
#     Edge 20, Type (0, 0), BuildingBlock: FUNLAD_clean_linker_0, # of connection points: 2
#     Edge 21, Type (0, 0), BuildingBlock: FUNLAD_clean_linker_0, # of connection points: 2
#     Edge 22, Type (0, 0), BuildingBlock: FUNLAD_clean_linker_0, # of connection points: 2
#     Edge 23, Type (0, 0), BuildingBlock: FUNLAD_clean_linker_0, # of connection points: 2
# Relax obj value: 0.182
# Max RMSD: 0.171
# Mean RMSD: 0.171
data_MOF--net-dft--node1-CEKHIL_clean_sbu_0--edge1-FUNLAD_clean_linker_0
_symmetry_space_group_name_H-M    P1
_symmetry_Int_Tables_number       1
_symmetry_cell_setting            triclinic
loop_
_symmetry_equiv_pos_as_xyz
'x, y, z'
_cell_length_a     39.471058
_cell_length_b     39.471457
_cell_length_c     47.470378
_cell_angle_alpha  90.114712
_cell_angle_beta   90.028831
_cell_angle_gamma 90.011882
loop_
_atom_site_label
_atom_site_type_symbol
_atom_site_fract_x
_atom_site_fract_y
_atom_site_fract_z
_atom_type_partial_charge
Co0 Co 0.33381 0.04191 0.17546 0.0
O1 O 0.37534 0.01649 0.17241 0.0
O2 O 0.37145 0.06984 0.18672 0.0
C3 C 0.30361 0.00086 0.19626 0.0
O4 O 0.29616 0.07618 0.18324 0.0
Co5 Co 0.26705 0.02033 0.14587 0.0
O6 O 0.24572 0.0575 0.16762 0.0
C7 C 0.32772 0.03933 0.11341 0.0
C8 C 0.39048 0.04379 0.18119 0.0
C9 C 0.26373 0.07887 0.18108 0.0
O10 O 0.33914 0.05579 0.13485 0.0
O11 O 0.30103 0.02097 0.11455 0.0
O12 O 0.32341 0.01999 0.21143 0.0
O13 O 0.30449 0.00589 0.1695 0.0
Co14 Co 0.0588 0.33946 0.67292 0.0
O15 O 0.08335 0.38159 0.6735 0.0
O16 O 0.02839 0.37611 0.68191 0.0
C17 C 0.09679 0.30935 0.6976 0.0
O18 O 0.02489 0.30046 0.67597 0.0
Co19 Co 0.0879 0.27486 0.64417 0.0
O20 O 0.04971 0.25157 0.66306 0.0
C21 C 0.06895 0.33464 0.61069 0.0
C22 C 0.05464 0.39584 0.67972 0.0
C23 C 0.02499 0.2679 0.67378 0.0
O24 O 0.05068 0.34567 0.63124 0.0
O25 O 0.08819 0.30868 0.6128 0.0
O26 O 0.07519 0.32853 0.71084 0.0
O27 O 0.09632 0.31134 0.67055 0.0
Co28 Co 0.76102 0.05239 0.18055 0.0
O29 O 0.71784 0.07311 0.17316 0.0
O30 O 0.72505 0.02106 0.18951 0.0
C31 C 0.78329 0.09757 0.20274 0.0
O32 O 0.80111 0.02269 0.19231 0.0
Co33 Co 0.82877 0.0815 0.15743 0.0
O34 O 0.84944 0.05182 0.18621 0.0
C35 C 0.78053 0.04643 0.11933 0.0
C36 C 0.70438 0.04496 0.18176 0.0
C37 C 0.83319 0.02671 0.19623 0.0
O38 O 0.76264 0.03596 0.14027 0.0
O39 O 0.80604 0.06624 0.12199 0.0
O40 O 0.76418 0.07654 0.21661 0.0
O41 O 0.78656 0.0916 0.17623 0.0
Co42 Co 0.04745 0.7663 0.68506 0.0
O43 O 0.02472 0.7235 0.68122 0.0
O44 O 0.07785 0.73 0.69534 0.0
C45 C 0.00448 0.7927 0.70696 0.0
O46 O 0.07907 0.8063 0.69295 0.0
Co47 Co 0.0196 0.83134 0.65652 0.0
O48 O 0.05448 0.85495 0.6793 0.0
C49 C 0.04588 0.77445 0.62268 0.0
C50 C 0.05285 0.70968 0.68945 0.0
C51 C 0.07826 0.83893 0.69164 0.0
O52 O 0.06166 0.76305 0.64441 0.0
O53 O 0.0253 0.79947 0.6239 0.0
O54 O 0.02536 0.77409 0.72146 0.0
O55 O 0.0091 0.79282 0.68013 0.0
Co56 Co 0.33938 0.07277 0.81508 0.0
O57 O 0.38298 0.09438 0.81466 0.0
O58 O 0.37397 0.03996 0.80587 0.0
C59 C 0.31203 0.11302 0.79072 0.0
O60 O 0.29786 0.04185 0.81192 0.0
Co61 Co 0.27757 0.10684 0.84435 0.0
O62 O 0.2514 0.07103 0.82471 0.0
C63 C 0.33618 0.08318 0.87728 0.0
C64 C 0.39538 0.06486 0.80838 0.0
C65 C 0.2654 0.04499 0.81387 0.0
O66 O 0.34528 0.06399 0.85666 0.0
O67 O 0.31181 0.10445 0.87543 0.0
O68 O 0.32937 0.09005 0.77729 0.0
O69 O 0.31424 0.11228 0.81774 0.0
Co70 Co 0.02839 0.34035 0.30942 0.0
O71 O 0.00113 0.38074 0.31198 0.0
O72 O 0.05503 0.3792 0.29896 0.0
C73 C 0.98959 0.30833 0.28734 0.0
O74 O 0.06429 0.30404 0.30229 0.0
Co75 Co 0.00817 0.27297 0.33863 0.0
O76 O 0.04633 0.25303 0.31715 0.0
C77 C 0.02551 0.33364 0.37176 0.0
C78 C 0.02797 0.39705 0.30378 0.0
C79 C 0.06763 0.27165 0.30425 0.0
O80 O 0.04115 0.34607 0.35035 0.0
O81 O 0.00797 0.30642 0.37041 0.0
O82 O 0.00815 0.32929 0.27287 0.0
O83 O 0.99338 0.30948 0.31427 0.0
Co84 Co 0.76526 0.04093 0.81011 0.0
O85 O 0.72146 0.0208 0.81584 0.0
O86 O 0.73028 0.07225 0.79874 0.0
C87 C 0.78918 0.99541 0.78979 0.0
O88 O 0.80666 0.06968 0.79977 0.0
Co89 Co 0.83009 0.0116 0.83852 0.0
O90 O 0.85384 0.04089 0.81115 0.0
C91 C 0.7805 0.05028 0.87217 0.0
C92 C 0.70887 0.04879 0.80608 0.0
C93 C 0.83907 0.06551 0.79891 0.0
O94 O 0.76411 0.05899 0.84991 0.0
O95 O 0.80592 0.03019 0.87214 0.0
O96 O 0.77071 0.01588 0.77481 0.0
O97 O 0.79014 0.00163 0.81643 0.0
Co98 Co 0.06358 0.76246 0.31827 0.0
O99 O 0.08712 0.72 0.31628 0.0
O100 O 0.03365 0.72787 0.30359 0.0
C101 C 0.10526 0.79407 0.2998 0.0
O102 O 0.03164 0.80313 0.3157 0.0
Co103 Co 0.09165 0.82138 0.35541 0.0
O104 O 0.05894 0.8486 0.3332 0.0
C105 C 0.06515 0.75907 0.38106 0.0
C106 C 0.05922 0.70732 0.30637 0.0
C107 C 0.03454 0.83538 0.31939 0.0
O108 O 0.04945 0.75169 0.35811 0.0
O109 O 0.08604 0.78373 0.38325 0.0
O110 O 0.08503 0.77731 0.28318 0.0
O111 O 0.10144 0.78856 0.32631 0.0
C112 C 0.36919 0.06586 0.07961 0.0
C113 C 0.34636 0.03984 0.08643 0.0
C114 C 0.38451 0.06663 0.05296 0.0
C115 C 0.37732 0.04119 0.03292 0.0
C116 C 0.35654 0.01403 0.04069 0.0
C117 C 0.34104 0.01347 0.06697 0.0
C118 C 0.38731 0.04354 0.00286 0.0
C119 C 0.38985 0.07344 0.9895 0.0
C120 C 0.38233 0.07688 0.95899 0.0
C121 C 0.36605 0.10656 0.95021 0.0
C122 C 0.35196 0.10869 0.9234 0.0
C123 C 0.35427 0.08134 0.9045 0.0
H124 H 0.40039 0.02749 0.94516 0.0
C125 C 0.37306 0.05263 0.91231 0.0
C126 C 0.38697 0.05036 0.93941 0.0
H127 H 0.37586 0.03146 0.89795 0.0
H128 H 0.37433 0.08612 0.09443 0.0
H129 H 0.40126 0.08747 0.04797 0.0
H130 H 0.35077 0.99394 0.02583 0.0
H131 H 0.32433 0.9925 0.07182 0.0
H132 H 0.38501 0.02048 0.9905 0.0
H133 H 0.38987 0.09665 0.00181 0.0
H134 H 0.3624 0.12752 0.96468 0.0
H135 H 0.33845 0.1316 0.91778 0.0
C136 C 0.04114 0.37302 0.57519 0.0
C137 C 0.06831 0.35216 0.5832 0.0
C138 C 0.03975 0.38645 0.5479 0.0
C139 C 0.06566 0.37931 0.52832 0.0
C140 C 0.09394 0.36074 0.5372 0.0
C141 C 0.09516 0.34712 0.5642 0.0
C142 C 0.06283 0.38706 0.49782 0.0
C143 C 0.03284 0.38719 0.48436 0.0
C144 C 0.02985 0.37895 0.45394 0.0
C145 C 0.00152 0.36023 0.44534 0.0
C146 C 5e-05 0.34632 0.41843 0.0
C147 C 0.02663 0.35132 0.3992 0.0
H148 H 0.07738 0.40109 0.43987 0.0
C149 C 0.05388 0.37227 0.4069 0.0
C150 C 0.0556 0.38589 0.43418 0.0
H151 H 0.07442 0.377 0.39231 0.0
H152 H 0.0204 0.37787 0.58958 0.0
H153 H 0.01804 0.40162 0.54205 0.0
H154 H 0.11441 0.35511 0.52272 0.0
H155 H 0.11692 0.33189 0.56991 0.0
H156 H 0.086 0.38549 0.48555 0.0
H157 H 0.00964 0.38618 0.49661 0.0
H158 H 0.9812 0.35473 0.45999 0.0
H159 H 0.97825 0.33099 0.41289 0.0
C160 C 0.73879 0.0509 0.91131 0.0
C161 C 0.76932 0.06259 0.89973 0.0
C162 C 0.73262 0.05453 0.94022 0.0
C163 C 0.75687 0.07026 0.95761 0.0
C164 C 0.78584 0.08461 0.9453 0.0
C165 C 0.79229 0.08032 0.91669 0.0
C166 C 0.75526 0.06941 0.98875 0.0
C167 C 0.74075 0.04421 0.00359 0.0
C168 C 0.75054 0.03906 0.03335 0.0
C169 C 0.72611 0.03452 0.05448 0.0
C170 C 0.73589 0.0342 0.08291 0.0
C171 C 0.77023 0.03809 0.09027 0.0
H172 H 0.8044 0.04205 0.02471 0.0
C173 C 0.79469 0.03939 0.06885 0.0
C174 C 0.78497 0.03983 0.04073 0.0
H175 H 0.82138 0.04177 0.07385 0.0
H176 H 0.72094 0.03684 0.89847 0.0
H177 H 0.70966 0.04389 0.94896 0.0
H178 H 0.80482 0.09703 0.95821 0.0
H179 H 0.81611 0.08923 0.9081 0.0
H180 H 0.77129 0.08741 -6e-05 0.0
H181 H 0.72424 0.02573 0.99367 0.0
H182 H 0.69946 0.03323 0.0491 0.0
H183 H 0.71652 0.03316 0.09905 0.0
C184 C 0.08671 0.72975 0.42335 0.0
C185 C 0.05902 0.73912 0.4066 0.0
C186 C 0.08171 0.71753 0.45053 0.0
C187 C 0.04878 0.71546 0.4618 0.0
C188 C 0.02101 0.72168 0.44389 0.0
C189 C 0.02608 0.73332 0.41638 0.0
C190 C 0.04234 0.71236 0.49259 0.0
C191 C 0.06656 0.71651 0.5124 0.0
C192 C 0.05884 0.72756 0.54156 0.0
C193 C 0.0825 0.72161 0.56313 0.0
C194 C 0.07817 0.73619 0.5898 0.0
C195 C 0.05047 0.75763 0.5951 0.0
H196 H 0.01247 0.75447 0.53099 0.0
C197 C 0.02656 0.76304 0.57363 0.0
C198 C 0.03065 0.74823 0.54723 0.0
H199 H 0.00474 0.77918 0.57704 0.0
H200 H 0.11239 0.73338 0.41584 0.0
H201 H 0.10394 0.71163 0.46282 0.0
H202 H 0.99532 0.71991 0.4518 0.0
H203 H 0.00437 0.74027 0.40367 0.0
H204 H 0.01599 0.71167 0.49921 0.0
H205 H 0.09316 0.71557 0.50692 0.0
H206 H 0.10474 0.70626 0.55914 0.0
H207 H 0.09695 0.73146 0.60596 0.0
C208 C 0.44796 0.01794 0.17561 0.0
C209 C 0.42773 0.04551 0.18381 0.0
C210 C 0.48327 0.02011 0.17686 0.0
C211 C 0.4991 0.0499 0.18661 0.0
C212 C 0.47876 0.07732 0.19496 0.0
C213 C 0.44347 0.07516 0.19365 0.0
C214 C 0.53654 0.05419 0.18689 0.0
C215 C 0.55877 0.02828 0.18614 0.0
C216 C 0.59609 0.03328 0.18512 0.0
C217 C 0.61746 0.00716 0.19446 0.0
C218 C 0.65269 0.01082 0.1934 0.0
C219 C 0.66723 0.04064 0.18275 0.0
H220 H 0.59531 0.08313 0.16561 0.0
C221 C 0.64589 0.06658 0.17302 0.0
C222 C 0.61075 0.06291 0.17404 0.0
H223 H 0.65632 0.08973 0.1644 0.0
H224 H 0.43655 0.99484 0.1677 0.0
H225 H 0.49784 -0.00129 0.16941 0.0
H226 H 0.49021 0.10066 0.20235 0.0
H227 H 0.42858 0.09689 0.20006 0.0
H228 H 0.54599 0.07996 0.18846 0.0
H229 H 0.54966 0.00238 0.18726 0.0
H230 H 0.60688 0.98391 0.20279 0.0
H231 H 0.66849 0.99033 0.20097 0.0
C232 C 0.08004 0.45383 0.67829 0.0
C233 C 0.05197 0.4329 0.6835 0.0
C234 C 0.07739 0.48898 0.68098 0.0
C235 C 0.04659 0.50399 0.6893 0.0
C236 C 0.0186 0.48294 0.69459 0.0
C237 C 0.02123 0.44779 0.69176 0.0
C238 C 0.04196 0.54135 0.69117 0.0
C239 C 0.06769 0.5638 0.69259 0.0
C240 C 0.06272 0.60118 0.69261 0.0
C241 C 0.08916 0.62214 0.70214 0.0
C242 C 0.08598 0.65743 0.70143 0.0
C243 C 0.05626 0.67247 0.69108 0.0
H244 H 0.01251 0.60145 0.67352 0.0
C245 C 0.02982 0.65158 0.68151 0.0
C246 C 0.03305 0.61639 0.68207 0.0
H247 H 0.00674 0.66241 0.67308 0.0
H248 H 0.10401 0.44311 0.67164 0.0
H249 H 0.09935 0.50408 0.6758 0.0
H250 H 0.99448 0.49373 0.70078 0.0
H251 H -0.00089 0.43233 0.69588 0.0
H252 H 0.01604 0.55044 0.69192 0.0
H253 H 0.09354 0.55477 0.69442 0.0
H254 H 0.11244 0.61118 0.71008 0.0
H255 H 0.10685 0.67289 0.70885 0.0
C256 C 0.64969 0.02838 0.81356 0.0
C257 C 0.67186 0.05359 0.80377 0.0
C258 C 0.61466 0.03279 0.81188 0.0
C259 C 0.60094 0.06246 0.80005 0.0
C260 C 0.62318 0.0877 0.79038 0.0
C261 C 0.65828 0.08331 0.79215 0.0
C262 C 0.56381 0.0688 0.79885 0.0
C263 C 0.54025 0.0441 0.80042 0.0
C264 C 0.50312 0.0506 0.80125 0.0
C265 C 0.48074 0.02381 0.79534 0.0
C266 C 0.44567 0.0284 0.79727 0.0
C267 C 0.43229 0.05994 0.80524 0.0
H268 H 0.50569 0.10324 0.81499 0.0
C269 C 0.45459 0.08679 0.81107 0.0
C270 C 0.48958 0.08217 0.80928 0.0
H271 H 0.44507 0.11132 0.81757 0.0
H272 H 0.65938 0.00531 0.8229 0.0
H273 H 0.59864 0.01318 0.82053 0.0
H274 H 0.61337 0.11097 0.78146 0.0
H275 H 0.67472 0.10325 0.78451 0.0
H276 H 0.55589 0.09488 0.79599 0.0
H277 H 0.54819 0.01779 0.80064 0.0
H278 H 0.49041 -0.00087 0.78937 0.0
H279 H 0.42911 0.0072 0.79273 0.0
C280 C 0.05789 0.45165 0.29413 0.0
C281 C 0.0279 0.43429 0.30073 0.0
C282 C 0.05819 0.48697 0.29229 0.0
C283 C 0.02828 0.50578 0.29675 0.0
C284 C 0.99828 0.48825 0.30311 0.0
C285 C 0.99804 0.45293 0.30505 0.0
C286 C 0.02756 0.54352 0.29671 0.0
C287 C 0.05258 0.56311 0.28638 0.0
C288 C 0.0532 0.60047 0.28982 0.0
C289 C 0.08468 0.61655 0.29276 0.0
C290 C 0.08651 0.65133 0.29777 0.0
C291 C 0.05687 0.67092 0.29942 0.0
H292 H -0.00117 0.60873 0.28761 0.0
C293 C 0.02535 0.65517 0.29529 0.0
C294 C 0.02348 0.62018 0.29063 0.0
H295 H 0.00211 0.66972 0.29625 0.0
H296 H 0.08137 0.438 0.29089 0.0
H297 H 0.08219 0.49911 0.28815 0.0
H298 H 0.97492 0.50195 0.30686 0.0
H299 H 0.97449 0.44027 0.3102 0.0
H300 H 0.00583 0.55556 0.30656 0.0
H301 H 0.07467 0.55167 0.27672 0.0
H302 H 0.10794 0.60201 0.29197 0.0
H303 H 0.11122 0.6628 0.3006 0.0
C304 C 0.10723 0.2226 0.29769 0.0
C305 C 0.0961 0.2549 0.28937 0.0
C306 C 0.13154 0.20516 0.28187 0.0
C307 C 0.14489 0.21949 0.25713 0.0
C308 C 0.13419 0.25197 0.24908 0.0
C309 C 0.11039 0.26972 0.26523 0.0
C310 C 0.16748 0.19982 0.23815 0.0
C311 C 0.19021 0.17714 0.24769 0.0
C312 C 0.21016 0.15481 0.22869 0.0
C313 C 0.24272 0.14443 0.23685 0.0
C314 C 0.26083 0.12099 0.22061 0.0
C315 C 0.24632 0.10671 0.19627 0.0
H316 H 0.17072 0.14831 0.19725 0.0
C317 C 0.21388 0.11745 0.1879 0.0
C318 C 0.19607 0.14142 0.20382 0.0
H319 H 0.20197 0.10686 0.1693 0.0
H320 H 0.09663 0.21045 0.31613 0.0
H321 H 0.13866 0.17986 0.28835 0.0
H322 H 0.14388 0.26344 0.22999 0.0
H323 H 0.1021 0.29442 0.2581 0.0
H324 H 0.16544 0.2044 0.21564 0.0
H325 H 0.19465 0.17496 0.27021 0.0
H326 H 0.25399 0.15413 0.25606 0.0
H327 H 0.28563 0.113 0.22779 0.0
C328 C 0.99425 0.21298 0.68081 0.0
C329 C 0.99603 0.24818 0.68524 0.0
C330 C 0.969 0.19362 0.69363 0.0
C331 C 0.94501 0.20888 0.71152 0.0
C332 C 0.94568 0.24424 0.71486 0.0
C333 C 0.97099 0.26372 0.70195 0.0
C334 C 0.91951 0.18839 0.7272 0.0
C335 C 0.92606 0.15645 0.73567 0.0
C336 C 0.90262 0.13485 0.75243 0.0
C337 C 0.91636 0.10667 0.76629 0.0
C338 C 0.89575 0.08465 0.7815 0.0
C339 C 0.86056 0.08998 0.78319 0.0
H340 H 0.85569 0.16153 0.74326 0.0
C341 C 0.84662 0.11826 0.76938 0.0
C342 C 0.86742 0.14051 0.75412 0.0
H343 H 0.81961 0.12305 0.7701 0.0
H344 H 0.01271 0.20014 0.66772 0.0
H345 H 0.96852 0.16665 0.68952 0.0
H346 H 0.92723 0.25673 0.72821 0.0
H347 H 0.97145 0.29078 0.70573 0.0
H348 H 0.89614 0.20072 0.7335 0.0
H349 H 0.9509 0.14579 0.73135 0.0
H350 H 0.9433 0.10152 0.7653 0.0
H351 H 0.90756 0.06319 0.79175 0.0
C352 C 0.97914 0.84677 0.29437 0.0
C353 C 0.00988 0.85861 0.30581 0.0
C354 C 0.95726 0.86898 0.28015 0.0
C355 C 0.96601 0.90334 0.27686 0.0
C356 C 0.99658 0.915 0.28838 0.0
C357 C 0.01806 0.89309 0.30285 0.0
C358 C 0.9453 0.92771 0.2604 0.0
C359 C 0.91134 0.92605 0.25745 0.0
C360 C 0.8913 0.95239 0.24219 0.0
C361 C 0.85849 0.94462 0.23259 0.0
C362 C 0.83924 0.96872 0.21793 0.0
C363 C 0.8525 0.00113 0.21253 0.0
H364 H 0.92823 0.99331 0.2457 0.0
C365 C 0.88493 0.00914 0.22277 0.0
C366 C 0.90391 0.98532 0.23761 0.0
H367 H 0.89568 0.03409 0.21957 0.0
H368 H 0.97218 0.82031 0.29613 0.0
H369 H 0.9342 0.85897 0.27104 0.0
H370 H 0.00405 0.94128 0.28604 0.0
H371 H 0.04161 0.90316 0.31108 0.0
H372 H 0.95914 0.94856 0.25103 0.0
H373 H 0.89763 0.90487 0.26653 0.0
H374 H 0.84783 0.91969 0.23615 0.0
H375 H 0.81423 0.96178 0.21049 0.0
C376 C 0.10538 0.89459 0.70375 0.0
C377 C 0.10564 0.85899 0.70534 0.0
C378 C 0.13 0.91387 0.71756 0.0
C379 C 0.1555 0.89812 0.73358 0.0
C380 C 0.15655 0.86256 0.73444 0.0
C381 C 0.13179 0.84317 0.72062 0.0
C382 C 0.18137 0.9183 0.74922 0.0
C383 C 0.17441 0.9492 0.75995 0.0
C384 C 0.19895 0.97113 0.77541 0.0
C385 C 0.18599 0.99818 0.7913 0.0
C386 C 0.20759 0.02128 0.80446 0.0
C387 C 0.24298 0.0182 0.80199 0.0
H388 H 0.24547 0.94723 0.76097 0.0
C389 C 0.25614 0.99063 0.78663 0.0
C390 C 0.23438 0.96734 0.77342 0.0
H391 H 0.28324 0.98755 0.78412 0.0
H392 H 0.08599 0.90777 0.69191 0.0
H393 H 0.12904 0.94115 0.71543 0.0
H394 H 0.17615 0.84974 0.74631 0.0
H395 H 0.13295 0.81582 0.7222 0.0
H396 H 0.20585 0.90667 0.75308 0.0
H397 H 0.14876 0.95891 0.75805 0.0
H398 H 0.15888 0.00186 0.7932 0.0
H399 H 0.19636 0.04206 0.81609 0.0
C400 C 0.83093 0.94877 0.79501 0.0
C401 C 0.81104 0.96916 0.77732 0.0
C402 C 0.85339 0.92519 0.78373 0.0
C403 C 0.85623 0.92121 0.75438 0.0
C404 C 0.83596 0.94132 0.73669 0.0
C405 C 0.81346 0.96504 0.74804 0.0
C406 C 0.88149 0.89811 0.74145 0.0
C407 C 0.8962 0.87206 0.75517 0.0
C408 C 0.92328 0.85092 0.7425 0.0
C409 C 0.94656 0.83448 0.76025 0.0
C410 C 0.97313 0.81536 0.74892 0.0
C411 C 0.97668 0.81235 0.71963 0.0
H412 H 0.90819 0.85781 0.69877 0.0
C413 C 0.95288 0.82804 0.70193 0.0
C414 C 0.92634 0.84687 0.7132 0.0
H415 H 0.95456 0.82563 0.67924 0.0
H416 H 0.82971 0.95145 0.8177 0.0
H417 H 0.86913 0.91115 0.79821 0.0
H418 H 0.83782 0.93895 0.714 0.0
H419 H 0.79847 0.9805 0.73392 0.0
H420 H 0.88866 0.9036 0.71988 0.0
H421 H 0.88932 0.86651 0.77678 0.0
H422 H 0.94451 0.83689 0.78293 0.0
H423 H 0.99097 0.80325 0.76302 0.0
C424 C 0.27703 0.9707 0.23719 0.0
C425 C 0.28122 0.97467 0.20805 0.0
C426 C 0.25556 0.94543 0.24761 0.0
C427 C 0.23806 0.9238 0.22892 0.0
C428 C 0.24286 0.92757 0.19989 0.0
C429 C 0.26398 0.95282 0.18955 0.0
C430 C 0.21499 0.89664 0.23853 0.0
C431 C 0.1982 0.89765 0.2631 0.0
C432 C 0.17422 0.87077 0.27169 0.0
C433 C 0.16989 0.8644 0.30045 0.0
C434 C 0.14769 0.83922 0.30942 0.0
C435 C 0.12892 0.82022 0.28978 0.0
H436 H 0.157 0.85706 0.22961 0.0
C437 C 0.13272 0.8269 0.26097 0.0
C438 C 0.15516 0.85203 0.25195 0.0
H439 H 0.11829 0.81287 0.24542 0.0
H440 H 0.29029 0.98704 0.25188 0.0
H441 H 0.25325 0.94263 0.27019 0.0
H442 H 0.22991 0.91112 0.18508 0.0
H443 H 0.26688 0.95503 0.16694 0.0
H444 H 0.21088 0.87555 0.22419 0.0
H445 H 0.20234 0.91842 0.27772 0.0
H446 H 0.18403 0.87869 0.31604 0.0
H447 H 0.14522 0.83476 0.33183 0.0
C448 C 0.13851 0.26247 0.6955 0.0
C449 C 0.11974 0.28548 0.71182 0.0
C450 C 0.16136 0.2404 0.70809 0.0
C451 C 0.16649 0.24121 0.73738 0.0
C452 C 0.14704 0.26357 0.75385 0.0
C453 C 0.12383 0.28561 0.74117 0.0
C454 C 0.19136 0.21863 0.75133 0.0
C455 C 0.21829 0.20515 0.73785 0.0
C456 C 0.24281 0.18214 0.75164 0.0
C457 C 0.2607 0.15858 0.73512 0.0
C458 C 0.28356 0.13606 0.74759 0.0
C459 C 0.28903 0.13706 0.77677 0.0
H460 H 0.23695 0.20233 0.79402 0.0
C461 C 0.27187 0.16128 0.79313 0.0
C462 C 0.24912 0.18367 0.78073 0.0
H463 H 0.27596 0.16303 0.81565 0.0
H464 H 0.13562 0.26139 0.67283 0.0
H465 H 0.17457 0.2226 0.69469 0.0
H466 H 0.15018 0.26435 0.77652 0.0
H467 H 0.10955 0.30301 0.75424 0.0
H468 H 0.18725 0.21328 0.77348 0.0
H469 H 0.22254 0.21046 0.71573 0.0
H470 H 0.25657 0.15723 0.71258 0.0
H471 H 0.29663 0.11777 0.73449 0.0
C472 C 0.94816 0.26133 0.29179 0.0
C473 C 0.96592 0.28399 0.27445 0.0
C474 C 0.92495 0.23862 0.28033 0.0
C475 C 0.91869 0.23828 0.2512 0.0
C476 C 0.93699 0.26045 0.23374 0.0
C477 C 0.96036 0.28325 0.24527 0.0
C478 C 0.89426 0.21432 0.23829 0.0
C479 C 0.86798 0.20058 0.25242 0.0
C480 C 0.84457 0.17554 0.2396 0.0
C481 C 0.82775 0.15217 0.25702 0.0
C482 C 0.80697 0.12706 0.24533 0.0
C483 C 0.8027 0.12512 0.21604 0.0
H484 H 0.84992 0.19292 0.19636 0.0
C485 C 0.81832 0.1494 0.1988 0.0
C486 C 0.8388 0.17447 0.21041 0.0
H487 H 0.81491 0.14897 0.17615 0.0
H488 H 0.95216 0.26102 0.31437 0.0
H489 H 0.91251 0.22109 0.29442 0.0
H490 H 0.93294 0.26036 0.21116 0.0
H491 H 0.97383 0.30035 0.23142 0.0
H492 H 0.89842 0.20789 0.21632 0.0
H493 H 0.86383 0.20691 0.2744 0.0
H494 H 0.83139 0.1528 0.27963 0.0
H495 H 0.79501 0.10875 0.25908 0.0
loop_
_geom_bond_atom_site_label_1
_geom_bond_atom_site_label_2
_geom_bond_distance
_geom_bond_site_symmetry_2
_ccdc_geom_bond_type
Co0 O1 2.216 . S
Co0 O2 2.091 . S
Co0 O4 2.004 . S
Co0 O10 2.021 . S
Co0 O12 2.137 . S
Co0 O13 2.227 1_545 S
O1 Co0 2.216 . S
O1 C8 1.247 . S
O2 Co0 2.091 . S
O2 C8 1.261 . S
C3 O12 1.247 1_565 S
C3 O13 1.279 . S
O4 Co0 2.004 . S
O4 C9 1.259 . S
Co5 O6 2.061 . S
Co5 O11 2.052 . S
Co5 O13 2.125 1_545 S
O6 Co5 2.061 . S
O6 C9 1.235 . S
C7 O10 1.238 . S
C7 O11 1.241 . S
C8 O1 1.247 . S
C8 O2 1.261 . S
C9 O4 1.259 . S
C9 O6 1.235 . S
O10 Co0 2.021 . S
O10 C7 1.238 . S
O11 Co5 2.052 . S
O11 C7 1.241 . S
O12 Co0 2.137 . S
O12 C3 1.247 1_545 S
O13 Co0 2.227 1_565 S
O13 C3 1.279 . S
O13 Co5 2.125 1_565 S
Co14 O15 2.216 . S
Co14 O16 2.091 . S
Co14 O18 2.004 . S
Co14 O24 2.021 . S
Co14 O26 2.137 . S
Co14 O27 2.244 . S
O15 Co14 2.216 . S
O15 C22 1.247 . S
O16 Co14 2.091 . S
O16 C22 1.261 . S
C17 O26 1.247 . S
C17 O27 1.272 . S
O18 Co14 2.004 . S
O18 C23 1.259 . S
Co19 O20 2.061 . S
Co19 O25 2.052 . S
Co19 O27 2.135 . S
O20 Co19 2.061 . S
O20 C23 1.235 . S
C21 O24 1.238 . S
C21 O25 1.241 . S
C22 O15 1.247 . S
C22 O16 1.261 . S
C23 O18 1.259 . S
C23 O20 1.235 . S
O24 Co14 2.021 . S
O24 C21 1.238 . S
O25 Co19 2.052 . S
O25 C21 1.241 . S
O26 Co14 2.137 . S
O26 C17 1.247 . S
O27 Co14 2.244 . S
O27 C17 1.272 . S
O27 Co19 2.135 . S
Co28 O29 2.216 . S
Co28 O30 2.091 . S
Co28 O32 2.004 . S
Co28 O38 2.021 . S
Co28 O40 2.137 . S
Co28 O41 2.244 . S
O29 Co28 2.216 . S
O29 C36 1.247 . S
O30 Co28 2.091 . S
O30 C36 1.261 . S
C31 O40 1.247 . S
C31 O41 1.272 . S
O32 Co28 2.004 . S
O32 C37 1.259 . S
Co33 O34 2.061 . S
Co33 O39 2.052 . S
Co33 O41 2.135 . S
O34 Co33 2.061 . S
O34 C37 1.235 . S
C35 O38 1.238 . S
C35 O39 1.241 . S
C36 O29 1.247 . S
C36 O30 1.261 . S
C37 O32 1.259 . S
C37 O34 1.235 . S
O38 Co28 2.021 . S
O38 C35 1.238 . S
O39 Co33 2.052 . S
O39 C35 1.241 . S
O40 Co28 2.137 . S
O40 C31 1.247 . S
O41 Co28 2.244 . S
O41 C31 1.272 . S
O41 Co33 2.135 . S
Co42 O43 2.216 . S
Co42 O44 2.091 . S
Co42 O46 2.004 . S
Co42 O52 2.021 . S
Co42 O54 2.137 . S
Co42 O55 2.227 1_455 S
O43 Co42 2.216 . S
O43 C50 1.247 . S
O44 Co42 2.091 . S
O44 C50 1.261 . S
C45 O54 1.247 1_655 S
C45 O55 1.279 . S
O46 Co42 2.004 . S
O46 C51 1.259 . S
Co47 O48 2.061 . S
Co47 O53 2.052 . S
Co47 O55 2.125 1_455 S
O48 Co47 2.061 . S
O48 C51 1.235 . S
C49 O52 1.238 . S
C49 O53 1.241 . S
C50 O43 1.247 . S
C50 O44 1.261 . S
C51 O46 1.259 . S
C51 O48 1.235 . S
O52 Co42 2.021 . S
O52 C49 1.238 . S
O53 Co47 2.052 . S
O53 C49 1.241 . S
O54 Co42 2.137 . S
O54 C45 1.247 1_455 S
O55 Co42 2.227 1_655 S
O55 C45 1.279 . S
O55 Co47 2.125 1_655 S
Co56 O57 2.216 . S
Co56 O58 2.091 . S
Co56 O60 2.004 . S
Co56 O66 2.021 . S
Co56 O68 2.137 . S
Co56 O69 2.244 . S
O57 Co56 2.216 . S
O57 C64 1.247 . S
O58 Co56 2.091 . S
O58 C64 1.261 . S
C59 O68 1.247 . S
C59 O69 1.272 . S
O60 Co56 2.004 . S
O60 C65 1.259 . S
Co61 O62 2.061 . S
Co61 O67 2.052 . S
Co61 O69 2.135 . S
O62 Co61 2.061 . S
O62 C65 1.235 . S
C63 O66 1.238 . S
C63 O67 1.241 . S
C64 O57 1.247 . S
C64 O58 1.261 . S
C65 O60 1.259 . S
C65 O62 1.235 . S
O66 Co56 2.021 . S
O66 C63 1.238 . S
O67 Co61 2.052 . S
O67 C63 1.241 . S
O68 Co56 2.137 . S
O68 C59 1.247 . S
O69 Co56 2.244 . S
O69 C59 1.272 . S
O69 Co61 2.135 . S
Co70 O71 2.216 . S
Co70 O72 2.091 . S
Co70 O74 2.004 . S
Co70 O80 2.021 . S
Co70 O82 2.137 . S
Co70 O83 2.227 1_455 S
O71 Co70 2.216 . S
O71 C78 1.247 . S
O72 Co70 2.091 . S
O72 C78 1.261 . S
C73 O82 1.247 1_655 S
C73 O83 1.279 . S
O74 Co70 2.004 . S
O74 C79 1.259 . S
Co75 O76 2.061 . S
Co75 O81 2.052 . S
Co75 O83 2.125 1_455 S
O76 Co75 2.061 . S
O76 C79 1.235 . S
C77 O80 1.238 . S
C77 O81 1.241 . S
C78 O71 1.247 . S
C78 O72 1.261 . S
C79 O74 1.259 . S
C79 O76 1.235 . S
O80 Co70 2.021 . S
O80 C77 1.238 . S
O81 Co75 2.052 . S
O81 C77 1.241 . S
O82 Co70 2.137 . S
O82 C73 1.247 1_455 S
O83 Co70 2.227 1_655 S
O83 C73 1.279 . S
O83 Co75 2.125 1_655 S
Co84 O85 2.216 . S
Co84 O86 2.091 . S
Co84 O88 2.004 . S
Co84 O94 2.021 . S
Co84 O96 2.137 . S
Co84 O97 2.227 1_545 S
O85 Co84 2.216 . S
O85 C92 1.247 . S
O86 Co84 2.091 . S
O86 C92 1.261 . S
C87 O96 1.247 1_565 S
C87 O97 1.279 . S
O88 Co84 2.004 . S
O88 C93 1.259 . S
Co89 O90 2.061 . S
Co89 O95 2.052 . S
Co89 O97 2.125 1_545 S
O90 Co89 2.061 . S
O90 C93 1.235 . S
C91 O94 1.238 . S
C91 O95 1.241 . S
C92 O85 1.247 . S
C92 O86 1.261 . S
C93 O88 1.259 . S
C93 O90 1.235 . S
O94 Co84 2.021 . S
O94 C91 1.238 . S
O95 Co89 2.052 . S
O95 C91 1.241 . S
O96 Co84 2.137 . S
O96 C87 1.247 1_545 S
O97 Co84 2.227 1_565 S
O97 C87 1.279 . S
O97 Co89 2.125 1_565 S
Co98 O99 2.216 . S
Co98 O100 2.091 . S
Co98 O102 2.004 . S
Co98 O108 2.021 . S
Co98 O110 2.137 . S
Co98 O111 2.244 . S
O99 Co98 2.216 . S
O99 C106 1.247 . S
O100 Co98 2.091 . S
O100 C106 1.261 . S
C101 O110 1.247 . S
C101 O111 1.272 . S
O102 Co98 2.004 . S
O102 C107 1.259 . S
Co103 O104 2.061 . S
Co103 O109 2.052 . S
Co103 O111 2.135 . S
O104 Co103 2.061 . S
O104 C107 1.235 . S
C105 O108 1.238 . S
C105 O109 1.241 . S
C106 O99 1.247 . S
C106 O100 1.261 . S
C107 O102 1.259 . S
C107 O104 1.235 . S
O108 Co98 2.021 . S
O108 C105 1.238 . S
O109 Co103 2.052 . S
O109 C105 1.241 . S
O110 Co98 2.137 . S
O110 C101 1.247 . S
O111 Co98 2.244 . S
O111 C101 1.272 . S
O111 Co103 2.135 . S
C112 C113 1.386 . S
C112 C114 1.383 . S
C112 H128 0.951 . S
C113 C112 1.386 . S
C113 C117 1.383 . S
C114 C112 1.383 . S
C114 C115 1.402 . S
C114 H129 0.951 . S
C115 C114 1.402 . S
C115 C116 1.375 . S
C115 C118 1.481 . S
C116 C115 1.375 . S
C116 C117 1.367 . S
C116 H130 0.951 1_545 S
C117 C113 1.383 . S
C117 C116 1.367 . S
C117 H131 0.950 1_545 S
C118 C115 1.481 . S
C118 C119 1.297 1_554 S
C118 H132 0.950 . S
C119 C118 1.297 1_556 S
C119 C120 1.479 . S
C119 H133 0.950 . S
C120 C119 1.479 . S
C120 C121 1.375 . S
C120 C126 1.404 . S
C121 C120 1.375 . S
C121 C122 1.369 . S
C121 H134 0.950 . S
C122 C121 1.369 . S
C122 C123 1.392 . S
C122 H135 0.951 . S
C123 C122 1.392 . S
C123 C125 1.384 . S
H124 C126 0.949 . S
C125 C123 1.384 . S
C125 C126 1.385 . S
C125 H127 0.950 . S
C126 C120 1.404 . S
C126 H124 0.949 . S
C126 C125 1.385 . S
H127 C125 0.950 . S
H128 C112 0.951 . S
H129 C114 0.951 . S
H130 C116 0.951 1_565 S
H131 C117 0.950 1_565 S
H132 C118 0.950 . S
H133 C119 0.950 . S
H134 C121 0.950 . S
H135 C122 0.951 . S
C136 C137 1.386 . S
C136 C138 1.383 . S
C136 H152 0.951 . S
C137 C136 1.386 . S
C137 C141 1.383 . S
C138 C136 1.383 . S
C138 C139 1.402 . S
C138 H153 0.951 . S
C139 C138 1.402 . S
C139 C140 1.375 . S
C139 C142 1.481 . S
C140 C139 1.375 . S
C140 C141 1.367 . S
C140 H154 0.951 . S
C141 C137 1.383 . S
C141 C140 1.367 . S
C141 H155 0.950 . S
C142 C139 1.481 . S
C142 C143 1.297 . S
C142 H156 0.950 . S
C143 C142 1.297 . S
C143 C144 1.479 . S
C143 H157 0.950 . S
C144 C143 1.479 . S
C144 C145 1.375 . S
C144 C150 1.404 . S
C145 C144 1.375 . S
C145 C146 1.369 . S
C145 H158 0.950 1_455 S
C146 C145 1.369 . S
C146 C147 1.392 . S
C146 H159 0.951 1_455 S
C147 C146 1.392 . S
C147 C149 1.384 . S
H148 C150 0.949 . S
C149 C147 1.384 . S
C149 C150 1.385 . S
C149 H151 0.950 . S
C150 C144 1.404 . S
C150 H148 0.949 . S
C150 C149 1.385 . S
H151 C149 0.950 . S
H152 C136 0.951 . S
H153 C138 0.951 . S
H154 C140 0.951 . S
H155 C141 0.950 . S
H156 C142 0.950 . S
H157 C143 0.950 . S
H158 C145 0.950 1_655 S
H159 C146 0.951 1_655 S
C160 C161 1.386 . S
C160 C162 1.383 . S
C160 H176 0.951 . S
C161 C160 1.386 . S
C161 C165 1.383 . S
C162 C160 1.383 . S
C162 C163 1.402 . S
C162 H177 0.951 . S
C163 C162 1.402 . S
C163 C164 1.375 . S
C163 C166 1.481 . S
C164 C163 1.375 . S
C164 C165 1.367 . S
C164 H178 0.951 . S
C165 C161 1.383 . S
C165 C164 1.367 . S
C165 H179 0.950 . S
C166 C163 1.481 . S
C166 C167 1.297 1_556 S
C166 H180 0.950 . S
C167 C166 1.297 1_554 S
C167 C168 1.479 . S
C167 H181 0.950 . S
C168 C167 1.479 . S
C168 C169 1.375 . S
C168 C174 1.404 . S
C169 C168 1.375 . S
C169 C170 1.369 . S
C169 H182 0.950 . S
C170 C169 1.369 . S
C170 C171 1.392 . S
C170 H183 0.951 . S
C171 C170 1.392 . S
C171 C173 1.384 . S
H172 C174 0.949 . S
C173 C171 1.384 . S
C173 C174 1.385 . S
C173 H175 0.950 . S
C174 C168 1.404 . S
C174 H172 0.949 . S
C174 C173 1.385 . S
H175 C173 0.950 . S
H176 C160 0.951 . S
H177 C162 0.951 . S
H178 C164 0.951 . S
H179 C165 0.950 . S
H180 C166 0.950 . S
H181 C167 0.950 . S
H182 C169 0.950 . S
H183 C170 0.951 . S
C184 C185 1.386 . S
C184 C186 1.383 . S
C184 H200 0.951 . S
C185 C184 1.386 . S
C185 C189 1.383 . S
C186 C184 1.383 . S
C186 C187 1.402 . S
C186 H201 0.951 . S
C187 C186 1.402 . S
C187 C188 1.375 . S
C187 C190 1.481 . S
C188 C187 1.375 . S
C188 C189 1.367 . S
C188 H202 0.951 1_455 S
C189 C185 1.383 . S
C189 C188 1.367 . S
C189 H203 0.950 . S
C190 C187 1.481 . S
C190 C191 1.297 . S
C190 H204 0.950 . S
C191 C190 1.297 . S
C191 C192 1.479 . S
C191 H205 0.950 . S
C192 C191 1.479 . S
C192 C193 1.375 . S
C192 C198 1.404 . S
C193 C192 1.375 . S
C193 C194 1.369 . S
C193 H206 0.950 . S
C194 C193 1.369 . S
C194 C195 1.392 . S
C194 H207 0.951 . S
C195 C194 1.392 . S
C195 C197 1.384 . S
H196 C198 0.949 . S
C197 C195 1.384 . S
C197 C198 1.385 . S
C197 H199 0.935 1_455 S
C198 C192 1.404 . S
C198 H196 0.949 . S
C198 C197 1.385 . S
H199 C197 0.935 1_655 S
H200 C184 0.951 . S
H201 C186 0.951 . S
H202 C188 0.951 1_655 S
H203 C189 0.950 . S
H204 C190 0.950 . S
H205 C191 0.950 . S
H206 C193 0.950 . S
H207 C194 0.951 . S
C208 C209 1.386 . S
C208 C210 1.383 . S
C208 H224 0.951 1_545 S
C209 C208 1.386 . S
C209 C213 1.383 . S
C210 C208 1.383 . S
C210 C211 1.402 . S
C210 H225 0.951 . S
C211 C210 1.402 . S
C211 C212 1.375 . S
C211 C214 1.481 . S
C212 C211 1.375 . S
C212 C213 1.367 . S
C212 H226 0.951 . S
C213 C209 1.383 . S
C213 C212 1.367 . S
C213 H227 0.950 . S
C214 C211 1.481 . S
C214 C215 1.297 . S
C214 H228 0.950 . S
C215 C214 1.297 . S
C215 C216 1.479 . S
C215 H229 0.950 . S
C216 C215 1.479 . S
C216 C217 1.375 . S
C216 C222 1.404 . S
C217 C216 1.375 . S
C217 C218 1.369 . S
C217 H230 0.950 . S
C218 C217 1.369 . S
C218 C219 1.392 . S
C218 H231 0.951 . S
C219 C218 1.392 . S
C219 C221 1.384 . S
H220 C222 0.949 . S
C221 C219 1.384 . S
C221 C222 1.385 . S
C221 H223 0.950 . S
C222 C216 1.404 . S
C222 H220 0.949 . S
C222 C221 1.385 . S
H223 C221 0.950 . S
H224 C208 0.951 1_565 S
H225 C210 0.951 . S
H226 C212 0.951 . S
H227 C213 0.950 . S
H228 C214 0.950 . S
H229 C215 0.950 . S
H230 C217 0.950 . S
H231 C218 0.951 . S
C232 C233 1.386 . S
C232 C234 1.383 . S
C232 H248 0.951 . S
C233 C232 1.386 . S
C233 C237 1.383 . S
C234 C232 1.383 . S
C234 C235 1.402 . S
C234 H249 0.951 . S
C235 C234 1.402 . S
C235 C236 1.375 . S
C235 C238 1.481 . S
C236 C235 1.375 . S
C236 C237 1.367 . S
C236 H250 0.951 . S
C237 C233 1.383 . S
C237 C236 1.367 . S
C237 H251 0.950 . S
C238 C235 1.481 . S
C238 C239 1.297 . S
C238 H252 0.950 . S
C239 C238 1.297 . S
C239 C240 1.479 . S
C239 H253 0.950 . S
C240 C239 1.479 . S
C240 C241 1.375 . S
C240 C246 1.404 . S
C241 C240 1.375 . S
C241 C242 1.369 . S
C241 H254 0.950 . S
C242 C241 1.369 . S
C242 C243 1.392 . S
C242 H255 0.951 . S
C243 C242 1.392 . S
C243 C245 1.384 . S
H244 C246 0.949 . S
C245 C243 1.384 . S
C245 C246 1.385 . S
C245 H247 0.950 . S
C246 C240 1.404 . S
C246 H244 0.949 . S
C246 C245 1.385 . S
H247 C245 0.950 . S
H248 C232 0.951 . S
H249 C234 0.951 . S
H250 C236 0.951 . S
H251 C237 0.950 . S
H252 C238 0.950 . S
H253 C239 0.950 . S
H254 C241 0.950 . S
H255 C242 0.951 . S
C256 C257 1.386 . S
C256 C258 1.383 . S
C256 H272 0.951 . S
C257 C256 1.386 . S
C257 C261 1.383 . S
C258 C256 1.383 . S
C258 C259 1.402 . S
C258 H273 0.951 . S
C259 C258 1.402 . S
C259 C260 1.375 . S
C259 C262 1.481 . S
C260 C259 1.375 . S
C260 C261 1.367 . S
C260 H274 0.951 . S
C261 C257 1.383 . S
C261 C260 1.367 . S
C261 H275 0.950 . S
C262 C259 1.481 . S
C262 C263 1.297 . S
C262 H276 0.950 . S
C263 C262 1.297 . S
C263 C264 1.479 . S
C263 H277 0.950 . S
C264 C263 1.479 . S
C264 C265 1.375 . S
C264 C270 1.404 . S
C265 C264 1.375 . S
C265 C266 1.369 . S
C265 H278 0.950 . S
C266 C265 1.369 . S
C266 C267 1.392 . S
C266 H279 0.951 . S
C267 C266 1.392 . S
C267 C269 1.384 . S
H268 C270 0.949 . S
C269 C267 1.384 . S
C269 C270 1.385 . S
C269 H271 0.950 . S
C270 C264 1.404 . S
C270 H268 0.949 . S
C270 C269 1.385 . S
H271 C269 0.950 . S
H272 C256 0.951 . S
H273 C258 0.951 . S
H274 C260 0.951 . S
H275 C261 0.950 . S
H276 C262 0.950 . S
H277 C263 0.950 . S
H278 C265 0.950 . S
H279 C266 0.951 . S
C280 C281 1.386 . S
C280 C282 1.383 . S
C280 H296 0.951 . S
C281 C280 1.386 . S
C281 C285 1.383 . S
C282 C280 1.383 . S
C282 C283 1.402 . S
C282 H297 0.951 . S
C283 C282 1.402 . S
C283 C284 1.375 . S
C283 C286 1.481 . S
C284 C283 1.375 . S
C284 C285 1.367 . S
C284 H298 0.941 1_455 S
C285 C281 1.383 . S
C285 C284 1.367 . S
C285 H299 0.950 1_455 S
C286 C283 1.481 . S
C286 C287 1.297 . S
C286 H300 0.950 . S
C287 C286 1.297 . S
C287 C288 1.479 . S
C287 H301 0.950 . S
C288 C287 1.479 . S
C288 C289 1.375 . S
C288 C294 1.404 . S
C289 C288 1.375 . S
C289 C290 1.369 . S
C289 H302 0.950 . S
C290 C289 1.369 . S
C290 C291 1.392 . S
C290 H303 0.951 . S
C291 C290 1.392 . S
C291 C293 1.384 . S
H292 C294 0.949 . S
C293 C291 1.384 . S
C293 C294 1.385 . S
C293 H295 0.950 . S
C294 C288 1.404 . S
C294 H292 0.949 . S
C294 C293 1.385 . S
H295 C293 0.950 . S
H296 C280 0.951 . S
H297 C282 0.951 . S
H298 C284 0.941 1_655 S
H299 C285 0.950 1_655 S
H300 C286 0.950 . S
H301 C287 0.950 . S
H302 C289 0.950 . S
H303 C290 0.951 . S
C304 C305 1.386 . S
C304 C306 1.383 . S
C304 H320 0.951 . S
C305 C304 1.386 . S
C305 C309 1.383 . S
C306 C304 1.383 . S
C306 C307 1.402 . S
C306 H321 0.951 . S
C307 C306 1.402 . S
C307 C308 1.375 . S
C307 C310 1.481 . S
C308 C307 1.375 . S
C308 C309 1.367 . S
C308 H322 0.951 . S
C309 C305 1.383 . S
C309 C308 1.367 . S
C309 H323 0.950 . S
C310 C307 1.481 . S
C310 C311 1.297 . S
C310 H324 0.950 . S
C311 C310 1.297 . S
C311 C312 1.479 . S
C311 H325 0.950 . S
C312 C311 1.479 . S
C312 C313 1.375 . S
C312 C318 1.404 . S
C313 C312 1.375 . S
C313 C314 1.369 . S
C313 H326 0.950 . S
C314 C313 1.369 . S
C314 C315 1.392 . S
C314 H327 0.951 . S
C315 C314 1.392 . S
C315 C317 1.384 . S
H316 C318 0.949 . S
C317 C315 1.384 . S
C317 C318 1.385 . S
C317 H319 0.950 . S
C318 C312 1.404 . S
C318 H316 0.949 . S
C318 C317 1.385 . S
H319 C317 0.950 . S
H320 C304 0.951 . S
H321 C306 0.951 . S
H322 C308 0.951 . S
H323 C309 0.950 . S
H324 C310 0.950 . S
H325 C311 0.950 . S
H326 C313 0.950 . S
H327 C314 0.951 . S
C328 C329 1.386 . S
C328 C330 1.383 . S
C328 H344 0.951 1_655 S
C329 C328 1.386 . S
C329 C333 1.383 . S
C330 C328 1.383 . S
C330 C331 1.402 . S
C330 H345 0.951 . S
C331 C330 1.402 . S
C331 C332 1.375 . S
C331 C334 1.481 . S
C332 C331 1.375 . S
C332 C333 1.367 . S
C332 H346 0.951 . S
C333 C329 1.383 . S
C333 C332 1.367 . S
C333 H347 0.950 . S
C334 C331 1.481 . S
C334 C335 1.297 . S
C334 H348 0.950 . S
C335 C334 1.297 . S
C335 C336 1.479 . S
C335 H349 0.950 . S
C336 C335 1.479 . S
C336 C337 1.375 . S
C336 C342 1.404 . S
C337 C336 1.375 . S
C337 C338 1.369 . S
C337 H350 0.950 . S
C338 C337 1.369 . S
C338 C339 1.392 . S
C338 H351 0.951 . S
C339 C338 1.392 . S
C339 C341 1.384 . S
H340 C342 0.949 . S
C341 C339 1.384 . S
C341 C342 1.385 . S
C341 H343 0.950 . S
C342 C336 1.404 . S
C342 H340 0.949 . S
C342 C341 1.385 . S
H343 C341 0.950 . S
H344 C328 0.951 1_455 S
H345 C330 0.951 . S
H346 C332 0.951 . S
H347 C333 0.950 . S
H348 C334 0.950 . S
H349 C335 0.950 . S
H350 C337 0.950 . S
H351 C338 0.951 . S
C352 C353 1.386 . S
C352 C354 1.383 . S
C352 H368 0.951 . S
C353 C352 1.386 . S
C353 C357 1.383 1_655 S
C354 C352 1.383 . S
C354 C355 1.402 . S
C354 H369 0.951 . S
C355 C354 1.402 . S
C355 C356 1.375 . S
C355 C358 1.481 . S
C356 C355 1.375 . S
C356 C357 1.367 1_655 S
C356 H370 0.951 . S
C357 C353 1.383 1_455 S
C357 C356 1.367 1_455 S
C357 H371 0.950 . S
C358 C355 1.481 . S
C358 C359 1.297 . S
C358 H372 0.950 . S
C359 C358 1.297 . S
C359 C360 1.479 . S
C359 H373 0.950 . S
C360 C359 1.479 . S
C360 C361 1.375 . S
C360 C366 1.404 . S
C361 C360 1.375 . S
C361 C362 1.369 . S
C361 H374 0.950 . S
C362 C361 1.369 . S
C362 C363 1.392 . S
C362 H375 0.951 . S
C363 C362 1.392 . S
C363 C365 1.384 1_565 S
H364 C366 0.949 . S
C365 C363 1.384 1_545 S
C365 C366 1.385 1_545 S
C365 H367 0.950 . S
C366 C360 1.404 . S
C366 H364 0.949 . S
C366 C365 1.385 1_565 S
H367 C365 0.950 . S
H368 C352 0.951 . S
H369 C354 0.951 . S
H370 C356 0.951 . S
H371 C357 0.950 . S
H372 C358 0.950 . S
H373 C359 0.950 . S
H374 C361 0.950 . S
H375 C362 0.951 . S
C376 C377 1.386 . S
C376 C378 1.383 . S
C376 H392 0.951 . S
C377 C376 1.386 . S
C377 C381 1.383 . S
C378 C376 1.383 . S
C378 C379 1.402 . S
C378 H393 0.951 . S
C379 C378 1.402 . S
C379 C380 1.375 . S
C379 C382 1.481 . S
C380 C379 1.375 . S
C380 C381 1.367 . S
C380 H394 0.951 . S
C381 C377 1.383 . S
C381 C380 1.367 . S
C381 H395 0.950 . S
C382 C379 1.481 . S
C382 C383 1.297 . S
C382 H396 0.950 . S
C383 C382 1.297 . S
C383 C384 1.479 . S
C383 H397 0.950 . S
C384 C383 1.479 . S
C384 C385 1.375 . S
C384 C390 1.404 . S
C385 C384 1.375 . S
C385 C386 1.369 1_565 S
C385 H398 0.950 . S
C386 C385 1.369 1_545 S
C386 C387 1.392 1_545 S
C386 H399 0.951 . S
C387 C386 1.392 1_565 S
C387 C389 1.384 . S
H388 C390 0.949 . S
C389 C387 1.384 . S
C389 C390 1.385 . S
C389 H391 0.950 . S
C390 C384 1.404 . S
C390 H388 0.949 . S
C390 C389 1.385 . S
H391 C389 0.950 . S
H392 C376 0.951 . S
H393 C378 0.951 . S
H394 C380 0.951 . S
H395 C381 0.950 . S
H396 C382 0.950 . S
H397 C383 0.950 . S
H398 C385 0.950 . S
H399 C386 0.951 . S
C400 C401 1.386 . S
C400 C402 1.383 . S
C400 H416 0.951 . S
C401 C400 1.386 . S
C401 C405 1.383 . S
C402 C400 1.383 . S
C402 C403 1.402 . S
C402 H417 0.951 . S
C403 C402 1.402 . S
C403 C404 1.375 . S
C403 C406 1.481 . S
C404 C403 1.375 . S
C404 C405 1.367 . S
C404 H418 0.951 . S
C405 C401 1.383 . S
C405 C404 1.367 . S
C405 H419 0.950 . S
C406 C403 1.481 . S
C406 C407 1.297 . S
C406 H420 0.950 . S
C407 C406 1.297 . S
C407 C408 1.479 . S
C407 H421 0.950 . S
C408 C407 1.479 . S
C408 C409 1.375 . S
C408 C414 1.404 . S
C409 C408 1.375 . S
C409 C410 1.369 . S
C409 H422 0.950 . S
C410 C409 1.369 . S
C410 C411 1.392 . S
C410 H423 0.951 . S
C411 C410 1.392 . S
C411 C413 1.384 . S
H412 C414 0.949 . S
C413 C411 1.384 . S
C413 C414 1.385 . S
C413 H415 0.950 . S
C414 C408 1.404 . S
C414 H412 0.949 . S
C414 C413 1.385 . S
H415 C413 0.950 . S
H416 C400 0.951 . S
H417 C402 0.951 . S
H418 C404 0.951 . S
H419 C405 0.950 . S
H420 C406 0.950 . S
H421 C407 0.950 . S
H422 C409 0.950 . S
H423 C410 0.951 . S
C424 C425 1.386 . S
C424 C426 1.383 . S
C424 H440 0.951 . S
C425 C424 1.386 . S
C425 C429 1.383 . S
C426 C424 1.383 . S
C426 C427 1.402 . S
C426 H441 0.951 . S
C427 C426 1.402 . S
C427 C428 1.375 . S
C427 C430 1.481 . S
C428 C427 1.375 . S
C428 C429 1.367 . S
C428 H442 0.951 . S
C429 C425 1.383 . S
C429 C428 1.367 . S
C429 H443 0.950 . S
C430 C427 1.481 . S
C430 C431 1.297 . S
C430 H444 0.950 . S
C431 C430 1.297 . S
C431 C432 1.479 . S
C431 H445 0.950 . S
C432 C431 1.479 . S
C432 C433 1.375 . S
C432 C438 1.404 . S
C433 C432 1.375 . S
C433 C434 1.369 . S
C433 H446 0.950 . S
C434 C433 1.369 . S
C434 C435 1.392 . S
C434 H447 0.951 . S
C435 C434 1.392 . S
C435 C437 1.384 . S
H436 C438 0.949 . S
C437 C435 1.384 . S
C437 C438 1.385 . S
C437 H439 0.950 . S
C438 C432 1.404 . S
C438 H436 0.949 . S
C438 C437 1.385 . S
H439 C437 0.950 . S
H440 C424 0.951 . S
H441 C426 0.951 . S
H442 C428 0.951 . S
H443 C429 0.950 . S
H444 C430 0.950 . S
H445 C431 0.950 . S
H446 C433 0.950 . S
H447 C434 0.951 . S
C448 C449 1.386 . S
C448 C450 1.383 . S
C448 H464 0.951 . S
C449 C448 1.386 . S
C449 C453 1.383 . S
C450 C448 1.383 . S
C450 C451 1.402 . S
C450 H465 0.951 . S
C451 C450 1.402 . S
C451 C452 1.375 . S
C451 C454 1.481 . S
C452 C451 1.375 . S
C452 C453 1.367 . S
C452 H466 0.951 . S
C453 C449 1.383 . S
C453 C452 1.367 . S
C453 H467 0.950 . S
C454 C451 1.481 . S
C454 C455 1.297 . S
C454 H468 0.950 . S
C455 C454 1.297 . S
C455 C456 1.479 . S
C455 H469 0.950 . S
C456 C455 1.479 . S
C456 C457 1.375 . S
C456 C462 1.404 . S
C457 C456 1.375 . S
C457 C458 1.369 . S
C457 H470 0.950 . S
C458 C457 1.369 . S
C458 C459 1.392 . S
C458 H471 0.951 . S
C459 C458 1.392 . S
C459 C461 1.384 . S
H460 C462 0.949 . S
C461 C459 1.384 . S
C461 C462 1.385 . S
C461 H463 0.950 . S
C462 C456 1.404 . S
C462 H460 0.949 . S
C462 C461 1.385 . S
H463 C461 0.950 . S
H464 C448 0.951 . S
H465 C450 0.951 . S
H466 C452 0.951 . S
H467 C453 0.950 . S
H468 C454 0.950 . S
H469 C455 0.950 . S
H470 C457 0.950 . S
H471 C458 0.951 . S
C472 C473 1.386 . S
C472 C474 1.383 . S
C472 H488 0.951 . S
C473 C472 1.386 . S
C473 C477 1.383 . S
C474 C472 1.383 . S
C474 C475 1.402 . S
C474 H489 0.951 . S
C475 C474 1.402 . S
C475 C476 1.375 . S
C475 C478 1.481 . S
C476 C475 1.375 . S
C476 C477 1.367 . S
C476 H490 0.951 . S
C477 C473 1.383 . S
C477 C476 1.367 . S
C477 H491 0.950 . S
C478 C475 1.481 . S
C478 C479 1.297 . S
C478 H492 0.950 . S
C479 C478 1.297 . S
C479 C480 1.479 . S
C479 H493 0.950 . S
C480 C479 1.479 . S
C480 C481 1.375 . S
C480 C486 1.404 . S
C481 C480 1.375 . S
C481 C482 1.369 . S
C481 H494 0.950 . S
C482 C481 1.369 . S
C482 C483 1.392 . S
C482 H495 0.951 . S
C483 C482 1.392 . S
C483 C485 1.384 . S
H484 C486 0.949 . S
C485 C483 1.384 . S
C485 C486 1.385 . S
C485 H487 0.950 . S
C486 C480 1.404 . S
C486 H484 0.949 . S
C486 C485 1.385 . S
H487 C485 0.950 . S
H488 C472 0.951 . S
H489 C474 0.951 . S
H490 C476 0.951 . S
H491 C477 0.950 . S
H492 C478 0.950 . S
H493 C479 0.950 . S
H494 C481 0.950 . S
H495 C482 0.951 . S
C113 C7 1.558 . S
C123 C63 1.573 . S
C137 C21 1.558 . S
C147 C77 1.573 . S
C161 C91 1.535 . S
C171 C35 1.576 . S
C185 C105 1.551 . S
C195 C49 1.507 . S
C209 C8 1.212 . S
C219 C36 1.214 . S
C233 C22 1.233 . S
C243 C50 1.186 . S
C257 C92 1.231 . S
C267 C64 1.187 . S
C281 C78 1.241 . S
C291 C106 1.259 . S
C305 C79 1.466 . S
C315 C9 1.439 . S
C329 C23 1.486 1_655 S
C339 C93 1.461 . S
C353 C107 1.462 1_655 S
C363 C37 1.470 1_565 S
C377 C51 1.478 . S
C387 C65 1.447 1_565 S
C401 C87 1.113 . S
C411 C45 1.119 . S
C425 C3 1.074 . S
C435 C101 1.057 . S
C449 C17 1.109 . S
C459 C59 1.110 . S
C473 C73 1.113 . S
C483 C31 1.119 . S
