# Generated by pormake.
# Topology upa, (4)-cn, num edge types: 1
# Building blocks:
#     Node 0, Type 0, BuildingBlock: CEKHIL_clean_sbu_0, # of connection points: 4
#     Node 1, Type 0, BuildingBlock: CEKHIL_clean_sbu_0, # of connection points: 4
#     Node 2, Type 0, BuildingBlock: CEKHIL_clean_sbu_0, # of connection points: 4
#     Node 3, Type 0, BuildingBlock: CEKHIL_clean_sbu_0, # of connection points: 4
#     Node 4, Type 0, BuildingBlock: CEKHIL_clean_sbu_0, # of connection points: 4
#     Node 5, Type 0, BuildingBlock: CEKHIL_clean_sbu_0, # of connection points: 4
#     Node 6, Type 0, BuildingBlock: CEKHIL_clean_sbu_0, # of connection points: 4
#     Node 7, Type 0, BuildingBlock: CEKHIL_clean_sbu_0, # of connection points: 4
#     Edge 8, Type (0, 0), BuildingBlock: OJICUG_clean_linker_0, # of connection points: 2
#     Edge 9, Type (0, 0), BuildingBlock: OJICUG_clean_linker_0, # of connection points: 2
#     Edge 10, Type (0, 0), BuildingBlock: OJICUG_clean_linker_0, # of connection points: 2
#     Edge 11, Type (0, 0), BuildingBlock: OJICUG_clean_linker_0, # of connection points: 2
#     Edge 12, Type (0, 0), BuildingBlock: OJICUG_clean_linker_0, # of connection points: 2
#     Edge 13, Type (0, 0), BuildingBlock: OJICUG_clean_linker_0, # of connection points: 2
#     Edge 14, Type (0, 0), BuildingBlock: OJICUG_clean_linker_0, # of connection points: 2
#     Edge 15, Type (0, 0), BuildingBlock: OJICUG_clean_linker_0, # of connection points: 2
#     Edge 16, Type (0, 0), BuildingBlock: OJICUG_clean_linker_0, # of connection points: 2
#     Edge 17, Type (0, 0), BuildingBlock: OJICUG_clean_linker_0, # of connection points: 2
#     Edge 18, Type (0, 0), BuildingBlock: OJICUG_clean_linker_0, # of connection points: 2
#     Edge 19, Type (0, 0), BuildingBlock: OJICUG_clean_linker_0, # of connection points: 2
#     Edge 20, Type (0, 0), BuildingBlock: OJICUG_clean_linker_0, # of connection points: 2
#     Edge 21, Type (0, 0), BuildingBlock: OJICUG_clean_linker_0, # of connection points: 2
#     Edge 22, Type (0, 0), BuildingBlock: OJICUG_clean_linker_0, # of connection points: 2
#     Edge 23, Type (0, 0), BuildingBlock: OJICUG_clean_linker_0, # of connection points: 2
# Relax obj value: 0.238
# Max RMSD: 0.138
# Mean RMSD: 0.138
data_MOF--net-upa--node1-CEKHIL_clean_sbu_0--edge1-OJICUG_clean_linker_0
_symmetry_space_group_name_H-M    P1
_symmetry_Int_Tables_number       1
_symmetry_cell_setting            triclinic
loop_
_symmetry_equiv_pos_as_xyz
'x, y, z'
_cell_length_a     18.619323
_cell_length_b     18.611601
_cell_length_c     30.82155
_cell_angle_alpha  90.123183
_cell_angle_beta   90.071191
_cell_angle_gamma 90.040719
loop_
_atom_site_label
_atom_site_type_symbol
_atom_site_fract_x
_atom_site_fract_y
_atom_site_fract_z
_atom_type_partial_charge
Co0 Co 0.20698 0.23372 0.33355 0.0
O1 O 0.2868 0.29334 0.31426 0.0
O2 O 0.2926 0.17608 0.32388 0.0
C3 C 0.11824 0.27462 0.28893 0.0
O4 O 0.13828 0.15371 0.3506 0.0
Co5 Co 0.07212 0.29944 0.37794 0.0
O6 O 0.03114 0.20239 0.367 0.0
C7 C 0.20341 0.279 0.43008 0.0
C8 C 0.32499 0.23491 0.31246 0.0
C9 C 0.07081 0.14811 0.35905 0.0
O10 O 0.23426 0.24882 0.39716 0.0
O11 O 0.14099 0.3076 0.42781 0.0
O12 O 0.1661 0.22945 0.27488 0.0
O13 O 0.13211 0.30178 0.3267 0.0
Co14 Co 0.28096 0.70734 0.83383 0.0
O15 O 0.22153 0.78703 0.81414 0.0
O16 O 0.33856 0.79319 0.8247 0.0
C17 C 0.24098 0.61851 0.78877 0.0
O18 O 0.36085 0.63893 0.85138 0.0
Co19 Co 0.21509 0.57191 0.87746 0.0
O20 O 0.31237 0.53138 0.86708 0.0
C21 C 0.23431 0.70316 0.93002 0.0
C22 C 0.27991 0.82541 0.8128 0.0
C23 C 0.36658 0.57141 0.85965 0.0
O24 O 0.26479 0.73437 0.89738 0.0
O25 O 0.20605 0.64056 0.92741 0.0
O26 O 0.28625 0.66657 0.77514 0.0
O27 O 0.21324 0.63218 0.82636 0.0
Co28 Co 0.80474 0.78011 0.33363 0.0
O29 O 0.72463 0.72063 0.31427 0.0
O30 O 0.71904 0.83784 0.32444 0.0
C31 C 0.89304 0.73943 0.2886 0.0
O32 O 0.87363 0.86004 0.35083 0.0
Co33 Co 0.94014 0.71424 0.37737 0.0
O34 O 0.98101 0.81131 0.36662 0.0
C35 C 0.80947 0.7344 0.42997 0.0
C36 C 0.68646 0.77911 0.31283 0.0
C37 C 0.94122 0.86561 0.35902 0.0
O38 O 0.7782 0.7647 0.39726 0.0
O39 O 0.87188 0.70586 0.42739 0.0
O40 O 0.84501 0.78465 0.27487 0.0
O41 O 0.87954 0.71209 0.32629 0.0
Co42 Co 0.73516 0.30721 0.83397 0.0
O43 O 0.79474 0.22736 0.81456 0.0
O44 O 0.6776 0.22134 0.82453 0.0
C45 C 0.77555 0.3958 0.78915 0.0
O46 O 0.65517 0.37577 0.85119 0.0
Co47 Co 0.8008 0.4427 0.87808 0.0
O48 O 0.70359 0.48325 0.86748 0.0
C49 C 0.78058 0.31182 0.93045 0.0
C50 C 0.73636 0.189 0.81295 0.0
C51 C 0.64942 0.44327 0.85968 0.0
O52 O 0.75061 0.28048 0.89756 0.0
O53 O 0.80896 0.37438 0.92809 0.0
O54 O 0.73044 0.34762 0.77528 0.0
O55 O 0.80299 0.38231 0.82686 0.0
Co56 Co 0.70676 0.28098 0.20172 0.0
O57 O 0.78657 0.22139 0.22105 0.0
O58 O 0.79248 0.33866 0.2114 0.0
C59 C 0.61811 0.24011 0.24634 0.0
O60 O 0.63806 0.36096 0.18464 0.0
Co61 Co 0.57174 0.21515 0.15729 0.0
O62 O 0.53083 0.31216 0.16826 0.0
C63 C 0.70289 0.23557 0.10521 0.0
C64 C 0.82484 0.27983 0.22283 0.0
C65 C 0.57055 0.36647 0.17621 0.0
O66 O 0.73383 0.26583 0.13813 0.0
O67 O 0.64045 0.20695 0.10745 0.0
O68 O 0.66608 0.28529 0.26038 0.0
O69 O 0.63183 0.21291 0.20857 0.0
Co70 Co 0.23544 0.20687 0.70131 0.0
O71 O 0.29507 0.28677 0.72083 0.0
O72 O 0.17793 0.29267 0.71067 0.0
C73 C 0.27577 0.11829 0.74617 0.0
O74 O 0.15538 0.1383 0.68398 0.0
Co75 Co 0.30085 0.07141 0.65727 0.0
O76 O 0.20363 0.0308 0.6678 0.0
C77 C 0.28086 0.20233 0.60491 0.0
C78 C 0.23669 0.32506 0.72235 0.0
C79 C 0.14952 0.07079 0.67552 0.0
O80 O 0.25092 0.23364 0.63775 0.0
O81 O 0.30912 0.13976 0.60729 0.0
O82 O 0.23069 0.16642 0.75999 0.0
O83 O 0.30321 0.13179 0.7085 0.0
Co84 Co 0.30449 0.73411 0.20177 0.0
O85 O 0.22449 0.79354 0.22109 0.0
O86 O 0.21874 0.67634 0.21091 0.0
C87 C 0.39292 0.77482 0.24686 0.0
O88 O 0.37331 0.65425 0.1846 0.0
Co89 Co 0.43985 0.80019 0.15816 0.0
O90 O 0.48067 0.70313 0.16889 0.0
C91 C 0.30909 0.77988 0.10544 0.0
C92 C 0.18626 0.73506 0.22252 0.0
C93 C 0.44089 0.64877 0.17644 0.0
O94 O 0.27784 0.74953 0.13811 0.0
O95 O 0.3715 0.80852 0.10809 0.0
O96 O 0.34488 0.72957 0.26056 0.0
O97 O 0.37934 0.80218 0.20918 0.0
Co98 Co 0.7808 0.80675 0.70154 0.0
O99 O 0.72134 0.72698 0.72113 0.0
O100 O 0.83839 0.72099 0.71079 0.0
C101 C 0.74077 0.89557 0.74651 0.0
O102 O 0.8607 0.87523 0.68409 0.0
Co103 Co 0.71498 0.94207 0.65776 0.0
O104 O 0.81231 0.98269 0.66817 0.0
C105 C 0.7343 0.81083 0.60525 0.0
C106 C 0.77973 0.6887 0.72258 0.0
C107 C 0.86649 0.94271 0.67572 0.0
O108 O 0.7647 0.77966 0.63797 0.0
O109 O 0.70603 0.87339 0.6078 0.0
O110 O 0.78603 0.84758 0.76023 0.0
O111 O 0.71307 0.88183 0.70887 0.0
C112 C 0.0808 0.01385 0.35913 0.0
C113 C 0.03772 0.07582 0.35946 0.0
H114 H 0.08425 0.89904 0.35893 0.0
C115 C 0.96259 0.06805 0.35973 0.0
H116 H 0.13883 0.01788 0.3589 0.0
C117 C 0.93125 0.99987 0.35956 0.0
C118 C 0.97433 0.9379 0.35947 0.0
H119 H 0.92779 0.11467 0.35969 0.0
H120 H 0.87321 0.99583 0.35967 0.0
C121 C 0.04946 0.94566 0.35931 0.0
C122 C 0.44699 0.46356 0.86012 0.0
C123 C 0.43895 0.53867 0.86029 0.0
H124 H 0.51952 0.37453 0.85965 0.0
C125 C 0.50072 0.5821 0.86048 0.0
H126 H 0.40053 0.4285 0.85968 0.0
C127 C 0.569 0.55112 0.86064 0.0
C128 C 0.57705 0.476 0.86027 0.0
H129 H 0.49646 0.64014 0.86062 0.0
H130 H 0.61546 0.58618 0.86063 0.0
C131 C 0.51527 0.43257 0.85993 0.0
C132 C 0.46231 0.44636 0.17557 0.0
C133 C 0.53744 0.43872 0.17586 0.0
H134 H 0.3729 0.51843 0.17567 0.0
C135 C 0.5805 0.50076 0.17627 0.0
H136 H 0.42752 0.39969 0.17556 0.0
C137 C 0.54914 0.5689 0.17614 0.0
C138 C 0.474 0.57654 0.17596 0.0
H139 H 0.63854 0.49683 0.17651 0.0
H140 H 0.58392 0.61557 0.17658 0.0
C141 C 0.43094 0.51449 0.1758 0.0
C142 C 0.06894 0.96295 0.67471 0.0
C143 C 0.0771 0.03807 0.67494 0.0
H144 H 0.99625 0.87395 0.67491 0.0
C145 C 0.01539 0.08151 0.67518 0.0
H146 H 0.11534 0.92789 0.6748 0.0
C147 C 0.94706 0.05054 0.67505 0.0
C148 C 0.9389 0.97543 0.67504 0.0
H149 H 0.01974 0.13955 0.67535 0.0
H150 H 0.90066 0.08561 0.67541 0.0
C151 C 1.00061 0.93198 0.67494 0.0
C152 C 0.29069 0.2218 0.48226 0.0
C153 C 0.23606 0.27216 0.47422 0.0
H154 H 0.34852 0.161 0.52969 0.0
C155 C 0.20537 0.30814 0.51002 0.0
H156 H 0.31585 0.19314 0.45571 0.0
C157 C 0.2242 0.28977 0.55267 0.0
C158 C 0.274 0.23463 0.56072 0.0
H159 H 0.16362 0.34785 0.50525 0.0
H160 H 0.1961 0.31554 0.57922 0.0
C161 C 0.30927 0.20318 0.52491 0.0
C162 C 0.29019 0.79072 0.98278 0.0
C163 C 0.24046 0.73558 0.9743 0.0
H164 H 0.35007 0.84882 0.0307 0.0
C165 C 0.20453 0.70418 1.00983 0.0
H166 H 0.31877 0.81645 0.95645 0.0
C167 C 0.22243 0.72282 0.05263 0.0
C168 C 0.27703 0.77315 0.06112 0.0
H169 H 0.16528 0.66202 1.00472 0.0
H170 H 0.19681 0.69416 0.07896 0.0
C171 C 0.30833 0.80913 0.02558 0.0
C172 C 0.79047 0.7235 0.55261 0.0
C173 C 0.74057 0.77843 0.56099 0.0
H174 H 0.85058 0.66566 0.5048 0.0
C175 C 0.70463 0.80971 0.52539 0.0
H176 H 0.81908 0.69788 0.57899 0.0
C177 C 0.72265 0.79116 0.48262 0.0
C178 C 0.77738 0.74105 0.47424 0.0
H179 H 0.66526 0.85171 0.53043 0.0
H180 H 0.69698 0.81972 0.45624 0.0
C181 C 0.80873 0.70519 0.50984 0.0
C182 C 0.72359 0.2246 0.98265 0.0
C183 C 0.77361 0.27959 0.97464 0.0
H184 H 0.66278 0.16676 0.03001 0.0
C185 C 0.80899 0.31103 1.01048 0.0
H186 H 0.69539 0.19886 0.95607 0.0
C187 C 0.79034 0.29252 0.05311 0.0
C188 C 0.73551 0.24232 0.0611 0.0
H189 H 0.84842 0.35309 1.00573 0.0
H190 H 0.81562 0.32117 0.07968 0.0
C191 C 0.70468 0.20635 0.02528 0.0
C192 C 0.51533 0.2973 0.28654 0.0
C193 C 0.54488 0.23664 0.26583 0.0
H194 H 0.42259 0.34496 0.31644 0.0
C195 C 0.50183 0.17497 0.26131 0.0
H196 H 0.5466 0.34609 0.28994 0.0
C197 C 0.43123 0.17375 0.27752 0.0
C198 C 0.4011 0.23504 0.29725 0.0
H199 H 0.52279 0.12765 0.2452 0.0
H200 H 0.39951 0.12537 0.27353 0.0
C201 C 0.44405 0.29686 0.30145 0.0
C202 C 0.34162 0.93166 0.77828 0.0
C203 C 0.27998 0.90147 0.79746 0.0
H204 H 0.38828 0.02318 0.74626 0.0
C205 C 0.21804 0.94428 0.80097 0.0
H206 H 0.3901 0.90004 0.77482 0.0
C207 C 0.21785 0.01551 0.78593 0.0
C208 C 0.27888 0.04511 0.76577 0.0
H209 H 0.16968 0.92277 0.81551 0.0
H210 H 0.16897 0.04669 0.78879 0.0
C211 C 0.34066 1.00218 0.76192 0.0
C212 C 0.57998 0.84069 0.27844 0.0
C213 C 0.61019 0.77918 0.29775 0.0
H214 H 0.48828 0.8872 0.24648 0.0
C215 C 0.56718 0.71738 0.30164 0.0
H216 H 0.61173 0.88907 0.2747 0.0
C217 C 0.49578 0.71718 0.2868 0.0
C218 C 0.46617 0.77806 0.26648 0.0
H219 H 0.58869 0.66912 0.31631 0.0
H220 H 0.46448 0.66838 0.28992 0.0
C221 C 0.50927 0.83971 0.2623 0.0
C222 C 0.79828 0.06997 0.80148 0.0
C223 C 0.73638 0.11279 0.79769 0.0
H224 H 0.84738 0.96742 0.78956 0.0
C225 C 0.67485 0.08244 0.77831 0.0
H226 H 0.84656 0.0916 0.81619 0.0
C227 C 0.67587 0.01177 0.76204 0.0
C228 C 0.7376 0.96885 0.76614 0.0
H229 H 0.6264 0.11405 0.77464 0.0
H230 H 0.62834 0.99066 0.7462 0.0
C231 C 0.79853 0.99859 0.7865 0.0
C232 C 0.01522 0.21745 0.2487 0.0
C233 C 0.04494 0.2781 0.26942 0.0
H234 H 0.92227 0.1698 0.21882 0.0
C235 C 1.002 0.33977 0.27395 0.0
H236 H 0.0464 0.16866 0.2453 0.0
C237 C 0.93133 0.34099 0.25775 0.0
C238 C 0.90103 0.2797 0.23803 0.0
H239 H 0.02309 0.38708 0.29006 0.0
H240 H 0.89969 0.38937 0.26175 0.0
C241 C 0.94386 0.21789 0.23381 0.0
C242 C 0.17514 0.43152 0.75685 0.0
C243 C 0.23672 0.40127 0.73762 0.0
H244 H 0.12856 0.52325 0.78884 0.0
C245 C 0.29861 0.44417 0.73395 0.0
H246 H 0.12669 0.39984 0.76043 0.0
C247 C 0.29883 0.51556 0.74891 0.0
C248 C 0.23785 0.54522 0.76913 0.0
H249 H 0.34692 0.42261 0.71936 0.0
H250 H 0.34768 0.5468 0.74596 0.0
C251 C 0.17612 0.50221 0.77311 0.0
C252 C 0.07987 0.67349 0.25699 0.0
C253 C 0.11006 0.73498 0.23762 0.0
H254 H 0.98827 0.62705 0.28903 0.0
C255 C 0.06712 0.79677 0.23372 0.0
H256 H 0.11157 0.62513 0.26074 0.0
C257 C 0.99579 0.797 0.2486 0.0
C258 C 0.96621 0.73616 0.26899 0.0
H259 H 0.08862 0.84501 0.21902 0.0
H260 H 0.96455 0.8458 0.24547 0.0
C261 C 0.00924 0.67451 0.27318 0.0
C262 C 0.71776 0.49841 0.74917 0.0
C263 C 0.7787 0.46898 0.76956 0.0
H264 H 0.66966 0.59103 0.71941 0.0
C265 C 0.84038 0.51208 0.77366 0.0
H266 H 0.66894 0.46709 0.7461 0.0
C267 C 0.84135 0.58262 0.75733 0.0
C268 C 0.7798 0.61263 0.73791 0.0
H269 H 0.88792 0.49122 0.78952 0.0
H270 H 0.88976 0.61438 0.76099 0.0
C271 C 0.71795 0.56965 0.73414 0.0
loop_
_geom_bond_atom_site_label_1
_geom_bond_atom_site_label_2
_geom_bond_distance
_geom_bond_site_symmetry_2
_ccdc_geom_bond_type
Co0 O1 2.216 . S
Co0 O2 2.091 . S
Co0 O4 2.004 . S
Co0 O10 2.021 . S
Co0 O12 2.137 . S
Co0 O13 2.244 . S
O1 Co0 2.216 . S
O1 C8 1.247 . S
O2 Co0 2.091 . S
O2 C8 1.261 . S
C3 O12 1.247 . S
C3 O13 1.272 . S
O4 Co0 2.004 . S
O4 C9 1.259 . S
Co5 O6 2.061 . S
Co5 O11 2.052 . S
Co5 O13 2.135 . S
O6 Co5 2.061 . S
O6 C9 1.235 . S
C7 O10 1.238 . S
C7 O11 1.241 . S
C8 O1 1.247 . S
C8 O2 1.261 . S
C9 O4 1.259 . S
C9 O6 1.235 . S
O10 Co0 2.021 . S
O10 C7 1.238 . S
O11 Co5 2.052 . S
O11 C7 1.241 . S
O12 Co0 2.137 . S
O12 C3 1.247 . S
O13 Co0 2.244 . S
O13 C3 1.272 . S
O13 Co5 2.135 . S
Co14 O15 2.216 . S
Co14 O16 2.091 . S
Co14 O18 2.004 . S
Co14 O24 2.021 . S
Co14 O26 2.137 . S
Co14 O27 2.244 . S
O15 Co14 2.216 . S
O15 C22 1.247 . S
O16 Co14 2.091 . S
O16 C22 1.261 . S
C17 O26 1.247 . S
C17 O27 1.272 . S
O18 Co14 2.004 . S
O18 C23 1.259 . S
Co19 O20 2.061 . S
Co19 O25 2.052 . S
Co19 O27 2.135 . S
O20 Co19 2.061 . S
O20 C23 1.235 . S
C21 O24 1.238 . S
C21 O25 1.241 . S
C22 O15 1.247 . S
C22 O16 1.261 . S
C23 O18 1.259 . S
C23 O20 1.235 . S
O24 Co14 2.021 . S
O24 C21 1.238 . S
O25 Co19 2.052 . S
O25 C21 1.241 . S
O26 Co14 2.137 . S
O26 C17 1.247 . S
O27 Co14 2.244 . S
O27 C17 1.272 . S
O27 Co19 2.135 . S
Co28 O29 2.216 . S
Co28 O30 2.091 . S
Co28 O32 2.004 . S
Co28 O38 2.021 . S
Co28 O40 2.137 . S
Co28 O41 2.244 . S
O29 Co28 2.216 . S
O29 C36 1.247 . S
O30 Co28 2.091 . S
O30 C36 1.261 . S
C31 O40 1.247 . S
C31 O41 1.272 . S
O32 Co28 2.004 . S
O32 C37 1.259 . S
Co33 O34 2.061 . S
Co33 O39 2.052 . S
Co33 O41 2.135 . S
O34 Co33 2.061 . S
O34 C37 1.235 . S
C35 O38 1.238 . S
C35 O39 1.241 . S
C36 O29 1.247 . S
C36 O30 1.261 . S
C37 O32 1.259 . S
C37 O34 1.235 . S
O38 Co28 2.021 . S
O38 C35 1.238 . S
O39 Co33 2.052 . S
O39 C35 1.241 . S
O40 Co28 2.137 . S
O40 C31 1.247 . S
O41 Co28 2.244 . S
O41 C31 1.272 . S
O41 Co33 2.135 . S
Co42 O43 2.216 . S
Co42 O44 2.091 . S
Co42 O46 2.004 . S
Co42 O52 2.021 . S
Co42 O54 2.137 . S
Co42 O55 2.244 . S
O43 Co42 2.216 . S
O43 C50 1.247 . S
O44 Co42 2.091 . S
O44 C50 1.261 . S
C45 O54 1.247 . S
C45 O55 1.272 . S
O46 Co42 2.004 . S
O46 C51 1.259 . S
Co47 O48 2.061 . S
Co47 O53 2.052 . S
Co47 O55 2.135 . S
O48 Co47 2.061 . S
O48 C51 1.235 . S
C49 O52 1.238 . S
C49 O53 1.241 . S
C50 O43 1.247 . S
C50 O44 1.261 . S
C51 O46 1.259 . S
C51 O48 1.235 . S
O52 Co42 2.021 . S
O52 C49 1.238 . S
O53 Co47 2.052 . S
O53 C49 1.241 . S
O54 Co42 2.137 . S
O54 C45 1.247 . S
O55 Co42 2.244 . S
O55 C45 1.272 . S
O55 Co47 2.135 . S
Co56 O57 2.216 . S
Co56 O58 2.091 . S
Co56 O60 2.004 . S
Co56 O66 2.021 . S
Co56 O68 2.137 . S
Co56 O69 2.244 . S
O57 Co56 2.216 . S
O57 C64 1.247 . S
O58 Co56 2.091 . S
O58 C64 1.261 . S
C59 O68 1.247 . S
C59 O69 1.272 . S
O60 Co56 2.004 . S
O60 C65 1.259 . S
Co61 O62 2.061 . S
Co61 O67 2.052 . S
Co61 O69 2.135 . S
O62 Co61 2.061 . S
O62 C65 1.235 . S
C63 O66 1.238 . S
C63 O67 1.241 . S
C64 O57 1.247 . S
C64 O58 1.261 . S
C65 O60 1.259 . S
C65 O62 1.235 . S
O66 Co56 2.021 . S
O66 C63 1.238 . S
O67 Co61 2.052 . S
O67 C63 1.241 . S
O68 Co56 2.137 . S
O68 C59 1.247 . S
O69 Co56 2.244 . S
O69 C59 1.272 . S
O69 Co61 2.135 . S
Co70 O71 2.216 . S
Co70 O72 2.091 . S
Co70 O74 2.004 . S
Co70 O80 2.021 . S
Co70 O82 2.137 . S
Co70 O83 2.244 . S
O71 Co70 2.216 . S
O71 C78 1.247 . S
O72 Co70 2.091 . S
O72 C78 1.261 . S
C73 O82 1.247 . S
C73 O83 1.272 . S
O74 Co70 2.004 . S
O74 C79 1.259 . S
Co75 O76 2.061 . S
Co75 O81 2.052 . S
Co75 O83 2.135 . S
O76 Co75 2.061 . S
O76 C79 1.235 . S
C77 O80 1.238 . S
C77 O81 1.241 . S
C78 O71 1.247 . S
C78 O72 1.261 . S
C79 O74 1.259 . S
C79 O76 1.235 . S
O80 Co70 2.021 . S
O80 C77 1.238 . S
O81 Co75 2.052 . S
O81 C77 1.241 . S
O82 Co70 2.137 . S
O82 C73 1.247 . S
O83 Co70 2.244 . S
O83 C73 1.272 . S
O83 Co75 2.135 . S
Co84 O85 2.216 . S
Co84 O86 2.091 . S
Co84 O88 2.004 . S
Co84 O94 2.021 . S
Co84 O96 2.137 . S
Co84 O97 2.244 . S
O85 Co84 2.216 . S
O85 C92 1.247 . S
O86 Co84 2.091 . S
O86 C92 1.261 . S
C87 O96 1.247 . S
C87 O97 1.272 . S
O88 Co84 2.004 . S
O88 C93 1.259 . S
Co89 O90 2.061 . S
Co89 O95 2.052 . S
Co89 O97 2.135 . S
O90 Co89 2.061 . S
O90 C93 1.235 . S
C91 O94 1.238 . S
C91 O95 1.241 . S
C92 O85 1.247 . S
C92 O86 1.261 . S
C93 O88 1.259 . S
C93 O90 1.235 . S
O94 Co84 2.021 . S
O94 C91 1.238 . S
O95 Co89 2.052 . S
O95 C91 1.241 . S
O96 Co84 2.137 . S
O96 C87 1.247 . S
O97 Co84 2.244 . S
O97 C87 1.272 . S
O97 Co89 2.135 . S
Co98 O99 2.216 . S
Co98 O100 2.091 . S
Co98 O102 2.004 . S
Co98 O108 2.021 . S
Co98 O110 2.137 . S
Co98 O111 2.244 . S
O99 Co98 2.216 . S
O99 C106 1.247 . S
O100 Co98 2.091 . S
O100 C106 1.261 . S
C101 O110 1.247 . S
C101 O111 1.272 . S
O102 Co98 2.004 . S
O102 C107 1.259 . S
Co103 O104 2.061 . S
Co103 O109 2.052 . S
Co103 O111 2.135 . S
O104 Co103 2.061 . S
O104 C107 1.235 . S
C105 O108 1.238 . S
C105 O109 1.241 . S
C106 O99 1.247 . S
C106 O100 1.261 . S
C107 O102 1.259 . S
C107 O104 1.235 . S
O108 Co98 2.021 . S
O108 C105 1.238 . S
O109 Co103 2.052 . S
O109 C105 1.241 . S
O110 Co98 2.137 . S
O110 C101 1.247 . S
O111 Co98 2.244 . S
O111 C101 1.272 . S
O111 Co103 2.135 . S
C112 C113 1.387 . S
C112 H116 0.950 . S
C112 C121 1.390 1_445 S
C113 C112 1.387 . S
C113 C115 1.387 . S
H114 C121 0.950 . S
C115 C113 1.387 . S
C115 C117 1.390 1_445 S
C115 H119 0.950 . S
H116 C112 0.950 . S
C117 C115 1.390 1_665 S
C117 C118 1.387 . S
C117 H120 0.950 . S
C118 C117 1.387 . S
C118 C121 1.387 . S
H119 C115 0.950 . S
H120 C117 0.950 . S
C121 C112 1.390 1_665 S
C121 H114 0.950 . S
C121 C118 1.387 . S
C122 C123 1.387 . S
C122 H126 0.950 . S
C122 C131 1.390 . S
C123 C122 1.387 . S
C123 C125 1.387 . S
H124 C131 0.950 . S
C125 C123 1.387 . S
C125 C127 1.390 . S
C125 H129 0.950 . S
H126 C122 0.950 . S
C127 C125 1.390 . S
C127 C128 1.387 . S
C127 H130 0.950 . S
C128 C127 1.387 . S
C128 C131 1.387 . S
H129 C125 0.950 . S
H130 C127 0.950 . S
C131 C122 1.390 . S
C131 H124 0.950 . S
C131 C128 1.387 . S
C132 C133 1.387 . S
C132 H136 0.950 . S
C132 C141 1.390 . S
C133 C132 1.387 . S
C133 C135 1.387 . S
H134 C141 0.950 . S
C135 C133 1.387 . S
C135 C137 1.390 . S
C135 H139 0.950 . S
H136 C132 0.950 . S
C137 C135 1.390 . S
C137 C138 1.387 . S
C137 H140 0.950 . S
C138 C137 1.387 . S
C138 C141 1.387 . S
H139 C135 0.950 . S
H140 C137 0.950 . S
C141 C132 1.390 . S
C141 H134 0.950 . S
C141 C138 1.387 . S
C142 C143 1.387 . S
C142 H146 0.950 . S
C142 C151 1.390 1_445 S
C143 C142 1.387 . S
C143 C145 1.387 . S
H144 C151 0.950 . S
C145 C143 1.387 . S
C145 C147 1.390 1_445 S
C145 H149 0.950 . S
H146 C142 0.950 . S
C147 C145 1.390 1_665 S
C147 C148 1.387 . S
C147 H150 0.950 . S
C148 C147 1.387 . S
C148 C151 1.387 . S
H149 C145 0.950 . S
H150 C147 0.950 . S
C151 C142 1.390 1_665 S
C151 H144 0.950 . S
C151 C148 1.387 . S
C152 C153 1.387 . S
C152 H156 0.950 . S
C152 C161 1.390 . S
C153 C152 1.387 . S
C153 C155 1.387 . S
H154 C161 0.950 . S
C155 C153 1.387 . S
C155 C157 1.390 . S
C155 H159 0.950 . S
H156 C152 0.950 . S
C157 C155 1.390 . S
C157 C158 1.387 . S
C157 H160 0.950 . S
C158 C157 1.387 . S
C158 C161 1.387 . S
H159 C155 0.950 . S
H160 C157 0.950 . S
C161 C152 1.390 . S
C161 H154 0.950 . S
C161 C158 1.387 . S
C162 C163 1.387 . S
C162 H166 0.950 . S
C162 C171 1.390 1_556 S
C163 C162 1.387 . S
C163 C165 1.387 . S
H164 C171 0.950 . S
C165 C163 1.387 . S
C165 C167 1.390 1_556 S
C165 H169 0.950 . S
H166 C162 0.950 . S
C167 C165 1.390 1_554 S
C167 C168 1.387 . S
C167 H170 0.950 . S
C168 C167 1.387 . S
C168 C171 1.387 . S
H169 C165 0.950 . S
H170 C167 0.950 . S
C171 C162 1.390 1_554 S
C171 H164 0.950 . S
C171 C168 1.387 . S
C172 C173 1.387 . S
C172 H176 0.950 . S
C172 C181 1.390 . S
C173 C172 1.387 . S
C173 C175 1.387 . S
H174 C181 0.950 . S
C175 C173 1.387 . S
C175 C177 1.390 . S
C175 H179 0.950 . S
H176 C172 0.950 . S
C177 C175 1.390 . S
C177 C178 1.387 . S
C177 H180 0.950 . S
C178 C177 1.387 . S
C178 C181 1.387 . S
H179 C175 0.950 . S
H180 C177 0.950 . S
C181 C172 1.390 . S
C181 H174 0.950 . S
C181 C178 1.387 . S
C182 C183 1.387 . S
C182 H186 0.950 . S
C182 C191 1.390 1_556 S
C183 C182 1.387 . S
C183 C185 1.387 . S
H184 C191 0.950 . S
C185 C183 1.387 . S
C185 C187 1.390 1_556 S
C185 H189 0.950 . S
H186 C182 0.950 . S
C187 C185 1.390 1_554 S
C187 C188 1.387 . S
C187 H190 0.950 . S
C188 C187 1.387 . S
C188 C191 1.387 . S
H189 C185 0.950 . S
H190 C187 0.950 . S
C191 C182 1.390 1_554 S
C191 H184 0.950 . S
C191 C188 1.387 . S
C192 C193 1.387 . S
C192 H196 0.950 . S
C192 C201 1.390 . S
C193 C192 1.387 . S
C193 C195 1.387 . S
H194 C201 0.950 . S
C195 C193 1.387 . S
C195 C197 1.390 . S
C195 H199 0.950 . S
H196 C192 0.950 . S
C197 C195 1.390 . S
C197 C198 1.387 . S
C197 H200 0.950 . S
C198 C197 1.387 . S
C198 C201 1.387 . S
H199 C195 0.950 . S
H200 C197 0.950 . S
C201 C192 1.390 . S
C201 H194 0.950 . S
C201 C198 1.387 . S
C202 C203 1.387 . S
C202 H206 0.950 . S
C202 C211 1.390 . S
C203 C202 1.387 . S
C203 C205 1.387 . S
H204 C211 0.950 . S
C205 C203 1.387 . S
C205 C207 1.390 . S
C205 H209 0.950 . S
H206 C202 0.950 . S
C207 C205 1.390 . S
C207 C208 1.387 . S
C207 H210 0.950 . S
C208 C207 1.387 . S
C208 C211 1.387 . S
H209 C205 0.950 . S
H210 C207 0.950 . S
C211 C202 1.390 . S
C211 H204 0.950 . S
C211 C208 1.387 . S
C212 C213 1.387 . S
C212 H216 0.950 . S
C212 C221 1.390 . S
C213 C212 1.387 . S
C213 C215 1.387 . S
H214 C221 0.950 . S
C215 C213 1.387 . S
C215 C217 1.390 . S
C215 H219 0.950 . S
H216 C212 0.950 . S
C217 C215 1.390 . S
C217 C218 1.387 . S
C217 H220 0.950 . S
C218 C217 1.387 . S
C218 C221 1.387 . S
H219 C215 0.950 . S
H220 C217 0.950 . S
C221 C212 1.390 . S
C221 H214 0.950 . S
C221 C218 1.387 . S
C222 C223 1.387 . S
C222 H226 0.950 . S
C222 C231 1.390 . S
C223 C222 1.387 . S
C223 C225 1.387 . S
H224 C231 0.950 . S
C225 C223 1.387 . S
C225 C227 1.390 . S
C225 H229 0.950 . S
H226 C222 0.950 . S
C227 C225 1.390 . S
C227 C228 1.387 . S
C227 H230 0.950 . S
C228 C227 1.387 . S
C228 C231 1.387 . S
H229 C225 0.950 . S
H230 C227 0.950 . S
C231 C222 1.390 . S
C231 H224 0.950 . S
C231 C228 1.387 . S
C232 C233 1.387 . S
C232 H236 0.950 . S
C232 C241 1.390 . S
C233 C232 1.387 . S
C233 C235 1.387 . S
H234 C241 0.950 . S
C235 C233 1.387 . S
C235 C237 1.390 . S
C235 H239 0.950 . S
H236 C232 0.950 . S
C237 C235 1.390 . S
C237 C238 1.387 . S
C237 H240 0.950 . S
C238 C237 1.387 . S
C238 C241 1.387 . S
H239 C235 0.950 . S
H240 C237 0.950 . S
C241 C232 1.390 . S
C241 H234 0.950 . S
C241 C238 1.387 . S
C242 C243 1.387 . S
C242 H246 0.950 . S
C242 C251 1.390 . S
C243 C242 1.387 . S
C243 C245 1.387 . S
H244 C251 0.950 . S
C245 C243 1.387 . S
C245 C247 1.390 . S
C245 H249 0.950 . S
H246 C242 0.950 . S
C247 C245 1.390 . S
C247 C248 1.387 . S
C247 H250 0.950 . S
C248 C247 1.387 . S
C248 C251 1.387 . S
H249 C245 0.950 . S
H250 C247 0.950 . S
C251 C242 1.390 . S
C251 H244 0.950 . S
C251 C248 1.387 . S
C252 C253 1.387 . S
C252 H256 0.950 . S
C252 C261 1.390 . S
C253 C252 1.387 . S
C253 C255 1.387 . S
H254 C261 0.950 . S
C255 C253 1.387 . S
C255 C257 1.390 . S
C255 H259 0.950 . S
H256 C252 0.950 . S
C257 C255 1.390 . S
C257 C258 1.387 . S
C257 H260 0.950 . S
C258 C257 1.387 . S
C258 C261 1.387 . S
H259 C255 0.950 . S
H260 C257 0.950 . S
C261 C252 1.390 . S
C261 H254 0.950 . S
C261 C258 1.387 . S
C262 C263 1.387 . S
C262 H266 0.950 . S
C262 C271 1.390 . S
C263 C262 1.387 . S
C263 C265 1.387 . S
H264 C271 0.950 . S
C265 C263 1.387 . S
C265 C267 1.390 . S
C265 H269 0.950 . S
H266 C262 0.950 . S
C267 C265 1.390 . S
C267 C268 1.387 . S
C267 H270 0.950 . S
C268 C267 1.387 . S
C268 C271 1.387 . S
H269 C265 0.950 . S
H270 C267 0.950 . S
C271 C262 1.390 . S
C271 H264 0.950 . S
C271 C268 1.387 . S
C113 C9 0.775 . S
C118 C37 0.775 . S
C123 C23 0.775 . S
C128 C51 0.775 . S
C133 C65 0.781 . S
C138 C93 0.781 . S
C143 C79 0.775 . S
C148 C107 0.775 . S
C153 C7 1.426 . S
C158 C77 1.429 . S
C163 C21 1.426 . S
C168 C91 1.429 . S
C173 C105 1.426 . S
C178 C35 1.429 . S
C183 C49 1.427 . S
C188 C63 1.427 . S
C193 C59 1.734 . S
C198 C8 1.792 . S
C203 C22 1.795 . S
C208 C73 1.737 1_565 S
C213 C36 1.794 . S
C218 C87 1.736 . S
C223 C50 1.793 . S
C228 C101 1.735 1_545 S
C233 C3 1.735 1_655 S
C238 C64 1.793 . S
C243 C78 1.794 . S
C248 C17 1.736 . S
C253 C92 1.792 . S
C258 C31 1.734 1_455 S
C263 C45 1.734 . S
C268 C106 1.792 . S
