# Generated by pormake.
# Topology umg, (4)-cn, num edge types: 1
# Building blocks:
#     Node 0, Type 0, BuildingBlock: QUQFOY_clean_sbu_1, # of connection points: 4
#     Node 1, Type 0, BuildingBlock: QUQFOY_clean_sbu_1, # of connection points: 4
#     Node 2, Type 0, BuildingBlock: QUQFOY_clean_sbu_1, # of connection points: 4
#     Node 3, Type 0, BuildingBlock: QUQFOY_clean_sbu_1, # of connection points: 4
#     Node 4, Type 0, BuildingBlock: QUQFOY_clean_sbu_1, # of connection points: 4
#     Node 5, Type 0, BuildingBlock: QUQFOY_clean_sbu_1, # of connection points: 4
#     Node 6, Type 0, BuildingBlock: QUQFOY_clean_sbu_1, # of connection points: 4
#     Node 7, Type 0, BuildingBlock: QUQFOY_clean_sbu_1, # of connection points: 4
#     Node 8, Type 0, BuildingBlock: QUQFOY_clean_sbu_1, # of connection points: 4
#     Node 9, Type 0, BuildingBlock: QUQFOY_clean_sbu_1, # of connection points: 4
#     Node 10, Type 0, BuildingBlock: QUQFOY_clean_sbu_1, # of connection points: 4
#     Node 11, Type 0, BuildingBlock: QUQFOY_clean_sbu_1, # of connection points: 4
#     Edge 12, Type (0, 0), BuildingBlock: CIFDUS_clean_linker_0, # of connection points: 2
#     Edge 13, Type (0, 0), BuildingBlock: CIFDUS_clean_linker_0, # of connection points: 2
#     Edge 14, Type (0, 0), BuildingBlock: CIFDUS_clean_linker_0, # of connection points: 2
#     Edge 15, Type (0, 0), BuildingBlock: CIFDUS_clean_linker_0, # of connection points: 2
#     Edge 16, Type (0, 0), BuildingBlock: CIFDUS_clean_linker_0, # of connection points: 2
#     Edge 17, Type (0, 0), BuildingBlock: CIFDUS_clean_linker_0, # of connection points: 2
#     Edge 18, Type (0, 0), BuildingBlock: CIFDUS_clean_linker_0, # of connection points: 2
#     Edge 19, Type (0, 0), BuildingBlock: CIFDUS_clean_linker_0, # of connection points: 2
#     Edge 20, Type (0, 0), BuildingBlock: CIFDUS_clean_linker_0, # of connection points: 2
#     Edge 21, Type (0, 0), BuildingBlock: CIFDUS_clean_linker_0, # of connection points: 2
#     Edge 22, Type (0, 0), BuildingBlock: CIFDUS_clean_linker_0, # of connection points: 2
#     Edge 23, Type (0, 0), BuildingBlock: CIFDUS_clean_linker_0, # of connection points: 2
#     Edge 24, Type (0, 0), BuildingBlock: CIFDUS_clean_linker_0, # of connection points: 2
#     Edge 25, Type (0, 0), BuildingBlock: CIFDUS_clean_linker_0, # of connection points: 2
#     Edge 26, Type (0, 0), BuildingBlock: CIFDUS_clean_linker_0, # of connection points: 2
#     Edge 27, Type (0, 0), BuildingBlock: CIFDUS_clean_linker_0, # of connection points: 2
#     Edge 28, Type (0, 0), BuildingBlock: CIFDUS_clean_linker_0, # of connection points: 2
#     Edge 29, Type (0, 0), BuildingBlock: CIFDUS_clean_linker_0, # of connection points: 2
#     Edge 30, Type (0, 0), BuildingBlock: CIFDUS_clean_linker_0, # of connection points: 2
#     Edge 31, Type (0, 0), BuildingBlock: CIFDUS_clean_linker_0, # of connection points: 2
#     Edge 32, Type (0, 0), BuildingBlock: CIFDUS_clean_linker_0, # of connection points: 2
#     Edge 33, Type (0, 0), BuildingBlock: CIFDUS_clean_linker_0, # of connection points: 2
#     Edge 34, Type (0, 0), BuildingBlock: CIFDUS_clean_linker_0, # of connection points: 2
#     Edge 35, Type (0, 0), BuildingBlock: CIFDUS_clean_linker_0, # of connection points: 2
# Relax obj value: 0.082
# Max RMSD: 0.307
# Mean RMSD: 0.201
data_MOF--net-umg--node1-QUQFOY_clean_sbu_1--edge1-CIFDUS_clean_linker_0
_symmetry_space_group_name_H-M    P1
_symmetry_Int_Tables_number       1
_symmetry_cell_setting            triclinic
loop_
_symmetry_equiv_pos_as_xyz
'x, y, z'
_cell_length_a     25.604812
_cell_length_b     25.583843
_cell_length_c     76.037189
_cell_angle_alpha  90.243022
_cell_angle_beta   86.228938
_cell_angle_gamma 119.86124
loop_
_atom_site_label
_atom_site_type_symbol
_atom_site_fract_x
_atom_site_fract_y
_atom_site_fract_z
_atom_type_partial_charge
O0 O 0.34462 0.64155 0.06226 0.0
Cd1 Cd 0.32204 0.60421 0.08733 0.0
Cd2 Cd 0.33031 0.71532 0.09279 0.0
O3 O 0.36907 0.7363 0.06695 0.0
O4 O 0.33766 0.53401 0.08634 0.0
O5 O 0.39427 0.61804 0.09993 0.0
C6 C 0.38537 0.56669 0.09461 0.0
C7 C 0.37667 0.74211 0.11935 0.0
C8 C 0.36549 0.6955 0.0566 0.0
C9 C 0.20771 0.60731 0.09859 0.0
O10 O 0.23801 0.66404 0.09556 0.0
O11 O 0.23383 0.57575 0.09783 0.0
O12 O 0.36305 0.77811 0.11151 0.0
O13 O 0.36747 0.69411 0.1114 0.0
O14 O 0.73722 0.31332 0.39872 0.0
Cd15 Cd 0.75704 0.29083 0.42229 0.0
Cd16 Cd 0.65535 0.29728 0.43212 0.0
O17 O 0.66864 0.33826 0.40739 0.0
O18 O 0.84347 0.30812 0.41869 0.0
O19 O 0.81627 0.36248 0.43536 0.0
C20 C 0.85874 0.35461 0.42828 0.0
C21 C 0.67514 0.34055 0.4596 0.0
C22 C 0.70322 0.33445 0.39525 0.0
C23 C 0.64221 0.17496 0.43352 0.0
O24 O 0.61505 0.20506 0.43275 0.0
O25 O 0.69987 0.20161 0.43163 0.0
O26 O 0.62497 0.3269 0.45282 0.0
O27 O 0.71444 0.33321 0.45016 0.0
O28 O 0.41497 0.70121 0.73018 0.0
Cd29 Cd 0.44878 0.71686 0.75458 0.0
Cd30 Cd 0.33754 0.60633 0.76011 0.0
O31 O 0.32083 0.62648 0.73523 0.0
O32 O 0.51304 0.80594 0.75375 0.0
O33 O 0.42543 0.76895 0.76912 0.0
C34 C 0.47508 0.81535 0.7633 0.0
C35 C 0.30604 0.62392 0.78787 0.0
C36 C 0.36279 0.66669 0.72489 0.0
C37 C 0.45079 0.60154 0.76356 0.0
O38 O 0.39487 0.57231 0.76088 0.0
O39 O 0.47939 0.65933 0.76338 0.0
O40 O 0.27249 0.57356 0.78041 0.0
O41 O 0.35371 0.66383 0.77897 0.0
O42 O 0.74996 0.46134 0.06363 0.0
Cd43 Cd 0.75079 0.50143 0.08697 0.0
Cd44 Cd 0.73432 0.39642 0.09906 0.0
O45 O 0.70213 0.36719 0.07417 0.0
O46 O 0.73169 0.56857 0.08353 0.0
O47 O 0.66777 0.48098 0.09679 0.0
C48 C 0.67887 0.53305 0.09117 0.0
C49 C 0.68514 0.38251 0.12705 0.0
C50 C 0.72308 0.40499 0.06113 0.0
C51 C 0.85644 0.50017 0.10109 0.0
O52 O 0.82651 0.44338 0.09934 0.0
O53 O 0.83101 0.53188 0.09949 0.0
O54 O 0.69494 0.3409 0.12068 0.0
O55 O 0.69941 0.42864 0.11701 0.0
O56 O 0.31899 0.716 0.39418 0.0
Cd57 Cd 0.28843 0.71771 0.41966 0.0
Cd58 Cd 0.38029 0.70215 0.4254 0.0
O59 O 0.36904 0.66908 0.39983 0.0
O60 O 0.20168 0.69878 0.41985 0.0
O61 O 0.22835 0.63564 0.43018 0.0
C62 C 0.18607 0.64638 0.42664 0.0
C63 C 0.36058 0.65279 0.45283 0.0
C64 C 0.34736 0.68925 0.3888 0.0
C65 C 0.39871 0.82411 0.43156 0.0
O66 O 0.42495 0.79453 0.42699 0.0
O67 O 0.34117 0.79839 0.4322 0.0
O68 O 0.4097 0.66648 0.44327 0.0
O69 O 0.32151 0.66293 0.44609 0.0
O70 O 0.61576 0.29363 0.72995 0.0
Cd71 Cd 0.5773 0.25954 0.75448 0.0
Cd72 Cd 0.67783 0.35254 0.76361 0.0
O73 O 0.70886 0.34004 0.73843 0.0
O74 O 0.51828 0.16938 0.75413 0.0
O75 O 0.61006 0.20834 0.76326 0.0
C76 C 0.56032 0.16133 0.75984 0.0
C77 C 0.69046 0.32769 0.79204 0.0
C78 C 0.67243 0.32095 0.72619 0.0
C79 C 0.57164 0.36759 0.76698 0.0
O80 O 0.62858 0.39567 0.76354 0.0
O81 O 0.54223 0.30987 0.76723 0.0
O82 O 0.73204 0.37687 0.78401 0.0
O83 O 0.64468 0.29241 0.78351 0.0
O84 O 0.40809 0.68563 0.61714 0.0
Cd85 Cd 0.44559 0.69204 0.59211 0.0
Cd86 Cd 0.34353 0.68497 0.58461 0.0
O87 O 0.31378 0.64297 0.60979 0.0
O88 O 0.50478 0.66102 0.59208 0.0
O89 O 0.4148 0.61056 0.58164 0.0
C90 C 0.46385 0.61227 0.58544 0.0
C91 C 0.3165 0.64527 0.55673 0.0
C92 C 0.35177 0.65839 0.62153 0.0
C93 C 0.45202 0.80643 0.58076 0.0
O94 O 0.39511 0.77756 0.58426 0.0
O95 O 0.48157 0.77819 0.58025 0.0
O96 O 0.28174 0.65882 0.56643 0.0
O97 O 0.36384 0.6508 0.56341 0.0
O98 O 0.72535 0.42514 0.95552 0.0
Cd99 Cd 0.75279 0.4695 0.93134 0.0
Cd100 Cd 0.65412 0.36131 0.92334 0.0
O101 O 0.65887 0.3324 0.94844 0.0
O102 O 0.83742 0.53907 0.93374 0.0
O103 O 0.81781 0.45885 0.91834 0.0
C104 C 0.85703 0.50876 0.92468 0.0
C105 C 0.68603 0.34229 0.89588 0.0
C106 C 0.69007 0.36981 0.95981 0.0
C107 C 0.64102 0.46995 0.92038 0.0
O108 O 0.61361 0.41278 0.92223 0.0
O109 O 0.6981 0.50098 0.9216 0.0
O110 O 0.63314 0.30434 0.90311 0.0
O111 O 0.72103 0.38754 0.90491 0.0
O112 O 0.33087 0.75208 0.27928 0.0
Cd113 Cd 0.32135 0.77195 0.25408 0.0
Cd114 Cd 0.33066 0.67071 0.24932 0.0
O115 O 0.36368 0.68768 0.27445 0.0
O116 O 0.3383 0.85807 0.2544 0.0
O117 O 0.40092 0.83159 0.24147 0.0
C118 C 0.39021 0.87372 0.24635 0.0
C119 C 0.3806 0.69156 0.22126 0.0
C120 C 0.35309 0.72109 0.28487 0.0
C121 C 0.21099 0.6575 0.24434 0.0
O122 O 0.23887 0.63016 0.24836 0.0
O123 O 0.23806 0.71514 0.24378 0.0
O124 O 0.36697 0.64206 0.22972 0.0
O125 O 0.37041 0.73 0.22945 0.0
O126 O 0.61095 0.30017 0.61797 0.0
Cd127 Cd 0.57592 0.27974 0.59367 0.0
Cd128 Cd 0.68679 0.27882 0.58814 0.0
O129 O 0.70421 0.31653 0.61287 0.0
O130 O 0.51197 0.30535 0.5942 0.0
O131 O 0.59941 0.35399 0.57869 0.0
C132 C 0.54995 0.35166 0.58441 0.0
C133 C 0.71985 0.32732 0.56049 0.0
C134 C 0.66309 0.31691 0.62318 0.0
C135 C 0.57309 0.16124 0.58494 0.0
O136 O 0.62918 0.18772 0.58739 0.0
O137 O 0.54465 0.19072 0.58525 0.0
O138 O 0.75254 0.30985 0.56813 0.0
O139 O 0.672 0.32044 0.56919 0.0
O140 O 0.31893 0.62765 0.95346 0.0
Cd141 Cd 0.28749 0.58111 0.93097 0.0
Cd142 Cd 0.37738 0.6824 0.91667 0.0
O143 O 0.36737 0.71848 0.94057 0.0
O144 O 0.20054 0.51486 0.93568 0.0
O145 O 0.22801 0.59809 0.91998 0.0
C146 C 0.18546 0.54779 0.92689 0.0
C147 C 0.35549 0.69703 0.88836 0.0
C148 C 0.34686 0.68472 0.95449 0.0
C149 C 0.39812 0.57889 0.9172 0.0
O150 O 0.42378 0.63609 0.9174 0.0
O151 O 0.3407 0.54715 0.91963 0.0
O152 O 0.40467 0.73705 0.8949 0.0
O153 O 0.31798 0.65141 0.89834 0.0
O154 O 0.74834 0.31974 0.28332 0.0
Cd155 Cd 0.75287 0.29761 0.25756 0.0
Cd156 Cd 0.74104 0.40099 0.25469 0.0
O157 O 0.71388 0.38363 0.28156 0.0
O158 O 0.73561 0.21065 0.25689 0.0
O159 O 0.67326 0.23926 0.24812 0.0
C160 C 0.68433 0.19644 0.25087 0.0
C161 C 0.68511 0.3754 0.22995 0.0
C162 C 0.72922 0.3524 0.2907 0.0
C163 C 0.86176 0.41423 0.24392 0.0
O164 O 0.83249 0.44043 0.24903 0.0
O165 O 0.83576 0.35663 0.24394 0.0
O166 O 0.70016 0.42645 0.23717 0.0
O167 O 0.69863 0.33957 0.23758 0.0
H168 H 0.4103 0.66415 0.97696 0.0
H169 H 0.31256 0.75898 0.97151 0.0
H170 H 0.31816 0.78032 1.00316 0.0
H171 H 0.33784 0.75751 0.03311 0.0
H172 H 0.43245 0.65864 0.03758 0.0
H173 H 0.44266 0.6546 1.00561 0.0
C174 C 0.39161 0.69083 0.98267 0.0
C175 C 0.36095 0.70988 0.97212 0.0
C176 C 0.39432 0.70188 1.00073 0.0
C177 C 0.33671 0.74429 0.97948 0.0
C178 C 0.33957 0.75601 0.99756 0.0
C179 C 0.36237 0.73696 0.02698 0.0
C180 C 0.38423 0.70819 0.03762 0.0
C181 C 0.36646 0.73315 0.00846 0.0
C182 C 0.41516 0.68086 0.02961 0.0
C183 C 0.42072 0.67823 0.01135 0.0
H184 H 0.7887 0.35744 0.3693 0.0
H185 H 0.61592 0.34689 0.3792 0.0
H186 H 0.61019 0.3574 0.34736 0.0
H187 H 0.65072 0.35889 0.31631 0.0
H188 H 0.82131 0.36329 0.30799 0.0
H189 H 0.83137 0.36589 0.33952 0.0
C190 C 0.74985 0.35791 0.36457 0.0
C191 C 0.70248 0.35056 0.37659 0.0
C192 C 0.74625 0.3623 0.34643 0.0
C193 C 0.65305 0.35238 0.37021 0.0
C194 C 0.64958 0.35796 0.35199 0.0
C195 C 0.69022 0.36116 0.32149 0.0
C196 C 0.73479 0.36001 0.30988 0.0
C197 C 0.69528 0.3613 0.3399 0.0
C198 C 0.7859 0.36304 0.31669 0.0
C199 C 0.79187 0.36473 0.33472 0.0
H200 H 0.28755 0.58189 0.70222 0.0
H201 H 0.4182 0.77092 0.7058 0.0
H202 H 0.42034 0.78567 0.6742 0.0
H203 H 0.39588 0.74345 0.64526 0.0
H204 H 0.26679 0.55548 0.64022 0.0
H205 H 0.25245 0.54161 0.67258 0.0
C206 C 0.31532 0.62641 0.69608 0.0
C207 C 0.35341 0.67504 0.70632 0.0
C208 C 0.31713 0.63464 0.67763 0.0
C209 C 0.38923 0.73255 0.6982 0.0
C210 C 0.39055 0.74113 0.6801 0.0
C211 C 0.36375 0.69965 0.65128 0.0
C212 C 0.33282 0.65046 0.64053 0.0
C213 C 0.35643 0.69223 0.66966 0.0
C214 C 0.29091 0.59401 0.64834 0.0
C215 C 0.28315 0.5861 0.66681 0.0
H216 H 0.62901 0.32888 0.04158 0.0
H217 H 0.8227 0.44103 0.03986 0.0
H218 H 0.83017 0.43106 0.00808 0.0
H219 H 0.78125 0.40482 0.98053 0.0
H220 H 0.5878 0.29616 0.98096 0.0
H221 H 0.58027 0.28916 0.01337 0.0
C222 C 0.67271 0.34947 0.03423 0.0
C223 C 0.72528 0.38592 0.04292 0.0
C224 C 0.6766 0.3448 0.01572 0.0
C225 C 0.78175 0.41305 0.03334 0.0
C226 C 0.78606 0.40755 0.01518 0.0
C227 C 0.73755 0.37832 0.98773 0.0
C228 C 0.68518 0.35154 0.9785 0.0
C229 C 0.73373 0.37572 1.00618 0.0
C230 C 0.62878 0.31695 0.98786 0.0
C231 C 0.6245 0.31352 1.00638 0.0
H232 H 0.35327 0.6364 0.30742 0.0
H233 H 0.38153 0.81742 0.30475 0.0
H234 H 0.38675 0.82431 0.33645 0.0
H235 H 0.37324 0.77669 0.36511 0.0
H236 H 0.34576 0.59681 0.36939 0.0
H237 H 0.35088 0.59174 0.33699 0.0
C238 C 0.36171 0.67759 0.3138 0.0
C239 C 0.36602 0.72596 0.30372 0.0
C240 C 0.36411 0.68126 0.33233 0.0
C241 C 0.37701 0.77913 0.31218 0.0
C242 C 0.38004 0.78325 0.33034 0.0
C243 C 0.36887 0.73646 0.35896 0.0
C244 C 0.3582 0.68688 0.36954 0.0
C245 C 0.37184 0.73411 0.34056 0.0
C246 C 0.35383 0.63551 0.36145 0.0
C247 C 0.35648 0.6326 0.34295 0.0
H248 H 0.63488 0.36834 0.7025 0.0
H249 H 0.75516 0.29832 0.70782 0.0
H250 H 0.76991 0.29785 0.67548 0.0
H251 H 0.73603 0.30421 0.64585 0.0
H252 H 0.61255 0.37178 0.64195 0.0
H253 H 0.61222 0.3872 0.67349 0.0
C254 C 0.66542 0.35425 0.69654 0.0
C255 C 0.69362 0.33307 0.70737 0.0
C256 C 0.67251 0.35312 0.67818 0.0
C257 C 0.7333 0.31515 0.69965 0.0
C258 C 0.74119 0.31438 0.68119 0.0
C259 C 0.71028 0.32358 0.6519 0.0
C260 C 0.67362 0.33597 0.64162 0.0
C261 C 0.70928 0.33132 0.67031 0.0
C262 C 0.64036 0.36098 0.64961 0.0
C263 C 0.6401 0.36985 0.66766 0.0
H264 H 0.40141 0.78674 0.20035 0.0
H265 H 0.39799 0.61635 0.19886 0.0
H266 H 0.40555 0.62203 0.16661 0.0
H267 H 0.39835 0.66797 0.13927 0.0
H268 H 0.39448 0.83472 0.14098 0.0
H269 H 0.40528 0.83817 0.17275 0.0
C270 C 0.40353 0.75131 0.19301 0.0
C271 C 0.39846 0.70078 0.20206 0.0
C272 C 0.40584 0.75392 0.1745 0.0
C273 C 0.40158 0.65559 0.19227 0.0
C274 C 0.40552 0.65866 0.17382 0.0
C275 C 0.40097 0.70574 0.1465 0.0
C276 C 0.39489 0.75073 0.13775 0.0
C277 C 0.4054 0.70648 0.16483 0.0
C278 C 0.39872 0.79937 0.14736 0.0
C279 C 0.40463 0.80121 0.16555 0.0
H280 H 0.7669 0.35174 0.47821 0.0
H281 H 0.60416 0.36357 0.48321 0.0
H282 H 0.61009 0.37054 0.51516 0.0
H283 H 0.65304 0.35882 0.54164 0.0
H284 H 0.81084 0.33837 0.53684 0.0
H285 H 0.81592 0.35036 0.50475 0.0
C286 C 0.73329 0.35701 0.48623 0.0
C287 C 0.6847 0.35646 0.47833 0.0
C288 C 0.73586 0.35891 0.50463 0.0
C289 C 0.64174 0.36347 0.48894 0.0
C290 C 0.64501 0.36723 0.50722 0.0
C291 C 0.6893 0.35803 0.53364 0.0
C292 C 0.73113 0.34693 0.54164 0.0
C293 C 0.69059 0.36277 0.51522 0.0
C294 C 0.77795 0.34654 0.53104 0.0
C295 C 0.78062 0.35305 0.51268 0.0
H296 H 0.372 0.72488 0.80592 0.0
H297 H 0.21851 0.54488 0.81236 0.0
H298 H 0.21564 0.55544 0.84438 0.0
H299 H 0.26518 0.61054 0.87044 0.0
H300 H 0.42308 0.78766 0.86374 0.0
H301 H 0.41542 0.78359 0.83184 0.0
C302 C 0.33717 0.68818 0.81426 0.0
C303 C 0.29588 0.63382 0.80673 0.0
C304 C 0.33707 0.69387 0.83263 0.0
C305 C 0.2509 0.58708 0.81778 0.0
C306 C 0.24951 0.593 0.83611 0.0
C307 C 0.29736 0.64878 0.86205 0.0
C308 C 0.34507 0.69918 0.86948 0.0
C309 C 0.29367 0.64539 0.84368 0.0
C310 C 0.3862 0.74824 0.85839 0.0
C311 C 0.38193 0.74584 0.84013 0.0
H312 H 0.64948 0.29303 0.15226 0.0
H313 H 0.68005 0.47339 0.14438 0.0
H314 H 0.67315 0.48444 0.17611 0.0
H315 H 0.67559 0.44925 0.206 0.0
H316 H 0.64342 0.26827 0.21382 0.0
H317 H 0.63249 0.25097 0.18247 0.0
C318 C 0.65323 0.33419 0.15748 0.0
C319 C 0.66663 0.38265 0.14594 0.0
C320 C 0.64952 0.34056 0.17584 0.0
C321 C 0.67049 0.43545 0.15294 0.0
C322 C 0.66677 0.44203 0.17114 0.0
C323 C 0.66443 0.40549 0.20092 0.0
C324 C 0.66182 0.36078 0.2122 0.0
C325 C 0.65886 0.39585 0.18273 0.0
C326 C 0.6468 0.30405 0.2054 0.0
C327 C 0.64075 0.29404 0.18742 0.0
H328 H 0.38811 0.62464 0.53313 0.0
H329 H 0.22447 0.63479 0.5378 0.0
H330 H 0.21932 0.62905 0.50581 0.0
H331 H 0.26832 0.63451 0.47649 0.0
H332 H 0.43535 0.63074 0.4718 0.0
H333 H 0.43157 0.61967 0.50385 0.0
C334 C 0.35067 0.62455 0.52721 0.0
C335 C 0.30705 0.63081 0.53787 0.0
C336 C 0.34889 0.62285 0.50877 0.0
C337 C 0.25879 0.63033 0.52994 0.0
C338 C 0.25597 0.62729 0.51162 0.0
C339 C 0.30339 0.63012 0.48242 0.0
C340 C 0.35243 0.63407 0.47172 0.0
C341 C 0.30184 0.62555 0.50088 0.0
C342 C 0.39726 0.62811 0.47968 0.0
C343 C 0.39527 0.62209 0.49803 0.0
H344 H 0.62288 0.25558 0.87253 0.0
H345 H 0.78881 0.4237 0.87682 0.0
H346 H 0.80902 0.43109 0.84491 0.0
H347 H 0.77273 0.39687 0.8155 0.0
H348 H 0.60712 0.22825 0.81136 0.0
H349 H 0.59443 0.2139 0.84328 0.0
C350 C 0.66406 0.29319 0.86652 0.0
C351 C 0.70361 0.3394 0.87707 0.0
C352 C 0.67533 0.29757 0.84807 0.0
C353 C 0.75712 0.38759 0.86904 0.0
C354 C 0.76872 0.3921 0.85073 0.0
C355 C 0.73456 0.35642 0.82156 0.0
C356 C 0.69049 0.31439 0.81102 0.0
C357 C 0.72709 0.34845 0.84006 0.0
C358 C 0.64149 0.2619 0.81912 0.0
C359 C 0.63398 0.25359 0.83743 0.0
H360 H 0.92362 0.44559 0.10439 0.0
H361 H 0.93764 0.62088 0.10288 0.0
H362 H 0.04728 0.66914 0.10329 0.0
H363 H 0.13938 0.66172 0.10177 0.0
H364 H 0.12553 0.48646 0.10261 0.0
H365 H 1.01547 0.43816 0.1049 0.0
C366 C 0.95047 0.49438 0.10433 0.0
C367 C 0.92218 0.52948 0.10346 0.0
C368 C 1.01361 0.52189 0.10434 0.0
C369 C 0.95797 0.59265 0.10349 0.0
C370 C 1.02079 0.62032 0.10367 0.0
C371 C 0.11244 0.61292 0.1026 0.0
C372 C 0.14099 0.57785 0.10185 0.0
C373 C 0.04914 0.5854 0.10372 0.0
C374 C 0.10503 0.51467 0.10308 0.0
C375 C 0.04199 0.48698 0.10435 0.0
H376 H 0.52005 0.10588 0.43932 0.0
H377 H 0.68192 0.09313 0.43174 0.0
H378 H 0.62075 0.98323 0.43168 0.0
H379 H 0.52134 0.89139 0.43165 0.0
H380 H 0.35962 0.90458 0.43878 0.0
H381 H 0.42093 1.01371 0.44125 0.0
C382 C 0.54217 0.07919 0.4378 0.0
C383 C 0.6057 0.10807 0.43538 0.0
C384 C 0.5067 0.01602 0.4376 0.0
C385 C 0.63326 0.07239 0.43357 0.0
C386 C 0.59824 1.00945 0.43348 0.0
C387 C 0.49934 0.91795 0.4339 0.0
C388 C 0.43575 0.88957 0.43488 0.0
C389 C 0.53491 0.98086 0.43516 0.0
C390 C 0.40832 0.92497 0.43791 0.0
C391 C 0.4434 0.98751 0.43928 0.0
H392 H 0.6216 0.48984 0.76764 0.0
H393 H 0.44958 0.32468 0.77094 0.0
H394 H 0.39743 0.38282 0.77113 0.0
H395 H 0.4007 0.47999 0.76837 0.0
H396 H 0.5726 0.64527 0.76475 0.0
H397 H 0.62464 0.58742 0.76676 0.0
C398 C 0.57265 0.46639 0.76857 0.0
C399 C 0.53967 0.40272 0.76915 0.0
C400 C 0.5429 0.50014 0.76849 0.0
C401 C 0.47624 0.37345 0.77045 0.0
C402 C 0.44635 0.40673 0.77049 0.0
C403 C 0.44959 0.5036 0.76811 0.0
C404 C 0.48262 0.56711 0.76623 0.0
C405 C 0.47924 0.47003 0.76919 0.0
C406 C 0.54591 0.59659 0.76612 0.0
C407 C 0.57575 0.56346 0.76724 0.0
H408 H 0.62288 0.08936 0.57965 0.0
H409 H 0.451 0.08337 0.58434 0.0
H410 H 0.39882 0.97358 0.58227 0.0
H411 H 0.40185 0.87894 0.58092 0.0
H412 H 0.57397 0.88536 0.57648 0.0
H413 H 0.62605 0.99543 0.57651 0.0
C414 C 0.57396 0.06425 0.58015 0.0
C415 C 0.541 0.09492 0.58232 0.0
C416 C 0.54424 1.00109 0.57902 0.0
C417 C 0.47765 0.06127 0.58273 0.0
C418 C 0.44774 0.99836 0.58158 0.0
C419 C 0.4508 0.90429 0.5798 0.0
C420 C 0.48382 0.87349 0.57881 0.0
C421 C 0.48055 0.96772 0.57998 0.0
C422 C 0.54725 0.9075 0.57728 0.0
C423 C 0.57712 0.97057 0.57736 0.0
H424 H 0.52105 0.63321 0.91507 0.0
H425 H 0.35991 0.45819 0.91576 0.0
H426 H 0.42134 0.40963 0.91576 0.0
H427 H 0.51985 0.41653 0.91736 0.0
H428 H 0.68104 0.59128 0.91741 0.0
H429 H 0.62033 0.64015 0.91522 0.0
C430 C 0.49925 0.58442 0.91505 0.0
C431 C 0.43571 0.54948 0.9155 0.0
C432 C 0.53483 0.55669 0.91528 0.0
C433 C 0.40855 0.48631 0.91547 0.0
C434 C 0.44369 0.45845 0.9155 0.0
C435 C 0.54198 0.46536 0.91678 0.0
C436 C 0.60511 0.50009 0.91767 0.0
C437 C 0.50675 0.49317 0.9157 0.0
C438 C 0.63266 0.56332 0.91681 0.0
C439 C 0.59791 0.59133 0.91559 0.0
H440 H 0.14522 0.53662 0.23962 0.0
H441 H 0.12992 0.69714 0.24212 0.0
H442 H 1.02078 0.63607 0.24029 0.0
H443 H 0.92911 0.53667 0.24073 0.0
H444 H 0.94426 0.37599 0.23864 0.0
H445 H 0.05422 0.43782 0.23726 0.0
C446 C 0.11817 0.55842 0.23962 0.0
C447 C 0.14582 0.62144 0.24125 0.0
C448 C 0.05536 0.52299 0.23866 0.0
C449 C 0.10998 0.64882 0.24098 0.0
C450 C 0.04747 0.61386 0.23997 0.0
C451 C 0.95636 0.51503 0.23974 0.0
C452 C 0.92817 0.45155 0.24 0.0
C453 C 1.01957 0.55082 0.23921 0.0
C454 C 0.96448 0.4246 0.23851 0.0
C455 C 0.02746 0.45997 0.23783 0.0
H456 H 0.55815 0.45715 0.0947 0.0
H457 H 0.6926 0.64611 0.0913 0.0
H458 H 0.61285 0.67274 0.09377 0.0
H459 H 0.50513 0.64211 0.0957 0.0
H460 H 0.37084 0.45334 0.09614 0.0
H461 H 0.45038 0.42652 0.0962 0.0
C462 C 0.57001 0.50419 0.09463 0.0
C463 C 0.63118 0.5497 0.09292 0.0
C464 C 0.52396 0.519 0.09555 0.0
C465 C 0.64587 0.61037 0.09257 0.0
C466 C 0.6003 0.62554 0.09402 0.0
C467 C 0.49324 0.59506 0.09606 0.0
C468 C 0.43222 0.54963 0.09614 0.0
C469 C 0.53924 0.58022 0.09539 0.0
C470 C 0.41748 0.48896 0.09618 0.0
C471 C 0.46293 0.47371 0.09616 0.0
H472 H 0.90346 0.47334 0.43387 0.0
H473 H 0.95765 0.33982 0.42535 0.0
H474 H 0.06399 0.41832 0.4256 0.0
H475 H 0.14142 0.5256 0.42658 0.0
H476 H 0.08697 0.6599 0.43201 0.0
H477 H 0.98071 0.58046 0.43468 0.0
C478 C 0.93855 0.46132 0.4323 0.0
C479 C 0.92279 0.40079 0.42976 0.0
C480 C 0.99945 0.50694 0.43179 0.0
C481 C 0.96871 0.38605 0.42738 0.0
C482 C 0.02944 0.43093 0.42749 0.0
C483 C 0.10626 0.53741 0.42854 0.0
C484 C 0.12195 0.59851 0.42922 0.0
C485 C 0.04534 0.49161 0.42945 0.0
C486 C 0.07598 0.61322 0.43145 0.0
C487 C 1.01528 0.56782 0.43298 0.0
H488 H 0.45826 0.05318 0.76786 0.0
H489 H 0.6499 0.13441 0.75503 0.0
H490 H 0.64187 0.03522 0.75555 0.0
H491 H 0.57937 0.92432 0.75828 0.0
H492 H 0.38894 0.84398 0.77338 0.0
H493 H 0.39765 0.9432 0.77358 0.0
C494 C 0.49816 0.049 0.76526 0.0
C495 C 0.5544 0.10089 0.76125 0.0
C496 C 0.49352 0.99181 0.76603 0.0
C497 C 0.606 0.09504 0.75816 0.0
C498 C 0.60148 0.03831 0.75841 0.0
C499 C 0.54001 0.92867 0.76182 0.0
C500 C 0.48362 0.87666 0.76568 0.0
C501 C 0.54537 0.98622 0.76216 0.0
C502 C 0.43306 0.88316 0.77038 0.0
C503 C 0.43782 0.93998 0.7704 0.0
H504 H 0.56687 0.60607 0.5791 0.0
H505 H 0.37361 0.49574 0.58806 0.0
H506 H 0.3819 0.40466 0.58805 0.0
H507 H 0.44492 0.35626 0.58716 0.0
H508 H 0.6374 0.4665 0.57574 0.0
H509 H 0.62851 0.55689 0.57485 0.0
C510 C 0.52665 0.56203 0.58091 0.0
C511 C 0.46985 0.55773 0.58373 0.0
C512 C 0.53155 0.50955 0.58046 0.0
C513 C 0.41794 0.5003 0.58583 0.0
C514 C 0.42261 0.44811 0.58589 0.0
C515 C 0.48472 0.4 0.58427 0.0
C516 C 0.5417 0.40446 0.58165 0.0
C517 C 0.47927 0.45214 0.58345 0.0
C518 C 0.59286 0.46153 0.57777 0.0
C519 C 0.58795 0.5135 0.57735 0.0
H520 H 0.13993 0.62239 0.92359 0.0
H521 H 0.0878 0.43421 0.92716 0.0
H522 H 0.98184 0.40589 0.92517 0.0
H523 H 0.90391 0.43483 0.92352 0.0
H524 H 0.95472 0.62279 0.92329 0.0
H525 H 0.06159 0.65134 0.92275 0.0
C526 C 0.10535 0.57517 0.9238 0.0
C527 C 0.12155 0.53034 0.92538 0.0
C528 C 0.04447 0.55939 0.92325 0.0
C529 C 0.07632 0.46941 0.92596 0.0
C530 C 1.01584 0.45328 0.92479 0.0
C531 C 0.9385 0.48207 0.92313 0.0
C532 C 0.92172 0.52678 0.9232 0.0
C533 C 0.99939 0.49789 0.92355 0.0
C534 C 0.96672 0.58772 0.92313 0.0
C535 C 0.02769 0.60395 0.92286 0.0
H536 H 0.51072 0.91648 0.24395 0.0
H537 H 0.37818 0.97398 0.24553 0.0
H538 H 0.4587 0.07947 0.2457 0.0
H539 H 0.56568 0.15436 0.24733 0.0
H540 H 0.69766 0.0966 0.24849 0.0
H541 H 0.61828 0.99183 0.24531 0.0
C542 C 0.49953 0.95218 0.24406 0.0
C543 C 0.43861 0.93758 0.24458 0.0
C544 C 0.54587 1.01244 0.24482 0.0
C545 C 0.42471 0.98416 0.24506 0.0
C546 C 0.4707 0.04438 0.24521 0.0
C547 C 0.57729 0.11896 0.24673 0.0
C548 C 0.63758 0.13325 0.24811 0.0
C549 C 0.53129 0.05892 0.2454 0.0
C550 C 0.65164 0.08676 0.24749 0.0
C551 C 0.60627 0.02692 0.24567 0.0
loop_
_geom_bond_atom_site_label_1
_geom_bond_atom_site_label_2
_geom_bond_distance
_geom_bond_site_symmetry_2
_ccdc_geom_bond_type
O0 Cd1 2.223 . S
O0 C8 1.315 . S
Cd1 O0 2.223 . S
Cd1 O4 2.297 . S
Cd1 O5 2.439 . S
Cd1 O11 2.240 . S
Cd2 O3 2.240 . S
Cd2 O10 2.223 . S
Cd2 O12 2.297 . S
Cd2 O13 2.439 . S
O3 Cd2 2.240 . S
O3 C8 1.279 . S
O4 Cd1 2.297 . S
O4 C6 1.247 . S
O5 Cd1 2.439 . S
O5 C6 1.208 . S
C6 O4 1.247 . S
C6 O5 1.208 . S
C7 O12 1.247 . S
C7 O13 1.208 . S
C8 O0 1.315 . S
C8 O3 1.279 . S
C9 O10 1.315 . S
C9 O11 1.279 . S
O10 Cd2 2.223 . S
O10 C9 1.315 . S
O11 Cd1 2.240 . S
O11 C9 1.279 . S
O12 Cd2 2.297 . S
O12 C7 1.247 . S
O13 Cd2 2.439 . S
O13 C7 1.208 . S
O14 Cd15 2.223 . S
O14 C22 1.315 . S
Cd15 O14 2.223 . S
Cd15 O18 2.297 . S
Cd15 O19 2.439 . S
Cd15 O25 2.240 . S
Cd16 O17 2.240 . S
Cd16 O24 2.223 . S
Cd16 O26 2.297 . S
Cd16 O27 2.439 . S
O17 Cd16 2.240 . S
O17 C22 1.279 . S
O18 Cd15 2.297 . S
O18 C20 1.247 . S
O19 Cd15 2.439 . S
O19 C20 1.208 . S
C20 O18 1.247 . S
C20 O19 1.208 . S
C21 O26 1.247 . S
C21 O27 1.208 . S
C22 O14 1.315 . S
C22 O17 1.279 . S
C23 O24 1.315 . S
C23 O25 1.279 . S
O24 Cd16 2.223 . S
O24 C23 1.315 . S
O25 Cd15 2.240 . S
O25 C23 1.279 . S
O26 Cd16 2.297 . S
O26 C21 1.247 . S
O27 Cd16 2.439 . S
O27 C21 1.208 . S
O28 Cd29 2.223 . S
O28 C36 1.315 . S
Cd29 O28 2.223 . S
Cd29 O32 2.297 . S
Cd29 O33 2.439 . S
Cd29 O39 2.240 . S
Cd30 O31 2.240 . S
Cd30 O38 2.223 . S
Cd30 O40 2.297 . S
Cd30 O41 2.439 . S
O31 Cd30 2.240 . S
O31 C36 1.279 . S
O32 Cd29 2.297 . S
O32 C34 1.247 . S
O33 Cd29 2.439 . S
O33 C34 1.208 . S
C34 O32 1.247 . S
C34 O33 1.208 . S
C35 O40 1.247 . S
C35 O41 1.208 . S
C36 O28 1.315 . S
C36 O31 1.279 . S
C37 O38 1.315 . S
C37 O39 1.279 . S
O38 Cd30 2.223 . S
O38 C37 1.315 . S
O39 Cd29 2.240 . S
O39 C37 1.279 . S
O40 Cd30 2.297 . S
O40 C35 1.247 . S
O41 Cd30 2.439 . S
O41 C35 1.208 . S
O42 Cd43 2.223 . S
O42 C50 1.315 . S
Cd43 O42 2.223 . S
Cd43 O46 2.297 . S
Cd43 O47 2.439 . S
Cd43 O53 2.240 . S
Cd44 O45 2.240 . S
Cd44 O52 2.223 . S
Cd44 O54 2.297 . S
Cd44 O55 2.439 . S
O45 Cd44 2.240 . S
O45 C50 1.279 . S
O46 Cd43 2.297 . S
O46 C48 1.247 . S
O47 Cd43 2.439 . S
O47 C48 1.208 . S
C48 O46 1.247 . S
C48 O47 1.208 . S
C49 O54 1.247 . S
C49 O55 1.208 . S
C50 O42 1.315 . S
C50 O45 1.279 . S
C51 O52 1.315 . S
C51 O53 1.279 . S
O52 Cd44 2.223 . S
O52 C51 1.315 . S
O53 Cd43 2.240 . S
O53 C51 1.279 . S
O54 Cd44 2.297 . S
O54 C49 1.247 . S
O55 Cd44 2.439 . S
O55 C49 1.208 . S
O56 Cd57 2.223 . S
O56 C64 1.315 . S
Cd57 O56 2.223 . S
Cd57 O60 2.297 . S
Cd57 O61 2.439 . S
Cd57 O67 2.240 . S
Cd58 O59 2.240 . S
Cd58 O66 2.223 . S
Cd58 O68 2.297 . S
Cd58 O69 2.439 . S
O59 Cd58 2.240 . S
O59 C64 1.279 . S
O60 Cd57 2.297 . S
O60 C62 1.247 . S
O61 Cd57 2.439 . S
O61 C62 1.208 . S
C62 O60 1.247 . S
C62 O61 1.208 . S
C63 O68 1.247 . S
C63 O69 1.208 . S
C64 O56 1.315 . S
C64 O59 1.279 . S
C65 O66 1.315 . S
C65 O67 1.279 . S
O66 Cd58 2.223 . S
O66 C65 1.315 . S
O67 Cd57 2.240 . S
O67 C65 1.279 . S
O68 Cd58 2.297 . S
O68 C63 1.247 . S
O69 Cd58 2.439 . S
O69 C63 1.208 . S
O70 Cd71 2.223 . S
O70 C78 1.315 . S
Cd71 O70 2.223 . S
Cd71 O74 2.297 . S
Cd71 O75 2.439 . S
Cd71 O81 2.240 . S
Cd72 O73 2.240 . S
Cd72 O80 2.223 . S
Cd72 O82 2.297 . S
Cd72 O83 2.439 . S
O73 Cd72 2.240 . S
O73 C78 1.279 . S
O74 Cd71 2.297 . S
O74 C76 1.247 . S
O75 Cd71 2.439 . S
O75 C76 1.208 . S
C76 O74 1.247 . S
C76 O75 1.208 . S
C77 O82 1.247 . S
C77 O83 1.208 . S
C78 O70 1.315 . S
C78 O73 1.279 . S
C79 O80 1.315 . S
C79 O81 1.279 . S
O80 Cd72 2.223 . S
O80 C79 1.315 . S
O81 Cd71 2.240 . S
O81 C79 1.279 . S
O82 Cd72 2.297 . S
O82 C77 1.247 . S
O83 Cd72 2.439 . S
O83 C77 1.208 . S
O84 Cd85 2.223 . S
O84 C92 1.315 . S
Cd85 O84 2.223 . S
Cd85 O88 2.297 . S
Cd85 O89 2.439 . S
Cd85 O95 2.240 . S
Cd86 O87 2.240 . S
Cd86 O94 2.223 . S
Cd86 O96 2.297 . S
Cd86 O97 2.439 . S
O87 Cd86 2.240 . S
O87 C92 1.279 . S
O88 Cd85 2.297 . S
O88 C90 1.247 . S
O89 Cd85 2.439 . S
O89 C90 1.208 . S
C90 O88 1.247 . S
C90 O89 1.208 . S
C91 O96 1.247 . S
C91 O97 1.208 . S
C92 O84 1.315 . S
C92 O87 1.279 . S
C93 O94 1.315 . S
C93 O95 1.279 . S
O94 Cd86 2.223 . S
O94 C93 1.315 . S
O95 Cd85 2.240 . S
O95 C93 1.279 . S
O96 Cd86 2.297 . S
O96 C91 1.247 . S
O97 Cd86 2.439 . S
O97 C91 1.208 . S
O98 Cd99 2.223 . S
O98 C106 1.315 . S
Cd99 O98 2.223 . S
Cd99 O102 2.297 . S
Cd99 O103 2.439 . S
Cd99 O109 2.240 . S
Cd100 O101 2.240 . S
Cd100 O108 2.223 . S
Cd100 O110 2.297 . S
Cd100 O111 2.439 . S
O101 Cd100 2.240 . S
O101 C106 1.279 . S
O102 Cd99 2.297 . S
O102 C104 1.247 . S
O103 Cd99 2.439 . S
O103 C104 1.208 . S
C104 O102 1.247 . S
C104 O103 1.208 . S
C105 O110 1.247 . S
C105 O111 1.208 . S
C106 O98 1.315 . S
C106 O101 1.279 . S
C107 O108 1.315 . S
C107 O109 1.279 . S
O108 Cd100 2.223 . S
O108 C107 1.315 . S
O109 Cd99 2.240 . S
O109 C107 1.279 . S
O110 Cd100 2.297 . S
O110 C105 1.247 . S
O111 Cd100 2.439 . S
O111 C105 1.208 . S
O112 Cd113 2.223 . S
O112 C120 1.315 . S
Cd113 O112 2.223 . S
Cd113 O116 2.297 . S
Cd113 O117 2.439 . S
Cd113 O123 2.240 . S
Cd114 O115 2.240 . S
Cd114 O122 2.223 . S
Cd114 O124 2.297 . S
Cd114 O125 2.439 . S
O115 Cd114 2.240 . S
O115 C120 1.279 . S
O116 Cd113 2.297 . S
O116 C118 1.247 . S
O117 Cd113 2.439 . S
O117 C118 1.208 . S
C118 O116 1.247 . S
C118 O117 1.208 . S
C119 O124 1.247 . S
C119 O125 1.208 . S
C120 O112 1.315 . S
C120 O115 1.279 . S
C121 O122 1.315 . S
C121 O123 1.279 . S
O122 Cd114 2.223 . S
O122 C121 1.315 . S
O123 Cd113 2.240 . S
O123 C121 1.279 . S
O124 Cd114 2.297 . S
O124 C119 1.247 . S
O125 Cd114 2.439 . S
O125 C119 1.208 . S
O126 Cd127 2.223 . S
O126 C134 1.315 . S
Cd127 O126 2.223 . S
Cd127 O130 2.297 . S
Cd127 O131 2.439 . S
Cd127 O137 2.240 . S
Cd128 O129 2.240 . S
Cd128 O136 2.223 . S
Cd128 O138 2.297 . S
Cd128 O139 2.439 . S
O129 Cd128 2.240 . S
O129 C134 1.279 . S
O130 Cd127 2.297 . S
O130 C132 1.247 . S
O131 Cd127 2.439 . S
O131 C132 1.208 . S
C132 O130 1.247 . S
C132 O131 1.208 . S
C133 O138 1.247 . S
C133 O139 1.208 . S
C134 O126 1.315 . S
C134 O129 1.279 . S
C135 O136 1.315 . S
C135 O137 1.279 . S
O136 Cd128 2.223 . S
O136 C135 1.315 . S
O137 Cd127 2.240 . S
O137 C135 1.279 . S
O138 Cd128 2.297 . S
O138 C133 1.247 . S
O139 Cd128 2.439 . S
O139 C133 1.208 . S
O140 Cd141 2.223 . S
O140 C148 1.315 . S
Cd141 O140 2.223 . S
Cd141 O144 2.297 . S
Cd141 O145 2.439 . S
Cd141 O151 2.240 . S
Cd142 O143 2.240 . S
Cd142 O150 2.223 . S
Cd142 O152 2.297 . S
Cd142 O153 2.439 . S
O143 Cd142 2.240 . S
O143 C148 1.279 . S
O144 Cd141 2.297 . S
O144 C146 1.247 . S
O145 Cd141 2.439 . S
O145 C146 1.208 . S
C146 O144 1.247 . S
C146 O145 1.208 . S
C147 O152 1.247 . S
C147 O153 1.208 . S
C148 O140 1.315 . S
C148 O143 1.279 . S
C149 O150 1.315 . S
C149 O151 1.279 . S
O150 Cd142 2.223 . S
O150 C149 1.315 . S
O151 Cd141 2.240 . S
O151 C149 1.279 . S
O152 Cd142 2.297 . S
O152 C147 1.247 . S
O153 Cd142 2.439 . S
O153 C147 1.208 . S
O154 Cd155 2.223 . S
O154 C162 1.315 . S
Cd155 O154 2.223 . S
Cd155 O158 2.297 . S
Cd155 O159 2.439 . S
Cd155 O165 2.240 . S
Cd156 O157 2.240 . S
Cd156 O164 2.223 . S
Cd156 O166 2.297 . S
Cd156 O167 2.439 . S
O157 Cd156 2.240 . S
O157 C162 1.279 . S
O158 Cd155 2.297 . S
O158 C160 1.247 . S
O159 Cd155 2.439 . S
O159 C160 1.208 . S
C160 O158 1.247 . S
C160 O159 1.208 . S
C161 O166 1.247 . S
C161 O167 1.208 . S
C162 O154 1.315 . S
C162 O157 1.279 . S
C163 O164 1.315 . S
C163 O165 1.279 . S
O164 Cd156 2.223 . S
O164 C163 1.315 . S
O165 Cd155 2.240 . S
O165 C163 1.279 . S
O166 Cd156 2.297 . S
O166 C161 1.247 . S
O167 Cd156 2.439 . S
O167 C161 1.208 . S
H168 C174 0.930 . S
H169 C177 0.930 . S
H170 C178 0.930 . S
H171 C179 0.930 . S
H172 C182 0.930 . S
H173 C183 0.930 . S
C174 H168 0.930 . S
C174 C175 1.355 . S
C174 C176 1.456 . S
C175 C174 1.355 . S
C175 C177 1.419 . S
C176 C174 1.456 . S
C176 C181 1.445 . S
C176 C183 1.350 1_556 S
C177 H169 0.930 . S
C177 C175 1.419 . S
C177 C178 1.362 . S
C178 H170 0.930 . S
C178 C177 1.362 . S
C178 C181 1.409 . S
C179 H171 0.930 . S
C179 C180 1.355 . S
C179 C181 1.415 1_554 S
C180 C179 1.355 . S
C180 C182 1.419 . S
C181 C176 1.445 . S
C181 C178 1.409 . S
C181 C179 1.415 1_556 S
C182 H172 0.930 . S
C182 C180 1.419 . S
C182 C183 1.362 . S
C183 H173 0.930 . S
C183 C176 1.350 1_554 S
C183 C182 1.362 . S
H184 C190 0.930 . S
H185 C193 0.930 . S
H186 C194 0.930 . S
H187 C195 0.930 . S
H188 C198 0.930 . S
H189 C199 0.930 . S
C190 H184 0.930 . S
C190 C191 1.355 . S
C190 C192 1.415 . S
C191 C190 1.355 . S
C191 C193 1.419 . S
C192 C190 1.415 . S
C192 C197 1.425 . S
C192 C199 1.409 . S
C193 H185 0.930 . S
C193 C191 1.419 . S
C193 C194 1.362 . S
C194 H186 0.930 . S
C194 C193 1.362 . S
C194 C197 1.409 . S
C195 H187 0.930 . S
C195 C196 1.355 . S
C195 C197 1.415 . S
C196 C195 1.355 . S
C196 C198 1.419 . S
C197 C192 1.425 . S
C197 C194 1.409 . S
C197 C195 1.415 . S
C198 H188 0.930 . S
C198 C196 1.419 . S
C198 C199 1.362 . S
C199 H189 0.930 . S
C199 C192 1.409 . S
C199 C198 1.362 . S
H200 C206 0.930 . S
H201 C209 0.930 . S
H202 C210 0.930 . S
H203 C211 0.930 . S
H204 C214 0.930 . S
H205 C215 0.930 . S
C206 H200 0.930 . S
C206 C207 1.355 . S
C206 C208 1.415 . S
C207 C206 1.355 . S
C207 C209 1.419 . S
C208 C206 1.415 . S
C208 C213 1.425 . S
C208 C215 1.409 . S
C209 H201 0.930 . S
C209 C207 1.419 . S
C209 C210 1.362 . S
C210 H202 0.930 . S
C210 C209 1.362 . S
C210 C213 1.409 . S
C211 H203 0.930 . S
C211 C212 1.355 . S
C211 C213 1.415 . S
C212 C211 1.355 . S
C212 C214 1.419 . S
C213 C208 1.425 . S
C213 C210 1.409 . S
C213 C211 1.415 . S
C214 H204 0.930 . S
C214 C212 1.419 . S
C214 C215 1.362 . S
C215 H205 0.930 . S
C215 C208 1.409 . S
C215 C214 1.362 . S
H216 C222 0.930 . S
H217 C225 0.930 . S
H218 C226 0.930 . S
H219 C227 0.930 . S
H220 C230 0.930 . S
H221 C231 0.930 . S
C222 H216 0.930 . S
C222 C223 1.355 . S
C222 C224 1.415 . S
C223 C222 1.355 . S
C223 C225 1.419 . S
C224 C222 1.415 . S
C224 C229 1.425 . S
C224 C231 1.409 1_554 S
C225 H217 0.930 . S
C225 C223 1.419 . S
C225 C226 1.362 . S
C226 H218 0.930 . S
C226 C225 1.362 . S
C226 C229 1.409 . S
C227 H219 0.930 . S
C227 C228 1.355 . S
C227 C229 1.415 1_556 S
C228 C227 1.355 . S
C228 C230 1.419 . S
C229 C224 1.425 . S
C229 C226 1.409 . S
C229 C227 1.415 1_554 S
C230 H220 0.930 . S
C230 C228 1.419 . S
C230 C231 1.362 . S
C231 H221 0.930 . S
C231 C224 1.409 1_556 S
C231 C230 1.362 . S
H232 C238 0.930 . S
H233 C241 0.930 . S
H234 C242 0.930 . S
H235 C243 0.930 . S
H236 C246 0.930 . S
H237 C247 0.930 . S
C238 H232 0.930 . S
C238 C239 1.355 . S
C238 C240 1.415 . S
C239 C238 1.355 . S
C239 C241 1.419 . S
C240 C238 1.415 . S
C240 C245 1.425 . S
C240 C247 1.409 . S
C241 H233 0.930 . S
C241 C239 1.419 . S
C241 C242 1.362 . S
C242 H234 0.930 . S
C242 C241 1.362 . S
C242 C245 1.409 . S
C243 H235 0.930 . S
C243 C244 1.355 . S
C243 C245 1.415 . S
C244 C243 1.355 . S
C244 C246 1.419 . S
C245 C240 1.425 . S
C245 C242 1.409 . S
C245 C243 1.415 . S
C246 H236 0.930 . S
C246 C244 1.419 . S
C246 C247 1.362 . S
C247 H237 0.930 . S
C247 C240 1.409 . S
C247 C246 1.362 . S
H248 C254 0.930 . S
H249 C257 0.930 . S
H250 C258 0.930 . S
H251 C259 0.930 . S
H252 C262 0.930 . S
H253 C263 0.930 . S
C254 H248 0.930 . S
C254 C255 1.355 . S
C254 C256 1.415 . S
C255 C254 1.355 . S
C255 C257 1.419 . S
C256 C254 1.415 . S
C256 C261 1.425 . S
C256 C263 1.409 . S
C257 H249 0.930 . S
C257 C255 1.419 . S
C257 C258 1.362 . S
C258 H250 0.930 . S
C258 C257 1.362 . S
C258 C261 1.409 . S
C259 H251 0.930 . S
C259 C260 1.355 . S
C259 C261 1.415 . S
C260 C259 1.355 . S
C260 C262 1.419 . S
C261 C256 1.425 . S
C261 C258 1.409 . S
C261 C259 1.415 . S
C262 H252 0.930 . S
C262 C260 1.419 . S
C262 C263 1.362 . S
C263 H253 0.930 . S
C263 C256 1.409 . S
C263 C262 1.362 . S
H264 C270 0.930 . S
H265 C273 0.930 . S
H266 C274 0.930 . S
H267 C275 0.930 . S
H268 C278 0.930 . S
H269 C279 0.930 . S
C270 H264 0.930 . S
C270 C271 1.355 . S
C270 C272 1.415 . S
C271 C270 1.355 . S
C271 C273 1.419 . S
C272 C270 1.415 . S
C272 C277 1.425 . S
C272 C279 1.409 . S
C273 H265 0.930 . S
C273 C271 1.419 . S
C273 C274 1.362 . S
C274 H266 0.930 . S
C274 C273 1.362 . S
C274 C277 1.409 . S
C275 H267 0.930 . S
C275 C276 1.355 . S
C275 C277 1.415 . S
C276 C275 1.355 . S
C276 C278 1.419 . S
C277 C272 1.425 . S
C277 C274 1.409 . S
C277 C275 1.415 . S
C278 H268 0.930 . S
C278 C276 1.419 . S
C278 C279 1.362 . S
C279 H269 0.930 . S
C279 C272 1.409 . S
C279 C278 1.362 . S
H280 C286 0.930 . S
H281 C289 0.930 . S
H282 C290 0.930 . S
H283 C291 0.930 . S
H284 C294 0.930 . S
H285 C295 0.930 . S
C286 H280 0.930 . S
C286 C287 1.355 . S
C286 C288 1.415 . S
C287 C286 1.355 . S
C287 C289 1.419 . S
C288 C286 1.415 . S
C288 C293 1.425 . S
C288 C295 1.409 . S
C289 H281 0.930 . S
C289 C287 1.419 . S
C289 C290 1.362 . S
C290 H282 0.930 . S
C290 C289 1.362 . S
C290 C293 1.409 . S
C291 H283 0.930 . S
C291 C292 1.355 . S
C291 C293 1.415 . S
C292 C291 1.355 . S
C292 C294 1.419 . S
C293 C288 1.425 . S
C293 C290 1.409 . S
C293 C291 1.415 . S
C294 H284 0.930 . S
C294 C292 1.419 . S
C294 C295 1.362 . S
C295 H285 0.930 . S
C295 C288 1.409 . S
C295 C294 1.362 . S
H296 C302 0.930 . S
H297 C305 0.930 . S
H298 C306 0.930 . S
H299 C307 0.930 . S
H300 C310 0.930 . S
H301 C311 0.930 . S
C302 H296 0.930 . S
C302 C303 1.355 . S
C302 C304 1.415 . S
C303 C302 1.355 . S
C303 C305 1.419 . S
C304 C302 1.415 . S
C304 C309 1.425 . S
C304 C311 1.409 . S
C305 H297 0.930 . S
C305 C303 1.419 . S
C305 C306 1.362 . S
C306 H298 0.930 . S
C306 C305 1.362 . S
C306 C309 1.409 . S
C307 H299 0.930 . S
C307 C308 1.355 . S
C307 C309 1.415 . S
C308 C307 1.355 . S
C308 C310 1.419 . S
C309 C304 1.425 . S
C309 C306 1.409 . S
C309 C307 1.415 . S
C310 H300 0.930 . S
C310 C308 1.419 . S
C310 C311 1.362 . S
C311 H301 0.930 . S
C311 C304 1.409 . S
C311 C310 1.362 . S
H312 C318 0.930 . S
H313 C321 0.930 . S
H314 C322 0.930 . S
H315 C323 0.930 . S
H316 C326 0.930 . S
H317 C327 0.930 . S
C318 H312 0.930 . S
C318 C319 1.355 . S
C318 C320 1.415 . S
C319 C318 1.355 . S
C319 C321 1.419 . S
C320 C318 1.415 . S
C320 C325 1.425 . S
C320 C327 1.409 . S
C321 H313 0.930 . S
C321 C319 1.419 . S
C321 C322 1.362 . S
C322 H314 0.930 . S
C322 C321 1.362 . S
C322 C325 1.409 . S
C323 H315 0.930 . S
C323 C324 1.355 . S
C323 C325 1.415 . S
C324 C323 1.355 . S
C324 C326 1.419 . S
C325 C320 1.425 . S
C325 C322 1.409 . S
C325 C323 1.415 . S
C326 H316 0.930 . S
C326 C324 1.419 . S
C326 C327 1.362 . S
C327 H317 0.930 . S
C327 C320 1.409 . S
C327 C326 1.362 . S
H328 C334 0.930 . S
H329 C337 0.930 . S
H330 C338 0.930 . S
H331 C339 0.930 . S
H332 C342 0.930 . S
H333 C343 0.930 . S
C334 H328 0.930 . S
C334 C335 1.355 . S
C334 C336 1.415 . S
C335 C334 1.355 . S
C335 C337 1.419 . S
C336 C334 1.415 . S
C336 C341 1.425 . S
C336 C343 1.409 . S
C337 H329 0.930 . S
C337 C335 1.419 . S
C337 C338 1.362 . S
C338 H330 0.930 . S
C338 C337 1.362 . S
C338 C341 1.409 . S
C339 H331 0.930 . S
C339 C340 1.355 . S
C339 C341 1.415 . S
C340 C339 1.355 . S
C340 C342 1.419 . S
C341 C336 1.425 . S
C341 C338 1.409 . S
C341 C339 1.415 . S
C342 H332 0.930 . S
C342 C340 1.419 . S
C342 C343 1.362 . S
C343 H333 0.930 . S
C343 C336 1.409 . S
C343 C342 1.362 . S
H344 C350 0.930 . S
H345 C353 0.930 . S
H346 C354 0.930 . S
H347 C355 0.930 . S
H348 C358 0.930 . S
H349 C359 0.930 . S
C350 H344 0.930 . S
C350 C351 1.355 . S
C350 C352 1.415 . S
C351 C350 1.355 . S
C351 C353 1.419 . S
C352 C350 1.415 . S
C352 C357 1.425 . S
C352 C359 1.409 . S
C353 H345 0.930 . S
C353 C351 1.419 . S
C353 C354 1.362 . S
C354 H346 0.930 . S
C354 C353 1.362 . S
C354 C357 1.409 . S
C355 H347 0.930 . S
C355 C356 1.355 . S
C355 C357 1.415 . S
C356 C355 1.355 . S
C356 C358 1.419 . S
C357 C352 1.425 . S
C357 C354 1.409 . S
C357 C355 1.415 . S
C358 H348 0.930 . S
C358 C356 1.419 . S
C358 C359 1.362 . S
C359 H349 0.930 . S
C359 C352 1.409 . S
C359 C358 1.362 . S
H360 C366 0.930 . S
H361 C369 0.930 . S
H362 C370 0.930 . S
H363 C371 0.930 . S
H364 C374 0.930 . S
H365 C375 0.930 . S
C366 H360 0.930 . S
C366 C367 1.355 . S
C366 C368 1.415 1_655 S
C367 C366 1.355 . S
C367 C369 1.419 . S
C368 C366 1.415 1_455 S
C368 C373 1.425 . S
C368 C375 1.409 . S
C369 H361 0.930 . S
C369 C367 1.419 . S
C369 C370 1.362 1_655 S
C370 H362 0.930 . S
C370 C369 1.362 1_455 S
C370 C373 1.409 . S
C371 H363 0.930 . S
C371 C372 1.355 . S
C371 C373 1.415 . S
C372 C371 1.355 . S
C372 C374 1.419 . S
C373 C368 1.425 . S
C373 C370 1.409 . S
C373 C371 1.415 . S
C374 H364 0.930 . S
C374 C372 1.419 . S
C374 C375 1.362 . S
C375 H365 0.930 . S
C375 C368 1.409 . S
C375 C374 1.362 . S
H376 C382 0.930 . S
H377 C385 0.930 . S
H378 C386 0.930 . S
H379 C387 0.930 . S
H380 C390 0.930 . S
H381 C391 0.930 . S
C382 H376 0.930 . S
C382 C383 1.355 . S
C382 C384 1.415 1_545 S
C383 C382 1.355 . S
C383 C385 1.419 . S
C384 C382 1.415 1_565 S
C384 C389 1.425 . S
C384 C391 1.409 . S
C385 H377 0.930 . S
C385 C383 1.419 . S
C385 C386 1.362 1_545 S
C386 H378 0.930 . S
C386 C385 1.362 1_565 S
C386 C389 1.409 . S
C387 H379 0.930 . S
C387 C388 1.355 . S
C387 C389 1.415 . S
C388 C387 1.355 . S
C388 C390 1.419 . S
C389 C384 1.425 . S
C389 C386 1.409 . S
C389 C387 1.415 . S
C390 H380 0.930 . S
C390 C388 1.419 . S
C390 C391 1.362 . S
C391 H381 0.930 . S
C391 C384 1.409 . S
C391 C390 1.362 . S
H392 C398 0.930 . S
H393 C401 0.930 . S
H394 C402 0.930 . S
H395 C403 0.930 . S
H396 C406 0.930 . S
H397 C407 0.930 . S
C398 H392 0.930 . S
C398 C399 1.355 . S
C398 C400 1.415 . S
C399 C398 1.355 . S
C399 C401 1.419 . S
C400 C398 1.415 . S
C400 C405 1.425 . S
C400 C407 1.409 . S
C401 H393 0.930 . S
C401 C399 1.419 . S
C401 C402 1.362 . S
C402 H394 0.930 . S
C402 C401 1.362 . S
C402 C405 1.409 . S
C403 H395 0.930 . S
C403 C404 1.355 . S
C403 C405 1.415 . S
C404 C403 1.355 . S
C404 C406 1.419 . S
C405 C400 1.425 . S
C405 C402 1.409 . S
C405 C403 1.415 . S
C406 H396 0.930 . S
C406 C404 1.419 . S
C406 C407 1.362 . S
C407 H397 0.930 . S
C407 C400 1.409 . S
C407 C406 1.362 . S
H408 C414 0.930 1_545 S
H409 C417 0.930 . S
H410 C418 0.930 . S
H411 C419 0.930 . S
H412 C422 0.930 . S
H413 C423 0.930 . S
C414 H408 0.930 1_565 S
C414 C415 1.355 1_565 S
C414 C416 1.415 . S
C415 C414 1.355 1_545 S
C415 C417 1.419 . S
C416 C414 1.415 . S
C416 C421 1.425 . S
C416 C423 1.409 . S
C417 H409 0.930 . S
C417 C415 1.419 . S
C417 C418 1.362 1_545 S
C418 H410 0.930 . S
C418 C417 1.362 1_565 S
C418 C421 1.409 . S
C419 H411 0.930 . S
C419 C420 1.355 . S
C419 C421 1.415 . S
C420 C419 1.355 . S
C420 C422 1.419 . S
C421 C416 1.425 . S
C421 C418 1.409 . S
C421 C419 1.415 . S
C422 H412 0.930 . S
C422 C420 1.419 . S
C422 C423 1.362 . S
C423 H413 0.930 . S
C423 C416 1.409 . S
C423 C422 1.362 . S
H424 C430 0.930 . S
H425 C433 0.930 . S
H426 C434 0.930 . S
H427 C435 0.930 . S
H428 C438 0.930 . S
H429 C439 0.930 . S
C430 H424 0.930 . S
C430 C431 1.355 . S
C430 C432 1.415 . S
C431 C430 1.355 . S
C431 C433 1.419 . S
C432 C430 1.415 . S
C432 C437 1.425 . S
C432 C439 1.409 . S
C433 H425 0.930 . S
C433 C431 1.419 . S
C433 C434 1.362 . S
C434 H426 0.930 . S
C434 C433 1.362 . S
C434 C437 1.409 . S
C435 H427 0.930 . S
C435 C436 1.355 . S
C435 C437 1.415 . S
C436 C435 1.355 . S
C436 C438 1.419 . S
C437 C432 1.425 . S
C437 C434 1.409 . S
C437 C435 1.415 . S
C438 H428 0.930 . S
C438 C436 1.419 . S
C438 C439 1.362 . S
C439 H429 0.930 . S
C439 C432 1.409 . S
C439 C438 1.362 . S
H440 C446 0.930 . S
H441 C449 0.930 . S
H442 C450 0.930 . S
H443 C451 0.930 . S
H444 C454 0.930 . S
H445 C455 0.930 . S
C446 H440 0.930 . S
C446 C447 1.355 . S
C446 C448 1.415 1_455 S
C447 C446 1.355 . S
C447 C449 1.419 . S
C448 C446 1.415 1_655 S
C448 C453 1.425 . S
C448 C455 1.409 . S
C449 H441 0.930 . S
C449 C447 1.419 . S
C449 C450 1.362 . S
C450 H442 0.930 . S
C450 C449 1.362 . S
C450 C453 1.409 1_455 S
C451 H443 0.930 . S
C451 C452 1.355 . S
C451 C453 1.415 . S
C452 C451 1.355 . S
C452 C454 1.419 . S
C453 C448 1.425 . S
C453 C450 1.409 1_655 S
C453 C451 1.415 . S
C454 H444 0.930 . S
C454 C452 1.419 . S
C454 C455 1.362 . S
C455 H445 0.930 . S
C455 C448 1.409 . S
C455 C454 1.362 . S
H456 C462 0.930 . S
H457 C465 0.930 . S
H458 C466 0.930 . S
H459 C467 0.930 . S
H460 C470 0.930 . S
H461 C471 0.930 . S
C462 H456 0.930 . S
C462 C463 1.355 . S
C462 C464 1.415 . S
C463 C462 1.355 . S
C463 C465 1.419 . S
C464 C462 1.415 . S
C464 C469 1.425 . S
C464 C471 1.409 . S
C465 H457 0.930 . S
C465 C463 1.419 . S
C465 C466 1.362 . S
C466 H458 0.930 . S
C466 C465 1.362 . S
C466 C469 1.409 . S
C467 H459 0.930 . S
C467 C468 1.355 . S
C467 C469 1.415 . S
C468 C467 1.355 . S
C468 C470 1.419 . S
C469 C464 1.425 . S
C469 C466 1.409 . S
C469 C467 1.415 . S
C470 H460 0.930 . S
C470 C468 1.419 . S
C470 C471 1.362 . S
C471 H461 0.930 . S
C471 C464 1.409 . S
C471 C470 1.362 . S
H472 C478 0.930 . S
H473 C481 0.930 . S
H474 C482 0.930 . S
H475 C483 0.930 . S
H476 C486 0.930 . S
H477 C487 0.930 1_655 S
C478 H472 0.930 . S
C478 C479 1.355 . S
C478 C480 1.415 1_655 S
C479 C478 1.355 . S
C479 C481 1.419 . S
C480 C478 1.415 1_455 S
C480 C485 1.425 . S
C480 C487 1.409 . S
C481 H473 0.930 . S
C481 C479 1.419 . S
C481 C482 1.362 1_655 S
C482 H474 0.930 . S
C482 C481 1.362 1_455 S
C482 C485 1.409 . S
C483 H475 0.930 . S
C483 C484 1.355 . S
C483 C485 1.415 . S
C484 C483 1.355 . S
C484 C486 1.419 . S
C485 C480 1.425 . S
C485 C482 1.409 . S
C485 C483 1.415 . S
C486 H476 0.930 . S
C486 C484 1.419 . S
C486 C487 1.362 . S
C487 H477 0.930 1_455 S
C487 C480 1.409 . S
C487 C486 1.362 . S
H488 C494 0.930 . S
H489 C497 0.930 . S
H490 C498 0.930 . S
H491 C499 0.930 . S
H492 C502 0.930 . S
H493 C503 0.930 . S
C494 H488 0.930 . S
C494 C495 1.355 . S
C494 C496 1.415 1_545 S
C495 C494 1.355 . S
C495 C497 1.419 . S
C496 C494 1.415 1_565 S
C496 C501 1.425 . S
C496 C503 1.409 . S
C497 H489 0.930 . S
C497 C495 1.419 . S
C497 C498 1.362 . S
C498 H490 0.930 . S
C498 C497 1.362 . S
C498 C501 1.409 1_545 S
C499 H491 0.930 . S
C499 C500 1.355 . S
C499 C501 1.415 . S
C500 C499 1.355 . S
C500 C502 1.419 . S
C501 C496 1.425 . S
C501 C498 1.409 1_565 S
C501 C499 1.415 . S
C502 H492 0.930 . S
C502 C500 1.419 . S
C502 C503 1.362 . S
C503 H493 0.930 . S
C503 C496 1.409 . S
C503 C502 1.362 . S
H504 C510 0.930 . S
H505 C513 0.930 . S
H506 C514 0.930 . S
H507 C515 0.930 . S
H508 C518 0.930 . S
H509 C519 0.930 . S
C510 H504 0.930 . S
C510 C511 1.355 . S
C510 C512 1.415 . S
C511 C510 1.355 . S
C511 C513 1.419 . S
C512 C510 1.415 . S
C512 C517 1.425 . S
C512 C519 1.409 . S
C513 H505 0.930 . S
C513 C511 1.419 . S
C513 C514 1.362 . S
C514 H506 0.930 . S
C514 C513 1.362 . S
C514 C517 1.409 . S
C515 H507 0.930 . S
C515 C516 1.355 . S
C515 C517 1.415 . S
C516 C515 1.355 . S
C516 C518 1.419 . S
C517 C512 1.425 . S
C517 C514 1.409 . S
C517 C515 1.415 . S
C518 H508 0.930 . S
C518 C516 1.419 . S
C518 C519 1.362 . S
C519 H509 0.930 . S
C519 C512 1.409 . S
C519 C518 1.362 . S
H520 C526 0.930 . S
H521 C529 0.930 . S
H522 C530 0.930 . S
H523 C531 0.930 . S
H524 C534 0.930 . S
H525 C535 0.930 . S
C526 H520 0.930 . S
C526 C527 1.355 . S
C526 C528 1.415 1_455 S
C527 C526 1.355 . S
C527 C529 1.419 . S
C528 C526 1.415 1_655 S
C528 C533 1.425 . S
C528 C535 1.409 . S
C529 H521 0.930 . S
C529 C527 1.419 . S
C529 C530 1.362 . S
C530 H522 0.930 . S
C530 C529 1.362 . S
C530 C533 1.409 1_455 S
C531 H523 0.930 . S
C531 C532 1.355 . S
C531 C533 1.415 . S
C532 C531 1.355 . S
C532 C534 1.419 . S
C533 C528 1.425 . S
C533 C530 1.409 1_655 S
C533 C531 1.415 . S
C534 H524 0.930 . S
C534 C532 1.419 . S
C534 C535 1.362 . S
C535 H525 0.930 . S
C535 C528 1.409 . S
C535 C534 1.362 . S
H536 C542 0.930 1_565 S
H537 C545 0.930 . S
H538 C546 0.930 . S
H539 C547 0.930 . S
H540 C550 0.930 . S
H541 C551 0.930 . S
C542 H536 0.930 1_545 S
C542 C543 1.355 1_545 S
C542 C544 1.415 . S
C543 C542 1.355 1_565 S
C543 C545 1.419 1_565 S
C544 C542 1.415 . S
C544 C549 1.425 . S
C544 C551 1.409 . S
C545 H537 0.930 . S
C545 C543 1.419 1_545 S
C545 C546 1.362 . S
C546 H538 0.930 . S
C546 C545 1.362 . S
C546 C549 1.409 . S
C547 H539 0.930 . S
C547 C548 1.355 . S
C547 C549 1.415 . S
C548 C547 1.355 . S
C548 C550 1.419 . S
C549 C544 1.425 . S
C549 C546 1.409 . S
C549 C547 1.415 . S
C550 H540 0.930 . S
C550 C548 1.419 . S
C550 C551 1.362 . S
C551 H541 0.930 . S
C551 C544 1.409 . S
C551 C550 1.362 . S
C175 C148 1.507 . S
C180 C8 1.246 . S
C191 C22 1.535 . S
C196 C162 1.253 . S
C207 C36 1.421 . S
C212 C92 1.331 . S
C223 C50 1.599 . S
C228 C106 1.308 . S
C239 C120 1.564 . S
C244 C64 1.385 . S
C255 C78 1.269 . S
C260 C134 1.406 . S
C271 C119 1.743 . S
C276 C7 1.694 . S
C287 C21 1.385 . S
C292 C133 1.391 . S
C303 C35 1.373 . S
C308 C147 1.372 . S
C319 C49 1.743 . S
C324 C161 1.676 . S
C335 C91 2.095 . S
C340 C63 2.088 . S
C351 C105 2.037 . S
C356 C77 2.054 . S
C367 C51 1.558 . S
C372 C9 1.582 . S
C383 C23 1.545 . S
C388 C65 1.577 . S
C399 C79 1.567 . S
C404 C37 1.533 . S
C415 C135 1.551 . S
C420 C93 1.585 . S
C431 C149 1.592 . S
C436 C107 1.599 . S
C447 C121 1.572 . S
C452 C163 1.547 . S
C463 C48 1.270 . S
C468 C6 1.280 . S
C479 C20 1.258 . S
C484 C62 1.255 . S
C495 C76 1.267 . S
C500 C34 1.274 . S
C511 C90 1.273 . S
C516 C132 1.271 . S
C527 C146 1.252 . S
C532 C104 1.265 . S
C543 C118 1.266 . S
C548 C160 1.275 . S
