# Generated by pormake.
# Topology snk, (6)-cn, num edge types: 1
# Building blocks:
#     Node 0, Type 0, BuildingBlock: BETDEL_clean_sbu_0, # of connection points: 6
#     Node 1, Type 0, BuildingBlock: BETDEL_clean_sbu_0, # of connection points: 6
#     Node 2, Type 0, BuildingBlock: BETDEL_clean_sbu_0, # of connection points: 6
#     Node 3, Type 0, BuildingBlock: BETDEL_clean_sbu_0, # of connection points: 6
#     Node 4, Type 0, BuildingBlock: BETDEL_clean_sbu_0, # of connection points: 6
#     Node 5, Type 0, BuildingBlock: BETDEL_clean_sbu_0, # of connection points: 6
#     Node 6, Type 0, BuildingBlock: BETDEL_clean_sbu_0, # of connection points: 6
#     Node 7, Type 0, BuildingBlock: BETDEL_clean_sbu_0, # of connection points: 6
#     Edge 8, Type (0, 0), BuildingBlock: ZUJKAS_clean_linker_0, # of connection points: 2
#     Edge 9, Type (0, 0), BuildingBlock: ZUJKAS_clean_linker_0, # of connection points: 2
#     Edge 10, Type (0, 0), BuildingBlock: ZUJKAS_clean_linker_0, # of connection points: 2
#     Edge 11, Type (0, 0), BuildingBlock: ZUJKAS_clean_linker_0, # of connection points: 2
#     Edge 12, Type (0, 0), BuildingBlock: ZUJKAS_clean_linker_0, # of connection points: 2
#     Edge 13, Type (0, 0), BuildingBlock: ZUJKAS_clean_linker_0, # of connection points: 2
#     Edge 14, Type (0, 0), BuildingBlock: ZUJKAS_clean_linker_0, # of connection points: 2
#     Edge 15, Type (0, 0), BuildingBlock: ZUJKAS_clean_linker_0, # of connection points: 2
#     Edge 16, Type (0, 0), BuildingBlock: ZUJKAS_clean_linker_0, # of connection points: 2
#     Edge 17, Type (0, 0), BuildingBlock: ZUJKAS_clean_linker_0, # of connection points: 2
#     Edge 18, Type (0, 0), BuildingBlock: ZUJKAS_clean_linker_0, # of connection points: 2
#     Edge 19, Type (0, 0), BuildingBlock: ZUJKAS_clean_linker_0, # of connection points: 2
#     Edge 20, Type (0, 0), BuildingBlock: ZUJKAS_clean_linker_0, # of connection points: 2
#     Edge 21, Type (0, 0), BuildingBlock: ZUJKAS_clean_linker_0, # of connection points: 2
#     Edge 22, Type (0, 0), BuildingBlock: ZUJKAS_clean_linker_0, # of connection points: 2
#     Edge 23, Type (0, 0), BuildingBlock: ZUJKAS_clean_linker_0, # of connection points: 2
#     Edge 24, Type (0, 0), BuildingBlock: ZUJKAS_clean_linker_0, # of connection points: 2
#     Edge 25, Type (0, 0), BuildingBlock: ZUJKAS_clean_linker_0, # of connection points: 2
#     Edge 26, Type (0, 0), BuildingBlock: ZUJKAS_clean_linker_0, # of connection points: 2
#     Edge 27, Type (0, 0), BuildingBlock: ZUJKAS_clean_linker_0, # of connection points: 2
#     Edge 28, Type (0, 0), BuildingBlock: ZUJKAS_clean_linker_0, # of connection points: 2
#     Edge 29, Type (0, 0), BuildingBlock: ZUJKAS_clean_linker_0, # of connection points: 2
#     Edge 30, Type (0, 0), BuildingBlock: ZUJKAS_clean_linker_0, # of connection points: 2
#     Edge 31, Type (0, 0), BuildingBlock: ZUJKAS_clean_linker_0, # of connection points: 2
# Relax obj value: 0.057
# Max RMSD: 0.096
# Mean RMSD: 0.095
data_MOF--net-snk--node1-BETDEL_clean_sbu_0--edge1-ZUJKAS_clean_linker_0
_symmetry_space_group_name_H-M    P1
_symmetry_Int_Tables_number       1
_symmetry_cell_setting            triclinic
loop_
_symmetry_equiv_pos_as_xyz
'x, y, z'
_cell_length_a     52.300229
_cell_length_b     52.379223
_cell_length_c     22.50653
_cell_angle_alpha  85.215297
_cell_angle_beta   94.587751
_cell_angle_gamma 90.36267
loop_
_atom_site_label
_atom_site_type_symbol
_atom_site_fract_x
_atom_site_fract_y
_atom_site_fract_z
_atom_type_partial_charge
Dy0 Dy 0.99869 0.99538 0.43713 0.0
C1 C 0.0156 0.00689 0.68669 0.0
C2 C 0.99105 0.99627 0.31584 0.0
Dy3 Dy 0.00812 0.00714 0.56549 0.0
O4 O 0.99943 0.97684 0.35121 0.0
O5 O 0.98642 0.01535 0.34674 0.0
O6 O 0.01217 0.95531 0.46042 0.0
O7 O 0.02894 0.9849 0.50793 0.0
C8 C 0.02793 0.96099 0.50477 0.0
C9 C 0.97848 0.04111 0.49698 0.0
O10 O 0.04399 0.0242 0.53238 0.0
O11 O 0.0292 0.02591 0.43236 0.0
O12 O 0.00905 0.02669 0.65043 0.0
O13 O 0.01847 0.98709 0.65673 0.0
O14 O 0.99463 0.04724 0.54019 0.0
O15 O 0.9777 0.01718 0.49515 0.0
O16 O 0.96348 0.97678 0.47031 0.0
O17 O 0.97714 0.97718 0.57097 0.0
C18 C 0.04589 0.03267 0.47581 0.0
C19 C 0.96114 0.96942 0.52735 0.0
Dy20 Dy 0.24888 0.74553 0.82715 0.0
C21 C 0.24873 0.76405 0.57404 0.0
C22 C 0.25489 0.7419 0.94867 0.0
Dy23 Dy 0.25436 0.75475 0.69518 0.0
O24 O 0.25352 0.763 0.91435 0.0
O25 O 0.25305 0.72231 0.91669 0.0
O26 O 0.20911 0.76118 0.81574 0.0
O27 O 0.23652 0.77637 0.75904 0.0
C28 C 0.21318 0.77653 0.76928 0.0
C29 C 0.28892 0.72194 0.75249 0.0
O30 O 0.2741 0.78919 0.72866 0.0
O31 O 0.28559 0.76773 0.82011 0.0
O32 O 0.27033 0.7641 0.60652 0.0
O33 O 0.22999 0.75942 0.60785 0.0
O34 O 0.2934 0.73653 0.70516 0.0
O35 O 0.26578 0.72363 0.76257 0.0
O36 O 0.22443 0.71288 0.79857 0.0
O37 O 0.22188 0.72651 0.6974 0.0
C38 C 0.28875 0.78702 0.77949 0.0
C39 C 0.21462 0.71113 0.74287 0.0
Dy40 Dy 0.50624 0.98904 0.07333 0.0
C41 C 0.48815 0.01202 0.81875 0.0
C42 C 0.51394 0.98625 0.19548 0.0
Dy43 Dy 0.4957 0.00915 0.94095 0.0
O44 O 0.5009 0.96994 0.1649 0.0
O45 O 0.52351 0.0037 0.15916 0.0
O46 O 0.49062 0.95071 0.05207 0.0
O47 O 0.47559 0.98415 1.00345 0.0
C48 C 0.47524 0.95998 1.00733 0.0
C49 C 0.5269 0.03803 1.00725 0.0
O50 O 0.46219 0.02772 0.97571 0.0
O51 O 0.47751 0.02071 0.07566 0.0
O52 O 0.50116 0.02831 0.84947 0.0
O53 O 0.47856 0.99455 0.85494 0.0
O54 O 0.51146 0.04742 0.96274 0.0
O55 O 0.52641 0.01388 0.01063 0.0
O56 O 0.53981 0.97059 0.03856 0.0
O57 O 0.52442 0.97744 0.93864 0.0
C58 C 0.4612 0.03171 0.03299 0.0
C59 C 0.54078 0.96652 0.98133 0.0
Dy60 Dy 0.24267 0.25748 0.18677 0.0
C61 C 0.26605 0.2387 0.44153 0.0
C62 C 0.24032 0.26571 0.06461 0.0
Dy63 Dy 0.26339 0.24677 0.31934 0.0
O64 O 0.22323 0.25355 0.09489 0.0
O65 O 0.25828 0.27413 0.10125 0.0
O66 O 0.20475 0.24065 0.20876 0.0
O67 O 0.2387 0.22662 0.25663 0.0
C68 C 0.21455 0.22551 0.25343 0.0
C69 C 0.29154 0.27845 0.25202 0.0
O70 O 0.28182 0.21343 0.28378 0.0
O71 O 0.27443 0.22879 0.18382 0.0
O72 O 0.28289 0.2511 0.41095 0.0
O73 O 0.24817 0.22995 0.40517 0.0
O74 O 0.30139 0.26328 0.29658 0.0
O75 O 0.2674 0.27752 0.24941 0.0
O76 O 0.22396 0.29066 0.22262 0.0
O77 O 0.23151 0.27523 0.32248 0.0
C78 C 0.28564 0.21251 0.22634 0.0
C79 C 0.2202 0.29149 0.28013 0.0
Dy80 Dy 0.74463 0.2464 0.31924 0.0
C81 C 0.75705 0.2633 0.06964 0.0
C82 C 0.74463 0.2388 0.44053 0.0
Dy83 Dy 0.75686 0.25586 0.1909 0.0
O84 O 0.72555 0.24762 0.4046 0.0
O85 O 0.76381 0.23369 0.41018 0.0
O86 O 0.70494 0.26134 0.29436 0.0
O87 O 0.7356 0.27719 0.24906 0.0
C88 C 0.71163 0.27722 0.25107 0.0
C89 C 0.79022 0.2257 0.25945 0.0
O90 O 0.7756 0.29077 0.22473 0.0
O91 O 0.77634 0.2757 0.32464 0.0
O92 O 0.77572 0.2536 0.10559 0.0
O93 O 0.73818 0.26937 0.09995 0.0
O94 O 0.7967 0.24189 0.21653 0.0
O95 O 0.76621 0.22512 0.26116 0.0
O96 O 0.72605 0.21145 0.28557 0.0
O97 O 0.7251 0.22658 0.18572 0.0
C98 C 0.78392 0.2922 0.28153 0.0
C99 C 0.71765 0.21002 0.22886 0.0
Dy100 Dy 0.74376 0.7561 0.69768 0.0
C101 C 0.76808 0.73839 0.95229 0.0
C102 C 0.74081 0.76385 0.57542 0.0
Dy103 Dy 0.7647 0.74565 0.82991 0.0
O104 O 0.72499 0.7501 0.60627 0.0
O105 O 0.75779 0.77411 0.61154 0.0
O106 O 0.70548 0.74058 0.72091 0.0
O107 O 0.73924 0.72575 0.76841 0.0
C108 C 0.71507 0.7254 0.76574 0.0
C109 C 0.79321 0.77634 0.76131 0.0
O110 O 0.78285 0.71203 0.79484 0.0
O111 O 0.77534 0.72727 0.69484 0.0
O112 O 0.7837 0.75215 0.92086 0.0
O113 O 0.75108 0.72789 0.9167 0.0
O114 O 0.80294 0.76079 0.80528 0.0
O115 O 0.76907 0.77612 0.75946 0.0
O116 O 0.72537 0.78952 0.73273 0.0
O117 O 0.73292 0.77434 0.83276 0.0
C118 C 0.78646 0.71094 0.73734 0.0
C119 C 0.72169 0.79056 0.79017 0.0
Dy120 Dy 0.49964 0.50007 0.94523 0.0
C121 C 0.51751 0.50851 0.19921 0.0
C122 C 0.4877 0.49781 0.82572 0.0
Dy123 Dy 0.50541 0.50637 0.07972 0.0
O124 O 0.49717 0.47908 0.86205 0.0
O125 O 0.48411 0.51766 0.85501 0.0
O126 O 0.53984 0.4853 0.95028 0.0
O127 O 0.5177 0.47774 0.02353 0.0
C128 C 0.53965 0.47565 1.00521 0.0
C129 C 0.46563 0.53101 0.01908 0.0
O130 O 0.53855 0.52984 0.04707 0.0
O131 O 0.5246 0.53457 0.94616 0.0
O132 O 0.50805 0.52728 0.163 0.0
O133 O 0.52099 0.48866 0.16981 0.0
O134 O 0.4652 0.52158 0.07414 0.0
O135 O 0.48764 0.52864 1.00147 0.0
O136 O 0.46639 0.47677 0.9777 0.0
O137 O 0.47996 0.47218 0.07885 0.0
C138 C 0.54028 0.54064 0.99201 0.0
C139 C 0.46439 0.46614 0.0328 0.0
Dy140 Dy 0.0076 0.48937 0.57668 0.0
C141 C 0.98929 0.51331 0.32201 0.0
C142 C 0.01544 0.48648 0.69894 0.0
Dy143 Dy 0.99706 0.51021 0.44428 0.0
O144 O 0.00231 0.47022 0.66835 0.0
O145 O 0.02504 0.50387 0.66257 0.0
O146 O 0.99104 0.45148 0.55459 0.0
O147 O 0.97674 0.48537 0.50683 0.0
C148 C 0.97581 0.46123 0.51008 0.0
C149 C 0.02864 0.53833 0.5115 0.0
O150 O 0.96383 0.52892 0.47983 0.0
O151 O 0.97924 0.5214 0.57966 0.0
O152 O 0.00266 0.52934 0.35278 0.0
O153 O 0.97942 0.49603 0.35822 0.0
O154 O 0.01341 0.54816 0.46704 0.0
O155 O 0.0278 0.51421 0.51417 0.0
O156 O 0.04077 0.47055 0.54084 0.0
O157 O 0.02524 0.47812 0.44114 0.0
C158 C 0.963 0.53272 0.53727 0.0
C159 C 0.04154 0.46679 0.48334 0.0
H160 H 0.05813 0.051 0.36439 0.0
H161 H 0.09117 0.08222 0.33908 0.0
H162 H 0.11436 0.08604 0.52632 0.0
H163 H 0.08117 0.05483 0.55237 0.0
H164 H 0.10605 0.13421 0.46202 0.0
H165 H 0.16952 0.07324 0.34767 0.0
H166 H 0.1364 0.07168 0.3202 0.0
H167 H 0.14595 0.06009 0.39617 0.0
C168 C 0.07038 0.05824 0.4003 0.0
C169 C 0.067 0.05036 0.46045 0.0
C170 C 0.08937 0.07599 0.38568 0.0
C171 C 0.10541 0.08616 0.4308 0.0
C172 C 0.10227 0.07825 0.49086 0.0
H173 H 0.23298 0.18679 0.33394 0.0
H174 H 0.20805 0.15332 0.38606 0.0
C175 C 0.08331 0.06039 0.5056 0.0
C176 C 0.12439 0.10615 0.41497 0.0
H177 H 0.17486 0.11864 0.32983 0.0
C178 C 0.12133 0.13075 0.4338 0.0
C179 C 0.1445 0.10149 0.37886 0.0
C180 C 0.14951 0.07513 0.35999 0.0
C181 C 0.13709 0.15115 0.41495 0.0
C182 C 0.15616 0.14682 0.37579 0.0
C183 C 0.16005 0.12195 0.35943 0.0
C184 C 0.17118 0.16805 0.34828 0.0
C185 C 0.13302 0.17721 0.43651 0.0
C186 C 0.15868 0.18736 0.3099 0.0
C187 C 0.17283 0.20639 0.2801 0.0
C188 C 0.19972 0.20636 0.28801 0.0
C189 C 0.21224 0.18728 0.32722 0.0
C190 C 0.19806 0.16817 0.35691 0.0
H191 H 0.12326 0.1758 0.47873 0.0
H192 H 0.15152 0.18743 0.44391 0.0
H193 H 0.1207 0.18886 0.40214 0.0
H194 H 0.13799 0.18733 0.30174 0.0
H195 H 0.16272 0.22085 0.25003 0.0
H196 H 0.06124 0.96795 0.60193 0.0
H197 H 0.09317 0.93725 0.65063 0.0
H198 H 0.06979 0.88312 0.52222 0.0
H199 H 0.03715 0.91301 0.47582 0.0
H200 H 0.07527 0.85992 0.62874 0.0
H201 H 0.16109 0.92038 0.59387 0.0
H202 H 0.1383 0.93495 0.63602 0.0
H203 H 0.12971 0.92905 0.55931 0.0
C204 C 0.06294 0.94943 0.58448 0.0
C205 C 0.04687 0.94279 0.5352 0.0
C206 C 0.08132 0.93204 0.61184 0.0
C207 C 0.08423 0.90811 0.58922 0.0
C208 C 0.06795 0.9015 0.5403 0.0
H209 H 0.21477 0.80554 0.66336 0.0
H210 H 0.18305 0.83742 0.61907 0.0
C211 C 0.04933 0.9186 0.5138 0.0
C212 C 0.10371 0.88947 0.61688 0.0
H213 H 0.16779 0.88129 0.65458 0.0
C214 C 0.09552 0.86458 0.6342 0.0
C215 C 0.13016 0.89548 0.62305 0.0
C216 C 0.1404 0.92133 0.60153 0.0
C217 C 0.11301 0.84547 0.65729 0.0
C218 C 0.13933 0.85174 0.6658 0.0
C219 C 0.14757 0.87661 0.64848 0.0
C220 C 0.1586 0.83272 0.69254 0.0
C221 C 0.10309 0.81862 0.67054 0.0
C222 C 0.15552 0.81983 0.74868 0.0
C223 C 0.17317 0.80129 0.77309 0.0
C224 C 0.19464 0.79591 0.74265 0.0
C225 C 0.19825 0.80935 0.68741 0.0
C226 C 0.18024 0.82755 0.66231 0.0
H227 H 0.08477 0.81534 0.64373 0.0
H228 H 0.11719 0.80402 0.66112 0.0
H229 H 0.09932 0.81575 0.71845 0.0
H230 H 0.13946 0.82411 0.77369 0.0
H231 H 0.17019 0.79143 0.81624 0.0
H232 H 0.32629 0.7849 0.87116 0.0
H233 H 0.3584 0.8175 0.89402 0.0
H234 H 0.32857 0.86578 0.73997 0.0
H235 H 0.29632 0.83314 0.71621 0.0
H236 H 0.39557 0.84385 0.80138 0.0
H237 H 0.32793 0.9064 0.90261 0.0
H238 H 0.32249 0.87234 0.9015 0.0
H239 H 0.31818 0.89268 0.83344 0.0
C240 C 0.32654 0.80239 0.84192 0.0
C241 C 0.30868 0.80646 0.79195 0.0
C242 C 0.34495 0.82094 0.85501 0.0
C243 C 0.34571 0.84396 0.81876 0.0
C244 C 0.32816 0.84808 0.76845 0.0
H245 H 0.43782 0.97642 0.92086 0.0
H246 H 0.40726 0.94983 0.86484 0.0
C247 C 0.30981 0.82942 0.75499 0.0
C248 C 0.36461 0.86378 0.83491 0.0
H249 H 0.37154 0.91764 0.91001 0.0
C250 C 0.39035 0.86018 0.82449 0.0
C251 C 0.35758 0.8851 0.86445 0.0
C252 C 0.33008 0.88955 0.87651 0.0
C253 C 0.40948 0.87709 0.84443 0.0
C254 C 0.40268 0.89766 0.87706 0.0
C255 C 0.37673 0.90183 0.88518 0.0
C256 C 0.42228 0.91381 0.90723 0.0
C257 C 0.43678 0.87265 0.83064 0.0
C258 C 0.44074 0.9024 0.94977 0.0
C259 C 0.45823 0.91748 0.98137 0.0
C260 C 0.4574 0.94429 0.97158 0.0
C261 C 0.43899 0.95577 0.92891 0.0
C262 C 0.42152 0.94063 0.89703 0.0
H263 H 0.43748 0.86243 0.78948 0.0
H264 H 0.44744 0.89098 0.82479 0.0
H265 H 0.44671 0.86051 0.86816 0.0
H266 H 0.44125 0.8818 0.95964 0.0
H267 H 0.47214 0.90813 0.01423 0.0
H268 H 0.42746 0.0634 0.96155 0.0
H269 H 0.39675 0.09355 0.99428 0.0
H270 H 0.4195 0.069 0.17842 0.0
H271 H 0.45024 0.03931 0.14663 0.0
H272 H 0.35529 0.08504 0.0661 0.0
H273 H 0.42917 0.14646 0.17355 0.0
H274 H 0.43686 0.12312 0.12307 0.0
H275 H 0.43191 0.1132 0.19975 0.0
C276 C 0.42588 0.0644 0.00898 0.0
C277 C 0.44153 0.04909 0.05137 0.0
C278 C 0.40835 0.08164 0.0276 0.0
C279 C 0.40625 0.08388 0.08881 0.0
C280 C 0.42126 0.06806 0.13102 0.0
H281 H 0.31521 0.17683 0.29737 0.0
H282 H 0.34363 0.14459 0.26451 0.0
C283 C 0.43877 0.05097 0.11259 0.0
C284 C 0.38835 0.10263 0.10904 0.0
H285 H 0.38593 0.15395 0.19276 0.0
C286 C 0.36198 0.10021 0.09347 0.0
C287 C 0.39713 0.12235 0.14498 0.0
C288 C 0.42533 0.12666 0.16091 0.0
C289 C 0.3441 0.1167 0.11379 0.0
C290 C 0.35289 0.13632 0.14995 0.0
C291 C 0.37925 0.13875 0.16546 0.0
C292 C 0.33515 0.15522 0.17005 0.0
C293 C 0.31591 0.11273 0.09729 0.0
C294 C 0.32123 0.17201 0.12788 0.0
C295 C 0.3051 0.19041 0.14638 0.0
C296 C 0.30258 0.19252 0.20762 0.0
C297 C 0.3166 0.17568 0.24992 0.0
C298 C 0.33286 0.15727 0.23124 0.0
H299 H 0.31194 0.09316 0.08322 0.0
H300 H 0.30438 0.11587 0.1354 0.0
H301 H 0.30946 0.12671 0.05936 0.0
H302 H 0.3231 0.17111 0.08051 0.0
H303 H 0.29471 0.20307 0.11241 0.0
H304 H 0.94006 0.93135 0.46391 0.0
H305 H 0.90886 0.89922 0.49662 0.0
H306 H 0.90323 0.9366 0.65899 0.0
H307 H 0.93558 0.9677 0.62799 0.0
H308 H 0.90918 0.88903 0.68608 0.0
H309 H 0.83347 0.89877 0.49967 0.0
H310 H 0.86394 0.89188 0.47351 0.0
H311 H 0.85936 0.92149 0.50677 0.0
C312 C 0.93182 0.93286 0.50614 0.0
C313 C 0.94018 0.95192 0.54351 0.0
C314 C 0.91383 0.91461 0.52463 0.0
C315 C 0.90329 0.91565 0.57992 0.0
C316 C 0.91105 0.93533 0.61618 0.0
H317 H 0.77683 0.82183 0.70349 0.0
H318 H 0.80339 0.85544 0.65727 0.0
C319 C 0.92951 0.95312 0.59845 0.0
C320 C 0.88594 0.89512 0.60262 0.0
H321 H 0.83196 0.86079 0.56662 0.0
C322 C 0.89216 0.88308 0.66004 0.0
C323 C 0.86353 0.88743 0.56912 0.0
C324 C 0.85454 0.90078 0.50915 0.0
C325 C 0.8768 0.86362 0.6848 0.0
C326 C 0.8552 0.85494 0.65004 0.0
C327 C 0.84876 0.86712 0.59285 0.0
C328 C 0.83876 0.83375 0.67315 0.0
C329 C 0.88357 0.85317 0.74869 0.0
C330 C 0.84959 0.81004 0.69548 0.0
C331 C 0.83459 0.79115 0.72318 0.0
C332 C 0.80835 0.79531 0.7272 0.0
C333 C 0.7971 0.81826 0.70119 0.0
C334 C 0.81224 0.83743 0.67473 0.0
H335 H 0.89501 0.86715 0.77425 0.0
H336 H 0.86612 0.84824 0.77227 0.0
H337 H 0.89537 0.83563 0.74898 0.0
H338 H 0.86979 0.80637 0.69276 0.0
H339 H 0.84357 0.77338 0.74203 0.0
H340 H 0.93644 0.02945 0.4244 0.0
H341 H 0.90157 0.05857 0.38391 0.0
H342 H 0.9412 0.12129 0.46371 0.0
H343 H 0.97582 0.09232 0.50491 0.0
H344 H 0.88925 0.11644 0.48807 0.0
H345 H 0.90261 0.11512 0.24543 0.0
H346 H 0.89949 0.08437 0.28609 0.0
H347 H 0.92698 0.10398 0.30292 0.0
C348 C 0.93777 0.04951 0.43269 0.0
C349 C 0.95869 0.05871 0.46782 0.0
C350 C 0.91792 0.06608 0.40952 0.0
C351 C 0.91894 0.09202 0.42078 0.0
C352 C 0.9401 0.10128 0.45479 0.0
H353 H 0.84174 0.22467 0.25643 0.0
H354 H 0.87119 0.1908 0.29918 0.0
C355 C 0.95985 0.08477 0.47805 0.0
C356 C 0.89775 0.10962 0.39867 0.0
H357 H 0.86808 0.13945 0.27155 0.0
C358 C 0.88445 0.1214 0.44075 0.0
C359 C 0.89174 0.11598 0.33695 0.0
C360 C 0.90603 0.1044 0.29006 0.0
C361 C 0.86558 0.13994 0.42266 0.0
C362 C 0.85975 0.14648 0.36095 0.0
C363 C 0.87263 0.13424 0.31887 0.0
C364 C 0.84178 0.16735 0.33884 0.0
C365 C 0.85277 0.15308 0.46956 0.0
C366 C 0.81557 0.16546 0.34789 0.0
C367 C 0.7987 0.18491 0.32378 0.0
C368 C 0.80788 0.20627 0.28992 0.0
C369 C 0.83418 0.20833 0.28216 0.0
C370 C 0.85099 0.18901 0.30637 0.0
H371 H 0.8629 0.14931 0.51472 0.0
H372 H 0.8519 0.17411 0.45805 0.0
H373 H 0.83281 0.14593 0.47154 0.0
H374 H 0.80812 0.14871 0.37229 0.0
H375 H 0.77845 0.18291 0.33017 0.0
H376 H 0.69773 0.19998 0.11722 0.0
H377 H 0.66607 0.16752 0.09104 0.0
H378 H 0.66444 0.14099 0.27725 0.0
H379 H 0.69604 0.17361 0.30421 0.0
H380 H 0.66849 0.11336 0.11491 0.0
H381 H 0.58841 0.1567 0.22069 0.0
H382 H 0.61743 0.17405 0.20556 0.0
H383 H 0.61744 0.15029 0.26784 0.0
C384 C 0.69073 0.18725 0.15275 0.0
C385 C 0.69935 0.18952 0.2129 0.0
C386 C 0.67265 0.16867 0.13763 0.0
C387 C 0.66271 0.15208 0.18226 0.0
C388 C 0.67161 0.15388 0.24224 0.0
H389 H 0.56602 0.02088 0.08844 0.0
H390 H 0.59918 0.04685 0.13829 0.0
C391 C 0.68976 0.17246 0.25748 0.0
C392 C 0.64283 0.13316 0.16547 0.0
H393 H 0.57937 0.11878 0.17364 0.0
C394 C 0.64905 0.11435 0.12815 0.0
C395 C 0.61748 0.13472 0.18254 0.0
C396 C 0.6096 0.15511 0.221 0.0
C397 C 0.63044 0.09728 0.10647 0.0
C398 C 0.60504 0.09894 0.12319 0.0
C399 C 0.59893 0.11746 0.16138 0.0
C400 C 0.58412 0.08309 0.09735 0.0
C401 C 0.63785 0.07832 0.06389 0.0
C402 C 0.56428 0.09495 0.05948 0.0
C403 C 0.54535 0.08023 0.0313 0.0
C404 C 0.54589 0.0534 0.0407 0.0
C405 C 0.56525 0.04155 0.08026 0.0
C406 C 0.58423 0.05631 0.10847 0.0
H407 H 0.65689 0.08271 0.04691 0.0
H408 H 0.63871 0.05882 0.08738 0.0
H409 H 0.62333 0.07809 0.02513 0.0
H410 H 0.56382 0.1156 0.0505 0.0
H411 H 0.53056 0.08986 1.00128 0.0
H412 H 0.69062 0.82478 0.71874 0.0
H413 H 0.66123 0.85622 0.75119 0.0
H414 H 0.68406 0.83211 0.93551 0.0
H415 H 0.71343 0.80094 0.90397 0.0
H416 H 0.6199 0.84533 0.82537 0.0
H417 H 0.69144 0.91064 0.92814 0.0
H418 H 0.69973 0.8879 0.87673 0.0
H419 H 0.6957 0.8774 0.95348 0.0
C420 C 0.68956 0.82633 0.76616 0.0
C421 C 0.70447 0.81034 0.80865 0.0
C422 C 0.67274 0.84427 0.7846 0.0
C423 C 0.67076 0.84672 0.84574 0.0
C424 C 0.68565 0.83088 0.88813 0.0
H425 H 0.57593 0.93651 0.05296 0.0
H426 H 0.60746 0.90712 0.02064 0.0
C427 C 0.70235 0.81293 0.86986 0.0
C428 C 0.65227 0.86494 0.86562 0.0
H429 H 0.64789 0.91689 0.94657 0.0
C430 C 0.626 0.8611 0.85148 0.0
C431 C 0.66031 0.88531 0.90023 0.0
C432 C 0.68834 0.89078 0.91521 0.0
C433 C 0.60748 0.87683 0.87182 0.0
C434 C 0.61551 0.89731 0.90618 0.0
C435 C 0.64179 0.90114 0.9204 0.0
C436 C 0.59688 0.91542 0.92609 0.0
C437 C 0.57947 0.87103 0.85745 0.0
C438 C 0.58092 0.93017 0.88367 0.0
C439 C 0.56294 0.94683 0.90187 0.0
C440 C 0.56064 0.94933 0.96304 0.0
C441 C 0.57713 0.935 1.00556 0.0
C442 C 0.59514 0.91821 0.98718 0.0
H443 H 0.57653 0.85091 0.84619 0.0
H444 H 0.56803 0.87439 0.89555 0.0
H445 H 0.57201 0.88379 0.81814 0.0
H446 H 0.58236 0.9288 0.8363 0.0
H447 H 0.5508 0.95772 0.8677 0.0
H448 H 0.57612 0.56012 0.07262 0.0
H449 H 0.60977 0.59166 0.05084 0.0
H450 H 0.58361 0.5962 0.8637 0.0
H451 H 0.55025 0.56492 0.88451 0.0
H452 H 0.63835 0.58821 0.89207 0.0
H453 H 0.59877 0.67027 0.99811 0.0
H454 H 0.60178 0.63973 0.04121 0.0
H455 H 0.57907 0.64352 0.97708 0.0
C456 C 0.57749 0.56791 0.02688 0.0
C457 C 0.56044 0.55998 0.98035 0.0
C458 C 0.59666 0.58596 0.01461 0.0
C459 C 0.59901 0.59629 0.95573 0.0
C460 C 0.58206 0.58842 0.90943 0.0
H461 H 0.66317 0.72297 0.76453 0.0
H462 H 0.63753 0.69153 0.82039 0.0
C463 C 0.56295 0.57054 0.92155 0.0
C464 C 0.61931 0.615 0.94103 0.0
H465 H 0.63542 0.67811 0.94528 0.0
C466 C 0.63804 0.60778 0.90444 0.0
C467 C 0.61859 0.64049 0.95703 0.0
C468 C 0.59845 0.6492 0.99528 0.0
C469 C 0.65554 0.62564 0.88141 0.0
C470 C 0.65444 0.65132 0.89614 0.0
C471 C 0.63627 0.65835 0.93446 0.0
C472 C 0.67025 0.67157 0.86726 0.0
C473 C 0.67415 0.6172 0.83896 0.0
C474 C 0.69712 0.67104 0.87608 0.0
C475 C 0.71181 0.68888 0.84387 0.0
C476 C 0.69979 0.70759 0.80274 0.0
C477 C 0.6729 0.70865 0.7957 0.0
C478 C 0.65826 0.69081 0.82777 0.0
H479 H 0.66938 0.59793 0.82396 0.0
H480 H 0.67435 0.63109 0.79893 0.0
H481 H 0.69377 0.61637 0.86176 0.0
H482 H 0.70671 0.65653 0.90695 0.0
H483 H 0.73253 0.68769 0.85018 0.0
H484 H 0.72386 0.31525 0.16798 0.0
H485 H 0.69622 0.35056 0.12339 0.0
H486 H 0.63398 0.31997 0.22236 0.0
H487 H 0.66129 0.28442 0.26602 0.0
H488 H 0.61917 0.33528 0.10425 0.0
H489 H 0.67591 0.41113 0.21327 0.0
H490 H 0.69379 0.39157 0.16942 0.0
H491 H 0.68046 0.37747 0.23565 0.0
C492 C 0.70423 0.31603 0.17984 0.0
C493 C 0.6947 0.29733 0.22074 0.0
C494 C 0.68857 0.33626 0.15476 0.0
C495 C 0.66329 0.3381 0.17069 0.0
C496 C 0.65353 0.31894 0.20996 0.0
H497 H 0.53725 0.44441 0.10758 0.0
H498 H 0.56876 0.41192 0.14925 0.0
C499 C 0.66911 0.29869 0.23481 0.0
C500 C 0.64685 0.35995 0.1467 0.0
H501 H 0.64077 0.42488 0.14534 0.0
C502 C 0.62388 0.35486 0.11322 0.0
C503 C 0.65311 0.38543 0.15876 0.0
C504 C 0.67704 0.39181 0.19666 0.0
C505 C 0.60695 0.37466 0.0913 0.0
C506 C 0.61316 0.40004 0.10358 0.0
C507 C 0.63622 0.40527 0.13633 0.0
C508 C 0.59566 0.42133 0.08258 0.0
C509 C 0.58253 0.36842 0.055 0.0
C510 C 0.60092 0.43765 0.03255 0.0
C511 C 0.58299 0.45608 0.00859 0.0
C512 C 0.5597 0.45843 0.03468 0.0
C513 C 0.55506 0.44289 0.08661 0.0
C514 C 0.57294 0.42437 0.11033 0.0
H515 H 0.58227 0.34834 0.04248 0.0
H516 H 0.56589 0.3712 0.08147 0.0
H517 H 0.58006 0.38155 0.01359 0.0
H518 H 0.61845 0.4355 0.01086 0.0
H519 H 0.58702 0.46797 0.9687 0.0
H520 H 0.93728 0.47921 0.42824 0.0
H521 H 0.90396 0.45396 0.37687 0.0
H522 H 0.93777 0.38443 0.46452 0.0
H523 H 0.97122 0.40947 0.51521 0.0
H524 H 0.92291 0.38177 0.34107 0.0
H525 H 0.84505 0.41891 0.46513 0.0
H526 H 0.86385 0.44257 0.42565 0.0
H527 H 0.87858 0.42297 0.48818 0.0
C528 C 0.93769 0.45853 0.43607 0.0
C529 C 0.95668 0.44626 0.47597 0.0
C530 C 0.9186 0.44416 0.40699 0.0
C531 C 0.91823 0.41737 0.41761 0.0
C532 C 0.93769 0.4051 0.4559 0.0
H533 H 0.80331 0.3023 0.39347 0.0
H534 H 0.83512 0.33448 0.42034 0.0
C535 C 0.95673 0.41941 0.48494 0.0
C536 C 0.89719 0.40195 0.39072 0.0
H537 H 0.8334 0.3886 0.39633 0.0
C538 C 0.90327 0.3834 0.35256 0.0
C539 C 0.87168 0.40403 0.40642 0.0
C540 C 0.86428 0.42303 0.44892 0.0
C541 C 0.88456 0.36651 0.3305 0.0
C542 C 0.8591 0.36845 0.34659 0.0
C543 C 0.85292 0.38733 0.38381 0.0
C544 C 0.83907 0.34977 0.32925 0.0
C545 C 0.89239 0.34602 0.29221 0.0
C546 C 0.83045 0.34798 0.26909 0.0
C547 C 0.8122 0.32954 0.25343 0.0
C548 C 0.80226 0.31263 0.29778 0.0
C549 C 0.81059 0.31492 0.35809 0.0
C550 C 0.82875 0.33334 0.37362 0.0
H551 H 0.91357 0.34416 0.29307 0.0
H552 H 0.88426 0.32718 0.30737 0.0
H553 H 0.8848 0.35094 0.24522 0.0
H554 H 0.83792 0.36076 0.23426 0.0
H555 H 0.80615 0.32837 0.20659 0.0
H556 H 0.79397 0.70048 0.62332 0.0
H557 H 0.82249 0.66885 0.59075 0.0
H558 H 0.84651 0.6448 0.77453 0.0
H559 H 0.81751 0.67634 0.80798 0.0
H560 H 0.87471 0.6659 0.61125 0.0
H561 H 0.8292 0.57686 0.7043 0.0
H562 H 0.8134 0.60761 0.69825 0.0
H563 H 0.83756 0.59957 0.75815 0.0
C564 C 0.80514 0.68841 0.65712 0.0
C565 C 0.80338 0.69098 0.71846 0.0
C566 C 0.82148 0.6703 0.63825 0.0
C567 C 0.83643 0.65426 0.68009 0.0
C568 C 0.83476 0.65664 0.74142 0.0
H569 H 0.95401 0.54217 0.65124 0.0
H570 H 0.92293 0.5715 0.6833 0.0
C571 C 0.81827 0.67477 0.76048 0.0
C572 C 0.85442 0.63582 0.6589 0.0
H573 H 0.86894 0.57219 0.66227 0.0
C574 C 0.87338 0.6454 0.62218 0.0
C575 C 0.85262 0.60908 0.67312 0.0
C576 C 0.83197 0.59757 0.71016 0.0
C577 C 0.89086 0.62902 0.60013 0.0
C578 C 0.8891 0.6023 0.61447 0.0
C579 C 0.87016 0.59269 0.65118 0.0
C580 C 0.90742 0.58409 0.59383 0.0
C581 C 0.91147 0.64049 0.56289 0.0
C582 C 0.9088 0.58115 0.53267 0.0
C583 C 0.92665 0.5643 0.51391 0.0
C584 C 0.94339 0.55008 0.55608 0.0
C585 C 0.94156 0.55284 0.61733 0.0
C586 C 0.92374 0.56958 0.63592 0.0
H587 H 0.91368 0.6614 0.56693 0.0
H588 H 0.93022 0.631 0.57628 0.0
H589 H 0.90631 0.63756 0.51515 0.0
H590 H 0.89607 0.59189 0.49947 0.0
H591 H 0.92746 0.56258 0.46647 0.0
H592 H 0.27344 0.31681 0.17001 0.0
H593 H 0.29878 0.34848 0.11334 0.0
H594 H 0.36851 0.31292 0.19536 0.0
H595 H 0.34336 0.28116 0.25138 0.0
H596 H 0.33292 0.38265 0.16402 0.0
H597 H 0.38264 0.32233 0.01873 0.0
H598 H 0.35451 0.31161 0.05538 0.0
H599 H 0.38566 0.30996 0.09577 0.0
C600 C 0.29418 0.31556 0.17517 0.0
C601 C 0.3065 0.29659 0.215 0.0
C602 C 0.3086 0.33363 0.14283 0.0
C603 C 0.33551 0.3328 0.14947 0.0
C604 C 0.34777 0.31356 0.18851 0.0
H605 H 0.45197 0.44402 0.14071 0.0
H606 H 0.41825 0.41296 0.16048 0.0
C607 C 0.3334 0.29557 0.22089 0.0
C608 C 0.35092 0.3533 0.12017 0.0
H609 H 0.402 0.36332 0.03564 0.0
C610 C 0.34771 0.37851 0.13504 0.0
C611 C 0.36997 0.34795 0.08176 0.0
C612 C 0.37326 0.32153 0.06143 0.0
C613 C 0.36411 0.3982 0.11553 0.0
C614 C 0.38438 0.39243 0.08087 0.0
C615 C 0.3866 0.3676 0.06283 0.0
C616 C 0.40467 0.41137 0.06755 0.0
C617 C 0.36004 0.42491 0.13344 0.0
C618 C 0.40857 0.42034 1.00846 0.0
C619 C 0.42797 0.43821 0.9968 0.0
C620 C 0.44391 0.4471 0.04411 0.0
C621 C 0.44007 0.4377 0.10312 0.0
C622 C 0.42068 0.42002 0.11464 0.0
H623 H 0.34 0.42776 0.14458 0.0
H624 H 0.37298 0.42803 0.17373 0.0
H625 H 0.36454 0.43956 0.0972 0.0
H626 H 0.39649 0.41368 0.97152 0.0
H627 H 0.43047 0.44498 0.95085 0.0
H628 H 0.4681 0.55981 0.91344 0.0
H629 H 0.4363 0.59078 0.86614 0.0
H630 H 0.38651 0.57111 1.00679 0.0
H631 H 0.4182 0.53993 0.05427 0.0
H632 H 0.36245 0.57666 0.88169 0.0
H633 H 0.42345 0.65877 0.9471 0.0
H634 H 0.43885 0.63488 0.90935 0.0
H635 H 0.42809 0.62669 0.98229 0.0
C636 C 0.45024 0.56186 0.93382 0.0
C637 C 0.4456 0.54771 0.98766 0.0
C638 C 0.4322 0.57958 0.90696 0.0
C639 C 0.40935 0.58335 0.93361 0.0
C640 C 0.40416 0.56845 0.98592 0.0
H641 H 0.28029 0.68724 0.8456 0.0
H642 H 0.30914 0.65302 0.89065 0.0
C643 C 0.42223 0.55075 0.01293 0.0
C644 C 0.39142 0.6037 0.90835 0.0
H645 H 0.38557 0.66861 0.88528 0.0
C646 C 0.36737 0.59679 0.88252 0.0
C647 C 0.39808 0.62982 0.90988 0.0
C648 C 0.42343 0.63813 0.93902 0.0
C649 C 0.34988 0.61549 0.85667 0.0
C650 C 0.35658 0.64166 0.85805 0.0
C651 C 0.38058 0.6485 0.88434 0.0
C652 C 0.33916 0.66232 0.83157 0.0
C653 C 0.32471 0.6071 0.82681 0.0
C654 C 0.34691 0.67929 0.78487 0.0
C655 C 0.33064 0.69896 0.75962 0.0
C656 C 0.30642 0.7019 0.78081 0.0
C657 C 0.29884 0.6852 0.82829 0.0
C658 C 0.31517 0.66558 0.85368 0.0
H659 H 0.32526 0.58674 0.81657 0.0
H660 H 0.3093 0.60916 0.85721 0.0
H661 H 0.31963 0.61918 0.78464 0.0
H662 H 0.36546 0.67716 0.7676 0.0
H663 H 0.33693 0.71167 0.72318 0.0
H664 H 0.19185 0.70144 0.63382 0.0
H665 H 0.16061 0.66839 0.6107 0.0
H666 H 0.16246 0.6418 0.79751 0.0
H667 H 0.19389 0.67517 0.82159 0.0
H668 H 0.16697 0.61419 0.6364 0.0
H669 H 0.08479 0.65334 0.7432 0.0
H670 H 0.11233 0.6726 0.72531 0.0
H671 H 0.11477 0.64901 0.788 0.0
C672 C 0.18566 0.68869 0.67029 0.0
C673 C 0.1954 0.69103 0.72969 0.0
C674 C 0.1678 0.66974 0.65685 0.0
C675 C 0.15913 0.65278 0.70238 0.0
C676 C 0.16873 0.65493 0.76182 0.0
H677 H 0.06674 0.5204 0.59456 0.0
H678 H 0.09842 0.54584 0.65055 0.0
C679 C 0.18673 0.67394 0.77542 0.0
C680 C 0.14024 0.63281 0.68646 0.0
H681 H 0.07702 0.61667 0.69086 0.0
C682 C 0.14738 0.61444 0.64897 0.0
C683 C 0.1147 0.63341 0.70268 0.0
C684 C 0.10597 0.65319 0.74173 0.0
C685 C 0.12945 0.59715 0.62553 0.0
C686 C 0.10376 0.59809 0.64069 0.0
C687 C 0.09678 0.61594 0.67971 0.0
C688 C 0.08343 0.58245 0.61172 0.0
C689 C 0.13782 0.5789 0.58232 0.0
C690 C 0.0641 0.59463 0.57286 0.0
C691 C 0.046 0.5802 0.54118 0.0
C692 C 0.04686 0.55333 0.548 0.0
C693 C 0.0657 0.54111 0.5884 0.0
C694 C 0.08384 0.55559 0.62017 0.0
H695 H 0.15712 0.58373 0.56726 0.0
H696 H 0.13858 0.55916 0.60448 0.0
H697 H 0.12389 0.57903 0.54238 0.0
H698 H 0.06345 0.61534 0.56578 0.0
H699 H 0.03159 0.5901 0.51058 0.0
H700 H 0.18875 0.32592 0.20995 0.0
H701 H 0.15966 0.35732 0.24398 0.0
H702 H 0.18351 0.3326 0.42741 0.0
H703 H 0.21253 0.30154 0.39437 0.0
H704 H 0.11877 0.34645 0.3196 0.0
H705 H 0.19125 0.41098 0.4216 0.0
H706 H 0.19908 0.3884 0.36938 0.0
H707 H 0.19557 0.37767 0.44627 0.0
C708 C 0.18796 0.32734 0.2575 0.0
C709 C 0.20306 0.31121 0.2993 0.0
C710 C 0.17132 0.34525 0.27686 0.0
C711 C 0.16973 0.34753 0.33823 0.0
C712 C 0.1848 0.33153 0.37988 0.0
H713 H 0.07686 0.43611 0.55309 0.0
H714 H 0.10796 0.4068 0.51858 0.0
C715 C 0.20129 0.31362 0.36072 0.0
C716 C 0.15149 0.36573 0.35926 0.0
H717 H 0.14798 0.41697 0.44285 0.0
C718 C 0.12514 0.36201 0.34612 0.0
C719 C 0.15987 0.38581 0.39446 0.0
C720 C 0.18799 0.39117 0.40842 0.0
C721 C 0.10688 0.37757 0.36806 0.0
C722 C 0.11524 0.39773 0.40308 0.0
C723 C 0.14161 0.40145 0.41625 0.0
C724 C 0.09686 0.41572 0.42445 0.0
C725 C 0.07877 0.37189 0.35464 0.0
C726 C 0.08076 0.4308 0.38304 0.0
C727 C 0.06304 0.44741 0.40247 0.0
C728 C 0.06113 0.44955 0.46394 0.0
C729 C 0.07774 0.43488 0.5055 0.0
C730 C 0.09552 0.41814 0.48586 0.0
H731 H 0.07566 0.35189 0.34269 0.0
H732 H 0.06767 0.37498 0.39347 0.0
H733 H 0.07106 0.38492 0.31605 0.0
H734 H 0.08188 0.42974 0.33546 0.0
H735 H 0.0508 0.45855 0.36896 0.0
H736 H 0.02481 0.96596 0.7687 0.0
H737 H 0.02057 0.9647 0.8768 0.0
H738 H 0.00285 0.04541 0.85941 0.0
H739 H 0.00695 0.04681 0.75169 0.0
H740 H 0.04635 0.99553 0.96637 0.0
H741 H 0.94065 0.00984 0.93743 0.0
H742 H 0.95888 0.99981 0.8786 0.0
H743 H 0.95927 0.03275 0.89527 0.0
C744 C 0.0203 0.98345 0.78818 0.0
C745 C 0.01605 0.00644 0.7521 0.0
C746 C 0.01784 0.9827 0.84968 0.0
C747 C 0.01096 0.00487 0.87553 0.0
C748 C 0.00774 0.02804 0.8399 0.0
H749 H 0.98008 0.03741 0.23523 0.0
H750 H 0.98437 0.03972 0.127 0.0
C751 C 0.01023 0.02882 0.77858 0.0
C752 C 0.00664 0.00375 0.93962 0.0
H753 H 0.96028 0.01004 0.03588 0.0
C754 C 0.02755 0.9986 0.98171 0.0
C755 C 0.98206 0.00789 0.95907 0.0
C756 C 0.95883 0.01269 0.91537 0.0
C757 C 0.0246 0.9978 0.04317 0.0
C758 C 0.99998 0.00177 0.06267 0.0
C759 C 0.97909 0.00704 0.02055 0.0
C760 C 0.99556 1.00002 0.12678 0.0
C761 C 0.04789 0.99312 0.08675 0.0
C762 C 0.99959 0.97674 0.16161 0.0
C763 C 0.99712 0.97538 0.22298 0.0
C764 C 0.99045 0.99726 0.25033 0.0
C765 C 0.98527 0.0203 0.21505 0.0
C766 C 0.98776 0.02165 0.15348 0.0
H767 H 0.066 0.99688 0.06487 0.0
H768 H 0.04745 0.00539 0.12459 0.0
H769 H 0.04805 0.97281 0.10526 0.0
H770 H 0.0051 0.95974 0.14145 0.0
H771 H 1.00109 0.95735 0.24921 0.0
H772 H 0.28625 0.77573 0.50015 0.0
H773 H 0.28497 0.77051 0.39304 0.0
H774 H 0.20594 0.74639 0.39404 0.0
H775 H 0.20696 0.75217 0.5012 0.0
H776 H 0.2756 0.72483 0.34219 0.0
H777 H 0.20448 0.79924 0.25009 0.0
H778 H 0.21954 0.79865 0.32519 0.0
H779 H 0.1937 0.77703 0.308 0.0
C780 C 0.26846 0.76981 0.47722 0.0
C781 C 0.24667 0.76442 0.50858 0.0
C782 C 0.2678 0.76671 0.41625 0.0
C783 C 0.24536 0.75813 0.38575 0.0
C784 C 0.22332 0.7534 0.41665 0.0
H785 H 0.24598 0.70106 0.02861 0.0
H786 H 0.24312 0.70228 0.13693 0.0
C787 C 0.22392 0.7567 0.47772 0.0
C788 C 0.24564 0.75302 0.32229 0.0
H789 H 0.21974 0.77213 0.18203 0.0
C790 C 0.26334 0.73509 0.30706 0.0
C791 C 0.22961 0.76648 0.27688 0.0
C792 C 0.21089 0.78659 0.29057 0.0
C793 C 0.2659 0.73067 0.24724 0.0
C794 C 0.24997 0.74424 0.20185 0.0
C795 C 0.23182 0.76169 0.2172 0.0
C796 C 0.2532 0.74243 0.1378 0.0
C797 C 0.28624 0.71233 0.23297 0.0
C798 C 0.25988 0.7645 0.10294 0.0
C799 C 0.26127 0.76388 0.04166 0.0
C800 C 0.25609 0.74115 0.01413 0.0
C801 C 0.25022 0.71875 0.04912 0.0
C802 C 0.24862 0.71943 0.11076 0.0
H803 H 0.30014 0.70732 0.2721 0.0
H804 H 0.27696 0.69439 0.21934 0.0
H805 H 0.29693 0.72064 0.19527 0.0
H806 H 0.26359 0.78238 0.1231 0.0
H807 H 0.26591 0.7814 0.01561 0.0
H808 H 0.46577 0.97617 0.74996 0.0
H809 H 0.4704 0.97189 0.64358 0.0
H810 H 0.51543 0.04115 0.63392 0.0
H811 H 0.51106 0.0454 0.74019 0.0
H812 H 0.45763 0.00557 0.54018 0.0
H813 H 0.56253 0.98768 0.57445 0.0
H814 H 0.54202 0.98599 0.63547 0.0
H815 H 0.55216 0.01655 0.60312 0.0
C816 C 0.47641 0.99062 0.72492 0.0
C817 C 0.48815 0.01106 0.75331 0.0
C818 C 0.47909 0.98812 0.66426 0.0
C819 C 0.4937 0.00592 0.63116 0.0
C820 C 0.50454 0.02691 0.65892 0.0
H821 H 0.53634 0.02215 0.26415 0.0
H822 H 0.53176 0.02646 0.37054 0.0
C823 C 0.50185 0.02942 0.71949 0.0
C824 C 0.49789 0.00234 0.56789 0.0
H825 H 0.54458 0.99278 0.47405 0.0
C826 C 0.47661 0.00267 0.52572 0.0
C827 C 0.5227 0.99856 0.54915 0.0
C828 C 0.54617 0.99693 0.5929 0.0
C829 C 0.47951 0.9998 0.46508 0.0
C830 C 0.50432 0.99601 0.44635 0.0
C831 C 0.5256 0.99569 0.48851 0.0
C832 C 0.5085 0.99242 0.38308 0.0
C833 C 0.45604 0.00141 0.42133 0.0
C834 C 0.49767 0.9714 0.3554 0.0
C835 C 0.50034 0.96887 0.29483 0.0
C836 C 0.514 0.98724 0.26093 0.0
C837 C 0.52573 0.0077 0.28925 0.0
C838 C 0.52308 0.01021 0.34991 0.0
H839 H 0.43968 0.01066 0.43979 0.0
H840 H 0.46018 0.01234 0.37876 0.0
H841 H 0.45006 0.98178 0.41113 0.0
H842 H 0.48681 0.95716 0.38045 0.0
H843 H 0.49113 0.95287 0.27419 0.0
H844 H 0.2777 0.28616 0.99712 0.0
H845 H 0.28204 0.28193 0.89076 0.0
H846 H 0.21022 0.24107 0.8782 0.0
H847 H 0.20594 0.24499 0.9847 0.0
H848 H 0.24973 0.21619 0.83067 0.0
H849 H 0.24448 0.3182 0.74153 0.0
H850 H 0.26796 0.31174 0.80358 0.0
H851 H 0.23447 0.30736 0.81434 0.0
C852 C 0.26262 0.27667 0.97139 0.0
C853 C 0.24142 0.266 0.99908 0.0
C854 C 0.26509 0.27432 0.91058 0.0
C855 C 0.24633 0.26139 0.87628 0.0
C856 C 0.22488 0.25119 0.9037 0.0
H857 H 0.22895 0.21804 0.50958 0.0
H858 H 0.22477 0.22234 0.61596 0.0
C859 C 0.22241 0.25354 0.96447 0.0
C860 C 0.24974 0.25722 0.81281 0.0
H861 H 0.25706 0.28833 0.67564 0.0
C862 C 0.25119 0.23196 0.79667 0.0
C863 C 0.25178 0.2778 0.76854 0.0
C864 C 0.24937 0.30531 0.78257 0.0
C865 C 0.25504 0.22672 0.73777 0.0
C866 C 0.25704 0.2473 0.69348 0.0
C867 C 0.2556 0.27256 0.70963 0.0
C868 C 0.26036 0.24313 0.62996 0.0
C869 C 0.25749 0.19921 0.72381 0.0
C870 C 0.28167 0.25347 0.60223 0.0
C871 C 0.28405 0.25109 0.54142 0.0
C872 C 0.26507 0.23846 0.50709 0.0
C873 C 0.244 0.22765 0.53509 0.0
C874 C 0.24163 0.23004 0.59592 0.0
H875 H 0.26255 0.18636 0.76484 0.0
H876 H 0.23886 0.19268 0.70319 0.0
H877 H 0.27228 0.19718 0.69176 0.0
H878 H 0.29632 0.2637 0.62751 0.0
H879 H 0.30041 0.25975 0.52095 0.0
H880 H 0.79511 0.24929 1.00422 0.0
H881 H 0.79293 0.24592 0.89626 0.0
H882 H 0.71531 0.27456 0.87954 0.0
H883 H 0.71745 0.27819 0.98786 0.0
H884 H 0.75719 0.21522 0.834 0.0
H885 H 0.75052 0.31768 0.74733 0.0
H886 H 0.76155 0.30764 0.82375 0.0
H887 H 0.72788 0.30761 0.8006 0.0
C888 C 0.77771 0.25525 0.97739 0.0
C889 C 0.75643 0.26403 1.00412 0.0
C890 C 0.77649 0.25324 0.91586 0.0
C891 C 0.75404 0.26013 0.88006 0.0
C892 C 0.73294 0.26951 0.90642 0.0
H893 H 0.70626 0.25195 0.50608 0.0
H894 H 0.70837 0.25536 0.61405 0.0
C895 C 0.73415 0.27152 0.96814 0.0
C896 C 0.7523 0.256 0.81576 0.0
H897 H 0.74431 0.2869 0.67608 0.0
C898 C 0.75447 0.23087 0.79937 0.0
C899 C 0.74873 0.2765 0.77099 0.0
C900 C 0.74724 0.30392 0.78629 0.0
C901 C 0.7528 0.22563 0.73911 0.0
C902 C 0.74922 0.24612 0.69436 0.0
C903 C 0.74703 0.27125 0.71072 0.0
C904 C 0.74755 0.24199 0.63009 0.0
C905 C 0.75436 0.19822 0.72373 0.0
C906 C 0.76885 0.23306 0.60369 0.0
C907 C 0.76769 0.23106 0.54197 0.0
C908 C 0.74525 0.23807 0.50606 0.0
C909 C 0.72377 0.24636 0.53286 0.0
C910 C 0.72496 0.2484 0.59438 0.0
H911 H 0.75139 0.18442 0.7628 0.0
H912 H 0.73988 0.19445 0.68667 0.0
H913 H 0.77363 0.19468 0.70873 0.0
H914 H 0.78657 0.22836 0.63054 0.0
H915 H 0.78453 0.22477 0.52221 0.0
H916 H 0.77585 0.78786 0.50623 0.0
H917 H 0.78011 0.78428 0.39945 0.0
H918 H 0.71315 0.73584 0.39085 0.0
H919 H 0.70861 0.73967 0.49711 0.0
H920 H 0.78791 0.73954 0.34597 0.0
H921 H 0.69818 0.7868 0.24598 0.0
H922 H 0.71046 0.79009 0.32223 0.0
H923 H 0.69311 0.76176 0.30327 0.0
C924 C 0.76177 0.77686 0.48123 0.0
C925 C 0.7418 0.76417 0.50985 0.0
C926 C 0.76429 0.77472 0.42033 0.0
C927 C 0.74679 0.76001 0.38689 0.0
C928 C 0.72657 0.74773 0.41529 0.0
H929 H 0.73335 0.71441 0.02229 0.0
H930 H 0.72924 0.71835 0.12897 0.0
C931 C 0.72404 0.74986 0.47611 0.0
C932 C 0.75054 0.75627 0.32334 0.0
H933 H 0.72138 0.76352 0.18155 0.0
C934 C 0.77344 0.74494 0.30995 0.0
C935 C 0.73159 0.76317 0.27637 0.0
C936 C 0.70705 0.77635 0.28744 0.0
C937 C 0.77772 0.73992 0.25114 0.0
C938 C 0.75875 0.74679 0.2042 0.0
C939 C 0.73586 0.75814 0.21757 0.0
C940 C 0.76241 0.74288 0.14071 0.0
C941 C 0.80226 0.72677 0.24001 0.0
C942 C 0.78252 0.75519 0.11189 0.0
C943 C 0.78496 0.75286 0.0511 0.0
C944 C 0.76723 0.73831 0.01785 0.0
C945 C 0.7474 0.7256 0.04691 0.0
C946 C 0.74496 0.72794 0.10775 0.0
H947 H 0.81128 0.7165 0.28155 0.0
H948 H 0.7988 0.71288 0.20558 0.0
H949 H 0.8161 0.74135 0.22363 0.0
H950 H 0.79591 0.76723 0.13597 0.0
H951 H 0.80028 0.76308 0.02973 0.0
H952 H 0.49808 0.45839 0.76029 0.0
H953 H 0.50293 0.4606 0.65273 0.0
H954 H 0.47967 0.5399 0.63582 0.0
H955 H 0.47503 0.53789 0.74369 0.0
H956 H 0.46864 0.47469 0.55112 0.0
H957 H 0.55163 0.54109 0.57183 0.0
H958 H 0.53928 0.52345 0.63573 0.0
H959 H 0.52289 0.55158 0.60121 0.0
C960 C 0.49361 0.47618 0.73346 0.0
C961 C 0.48637 0.49803 0.76015 0.0
C962 C 0.49644 0.47742 0.67215 0.0
C963 C 0.49218 0.50055 0.63677 0.0
C964 C 0.48354 0.52202 0.66275 0.0
H965 H 0.50734 0.54792 0.26486 0.0
H966 H 0.50266 0.54568 0.3725 0.0
C967 C 0.48069 0.52079 0.72414 0.0
C968 C 0.49772 0.50234 0.5732 0.0
H969 H 0.53695 0.53154 0.47397 0.0
C970 C 0.48359 0.48706 0.53417 0.0
C971 C 0.51735 0.51843 0.55156 0.0
C972 C 0.53385 0.53444 0.59224 0.0
C973 C 0.48823 0.4878 0.47353 0.0
C974 C 0.50786 0.50389 0.45188 0.0
C975 C 0.522 0.51917 0.49092 0.0
C976 C 0.51336 0.50572 0.38828 0.0
C977 C 0.47171 0.4718 0.43286 0.0
C978 C 0.52192 0.48424 0.36217 0.0
C979 C 0.52466 0.48548 0.30073 0.0
C980 C 0.51896 0.50826 0.2648 0.0
C981 C 0.51181 0.53012 0.29162 0.0
C982 C 0.50909 0.52886 0.35298 0.0
H983 H 0.45393 0.46516 0.45328 0.0
H984 H 0.46628 0.48279 0.38938 0.0
H985 H 0.48267 0.45466 0.42388 0.0
H986 H 0.52581 0.46635 0.38903 0.0
H987 H 0.53026 0.46839 0.28109 0.0
H988 H 0.03825 0.52222 0.7674 0.0
H989 H 0.03439 0.52638 0.8741 0.0
H990 H 0.98811 0.45794 0.88414 0.0
H991 H 0.99222 0.45351 0.77792 0.0
H992 H 0.9893 0.53272 0.92783 0.0
H993 H 0.03946 0.4447 0.02877 0.0
H994 H 0.04243 0.45705 0.95232 0.0
H995 H 0.01461 0.43884 0.97181 0.0
C996 C 0.02767 0.50781 0.7927 0.0
C997 C 0.01567 0.48745 0.76449 0.0
C998 C 0.02538 0.51026 0.85355 0.0
C999 C 0.01119 0.49233 0.88738 0.0
C1000 C 0.9996 0.47172 0.8594 0.0
H1001 H 0.96628 0.47778 0.25325 0.0
H1002 H 0.97017 0.47368 0.14653 0.0
C1003 C 1.00189 0.46925 0.79861 0.0
C1004 C 0.00726 0.49597 0.9509 0.0
H1005 H 0.01549 0.46722 0.0931 0.0
C1006 C 0.99518 0.51848 0.96403 0.0
C1007 C 0.01478 0.47731 0.9981 0.0
C1008 C 0.02875 0.45322 0.98729 0.0
C1009 C 0.99003 0.52264 0.02283 0.0
C1010 C 0.99754 0.50397 0.07002 0.0
C1011 C 0.00962 0.48147 0.0569 0.0
C1012 C 0.99358 0.5076 0.13353 0.0
C1013 C 0.97609 0.54674 0.03369 0.0
C1014 C 0.00528 0.52811 0.16166 0.0
C1015 C 0.00297 0.53054 0.22246 0.0
C1016 C 0.98907 0.5124 0.25644 0.0
C1017 C 0.97696 0.49214 0.22807 0.0
C1018 C 0.97927 0.48972 0.1672 0.0
H1019 H 0.96546 0.55534 0.99217 0.0
H1020 H 0.96235 0.54289 0.0685 0.0
H1021 H 0.99024 0.56106 0.04942 0.0
H1022 H 0.01684 0.54185 0.13702 0.0
H1023 H 0.01273 0.5462 0.24327 0.0
loop_
_geom_bond_atom_site_label_1
_geom_bond_atom_site_label_2
_geom_bond_distance
_geom_bond_site_symmetry_2
_ccdc_geom_bond_type
Dy0 O4 2.398 1_655 S
Dy0 O5 2.491 1_565 S
Dy0 O6 2.403 1_655 S
Dy0 O7 2.664 1_655 S
Dy0 O11 2.326 1_665 S
Dy0 O15 2.310 1_565 S
Dy0 O16 2.351 . S
C1 O12 1.147 1_565 S
C1 O13 1.387 1_655 S
C2 O4 1.185 1_545 S
C2 O5 1.355 1_455 S
Dy3 O7 2.310 1_545 S
Dy3 O10 2.351 . S
Dy3 O12 2.398 1_455 S
Dy3 O13 2.491 1_545 S
Dy3 O14 2.403 1_455 S
Dy3 O15 2.664 1_455 S
Dy3 O17 2.326 1_445 S
O4 Dy0 2.398 1_455 S
O4 C2 1.185 1_565 S
O5 Dy0 2.491 1_545 S
O5 C2 1.355 1_655 S
O6 Dy0 2.403 1_455 S
O6 C8 1.254 . S
O7 Dy0 2.664 1_455 S
O7 Dy3 2.310 1_565 S
O7 C8 1.268 . S
C8 O6 1.254 . S
C8 O7 1.268 . S
C9 O14 1.254 . S
C9 O15 1.268 . S
O10 Dy3 2.351 . S
O10 C18 1.249 . S
O11 Dy0 2.326 1_445 S
O11 C18 1.267 . S
O12 C1 1.147 1_545 S
O12 Dy3 2.398 1_655 S
O13 C1 1.387 1_455 S
O13 Dy3 2.491 1_565 S
O14 Dy3 2.403 1_655 S
O14 C9 1.254 . S
O15 Dy0 2.310 1_545 S
O15 Dy3 2.664 1_655 S
O15 C9 1.268 . S
O16 Dy0 2.351 . S
O16 C19 1.249 . S
O17 Dy3 2.326 1_665 S
O17 C19 1.267 . S
C18 O10 1.249 . S
C18 O11 1.267 . S
C19 O16 1.249 . S
C19 O17 1.267 . S
Dy20 O24 2.398 . S
Dy20 O25 2.491 . S
Dy20 O26 2.403 . S
Dy20 O27 2.664 . S
Dy20 O31 2.326 . S
Dy20 O35 2.310 . S
Dy20 O36 2.351 . S
C21 O32 1.185 . S
C21 O33 1.355 . S
C22 O24 1.185 . S
C22 O25 1.355 . S
Dy23 O27 2.310 . S
Dy23 O30 2.351 . S
Dy23 O32 2.398 . S
Dy23 O33 2.491 . S
Dy23 O34 2.403 . S
Dy23 O35 2.664 . S
Dy23 O37 2.326 . S
O24 Dy20 2.398 . S
O24 C22 1.185 . S
O25 Dy20 2.491 . S
O25 C22 1.355 . S
O26 Dy20 2.403 . S
O26 C28 1.254 . S
O27 Dy20 2.664 . S
O27 Dy23 2.310 . S
O27 C28 1.268 . S
C28 O26 1.254 . S
C28 O27 1.268 . S
C29 O34 1.254 . S
C29 O35 1.268 . S
O30 Dy23 2.351 . S
O30 C38 1.249 . S
O31 Dy20 2.326 . S
O31 C38 1.267 . S
O32 C21 1.185 . S
O32 Dy23 2.398 . S
O33 C21 1.355 . S
O33 Dy23 2.491 . S
O34 Dy23 2.403 . S
O34 C29 1.254 . S
O35 Dy20 2.310 . S
O35 Dy23 2.664 . S
O35 C29 1.268 . S
O36 Dy20 2.351 . S
O36 C39 1.249 . S
O37 Dy23 2.326 . S
O37 C39 1.267 . S
C38 O30 1.249 . S
C38 O31 1.267 . S
C39 O36 1.249 . S
C39 O37 1.267 . S
Dy40 O44 2.398 . S
Dy40 O45 2.491 1_565 S
Dy40 O46 2.403 . S
Dy40 O47 2.664 1_554 S
Dy40 O51 2.326 1_565 S
Dy40 O55 2.310 1_565 S
Dy40 O56 2.351 . S
C41 O52 1.185 . S
C41 O53 1.355 1_545 S
C42 O44 1.185 . S
C42 O45 1.355 1_565 S
Dy43 O47 2.310 1_545 S
Dy43 O50 2.351 . S
Dy43 O52 2.398 . S
Dy43 O53 2.491 1_545 S
Dy43 O54 2.403 . S
Dy43 O55 2.664 1_556 S
Dy43 O57 2.326 1_545 S
O44 Dy40 2.398 . S
O44 C42 1.185 . S
O45 Dy40 2.491 1_545 S
O45 C42 1.355 1_545 S
O46 Dy40 2.403 . S
O46 C48 1.254 1_554 S
O47 Dy40 2.664 1_556 S
O47 Dy43 2.310 1_565 S
O47 C48 1.268 . S
C48 O46 1.254 1_556 S
C48 O47 1.268 . S
C49 O54 1.254 1_554 S
C49 O55 1.268 . S
O50 Dy43 2.351 . S
O50 C58 1.249 1_556 S
O51 Dy40 2.326 1_545 S
O51 C58 1.267 . S
O52 C41 1.185 . S
O52 Dy43 2.398 . S
O53 C41 1.355 1_565 S
O53 Dy43 2.491 1_565 S
O54 Dy43 2.403 . S
O54 C49 1.254 1_556 S
O55 Dy40 2.310 1_545 S
O55 Dy43 2.664 1_554 S
O55 C49 1.268 . S
O56 Dy40 2.351 . S
O56 C59 1.249 1_554 S
O57 Dy43 2.326 1_565 S
O57 C59 1.267 . S
C58 O50 1.249 1_554 S
C58 O51 1.267 . S
C59 O56 1.249 1_556 S
C59 O57 1.267 . S
Dy60 O64 2.398 . S
Dy60 O65 2.491 . S
Dy60 O66 2.403 . S
Dy60 O67 2.664 . S
Dy60 O71 2.326 . S
Dy60 O75 2.310 . S
Dy60 O76 2.351 . S
C61 O72 1.185 . S
C61 O73 1.355 . S
C62 O64 1.185 . S
C62 O65 1.355 . S
Dy63 O67 2.310 . S
Dy63 O70 2.351 . S
Dy63 O72 2.398 . S
Dy63 O73 2.491 . S
Dy63 O74 2.403 . S
Dy63 O75 2.664 . S
Dy63 O77 2.326 . S
O64 Dy60 2.398 . S
O64 C62 1.185 . S
O65 Dy60 2.491 . S
O65 C62 1.355 . S
O66 Dy60 2.403 . S
O66 C68 1.254 . S
O67 Dy60 2.664 . S
O67 Dy63 2.310 . S
O67 C68 1.268 . S
C68 O66 1.254 . S
C68 O67 1.268 . S
C69 O74 1.254 . S
C69 O75 1.268 . S
O70 Dy63 2.351 . S
O70 C78 1.249 . S
O71 Dy60 2.326 . S
O71 C78 1.267 . S
O72 C61 1.185 . S
O72 Dy63 2.398 . S
O73 C61 1.355 . S
O73 Dy63 2.491 . S
O74 Dy63 2.403 . S
O74 C69 1.254 . S
O75 Dy60 2.310 . S
O75 Dy63 2.664 . S
O75 C69 1.268 . S
O76 Dy60 2.351 . S
O76 C79 1.249 . S
O77 Dy63 2.326 . S
O77 C79 1.267 . S
C78 O70 1.249 . S
C78 O71 1.267 . S
C79 O76 1.249 . S
C79 O77 1.267 . S
Dy80 O84 2.398 . S
Dy80 O85 2.491 . S
Dy80 O86 2.403 . S
Dy80 O87 2.664 . S
Dy80 O91 2.326 . S
Dy80 O95 2.310 . S
Dy80 O96 2.351 . S
C81 O92 1.185 . S
C81 O93 1.355 . S
C82 O84 1.185 . S
C82 O85 1.355 . S
Dy83 O87 2.310 . S
Dy83 O90 2.351 . S
Dy83 O92 2.398 . S
Dy83 O93 2.491 . S
Dy83 O94 2.403 . S
Dy83 O95 2.664 . S
Dy83 O97 2.326 . S
O84 Dy80 2.398 . S
O84 C82 1.185 . S
O85 Dy80 2.491 . S
O85 C82 1.355 . S
O86 Dy80 2.403 . S
O86 C88 1.254 . S
O87 Dy80 2.664 . S
O87 Dy83 2.310 . S
O87 C88 1.268 . S
C88 O86 1.254 . S
C88 O87 1.268 . S
C89 O94 1.254 . S
C89 O95 1.268 . S
O90 Dy83 2.351 . S
O90 C98 1.249 . S
O91 Dy80 2.326 . S
O91 C98 1.267 . S
O92 C81 1.185 . S
O92 Dy83 2.398 . S
O93 C81 1.355 . S
O93 Dy83 2.491 . S
O94 Dy83 2.403 . S
O94 C89 1.254 . S
O95 Dy80 2.310 . S
O95 Dy83 2.664 . S
O95 C89 1.268 . S
O96 Dy80 2.351 . S
O96 C99 1.249 . S
O97 Dy83 2.326 . S
O97 C99 1.267 . S
C98 O90 1.249 . S
C98 O91 1.267 . S
C99 O96 1.249 . S
C99 O97 1.267 . S
Dy100 O104 2.398 . S
Dy100 O105 2.491 . S
Dy100 O106 2.403 . S
Dy100 O107 2.664 . S
Dy100 O111 2.326 . S
Dy100 O115 2.310 . S
Dy100 O116 2.351 . S
C101 O112 1.185 . S
C101 O113 1.355 . S
C102 O104 1.185 . S
C102 O105 1.355 . S
Dy103 O107 2.310 . S
Dy103 O110 2.351 . S
Dy103 O112 2.398 . S
Dy103 O113 2.491 . S
Dy103 O114 2.403 . S
Dy103 O115 2.664 . S
Dy103 O117 2.326 . S
O104 Dy100 2.398 . S
O104 C102 1.185 . S
O105 Dy100 2.491 . S
O105 C102 1.355 . S
O106 Dy100 2.403 . S
O106 C108 1.254 . S
O107 Dy100 2.664 . S
O107 Dy103 2.310 . S
O107 C108 1.268 . S
C108 O106 1.254 . S
C108 O107 1.268 . S
C109 O114 1.254 . S
C109 O115 1.268 . S
O110 Dy103 2.351 . S
O110 C118 1.249 . S
O111 Dy100 2.326 . S
O111 C118 1.267 . S
O112 C101 1.185 . S
O112 Dy103 2.398 . S
O113 C101 1.355 . S
O113 Dy103 2.491 . S
O114 Dy103 2.403 . S
O114 C109 1.254 . S
O115 Dy100 2.310 . S
O115 Dy103 2.664 . S
O115 C109 1.268 . S
O116 Dy100 2.351 . S
O116 C119 1.249 . S
O117 Dy103 2.326 . S
O117 C119 1.267 . S
C118 O110 1.249 . S
C118 O111 1.267 . S
C119 O116 1.249 . S
C119 O117 1.267 . S
Dy120 O124 2.398 . S
Dy120 O125 2.491 . S
Dy120 O126 2.403 . S
Dy120 O127 2.664 1_556 S
Dy120 O131 2.326 . S
Dy120 O135 2.310 . S
Dy120 O136 2.351 . S
C121 O132 1.185 . S
C121 O133 1.355 . S
C122 O124 1.185 . S
C122 O125 1.355 . S
Dy123 O127 2.310 . S
Dy123 O130 2.351 . S
Dy123 O132 2.398 . S
Dy123 O133 2.491 . S
Dy123 O134 2.403 . S
Dy123 O135 2.664 1_554 S
Dy123 O137 2.326 . S
O124 Dy120 2.398 . S
O124 C122 1.185 . S
O125 Dy120 2.491 . S
O125 C122 1.355 . S
O126 Dy120 2.403 . S
O126 C128 1.254 1_556 S
O127 Dy120 2.664 1_554 S
O127 Dy123 2.310 . S
O127 C128 1.268 . S
C128 O126 1.254 1_554 S
C128 O127 1.268 . S
C129 O134 1.254 1_556 S
C129 O135 1.268 . S
O130 Dy123 2.351 . S
O130 C138 1.249 1_554 S
O131 Dy120 2.326 . S
O131 C138 1.267 . S
O132 C121 1.185 . S
O132 Dy123 2.398 . S
O133 C121 1.355 . S
O133 Dy123 2.491 . S
O134 Dy123 2.403 . S
O134 C129 1.254 1_554 S
O135 Dy120 2.310 . S
O135 Dy123 2.664 1_556 S
O135 C129 1.268 . S
O136 Dy120 2.351 . S
O136 C139 1.249 1_556 S
O137 Dy123 2.326 . S
O137 C139 1.267 . S
C138 O130 1.249 1_556 S
C138 O131 1.267 . S
C139 O136 1.249 1_554 S
C139 O137 1.267 . S
Dy140 O144 2.398 1_455 S
Dy140 O145 2.491 . S
Dy140 O146 2.403 1_455 S
Dy140 O147 2.664 1_455 S
Dy140 O151 2.326 1_455 S
Dy140 O155 2.310 . S
Dy140 O156 2.351 . S
C141 O152 1.185 . S
C141 O153 1.355 1_455 S
C142 O144 1.185 . S
C142 O145 1.355 1_655 S
Dy143 O147 2.310 . S
Dy143 O150 2.351 . S
Dy143 O152 2.398 1_655 S
Dy143 O153 2.491 . S
Dy143 O154 2.403 1_655 S
Dy143 O155 2.664 1_655 S
Dy143 O157 2.326 1_655 S
O144 Dy140 2.398 1_655 S
O144 C142 1.185 . S
O145 Dy140 2.491 . S
O145 C142 1.355 1_455 S
O146 Dy140 2.403 1_655 S
O146 C148 1.254 . S
O147 Dy140 2.664 1_655 S
O147 Dy143 2.310 . S
O147 C148 1.268 . S
C148 O146 1.254 . S
C148 O147 1.268 . S
C149 O154 1.254 . S
C149 O155 1.268 . S
O150 Dy143 2.351 . S
O150 C158 1.249 . S
O151 Dy140 2.326 1_655 S
O151 C158 1.267 . S
O152 C141 1.185 . S
O152 Dy143 2.398 1_455 S
O153 C141 1.355 1_655 S
O153 Dy143 2.491 . S
O154 Dy143 2.403 1_455 S
O154 C149 1.254 . S
O155 Dy140 2.310 . S
O155 Dy143 2.664 1_455 S
O155 C149 1.268 . S
O156 Dy140 2.351 . S
O156 C159 1.249 . S
O157 Dy143 2.326 1_455 S
O157 C159 1.267 . S
C158 O150 1.249 . S
C158 O151 1.267 . S
C159 O156 1.249 . S
C159 O157 1.267 . S
H160 C168 0.929 . S
H161 C170 0.930 . S
H162 C172 0.930 . S
H163 C175 0.929 . S
H164 C178 0.930 . S
H165 C180 0.960 . S
H166 C180 0.960 . S
H167 C180 0.960 . S
C168 H160 0.929 . S
C168 C169 1.377 . S
C168 C170 1.384 . S
C169 C168 1.377 . S
C169 C175 1.390 . S
C170 H161 0.930 . S
C170 C168 1.384 . S
C170 C171 1.372 . S
C171 C170 1.372 . S
C171 C172 1.400 . S
C171 C176 1.490 . S
C172 H162 0.930 . S
C172 C171 1.400 . S
C172 C175 1.386 . S
H173 C189 0.930 . S
H174 C190 0.931 . S
C175 H163 0.929 . S
C175 C169 1.390 . S
C175 C172 1.386 . S
C176 C171 1.490 . S
C176 C178 1.395 . S
C176 C179 1.403 . S
H177 C183 0.930 . S
C178 H164 0.930 . S
C178 C176 1.395 . S
C178 C181 1.403 . S
C179 C176 1.403 . S
C179 C180 1.524 . S
C179 C183 1.400 . S
C180 H165 0.960 . S
C180 H166 0.960 . S
C180 H167 0.960 . S
C180 C179 1.524 . S
C181 C178 1.403 . S
C181 C182 1.392 . S
C181 C185 1.495 . S
C182 C181 1.392 . S
C182 C183 1.385 . S
C182 C184 1.478 . S
C183 H177 0.930 . S
C183 C179 1.400 . S
C183 C182 1.385 . S
C184 C182 1.478 . S
C184 C186 1.381 . S
C184 C190 1.383 . S
C185 C181 1.495 . S
C185 H191 0.959 . S
C185 H192 0.961 . S
C185 H193 0.960 . S
C186 C184 1.381 . S
C186 C187 1.394 . S
C186 H194 0.930 . S
C187 C186 1.394 . S
C187 C188 1.383 . S
C187 H195 0.929 . S
C188 C187 1.383 . S
C188 C189 1.377 . S
C189 H173 0.930 . S
C189 C188 1.377 . S
C189 C190 1.379 . S
C190 H174 0.931 . S
C190 C184 1.383 . S
C190 C189 1.379 . S
H191 C185 0.959 . S
H192 C185 0.961 . S
H193 C185 0.960 . S
H194 C186 0.930 . S
H195 C187 0.929 . S
H196 C204 0.929 . S
H197 C206 0.930 . S
H198 C208 0.930 . S
H199 C211 0.929 . S
H200 C214 0.930 . S
H201 C216 0.960 . S
H202 C216 0.960 . S
H203 C216 0.960 . S
C204 H196 0.929 . S
C204 C205 1.377 . S
C204 C206 1.384 . S
C205 C204 1.377 . S
C205 C211 1.390 . S
C206 H197 0.930 . S
C206 C204 1.384 . S
C206 C207 1.372 . S
C207 C206 1.372 . S
C207 C208 1.400 . S
C207 C212 1.490 . S
C208 H198 0.930 . S
C208 C207 1.400 . S
C208 C211 1.386 . S
H209 C225 0.930 . S
H210 C226 0.931 . S
C211 H199 0.929 . S
C211 C205 1.390 . S
C211 C208 1.386 . S
C212 C207 1.490 . S
C212 C214 1.395 . S
C212 C215 1.403 . S
H213 C219 0.930 . S
C214 H200 0.930 . S
C214 C212 1.395 . S
C214 C217 1.403 . S
C215 C212 1.403 . S
C215 C216 1.524 . S
C215 C219 1.400 . S
C216 H201 0.960 . S
C216 H202 0.960 . S
C216 H203 0.960 . S
C216 C215 1.524 . S
C217 C214 1.403 . S
C217 C218 1.392 . S
C217 C221 1.495 . S
C218 C217 1.392 . S
C218 C219 1.385 . S
C218 C220 1.478 . S
C219 H213 0.930 . S
C219 C215 1.400 . S
C219 C218 1.385 . S
C220 C218 1.478 . S
C220 C222 1.381 . S
C220 C226 1.383 . S
C221 C217 1.495 . S
C221 H227 0.959 . S
C221 H228 0.961 . S
C221 H229 0.960 . S
C222 C220 1.381 . S
C222 C223 1.394 . S
C222 H230 0.930 . S
C223 C222 1.394 . S
C223 C224 1.383 . S
C223 H231 0.929 . S
C224 C223 1.383 . S
C224 C225 1.377 . S
C225 H209 0.930 . S
C225 C224 1.377 . S
C225 C226 1.379 . S
C226 H210 0.931 . S
C226 C220 1.383 . S
C226 C225 1.379 . S
H227 C221 0.959 . S
H228 C221 0.961 . S
H229 C221 0.960 . S
H230 C222 0.930 . S
H231 C223 0.929 . S
H232 C240 0.929 . S
H233 C242 0.930 . S
H234 C244 0.930 . S
H235 C247 0.929 . S
H236 C250 0.930 . S
H237 C252 0.960 . S
H238 C252 0.960 . S
H239 C252 0.960 . S
C240 H232 0.929 . S
C240 C241 1.377 . S
C240 C242 1.384 . S
C241 C240 1.377 . S
C241 C247 1.390 . S
C242 H233 0.930 . S
C242 C240 1.384 . S
C242 C243 1.372 . S
C243 C242 1.372 . S
C243 C244 1.400 . S
C243 C248 1.490 . S
C244 H234 0.930 . S
C244 C243 1.400 . S
C244 C247 1.386 . S
H245 C261 0.930 . S
H246 C262 0.931 . S
C247 H235 0.929 . S
C247 C241 1.390 . S
C247 C244 1.386 . S
C248 C243 1.490 . S
C248 C250 1.395 . S
C248 C251 1.403 . S
H249 C255 0.930 . S
C250 H236 0.930 . S
C250 C248 1.395 . S
C250 C253 1.403 . S
C251 C248 1.403 . S
C251 C252 1.524 . S
C251 C255 1.400 . S
C252 H237 0.960 . S
C252 H238 0.960 . S
C252 H239 0.960 . S
C252 C251 1.524 . S
C253 C250 1.403 . S
C253 C254 1.392 . S
C253 C257 1.495 . S
C254 C253 1.392 . S
C254 C255 1.385 . S
C254 C256 1.478 . S
C255 H249 0.930 . S
C255 C251 1.400 . S
C255 C254 1.385 . S
C256 C254 1.478 . S
C256 C258 1.381 . S
C256 C262 1.383 . S
C257 C253 1.495 . S
C257 H263 0.959 . S
C257 H264 0.961 . S
C257 H265 0.960 . S
C258 C256 1.381 . S
C258 C259 1.394 1_556 S
C258 H266 0.930 1_556 S
C259 C258 1.394 1_554 S
C259 C260 1.383 1_554 S
C259 H267 0.929 . S
C260 C259 1.383 1_556 S
C260 C261 1.377 . S
C261 H245 0.930 . S
C261 C260 1.377 . S
C261 C262 1.379 . S
C262 H246 0.931 . S
C262 C256 1.383 . S
C262 C261 1.379 . S
H263 C257 0.959 . S
H264 C257 0.961 . S
H265 C257 0.960 . S
H266 C258 0.930 1_554 S
H267 C259 0.929 . S
H268 C276 0.929 . S
H269 C278 0.930 . S
H270 C280 0.930 . S
H271 C283 0.929 . S
H272 C286 0.930 . S
H273 C288 0.960 . S
H274 C288 0.960 . S
H275 C288 0.960 . S
C276 H268 0.929 . S
C276 C277 1.377 . S
C276 C278 1.384 . S
C277 C276 1.377 . S
C277 C283 1.390 . S
C278 H269 0.930 . S
C278 C276 1.384 . S
C278 C279 1.372 . S
C279 C278 1.372 . S
C279 C280 1.400 . S
C279 C284 1.490 . S
C280 H270 0.930 . S
C280 C279 1.400 . S
C280 C283 1.386 . S
H281 C297 0.930 . S
H282 C298 0.931 . S
C283 H271 0.929 . S
C283 C277 1.390 . S
C283 C280 1.386 . S
C284 C279 1.490 . S
C284 C286 1.395 . S
C284 C287 1.403 . S
H285 C291 0.930 . S
C286 H272 0.930 . S
C286 C284 1.395 . S
C286 C289 1.403 . S
C287 C284 1.403 . S
C287 C288 1.524 . S
C287 C291 1.400 . S
C288 H273 0.960 . S
C288 H274 0.960 . S
C288 H275 0.960 . S
C288 C287 1.524 . S
C289 C286 1.403 . S
C289 C290 1.392 . S
C289 C293 1.495 . S
C290 C289 1.392 . S
C290 C291 1.385 . S
C290 C292 1.478 . S
C291 H285 0.930 . S
C291 C287 1.400 . S
C291 C290 1.385 . S
C292 C290 1.478 . S
C292 C294 1.381 . S
C292 C298 1.383 . S
C293 C289 1.495 . S
C293 H299 0.959 . S
C293 H300 0.961 . S
C293 H301 0.960 . S
C294 C292 1.381 . S
C294 C295 1.394 . S
C294 H302 0.930 . S
C295 C294 1.394 . S
C295 C296 1.383 . S
C295 H303 0.929 . S
C296 C295 1.383 . S
C296 C297 1.377 . S
C297 H281 0.930 . S
C297 C296 1.377 . S
C297 C298 1.379 . S
C298 H282 0.931 . S
C298 C292 1.383 . S
C298 C297 1.379 . S
H299 C293 0.959 . S
H300 C293 0.961 . S
H301 C293 0.960 . S
H302 C294 0.930 . S
H303 C295 0.929 . S
H304 C312 0.929 . S
H305 C314 0.930 . S
H306 C316 0.930 . S
H307 C319 0.929 . S
H308 C322 0.930 . S
H309 C324 0.960 . S
H310 C324 0.960 . S
H311 C324 0.960 . S
C312 H304 0.929 . S
C312 C313 1.377 . S
C312 C314 1.384 . S
C313 C312 1.377 . S
C313 C319 1.390 . S
C314 H305 0.930 . S
C314 C312 1.384 . S
C314 C315 1.372 . S
C315 C314 1.372 . S
C315 C316 1.400 . S
C315 C320 1.490 . S
C316 H306 0.930 . S
C316 C315 1.400 . S
C316 C319 1.386 . S
H317 C333 0.930 . S
H318 C334 0.931 . S
C319 H307 0.929 . S
C319 C313 1.390 . S
C319 C316 1.386 . S
C320 C315 1.490 . S
C320 C322 1.395 . S
C320 C323 1.403 . S
H321 C327 0.930 . S
C322 H308 0.930 . S
C322 C320 1.395 . S
C322 C325 1.403 . S
C323 C320 1.403 . S
C323 C324 1.524 . S
C323 C327 1.400 . S
C324 H309 0.960 . S
C324 H310 0.960 . S
C324 H311 0.960 . S
C324 C323 1.524 . S
C325 C322 1.403 . S
C325 C326 1.392 . S
C325 C329 1.495 . S
C326 C325 1.392 . S
C326 C327 1.385 . S
C326 C328 1.478 . S
C327 H321 0.930 . S
C327 C323 1.400 . S
C327 C326 1.385 . S
C328 C326 1.478 . S
C328 C330 1.381 . S
C328 C334 1.383 . S
C329 C325 1.495 . S
C329 H335 0.959 . S
C329 H336 0.961 . S
C329 H337 0.960 . S
C330 C328 1.381 . S
C330 C331 1.394 . S
C330 H338 0.930 . S
C331 C330 1.394 . S
C331 C332 1.383 . S
C331 H339 0.929 . S
C332 C331 1.383 . S
C332 C333 1.377 . S
C333 H317 0.930 . S
C333 C332 1.377 . S
C333 C334 1.379 . S
C334 H318 0.931 . S
C334 C328 1.383 . S
C334 C333 1.379 . S
H335 C329 0.959 . S
H336 C329 0.961 . S
H337 C329 0.960 . S
H338 C330 0.930 . S
H339 C331 0.929 . S
H340 C348 0.929 . S
H341 C350 0.930 . S
H342 C352 0.930 . S
H343 C355 0.929 . S
H344 C358 0.930 . S
H345 C360 0.960 . S
H346 C360 0.960 . S
H347 C360 0.960 . S
C348 H340 0.929 . S
C348 C349 1.377 . S
C348 C350 1.384 . S
C349 C348 1.377 . S
C349 C355 1.390 . S
C350 H341 0.930 . S
C350 C348 1.384 . S
C350 C351 1.372 . S
C351 C350 1.372 . S
C351 C352 1.400 . S
C351 C356 1.490 . S
C352 H342 0.930 . S
C352 C351 1.400 . S
C352 C355 1.386 . S
H353 C369 0.930 . S
H354 C370 0.931 . S
C355 H343 0.929 . S
C355 C349 1.390 . S
C355 C352 1.386 . S
C356 C351 1.490 . S
C356 C358 1.395 . S
C356 C359 1.403 . S
H357 C363 0.930 . S
C358 H344 0.930 . S
C358 C356 1.395 . S
C358 C361 1.403 . S
C359 C356 1.403 . S
C359 C360 1.524 . S
C359 C363 1.400 . S
C360 H345 0.960 . S
C360 H346 0.960 . S
C360 H347 0.960 . S
C360 C359 1.524 . S
C361 C358 1.403 . S
C361 C362 1.392 . S
C361 C365 1.495 . S
C362 C361 1.392 . S
C362 C363 1.385 . S
C362 C364 1.478 . S
C363 H357 0.930 . S
C363 C359 1.400 . S
C363 C362 1.385 . S
C364 C362 1.478 . S
C364 C366 1.381 . S
C364 C370 1.383 . S
C365 C361 1.495 . S
C365 H371 0.959 . S
C365 H372 0.961 . S
C365 H373 0.960 . S
C366 C364 1.381 . S
C366 C367 1.394 . S
C366 H374 0.930 . S
C367 C366 1.394 . S
C367 C368 1.383 . S
C367 H375 0.929 . S
C368 C367 1.383 . S
C368 C369 1.377 . S
C369 H353 0.930 . S
C369 C368 1.377 . S
C369 C370 1.379 . S
C370 H354 0.931 . S
C370 C364 1.383 . S
C370 C369 1.379 . S
H371 C365 0.959 . S
H372 C365 0.961 . S
H373 C365 0.960 . S
H374 C366 0.930 . S
H375 C367 0.929 . S
H376 C384 0.929 . S
H377 C386 0.930 . S
H378 C388 0.930 . S
H379 C391 0.929 . S
H380 C394 0.930 . S
H381 C396 0.960 . S
H382 C396 0.960 . S
H383 C396 0.960 . S
C384 H376 0.929 . S
C384 C385 1.377 . S
C384 C386 1.384 . S
C385 C384 1.377 . S
C385 C391 1.390 . S
C386 H377 0.930 . S
C386 C384 1.384 . S
C386 C387 1.372 . S
C387 C386 1.372 . S
C387 C388 1.400 . S
C387 C392 1.490 . S
C388 H378 0.930 . S
C388 C387 1.400 . S
C388 C391 1.386 . S
H389 C405 0.930 . S
H390 C406 0.931 . S
C391 H379 0.929 . S
C391 C385 1.390 . S
C391 C388 1.386 . S
C392 C387 1.490 . S
C392 C394 1.395 . S
C392 C395 1.403 . S
H393 C399 0.930 . S
C394 H380 0.930 . S
C394 C392 1.395 . S
C394 C397 1.403 . S
C395 C392 1.403 . S
C395 C396 1.524 . S
C395 C399 1.400 . S
C396 H381 0.960 . S
C396 H382 0.960 . S
C396 H383 0.960 . S
C396 C395 1.524 . S
C397 C394 1.403 . S
C397 C398 1.392 . S
C397 C401 1.495 . S
C398 C397 1.392 . S
C398 C399 1.385 . S
C398 C400 1.478 . S
C399 H393 0.930 . S
C399 C395 1.400 . S
C399 C398 1.385 . S
C400 C398 1.478 . S
C400 C402 1.381 . S
C400 C406 1.383 . S
C401 C397 1.495 . S
C401 H407 0.959 . S
C401 H408 0.961 . S
C401 H409 0.960 . S
C402 C400 1.381 . S
C402 C403 1.394 . S
C402 H410 0.930 . S
C403 C402 1.394 . S
C403 C404 1.383 . S
C403 H411 0.929 1_554 S
C404 C403 1.383 . S
C404 C405 1.377 . S
C405 H389 0.930 . S
C405 C404 1.377 . S
C405 C406 1.379 . S
C406 H390 0.931 . S
C406 C400 1.383 . S
C406 C405 1.379 . S
H407 C401 0.959 . S
H408 C401 0.961 . S
H409 C401 0.960 . S
H410 C402 0.930 . S
H411 C403 0.929 1_556 S
H412 C420 0.929 . S
H413 C422 0.930 . S
H414 C424 0.930 . S
H415 C427 0.929 . S
H416 C430 0.930 . S
H417 C432 0.960 . S
H418 C432 0.960 . S
H419 C432 0.960 . S
C420 H412 0.929 . S
C420 C421 1.377 . S
C420 C422 1.384 . S
C421 C420 1.377 . S
C421 C427 1.390 . S
C422 H413 0.930 . S
C422 C420 1.384 . S
C422 C423 1.372 . S
C423 C422 1.372 . S
C423 C424 1.400 . S
C423 C428 1.490 . S
C424 H414 0.930 . S
C424 C423 1.400 . S
C424 C427 1.386 . S
H425 C441 0.930 1_554 S
H426 C442 0.931 . S
C427 H415 0.929 . S
C427 C421 1.390 . S
C427 C424 1.386 . S
C428 C423 1.490 . S
C428 C430 1.395 . S
C428 C431 1.403 . S
H429 C435 0.930 . S
C430 H416 0.930 . S
C430 C428 1.395 . S
C430 C433 1.403 . S
C431 C428 1.403 . S
C431 C432 1.524 . S
C431 C435 1.400 . S
C432 H417 0.960 . S
C432 H418 0.960 . S
C432 H419 0.960 . S
C432 C431 1.524 . S
C433 C430 1.403 . S
C433 C434 1.392 . S
C433 C437 1.495 . S
C434 C433 1.392 . S
C434 C435 1.385 . S
C434 C436 1.478 . S
C435 H429 0.930 . S
C435 C431 1.400 . S
C435 C434 1.385 . S
C436 C434 1.478 . S
C436 C438 1.381 . S
C436 C442 1.383 . S
C437 C433 1.495 . S
C437 H443 0.959 . S
C437 H444 0.961 . S
C437 H445 0.960 . S
C438 C436 1.381 . S
C438 C439 1.394 . S
C438 H446 0.930 . S
C439 C438 1.394 . S
C439 C440 1.383 . S
C439 H447 0.929 . S
C440 C439 1.383 . S
C440 C441 1.377 . S
C441 H425 0.930 1_556 S
C441 C440 1.377 . S
C441 C442 1.379 . S
C442 H426 0.931 . S
C442 C436 1.383 . S
C442 C441 1.379 . S
H443 C437 0.959 . S
H444 C437 0.961 . S
H445 C437 0.960 . S
H446 C438 0.930 . S
H447 C439 0.929 . S
H448 C456 0.929 . S
H449 C458 0.930 . S
H450 C460 0.930 . S
H451 C463 0.929 . S
H452 C466 0.930 . S
H453 C468 0.960 . S
H454 C468 0.960 . S
H455 C468 0.960 . S
C456 H448 0.929 . S
C456 C457 1.377 . S
C456 C458 1.384 . S
C457 C456 1.377 . S
C457 C463 1.390 . S
C458 H449 0.930 . S
C458 C456 1.384 . S
C458 C459 1.372 . S
C459 C458 1.372 . S
C459 C460 1.400 . S
C459 C464 1.490 . S
C460 H450 0.930 . S
C460 C459 1.400 . S
C460 C463 1.386 . S
H461 C477 0.930 . S
H462 C478 0.931 . S
C463 H451 0.929 . S
C463 C457 1.390 . S
C463 C460 1.386 . S
C464 C459 1.490 . S
C464 C466 1.395 . S
C464 C467 1.403 . S
H465 C471 0.930 . S
C466 H452 0.930 . S
C466 C464 1.395 . S
C466 C469 1.403 . S
C467 C464 1.403 . S
C467 C468 1.524 . S
C467 C471 1.400 . S
C468 H453 0.960 . S
C468 H454 0.960 . S
C468 H455 0.960 . S
C468 C467 1.524 . S
C469 C466 1.403 . S
C469 C470 1.392 . S
C469 C473 1.495 . S
C470 C469 1.392 . S
C470 C471 1.385 . S
C470 C472 1.478 . S
C471 H465 0.930 . S
C471 C467 1.400 . S
C471 C470 1.385 . S
C472 C470 1.478 . S
C472 C474 1.381 . S
C472 C478 1.383 . S
C473 C469 1.495 . S
C473 H479 0.959 . S
C473 H480 0.961 . S
C473 H481 0.960 . S
C474 C472 1.381 . S
C474 C475 1.394 . S
C474 H482 0.930 . S
C475 C474 1.394 . S
C475 C476 1.383 . S
C475 H483 0.929 . S
C476 C475 1.383 . S
C476 C477 1.377 . S
C477 H461 0.930 . S
C477 C476 1.377 . S
C477 C478 1.379 . S
C478 H462 0.931 . S
C478 C472 1.383 . S
C478 C477 1.379 . S
H479 C473 0.959 . S
H480 C473 0.961 . S
H481 C473 0.960 . S
H482 C474 0.930 . S
H483 C475 0.929 . S
H484 C492 0.929 . S
H485 C494 0.930 . S
H486 C496 0.930 . S
H487 C499 0.929 . S
H488 C502 0.930 . S
H489 C504 0.960 . S
H490 C504 0.960 . S
H491 C504 0.960 . S
C492 H484 0.929 . S
C492 C493 1.377 . S
C492 C494 1.384 . S
C493 C492 1.377 . S
C493 C499 1.390 . S
C494 H485 0.930 . S
C494 C492 1.384 . S
C494 C495 1.372 . S
C495 C494 1.372 . S
C495 C496 1.400 . S
C495 C500 1.490 . S
C496 H486 0.930 . S
C496 C495 1.400 . S
C496 C499 1.386 . S
H497 C513 0.930 . S
H498 C514 0.931 . S
C499 H487 0.929 . S
C499 C493 1.390 . S
C499 C496 1.386 . S
C500 C495 1.490 . S
C500 C502 1.395 . S
C500 C503 1.403 . S
H501 C507 0.930 . S
C502 H488 0.930 . S
C502 C500 1.395 . S
C502 C505 1.403 . S
C503 C500 1.403 . S
C503 C504 1.524 . S
C503 C507 1.400 . S
C504 H489 0.960 . S
C504 H490 0.960 . S
C504 H491 0.960 . S
C504 C503 1.524 . S
C505 C502 1.403 . S
C505 C506 1.392 . S
C505 C509 1.495 . S
C506 C505 1.392 . S
C506 C507 1.385 . S
C506 C508 1.478 . S
C507 H501 0.930 . S
C507 C503 1.400 . S
C507 C506 1.385 . S
C508 C506 1.478 . S
C508 C510 1.381 . S
C508 C514 1.383 . S
C509 C505 1.495 . S
C509 H515 0.959 . S
C509 H516 0.961 . S
C509 H517 0.960 . S
C510 C508 1.381 . S
C510 C511 1.394 . S
C510 H518 0.930 . S
C511 C510 1.394 . S
C511 C512 1.383 . S
C511 H519 0.929 1_554 S
C512 C511 1.383 . S
C512 C513 1.377 . S
C513 H497 0.930 . S
C513 C512 1.377 . S
C513 C514 1.379 . S
C514 H498 0.931 . S
C514 C508 1.383 . S
C514 C513 1.379 . S
H515 C509 0.959 . S
H516 C509 0.961 . S
H517 C509 0.960 . S
H518 C510 0.930 . S
H519 C511 0.929 1_556 S
H520 C528 0.929 . S
H521 C530 0.930 . S
H522 C532 0.930 . S
H523 C535 0.929 . S
H524 C538 0.930 . S
H525 C540 0.960 . S
H526 C540 0.960 . S
H527 C540 0.960 . S
C528 H520 0.929 . S
C528 C529 1.377 . S
C528 C530 1.384 . S
C529 C528 1.377 . S
C529 C535 1.390 . S
C530 H521 0.930 . S
C530 C528 1.384 . S
C530 C531 1.372 . S
C531 C530 1.372 . S
C531 C532 1.400 . S
C531 C536 1.490 . S
C532 H522 0.930 . S
C532 C531 1.400 . S
C532 C535 1.386 . S
H533 C549 0.930 . S
H534 C550 0.931 . S
C535 H523 0.929 . S
C535 C529 1.390 . S
C535 C532 1.386 . S
C536 C531 1.490 . S
C536 C538 1.395 . S
C536 C539 1.403 . S
H537 C543 0.930 . S
C538 H524 0.930 . S
C538 C536 1.395 . S
C538 C541 1.403 . S
C539 C536 1.403 . S
C539 C540 1.524 . S
C539 C543 1.400 . S
C540 H525 0.960 . S
C540 H526 0.960 . S
C540 H527 0.960 . S
C540 C539 1.524 . S
C541 C538 1.403 . S
C541 C542 1.392 . S
C541 C545 1.495 . S
C542 C541 1.392 . S
C542 C543 1.385 . S
C542 C544 1.478 . S
C543 H537 0.930 . S
C543 C539 1.400 . S
C543 C542 1.385 . S
C544 C542 1.478 . S
C544 C546 1.381 . S
C544 C550 1.383 . S
C545 C541 1.495 . S
C545 H551 0.959 . S
C545 H552 0.961 . S
C545 H553 0.960 . S
C546 C544 1.381 . S
C546 C547 1.394 . S
C546 H554 0.930 . S
C547 C546 1.394 . S
C547 C548 1.383 . S
C547 H555 0.929 . S
C548 C547 1.383 . S
C548 C549 1.377 . S
C549 H533 0.930 . S
C549 C548 1.377 . S
C549 C550 1.379 . S
C550 H534 0.931 . S
C550 C544 1.383 . S
C550 C549 1.379 . S
H551 C545 0.959 . S
H552 C545 0.961 . S
H553 C545 0.960 . S
H554 C546 0.930 . S
H555 C547 0.929 . S
H556 C564 0.929 . S
H557 C566 0.930 . S
H558 C568 0.930 . S
H559 C571 0.929 . S
H560 C574 0.930 . S
H561 C576 0.960 . S
H562 C576 0.960 . S
H563 C576 0.960 . S
C564 H556 0.929 . S
C564 C565 1.377 . S
C564 C566 1.384 . S
C565 C564 1.377 . S
C565 C571 1.390 . S
C566 H557 0.930 . S
C566 C564 1.384 . S
C566 C567 1.372 . S
C567 C566 1.372 . S
C567 C568 1.400 . S
C567 C572 1.490 . S
C568 H558 0.930 . S
C568 C567 1.400 . S
C568 C571 1.386 . S
H569 C585 0.930 . S
H570 C586 0.931 . S
C571 H559 0.929 . S
C571 C565 1.390 . S
C571 C568 1.386 . S
C572 C567 1.490 . S
C572 C574 1.395 . S
C572 C575 1.403 . S
H573 C579 0.930 . S
C574 H560 0.930 . S
C574 C572 1.395 . S
C574 C577 1.403 . S
C575 C572 1.403 . S
C575 C576 1.524 . S
C575 C579 1.400 . S
C576 H561 0.960 . S
C576 H562 0.960 . S
C576 H563 0.960 . S
C576 C575 1.524 . S
C577 C574 1.403 . S
C577 C578 1.392 . S
C577 C581 1.495 . S
C578 C577 1.392 . S
C578 C579 1.385 . S
C578 C580 1.478 . S
C579 H573 0.930 . S
C579 C575 1.400 . S
C579 C578 1.385 . S
C580 C578 1.478 . S
C580 C582 1.381 . S
C580 C586 1.383 . S
C581 C577 1.495 . S
C581 H587 0.959 . S
C581 H588 0.961 . S
C581 H589 0.960 . S
C582 C580 1.381 . S
C582 C583 1.394 . S
C582 H590 0.930 . S
C583 C582 1.394 . S
C583 C584 1.383 . S
C583 H591 0.929 . S
C584 C583 1.383 . S
C584 C585 1.377 . S
C585 H569 0.930 . S
C585 C584 1.377 . S
C585 C586 1.379 . S
C586 H570 0.931 . S
C586 C580 1.383 . S
C586 C585 1.379 . S
H587 C581 0.959 . S
H588 C581 0.961 . S
H589 C581 0.960 . S
H590 C582 0.930 . S
H591 C583 0.929 . S
H592 C600 0.929 . S
H593 C602 0.930 . S
H594 C604 0.930 . S
H595 C607 0.929 . S
H596 C610 0.930 . S
H597 C612 0.960 . S
H598 C612 0.960 . S
H599 C612 0.960 . S
C600 H592 0.929 . S
C600 C601 1.377 . S
C600 C602 1.384 . S
C601 C600 1.377 . S
C601 C607 1.390 . S
C602 H593 0.930 . S
C602 C600 1.384 . S
C602 C603 1.372 . S
C603 C602 1.372 . S
C603 C604 1.400 . S
C603 C608 1.490 . S
C604 H594 0.930 . S
C604 C603 1.400 . S
C604 C607 1.386 . S
H605 C621 0.930 . S
H606 C622 0.931 . S
C607 H595 0.929 . S
C607 C601 1.390 . S
C607 C604 1.386 . S
C608 C603 1.490 . S
C608 C610 1.395 . S
C608 C611 1.403 . S
H609 C615 0.930 . S
C610 H596 0.930 . S
C610 C608 1.395 . S
C610 C613 1.403 . S
C611 C608 1.403 . S
C611 C612 1.524 . S
C611 C615 1.400 . S
C612 H597 0.960 . S
C612 H598 0.960 . S
C612 H599 0.960 . S
C612 C611 1.524 . S
C613 C610 1.403 . S
C613 C614 1.392 . S
C613 C617 1.495 . S
C614 C613 1.392 . S
C614 C615 1.385 . S
C614 C616 1.478 . S
C615 H609 0.930 . S
C615 C611 1.400 . S
C615 C614 1.385 . S
C616 C614 1.478 . S
C616 C618 1.381 . S
C616 C622 1.383 . S
C617 C613 1.495 . S
C617 H623 0.959 . S
C617 H624 0.961 . S
C617 H625 0.960 . S
C618 C616 1.381 . S
C618 C619 1.394 . S
C618 H626 0.930 . S
C619 C618 1.394 . S
C619 C620 1.383 . S
C619 H627 0.929 . S
C620 C619 1.383 . S
C620 C621 1.377 . S
C621 H605 0.930 . S
C621 C620 1.377 . S
C621 C622 1.379 . S
C622 H606 0.931 . S
C622 C616 1.383 . S
C622 C621 1.379 . S
H623 C617 0.959 . S
H624 C617 0.961 . S
H625 C617 0.960 . S
H626 C618 0.930 . S
H627 C619 0.929 . S
H628 C636 0.929 . S
H629 C638 0.930 . S
H630 C640 0.930 . S
H631 C643 0.929 1_554 S
H632 C646 0.930 . S
H633 C648 0.960 . S
H634 C648 0.960 . S
H635 C648 0.960 . S
C636 H628 0.929 . S
C636 C637 1.377 . S
C636 C638 1.384 . S
C637 C636 1.377 . S
C637 C643 1.390 . S
C638 H629 0.930 . S
C638 C636 1.384 . S
C638 C639 1.372 . S
C639 C638 1.372 . S
C639 C640 1.400 . S
C639 C644 1.490 . S
C640 H630 0.930 . S
C640 C639 1.400 . S
C640 C643 1.386 . S
H641 C657 0.930 . S
H642 C658 0.931 . S
C643 H631 0.929 1_556 S
C643 C637 1.390 . S
C643 C640 1.386 . S
C644 C639 1.490 . S
C644 C646 1.395 . S
C644 C647 1.403 . S
H645 C651 0.930 . S
C646 H632 0.930 . S
C646 C644 1.395 . S
C646 C649 1.403 . S
C647 C644 1.403 . S
C647 C648 1.524 . S
C647 C651 1.400 . S
C648 H633 0.960 . S
C648 H634 0.960 . S
C648 H635 0.960 . S
C648 C647 1.524 . S
C649 C646 1.403 . S
C649 C650 1.392 . S
C649 C653 1.495 . S
C650 C649 1.392 . S
C650 C651 1.385 . S
C650 C652 1.478 . S
C651 H645 0.930 . S
C651 C647 1.400 . S
C651 C650 1.385 . S
C652 C650 1.478 . S
C652 C654 1.381 . S
C652 C658 1.383 . S
C653 C649 1.495 . S
C653 H659 0.959 . S
C653 H660 0.961 . S
C653 H661 0.960 . S
C654 C652 1.381 . S
C654 C655 1.394 . S
C654 H662 0.930 . S
C655 C654 1.394 . S
C655 C656 1.383 . S
C655 H663 0.929 . S
C656 C655 1.383 . S
C656 C657 1.377 . S
C657 H641 0.930 . S
C657 C656 1.377 . S
C657 C658 1.379 . S
C658 H642 0.931 . S
C658 C652 1.383 . S
C658 C657 1.379 . S
H659 C653 0.959 . S
H660 C653 0.961 . S
H661 C653 0.960 . S
H662 C654 0.930 . S
H663 C655 0.929 . S
H664 C672 0.929 . S
H665 C674 0.930 . S
H666 C676 0.930 . S
H667 C679 0.929 . S
H668 C682 0.930 . S
H669 C684 0.960 . S
H670 C684 0.960 . S
H671 C684 0.960 . S
C672 H664 0.929 . S
C672 C673 1.377 . S
C672 C674 1.384 . S
C673 C672 1.377 . S
C673 C679 1.390 . S
C674 H665 0.930 . S
C674 C672 1.384 . S
C674 C675 1.372 . S
C675 C674 1.372 . S
C675 C676 1.400 . S
C675 C680 1.490 . S
C676 H666 0.930 . S
C676 C675 1.400 . S
C676 C679 1.386 . S
H677 C693 0.930 . S
H678 C694 0.931 . S
C679 H667 0.929 . S
C679 C673 1.390 . S
C679 C676 1.386 . S
C680 C675 1.490 . S
C680 C682 1.395 . S
C680 C683 1.403 . S
H681 C687 0.930 . S
C682 H668 0.930 . S
C682 C680 1.395 . S
C682 C685 1.403 . S
C683 C680 1.403 . S
C683 C684 1.524 . S
C683 C687 1.400 . S
C684 H669 0.960 . S
C684 H670 0.960 . S
C684 H671 0.960 . S
C684 C683 1.524 . S
C685 C682 1.403 . S
C685 C686 1.392 . S
C685 C689 1.495 . S
C686 C685 1.392 . S
C686 C687 1.385 . S
C686 C688 1.478 . S
C687 H681 0.930 . S
C687 C683 1.400 . S
C687 C686 1.385 . S
C688 C686 1.478 . S
C688 C690 1.381 . S
C688 C694 1.383 . S
C689 C685 1.495 . S
C689 H695 0.959 . S
C689 H696 0.961 . S
C689 H697 0.960 . S
C690 C688 1.381 . S
C690 C691 1.394 . S
C690 H698 0.930 . S
C691 C690 1.394 . S
C691 C692 1.383 . S
C691 H699 0.929 . S
C692 C691 1.383 . S
C692 C693 1.377 . S
C693 H677 0.930 . S
C693 C692 1.377 . S
C693 C694 1.379 . S
C694 H678 0.931 . S
C694 C688 1.383 . S
C694 C693 1.379 . S
H695 C689 0.959 . S
H696 C689 0.961 . S
H697 C689 0.960 . S
H698 C690 0.930 . S
H699 C691 0.929 . S
H700 C708 0.929 . S
H701 C710 0.930 . S
H702 C712 0.930 . S
H703 C715 0.929 . S
H704 C718 0.930 . S
H705 C720 0.960 . S
H706 C720 0.960 . S
H707 C720 0.960 . S
C708 H700 0.929 . S
C708 C709 1.377 . S
C708 C710 1.384 . S
C709 C708 1.377 . S
C709 C715 1.390 . S
C710 H701 0.930 . S
C710 C708 1.384 . S
C710 C711 1.372 . S
C711 C710 1.372 . S
C711 C712 1.400 . S
C711 C716 1.490 . S
C712 H702 0.930 . S
C712 C711 1.400 . S
C712 C715 1.386 . S
H713 C729 0.930 . S
H714 C730 0.931 . S
C715 H703 0.929 . S
C715 C709 1.390 . S
C715 C712 1.386 . S
C716 C711 1.490 . S
C716 C718 1.395 . S
C716 C719 1.403 . S
H717 C723 0.930 . S
C718 H704 0.930 . S
C718 C716 1.395 . S
C718 C721 1.403 . S
C719 C716 1.403 . S
C719 C720 1.524 . S
C719 C723 1.400 . S
C720 H705 0.960 . S
C720 H706 0.960 . S
C720 H707 0.960 . S
C720 C719 1.524 . S
C721 C718 1.403 . S
C721 C722 1.392 . S
C721 C725 1.495 . S
C722 C721 1.392 . S
C722 C723 1.385 . S
C722 C724 1.478 . S
C723 H717 0.930 . S
C723 C719 1.400 . S
C723 C722 1.385 . S
C724 C722 1.478 . S
C724 C726 1.381 . S
C724 C730 1.383 . S
C725 C721 1.495 . S
C725 H731 0.959 . S
C725 H732 0.961 . S
C725 H733 0.960 . S
C726 C724 1.381 . S
C726 C727 1.394 . S
C726 H734 0.930 . S
C727 C726 1.394 . S
C727 C728 1.383 . S
C727 H735 0.929 . S
C728 C727 1.383 . S
C728 C729 1.377 . S
C729 H713 0.930 . S
C729 C728 1.377 . S
C729 C730 1.379 . S
C730 H714 0.931 . S
C730 C724 1.383 . S
C730 C729 1.379 . S
H731 C725 0.959 . S
H732 C725 0.961 . S
H733 C725 0.960 . S
H734 C726 0.930 . S
H735 C727 0.929 . S
H736 C744 0.929 . S
H737 C746 0.930 . S
H738 C748 0.930 . S
H739 C751 0.929 . S
H740 C754 0.930 . S
H741 C756 0.960 . S
H742 C756 0.960 . S
H743 C756 0.960 . S
C744 H736 0.929 . S
C744 C745 1.377 . S
C744 C746 1.384 . S
C745 C744 1.377 . S
C745 C751 1.390 1_565 S
C746 H737 0.930 . S
C746 C744 1.384 . S
C746 C747 1.372 . S
C747 C746 1.372 . S
C747 C748 1.400 1_565 S
C747 C752 1.490 . S
C748 H738 0.930 . S
C748 C747 1.400 1_545 S
C748 C751 1.386 . S
H749 C765 0.930 . S
H750 C766 0.931 . S
C751 H739 0.929 . S
C751 C745 1.390 1_545 S
C751 C748 1.386 . S
C752 C747 1.490 . S
C752 C754 1.395 1_655 S
C752 C755 1.403 1_565 S
H753 C759 0.930 . S
C754 H740 0.930 . S
C754 C752 1.395 1_455 S
C754 C757 1.403 1_556 S
C755 C752 1.403 1_545 S
C755 C756 1.524 . S
C755 C759 1.400 1_556 S
C756 H741 0.960 . S
C756 H742 0.960 . S
C756 H743 0.960 . S
C756 C755 1.524 . S
C757 C754 1.403 1_554 S
C757 C758 1.392 . S
C757 C761 1.495 . S
C758 C757 1.392 . S
C758 C759 1.385 1_465 S
C758 C760 1.477 . S
C759 H753 0.930 . S
C759 C755 1.400 1_554 S
C759 C758 1.385 1_645 S
C760 C758 1.477 . S
C760 C762 1.378 . S
C760 C766 1.386 1_565 S
C761 C757 1.495 . S
C761 H767 0.959 . S
C761 H768 0.961 . S
C761 H769 0.960 . S
C762 C760 1.378 . S
C762 C763 1.394 . S
C762 H770 0.930 . S
C763 C762 1.394 . S
C763 C764 1.383 1_565 S
C763 H771 0.929 . S
C764 C763 1.383 1_545 S
C764 C765 1.377 . S
C765 H749 0.930 . S
C765 C764 1.377 . S
C765 C766 1.379 . S
C766 H750 0.931 . S
C766 C760 1.386 1_545 S
C766 C765 1.379 . S
H767 C761 0.959 . S
H768 C761 0.961 . S
H769 C761 0.960 . S
H770 C762 0.930 . S
H771 C763 0.929 . S
H772 C780 0.929 . S
H773 C782 0.930 . S
H774 C784 0.930 . S
H775 C787 0.929 . S
H776 C790 0.930 . S
H777 C792 0.960 . S
H778 C792 0.960 . S
H779 C792 0.960 . S
C780 H772 0.929 . S
C780 C781 1.377 . S
C780 C782 1.384 . S
C781 C780 1.377 . S
C781 C787 1.390 . S
C782 H773 0.930 . S
C782 C780 1.384 . S
C782 C783 1.372 . S
C783 C782 1.372 . S
C783 C784 1.400 . S
C783 C788 1.490 . S
C784 H774 0.930 . S
C784 C783 1.400 . S
C784 C787 1.386 . S
H785 C801 0.930 . S
H786 C802 0.931 . S
C787 H775 0.929 . S
C787 C781 1.390 . S
C787 C784 1.386 . S
C788 C783 1.490 . S
C788 C790 1.395 . S
C788 C791 1.403 . S
H789 C795 0.930 . S
C790 H776 0.930 . S
C790 C788 1.395 . S
C790 C793 1.403 . S
C791 C788 1.403 . S
C791 C792 1.524 . S
C791 C795 1.400 . S
C792 H777 0.960 . S
C792 H778 0.960 . S
C792 H779 0.960 . S
C792 C791 1.524 . S
C793 C790 1.403 . S
C793 C794 1.392 . S
C793 C797 1.495 . S
C794 C793 1.392 . S
C794 C795 1.385 . S
C794 C796 1.478 . S
C795 H789 0.930 . S
C795 C791 1.400 . S
C795 C794 1.385 . S
C796 C794 1.478 . S
C796 C798 1.381 . S
C796 C802 1.383 . S
C797 C793 1.495 . S
C797 H803 0.959 . S
C797 H804 0.961 . S
C797 H805 0.960 . S
C798 C796 1.381 . S
C798 C799 1.394 . S
C798 H806 0.930 . S
C799 C798 1.394 . S
C799 C800 1.383 . S
C799 H807 0.929 . S
C800 C799 1.383 . S
C800 C801 1.377 . S
C801 H785 0.930 . S
C801 C800 1.377 . S
C801 C802 1.379 . S
C802 H786 0.931 . S
C802 C796 1.383 . S
C802 C801 1.379 . S
H803 C797 0.959 . S
H804 C797 0.961 . S
H805 C797 0.960 . S
H806 C798 0.930 . S
H807 C799 0.929 . S
H808 C816 0.929 . S
H809 C818 0.930 . S
H810 C820 0.930 . S
H811 C823 0.929 . S
H812 C826 0.932 . S
H813 C828 0.960 . S
H814 C828 0.960 . S
H815 C828 0.960 1_545 S
C816 H808 0.929 . S
C816 C817 1.377 1_565 S
C816 C818 1.384 . S
C817 C816 1.377 1_545 S
C817 C823 1.390 . S
C818 H809 0.930 . S
C818 C816 1.384 . S
C818 C819 1.372 1_565 S
C819 C818 1.372 1_545 S
C819 C820 1.400 . S
C819 C824 1.490 . S
C820 H810 0.930 . S
C820 C819 1.400 . S
C820 C823 1.386 . S
H821 C837 0.930 . S
H822 C838 0.931 . S
C823 H811 0.929 . S
C823 C817 1.390 . S
C823 C820 1.386 . S
C824 C819 1.490 . S
C824 C826 1.396 . S
C824 C827 1.403 1_545 S
H825 C831 0.930 . S
C826 H812 0.932 . S
C826 C824 1.396 . S
C826 C829 1.399 1_545 S
C827 C824 1.403 1_565 S
C827 C828 1.524 . S
C827 C831 1.400 . S
C828 H813 0.960 . S
C828 H814 0.960 . S
C828 H815 0.960 1_565 S
C828 C827 1.524 . S
C829 C826 1.399 1_565 S
C829 C830 1.394 . S
C829 C833 1.497 1_565 S
C830 C829 1.394 . S
C830 C831 1.385 . S
C830 C832 1.478 . S
C831 H825 0.930 . S
C831 C827 1.400 . S
C831 C830 1.385 . S
C832 C830 1.478 . S
C832 C834 1.381 . S
C832 C838 1.383 1_565 S
C833 C829 1.497 1_545 S
C833 H839 0.963 . S
C833 H840 0.981 . S
C833 H841 0.935 1_545 S
C834 C832 1.381 . S
C834 C835 1.394 . S
C834 H842 0.930 . S
C835 C834 1.394 . S
C835 C836 1.383 . S
C835 H843 0.929 . S
C836 C835 1.383 . S
C836 C837 1.377 1_565 S
C837 H821 0.930 . S
C837 C836 1.377 1_545 S
C837 C838 1.379 . S
C838 H822 0.931 . S
C838 C832 1.383 1_545 S
C838 C837 1.379 . S
H839 C833 0.963 . S
H840 C833 0.981 . S
H841 C833 0.935 1_565 S
H842 C834 0.930 . S
H843 C835 0.929 . S
H844 C852 0.931 . S
H845 C854 0.930 . S
H846 C856 0.930 . S
H847 C859 0.929 . S
H848 C862 0.930 . S
H849 C864 0.960 . S
H850 C864 0.960 . S
H851 C864 0.960 . S
C852 H844 0.931 . S
C852 C853 1.377 . S
C852 C854 1.384 . S
C853 C852 1.377 . S
C853 C859 1.390 . S
C854 H845 0.930 . S
C854 C852 1.384 . S
C854 C855 1.372 . S
C855 C854 1.372 . S
C855 C856 1.400 . S
C855 C860 1.490 . S
C856 H846 0.930 . S
C856 C855 1.400 . S
C856 C859 1.386 . S
H857 C873 0.930 . S
H858 C874 0.931 . S
C859 H847 0.929 . S
C859 C853 1.390 . S
C859 C856 1.386 . S
C860 C855 1.490 . S
C860 C862 1.395 . S
C860 C863 1.403 . S
H861 C867 0.930 . S
C862 H848 0.930 . S
C862 C860 1.395 . S
C862 C865 1.403 . S
C863 C860 1.403 . S
C863 C864 1.524 . S
C863 C867 1.400 . S
C864 H849 0.960 . S
C864 H850 0.960 . S
C864 H851 0.960 . S
C864 C863 1.524 . S
C865 C862 1.403 . S
C865 C866 1.392 . S
C865 C869 1.495 . S
C866 C865 1.392 . S
C866 C867 1.385 . S
C866 C868 1.478 . S
C867 H861 0.930 . S
C867 C863 1.400 . S
C867 C866 1.385 . S
C868 C866 1.478 . S
C868 C870 1.381 . S
C868 C874 1.383 . S
C869 C865 1.495 . S
C869 H875 0.959 . S
C869 H876 0.961 . S
C869 H877 0.960 . S
C870 C868 1.381 . S
C870 C871 1.394 . S
C870 H878 0.930 . S
C871 C870 1.394 . S
C871 C872 1.383 . S
C871 H879 0.929 . S
C872 C871 1.383 . S
C872 C873 1.377 . S
C873 H857 0.930 . S
C873 C872 1.377 . S
C873 C874 1.379 . S
C874 H858 0.931 . S
C874 C868 1.383 . S
C874 C873 1.379 . S
H875 C869 0.959 . S
H876 C869 0.961 . S
H877 C869 0.960 . S
H878 C870 0.930 . S
H879 C871 0.929 . S
H880 C888 0.929 . S
H881 C890 0.930 . S
H882 C892 0.930 . S
H883 C895 0.929 . S
H884 C898 0.930 . S
H885 C900 0.960 . S
H886 C900 0.960 . S
H887 C900 0.960 . S
C888 H880 0.929 . S
C888 C889 1.377 . S
C888 C890 1.384 . S
C889 C888 1.377 . S
C889 C895 1.390 . S
C890 H881 0.930 . S
C890 C888 1.384 . S
C890 C891 1.372 . S
C891 C890 1.372 . S
C891 C892 1.400 . S
C891 C896 1.490 . S
C892 H882 0.930 . S
C892 C891 1.400 . S
C892 C895 1.386 . S
H893 C909 0.930 . S
H894 C910 0.931 . S
C895 H883 0.929 . S
C895 C889 1.390 . S
C895 C892 1.386 . S
C896 C891 1.490 . S
C896 C898 1.395 . S
C896 C899 1.403 . S
H897 C903 0.930 . S
C898 H884 0.930 . S
C898 C896 1.395 . S
C898 C901 1.403 . S
C899 C896 1.403 . S
C899 C900 1.524 . S
C899 C903 1.400 . S
C900 H885 0.960 . S
C900 H886 0.960 . S
C900 H887 0.960 . S
C900 C899 1.524 . S
C901 C898 1.403 . S
C901 C902 1.392 . S
C901 C905 1.495 . S
C902 C901 1.392 . S
C902 C903 1.385 . S
C902 C904 1.478 . S
C903 H897 0.930 . S
C903 C899 1.400 . S
C903 C902 1.385 . S
C904 C902 1.478 . S
C904 C906 1.381 . S
C904 C910 1.383 . S
C905 C901 1.495 . S
C905 H911 0.959 . S
C905 H912 0.961 . S
C905 H913 0.960 . S
C906 C904 1.381 . S
C906 C907 1.394 . S
C906 H914 0.930 . S
C907 C906 1.394 . S
C907 C908 1.383 . S
C907 H915 0.929 . S
C908 C907 1.383 . S
C908 C909 1.377 . S
C909 H893 0.930 . S
C909 C908 1.377 . S
C909 C910 1.379 . S
C910 H894 0.931 . S
C910 C904 1.383 . S
C910 C909 1.379 . S
H911 C905 0.959 . S
H912 C905 0.961 . S
H913 C905 0.960 . S
H914 C906 0.930 . S
H915 C907 0.929 . S
H916 C924 0.929 . S
H917 C926 0.930 . S
H918 C928 0.930 . S
H919 C931 0.929 . S
H920 C934 0.930 . S
H921 C936 0.960 . S
H922 C936 0.960 . S
H923 C936 0.960 . S
C924 H916 0.929 . S
C924 C925 1.377 . S
C924 C926 1.384 . S
C925 C924 1.377 . S
C925 C931 1.390 . S
C926 H917 0.930 . S
C926 C924 1.384 . S
C926 C927 1.372 . S
C927 C926 1.372 . S
C927 C928 1.400 . S
C927 C932 1.490 . S
C928 H918 0.930 . S
C928 C927 1.400 . S
C928 C931 1.386 . S
H929 C945 0.930 . S
H930 C946 0.931 . S
C931 H919 0.929 . S
C931 C925 1.390 . S
C931 C928 1.386 . S
C932 C927 1.490 . S
C932 C934 1.395 . S
C932 C935 1.403 . S
H933 C939 0.930 . S
C934 H920 0.930 . S
C934 C932 1.395 . S
C934 C937 1.403 . S
C935 C932 1.403 . S
C935 C936 1.524 . S
C935 C939 1.400 . S
C936 H921 0.960 . S
C936 H922 0.960 . S
C936 H923 0.960 . S
C936 C935 1.524 . S
C937 C934 1.403 . S
C937 C938 1.392 . S
C937 C941 1.495 . S
C938 C937 1.392 . S
C938 C939 1.385 . S
C938 C940 1.478 . S
C939 H933 0.930 . S
C939 C935 1.400 . S
C939 C938 1.385 . S
C940 C938 1.478 . S
C940 C942 1.381 . S
C940 C946 1.383 . S
C941 C937 1.495 . S
C941 H947 0.959 . S
C941 H948 0.961 . S
C941 H949 0.960 . S
C942 C940 1.381 . S
C942 C943 1.394 . S
C942 H950 0.930 . S
C943 C942 1.394 . S
C943 C944 1.383 . S
C943 H951 0.929 . S
C944 C943 1.383 . S
C944 C945 1.377 . S
C945 H929 0.930 . S
C945 C944 1.377 . S
C945 C946 1.379 . S
C946 H930 0.931 . S
C946 C940 1.383 . S
C946 C945 1.379 . S
H947 C941 0.959 . S
H948 C941 0.961 . S
H949 C941 0.960 . S
H950 C942 0.930 . S
H951 C943 0.929 . S
H952 C960 0.929 . S
H953 C962 0.930 . S
H954 C964 0.930 . S
H955 C967 0.929 . S
H956 C970 0.930 . S
H957 C972 0.960 . S
H958 C972 0.960 . S
H959 C972 0.960 . S
C960 H952 0.929 . S
C960 C961 1.377 . S
C960 C962 1.384 . S
C961 C960 1.377 . S
C961 C967 1.390 . S
C962 H953 0.930 . S
C962 C960 1.384 . S
C962 C963 1.372 . S
C963 C962 1.372 . S
C963 C964 1.400 . S
C963 C968 1.490 . S
C964 H954 0.930 . S
C964 C963 1.400 . S
C964 C967 1.386 . S
H965 C981 0.930 . S
H966 C982 0.931 . S
C967 H955 0.929 . S
C967 C961 1.390 . S
C967 C964 1.386 . S
C968 C963 1.490 . S
C968 C970 1.395 . S
C968 C971 1.403 . S
H969 C975 0.930 . S
C970 H956 0.930 . S
C970 C968 1.395 . S
C970 C973 1.403 . S
C971 C968 1.403 . S
C971 C972 1.524 . S
C971 C975 1.400 . S
C972 H957 0.960 . S
C972 H958 0.960 . S
C972 H959 0.960 . S
C972 C971 1.524 . S
C973 C970 1.403 . S
C973 C974 1.392 . S
C973 C977 1.495 . S
C974 C973 1.392 . S
C974 C975 1.385 . S
C974 C976 1.478 . S
C975 H969 0.930 . S
C975 C971 1.400 . S
C975 C974 1.385 . S
C976 C974 1.478 . S
C976 C978 1.381 . S
C976 C982 1.383 . S
C977 C973 1.495 . S
C977 H983 0.959 . S
C977 H984 0.961 . S
C977 H985 0.960 . S
C978 C976 1.381 . S
C978 C979 1.394 . S
C978 H986 0.930 . S
C979 C978 1.394 . S
C979 C980 1.383 . S
C979 H987 0.929 . S
C980 C979 1.383 . S
C980 C981 1.377 . S
C981 H965 0.930 . S
C981 C980 1.377 . S
C981 C982 1.379 . S
C982 H966 0.931 . S
C982 C976 1.383 . S
C982 C981 1.379 . S
H983 C977 0.959 . S
H984 C977 0.961 . S
H985 C977 0.960 . S
H986 C978 0.930 . S
H987 C979 0.929 . S
H988 C996 0.929 . S
H989 C998 0.930 . S
H990 C1000 0.930 . S
H991 C1003 0.929 . S
H992 C1006 0.930 . S
H993 C1008 0.960 . S
H994 C1008 0.960 . S
H995 C1008 0.960 . S
C996 H988 0.929 . S
C996 C997 1.377 1_455 S
C996 C998 1.384 . S
C997 C996 1.377 1_655 S
C997 C1003 1.390 . S
C998 H989 0.930 . S
C998 C996 1.384 . S
C998 C999 1.372 1_455 S
C999 C998 1.372 1_655 S
C999 C1000 1.400 . S
C999 C1004 1.490 . S
C1000 H990 0.930 . S
C1000 C999 1.400 . S
C1000 C1003 1.386 . S
H1001 C1017 0.930 . S
H1002 C1018 0.931 . S
C1003 H991 0.929 . S
C1003 C997 1.390 . S
C1003 C1000 1.386 . S
C1004 C999 1.490 . S
C1004 C1006 1.393 1_655 S
C1004 C1007 1.405 . S
H1005 C1011 0.930 . S
C1006 H992 0.930 . S
C1006 C1004 1.393 1_455 S
C1006 C1009 1.403 1_556 S
C1007 C1004 1.405 . S
C1007 C1008 1.524 . S
C1007 C1011 1.400 1_556 S
C1008 H993 0.960 . S
C1008 H994 0.960 . S
C1008 H995 0.960 . S
C1008 C1007 1.524 . S
C1009 C1006 1.403 1_554 S
C1009 C1010 1.392 . S
C1009 C1013 1.495 . S
C1010 C1009 1.392 . S
C1010 C1011 1.385 1_455 S
C1010 C1012 1.478 . S
C1011 H1005 0.930 . S
C1011 C1007 1.400 1_554 S
C1011 C1010 1.385 1_655 S
C1012 C1010 1.478 . S
C1012 C1014 1.381 . S
C1012 C1018 1.383 1_455 S
C1013 C1009 1.495 . S
C1013 H1019 0.959 . S
C1013 H1020 0.961 . S
C1013 H1021 0.960 . S
C1014 C1012 1.381 . S
C1014 C1015 1.394 . S
C1014 H1022 0.930 . S
C1015 C1014 1.394 . S
C1015 C1016 1.383 . S
C1015 H1023 0.929 . S
C1016 C1015 1.383 . S
C1016 C1017 1.377 1_455 S
C1017 H1001 0.930 . S
C1017 C1016 1.377 1_655 S
C1017 C1018 1.379 . S
C1018 H1002 0.931 . S
C1018 C1012 1.383 1_655 S
C1018 C1017 1.379 . S
H1019 C1013 0.959 . S
H1020 C1013 0.961 . S
H1021 C1013 0.960 . S
H1022 C1014 0.930 . S
H1023 C1015 0.929 . S
C169 C18 1.507 . S
C188 C68 1.479 . S
C205 C8 1.055 . S
C224 C28 1.016 . S
C241 C38 1.507 . S
C260 C48 1.477 . S
C277 C58 1.894 . S
C296 C78 1.896 . S
C313 C19 1.504 . S
C332 C109 1.472 . S
C349 C9 1.056 . S
C368 C89 1.072 . S
C385 C99 1.508 . S
C404 C49 1.504 . S
C421 C119 1.891 . S
C440 C59 1.896 . S
C457 C138 1.507 . S
C476 C108 1.508 . S
C493 C88 1.058 . S
C512 C128 1.037 . S
C529 C148 1.495 . S
C548 C98 1.506 . S
C565 C118 1.893 . S
C584 C158 1.900 . S
C601 C69 1.495 . S
C620 C139 1.501 . S
C637 C129 1.055 . S
C656 C29 1.065 . S
C673 C39 1.507 . S
C692 C149 1.475 . S
C709 C79 1.891 . S
C728 C159 1.894 . S
C745 C1 1.483 . S
C764 C2 1.479 . S
C781 C21 1.474 . S
C800 C22 1.486 1_554 S
C817 C41 1.500 . S
C836 C42 1.511 . S
C853 C62 1.499 1_556 S
C872 C61 1.484 . S
C889 C81 1.475 1_556 S
C908 C82 1.449 . S
C925 C102 1.493 . S
C944 C101 1.488 1_554 S
C961 C122 1.475 . S
C980 C121 1.490 . S
C997 C142 1.494 . S
C1016 C141 1.490 . S
