# Generated by pormake.
# Topology smm, (6)-cn, num edge types: 1
# Building blocks:
#     Node 0, Type 0, BuildingBlock: BETFAJ_clean_sbu_0, # of connection points: 6
#     Node 1, Type 0, BuildingBlock: BETFAJ_clean_sbu_0, # of connection points: 6
#     Node 2, Type 0, BuildingBlock: BETFAJ_clean_sbu_0, # of connection points: 6
#     Node 3, Type 0, BuildingBlock: BETFAJ_clean_sbu_0, # of connection points: 6
#     Node 4, Type 0, BuildingBlock: BETFAJ_clean_sbu_0, # of connection points: 6
#     Node 5, Type 0, BuildingBlock: BETFAJ_clean_sbu_0, # of connection points: 6
#     Node 6, Type 0, BuildingBlock: BETFAJ_clean_sbu_0, # of connection points: 6
#     Node 7, Type 0, BuildingBlock: BETFAJ_clean_sbu_0, # of connection points: 6
#     Node 8, Type 0, BuildingBlock: BETFAJ_clean_sbu_0, # of connection points: 6
#     Edge 9, Type (0, 0), BuildingBlock: AJUNOK_clean_linker_0, # of connection points: 2
#     Edge 10, Type (0, 0), BuildingBlock: AJUNOK_clean_linker_0, # of connection points: 2
#     Edge 11, Type (0, 0), BuildingBlock: AJUNOK_clean_linker_0, # of connection points: 2
#     Edge 12, Type (0, 0), BuildingBlock: AJUNOK_clean_linker_0, # of connection points: 2
#     Edge 13, Type (0, 0), BuildingBlock: AJUNOK_clean_linker_0, # of connection points: 2
#     Edge 14, Type (0, 0), BuildingBlock: AJUNOK_clean_linker_0, # of connection points: 2
#     Edge 15, Type (0, 0), BuildingBlock: AJUNOK_clean_linker_0, # of connection points: 2
#     Edge 16, Type (0, 0), BuildingBlock: AJUNOK_clean_linker_0, # of connection points: 2
#     Edge 17, Type (0, 0), BuildingBlock: AJUNOK_clean_linker_0, # of connection points: 2
#     Edge 18, Type (0, 0), BuildingBlock: AJUNOK_clean_linker_0, # of connection points: 2
#     Edge 19, Type (0, 0), BuildingBlock: AJUNOK_clean_linker_0, # of connection points: 2
#     Edge 20, Type (0, 0), BuildingBlock: AJUNOK_clean_linker_0, # of connection points: 2
#     Edge 21, Type (0, 0), BuildingBlock: AJUNOK_clean_linker_0, # of connection points: 2
#     Edge 22, Type (0, 0), BuildingBlock: AJUNOK_clean_linker_0, # of connection points: 2
#     Edge 23, Type (0, 0), BuildingBlock: AJUNOK_clean_linker_0, # of connection points: 2
#     Edge 24, Type (0, 0), BuildingBlock: AJUNOK_clean_linker_0, # of connection points: 2
#     Edge 25, Type (0, 0), BuildingBlock: AJUNOK_clean_linker_0, # of connection points: 2
#     Edge 26, Type (0, 0), BuildingBlock: AJUNOK_clean_linker_0, # of connection points: 2
#     Edge 27, Type (0, 0), BuildingBlock: AJUNOK_clean_linker_0, # of connection points: 2
#     Edge 28, Type (0, 0), BuildingBlock: AJUNOK_clean_linker_0, # of connection points: 2
#     Edge 29, Type (0, 0), BuildingBlock: AJUNOK_clean_linker_0, # of connection points: 2
#     Edge 30, Type (0, 0), BuildingBlock: AJUNOK_clean_linker_0, # of connection points: 2
#     Edge 31, Type (0, 0), BuildingBlock: AJUNOK_clean_linker_0, # of connection points: 2
#     Edge 32, Type (0, 0), BuildingBlock: AJUNOK_clean_linker_0, # of connection points: 2
#     Edge 33, Type (0, 0), BuildingBlock: AJUNOK_clean_linker_0, # of connection points: 2
#     Edge 34, Type (0, 0), BuildingBlock: AJUNOK_clean_linker_0, # of connection points: 2
#     Edge 35, Type (0, 0), BuildingBlock: AJUNOK_clean_linker_0, # of connection points: 2
# Relax obj value: 0.036
# Max RMSD: 0.113
# Mean RMSD: 0.113
data_MOF--net-smm--node1-BETFAJ_clean_sbu_0--edge1-AJUNOK_clean_linker_0
_symmetry_space_group_name_H-M    P1
_symmetry_Int_Tables_number       1
_symmetry_cell_setting            triclinic
loop_
_symmetry_equiv_pos_as_xyz
'x, y, z'
_cell_length_a     57.459062
_cell_length_b     57.402435
_cell_length_c     10.445457
_cell_angle_alpha  89.893968
_cell_angle_beta   90.062108
_cell_angle_gamma 119.89391
loop_
_atom_site_label
_atom_site_type_symbol
_atom_site_fract_x
_atom_site_fract_y
_atom_site_fract_z
_atom_type_partial_charge
Sm0 Sm 0.068 0.22774 -0.00983 0.0
Sm1 Sm 1.01768 0.17261 0.03488 0.0
C2 C 0.10482 0.27352 0.88457 0.0
C3 C 0.11557 0.30241 0.86059 0.0
C4 C 0.10198 0.31596 0.89786 0.0
C5 C 0.11331 0.34361 0.87318 0.0
C6 C 0.1384 0.35802 0.81174 0.0
C7 C 0.15146 0.34407 0.77222 0.0
C8 C 0.1402 0.31663 0.79672 0.0
C9 C 0.05757 0.21314 0.24342 0.0
C10 C 1.00933 0.22452 0.04193 0.0
C11 C 0.98051 0.12377 0.10921 0.0
C12 C 0.97176 0.09496 0.08751 0.0
C13 C 0.97779 0.08061 0.17825 0.0
C14 C 0.96807 0.05304 0.16338 0.0
C15 C 0.95205 0.03911 0.05743 0.0
C16 C 0.94613 0.05347 0.96634 0.0
C17 C 0.95585 0.08105 0.98113 0.0
C18 C 1.03037 0.18734 0.78167 0.0
C19 C 0.0771 0.17648 0.02015 0.0
O20 O 0.08247 0.25647 0.82711 0.0
O21 O 0.10715 0.26592 -0.00013 0.0
O22 O 0.04019 0.2091 0.15939 0.0
O23 O 0.0817 0.22754 0.19752 0.0
O24 O 1.03359 0.2383 -0.00999 0.0
O25 O 1.00018 0.19972 0.08376 0.0
O26 O 1.00304 0.13832 0.17129 0.0
O27 O 0.97696 0.13698 0.01607 0.0
O28 O 0.04658 0.19063 0.86984 0.0
O29 O 1.00593 0.17446 0.82418 0.0
O30 O 0.05202 0.16303 0.06125 0.0
O31 O 0.08723 0.20098 0.97207 0.0
H32 H 0.08282 0.30524 0.9465 0.0
H33 H 0.10278 0.35385 0.90442 0.0
H34 H 0.1705 0.35446 0.72236 0.0
H35 H 0.15083 0.30645 0.76587 0.0
H36 H 0.98962 0.0906 0.26229 0.0
H37 H 0.97251 0.04248 0.2368 0.0
H38 H 0.93387 0.04332 0.88363 0.0
H39 H 0.95055 0.09135 0.90991 0.0
Sm40 Sm 0.8536 0.86208 -0.00689 0.0
Sm41 Sm 0.90883 0.86702 0.03694 0.0
C42 C 0.80679 0.85149 0.893 0.0
C43 C 0.77817 0.83104 0.87113 0.0
C44 C 0.76966 0.81989 0.74849 0.0
C45 C 0.74235 0.80319 0.7214 0.0
C46 C 0.72283 0.79733 0.81621 0.0
C47 C 0.73135 0.80807 0.93953 0.0
C48 C 0.75868 0.82473 0.96674 0.0
C49 C 0.8685 0.86646 0.24576 0.0
C50 C 0.85744 0.80685 0.04407 0.0
C51 C 0.95783 0.87913 0.11071 0.0
C52 C 0.98649 0.89934 0.08799 0.0
C53 C 1.00087 0.91948 0.17922 0.0
C54 C 1.02837 0.93743 0.16352 0.0
C55 C 0.04218 0.93566 0.05625 0.0
C56 C 1.02776 0.91567 0.96447 0.0
C57 C 1.00027 0.89773 0.98006 0.0
C58 C 0.89393 0.86478 0.78405 0.0
C59 C 0.9044 0.92238 0.02085 0.0
O60 O 0.82511 0.8491 0.82934 0.0
O61 O 0.81449 0.86102 0.00876 0.0
O62 O 0.87242 0.85298 0.16217 0.0
O63 O 0.8543 0.87645 0.19959 0.0
O64 O 0.84373 0.81734 -0.00919 0.0
O65 O 0.88208 0.82249 0.08709 0.0
O66 O 0.94314 0.88699 0.1726 0.0
O67 O 0.94469 0.86222 0.01832 0.0
O68 O 0.8906 0.87775 0.87183 0.0
O69 O 0.90692 0.85328 0.82677 0.0
O70 O 0.91801 0.91081 0.06151 0.0
O71 O 0.87982 0.90802 0.97425 0.0
H72 H 0.78409 0.82478 0.67197 0.0
H73 H 0.73645 0.79572 0.6248 0.0
H74 H 0.71679 0.80388 0.01465 0.0
H75 H 0.76443 0.8332 0.06181 0.0
H76 H 0.99098 0.92103 0.26434 0.0
H77 H 0.03898 0.95222 0.23739 0.0
H78 H 1.03782 0.91381 0.88072 0.0
H79 H 0.98994 0.88235 0.90828 0.0
Sm80 Sm 0.21878 1.0126 -0.01238 0.0
Sm81 Sm 0.21462 0.06358 0.03069 0.0
C82 C 0.22752 0.97497 0.88957 0.0
C83 C 0.24692 0.96627 0.85469 0.0
C84 C 0.23985 0.94719 0.75706 0.0
C85 C 0.25642 0.93661 0.727 0.0
C86 C 0.28048 0.94486 0.7942 0.0
C87 C 0.2882 0.9649 0.8885 0.0
C88 C 0.27146 0.97547 0.91901 0.0
C89 C 0.2152 1.02427 0.23998 0.0
C90 C 0.27451 0.07103 0.03114 0.0
C91 C 0.20316 0.10084 0.10703 0.0
C92 C 0.18295 0.10949 0.0865 0.0
C93 C 0.16327 0.10408 0.17988 0.0
C94 C 0.14526 0.11367 0.16569 0.0
C95 C 0.1465 0.12896 0.05781 0.0
C96 C 0.16608 0.13426 0.9641 0.0
C97 C 0.18408 0.12465 0.97816 0.0
C98 C 0.21732 0.05154 0.77833 0.0
C99 C 0.15883 1.00406 0.01627 0.0
O100 O 0.22733 0.99395 0.82078 0.0
O101 O 0.2226 0.97614 0.01105 0.0
O102 O 0.2286 0.04099 0.15397 0.0
O103 O 0.20436 0.99982 0.19643 0.0
O104 O 0.26353 0.04678 0.97901 0.0
O105 O 0.25939 0.0807 0.07458 0.0
O106 O 0.19546 0.07833 0.16929 0.0
O107 O 0.21963 0.10437 0.01291 0.0
O108 O 0.20399 0.0348 0.86453 0.0
O109 O 0.22841 0.07583 0.82263 0.0
O110 O 0.17058 0.02945 0.05317 0.0
O111 O 0.17293 0.99327 0.97289 0.0
H112 H 0.22111 0.93996 0.70564 0.0
H113 H 0.2502 0.92159 0.65239 0.0
H114 H 0.30668 0.97167 0.94147 0.0
H115 H 0.27738 0.99034 -0.0058 0.0
H116 H 0.1621 0.09283 0.26536 0.0
H117 H 0.13081 0.10972 0.24104 0.0
H118 H 0.16754 0.14594 0.87982 0.0
H119 H 0.1991 0.12945 0.90472 0.0
Sm120 Sm 0.73535 0.56033 0.32055 0.0
Sm121 Sm 0.68445 0.50574 0.36523 0.0
C122 C 0.77179 0.60692 0.21985 0.0
C123 C 0.77997 0.63566 0.20088 0.0
C124 C 0.77895 0.64502 0.07758 0.0
C125 C 0.78988 0.67255 0.05376 0.0
C126 C 0.80236 0.69136 0.15242 0.0
C127 C 0.80238 0.68194 0.27686 0.0
C128 C 0.79139 0.65441 0.30085 0.0
C129 C 0.72457 0.54583 0.5737 0.0
C130 C 0.67739 0.55848 0.36836 0.0
C131 C 0.64569 0.45773 0.44157 0.0
C132 C 0.63551 0.42877 0.42292 0.0
C133 C 0.65174 0.41923 0.37161 0.0
C134 C 0.64175 0.39154 0.35818 0.0
C135 C 0.61524 0.37296 0.39466 0.0
C136 C 0.5989 0.38269 0.44313 0.0
C137 C 0.60898 0.41032 0.4576 0.0
C138 C 0.69729 0.5203 0.11195 0.0
C139 C 0.74381 0.50888 0.35087 0.0
O140 O 0.75078 0.58893 0.1568 0.0
O141 O 0.77392 0.59884 0.33446 0.0
O142 O 0.70731 0.54219 0.48961 0.0
O143 O 0.74875 0.55962 0.52775 0.0
O144 O 0.70152 0.57141 0.31544 0.0
O145 O 0.66765 0.53371 0.41227 0.0
O146 O 0.6686 0.47147 0.50177 0.0
O147 O 0.64317 0.47083 0.34502 0.0
O148 O 0.71343 0.52328 0.20003 0.0
O149 O 0.67285 0.50784 0.15459 0.0
O150 O 0.71854 0.49543 0.39036 0.0
O151 O 0.75424 0.53344 0.30333 0.0
H152 H 0.77053 0.6311 -0.00166 0.0
H153 H 0.7896 0.67921 0.95696 0.0
H154 H 0.81144 0.69595 0.3553 0.0
H155 H 0.79255 0.64796 0.39695 0.0
H156 H 0.67208 0.43319 0.34197 0.0
H157 H 0.65466 0.38465 0.31834 0.0
H158 H 0.57842 0.36888 0.47204 0.0
H159 H 0.59608 0.4173 0.49668 0.0
Sm160 Sm 0.5195 0.19612 0.32671 0.0
Sm161 Sm 0.575 0.20155 0.37211 0.0
C162 C 0.47342 0.18691 0.22369 0.0
C163 C 0.44462 0.16845 0.20001 0.0
C164 C 0.43262 0.1405 0.21551 0.0
C165 C 0.40527 0.12373 0.18692 0.0
C166 C 0.38961 0.13469 0.14181 0.0
C167 C 0.4019 0.16271 0.12692 0.0
C168 C 0.42904 0.17935 0.15575 0.0
C169 C 0.53412 0.19941 0.58035 0.0
C170 C 0.52361 0.14093 0.37289 0.0
C171 C 0.62391 0.21387 0.44914 0.0
C172 C 0.65262 0.23402 0.42647 0.0
C173 C 0.66692 0.25457 0.51603 0.0
C174 C 0.69444 0.27248 0.50029 0.0
C175 C 0.70837 0.27025 0.39463 0.0
C176 C 0.69404 0.24983 0.30456 0.0
C177 C 0.66653 0.23194 0.3202 0.0
C178 C 0.5606 0.19894 0.11874 0.0
C179 C 0.56991 0.25649 0.35727 0.0
O180 O 0.49071 0.18216 0.16456 0.0
O181 O 0.481 0.19659 0.33919 0.0
O182 O 0.53824 0.18662 0.49414 0.0
O183 O 0.51967 0.20935 0.5366 0.0
O184 O 0.50949 0.15135 0.3236 0.0
O185 O 0.54836 0.15657 0.41491 0.0
O186 O 0.60912 0.22189 0.50889 0.0
O187 O 0.6109 0.19672 0.35749 0.0
O188 O 0.55663 0.21187 0.20493 0.0
O189 O 0.57427 0.18836 0.16353 0.0
O190 O 0.58355 0.24508 0.39927 0.0
O191 O 0.54573 0.24202 0.30684 0.0
H192 H 0.44435 0.1317 0.2495 0.0
H193 H 0.39631 0.10228 0.20175 0.0
H194 H 0.39054 0.17182 0.09165 0.0
H195 H 0.43798 0.20085 0.14228 0.0
H196 H 0.65693 0.2565 0.5999 0.0
H197 H 0.70497 0.28759 0.57293 0.0
H198 H 0.70417 0.24761 0.22206 0.0
H199 H 0.65629 0.21624 0.24975 0.0
Sm200 Sm 0.88478 0.34639 0.32829 0.0
Sm201 Sm 0.88131 0.39764 0.37234 0.0
C202 C 0.89502 0.30975 0.23029 0.0
C203 C 0.91574 0.30178 0.21062 0.0
C204 C 0.92779 0.30505 0.08966 0.0
C205 C 0.94441 0.29419 0.0641 0.0
C206 C 0.9491 0.27954 0.15844 0.0
C207 C 0.93804 0.27729 0.28103 0.0
C208 C 0.92147 0.28818 0.30674 0.0
C209 C 0.88199 0.35821 0.58137 0.0
C210 C 0.94102 0.40462 0.37135 0.0
C211 C 0.87117 0.43558 0.45286 0.0
C212 C 0.85136 0.44455 0.43666 0.0
C213 C 0.85496 0.46728 0.50328 0.0
C214 C 0.8369 0.47671 0.48718 0.0
C215 C 0.81475 0.46349 0.40454 0.0
C216 C 0.8111 0.44055 0.33821 0.0
C217 C 0.8293 0.43119 0.354 0.0
C218 C 0.88383 0.38565 0.11953 0.0
C219 C 0.82511 0.33845 0.35448 0.0
O220 O 0.89732 0.33032 0.16522 0.0
O221 O 0.88534 0.30805 0.34564 0.0
O222 O 0.89522 0.37486 0.49483 0.0
O223 O 0.87106 0.33375 0.53804 0.0
O224 O 0.92964 0.38017 0.32141 0.0
O225 O 0.92625 0.41475 0.41378 0.0
O226 O 0.86319 0.41289 0.51381 0.0
O227 O 0.88627 0.43842 0.35382 0.0
O228 O 0.87034 0.36892 0.20551 0.0
O229 O 0.89515 0.40992 0.16419 0.0
O230 O 0.83704 0.36369 0.3941 0.0
O231 O 0.83908 0.32768 0.30898 0.0
H232 H 0.92359 0.31516 0.01306 0.0
H233 H 0.95263 0.29623 0.96878 0.0
H234 H 0.9417 0.26653 0.35641 0.0
H235 H 0.91251 0.28517 0.40083 0.0
H236 H 0.87188 0.47787 0.5674 0.0
H237 H 0.84017 0.49432 0.54002 0.0
H238 H 0.79447 0.43017 0.27241 0.0
H239 H 0.82632 0.41371 0.30096 0.0
Sm240 Sm 0.40247 0.89532 0.65702 0.0
Sm241 Sm 0.35191 0.84004 0.70094 0.0
C242 C 0.43999 0.94149 0.5573 0.0
C243 C 0.44947 0.96989 0.52557 0.0
C244 C 0.46985 0.98239 0.43394 0.0
C245 C 0.48075 1.00967 0.40582 0.0
C246 C 0.47153 1.02512 0.46898 0.0
C247 C 0.45038 1.01238 0.55774 0.0
C248 C 0.43948 0.98493 0.58636 0.0
C249 C 0.39088 0.88018 0.90969 0.0
C250 C 0.3436 0.89207 0.69976 0.0
C251 C 0.31465 0.79145 0.77816 0.0
C252 C 0.30564 0.76254 0.75759 0.0
C253 C 0.31193 0.74828 0.84773 0.0
C254 C 0.30199 0.72064 0.83378 0.0
C255 C 0.28548 0.70654 0.72938 0.0
C256 C 0.27927 0.7208 0.63899 0.0
C257 C 0.28921 0.74844 0.65285 0.0
C258 C 0.36381 0.85473 0.44825 0.0
C259 C 0.41147 0.84397 0.68594 0.0
O260 O 0.42003 0.92301 0.49073 0.0
O261 O 0.43968 0.93495 0.6777 0.0
O262 O 0.37411 0.87665 0.82352 0.0
O263 O 0.41528 0.89403 0.86617 0.0
O264 O 0.3681 0.90588 0.65046 0.0
O265 O 0.33426 0.86732 0.74283 0.0
O266 O 0.33731 0.80603 0.83925 0.0
O267 O 0.31107 0.80453 0.68453 0.0
O268 O 0.38061 0.85833 0.53448 0.0
O269 O 0.33958 0.8413 0.49265 0.0
O270 O 0.38618 0.83027 0.72389 0.0
O271 O 0.42197 0.86879 0.64168 0.0
H272 H 0.47771 0.9711 0.38535 0.0
H273 H 0.49667 1.01881 0.33545 0.0
H274 H 0.44287 1.02382 0.60758 0.0
H275 H 0.42365 0.9756 0.657 0.0
H276 H 0.32415 0.7584 0.93059 0.0
H277 H 0.30667 0.71016 0.90669 0.0
H278 H 0.26663 0.71053 0.55747 0.0
H279 H 0.28369 0.75866 0.58216 0.0
Sm280 Sm 0.18668 0.52923 0.66969 0.0
Sm281 Sm 0.24218 0.53446 0.71324 0.0
C282 C 0.13976 0.51865 0.57087 0.0
C283 C 0.1112 0.49818 0.54739 0.0
C284 C 0.10303 0.48689 0.42472 0.0
C285 C 0.07578 0.47031 0.39588 0.0
C286 C 0.05599 0.46468 0.48889 0.0
C287 C 0.06417 0.47552 0.6123 0.0
C288 C 0.09143 0.49208 0.64125 0.0
C289 C 0.20189 0.53305 0.92232 0.0
C290 C 0.19072 0.474 0.71766 0.0
C291 C 0.29106 0.54668 0.78946 0.0
C292 C 0.31971 0.56677 0.76578 0.0
C293 C 0.33448 0.58643 0.85839 0.0
C294 C 0.36195 0.60433 0.84144 0.0
C295 C 0.37533 0.60296 0.73153 0.0
C296 C 0.36053 0.58345 0.63839 0.0
C297 C 0.33306 0.56559 0.65516 0.0
C298 C 0.22732 0.53139 0.4607 0.0
C299 C 0.2375 0.58968 0.69519 0.0
O300 O 0.15825 0.51678 0.50595 0.0
O301 O 0.14733 0.52766 0.6875 0.0
O302 O 0.20566 0.51995 0.83649 0.0
O303 O 0.18762 0.5432 0.87868 0.0
O304 O 0.17673 0.48442 0.66672 0.0
O305 O 0.2155 0.48969 0.75881 0.0
O306 O 0.2764 0.55485 0.84931 0.0
O307 O 0.27792 0.52942 0.69836 0.0
O308 O 0.22357 0.54453 0.54651 0.0
O309 O 0.24097 0.52077 0.50536 0.0
O310 O 0.25125 0.57824 0.73534 0.0
O311 O 0.21279 0.57521 0.65021 0.0
H312 H 0.11767 0.4916 0.34941 0.0
H313 H 0.07017 0.46277 0.29921 0.0
H314 H 0.0494 0.47151 0.68612 0.0
H315 H 0.09691 0.50068 0.73622 0.0
H316 H 0.32489 0.58763 0.9454 0.0
H317 H 0.37288 0.61874 0.91624 0.0
H318 H 0.37027 0.58193 0.55261 0.0
H319 H 0.32241 0.55061 0.5821 0.0
Sm320 Sm 0.55148 0.6787 0.65792 0.0
Sm321 Sm 0.54815 0.72992 0.70108 0.0
C322 C 0.5614 0.64179 0.56017 0.0
C323 C 0.58203 0.63376 0.53866 0.0
C324 C 0.59497 0.63845 0.41931 0.0
C325 C 0.61185 0.62799 0.39208 0.0
C326 C 0.61614 0.61249 0.48336 0.0
C327 C 0.60363 0.60824 0.60359 0.0
C328 C 0.58677 0.61872 0.63092 0.0
C329 C 0.54766 0.68963 0.91043 0.0
C330 C 0.60761 0.73683 0.70461 0.0
C331 C 0.5369 0.76754 0.77401 0.0
C332 C 0.51674 0.77625 0.75276 0.0
C333 C 0.49612 0.76973 0.8424 0.0
C334 C 0.47822 0.77944 0.82788 0.0
C335 C 0.48047 0.79595 0.72338 0.0
C336 C 0.50098 0.80233 0.63334 0.0
C337 C 0.51889 0.79263 0.64782 0.0
C338 C 0.54986 0.71696 0.44837 0.0
C339 C 0.49193 0.67078 0.68675 0.0
O340 O 0.56337 0.66216 0.49446 0.0
O341 O 0.55233 0.64051 0.67652 0.0
O342 O 0.56146 0.70684 0.82652 0.0
O343 O 0.53695 0.6654 0.86457 0.0
O344 O 0.59629 0.71263 0.65189 0.0
O345 O 0.59277 0.74676 0.74859 0.0
O346 O 0.52927 0.74525 0.83805 0.0
O347 O 0.55322 0.7707 0.67974 0.0
O348 O 0.53661 0.70084 0.53638 0.0
O349 O 0.56198 0.74143 0.4908 0.0
O350 O 0.50402 0.69599 0.72663 0.0
O351 O 0.50577 0.66 0.63968 0.0
H352 H 0.59138 0.64949 0.34509 0.0
H353 H 0.62072 0.63118 0.29767 0.0
H354 H 0.60658 0.59643 0.67606 0.0
H355 H 0.57689 0.61439 0.72321 0.0
H356 H 0.49413 0.75753 0.92539 0.0
H357 H 0.46306 0.77463 0.90059 0.0
H358 H 0.50324 0.81495 0.5517 0.0
H359 H 0.53466 0.79832 0.5775 0.0
C360 C 0.13795 0.39919 0.72965 0.0
C361 C 0.15156 0.38764 0.79132 0.0
C362 C 0.15076 0.42701 0.70472 0.0
C363 C 0.17765 0.4444 0.7412 0.0
H364 H 0.11738 0.38658 0.69854 0.0
H365 H 0.13943 0.43488 0.65653 0.0
S366 S 0.22144 0.42403 0.91388 0.0
N367 N 0.19283 0.39575 0.89411 0.0
N368 N 0.21701 0.4476 0.84711 0.0
C369 C 0.19128 0.43296 0.80485 0.0
C370 C 0.17822 0.40474 0.82996 0.0
C371 C 0.67644 0.79122 0.82002 0.0
C372 C 0.69362 0.78142 0.78503 0.0
C373 C 0.64893 0.77693 0.79131 0.0
C374 C 0.63725 0.75208 0.72675 0.0
H375 H 0.68438 0.81028 0.86925 0.0
H376 H 0.63673 0.78546 0.82124 0.0
S377 S 0.67355 0.71728 0.6164 0.0
N378 N 0.69702 0.74515 0.68389 0.0
N379 N 0.64541 0.71826 0.62919 0.0
C380 C 0.65429 0.74206 0.69072 0.0
C381 C 0.68239 0.75672 0.71988 0.0
C382 C 0.32394 0.94629 0.73898 0.0
C383 C 0.29648 0.93135 0.76994 0.0
C384 C 0.33894 0.93349 0.7132 0.0
C385 C 0.32712 0.90528 0.71926 0.0
H386 H 0.33383 0.968 0.73344 0.0
H387 H 0.36004 0.94587 0.6904 0.0
S388 S 0.25585 0.85718 0.80002 0.0
N389 N 0.2582 0.88699 0.80767 0.0
N390 N 0.28602 0.86295 0.75957 0.0
C391 C 0.29962 0.89021 0.75074 0.0
C392 C 0.28443 0.90322 0.77599 0.0
C393 C 0.34214 0.12518 0.15842 0.0
C394 C 0.36037 0.11747 0.11321 0.0
C395 C 0.31469 0.11022 0.12994 0.0
C396 C 0.30406 0.08673 0.05486 0.0
H397 H 0.34912 0.14293 0.21744 0.0
H398 H 0.30172 0.11714 0.16854 0.0
S399 S 0.34335 0.05806 0.91019 0.0
N400 N 0.36596 0.08503 -0.01285 0.0
N401 N 0.31427 0.0566 0.93474 0.0
C402 C 0.32206 0.07869 0.00898 0.0
C403 C 0.35016 0.09406 0.03805 0.0
C404 C 0.98939 0.27879 0.06724 0.0
C405 C 0.96407 0.26524 0.12693 0.0
C406 C 1.00372 0.26547 0.03822 0.0
C407 C 0.99319 0.23798 0.06666 0.0
H408 H 0.99839 0.29997 0.04473 0.0
H409 H 1.02334 0.27695 -0.00549 0.0
S410 S 0.92637 0.1929 0.21258 0.0
N411 N 0.92831 0.22253 0.20603 0.0
N412 N 0.95487 0.19746 0.15215 0.0
C413 C 0.96748 0.2241 0.12337 0.0
C414 C 0.95305 0.23772 0.15335 0.0
C415 C 0.81723 0.76016 0.02973 0.0
C416 C 0.84404 0.77726 0.06811 0.0
C417 C 0.80388 0.73244 0.05661 0.0
C418 C 0.81669 0.72073 0.12411 0.0
H419 H 0.8063 0.76821 0.97929 0.0
H420 H 0.78323 0.72014 0.02598 0.0
S421 S 0.88714 0.75584 0.23916 0.0
N422 N 0.88318 0.77975 0.17284 0.0
N423 N 0.85803 0.72794 0.22261 0.0
C424 C 0.84354 0.7374 0.16114 0.0
C425 C 0.85721 0.76553 0.13329 0.0
C426 C 1.00971 0.45888 0.48869 0.0
C427 C 1.02687 0.44893 0.45565 0.0
C428 C 0.98227 0.44472 0.45839 0.0
C429 C 0.97064 0.41984 0.39402 0.0
H430 H 1.01761 0.47796 0.53777 0.0
H431 H 0.97008 0.45334 0.48721 0.0
S432 S 1.00687 0.38469 0.28819 0.0
N433 N 1.03027 0.4125 0.35639 0.0
N434 N 0.9788 0.38587 0.29855 0.0
C435 C 0.98765 0.4097 0.35974 0.0
C436 C 1.01568 0.42422 0.39059 0.0
C437 C 0.62185 0.5719 0.47737 0.0
C438 C 0.63225 0.59939 0.45119 0.0
C439 C 0.63635 0.55889 0.44793 0.0
C440 C 0.66201 0.57276 0.3912 0.0
H441 H 0.60216 0.56023 0.52024 0.0
H442 H 0.62732 0.53772 0.47085 0.0
S443 S 0.69864 0.64536 0.30618 0.0
N444 N 0.66998 0.64027 0.36725 0.0
N445 N 0.69726 0.61594 0.31098 0.0
C446 C 0.67263 0.60032 0.36394 0.0
C447 C 0.65777 0.61357 0.39402 0.0
C448 C 0.48261 0.09464 0.38223 0.0
C449 C 0.51067 0.11129 0.39394 0.0
C450 C 0.46995 0.06688 0.40828 0.0
C451 C 0.48489 0.05464 0.44538 0.0
H452 H 0.47021 0.1031 0.3543 0.0
H453 H 0.44837 0.05486 0.39787 0.0
S454 S 0.55864 0.08889 0.4928 0.0
N455 N 0.55284 0.11306 0.44698 0.0
N456 N 0.52903 0.06124 0.49551 0.0
C457 C 0.51286 0.07096 0.45749 0.0
C458 C 0.52573 0.09915 0.43189 0.0
C459 C 0.13862 0.16758 0.0137 0.0
C460 C 0.12817 0.14029 0.04526 0.0
C461 C 0.12198 0.17898 0.0048 0.0
C462 C 0.09413 0.16361 0.02709 0.0
H463 H 0.15997 0.1804 -0.00205 0.0
H464 H 0.13117 0.20015 0.98181 0.0
S465 S 0.05642 0.09053 0.10273 0.0
N466 N 0.08799 0.09777 0.09146 0.0
N467 N 0.05672 0.11903 0.07608 0.0
C468 C 0.08334 0.1361 0.05649 0.0
C469 C 0.10033 0.12452 0.06534 0.0
C470 C 0.90174 0.96475 0.00854 0.0
C471 C 0.91727 0.95224 0.02683 0.0
C472 C 0.91319 0.99277 0.0172 0.0
C473 C 0.94066 1.00951 0.0444 0.0
H474 H 0.88044 0.95281 -0.01083 0.0
H475 H 0.90028 1.00134 0.00488 0.0
S476 S 0.99078 0.98737 0.08943 0.0
N477 N 0.96213 0.95924 0.06672 0.0
N478 N 0.98347 1.01174 0.08159 0.0
C479 C 0.95657 0.9974 0.06011 0.0
C480 C 0.94495 0.96887 0.05157 0.0
C481 C 0.08836 0.94292 0.01394 0.0
C482 C 0.07175 0.95375 0.0428 0.0
C483 C 0.11634 0.95932 0.00459 0.0
C484 C 0.12897 0.9873 0.02362 0.0
H485 H 0.07971 0.92146 0.00078 0.0
H486 H 0.12815 0.94982 0.98383 0.0
S487 S 0.09418 0.02593 0.09191 0.0
N488 N 0.06974 0.99437 0.08337 0.0
N489 N 0.1222 1.02524 0.067 0.0
C490 C 0.11247 0.99847 0.05036 0.0
C491 C 0.08395 0.98171 0.05976 0.0
C492 C 0.78919 0.51244 0.34728 0.0
C493 C 0.76113 0.49635 0.36085 0.0
C494 C 0.80623 0.5016 0.36066 0.0
C495 C 0.796 0.47413 0.38665 0.0
H496 H 0.79823 0.53375 0.32805 0.0
H497 H 0.82766 0.51489 0.35023 0.0
S498 S 0.7242 0.423 0.42936 0.0
N499 N 0.72399 0.4512 0.40094 0.0
N500 N 0.75605 0.43097 0.42504 0.0
C501 C 0.76803 0.45768 0.39865 0.0
C502 C 0.75063 0.46874 0.3863 0.0
C503 C 0.57976 0.32707 0.32246 0.0
C504 C 0.60453 0.34347 0.38327 0.0
C505 C 0.56889 0.29912 0.3136 0.0
C506 C 0.58224 0.28632 0.36594 0.0
H507 H 0.56871 0.33595 0.28074 0.0
H508 H 0.54978 0.2875 0.26547 0.0
S509 S 0.64738 0.32034 0.54035 0.0
N510 N 0.64182 0.34495 0.49978 0.0
N511 N 0.62166 0.29262 0.48367 0.0
C512 C 0.6071 0.3026 0.42752 0.0
C513 C 0.61816 0.33108 0.43594 0.0
C514 C 0.75459 0.27736 0.35454 0.0
C515 C 0.73797 0.2883 0.38115 0.0
C516 C 0.78258 0.29371 0.34489 0.0
C517 C 0.79523 0.32176 0.36151 0.0
H518 H 0.74594 0.25585 0.34338 0.0
H519 H 0.79438 0.28413 0.32604 0.0
S520 S 0.7605 0.36069 0.42267 0.0
N521 N 0.73603 0.32912 0.41649 0.0
N522 N 0.78851 0.35987 0.39986 0.0
C523 C 0.77875 0.33304 0.38596 0.0
C524 C 0.75022 0.31633 0.39551 0.0
C525 C 0.47297 0.83499 0.68495 0.0
C526 C 0.46226 0.80743 0.71087 0.0
C527 C 0.45644 0.84651 0.67605 0.0
C528 C 0.42843 0.83099 0.69276 0.0
H529 H 0.49444 0.84793 0.67366 0.0
H530 H 0.46583 0.86788 0.65756 0.0
S531 S 0.39007 0.75729 0.75273 0.0
N532 N 0.4217 0.76456 0.74592 0.0
N533 N 0.39062 0.78604 0.73068 0.0
C534 C 0.41739 0.80323 0.71664 0.0
C535 C 0.43427 0.79152 0.72543 0.0
C536 C 0.23485 0.6321 0.68401 0.0
C537 C 0.2504 0.61957 0.70036 0.0
C538 C 0.24637 0.66014 0.69222 0.0
C539 C 0.27395 0.67689 0.71706 0.0
H540 H 0.21346 0.62015 0.66658 0.0
H541 H 0.23344 0.66874 0.68139 0.0
S542 S 0.32416 0.6547 0.75634 0.0
N543 N 0.2954 0.62657 0.73581 0.0
N544 N 0.31686 0.67909 0.74991 0.0
C545 C 0.28988 0.66476 0.73082 0.0
C546 C 0.27818 0.63621 0.72269 0.0
C547 C 0.44922 0.6263 0.67302 0.0
C548 C 0.46208 0.65421 0.69494 0.0
C549 C 0.42124 0.61004 0.6836 0.0
C550 C 0.40488 0.62094 0.7166 0.0
H551 H 0.46083 0.61676 0.6491 0.0
H552 H 0.4124 0.58862 0.66816 0.0
S553 S 0.42797 0.69302 0.77384 0.0
N554 N 0.4558 0.69219 0.74505 0.0
N555 N 0.40334 0.66157 0.76378 0.0
C556 C 0.41732 0.64884 0.73626 0.0
C557 C 0.44583 0.66546 0.7256 0.0
C558 C 1.01795 0.18862 0.55317 0.0
C559 C 1.03789 0.19403 0.64526 0.0
C560 C 1.02448 0.19467 0.42335 0.0
C561 C 0.05123 0.20648 0.38072 0.0
H562 H 0.9971 0.17966 0.58145 0.0
H563 H 1.00842 0.19018 0.35612 0.0
S564 S 0.11091 0.22407 0.58281 0.0
N565 N 0.08548 0.21136 0.6841 0.0
N566 N 0.09775 0.22295 0.44077 0.0
C567 C 0.07135 0.21185 0.47163 0.0
C568 C 0.06469 0.20559 0.60372 0.0
C569 C 0.89256 0.85093 0.55611 0.0
C570 C 0.88734 0.86569 0.64762 0.0
C571 C 0.88661 0.85149 0.42621 0.0
C572 C 0.87511 0.86674 0.38301 0.0
H573 H 0.90128 0.83879 0.5849 0.0
H574 H 0.89093 0.83972 0.3594 0.0
S575 S 0.85821 0.90957 0.5834 0.0
N576 N 0.87059 0.89654 0.68531 0.0
N577 N 0.8592 0.89737 0.44178 0.0
C578 C 0.86996 0.88174 0.47332 0.0
C579 C 0.87611 0.88125 0.60548 0.0
C580 C 0.20231 1.01805 0.59911 0.0
C581 C 0.21687 0.04489 0.64105 0.0
C582 C 0.2017 1.0115 0.46909 0.0
C583 C 0.21552 0.03155 0.37638 0.0
H584 H 0.1913 1.00197 0.66709 0.0
H585 H 0.19036 0.99057 0.44121 0.0
S586 S 0.25612 0.10499 0.43642 0.0
N587 N 0.24521 0.09166 0.57918 0.0
N588 N 0.24379 0.07945 0.33598 0.0
C589 C 0.22991 0.05848 0.4172 0.0
C590 C 0.23066 0.06512 0.54923 0.0
C591 C 0.69151 0.52803 0.75393 0.0
C592 C 0.71818 0.53923 0.71098 0.0
C593 C 0.68497 0.52204 0.88378 0.0
C594 C 0.70482 0.5269 0.97553 0.0
H595 H 0.67553 0.52397 0.68693 0.0
H596 H 0.66419 0.51356 0.91234 0.0
S597 S 0.77759 0.5552 0.91209 0.0
N598 N 0.76452 0.55451 0.77034 0.0
N599 N 0.75223 0.54303 0.01371 0.0
C600 C 0.73154 0.53785 0.93366 0.0
C601 C 0.73821 0.54405 0.80156 0.0
C602 C 0.53406 0.2124 0.80969 0.0
C603 C 0.54134 0.19945 0.71682 0.0
C604 C 0.54036 0.21221 0.93966 0.0
C605 C 0.5541 0.19901 0.98142 0.0
H606 H 0.52336 0.2227 0.78196 0.0
H607 H 0.53437 0.22244 0.00781 0.0
S608 S 0.57807 0.16247 0.77629 0.0
N609 N 0.56347 0.17345 0.67609 0.0
N610 N 0.57501 0.17289 0.9191 0.0
C611 C 0.56158 0.18611 0.88942 0.0
C612 C 0.55529 0.1864 0.75746 0.0
C613 C 0.86862 0.34552 0.8107 0.0
C614 C 0.88243 0.36555 0.71783 0.0
C615 C 0.86915 0.35212 0.94062 0.0
C616 C 0.88357 0.37898 0.98234 0.0
H617 H 0.85734 0.32458 0.78299 0.0
H618 H 0.85819 0.33604 0.00872 0.0
S619 S 0.92295 0.439 0.77742 0.0
N620 N 0.91074 0.41343 0.67719 0.0
N621 N 0.9119 0.42573 0.92016 0.0
C622 C 0.89741 0.39917 0.89043 0.0
C623 C 0.89679 0.39249 0.75849 0.0
C624 C 0.39724 0.87368 0.26893 0.0
C625 C 0.3704 0.861 0.31089 0.0
C626 C 0.40375 0.8797 0.13886 0.0
C627 C 0.38364 0.87316 0.04613 0.0
H628 H 0.41336 0.87902 0.33693 0.0
H629 H 0.42468 0.8896 0.11096 0.0
S630 S 0.31019 0.83927 0.10619 0.0
N631 N 0.32358 0.84188 0.249 0.0
N632 N 0.33571 0.85284 0.0057 0.0
C633 C 0.35672 0.86023 0.08696 0.0
C634 C 0.35012 0.85426 0.21905 0.0
C635 C 0.20156 0.54569 0.15174 0.0
C636 C 0.20895 0.53289 0.05872 0.0
C637 C 0.20756 0.54517 0.2818 0.0
C638 C 0.22108 0.53173 0.3234 0.0
H639 H 0.19098 0.55613 0.12411 0.0
H640 H 0.20154 0.55534 0.35011 0.0
S641 S 0.24536 0.49556 0.11777 0.0
N642 N 0.23106 0.50688 0.01756 0.0
N643 N 0.24198 0.50562 0.26088 0.0
C644 C 0.22869 0.51898 0.23126 0.0
C645 C 0.22273 0.51964 0.09919 0.0
C646 C 0.56404 0.72921 0.22048 0.0
C647 C 0.5488 0.70942 0.31203 0.0
C648 C 0.56337 0.72266 0.09067 0.0
C649 C 0.54752 0.69604 0.04759 0.0
H650 H 0.57665 0.74995 0.24918 0.0
H651 H 0.57552 0.73859 0.02381 0.0
S652 S 0.50325 0.63684 0.24812 0.0
N653 N 0.51684 0.66216 0.34988 0.0
N654 N 0.5158 0.64984 0.10653 0.0
C655 C 0.53203 0.67608 0.13795 0.0
C656 C 0.53263 0.68276 0.27002 0.0
loop_
_geom_bond_atom_site_label_1
_geom_bond_atom_site_label_2
_geom_bond_distance
_geom_bond_site_symmetry_2
_ccdc_geom_bond_type
Sm0 C2 2.846 1_554 S
Sm0 O20 2.543 1_554 S
Sm0 O21 2.450 . S
Sm0 O22 2.681 . S
Sm0 O23 2.464 . S
Sm0 O24 2.396 . S
Sm0 O28 2.386 1_554 S
Sm0 O31 2.408 . S
Sm1 C11 2.846 1_556 S
Sm1 O22 2.386 1_656 S
Sm1 O25 2.408 1_556 S
Sm1 O26 2.543 1_556 S
Sm1 O27 2.450 . S
Sm1 O28 2.681 1_655 S
Sm1 O29 2.464 . S
Sm1 O30 2.396 1_655 S
C2 Sm0 2.846 1_556 S
C2 C3 1.506 . S
C2 O20 1.261 . S
C2 O21 1.242 1_556 S
C3 C2 1.506 . S
C3 C4 1.358 . S
C3 C8 1.382 1_556 S
C4 C3 1.358 . S
C4 C5 1.385 . S
C4 H32 0.930 . S
C5 C4 1.385 . S
C5 C6 1.395 . S
C5 H33 0.929 . S
C6 C5 1.395 . S
C6 C7 1.335 1_556 S
C7 C6 1.335 1_554 S
C7 C8 1.398 . S
C7 H34 0.930 . S
C8 C3 1.382 1_554 S
C8 C7 1.398 . S
C8 H35 0.929 . S
C9 O22 1.271 . S
C9 O23 1.251 . S
C10 O24 1.252 1_655 S
C10 O25 1.272 . S
C11 Sm1 2.846 1_554 S
C11 C12 1.506 . S
C11 O26 1.261 . S
C11 O27 1.242 1_554 S
C12 C11 1.506 . S
C12 C13 1.358 . S
C12 C17 1.382 1_554 S
C13 C12 1.358 . S
C13 C14 1.385 . S
C13 H36 0.930 . S
C14 C13 1.385 . S
C14 C15 1.395 . S
C14 H37 0.929 . S
C15 C14 1.395 . S
C15 C16 1.335 1_554 S
C16 C15 1.335 1_556 S
C16 C17 1.398 . S
C16 H38 0.930 . S
C17 C12 1.382 1_556 S
C17 C16 1.398 . S
C17 H39 0.929 . S
C18 O28 1.276 . S
C18 O29 1.243 1_455 S
C19 O30 1.252 . S
C19 O31 1.272 1_556 S
O20 Sm0 2.543 1_556 S
O20 C2 1.261 . S
O21 Sm0 2.450 . S
O21 C2 1.242 1_554 S
O22 Sm0 2.681 . S
O22 Sm1 2.386 1_454 S
O22 C9 1.271 . S
O23 Sm0 2.464 . S
O23 C9 1.251 . S
O24 Sm0 2.396 . S
O24 C10 1.252 1_455 S
O25 Sm1 2.408 1_554 S
O25 C10 1.272 . S
O26 Sm1 2.543 1_554 S
O26 C11 1.261 . S
O27 Sm1 2.450 . S
O27 C11 1.242 1_556 S
O28 Sm0 2.386 1_556 S
O28 Sm1 2.681 1_455 S
O28 C18 1.276 . S
O29 Sm1 2.464 . S
O29 C18 1.243 1_655 S
O30 Sm1 2.396 1_455 S
O30 C19 1.252 . S
O31 Sm0 2.408 . S
O31 C19 1.272 1_554 S
H32 C4 0.930 . S
H33 C5 0.929 . S
H34 C7 0.930 . S
H35 C8 0.929 . S
H36 C13 0.930 . S
H37 C14 0.929 . S
H38 C16 0.930 . S
H39 C17 0.929 . S
Sm40 C42 2.846 1_554 S
Sm40 O60 2.543 1_554 S
Sm40 O61 2.450 . S
Sm40 O62 2.681 . S
Sm40 O63 2.464 . S
Sm40 O64 2.396 . S
Sm40 O68 2.386 1_554 S
Sm40 O71 2.408 . S
Sm41 C51 2.846 1_556 S
Sm41 O62 2.386 1_556 S
Sm41 O65 2.408 1_556 S
Sm41 O66 2.543 1_556 S
Sm41 O67 2.450 . S
Sm41 O68 2.681 . S
Sm41 O69 2.464 . S
Sm41 O70 2.396 . S
C42 Sm40 2.846 1_556 S
C42 C43 1.506 . S
C42 O60 1.261 . S
C42 O61 1.242 1_556 S
C43 C42 1.506 . S
C43 C44 1.358 . S
C43 C48 1.382 1_556 S
C44 C43 1.358 . S
C44 C45 1.385 . S
C44 H72 0.930 . S
C45 C44 1.385 . S
C45 C46 1.395 . S
C45 H73 0.929 . S
C46 C45 1.395 . S
C46 C47 1.335 1_556 S
C47 C46 1.335 1_554 S
C47 C48 1.398 . S
C47 H74 0.930 . S
C48 C43 1.382 1_554 S
C48 C47 1.398 . S
C48 H75 0.929 . S
C49 O62 1.271 . S
C49 O63 1.251 . S
C50 O64 1.252 . S
C50 O65 1.272 . S
C51 Sm41 2.846 1_554 S
C51 C52 1.506 . S
C51 O66 1.261 . S
C51 O67 1.242 1_554 S
C52 C51 1.506 . S
C52 C53 1.358 . S
C52 C57 1.382 1_554 S
C53 C52 1.358 . S
C53 C54 1.385 . S
C53 H76 0.930 . S
C54 C53 1.385 . S
C54 C55 1.395 1_655 S
C54 H77 0.929 . S
C55 C54 1.395 1_455 S
C55 C56 1.335 1_454 S
C56 C55 1.335 1_656 S
C56 C57 1.398 . S
C56 H78 0.930 1_655 S
C57 C52 1.382 1_556 S
C57 C56 1.398 . S
C57 H79 0.929 . S
C58 O68 1.271 . S
C58 O69 1.251 . S
C59 O70 1.252 . S
C59 O71 1.272 1_556 S
O60 Sm40 2.543 1_556 S
O60 C42 1.261 . S
O61 Sm40 2.450 . S
O61 C42 1.242 1_554 S
O62 Sm40 2.681 . S
O62 Sm41 2.386 1_554 S
O62 C49 1.271 . S
O63 Sm40 2.464 . S
O63 C49 1.251 . S
O64 Sm40 2.396 . S
O64 C50 1.252 . S
O65 Sm41 2.408 1_554 S
O65 C50 1.272 . S
O66 Sm41 2.543 1_554 S
O66 C51 1.261 . S
O67 Sm41 2.450 . S
O67 C51 1.242 1_556 S
O68 Sm40 2.386 1_556 S
O68 Sm41 2.681 . S
O68 C58 1.271 . S
O69 Sm41 2.464 . S
O69 C58 1.251 . S
O70 Sm41 2.396 . S
O70 C59 1.252 . S
O71 Sm40 2.408 . S
O71 C59 1.272 1_554 S
H72 C44 0.930 . S
H73 C45 0.929 . S
H74 C47 0.930 . S
H75 C48 0.929 . S
H76 C53 0.930 . S
H77 C54 0.929 . S
H78 C56 0.930 1_455 S
H79 C57 0.929 . S
Sm80 C82 2.846 1_554 S
Sm80 O100 2.543 1_554 S
Sm80 O101 2.450 . S
Sm80 O102 2.681 1_565 S
Sm80 O103 2.464 . S
Sm80 O104 2.396 1_565 S
Sm80 O108 2.386 1_564 S
Sm80 O111 2.408 . S
Sm81 C91 2.846 1_556 S
Sm81 O102 2.386 1_556 S
Sm81 O105 2.408 1_556 S
Sm81 O106 2.543 1_556 S
Sm81 O107 2.450 . S
Sm81 O108 2.681 . S
Sm81 O109 2.464 . S
Sm81 O110 2.396 . S
C82 Sm80 2.846 1_556 S
C82 C83 1.506 . S
C82 O100 1.261 . S
C82 O101 1.242 1_556 S
C83 C82 1.506 . S
C83 C84 1.358 . S
C83 C88 1.382 1_556 S
C84 C83 1.358 . S
C84 C85 1.385 . S
C84 H112 0.930 . S
C85 C84 1.385 . S
C85 C86 1.395 . S
C85 H113 0.929 . S
C86 C85 1.395 . S
C86 C87 1.335 1_556 S
C87 C86 1.335 1_554 S
C87 C88 1.398 . S
C87 H114 0.930 . S
C88 C83 1.382 1_554 S
C88 C87 1.398 . S
C88 H115 0.929 . S
C89 O102 1.292 . S
C89 O103 1.213 1_545 S
C90 O104 1.252 . S
C90 O105 1.272 . S
C91 Sm81 2.846 1_554 S
C91 C92 1.506 . S
C91 O106 1.261 . S
C91 O107 1.242 1_554 S
C92 C91 1.506 . S
C92 C93 1.358 . S
C92 C97 1.382 1_554 S
C93 C92 1.358 . S
C93 C94 1.385 . S
C93 H116 0.930 . S
C94 C93 1.385 . S
C94 C95 1.395 . S
C94 H117 0.929 . S
C95 C94 1.395 . S
C95 C96 1.335 1_554 S
C96 C95 1.335 1_556 S
C96 C97 1.398 . S
C96 H118 0.930 . S
C97 C92 1.382 1_556 S
C97 C96 1.398 . S
C97 H119 0.929 . S
C98 O108 1.271 . S
C98 O109 1.251 . S
C99 O110 1.252 1_565 S
C99 O111 1.272 1_556 S
O100 Sm80 2.543 1_556 S
O100 C82 1.261 . S
O101 Sm80 2.450 . S
O101 C82 1.242 1_554 S
O102 Sm80 2.681 1_545 S
O102 Sm81 2.386 1_554 S
O102 C89 1.292 . S
O103 Sm80 2.464 . S
O103 C89 1.213 1_565 S
O104 Sm80 2.396 1_545 S
O104 C90 1.252 . S
O105 Sm81 2.408 1_554 S
O105 C90 1.272 . S
O106 Sm81 2.543 1_554 S
O106 C91 1.261 . S
O107 Sm81 2.450 . S
O107 C91 1.242 1_556 S
O108 Sm80 2.386 1_546 S
O108 Sm81 2.681 . S
O108 C98 1.271 . S
O109 Sm81 2.464 . S
O109 C98 1.251 . S
O110 Sm81 2.396 . S
O110 C99 1.252 1_545 S
O111 Sm80 2.408 . S
O111 C99 1.272 1_554 S
H112 C84 0.930 . S
H113 C85 0.929 . S
H114 C87 0.930 . S
H115 C88 0.929 . S
H116 C93 0.930 . S
H117 C94 0.929 . S
H118 C96 0.930 . S
H119 C97 0.929 . S
Sm120 C122 2.846 . S
Sm120 O140 2.543 . S
Sm120 O141 2.450 . S
Sm120 O142 2.681 . S
Sm120 O143 2.464 . S
Sm120 O144 2.396 . S
Sm120 O148 2.386 . S
Sm120 O151 2.408 . S
Sm121 C131 2.846 . S
Sm121 O142 2.386 . S
Sm121 O145 2.408 . S
Sm121 O146 2.543 . S
Sm121 O147 2.450 . S
Sm121 O148 2.681 . S
Sm121 O149 2.464 . S
Sm121 O150 2.396 . S
C122 Sm120 2.846 . S
C122 C123 1.506 . S
C122 O140 1.261 . S
C122 O141 1.242 . S
C123 C122 1.506 . S
C123 C124 1.358 . S
C123 C128 1.382 . S
C124 C123 1.358 . S
C124 C125 1.385 . S
C124 H152 0.930 . S
C125 C124 1.385 . S
C125 C126 1.395 . S
C125 H153 0.929 . S
C126 C125 1.395 . S
C126 C127 1.335 . S
C127 C126 1.335 . S
C127 C128 1.398 . S
C127 H154 0.930 . S
C128 C123 1.382 . S
C128 C127 1.398 . S
C128 H155 0.929 . S
C129 O142 1.271 . S
C129 O143 1.251 . S
C130 O144 1.252 . S
C130 O145 1.272 . S
C131 Sm121 2.846 . S
C131 C132 1.506 . S
C131 O146 1.261 . S
C131 O147 1.242 . S
C132 C131 1.506 . S
C132 C133 1.358 . S
C132 C137 1.382 . S
C133 C132 1.358 . S
C133 C134 1.385 . S
C133 H156 0.930 . S
C134 C133 1.385 . S
C134 C135 1.395 . S
C134 H157 0.929 . S
C135 C134 1.395 . S
C135 C136 1.335 . S
C136 C135 1.335 . S
C136 C137 1.398 . S
C136 H158 0.930 . S
C137 C132 1.382 . S
C137 C136 1.398 . S
C137 H159 0.929 . S
C138 O148 1.271 . S
C138 O149 1.251 . S
C139 O150 1.252 . S
C139 O151 1.272 . S
O140 Sm120 2.543 . S
O140 C122 1.261 . S
O141 Sm120 2.450 . S
O141 C122 1.242 . S
O142 Sm120 2.681 . S
O142 Sm121 2.386 . S
O142 C129 1.271 . S
O143 Sm120 2.464 . S
O143 C129 1.251 . S
O144 Sm120 2.396 . S
O144 C130 1.252 . S
O145 Sm121 2.408 . S
O145 C130 1.272 . S
O146 Sm121 2.543 . S
O146 C131 1.261 . S
O147 Sm121 2.450 . S
O147 C131 1.242 . S
O148 Sm120 2.386 . S
O148 Sm121 2.681 . S
O148 C138 1.271 . S
O149 Sm121 2.464 . S
O149 C138 1.251 . S
O150 Sm121 2.396 . S
O150 C139 1.252 . S
O151 Sm120 2.408 . S
O151 C139 1.272 . S
H152 C124 0.930 . S
H153 C125 0.929 . S
H154 C127 0.930 . S
H155 C128 0.929 . S
H156 C133 0.930 . S
H157 C134 0.929 . S
H158 C136 0.930 . S
H159 C137 0.929 . S
Sm160 C162 2.846 . S
Sm160 O180 2.543 . S
Sm160 O181 2.450 . S
Sm160 O182 2.681 . S
Sm160 O183 2.464 . S
Sm160 O184 2.396 . S
Sm160 O188 2.386 . S
Sm160 O191 2.408 . S
Sm161 C171 2.846 . S
Sm161 O182 2.386 . S
Sm161 O185 2.408 . S
Sm161 O186 2.543 . S
Sm161 O187 2.450 . S
Sm161 O188 2.681 . S
Sm161 O189 2.464 . S
Sm161 O190 2.396 . S
C162 Sm160 2.846 . S
C162 C163 1.506 . S
C162 O180 1.261 . S
C162 O181 1.242 . S
C163 C162 1.506 . S
C163 C164 1.358 . S
C163 C168 1.382 . S
C164 C163 1.358 . S
C164 C165 1.385 . S
C164 H192 0.930 . S
C165 C164 1.385 . S
C165 C166 1.395 . S
C165 H193 0.929 . S
C166 C165 1.395 . S
C166 C167 1.335 . S
C167 C166 1.335 . S
C167 C168 1.398 . S
C167 H194 0.930 . S
C168 C163 1.382 . S
C168 C167 1.398 . S
C168 H195 0.929 . S
C169 O182 1.271 . S
C169 O183 1.251 . S
C170 O184 1.252 . S
C170 O185 1.272 . S
C171 Sm161 2.846 . S
C171 C172 1.506 . S
C171 O186 1.261 . S
C171 O187 1.242 . S
C172 C171 1.506 . S
C172 C173 1.358 . S
C172 C177 1.382 . S
C173 C172 1.358 . S
C173 C174 1.385 . S
C173 H196 0.930 . S
C174 C173 1.385 . S
C174 C175 1.395 . S
C174 H197 0.929 . S
C175 C174 1.395 . S
C175 C176 1.335 . S
C176 C175 1.335 . S
C176 C177 1.398 . S
C176 H198 0.930 . S
C177 C172 1.382 . S
C177 C176 1.398 . S
C177 H199 0.929 . S
C178 O188 1.271 . S
C178 O189 1.251 . S
C179 O190 1.252 . S
C179 O191 1.272 . S
O180 Sm160 2.543 . S
O180 C162 1.261 . S
O181 Sm160 2.450 . S
O181 C162 1.242 . S
O182 Sm160 2.681 . S
O182 Sm161 2.386 . S
O182 C169 1.271 . S
O183 Sm160 2.464 . S
O183 C169 1.251 . S
O184 Sm160 2.396 . S
O184 C170 1.252 . S
O185 Sm161 2.408 . S
O185 C170 1.272 . S
O186 Sm161 2.543 . S
O186 C171 1.261 . S
O187 Sm161 2.450 . S
O187 C171 1.242 . S
O188 Sm160 2.386 . S
O188 Sm161 2.681 . S
O188 C178 1.271 . S
O189 Sm161 2.464 . S
O189 C178 1.251 . S
O190 Sm161 2.396 . S
O190 C179 1.252 . S
O191 Sm160 2.408 . S
O191 C179 1.272 . S
H192 C164 0.930 . S
H193 C165 0.929 . S
H194 C167 0.930 . S
H195 C168 0.929 . S
H196 C173 0.930 . S
H197 C174 0.929 . S
H198 C176 0.930 . S
H199 C177 0.929 . S
Sm200 C202 2.846 . S
Sm200 O220 2.543 . S
Sm200 O221 2.450 . S
Sm200 O222 2.681 . S
Sm200 O223 2.464 . S
Sm200 O224 2.396 . S
Sm200 O228 2.386 . S
Sm200 O231 2.408 . S
Sm201 C211 2.846 . S
Sm201 O222 2.386 . S
Sm201 O225 2.408 . S
Sm201 O226 2.543 . S
Sm201 O227 2.450 . S
Sm201 O228 2.681 . S
Sm201 O229 2.464 . S
Sm201 O230 2.396 . S
C202 Sm200 2.846 . S
C202 C203 1.506 . S
C202 O220 1.261 . S
C202 O221 1.242 . S
C203 C202 1.506 . S
C203 C204 1.358 . S
C203 C208 1.382 . S
C204 C203 1.358 . S
C204 C205 1.385 . S
C204 H232 0.930 . S
C205 C204 1.385 . S
C205 C206 1.395 . S
C205 H233 0.929 . S
C206 C205 1.395 . S
C206 C207 1.335 . S
C207 C206 1.335 . S
C207 C208 1.398 . S
C207 H234 0.930 . S
C208 C203 1.382 . S
C208 C207 1.398 . S
C208 H235 0.929 . S
C209 O222 1.271 . S
C209 O223 1.251 . S
C210 O224 1.252 . S
C210 O225 1.272 . S
C211 Sm201 2.846 . S
C211 C212 1.506 . S
C211 O226 1.261 . S
C211 O227 1.242 . S
C212 C211 1.506 . S
C212 C213 1.358 . S
C212 C217 1.382 . S
C213 C212 1.358 . S
C213 C214 1.385 . S
C213 H236 0.930 . S
C214 C213 1.385 . S
C214 C215 1.395 . S
C214 H237 0.929 . S
C215 C214 1.395 . S
C215 C216 1.335 . S
C216 C215 1.335 . S
C216 C217 1.398 . S
C216 H238 0.930 . S
C217 C212 1.382 . S
C217 C216 1.398 . S
C217 H239 0.929 . S
C218 O228 1.271 . S
C218 O229 1.251 . S
C219 O230 1.252 . S
C219 O231 1.272 . S
O220 Sm200 2.543 . S
O220 C202 1.261 . S
O221 Sm200 2.450 . S
O221 C202 1.242 . S
O222 Sm200 2.681 . S
O222 Sm201 2.386 . S
O222 C209 1.271 . S
O223 Sm200 2.464 . S
O223 C209 1.251 . S
O224 Sm200 2.396 . S
O224 C210 1.252 . S
O225 Sm201 2.408 . S
O225 C210 1.272 . S
O226 Sm201 2.543 . S
O226 C211 1.261 . S
O227 Sm201 2.450 . S
O227 C211 1.242 . S
O228 Sm200 2.386 . S
O228 Sm201 2.681 . S
O228 C218 1.271 . S
O229 Sm201 2.464 . S
O229 C218 1.251 . S
O230 Sm201 2.396 . S
O230 C219 1.252 . S
O231 Sm200 2.408 . S
O231 C219 1.272 . S
H232 C204 0.930 . S
H233 C205 0.929 . S
H234 C207 0.930 . S
H235 C208 0.929 . S
H236 C213 0.930 . S
H237 C214 0.929 . S
H238 C216 0.930 . S
H239 C217 0.929 . S
Sm240 C242 2.846 . S
Sm240 O260 2.543 . S
Sm240 O261 2.450 . S
Sm240 O262 2.681 . S
Sm240 O263 2.464 . S
Sm240 O264 2.396 . S
Sm240 O268 2.386 . S
Sm240 O271 2.408 . S
Sm241 C251 2.846 . S
Sm241 O262 2.386 . S
Sm241 O265 2.408 . S
Sm241 O266 2.543 . S
Sm241 O267 2.450 . S
Sm241 O268 2.681 . S
Sm241 O269 2.464 . S
Sm241 O270 2.396 . S
C242 Sm240 2.846 . S
C242 C243 1.506 . S
C242 O260 1.261 . S
C242 O261 1.242 . S
C243 C242 1.506 . S
C243 C244 1.358 . S
C243 C248 1.382 . S
C244 C243 1.358 . S
C244 C245 1.385 . S
C244 H272 0.930 . S
C245 C244 1.385 . S
C245 C246 1.395 1_565 S
C245 H273 0.929 . S
C246 C245 1.395 1_545 S
C246 C247 1.322 1_545 S
C247 C246 1.322 1_565 S
C247 C248 1.422 . S
C247 H274 0.920 1_565 S
C248 C243 1.382 . S
C248 C247 1.422 . S
C248 H275 0.929 . S
C249 O262 1.271 . S
C249 O263 1.251 . S
C250 O264 1.252 . S
C250 O265 1.272 . S
C251 Sm241 2.846 . S
C251 C252 1.506 . S
C251 O266 1.261 . S
C251 O267 1.242 . S
C252 C251 1.506 . S
C252 C253 1.358 . S
C252 C257 1.382 . S
C253 C252 1.358 . S
C253 C254 1.385 . S
C253 H276 0.930 . S
C254 C253 1.385 . S
C254 C255 1.395 . S
C254 H277 0.929 . S
C255 C254 1.395 . S
C255 C256 1.335 . S
C256 C255 1.335 . S
C256 C257 1.398 . S
C256 H278 0.930 . S
C257 C252 1.382 . S
C257 C256 1.398 . S
C257 H279 0.929 . S
C258 O268 1.271 . S
C258 O269 1.251 . S
C259 O270 1.252 . S
C259 O271 1.272 . S
O260 Sm240 2.543 . S
O260 C242 1.261 . S
O261 Sm240 2.450 . S
O261 C242 1.242 . S
O262 Sm240 2.681 . S
O262 Sm241 2.386 . S
O262 C249 1.271 . S
O263 Sm240 2.464 . S
O263 C249 1.251 . S
O264 Sm240 2.396 . S
O264 C250 1.252 . S
O265 Sm241 2.408 . S
O265 C250 1.272 . S
O266 Sm241 2.543 . S
O266 C251 1.261 . S
O267 Sm241 2.450 . S
O267 C251 1.242 . S
O268 Sm240 2.386 . S
O268 Sm241 2.681 . S
O268 C258 1.271 . S
O269 Sm241 2.464 . S
O269 C258 1.251 . S
O270 Sm241 2.396 . S
O270 C259 1.252 . S
O271 Sm240 2.408 . S
O271 C259 1.272 . S
H272 C244 0.930 . S
H273 C245 0.929 . S
H274 C247 0.920 1_545 S
H275 C248 0.929 . S
H276 C253 0.930 . S
H277 C254 0.929 . S
H278 C256 0.930 . S
H279 C257 0.929 . S
Sm280 C282 2.846 . S
Sm280 O300 2.543 . S
Sm280 O301 2.450 . S
Sm280 O302 2.681 . S
Sm280 O303 2.464 . S
Sm280 O304 2.396 . S
Sm280 O308 2.386 . S
Sm280 O311 2.408 . S
Sm281 C291 2.846 . S
Sm281 O302 2.386 . S
Sm281 O305 2.408 . S
Sm281 O306 2.543 . S
Sm281 O307 2.450 . S
Sm281 O308 2.681 . S
Sm281 O309 2.464 . S
Sm281 O310 2.396 . S
C282 Sm280 2.846 . S
C282 C283 1.506 . S
C282 O300 1.261 . S
C282 O301 1.242 . S
C283 C282 1.506 . S
C283 C284 1.358 . S
C283 C288 1.382 . S
C284 C283 1.358 . S
C284 C285 1.385 . S
C284 H312 0.930 . S
C285 C284 1.385 . S
C285 C286 1.395 . S
C285 H313 0.929 . S
C286 C285 1.395 . S
C286 C287 1.335 . S
C287 C286 1.335 . S
C287 C288 1.398 . S
C287 H314 0.930 . S
C288 C283 1.382 . S
C288 C287 1.398 . S
C288 H315 0.929 . S
C289 O302 1.271 . S
C289 O303 1.251 . S
C290 O304 1.252 . S
C290 O305 1.272 . S
C291 Sm281 2.846 . S
C291 C292 1.506 . S
C291 O306 1.261 . S
C291 O307 1.242 . S
C292 C291 1.506 . S
C292 C293 1.358 . S
C292 C297 1.382 . S
C293 C292 1.358 . S
C293 C294 1.385 . S
C293 H316 0.930 . S
C294 C293 1.385 . S
C294 C295 1.395 . S
C294 H317 0.929 . S
C295 C294 1.395 . S
C295 C296 1.335 . S
C296 C295 1.335 . S
C296 C297 1.398 . S
C296 H318 0.930 . S
C297 C292 1.382 . S
C297 C296 1.398 . S
C297 H319 0.929 . S
C298 O308 1.271 . S
C298 O309 1.251 . S
C299 O310 1.252 . S
C299 O311 1.272 . S
O300 Sm280 2.543 . S
O300 C282 1.261 . S
O301 Sm280 2.450 . S
O301 C282 1.242 . S
O302 Sm280 2.681 . S
O302 Sm281 2.386 . S
O302 C289 1.271 . S
O303 Sm280 2.464 . S
O303 C289 1.251 . S
O304 Sm280 2.396 . S
O304 C290 1.252 . S
O305 Sm281 2.408 . S
O305 C290 1.272 . S
O306 Sm281 2.543 . S
O306 C291 1.261 . S
O307 Sm281 2.450 . S
O307 C291 1.242 . S
O308 Sm280 2.386 . S
O308 Sm281 2.681 . S
O308 C298 1.271 . S
O309 Sm281 2.464 . S
O309 C298 1.251 . S
O310 Sm281 2.396 . S
O310 C299 1.252 . S
O311 Sm280 2.408 . S
O311 C299 1.272 . S
H312 C284 0.930 . S
H313 C285 0.929 . S
H314 C287 0.930 . S
H315 C288 0.929 . S
H316 C293 0.930 . S
H317 C294 0.929 . S
H318 C296 0.930 . S
H319 C297 0.929 . S
Sm320 C322 2.846 . S
Sm320 O340 2.543 . S
Sm320 O341 2.450 . S
Sm320 O342 2.681 . S
Sm320 O343 2.464 . S
Sm320 O344 2.396 . S
Sm320 O348 2.386 . S
Sm320 O351 2.408 . S
Sm321 C331 2.846 . S
Sm321 O342 2.386 . S
Sm321 O345 2.408 . S
Sm321 O346 2.543 . S
Sm321 O347 2.450 . S
Sm321 O348 2.681 . S
Sm321 O349 2.464 . S
Sm321 O350 2.396 . S
C322 Sm320 2.846 . S
C322 C323 1.506 . S
C322 O340 1.261 . S
C322 O341 1.242 . S
C323 C322 1.506 . S
C323 C324 1.358 . S
C323 C328 1.382 . S
C324 C323 1.358 . S
C324 C325 1.385 . S
C324 H352 0.930 . S
C325 C324 1.385 . S
C325 C326 1.395 . S
C325 H353 0.929 . S
C326 C325 1.395 . S
C326 C327 1.335 . S
C327 C326 1.335 . S
C327 C328 1.398 . S
C327 H354 0.930 . S
C328 C323 1.382 . S
C328 C327 1.398 . S
C328 H355 0.929 . S
C329 O342 1.271 . S
C329 O343 1.251 . S
C330 O344 1.252 . S
C330 O345 1.272 . S
C331 Sm321 2.846 . S
C331 C332 1.506 . S
C331 O346 1.261 . S
C331 O347 1.242 . S
C332 C331 1.506 . S
C332 C333 1.358 . S
C332 C337 1.382 . S
C333 C332 1.358 . S
C333 C334 1.385 . S
C333 H356 0.930 . S
C334 C333 1.385 . S
C334 C335 1.395 . S
C334 H357 0.929 . S
C335 C334 1.395 . S
C335 C336 1.335 . S
C336 C335 1.335 . S
C336 C337 1.398 . S
C336 H358 0.930 . S
C337 C332 1.382 . S
C337 C336 1.398 . S
C337 H359 0.929 . S
C338 O348 1.271 . S
C338 O349 1.251 . S
C339 O350 1.252 . S
C339 O351 1.272 . S
O340 Sm320 2.543 . S
O340 C322 1.261 . S
O341 Sm320 2.450 . S
O341 C322 1.242 . S
O342 Sm320 2.681 . S
O342 Sm321 2.386 . S
O342 C329 1.271 . S
O343 Sm320 2.464 . S
O343 C329 1.251 . S
O344 Sm320 2.396 . S
O344 C330 1.252 . S
O345 Sm321 2.408 . S
O345 C330 1.272 . S
O346 Sm321 2.543 . S
O346 C331 1.261 . S
O347 Sm321 2.450 . S
O347 C331 1.242 . S
O348 Sm320 2.386 . S
O348 Sm321 2.681 . S
O348 C338 1.271 . S
O349 Sm321 2.464 . S
O349 C338 1.251 . S
O350 Sm321 2.396 . S
O350 C339 1.252 . S
O351 Sm320 2.408 . S
O351 C339 1.272 . S
H352 C324 0.930 . S
H353 C325 0.929 . S
H354 C327 0.930 . S
H355 C328 0.929 . S
H356 C333 0.930 . S
H357 C334 0.929 . S
H358 C336 0.930 . S
H359 C337 0.929 . S
C360 C361 1.369 . S
C360 C362 1.419 . S
C360 H364 0.930 . S
C361 C360 1.369 . S
C361 C370 1.429 . S
C362 C360 1.419 . S
C362 C363 1.363 . S
C362 H365 0.929 . S
C363 C362 1.363 . S
C363 C369 1.428 . S
H364 C360 0.930 . S
H365 C362 0.929 . S
S366 N367 1.613 . S
S366 N368 1.610 1_554 S
N367 S366 1.613 . S
N367 C370 1.350 1_554 S
N368 S366 1.610 1_556 S
N368 C369 1.351 . S
C369 C363 1.428 . S
C369 N368 1.351 . S
C369 C370 1.434 . S
C370 C361 1.429 . S
C370 N367 1.350 1_556 S
C370 C369 1.434 . S
C371 C372 1.369 . S
C371 C373 1.419 . S
C371 H375 0.930 . S
C372 C371 1.369 . S
C372 C381 1.429 . S
C373 C371 1.419 . S
C373 C374 1.363 . S
C373 H376 0.929 . S
C374 C373 1.363 . S
C374 C380 1.428 . S
H375 C371 0.930 . S
H376 C373 0.929 . S
S377 N378 1.613 . S
S377 N379 1.610 . S
N378 S377 1.613 . S
N378 C381 1.350 . S
N379 S377 1.610 . S
N379 C380 1.351 . S
C380 C374 1.428 . S
C380 N379 1.351 . S
C380 C381 1.434 . S
C381 C372 1.429 . S
C381 N378 1.350 . S
C381 C380 1.434 . S
C382 C383 1.369 . S
C382 C384 1.419 . S
C382 H386 0.927 1_556 S
C383 C382 1.369 . S
C383 C392 1.429 . S
C384 C382 1.419 . S
C384 C385 1.363 . S
C384 H387 0.929 . S
C385 C384 1.363 . S
C385 C391 1.428 . S
H386 C382 0.927 1_554 S
H387 C384 0.929 . S
S388 N389 1.613 . S
S388 N390 1.610 . S
N389 S388 1.613 . S
N389 C392 1.350 . S
N390 S388 1.610 . S
N390 C391 1.351 . S
C391 C385 1.428 . S
C391 N390 1.351 . S
C391 C392 1.434 . S
C392 C383 1.429 . S
C392 N389 1.350 . S
C392 C391 1.434 . S
C393 C394 1.369 . S
C393 C395 1.419 . S
C393 H397 0.930 . S
C394 C393 1.369 . S
C394 C403 1.429 . S
C395 C393 1.419 . S
C395 C396 1.363 . S
C395 H398 0.929 . S
C396 C395 1.363 . S
C396 C402 1.428 . S
H397 C393 0.930 . S
H398 C395 0.929 . S
S399 N400 1.613 . S
S399 N401 1.610 . S
N400 S399 1.613 . S
N400 C403 1.350 1_556 S
N401 S399 1.610 . S
N401 C402 1.351 1_556 S
C402 C396 1.428 . S
C402 N401 1.351 1_554 S
C402 C403 1.434 . S
C403 C394 1.429 . S
C403 N400 1.350 1_554 S
C403 C402 1.434 . S
C404 C405 1.369 . S
C404 C406 1.419 . S
C404 H408 0.930 . S
C405 C404 1.369 . S
C405 C414 1.429 . S
C406 C404 1.419 . S
C406 C407 1.363 . S
C406 H409 0.929 1_655 S
C407 C406 1.363 . S
C407 C413 1.428 . S
H408 C404 0.930 . S
H409 C406 0.929 1_455 S
S410 N411 1.612 1_556 S
S410 N412 1.611 . S
N411 S410 1.612 1_554 S
N411 C414 1.350 . S
N412 S410 1.611 . S
N412 C413 1.351 1_556 S
C413 C407 1.428 . S
C413 N412 1.351 1_554 S
C413 C414 1.434 . S
C414 C405 1.429 . S
C414 N411 1.350 . S
C414 C413 1.434 . S
C415 C416 1.369 . S
C415 C417 1.419 . S
C415 H419 0.930 . S
C416 C415 1.369 . S
C416 C425 1.429 . S
C417 C415 1.419 . S
C417 C418 1.363 . S
C417 H420 0.929 . S
C418 C417 1.363 . S
C418 C424 1.428 . S
H419 C415 0.930 . S
H420 C417 0.929 . S
S421 N422 1.613 . S
S421 N423 1.610 . S
N422 S421 1.613 . S
N422 C425 1.350 . S
N423 S421 1.610 . S
N423 C424 1.351 . S
C424 C418 1.428 . S
C424 N423 1.351 . S
C424 C425 1.434 . S
C425 C416 1.429 . S
C425 N422 1.350 . S
C425 C424 1.434 . S
C426 C427 1.369 . S
C426 C428 1.419 . S
C426 H430 0.930 . S
C427 C426 1.369 . S
C427 C436 1.429 . S
C428 C426 1.419 . S
C428 C429 1.363 . S
C428 H431 0.929 . S
C429 C428 1.363 . S
C429 C435 1.428 . S
H430 C426 0.930 . S
H431 C428 0.929 . S
S432 N433 1.613 . S
S432 N434 1.610 . S
N433 S432 1.613 . S
N433 C436 1.350 . S
N434 S432 1.610 . S
N434 C435 1.351 . S
C435 C429 1.428 . S
C435 N434 1.351 . S
C435 C436 1.434 . S
C436 C427 1.429 . S
C436 N433 1.350 . S
C436 C435 1.434 . S
C437 C438 1.369 . S
C437 C439 1.419 . S
C437 H441 0.930 . S
C438 C437 1.369 . S
C438 C447 1.429 . S
C439 C437 1.419 . S
C439 C440 1.363 . S
C439 H442 0.929 . S
C440 C439 1.363 . S
C440 C446 1.428 . S
H441 C437 0.930 . S
H442 C439 0.929 . S
S443 N444 1.613 . S
S443 N445 1.610 . S
N444 S443 1.613 . S
N444 C447 1.350 . S
N445 S443 1.610 . S
N445 C446 1.351 . S
C446 C440 1.428 . S
C446 N445 1.351 . S
C446 C447 1.434 . S
C447 C438 1.429 . S
C447 N444 1.350 . S
C447 C446 1.434 . S
C448 C449 1.369 . S
C448 C450 1.419 . S
C448 H452 0.930 . S
C449 C448 1.369 . S
C449 C458 1.429 . S
C450 C448 1.419 . S
C450 C451 1.363 . S
C450 H453 0.929 . S
C451 C450 1.363 . S
C451 C457 1.428 . S
H452 C448 0.930 . S
H453 C450 0.929 . S
S454 N455 1.613 . S
S454 N456 1.610 . S
N455 S454 1.613 . S
N455 C458 1.350 . S
N456 S454 1.610 . S
N456 C457 1.351 . S
C457 C451 1.428 . S
C457 N456 1.351 . S
C457 C458 1.434 . S
C458 C449 1.429 . S
C458 N455 1.350 . S
C458 C457 1.434 . S
C459 C460 1.369 . S
C459 C461 1.419 1_554 S
C459 H463 0.930 1_554 S
C460 C459 1.369 . S
C460 C469 1.429 . S
C461 C459 1.419 1_556 S
C461 C462 1.363 1_556 S
C461 H464 0.929 . S
C462 C461 1.363 1_554 S
C462 C468 1.428 . S
H463 C459 0.930 1_556 S
H464 C461 0.929 . S
S465 N466 1.642 . S
S465 N467 1.602 . S
N466 S465 1.642 . S
N466 C469 1.350 . S
N467 S465 1.602 . S
N467 C468 1.351 . S
C468 C462 1.428 . S
C468 N467 1.351 . S
C468 C469 1.434 . S
C469 C460 1.429 . S
C469 N466 1.350 . S
C469 C468 1.434 . S
C470 C471 1.369 . S
C470 C472 1.419 . S
C470 H474 0.930 . S
C471 C470 1.369 . S
C471 C480 1.429 . S
C472 C470 1.419 . S
C472 C473 1.363 . S
C472 H475 0.929 . S
C473 C472 1.363 . S
C473 C479 1.428 . S
H474 C470 0.930 . S
H475 C472 0.929 . S
S476 N477 1.613 . S
S476 N478 1.610 . S
N477 S476 1.613 . S
N477 C480 1.350 . S
N478 S476 1.610 . S
N478 C479 1.351 . S
C479 C473 1.428 . S
C479 N478 1.351 . S
C479 C480 1.434 . S
C480 C471 1.429 . S
C480 N477 1.350 . S
C480 C479 1.434 . S
C481 C482 1.369 1_556 S
C481 C483 1.419 . S
C481 H485 0.930 . S
C482 C481 1.369 1_554 S
C482 C491 1.429 . S
C483 C481 1.419 . S
C483 C484 1.363 1_556 S
C483 H486 0.929 . S
C484 C483 1.363 1_554 S
C484 C490 1.428 . S
H485 C481 0.930 . S
H486 C483 0.929 . S
S487 N488 1.613 1_545 S
S487 N489 1.610 . S
N488 S487 1.613 1_565 S
N488 C491 1.350 . S
N489 S487 1.610 . S
N489 C490 1.351 1_545 S
C490 C484 1.428 . S
C490 N489 1.351 1_565 S
C490 C491 1.434 . S
C491 C482 1.429 . S
C491 N488 1.350 . S
C491 C490 1.434 . S
C492 C493 1.369 . S
C492 C494 1.419 . S
C492 H496 0.930 . S
C493 C492 1.369 . S
C493 C502 1.429 . S
C494 C492 1.419 . S
C494 C495 1.363 . S
C494 H497 0.929 . S
C495 C494 1.363 . S
C495 C501 1.428 . S
H496 C492 0.930 . S
H497 C494 0.929 . S
S498 N499 1.613 . S
S498 N500 1.610 . S
N499 S498 1.613 . S
N499 C502 1.350 . S
N500 S498 1.610 . S
N500 C501 1.351 . S
C501 C495 1.428 . S
C501 N500 1.351 . S
C501 C502 1.434 . S
C502 C493 1.429 . S
C502 N499 1.350 . S
C502 C501 1.434 . S
C503 C504 1.369 . S
C503 C505 1.419 . S
C503 H507 0.930 . S
C504 C503 1.369 . S
C504 C513 1.429 . S
C505 C503 1.419 . S
C505 C506 1.363 . S
C505 H508 0.929 . S
C506 C505 1.363 . S
C506 C512 1.428 . S
H507 C503 0.930 . S
H508 C505 0.929 . S
S509 N510 1.613 . S
S509 N511 1.610 . S
N510 S509 1.613 . S
N510 C513 1.350 . S
N511 S509 1.610 . S
N511 C512 1.351 . S
C512 C506 1.428 . S
C512 N511 1.351 . S
C512 C513 1.434 . S
C513 C504 1.429 . S
C513 N510 1.350 . S
C513 C512 1.434 . S
C514 C515 1.369 . S
C514 C516 1.419 . S
C514 H518 0.930 . S
C515 C514 1.369 . S
C515 C524 1.429 . S
C516 C514 1.419 . S
C516 C517 1.363 . S
C516 H519 0.929 . S
C517 C516 1.363 . S
C517 C523 1.428 . S
H518 C514 0.930 . S
H519 C516 0.929 . S
S520 N521 1.613 . S
S520 N522 1.610 . S
N521 S520 1.613 . S
N521 C524 1.350 . S
N522 S520 1.610 . S
N522 C523 1.351 . S
C523 C517 1.428 . S
C523 N522 1.351 . S
C523 C524 1.434 . S
C524 C515 1.429 . S
C524 N521 1.350 . S
C524 C523 1.434 . S
C525 C526 1.369 . S
C525 C527 1.419 . S
C525 H529 0.930 . S
C526 C525 1.369 . S
C526 C535 1.429 . S
C527 C525 1.419 . S
C527 C528 1.363 . S
C527 H530 0.929 . S
C528 C527 1.363 . S
C528 C534 1.428 . S
H529 C525 0.930 . S
H530 C527 0.929 . S
S531 N532 1.613 . S
S531 N533 1.610 . S
N532 S531 1.613 . S
N532 C535 1.350 . S
N533 S531 1.610 . S
N533 C534 1.351 . S
C534 C528 1.428 . S
C534 N533 1.351 . S
C534 C535 1.434 . S
C535 C526 1.429 . S
C535 N532 1.350 . S
C535 C534 1.434 . S
C536 C537 1.369 . S
C536 C538 1.419 . S
C536 H540 0.930 . S
C537 C536 1.369 . S
C537 C546 1.429 . S
C538 C536 1.419 . S
C538 C539 1.363 . S
C538 H541 0.929 . S
C539 C538 1.363 . S
C539 C545 1.428 . S
H540 C536 0.930 . S
H541 C538 0.929 . S
S542 N543 1.613 . S
S542 N544 1.610 . S
N543 S542 1.613 . S
N543 C546 1.350 . S
N544 S542 1.610 . S
N544 C545 1.351 . S
C545 C539 1.428 . S
C545 N544 1.351 . S
C545 C546 1.434 . S
C546 C537 1.429 . S
C546 N543 1.350 . S
C546 C545 1.434 . S
C547 C548 1.369 . S
C547 C549 1.419 . S
C547 H551 0.930 . S
C548 C547 1.369 . S
C548 C557 1.429 . S
C549 C547 1.419 . S
C549 C550 1.363 . S
C549 H552 0.929 . S
C550 C549 1.363 . S
C550 C556 1.428 . S
H551 C547 0.930 . S
H552 C549 0.929 . S
S553 N554 1.613 . S
S553 N555 1.610 . S
N554 S553 1.613 . S
N554 C557 1.350 . S
N555 S553 1.610 . S
N555 C556 1.351 . S
C556 C550 1.428 . S
C556 N555 1.351 . S
C556 C557 1.434 . S
C557 C548 1.429 . S
C557 N554 1.350 . S
C557 C556 1.434 . S
C558 C559 1.369 1_655 S
C558 C560 1.419 . S
C558 H562 0.930 . S
C559 C558 1.369 1_455 S
C559 C568 1.429 . S
C560 C558 1.419 . S
C560 C561 1.363 1_655 S
C560 H563 0.929 . S
C561 C560 1.363 1_455 S
C561 C567 1.428 . S
H562 C558 0.930 . S
H563 C560 0.929 . S
S564 N565 1.613 . S
S564 N566 1.610 . S
N565 S564 1.613 . S
N565 C568 1.350 . S
N566 S564 1.610 . S
N566 C567 1.351 . S
C567 C561 1.428 . S
C567 N566 1.351 . S
C567 C568 1.434 . S
C568 C559 1.429 . S
C568 N565 1.350 . S
C568 C567 1.434 . S
C569 C570 1.369 . S
C569 C571 1.419 . S
C569 H573 0.930 . S
C570 C569 1.369 . S
C570 C579 1.429 . S
C571 C569 1.419 . S
C571 C572 1.363 . S
C571 H574 0.929 . S
C572 C571 1.363 . S
C572 C578 1.428 . S
H573 C569 0.930 . S
H574 C571 0.929 . S
S575 N576 1.613 . S
S575 N577 1.610 . S
N576 S575 1.613 . S
N576 C579 1.350 . S
N577 S575 1.610 . S
N577 C578 1.351 . S
C578 C572 1.428 . S
C578 N577 1.351 . S
C578 C579 1.434 . S
C579 C570 1.429 . S
C579 N576 1.350 . S
C579 C578 1.434 . S
C580 C581 1.369 . S
C580 C582 1.419 . S
C580 H584 0.930 . S
C581 C580 1.369 . S
C581 C590 1.429 1_545 S
C582 C580 1.419 . S
C582 C583 1.363 . S
C582 H585 0.929 . S
C583 C582 1.363 . S
C583 C589 1.428 1_545 S
H584 C580 0.930 . S
H585 C582 0.929 . S
S586 N587 1.613 . S
S586 N588 1.610 . S
N587 S586 1.613 . S
N587 C590 1.350 . S
N588 S586 1.610 . S
N588 C589 1.351 . S
C589 C583 1.428 1_565 S
C589 N588 1.351 . S
C589 C590 1.434 . S
C590 C581 1.429 1_565 S
C590 N587 1.350 . S
C590 C589 1.434 . S
C591 C592 1.369 . S
C591 C593 1.419 . S
C591 H595 0.930 . S
C592 C591 1.369 . S
C592 C601 1.429 . S
C593 C591 1.419 . S
C593 C594 1.363 . S
C593 H596 0.929 . S
C594 C593 1.363 . S
C594 C600 1.428 . S
H595 C591 0.930 . S
H596 C593 0.929 . S
S597 N598 1.613 . S
S597 N599 1.610 . S
N598 S597 1.613 . S
N598 C601 1.350 . S
N599 S597 1.610 . S
N599 C600 1.351 . S
C600 C594 1.428 . S
C600 N599 1.351 . S
C600 C601 1.434 . S
C601 C592 1.429 . S
C601 N598 1.350 . S
C601 C600 1.434 . S
C602 C603 1.369 . S
C602 C604 1.419 . S
C602 H606 0.930 . S
C603 C602 1.369 . S
C603 C612 1.429 . S
C604 C602 1.419 . S
C604 C605 1.363 . S
C604 H607 0.929 . S
C605 C604 1.363 . S
C605 C611 1.428 . S
H606 C602 0.930 . S
H607 C604 0.929 . S
S608 N609 1.613 . S
S608 N610 1.610 . S
N609 S608 1.613 . S
N609 C612 1.350 . S
N610 S608 1.610 . S
N610 C611 1.351 . S
C611 C605 1.428 . S
C611 N610 1.351 . S
C611 C612 1.434 . S
C612 C603 1.429 . S
C612 N609 1.350 . S
C612 C611 1.434 . S
C613 C614 1.369 . S
C613 C615 1.419 . S
C613 H617 0.930 . S
C614 C613 1.369 . S
C614 C623 1.429 . S
C615 C613 1.419 . S
C615 C616 1.363 . S
C615 H618 0.929 . S
C616 C615 1.363 . S
C616 C622 1.428 . S
H617 C613 0.930 . S
H618 C615 0.929 . S
S619 N620 1.613 . S
S619 N621 1.610 . S
N620 S619 1.613 . S
N620 C623 1.350 . S
N621 S619 1.610 . S
N621 C622 1.351 . S
C622 C616 1.428 . S
C622 N621 1.351 . S
C622 C623 1.434 . S
C623 C614 1.429 . S
C623 N620 1.350 . S
C623 C622 1.434 . S
C624 C625 1.369 . S
C624 C626 1.419 . S
C624 H628 0.930 . S
C625 C624 1.369 . S
C625 C634 1.429 . S
C626 C624 1.419 . S
C626 C627 1.363 . S
C626 H629 0.929 . S
C627 C626 1.363 . S
C627 C633 1.428 . S
H628 C624 0.930 . S
H629 C626 0.929 . S
S630 N631 1.613 . S
S630 N632 1.610 . S
N631 S630 1.613 . S
N631 C634 1.350 . S
N632 S630 1.610 . S
N632 C633 1.351 . S
C633 C627 1.428 . S
C633 N632 1.351 . S
C633 C634 1.434 . S
C634 C625 1.429 . S
C634 N631 1.350 . S
C634 C633 1.434 . S
C635 C636 1.369 . S
C635 C637 1.419 . S
C635 H639 0.930 . S
C636 C635 1.369 . S
C636 C645 1.429 . S
C637 C635 1.419 . S
C637 C638 1.363 . S
C637 H640 0.929 . S
C638 C637 1.363 . S
C638 C644 1.428 . S
H639 C635 0.930 . S
H640 C637 0.929 . S
S641 N642 1.613 . S
S641 N643 1.610 . S
N642 S641 1.613 . S
N642 C645 1.350 . S
N643 S641 1.610 . S
N643 C644 1.351 . S
C644 C638 1.428 . S
C644 N643 1.351 . S
C644 C645 1.434 . S
C645 C636 1.429 . S
C645 N642 1.350 . S
C645 C644 1.434 . S
C646 C647 1.369 . S
C646 C648 1.419 . S
C646 H650 0.930 . S
C647 C646 1.369 . S
C647 C656 1.429 . S
C648 C646 1.419 . S
C648 C649 1.363 . S
C648 H651 0.929 . S
C649 C648 1.363 . S
C649 C655 1.428 . S
H650 C646 0.930 . S
H651 C648 0.929 . S
S652 N653 1.613 . S
S652 N654 1.610 . S
N653 S652 1.613 . S
N653 C656 1.350 . S
N654 S652 1.610 . S
N654 C655 1.351 . S
C655 C649 1.428 . S
C655 N654 1.351 . S
C655 C656 1.434 . S
C656 C647 1.429 . S
C656 N653 1.350 . S
C656 C655 1.434 . S
C361 C6 1.874 . S
C363 C290 1.790 . S
C372 C46 1.870 . S
C374 C330 1.796 . S
C383 C86 1.869 . S
C385 C250 1.796 . S
C394 C166 1.869 . S
C396 C90 1.798 . S
C405 C206 1.870 . S
C407 C10 1.795 . S
C416 C50 1.795 . S
C418 C126 1.871 . S
C427 C286 1.873 1_655 S
C429 C210 1.794 . S
C438 C326 1.873 . S
C440 C130 1.795 . S
C449 C170 1.798 . S
C451 C246 1.869 . S
C460 C95 1.660 . S
C462 C19 1.676 1_554 S
C471 C59 1.677 1_554 S
C473 C15 1.661 1_565 S
C482 C55 1.661 . S
C484 C99 1.677 1_554 S
C493 C139 1.676 . S
C495 C215 1.659 . S
C504 C135 1.661 . S
C506 C179 1.677 . S
C515 C175 1.659 . S
C517 C219 1.676 . S
C526 C335 1.660 . S
C528 C259 1.676 . S
C537 C299 1.677 . S
C539 C255 1.661 . S
C548 C339 1.676 . S
C550 C295 1.660 . S
C559 C18 1.116 . S
C561 C9 1.103 . S
C570 C58 1.110 . S
C572 C49 1.105 . S
C581 C98 1.112 . S
C583 C89 1.116 . S
C592 C129 1.112 . S
C594 C138 1.103 1_556 S
C603 C169 1.104 . S
C605 C178 1.109 1_556 S
C614 C209 1.101 . S
C616 C218 1.111 1_556 S
C625 C258 1.102 . S
C627 C249 1.110 1_554 S
C636 C289 1.101 1_554 S
C638 C298 1.111 . S
C647 C338 1.108 . S
C649 C329 1.106 1_554 S
