# Generated by pormake.
# Topology sxc, (6)-cn, num edge types: 1
# Building blocks:
#     Node 0, Type 0, BuildingBlock: GEDQOX_clean_sbu_0, # of connection points: 6
#     Node 1, Type 0, BuildingBlock: GEDQOX_clean_sbu_0, # of connection points: 6
#     Node 2, Type 0, BuildingBlock: GEDQOX_clean_sbu_0, # of connection points: 6
#     Edge 3, Type (0, 0), BuildingBlock: TEMPAE_clean_linker_10, # of connection points: 2
#     Edge 4, Type (0, 0), BuildingBlock: TEMPAE_clean_linker_10, # of connection points: 2
#     Edge 5, Type (0, 0), BuildingBlock: TEMPAE_clean_linker_10, # of connection points: 2
#     Edge 6, Type (0, 0), BuildingBlock: TEMPAE_clean_linker_10, # of connection points: 2
#     Edge 7, Type (0, 0), BuildingBlock: TEMPAE_clean_linker_10, # of connection points: 2
#     Edge 8, Type (0, 0), BuildingBlock: TEMPAE_clean_linker_10, # of connection points: 2
#     Edge 9, Type (0, 0), BuildingBlock: TEMPAE_clean_linker_10, # of connection points: 2
#     Edge 10, Type (0, 0), BuildingBlock: TEMPAE_clean_linker_10, # of connection points: 2
#     Edge 11, Type (0, 0), BuildingBlock: TEMPAE_clean_linker_10, # of connection points: 2
# Relax obj value: 0.304
# Max RMSD: 0.167
# Mean RMSD: 0.094
data_MOF--net-sxc--node1-GEDQOX_clean_sbu_0--edge1-TEMPAE_clean_linker_10
_symmetry_space_group_name_H-M    P1
_symmetry_Int_Tables_number       1
_symmetry_cell_setting            triclinic
loop_
_symmetry_equiv_pos_as_xyz
'x, y, z'
_cell_length_a     23.070568
_cell_length_b     17.369375
_cell_length_c     45.477601
_cell_angle_alpha  92.555758
_cell_angle_beta   90.233267
_cell_angle_gamma 135.98984
loop_
_atom_site_label
_atom_site_type_symbol
_atom_site_fract_x
_atom_site_fract_y
_atom_site_fract_z
_atom_type_partial_charge
Nd0 Nd 0.16752 0.22625 0.00856 0.0
Nd1 Nd 0.17896 1.08545 0.0072 0.0
C2 C 0.18789 0.39125 -0.00411 0.0
C3 C 0.21038 0.44341 0.96787 0.0
C4 C 0.22408 0.40594 0.94359 0.0
C5 C 0.24245 0.4521 0.9164 0.0
C6 C 0.24825 0.53745 0.91326 0.0
C7 C 0.23572 0.57568 0.93794 0.0
C8 C 0.21703 0.52909 0.96498 0.0
C9 C 0.1545 0.1679 0.06608 0.0
C10 C 0.35478 0.33018 0.01301 0.0
C11 C 0.15702 0.91409 0.00234 0.0
C12 C 0.13702 0.85085 0.97463 0.0
C13 C 0.14809 0.7817 0.97266 0.0
C14 C 0.13417 0.72821 0.94557 0.0
C15 C 1.10924 0.74345 0.92 0.0
C16 C 1.09779 0.81252 0.92215 0.0
C17 C 1.11117 0.86531 0.9493 0.0
C18 C 0.1918 1.15104 0.95048 0.0
C19 C 0.99227 0.97763 0.00828 0.0
O20 O 1.11493 0.28842 -0.00448 0.0
O21 O 0.2459 0.40643 0.00911 0.0
O22 O 1.11064 0.17962 0.05391 0.0
O23 O 0.20582 0.18864 0.04827 0.0
O24 O 0.30894 0.3408 0.00092 0.0
O25 O 0.31613 0.23418 0.02325 0.0
O26 O 1.09896 0.90602 0.01066 0.0
O27 O 0.23082 1.01639 0.0044 0.0
O28 O 0.24271 0.15245 0.96288 0.0
O29 O 0.13764 1.11989 0.96831 0.0
O30 O 1.04111 0.9718 0.02005 0.0
O31 O 1.02802 1.06972 -0.00374 0.0
H32 H 0.21948 0.33993 0.94564 0.0
H33 H 0.25135 0.42051 0.8979 0.0
H34 H 0.23729 0.63913 0.93613 0.0
H35 H 0.20634 0.5586 0.98345 0.0
H36 H 0.16888 0.77068 0.99188 0.0
H37 H 0.14524 0.67723 0.94448 0.0
H38 H 1.07858 0.82573 0.90293 0.0
H39 H 1.1023 0.91866 0.95048 0.0
Nd40 Nd 1.07216 1.07576 0.33935 0.0
Nd41 Nd 0.23689 0.24273 0.351 0.0
C42 C 0.91751 0.94536 0.3179 0.0
C43 C 0.85625 0.94861 0.32245 0.0
C44 C 0.83066 0.96923 0.29878 0.0
C45 C 0.78724 0.99626 0.30385 0.0
C46 C 0.76854 1.00245 0.33266 0.0
C47 C 0.78843 0.97325 0.35596 0.0
C48 C 0.83216 0.94691 0.35095 0.0
C49 C 1.10526 1.10966 0.39983 0.0
C50 C 0.1539 0.34026 0.34649 0.0
C51 C 0.39271 0.37678 0.37201 0.0
C52 C 0.45412 0.37266 0.37067 0.0
C53 C 0.47834 0.35836 0.39645 0.0
C54 C 0.52564 0.33624 0.39486 0.0
C55 C 0.54996 0.32914 0.36749 0.0
C56 C 0.53034 0.3506 0.34196 0.0
C57 C 0.48267 0.37199 0.34351 0.0
C58 C 0.20214 0.2081 0.29064 0.0
C59 C 0.15511 0.97867 0.34394 0.0
O60 O 0.98292 1.0273 0.30388 0.0
O61 O 0.93687 0.92234 0.3405 0.0
O62 O 1.05371 1.01344 0.38539 0.0
O63 O 0.13866 0.18591 0.38239 0.0
O64 O 1.08674 0.23114 0.33926 0.0
O65 O 0.22319 0.36782 0.35402 0.0
O66 O 0.32794 0.30238 0.38743 0.0
O67 O 0.37252 0.38993 0.34732 0.0
O68 O 0.25208 0.3041 0.30509 0.0
O69 O 0.1706 1.13255 0.30808 0.0
O70 O 0.21991 1.08581 0.35379 0.0
O71 O 1.08848 0.95361 0.33373 0.0
H72 H 0.8486 0.97093 0.27664 0.0
H73 H 0.77278 1.0187 0.2855 0.0
H74 H 0.77314 0.97523 0.37829 0.0
H75 H 0.85063 0.93088 0.36967 0.0
H76 H 0.45753 0.35936 0.41765 0.0
H77 H 0.54095 0.32117 0.41488 0.0
H78 H 0.54783 0.34476 0.32056 0.0
H79 H 0.46522 0.38296 0.32322 0.0
Nd80 Nd 0.14333 0.22993 0.68595 0.0
Nd81 Nd 0.14784 1.04956 0.66545 0.0
C82 C 0.13411 0.35129 0.71741 0.0
C83 C 1.08197 0.37085 0.71417 0.0
C84 C 1.01199 0.31407 0.73123 0.0
C85 C 0.95095 0.30961 0.72371 0.0
C86 C 0.95956 0.36342 0.69924 0.0
C87 C 1.03397 0.43021 0.68425 0.0
C88 C 1.09461 0.43371 0.69158 0.0
C89 C 1.12809 0.19316 0.6247 0.0
C90 C 0.96444 0.9589 0.67418 0.0
C91 C 0.1714 0.94166 0.6357 0.0
C92 C 0.24758 0.96843 0.63804 0.0
C93 C 0.26701 0.93129 0.61621 0.0
C94 C 0.34613 0.97238 0.61708 0.0
C95 C 0.40625 1.0525 0.63937 0.0
C96 C 0.38558 1.08703 0.66147 0.0
C97 C 0.30678 1.04483 0.66092 0.0
C98 C 0.16548 1.0911 0.72669 0.0
C99 C 0.326 0.31797 0.67762 0.0
O100 O 1.09385 0.25009 0.72348 0.0
O101 O 0.19031 0.3924 0.69774 0.0
O102 O 1.12638 0.25909 0.63825 0.0
O103 O 0.13555 1.15067 0.64408 0.0
O104 O 1.00271 1.06013 0.68446 0.0
O105 O 1.00536 0.93649 0.66398 0.0
O106 O 0.18257 1.01957 0.62463 0.0
O107 O 1.1282 0.90459 0.65943 0.0
O108 O 0.16362 1.02132 0.71355 0.0
O109 O 0.15968 1.13374 0.70687 0.0
O110 O 0.28701 0.21959 0.66478 0.0
O111 O 0.2851 0.33719 0.69018 0.0
H112 H 1.0015 0.26655 0.74911 0.0
H113 H 0.89443 0.25736 0.73576 0.0
H114 H 1.04337 0.47513 0.66584 0.0
H115 H 0.14884 0.4804 0.67838 0.0
H116 H 0.2222 0.87339 0.59823 0.0
H117 H 0.36132 0.94465 0.59994 0.0
H118 H 0.43087 1.14769 0.67905 0.0
H119 H 0.29296 1.07482 0.67789 0.0
C120 C 0.30166 0.69105 0.8827 0.0
C121 C 0.2582 0.58013 0.88413 0.0
C122 C 0.2805 0.72093 0.86029 0.0
C123 C 0.20833 0.63488 0.84159 0.0
C124 C 0.19074 0.53881 0.8362 0.0
C125 C 0.21193 0.50817 0.85872 0.0
C126 C 0.32927 0.84135 0.85941 0.0
C127 C 0.14154 0.46363 0.80873 0.0
C128 C 1.06333 0.58288 0.89002 0.0
C129 C 1.09996 0.69089 0.89127 0.0
C130 C 1.07646 0.54348 0.8664 0.0
C131 C 0.1354 0.61911 0.84545 0.0
C132 C 0.14839 0.71113 0.84193 0.0
C133 C 0.13393 0.74974 0.86567 0.0
C134 C 1.02999 0.42354 0.8655 0.0
C135 C 0.18377 0.77349 0.8144 0.0
H136 H 0.34656 0.752 0.90032 0.0
H137 H 0.18444 0.42495 0.85785 0.0
H138 H 0.33207 0.8625 0.83649 0.0
H139 H 0.3004 0.85962 0.87324 0.0
H140 H 0.39435 0.8961 0.86848 0.0
H141 H 0.18571 0.48153 0.79278 0.0
H142 H 1.09785 0.37492 0.81348 0.0
H143 H 1.10677 0.47797 0.79809 0.0
H144 H 1.02771 0.53095 0.90819 0.0
H145 H 0.15548 0.82931 0.86502 0.0
H146 H 1.06533 0.4151 0.8788 0.0
H147 H 1.01804 0.38908 0.84262 0.0
H148 H 0.96847 0.37214 0.87546 0.0
H149 H 0.23311 0.86458 0.81995 0.0
H150 H 0.13316 0.75392 0.80144 0.0
H151 H 0.20862 0.74953 0.80033 0.0
C152 C 0.55214 0.19243 0.37858 0.0
C153 C 0.58815 0.28856 0.36496 0.0
C154 C 0.58187 1.14576 0.37412 0.0
C155 C 0.64903 0.19665 0.35558 0.0
C156 C 0.68691 0.29514 0.34228 0.0
C157 C 0.65581 0.33999 0.34713 0.0
C158 C 0.54027 1.04076 0.38872 0.0
C159 C 0.75882 0.35147 0.3224 0.0
C160 C 0.77184 1.12955 0.36227 0.0
C161 C 0.73565 1.04908 0.33885 0.0
C162 C 0.74385 0.17788 0.36809 0.0
C163 C 0.67887 1.14578 0.34979 0.0
C164 C 0.6422 1.06492 0.32603 0.0
C165 C 0.67105 1.01723 0.32085 0.0
C166 C 0.7842 0.26379 0.39365 0.0
C167 C 0.57283 1.02922 0.30604 0.0
H168 H 0.49878 1.1515 0.39194 0.0
H169 H 0.6837 0.41459 0.3367 0.0
H170 H 0.51104 0.97226 0.37167 0.0
H171 H 0.58749 1.05299 0.40171 0.0
H172 H 0.49131 1.01469 0.40356 0.0
H173 H 0.78232 0.42885 0.31428 0.0
H174 H 0.81117 0.37231 0.33429 0.0
H175 H 0.73874 0.29407 0.30312 0.0
H176 H 0.82323 0.15626 0.37578 0.0
H177 H 0.64297 0.9548 0.3028 0.0
H178 H 0.7359 0.23998 0.40841 0.0
H179 H 0.81647 0.34513 0.38533 0.0
H180 H 0.83044 0.27429 0.4068 0.0
H181 H 0.51814 0.99263 0.31903 0.0
H182 H 0.5524 0.96713 0.28816 0.0
H183 H 0.59383 1.10245 0.29593 0.0
C184 C 0.8317 0.76146 0.68409 0.0
C185 C 0.87092 0.8651 0.67459 0.0
C186 C 0.74382 0.67296 0.68544 0.0
C187 C 0.69261 0.68582 0.67586 0.0
C188 C 0.73206 0.78985 0.66564 0.0
C189 C 0.82033 0.87851 0.66577 0.0
C190 C 0.70587 0.56643 0.6979 0.0
C191 C 0.68093 0.80718 0.6541 0.0
C192 C 0.4623 0.41825 0.6539 0.0
C193 C 0.41974 0.41123 0.67748 0.0
C194 C 0.55021 0.50749 0.65285 0.0
C195 C 0.5982 0.59069 0.67648 0.0
C196 C 0.55557 0.58227 0.70072 0.0
C197 C 0.46727 0.49445 0.70064 0.0
C198 C 0.59159 0.51385 0.62607 0.0
C199 C 0.60334 0.6654 0.72703 0.0
H200 H 0.87013 0.7505 0.69129 0.0
H201 H 0.84985 0.95789 0.65824 0.0
H202 H 0.67191 0.55143 0.71778 0.0
H203 H 0.65956 0.49489 0.68173 0.0
H204 H 0.75366 0.56856 0.70408 0.0
H205 H 0.72036 0.89006 0.64521 0.0
H206 H 0.6354 0.7422 0.6364 0.0
H207 H 0.64461 0.79921 0.67195 0.0
H208 H 0.4265 0.35517 0.63576 0.0
H209 H 0.43542 0.48966 0.7191 0.0
H210 H 0.63783 0.51365 0.63258 0.0
H211 H 0.62615 0.59299 0.6157 0.0
H212 H 0.54589 0.44366 0.60941 0.0
H213 H 0.65133 0.67098 0.73578 0.0
H214 H 0.56193 0.64327 0.74499 0.0
H215 H 0.63659 0.74902 0.72035 0.0
C216 C 0.83279 0.32399 0.70622 0.0
C217 C 0.88704 0.33781 0.68724 0.0
C218 C 0.75718 0.28253 0.69532 0.0
C219 C 0.7361 0.25583 0.66468 0.0
C220 C 0.79255 0.27534 0.64523 0.0
C221 C 0.86715 0.31534 0.65677 0.0
C222 C 0.69835 0.26301 0.71672 0.0
C223 C 0.77258 0.24942 0.61239 0.0
C224 C 0.5039 1.036 0.64513 0.0
C225 C 0.49121 1.10194 0.64024 0.0
C226 C 0.58437 1.08509 0.65194 0.0
C227 C 0.65302 0.20238 0.65337 0.0
C228 C 0.64085 0.26859 0.64638 0.0
C229 C 0.55965 0.21745 0.64019 0.0
C230 C 0.59512 1.01201 0.65946 0.0
C231 C 0.71293 0.39355 0.64693 0.0
H232 H 0.84843 0.34274 0.72971 0.0
H233 H 0.90801 0.32403 0.64196 0.0
H234 H 0.68281 0.30767 0.71045 0.0
H235 H 0.63899 0.17318 0.71586 0.0
H236 H 0.72514 0.29084 0.73977 0.0
H237 H 0.827 0.28103 0.60005 0.0
H238 H 0.72034 0.15821 0.6076 0.0
H239 H 0.75198 0.28612 0.60407 0.0
H240 H 0.45042 0.94675 0.64539 0.0
H241 H 0.54912 0.26791 0.63633 0.0
H242 H 0.61476 1.02754 0.68314 0.0
H243 H 0.64491 1.03223 0.64658 0.0
H244 H 0.53656 0.92229 0.65512 0.0
H245 H 0.73761 0.42816 0.66997 0.0
H246 H 0.69423 0.43155 0.63765 0.0
H247 H 0.76468 0.41832 0.63428 0.0
C248 C 0.84626 0.85566 0.98563 0.0
C249 C 0.89893 0.88302 0.0093 0.0
C250 C 0.75828 0.76444 0.98597 0.0
C251 C 0.72087 0.701 0.01114 0.0
C252 C 0.77401 0.73025 0.03538 0.0
C253 C 0.86189 0.81878 0.0339 0.0
C254 C 0.70536 0.73485 0.95911 0.0
C255 C 0.73801 0.66907 0.06319 0.0
C256 C 0.49007 0.53377 0.02063 0.0
C257 C 0.44836 0.42393 0.01348 0.0
C258 C 0.57819 0.62362 0.02079 0.0
C259 C 0.62656 0.60487 0.01216 0.0
C260 C 0.58429 0.49395 0.00437 0.0
C261 C 0.49635 0.40504 0.00577 0.0
C262 C 0.6196 0.73876 0.0305 0.0
C263 C 0.63181 0.46928 0.99383 0.0
H264 H 0.87409 0.90397 0.96641 0.0
H265 H 0.90182 0.83959 0.05241 0.0
H266 H 0.66422 0.6464 0.95155 0.0
H267 H 0.66433 0.74498 0.96469 0.0
H268 H 0.74374 0.78728 0.94063 0.0
H269 H 0.78711 0.70558 0.0807 0.0
H270 H 0.69384 0.67064 0.07173 0.0
H271 H 0.70217 0.58075 0.05839 0.0
H272 H 0.45364 0.54927 0.0267 0.0
H273 H 0.46472 0.32076 -0.00018 0.0
H274 H 0.65114 0.79304 0.01182 0.0
H275 H 0.66831 0.77599 0.04823 0.0
H276 H 0.57426 0.73864 0.03872 0.0
H277 H 0.66834 0.51847 0.97472 0.0
H278 H 0.58983 0.37984 0.9872 0.0
H279 H 0.67695 0.49424 0.01147 0.0
C280 C 0.22387 0.54593 0.33997 0.0
C281 C 0.15278 0.43274 0.34605 0.0
C282 C 0.22469 0.63094 0.33882 0.0
C283 C 0.15369 0.6113 0.34558 0.0
C284 C 1.08201 0.49703 0.35251 0.0
C285 C 1.08194 0.41233 0.35185 0.0
C286 C 0.30409 0.74284 0.32951 0.0
C287 C 1.00291 0.46063 0.36158 0.0
C288 C 0.21067 0.89435 0.36296 0.0
C289 C 0.15611 0.88603 0.34429 0.0
C290 C 0.20936 0.80876 0.36416 0.0
C291 C 0.15446 0.7068 0.34524 0.0
C292 C 1.10066 0.6998 0.32578 0.0
C293 C 1.10086 0.78447 0.32612 0.0
C294 C 0.26801 0.83011 0.38688 0.0
C295 C 1.04151 0.60257 0.30342 0.0
H296 H 0.28052 0.569 0.33511 0.0
H297 H 1.02509 0.32871 0.3569 0.0
H298 H 0.29448 0.79268 0.32164 0.0
H299 H 0.35069 0.78956 0.34845 0.0
H300 H 0.33136 0.73289 0.31164 0.0
H301 H 0.97658 0.40557 0.38011 0.0
H302 H 1.01252 0.53135 0.36846 0.0
H303 H 0.95552 0.41098 0.3429 0.0
H304 H 0.25457 0.96842 0.37771 0.0
H305 H 1.05722 0.77094 0.31112 0.0
H306 H 0.33217 0.89104 0.37881 0.0
H307 H 0.25026 0.75361 0.39185 0.0
H308 H 0.26994 0.86794 0.40772 0.0
H309 H 1.03866 0.63032 0.28243 0.0
H310 H 0.97769 0.54295 0.31178 0.0
H311 H 1.05948 0.55899 0.29863 0.0
C312 C 0.14459 1.08982 0.24234 0.0
C313 C 0.19367 0.19396 0.25763 0.0
C314 C 0.13697 1.07815 0.21112 0.0
C315 C 0.17914 0.17268 0.19464 0.0
C316 C 0.22895 0.27784 0.2101 0.0
C317 C 0.23555 0.28706 0.24117 0.0
C318 C 1.08316 0.96441 0.19575 0.0
C319 C 0.2748 0.38106 0.1938 0.0
C320 C 0.22026 0.17552 0.11254 0.0
C321 C 0.15859 0.16197 0.09872 0.0
C322 C 0.22629 0.17595 0.14357 0.0
C323 C 0.16923 0.16222 0.16139 0.0
C324 C 1.10554 1.14549 0.14737 0.0
C325 C 1.10107 1.1456 0.11642 0.0
C326 C 0.29513 0.19389 0.15735 0.0
C327 C 1.04314 1.13034 0.16515 0.0
H328 H 1.11192 1.01732 0.25476 0.0
H329 H 0.27354 0.36797 0.25265 0.0
H330 H 1.03092 0.94091 0.1828 0.0
H331 H 1.12025 0.96539 0.18 0.0
H332 H 1.05672 0.89981 0.21149 0.0
H333 H 0.3126 0.45706 0.20892 0.0
H334 H 0.31682 0.39229 0.17814 0.0
H335 H 0.2294 0.37215 0.18067 0.0
H336 H 0.26487 0.18789 0.09916 0.0
H337 H 1.05275 1.13425 0.10606 0.0
H338 H 0.26866 1.12678 0.1721 0.0
H339 H 0.33874 0.27346 0.1711 0.0
H340 H 0.33117 0.19624 0.14058 0.0
H341 H 1.01196 1.06169 0.1799 0.0
H342 H 0.99454 1.11188 0.15098 0.0
H343 H 1.07596 0.20694 0.17936 0.0
C344 C 1.05355 1.03079 0.44941 0.0
C345 C 1.11118 1.12392 0.43283 0.0
C346 C 1.05676 1.04084 0.48049 0.0
C347 C 1.12022 1.14656 0.49581 0.0
C348 C 0.17949 0.2409 0.47919 0.0
C349 C 0.17383 0.22864 0.44799 0.0
C350 C 0.99127 0.93802 0.49694 0.0
C351 C 0.24905 0.35501 0.49439 0.0
C352 C 1.08233 0.1898 0.57411 0.0
C353 C 1.12406 0.1763 0.59191 0.0
C354 C 1.08026 0.1798 0.54305 0.0
C355 C 1.12269 0.15824 0.52907 0.0
C356 C 0.16581 1.14575 0.54699 0.0
C357 C 0.16561 0.15439 0.57809 0.0
C358 C 1.03217 0.19187 0.52517 0.0
C359 C 0.21333 1.12493 0.53331 0.0
H360 H 1.00478 0.9494 0.43802 0.0
H361 H 0.21902 0.30101 0.43547 0.0
H362 H 1.02148 0.92654 0.51243 0.0
H363 H 0.95642 0.94769 0.51028 0.0
H364 H 0.94595 0.86189 0.4819 0.0
H365 H 0.2923 0.41919 0.47855 0.0
H366 H 0.22248 0.37884 0.50715 0.0
H367 H 0.28536 0.35446 0.51027 0.0
H368 H 1.05053 0.20759 0.58456 0.0
H369 H 0.20053 1.14798 0.59157 0.0
H370 H 0.98358 1.11561 0.51057 0.0
H371 H 1.07472 0.26197 0.5108 0.0
H372 H 1.00145 0.20681 0.53926 0.0
H373 H 0.17045 1.04729 0.51878 0.0
H374 H 0.24412 1.11786 0.55014 0.0
H375 H 0.26175 0.19363 0.51934 0.0
C376 C 0.18023 0.19321 0.77276 0.0
C377 C 0.16577 1.10596 0.75935 0.0
C378 C 0.18284 0.20741 0.80381 0.0
C379 C 0.16927 1.13153 0.82197 0.0
C380 C 0.15303 1.04214 0.80833 0.0
C381 C 0.15225 1.03121 0.77742 0.0
C382 C 0.20037 0.30386 0.81716 0.0
C383 C 0.13769 0.95852 0.82644 0.0
C384 C 0.25702 0.20758 0.9016 0.0
C385 C 0.18647 0.1553 0.91794 0.0
C386 C 0.25317 0.20556 0.87061 0.0
C387 C 0.17629 1.14763 0.85517 0.0
C388 C 1.10525 1.09744 0.87164 0.0
C389 C 1.11137 1.10285 0.90279 0.0
C390 C 0.33118 0.2629 0.85431 0.0
C391 C 1.02179 1.03365 0.85629 0.0
H392 H 0.19114 0.25164 0.75902 0.0
H393 H 0.14081 0.96328 0.76733 0.0
H394 H 0.14321 0.27195 0.82716 0.0
H395 H 0.25025 0.34978 0.83499 0.0
H396 H 0.21939 0.36267 0.80054 0.0
H397 H 1.11796 0.88802 0.81254 0.0
H398 H 0.19567 0.99964 0.83945 0.0
H399 H 1.08879 0.92503 0.8423 0.0
H400 H 0.31555 0.24932 0.91312 0.0
H401 H 1.05652 1.06217 0.91521 0.0
H402 H 0.34151 0.31808 0.83842 0.0
H403 H 0.32366 0.20011 0.84147 0.0
H404 H 0.38754 0.31314 0.86946 0.0
H405 H 1.02788 1.08608 0.84064 0.0
H406 H 0.97369 1.00463 0.87206 0.0
H407 H 0.99977 0.9603 0.84325 0.0
loop_
_geom_bond_atom_site_label_1
_geom_bond_atom_site_label_2
_geom_bond_distance
_geom_bond_site_symmetry_2
_ccdc_geom_bond_type
Nd0 C2 2.836 1_655 S
Nd0 O20 2.500 1_654 S
Nd0 O21 2.492 . S
Nd0 O22 2.487 . S
Nd0 O23 2.682 1_645 S
Nd0 O24 2.410 1_655 S
Nd0 O29 2.414 1_654 S
Nd0 O31 2.424 1_545 S
Nd1 C11 2.836 1_455 S
Nd1 O23 2.414 1_556 S
Nd1 O25 2.424 1_565 S
Nd1 O26 2.504 1_456 S
Nd1 O27 2.492 . S
Nd1 O28 2.487 . S
Nd1 O29 2.682 1_565 S
Nd1 O30 2.410 1_455 S
C2 Nd0 2.836 1_455 S
C2 C3 1.498 . S
C2 O20 1.258 1_554 S
C2 O21 1.239 1_455 S
C3 C2 1.498 . S
C3 C4 1.366 1_554 S
C3 C8 1.407 . S
C4 C3 1.366 1_556 S
C4 C5 1.392 . S
C4 H32 0.930 . S
C5 C4 1.392 . S
C5 C6 1.398 1_556 S
C5 H33 0.929 . S
C6 C5 1.398 1_554 S
C6 C7 1.352 . S
C7 C6 1.352 . S
C7 C8 1.384 . S
C7 H34 0.930 . S
C8 C3 1.407 . S
C8 C7 1.384 . S
C8 H35 0.929 . S
C9 O22 1.241 . S
C9 O23 1.273 1_645 S
C10 O24 1.251 . S
C10 O25 1.268 1_554 S
C11 Nd1 2.836 1_655 S
C11 C12 1.498 . S
C11 O26 1.253 1_556 S
C11 O27 1.239 1_655 S
C12 C11 1.498 . S
C12 C13 1.366 1_556 S
C12 C17 1.407 . S
C13 C12 1.366 1_554 S
C13 C14 1.392 . S
C13 H36 0.930 . S
C14 C13 1.392 . S
C14 C15 1.387 1_554 S
C14 H37 0.929 . S
C15 C14 1.387 1_556 S
C15 C16 1.366 . S
C16 C15 1.366 . S
C16 C17 1.384 . S
C16 H38 0.930 . S
C17 C12 1.407 . S
C17 C16 1.384 . S
C17 H39 0.929 . S
C18 O28 1.241 . S
C18 O29 1.273 1_565 S
C19 O30 1.251 . S
C19 O31 1.268 1_556 S
O20 Nd0 2.500 1_456 S
O20 C2 1.258 1_556 S
O21 Nd0 2.492 . S
O21 C2 1.239 1_655 S
O22 Nd0 2.487 . S
O22 C9 1.241 . S
O23 Nd0 2.682 1_465 S
O23 Nd1 2.414 1_554 S
O23 C9 1.273 1_465 S
O24 Nd0 2.410 1_455 S
O24 C10 1.251 . S
O25 Nd1 2.424 1_545 S
O25 C10 1.268 1_556 S
O26 Nd1 2.504 1_654 S
O26 C11 1.253 1_554 S
O27 Nd1 2.492 . S
O27 C11 1.239 1_455 S
O28 Nd1 2.487 . S
O28 C18 1.241 . S
O29 Nd0 2.414 1_456 S
O29 Nd1 2.682 1_545 S
O29 C18 1.273 1_545 S
O30 Nd1 2.410 1_655 S
O30 C19 1.251 . S
O31 Nd0 2.424 1_565 S
O31 C19 1.268 1_554 S
H32 C4 0.930 . S
H33 C5 0.929 . S
H34 C7 0.930 . S
H35 C8 0.929 . S
H36 C13 0.930 . S
H37 C14 0.929 . S
H38 C16 0.930 . S
H39 C17 0.929 . S
Nd40 C42 2.836 . S
Nd40 O60 2.500 . S
Nd40 O61 2.492 . S
Nd40 O62 2.487 . S
Nd40 O63 2.682 1_665 S
Nd40 O64 2.410 1_665 S
Nd40 O69 2.414 1_665 S
Nd40 O71 2.424 . S
Nd41 C51 2.836 . S
Nd41 O63 2.414 . S
Nd41 O65 2.424 . S
Nd41 O66 2.500 . S
Nd41 O67 2.492 . S
Nd41 O68 2.487 . S
Nd41 O69 2.682 . S
Nd41 O70 2.410 1_545 S
C42 Nd40 2.836 . S
C42 C43 1.498 . S
C42 O60 1.258 . S
C42 O61 1.239 . S
C43 C42 1.498 . S
C43 C44 1.366 . S
C43 C48 1.407 . S
C44 C43 1.366 . S
C44 C45 1.392 . S
C44 H72 0.930 1_565 S
C45 C44 1.392 . S
C45 C46 1.398 . S
C45 H73 0.929 1_565 S
C46 C45 1.398 . S
C46 C47 1.352 . S
C47 C46 1.352 . S
C47 C48 1.384 . S
C47 H74 0.930 . S
C48 C43 1.407 . S
C48 C47 1.384 . S
C48 H75 0.929 . S
C49 O62 1.241 1_445 S
C49 O63 1.273 . S
C50 O64 1.251 . S
C50 O65 1.268 . S
C51 Nd41 2.836 . S
C51 C52 1.498 . S
C51 O66 1.258 . S
C51 O67 1.239 . S
C52 C51 1.498 . S
C52 C53 1.366 . S
C52 C57 1.407 . S
C53 C52 1.366 . S
C53 C54 1.392 . S
C53 H76 0.930 . S
C54 C53 1.392 . S
C54 C55 1.398 . S
C54 H77 0.929 . S
C55 C54 1.398 . S
C55 C56 1.352 . S
C56 C55 1.352 . S
C56 C57 1.384 . S
C56 H78 0.930 . S
C57 C52 1.407 . S
C57 C56 1.384 . S
C57 H79 0.929 . S
C58 O68 1.241 . S
C58 O69 1.273 . S
C59 O70 1.251 . S
C59 O71 1.268 1_455 S
O60 Nd40 2.500 . S
O60 C42 1.258 . S
O61 Nd40 2.492 . S
O61 C42 1.239 . S
O62 Nd40 2.487 . S
O62 C49 1.241 1_665 S
O63 Nd40 2.682 1_445 S
O63 Nd41 2.414 . S
O63 C49 1.273 . S
O64 Nd40 2.410 1_445 S
O64 C50 1.251 . S
O65 Nd41 2.424 . S
O65 C50 1.268 . S
O66 Nd41 2.500 . S
O66 C51 1.258 . S
O67 Nd41 2.492 . S
O67 C51 1.239 . S
O68 Nd41 2.487 . S
O68 C58 1.241 . S
O69 Nd40 2.414 1_445 S
O69 Nd41 2.682 . S
O69 C58 1.273 . S
O70 Nd41 2.410 1_565 S
O70 C59 1.251 . S
O71 Nd40 2.424 . S
O71 C59 1.268 1_655 S
H72 C44 0.930 1_545 S
H73 C45 0.929 1_545 S
H74 C47 0.930 . S
H75 C48 0.929 . S
H76 C53 0.930 . S
H77 C54 0.929 . S
H78 C56 0.930 . S
H79 C57 0.929 . S
Nd80 C82 2.836 1_455 S
Nd80 O100 2.500 1_455 S
Nd80 O101 2.492 1_455 S
Nd80 O102 2.487 . S
Nd80 O103 2.682 . S
Nd80 O104 2.410 1_445 S
Nd80 O109 2.414 . S
Nd80 O111 2.424 . S
Nd81 C91 2.836 . S
Nd81 O103 2.414 1_565 S
Nd81 O105 2.424 1_455 S
Nd81 O106 2.500 . S
Nd81 O107 2.492 . S
Nd81 O108 2.487 . S
Nd81 O109 2.682 1_565 S
Nd81 O110 2.410 1_565 S
C82 Nd80 2.836 1_655 S
C82 C83 1.498 . S
C82 O100 1.258 . S
C82 O101 1.239 . S
C83 C82 1.498 . S
C83 C84 1.366 1_545 S
C83 C88 1.407 . S
C84 C83 1.366 1_565 S
C84 C85 1.392 . S
C84 H112 0.930 . S
C85 C84 1.392 . S
C85 C86 1.398 . S
C85 H113 0.929 . S
C86 C85 1.398 . S
C86 C87 1.352 1_565 S
C87 C86 1.352 1_545 S
C87 C88 1.384 . S
C87 H114 0.930 . S
C88 C83 1.407 . S
C88 C87 1.384 . S
C88 H115 0.929 . S
C89 O102 1.241 . S
C89 O103 1.273 . S
C90 O104 1.251 . S
C90 O105 1.268 . S
C91 Nd81 2.836 . S
C91 C92 1.498 1_565 S
C91 O106 1.258 . S
C91 O107 1.239 . S
C92 C91 1.498 1_545 S
C92 C93 1.366 . S
C92 C97 1.407 1_545 S
C93 C92 1.366 . S
C93 C94 1.392 . S
C93 H116 0.930 . S
C94 C93 1.392 . S
C94 C95 1.398 . S
C94 H117 0.929 . S
C95 C94 1.398 . S
C95 C96 1.352 . S
C96 C95 1.352 . S
C96 C97 1.384 1_545 S
C96 H118 0.930 1_545 S
C97 C92 1.407 1_565 S
C97 C96 1.384 1_565 S
C97 H119 0.929 . S
C98 O108 1.241 1_545 S
C98 O109 1.273 . S
C99 O110 1.251 . S
C99 O111 1.268 . S
O100 Nd80 2.500 1_655 S
O100 C82 1.258 . S
O101 Nd80 2.492 1_655 S
O101 C82 1.239 . S
O102 Nd80 2.487 . S
O102 C89 1.241 . S
O103 Nd80 2.682 . S
O103 Nd81 2.414 1_545 S
O103 C89 1.273 . S
O104 Nd80 2.410 1_665 S
O104 C90 1.251 . S
O105 Nd81 2.424 1_655 S
O105 C90 1.268 . S
O106 Nd81 2.500 . S
O106 C91 1.258 . S
O107 Nd81 2.492 . S
O107 C91 1.239 . S
O108 Nd81 2.487 . S
O108 C98 1.241 1_565 S
O109 Nd80 2.414 . S
O109 Nd81 2.682 1_545 S
O109 C98 1.273 . S
O110 Nd81 2.410 1_545 S
O110 C99 1.251 . S
O111 Nd80 2.424 . S
O111 C99 1.268 . S
H112 C84 0.930 . S
H113 C85 0.929 . S
H114 C87 0.930 . S
H115 C88 0.929 . S
H116 C93 0.930 . S
H117 C94 0.929 . S
H118 C96 0.930 1_565 S
H119 C97 0.929 . S
C120 C121 1.391 . S
C120 C122 1.394 . S
C120 H136 0.931 . S
C121 C120 1.391 . S
C121 C125 1.376 1_554 S
C122 C120 1.394 . S
C122 C123 1.339 1_554 S
C122 C126 1.531 . S
C123 C122 1.339 1_556 S
C123 C124 1.438 . S
C123 C131 1.503 1_455 S
C124 C123 1.438 . S
C124 C125 1.392 . S
C124 C127 1.511 1_455 S
C125 C121 1.376 1_556 S
C125 C124 1.392 . S
C125 H137 0.929 . S
C126 C122 1.531 . S
C126 H138 0.960 . S
C126 H139 0.962 . S
C126 H140 0.960 . S
C127 C124 1.511 1_655 S
C127 H141 0.961 . S
C127 H142 0.961 . S
C127 H143 0.961 1_655 S
C128 C129 1.356 1_554 S
C128 C130 1.363 . S
C128 H144 0.931 . S
C129 C128 1.356 1_556 S
C129 C133 1.423 . S
C130 C128 1.363 . S
C130 C131 1.355 1_554 S
C130 C134 1.524 . S
C131 C123 1.503 1_655 S
C131 C130 1.355 1_556 S
C131 C132 1.419 . S
C132 C131 1.419 . S
C132 C133 1.404 . S
C132 C135 1.539 1_655 S
C133 C129 1.423 . S
C133 C132 1.404 . S
C133 H145 0.930 . S
C134 C130 1.524 . S
C134 H146 0.956 . S
C134 H147 0.961 . S
C134 H148 0.961 . S
C135 C132 1.539 1_455 S
C135 H149 0.958 . S
C135 H150 0.961 . S
C135 H151 0.960 . S
H136 C120 0.931 . S
H137 C125 0.929 . S
H138 C126 0.960 . S
H139 C126 0.962 . S
H140 C126 0.960 . S
H141 C127 0.961 . S
H142 C127 0.961 . S
H143 C127 0.961 1_455 S
H144 C128 0.931 . S
H145 C133 0.930 . S
H146 C134 0.956 . S
H147 C134 0.961 . S
H148 C134 0.961 . S
H149 C135 0.958 . S
H150 C135 0.961 . S
H151 C135 0.960 . S
C152 C153 1.391 1_565 S
C152 C154 1.394 . S
C152 H168 0.931 . S
C153 C152 1.391 1_545 S
C153 C157 1.376 . S
C154 C152 1.394 . S
C154 C155 1.369 1_565 S
C154 C158 1.531 . S
C155 C154 1.369 1_545 S
C155 C156 1.410 . S
C155 C163 1.503 1_545 S
C156 C155 1.410 . S
C156 C157 1.392 . S
C156 C159 1.511 . S
C157 C153 1.376 . S
C157 C156 1.392 . S
C157 H169 0.929 . S
C158 C154 1.531 . S
C158 H170 0.960 . S
C158 H171 0.962 . S
C158 H172 0.960 . S
C159 C156 1.511 . S
C159 H173 0.961 . S
C159 H174 0.961 . S
C159 H175 0.961 . S
C160 C161 1.370 1_545 S
C160 C162 1.363 . S
C160 H176 0.931 . S
C161 C160 1.370 1_565 S
C161 C165 1.408 . S
C162 C160 1.363 . S
C162 C163 1.370 1_545 S
C162 C166 1.524 . S
C163 C155 1.503 1_565 S
C163 C162 1.370 1_565 S
C163 C164 1.403 . S
C164 C163 1.403 . S
C164 C165 1.404 . S
C164 C167 1.539 . S
C165 C161 1.408 . S
C165 C164 1.404 . S
C165 H177 0.930 . S
C166 C162 1.524 . S
C166 H178 0.956 . S
C166 H179 0.961 . S
C166 H180 0.961 . S
C167 C164 1.539 . S
C167 H181 0.958 . S
C167 H182 0.961 . S
C167 H183 0.960 . S
H168 C152 0.931 . S
H169 C157 0.929 . S
H170 C158 0.960 . S
H171 C158 0.962 . S
H172 C158 0.960 . S
H173 C159 0.961 . S
H174 C159 0.961 . S
H175 C159 0.961 . S
H176 C160 0.931 . S
H177 C165 0.930 . S
H178 C166 0.956 . S
H179 C166 0.961 . S
H180 C166 0.961 . S
H181 C167 0.958 . S
H182 C167 0.961 . S
H183 C167 0.960 . S
C184 C185 1.391 . S
C184 C186 1.394 . S
C184 H200 0.931 . S
C185 C184 1.391 . S
C185 C189 1.376 . S
C186 C184 1.394 . S
C186 C187 1.369 . S
C186 C190 1.531 . S
C187 C186 1.369 . S
C187 C188 1.410 . S
C187 C195 1.503 . S
C188 C187 1.410 . S
C188 C189 1.392 . S
C188 C191 1.511 . S
C189 C185 1.376 . S
C189 C188 1.392 . S
C189 H201 0.929 . S
C190 C186 1.531 . S
C190 H202 0.960 . S
C190 H203 0.962 . S
C190 H204 0.960 . S
C191 C188 1.511 . S
C191 H205 0.961 . S
C191 H206 0.961 . S
C191 H207 0.961 . S
C192 C193 1.370 . S
C192 C194 1.363 . S
C192 H208 0.931 . S
C193 C192 1.370 . S
C193 C197 1.408 . S
C194 C192 1.363 . S
C194 C195 1.370 . S
C194 C198 1.524 . S
C195 C187 1.503 . S
C195 C194 1.370 . S
C195 C196 1.403 . S
C196 C195 1.403 . S
C196 C197 1.404 . S
C196 C199 1.539 . S
C197 C193 1.408 . S
C197 C196 1.404 . S
C197 H209 0.930 . S
C198 C194 1.524 . S
C198 H210 0.956 . S
C198 H211 0.961 . S
C198 H212 0.961 . S
C199 C196 1.539 . S
C199 H213 0.958 . S
C199 H214 0.961 . S
C199 H215 0.960 . S
H200 C184 0.931 . S
H201 C189 0.929 . S
H202 C190 0.960 . S
H203 C190 0.962 . S
H204 C190 0.960 . S
H205 C191 0.961 . S
H206 C191 0.961 . S
H207 C191 0.961 . S
H208 C192 0.931 . S
H209 C197 0.930 . S
H210 C198 0.956 . S
H211 C198 0.961 . S
H212 C198 0.961 . S
H213 C199 0.958 . S
H214 C199 0.961 . S
H215 C199 0.960 . S
C216 C217 1.391 . S
C216 C218 1.394 1_565 S
C216 H232 0.931 . S
C217 C216 1.391 . S
C217 C221 1.376 1_565 S
C218 C216 1.394 1_545 S
C218 C219 1.369 . S
C218 C222 1.531 1_545 S
C219 C218 1.369 . S
C219 C220 1.410 . S
C219 C227 1.503 . S
C220 C219 1.410 . S
C220 C221 1.392 . S
C220 C223 1.511 . S
C221 C217 1.376 1_545 S
C221 C220 1.392 . S
C221 H233 0.929 . S
C222 C218 1.531 1_565 S
C222 H234 0.960 1_565 S
C222 H235 0.962 . S
C222 H236 0.960 1_565 S
C223 C220 1.511 . S
C223 H237 0.961 . S
C223 H238 0.961 . S
C223 H239 0.961 . S
C224 C225 1.370 1_565 S
C224 C226 1.363 . S
C224 H240 0.931 . S
C225 C224 1.370 1_545 S
C225 C229 1.408 . S
C226 C224 1.363 . S
C226 C227 1.370 1_565 S
C226 C230 1.524 . S
C227 C219 1.503 . S
C227 C226 1.370 1_545 S
C227 C228 1.403 . S
C228 C227 1.403 . S
C228 C229 1.404 . S
C228 C231 1.539 . S
C229 C225 1.408 . S
C229 C228 1.404 . S
C229 H241 0.930 . S
C230 C226 1.524 . S
C230 H242 0.956 . S
C230 H243 0.961 . S
C230 H244 0.961 . S
C231 C228 1.539 . S
C231 H245 0.958 . S
C231 H246 0.961 . S
C231 H247 0.960 . S
H232 C216 0.931 . S
H233 C221 0.929 . S
H234 C222 0.960 1_545 S
H235 C222 0.962 . S
H236 C222 0.960 1_545 S
H237 C223 0.961 . S
H238 C223 0.961 . S
H239 C223 0.961 . S
H240 C224 0.931 . S
H241 C229 0.930 . S
H242 C230 0.956 . S
H243 C230 0.961 . S
H244 C230 0.961 . S
H245 C231 0.958 . S
H246 C231 0.961 . S
H247 C231 0.960 . S
C248 C249 1.374 1_556 S
C248 C250 1.394 . S
C248 H264 0.931 . S
C249 C248 1.374 1_554 S
C249 C253 1.394 . S
C250 C248 1.394 . S
C250 C251 1.369 . S
C250 C254 1.531 . S
C251 C250 1.369 . S
C251 C252 1.410 1_556 S
C251 C259 1.507 . S
C252 C251 1.410 1_554 S
C252 C253 1.392 . S
C252 C255 1.511 . S
C253 C249 1.394 . S
C253 C252 1.392 . S
C253 H265 0.929 . S
C254 C250 1.531 . S
C254 H266 0.960 . S
C254 H267 0.962 . S
C254 H268 0.960 . S
C255 C252 1.511 . S
C255 H269 0.961 . S
C255 H270 0.961 . S
C255 H271 0.961 . S
C256 C257 1.372 . S
C256 C258 1.363 . S
C256 H272 0.931 . S
C257 C256 1.372 . S
C257 C261 1.404 1_554 S
C258 C256 1.363 . S
C258 C259 1.363 1_554 S
C258 C262 1.524 . S
C259 C251 1.507 . S
C259 C258 1.363 1_556 S
C259 C260 1.408 . S
C260 C259 1.408 . S
C260 C261 1.404 . S
C260 C263 1.539 . S
C261 C257 1.404 1_556 S
C261 C260 1.404 . S
C261 H273 0.930 . S
C262 C258 1.524 . S
C262 H274 0.935 1_554 S
C262 H275 0.961 . S
C262 H276 0.961 . S
C263 C260 1.539 . S
C263 H277 0.958 . S
C263 H278 0.961 . S
C263 H279 0.960 . S
H264 C248 0.931 . S
H265 C253 0.929 . S
H266 C254 0.960 . S
H267 C254 0.962 . S
H268 C254 0.960 . S
H269 C255 0.961 . S
H270 C255 0.961 . S
H271 C255 0.961 . S
H272 C256 0.931 . S
H273 C261 0.930 . S
H274 C262 0.935 1_556 S
H275 C262 0.961 . S
H276 C262 0.961 . S
H277 C263 0.958 . S
H278 C263 0.961 . S
H279 C263 0.960 . S
C280 C281 1.391 . S
C280 C282 1.394 . S
C280 H296 0.931 . S
C281 C280 1.391 . S
C281 C285 1.376 1_455 S
C282 C280 1.394 . S
C282 C283 1.369 . S
C282 C286 1.531 . S
C283 C282 1.369 . S
C283 C284 1.410 1_455 S
C283 C291 1.503 . S
C284 C283 1.410 1_655 S
C284 C285 1.392 . S
C284 C287 1.511 . S
C285 C281 1.376 1_655 S
C285 C284 1.392 . S
C285 H297 0.929 . S
C286 C282 1.531 . S
C286 H298 0.960 . S
C286 H299 0.962 . S
C286 H300 0.960 . S
C287 C284 1.511 . S
C287 H301 0.961 . S
C287 H302 0.961 . S
C287 H303 0.961 . S
C288 C289 1.370 . S
C288 C290 1.363 . S
C288 H304 0.931 . S
C289 C288 1.370 . S
C289 C293 1.408 . S
C290 C288 1.363 . S
C290 C291 1.370 . S
C290 C294 1.524 . S
C291 C283 1.503 . S
C291 C290 1.370 . S
C291 C292 1.403 . S
C292 C291 1.403 . S
C292 C293 1.404 . S
C292 C295 1.539 . S
C293 C289 1.408 . S
C293 C292 1.404 . S
C293 H305 0.930 . S
C294 C290 1.524 . S
C294 H306 0.956 . S
C294 H307 0.961 . S
C294 H308 0.961 . S
C295 C292 1.539 . S
C295 H309 0.958 . S
C295 H310 0.961 1_455 S
C295 H311 0.960 1_455 S
H296 C280 0.931 . S
H297 C285 0.929 . S
H298 C286 0.960 . S
H299 C286 0.962 . S
H300 C286 0.960 . S
H301 C287 0.961 . S
H302 C287 0.961 . S
H303 C287 0.961 . S
H304 C288 0.931 . S
H305 C293 0.930 . S
H306 C294 0.956 . S
H307 C294 0.961 . S
H308 C294 0.961 . S
H309 C295 0.958 . S
H310 C295 0.961 1_655 S
H311 C295 0.960 1_655 S
C312 C313 1.391 1_565 S
C312 C314 1.394 . S
C312 H328 0.931 . S
C313 C312 1.391 1_545 S
C313 C317 1.376 1_455 S
C314 C312 1.394 . S
C314 C315 1.369 . S
C314 C318 1.531 . S
C315 C314 1.369 . S
C315 C316 1.410 1_465 S
C315 C323 1.503 . S
C316 C315 1.410 1_645 S
C316 C317 1.392 . S
C316 C319 1.511 . S
C317 C313 1.376 1_655 S
C317 C316 1.392 . S
C317 H329 0.929 . S
C318 C314 1.531 . S
C318 H330 0.960 . S
C318 H331 0.962 . S
C318 H332 0.960 . S
C319 C316 1.511 . S
C319 H333 0.961 . S
C319 H334 0.961 . S
C319 H335 0.961 1_545 S
C320 C321 1.370 1_545 S
C320 C322 1.363 . S
C320 H336 0.931 . S
C321 C320 1.370 1_565 S
C321 C325 1.408 1_455 S
C322 C320 1.363 . S
C322 C323 1.370 1_545 S
C322 C326 1.524 . S
C323 C315 1.503 . S
C323 C322 1.370 1_565 S
C323 C324 1.403 1_455 S
C324 C323 1.403 1_655 S
C324 C325 1.404 . S
C324 C327 1.539 . S
C325 C321 1.408 1_655 S
C325 C324 1.404 . S
C325 H337 0.930 . S
C326 C322 1.524 . S
C326 H338 0.956 . S
C326 H339 0.961 . S
C326 H340 0.961 . S
C327 C324 1.539 . S
C327 H341 0.958 . S
C327 H342 0.961 . S
C327 H343 0.960 . S
H328 C312 0.931 . S
H329 C317 0.929 . S
H330 C318 0.960 . S
H331 C318 0.962 . S
H332 C318 0.960 . S
H333 C319 0.961 . S
H334 C319 0.961 . S
H335 C319 0.961 1_565 S
H336 C320 0.931 . S
H337 C325 0.930 . S
H338 C326 0.956 . S
H339 C326 0.961 . S
H340 C326 0.961 . S
H341 C327 0.958 . S
H342 C327 0.961 . S
H343 C327 0.960 . S
C344 C345 1.391 . S
C344 C346 1.394 1_455 S
C344 H360 0.931 1_455 S
C345 C344 1.391 . S
C345 C349 1.389 . S
C346 C344 1.394 1_655 S
C346 C347 1.361 1_645 S
C346 C350 1.531 . S
C347 C346 1.361 1_465 S
C347 C348 1.410 . S
C347 C355 1.504 1_565 S
C348 C347 1.410 . S
C348 C349 1.390 1_565 S
C348 C351 1.511 . S
C349 C345 1.389 . S
C349 C348 1.390 1_545 S
C349 H361 0.923 . S
C350 C346 1.531 . S
C350 H362 0.954 1_545 S
C350 H363 0.972 . S
C350 H364 0.964 1_545 S
C351 C348 1.511 . S
C351 H365 0.961 1_565 S
C351 H366 0.961 1_565 S
C351 H367 0.961 . S
C352 C353 1.370 . S
C352 C354 1.363 . S
C352 H368 0.931 . S
C353 C352 1.370 . S
C353 C357 1.408 1_445 S
C354 C352 1.363 . S
C354 C355 1.377 . S
C354 C358 1.524 . S
C355 C347 1.504 1_545 S
C355 C354 1.377 . S
C355 C356 1.395 1_445 S
C356 C355 1.395 1_665 S
C356 C357 1.404 . S
C356 C359 1.539 . S
C357 C353 1.408 1_665 S
C357 C356 1.404 . S
C357 H369 0.930 . S
C358 C354 1.524 . S
C358 H370 0.956 . S
C358 H371 0.961 . S
C358 H372 0.961 . S
C359 C356 1.539 . S
C359 H373 0.958 . S
C359 H374 0.961 . S
C359 H375 0.960 . S
H360 C344 0.931 1_655 S
H361 C349 0.923 . S
H362 C350 0.954 1_565 S
H363 C350 0.972 . S
H364 C350 0.964 1_565 S
H365 C351 0.961 1_545 S
H366 C351 0.961 1_545 S
H367 C351 0.961 . S
H368 C352 0.931 . S
H369 C357 0.930 . S
H370 C358 0.956 . S
H371 C358 0.961 . S
H372 C358 0.961 . S
H373 C359 0.958 . S
H374 C359 0.961 . S
H375 C359 0.960 . S
C376 C377 1.391 1_665 S
C376 C378 1.394 . S
C376 H392 0.931 . S
C377 C376 1.391 1_445 S
C377 C381 1.376 . S
C378 C376 1.394 . S
C378 C379 1.369 1_655 S
C378 C382 1.531 . S
C379 C378 1.369 1_455 S
C379 C380 1.410 1_565 S
C379 C387 1.503 . S
C380 C379 1.410 1_545 S
C380 C381 1.392 . S
C380 C383 1.511 . S
C381 C377 1.376 . S
C381 C380 1.392 . S
C381 H393 0.929 . S
C382 C378 1.531 . S
C382 H394 0.960 . S
C382 H395 0.962 . S
C382 H396 0.960 . S
C383 C380 1.511 . S
C383 H397 0.961 . S
C383 H398 0.961 . S
C383 H399 0.961 . S
C384 C385 1.378 . S
C384 C386 1.363 . S
C384 H400 0.931 . S
C385 C384 1.378 . S
C385 C389 1.405 1_445 S
C386 C384 1.363 . S
C386 C387 1.370 1_545 S
C386 C390 1.524 . S
C387 C379 1.503 . S
C387 C386 1.370 1_565 S
C387 C388 1.403 . S
C388 C387 1.403 . S
C388 C389 1.403 1_455 S
C388 C391 1.539 . S
C389 C385 1.405 1_665 S
C389 C388 1.403 1_655 S
C389 H401 0.926 . S
C390 C386 1.524 . S
C390 H402 0.956 1_455 S
C390 H403 0.961 . S
C390 H404 0.961 . S
C391 C388 1.539 . S
C391 H405 0.958 1_455 S
C391 H406 0.961 . S
C391 H407 0.960 . S
H392 C376 0.931 . S
H393 C381 0.929 . S
H394 C382 0.960 . S
H395 C382 0.962 . S
H396 C382 0.960 . S
H397 C383 0.961 . S
H398 C383 0.961 . S
H399 C383 0.961 . S
H400 C384 0.931 . S
H401 C389 0.926 . S
H402 C390 0.956 1_655 S
H403 C390 0.961 . S
H404 C390 0.961 . S
H405 C391 0.958 1_655 S
H406 C391 0.961 . S
H407 C391 0.960 . S
C121 C6 0.902 . S
C129 C15 0.771 . S
C153 C55 0.643 . S
C161 C46 0.684 . S
C185 C90 2.999 . S
C193 C99 2.995 . S
C217 C86 0.603 . S
C225 C95 0.642 . S
C249 C19 3.062 1_554 S
C257 C10 3.058 . S
C281 C50 4.867 . S
C289 C59 4.869 . S
C313 C58 1.486 . S
C321 C9 1.477 1_465 S
C345 C49 1.423 . S
C353 C89 1.457 . S
C377 C98 1.429 . S
C385 C18 1.434 1_545 S
