# Generated by pormake.
# Topology ukb, (4)-cn, num edge types: 1
# Building blocks:
#     Node 0, Type 0, BuildingBlock: GALJAG_clean_sbu_0, # of connection points: 4
#     Node 1, Type 0, BuildingBlock: GALJAG_clean_sbu_0, # of connection points: 4
#     Node 2, Type 0, BuildingBlock: GALJAG_clean_sbu_0, # of connection points: 4
#     Node 3, Type 0, BuildingBlock: GALJAG_clean_sbu_0, # of connection points: 4
#     Node 4, Type 0, BuildingBlock: GALJAG_clean_sbu_0, # of connection points: 4
#     Node 5, Type 0, BuildingBlock: GALJAG_clean_sbu_0, # of connection points: 4
#     Node 6, Type 0, BuildingBlock: GALJAG_clean_sbu_0, # of connection points: 4
#     Node 7, Type 0, BuildingBlock: GALJAG_clean_sbu_0, # of connection points: 4
#     Node 8, Type 0, BuildingBlock: GALJAG_clean_sbu_0, # of connection points: 4
#     Node 9, Type 0, BuildingBlock: GALJAG_clean_sbu_0, # of connection points: 4
#     Node 10, Type 0, BuildingBlock: GALJAG_clean_sbu_0, # of connection points: 4
#     Node 11, Type 0, BuildingBlock: GALJAG_clean_sbu_0, # of connection points: 4
#     Node 12, Type 0, BuildingBlock: GALJAG_clean_sbu_0, # of connection points: 4
#     Node 13, Type 0, BuildingBlock: GALJAG_clean_sbu_0, # of connection points: 4
#     Node 14, Type 0, BuildingBlock: GALJAG_clean_sbu_0, # of connection points: 4
#     Node 15, Type 0, BuildingBlock: GALJAG_clean_sbu_0, # of connection points: 4
#     Edge 16, Type (0, 0), BuildingBlock: XUDNAN_clean_linker_2, # of connection points: 2
#     Edge 17, Type (0, 0), BuildingBlock: XUDNAN_clean_linker_2, # of connection points: 2
#     Edge 18, Type (0, 0), BuildingBlock: XUDNAN_clean_linker_2, # of connection points: 2
#     Edge 19, Type (0, 0), BuildingBlock: XUDNAN_clean_linker_2, # of connection points: 2
#     Edge 20, Type (0, 0), BuildingBlock: XUDNAN_clean_linker_2, # of connection points: 2
#     Edge 21, Type (0, 0), BuildingBlock: XUDNAN_clean_linker_2, # of connection points: 2
#     Edge 22, Type (0, 0), BuildingBlock: XUDNAN_clean_linker_2, # of connection points: 2
#     Edge 23, Type (0, 0), BuildingBlock: XUDNAN_clean_linker_2, # of connection points: 2
#     Edge 24, Type (0, 0), BuildingBlock: XUDNAN_clean_linker_2, # of connection points: 2
#     Edge 25, Type (0, 0), BuildingBlock: XUDNAN_clean_linker_2, # of connection points: 2
#     Edge 26, Type (0, 0), BuildingBlock: XUDNAN_clean_linker_2, # of connection points: 2
#     Edge 27, Type (0, 0), BuildingBlock: XUDNAN_clean_linker_2, # of connection points: 2
#     Edge 28, Type (0, 0), BuildingBlock: XUDNAN_clean_linker_2, # of connection points: 2
#     Edge 29, Type (0, 0), BuildingBlock: XUDNAN_clean_linker_2, # of connection points: 2
#     Edge 30, Type (0, 0), BuildingBlock: XUDNAN_clean_linker_2, # of connection points: 2
#     Edge 31, Type (0, 0), BuildingBlock: XUDNAN_clean_linker_2, # of connection points: 2
#     Edge 32, Type (0, 0), BuildingBlock: XUDNAN_clean_linker_2, # of connection points: 2
#     Edge 33, Type (0, 0), BuildingBlock: XUDNAN_clean_linker_2, # of connection points: 2
#     Edge 34, Type (0, 0), BuildingBlock: XUDNAN_clean_linker_2, # of connection points: 2
#     Edge 35, Type (0, 0), BuildingBlock: XUDNAN_clean_linker_2, # of connection points: 2
#     Edge 36, Type (0, 0), BuildingBlock: XUDNAN_clean_linker_2, # of connection points: 2
#     Edge 37, Type (0, 0), BuildingBlock: XUDNAN_clean_linker_2, # of connection points: 2
#     Edge 38, Type (0, 0), BuildingBlock: XUDNAN_clean_linker_2, # of connection points: 2
#     Edge 39, Type (0, 0), BuildingBlock: XUDNAN_clean_linker_2, # of connection points: 2
#     Edge 40, Type (0, 0), BuildingBlock: XUDNAN_clean_linker_2, # of connection points: 2
#     Edge 41, Type (0, 0), BuildingBlock: XUDNAN_clean_linker_2, # of connection points: 2
#     Edge 42, Type (0, 0), BuildingBlock: XUDNAN_clean_linker_2, # of connection points: 2
#     Edge 43, Type (0, 0), BuildingBlock: XUDNAN_clean_linker_2, # of connection points: 2
#     Edge 44, Type (0, 0), BuildingBlock: XUDNAN_clean_linker_2, # of connection points: 2
#     Edge 45, Type (0, 0), BuildingBlock: XUDNAN_clean_linker_2, # of connection points: 2
#     Edge 46, Type (0, 0), BuildingBlock: XUDNAN_clean_linker_2, # of connection points: 2
#     Edge 47, Type (0, 0), BuildingBlock: XUDNAN_clean_linker_2, # of connection points: 2
# Relax obj value: 0.140
# Max RMSD: 0.093
# Mean RMSD: 0.093
data_MOF--net-ukb--node1-GALJAG_clean_sbu_0--edge1-XUDNAN_clean_linker_2
_symmetry_space_group_name_H-M    P1
_symmetry_Int_Tables_number       1
_symmetry_cell_setting            triclinic
loop_
_symmetry_equiv_pos_as_xyz
'x, y, z'
_cell_length_a     44.388218
_cell_length_b     44.364543
_cell_length_c     37.803425
_cell_angle_alpha  89.96791
_cell_angle_beta   89.999634
_cell_angle_gamma 89.983598
loop_
_atom_site_label
_atom_site_type_symbol
_atom_site_fract_x
_atom_site_fract_y
_atom_site_fract_z
_atom_type_partial_charge
In0 In 0.53144 0.19546 0.17331 0.0
O1 O 0.57257 0.18044 0.20458 0.0
O2 O 0.56163 0.1557 0.15818 0.0
C3 C 0.51768 0.20244 0.10422 0.0
C4 C 0.48212 0.17246 0.20638 0.0
C5 C 0.55333 0.2499 0.19181 0.0
O6 O 0.52674 0.17757 0.11658 0.0
O7 O 0.51476 0.22312 0.12677 0.0
O8 O 0.53511 0.23579 0.21153 0.0
O9 O 0.56067 0.23627 0.16389 0.0
C10 C 0.57893 0.15866 0.18447 0.0
O11 O 0.50837 0.16267 0.21108 0.0
O12 O 0.48056 0.19469 0.18575 0.0
In13 In 0.30027 0.54184 0.69585 0.0
O14 O 0.30942 0.50768 0.73922 0.0
O15 O 0.3261 0.4976 0.68784 0.0
C16 C 0.24623 0.55673 0.72398 0.0
C17 C 0.34468 0.58086 0.71332 0.0
C18 C 0.28384 0.54446 0.62725 0.0
O19 O 0.25821 0.53133 0.72925 0.0
O20 O 0.2614 0.57426 0.70479 0.0
O21 O 0.29671 0.56569 0.64334 0.0
O22 O 0.27999 0.52084 0.64541 0.0
C23 C 0.32389 0.48963 0.71984 0.0
O24 O 0.32044 0.57872 0.73049 0.0
O25 O 0.3469 0.56284 0.68771 0.0
In26 In 0.9686 0.30687 0.18438 0.0
O27 O 0.9988 0.31092 0.23333 0.0
O28 O 0.00841 0.33883 0.18907 0.0
C29 C 0.94241 0.25292 0.19503 0.0
C30 C 0.92408 0.3469 0.19805 0.0
C31 C 0.9907 0.29091 0.12085 0.0
O32 O 0.96266 0.26284 0.21549 0.0
O33 O 0.93528 0.27036 0.17004 0.0
O34 O 0.96966 0.30994 0.12418 0.0
O35 O 0.00129 0.281 0.14961 0.0
C36 C 0.01523 0.33128 0.2202 0.0
O37 O 0.94095 0.3494 0.17133 0.0
O38 O 0.9297 0.32447 0.21737 0.0
In39 In 0.20616 0.96762 0.68991 0.0
O40 O 0.185 0.00176 0.72836 0.0
O41 O 0.17756 0.00776 0.67338 0.0
C42 C 0.25527 0.95107 0.72762 0.0
C43 C 0.16355 0.92453 0.69794 0.0
C44 C 0.2334 0.97632 0.62692 0.0
O45 O 0.24376 0.977 0.7305 0.0
O46 O 0.24213 0.93403 0.70587 0.0
O47 O 0.21841 0.95283 0.6338 0.0
O48 O 0.23485 0.99515 0.65189 0.0
C49 C 0.17271 0.01717 0.70427 0.0
O50 O 0.16815 0.93748 0.66872 0.0
O51 O 0.18021 0.93341 0.72281 0.0
In52 In 0.52327 0.30992 0.80029 0.0
O53 O 0.56559 0.3365 0.81599 0.0
O54 O 0.54075 0.35147 0.77138 0.0
C55 C 0.51484 0.28065 0.86202 0.0
C56 C 0.46956 0.33679 0.78927 0.0
C57 C 0.54625 0.26481 0.76077 0.0
O58 O 0.52561 0.30702 0.86065 0.0
O59 O 0.50792 0.26946 0.83246 0.0
O60 O 0.51919 0.27324 0.75763 0.0
O61 O 0.5615 0.2797 0.78277 0.0
C62 C 0.5633 0.35531 0.79108 0.0
O63 O 0.48466 0.32529 0.76436 0.0
O64 O 0.48129 0.33418 0.81952 0.0
In65 In 0.18912 0.53098 0.31707 0.0
O66 O 0.17734 0.48843 0.28602 0.0
O67 O 0.15672 0.49444 0.33621 0.0
C68 C 0.24467 0.54375 0.2919 0.0
C69 C 0.15167 0.56945 0.28316 0.0
C70 C 0.20264 0.5381 0.38582 0.0
O71 O 0.23382 0.51747 0.2902 0.0
O72 O 0.22767 0.56292 0.30614 0.0
O73 O 0.18763 0.55714 0.36833 0.0
O74 O 0.21026 0.51474 0.36888 0.0
C75 C 0.15931 0.47833 0.30892 0.0
O76 O 0.15125 0.5663 0.31632 0.0
O77 O 0.17031 0.55279 0.2674 0.0
In78 In 0.97217 0.18678 0.81774 0.0
O79 O 0.93211 0.16125 0.84182 0.0
O80 O 0.94287 0.15278 0.7882 0.0
C81 C 0.98827 0.20603 0.88318 0.0
C82 C 0.02042 0.16043 0.78675 0.0
C83 C 0.95387 0.2377 0.78529 0.0
O84 O 0.99428 0.17995 0.87207 0.0
O85 O 0.97425 0.22228 0.86144 0.0
O86 O 0.98142 0.23066 0.78768 0.0
O87 O 0.93586 0.21891 0.79879 0.0
C88 C 0.92564 0.14724 0.81384 0.0
O89 O 0.00489 0.18043 0.77153 0.0
O90 O 0.01186 0.15406 0.81765 0.0
In91 In 0.30604 0.97335 0.30849 0.0
O92 O 0.34171 0.93564 0.31052 0.0
O93 O 0.32119 0.94589 0.26125 0.0
C94 C 0.29761 0.98083 0.37884 0.0
C95 C 0.33587 0.0237 0.28929 0.0
C96 C 0.25055 0.95956 0.28373 0.0
O97 O 0.3032 0.95544 0.36536 0.0
O98 O 0.29642 0.00226 0.35701 0.0
O99 O 0.26586 0.98117 0.27158 0.0
O100 O 0.26278 0.94569 0.30903 0.0
C101 C 0.33958 0.92961 0.27796 0.0
O102 O 0.30778 0.02072 0.28518 0.0
O103 O 0.34889 0.0013 0.30319 0.0
In104 In 0.4793 0.80678 0.82535 0.0
O105 O 0.50418 0.83341 0.78219 0.0
O106 O 0.52829 0.82257 0.82877 0.0
C107 C 0.46006 0.75646 0.79253 0.0
C108 C 0.43254 0.84565 0.81952 0.0
C109 C 0.49026 0.78187 0.88924 0.0
O110 O 0.48382 0.76992 0.78286 0.0
O111 O 0.4465 0.7685 0.8182 0.0
O112 O 0.47625 0.8066 0.88626 0.0
O113 O 0.49916 0.77069 0.86045 0.0
C114 C 0.5286 0.83526 0.799 0.0
O115 O 0.43602 0.82272 0.8004 0.0
O116 O 0.45292 0.84948 0.84247 0.0
In117 In 0.69219 0.46659 0.31727 0.0
O118 O 0.65537 0.43024 0.31641 0.0
O119 O 0.66992 0.44846 0.26747 0.0
C120 C 0.70843 0.45855 0.38523 0.0
C121 C 0.66267 0.51991 0.31373 0.0
C122 C 0.74592 0.4526 0.28781 0.0
O123 O 0.69132 0.44062 0.36886 0.0
O124 O 0.71694 0.4812 0.36755 0.0
O125 O 0.73553 0.4791 0.28697 0.0
O126 O 0.72942 0.43377 0.30347 0.0
C127 C 0.6531 0.42993 0.28317 0.0
O128 O 0.68173 0.51185 0.29086 0.0
O129 O 0.65893 0.5014 0.33866 0.0
In130 In 0.01919 0.70349 0.80743 0.0
O131 O 0.04996 0.66523 0.82728 0.0
O132 O 0.05336 0.6786 0.77359 0.0
C133 C 0.01086 0.73088 0.87013 0.0
C134 C 0.96726 0.67393 0.79202 0.0
C135 C 0.04104 0.75254 0.77411 0.0
O136 O 0.02622 0.70701 0.86695 0.0
O137 O 0.99937 0.74065 0.84177 0.0
O138 O 0.01618 0.74077 0.76525 0.0
O139 O 0.05439 0.73954 0.79931 0.0
C140 C 0.06279 0.66158 0.79782 0.0
O141 O 0.98496 0.68308 0.76825 0.0
O142 O 0.97537 0.68034 0.82297 0.0
In143 In 0.80479 0.02911 0.30596 0.0
O144 O 0.80479 0.97888 0.29167 0.0
O145 O 0.84607 0.99866 0.30771 0.0
C146 C 0.75145 0.0453 0.27714 0.0
C147 C 0.84038 0.06853 0.27102 0.0
C148 C 0.79453 0.03413 0.37613 0.0
O149 O 0.76542 0.02188 0.26761 0.0
O150 O 0.76398 0.05989 0.30165 0.0
O151 O 0.81074 0.05224 0.3589 0.0
O152 O 0.78368 0.01279 0.3581 0.0
C153 C 0.83259 0.97533 0.29722 0.0
O154 O 0.84114 0.06556 0.30418 0.0
O155 O 0.82228 0.0511 0.25547 0.0
In156 In 0.46984 0.68994 0.19778 0.0
O157 O 0.44443 0.64564 0.18682 0.0
O158 O 0.43057 0.67217 0.23041 0.0
C159 C 0.48547 0.70078 0.1302 0.0
C160 C 0.51894 0.6703 0.23407 0.0
C161 C 0.44302 0.74368 0.20795 0.0
O162 O 0.47318 0.67641 0.13979 0.0
O163 O 0.4907 0.7193 0.15479 0.0
O164 O 0.46593 0.73583 0.22564 0.0
O165 O 0.43384 0.72444 0.18587 0.0
C166 C 0.42654 0.64865 0.21246 0.0
O167 O 0.4972 0.68348 0.24888 0.0
O168 O 0.51646 0.66817 0.20103 0.0
In169 In 0.8036 0.46246 0.69593 0.0
O170 O 0.81104 0.49777 0.73903 0.0
O171 O 0.83378 0.50413 0.69031 0.0
C172 C 0.74816 0.45766 0.72481 0.0
C173 C 0.84487 0.41932 0.71078 0.0
C174 C 0.78823 0.45361 0.62748 0.0
O175 O 0.77065 0.44327 0.73631 0.0
O176 O 0.75386 0.4754 0.69954 0.0
O177 O 0.79179 0.43241 0.64926 0.0
O178 O 0.79314 0.47954 0.63989 0.0
C179 C 0.82882 0.51381 0.72111 0.0
O180 O 0.85077 0.44155 0.69115 0.0
O181 O 0.81847 0.41912 0.72302 0.0
In182 In 0.03011 0.80812 0.18424 0.0
O183 O 0.05962 0.84843 0.16909 0.0
O184 O 0.06986 0.82497 0.21664 0.0
C185 C 0.01569 0.80222 0.11518 0.0
C186 C 0.98035 0.8281 0.21897 0.0
C187 C 0.05417 0.75408 0.20052 0.0
O188 O 0.02144 0.8276 0.12872 0.0
O189 O 0.01638 0.78046 0.13655 0.0
O190 O 0.03417 0.76605 0.21978 0.0
O191 O 0.06219 0.76966 0.17429 0.0
C192 C 0.07625 0.84646 0.1961 0.0
O193 O 0.00631 0.83852 0.22395 0.0
O194 O 0.97932 0.8067 0.19712 0.0
In195 In 0.69663 0.0368 0.6865 0.0
O196 O 0.69761 0.9901 0.71246 0.0
O197 O 0.65677 0.00406 0.68871 0.0
C198 C 0.74448 0.0471 0.72881 0.0
C199 C 0.65665 0.08242 0.69399 0.0
C200 C 0.7191 0.04127 0.62024 0.0
O201 O 0.74706 0.03968 0.69671 0.0
O202 O 0.71767 0.04836 0.73999 0.0
O203 O 0.71669 0.06326 0.64107 0.0
O204 O 0.70966 0.01651 0.63247 0.0
C205 C 0.6705 0.98395 0.7058 0.0
O206 O 0.65433 0.06296 0.66986 0.0
O207 O 0.67872 0.07858 0.71446 0.0
H208 H 0.48138 0.12182 0.24723 0.0
H209 H 0.42265 0.18772 0.19782 0.0
H210 H 0.37818 0.15841 0.21731 0.0
H211 H 0.4408 0.05826 0.22186 0.0
H212 H 0.44727 0.03744 0.26211 0.0
H213 H 0.47413 0.06526 0.24786 0.0
H214 H 0.46921 0.09288 0.30798 0.0
H215 H 0.44246 0.06497 0.32258 0.0
H216 H 0.43251 0.10436 0.32336 0.0
H217 H 0.34045 0.11946 0.23795 0.0
H218 H 0.31253 0.07462 0.25884 0.0
H219 H 0.39642 0.03435 0.29411 0.0
C220 C 0.45915 0.13044 0.24112 0.0
C221 C 0.45541 0.15712 0.2212 0.0
C222 C 0.42598 0.16743 0.21328 0.0
C223 C 0.40062 0.15093 0.22422 0.0
C224 C 0.40516 0.12431 0.24315 0.0
C225 C 0.43371 0.11426 0.25173 0.0
C226 C 0.43267 0.08411 0.27043 0.0
C227 C 0.44972 0.05985 0.24929 0.0
C228 C 0.44493 0.08675 0.30834 0.0
C229 C 0.3991 0.07836 0.27036 0.0
C230 C 0.38355 0.10189 0.25479 0.0
C231 C 0.35237 0.10107 0.25052 0.0
C232 C 0.33672 0.07549 0.26238 0.0
C233 C 0.35231 0.05107 0.27815 0.0
C234 C 0.38386 0.05274 0.28235 0.0
H235 H 0.36402 0.452 0.68652 0.0
H236 H 0.31799 0.4667 0.78632 0.0
H237 H 0.34657 0.42482 0.81304 0.0
H238 H 0.37029 0.36835 0.69425 0.0
H239 H 0.40729 0.36795 0.6746 0.0
H240 H 0.3804 0.39643 0.66187 0.0
H241 H 0.41879 0.4381 0.6784 0.0
H242 H 0.44569 0.40983 0.69125 0.0
H243 H 0.43473 0.43866 0.72226 0.0
H244 H 0.38407 0.38609 0.83098 0.0
H245 H 0.42774 0.35226 0.8387 0.0
H246 H 0.44922 0.36156 0.72727 0.0
C247 C 0.35945 0.44589 0.71374 0.0
C248 C 0.33869 0.46247 0.73432 0.0
C249 C 0.33372 0.45421 0.77003 0.0
C250 C 0.34978 0.4304 0.78542 0.0
C251 C 0.37058 0.41492 0.76469 0.0
C252 C 0.37535 0.42214 0.72955 0.0
C253 C 0.40071 0.40347 0.71399 0.0
C254 C 0.38896 0.38282 0.68443 0.0
C255 C 0.4265 0.42373 0.70071 0.0
C256 C 0.41009 0.3854 0.7462 0.0
C257 C 0.39219 0.39216 0.77505 0.0
C258 C 0.39789 0.38016 0.80845 0.0
C259 C 0.42277 0.36104 0.8126 0.0
C260 C 0.44159 0.35408 0.78351 0.0
C261 C 0.4348 0.366 0.74978 0.0
H262 H 0.05931 0.3677 0.19381 0.0
H263 H 0.02473 0.33029 0.29174 0.0
H264 H 0.06137 0.36089 0.32556 0.0
H265 H 0.13919 0.37197 0.22233 0.0
H266 H 0.14527 0.40674 0.19871 0.0
H267 H 0.11837 0.37968 0.1824 0.0
H268 H 0.07689 0.42082 0.18277 0.0
H269 H 0.10355 0.44791 0.19922 0.0
H270 H 0.06912 0.44099 0.22315 0.0
H271 H 0.09701 0.40061 0.3486 0.0
H272 H 0.13143 0.44362 0.3589 0.0
H273 H 0.14466 0.45267 0.24575 0.0
C274 C 0.05984 0.36552 0.22234 0.0
C275 C 0.03924 0.34668 0.24024 0.0
C276 C 0.04048 0.34448 0.27756 0.0
C277 C 0.06117 0.36179 0.29695 0.0
C278 C 0.08077 0.38069 0.27851 0.0
C279 C 0.08059 0.38227 0.24199 0.0
C280 C 0.10303 0.40526 0.22854 0.0
C281 C 0.12794 0.38999 0.20671 0.0
C282 C 0.08719 0.43022 0.20718 0.0
C283 C 0.11516 0.41715 0.26322 0.0
C284 C 0.1021 0.40268 0.29177 0.0
C285 C 0.10787 0.41163 0.32647 0.0
C286 C 0.12734 0.4361 0.33207 0.0
C287 C 0.14096 0.45108 0.30313 0.0
C288 C 0.13509 0.44114 0.26837 0.0
H289 H 0.14694 0.03382 0.76731 0.0
H290 H 0.15365 0.05919 0.65673 0.0
H291 H 0.11817 0.10115 0.66693 0.0
H292 H 0.06893 0.04636 0.77486 0.0
H293 H 0.07035 0.06079 0.81939 0.0
H294 H 0.09865 0.03472 0.80437 0.0
H295 H 0.1405 0.0728 0.82125 0.0
H296 H 0.11229 0.099 0.83641 0.0
H297 H 0.13931 0.11051 0.80347 0.0
H298 H 0.07981 0.13842 0.68817 0.0
H299 H 0.04006 0.16748 0.7187 0.0
H300 H 0.05725 0.11715 0.8151 0.0
C301 C 0.14134 0.04857 0.74543 0.0
C302 C 0.15318 0.04344 0.71129 0.0
C303 C 0.14489 0.06281 0.68313 0.0
C304 C 0.12483 0.08675 0.68868 0.0
C305 C 0.11319 0.09096 0.72253 0.0
C306 C 0.12109 0.07242 0.75045 0.0
C307 C 0.10379 0.0806 0.78363 0.0
C308 C 0.08427 0.05404 0.79628 0.0
C309 C 0.12526 0.09137 0.81292 0.0
C310 C 0.08458 0.10627 0.76982 0.0
C311 C 0.0906 0.11212 0.73463 0.0
C312 C 0.07504 0.13421 0.71581 0.0
C313 C 0.05251 0.15059 0.73335 0.0
C314 C 0.04563 0.1446 0.76924 0.0
C315 C 0.06213 0.12234 0.78769 0.0
H316 H 0.52994 0.87785 0.74661 0.0
H317 H 0.58662 0.83105 0.82228 0.0
H318 H 0.63042 0.86114 0.80264 0.0
H319 H 0.58673 0.88734 0.67659 0.0
H320 H 0.57372 0.92462 0.66531 0.0
H321 H 0.54764 0.89716 0.68254 0.0
H322 H 0.53257 0.93414 0.73256 0.0
H323 H 0.55856 0.96166 0.71551 0.0
H324 H 0.56138 0.94952 0.7609 0.0
H325 H 0.6673 0.89812 0.77711 0.0
H326 H 0.69397 0.94121 0.75001 0.0
H327 H 0.61275 0.96526 0.69266 0.0
C328 C 0.55171 0.87356 0.75854 0.0
C329 C 0.55505 0.85195 0.78569 0.0
C330 C 0.58368 0.84743 0.8013 0.0
C331 C 0.60867 0.86432 0.79024 0.0
C332 C 0.60458 0.88575 0.7637 0.0
C333 C 0.57679 0.89052 0.74814 0.0
C334 C 0.5779 0.91655 0.72223 0.0
C335 C 0.5711 0.90576 0.68442 0.0
C336 C 0.55633 0.94197 0.73349 0.0
C337 C 0.61053 0.92599 0.72605 0.0
C338 C 0.62564 0.90765 0.74971 0.0
C339 C 0.65577 0.9125 0.75836 0.0
C340 C 0.67073 0.93701 0.74282 0.0
C341 C 0.65544 0.95652 0.71921 0.0
C342 C 0.62506 0.95063 0.71046 0.0
H343 H 0.56779 0.64078 0.20692 0.0
H344 H 0.5244 0.66454 0.30588 0.0
H345 H 0.56068 0.63251 0.33828 0.0
H346 H 0.57874 0.56583 0.22551 0.0
H347 H 0.61499 0.56246 0.20439 0.0
H348 H 0.58874 0.59063 0.18958 0.0
H349 H 0.62862 0.63235 0.19995 0.0
H350 H 0.65516 0.60421 0.21457 0.0
H351 H 0.64627 0.63577 0.24271 0.0
H352 H 0.59639 0.59206 0.35857 0.0
H353 H 0.63088 0.54866 0.36557 0.0
H354 H 0.65227 0.55268 0.25375 0.0
C355 C 0.56645 0.63992 0.23551 0.0
C356 C 0.54338 0.65524 0.25394 0.0
C357 C 0.54206 0.65318 0.29128 0.0
C358 C 0.56256 0.63503 0.3099 0.0
C359 C 0.58447 0.61944 0.29081 0.0
C360 C 0.58683 0.62207 0.25447 0.0
C361 C 0.61093 0.60131 0.23992 0.0
C362 C 0.59753 0.57873 0.2133 0.0
C363 C 0.63678 0.6195 0.22332 0.0
C364 C 0.62098 0.58573 0.27355 0.0
C365 C 0.60559 0.59663 0.30266 0.0
C366 C 0.60908 0.58384 0.33611 0.0
C367 C 0.6286 0.55915 0.33982 0.0
C368 C 0.64448 0.54764 0.3103 0.0
C369 C 0.64094 0.56148 0.27692 0.0
H370 H 0.95331 0.64322 0.7311 0.0
H371 H 0.92163 0.66106 0.83763 0.0
H372 H 0.87998 0.625 0.82896 0.0
H373 H 0.87811 0.6315 0.69006 0.0
H374 H 0.89161 0.60142 0.66223 0.0
H375 H 0.91668 0.63142 0.67512 0.0
H376 H 0.95405 0.59215 0.70063 0.0
H377 H 0.92906 0.56208 0.68806 0.0
H378 H 0.9411 0.56561 0.7334 0.0
H379 H 0.84494 0.5838 0.81117 0.0
H380 H 0.81842 0.54025 0.78511 0.0
H381 H 0.87284 0.54841 0.6902 0.0
C382 C 0.93713 0.64009 0.75222 0.0
C383 C 0.94049 0.6551 0.78493 0.0
C384 C 0.91935 0.64989 0.81229 0.0
C385 C 0.89559 0.6295 0.8076 0.0
C386 C 0.89328 0.61448 0.77538 0.0
C387 C 0.91336 0.61958 0.74806 0.0
C388 C 0.90713 0.59877 0.7171 0.0
C389 C 0.89782 0.61686 0.68418 0.0
C390 C 0.93446 0.57846 0.70937 0.0
C391 C 0.8809 0.58074 0.73165 0.0
C392 C 0.87311 0.59039 0.76517 0.0
C393 C 0.85057 0.57627 0.78476 0.0
C394 C 0.83569 0.55151 0.76978 0.0
C395 C 0.84348 0.54105 0.7356 0.0
C396 C 0.86619 0.55611 0.71623 0.0
H397 H 0.89237 0.96377 0.30666 0.0
H398 H 0.80931 0.92313 0.26959 0.0
H399 H 0.83761 0.87768 0.25123 0.0
H400 H 0.93715 0.94028 0.23723 0.0
H401 H 0.97039 0.93349 0.26344 0.0
H402 H 0.94307 0.96078 0.27781 0.0
H403 H 0.9378 0.93288 0.33777 0.0
H404 H 0.96523 0.90547 0.32358 0.0
H405 H 0.92855 0.89332 0.33822 0.0
H406 H 0.8761 0.83924 0.23079 0.0
H407 H 0.92122 0.81138 0.21038 0.0
H408 H 0.97847 0.87739 0.26174 0.0
C409 C 0.88001 0.94505 0.29539 0.0
C410 C 0.84865 0.94688 0.28967 0.0
C411 C 0.83334 0.92209 0.2744 0.0
C412 C 0.84922 0.89618 0.26395 0.0
C413 C 0.8803 0.89537 0.26928 0.0
C414 C 0.89547 0.91911 0.28491 0.0
C415 C 0.92911 0.91376 0.28537 0.0
C416 C 0.9459 0.93854 0.26472 0.0
C417 C 0.94086 0.9112 0.32351 0.0
C418 C 0.93068 0.88376 0.2665 0.0
C419 C 0.90232 0.87328 0.25774 0.0
C420 C 0.89837 0.84698 0.23804 0.0
C421 C 0.9241 0.83131 0.22655 0.0
C422 C 0.95329 0.84212 0.2347 0.0
C423 C 0.95644 0.86834 0.2555 0.0
H424 H 0.56081 0.27702 0.25681 0.0
H425 H 0.57245 0.29102 0.14404 0.0
H426 H 0.5944 0.34107 0.15549 0.0
H427 H 0.54445 0.35636 0.28066 0.0
H428 H 0.56595 0.35445 0.32105 0.0
H429 H 0.54771 0.32114 0.30416 0.0
H430 H 0.5988 0.29286 0.30455 0.0
H431 H 0.61714 0.32603 0.32144 0.0
H432 H 0.63046 0.30876 0.28123 0.0
H433 H 0.61797 0.38754 0.17846 0.0
H434 H 0.64464 0.42696 0.21199 0.0
H435 H 0.61981 0.38302 0.31041 0.0
C436 C 0.56747 0.29096 0.23462 0.0
C437 C 0.56478 0.28037 0.19954 0.0
C438 C 0.57435 0.2988 0.17111 0.0
C439 C 0.58666 0.32731 0.17732 0.0
C440 C 0.58946 0.33701 0.21215 0.0
C441 C 0.58032 0.31943 0.24041 0.0
C442 C 0.58841 0.33427 0.27529 0.0
C443 C 0.55993 0.34202 0.29654 0.0
C444 C 0.60999 0.31429 0.29688 0.0
C445 C 0.60402 0.36255 0.26211 0.0
C446 C 0.60391 0.36382 0.2256 0.0
C447 C 0.618 0.387 0.20708 0.0
C448 C 0.63311 0.40927 0.22636 0.0
C449 C 0.63421 0.40809 0.26376 0.0
C450 C 0.61905 0.38466 0.28184 0.0
H451 H 0.20921 0.60117 0.70046 0.0
H452 H 0.2177 0.53295 0.78203 0.0
H453 H 0.17033 0.55113 0.80957 0.0
H454 H 0.18128 0.65972 0.75378 0.0
H455 H 0.15545 0.67395 0.72098 0.0
H456 H 0.18919 0.6547 0.70737 0.0
H457 H 0.15729 0.61688 0.67093 0.0
H458 H 0.12341 0.63611 0.68431 0.0
H459 H 0.12741 0.59626 0.69232 0.0
H460 H 0.12391 0.58014 0.83055 0.0
H461 H 0.08066 0.61459 0.84037 0.0
H462 H 0.10199 0.66118 0.74264 0.0
C463 C 0.20099 0.58992 0.72399 0.0
C464 C 0.21707 0.56581 0.73931 0.0
C465 C 0.20556 0.55145 0.76991 0.0
C466 C 0.17877 0.56166 0.78572 0.0
C467 C 0.16361 0.58584 0.77015 0.0
C468 C 0.17415 0.59944 0.73964 0.0
C469 C 0.15386 0.62493 0.72797 0.0
C470 C 0.17097 0.6551 0.72752 0.0
C471 C 0.13965 0.61813 0.69174 0.0
C472 C 0.13058 0.62411 0.75711 0.0
C473 C 0.13653 0.60152 0.78132 0.0
C474 C 0.11881 0.5976 0.81147 0.0
C475 C 0.09439 0.61728 0.81689 0.0
C476 C 0.08787 0.64029 0.79209 0.0
C477 C 0.10616 0.6435 0.7618 0.0
H478 H 0.88029 0.10926 0.29903 0.0
H479 H 0.83825 0.08163 0.20058 0.0
H480 H 0.86252 0.12425 0.16983 0.0
H481 H 0.87152 0.18698 0.28718 0.0
H482 H 0.90725 0.19743 0.3062 0.0
H483 H 0.88894 0.16321 0.32003 0.0
H484 H 0.93652 0.13246 0.30344 0.0
H485 H 0.9551 0.16665 0.28977 0.0
H486 H 0.95187 0.13549 0.25943 0.0
H487 H 0.88674 0.17229 0.1512 0.0
H488 H 0.91214 0.22143 0.14479 0.0
H489 H 0.94018 0.21746 0.25466 0.0
C490 C 0.87665 0.11188 0.27087 0.0
C491 C 0.85745 0.09213 0.25213 0.0
C492 C 0.85298 0.09643 0.21539 0.0
C493 C 0.86666 0.12057 0.19771 0.0
C494 C 0.88495 0.14 0.21708 0.0
C495 C 0.89029 0.13578 0.25274 0.0
C496 C 0.90993 0.1607 0.2676 0.0
C497 C 0.89341 0.17811 0.29698 0.0
C498 C 0.94015 0.14807 0.28084 0.0
C499 C 0.91416 0.17998 0.23489 0.0
C500 C 0.89957 0.16755 0.20606 0.0
C501 C 0.89864 0.18203 0.17341 0.0
C502 C 0.91299 0.20998 0.17009 0.0
C503 C 0.92823 0.22307 0.19918 0.0
C504 C 0.92903 0.20772 0.23189 0.0
H505 H 0.28071 0.89538 0.72649 0.0
H506 H 0.2903 0.98381 0.77402 0.0
H507 H 0.33579 0.96611 0.80611 0.0
H508 H 0.3048 0.85208 0.80286 0.0
H509 H 0.32393 0.82439 0.77618 0.0
H510 H 0.29158 0.84395 0.7588 0.0
H511 H 0.32305 0.86152 0.70478 0.0
H512 H 0.35543 0.842 0.72194 0.0
H513 H 0.35778 0.88167 0.71198 0.0
H514 H 0.38196 0.93804 0.83145 0.0
H515 H 0.42417 0.90323 0.84566 0.0
H516 H 0.38272 0.83439 0.78042 0.0
C517 C 0.29221 0.91106 0.7438 0.0
C518 C 0.282 0.94097 0.74779 0.0
C519 C 0.29775 0.96075 0.77065 0.0
C520 C 0.32355 0.95087 0.78901 0.0
C521 C 0.3331 0.92114 0.78428 0.0
C522 C 0.31776 0.9016 0.76221 0.0
C523 C 0.33279 0.8711 0.76053 0.0
C524 C 0.31204 0.84643 0.77549 0.0
C525 C 0.34286 0.86366 0.72256 0.0
C526 C 0.35943 0.87657 0.78451 0.0
C527 C 0.35924 0.90539 0.79839 0.0
C528 C 0.38218 0.9154 0.82082 0.0
C529 C 0.40601 0.89552 0.82882 0.0
C530 C 0.40671 0.86619 0.81408 0.0
C531 C 0.38288 0.8567 0.79205 0.0
H532 H 0.6002 0.23805 0.77367 0.0
H533 H 0.52006 0.23043 0.70862 0.0
H534 H 0.54016 0.18323 0.68256 0.0
H535 H 0.65382 0.20846 0.71003 0.0
H536 H 0.67516 0.18882 0.74344 0.0
H537 H 0.65522 0.22288 0.75458 0.0
H538 H 0.6271 0.19445 0.8046 0.0
H539 H 0.64676 0.16027 0.79346 0.0
H540 H 0.60616 0.1608 0.79414 0.0
H541 H 0.56902 0.13574 0.66518 0.0
H542 H 0.60348 0.09213 0.65869 0.0
H543 H 0.66308 0.13099 0.73735 0.0
C544 C 0.58703 0.22675 0.75354 0.0
C545 C 0.5587 0.23798 0.74289 0.0
C546 C 0.54193 0.22225 0.71694 0.0
C547 C 0.55316 0.19546 0.70206 0.0
C548 C 0.58105 0.18476 0.71361 0.0
C549 C 0.5977 0.19999 0.7388 0.0
C550 C 0.62629 0.18325 0.74811 0.0
C551 C 0.65427 0.20197 0.73845 0.0
C552 C 0.62657 0.17416 0.7874 0.0
C553 C 0.62315 0.15606 0.72438 0.0
C554 C 0.59707 0.15735 0.70445 0.0
C555 C 0.5895 0.13456 0.68065 0.0
C556 C 0.60916 0.10989 0.67716 0.0
C557 C 0.63583 0.10818 0.69763 0.0
C558 C 0.64277 0.1316 0.72148 0.0
H559 H 0.38068 0.65624 0.25929 0.0
H560 H 0.41749 0.59235 0.184 0.0
H561 H 0.37613 0.55671 0.19806 0.0
H562 H 0.35526 0.60229 0.32439 0.0
H563 H 0.32163 0.62333 0.33456 0.0
H564 H 0.35495 0.64273 0.31971 0.0
H565 H 0.32447 0.66713 0.26864 0.0
H566 H 0.29107 0.64788 0.28337 0.0
H567 H 0.30391 0.64333 0.23846 0.0
H568 H 0.32964 0.52836 0.2206 0.0
H569 H 0.28117 0.51151 0.24675 0.0
H570 H 0.27529 0.59543 0.30514 0.0
C571 C 0.38023 0.63465 0.24594 0.0
C572 C 0.40233 0.62692 0.22073 0.0
C573 C 0.40074 0.59863 0.20349 0.0
C574 C 0.37741 0.57826 0.21137 0.0
C575 C 0.35588 0.58666 0.23639 0.0
C576 C 0.35708 0.6143 0.25322 0.0
C577 C 0.33066 0.61871 0.27786 0.0
C578 C 0.34127 0.62195 0.31641 0.0
C579 C 0.31139 0.64586 0.26638 0.0
C580 C 0.31418 0.58934 0.27218 0.0
C581 C 0.32911 0.57091 0.2485 0.0
C582 C 0.3178 0.54264 0.23918 0.0
C583 C 0.29035 0.53321 0.25418 0.0
C584 C 0.27452 0.55222 0.27783 0.0
C585 C 0.28684 0.58045 0.28703 0.0
H586 H 0.83404 0.36662 0.74563 0.0
H587 H 0.90471 0.4169 0.69267 0.0
H588 H 0.94071 0.37555 0.7052 0.0
H589 H 0.87963 0.3356 0.81478 0.0
H590 H 0.86039 0.29983 0.81486 0.0
H591 H 0.84062 0.33347 0.80175 0.0
H592 H 0.8266 0.30843 0.74202 0.0
H593 H 0.84641 0.27474 0.7549 0.0
H594 H 0.85604 0.29356 0.71418 0.0
H595 H 0.9691 0.32855 0.72486 0.0
H596 H 0.98706 0.2798 0.74897 0.0
H597 H 0.89691 0.26055 0.78711 0.0
C598 C 0.8571 0.36901 0.73671 0.0
C599 C 0.86666 0.39498 0.7183 0.0
C600 C 0.89697 0.39716 0.70688 0.0
C601 C 0.91754 0.37381 0.71386 0.0
C602 C 0.90732 0.34844 0.73207 0.0
C603 C 0.87777 0.34591 0.74321 0.0
C604 C 0.87226 0.31634 0.76203 0.0
C605 C 0.86267 0.32164 0.80064 0.0
C606 C 0.84895 0.29714 0.74208 0.0
C607 C 0.90336 0.30258 0.7599 0.0
C608 C 0.92336 0.32139 0.74264 0.0
C609 C 0.95358 0.3136 0.73825 0.0
C610 C 0.96358 0.2859 0.75201 0.0
C611 C 0.94334 0.26637 0.7697 0.0
C612 C 0.91287 0.27488 0.77345 0.0
H613 H 0.11557 0.84494 0.25163 0.0
H614 H 0.09212 0.89668 0.15816 0.0
H615 H 0.13262 0.93314 0.17209 0.0
H616 H 0.13342 0.90813 0.30802 0.0
H617 H 0.16439 0.88912 0.32934 0.0
H618 H 0.1331 0.86766 0.31243 0.0
H619 H 0.16966 0.83552 0.27453 0.0
H620 H 0.20105 0.85673 0.29149 0.0
H621 H 0.19515 0.85405 0.24443 0.0
H622 H 0.1765 0.96341 0.19598 0.0
H623 H 0.2215 0.98372 0.22637 0.0
H624 H 0.21572 0.91182 0.30395 0.0
C625 C 0.11889 0.86397 0.23411 0.0
C626 C 0.10072 0.86804 0.20383 0.0
C627 C 0.10583 0.89316 0.1815 0.0
C628 C 0.12869 0.91401 0.18926 0.0
C629 C 0.14615 0.90939 0.21945 0.0
C630 C 0.14156 0.88491 0.24143 0.0
C631 C 0.16389 0.88454 0.27167 0.0
C632 C 0.14772 0.88755 0.30748 0.0
C633 C 0.1836 0.85602 0.27043 0.0
C634 C 0.18197 0.91251 0.26315 0.0
C635 C 0.17131 0.92667 0.23308 0.0
C636 C 0.18494 0.95257 0.21965 0.0
C637 C 0.21042 0.96398 0.23711 0.0
C638 C 0.222 0.94941 0.26756 0.0
C639 C 0.20727 0.92359 0.28088 0.0
H640 H 0.34162 0.62474 0.7636 0.0
H641 H 0.39919 0.58947 0.68062 0.0
H642 H 0.43603 0.63023 0.69212 0.0
H643 H 0.35388 0.70209 0.74466 0.0
H644 H 0.3532 0.71364 0.79035 0.0
H645 H 0.33231 0.68093 0.77654 0.0
H646 H 0.3602 0.64844 0.82327 0.0
H647 H 0.38106 0.68111 0.83736 0.0
H648 H 0.40081 0.64763 0.82351 0.0
H649 H 0.46575 0.67648 0.71188 0.0
H650 H 0.4859 0.72325 0.73899 0.0
H651 H 0.40805 0.72717 0.80824 0.0
C652 C 0.36212 0.62536 0.74807 0.0
C653 C 0.36766 0.60392 0.72134 0.0
C654 C 0.3946 0.60567 0.70135 0.0
C655 C 0.41561 0.62874 0.70766 0.0
C656 C 0.40925 0.64979 0.734 0.0
C657 C 0.38317 0.64819 0.75392 0.0
C658 C 0.38112 0.67386 0.78005 0.0
C659 C 0.35349 0.6938 0.77242 0.0
C660 C 0.38079 0.66204 0.81831 0.0
C661 C 0.41012 0.69021 0.77179 0.0
C662 C 0.42612 0.67612 0.74517 0.0
C663 C 0.45345 0.68762 0.73285 0.0
C664 C 0.4647 0.71417 0.74831 0.0
C665 C 0.44857 0.72874 0.77571 0.0
C666 C 0.42098 0.71649 0.78742 0.0
H667 H 0.87957 0.33911 0.24654 0.0
H668 H 0.91303 0.40253 0.16854 0.0
H669 H 0.87191 0.438 0.18421 0.0
H670 H 0.80144 0.35189 0.22997 0.0
H671 H 0.79077 0.34754 0.2757 0.0
H672 H 0.82336 0.32812 0.25887 0.0
H673 H 0.85628 0.35256 0.30772 0.0
H674 H 0.82381 0.37217 0.32461 0.0
H675 H 0.85698 0.39302 0.31208 0.0
H676 H 0.82671 0.46671 0.20976 0.0
H677 H 0.78006 0.48419 0.23961 0.0
H678 H 0.7765 0.4004 0.29862 0.0
C679 C 0.87836 0.36051 0.2328 0.0
C680 C 0.89953 0.3682 0.20647 0.0
C681 C 0.89699 0.39626 0.18883 0.0
C682 C 0.8738 0.41654 0.19764 0.0
C683 C 0.85331 0.40824 0.22392 0.0
C684 C 0.85532 0.38074 0.24098 0.0
C685 C 0.83011 0.37653 0.26737 0.0
C686 C 0.81025 0.34942 0.25736 0.0
C687 C 0.84255 0.3734 0.30518 0.0
C688 C 0.81347 0.40595 0.26259 0.0
C689 C 0.82723 0.42416 0.2377 0.0
C690 C 0.81575 0.45256 0.22921 0.0
C691 C 0.78935 0.46235 0.24633 0.0
C692 C 0.77468 0.44359 0.27127 0.0
C693 C 0.78713 0.41519 0.27953 0.0
H694 H 0.08734 0.78688 0.79815 0.0
H695 H 0.0242 0.77875 0.71112 0.0
H696 H 0.04815 0.8227 0.68178 0.0
H697 H 0.08905 0.86826 0.80015 0.0
H698 H 0.12851 0.86968 0.81128 0.0
H699 H 0.106 0.83801 0.82504 0.0
H700 H 0.1432 0.80163 0.79386 0.0
H701 H 0.16578 0.83316 0.77991 0.0
H702 H 0.15155 0.80692 0.7476 0.0
H703 H 0.08132 0.86641 0.66099 0.0
H704 H 0.1186 0.90736 0.65225 0.0
H705 H 0.15796 0.88697 0.75452 0.0
C706 C 0.07844 0.79436 0.77294 0.0
C707 C 0.05402 0.7794 0.75676 0.0
C708 C 0.0429 0.78998 0.72393 0.0
C709 C 0.05639 0.81485 0.7071 0.0
C710 C 0.08068 0.82895 0.72372 0.0
C711 C 0.09136 0.81918 0.7561 0.0
C712 C 0.11759 0.83806 0.76869 0.0
C713 C 0.10981 0.85448 0.80334 0.0
C714 C 0.14621 0.81879 0.77273 0.0
C715 C 0.12033 0.85989 0.73818 0.0
C716 C 0.09898 0.85429 0.71236 0.0
C717 C 0.09793 0.87112 0.68119 0.0
C718 C 0.1192 0.89425 0.67642 0.0
C719 C 0.14099 0.90041 0.70281 0.0
C720 C 0.14138 0.88299 0.73403 0.0
H721 H 0.62016 0.16272 0.23783 0.0
H722 H 0.59372 0.10693 0.14885 0.0
H723 H 0.63423 0.0707 0.16372 0.0
H724 H 0.70003 0.15147 0.2288 0.0
H725 H 0.70663 0.15111 0.27585 0.0
H726 H 0.67557 0.17231 0.25796 0.0
H727 H 0.63878 0.14335 0.29899 0.0
H728 H 0.66971 0.1219 0.31681 0.0
H729 H 0.63787 0.10274 0.29759 0.0
H730 H 0.67768 0.04039 0.18901 0.0
H731 H 0.72182 0.01976 0.22097 0.0
H732 H 0.71921 0.09588 0.29294 0.0
C733 C 0.62292 0.14293 0.22139 0.0
C734 C 0.60383 0.13758 0.1922 0.0
C735 C 0.60818 0.11145 0.1713 0.0
C736 C 0.63104 0.09073 0.17961 0.0
C737 C 0.64933 0.09656 0.20881 0.0
C738 C 0.6456 0.12213 0.22922 0.0
C739 C 0.66839 0.12343 0.25892 0.0
C740 C 0.68887 0.15122 0.25514 0.0
C741 C 0.65274 0.12281 0.29522 0.0
C742 C 0.68555 0.09457 0.25212 0.0
C743 C 0.67422 0.07929 0.22318 0.0
C744 C 0.68672 0.05216 0.21171 0.0
C745 C 0.7117 0.04058 0.23006 0.0
C746 C 0.72385 0.05619 0.25945 0.0
C747 C 0.71035 0.08336 0.27067 0.0
H748 H 0.44233 0.78137 0.26589 0.0
H749 H 0.40989 0.77233 0.15812 0.0
H750 H 0.38311 0.82078 0.16345 0.0
H751 H 0.37397 0.81072 0.30054 0.0
H752 H 0.39162 0.83634 0.33118 0.0
H753 H 0.41079 0.80236 0.31812 0.0
H754 H 0.45667 0.83385 0.29742 0.0
H755 H 0.43762 0.86797 0.31044 0.0
H756 H 0.45123 0.86379 0.26579 0.0
H757 H 0.35848 0.86856 0.18045 0.0
H758 H 0.3347 0.91217 0.20936 0.0
H759 H 0.38074 0.89022 0.30742 0.0
C760 C 0.42993 0.78991 0.24333 0.0
C761 C 0.42827 0.7733 0.21151 0.0
C762 C 0.41139 0.78476 0.18273 0.0
C763 C 0.39623 0.8123 0.18543 0.0
C764 C 0.39796 0.82801 0.21721 0.0
C765 C 0.41418 0.81726 0.24578 0.0
C766 C 0.41046 0.83775 0.27764 0.0
C767 C 0.39584 0.82078 0.3087 0.0
C768 C 0.44081 0.85167 0.28845 0.0
C769 C 0.38937 0.86141 0.26253 0.0
C770 C 0.38285 0.85546 0.22749 0.0
C771 C 0.36348 0.87357 0.20784 0.0
C772 C 0.35008 0.8983 0.22453 0.0
C773 C 0.35587 0.9046 0.26063 0.0
C774 C 0.37601 0.88602 0.27976 0.0
H775 H 0.73034 0.41697 0.77503 0.0
H776 H 0.696 0.4838 0.70152 0.0
H777 H 0.64395 0.46857 0.71612 0.0
H778 H 0.68043 0.36066 0.75336 0.0
H779 H 0.67586 0.34591 0.79748 0.0
H780 H 0.71008 0.36506 0.78556 0.0
H781 H 0.70276 0.40239 0.83754 0.0
H782 H 0.66852 0.38319 0.84983 0.0
H783 H 0.66799 0.42316 0.84125 0.0
H784 H 0.5965 0.44132 0.73201 0.0
H785 H 0.55687 0.40531 0.74985 0.0
H786 H 0.62171 0.35692 0.81424 0.0
C787 C 0.71185 0.42898 0.76276 0.0
C788 C 0.71718 0.45169 0.7373 0.0
C789 C 0.69242 0.46649 0.7213 0.0
C790 C 0.66277 0.45801 0.72944 0.0
C791 C 0.6583 0.43491 0.7539 0.0
C792 C 0.68214 0.42082 0.77065 0.0
C793 C 0.67136 0.39504 0.79372 0.0
C794 C 0.68526 0.3649 0.7818 0.0
C795 C 0.67806 0.40133 0.83291 0.0
C796 C 0.63785 0.3961 0.78633 0.0
C797 C 0.63075 0.41944 0.76353 0.0
C798 C 0.60167 0.42339 0.75045 0.0
C799 C 0.57934 0.40277 0.76062 0.0
C800 C 0.5862 0.3786 0.78371 0.0
C801 C 0.61572 0.3756 0.79718 0.0
H802 H 0.11519 0.61341 0.31159 0.0
H803 H 0.14878 0.57804 0.21204 0.0
H804 H 0.12409 0.61968 0.18014 0.0
H805 H 0.04197 0.64135 0.27644 0.0
H806 H 0.04254 0.6744 0.30413 0.0
H807 H 0.06016 0.64006 0.31906 0.0
H808 H 0.11027 0.66886 0.32851 0.0
H809 H 0.09292 0.70319 0.31337 0.0
H810 H 0.1266 0.68949 0.29215 0.0
H811 H 0.1014 0.66739 0.15974 0.0
H812 H 0.07885 0.71757 0.15116 0.0
H813 H 0.05788 0.72231 0.26316 0.0
C814 C 0.11675 0.6141 0.28302 0.0
C815 C 0.13383 0.59246 0.26425 0.0
C816 C 0.13575 0.59433 0.22693 0.0
C817 C 0.12179 0.61788 0.20856 0.0
C818 C 0.10577 0.63925 0.22785 0.0
C819 C 0.10282 0.6375 0.26418 0.0
C820 C 0.08562 0.66443 0.27851 0.0
C821 C 0.05579 0.65446 0.29554 0.0
C822 C 0.10502 0.68256 0.30467 0.0
C823 C 0.08014 0.68194 0.24464 0.0
C824 C 0.09193 0.66686 0.2158 0.0
C825 C 0.09162 0.67922 0.18198 0.0
C826 C 0.07893 0.7078 0.17743 0.0
C827 C 0.06652 0.72365 0.20647 0.0
C828 C 0.06683 0.71042 0.24046 0.0
H829 H 0.90761 0.11577 0.75552 0.0
H830 H 0.88261 0.13558 0.86398 0.0
H831 H 0.83513 0.10722 0.85593 0.0
H832 H 0.83671 0.12603 0.71892 0.0
H833 H 0.83974 0.09604 0.68698 0.0
H834 H 0.87315 0.11463 0.70265 0.0
H835 H 0.89536 0.06323 0.72228 0.0
H836 H 0.86196 0.04442 0.70655 0.0
H837 H 0.87404 0.03939 0.75169 0.0
H838 H 0.78795 0.08163 0.83377 0.0
H839 H 0.74545 0.06027 0.79962 0.0
H840 H 0.80208 0.05649 0.7062 0.0
C841 C 0.89244 0.11362 0.77781 0.0
C842 C 0.8988 0.12775 0.81042 0.0
C843 C 0.87823 0.12476 0.83883 0.0
C844 C 0.85123 0.10867 0.83451 0.0
C845 C 0.84535 0.09551 0.80174 0.0
C846 C 0.86552 0.09761 0.77398 0.0
C847 C 0.85307 0.0832 0.74077 0.0
C848 C 0.85051 0.10636 0.71057 0.0
C849 C 0.87225 0.05593 0.72968 0.0
C850 C 0.82237 0.07344 0.75384 0.0
C851 C 0.81839 0.08049 0.78915 0.0
C852 C 0.79101 0.07554 0.80629 0.0
C853 C 0.767 0.06344 0.7867 0.0
C854 C 0.77058 0.05648 0.75039 0.0
C855 C 0.79882 0.0611 0.73407 0.0
H856 H 0.51712 0.25672 0.07083 0.0
H857 H 0.50943 0.16065 0.05169 0.0
H858 H 0.50482 0.17051 0.98736 0.0
H859 H 0.46618 0.28249 0.00154 0.0
H860 H 0.48934 0.31452 0.99056 0.0
H861 H 0.48923 0.29993 0.03504 0.0
H862 H 0.54725 0.29368 0.03251 0.0
H863 H 0.54755 0.30816 0.98804 0.0
H864 H 0.56385 0.27181 0.99738 0.0
H865 H 0.50223 0.19112 0.92512 0.0
H866 H 0.50508 0.22028 0.86949 0.0
H867 H 0.51761 0.30256 0.9297 0.0
C868 C 0.51394 0.23778 0.05315 0.0
C869 C 0.51321 0.20794 0.06611 0.0
C870 C 0.50981 0.18368 0.04218 0.0
C871 C 0.50713 0.18909 0.0057 0.0
C872 C 0.50824 0.21883 0.99373 0.0
C873 C 0.51177 0.24274 0.01676 0.0
C874 C 0.51441 0.27238 0.99712 0.0
C875 C 0.48822 0.29357 0.00664 0.0
C876 C 0.54509 0.28737 0.00418 0.0
C877 C 0.51201 0.26144 0.95935 0.0
C878 C 0.50804 0.23054 0.95795 0.0
C879 C 0.50531 0.2153 0.92591 0.0
C880 C 0.50691 0.23206 0.89449 0.0
C881 C 0.51162 0.26363 0.89537 0.0
C882 C 0.51406 0.27844 0.92826 0.0
H883 H 0.22177 0.49729 0.43593 0.0
H884 H 0.20618 0.59265 0.41776 0.0
H885 H 0.2258 0.60413 0.47722 0.0
H886 H 0.1991 0.49855 0.52888 0.0
H887 H 0.22692 0.4712 0.54222 0.0
H888 H 0.21174 0.47027 0.49803 0.0
H889 H 0.26577 0.47351 0.47238 0.0
H890 H 0.2811 0.47467 0.51648 0.0
H891 H 0.28996 0.5042 0.4854 0.0
H892 H 0.24981 0.60587 0.53612 0.0
H893 H 0.27183 0.59756 0.59506 0.0
H894 H 0.26878 0.5008 0.57827 0.0
C895 C 0.22238 0.52053 0.44465 0.0
C896 C 0.21258 0.54413 0.42232 0.0
C897 C 0.21347 0.57425 0.43456 0.0
C898 C 0.22469 0.58101 0.4682 0.0
C899 C 0.23445 0.55734 0.48946 0.0
C900 C 0.23297 0.52766 0.47856 0.0
C901 C 0.24426 0.50655 0.50727 0.0
C902 C 0.21899 0.4854 0.51984 0.0
C903 C 0.27192 0.48868 0.49462 0.0
C904 C 0.25269 0.52912 0.53573 0.0
C905 C 0.2471 0.55827 0.52458 0.0
C906 C 0.254 0.58317 0.54537 0.0
C907 C 0.26665 0.57819 0.57872 0.0
C908 C 0.27187 0.54855 0.5912 0.0
C909 C 0.26478 0.52367 0.56942 0.0
H910 H 0.96952 0.30682 0.05541 0.0
H911 H 0.03105 0.24566 0.10844 0.0
H912 H 0.04032 0.21943 0.05191 0.0
H913 H 0.93542 0.25385 0.00177 0.0
H914 H 0.93176 0.27771 0.9634 0.0
H915 H 0.93286 0.29418 0.00684 0.0
H916 H 0.97809 0.32759 0.98835 0.0
H917 H 0.97694 0.31144 0.94463 0.0
H918 H 0.01131 0.31021 0.96999 0.0
H919 H 0.03779 0.19591 0.99156 0.0
H920 H 0.02624 0.17906 0.93066 0.0
H921 H 0.96756 0.25639 0.91672 0.0
C922 C 0.98554 0.28841 0.05494 0.0
C923 C 0.99966 0.27833 0.08625 0.0
C924 C 0.02014 0.25388 0.08469 0.0
C925 C 0.02553 0.23881 0.05272 0.0
C926 C 0.01054 0.24872 0.0225 0.0
C927 C 0.9913 0.27323 0.02321 0.0
C928 C 0.97667 0.27826 0.98751 0.0
C929 C 0.94214 0.27584 0.99006 0.0
C930 C 0.98634 0.30868 0.97169 0.0
C931 C 0.98993 0.25217 0.96696 0.0
C932 C 0.00952 0.23546 0.98753 0.0
C933 C 0.02293 0.20912 0.97498 0.0
C934 C 0.01614 0.19966 0.94047 0.0
C935 C 0.99622 0.21656 0.91899 0.0
C936 C 0.98322 0.24326 0.93239 0.0
H937 H 0.27978 0.93865 0.42753 0.0
H938 H 0.30241 0.03324 0.41579 0.0
H939 H 0.29138 0.0416 0.4791 0.0
H940 H 0.21706 0.95062 0.48398 0.0
H941 H 0.22337 0.91747 0.51055 0.0
H942 H 0.23569 0.91825 0.4652 0.0
H943 H 0.29004 0.90521 0.48504 0.0
H944 H 0.27787 0.90435 0.5305 0.0
H945 H 0.30852 0.92856 0.51745 0.0
H946 H 0.27684 0.03999 0.54304 0.0
H947 H 0.25663 0.0293 0.60259 0.0
H948 H 0.24069 0.93634 0.57217 0.0
C949 C 0.28283 0.961 0.43849 0.0
C950 C 0.29221 0.98528 0.41698 0.0
C951 C 0.29533 0.01435 0.43193 0.0
C952 C 0.28922 0.01928 0.46784 0.0
C953 C 0.27972 0.99496 0.48831 0.0
C954 C 0.27632 0.96642 0.47418 0.0
C955 C 0.26383 0.94465 0.50139 0.0
C956 C 0.23317 0.93202 0.48957 0.0
C957 C 0.28642 0.91919 0.50905 0.0
C958 C 0.26052 0.96547 0.53291 0.0
C959 C 0.27021 0.99428 0.52491 0.0
C960 C 0.26922 0.01752 0.54965 0.0
C961 C 0.25774 0.01122 0.5834 0.0
C962 C 0.24706 0.98204 0.59193 0.0
C963 C 0.24866 0.95888 0.56636 0.0
H964 H 0.48317 0.80369 0.95713 0.0
H965 H 0.50591 0.72319 0.89759 0.0
H966 H 0.50964 0.69428 0.95304 0.0
H967 H 0.53408 0.78777 0.03176 0.0
H968 H 0.50836 0.80274 0.0642 0.0
H969 H 0.50845 0.81762 0.01982 0.0
H970 H 0.45141 0.80612 0.01427 0.0
H971 H 0.45117 0.79118 0.05856 0.0
H972 H 0.43807 0.76834 0.02227 0.0
H973 H 0.50599 0.67287 0.01387 0.0
H974 H 0.49934 0.66137 0.07747 0.0
H975 H 0.48313 0.75605 0.0986 0.0
C976 C 0.48922 0.78006 0.95589 0.0
C977 C 0.49422 0.76567 0.92308 0.0
C978 C 0.50211 0.73472 0.92244 0.0
C979 C 0.50424 0.71806 0.95379 0.0
C980 C 0.49893 0.73277 0.98567 0.0
C981 C 0.492 0.76314 0.98709 0.0
C982 C 0.4872 0.77328 0.02497 0.0
C983 C 0.51094 0.79674 0.03582 0.0
C984 C 0.45505 0.78544 0.03032 0.0
C985 C 0.49184 0.74373 0.0444 0.0
C986 C 0.49842 0.72062 0.02116 0.0
C987 C 0.50144 0.69084 0.03246 0.0
C988 C 0.49757 0.6845 0.06851 0.0
C989 C 0.49129 0.70789 0.09278 0.0
C990 C 0.4887 0.73789 0.0806 0.0
H991 H 0.78333 0.49458 0.5731 0.0
H992 H 0.76747 0.40081 0.60021 0.0
H993 H 0.74546 0.39215 0.54121 0.0
H994 H 0.71606 0.50607 0.5235 0.0
H995 H 0.73338 0.5295 0.49026 0.0
H996 H 0.74867 0.52844 0.53437 0.0
H997 H 0.80085 0.51326 0.50933 0.0
H998 H 0.78577 0.51448 0.4651 0.0
H999 H 0.80387 0.48072 0.48101 0.0
H1000 H 0.72262 0.39415 0.48112 0.0
H1001 H 0.70394 0.40563 0.42117 0.0
H1002 H 0.73637 0.49753 0.43132 0.0
C1003 C 0.77543 0.47219 0.56646 0.0
C1004 C 0.77706 0.44836 0.59121 0.0
C1005 C 0.76652 0.41937 0.58161 0.0
C1006 C 0.7539 0.41424 0.54821 0.0
C1007 C 0.75226 0.43825 0.52459 0.0
C1008 C 0.76304 0.46657 0.53302 0.0
C1009 C 0.75862 0.48838 0.50254 0.0
C1010 C 0.73795 0.51465 0.51333 0.0
C1011 C 0.78909 0.49988 0.48868 0.0
C1012 C 0.74339 0.46793 0.47588 0.0
C1013 C 0.73979 0.43918 0.48929 0.0
C1014 C 0.72553 0.4165 0.47017 0.0
C1015 C 0.71488 0.42328 0.43622 0.0
C1016 C 0.71881 0.45242 0.42162 0.0
C1017 C 0.73325 0.47501 0.44177 0.0
H1018 H 0.02177 0.74974 0.07899 0.0
H1019 H 0.99955 0.84423 0.06522 0.0
H1020 H 0.99331 0.83578 0.00076 0.0
H1021 H 0.06643 0.74369 0.00167 0.0
H1022 H 0.05491 0.70564 0.9919 0.0
H1023 H 0.0551 0.71878 0.03694 0.0
H1024 H 0.99881 0.70422 0.04336 0.0
H1025 H 0.99844 0.69098 0.99832 0.0
H1026 H 0.97168 0.71908 0.01244 0.0
H1027 H 0.98991 0.81651 0.93761 0.0
H1028 H 0.99323 0.78921 0.88066 0.0
H1029 H 0.02094 0.70832 0.93635 0.0
C1030 C 0.01516 0.76859 0.06249 0.0
C1031 C 0.01074 0.79757 0.07699 0.0
C1032 C 0.00284 0.82182 0.05452 0.0
C1033 C 0.9992 0.8172 0.01798 0.0
C1034 C 0.00393 0.7883 0.00449 0.0
C1035 C 0.01199 0.76449 0.02608 0.0
C1036 C 0.01766 0.73608 0.00498 0.0
C1037 C 0.05047 0.72544 0.00912 0.0
C1038 C 0.99531 0.71112 0.0154 0.0
C1039 C 0.0116 0.74756 0.96801 0.0
C1040 C 0.00332 0.77761 0.96825 0.0
C1041 C 0.99642 0.79301 0.93714 0.0
C1042 C 0.9983 0.77732 0.90497 0.0
C1043 C 0.00743 0.74673 0.9042 0.0
C1044 C 0.01404 0.73174 0.93617 0.0
H1045 H 0.71804 0.00133 0.56431 0.0
H1046 H 0.75213 0.08871 0.59701 0.0
H1047 H 0.77664 0.09502 0.53906 0.0
H1048 H 0.78295 0.97879 0.51227 0.0
H1049 H 0.76088 0.96116 0.47803 0.0
H1050 H 0.74674 0.96266 0.52268 0.0
H1051 H 0.6982 0.98904 0.50049 0.0
H1052 H 0.71214 0.98753 0.45579 0.0
H1053 H 0.70124 0.02316 0.4748 0.0
H1054 H 0.79746 0.09228 0.47847 0.0
H1055 H 0.81098 0.08205 0.41647 0.0
H1056 H 0.76223 0.99727 0.421 0.0
C1057 C 0.73078 0.02169 0.55923 0.0
C1058 C 0.73329 0.04451 0.58514 0.0
C1059 C 0.74988 0.07098 0.5775 0.0
C1060 C 0.76399 0.07474 0.54472 0.0
C1061 C 0.76112 0.05191 0.51974 0.0
C1062 C 0.74478 0.02601 0.52635 0.0
C1063 C 0.7444 0.00559 0.49415 0.0
C1064 C 0.75966 0.97525 0.50228 0.0
C1065 C 0.71207 0.00108 0.4805 0.0
C1066 C 0.76301 0.02418 0.46852 0.0
C1067 C 0.77263 0.05066 0.48407 0.0
C1068 C 0.79007 0.07164 0.46593 0.0
C1069 C 0.79768 0.06558 0.43073 0.0
C1070 C 0.78764 0.03889 0.41393 0.0
C1071 C 0.77023 0.01785 0.4332 0.0
loop_
_geom_bond_atom_site_label_1
_geom_bond_atom_site_label_2
_geom_bond_distance
_geom_bond_site_symmetry_2
_ccdc_geom_bond_type
In0 O1 2.294 . S
In0 O2 2.326 . S
In0 O6 2.266 . S
In0 O7 2.326 . S
In0 O8 2.266 . S
In0 O9 2.326 . S
In0 O11 2.294 . S
In0 O12 2.326 . S
O1 In0 2.294 . S
O1 C10 1.240 . S
O2 In0 2.326 . S
O2 C10 1.252 . S
C3 O6 1.252 . S
C3 O7 1.260 . S
C4 O11 1.240 . S
C4 O12 1.252 . S
C5 O8 1.252 . S
C5 O9 1.260 . S
O6 In0 2.266 . S
O6 C3 1.252 . S
O7 In0 2.326 . S
O7 C3 1.260 . S
O8 In0 2.266 . S
O8 C5 1.252 . S
O9 In0 2.326 . S
O9 C5 1.260 . S
C10 O1 1.240 . S
C10 O2 1.252 . S
O11 In0 2.294 . S
O11 C4 1.240 . S
O12 In0 2.326 . S
O12 C4 1.252 . S
In13 O14 2.294 . S
In13 O15 2.326 . S
In13 O19 2.266 . S
In13 O20 2.326 . S
In13 O21 2.266 . S
In13 O22 2.326 . S
In13 O24 2.294 . S
In13 O25 2.326 . S
O14 In13 2.294 . S
O14 C23 1.240 . S
O15 In13 2.326 . S
O15 C23 1.252 . S
C16 O19 1.252 . S
C16 O20 1.260 . S
C17 O24 1.240 . S
C17 O25 1.252 . S
C18 O21 1.252 . S
C18 O22 1.260 . S
O19 In13 2.266 . S
O19 C16 1.252 . S
O20 In13 2.326 . S
O20 C16 1.260 . S
O21 In13 2.266 . S
O21 C18 1.252 . S
O22 In13 2.326 . S
O22 C18 1.260 . S
C23 O14 1.240 . S
C23 O15 1.252 . S
O24 In13 2.294 . S
O24 C17 1.240 . S
O25 In13 2.326 . S
O25 C17 1.252 . S
In26 O27 2.294 1_655 S
In26 O28 2.326 1_655 S
In26 O32 2.266 . S
In26 O33 2.326 . S
In26 O34 2.266 . S
In26 O35 2.326 1_655 S
In26 O37 2.294 . S
In26 O38 2.326 . S
O27 In26 2.294 1_455 S
O27 C36 1.240 . S
O28 In26 2.326 1_455 S
O28 C36 1.252 . S
C29 O32 1.252 . S
C29 O33 1.260 . S
C30 O37 1.240 . S
C30 O38 1.252 . S
C31 O34 1.252 . S
C31 O35 1.260 1_655 S
O32 In26 2.266 . S
O32 C29 1.252 . S
O33 In26 2.326 . S
O33 C29 1.260 . S
O34 In26 2.266 . S
O34 C31 1.252 . S
O35 In26 2.326 1_455 S
O35 C31 1.260 1_455 S
C36 O27 1.240 . S
C36 O28 1.252 . S
O37 In26 2.294 . S
O37 C30 1.240 . S
O38 In26 2.326 . S
O38 C30 1.252 . S
In39 O40 2.294 1_565 S
In39 O41 2.326 1_565 S
In39 O45 2.266 . S
In39 O46 2.326 . S
In39 O47 2.266 . S
In39 O48 2.326 1_565 S
In39 O50 2.294 . S
In39 O51 2.326 . S
O40 In39 2.294 1_545 S
O40 C49 1.240 . S
O41 In39 2.326 1_545 S
O41 C49 1.252 . S
C42 O45 1.252 . S
C42 O46 1.260 . S
C43 O50 1.240 . S
C43 O51 1.252 . S
C44 O47 1.252 . S
C44 O48 1.260 1_565 S
O45 In39 2.266 . S
O45 C42 1.252 . S
O46 In39 2.326 . S
O46 C42 1.260 . S
O47 In39 2.266 . S
O47 C44 1.252 . S
O48 In39 2.326 1_545 S
O48 C44 1.260 1_545 S
C49 O40 1.240 . S
C49 O41 1.252 . S
O50 In39 2.294 . S
O50 C43 1.240 . S
O51 In39 2.326 . S
O51 C43 1.252 . S
In52 O53 2.294 . S
In52 O54 2.326 . S
In52 O58 2.266 . S
In52 O59 2.326 . S
In52 O60 2.266 . S
In52 O61 2.326 . S
In52 O63 2.294 . S
In52 O64 2.326 . S
O53 In52 2.294 . S
O53 C62 1.240 . S
O54 In52 2.326 . S
O54 C62 1.252 . S
C55 O58 1.252 . S
C55 O59 1.260 . S
C56 O63 1.240 . S
C56 O64 1.252 . S
C57 O60 1.252 . S
C57 O61 1.260 . S
O58 In52 2.266 . S
O58 C55 1.252 . S
O59 In52 2.326 . S
O59 C55 1.260 . S
O60 In52 2.266 . S
O60 C57 1.252 . S
O61 In52 2.326 . S
O61 C57 1.260 . S
C62 O53 1.240 . S
C62 O54 1.252 . S
O63 In52 2.294 . S
O63 C56 1.240 . S
O64 In52 2.326 . S
O64 C56 1.252 . S
In65 O66 2.294 . S
In65 O67 2.326 . S
In65 O71 2.266 . S
In65 O72 2.326 . S
In65 O73 2.266 . S
In65 O74 2.326 . S
In65 O76 2.294 . S
In65 O77 2.326 . S
O66 In65 2.294 . S
O66 C75 1.240 . S
O67 In65 2.326 . S
O67 C75 1.252 . S
C68 O71 1.252 . S
C68 O72 1.260 . S
C69 O76 1.240 . S
C69 O77 1.252 . S
C70 O73 1.252 . S
C70 O74 1.260 . S
O71 In65 2.266 . S
O71 C68 1.252 . S
O72 In65 2.326 . S
O72 C68 1.260 . S
O73 In65 2.266 . S
O73 C70 1.252 . S
O74 In65 2.326 . S
O74 C70 1.260 . S
C75 O66 1.240 . S
C75 O67 1.252 . S
O76 In65 2.294 . S
O76 C69 1.240 . S
O77 In65 2.326 . S
O77 C69 1.252 . S
In78 O79 2.294 . S
In78 O80 2.326 . S
In78 O84 2.266 . S
In78 O85 2.326 1_655 S
In78 O86 2.266 . S
In78 O87 2.326 . S
In78 O89 2.294 1_655 S
In78 O90 2.326 1_655 S
O79 In78 2.294 . S
O79 C88 1.240 . S
O80 In78 2.326 . S
O80 C88 1.252 . S
C81 O84 1.252 . S
C81 O85 1.260 1_655 S
C82 O89 1.240 . S
C82 O90 1.252 . S
C83 O86 1.252 . S
C83 O87 1.260 . S
O84 In78 2.266 . S
O84 C81 1.252 . S
O85 In78 2.326 1_455 S
O85 C81 1.260 1_455 S
O86 In78 2.266 . S
O86 C83 1.252 . S
O87 In78 2.326 . S
O87 C83 1.260 . S
C88 O79 1.240 . S
C88 O80 1.252 . S
O89 In78 2.294 1_455 S
O89 C82 1.240 . S
O90 In78 2.326 1_455 S
O90 C82 1.252 . S
In91 O92 2.294 . S
In91 O93 2.326 . S
In91 O97 2.266 . S
In91 O98 2.326 1_565 S
In91 O99 2.266 . S
In91 O100 2.326 . S
In91 O102 2.294 1_565 S
In91 O103 2.326 1_565 S
O92 In91 2.294 . S
O92 C101 1.240 . S
O93 In91 2.326 . S
O93 C101 1.252 . S
C94 O97 1.252 . S
C94 O98 1.260 1_565 S
C95 O102 1.240 . S
C95 O103 1.252 . S
C96 O99 1.252 . S
C96 O100 1.260 . S
O97 In91 2.266 . S
O97 C94 1.252 . S
O98 In91 2.326 1_545 S
O98 C94 1.260 1_545 S
O99 In91 2.266 . S
O99 C96 1.252 . S
O100 In91 2.326 . S
O100 C96 1.260 . S
C101 O92 1.240 . S
C101 O93 1.252 . S
O102 In91 2.294 1_545 S
O102 C95 1.240 . S
O103 In91 2.326 1_545 S
O103 C95 1.252 . S
In104 O105 2.294 . S
In104 O106 2.326 . S
In104 O110 2.266 . S
In104 O111 2.326 . S
In104 O112 2.266 . S
In104 O113 2.326 . S
In104 O115 2.294 . S
In104 O116 2.326 . S
O105 In104 2.294 . S
O105 C114 1.240 . S
O106 In104 2.326 . S
O106 C114 1.252 . S
C107 O110 1.252 . S
C107 O111 1.260 . S
C108 O115 1.240 . S
C108 O116 1.252 . S
C109 O112 1.252 . S
C109 O113 1.260 . S
O110 In104 2.266 . S
O110 C107 1.252 . S
O111 In104 2.326 . S
O111 C107 1.260 . S
O112 In104 2.266 . S
O112 C109 1.252 . S
O113 In104 2.326 . S
O113 C109 1.260 . S
C114 O105 1.240 . S
C114 O106 1.252 . S
O115 In104 2.294 . S
O115 C108 1.240 . S
O116 In104 2.326 . S
O116 C108 1.252 . S
In117 O118 2.294 . S
In117 O119 2.326 . S
In117 O123 2.266 . S
In117 O124 2.326 . S
In117 O125 2.266 . S
In117 O126 2.326 . S
In117 O128 2.294 . S
In117 O129 2.326 . S
O118 In117 2.294 . S
O118 C127 1.240 . S
O119 In117 2.326 . S
O119 C127 1.252 . S
C120 O123 1.252 . S
C120 O124 1.260 . S
C121 O128 1.240 . S
C121 O129 1.252 . S
C122 O125 1.252 . S
C122 O126 1.260 . S
O123 In117 2.266 . S
O123 C120 1.252 . S
O124 In117 2.326 . S
O124 C120 1.260 . S
O125 In117 2.266 . S
O125 C122 1.252 . S
O126 In117 2.326 . S
O126 C122 1.260 . S
C127 O118 1.240 . S
C127 O119 1.252 . S
O128 In117 2.294 . S
O128 C121 1.240 . S
O129 In117 2.326 . S
O129 C121 1.252 . S
In130 O131 2.294 . S
In130 O132 2.326 . S
In130 O136 2.266 . S
In130 O137 2.326 1_455 S
In130 O138 2.266 . S
In130 O139 2.326 . S
In130 O141 2.294 1_455 S
In130 O142 2.326 1_455 S
O131 In130 2.294 . S
O131 C140 1.240 . S
O132 In130 2.326 . S
O132 C140 1.252 . S
C133 O136 1.252 . S
C133 O137 1.260 1_455 S
C134 O141 1.240 . S
C134 O142 1.252 . S
C135 O138 1.252 . S
C135 O139 1.260 . S
O136 In130 2.266 . S
O136 C133 1.252 . S
O137 In130 2.326 1_655 S
O137 C133 1.260 1_655 S
O138 In130 2.266 . S
O138 C135 1.252 . S
O139 In130 2.326 . S
O139 C135 1.260 . S
C140 O131 1.240 . S
C140 O132 1.252 . S
O141 In130 2.294 1_655 S
O141 C134 1.240 . S
O142 In130 2.326 1_655 S
O142 C134 1.252 . S
In143 O144 2.294 1_545 S
In143 O145 2.326 1_545 S
In143 O149 2.266 . S
In143 O150 2.326 . S
In143 O151 2.266 . S
In143 O152 2.326 1_545 S
In143 O154 2.294 . S
In143 O155 2.326 . S
O144 In143 2.294 1_565 S
O144 C153 1.240 . S
O145 In143 2.326 1_565 S
O145 C153 1.252 . S
C146 O149 1.252 . S
C146 O150 1.260 . S
C147 O154 1.240 . S
C147 O155 1.252 . S
C148 O151 1.252 . S
C148 O152 1.260 1_545 S
O149 In143 2.266 . S
O149 C146 1.252 . S
O150 In143 2.326 . S
O150 C146 1.260 . S
O151 In143 2.266 . S
O151 C148 1.252 . S
O152 In143 2.326 1_565 S
O152 C148 1.260 1_565 S
C153 O144 1.240 . S
C153 O145 1.252 . S
O154 In143 2.294 . S
O154 C147 1.240 . S
O155 In143 2.326 . S
O155 C147 1.252 . S
In156 O157 2.294 . S
In156 O158 2.326 . S
In156 O162 2.266 . S
In156 O163 2.326 . S
In156 O164 2.266 . S
In156 O165 2.326 . S
In156 O167 2.294 . S
In156 O168 2.326 . S
O157 In156 2.294 . S
O157 C166 1.240 . S
O158 In156 2.326 . S
O158 C166 1.252 . S
C159 O162 1.252 . S
C159 O163 1.260 . S
C160 O167 1.240 . S
C160 O168 1.252 . S
C161 O164 1.252 . S
C161 O165 1.260 . S
O162 In156 2.266 . S
O162 C159 1.252 . S
O163 In156 2.326 . S
O163 C159 1.260 . S
O164 In156 2.266 . S
O164 C161 1.252 . S
O165 In156 2.326 . S
O165 C161 1.260 . S
C166 O157 1.240 . S
C166 O158 1.252 . S
O167 In156 2.294 . S
O167 C160 1.240 . S
O168 In156 2.326 . S
O168 C160 1.252 . S
In169 O170 2.294 . S
In169 O171 2.326 . S
In169 O175 2.266 . S
In169 O176 2.326 . S
In169 O177 2.266 . S
In169 O178 2.326 . S
In169 O180 2.294 . S
In169 O181 2.326 . S
O170 In169 2.294 . S
O170 C179 1.240 . S
O171 In169 2.326 . S
O171 C179 1.252 . S
C172 O175 1.252 . S
C172 O176 1.260 . S
C173 O180 1.240 . S
C173 O181 1.252 . S
C174 O177 1.252 . S
C174 O178 1.260 . S
O175 In169 2.266 . S
O175 C172 1.252 . S
O176 In169 2.326 . S
O176 C172 1.260 . S
O177 In169 2.266 . S
O177 C174 1.252 . S
O178 In169 2.326 . S
O178 C174 1.260 . S
C179 O170 1.240 . S
C179 O171 1.252 . S
O180 In169 2.294 . S
O180 C173 1.240 . S
O181 In169 2.326 . S
O181 C173 1.252 . S
In182 O183 2.294 . S
In182 O184 2.326 . S
In182 O188 2.266 . S
In182 O189 2.326 1_455 S
In182 O190 2.266 . S
In182 O191 2.326 . S
In182 O193 2.294 1_455 S
In182 O194 2.326 1_455 S
O183 In182 2.294 . S
O183 C192 1.240 . S
O184 In182 2.326 . S
O184 C192 1.252 . S
C185 O188 1.252 . S
C185 O189 1.260 1_455 S
C186 O193 1.240 . S
C186 O194 1.252 . S
C187 O190 1.252 . S
C187 O191 1.260 . S
O188 In182 2.266 . S
O188 C185 1.252 . S
O189 In182 2.326 1_655 S
O189 C185 1.260 1_655 S
O190 In182 2.266 . S
O190 C187 1.252 . S
O191 In182 2.326 . S
O191 C187 1.260 . S
C192 O183 1.240 . S
C192 O184 1.252 . S
O193 In182 2.294 1_655 S
O193 C186 1.240 . S
O194 In182 2.326 1_655 S
O194 C186 1.252 . S
In195 O196 2.294 1_545 S
In195 O197 2.326 1_545 S
In195 O201 2.266 . S
In195 O202 2.326 . S
In195 O203 2.266 . S
In195 O204 2.326 1_545 S
In195 O206 2.294 . S
In195 O207 2.326 . S
O196 In195 2.294 1_565 S
O196 C205 1.240 . S
O197 In195 2.326 1_565 S
O197 C205 1.252 . S
C198 O201 1.252 . S
C198 O202 1.260 . S
C199 O206 1.240 . S
C199 O207 1.252 . S
C200 O203 1.252 . S
C200 O204 1.260 1_545 S
O201 In195 2.266 . S
O201 C198 1.252 . S
O202 In195 2.326 . S
O202 C198 1.260 . S
O203 In195 2.266 . S
O203 C200 1.252 . S
O204 In195 2.326 1_565 S
O204 C200 1.260 1_565 S
C205 O196 1.240 . S
C205 O197 1.252 . S
O206 In195 2.294 . S
O206 C199 1.240 . S
O207 In195 2.326 . S
O207 C199 1.252 . S
H208 C220 0.930 . S
H209 C222 0.930 . S
H210 C223 0.930 . S
H211 C227 0.959 . S
H212 C227 0.959 . S
H213 C227 0.961 . S
H214 C228 0.960 . S
H215 C228 0.961 . S
H216 C228 0.959 . S
H217 C231 0.929 . S
H218 C232 0.931 . S
H219 C234 0.930 . S
C220 H208 0.930 . S
C220 C221 1.399 . S
C220 C225 1.399 . S
C221 C220 1.399 . S
C221 C222 1.376 . S
C222 H209 0.930 . S
C222 C221 1.376 . S
C222 C223 1.388 . S
C223 H210 0.930 . S
C223 C222 1.388 . S
C223 C224 1.390 . S
C224 C223 1.390 . S
C224 C225 1.394 . S
C224 C230 1.465 . S
C225 C220 1.399 . S
C225 C224 1.394 . S
C225 C226 1.516 . S
C226 C225 1.516 . S
C226 C227 1.502 . S
C226 C228 1.561 . S
C226 C229 1.526 . S
C227 H211 0.959 . S
C227 H212 0.959 . S
C227 H213 0.961 . S
C227 C226 1.502 . S
C228 H214 0.960 . S
C228 H215 0.961 . S
C228 H216 0.959 . S
C228 C226 1.561 . S
C229 C226 1.526 . S
C229 C230 1.396 . S
C229 C234 1.390 . S
C230 C224 1.465 . S
C230 C229 1.396 . S
C230 C231 1.399 . S
C231 H217 0.929 . S
C231 C230 1.399 . S
C231 C232 1.385 . S
C232 H218 0.931 . S
C232 C231 1.385 . S
C232 C233 1.389 . S
C233 C232 1.389 . S
C233 C234 1.387 . S
C234 H219 0.930 . S
C234 C229 1.390 . S
C234 C233 1.387 . S
H235 C247 0.930 . S
H236 C249 0.930 . S
H237 C250 0.930 . S
H238 C254 0.959 . S
H239 C254 0.959 . S
H240 C254 0.961 . S
H241 C255 0.960 . S
H242 C255 0.961 . S
H243 C255 0.959 . S
H244 C258 0.929 . S
H245 C259 0.931 . S
H246 C261 0.930 . S
C247 H235 0.930 . S
C247 C248 1.399 . S
C247 C252 1.399 . S
C248 C247 1.399 . S
C248 C249 1.376 . S
C249 H236 0.930 . S
C249 C248 1.376 . S
C249 C250 1.388 . S
C250 H237 0.930 . S
C250 C249 1.388 . S
C250 C251 1.390 . S
C251 C250 1.390 . S
C251 C252 1.394 . S
C251 C257 1.465 . S
C252 C247 1.399 . S
C252 C251 1.394 . S
C252 C253 1.516 . S
C253 C252 1.516 . S
C253 C254 1.502 . S
C253 C255 1.561 . S
C253 C256 1.526 . S
C254 H238 0.959 . S
C254 H239 0.959 . S
C254 H240 0.961 . S
C254 C253 1.502 . S
C255 H241 0.960 . S
C255 H242 0.961 . S
C255 H243 0.959 . S
C255 C253 1.561 . S
C256 C253 1.526 . S
C256 C257 1.396 . S
C256 C261 1.390 . S
C257 C251 1.465 . S
C257 C256 1.396 . S
C257 C258 1.399 . S
C258 H244 0.929 . S
C258 C257 1.399 . S
C258 C259 1.385 . S
C259 H245 0.931 . S
C259 C258 1.385 . S
C259 C260 1.389 . S
C260 C259 1.389 . S
C260 C261 1.387 . S
C261 H246 0.930 . S
C261 C256 1.390 . S
C261 C260 1.387 . S
H262 C274 0.930 . S
H263 C276 0.930 . S
H264 C277 0.930 . S
H265 C281 0.959 . S
H266 C281 0.959 . S
H267 C281 0.961 . S
H268 C282 0.960 . S
H269 C282 0.961 . S
H270 C282 0.959 . S
H271 C285 0.929 . S
H272 C286 0.931 . S
H273 C288 0.930 . S
C274 H262 0.930 . S
C274 C275 1.399 . S
C274 C279 1.399 . S
C275 C274 1.399 . S
C275 C276 1.376 . S
C276 H263 0.930 . S
C276 C275 1.376 . S
C276 C277 1.388 . S
C277 H264 0.930 . S
C277 C276 1.388 . S
C277 C278 1.390 . S
C278 C277 1.390 . S
C278 C279 1.394 . S
C278 C284 1.465 . S
C279 C274 1.399 . S
C279 C278 1.394 . S
C279 C280 1.516 . S
C280 C279 1.516 . S
C280 C281 1.502 . S
C280 C282 1.561 . S
C280 C283 1.526 . S
C281 H265 0.959 . S
C281 H266 0.959 . S
C281 H267 0.961 . S
C281 C280 1.502 . S
C282 H268 0.960 . S
C282 H269 0.961 . S
C282 H270 0.959 . S
C282 C280 1.561 . S
C283 C280 1.526 . S
C283 C284 1.396 . S
C283 C288 1.390 . S
C284 C278 1.465 . S
C284 C283 1.396 . S
C284 C285 1.399 . S
C285 H271 0.929 . S
C285 C284 1.399 . S
C285 C286 1.385 . S
C286 H272 0.931 . S
C286 C285 1.385 . S
C286 C287 1.389 . S
C287 C286 1.389 . S
C287 C288 1.387 . S
C288 H273 0.930 . S
C288 C283 1.390 . S
C288 C287 1.387 . S
H289 C301 0.930 . S
H290 C303 0.930 . S
H291 C304 0.930 . S
H292 C308 0.959 . S
H293 C308 0.959 . S
H294 C308 0.961 . S
H295 C309 0.960 . S
H296 C309 0.961 . S
H297 C309 0.959 . S
H298 C312 0.929 . S
H299 C313 0.931 . S
H300 C315 0.930 . S
C301 H289 0.930 . S
C301 C302 1.399 . S
C301 C306 1.399 . S
C302 C301 1.399 . S
C302 C303 1.376 . S
C303 H290 0.930 . S
C303 C302 1.376 . S
C303 C304 1.388 . S
C304 H291 0.930 . S
C304 C303 1.388 . S
C304 C305 1.390 . S
C305 C304 1.390 . S
C305 C306 1.394 . S
C305 C311 1.465 . S
C306 C301 1.399 . S
C306 C305 1.394 . S
C306 C307 1.516 . S
C307 C306 1.516 . S
C307 C308 1.502 . S
C307 C309 1.561 . S
C307 C310 1.526 . S
C308 H292 0.959 . S
C308 H293 0.959 . S
C308 H294 0.961 . S
C308 C307 1.502 . S
C309 H295 0.960 . S
C309 H296 0.961 . S
C309 H297 0.959 . S
C309 C307 1.561 . S
C310 C307 1.526 . S
C310 C311 1.396 . S
C310 C315 1.390 . S
C311 C305 1.465 . S
C311 C310 1.396 . S
C311 C312 1.399 . S
C312 H298 0.929 . S
C312 C311 1.399 . S
C312 C313 1.385 . S
C313 H299 0.931 . S
C313 C312 1.385 . S
C313 C314 1.389 . S
C314 C313 1.389 . S
C314 C315 1.387 . S
C315 H300 0.930 . S
C315 C310 1.390 . S
C315 C314 1.387 . S
H316 C328 0.930 . S
H317 C330 0.930 . S
H318 C331 0.930 . S
H319 C335 0.959 . S
H320 C335 0.959 . S
H321 C335 0.961 . S
H322 C336 0.960 . S
H323 C336 0.961 . S
H324 C336 0.959 . S
H325 C339 0.929 . S
H326 C340 0.931 . S
H327 C342 0.930 . S
C328 H316 0.930 . S
C328 C329 1.399 . S
C328 C333 1.399 . S
C329 C328 1.399 . S
C329 C330 1.376 . S
C330 H317 0.930 . S
C330 C329 1.376 . S
C330 C331 1.388 . S
C331 H318 0.930 . S
C331 C330 1.388 . S
C331 C332 1.390 . S
C332 C331 1.390 . S
C332 C333 1.394 . S
C332 C338 1.465 . S
C333 C328 1.399 . S
C333 C332 1.394 . S
C333 C334 1.516 . S
C334 C333 1.516 . S
C334 C335 1.502 . S
C334 C336 1.561 . S
C334 C337 1.526 . S
C335 H319 0.959 . S
C335 H320 0.959 . S
C335 H321 0.961 . S
C335 C334 1.502 . S
C336 H322 0.960 . S
C336 H323 0.961 . S
C336 H324 0.959 . S
C336 C334 1.561 . S
C337 C334 1.526 . S
C337 C338 1.396 . S
C337 C342 1.390 . S
C338 C332 1.465 . S
C338 C337 1.396 . S
C338 C339 1.399 . S
C339 H325 0.929 . S
C339 C338 1.399 . S
C339 C340 1.385 . S
C340 H326 0.931 . S
C340 C339 1.385 . S
C340 C341 1.389 . S
C341 C340 1.389 . S
C341 C342 1.387 . S
C342 H327 0.930 . S
C342 C337 1.390 . S
C342 C341 1.387 . S
H343 C355 0.930 . S
H344 C357 0.930 . S
H345 C358 0.930 . S
H346 C362 0.959 . S
H347 C362 0.959 . S
H348 C362 0.961 . S
H349 C363 0.960 . S
H350 C363 0.961 . S
H351 C363 0.959 . S
H352 C366 0.929 . S
H353 C367 0.931 . S
H354 C369 0.930 . S
C355 H343 0.930 . S
C355 C356 1.399 . S
C355 C360 1.399 . S
C356 C355 1.399 . S
C356 C357 1.376 . S
C357 H344 0.930 . S
C357 C356 1.376 . S
C357 C358 1.388 . S
C358 H345 0.930 . S
C358 C357 1.388 . S
C358 C359 1.390 . S
C359 C358 1.390 . S
C359 C360 1.394 . S
C359 C365 1.465 . S
C360 C355 1.399 . S
C360 C359 1.394 . S
C360 C361 1.516 . S
C361 C360 1.516 . S
C361 C362 1.502 . S
C361 C363 1.561 . S
C361 C364 1.526 . S
C362 H346 0.959 . S
C362 H347 0.959 . S
C362 H348 0.961 . S
C362 C361 1.502 . S
C363 H349 0.960 . S
C363 H350 0.961 . S
C363 H351 0.959 . S
C363 C361 1.561 . S
C364 C361 1.526 . S
C364 C365 1.396 . S
C364 C369 1.390 . S
C365 C359 1.465 . S
C365 C364 1.396 . S
C365 C366 1.399 . S
C366 H352 0.929 . S
C366 C365 1.399 . S
C366 C367 1.385 . S
C367 H353 0.931 . S
C367 C366 1.385 . S
C367 C368 1.389 . S
C368 C367 1.389 . S
C368 C369 1.387 . S
C369 H354 0.930 . S
C369 C364 1.390 . S
C369 C368 1.387 . S
H370 C382 0.930 . S
H371 C384 0.930 . S
H372 C385 0.930 . S
H373 C389 0.959 . S
H374 C389 0.959 . S
H375 C389 0.961 . S
H376 C390 0.960 . S
H377 C390 0.961 . S
H378 C390 0.959 . S
H379 C393 0.929 . S
H380 C394 0.931 . S
H381 C396 0.930 . S
C382 H370 0.930 . S
C382 C383 1.399 . S
C382 C387 1.399 . S
C383 C382 1.399 . S
C383 C384 1.376 . S
C384 H371 0.930 . S
C384 C383 1.376 . S
C384 C385 1.388 . S
C385 H372 0.930 . S
C385 C384 1.388 . S
C385 C386 1.390 . S
C386 C385 1.390 . S
C386 C387 1.394 . S
C386 C392 1.465 . S
C387 C382 1.399 . S
C387 C386 1.394 . S
C387 C388 1.516 . S
C388 C387 1.516 . S
C388 C389 1.502 . S
C388 C390 1.561 . S
C388 C391 1.526 . S
C389 H373 0.959 . S
C389 H374 0.959 . S
C389 H375 0.961 . S
C389 C388 1.502 . S
C390 H376 0.960 . S
C390 H377 0.961 . S
C390 H378 0.959 . S
C390 C388 1.561 . S
C391 C388 1.526 . S
C391 C392 1.396 . S
C391 C396 1.390 . S
C392 C386 1.465 . S
C392 C391 1.396 . S
C392 C393 1.399 . S
C393 H379 0.929 . S
C393 C392 1.399 . S
C393 C394 1.385 . S
C394 H380 0.931 . S
C394 C393 1.385 . S
C394 C395 1.389 . S
C395 C394 1.389 . S
C395 C396 1.387 . S
C396 H381 0.930 . S
C396 C391 1.390 . S
C396 C395 1.387 . S
H397 C409 0.930 . S
H398 C411 0.930 . S
H399 C412 0.930 . S
H400 C416 0.959 . S
H401 C416 0.959 . S
H402 C416 0.961 . S
H403 C417 0.960 . S
H404 C417 0.961 . S
H405 C417 0.959 . S
H406 C420 0.929 . S
H407 C421 0.931 . S
H408 C423 0.930 . S
C409 H397 0.930 . S
C409 C410 1.399 . S
C409 C414 1.399 . S
C410 C409 1.399 . S
C410 C411 1.376 . S
C411 H398 0.930 . S
C411 C410 1.376 . S
C411 C412 1.388 . S
C412 H399 0.930 . S
C412 C411 1.388 . S
C412 C413 1.390 . S
C413 C412 1.390 . S
C413 C414 1.394 . S
C413 C419 1.465 . S
C414 C409 1.399 . S
C414 C413 1.394 . S
C414 C415 1.516 . S
C415 C414 1.516 . S
C415 C416 1.502 . S
C415 C417 1.561 . S
C415 C418 1.526 . S
C416 H400 0.959 . S
C416 H401 0.959 . S
C416 H402 0.961 . S
C416 C415 1.502 . S
C417 H403 0.960 . S
C417 H404 0.961 . S
C417 H405 0.959 . S
C417 C415 1.561 . S
C418 C415 1.526 . S
C418 C419 1.396 . S
C418 C423 1.390 . S
C419 C413 1.465 . S
C419 C418 1.396 . S
C419 C420 1.399 . S
C420 H406 0.929 . S
C420 C419 1.399 . S
C420 C421 1.385 . S
C421 H407 0.931 . S
C421 C420 1.385 . S
C421 C422 1.389 . S
C422 C421 1.389 . S
C422 C423 1.387 . S
C423 H408 0.930 . S
C423 C418 1.390 . S
C423 C422 1.387 . S
H424 C436 0.930 . S
H425 C438 0.930 . S
H426 C439 0.930 . S
H427 C443 0.959 . S
H428 C443 0.959 . S
H429 C443 0.961 . S
H430 C444 0.960 . S
H431 C444 0.961 . S
H432 C444 0.959 . S
H433 C447 0.929 . S
H434 C448 0.931 . S
H435 C450 0.930 . S
C436 H424 0.930 . S
C436 C437 1.399 . S
C436 C441 1.399 . S
C437 C436 1.399 . S
C437 C438 1.376 . S
C438 H425 0.930 . S
C438 C437 1.376 . S
C438 C439 1.388 . S
C439 H426 0.930 . S
C439 C438 1.388 . S
C439 C440 1.390 . S
C440 C439 1.390 . S
C440 C441 1.394 . S
C440 C446 1.465 . S
C441 C436 1.399 . S
C441 C440 1.394 . S
C441 C442 1.516 . S
C442 C441 1.516 . S
C442 C443 1.502 . S
C442 C444 1.561 . S
C442 C445 1.526 . S
C443 H427 0.959 . S
C443 H428 0.959 . S
C443 H429 0.961 . S
C443 C442 1.502 . S
C444 H430 0.960 . S
C444 H431 0.961 . S
C444 H432 0.959 . S
C444 C442 1.561 . S
C445 C442 1.526 . S
C445 C446 1.396 . S
C445 C450 1.390 . S
C446 C440 1.465 . S
C446 C445 1.396 . S
C446 C447 1.399 . S
C447 H433 0.929 . S
C447 C446 1.399 . S
C447 C448 1.385 . S
C448 H434 0.931 . S
C448 C447 1.385 . S
C448 C449 1.389 . S
C449 C448 1.389 . S
C449 C450 1.387 . S
C450 H435 0.930 . S
C450 C445 1.390 . S
C450 C449 1.387 . S
H451 C463 0.930 . S
H452 C465 0.930 . S
H453 C466 0.930 . S
H454 C470 0.959 . S
H455 C470 0.959 . S
H456 C470 0.961 . S
H457 C471 0.960 . S
H458 C471 0.961 . S
H459 C471 0.959 . S
H460 C474 0.929 . S
H461 C475 0.931 . S
H462 C477 0.930 . S
C463 H451 0.930 . S
C463 C464 1.399 . S
C463 C468 1.399 . S
C464 C463 1.399 . S
C464 C465 1.376 . S
C465 H452 0.930 . S
C465 C464 1.376 . S
C465 C466 1.388 . S
C466 H453 0.930 . S
C466 C465 1.388 . S
C466 C467 1.390 . S
C467 C466 1.390 . S
C467 C468 1.394 . S
C467 C473 1.465 . S
C468 C463 1.399 . S
C468 C467 1.394 . S
C468 C469 1.516 . S
C469 C468 1.516 . S
C469 C470 1.502 . S
C469 C471 1.561 . S
C469 C472 1.526 . S
C470 H454 0.959 . S
C470 H455 0.959 . S
C470 H456 0.961 . S
C470 C469 1.502 . S
C471 H457 0.960 . S
C471 H458 0.961 . S
C471 H459 0.959 . S
C471 C469 1.561 . S
C472 C469 1.526 . S
C472 C473 1.396 . S
C472 C477 1.390 . S
C473 C467 1.465 . S
C473 C472 1.396 . S
C473 C474 1.399 . S
C474 H460 0.929 . S
C474 C473 1.399 . S
C474 C475 1.385 . S
C475 H461 0.931 . S
C475 C474 1.385 . S
C475 C476 1.389 . S
C476 C475 1.389 . S
C476 C477 1.387 . S
C477 H462 0.930 . S
C477 C472 1.390 . S
C477 C476 1.387 . S
H478 C490 0.930 . S
H479 C492 0.930 . S
H480 C493 0.930 . S
H481 C497 0.959 . S
H482 C497 0.959 . S
H483 C497 0.961 . S
H484 C498 0.960 . S
H485 C498 0.961 . S
H486 C498 0.959 . S
H487 C501 0.929 . S
H488 C502 0.931 . S
H489 C504 0.930 . S
C490 H478 0.930 . S
C490 C491 1.399 . S
C490 C495 1.399 . S
C491 C490 1.399 . S
C491 C492 1.376 . S
C492 H479 0.930 . S
C492 C491 1.376 . S
C492 C493 1.388 . S
C493 H480 0.930 . S
C493 C492 1.388 . S
C493 C494 1.390 . S
C494 C493 1.390 . S
C494 C495 1.394 . S
C494 C500 1.465 . S
C495 C490 1.399 . S
C495 C494 1.394 . S
C495 C496 1.516 . S
C496 C495 1.516 . S
C496 C497 1.502 . S
C496 C498 1.561 . S
C496 C499 1.526 . S
C497 H481 0.959 . S
C497 H482 0.959 . S
C497 H483 0.961 . S
C497 C496 1.502 . S
C498 H484 0.960 . S
C498 H485 0.961 . S
C498 H486 0.959 . S
C498 C496 1.561 . S
C499 C496 1.526 . S
C499 C500 1.396 . S
C499 C504 1.390 . S
C500 C494 1.465 . S
C500 C499 1.396 . S
C500 C501 1.399 . S
C501 H487 0.929 . S
C501 C500 1.399 . S
C501 C502 1.385 . S
C502 H488 0.931 . S
C502 C501 1.385 . S
C502 C503 1.389 . S
C503 C502 1.389 . S
C503 C504 1.387 . S
C504 H489 0.930 . S
C504 C499 1.390 . S
C504 C503 1.387 . S
H505 C517 0.930 . S
H506 C519 0.930 . S
H507 C520 0.930 . S
H508 C524 0.959 . S
H509 C524 0.959 . S
H510 C524 0.961 . S
H511 C525 0.960 . S
H512 C525 0.961 . S
H513 C525 0.959 . S
H514 C528 0.929 . S
H515 C529 0.931 . S
H516 C531 0.930 . S
C517 H505 0.930 . S
C517 C518 1.399 . S
C517 C522 1.399 . S
C518 C517 1.399 . S
C518 C519 1.376 . S
C519 H506 0.930 . S
C519 C518 1.376 . S
C519 C520 1.388 . S
C520 H507 0.930 . S
C520 C519 1.388 . S
C520 C521 1.390 . S
C521 C520 1.390 . S
C521 C522 1.394 . S
C521 C527 1.465 . S
C522 C517 1.399 . S
C522 C521 1.394 . S
C522 C523 1.516 . S
C523 C522 1.516 . S
C523 C524 1.502 . S
C523 C525 1.561 . S
C523 C526 1.526 . S
C524 H508 0.959 . S
C524 H509 0.959 . S
C524 H510 0.961 . S
C524 C523 1.502 . S
C525 H511 0.960 . S
C525 H512 0.961 . S
C525 H513 0.959 . S
C525 C523 1.561 . S
C526 C523 1.526 . S
C526 C527 1.396 . S
C526 C531 1.390 . S
C527 C521 1.465 . S
C527 C526 1.396 . S
C527 C528 1.399 . S
C528 H514 0.929 . S
C528 C527 1.399 . S
C528 C529 1.385 . S
C529 H515 0.931 . S
C529 C528 1.385 . S
C529 C530 1.389 . S
C530 C529 1.389 . S
C530 C531 1.387 . S
C531 H516 0.930 . S
C531 C526 1.390 . S
C531 C530 1.387 . S
H532 C544 0.930 . S
H533 C546 0.930 . S
H534 C547 0.930 . S
H535 C551 0.959 . S
H536 C551 0.959 . S
H537 C551 0.961 . S
H538 C552 0.960 . S
H539 C552 0.961 . S
H540 C552 0.959 . S
H541 C555 0.929 . S
H542 C556 0.931 . S
H543 C558 0.930 . S
C544 H532 0.930 . S
C544 C545 1.399 . S
C544 C549 1.399 . S
C545 C544 1.399 . S
C545 C546 1.376 . S
C546 H533 0.930 . S
C546 C545 1.376 . S
C546 C547 1.388 . S
C547 H534 0.930 . S
C547 C546 1.388 . S
C547 C548 1.390 . S
C548 C547 1.390 . S
C548 C549 1.394 . S
C548 C554 1.465 . S
C549 C544 1.399 . S
C549 C548 1.394 . S
C549 C550 1.516 . S
C550 C549 1.516 . S
C550 C551 1.502 . S
C550 C552 1.561 . S
C550 C553 1.526 . S
C551 H535 0.959 . S
C551 H536 0.959 . S
C551 H537 0.961 . S
C551 C550 1.502 . S
C552 H538 0.960 . S
C552 H539 0.961 . S
C552 H540 0.959 . S
C552 C550 1.561 . S
C553 C550 1.526 . S
C553 C554 1.396 . S
C553 C558 1.390 . S
C554 C548 1.465 . S
C554 C553 1.396 . S
C554 C555 1.399 . S
C555 H541 0.929 . S
C555 C554 1.399 . S
C555 C556 1.385 . S
C556 H542 0.931 . S
C556 C555 1.385 . S
C556 C557 1.389 . S
C557 C556 1.389 . S
C557 C558 1.387 . S
C558 H543 0.930 . S
C558 C553 1.390 . S
C558 C557 1.387 . S
H559 C571 0.930 . S
H560 C573 0.930 . S
H561 C574 0.930 . S
H562 C578 0.959 . S
H563 C578 0.959 . S
H564 C578 0.961 . S
H565 C579 0.960 . S
H566 C579 0.961 . S
H567 C579 0.959 . S
H568 C582 0.929 . S
H569 C583 0.931 . S
H570 C585 0.930 . S
C571 H559 0.930 . S
C571 C572 1.399 . S
C571 C576 1.399 . S
C572 C571 1.399 . S
C572 C573 1.376 . S
C573 H560 0.930 . S
C573 C572 1.376 . S
C573 C574 1.388 . S
C574 H561 0.930 . S
C574 C573 1.388 . S
C574 C575 1.390 . S
C575 C574 1.390 . S
C575 C576 1.394 . S
C575 C581 1.465 . S
C576 C571 1.399 . S
C576 C575 1.394 . S
C576 C577 1.516 . S
C577 C576 1.516 . S
C577 C578 1.502 . S
C577 C579 1.561 . S
C577 C580 1.526 . S
C578 H562 0.959 . S
C578 H563 0.959 . S
C578 H564 0.961 . S
C578 C577 1.502 . S
C579 H565 0.960 . S
C579 H566 0.961 . S
C579 H567 0.959 . S
C579 C577 1.561 . S
C580 C577 1.526 . S
C580 C581 1.396 . S
C580 C585 1.390 . S
C581 C575 1.465 . S
C581 C580 1.396 . S
C581 C582 1.399 . S
C582 H568 0.929 . S
C582 C581 1.399 . S
C582 C583 1.385 . S
C583 H569 0.931 . S
C583 C582 1.385 . S
C583 C584 1.389 . S
C584 C583 1.389 . S
C584 C585 1.387 . S
C585 H570 0.930 . S
C585 C580 1.390 . S
C585 C584 1.387 . S
H586 C598 0.930 . S
H587 C600 0.930 . S
H588 C601 0.930 . S
H589 C605 0.959 . S
H590 C605 0.959 . S
H591 C605 0.961 . S
H592 C606 0.960 . S
H593 C606 0.961 . S
H594 C606 0.959 . S
H595 C609 0.929 . S
H596 C610 0.931 . S
H597 C612 0.930 . S
C598 H586 0.930 . S
C598 C599 1.399 . S
C598 C603 1.399 . S
C599 C598 1.399 . S
C599 C600 1.376 . S
C600 H587 0.930 . S
C600 C599 1.376 . S
C600 C601 1.388 . S
C601 H588 0.930 . S
C601 C600 1.388 . S
C601 C602 1.390 . S
C602 C601 1.390 . S
C602 C603 1.394 . S
C602 C608 1.465 . S
C603 C598 1.399 . S
C603 C602 1.394 . S
C603 C604 1.516 . S
C604 C603 1.516 . S
C604 C605 1.502 . S
C604 C606 1.561 . S
C604 C607 1.526 . S
C605 H589 0.959 . S
C605 H590 0.959 . S
C605 H591 0.961 . S
C605 C604 1.502 . S
C606 H592 0.960 . S
C606 H593 0.961 . S
C606 H594 0.959 . S
C606 C604 1.561 . S
C607 C604 1.526 . S
C607 C608 1.396 . S
C607 C612 1.390 . S
C608 C602 1.465 . S
C608 C607 1.396 . S
C608 C609 1.399 . S
C609 H595 0.929 . S
C609 C608 1.399 . S
C609 C610 1.385 . S
C610 H596 0.931 . S
C610 C609 1.385 . S
C610 C611 1.389 . S
C611 C610 1.389 . S
C611 C612 1.387 . S
C612 H597 0.930 . S
C612 C607 1.390 . S
C612 C611 1.387 . S
H613 C625 0.930 . S
H614 C627 0.930 . S
H615 C628 0.930 . S
H616 C632 0.959 . S
H617 C632 0.959 . S
H618 C632 0.961 . S
H619 C633 0.960 . S
H620 C633 0.961 . S
H621 C633 0.959 . S
H622 C636 0.929 . S
H623 C637 0.931 . S
H624 C639 0.930 . S
C625 H613 0.930 . S
C625 C626 1.399 . S
C625 C630 1.399 . S
C626 C625 1.399 . S
C626 C627 1.376 . S
C627 H614 0.930 . S
C627 C626 1.376 . S
C627 C628 1.388 . S
C628 H615 0.930 . S
C628 C627 1.388 . S
C628 C629 1.390 . S
C629 C628 1.390 . S
C629 C630 1.394 . S
C629 C635 1.465 . S
C630 C625 1.399 . S
C630 C629 1.394 . S
C630 C631 1.516 . S
C631 C630 1.516 . S
C631 C632 1.502 . S
C631 C633 1.561 . S
C631 C634 1.526 . S
C632 H616 0.959 . S
C632 H617 0.959 . S
C632 H618 0.961 . S
C632 C631 1.502 . S
C633 H619 0.960 . S
C633 H620 0.961 . S
C633 H621 0.959 . S
C633 C631 1.561 . S
C634 C631 1.526 . S
C634 C635 1.396 . S
C634 C639 1.390 . S
C635 C629 1.465 . S
C635 C634 1.396 . S
C635 C636 1.399 . S
C636 H622 0.929 . S
C636 C635 1.399 . S
C636 C637 1.385 . S
C637 H623 0.931 . S
C637 C636 1.385 . S
C637 C638 1.389 . S
C638 C637 1.389 . S
C638 C639 1.387 . S
C639 H624 0.930 . S
C639 C634 1.390 . S
C639 C638 1.387 . S
H640 C652 0.930 . S
H641 C654 0.930 . S
H642 C655 0.930 . S
H643 C659 0.959 . S
H644 C659 0.959 . S
H645 C659 0.961 . S
H646 C660 0.960 . S
H647 C660 0.961 . S
H648 C660 0.959 . S
H649 C663 0.929 . S
H650 C664 0.931 . S
H651 C666 0.930 . S
C652 H640 0.930 . S
C652 C653 1.399 . S
C652 C657 1.399 . S
C653 C652 1.399 . S
C653 C654 1.376 . S
C654 H641 0.930 . S
C654 C653 1.376 . S
C654 C655 1.388 . S
C655 H642 0.930 . S
C655 C654 1.388 . S
C655 C656 1.390 . S
C656 C655 1.390 . S
C656 C657 1.394 . S
C656 C662 1.465 . S
C657 C652 1.399 . S
C657 C656 1.394 . S
C657 C658 1.516 . S
C658 C657 1.516 . S
C658 C659 1.502 . S
C658 C660 1.561 . S
C658 C661 1.526 . S
C659 H643 0.959 . S
C659 H644 0.959 . S
C659 H645 0.961 . S
C659 C658 1.502 . S
C660 H646 0.960 . S
C660 H647 0.961 . S
C660 H648 0.959 . S
C660 C658 1.561 . S
C661 C658 1.526 . S
C661 C662 1.396 . S
C661 C666 1.390 . S
C662 C656 1.465 . S
C662 C661 1.396 . S
C662 C663 1.399 . S
C663 H649 0.929 . S
C663 C662 1.399 . S
C663 C664 1.385 . S
C664 H650 0.931 . S
C664 C663 1.385 . S
C664 C665 1.389 . S
C665 C664 1.389 . S
C665 C666 1.387 . S
C666 H651 0.930 . S
C666 C661 1.390 . S
C666 C665 1.387 . S
H667 C679 0.930 . S
H668 C681 0.930 . S
H669 C682 0.930 . S
H670 C686 0.959 . S
H671 C686 0.959 . S
H672 C686 0.961 . S
H673 C687 0.960 . S
H674 C687 0.961 . S
H675 C687 0.959 . S
H676 C690 0.929 . S
H677 C691 0.931 . S
H678 C693 0.930 . S
C679 H667 0.930 . S
C679 C680 1.399 . S
C679 C684 1.399 . S
C680 C679 1.399 . S
C680 C681 1.376 . S
C681 H668 0.930 . S
C681 C680 1.376 . S
C681 C682 1.388 . S
C682 H669 0.930 . S
C682 C681 1.388 . S
C682 C683 1.390 . S
C683 C682 1.390 . S
C683 C684 1.394 . S
C683 C689 1.465 . S
C684 C679 1.399 . S
C684 C683 1.394 . S
C684 C685 1.516 . S
C685 C684 1.516 . S
C685 C686 1.502 . S
C685 C687 1.561 . S
C685 C688 1.526 . S
C686 H670 0.959 . S
C686 H671 0.959 . S
C686 H672 0.961 . S
C686 C685 1.502 . S
C687 H673 0.960 . S
C687 H674 0.961 . S
C687 H675 0.959 . S
C687 C685 1.561 . S
C688 C685 1.526 . S
C688 C689 1.396 . S
C688 C693 1.390 . S
C689 C683 1.465 . S
C689 C688 1.396 . S
C689 C690 1.399 . S
C690 H676 0.929 . S
C690 C689 1.399 . S
C690 C691 1.385 . S
C691 H677 0.931 . S
C691 C690 1.385 . S
C691 C692 1.389 . S
C692 C691 1.389 . S
C692 C693 1.387 . S
C693 H678 0.930 . S
C693 C688 1.390 . S
C693 C692 1.387 . S
H694 C706 0.930 . S
H695 C708 0.930 . S
H696 C709 0.930 . S
H697 C713 0.959 . S
H698 C713 0.959 . S
H699 C713 0.961 . S
H700 C714 0.960 . S
H701 C714 0.961 . S
H702 C714 0.959 . S
H703 C717 0.929 . S
H704 C718 0.931 . S
H705 C720 0.930 . S
C706 H694 0.930 . S
C706 C707 1.399 . S
C706 C711 1.399 . S
C707 C706 1.399 . S
C707 C708 1.376 . S
C708 H695 0.930 . S
C708 C707 1.376 . S
C708 C709 1.388 . S
C709 H696 0.930 . S
C709 C708 1.388 . S
C709 C710 1.390 . S
C710 C709 1.390 . S
C710 C711 1.394 . S
C710 C716 1.465 . S
C711 C706 1.399 . S
C711 C710 1.394 . S
C711 C712 1.516 . S
C712 C711 1.516 . S
C712 C713 1.502 . S
C712 C714 1.561 . S
C712 C715 1.526 . S
C713 H697 0.959 . S
C713 H698 0.959 . S
C713 H699 0.961 . S
C713 C712 1.502 . S
C714 H700 0.960 . S
C714 H701 0.961 . S
C714 H702 0.959 . S
C714 C712 1.561 . S
C715 C712 1.526 . S
C715 C716 1.396 . S
C715 C720 1.390 . S
C716 C710 1.465 . S
C716 C715 1.396 . S
C716 C717 1.399 . S
C717 H703 0.929 . S
C717 C716 1.399 . S
C717 C718 1.385 . S
C718 H704 0.931 . S
C718 C717 1.385 . S
C718 C719 1.389 . S
C719 C718 1.389 . S
C719 C720 1.387 . S
C720 H705 0.930 . S
C720 C715 1.390 . S
C720 C719 1.387 . S
H721 C733 0.930 . S
H722 C735 0.930 . S
H723 C736 0.930 . S
H724 C740 0.959 . S
H725 C740 0.959 . S
H726 C740 0.961 . S
H727 C741 0.960 . S
H728 C741 0.961 . S
H729 C741 0.959 . S
H730 C744 0.929 . S
H731 C745 0.931 . S
H732 C747 0.930 . S
C733 H721 0.930 . S
C733 C734 1.399 . S
C733 C738 1.399 . S
C734 C733 1.399 . S
C734 C735 1.376 . S
C735 H722 0.930 . S
C735 C734 1.376 . S
C735 C736 1.388 . S
C736 H723 0.930 . S
C736 C735 1.388 . S
C736 C737 1.390 . S
C737 C736 1.390 . S
C737 C738 1.394 . S
C737 C743 1.465 . S
C738 C733 1.399 . S
C738 C737 1.394 . S
C738 C739 1.516 . S
C739 C738 1.516 . S
C739 C740 1.502 . S
C739 C741 1.561 . S
C739 C742 1.526 . S
C740 H724 0.959 . S
C740 H725 0.959 . S
C740 H726 0.961 . S
C740 C739 1.502 . S
C741 H727 0.960 . S
C741 H728 0.961 . S
C741 H729 0.959 . S
C741 C739 1.561 . S
C742 C739 1.526 . S
C742 C743 1.396 . S
C742 C747 1.390 . S
C743 C737 1.465 . S
C743 C742 1.396 . S
C743 C744 1.399 . S
C744 H730 0.929 . S
C744 C743 1.399 . S
C744 C745 1.385 . S
C745 H731 0.931 . S
C745 C744 1.385 . S
C745 C746 1.389 . S
C746 C745 1.389 . S
C746 C747 1.387 . S
C747 H732 0.930 . S
C747 C742 1.390 . S
C747 C746 1.387 . S
H748 C760 0.930 . S
H749 C762 0.930 . S
H750 C763 0.930 . S
H751 C767 0.959 . S
H752 C767 0.959 . S
H753 C767 0.961 . S
H754 C768 0.960 . S
H755 C768 0.961 . S
H756 C768 0.959 . S
H757 C771 0.929 . S
H758 C772 0.931 . S
H759 C774 0.930 . S
C760 H748 0.930 . S
C760 C761 1.399 . S
C760 C765 1.399 . S
C761 C760 1.399 . S
C761 C762 1.376 . S
C762 H749 0.930 . S
C762 C761 1.376 . S
C762 C763 1.388 . S
C763 H750 0.930 . S
C763 C762 1.388 . S
C763 C764 1.390 . S
C764 C763 1.390 . S
C764 C765 1.394 . S
C764 C770 1.465 . S
C765 C760 1.399 . S
C765 C764 1.394 . S
C765 C766 1.516 . S
C766 C765 1.516 . S
C766 C767 1.502 . S
C766 C768 1.561 . S
C766 C769 1.526 . S
C767 H751 0.959 . S
C767 H752 0.959 . S
C767 H753 0.961 . S
C767 C766 1.502 . S
C768 H754 0.960 . S
C768 H755 0.961 . S
C768 H756 0.959 . S
C768 C766 1.561 . S
C769 C766 1.526 . S
C769 C770 1.396 . S
C769 C774 1.390 . S
C770 C764 1.465 . S
C770 C769 1.396 . S
C770 C771 1.399 . S
C771 H757 0.929 . S
C771 C770 1.399 . S
C771 C772 1.385 . S
C772 H758 0.931 . S
C772 C771 1.385 . S
C772 C773 1.389 . S
C773 C772 1.389 . S
C773 C774 1.387 . S
C774 H759 0.930 . S
C774 C769 1.390 . S
C774 C773 1.387 . S
H775 C787 0.930 . S
H776 C789 0.930 . S
H777 C790 0.930 . S
H778 C794 0.959 . S
H779 C794 0.959 . S
H780 C794 0.961 . S
H781 C795 0.960 . S
H782 C795 0.961 . S
H783 C795 0.959 . S
H784 C798 0.929 . S
H785 C799 0.931 . S
H786 C801 0.930 . S
C787 H775 0.930 . S
C787 C788 1.399 . S
C787 C792 1.399 . S
C788 C787 1.399 . S
C788 C789 1.376 . S
C789 H776 0.930 . S
C789 C788 1.376 . S
C789 C790 1.388 . S
C790 H777 0.930 . S
C790 C789 1.388 . S
C790 C791 1.390 . S
C791 C790 1.390 . S
C791 C792 1.394 . S
C791 C797 1.465 . S
C792 C787 1.399 . S
C792 C791 1.394 . S
C792 C793 1.516 . S
C793 C792 1.516 . S
C793 C794 1.502 . S
C793 C795 1.561 . S
C793 C796 1.526 . S
C794 H778 0.959 . S
C794 H779 0.959 . S
C794 H780 0.961 . S
C794 C793 1.502 . S
C795 H781 0.960 . S
C795 H782 0.961 . S
C795 H783 0.959 . S
C795 C793 1.561 . S
C796 C793 1.526 . S
C796 C797 1.396 . S
C796 C801 1.390 . S
C797 C791 1.465 . S
C797 C796 1.396 . S
C797 C798 1.399 . S
C798 H784 0.929 . S
C798 C797 1.399 . S
C798 C799 1.385 . S
C799 H785 0.931 . S
C799 C798 1.385 . S
C799 C800 1.389 . S
C800 C799 1.389 . S
C800 C801 1.387 . S
C801 H786 0.930 . S
C801 C796 1.390 . S
C801 C800 1.387 . S
H802 C814 0.930 . S
H803 C816 0.930 . S
H804 C817 0.930 . S
H805 C821 0.959 . S
H806 C821 0.959 . S
H807 C821 0.961 . S
H808 C822 0.960 . S
H809 C822 0.961 . S
H810 C822 0.959 . S
H811 C825 0.929 . S
H812 C826 0.931 . S
H813 C828 0.930 . S
C814 H802 0.930 . S
C814 C815 1.399 . S
C814 C819 1.399 . S
C815 C814 1.399 . S
C815 C816 1.376 . S
C816 H803 0.930 . S
C816 C815 1.376 . S
C816 C817 1.388 . S
C817 H804 0.930 . S
C817 C816 1.388 . S
C817 C818 1.390 . S
C818 C817 1.390 . S
C818 C819 1.394 . S
C818 C824 1.465 . S
C819 C814 1.399 . S
C819 C818 1.394 . S
C819 C820 1.516 . S
C820 C819 1.516 . S
C820 C821 1.502 . S
C820 C822 1.561 . S
C820 C823 1.526 . S
C821 H805 0.959 . S
C821 H806 0.959 . S
C821 H807 0.961 . S
C821 C820 1.502 . S
C822 H808 0.960 . S
C822 H809 0.961 . S
C822 H810 0.959 . S
C822 C820 1.561 . S
C823 C820 1.526 . S
C823 C824 1.396 . S
C823 C828 1.390 . S
C824 C818 1.465 . S
C824 C823 1.396 . S
C824 C825 1.399 . S
C825 H811 0.929 . S
C825 C824 1.399 . S
C825 C826 1.385 . S
C826 H812 0.931 . S
C826 C825 1.385 . S
C826 C827 1.389 . S
C827 C826 1.389 . S
C827 C828 1.387 . S
C828 H813 0.930 . S
C828 C823 1.390 . S
C828 C827 1.387 . S
H829 C841 0.930 . S
H830 C843 0.930 . S
H831 C844 0.930 . S
H832 C848 0.959 . S
H833 C848 0.959 . S
H834 C848 0.961 . S
H835 C849 0.960 . S
H836 C849 0.961 . S
H837 C849 0.959 . S
H838 C852 0.929 . S
H839 C853 0.931 . S
H840 C855 0.930 . S
C841 H829 0.930 . S
C841 C842 1.399 . S
C841 C846 1.399 . S
C842 C841 1.399 . S
C842 C843 1.376 . S
C843 H830 0.930 . S
C843 C842 1.376 . S
C843 C844 1.388 . S
C844 H831 0.930 . S
C844 C843 1.388 . S
C844 C845 1.390 . S
C845 C844 1.390 . S
C845 C846 1.394 . S
C845 C851 1.465 . S
C846 C841 1.399 . S
C846 C845 1.394 . S
C846 C847 1.516 . S
C847 C846 1.516 . S
C847 C848 1.502 . S
C847 C849 1.561 . S
C847 C850 1.526 . S
C848 H832 0.959 . S
C848 H833 0.959 . S
C848 H834 0.961 . S
C848 C847 1.502 . S
C849 H835 0.960 . S
C849 H836 0.961 . S
C849 H837 0.959 . S
C849 C847 1.561 . S
C850 C847 1.526 . S
C850 C851 1.396 . S
C850 C855 1.390 . S
C851 C845 1.465 . S
C851 C850 1.396 . S
C851 C852 1.399 . S
C852 H838 0.929 . S
C852 C851 1.399 . S
C852 C853 1.385 . S
C853 H839 0.931 . S
C853 C852 1.385 . S
C853 C854 1.389 . S
C854 C853 1.389 . S
C854 C855 1.387 . S
C855 H840 0.930 . S
C855 C850 1.390 . S
C855 C854 1.387 . S
H856 C868 0.930 . S
H857 C870 0.930 . S
H858 C871 0.930 . S
H859 C875 0.959 . S
H860 C875 0.959 1_556 S
H861 C875 0.961 . S
H862 C876 0.960 . S
H863 C876 0.961 1_556 S
H864 C876 0.959 1_556 S
H865 C879 0.929 . S
H866 C880 0.931 . S
H867 C882 0.930 . S
C868 H856 0.930 . S
C868 C869 1.399 . S
C868 C873 1.399 . S
C869 C868 1.399 . S
C869 C870 1.376 . S
C870 H857 0.930 . S
C870 C869 1.376 . S
C870 C871 1.388 . S
C871 H858 0.930 . S
C871 C870 1.388 . S
C871 C872 1.390 . S
C872 C871 1.390 . S
C872 C873 1.394 . S
C872 C878 1.465 1_554 S
C873 C868 1.399 . S
C873 C872 1.394 . S
C873 C874 1.516 . S
C874 C873 1.516 . S
C874 C875 1.502 . S
C874 C876 1.561 . S
C874 C877 1.526 1_554 S
C875 H859 0.959 . S
C875 H860 0.959 1_554 S
C875 H861 0.961 . S
C875 C874 1.502 . S
C876 H862 0.960 . S
C876 H863 0.961 1_554 S
C876 H864 0.959 1_554 S
C876 C874 1.561 . S
C877 C874 1.526 1_556 S
C877 C878 1.396 . S
C877 C882 1.390 . S
C878 C872 1.465 1_556 S
C878 C877 1.396 . S
C878 C879 1.399 . S
C879 H865 0.929 . S
C879 C878 1.399 . S
C879 C880 1.385 . S
C880 H866 0.931 . S
C880 C879 1.385 . S
C880 C881 1.389 . S
C881 C880 1.389 . S
C881 C882 1.387 . S
C882 H867 0.930 . S
C882 C877 1.390 . S
C882 C881 1.387 . S
H883 C895 0.930 . S
H884 C897 0.930 . S
H885 C898 0.930 . S
H886 C902 0.959 . S
H887 C902 0.959 . S
H888 C902 0.961 . S
H889 C903 0.960 . S
H890 C903 0.961 . S
H891 C903 0.959 . S
H892 C906 0.929 . S
H893 C907 0.931 . S
H894 C909 0.930 . S
C895 H883 0.930 . S
C895 C896 1.399 . S
C895 C900 1.399 . S
C896 C895 1.399 . S
C896 C897 1.376 . S
C897 H884 0.930 . S
C897 C896 1.376 . S
C897 C898 1.388 . S
C898 H885 0.930 . S
C898 C897 1.388 . S
C898 C899 1.390 . S
C899 C898 1.390 . S
C899 C900 1.394 . S
C899 C905 1.465 . S
C900 C895 1.399 . S
C900 C899 1.394 . S
C900 C901 1.516 . S
C901 C900 1.516 . S
C901 C902 1.502 . S
C901 C903 1.561 . S
C901 C904 1.526 . S
C902 H886 0.959 . S
C902 H887 0.959 . S
C902 H888 0.961 . S
C902 C901 1.502 . S
C903 H889 0.960 . S
C903 H890 0.961 . S
C903 H891 0.959 . S
C903 C901 1.561 . S
C904 C901 1.526 . S
C904 C905 1.396 . S
C904 C909 1.390 . S
C905 C899 1.465 . S
C905 C904 1.396 . S
C905 C906 1.399 . S
C906 H892 0.929 . S
C906 C905 1.399 . S
C906 C907 1.385 . S
C907 H893 0.931 . S
C907 C906 1.385 . S
C907 C908 1.389 . S
C908 C907 1.389 . S
C908 C909 1.387 . S
C909 H894 0.930 . S
C909 C904 1.390 . S
C909 C908 1.387 . S
H910 C922 0.930 . S
H911 C924 0.930 . S
H912 C925 0.930 . S
H913 C929 0.959 . S
H914 C929 0.959 . S
H915 C929 0.961 1_554 S
H916 C930 0.960 1_554 S
H917 C930 0.961 . S
H918 C930 0.959 . S
H919 C933 0.929 . S
H920 C934 0.931 . S
H921 C936 0.930 . S
C922 H910 0.930 . S
C922 C923 1.399 . S
C922 C927 1.399 . S
C923 C922 1.399 . S
C923 C924 1.376 1_655 S
C924 H911 0.930 . S
C924 C923 1.376 1_455 S
C924 C925 1.388 . S
C925 H912 0.930 . S
C925 C924 1.388 . S
C925 C926 1.398 . S
C926 C925 1.398 . S
C926 C927 1.384 1_455 S
C926 C932 1.465 1_554 S
C927 C922 1.399 . S
C927 C926 1.384 1_655 S
C927 C928 1.516 1_554 S
C928 C927 1.516 1_556 S
C928 C929 1.502 . S
C928 C930 1.561 1_655 S
C928 C931 1.526 . S
C929 H913 0.959 . S
C929 H914 0.959 . S
C929 H915 0.961 1_556 S
C929 C928 1.502 . S
C930 H916 0.960 1_556 S
C930 H917 0.961 . S
C930 H918 0.959 . S
C930 C928 1.561 1_455 S
C931 C928 1.526 . S
C931 C932 1.393 1_655 S
C931 C936 1.390 . S
C932 C926 1.465 1_556 S
C932 C931 1.393 1_455 S
C932 C933 1.401 . S
C933 H919 0.929 . S
C933 C932 1.401 . S
C933 C934 1.385 . S
C934 H920 0.931 . S
C934 C933 1.385 . S
C934 C935 1.389 1_455 S
C935 C934 1.389 1_655 S
C935 C936 1.387 . S
C936 H921 0.930 . S
C936 C931 1.390 . S
C936 C935 1.387 . S
H937 C949 0.930 . S
H938 C951 0.930 . S
H939 C952 0.930 . S
H940 C956 0.959 . S
H941 C956 0.959 . S
H942 C956 0.961 . S
H943 C957 0.960 . S
H944 C957 0.961 . S
H945 C957 0.959 . S
H946 C960 0.929 . S
H947 C961 0.931 . S
H948 C963 0.930 . S
C949 H937 0.930 . S
C949 C950 1.399 . S
C949 C954 1.399 . S
C950 C949 1.399 . S
C950 C951 1.376 1_565 S
C951 H938 0.930 . S
C951 C950 1.376 1_545 S
C951 C952 1.388 . S
C952 H939 0.930 . S
C952 C951 1.388 . S
C952 C953 1.390 . S
C953 C952 1.390 . S
C953 C954 1.394 1_545 S
C953 C959 1.465 . S
C954 C949 1.399 . S
C954 C953 1.394 1_565 S
C954 C955 1.516 . S
C955 C954 1.516 . S
C955 C956 1.502 . S
C955 C957 1.561 . S
C955 C958 1.526 . S
C956 H940 0.959 . S
C956 H941 0.959 . S
C956 H942 0.961 . S
C956 C955 1.502 . S
C957 H943 0.960 . S
C957 H944 0.961 . S
C957 H945 0.959 . S
C957 C955 1.561 . S
C958 C955 1.526 . S
C958 C959 1.396 1_565 S
C958 C963 1.390 . S
C959 C953 1.465 . S
C959 C958 1.396 1_545 S
C959 C960 1.399 . S
C960 H946 0.929 . S
C960 C959 1.399 . S
C960 C961 1.385 . S
C961 H947 0.931 . S
C961 C960 1.385 . S
C961 C962 1.389 1_545 S
C962 C961 1.389 1_565 S
C962 C963 1.387 . S
C963 H948 0.930 . S
C963 C958 1.390 . S
C963 C962 1.387 . S
H964 C976 0.930 . S
H965 C978 0.930 . S
H966 C979 0.930 . S
H967 C983 0.959 . S
H968 C983 0.959 . S
H969 C983 0.961 1_556 S
H970 C984 0.960 1_556 S
H971 C984 0.961 . S
H972 C984 0.959 . S
H973 C987 0.929 . S
H974 C988 0.931 . S
H975 C990 0.930 . S
C976 H964 0.930 . S
C976 C977 1.399 . S
C976 C981 1.399 . S
C977 C976 1.399 . S
C977 C978 1.376 . S
C978 H965 0.930 . S
C978 C977 1.376 . S
C978 C979 1.388 . S
C979 H966 0.930 . S
C979 C978 1.388 . S
C979 C980 1.390 . S
C980 C979 1.390 . S
C980 C981 1.394 . S
C980 C986 1.465 1_556 S
C981 C976 1.399 . S
C981 C980 1.394 . S
C981 C982 1.516 1_556 S
C982 C981 1.516 1_554 S
C982 C983 1.502 . S
C982 C984 1.561 . S
C982 C985 1.526 . S
C983 H967 0.959 . S
C983 H968 0.959 . S
C983 H969 0.961 1_554 S
C983 C982 1.502 . S
C984 H970 0.960 1_554 S
C984 H971 0.961 . S
C984 H972 0.959 . S
C984 C982 1.561 . S
C985 C982 1.526 . S
C985 C986 1.396 . S
C985 C990 1.390 . S
C986 C980 1.465 1_554 S
C986 C985 1.396 . S
C986 C987 1.399 . S
C987 H973 0.929 . S
C987 C986 1.399 . S
C987 C988 1.385 . S
C988 H974 0.931 . S
C988 C987 1.385 . S
C988 C989 1.389 . S
C989 C988 1.389 . S
C989 C990 1.387 . S
C990 H975 0.930 . S
C990 C985 1.390 . S
C990 C989 1.387 . S
H991 C1003 0.930 . S
H992 C1005 0.930 . S
H993 C1006 0.930 . S
H994 C1010 0.959 . S
H995 C1010 0.959 . S
H996 C1010 0.961 . S
H997 C1011 0.960 . S
H998 C1011 0.961 . S
H999 C1011 0.959 . S
H1000 C1014 0.929 . S
H1001 C1015 0.931 . S
H1002 C1017 0.930 . S
C1003 H991 0.930 . S
C1003 C1004 1.399 . S
C1003 C1008 1.399 . S
C1004 C1003 1.399 . S
C1004 C1005 1.376 . S
C1005 H992 0.930 . S
C1005 C1004 1.376 . S
C1005 C1006 1.388 . S
C1006 H993 0.930 . S
C1006 C1005 1.388 . S
C1006 C1007 1.390 . S
C1007 C1006 1.390 . S
C1007 C1008 1.394 . S
C1007 C1013 1.465 . S
C1008 C1003 1.399 . S
C1008 C1007 1.394 . S
C1008 C1009 1.516 . S
C1009 C1008 1.516 . S
C1009 C1010 1.502 . S
C1009 C1011 1.561 . S
C1009 C1012 1.526 . S
C1010 H994 0.959 . S
C1010 H995 0.959 . S
C1010 H996 0.961 . S
C1010 C1009 1.502 . S
C1011 H997 0.960 . S
C1011 H998 0.961 . S
C1011 H999 0.959 . S
C1011 C1009 1.561 . S
C1012 C1009 1.526 . S
C1012 C1013 1.396 . S
C1012 C1017 1.390 . S
C1013 C1007 1.465 . S
C1013 C1012 1.396 . S
C1013 C1014 1.399 . S
C1014 H1000 0.929 . S
C1014 C1013 1.399 . S
C1014 C1015 1.385 . S
C1015 H1001 0.931 . S
C1015 C1014 1.385 . S
C1015 C1016 1.389 . S
C1016 C1015 1.389 . S
C1016 C1017 1.387 . S
C1017 H1002 0.930 . S
C1017 C1012 1.390 . S
C1017 C1016 1.387 . S
H1018 C1030 0.925 1_655 S
H1019 C1032 0.930 . S
H1020 C1033 0.930 . S
H1021 C1037 0.959 . S
H1022 C1037 0.944 1_556 S
H1023 C1037 0.961 . S
H1024 C1038 0.960 . S
H1025 C1038 0.961 1_556 S
H1026 C1038 0.959 . S
H1027 C1041 0.929 . S
H1028 C1042 0.931 . S
H1029 C1044 0.923 1_655 S
C1030 H1018 0.925 1_455 S
C1030 C1031 1.406 . S
C1030 C1035 1.399 . S
C1031 C1030 1.406 . S
C1031 C1032 1.376 . S
C1032 H1019 0.930 . S
C1032 C1031 1.376 . S
C1032 C1033 1.388 . S
C1033 H1020 0.930 . S
C1033 C1032 1.388 . S
C1033 C1034 1.390 . S
C1034 C1033 1.390 . S
C1034 C1035 1.401 . S
C1034 C1040 1.465 1_554 S
C1035 C1030 1.399 . S
C1035 C1034 1.401 . S
C1035 C1036 1.510 1_455 S
C1036 C1035 1.510 1_655 S
C1036 C1037 1.502 1_655 S
C1036 C1038 1.561 . S
C1036 C1039 1.526 1_654 S
C1037 H1021 0.959 . S
C1037 H1022 0.944 1_554 S
C1037 H1023 0.961 . S
C1037 C1036 1.502 1_455 S
C1038 H1024 0.960 . S
C1038 H1025 0.961 1_554 S
C1038 H1026 0.959 . S
C1038 C1036 1.561 . S
C1039 C1036 1.526 1_456 S
C1039 C1040 1.396 . S
C1039 C1044 1.390 . S
C1040 C1034 1.465 1_556 S
C1040 C1039 1.396 . S
C1040 C1041 1.399 . S
C1041 H1027 0.929 . S
C1041 C1040 1.399 . S
C1041 C1042 1.385 . S
C1042 H1028 0.931 . S
C1042 C1041 1.385 . S
C1042 C1043 1.389 . S
C1043 C1042 1.389 . S
C1043 C1044 1.394 . S
C1044 H1029 0.923 1_455 S
C1044 C1039 1.390 . S
C1044 C1043 1.394 . S
H1045 C1057 0.930 . S
H1046 C1059 0.930 . S
H1047 C1060 0.930 . S
H1048 C1064 0.959 . S
H1049 C1064 0.959 . S
H1050 C1064 0.961 . S
H1051 C1065 0.960 . S
H1052 C1065 0.961 . S
H1053 C1065 0.959 . S
H1054 C1068 0.929 . S
H1055 C1069 0.931 . S
H1056 C1071 0.930 . S
C1057 H1045 0.930 . S
C1057 C1058 1.399 1_565 S
C1057 C1062 1.399 . S
C1058 C1057 1.399 1_545 S
C1058 C1059 1.376 . S
C1059 H1046 0.930 . S
C1059 C1058 1.376 . S
C1059 C1060 1.388 . S
C1060 H1047 0.930 . S
C1060 C1059 1.388 . S
C1060 C1061 1.390 . S
C1061 C1060 1.390 . S
C1061 C1062 1.394 1_545 S
C1061 C1067 1.465 . S
C1062 C1057 1.399 . S
C1062 C1061 1.394 1_565 S
C1062 C1063 1.516 . S
C1063 C1062 1.516 . S
C1063 C1064 1.502 . S
C1063 C1065 1.561 . S
C1063 C1066 1.526 . S
C1064 H1048 0.959 . S
C1064 H1049 0.959 . S
C1064 H1050 0.961 . S
C1064 C1063 1.502 . S
C1065 H1051 0.960 . S
C1065 H1052 0.961 . S
C1065 H1053 0.959 . S
C1065 C1063 1.561 . S
C1066 C1063 1.526 . S
C1066 C1067 1.396 1_565 S
C1066 C1071 1.390 . S
C1067 C1061 1.465 . S
C1067 C1066 1.396 1_545 S
C1067 C1068 1.399 . S
C1068 H1054 0.929 . S
C1068 C1067 1.399 . S
C1068 C1069 1.385 . S
C1069 H1055 0.931 . S
C1069 C1068 1.385 . S
C1069 C1070 1.389 . S
C1070 C1069 1.389 . S
C1070 C1071 1.387 1_545 S
C1071 H1056 0.930 . S
C1071 C1066 1.390 . S
C1071 C1070 1.387 1_565 S
C221 C4 1.263 . S
C233 C95 1.253 . S
C248 C23 1.238 . S
C260 C56 1.244 . S
C275 C36 1.241 . S
C287 C75 1.253 . S
C302 C49 1.264 . S
C314 C82 1.257 . S
C329 C114 1.247 . S
C341 C205 1.243 . S
C356 C160 1.238 . S
C368 C121 1.238 . S
C383 C134 1.247 . S
C395 C179 1.243 . S
C410 C153 1.245 . S
C422 C186 1.250 . S
C437 C5 1.577 . S
C449 C127 1.605 . S
C464 C16 1.610 . S
C476 C140 1.601 . S
C491 C147 1.613 . S
C503 C29 1.600 . S
C518 C42 1.606 . S
C530 C108 1.611 . S
C545 C57 1.601 . S
C557 C199 1.592 . S
C572 C166 1.590 . S
C584 C68 1.599 . S
C599 C173 1.591 . S
C611 C83 1.601 . S
C626 C192 1.587 . S
C638 C96 1.582 . S
C653 C17 1.613 . S
C665 C107 1.607 . S
C680 C30 1.607 . S
C692 C122 1.609 . S
C707 C135 1.574 . S
C719 C43 1.588 . S
C734 C10 1.613 . S
C746 C146 1.607 . S
C761 C161 1.573 . S
C773 C101 1.594 . S
C788 C172 1.590 . S
C800 C62 1.607 . S
C815 C69 1.606 . S
C827 C187 1.590 . S
C842 C88 1.587 . S
C854 C198 1.579 . S
C869 C3 1.616 . S
C881 C55 1.635 . S
C896 C70 1.615 . S
C908 C18 1.608 . S
C923 C31 1.636 . S
C935 C81 1.621 . S
C950 C94 1.629 . S
C962 C44 1.637 . S
C977 C109 1.618 . S
C989 C159 1.610 . S
C1004 C174 1.608 . S
C1016 C120 1.617 . S
C1031 C185 1.618 . S
C1043 C133 1.629 . S
C1058 C200 1.609 . S
C1070 C148 1.618 . S
