# Generated by pormake.
# Topology umw, (4)-cn, num edge types: 1
# Building blocks:
#     Node 0, Type 0, BuildingBlock: NAHDIM_clean_sbu_0, # of connection points: 4
#     Node 1, Type 0, BuildingBlock: NAHDIM_clean_sbu_0, # of connection points: 4
#     Node 2, Type 0, BuildingBlock: NAHDIM_clean_sbu_0, # of connection points: 4
#     Node 3, Type 0, BuildingBlock: NAHDIM_clean_sbu_0, # of connection points: 4
#     Node 4, Type 0, BuildingBlock: NAHDIM_clean_sbu_0, # of connection points: 4
#     Node 5, Type 0, BuildingBlock: NAHDIM_clean_sbu_0, # of connection points: 4
#     Node 6, Type 0, BuildingBlock: NAHDIM_clean_sbu_0, # of connection points: 4
#     Node 7, Type 0, BuildingBlock: NAHDIM_clean_sbu_0, # of connection points: 4
#     Edge 8, Type (0, 0), BuildingBlock: TEMPAE_clean_linker_10, # of connection points: 2
#     Edge 9, Type (0, 0), BuildingBlock: TEMPAE_clean_linker_10, # of connection points: 2
#     Edge 10, Type (0, 0), BuildingBlock: TEMPAE_clean_linker_10, # of connection points: 2
#     Edge 11, Type (0, 0), BuildingBlock: TEMPAE_clean_linker_10, # of connection points: 2
#     Edge 12, Type (0, 0), BuildingBlock: TEMPAE_clean_linker_10, # of connection points: 2
#     Edge 13, Type (0, 0), BuildingBlock: TEMPAE_clean_linker_10, # of connection points: 2
#     Edge 14, Type (0, 0), BuildingBlock: TEMPAE_clean_linker_10, # of connection points: 2
#     Edge 15, Type (0, 0), BuildingBlock: TEMPAE_clean_linker_10, # of connection points: 2
#     Edge 16, Type (0, 0), BuildingBlock: TEMPAE_clean_linker_10, # of connection points: 2
#     Edge 17, Type (0, 0), BuildingBlock: TEMPAE_clean_linker_10, # of connection points: 2
#     Edge 18, Type (0, 0), BuildingBlock: TEMPAE_clean_linker_10, # of connection points: 2
#     Edge 19, Type (0, 0), BuildingBlock: TEMPAE_clean_linker_10, # of connection points: 2
#     Edge 20, Type (0, 0), BuildingBlock: TEMPAE_clean_linker_10, # of connection points: 2
#     Edge 21, Type (0, 0), BuildingBlock: TEMPAE_clean_linker_10, # of connection points: 2
#     Edge 22, Type (0, 0), BuildingBlock: TEMPAE_clean_linker_10, # of connection points: 2
#     Edge 23, Type (0, 0), BuildingBlock: TEMPAE_clean_linker_10, # of connection points: 2
# Relax obj value: 0.144
# Max RMSD: 0.106
# Mean RMSD: 0.106
data_MOF--net-umw--node1-NAHDIM_clean_sbu_0--edge1-TEMPAE_clean_linker_10
_symmetry_space_group_name_H-M    P1
_symmetry_Int_Tables_number       1
_symmetry_cell_setting            triclinic
loop_
_symmetry_equiv_pos_as_xyz
'x, y, z'
_cell_length_a     44.44745
_cell_length_b     44.480022
_cell_length_c     23.709785
_cell_angle_alpha  89.999755
_cell_angle_beta   89.982118
_cell_angle_gamma 89.866618
loop_
_atom_site_label
_atom_site_type_symbol
_atom_site_fract_x
_atom_site_fract_y
_atom_site_fract_z
_atom_type_partial_charge
C0 C 0.38239 0.23974 0.29544 0.0
O1 O 0.4109 0.23962 0.30998 0.0
O2 O 0.42523 0.19235 0.17686 0.0
Zn3 Zn 0.40082 0.18461 0.24701 0.0
O4 O 0.4278 0.17934 0.31401 0.0
C5 C 0.38534 0.12632 0.20275 0.0
O6 O 0.40455 0.13393 0.16315 0.0
O7 O 0.3724 0.2185 0.26487 0.0
C8 C 0.44605 0.15749 0.31867 0.0
O9 O 0.44884 0.13833 0.27682 0.0
C10 C 0.45112 0.20444 0.17773 0.0
O11 O 0.46205 0.21405 0.22593 0.0
O12 O 0.37869 0.14536 0.24073 0.0
C13 C 0.78847 0.33995 0.56109 0.0
O14 O 0.77794 0.36756 0.56075 0.0
O15 O 0.82621 0.39131 0.4518 0.0
Zn16 Zn 0.8399 0.3711 0.52364 0.0
O17 O 0.83594 0.39923 0.58925 0.0
C18 C 0.90119 0.37279 0.48497 0.0
O19 O 0.89021 0.3932 0.45056 0.0
O20 O 0.815 0.33511 0.54331 0.0
C21 C 0.85226 0.42231 0.59636 0.0
O22 O 0.87236 0.42935 0.55796 0.0
C23 C 0.80752 0.413 0.45181 0.0
O24 O 0.79562 0.42181 0.49977 0.0
O25 O 0.88351 0.35938 0.51867 0.0
C26 C 0.60543 0.74925 0.80803 0.0
O27 O 0.57734 0.7507 0.82504 0.0
O28 O 0.56475 0.78881 0.67278 0.0
Zn29 Zn 0.58632 0.80007 0.74417 0.0
O30 O 0.55588 0.80831 0.80487 0.0
C31 C 0.59144 0.86022 0.71324 0.0
O32 O 0.56386 0.85386 0.69731 0.0
O33 O 0.61465 0.76782 0.77112 0.0
C34 C 0.56368 0.82413 0.847 0.0
O35 O 0.59133 0.83439 0.84967 0.0
C36 C 0.53995 0.77466 0.67399 0.0
O37 O 0.52952 0.76515 0.72267 0.0
O38 O 0.60781 0.83921 0.73275 0.0
C39 C 0.20249 0.64945 0.05341 0.0
O40 O 0.21153 0.62137 0.05674 0.0
O41 O 0.16354 0.59797 0.9457 0.0
Zn42 Zn 0.15045 0.61941 0.01669 0.0
O43 O 0.15408 0.59205 0.08362 0.0
C44 C 0.08894 0.61851 0.97924 0.0
O45 O 0.09942 0.59765 0.94521 0.0
O46 O 0.17646 0.65501 0.03381 0.0
C47 C 0.13598 0.57072 0.09406 0.0
O48 O 0.1141 0.56498 0.05845 0.0
C49 C 0.18199 0.57608 0.94665 0.0
O50 O 0.19371 0.56767 0.995 0.0
O51 O 0.10705 0.632 0.012 0.0
C52 C 0.32944 0.80327 0.25303 0.0
O53 O 0.32947 0.80466 0.30838 0.0
O54 O 0.39556 0.8298 0.33227 0.0
Zn55 Zn 0.38046 0.84475 0.25758 0.0
O56 O 0.41466 0.84339 0.20265 0.0
C57 C 0.38471 0.90658 0.28198 0.0
O58 O 0.4108 0.8971 0.30117 0.0
O59 O 0.34844 0.81851 0.22527 0.0
C60 C 0.41328 0.85893 0.15777 0.0
O61 O 0.38974 0.87625 0.14915 0.0
C62 C 0.40884 0.80449 0.33486 0.0
O63 O 0.41065 0.78793 0.28908 0.0
O64 O 0.36624 0.88744 0.26271 0.0
C65 C 0.23585 0.38487 0.47232 0.0
O66 O 0.23595 0.41349 0.4587 0.0
O67 O 0.18855 0.42572 0.59422 0.0
Zn68 Zn 0.18086 0.40324 0.522 0.0
O69 O 0.17662 0.43197 0.45735 0.0
C70 C 0.12098 0.39132 0.55957 0.0
O71 O 0.12747 0.41357 0.59386 0.0
O72 O 0.21453 0.37476 0.5026 0.0
C73 C 0.15795 0.45359 0.45582 0.0
O74 O 0.14077 0.45886 0.49983 0.0
C75 C 0.20431 0.44946 0.59714 0.0
O76 O 0.21801 0.45931 0.55166 0.0
O77 O 0.14124 0.38154 0.52643 0.0
C78 C 0.66193 0.18583 0.76044 0.0
O79 O 0.65463 0.18962 0.81368 0.0
O80 O 0.59431 0.15384 0.82708 0.0
Zn81 Zn 0.61293 0.1412 0.75333 0.0
O82 O 0.58328 0.14689 0.6908 0.0
C83 C 0.61453 0.07929 0.79 0.0
O84 O 0.5974 0.0895 0.83094 0.0
O85 O 0.648 0.16651 0.73105 0.0
C86 C 0.56125 0.12952 0.68111 0.0
O87 O 0.556 0.10695 0.71544 0.0
C88 C 0.57955 0.17824 0.83134 0.0
O89 O 0.57764 0.1961 0.78733 0.0
O90 O 0.62463 0.09758 0.75355 0.0
C91 C 0.75377 0.6062 0.98539 0.0
O92 O 0.75307 0.57747 0.97267 0.0
O93 O 0.8033 0.56424 0.10049 0.0
Zn94 Zn 0.81008 0.58772 0.02899 0.0
O95 O 0.81327 0.55981 0.96286 0.0
C96 C 0.8703 0.60024 0.0651 0.0
O97 O 0.86424 0.57837 0.10053 0.0
O98 O 0.77613 0.61639 0.01277 0.0
C99 C 0.8336 0.53987 0.95832 0.0
O100 O 0.8529 0.53608 -0.00032 0.0
C101 C 0.78805 0.54013 0.10233 0.0
O102 O 0.77465 0.53054 0.05637 0.0
O103 O 0.84972 0.60948 0.03214 0.0
C104 C 0.48564 0.13142 0.37573 0.0
C105 C 0.46268 0.15298 0.37201 0.0
C106 C 0.5013 0.12686 0.42643 0.0
C107 C 0.49354 0.14406 0.47457 0.0
C108 C 0.47015 0.1656 0.47122 0.0
C109 C 0.45512 0.16993 0.4199 0.0
C110 C 0.52637 0.10392 0.42833 0.0
C111 C 0.46107 0.18418 0.52181 0.0
C112 C 0.51784 0.11582 0.61882 0.0
C113 C 0.54321 0.13366 0.62923 0.0
C114 C 0.50132 0.11901 0.56868 0.0
C115 C 0.5106 0.14035 0.52795 0.0
C116 C 0.53612 0.15846 0.5383 0.0
C117 C 0.55202 0.15499 0.5889 0.0
C118 C 0.474 0.09955 0.55921 0.0
C119 C 0.54679 0.18135 0.49573 0.0
H120 H 0.49158 0.11826 0.33888 0.0
H121 H 0.43724 0.18649 0.4175 0.0
H122 H 0.54786 0.11512 0.43937 0.0
H123 H 0.52178 0.08701 0.46161 0.0
H124 H 0.5293 0.09206 0.38746 0.0
H125 H 0.44167 0.19921 0.5127 0.0
H126 H 0.45501 0.16924 0.55749 0.0
H127 H 0.48029 0.19819 0.5358 0.0
H128 H 0.51088 0.09932 0.6498 0.0
H129 H 0.57166 0.16881 0.59644 0.0
H130 H 0.47707 0.08579 0.5206 0.0
H131 H 0.45386 0.11389 0.55246 0.0
H132 H 0.46959 0.08425 0.5953 0.0
H133 H 0.55182 0.17011 0.45501 0.0
H134 H 0.56728 0.19342 0.51 0.0
H135 H 0.5288 0.19812 0.48766 0.0
C136 C 0.8668 0.46599 0.6571 0.0
C137 C 0.84941 0.44011 0.64881 0.0
C138 C 0.86471 0.48252 0.7074 0.0
C139 C 0.84484 0.47281 0.75036 0.0
C140 C 0.8272 0.44675 0.7422 0.0
C141 C 0.82963 0.43077 0.69147 0.0
C142 C 0.88371 0.51035 0.71458 0.0
C143 C 0.80581 0.43569 0.78714 0.0
C144 C 0.85786 0.49941 0.90055 0.0
C145 C 0.83629 0.52231 0.90558 0.0
C146 C 0.86097 0.48314 0.85015 0.0
C147 C 0.84217 0.49008 0.80372 0.0
C148 C 0.8204 0.51319 0.80851 0.0
C149 C 0.81765 0.52895 0.85943 0.0
C150 C 0.88429 0.45847 0.84661 0.0
C151 C 0.80003 0.5213 0.75981 0.0
H152 H 0.88212 0.47334 0.62434 0.0
H153 H 0.81613 0.41076 0.6855 0.0
H154 H 0.86905 0.53016 0.72215 0.0
H155 H 0.89848 0.50787 0.75201 0.0
H156 H 0.89801 0.51489 0.6771 0.0
H157 H 0.79391 0.41484 0.77435 0.0
H158 H 0.81831 0.43117 0.82675 0.0
H159 H 0.7888 0.45326 0.7966 0.0
H160 H 0.87233 0.49415 0.936 0.0
H161 H 0.80099 0.54668 0.86286 0.0
H162 H 0.90029 0.46324 0.81183 0.0
H163 H 0.87325 0.43674 0.83683 0.0
H164 H 0.89722 0.45595 0.88643 0.0
H165 H 0.81371 0.52771 0.72257 0.0
H166 H 0.78459 0.54018 0.77016 0.0
H167 H 0.78636 0.50152 0.74752 0.0
C168 C 0.4595 0.83417 0.1195 0.0
C169 C 0.43689 0.85604 0.11418 0.0
C170 C 0.48089 0.82985 0.07678 0.0
C171 C 0.47974 0.848 0.02781 0.0
C172 C 0.45753 0.87069 0.02286 0.0
C173 C 0.43629 0.87438 0.06607 0.0
C174 C 0.50423 0.80538 0.08343 0.0
C175 C 0.45583 0.89064 0.9714 0.0
C176 C 0.54945 0.85103 0.93563 0.0
C177 C 0.54204 0.83064 0.89274 0.0
C178 C 0.52925 0.85719 0.97961 0.0
C179 C 0.5011 0.84242 0.98082 0.0
C180 C 0.49343 0.82192 0.93752 0.0
C181 C 0.51397 0.81634 0.89387 0.0
C182 C 0.53806 0.87936 0.02488 0.0
C183 C 0.46364 0.80564 0.93761 0.0
H184 H 0.46013 0.81991 0.15657 0.0
H185 H 0.41899 0.89145 0.06182 0.0
H186 H 0.50135 0.78832 0.04972 0.0
H187 H 0.52715 0.81489 0.07877 0.0
H188 H 0.50271 0.79394 0.12499 0.0
H189 H 0.43819 0.90824 0.97541 0.0
H190 H 0.47782 0.90174 0.9641 0.0
H191 H 0.45088 0.87683 0.93357 0.0
H192 H 0.57106 0.86227 0.93486 0.0
H193 H 0.50811 0.80052 0.86089 0.0
H194 H 0.5385 0.86801 0.06654 0.0
H195 H 0.52112 0.89767 0.02748 0.0
H196 H 0.5605 0.88949 0.01701 0.0
H197 H 0.4615 0.79199 0.97658 0.0
H198 H 0.46105 0.79056 0.90058 0.0
H199 H 0.44487 0.82212 0.93756 0.0
C200 C 0.13512 0.49621 0.40146 0.0
C201 C 0.15471 0.47148 0.40357 0.0
C202 C 0.13146 0.51277 0.35151 0.0
C203 C 0.14764 0.50423 0.30259 0.0
C204 C 0.16744 0.47932 0.30448 0.0
C205 C 0.17082 0.46332 0.35498 0.0
C206 C 0.11031 0.53938 0.35105 0.0
C207 C 0.185 0.46949 0.25309 0.0
C208 C 0.11958 0.52945 0.15889 0.0
C209 C 0.13895 0.55348 0.14713 0.0
C210 C 0.122 0.51332 0.20958 0.0
C211 C 0.14422 0.52154 0.24943 0.0
C212 C 0.16375 0.54585 0.23791 0.0
C213 C 0.16094 0.56147 0.18685 0.0
C214 C 0.10091 0.48738 0.22037 0.0
C215 C 0.18768 0.5553 0.27947 0.0
H216 H 0.12262 0.50265 0.43883 0.0
H217 H 0.18595 0.44418 0.35615 0.0
H218 H 0.12275 0.56003 0.33914 0.0
H219 H 0.09249 0.53596 0.31895 0.0
H220 H 0.09944 0.5431 0.39268 0.0
H221 H 0.19924 0.44942 0.26149 0.0
H222 H 0.16933 0.46415 0.2181 0.0
H223 H 0.1997 0.48804 0.23847 0.0
H224 H 0.10253 0.52316 0.12845 0.0
H225 H 0.17595 0.58008 0.17822 0.0
H226 H 0.08818 0.49124 0.25998 0.0
H227 H 0.11401 0.46633 0.22593 0.0
H228 H 0.08461 0.4841 0.1854 0.0
H229 H 0.17724 0.56083 0.32071 0.0
H230 H 0.20061 0.57514 0.26465 0.0
H231 H 0.20363 0.53647 0.28674 0.0
C232 C 0.33209 0.26507 0.29947 0.0
C233 C 0.36173 0.26257 0.31915 0.0
C234 C 0.31188 0.28551 0.32406 0.0
C235 C 0.32149 0.30355 0.36981 0.0
C236 C 0.35145 0.30134 0.38948 0.0
C237 C 0.37127 0.28102 0.36365 0.0
C238 C 0.28018 0.2876 0.30146 0.0
C239 C 0.36241 0.32004 0.43849 0.0
C240 C 0.27734 0.37424 0.40424 0.0
C241 C 0.25872 0.36436 0.44826 0.0
C242 C 0.29787 0.35467 0.37832 0.0
C243 C 0.30011 0.32462 0.39739 0.0
C244 C 0.28184 0.31466 0.44259 0.0
C245 C 0.2612 0.33462 0.46729 0.0
C246 C 0.3168 0.36601 0.32988 0.0
C247 C 0.28395 0.28285 0.46454 0.0
H248 H 0.32462 0.25094 0.26498 0.0
H249 H 0.39411 0.27911 0.37931 0.0
H250 H 0.26391 0.28134 0.33492 0.0
H251 H 0.27508 0.31109 0.28887 0.0
H252 H 0.27656 0.27269 0.2645 0.0
H253 H 0.38648 0.31579 0.44838 0.0
H254 H 0.35949 0.3443 0.42907 0.0
H255 H 0.3488 0.31504 0.47657 0.0
H256 H 0.27544 0.39715 0.38907 0.0
H257 H 0.24693 0.3269 0.5014 0.0
H258 H 0.31212 0.35257 0.29146 0.0
H259 H 0.34104 0.36321 0.33976 0.0
H260 H 0.31243 0.39008 0.32033 0.0
H261 H 0.27803 0.26677 0.43059 0.0
H262 H 0.2688 0.27891 0.50106 0.0
H263 H 0.3074 0.27781 0.4776 0.0
C264 C 0.74049 0.32018 0.60088 0.0
C265 C 0.7709 0.31562 0.5877 0.0
C266 C 0.72395 0.29818 0.62957 0.0
C267 C 0.73828 0.27111 0.64598 0.0
C268 C 0.76892 0.26625 0.6325 0.0
C269 C 0.78485 0.28852 0.60315 0.0
C270 C 0.69115 0.30394 0.64246 0.0
C271 C 0.78496 0.23772 0.6497 0.0
C272 C 0.69969 0.22761 0.76318 0.0
C273 C 0.68369 0.20602 0.73237 0.0
C274 C 0.71841 0.24839 0.73575 0.0
C275 C 0.72087 0.24767 0.67619 0.0
C276 C 0.70544 0.22543 0.64507 0.0
C277 C 0.68719 0.20479 0.67354 0.0
C278 C 0.7349 0.27162 0.77029 0.0
C279 C 0.7073 0.2241 0.58148 0.0
H280 H 0.72958 0.34105 0.58896 0.0
H281 H 0.80842 0.28495 0.59347 0.0
H282 H 0.67709 0.28603 0.62345 0.0
H283 H 0.68738 0.30328 0.6887 0.0
H284 H 0.68332 0.32605 0.62625 0.0
H285 H 0.80892 0.23754 0.63638 0.0
H286 H 0.78395 0.23505 0.69619 0.0
H287 H 0.77357 0.21795 0.63091 0.0
H288 H 0.69721 0.22862 0.80862 0.0
H289 H 0.67494 0.18818 0.64927 0.0
H290 H 0.72618 0.29437 0.7601 0.0
H291 H 0.75921 0.27139 0.75968 0.0
H292 H 0.73234 0.2678 0.81635 0.0
H293 H 0.69768 0.24498 0.56319 0.0
H294 H 0.69497 0.20456 0.56378 0.0
H295 H 0.73112 0.22274 0.56776 0.0
C296 C 0.72961 0.65701 0.97945 0.0
C297 C 0.73038 0.62671 0.96319 0.0
C298 C 0.70867 0.67699 0.9557 0.0
C299 C 0.68828 0.66643 0.91436 0.0
C300 C 0.68863 0.63579 0.89846 0.0
C301 C 0.70957 0.61626 0.9233 0.0
C302 C 0.70865 0.70948 0.97418 0.0
C303 C 0.66736 0.62376 0.85425 0.0
C304 C 0.61782 0.71163 0.8827 0.0
C305 C 0.62642 0.72753 0.83421 0.0
C306 C 0.63781 0.69181 0.90947 0.0
C307 C 0.66695 0.68755 0.88682 0.0
C308 C 0.67567 0.70326 0.83754 0.0
C309 C 0.65533 0.7232 0.81196 0.0
C310 C 0.62782 0.67562 0.96223 0.0
C311 C 0.70648 0.699 0.81185 0.0
H312 H 0.74555 0.6652 0.01039 0.0
H313 H 0.71007 0.59289 0.91035 0.0
H314 H 0.71422 0.72417 0.93785 0.0
H315 H 0.6859 0.71606 0.9891 0.0
H316 H 0.72509 0.71381 0.00849 0.0
H317 H 0.67014 0.5992 0.84745 0.0
H318 H 0.64372 0.62825 0.86676 0.0
H319 H 0.67126 0.63548 0.81359 0.0
H320 H 0.59557 0.71499 0.90034 0.0
H321 H 0.66209 0.73537 0.77444 0.0
H322 H 0.64316 0.68112 0.99764 0.0
H323 H 0.62903 0.65095 0.95565 0.0
H324 H 0.60448 0.68164 0.9747 0.0
H325 H 0.72408 0.70533 0.8428 0.0
H326 H 0.70963 0.71266 0.77307 0.0
H327 H 0.71005 0.67497 0.80114 0.0
C328 C 0.20933 0.70282 0.08429 0.0
C329 C 0.22101 0.67368 0.0781 0.0
C330 C 0.22583 0.72525 0.11205 0.0
C331 C 0.25468 0.71834 0.13377 0.0
C332 C 0.26685 0.68918 0.12651 0.0
C333 C 0.24985 0.66719 0.09882 0.0
C334 C 0.21219 0.75615 0.11902 0.0
C335 C 0.29768 0.68107 0.14868 0.0
C336 C 0.31041 0.78059 0.16365 0.0
C337 C 0.30883 0.78283 0.22265 0.0
C338 C 0.29242 0.76014 0.13408 0.0
C339 C 0.27228 0.74155 0.16419 0.0
C340 C 0.26997 0.74419 0.22357 0.0
C341 C 0.28834 0.76481 0.25216 0.0
C342 C 0.29555 0.75789 0.07077 0.0
C343 C 0.24861 0.72476 0.25698 0.0
H344 H 0.18702 0.70798 0.06853 0.0
H345 H 0.25906 0.64474 0.09409 0.0
H346 H 0.2098 0.76147 0.16452 0.0
H347 H 0.22726 0.77337 0.10046 0.0
H348 H 0.18974 0.75804 0.09874 0.0
H349 H 0.3041 0.65752 0.13859 0.0
H350 H 0.31483 0.69635 0.13049 0.0
H351 H 0.29828 0.684 0.19513 0.0
H352 H 0.32612 0.79447 0.14041 0.0
H353 H 0.28694 0.76648 0.29769 0.0
H354 H 0.27331 0.76083 0.05028 0.0
H355 H 0.30396 0.73522 0.05916 0.0
H356 H 0.31127 0.77494 0.05343 0.0
H357 H 0.22543 0.72703 0.24015 0.0
H358 H 0.24839 0.73065 0.30251 0.0
H359 H 0.25518 0.70079 0.25267 0.0
C360 C 0.3532 0.94941 0.24676 0.0
C361 C 0.37877 0.93915 0.27578 0.0
C362 C 0.34927 0.98009 0.23477 0.0
C363 C 0.37145 0.00086 0.25217 0.0
C364 C 0.39657 0.99079 0.28373 0.0
C365 C 0.3999 0.96006 0.29517 0.0
C366 C 0.32209 0.99005 0.20144 0.0
C367 C 0.42064 0.01232 0.30338 0.0
C368 C 0.3876 0.07264 0.17235 0.0
C369 C 0.3766 0.09445 0.20979 0.0
C370 C 0.38445 0.04192 0.18405 0.0
C371 C 0.36984 0.03283 0.23428 0.0
C372 C 0.3567 0.05465 0.27008 0.0
C373 C 0.36026 0.08526 0.25743 0.0
C374 C 0.39858 0.01928 0.14455 0.0
C375 C 0.34063 0.0458 0.32364 0.0
H376 H 0.3367 0.93339 0.23176 0.0
H377 H 0.41961 0.95236 0.31794 0.0
H378 H 0.31108 0.00958 0.22208 0.0
H379 H 0.32925 -0.0026 0.15879 0.0
H380 H 0.30529 0.97177 0.19669 0.0
H381 H 0.43781 0.00114 0.33025 0.0
H382 H 0.43213 0.0223 0.2663 0.0
H383 H 0.4104 0.03105 0.32765 0.0
H384 H 0.40001 0.07951 0.13518 0.0
H385 H 0.35146 0.10196 0.2864 0.0
H386 H 0.38234 0.0012 0.13423 0.0
H387 H 0.41818 0.00857 0.16552 0.0
H388 H 0.40638 0.02976 0.10463 0.0
H389 H 0.32482 0.02702 0.31564 0.0
H390 H 0.32792 0.06491 0.34228 0.0
H391 H 0.35733 0.03784 0.35509 0.0
C392 C 0.94601 0.34769 0.52852 0.0
C393 C 0.93411 0.36872 0.49036 0.0
C394 C 0.97701 0.34647 0.53953 0.0
C395 C -0.00355 0.36691 0.51203 0.0
C396 C 0.98478 0.38704 0.47125 0.0
C397 C 0.95375 0.38761 0.46073 0.0
C398 C 0.98872 0.32438 0.58264 0.0
C399 C 0.00481 0.40919 0.44098 0.0
C400 C 0.06661 0.39552 0.58436 0.0
C401 C 0.08941 0.38141 0.55312 0.0
C402 C 0.03621 0.38993 0.57298 0.0
C403 C 0.02841 0.36951 0.52962 0.0
C404 C 0.05126 0.35376 0.5003 0.0
C405 C 0.08156 0.35997 0.51227 0.0
C406 C 0.01248 0.40715 0.60531 0.0
C407 C 0.04375 0.33149 0.4544 0.0
H408 H 0.931 0.33281 0.55125 0.0
H409 H 0.9448 0.4038 0.43094 0.0
H410 H 0.00893 0.31254 0.56637 0.0
H411 H -0.00445 0.33665 0.62129 0.0
H412 H 0.97153 0.30741 0.59444 0.0
H413 H 0.99262 0.42174 0.40749 0.0
H414 H 0.01392 0.42564 0.47172 0.0
H415 H 0.02424 0.39741 0.42158 0.0
H416 H 0.07244 0.41196 0.61625 0.0
H417 H 0.09904 0.34881 0.48818 0.0
H418 H -0.00441 0.39149 0.62318 0.0
H419 H 0.00041 0.42259 0.57628 0.0
H420 H 0.0222 0.42063 0.64025 0.0
H421 H 0.02601 0.31575 0.46878 0.0
H422 H 0.06375 0.31826 0.441 0.0
H423 H 0.03482 0.34366 0.41713 0.0
C424 C 0.62724 0.89976 0.74702 0.0
C425 C 0.6011 0.89194 0.7173 0.0
C426 C 0.63403 0.93 0.75827 0.0
C427 C 0.6142 0.95279 0.73934 0.0
C428 C 0.58869 0.94508 0.70672 0.0
C429 C 0.58248 0.91475 0.69607 0.0
C430 C 0.66158 0.93742 0.79274 0.0
C431 C 0.56709 0.96877 0.6854 0.0
C432 C 0.60435 0.02614 0.81813 0.0
C433 C 0.61839 0.04653 0.7816 0.0
C434 C 0.60421 -0.00474 0.80634 0.0
C435 C 0.61854 0.98453 0.7569 0.0
C436 C 0.63431 0.00474 0.72167 0.0
C437 C 0.63404 0.03555 0.73442 0.0
C438 C 0.58728 0.97434 0.84515 0.0
C439 C 0.65007 0.9941 0.66888 0.0
H440 H 0.64177 0.88225 0.76351 0.0
H441 H 0.56237 0.90891 0.67268 0.0
H442 H 0.67456 0.95578 0.77255 0.0
H443 H 0.65457 0.94549 0.83503 0.0
H444 H 0.67657 0.91762 0.79829 0.0
H445 H 0.54946 0.9592 0.6575 0.0
H446 H 0.5559 0.97992 0.72167 0.0
H447 H 0.57943 0.98636 0.66171 0.0
H448 H 0.59241 0.03439 0.8549 0.0
H449 H 0.64517 0.05112 0.70616 0.0
H450 H 0.60159 0.95486 0.85691 0.0
H451 H 0.56722 0.96538 0.82298 0.0
H452 H 0.57968 0.98576 0.88433 0.0
H453 H 0.66417 0.97406 0.67797 0.0
H454 H 0.66452 0.01184 0.65019 0.0
H455 H 0.63308 0.98735 0.63706 0.0
C456 C 0.925 0.59633 0.08744 0.0
C457 C 0.90176 0.6102 0.05701 0.0
C458 C 0.95523 0.60191 0.07443 0.0
C459 C 0.9624 0.62206 0.03023 0.0
C460 C 0.93912 0.63759 0.00172 0.0
C461 C 0.90901 0.63139 0.01532 0.0
C462 C 0.97944 0.58493 0.10593 0.0
C463 C 0.94594 0.65958 0.95497 0.0
C464 C 0.04473 0.64399 0.02427 0.0
C465 C 0.0561 0.62273 0.98597 0.0
C466 C 0.01389 0.64523 0.0369 0.0
C467 C 0.99409 0.62459 0.01093 0.0
C468 C 0.00519 0.60422 0.96997 0.0
C469 C 0.03605 0.60364 0.95781 0.0
C470 C 0.00279 0.66757 0.08013 0.0
C471 C 0.98476 0.58185 0.94128 0.0
H472 H 0.91964 0.58007 0.11994 0.0
H473 H 0.89118 0.64238 0.99185 0.0
H474 H 0.9911 0.5693 0.07666 0.0
H475 H -0.00345 0.60072 0.12254 0.0
H476 H 0.97023 0.57167 0.14168 0.0
H477 H 0.92574 0.6727 0.94231 0.0
H478 H 0.96386 0.67543 0.96809 0.0
H479 H 0.95436 0.64718 0.91753 0.0
H480 H 0.06004 0.65901 0.04589 0.0
H481 H 0.04459 0.58726 0.92794 0.0
H482 H -0.00342 0.65554 0.11941 0.0
H483 H 0.98231 0.67927 0.0647 0.0
H484 H 0.02012 0.68465 0.09059 0.0
H485 H 0.97613 0.56559 0.97288 0.0
H486 H -0.00352 0.5691 0.90746 0.0
H487 H 0.96503 0.59347 0.92264 0.0
C488 C 0.56259 0.16465 0.92867 0.0
C489 C 0.56286 0.18525 0.88387 0.0
C490 C 0.54514 0.16987 0.97701 0.0
C491 C 0.5276 0.19641 0.98081 0.0
C492 C 0.52847 0.21775 0.93655 0.0
C493 C 0.54606 0.21189 0.88854 0.0
C494 C 0.54479 0.14655 0.02331 0.0
C495 C 0.51021 0.24637 0.93926 0.0
C496 C 0.45918 0.19165 0.07609 0.0
C497 C 0.46982 0.20487 0.12597 0.0
C498 C 0.47752 0.18949 0.0281 0.0
C499 C 0.5072 0.20093 0.02987 0.0
C500 C 0.51775 0.21521 0.07938 0.0
C501 C 0.49894 0.21698 0.12691 0.0
C502 C 0.46543 0.17409 0.97608 0.0
C503 C 0.5492 0.22784 0.0827 0.0
H504 H 0.57553 0.14403 0.92554 0.0
H505 H 0.54622 0.228 0.85424 0.0
H506 H 0.5507 0.15703 0.06428 0.0
H507 H 0.52181 0.13713 0.02763 0.0
H508 H 0.56072 0.12778 0.01502 0.0
H509 H 0.5149 0.26157 0.90315 0.0
H510 H 0.48587 0.24087 0.93924 0.0
H511 H 0.51498 0.25858 0.97906 0.0
H512 H 0.4367 0.18228 0.07487 0.0
H513 H 0.50732 0.22732 0.16518 0.0
H514 H 0.47874 0.15347 0.96738 0.0
H515 H 0.46772 0.18901 0.93884 0.0
H516 H 0.4414 0.16771 0.98062 0.0
H517 H 0.56585 0.20931 0.07935 0.0
H518 H 0.55324 0.24013 0.12278 0.0
H519 H 0.55333 0.24336 0.04691 0.0
C520 C 0.76949 0.49611 0.1583 0.0
C521 C 0.78755 0.52186 0.15455 0.0
C522 C 0.77026 0.47768 0.2064 0.0
C523 C 0.78975 0.48506 0.25151 0.0
C524 C 0.80761 0.51131 0.24839 0.0
C525 C 0.8062 0.52945 0.20009 0.0
C526 C 0.75066 0.45003 0.20852 0.0
C527 C 0.8288 0.51987 0.29551 0.0
C528 C 0.77916 0.4524 0.39817 0.0
C529 C 0.80118 0.42975 0.39912 0.0
C530 C 0.77446 0.46994 0.34972 0.0
C531 C 0.79239 0.46488 0.30129 0.0
C532 C 0.81409 0.44153 0.30148 0.0
C533 C 0.81814 0.42417 0.35031 0.0
C534 C 0.75089 0.49444 0.35089 0.0
C535 C 0.83376 0.43554 0.25073 0.0
H536 H 0.75493 0.49015 0.1234 0.0
H537 H 0.82029 0.54926 0.19756 0.0
H538 H 0.76497 0.42959 0.21021 0.0
H539 H 0.73671 0.45024 0.24734 0.0
H540 H 0.73555 0.44833 0.17135 0.0
H541 H 0.8406 0.5414 0.28712 0.0
H542 H 0.81625 0.52199 0.33576 0.0
H543 H 0.84591 0.50193 0.30135 0.0
H544 H 0.76583 0.45675 0.43559 0.0
H545 H 0.83523 0.40674 0.35067 0.0
H546 H 0.73551 0.49214 0.31431 0.0
H547 H 0.7619 0.51672 0.34738 0.0
H548 H 0.73733 0.49403 0.39026 0.0
H549 H 0.81967 0.43182 0.21278 0.0
H550 H 0.84859 0.41565 0.25675 0.0
H551 H 0.84809 0.45544 0.24224 0.0
C552 C 0.49247 0.75973 0.62454 0.0
C553 C 0.52116 0.7728 0.62253 0.0
C554 C 0.473 0.76121 0.57797 0.0
C555 C 0.48245 0.7762 0.5284 0.0
C556 C 0.51188 0.78816 0.52521 0.0
C557 C 0.5309 0.78626 0.57225 0.0
C558 C 0.44188 0.74792 0.58271 0.0
C559 C 0.52284 0.80425 0.47301 0.0
C560 C 0.44144 0.76853 0.38866 0.0
C561 C 0.42499 0.79549 0.38684 0.0
C562 C 0.45939 0.76129 0.4355 0.0
C563 C 0.46096 0.78156 0.4814 0.0
C564 C 0.44346 0.80819 0.48079 0.0
C565 C 0.42564 0.8148 0.43358 0.0
C566 C 0.47754 0.73257 0.43489 0.0
C567 C 0.44449 0.83035 0.52902 0.0
H568 H 0.4848 0.74913 0.66311 0.0
H569 H 0.55307 0.79629 0.57016 0.0
H570 H 0.42493 0.76626 0.58327 0.0
H571 H 0.43694 0.73357 0.54559 0.0
H572 H 0.43914 0.73426 0.6216 0.0
H573 H 0.54698 0.81046 0.47589 0.0
H574 H 0.51959 0.78992 0.43522 0.0
H575 H 0.50946 0.82507 0.46659 0.0
H576 H 0.44095 0.75339 0.35285 0.0
H577 H 0.41292 0.83561 0.43268 0.0
H578 H 0.47409 0.71987 0.47463 0.0
H579 H 0.50184 0.738 0.43211 0.0
H580 H 0.47156 0.71785 0.39874 0.0
H581 H 0.43957 0.81883 0.56945 0.0
H582 H 0.42819 0.8491 0.52352 0.0
H583 H 0.46744 0.83998 0.5324 0.0
C584 C 0.21058 0.53626 0.89451 0.0
C585 C 0.18862 0.55898 0.89449 0.0
C586 C 0.2158 0.51865 0.84633 0.0
C587 C 0.19846 0.52372 0.79717 0.0
C588 C 0.17677 0.54707 0.79646 0.0
C589 C 0.17219 0.5645 0.84504 0.0
C590 C 0.23932 0.49413 0.84849 0.0
C591 C 0.15771 0.55306 0.74491 0.0
C592 C 0.22287 0.4929 0.65472 0.0
C593 C 0.2047 0.46727 0.64992 0.0
C594 C 0.22172 0.51109 0.70312 0.0
C595 C 0.20175 0.5036 0.74744 0.0
C596 C 0.18387 0.4774 0.74337 0.0
C597 C 0.18567 0.4595 0.69481 0.0
C598 C 0.24136 0.53868 0.7063 0.0
C599 C 0.16218 0.46871 0.78963 0.0
H600 H 0.2235 0.53196 0.93244 0.0
H601 H 0.15517 0.58199 0.84465 0.0
H602 H 0.22836 0.47186 0.84431 0.0
H603 H 0.25521 0.49648 0.81268 0.0
H604 H 0.25232 0.49445 0.8885 0.0
H605 H 0.14272 0.57286 0.7504 0.0
H606 H 0.17227 0.55692 0.70762 0.0
H607 H 0.1436 0.53311 0.73566 0.0
H608 H 0.23773 0.499 0.62034 0.0
H609 H 0.17151 0.43976 0.6915 0.0
H610 H 0.25471 0.53845 0.74583 0.0
H611 H 0.22707 0.55916 0.70721 0.0
H612 H 0.25703 0.54034 0.66992 0.0
H613 H 0.17426 0.46665 0.83038 0.0
H614 H 0.15059 0.44713 0.78073 0.0
H615 H 0.14492 0.48656 0.79478 0.0
loop_
_geom_bond_atom_site_label_1
_geom_bond_atom_site_label_2
_geom_bond_distance
_geom_bond_site_symmetry_2
_ccdc_geom_bond_type
C0 O1 1.160 . S
C0 O7 1.185 . S
O1 C0 1.160 . S
O2 Zn3 1.899 . S
O2 C10 1.284 . S
Zn3 O2 1.899 . S
Zn3 O4 2.032 . S
Zn3 O7 2.086 . S
Zn3 O12 1.977 . S
O4 Zn3 2.032 . S
O4 C8 1.278 . S
C5 O6 1.203 . S
C5 O12 1.267 . S
O6 C5 1.203 . S
O7 C0 1.185 . S
O7 Zn3 2.086 . S
C8 O4 1.278 . S
C8 O9 1.211 . S
O9 C8 1.211 . S
C10 O2 1.284 . S
C10 O11 1.273 . S
O11 C10 1.273 . S
O12 Zn3 1.977 . S
O12 C5 1.267 . S
C13 O14 1.160 . S
C13 O20 1.185 . S
O14 C13 1.160 . S
O15 Zn16 1.899 . S
O15 C23 1.284 . S
Zn16 O15 1.899 . S
Zn16 O17 2.032 . S
Zn16 O20 2.086 . S
Zn16 O25 1.977 . S
O17 Zn16 2.032 . S
O17 C21 1.278 . S
C18 O19 1.203 . S
C18 O25 1.267 . S
O19 C18 1.203 . S
O20 C13 1.185 . S
O20 Zn16 2.086 . S
C21 O17 1.278 . S
C21 O22 1.211 . S
O22 C21 1.211 . S
C23 O15 1.284 . S
C23 O24 1.273 . S
O24 C23 1.273 . S
O25 Zn16 1.977 . S
O25 C18 1.267 . S
C26 O27 1.160 . S
C26 O33 1.185 . S
O27 C26 1.160 . S
O28 Zn29 1.899 . S
O28 C36 1.284 . S
Zn29 O28 1.899 . S
Zn29 O30 2.032 . S
Zn29 O33 2.086 . S
Zn29 O38 1.977 . S
O30 Zn29 2.032 . S
O30 C34 1.278 . S
C31 O32 1.203 . S
C31 O38 1.267 . S
O32 C31 1.203 . S
O33 C26 1.185 . S
O33 Zn29 2.086 . S
C34 O30 1.278 . S
C34 O35 1.211 . S
O35 C34 1.211 . S
C36 O28 1.284 . S
C36 O37 1.273 . S
O37 C36 1.273 . S
O38 Zn29 1.977 . S
O38 C31 1.267 . S
C39 O40 1.160 . S
C39 O46 1.185 . S
O40 C39 1.160 . S
O41 Zn42 1.899 1_556 S
O41 C49 1.284 . S
Zn42 O41 1.899 1_554 S
Zn42 O43 2.032 . S
Zn42 O46 2.086 . S
Zn42 O51 1.977 . S
O43 Zn42 2.032 . S
O43 C47 1.278 . S
C44 O45 1.203 1_554 S
C44 O51 1.267 . S
O45 C44 1.203 1_556 S
O46 C39 1.185 . S
O46 Zn42 2.086 . S
C47 O43 1.278 . S
C47 O48 1.211 . S
O48 C47 1.211 . S
C49 O41 1.284 . S
C49 O50 1.273 . S
O50 C49 1.273 . S
O51 Zn42 1.977 . S
O51 C44 1.267 . S
C52 O53 1.160 . S
C52 O59 1.185 . S
O53 C52 1.160 . S
O54 Zn55 1.899 . S
O54 C62 1.284 . S
Zn55 O54 1.899 . S
Zn55 O56 2.032 . S
Zn55 O59 2.086 . S
Zn55 O64 1.977 . S
O56 Zn55 2.032 . S
O56 C60 1.278 . S
C57 O58 1.203 . S
C57 O64 1.267 . S
O58 C57 1.203 . S
O59 C52 1.185 . S
O59 Zn55 2.086 . S
C60 O56 1.278 . S
C60 O61 1.211 . S
O61 C60 1.211 . S
C62 O54 1.284 . S
C62 O63 1.273 . S
O63 C62 1.273 . S
O64 Zn55 1.977 . S
O64 C57 1.267 . S
C65 O66 1.160 . S
C65 O72 1.185 . S
O66 C65 1.160 . S
O67 Zn68 1.899 . S
O67 C75 1.284 . S
Zn68 O67 1.899 . S
Zn68 O69 2.032 . S
Zn68 O72 2.086 . S
Zn68 O77 1.977 . S
O69 Zn68 2.032 . S
O69 C73 1.278 . S
C70 O71 1.203 . S
C70 O77 1.267 . S
O71 C70 1.203 . S
O72 C65 1.185 . S
O72 Zn68 2.086 . S
C73 O69 1.278 . S
C73 O74 1.211 . S
O74 C73 1.211 . S
C75 O67 1.284 . S
C75 O76 1.273 . S
O76 C75 1.273 . S
O77 Zn68 1.977 . S
O77 C70 1.267 . S
C78 O79 1.160 . S
C78 O85 1.185 . S
O79 C78 1.160 . S
O80 Zn81 1.899 . S
O80 C88 1.284 . S
Zn81 O80 1.899 . S
Zn81 O82 2.032 . S
Zn81 O85 2.086 . S
Zn81 O90 1.977 . S
O82 Zn81 2.032 . S
O82 C86 1.278 . S
C83 O84 1.203 . S
C83 O90 1.267 . S
O84 C83 1.203 . S
O85 C78 1.185 . S
O85 Zn81 2.086 . S
C86 O82 1.278 . S
C86 O87 1.211 . S
O87 C86 1.211 . S
C88 O80 1.284 . S
C88 O89 1.273 . S
O89 C88 1.273 . S
O90 Zn81 1.977 . S
O90 C83 1.267 . S
C91 O92 1.160 1_556 S
C91 O98 1.185 . S
O92 C91 1.160 1_554 S
O93 Zn94 1.899 . S
O93 C101 1.284 . S
Zn94 O93 1.899 . S
Zn94 O95 2.032 1_554 S
Zn94 O98 2.086 1_554 S
Zn94 O103 1.977 1_554 S
O95 Zn94 2.032 1_556 S
O95 C99 1.278 . S
C96 O97 1.203 . S
C96 O103 1.267 1_554 S
O97 C96 1.203 . S
O98 C91 1.185 . S
O98 Zn94 2.086 1_556 S
C99 O95 1.278 . S
C99 O100 1.211 . S
O100 C99 1.211 . S
C101 O93 1.284 . S
C101 O102 1.273 . S
O102 C101 1.273 . S
O103 Zn94 1.977 1_556 S
O103 C96 1.267 1_556 S
C104 C105 1.391 . S
C104 C106 1.394 . S
C104 H120 0.931 . S
C105 C104 1.391 . S
C105 C109 1.376 . S
C106 C104 1.394 . S
C106 C107 1.369 . S
C106 C110 1.531 . S
C107 C106 1.369 . S
C107 C108 1.410 . S
C107 C115 1.503 . S
C108 C107 1.410 . S
C108 C109 1.392 . S
C108 C111 1.511 . S
C109 C105 1.376 . S
C109 C108 1.392 . S
C109 H121 0.929 . S
C110 C106 1.531 . S
C110 H122 0.960 . S
C110 H123 0.962 . S
C110 H124 0.960 . S
C111 C108 1.511 . S
C111 H125 0.961 . S
C111 H126 0.961 . S
C111 H127 0.961 . S
C112 C113 1.370 . S
C112 C114 1.363 . S
C112 H128 0.931 . S
C113 C112 1.370 . S
C113 C117 1.408 . S
C114 C112 1.363 . S
C114 C115 1.370 . S
C114 C118 1.524 . S
C115 C107 1.503 . S
C115 C114 1.370 . S
C115 C116 1.403 . S
C116 C115 1.403 . S
C116 C117 1.404 . S
C116 C119 1.539 . S
C117 C113 1.408 . S
C117 C116 1.404 . S
C117 H129 0.930 . S
C118 C114 1.524 . S
C118 H130 0.956 . S
C118 H131 0.961 . S
C118 H132 0.961 . S
C119 C116 1.539 . S
C119 H133 0.958 . S
C119 H134 0.961 . S
C119 H135 0.960 . S
H120 C104 0.931 . S
H121 C109 0.929 . S
H122 C110 0.960 . S
H123 C110 0.962 . S
H124 C110 0.960 . S
H125 C111 0.961 . S
H126 C111 0.961 . S
H127 C111 0.961 . S
H128 C112 0.931 . S
H129 C117 0.930 . S
H130 C118 0.956 . S
H131 C118 0.961 . S
H132 C118 0.961 . S
H133 C119 0.958 . S
H134 C119 0.961 . S
H135 C119 0.960 . S
C136 C137 1.391 . S
C136 C138 1.394 . S
C136 H152 0.931 . S
C137 C136 1.391 . S
C137 C141 1.376 . S
C138 C136 1.394 . S
C138 C139 1.369 . S
C138 C142 1.531 . S
C139 C138 1.369 . S
C139 C140 1.410 . S
C139 C147 1.503 . S
C140 C139 1.410 . S
C140 C141 1.392 . S
C140 C143 1.511 . S
C141 C137 1.376 . S
C141 C140 1.392 . S
C141 H153 0.929 . S
C142 C138 1.531 . S
C142 H154 0.960 . S
C142 H155 0.962 . S
C142 H156 0.960 . S
C143 C140 1.511 . S
C143 H157 0.961 . S
C143 H158 0.961 . S
C143 H159 0.961 . S
C144 C145 1.370 . S
C144 C146 1.363 . S
C144 H160 0.931 . S
C145 C144 1.370 . S
C145 C149 1.408 . S
C146 C144 1.363 . S
C146 C147 1.370 . S
C146 C150 1.524 . S
C147 C139 1.503 . S
C147 C146 1.370 . S
C147 C148 1.403 . S
C148 C147 1.403 . S
C148 C149 1.404 . S
C148 C151 1.539 . S
C149 C145 1.408 . S
C149 C148 1.404 . S
C149 H161 0.930 . S
C150 C146 1.524 . S
C150 H162 0.956 . S
C150 H163 0.961 . S
C150 H164 0.961 . S
C151 C148 1.539 . S
C151 H165 0.958 . S
C151 H166 0.961 . S
C151 H167 0.960 . S
H152 C136 0.931 . S
H153 C141 0.929 . S
H154 C142 0.960 . S
H155 C142 0.962 . S
H156 C142 0.960 . S
H157 C143 0.961 . S
H158 C143 0.961 . S
H159 C143 0.961 . S
H160 C144 0.931 . S
H161 C149 0.930 . S
H162 C150 0.956 . S
H163 C150 0.961 . S
H164 C150 0.961 . S
H165 C151 0.958 . S
H166 C151 0.961 . S
H167 C151 0.960 . S
C168 C169 1.391 . S
C168 C170 1.394 . S
C168 H184 0.931 . S
C169 C168 1.391 . S
C169 C173 1.376 . S
C170 C168 1.394 . S
C170 C171 1.369 . S
C170 C174 1.531 . S
C171 C170 1.369 . S
C171 C172 1.410 . S
C171 C179 1.503 1_554 S
C172 C171 1.410 . S
C172 C173 1.392 . S
C172 C175 1.511 . S
C173 C169 1.376 . S
C173 C172 1.392 . S
C173 H185 0.929 . S
C174 C170 1.531 . S
C174 H186 0.960 . S
C174 H187 0.962 . S
C174 H188 0.960 . S
C175 C172 1.511 . S
C175 H189 0.961 . S
C175 H190 0.961 1_554 S
C175 H191 0.961 1_554 S
C176 C177 1.370 . S
C176 C178 1.363 . S
C176 H192 0.931 . S
C177 C176 1.370 . S
C177 C181 1.408 . S
C178 C176 1.363 . S
C178 C179 1.370 . S
C178 C182 1.524 1_556 S
C179 C171 1.503 1_556 S
C179 C178 1.370 . S
C179 C180 1.403 . S
C180 C179 1.403 . S
C180 C181 1.404 . S
C180 C183 1.539 . S
C181 C177 1.408 . S
C181 C180 1.404 . S
C181 H193 0.930 . S
C182 C178 1.524 1_554 S
C182 H194 0.956 . S
C182 H195 0.961 . S
C182 H196 0.961 . S
C183 C180 1.539 . S
C183 H197 0.958 . S
C183 H198 0.961 . S
C183 H199 0.960 . S
H184 C168 0.931 . S
H185 C173 0.929 . S
H186 C174 0.960 . S
H187 C174 0.962 . S
H188 C174 0.960 . S
H189 C175 0.961 . S
H190 C175 0.961 1_556 S
H191 C175 0.961 1_556 S
H192 C176 0.931 . S
H193 C181 0.930 . S
H194 C182 0.956 . S
H195 C182 0.961 . S
H196 C182 0.961 . S
H197 C183 0.958 . S
H198 C183 0.961 . S
H199 C183 0.960 . S
C200 C201 1.391 . S
C200 C202 1.394 . S
C200 H216 0.931 . S
C201 C200 1.391 . S
C201 C205 1.376 . S
C202 C200 1.394 . S
C202 C203 1.369 . S
C202 C206 1.531 . S
C203 C202 1.369 . S
C203 C204 1.410 . S
C203 C211 1.503 . S
C204 C203 1.410 . S
C204 C205 1.392 . S
C204 C207 1.511 . S
C205 C201 1.376 . S
C205 C204 1.392 . S
C205 H217 0.929 . S
C206 C202 1.531 . S
C206 H218 0.960 . S
C206 H219 0.962 . S
C206 H220 0.960 . S
C207 C204 1.511 . S
C207 H221 0.961 . S
C207 H222 0.961 . S
C207 H223 0.961 . S
C208 C209 1.370 . S
C208 C210 1.363 . S
C208 H224 0.931 . S
C209 C208 1.370 . S
C209 C213 1.408 . S
C210 C208 1.363 . S
C210 C211 1.370 . S
C210 C214 1.524 . S
C211 C203 1.503 . S
C211 C210 1.370 . S
C211 C212 1.403 . S
C212 C211 1.403 . S
C212 C213 1.404 . S
C212 C215 1.539 . S
C213 C209 1.408 . S
C213 C212 1.404 . S
C213 H225 0.930 . S
C214 C210 1.524 . S
C214 H226 0.956 . S
C214 H227 0.961 . S
C214 H228 0.961 . S
C215 C212 1.539 . S
C215 H229 0.958 . S
C215 H230 0.961 . S
C215 H231 0.960 . S
H216 C200 0.931 . S
H217 C205 0.929 . S
H218 C206 0.960 . S
H219 C206 0.962 . S
H220 C206 0.960 . S
H221 C207 0.961 . S
H222 C207 0.961 . S
H223 C207 0.961 . S
H224 C208 0.931 . S
H225 C213 0.930 . S
H226 C214 0.956 . S
H227 C214 0.961 . S
H228 C214 0.961 . S
H229 C215 0.958 . S
H230 C215 0.961 . S
H231 C215 0.960 . S
C232 C233 1.391 . S
C232 C234 1.394 . S
C232 H248 0.931 . S
C233 C232 1.391 . S
C233 C237 1.376 . S
C234 C232 1.394 . S
C234 C235 1.369 . S
C234 C238 1.531 . S
C235 C234 1.369 . S
C235 C236 1.410 . S
C235 C243 1.503 . S
C236 C235 1.410 . S
C236 C237 1.392 . S
C236 C239 1.511 . S
C237 C233 1.376 . S
C237 C236 1.392 . S
C237 H249 0.929 . S
C238 C234 1.531 . S
C238 H250 0.960 . S
C238 H251 0.962 . S
C238 H252 0.960 . S
C239 C236 1.511 . S
C239 H253 0.961 . S
C239 H254 0.961 . S
C239 H255 0.961 . S
C240 C241 1.370 . S
C240 C242 1.363 . S
C240 H256 0.931 . S
C241 C240 1.370 . S
C241 C245 1.408 . S
C242 C240 1.363 . S
C242 C243 1.370 . S
C242 C246 1.524 . S
C243 C235 1.503 . S
C243 C242 1.370 . S
C243 C244 1.403 . S
C244 C243 1.403 . S
C244 C245 1.404 . S
C244 C247 1.539 . S
C245 C241 1.408 . S
C245 C244 1.404 . S
C245 H257 0.930 . S
C246 C242 1.524 . S
C246 H258 0.956 . S
C246 H259 0.961 . S
C246 H260 0.961 . S
C247 C244 1.539 . S
C247 H261 0.958 . S
C247 H262 0.961 . S
C247 H263 0.960 . S
H248 C232 0.931 . S
H249 C237 0.929 . S
H250 C238 0.960 . S
H251 C238 0.962 . S
H252 C238 0.960 . S
H253 C239 0.961 . S
H254 C239 0.961 . S
H255 C239 0.961 . S
H256 C240 0.931 . S
H257 C245 0.930 . S
H258 C246 0.956 . S
H259 C246 0.961 . S
H260 C246 0.961 . S
H261 C247 0.958 . S
H262 C247 0.961 . S
H263 C247 0.960 . S
C264 C265 1.391 . S
C264 C266 1.394 . S
C264 H280 0.931 . S
C265 C264 1.391 . S
C265 C269 1.376 . S
C266 C264 1.394 . S
C266 C267 1.369 . S
C266 C270 1.531 . S
C267 C266 1.369 . S
C267 C268 1.410 . S
C267 C275 1.503 . S
C268 C267 1.410 . S
C268 C269 1.392 . S
C268 C271 1.511 . S
C269 C265 1.376 . S
C269 C268 1.392 . S
C269 H281 0.929 . S
C270 C266 1.531 . S
C270 H282 0.960 . S
C270 H283 0.962 . S
C270 H284 0.960 . S
C271 C268 1.511 . S
C271 H285 0.961 . S
C271 H286 0.961 . S
C271 H287 0.961 . S
C272 C273 1.370 . S
C272 C274 1.363 . S
C272 H288 0.931 . S
C273 C272 1.370 . S
C273 C277 1.408 . S
C274 C272 1.363 . S
C274 C275 1.370 . S
C274 C278 1.524 . S
C275 C267 1.503 . S
C275 C274 1.370 . S
C275 C276 1.403 . S
C276 C275 1.403 . S
C276 C277 1.404 . S
C276 C279 1.539 . S
C277 C273 1.408 . S
C277 C276 1.404 . S
C277 H289 0.930 . S
C278 C274 1.524 . S
C278 H290 0.956 . S
C278 H291 0.961 . S
C278 H292 0.961 . S
C279 C276 1.539 . S
C279 H293 0.958 . S
C279 H294 0.961 . S
C279 H295 0.960 . S
H280 C264 0.931 . S
H281 C269 0.929 . S
H282 C270 0.960 . S
H283 C270 0.962 . S
H284 C270 0.960 . S
H285 C271 0.961 . S
H286 C271 0.961 . S
H287 C271 0.961 . S
H288 C272 0.931 . S
H289 C277 0.930 . S
H290 C278 0.956 . S
H291 C278 0.961 . S
H292 C278 0.961 . S
H293 C279 0.958 . S
H294 C279 0.961 . S
H295 C279 0.960 . S
C296 C297 1.391 . S
C296 C298 1.394 . S
C296 H312 0.931 1_556 S
C297 C296 1.391 . S
C297 C301 1.376 . S
C298 C296 1.394 . S
C298 C299 1.369 . S
C298 C302 1.531 . S
C299 C298 1.369 . S
C299 C300 1.410 . S
C299 C307 1.503 . S
C300 C299 1.410 . S
C300 C301 1.392 . S
C300 C303 1.511 . S
C301 C297 1.376 . S
C301 C300 1.392 . S
C301 H313 0.929 . S
C302 C298 1.531 . S
C302 H314 0.960 . S
C302 H315 0.962 1_556 S
C302 H316 0.960 1_556 S
C303 C300 1.511 . S
C303 H317 0.961 . S
C303 H318 0.961 . S
C303 H319 0.961 . S
C304 C305 1.370 . S
C304 C306 1.363 . S
C304 H320 0.931 . S
C305 C304 1.370 . S
C305 C309 1.408 . S
C306 C304 1.363 . S
C306 C307 1.370 . S
C306 C310 1.524 . S
C307 C299 1.503 . S
C307 C306 1.370 . S
C307 C308 1.403 . S
C308 C307 1.403 . S
C308 C309 1.404 . S
C308 C311 1.539 . S
C309 C305 1.408 . S
C309 C308 1.404 . S
C309 H321 0.930 . S
C310 C306 1.524 . S
C310 H322 0.956 . S
C310 H323 0.961 . S
C310 H324 0.961 . S
C311 C308 1.539 . S
C311 H325 0.958 . S
C311 H326 0.961 . S
C311 H327 0.960 . S
H312 C296 0.931 1_554 S
H313 C301 0.929 . S
H314 C302 0.960 . S
H315 C302 0.962 1_554 S
H316 C302 0.960 1_554 S
H317 C303 0.961 . S
H318 C303 0.961 . S
H319 C303 0.961 . S
H320 C304 0.931 . S
H321 C309 0.930 . S
H322 C310 0.956 . S
H323 C310 0.961 . S
H324 C310 0.961 . S
H325 C311 0.958 . S
H326 C311 0.961 . S
H327 C311 0.960 . S
C328 C329 1.391 . S
C328 C330 1.394 . S
C328 H344 0.931 . S
C329 C328 1.391 . S
C329 C333 1.376 . S
C330 C328 1.394 . S
C330 C331 1.369 . S
C330 C334 1.531 . S
C331 C330 1.369 . S
C331 C332 1.410 . S
C331 C339 1.503 . S
C332 C331 1.410 . S
C332 C333 1.392 . S
C332 C335 1.511 . S
C333 C329 1.376 . S
C333 C332 1.392 . S
C333 H345 0.929 . S
C334 C330 1.531 . S
C334 H346 0.960 . S
C334 H347 0.962 . S
C334 H348 0.960 . S
C335 C332 1.511 . S
C335 H349 0.961 . S
C335 H350 0.961 . S
C335 H351 0.961 . S
C336 C337 1.370 . S
C336 C338 1.363 . S
C336 H352 0.931 . S
C337 C336 1.370 . S
C337 C341 1.408 . S
C338 C336 1.363 . S
C338 C339 1.370 . S
C338 C342 1.524 . S
C339 C331 1.503 . S
C339 C338 1.370 . S
C339 C340 1.403 . S
C340 C339 1.403 . S
C340 C341 1.404 . S
C340 C343 1.539 . S
C341 C337 1.408 . S
C341 C340 1.404 . S
C341 H353 0.930 . S
C342 C338 1.524 . S
C342 H354 0.956 . S
C342 H355 0.961 . S
C342 H356 0.961 . S
C343 C340 1.539 . S
C343 H357 0.958 . S
C343 H358 0.961 . S
C343 H359 0.960 . S
H344 C328 0.931 . S
H345 C333 0.929 . S
H346 C334 0.960 . S
H347 C334 0.962 . S
H348 C334 0.960 . S
H349 C335 0.961 . S
H350 C335 0.961 . S
H351 C335 0.961 . S
H352 C336 0.931 . S
H353 C341 0.930 . S
H354 C342 0.956 . S
H355 C342 0.961 . S
H356 C342 0.961 . S
H357 C343 0.958 . S
H358 C343 0.961 . S
H359 C343 0.960 . S
C360 C361 1.391 . S
C360 C362 1.394 . S
C360 H376 0.931 . S
C361 C360 1.391 . S
C361 C365 1.376 . S
C362 C360 1.394 . S
C362 C363 1.369 . S
C362 C366 1.531 . S
C363 C362 1.369 . S
C363 C364 1.410 . S
C363 C371 1.503 1_565 S
C364 C363 1.410 . S
C364 C365 1.392 . S
C364 C367 1.511 . S
C365 C361 1.376 . S
C365 C364 1.392 . S
C365 H377 0.929 . S
C366 C362 1.531 . S
C366 H378 0.960 1_565 S
C366 H379 0.962 . S
C366 H380 0.960 . S
C367 C364 1.511 . S
C367 H381 0.961 . S
C367 H382 0.961 1_565 S
C367 H383 0.961 . S
C368 C369 1.370 . S
C368 C370 1.363 . S
C368 H384 0.931 . S
C369 C368 1.370 . S
C369 C373 1.408 . S
C370 C368 1.363 . S
C370 C371 1.370 . S
C370 C374 1.524 . S
C371 C363 1.503 1_545 S
C371 C370 1.370 . S
C371 C372 1.403 . S
C372 C371 1.403 . S
C372 C373 1.404 . S
C372 C375 1.539 . S
C373 C369 1.408 . S
C373 C372 1.404 . S
C373 H385 0.930 . S
C374 C370 1.524 . S
C374 H386 0.956 . S
C374 H387 0.961 1_545 S
C374 H388 0.961 . S
C375 C372 1.539 . S
C375 H389 0.958 . S
C375 H390 0.961 . S
C375 H391 0.980 . S
H376 C360 0.931 . S
H377 C365 0.929 . S
H378 C366 0.960 1_545 S
H379 C366 0.962 . S
H380 C366 0.960 . S
H381 C367 0.961 . S
H382 C367 0.961 1_545 S
H383 C367 0.961 . S
H384 C368 0.931 . S
H385 C373 0.930 . S
H386 C374 0.956 . S
H387 C374 0.961 1_565 S
H388 C374 0.961 . S
H389 C375 0.958 . S
H390 C375 0.961 . S
H391 C375 0.980 . S
C392 C393 1.391 . S
C392 C394 1.394 . S
C392 H408 0.931 . S
C393 C392 1.391 . S
C393 C397 1.376 . S
C394 C392 1.394 . S
C394 C395 1.369 . S
C394 C398 1.531 . S
C395 C394 1.369 . S
C395 C396 1.410 . S
C395 C403 1.503 1_655 S
C396 C395 1.410 . S
C396 C397 1.392 . S
C396 C399 1.511 . S
C397 C393 1.376 . S
C397 C396 1.392 . S
C397 H409 0.929 . S
C398 C394 1.531 . S
C398 H410 0.960 1_655 S
C398 H411 0.962 . S
C398 H412 0.960 . S
C399 C396 1.511 . S
C399 H413 0.961 . S
C399 H414 0.961 1_655 S
C399 H415 0.961 . S
C400 C401 1.370 . S
C400 C402 1.363 . S
C400 H416 0.931 . S
C401 C400 1.370 . S
C401 C405 1.408 . S
C402 C400 1.363 . S
C402 C403 1.370 . S
C402 C406 1.524 . S
C403 C395 1.503 1_455 S
C403 C402 1.370 . S
C403 C404 1.403 . S
C404 C403 1.403 . S
C404 C405 1.404 . S
C404 C407 1.539 . S
C405 C401 1.408 . S
C405 C404 1.404 . S
C405 H417 0.930 . S
C406 C402 1.524 . S
C406 H418 0.956 . S
C406 H419 0.961 1_455 S
C406 H420 0.961 . S
C407 C404 1.539 . S
C407 H421 0.958 . S
C407 H422 0.961 . S
C407 H423 0.978 . S
H408 C392 0.931 . S
H409 C397 0.929 . S
H410 C398 0.960 1_455 S
H411 C398 0.962 . S
H412 C398 0.960 . S
H413 C399 0.961 . S
H414 C399 0.961 1_455 S
H415 C399 0.961 . S
H416 C400 0.931 . S
H417 C405 0.930 . S
H418 C406 0.956 . S
H419 C406 0.961 1_655 S
H420 C406 0.961 . S
H421 C407 0.958 . S
H422 C407 0.961 . S
H423 C407 0.978 . S
C424 C425 1.391 . S
C424 C426 1.394 . S
C424 H440 0.931 . S
C425 C424 1.391 . S
C425 C429 1.376 . S
C426 C424 1.394 . S
C426 C427 1.369 . S
C426 C430 1.531 . S
C427 C426 1.369 . S
C427 C428 1.410 . S
C427 C435 1.503 1_565 S
C428 C427 1.410 . S
C428 C429 1.392 . S
C428 C431 1.511 . S
C429 C425 1.376 . S
C429 C428 1.392 . S
C429 H441 0.929 . S
C430 C426 1.531 . S
C430 H442 0.960 1_565 S
C430 H443 0.962 . S
C430 H444 0.960 . S
C431 C428 1.511 . S
C431 H445 0.961 . S
C431 H446 0.961 1_565 S
C431 H447 0.961 . S
C432 C433 1.370 . S
C432 C434 1.363 . S
C432 H448 0.931 . S
C433 C432 1.370 . S
C433 C437 1.408 . S
C434 C432 1.363 . S
C434 C435 1.370 . S
C434 C438 1.524 . S
C435 C427 1.503 1_545 S
C435 C434 1.370 . S
C435 C436 1.403 . S
C436 C435 1.403 . S
C436 C437 1.404 . S
C436 C439 1.539 . S
C437 C433 1.408 . S
C437 C436 1.404 . S
C437 H449 0.930 . S
C438 C434 1.524 . S
C438 H450 0.956 . S
C438 H451 0.961 1_545 S
C438 H452 0.961 . S
C439 C436 1.539 . S
C439 H453 0.958 . S
C439 H454 0.961 . S
C439 H455 0.957 . S
H440 C424 0.931 . S
H441 C429 0.929 . S
H442 C430 0.960 1_545 S
H443 C430 0.962 . S
H444 C430 0.960 . S
H445 C431 0.961 . S
H446 C431 0.961 1_545 S
H447 C431 0.961 . S
H448 C432 0.931 . S
H449 C437 0.930 . S
H450 C438 0.956 . S
H451 C438 0.961 1_565 S
H452 C438 0.961 . S
H453 C439 0.958 . S
H454 C439 0.961 . S
H455 C439 0.957 . S
C456 C457 1.391 . S
C456 C458 1.394 . S
C456 H472 0.931 . S
C457 C456 1.391 . S
C457 C461 1.376 1_554 S
C458 C456 1.394 . S
C458 C459 1.369 . S
C458 C462 1.531 . S
C459 C458 1.369 . S
C459 C460 1.410 1_554 S
C459 C467 1.503 1_655 S
C460 C459 1.410 1_556 S
C460 C461 1.392 . S
C460 C463 1.511 . S
C461 C457 1.376 1_556 S
C461 C460 1.392 . S
C461 H473 0.929 . S
C462 C458 1.531 . S
C462 H474 0.960 1_655 S
C462 H475 0.962 . S
C462 H476 0.960 . S
C463 C460 1.511 . S
C463 H477 0.961 . S
C463 H478 0.961 1_655 S
C463 H479 0.961 . S
C464 C465 1.370 . S
C464 C466 1.363 . S
C464 H480 0.931 . S
C465 C464 1.370 . S
C465 C469 1.408 . S
C466 C464 1.363 . S
C466 C467 1.370 . S
C466 C470 1.524 . S
C467 C459 1.503 1_455 S
C467 C466 1.370 . S
C467 C468 1.403 . S
C468 C467 1.403 . S
C468 C469 1.404 . S
C468 C471 1.539 . S
C469 C465 1.408 . S
C469 C468 1.404 . S
C469 H481 0.930 . S
C470 C466 1.524 . S
C470 H482 0.956 . S
C470 H483 0.961 1_454 S
C470 H484 0.959 1_554 S
C471 C468 1.539 . S
C471 H485 0.958 . S
C471 H486 0.961 . S
C471 H487 0.973 . S
H472 C456 0.931 . S
H473 C461 0.929 . S
H474 C462 0.960 1_455 S
H475 C462 0.962 . S
H476 C462 0.960 . S
H477 C463 0.961 . S
H478 C463 0.961 1_455 S
H479 C463 0.961 . S
H480 C464 0.931 . S
H481 C469 0.930 . S
H482 C470 0.956 . S
H483 C470 0.961 1_656 S
H484 C470 0.959 1_556 S
H485 C471 0.958 . S
H486 C471 0.961 . S
H487 C471 0.973 . S
C488 C489 1.391 . S
C488 C490 1.394 . S
C488 H504 0.931 . S
C489 C488 1.391 . S
C489 C493 1.376 . S
C490 C488 1.394 . S
C490 C491 1.369 1_556 S
C490 C494 1.531 1_556 S
C491 C490 1.369 1_554 S
C491 C492 1.410 1_554 S
C491 C499 1.503 . S
C492 C491 1.410 1_556 S
C492 C493 1.392 . S
C492 C495 1.511 . S
C493 C489 1.376 . S
C493 C492 1.392 . S
C493 H505 0.929 . S
C494 C490 1.531 1_554 S
C494 H506 0.960 . S
C494 H507 0.962 1_554 S
C494 H508 0.960 . S
C495 C492 1.511 . S
C495 H509 0.961 . S
C495 H510 0.961 1_556 S
C495 H511 0.961 1_556 S
C496 C497 1.370 . S
C496 C498 1.363 . S
C496 H512 0.931 . S
C497 C496 1.370 . S
C497 C501 1.408 . S
C498 C496 1.363 . S
C498 C499 1.370 . S
C498 C502 1.524 1_554 S
C499 C491 1.503 . S
C499 C498 1.370 . S
C499 C500 1.403 . S
C500 C499 1.403 . S
C500 C501 1.404 . S
C500 C503 1.539 . S
C501 C497 1.408 . S
C501 C500 1.404 . S
C501 H513 0.930 . S
C502 C498 1.524 1_556 S
C502 H514 0.956 . S
C502 H515 0.961 . S
C502 H516 0.961 . S
C503 C500 1.539 . S
C503 H517 0.958 . S
C503 H518 0.961 . S
C503 H519 0.960 . S
H504 C488 0.931 . S
H505 C493 0.929 . S
H506 C494 0.960 . S
H507 C494 0.962 1_556 S
H508 C494 0.960 . S
H509 C495 0.961 . S
H510 C495 0.961 1_554 S
H511 C495 0.961 1_554 S
H512 C496 0.931 . S
H513 C501 0.930 . S
H514 C502 0.956 . S
H515 C502 0.961 . S
H516 C502 0.961 . S
H517 C503 0.958 . S
H518 C503 0.961 . S
H519 C503 0.960 . S
C520 C521 1.391 . S
C520 C522 1.394 . S
C520 H536 0.931 . S
C521 C520 1.391 . S
C521 C525 1.376 . S
C522 C520 1.394 . S
C522 C523 1.369 . S
C522 C526 1.531 . S
C523 C522 1.369 . S
C523 C524 1.410 . S
C523 C531 1.503 . S
C524 C523 1.410 . S
C524 C525 1.392 . S
C524 C527 1.511 . S
C525 C521 1.376 . S
C525 C524 1.392 . S
C525 H537 0.929 . S
C526 C522 1.531 . S
C526 H538 0.960 . S
C526 H539 0.962 . S
C526 H540 0.960 . S
C527 C524 1.511 . S
C527 H541 0.961 . S
C527 H542 0.961 . S
C527 H543 0.961 . S
C528 C529 1.370 . S
C528 C530 1.363 . S
C528 H544 0.931 . S
C529 C528 1.370 . S
C529 C533 1.408 . S
C530 C528 1.363 . S
C530 C531 1.370 . S
C530 C534 1.524 . S
C531 C523 1.503 . S
C531 C530 1.370 . S
C531 C532 1.403 . S
C532 C531 1.403 . S
C532 C533 1.404 . S
C532 C535 1.539 . S
C533 C529 1.408 . S
C533 C532 1.404 . S
C533 H545 0.930 . S
C534 C530 1.524 . S
C534 H546 0.956 . S
C534 H547 0.961 . S
C534 H548 0.961 . S
C535 C532 1.539 . S
C535 H549 0.958 . S
C535 H550 0.961 . S
C535 H551 0.960 . S
H536 C520 0.931 . S
H537 C525 0.929 . S
H538 C526 0.960 . S
H539 C526 0.962 . S
H540 C526 0.960 . S
H541 C527 0.961 . S
H542 C527 0.961 . S
H543 C527 0.961 . S
H544 C528 0.931 . S
H545 C533 0.930 . S
H546 C534 0.956 . S
H547 C534 0.961 . S
H548 C534 0.961 . S
H549 C535 0.958 . S
H550 C535 0.961 . S
H551 C535 0.960 . S
C552 C553 1.391 . S
C552 C554 1.394 . S
C552 H568 0.931 . S
C553 C552 1.391 . S
C553 C557 1.376 . S
C554 C552 1.394 . S
C554 C555 1.369 . S
C554 C558 1.531 . S
C555 C554 1.369 . S
C555 C556 1.410 . S
C555 C563 1.503 . S
C556 C555 1.410 . S
C556 C557 1.392 . S
C556 C559 1.511 . S
C557 C553 1.376 . S
C557 C556 1.392 . S
C557 H569 0.929 . S
C558 C554 1.531 . S
C558 H570 0.960 . S
C558 H571 0.962 . S
C558 H572 0.960 . S
C559 C556 1.511 . S
C559 H573 0.961 . S
C559 H574 0.961 . S
C559 H575 0.961 . S
C560 C561 1.370 . S
C560 C562 1.363 . S
C560 H576 0.931 . S
C561 C560 1.370 . S
C561 C565 1.408 . S
C562 C560 1.363 . S
C562 C563 1.370 . S
C562 C566 1.524 . S
C563 C555 1.503 . S
C563 C562 1.370 . S
C563 C564 1.403 . S
C564 C563 1.403 . S
C564 C565 1.404 . S
C564 C567 1.539 . S
C565 C561 1.408 . S
C565 C564 1.404 . S
C565 H577 0.930 . S
C566 C562 1.524 . S
C566 H578 0.956 . S
C566 H579 0.961 . S
C566 H580 0.961 . S
C567 C564 1.539 . S
C567 H581 0.958 . S
C567 H582 0.961 . S
C567 H583 0.960 . S
H568 C552 0.931 . S
H569 C557 0.929 . S
H570 C558 0.960 . S
H571 C558 0.962 . S
H572 C558 0.960 . S
H573 C559 0.961 . S
H574 C559 0.961 . S
H575 C559 0.961 . S
H576 C560 0.931 . S
H577 C565 0.930 . S
H578 C566 0.956 . S
H579 C566 0.961 . S
H580 C566 0.961 . S
H581 C567 0.958 . S
H582 C567 0.961 . S
H583 C567 0.960 . S
C584 C585 1.391 . S
C584 C586 1.394 . S
C584 H600 0.931 . S
C585 C584 1.391 . S
C585 C589 1.376 . S
C586 C584 1.394 . S
C586 C587 1.369 . S
C586 C590 1.531 . S
C587 C586 1.369 . S
C587 C588 1.410 . S
C587 C595 1.503 . S
C588 C587 1.410 . S
C588 C589 1.392 . S
C588 C591 1.511 . S
C589 C585 1.376 . S
C589 C588 1.392 . S
C589 H601 0.929 . S
C590 C586 1.531 . S
C590 H602 0.960 . S
C590 H603 0.962 . S
C590 H604 0.960 . S
C591 C588 1.511 . S
C591 H605 0.961 . S
C591 H606 0.961 . S
C591 H607 0.961 . S
C592 C593 1.370 . S
C592 C594 1.363 . S
C592 H608 0.931 . S
C593 C592 1.370 . S
C593 C597 1.408 . S
C594 C592 1.363 . S
C594 C595 1.370 . S
C594 C598 1.524 . S
C595 C587 1.503 . S
C595 C594 1.370 . S
C595 C596 1.403 . S
C596 C595 1.403 . S
C596 C597 1.404 . S
C596 C599 1.539 . S
C597 C593 1.408 . S
C597 C596 1.404 . S
C597 H609 0.930 . S
C598 C594 1.524 . S
C598 H610 0.956 . S
C598 H611 0.961 . S
C598 H612 0.961 . S
C599 C596 1.539 . S
C599 H613 0.958 . S
C599 H614 0.961 . S
C599 H615 0.960 . S
H600 C584 0.931 . S
H601 C589 0.929 . S
H602 C590 0.960 . S
H603 C590 0.962 . S
H604 C590 0.960 . S
H605 C591 0.961 . S
H606 C591 0.961 . S
H607 C591 0.961 . S
H608 C592 0.931 . S
H609 C597 0.930 . S
H610 C598 0.956 . S
H611 C598 0.961 . S
H612 C598 0.961 . S
H613 C599 0.958 . S
H614 C599 0.961 . S
H615 C599 0.960 . S
C105 C8 1.046 . S
C113 C86 1.027 . S
C137 C21 1.027 . S
C145 C99 1.020 . S
C169 C60 1.027 . S
C177 C34 1.018 . S
C201 C73 1.031 . S
C209 C47 1.021 . S
C233 C0 1.311 . S
C241 C65 1.308 . S
C265 C13 1.313 . S
C273 C78 1.310 . S
C297 C91 1.315 . S
C305 C26 1.311 . S
C329 C39 1.289 . S
C337 C52 1.300 . S
C361 C57 1.363 . S
C369 C5 1.345 . S
C393 C18 1.364 . S
C401 C70 1.345 . S
C425 C31 1.306 . S
C433 C83 1.328 . S
C457 C96 1.296 . S
C465 C44 1.319 . S
C489 C88 1.520 . S
C497 C10 1.489 . S
C521 C101 1.468 . S
C529 C23 1.502 . S
C553 C36 1.493 . S
C561 C62 1.490 . S
C585 C49 1.475 . S
C593 C75 1.498 . S
