# Generated by pormake.
# Topology lcy-e, (6)-cn, num edge types: 1
# Building blocks:
#     Node 0, Type 0, BuildingBlock: LEVNOQ01_clean_sbu_1, # of connection points: 6
#     Node 1, Type 0, BuildingBlock: LEVNOQ01_clean_sbu_1, # of connection points: 6
#     Node 2, Type 0, BuildingBlock: LEVNOQ01_clean_sbu_1, # of connection points: 6
#     Node 3, Type 0, BuildingBlock: LEVNOQ01_clean_sbu_1, # of connection points: 6
#     Node 4, Type 0, BuildingBlock: LEVNOQ01_clean_sbu_1, # of connection points: 6
#     Node 5, Type 0, BuildingBlock: LEVNOQ01_clean_sbu_1, # of connection points: 6
#     Node 6, Type 0, BuildingBlock: LEVNOQ01_clean_sbu_1, # of connection points: 6
#     Node 7, Type 0, BuildingBlock: LEVNOQ01_clean_sbu_1, # of connection points: 6
#     Node 8, Type 0, BuildingBlock: LEVNOQ01_clean_sbu_1, # of connection points: 6
#     Node 9, Type 0, BuildingBlock: LEVNOQ01_clean_sbu_1, # of connection points: 6
#     Node 10, Type 0, BuildingBlock: LEVNOQ01_clean_sbu_1, # of connection points: 6
#     Node 11, Type 0, BuildingBlock: LEVNOQ01_clean_sbu_1, # of connection points: 6
#     Edge 12, Type (0, 0), BuildingBlock: XUDNAN_clean_linker_2, # of connection points: 2
#     Edge 13, Type (0, 0), BuildingBlock: XUDNAN_clean_linker_2, # of connection points: 2
#     Edge 14, Type (0, 0), BuildingBlock: XUDNAN_clean_linker_2, # of connection points: 2
#     Edge 15, Type (0, 0), BuildingBlock: XUDNAN_clean_linker_2, # of connection points: 2
#     Edge 16, Type (0, 0), BuildingBlock: XUDNAN_clean_linker_2, # of connection points: 2
#     Edge 17, Type (0, 0), BuildingBlock: XUDNAN_clean_linker_2, # of connection points: 2
#     Edge 18, Type (0, 0), BuildingBlock: XUDNAN_clean_linker_2, # of connection points: 2
#     Edge 19, Type (0, 0), BuildingBlock: XUDNAN_clean_linker_2, # of connection points: 2
#     Edge 20, Type (0, 0), BuildingBlock: XUDNAN_clean_linker_2, # of connection points: 2
#     Edge 21, Type (0, 0), BuildingBlock: XUDNAN_clean_linker_2, # of connection points: 2
#     Edge 22, Type (0, 0), BuildingBlock: XUDNAN_clean_linker_2, # of connection points: 2
#     Edge 23, Type (0, 0), BuildingBlock: XUDNAN_clean_linker_2, # of connection points: 2
#     Edge 24, Type (0, 0), BuildingBlock: XUDNAN_clean_linker_2, # of connection points: 2
#     Edge 25, Type (0, 0), BuildingBlock: XUDNAN_clean_linker_2, # of connection points: 2
#     Edge 26, Type (0, 0), BuildingBlock: XUDNAN_clean_linker_2, # of connection points: 2
#     Edge 27, Type (0, 0), BuildingBlock: XUDNAN_clean_linker_2, # of connection points: 2
#     Edge 28, Type (0, 0), BuildingBlock: XUDNAN_clean_linker_2, # of connection points: 2
#     Edge 29, Type (0, 0), BuildingBlock: XUDNAN_clean_linker_2, # of connection points: 2
#     Edge 30, Type (0, 0), BuildingBlock: XUDNAN_clean_linker_2, # of connection points: 2
#     Edge 31, Type (0, 0), BuildingBlock: XUDNAN_clean_linker_2, # of connection points: 2
#     Edge 32, Type (0, 0), BuildingBlock: XUDNAN_clean_linker_2, # of connection points: 2
#     Edge 33, Type (0, 0), BuildingBlock: XUDNAN_clean_linker_2, # of connection points: 2
#     Edge 34, Type (0, 0), BuildingBlock: XUDNAN_clean_linker_2, # of connection points: 2
#     Edge 35, Type (0, 0), BuildingBlock: XUDNAN_clean_linker_2, # of connection points: 2
#     Edge 36, Type (0, 0), BuildingBlock: XUDNAN_clean_linker_2, # of connection points: 2
#     Edge 37, Type (0, 0), BuildingBlock: XUDNAN_clean_linker_2, # of connection points: 2
#     Edge 38, Type (0, 0), BuildingBlock: XUDNAN_clean_linker_2, # of connection points: 2
#     Edge 39, Type (0, 0), BuildingBlock: XUDNAN_clean_linker_2, # of connection points: 2
#     Edge 40, Type (0, 0), BuildingBlock: XUDNAN_clean_linker_2, # of connection points: 2
#     Edge 41, Type (0, 0), BuildingBlock: XUDNAN_clean_linker_2, # of connection points: 2
#     Edge 42, Type (0, 0), BuildingBlock: XUDNAN_clean_linker_2, # of connection points: 2
#     Edge 43, Type (0, 0), BuildingBlock: XUDNAN_clean_linker_2, # of connection points: 2
#     Edge 44, Type (0, 0), BuildingBlock: XUDNAN_clean_linker_2, # of connection points: 2
#     Edge 45, Type (0, 0), BuildingBlock: XUDNAN_clean_linker_2, # of connection points: 2
#     Edge 46, Type (0, 0), BuildingBlock: XUDNAN_clean_linker_2, # of connection points: 2
#     Edge 47, Type (0, 0), BuildingBlock: XUDNAN_clean_linker_2, # of connection points: 2
# Relax obj value: 0.258
# Max RMSD: 0.279
# Mean RMSD: 0.271
data_MOF--net-lcy-e--node1-LEVNOQ01_clean_sbu_1--edge1-XUDNAN_clean_linker_2
_symmetry_space_group_name_H-M    P1
_symmetry_Int_Tables_number       1
_symmetry_cell_setting            triclinic
loop_
_symmetry_equiv_pos_as_xyz
'x, y, z'
_cell_length_a     36.281102
_cell_length_b     36.410593
_cell_length_c     36.182356
_cell_angle_alpha  89.165275
_cell_angle_beta   91.041001
_cell_angle_gamma 90.977948
loop_
_atom_site_label
_atom_site_type_symbol
_atom_site_fract_x
_atom_site_fract_y
_atom_site_fract_z
_atom_type_partial_charge
O0 O 0.08572 0.25323 0.38481 0.0
Mg1 Mg 0.10626 0.19943 0.38876 0.0
O2 O 0.14001 0.25009 0.4105 0.0
Mg3 Mg 0.13222 0.1994 0.45218 0.0
O4 O 0.08366 0.16232 0.42511 0.0
O5 O 0.07654 0.16132 0.36283 0.0
O6 O 0.1278 0.15394 0.4973 0.0
O7 O 0.09034 0.23266 0.48463 0.0
Mg8 Mg 0.1733 0.22107 0.53364 0.0
O9 O 0.17963 0.22737 0.47945 0.0
O10 O 0.16529 0.16426 0.54563 0.0
O11 O 0.1219 0.24825 0.53633 0.0
O12 O 0.22116 0.25127 0.51648 0.0
C13 C 0.18493 0.17677 0.39153 0.0
C14 C 0.11738 0.26746 0.38973 0.0
C15 C 0.07086 0.14689 0.39504 0.0
C16 C 0.14149 0.14439 0.52866 0.0
C17 C 0.09308 0.24911 0.51557 0.0
C18 C 0.20749 0.24914 0.48349 0.0
O19 O 0.16194 0.19385 0.37149 0.0
O20 O 0.17643 0.16701 0.42399 0.0
O21 O 0.14321 0.86283 0.72046 0.0
Mg22 Mg 0.12836 0.86255 0.66291 0.0
O23 O 0.0872 0.86279 0.74536 0.0
Mg24 Mg 0.04543 0.8584 0.69669 0.0
O25 O 0.08175 0.89277 0.65981 0.0
O26 O 0.13133 0.90972 0.62912 0.0
O27 O 0.00636 0.8564 0.64645 0.0
O28 O 0.01409 0.91062 0.71418 0.0
Mg29 Mg 0.9624 0.8287 0.70638 0.0
O30 O 0.01082 0.82293 0.73325 0.0
O31 O 0.96791 0.80939 0.6521 0.0
O32 O 0.9566 0.88723 0.70907 0.0
O33 O 0.96144 0.79378 0.75337 0.0
C34 C 0.09121 0.79025 0.65458 0.0
C35 C 0.12233 0.86316 0.74836 0.0
C36 C 0.09788 0.91604 0.63819 0.0
C37 C 0.9824 0.83461 0.63247 0.0
C38 C 0.97894 0.91445 0.71314 0.0
C39 C -0.00412 0.80205 0.75778 0.0
O40 O 0.11561 0.81077 0.63989 0.0
O41 O 0.06874 0.8028 0.67771 0.0
O42 O 0.34737 0.84682 0.03364 0.0
Mg43 Mg 0.36289 0.84953 0.97774 0.0
O44 O 0.39606 0.81554 0.02362 0.0
Mg45 Mg 0.37638 0.7851 0.96813 0.0
O46 O 0.32676 0.82281 0.94287 0.0
O47 O 0.32708 0.88344 0.95427 0.0
O48 O 0.36209 0.74872 0.9158 0.0
O49 O 0.33288 0.75136 -0.00033 0.0
Mg50 Mg 0.40725 0.70162 0.9671 0.0
O51 O 0.42172 0.7494 0.99 0.0
O52 O 0.40889 0.71128 0.90951 0.0
O53 O 0.35188 0.69463 0.98727 0.0
O54 O 0.45575 0.70107 0.00062 0.0
C55 C 0.43255 0.84642 0.93785 0.0
C56 C 0.3767 0.8333 0.04592 0.0
C57 C 0.31225 0.85528 0.93844 0.0
C58 C 0.38 0.72606 0.8965 0.0
C59 C 0.3279 0.71655 -0.00056 0.0
C60 C 0.44964 0.73513 0.00677 0.0
O61 O 0.41659 0.86814 0.95913 0.0
O62 O 0.41987 0.81417 0.93374 0.0
O63 O 0.37227 0.12 0.23072 0.0
Mg64 Mg 0.38513 0.10516 0.17537 0.0
O65 O 0.42819 0.11992 0.25753 0.0
Mg66 Mg 0.4642 0.11878 0.20721 0.0
O67 O 0.42948 0.07237 0.18116 0.0
O68 O 0.3765 0.05265 0.1561 0.0
O69 O 0.49873 0.11694 0.15408 0.0
O70 O 0.49968 0.07253 0.23185 0.0
Mg71 Mg 0.54559 0.15286 0.20917 0.0
O72 O 0.49898 0.16187 0.23761 0.0
O73 O 0.53893 0.16277 0.15139 0.0
O74 O 0.55618 0.09612 0.2226 0.0
O75 O 0.54935 0.19491 0.24861 0.0
C76 C 0.40907 0.17548 0.15536 0.0
C77 C 0.39338 0.12282 0.25912 0.0
C78 C 0.40996 0.04614 0.16649 0.0
C79 C 0.5217 0.13649 0.1359 0.0
C80 C 0.53466 0.06947 0.23163 0.0
C81 C 0.51593 0.18651 0.25722 0.0
O82 O 0.39408 0.14927 0.13782 0.0
O83 O 0.43078 0.16845 0.18264 0.0
O84 O 0.63461 0.34262 0.45755 0.0
Mg85 Mg 0.64227 0.36263 0.51193 0.0
O86 O 0.59018 0.30608 0.47804 0.0
Mg87 Mg 0.61036 0.2794 0.53349 0.0
O88 O 0.65847 0.31795 0.54064 0.0
O89 O 0.69381 0.36701 0.54041 0.0
O90 O 0.63334 0.2547 0.58765 0.0
O91 O 0.64411 0.23594 0.50402 0.0
Mg92 Mg 0.57716 0.20129 0.56396 0.0
O93 O 0.56097 0.24014 0.52734 0.0
O94 O 0.59152 0.22242 0.61735 0.0
O95 O 0.62445 0.18513 0.53449 0.0
O96 O 0.5251 0.192 0.53725 0.0
C97 C 0.57175 0.35644 0.56131 0.0
C98 C 0.60368 0.32657 0.45253 0.0
C99 C 0.68694 0.33483 0.5541 0.0
C100 C 0.6232 0.23773 0.61667 0.0
C101 C 0.64556 0.20146 0.51142 0.0
C102 C 0.53232 0.22083 0.5174 0.0
O103 O 0.59244 0.37682 0.54104 0.0
O104 O 0.57561 0.32158 0.56372 0.0
O105 O 0.00275 0.35226 0.87738 0.0
Mg106 Mg 0.94571 0.34413 0.88201 0.0
O107 O 0.00154 0.37289 0.81916 0.0
Mg108 Mg 0.94369 0.35977 0.79245 0.0
O109 O 0.92995 0.31646 0.83551 0.0
O110 O 0.92518 0.29135 0.89135 0.0
O111 O 0.88451 0.3437 0.76579 0.0
O112 O 0.97335 0.31836 0.75811 0.0
Mg113 Mg 0.92435 0.37848 0.71767 0.0
O114 O 0.95903 0.40753 0.75237 0.0
O115 O 0.87005 0.39098 0.73044 0.0
O116 O 0.93355 0.32047 0.71215 0.0
O117 O 0.96416 0.41005 0.69124 0.0
C118 C 0.90549 0.41243 0.85732 0.0
C119 C 0.01883 0.3658 0.84938 0.0
C120 C 0.92001 0.28903 0.8561 0.0
C121 C 0.86033 0.36161 0.74698 0.0
C122 C 0.96189 0.30648 0.72714 0.0
C123 C 0.97742 0.41794 0.72354 0.0
O124 O 0.91284 0.39246 0.88553 0.0
O125 O 0.91547 0.40335 0.82529 0.0
O126 O 0.84762 0.70552 0.10998 0.0
Mg127 Mg 0.85908 0.65678 0.0802 0.0
O128 O 0.86224 0.74193 0.06263 0.0
Mg129 Mg 0.858 0.70018 0.01783 0.0
O130 O 0.90381 0.66422 0.04711 0.0
O131 O 0.90384 0.63035 0.09958 0.0
O132 O 0.85249 0.65768 0.97146 0.0
O133 O 0.91022 0.72541 0.99057 0.0
Mg134 Mg 0.84097 0.74094 0.93852 0.0
O135 O 0.81813 0.73875 0.98921 0.0
O136 O 0.83962 0.68648 0.91815 0.0
O137 O 0.8945 0.76492 0.94606 0.0
O138 O 0.79325 0.77157 0.9438 0.0
C139 C 0.79161 0.64653 0.05681 0.0
C140 C 0.85373 0.73726 0.09622 0.0
C141 C 0.92102 0.6437 0.07136 0.0
C142 C 0.84566 0.65719 0.93669 0.0
C143 C 0.91876 0.75042 0.96711 0.0
C144 C 0.79315 0.76131 0.97803 0.0
O145 O 0.81489 0.62189 0.06338 0.0
O146 O 0.80329 0.67745 0.04443 0.0
O147 O 0.47216 0.65855 0.3538 0.0
Mg148 Mg 0.52269 0.63052 0.35741 0.0
O149 O 0.47109 0.60853 0.32287 0.0
Mg150 Mg 0.52822 0.61299 0.29008 0.0
O151 O 0.56209 0.65667 0.32744 0.0
O152 O 0.55816 0.65757 0.38966 0.0
O153 O 0.58195 0.61239 0.25545 0.0
O154 O 0.511 0.66161 0.25215 0.0
Mg155 Mg 0.52464 0.57677 0.20634 0.0
O156 O 0.49848 0.57393 0.25411 0.0
O157 O 0.57991 0.56327 0.22022 0.0
O158 O 0.52115 0.63529 0.19741 0.0
O159 O 0.4784 0.5394 0.20915 0.0
C160 C 0.53601 0.55057 0.35109 0.0
C161 C 0.45535 0.62919 0.34571 0.0
C162 C 0.57213 0.67027 0.35942 0.0
C163 C 0.59765 0.59059 0.23344 0.0
C164 C 0.51538 0.66348 0.21706 0.0
C165 C 0.47432 0.55084 0.24224 0.0
O166 O 0.52117 0.57331 0.37182 0.0
O167 O 0.5485 0.56139 0.32033 0.0
O168 O 0.10654 0.50656 0.13362 0.0
Mg169 Mg 0.10363 0.44847 0.13345 0.0
O170 O 0.16454 0.51337 0.11479 0.0
Mg171 Mg 0.1956 0.45762 0.12122 0.0
O172 O 0.15239 0.43474 0.1571 0.0
O173 O 0.10126 0.41677 0.18339 0.0
O174 O 0.22676 0.40163 0.12717 0.0
O175 O 0.22931 0.47749 0.17157 0.0
Mg176 Mg 0.28313 0.45517 0.09391 0.0
O177 O 0.23668 0.4813 0.085 0.0
O178 O 0.26651 0.40047 0.08147 0.0
O179 O 0.28655 0.46483 0.15307 0.0
O180 O 0.28424 0.5003 0.05435 0.0
C181 C 0.13433 0.42563 0.05837 0.0
C182 C 0.13314 0.52663 0.12216 0.0
C183 C 0.13673 0.41741 0.18359 0.0
C184 C 0.24936 0.38415 0.10737 0.0
C185 C 0.26393 0.47421 0.17792 0.0
C186 C 0.25051 0.50512 0.06305 0.0
O187 O 0.10575 0.42666 0.0783 0.0
O188 O 0.16597 0.43604 0.07005 0.0
O189 O 0.61384 -0.00774 0.80752 0.0
Mg190 Mg 0.62169 0.04817 0.82036 0.0
O191 O 0.66114 0.97068 0.84078 0.0
Mg192 Mg 0.69766 0.02095 0.85971 0.0
O193 O 0.67654 0.05964 0.81471 0.0
O194 O 0.63402 0.08693 0.77982 0.0
O195 O 0.73019 0.07231 0.87719 0.0
O196 O 0.7458 0.0088 0.81705 0.0
Mg197 Mg 0.76133 -0.00521 0.88373 0.0
O198 O 0.71451 0.98293 0.91184 0.0
O199 O 0.78491 0.04793 0.88112 0.0
O200 O 0.77168 0.95995 0.83967 0.0
O201 O 0.77213 0.97251 0.93322 0.0
C202 C 0.62179 0.05253 0.90269 0.0
C203 C 0.63163 0.96551 0.82144 0.0
C204 C 0.66829 0.08291 0.78873 0.0
C205 C 0.76497 0.07595 0.87945 0.0
C206 C 0.76943 0.98349 0.8139 0.0
C207 C 0.73691 0.96924 0.93691 0.0
O208 O 0.60406 0.06349 0.87414 0.0
O209 O 0.65277 0.03698 0.89993 0.0
O210 O 0.75314 0.85702 0.33334 0.0
Mg211 Mg 0.80917 0.86112 0.35165 0.0
O212 O 0.73732 0.91142 0.35392 0.0
Mg213 Mg 0.79397 0.94022 0.35876 0.0
O214 O 0.81514 0.89407 0.3962 0.0
O215 O 0.8247 0.83366 0.39888 0.0
O216 O 0.85179 0.96693 0.36521 0.0
O217 O 0.77453 0.97058 0.4096 0.0
Mg218 Mg 0.80034 0.03065 0.33743 0.0
O219 O 0.7733 0.98479 0.32441 0.0
O220 O 0.85639 0.01745 0.33007 0.0
O221 O 0.78556 0.0299 0.39479 0.0
O222 O 0.75703 0.03467 0.29555 0.0
C223 C 0.83842 0.89825 0.29239 0.0
C224 C 0.72864 0.88014 0.34076 0.0
C225 C 0.82604 0.86534 0.41446 0.0
C226 C 0.87093 -0.00764 0.34995 0.0
C227 C 0.77504 0.00474 0.4175 0.0
C228 C 0.75054 0.00046 0.30248 0.0
O229 O 0.85102 0.87413 0.31428 0.0
O230 O 0.8123 0.91821 0.30272 0.0
O231 O 0.23406 0.61008 0.58527 0.0
Mg232 Mg 0.29198 0.60874 0.59141 0.0
O233 O 0.22132 0.55491 0.60966 0.0
Mg234 Mg 0.2762 0.52281 0.61774 0.0
O235 O 0.30575 0.558 0.57562 0.0
O236 O 0.32564 0.60739 0.54541 0.0
O237 O 0.33225 0.49088 0.62636 0.0
O238 O 0.26045 0.48634 0.56772 0.0
Mg239 Mg 0.26455 0.43813 0.64494 0.0
O240 O 0.24323 0.48716 0.65848 0.0
O241 O 0.32148 0.43861 0.65701 0.0
O242 O 0.24946 0.42932 0.58822 0.0
O243 O 0.22629 0.43559 0.68708 0.0
C244 C 0.30806 0.59255 0.67278 0.0
C245 C 0.21099 0.58585 0.59631 0.0
C246 C 0.32434 0.57212 0.54882 0.0
C247 C 0.34381 0.46182 0.64294 0.0
C248 C 0.25119 0.45296 0.56202 0.0
C249 C 0.22229 0.47043 0.68217 0.0
O250 O 0.31303 0.6151 0.64611 0.0
O251 O 0.29381 0.56053 0.66756 0.0
H252 H 0.1595 0.29993 0.46469 0.0
H253 H 0.27235 0.26932 0.45057 0.0
H254 H 0.2903 0.33425 0.44212 0.0
H255 H 0.16354 0.40289 0.42261 0.0
H256 H 0.13759 0.41702 0.46165 0.0
H257 H 0.1279 0.3731 0.44095 0.0
H258 H 0.13848 0.34045 0.50427 0.0
H259 H 0.14569 0.38424 0.52453 0.0
H260 H 0.18028 0.34936 0.53024 0.0
H261 H 0.30151 0.39608 0.46335 0.0
H262 H 0.30554 0.44067 0.51387 0.0
H263 H 0.18789 0.43226 0.52763 0.0
C264 C 0.18736 0.30725 0.45687 0.0
C265 C 0.21444 0.28006 0.45781 0.0
C266 C 0.25106 0.28983 0.44918 0.0
C267 C 0.26141 0.32692 0.44461 0.0
C268 C 0.2351 0.35389 0.45028 0.0
C269 C 0.19835 0.34435 0.45596 0.0
C270 C 0.1784 0.37508 0.47482 0.0
C271 C 0.15023 0.39306 0.44838 0.0
C272 C 0.15975 0.36152 0.51065 0.0
C273 C 0.21027 0.40111 0.4831 0.0
C274 C 0.24219 0.38987 0.46636 0.0
C275 C 0.27649 0.40567 0.47555 0.0
C276 C 0.27863 0.43102 0.50436 0.0
C277 C 0.24681 0.43971 0.52405 0.0
C278 C 0.21218 0.42643 0.51194 0.0
H279 H 0.78833 0.97882 0.74018 0.0
H280 H 0.83049 0.00764 0.84869 0.0
H281 H 0.89251 0.01612 0.82432 0.0
H282 H 0.85128 0.92228 0.71881 0.0
H283 H 0.85718 0.93409 0.67063 0.0
H284 H 0.81495 0.94445 0.69258 0.0
H285 H 0.82345 0.01271 0.6727 0.0
H286 H 0.86655 0.00228 0.65139 0.0
H287 H 0.86497 0.03746 0.6858 0.0
H288 H 0.95032 0.0032 0.79559 0.0
H289 H -0.00397 0.96316 0.76785 0.0
H290 H 0.92097 0.94278 0.67605 0.0
C291 C 0.81052 0.98855 0.75808 0.0
C292 C 0.80457 -0.00661 0.79605 0.0
C293 C 0.83427 0.00477 0.8193 0.0
C294 C 0.86973 0.00988 0.8056 0.0
C295 C 0.87546 0.00347 0.76837 0.0
C296 C 0.84658 -0.00662 0.74467 0.0
C297 C 0.86133 0.98108 0.708 0.0
C298 C 0.84527 0.94322 0.69695 0.0
C299 C 0.85362 0.01011 0.67769 0.0
C300 C 0.90236 0.97986 0.71725 0.0
C301 C 0.91022 -0.00456 0.75119 0.0
C302 C 0.94485 -0.00806 0.76849 0.0
C303 C 0.97091 0.96926 0.75249 0.0
C304 C 0.96174 0.95004 0.71998 0.0
C305 C 0.92847 0.95784 0.70073 0.0
H306 H 0.28625 0.67314 0.95701 0.0
H307 H 0.29114 0.72238 0.06469 0.0
H308 H 0.24319 0.67863 0.08635 0.0
H309 H 0.18152 0.63059 0.96765 0.0
H310 H 0.19619 0.59137 0.94228 0.0
H311 H 0.21225 0.63688 0.92942 0.0
H312 H 0.27941 0.61499 0.93495 0.0
H313 H 0.26378 0.57014 0.94797 0.0
H314 H 0.29565 0.59468 0.97796 0.0
H315 H 0.21913 0.61877 0.103 0.0
H316 H 0.2267 0.55258 0.11331 0.0
H317 H 0.23896 0.53711 -0.00375 0.0
C318 C 0.27541 0.67567 0.98448 0.0
C319 C 0.29205 0.70047 0.00937 0.0
C320 C 0.27825 0.70356 0.04526 0.0
C321 C 0.25082 0.67887 0.05758 0.0
C322 C 0.23752 0.6517 0.03348 0.0
C323 C 0.24866 0.65073 -0.00298 0.0
C324 C 0.23865 0.61429 0.97943 0.0
C325 C 0.20515 0.61855 0.95317 0.0
C326 C 0.27136 0.59758 0.95903 0.0
C327 C 0.22805 0.5924 0.01357 0.0
C328 C 0.22402 0.6152 0.04367 0.0
C329 C 0.22085 0.60089 0.07949 0.0
C330 C 0.22512 0.56313 0.08517 0.0
C331 C 0.23268 0.5402 0.05526 0.0
C332 C 0.23212 0.55451 0.01904 0.0
H333 H 0.58172 0.03369 0.19007 0.0
H334 H 0.52754 0.02873 0.29519 0.0
H335 H 0.5734 0.98444 0.31859 0.0
H336 H 0.6291 0.93258 0.20165 0.0
H337 H 0.66864 0.9515 0.17819 0.0
H338 H 0.62278 0.96439 0.16354 0.0
H339 H 0.64147 0.03264 0.17079 0.0
H340 H 0.68662 0.02022 0.18591 0.0
H341 H 0.65909 0.04846 0.21489 0.0
H342 H 0.63431 0.96487 0.33777 0.0
H343 H 0.70057 0.9739 0.35042 0.0
H344 H 0.71937 -0.00641 0.23434 0.0
C345 C 0.57857 0.02124 0.2172 0.0
C346 C 0.55168 0.03424 0.24099 0.0
C347 C 0.5479 0.01852 0.27654 0.0
C348 C 0.57384 -0.00679 0.28989 0.0
C349 C 0.60285 0.98372 0.26706 0.0
C350 C 0.60459 -0.00363 0.23074 0.0
C351 C 0.64226 0.99014 0.21474 0.0
C352 C 0.64059 0.95772 0.18796 0.0
C353 C 0.65826 0.02497 0.19559 0.0
C354 C 0.66341 0.97975 0.24963 0.0
C355 C 0.63969 0.97293 0.27873 0.0
C356 C 0.65296 0.96865 0.31496 0.0
C357 C 0.69073 0.97381 0.32198 0.0
C358 C 0.7147 0.9836 0.29304 0.0
C359 C 0.70127 0.98504 0.25642 0.0
H360 H 0.71701 0.1793 0.52034 0.0
H361 H 0.61741 0.16615 0.4535 0.0
H362 H 0.63726 0.10488 0.43482 0.0
H363 H 0.77756 0.1336 0.45232 0.0
H364 H 0.80587 0.11439 0.48898 0.0
H365 H 0.78336 0.15739 0.49547 0.0
H366 H 0.75441 0.12922 0.55476 0.0
H367 H 0.7747 0.08528 0.54661 0.0
H368 H 0.7255 0.08863 0.55131 0.0
H369 H 0.66101 0.04183 0.43401 0.0
H370 H 0.70283 -0.00797 0.41941 0.0
H371 H 0.79249 0.04934 0.47598 0.0
C372 C 0.70049 0.16422 0.50026 0.0
C373 C 0.66581 0.17703 0.48814 0.0
C374 C 0.64429 0.15659 0.46255 0.0
C375 C 0.65484 0.1215 0.45263 0.0
C376 C 0.68748 0.10804 0.46779 0.0
C377 C 0.71134 0.12955 0.48878 0.0
C378 C 0.74646 0.10921 0.49826 0.0
C379 C 0.7803 0.12986 0.4828 0.0
C380 C 0.75049 0.10271 0.54022 0.0
C381 C 0.73869 0.07337 0.47844 0.0
C382 C 0.70341 0.0726 0.46343 0.0
C383 C 0.68903 0.04231 0.4448 0.0
C384 C 0.71281 0.01376 0.43736 0.0
C385 C 0.7508 0.01742 0.44612 0.0
C386 C 0.76341 0.04597 0.46937 0.0
H387 H 0.01508 0.45305 0.66805 0.0
H388 H 0.01672 0.43533 0.78676 0.0
H389 H 0.07834 0.4648 0.79083 0.0
H390 H 0.1001 0.42996 0.65086 0.0
H391 H 0.11017 0.46446 0.61604 0.0
H392 H 0.06336 0.4507 0.62405 0.0
H393 H 0.0467 0.51866 0.63626 0.0
H394 H 0.09389 0.53204 0.62777 0.0
H395 H 0.07267 0.54425 0.67046 0.0
H396 H 0.14437 0.48006 0.77985 0.0
H397 H 0.20717 0.47889 0.75478 0.0
H398 H 0.16259 0.49312 0.64414 0.0
C399 C 0.02785 0.45651 0.69508 0.0
C400 C 0.0112 0.44143 0.72705 0.0
C401 C 0.02897 0.44629 0.76183 0.0
C402 C 0.0639 0.46343 0.76444 0.0
C403 C 0.08027 0.4767 0.73213 0.0
C404 C 0.06239 0.47417 0.69815 0.0
C405 C 0.08753 0.48623 0.66706 0.0
C406 C 0.09047 0.45603 0.63785 0.0
C407 C 0.07442 0.52246 0.64936 0.0
C408 C 0.12349 0.49203 0.68834 0.0
C409 C 0.11848 0.48765 0.72605 0.0
C410 C 0.14846 0.4851 0.75065 0.0
C411 C 0.18414 0.48468 0.73625 0.0
C412 C 0.18954 0.48724 0.69771 0.0
C413 C 0.15907 0.49303 0.67381 0.0
H414 H 0.77349 0.95203 -0.00022 0.0
H415 H 0.67153 0.92987 0.94023 0.0
H416 H 0.66396 0.87175 0.97503 0.0
H417 H 0.80933 0.87974 0.98002 0.0
H418 H 0.83574 0.86987 0.02163 0.0
H419 H 0.82285 0.91582 0.01146 0.0
H420 H 0.78715 0.92107 0.07391 0.0
H421 H 0.80665 0.87705 0.08372 0.0
H422 H 0.75754 0.88331 0.08794 0.0
H423 H 0.6805 0.80968 0.99053 0.0
H424 H 0.71863 0.75613 0.97929 0.0
H425 H 0.81307 0.81154 0.02781 0.0
C426 C 0.74865 0.93562 -0.00437 0.0
C427 C 0.72353 0.94483 0.96699 0.0
C428 C 0.69114 0.92331 0.96215 0.0
C429 C 0.68678 0.89006 0.98192 0.0
C430 C 0.71513 0.87879 0.00618 0.0
C431 C 0.74532 0.90153 0.01356 0.0
C432 C 0.77695 0.88038 0.03092 0.0
C433 C 0.81321 0.8868 0.00965 0.0
C434 C 0.78225 0.89096 0.0716 0.0
C435 C 0.76214 0.84133 0.02711 0.0
C436 C 0.72546 0.84115 0.01512 0.0
C437 C 0.7086 0.80936 0.00109 0.0
C438 C 0.7304 0.77875 -0.00506 0.0
C439 C 0.76853 0.78003 0.00313 0.0
C440 C 0.78361 0.81001 0.02265 0.0
H441 H 0.44762 0.48301 0.25712 0.0
H442 H 0.42435 0.598 0.26799 0.0
H443 H 0.35952 0.58293 0.28031 0.0
H444 H 0.38861 0.46018 0.20403 0.0
H445 H 0.37201 0.41628 0.22131 0.0
H446 H 0.41677 0.4324 0.23476 0.0
H447 H 0.39964 0.42602 0.30353 0.0
H448 H 0.35422 0.40963 0.29001 0.0
H449 H 0.35939 0.4483 0.32031 0.0
H450 H 0.29879 0.56099 0.26289 0.0
H451 H 0.25359 0.53608 0.21781 0.0
H452 H 0.31178 0.43376 0.21731 0.0
C453 C 0.42901 0.50444 0.26471 0.0
C454 C 0.44075 0.54137 0.26259 0.0
C455 C 0.41608 0.56942 0.27102 0.0
C456 C 0.37902 0.56097 0.27795 0.0
C457 C 0.36711 0.52431 0.2765 0.0
C458 C 0.39183 0.49614 0.27144 0.0
C459 C 0.37168 0.46058 0.26212 0.0
C460 C 0.38821 0.44139 0.22852 0.0
C461 C 0.37119 0.43462 0.29601 0.0
C462 C 0.33345 0.47513 0.25416 0.0
C463 C 0.33045 0.5111 0.26574 0.0
C464 C 0.30033 0.53253 0.25493 0.0
C465 C 0.27467 0.51826 0.22922 0.0
C466 C 0.2798 0.4832 0.21436 0.0
C467 C 0.30761 0.46053 0.22903 0.0
H468 H 0.49229 0.14609 0.31643 0.0
H469 H 0.51148 0.25771 0.27806 0.0
H470 H 0.50441 0.28006 0.3417 0.0
H471 H 0.42935 0.16804 0.39761 0.0
H472 H 0.45085 0.133 0.42588 0.0
H473 H 0.44622 0.12722 0.37657 0.0
H474 H 0.51657 0.11731 0.37307 0.0
H475 H 0.52161 0.12366 0.42202 0.0
H476 H 0.54798 0.15209 0.39062 0.0
H477 H 0.50684 0.28908 0.41011 0.0
H478 H 0.52181 0.28351 0.47741 0.0
H479 H 0.50592 0.16602 0.47212 0.0
C480 C 0.49288 0.17538 0.32127 0.0
C481 C 0.50121 0.20037 0.29222 0.0
C482 C 0.50407 0.23831 0.29978 0.0
C483 C 0.50014 0.2512 0.33591 0.0
C484 C 0.49378 0.22575 0.36441 0.0
C485 C 0.48995 0.18856 0.35748 0.0
C486 C 0.48957 0.16642 0.39344 0.0
C487 C 0.45175 0.14756 0.39869 0.0
C488 C 0.52079 0.13824 0.39485 0.0
C489 C 0.49612 0.19666 0.42149 0.0
C490 C 0.49727 0.23077 0.40423 0.0
C491 C 0.50578 0.26258 0.42395 0.0
C492 C 0.5146 0.25934 0.46189 0.0
C493 C 0.51547 0.22474 0.47973 0.0
C494 C 0.50487 0.1931 0.45942 0.0
H495 H 0.03223 0.21621 0.54436 0.0
H496 H 0.08545 0.32168 0.52499 0.0
H497 H 0.06032 0.34482 0.58252 0.0
H498 H 0.94566 0.25951 0.58991 0.0
H499 H 0.94147 0.21979 0.61996 0.0
H500 H 0.95782 0.21484 0.5736 0.0
H501 H 0.01535 0.1828 0.60133 0.0
H502 H 0.00078 0.19022 0.64786 0.0
H503 H 0.04517 0.20732 0.63321 0.0
H504 H 0.04928 0.34755 0.64907 0.0
H505 H 0.02118 0.34641 0.71024 0.0
H506 H 0.96278 0.24494 0.68336 0.0
C507 C 0.0361 0.24499 0.55081 0.0
C508 C 0.06153 0.26714 0.53111 0.0
C509 C 0.06674 0.30436 0.54039 0.0
C510 C 0.05288 0.31753 0.5732 0.0
C511 C 0.03208 0.29346 0.59481 0.0
C512 C 0.021 0.25907 0.58287 0.0
C513 C -0.00171 0.23915 0.61202 0.0
C514 C 0.95843 0.23298 0.59805 0.0
C515 C 0.01598 0.20273 0.62431 0.0
C516 C 0.00035 0.26706 0.6427 0.0
C517 C 0.02135 0.29739 0.6324 0.0
C518 C 0.03125 0.3249 0.657 0.0
C519 C 0.01591 0.32349 0.69198 0.0
C520 C 0.98966 0.2958 0.70106 0.0
C521 C 0.98288 0.2663 0.67688 0.0
H522 H -0.00396 0.73485 0.7894 0.0
H523 H 0.0359 0.84614 0.80364 0.0
H524 H 0.04363 0.83475 0.8705 0.0
H525 H 0.93985 0.72956 0.84986 0.0
H526 H 0.9462 0.68399 0.86888 0.0
H527 H 0.96105 0.69433 0.82326 0.0
H528 H 0.02699 0.67381 0.8409 0.0
H529 H 0.01212 0.66325 0.88721 0.0
H530 H 0.05095 0.69388 0.87994 0.0
H531 H 0.01573 0.82358 0.9299 0.0
H532 H 0.96598 0.80963 0.97368 0.0
H533 H 0.95344 0.70088 0.92925 0.0
C534 C 0.00882 0.75573 0.80662 0.0
C535 C 0.01529 0.79117 0.79199 0.0
C536 C 0.03127 0.81861 0.81454 0.0
C537 C 0.03569 0.81228 0.85264 0.0
C538 C 0.02504 0.77805 0.86731 0.0
C539 C 0.01377 0.7494 0.84463 0.0
C540 C -0.0029 0.71794 0.8669 0.0
C541 C 0.95882 0.70589 0.85133 0.0
C542 C 0.02338 0.6853 0.86887 0.0
C543 C -0.0054 0.73588 0.90426 0.0
C544 C 0.01198 0.77017 0.90441 0.0
C545 C 0.00392 0.79611 0.93118 0.0
C546 C 0.97564 0.78808 0.95614 0.0
C547 C 0.95698 0.75385 0.95506 0.0
C548 C 0.96883 0.72655 0.93119 0.0
H549 H 0.46327 0.71539 0.20444 0.0
H550 H 0.57644 0.68854 0.18411 0.0
H551 H 0.57775 0.7317 0.13153 0.0
H552 H 0.42587 0.71305 0.13148 0.0
H553 H 0.3994 0.75455 0.12721 0.0
H554 H 0.41292 0.73796 0.17194 0.0
H555 H 0.44349 0.8003 0.18558 0.0
H556 H 0.43258 0.81726 0.13983 0.0
H557 H 0.47931 0.81856 0.15629 0.0
H558 H 0.55898 0.74993 0.0702 0.0
H559 H 0.5238 0.7434 0.01198 0.0
H560 H 0.42287 0.7637 0.06882 0.0
C561 C 0.48888 0.72097 0.19038 0.0
C562 C 0.51966 0.69911 0.19804 0.0
C563 C 0.55268 0.70556 0.17867 0.0
C564 C 0.55369 0.73021 0.14875 0.0
C565 C 0.52162 0.74882 0.13899 0.0
C566 C 0.49026 0.74588 0.16037 0.0
C567 C 0.45808 0.76386 0.14064 0.0
C568 C 0.42203 0.74087 0.1429 0.0
C569 C 0.45309 0.80225 0.15662 0.0
C570 C 0.47303 0.76696 0.10174 0.0
C571 C 0.51084 0.76163 0.10215 0.0
C572 C 0.52981 0.75568 0.06956 0.0
C573 C 0.50961 0.75181 0.03648 0.0
C574 C 0.47085 0.75405 0.0361 0.0
C575 C 0.45268 0.76395 0.06847 0.0
H576 H 0.13557 0.3413 0.38202 0.0
H577 H 0.13324 0.23737 0.32548 0.0
H578 H 0.16158 0.26629 0.27134 0.0
H579 H 0.10095 0.38973 0.31292 0.0
H580 H 0.12784 0.43158 0.31785 0.0
H581 H 0.12157 0.40161 0.35701 0.0
H582 H 0.19305 0.39754 0.36573 0.0
H583 H 0.19848 0.42808 0.32643 0.0
H584 H 0.22045 0.38406 0.3275 0.0
H585 H 0.17911 0.3053 0.22037 0.0
H586 H 0.16681 0.35197 0.17199 0.0
H587 H 0.14905 0.43289 0.25586 0.0
C588 C 0.1422 0.32483 0.35849 0.0
C589 C 0.13352 0.28702 0.35813 0.0
C590 C 0.14104 0.26615 0.32664 0.0
C591 C 0.15748 0.2823 0.29584 0.0
C592 C 0.16563 0.31973 0.29647 0.0
C593 C 0.15758 0.34105 0.32667 0.0
C594 C 0.1607 0.38155 0.31667 0.0
C595 C 0.12565 0.40228 0.32666 0.0
C596 C 0.19518 0.39884 0.33519 0.0
C597 C 0.16586 0.37921 0.27522 0.0
C598 C 0.17227 0.34347 0.26495 0.0
C599 C 0.17481 0.3335 0.22801 0.0
C600 C 0.16783 0.3601 0.2007 0.0
C601 C 0.15731 0.3956 0.2107 0.0
C602 C 0.15794 0.40588 0.24809 0.0
H603 H 0.94273 0.7911 0.58514 0.0
H604 H 0.97833 0.90393 0.60366 0.0
H605 H 0.93726 0.92487 0.55293 0.0
H606 H 0.93783 0.80013 0.48476 0.0
H607 H 0.89854 0.76935 0.48112 0.0
H608 H 0.93133 0.76393 0.51865 0.0
H609 H 0.87798 0.7682 0.56514 0.0
H610 H 0.84521 0.77478 0.52775 0.0
H611 H 0.84917 0.80808 0.56407 0.0
H612 H 0.89009 0.93378 0.50258 0.0
H613 H 0.84852 0.92888 0.44803 0.0
H614 H 0.84515 0.81017 0.46205 0.0
C615 C 0.94223 0.82011 0.5781 0.0
C616 C 0.9635 0.84586 0.59817 0.0
C617 C 0.96241 0.88367 0.58827 0.0
C618 C 0.93887 0.89591 0.55986 0.0
C619 C 0.91716 0.86992 0.54148 0.0
C620 C 0.91934 0.83276 0.54952 0.0
C621 C 0.89432 0.81037 0.52453 0.0
C622 C 0.91684 0.78443 0.50086 0.0
C623 C 0.86493 0.78912 0.54672 0.0
C624 C 0.87747 0.8408 0.50143 0.0
C625 C 0.89062 0.87498 0.51191 0.0
C626 C 0.87964 0.90717 0.49396 0.0
C627 C 0.85586 0.90413 0.46323 0.0
C628 C 0.84392 0.86911 0.45084 0.0
C629 C 0.85388 0.83728 0.47095 0.0
H630 H 0.3561 0.6477 0.69297 0.0
H631 H 0.27932 0.56685 0.7381 0.0
H632 H 0.28792 0.59413 0.80001 0.0
H633 H 0.4188 0.64931 0.77343 0.0
H634 H 0.42841 0.69783 0.7683 0.0
H635 H 0.41704 0.67082 0.72825 0.0
H636 H 0.36401 0.71524 0.71165 0.0
H637 H 0.37472 0.74195 0.75207 0.0
H638 H 0.32886 0.72321 0.74507 0.0
H639 H 0.30079 0.63381 0.85563 0.0
H640 H 0.32474 0.67658 0.90322 0.0
H641 H 0.39569 0.72921 0.82264 0.0
C642 C 0.34137 0.63544 0.71595 0.0
C643 C 0.3168 0.60529 0.71069 0.0
C644 C 0.29833 0.58986 0.74151 0.0
C645 C 0.30285 0.60534 0.77669 0.0
C646 C 0.32634 0.63585 0.7806 0.0
C647 C 0.34597 0.65018 0.75124 0.0
C648 C 0.36988 0.68273 0.76283 0.0
C649 C 0.41097 0.67467 0.75793 0.0
C650 C 0.35868 0.71785 0.74164 0.0
C651 C 0.36027 0.68488 0.80326 0.0
C652 C 0.33472 0.65788 0.81283 0.0
C653 C 0.32085 0.65494 0.84842 0.0
C654 C 0.33417 0.6796 0.8751 0.0
C655 C 0.36122 0.70655 0.86615 0.0
C656 C 0.3744 0.70928 0.82981 0.0
H657 H 0.51219 0.1533 0.06163 0.0
H658 H 0.56874 0.08105 0.1393 0.0
H659 H 0.59759 0.04936 0.08767 0.0
H660 H 0.49464 0.08339 0.99119 0.0
H661 H 0.50193 0.11475 0.95291 0.0
H662 H 0.4847 0.13143 -0.00416 0.0
H663 H 0.5386 0.17893 -0.00044 0.0
H664 H 0.55584 0.16258 0.95655 0.0
H665 H 0.5854 0.16335 -0.00287 0.0
H666 H 0.62196 0.02726 0.02906 0.0
H667 H 0.64198 0.01606 0.96571 0.0
H668 H 0.5691 0.10132 0.92422 0.0
C669 C 0.53068 0.13082 0.06745 0.0
C670 C 0.53858 0.11943 0.10411 0.0
C671 C 0.56262 0.08992 0.11117 0.0
C672 C 0.57897 0.07176 0.08212 0.0
C673 C 0.57068 0.08335 0.04616 0.0
C674 C 0.54714 0.1121 0.03856 0.0
C675 C 0.5436 0.11913 -0.00278 0.0
C676 C 0.50385 0.11173 0.98348 0.0
C677 C 0.55665 0.15832 0.98703 0.0
C678 C 0.56964 0.09058 0.98303 0.0
C679 C 0.58461 0.0701 0.01185 0.0
C680 C 0.61034 0.04296 0.00618 0.0
C681 C 0.62162 0.03692 0.97008 0.0
C682 C 0.60721 0.05793 0.94004 0.0
C683 C 0.58038 0.08469 0.9466 0.0
H684 H 0.63825 0.25009 0.68999 0.0
H685 H 0.6734 0.18947 0.59552 0.0
H686 H 0.7146 0.15273 0.63541 0.0
H687 H 0.73749 0.23479 0.74421 0.0
H688 H 0.71333 0.23417 0.78727 0.0
H689 H 0.6995 0.26515 0.75035 0.0
H690 H 0.63282 0.23877 0.75292 0.0
H691 H 0.64644 0.20863 0.78975 0.0
H692 H 0.62513 0.18988 0.74848 0.0
H693 H 0.73057 0.10953 0.68431 0.0
H694 H 0.71551 0.0658 0.73446 0.0
H695 H 0.6769 0.15452 0.80025 0.0
C696 C 0.65607 0.23016 0.67793 0.0
C697 C 0.65266 0.22215 0.64015 0.0
C698 C 0.67579 0.19584 0.62462 0.0
C699 C 0.69968 0.17517 0.64705 0.0
C700 C 0.70115 0.18199 0.68487 0.0
C701 C 0.68094 0.20991 0.70006 0.0
C702 C 0.68284 0.20773 0.74185 0.0
C703 C 0.70989 0.23719 0.7568 0.0
C704 C 0.64452 0.21135 0.75918 0.0
C705 C 0.69894 0.16976 0.74722 0.0
C706 C 0.71242 0.15675 0.71432 0.0
C707 C 0.72153 0.1198 0.7105 0.0
C708 C 0.71308 0.09496 0.73923 0.0
C709 C 0.6955 0.10728 0.77103 0.0
C710 C 0.69145 0.1452 0.77637 0.0
H711 H 0.10042 0.46409 0.00394 0.0
H712 H 0.16167 0.36511 0.02617 0.0
H713 H 0.1551 0.34803 0.96027 0.0
H714 H 0.03478 0.43031 0.94951 0.0
H715 H 0.03194 0.46862 0.91745 0.0
H716 H 0.04955 0.47573 0.96327 0.0
H717 H 0.10921 0.50418 0.93537 0.0
H718 H 0.09187 0.49554 0.88919 0.0
H719 H 0.13588 0.47781 0.90402 0.0
H720 H 0.12848 0.33463 0.89908 0.0
H721 H 0.07918 0.3232 0.85295 0.0
H722 H 0.04096 0.43381 0.86498 0.0
C723 C 0.11286 0.43917 -0.00553 0.0
C724 C 0.13082 0.4154 0.01958 0.0
C725 C 0.14738 0.38325 0.00694 0.0
C726 C 0.14431 0.37377 0.96958 0.0
C727 C 0.12585 0.39755 0.94521 0.0
C728 C 0.11079 0.42989 0.95715 0.0
C729 C 0.0881 0.4482 0.92693 0.0
C730 C 0.04879 0.45608 0.94007 0.0
C731 C 0.10743 0.48352 0.91306 0.0
C732 C 0.08851 0.41875 0.8978 0.0
C733 C 0.11201 0.39053 0.9081 0.0
C734 C 0.11116 0.357 0.88988 0.0
C735 C 0.08329 0.35077 0.86332 0.0
C736 C 0.05696 0.37799 0.85539 0.0
C737 C 0.06187 0.41334 0.86991 0.0
H738 H 0.89733 0.86696 0.2613 0.0
H739 H 0.79338 0.91921 0.23512 0.0
H740 H 0.79149 0.88955 0.17461 0.0
H741 H 0.93096 0.86188 0.15878 0.0
H742 H 0.95088 0.81789 0.1695 0.0
H743 H 0.95086 0.85312 0.20401 0.0
H744 H 0.91872 0.80709 0.24858 0.0
H745 H 0.91672 0.77233 0.21398 0.0
H746 H 0.8749 0.78672 0.23521 0.0
H747 H 0.78766 0.83704 0.13327 0.0
H748 H 0.79473 0.78097 0.09645 0.0
H749 H 0.90209 0.7637 0.14716 0.0
C750 C 0.87537 0.87377 0.24184 0.0
C751 C 0.84518 0.89449 0.25288 0.0
C752 C 0.8167 0.9031 0.22715 0.0
C753 C 0.81531 0.88626 0.19273 0.0
C754 C 0.84324 0.86214 0.18442 0.0
C755 C 0.8738 0.85731 0.20733 0.0
C756 C 0.89726 0.82615 0.19453 0.0
C757 C 0.93471 0.84064 0.18087 0.0
C758 C 0.90214 0.79635 0.22488 0.0
C759 C 0.87347 0.81231 0.16292 0.0
C760 C 0.84242 0.83341 0.15757 0.0
C761 C 0.81316 0.8221 0.13477 0.0
C762 C 0.81704 0.79005 0.1146 0.0
C763 C 0.84937 0.76939 0.11859 0.0
C764 C 0.87769 0.78016 0.14318 0.0
H765 H 0.30326 0.55691 0.47868 0.0
H766 H 0.39162 0.54411 0.55921 0.0
H767 H 0.43644 0.54331 0.50933 0.0
H768 H 0.3596 0.5045 0.39656 0.0
H769 H 0.3378 0.53492 0.36344 0.0
H770 H 0.31219 0.51696 0.4022 0.0
H771 H 0.29655 0.58347 0.41907 0.0
H772 H 0.32366 0.60194 0.38206 0.0
H773 H 0.33345 0.616 0.42886 0.0
H774 H 0.46686 0.57907 0.46291 0.0
H775 H 0.48709 0.6189 0.41244 0.0
H776 H 0.38468 0.59794 0.35227 0.0
C777 C 0.33171 0.55058 0.48521 0.0
C778 C 0.34429 0.55029 0.52241 0.0
C779 C 0.38161 0.5436 0.53081 0.0
C780 C 0.40728 0.54347 0.50254 0.0
C781 C 0.39471 0.54878 0.46619 0.0
C782 C 0.35757 0.54942 0.45685 0.0
C783 C 0.35204 0.56056 0.4163 0.0
C784 C 0.33968 0.52725 0.39327 0.0
C785 C 0.32485 0.5924 0.41136 0.0
C786 C 0.39098 0.57246 0.40667 0.0
C787 C 0.41497 0.56514 0.43601 0.0
C788 C 0.44951 0.58199 0.43845 0.0
C789 C 0.46059 0.60505 0.40962 0.0
C790 C 0.43845 0.60955 0.37729 0.0
C791 C 0.40291 0.59325 0.37581 0.0
H792 H 0.23217 0.11923 0.39434 0.0
H793 H 0.2231 0.2342 0.36363 0.0
H794 H 0.28721 0.23517 0.34253 0.0
H795 H 0.33723 0.12134 0.41605 0.0
H796 H 0.34223 0.07699 0.39542 0.0
H797 H 0.30051 0.08752 0.41923 0.0
H798 H 0.26165 0.07114 0.36063 0.0
H799 H 0.30302 0.06019 0.33717 0.0
H800 H 0.27218 0.09374 0.3173 0.0
H801 H 0.3458 0.22231 0.31528 0.0
H802 H 0.38937 0.19424 0.27311 0.0
H803 H 0.35978 0.08624 0.31546 0.0
C804 C 0.24438 0.14468 0.38416 0.0
C805 C 0.22335 0.1766 0.38058 0.0
C806 C 0.23919 0.20944 0.36633 0.0
C807 C 0.2757 0.21042 0.35495 0.0
C808 C 0.29583 0.17826 0.35789 0.0
C809 C 0.28065 0.1458 0.37172 0.0
C810 C 0.30524 0.1136 0.36461 0.0
C811 C 0.32231 0.099 0.401 0.0
C812 C 0.28427 0.08292 0.34365 0.0
C813 C 0.33429 0.13236 0.34112 0.0
C814 C 0.32967 0.17005 0.33981 0.0
C815 C 0.35041 0.19304 0.31683 0.0
C816 C 0.37502 0.17694 0.293 0.0
C817 C 0.37781 0.13839 0.29192 0.0
C818 C 0.35851 0.11586 0.31704 0.0
H819 H 0.11946 0.07728 0.50215 0.0
H820 H 0.12329 0.14332 0.60083 0.0
H821 H 0.09191 0.09358 0.63556 0.0
H822 H 0.03042 0.0232 0.52547 0.0
H823 H 0.04886 0.98181 0.50699 0.0
H824 H 0.06118 0.0259 0.48695 0.0
H825 H 0.13066 0.01201 0.49745 0.0
H826 H 0.11824 0.96797 0.51657 0.0
H827 H 0.14692 -0.00083 0.54318 0.0
H828 H 0.06939 0.03513 0.66203 0.0
H829 H 0.07274 0.96992 0.68126 0.0
H830 H 0.08845 0.93938 0.56767 0.0
C831 C 0.11298 0.08127 0.5309 0.0
C832 C 0.12387 0.11378 0.54898 0.0
C833 C 0.11556 0.11824 0.58669 0.0
C834 C 0.09702 0.09048 0.60641 0.0
C835 C 0.08709 0.05831 0.5881 0.0
C836 C 0.09532 0.05332 0.55128 0.0
C837 C 0.08848 0.01386 0.54016 0.0
C838 C 0.05527 0.01103 0.5133 0.0
C839 C 0.12315 -0.0027 0.52342 0.0
C840 C 0.07934 -0.00325 0.57742 0.0
C841 C 0.07595 0.02328 0.6041 0.0
C842 C 0.07129 0.0141 0.64135 0.0
C843 C 0.07305 0.97703 0.65208 0.0
C844 C 0.08067 0.95017 0.62573 0.0
C845 C 0.08183 0.95976 0.58791 0.0
H846 H 0.15422 0.809 0.78963 0.0
H847 H 0.13219 0.92551 0.78658 0.0
H848 H 0.17373 0.93453 0.84072 0.0
H849 H 0.16501 0.80269 0.89591 0.0
H850 H 0.20042 0.76887 0.89239 0.0
H851 H 0.16334 0.7705 0.85854 0.0
H852 H 0.21131 0.77615 0.80654 0.0
H853 H 0.24843 0.77537 0.8401 0.0
H854 H 0.24496 0.81319 0.80756 0.0
H855 H 0.22461 0.93275 0.88601 0.0
H856 H 0.2792 0.92052 0.92451 0.0
H857 H 0.26905 0.80408 0.90049 0.0
C858 C 0.15714 0.83604 0.80155 0.0
C859 C 0.13986 0.86659 0.78481 0.0
C860 C 0.14477 0.90186 0.79988 0.0
C861 C 0.16828 0.90716 0.83047 0.0
C862 C 0.18601 0.8767 0.8458 0.0
C863 C 0.18015 0.84165 0.8325 0.0
C864 C 0.20501 0.81427 0.8523 0.0
C865 C 0.18208 0.78749 0.8762 0.0
C866 C 0.22884 0.79356 0.82498 0.0
C867 C 0.22805 0.83997 0.87626 0.0
C868 C 0.21583 0.87565 0.87266 0.0
C869 C 0.23389 0.90483 0.88982 0.0
C870 C 0.26516 0.89749 0.91149 0.0
C871 C 0.27849 0.8612 0.91571 0.0
C872 C 0.25943 0.83201 0.89802 0.0
H873 H 0.45522 0.01254 0.11838 0.0
H874 H 0.38721 -0.00596 0.21393 0.0
H875 H 0.38499 0.92779 0.2017 0.0
H876 H 0.4107 0.96205 0.06159 0.0
H877 H 0.44748 0.94131 0.03686 0.0
H878 H 0.45559 0.98404 0.05971 0.0
H879 H 0.50992 0.95607 0.09724 0.0
H880 H 0.50227 0.91306 0.07394 0.0
H881 H 0.50281 0.91429 0.12373 0.0
H882 H 0.36744 0.87447 0.16544 0.0
H883 H 0.34958 0.83184 0.11544 0.0
H884 H 0.43656 0.87714 0.04773 0.0
C885 C 0.44225 -0.00605 0.13804 0.0
C886 C 0.42188 0.00788 0.16737 0.0
C887 C 0.40352 0.98349 0.19177 0.0
C888 C 0.40209 0.94582 0.18496 0.0
C889 C 0.41986 0.93293 0.15403 0.0
C890 C 0.44112 0.95592 0.13179 0.0
C891 C 0.4527 0.93612 0.09735 0.0
C892 C 0.44087 0.95712 0.06184 0.0
C893 C 0.49441 0.92949 0.09814 0.0
C894 C 0.43131 0.90023 0.1018 0.0
C895 C 0.41257 0.89889 0.13479 0.0
C896 C 0.38369 0.8737 0.1407 0.0
C897 C 0.37361 0.8496 0.11222 0.0
C898 C 0.39324 0.85003 0.07891 0.0
C899 C 0.42313 0.87472 0.07417 0.0
H900 H 0.79596 0.3945 0.73 0.0
H901 H 0.8485 0.28877 0.73129 0.0
H902 H 0.79967 0.26449 0.6892 0.0
H903 H 0.69564 0.35699 0.71533 0.0
H904 H 0.68565 0.39634 0.68627 0.0
H905 H 0.71709 0.40087 0.72519 0.0
H906 H 0.76674 0.42772 0.68138 0.0
H907 H 0.7361 0.42259 0.64241 0.0
H908 H 0.78059 0.40128 0.64236 0.0
H909 H 0.75408 0.25731 0.63435 0.0
H910 H 0.71696 0.26825 0.57671 0.0
H911 H 0.69618 0.37891 0.61197 0.0
C912 C 0.79596 0.36569 0.72299 0.0
C913 C 0.8257 0.34351 0.73402 0.0
C914 C 0.82551 0.3061 0.7237 0.0
C915 C 0.79792 0.29212 0.69958 0.0
C916 C 0.77032 0.31568 0.68679 0.0
C917 C 0.76868 0.35149 0.69914 0.0
C918 C 0.74005 0.37316 0.67774 0.0
C919 C 0.70768 0.38237 0.70261 0.0
C920 C 0.75691 0.40819 0.65992 0.0
C921 C 0.72842 0.34536 0.64906 0.0
C922 C 0.74492 0.31181 0.65522 0.0
C923 C 0.7405 0.28327 0.62983 0.0
C924 C 0.71953 0.28965 0.59713 0.0
C925 C 0.70417 0.32452 0.59 0.0
C926 C 0.70783 0.35203 0.61684 0.0
H927 H 0.88116 0.444 0.92091 0.0
H928 H 0.89142 0.46286 0.80262 0.0
H929 H 0.87036 0.52604 0.80954 0.0
H930 H 0.79854 0.50401 0.93158 0.0
H931 H 0.81491 0.51975 0.97603 0.0
H932 H 0.82536 0.47407 0.96122 0.0
H933 H 0.89508 0.48799 0.97175 0.0
H934 H 0.88489 0.53367 0.98625 0.0
H935 H 0.91599 0.52712 0.9487 0.0
H936 H 0.85635 0.58886 0.82967 0.0
H937 H 0.8486 0.6472 0.86205 0.0
H938 H 0.84672 0.58798 0.96713 0.0
C939 C 0.87804 0.4611 0.89636 0.0
C940 C 0.88793 0.4484 0.86129 0.0
C941 C 0.8839 0.47183 0.82984 0.0
C942 C 0.87184 0.50781 0.8334 0.0
C943 C 0.86333 0.51982 0.86846 0.0
C944 C 0.86578 0.49712 0.89936 0.0
C945 C 0.85762 0.51779 0.93417 0.0
C946 C 0.82199 0.50302 0.95179 0.0
C947 C 0.89036 0.51657 0.96182 0.0
C948 C 0.85237 0.55599 0.91818 0.0
C949 C 0.85504 0.5564 0.88015 0.0
C950 C 0.85339 0.58884 0.85938 0.0
C951 C 0.84902 0.62182 0.87804 0.0
C952 C 0.84682 0.62207 0.9171 0.0
C953 C 0.84806 0.58862 0.93725 0.0
H954 H 0.75068 0.58544 0.07756 0.0
H955 H 0.75536 0.70442 0.08464 0.0
H956 H 0.70904 0.70193 0.13338 0.0
H957 H 0.6485 0.57861 0.09378 0.0
H958 H 0.65311 0.53581 0.11896 0.0
H959 H 0.68453 0.54743 0.08245 0.0
H960 H 0.73918 0.53805 0.12844 0.0
H961 H 0.70794 0.52776 0.16541 0.0
H962 H 0.74168 0.56438 0.17027 0.0
H963 H 0.67019 0.68639 0.18756 0.0
H964 H 0.62669 0.6603 0.23259 0.0
H965 H 0.64215 0.55169 0.18766 0.0
C966 C 0.74103 0.61098 0.08858 0.0
C967 C 0.75679 0.64507 0.0774 0.0
C968 C 0.74358 0.67796 0.0925 0.0
C969 C 0.71756 0.67685 0.12057 0.0
C970 C 0.70422 0.64274 0.13251 0.0
C971 C 0.71422 0.61049 0.11601 0.0
C972 C 0.69477 0.57762 0.13365 0.0
C973 C 0.66867 0.55876 0.10554 0.0
C974 C 0.72257 0.55036 0.15044 0.0
C975 C 0.67346 0.59644 0.16347 0.0
C976 C 0.6798 0.63394 0.16258 0.0
C977 C 0.66436 0.65714 0.1881 0.0
C978 C 0.63999 0.64192 0.21392 0.0
C979 C 0.63066 0.60395 0.2135 0.0
C980 C 0.64861 0.58082 0.18864 0.0
H981 H 0.62033 0.35724 0.38575 0.0
H982 H 0.53201 0.34185 0.4635 0.0
H983 H 0.49677 0.38942 0.4322 0.0
H984 H 0.6256 0.4435 0.39368 0.0
H985 H 0.63491 0.45828 0.34694 0.0
H986 H 0.64642 0.41269 0.36182 0.0
H987 H 0.60659 0.38453 0.30911 0.0
H988 H 0.59577 0.43026 0.29293 0.0
H989 H 0.55919 0.39776 0.30308 0.0
H990 H 0.48206 0.4501 0.4106 0.0
H991 H 0.48504 0.51566 0.39347 0.0
H992 H 0.58304 0.49715 0.32992 0.0
C993 C 0.59244 0.3623 0.3943 0.0
C994 C 0.57821 0.34434 0.42592 0.0
C995 C 0.54254 0.35301 0.43791 0.0
C996 C 0.52241 0.38079 0.42052 0.0
C997 C 0.53849 0.40019 0.39144 0.0
C998 C 0.57242 0.39086 0.37766 0.0
C999 C 0.58711 0.42081 0.35201 0.0
C1000 C 0.62576 0.43461 0.36441 0.0
C1001 C 0.58715 0.40755 0.3119 0.0
C1002 C 0.55834 0.44986 0.35697 0.0
C1003 C 0.52998 0.43693 0.37892 0.0
C1004 C 0.5033 0.46016 0.39225 0.0
C1005 C 0.5056 0.49748 0.38294 0.0
C1006 C 0.53439 0.51123 0.36052 0.0
C1007 C 0.56053 0.48701 0.34669 0.0
H1008 H 0.27289 0.32513 0.0686 0.0
H1009 H 0.26621 0.36877 0.17914 0.0
H1010 H 0.31038 0.32254 0.20201 0.0
H1011 H 0.27954 0.227 0.10015 0.0
H1012 H 0.30994 0.21616 0.06315 0.0
H1013 H 0.27602 0.25132 0.0565 0.0
H1014 H 0.32809 0.29697 0.03757 0.0
H1015 H 0.36231 0.26236 0.04556 0.0
H1016 H 0.36615 0.30554 0.06919 0.0
H1017 H 0.36183 0.27816 0.21071 0.0
H1018 H 0.40405 0.22596 0.20974 0.0
H1019 H 0.37331 0.20643 0.09507 0.0
C1020 C 0.27981 0.32402 0.09784 0.0
C1021 C 0.26608 0.3503 0.12219 0.0
C1022 C 0.27595 0.34847 0.16019 0.0
C1023 C 0.30145 0.32267 0.17331 0.0
C1024 C 0.31599 0.29837 0.14822 0.0
C1025 C 0.30442 0.29772 0.11164 0.0
C1026 C 0.32364 0.26788 0.09083 0.0
C1027 C 0.29562 0.23886 0.07685 0.0
C1028 C 0.3464 0.28418 0.05891 0.0
C1029 C 0.34837 0.25243 0.1213 0.0
C1030 C 0.34407 0.27104 0.15391 0.0
C1031 C 0.3649 0.26286 0.18557 0.0
C1032 C 0.38919 0.23341 0.18458 0.0
C1033 C 0.39176 0.21192 0.15241 0.0
C1034 C 0.37184 0.22231 0.12006 0.0
H1035 H 0.93099 0.21807 0.87342 0.0
H1036 H 0.86022 0.29081 0.80998 0.0
H1037 H 0.8131 0.24132 0.80471 0.0
H1038 H 0.89873 0.12837 0.82623 0.0
H1039 H 0.90275 0.10406 0.86982 0.0
H1040 H 0.93407 0.14158 0.85934 0.0
H1041 H 0.91575 0.17236 0.92026 0.0
H1042 H 0.88309 0.1361 0.93016 0.0
H1043 H 0.86808 0.18302 0.92755 0.0
H1044 H 0.76863 0.1903 0.82072 0.0
H1045 H 0.7348 0.13557 0.8444 0.0
H1046 H 0.8355 0.09618 0.89655 0.0
C1047 C 0.9064 0.22272 0.85669 0.0
C1048 C 0.89913 0.25769 0.84159 0.0
C1049 C 0.86647 0.2637 0.82074 0.0
C1050 C 0.83944 0.23588 0.81803 0.0
C1051 C 0.84619 0.20235 0.83578 0.0
C1052 C 0.8795 0.19518 0.85351 0.0
C1053 C 0.87859 0.15856 0.8737 0.0
C1054 C 0.90509 0.13155 0.85621 0.0
C1055 C 0.88685 0.16282 0.91536 0.0
C1056 C 0.83894 0.14739 0.86662 0.0
C1057 C 0.82067 0.17279 0.84459 0.0
C1058 C 0.78293 0.16971 0.83711 0.0
C1059 C 0.76383 0.13893 0.85117 0.0
C1060 C 0.78267 0.11175 0.87213 0.0
C1061 C 0.82049 0.11649 0.88042 0.0
H1062 H 0.10101 0.57733 0.16327 0.0
H1063 H 0.13988 0.5569 0.05357 0.0
H1064 H 0.09534 0.60108 0.02751 0.0
H1065 H 0.01824 0.56881 0.14761 0.0
H1066 H -0.00126 0.60449 0.17483 0.0
H1067 H 0.04311 0.58712 0.18709 0.0
H1068 H 0.07274 0.65202 0.18262 0.0
H1069 H 0.02788 0.67031 0.17171 0.0
H1070 H 0.06589 0.67968 0.14142 0.0
H1071 H 0.03336 0.62747 0.01228 0.0
H1072 H 0.96611 0.63938 0.01083 0.0
H1073 H 0.96686 0.64079 0.13046 0.0
C1074 C 0.1019 0.58455 0.13416 0.0
C1075 C 0.12367 0.56415 0.11042 0.0
C1076 C 0.12378 0.5729 0.07224 0.0
C1077 C 0.09826 0.59782 0.05719 0.0
C1078 C 0.07369 0.6143 0.08092 0.0
C1079 C 0.07644 0.60919 0.11898 0.0
C1080 C 0.04293 0.62361 0.13803 0.0
C1081 C 0.02472 0.59423 0.16328 0.0
C1082 C 0.05297 0.65848 0.15971 0.0
C1083 C 0.01887 0.63269 0.10478 0.0
C1084 C 0.03742 0.62889 0.07204 0.0
C1085 C 0.01899 0.63165 0.03779 0.0
C1086 C 0.98078 0.63802 0.03714 0.0
C1087 C 0.96146 0.64032 0.07057 0.0
C1088 C 0.98105 0.6387 0.10451 0.0
H1089 H 0.68749 0.84364 0.28898 0.0
H1090 H 0.68842 0.88057 0.40218 0.0
H1091 H 0.6434 0.83194 0.41831 0.0
H1092 H 0.58185 0.8109 0.29172 0.0
H1093 H 0.59198 0.77435 0.26062 0.0
H1094 H 0.61529 0.8183 0.25603 0.0
H1095 H 0.67755 0.78482 0.26032 0.0
H1096 H 0.65481 0.74112 0.26711 0.0
H1097 H 0.68835 0.75723 0.30079 0.0
H1098 H 0.61777 0.76958 0.42596 0.0
H1099 H 0.59231 0.70699 0.42182 0.0
H1100 H 0.60127 0.71193 0.30218 0.0
C1101 C 0.67605 0.84296 0.31642 0.0
C1102 C 0.69106 0.86561 0.34439 0.0
C1103 C 0.6766 0.86378 0.38035 0.0
C1104 C 0.65134 0.83596 0.38983 0.0
C1105 C 0.63972 0.81163 0.36247 0.0
C1106 C 0.64968 0.81614 0.32595 0.0
C1107 C 0.635 0.78456 0.30267 0.0
C1108 C 0.6042 0.79781 0.2762 0.0
C1109 C 0.66579 0.76585 0.28152 0.0
C1110 C 0.61948 0.75962 0.33259 0.0
C1111 C 0.62222 0.77604 0.36676 0.0
C1112 C 0.61372 0.7571 0.3992 0.0
C1113 C 0.5998 0.72125 0.39651 0.0
C1114 C 0.59411 0.70469 0.36155 0.0
C1115 C 0.60487 0.72395 0.32924 0.0
H1116 H 0.52973 0.41614 0.54195 0.0
H1117 H 0.54668 0.33415 0.62849 0.0
H1118 H 0.49564 0.35988 0.66349 0.0
H1119 H 0.49977 0.49216 0.60194 0.0
H1120 H 0.46493 0.50711 0.56918 0.0
H1121 H 0.50635 0.48635 0.55311 0.0
H1122 H 0.46733 0.43758 0.51782 0.0
H1123 H 0.42592 0.45852 0.5333 0.0
H1124 H 0.4335 0.4104 0.54244 0.0
H1125 H 0.44025 0.3902 0.68651 0.0
H1126 H 0.3798 0.41877 0.69322 0.0
H1127 H 0.3959 0.48022 0.591 0.0
C1128 C 0.52319 0.40426 0.5687 0.0
C1129 C 0.54241 0.37345 0.58281 0.0
C1130 C 0.53238 0.35783 0.6173 0.0
C1131 C 0.50363 0.37245 0.6375 0.0
C1132 C 0.48494 0.40256 0.62273 0.0
C1133 C 0.49401 0.41816 0.58896 0.0
C1134 C 0.46663 0.44752 0.57746 0.0
C1135 C 0.48557 0.48554 0.5753 0.0
C1136 C 0.4472 0.43791 0.54058 0.0
C1137 C 0.44018 0.44513 0.60948 0.0
C1138 C 0.45187 0.41959 0.63563 0.0
C1139 C 0.43102 0.41056 0.66647 0.0
C1140 C 0.39669 0.42697 0.67003 0.0
C1141 C 0.38324 0.45195 0.64278 0.0
C1142 C 0.40585 0.46198 0.61272 0.0
H1143 H 0.17452 0.63151 0.55009 0.0
H1144 H 0.16345 0.56954 0.65212 0.0
H1145 H 0.11302 0.60942 0.67039 0.0
H1146 H 0.17917 0.70848 0.58576 0.0
H1147 H 0.15414 0.73611 0.55236 0.0
H1148 H 0.17446 0.69437 0.53827 0.0
H1149 H 0.11136 0.66972 0.51415 0.0
H1150 H 0.09062 0.71216 0.52731 0.0
H1151 H 0.07217 0.6689 0.54408 0.0
H1152 H 0.08169 0.66642 0.68717 0.0
H1153 H 0.07231 0.73216 0.69962 0.0
H1154 H 0.10764 0.7603 0.58902 0.0
C1155 C 0.15968 0.62507 0.57512 0.0
C1156 C 0.17252 0.59751 0.59958 0.0
C1157 C 0.15343 0.59001 0.6326 0.0
C1158 C 0.1248 0.61281 0.64326 0.0
C1159 C 0.1155 0.64262 0.62038 0.0
C1160 C 0.13185 0.64823 0.58635 0.0
C1161 C 0.12422 0.68628 0.57088 0.0
C1162 C 0.16012 0.7075 0.56135 0.0
C1163 C 0.09802 0.68413 0.53711 0.0
C1164 C 0.10523 0.70274 0.60338 0.0
C1165 C 0.09858 0.67673 0.63086 0.0
C1166 C 0.08571 0.68671 0.6654 0.0
C1167 C 0.08067 0.72411 0.67236 0.0
C1168 C 0.08962 0.75101 0.64526 0.0
C1169 C 0.10064 0.74004 0.61006 0.0
H1170 H 0.50609 0.85701 0.95424 0.0
H1171 H 0.42408 0.86387 0.86603 0.0
H1172 H 0.47269 0.88066 0.82157 0.0
H1173 H 0.55924 0.93325 0.92847 0.0
H1174 H 0.60307 0.91322 0.94034 0.0
H1175 H 0.56223 0.89737 0.96326 0.0
H1176 H 0.57662 0.831 0.94335 0.0
H1177 H 0.6168 0.84732 0.91903 0.0
H1178 H 0.58143 0.82121 0.89501 0.0
H1179 H 0.528 0.90085 0.78809 0.0
H1180 H 0.58297 0.93718 0.77099 0.0
H1181 H 0.63058 0.91777 0.88009 0.0
C1182 C 0.49869 0.86203 0.92549 0.0
C1183 C 0.46166 0.85946 0.9132 0.0
C1184 C 0.4525 0.86592 0.87561 0.0
C1185 C 0.47993 0.87489 0.85019 0.0
C1186 C 0.51644 0.87656 0.86276 0.0
C1187 C 0.52591 0.87082 0.8996 0.0
C1188 C 0.56673 0.8781 0.90636 0.0
C1189 C 0.57316 0.90724 0.93634 0.0
C1190 C 0.58656 0.84227 0.91655 0.0
C1191 C 0.57793 0.89198 0.86834 0.0
C1192 C 0.54885 0.88899 0.84323 0.0
C1193 C 0.55115 0.90292 0.80728 0.0
C1194 C 0.58269 0.92327 0.79767 0.0
C1195 C 0.61093 0.93037 0.82427 0.0
C1196 C 0.60979 0.91212 0.85899 0.0
H1197 H 0.89282 0.02863 0.41028 0.0
H1198 H 0.9331 0.9717 0.3155 0.0
H1199 H -0.0035 -0.00631 0.33025 0.0
H1200 H 0.93571 0.10578 0.39567 0.0
H1201 H 0.94738 0.11812 0.44259 0.0
H1202 H 0.90903 0.08775 0.43362 0.0
H1203 H 0.93735 0.03912 0.47756 0.0
H1204 H 0.97669 0.06882 0.48674 0.0
H1205 H 0.98321 0.02303 0.46997 0.0
H1206 H 0.04881 0.03357 0.34362 0.0
H1207 H 0.08611 0.08975 0.35254 0.0
H1208 H 0.01354 0.12379 0.43886 0.0
C1209 C 0.91557 0.01946 0.39397 0.0
C1210 C 0.90894 -0.00194 0.36239 0.0
C1211 C 0.93832 0.98751 0.34025 0.0
C1212 C 0.97427 -0.00029 0.34863 0.0
C1213 C 0.97997 0.02238 0.37914 0.0
C1214 C 0.95142 0.03193 0.40176 0.0
C1215 C 0.96312 0.06226 0.428 0.0
C1216 C 0.9373 0.09541 0.4247 0.0
C1217 C 0.96524 0.04744 0.46795 0.0
C1218 C 0.00121 0.07131 0.41365 0.0
C1219 C 0.01095 0.04671 0.38672 0.0
C1220 C 0.04208 0.05228 0.36537 0.0
C1221 C 0.06288 0.08443 0.37037 0.0
C1222 C 0.05247 0.11072 0.3964 0.0
C1223 C 0.0223 0.10346 0.41947 0.0
loop_
_geom_bond_atom_site_label_1
_geom_bond_atom_site_label_2
_geom_bond_distance
_geom_bond_site_symmetry_2
_ccdc_geom_bond_type
O0 Mg1 1.990 . S
O0 C14 1.253 . S
Mg1 O0 1.990 . S
Mg1 O4 2.180 . S
Mg1 O5 2.117 . S
Mg1 O19 2.030 . S
O2 Mg3 2.072 . S
O2 C14 1.260 . S
Mg3 O2 2.072 . S
Mg3 O4 2.099 . S
Mg3 O6 2.079 . S
Mg3 O7 2.072 . S
Mg3 O9 2.099 . S
Mg3 O20 2.079 . S
O4 Mg1 2.180 . S
O4 Mg3 2.099 . S
O4 C15 1.279 . S
O5 Mg1 2.117 . S
O5 C15 1.250 . S
O6 Mg3 2.079 . S
O6 C16 1.264 . S
O7 Mg3 2.072 . S
O7 C17 1.260 . S
Mg8 O9 2.180 . S
Mg8 O10 2.030 . S
Mg8 O11 1.990 . S
Mg8 O12 2.117 . S
O9 Mg3 2.099 . S
O9 Mg8 2.180 . S
O9 C18 1.279 . S
O10 Mg8 2.030 . S
O10 C16 1.248 . S
O11 Mg8 1.990 . S
O11 C17 1.253 . S
O12 Mg8 2.117 . S
O12 C18 1.250 . S
C13 O19 1.248 . S
C13 O20 1.264 . S
C14 O0 1.253 . S
C14 O2 1.260 . S
C15 O4 1.279 . S
C15 O5 1.250 . S
C16 O6 1.264 . S
C16 O10 1.248 . S
C17 O7 1.260 . S
C17 O11 1.253 . S
C18 O9 1.279 . S
C18 O12 1.250 . S
O19 Mg1 2.030 . S
O19 C13 1.248 . S
O20 Mg3 2.079 . S
O20 C13 1.264 . S
O21 Mg22 1.990 . S
O21 C35 1.253 . S
Mg22 O21 1.990 . S
Mg22 O25 2.180 . S
Mg22 O26 2.117 . S
Mg22 O40 2.030 . S
O23 Mg24 2.072 . S
O23 C35 1.260 . S
Mg24 O23 2.072 . S
Mg24 O25 2.099 . S
Mg24 O27 2.079 . S
Mg24 O28 2.072 . S
Mg24 O30 2.099 . S
Mg24 O41 2.079 . S
O25 Mg22 2.180 . S
O25 Mg24 2.099 . S
O25 C36 1.279 . S
O26 Mg22 2.117 . S
O26 C36 1.250 . S
O27 Mg24 2.079 . S
O27 C37 1.264 1_455 S
O28 Mg24 2.072 . S
O28 C38 1.260 1_455 S
Mg29 O30 2.180 1_655 S
Mg29 O31 2.030 . S
Mg29 O32 1.990 . S
Mg29 O33 2.117 . S
O30 Mg24 2.099 . S
O30 Mg29 2.180 1_455 S
O30 C39 1.279 . S
O31 Mg29 2.030 . S
O31 C37 1.248 . S
O32 Mg29 1.990 . S
O32 C38 1.253 . S
O33 Mg29 2.117 . S
O33 C39 1.250 1_655 S
C34 O40 1.248 . S
C34 O41 1.264 . S
C35 O21 1.253 . S
C35 O23 1.260 . S
C36 O25 1.279 . S
C36 O26 1.250 . S
C37 O27 1.264 1_655 S
C37 O31 1.248 . S
C38 O28 1.260 1_655 S
C38 O32 1.253 . S
C39 O30 1.279 . S
C39 O33 1.250 1_455 S
O40 Mg22 2.030 . S
O40 C34 1.248 . S
O41 Mg24 2.079 . S
O41 C34 1.264 . S
O42 Mg43 1.990 . S
O42 C56 1.253 1_556 S
Mg43 O42 1.990 . S
Mg43 O46 2.180 . S
Mg43 O47 2.117 . S
Mg43 O61 2.030 . S
O44 Mg45 2.072 1_554 S
O44 C56 1.260 . S
Mg45 O44 2.072 1_556 S
Mg45 O46 2.099 . S
Mg45 O48 2.079 . S
Mg45 O49 2.072 . S
Mg45 O51 2.099 . S
Mg45 O62 2.079 . S
O46 Mg43 2.180 . S
O46 Mg45 2.099 . S
O46 C57 1.279 . S
O47 Mg43 2.117 . S
O47 C57 1.250 . S
O48 Mg45 2.079 . S
O48 C58 1.264 . S
O49 Mg45 2.072 . S
O49 C59 1.260 . S
Mg50 O51 2.180 . S
Mg50 O52 2.030 . S
Mg50 O53 1.990 1_556 S
Mg50 O54 2.117 1_556 S
O51 Mg45 2.099 . S
O51 Mg50 2.180 . S
O51 C60 1.279 1_556 S
O52 Mg50 2.030 . S
O52 C58 1.248 . S
O53 Mg50 1.990 1_554 S
O53 C59 1.253 1_554 S
O54 Mg50 2.117 1_554 S
O54 C60 1.250 . S
C55 O61 1.248 . S
C55 O62 1.264 . S
C56 O42 1.253 1_554 S
C56 O44 1.260 . S
C57 O46 1.279 . S
C57 O47 1.250 . S
C58 O48 1.264 . S
C58 O52 1.248 . S
C59 O49 1.260 . S
C59 O53 1.253 1_556 S
C60 O51 1.279 1_554 S
C60 O54 1.250 . S
O61 Mg43 2.030 . S
O61 C55 1.248 . S
O62 Mg45 2.079 . S
O62 C55 1.264 . S
O63 Mg64 1.990 . S
O63 C77 1.253 . S
Mg64 O63 1.990 . S
Mg64 O67 2.180 . S
Mg64 O68 2.117 . S
Mg64 O82 2.030 . S
O65 Mg66 2.072 . S
O65 C77 1.260 . S
Mg66 O65 2.072 . S
Mg66 O67 2.099 . S
Mg66 O69 2.079 . S
Mg66 O70 2.072 . S
Mg66 O72 2.099 . S
Mg66 O83 2.079 . S
O67 Mg64 2.180 . S
O67 Mg66 2.099 . S
O67 C78 1.279 . S
O68 Mg64 2.117 . S
O68 C78 1.250 . S
O69 Mg66 2.079 . S
O69 C79 1.264 . S
O70 Mg66 2.072 . S
O70 C80 1.260 . S
Mg71 O72 2.180 . S
Mg71 O73 2.030 . S
Mg71 O74 1.990 . S
Mg71 O75 2.117 . S
O72 Mg66 2.099 . S
O72 Mg71 2.180 . S
O72 C81 1.279 . S
O73 Mg71 2.030 . S
O73 C79 1.248 . S
O74 Mg71 1.990 . S
O74 C80 1.253 . S
O75 Mg71 2.117 . S
O75 C81 1.250 . S
C76 O82 1.248 . S
C76 O83 1.264 . S
C77 O63 1.253 . S
C77 O65 1.260 . S
C78 O67 1.279 . S
C78 O68 1.250 . S
C79 O69 1.264 . S
C79 O73 1.248 . S
C80 O70 1.260 . S
C80 O74 1.253 . S
C81 O72 1.279 . S
C81 O75 1.250 . S
O82 Mg64 2.030 . S
O82 C76 1.248 . S
O83 Mg66 2.079 . S
O83 C76 1.264 . S
O84 Mg85 1.990 . S
O84 C98 1.253 . S
Mg85 O84 1.990 . S
Mg85 O88 2.180 . S
Mg85 O89 2.117 . S
Mg85 O103 2.030 . S
O86 Mg87 2.072 . S
O86 C98 1.260 . S
Mg87 O86 2.072 . S
Mg87 O88 2.099 . S
Mg87 O90 2.079 . S
Mg87 O91 2.072 . S
Mg87 O93 2.099 . S
Mg87 O104 2.079 . S
O88 Mg85 2.180 . S
O88 Mg87 2.099 . S
O88 C99 1.279 . S
O89 Mg85 2.117 . S
O89 C99 1.250 . S
O90 Mg87 2.079 . S
O90 C100 1.264 . S
O91 Mg87 2.072 . S
O91 C101 1.260 . S
Mg92 O93 2.180 . S
Mg92 O94 2.030 . S
Mg92 O95 1.990 . S
Mg92 O96 2.117 . S
O93 Mg87 2.099 . S
O93 Mg92 2.180 . S
O93 C102 1.279 . S
O94 Mg92 2.030 . S
O94 C100 1.248 . S
O95 Mg92 1.990 . S
O95 C101 1.253 . S
O96 Mg92 2.117 . S
O96 C102 1.250 . S
C97 O103 1.248 . S
C97 O104 1.264 . S
C98 O84 1.253 . S
C98 O86 1.260 . S
C99 O88 1.279 . S
C99 O89 1.250 . S
C100 O90 1.264 . S
C100 O94 1.248 . S
C101 O91 1.260 . S
C101 O95 1.253 . S
C102 O93 1.279 . S
C102 O96 1.250 . S
O103 Mg85 2.030 . S
O103 C97 1.248 . S
O104 Mg87 2.079 . S
O104 C97 1.264 . S
O105 Mg106 1.990 . S
O105 C119 1.253 1_655 S
Mg106 O105 1.990 . S
Mg106 O109 2.180 . S
Mg106 O110 2.117 . S
Mg106 O124 2.030 . S
O107 Mg108 2.072 . S
O107 C119 1.260 1_655 S
Mg108 O107 2.072 . S
Mg108 O109 2.099 . S
Mg108 O111 2.079 . S
Mg108 O112 2.072 . S
Mg108 O114 2.099 . S
Mg108 O125 2.079 . S
O109 Mg106 2.180 . S
O109 Mg108 2.099 . S
O109 C120 1.279 . S
O110 Mg106 2.117 . S
O110 C120 1.250 . S
O111 Mg108 2.079 . S
O111 C121 1.264 . S
O112 Mg108 2.072 . S
O112 C122 1.260 . S
Mg113 O114 2.180 . S
Mg113 O115 2.030 . S
Mg113 O116 1.990 . S
Mg113 O117 2.117 1_655 S
O114 Mg108 2.099 . S
O114 Mg113 2.180 . S
O114 C123 1.279 1_655 S
O115 Mg113 2.030 . S
O115 C121 1.248 . S
O116 Mg113 1.990 . S
O116 C122 1.253 . S
O117 Mg113 2.117 1_455 S
O117 C123 1.250 . S
C118 O124 1.248 . S
C118 O125 1.264 . S
C119 O105 1.253 1_455 S
C119 O107 1.260 1_455 S
C120 O109 1.279 . S
C120 O110 1.250 . S
C121 O111 1.264 . S
C121 O115 1.248 . S
C122 O112 1.260 . S
C122 O116 1.253 . S
C123 O114 1.279 1_455 S
C123 O117 1.250 . S
O124 Mg106 2.030 . S
O124 C118 1.248 . S
O125 Mg108 2.079 . S
O125 C118 1.264 . S
O126 Mg127 1.990 . S
O126 C140 1.253 . S
Mg127 O126 1.990 . S
Mg127 O130 2.180 . S
Mg127 O131 2.117 . S
Mg127 O145 2.030 . S
O128 Mg129 2.072 . S
O128 C140 1.260 . S
Mg129 O128 2.072 . S
Mg129 O130 2.099 . S
Mg129 O132 2.079 . S
Mg129 O133 2.072 . S
Mg129 O135 2.099 . S
Mg129 O146 2.079 . S
O130 Mg127 2.180 . S
O130 Mg129 2.099 . S
O130 C141 1.279 . S
O131 Mg127 2.117 . S
O131 C141 1.250 . S
O132 Mg129 2.079 . S
O132 C142 1.264 1_554 S
O133 Mg129 2.072 . S
O133 C143 1.260 1_554 S
Mg134 O135 2.180 1_556 S
Mg134 O136 2.030 . S
Mg134 O137 1.990 . S
Mg134 O138 2.117 . S
O135 Mg129 2.099 . S
O135 Mg134 2.180 1_554 S
O135 C144 1.279 1_554 S
O136 Mg134 2.030 . S
O136 C142 1.248 . S
O137 Mg134 1.990 . S
O137 C143 1.253 . S
O138 Mg134 2.117 . S
O138 C144 1.250 . S
C139 O145 1.248 . S
C139 O146 1.264 . S
C140 O126 1.253 . S
C140 O128 1.260 . S
C141 O130 1.279 . S
C141 O131 1.250 . S
C142 O132 1.264 1_556 S
C142 O136 1.248 . S
C143 O133 1.260 1_556 S
C143 O137 1.253 . S
C144 O135 1.279 1_556 S
C144 O138 1.250 . S
O145 Mg127 2.030 . S
O145 C139 1.248 . S
O146 Mg129 2.079 . S
O146 C139 1.264 . S
O147 Mg148 1.990 . S
O147 C161 1.253 . S
Mg148 O147 1.990 . S
Mg148 O151 2.180 . S
Mg148 O152 2.117 . S
Mg148 O166 2.030 . S
O149 Mg150 2.072 . S
O149 C161 1.260 . S
Mg150 O149 2.072 . S
Mg150 O151 2.099 . S
Mg150 O153 2.079 . S
Mg150 O154 2.072 . S
Mg150 O156 2.099 . S
Mg150 O167 2.079 . S
O151 Mg148 2.180 . S
O151 Mg150 2.099 . S
O151 C162 1.279 . S
O152 Mg148 2.117 . S
O152 C162 1.250 . S
O153 Mg150 2.079 . S
O153 C163 1.264 . S
O154 Mg150 2.072 . S
O154 C164 1.260 . S
Mg155 O156 2.180 . S
Mg155 O157 2.030 . S
Mg155 O158 1.990 . S
Mg155 O159 2.117 . S
O156 Mg150 2.099 . S
O156 Mg155 2.180 . S
O156 C165 1.279 . S
O157 Mg155 2.030 . S
O157 C163 1.248 . S
O158 Mg155 1.990 . S
O158 C164 1.253 . S
O159 Mg155 2.117 . S
O159 C165 1.250 . S
C160 O166 1.248 . S
C160 O167 1.264 . S
C161 O147 1.253 . S
C161 O149 1.260 . S
C162 O151 1.279 . S
C162 O152 1.250 . S
C163 O153 1.264 . S
C163 O157 1.248 . S
C164 O154 1.260 . S
C164 O158 1.253 . S
C165 O156 1.279 . S
C165 O159 1.250 . S
O166 Mg148 2.030 . S
O166 C160 1.248 . S
O167 Mg150 2.079 . S
O167 C160 1.264 . S
O168 Mg169 1.990 . S
O168 C182 1.253 . S
Mg169 O168 1.990 . S
Mg169 O172 2.180 . S
Mg169 O173 2.117 . S
Mg169 O187 2.030 . S
O170 Mg171 2.072 . S
O170 C182 1.260 . S
Mg171 O170 2.072 . S
Mg171 O172 2.099 . S
Mg171 O174 2.079 . S
Mg171 O175 2.072 . S
Mg171 O177 2.099 . S
Mg171 O188 2.079 . S
O172 Mg169 2.180 . S
O172 Mg171 2.099 . S
O172 C183 1.279 . S
O173 Mg169 2.117 . S
O173 C183 1.250 . S
O174 Mg171 2.079 . S
O174 C184 1.264 . S
O175 Mg171 2.072 . S
O175 C185 1.260 . S
Mg176 O177 2.180 . S
Mg176 O178 2.030 . S
Mg176 O179 1.990 . S
Mg176 O180 2.117 . S
O177 Mg171 2.099 . S
O177 Mg176 2.180 . S
O177 C186 1.279 . S
O178 Mg176 2.030 . S
O178 C184 1.248 . S
O179 Mg176 1.990 . S
O179 C185 1.253 . S
O180 Mg176 2.117 . S
O180 C186 1.250 . S
C181 O187 1.248 . S
C181 O188 1.264 . S
C182 O168 1.253 . S
C182 O170 1.260 . S
C183 O172 1.279 . S
C183 O173 1.250 . S
C184 O174 1.264 . S
C184 O178 1.248 . S
C185 O175 1.260 . S
C185 O179 1.253 . S
C186 O177 1.279 . S
C186 O180 1.250 . S
O187 Mg169 2.030 . S
O187 C181 1.248 . S
O188 Mg171 2.079 . S
O188 C181 1.264 . S
O189 Mg190 1.990 . S
O189 C203 1.253 1_545 S
Mg190 O189 1.990 . S
Mg190 O193 2.180 . S
Mg190 O194 2.117 . S
Mg190 O208 2.030 . S
O191 Mg192 2.072 . S
O191 C203 1.260 1_545 S
Mg192 O191 2.072 . S
Mg192 O193 2.099 . S
Mg192 O195 2.079 . S
Mg192 O196 2.072 . S
Mg192 O198 2.099 . S
Mg192 O209 2.079 . S
O193 Mg190 2.180 . S
O193 Mg192 2.099 . S
O193 C204 1.279 . S
O194 Mg190 2.117 . S
O194 C204 1.250 . S
O195 Mg192 2.079 . S
O195 C205 1.264 . S
O196 Mg192 2.072 . S
O196 C206 1.260 . S
Mg197 O198 2.180 . S
Mg197 O199 2.030 . S
Mg197 O200 1.990 . S
Mg197 O201 2.117 1_545 S
O198 Mg192 2.099 . S
O198 Mg197 2.180 . S
O198 C207 1.279 1_545 S
O199 Mg197 2.030 . S
O199 C205 1.248 . S
O200 Mg197 1.990 . S
O200 C206 1.253 . S
O201 Mg197 2.117 1_565 S
O201 C207 1.250 . S
C202 O208 1.248 . S
C202 O209 1.264 . S
C203 O189 1.253 1_565 S
C203 O191 1.260 1_565 S
C204 O193 1.279 . S
C204 O194 1.250 . S
C205 O195 1.264 . S
C205 O199 1.248 . S
C206 O196 1.260 . S
C206 O200 1.253 . S
C207 O198 1.279 1_565 S
C207 O201 1.250 . S
O208 Mg190 2.030 . S
O208 C202 1.248 . S
O209 Mg192 2.079 . S
O209 C202 1.264 . S
O210 Mg211 1.990 . S
O210 C224 1.253 . S
Mg211 O210 1.990 . S
Mg211 O214 2.180 . S
Mg211 O215 2.117 . S
Mg211 O229 2.030 . S
O212 Mg213 2.072 . S
O212 C224 1.260 . S
Mg213 O212 2.072 . S
Mg213 O214 2.099 . S
Mg213 O216 2.079 . S
Mg213 O217 2.072 . S
Mg213 O219 2.099 . S
Mg213 O230 2.079 . S
O214 Mg211 2.180 . S
O214 Mg213 2.099 . S
O214 C225 1.279 . S
O215 Mg211 2.117 . S
O215 C225 1.250 . S
O216 Mg213 2.079 . S
O216 C226 1.264 1_565 S
O217 Mg213 2.072 . S
O217 C227 1.260 1_565 S
Mg218 O219 2.180 1_545 S
Mg218 O220 2.030 . S
Mg218 O221 1.990 . S
Mg218 O222 2.117 . S
O219 Mg213 2.099 . S
O219 Mg218 2.180 1_565 S
O219 C228 1.279 . S
O220 Mg218 2.030 . S
O220 C226 1.248 . S
O221 Mg218 1.990 . S
O221 C227 1.253 . S
O222 Mg218 2.117 . S
O222 C228 1.250 1_545 S
C223 O229 1.248 . S
C223 O230 1.264 . S
C224 O210 1.253 . S
C224 O212 1.260 . S
C225 O214 1.279 . S
C225 O215 1.250 . S
C226 O216 1.264 1_545 S
C226 O220 1.248 . S
C227 O217 1.260 1_545 S
C227 O221 1.253 . S
C228 O219 1.279 . S
C228 O222 1.250 1_565 S
O229 Mg211 2.030 . S
O229 C223 1.248 . S
O230 Mg213 2.079 . S
O230 C223 1.264 . S
O231 Mg232 1.990 . S
O231 C245 1.253 . S
Mg232 O231 1.990 . S
Mg232 O235 2.180 . S
Mg232 O236 2.117 . S
Mg232 O250 2.030 . S
O233 Mg234 2.072 . S
O233 C245 1.260 . S
Mg234 O233 2.072 . S
Mg234 O235 2.099 . S
Mg234 O237 2.079 . S
Mg234 O238 2.072 . S
Mg234 O240 2.099 . S
Mg234 O251 2.079 . S
O235 Mg232 2.180 . S
O235 Mg234 2.099 . S
O235 C246 1.279 . S
O236 Mg232 2.117 . S
O236 C246 1.250 . S
O237 Mg234 2.079 . S
O237 C247 1.264 . S
O238 Mg234 2.072 . S
O238 C248 1.260 . S
Mg239 O240 2.180 . S
Mg239 O241 2.030 . S
Mg239 O242 1.990 . S
Mg239 O243 2.117 . S
O240 Mg234 2.099 . S
O240 Mg239 2.180 . S
O240 C249 1.279 . S
O241 Mg239 2.030 . S
O241 C247 1.248 . S
O242 Mg239 1.990 . S
O242 C248 1.253 . S
O243 Mg239 2.117 . S
O243 C249 1.250 . S
C244 O250 1.248 . S
C244 O251 1.264 . S
C245 O231 1.253 . S
C245 O233 1.260 . S
C246 O235 1.279 . S
C246 O236 1.250 . S
C247 O237 1.264 . S
C247 O241 1.248 . S
C248 O238 1.260 . S
C248 O242 1.253 . S
C249 O240 1.279 . S
C249 O243 1.250 . S
O250 Mg232 2.030 . S
O250 C244 1.248 . S
O251 Mg234 2.079 . S
O251 C244 1.264 . S
H252 C264 0.930 . S
H253 C266 0.930 . S
H254 C267 0.930 . S
H255 C271 0.959 . S
H256 C271 0.959 . S
H257 C271 0.961 . S
H258 C272 0.960 . S
H259 C272 0.961 . S
H260 C272 0.959 . S
H261 C275 0.929 . S
H262 C276 0.931 . S
H263 C278 0.930 . S
C264 H252 0.930 . S
C264 C265 1.399 . S
C264 C269 1.399 . S
C265 C264 1.399 . S
C265 C266 1.376 . S
C266 H253 0.930 . S
C266 C265 1.376 . S
C266 C267 1.388 . S
C267 H254 0.930 . S
C267 C266 1.388 . S
C267 C268 1.390 . S
C268 C267 1.390 . S
C268 C269 1.394 . S
C268 C274 1.465 . S
C269 C264 1.399 . S
C269 C268 1.394 . S
C269 C270 1.516 . S
C270 C269 1.516 . S
C270 C271 1.502 . S
C270 C272 1.561 . S
C270 C273 1.526 . S
C271 H255 0.959 . S
C271 H256 0.959 . S
C271 H257 0.961 . S
C271 C270 1.502 . S
C272 H258 0.960 . S
C272 H259 0.961 . S
C272 H260 0.959 . S
C272 C270 1.561 . S
C273 C270 1.526 . S
C273 C274 1.396 . S
C273 C278 1.390 . S
C274 C268 1.465 . S
C274 C273 1.396 . S
C274 C275 1.399 . S
C275 H261 0.929 . S
C275 C274 1.399 . S
C275 C276 1.385 . S
C276 H262 0.931 . S
C276 C275 1.385 . S
C276 C277 1.389 . S
C277 C276 1.389 . S
C277 C278 1.387 . S
C278 H263 0.930 . S
C278 C273 1.390 . S
C278 C277 1.387 . S
H279 C291 0.930 . S
H280 C293 0.930 . S
H281 C294 0.930 . S
H282 C298 0.959 . S
H283 C298 0.959 . S
H284 C298 0.961 . S
H285 C299 0.960 . S
H286 C299 0.961 . S
H287 C299 0.959 . S
H288 C302 0.929 . S
H289 C303 0.931 . S
H290 C305 0.930 . S
C291 H279 0.930 . S
C291 C292 1.399 . S
C291 C296 1.399 1_545 S
C292 C291 1.399 . S
C292 C293 1.376 . S
C293 H280 0.930 . S
C293 C292 1.376 . S
C293 C294 1.388 1_545 S
C294 H281 0.930 . S
C294 C293 1.388 1_565 S
C294 C295 1.390 . S
C295 C294 1.390 . S
C295 C296 1.394 . S
C295 C301 1.465 . S
C296 C291 1.399 1_565 S
C296 C295 1.394 . S
C296 C297 1.516 . S
C297 C296 1.516 . S
C297 C298 1.502 . S
C297 C299 1.561 1_565 S
C297 C300 1.526 . S
C298 H282 0.959 . S
C298 H283 0.959 . S
C298 H284 0.961 . S
C298 C297 1.502 . S
C299 H285 0.960 . S
C299 H286 0.961 . S
C299 H287 0.959 . S
C299 C297 1.561 1_545 S
C300 C297 1.526 . S
C300 C301 1.396 . S
C300 C305 1.390 . S
C301 C295 1.465 . S
C301 C300 1.396 . S
C301 C302 1.399 . S
C302 H288 0.929 . S
C302 C301 1.399 . S
C302 C303 1.385 . S
C303 H289 0.931 . S
C303 C302 1.385 . S
C303 C304 1.389 . S
C304 C303 1.389 . S
C304 C305 1.387 . S
C305 H290 0.930 . S
C305 C300 1.390 . S
C305 C304 1.387 . S
H306 C318 0.930 . S
H307 C320 0.930 . S
H308 C321 0.930 . S
H309 C325 0.959 . S
H310 C325 0.959 . S
H311 C325 0.961 . S
H312 C326 0.960 . S
H313 C326 0.961 . S
H314 C326 0.959 . S
H315 C329 0.929 . S
H316 C330 0.931 . S
H317 C332 0.930 1_556 S
C318 H306 0.930 . S
C318 C319 1.399 . S
C318 C323 1.399 . S
C319 C318 1.399 . S
C319 C320 1.376 1_556 S
C320 H307 0.930 . S
C320 C319 1.376 1_554 S
C320 C321 1.388 . S
C321 H308 0.930 . S
C321 C320 1.388 . S
C321 C322 1.390 . S
C322 C321 1.390 . S
C322 C323 1.394 1_554 S
C322 C328 1.465 . S
C323 C318 1.399 . S
C323 C322 1.394 1_556 S
C323 C324 1.516 . S
C324 C323 1.516 . S
C324 C325 1.502 . S
C324 C326 1.561 . S
C324 C327 1.526 1_556 S
C325 H309 0.959 . S
C325 H310 0.959 . S
C325 H311 0.961 . S
C325 C324 1.502 . S
C326 H312 0.960 . S
C326 H313 0.961 . S
C326 H314 0.959 . S
C326 C324 1.561 . S
C327 C324 1.526 1_554 S
C327 C328 1.396 . S
C327 C332 1.390 . S
C328 C322 1.465 . S
C328 C327 1.396 . S
C328 C329 1.399 . S
C329 H315 0.929 . S
C329 C328 1.399 . S
C329 C330 1.385 . S
C330 H316 0.931 . S
C330 C329 1.385 . S
C330 C331 1.389 . S
C331 C330 1.389 . S
C331 C332 1.387 . S
C332 H317 0.930 1_554 S
C332 C327 1.390 . S
C332 C331 1.387 . S
H333 C345 0.930 . S
H334 C347 0.930 . S
H335 C348 0.930 . S
H336 C352 0.959 . S
H337 C352 0.959 . S
H338 C352 0.961 . S
H339 C353 0.960 . S
H340 C353 0.961 . S
H341 C353 0.959 . S
H342 C356 0.929 . S
H343 C357 0.931 . S
H344 C359 0.930 . S
C345 H333 0.930 . S
C345 C346 1.399 . S
C345 C350 1.399 . S
C346 C345 1.399 . S
C346 C347 1.376 . S
C347 H334 0.930 . S
C347 C346 1.376 . S
C347 C348 1.388 . S
C348 H335 0.930 . S
C348 C347 1.388 . S
C348 C349 1.390 . S
C349 C348 1.390 . S
C349 C350 1.394 . S
C349 C355 1.465 . S
C350 C345 1.399 . S
C350 C349 1.394 . S
C350 C351 1.516 . S
C351 C350 1.516 . S
C351 C352 1.502 1_545 S
C351 C353 1.561 . S
C351 C354 1.526 . S
C352 H336 0.959 . S
C352 H337 0.959 . S
C352 H338 0.961 . S
C352 C351 1.502 1_565 S
C353 H339 0.960 . S
C353 H340 0.961 . S
C353 H341 0.959 . S
C353 C351 1.561 . S
C354 C351 1.526 . S
C354 C355 1.396 . S
C354 C359 1.390 1_545 S
C355 C349 1.465 . S
C355 C354 1.396 . S
C355 C356 1.399 . S
C356 H342 0.929 . S
C356 C355 1.399 . S
C356 C357 1.385 . S
C357 H343 0.931 . S
C357 C356 1.385 . S
C357 C358 1.389 1_545 S
C358 C357 1.389 1_565 S
C358 C359 1.387 . S
C359 H344 0.930 . S
C359 C354 1.390 1_565 S
C359 C358 1.387 . S
H360 C372 0.930 . S
H361 C374 0.930 . S
H362 C375 0.930 . S
H363 C379 0.959 . S
H364 C379 0.959 . S
H365 C379 0.961 . S
H366 C380 0.960 . S
H367 C380 0.961 . S
H368 C380 0.959 . S
H369 C383 0.929 . S
H370 C384 0.931 . S
H371 C386 0.930 . S
C372 H360 0.930 . S
C372 C373 1.399 . S
C372 C377 1.399 . S
C373 C372 1.399 . S
C373 C374 1.376 . S
C374 H361 0.930 . S
C374 C373 1.376 . S
C374 C375 1.388 . S
C375 H362 0.930 . S
C375 C374 1.388 . S
C375 C376 1.390 . S
C376 C375 1.390 . S
C376 C377 1.394 . S
C376 C382 1.465 . S
C377 C372 1.399 . S
C377 C376 1.394 . S
C377 C378 1.516 . S
C378 C377 1.516 . S
C378 C379 1.502 . S
C378 C380 1.561 . S
C378 C381 1.526 . S
C379 H363 0.959 . S
C379 H364 0.959 . S
C379 H365 0.961 . S
C379 C378 1.502 . S
C380 H366 0.960 . S
C380 H367 0.961 . S
C380 H368 0.959 . S
C380 C378 1.561 . S
C381 C378 1.526 . S
C381 C382 1.396 . S
C381 C386 1.390 . S
C382 C376 1.465 . S
C382 C381 1.396 . S
C382 C383 1.399 . S
C383 H369 0.929 . S
C383 C382 1.399 . S
C383 C384 1.385 . S
C384 H370 0.931 . S
C384 C383 1.385 . S
C384 C385 1.389 . S
C385 C384 1.389 . S
C385 C386 1.387 . S
C386 H371 0.930 . S
C386 C381 1.390 . S
C386 C385 1.387 . S
H387 C399 0.930 . S
H388 C401 0.930 . S
H389 C402 0.930 . S
H390 C406 0.959 . S
H391 C406 0.959 . S
H392 C406 0.961 . S
H393 C407 0.960 . S
H394 C407 0.961 . S
H395 C407 0.959 . S
H396 C410 0.929 . S
H397 C411 0.931 . S
H398 C413 0.930 . S
C399 H387 0.930 . S
C399 C400 1.399 . S
C399 C404 1.399 . S
C400 C399 1.399 . S
C400 C401 1.376 . S
C401 H388 0.930 . S
C401 C400 1.376 . S
C401 C402 1.388 . S
C402 H389 0.930 . S
C402 C401 1.388 . S
C402 C403 1.390 . S
C403 C402 1.390 . S
C403 C404 1.394 . S
C403 C409 1.465 . S
C404 C399 1.399 . S
C404 C403 1.394 . S
C404 C405 1.516 . S
C405 C404 1.516 . S
C405 C406 1.502 . S
C405 C407 1.561 . S
C405 C408 1.526 . S
C406 H390 0.959 . S
C406 H391 0.959 . S
C406 H392 0.961 . S
C406 C405 1.502 . S
C407 H393 0.960 . S
C407 H394 0.961 . S
C407 H395 0.959 . S
C407 C405 1.561 . S
C408 C405 1.526 . S
C408 C409 1.396 . S
C408 C413 1.390 . S
C409 C403 1.465 . S
C409 C408 1.396 . S
C409 C410 1.399 . S
C410 H396 0.929 . S
C410 C409 1.399 . S
C410 C411 1.385 . S
C411 H397 0.931 . S
C411 C410 1.385 . S
C411 C412 1.389 . S
C412 C411 1.389 . S
C412 C413 1.387 . S
C413 H398 0.930 . S
C413 C408 1.390 . S
C413 C412 1.387 . S
H414 C426 0.930 . S
H415 C428 0.930 . S
H416 C429 0.930 . S
H417 C433 0.959 . S
H418 C433 0.959 1_554 S
H419 C433 0.960 1_554 S
H420 C434 0.960 . S
H421 C434 0.961 . S
H422 C434 0.959 . S
H423 C437 0.929 . S
H424 C438 0.931 . S
H425 C440 0.930 . S
C426 H414 0.930 . S
C426 C427 1.399 . S
C426 C431 1.399 . S
C427 C426 1.399 . S
C427 C428 1.376 . S
C428 H415 0.930 . S
C428 C427 1.376 . S
C428 C429 1.388 . S
C429 H416 0.930 . S
C429 C428 1.388 . S
C429 C430 1.390 . S
C430 C429 1.390 . S
C430 C431 1.394 . S
C430 C436 1.465 . S
C431 C426 1.399 . S
C431 C430 1.394 . S
C431 C432 1.516 1_556 S
C432 C431 1.516 1_554 S
C432 C433 1.502 1_554 S
C432 C434 1.561 . S
C432 C435 1.526 1_554 S
C433 H417 0.959 . S
C433 H418 0.959 1_556 S
C433 H419 0.960 1_556 S
C433 C432 1.502 1_556 S
C434 H420 0.960 . S
C434 H421 0.961 . S
C434 H422 0.959 . S
C434 C432 1.561 . S
C435 C432 1.526 1_556 S
C435 C436 1.396 . S
C435 C440 1.390 1_556 S
C436 C430 1.465 . S
C436 C435 1.396 . S
C436 C437 1.399 . S
C437 H423 0.929 . S
C437 C436 1.399 . S
C437 C438 1.385 . S
C438 H424 0.931 . S
C438 C437 1.385 . S
C438 C439 1.389 1_556 S
C439 C438 1.389 1_554 S
C439 C440 1.387 . S
C440 H425 0.930 . S
C440 C435 1.390 1_554 S
C440 C439 1.387 . S
H441 C453 0.930 . S
H442 C455 0.930 . S
H443 C456 0.930 . S
H444 C460 0.959 . S
H445 C460 0.959 . S
H446 C460 0.961 . S
H447 C461 0.960 . S
H448 C461 0.961 . S
H449 C461 0.959 . S
H450 C464 0.929 . S
H451 C465 0.931 . S
H452 C467 0.930 . S
C453 H441 0.930 . S
C453 C454 1.399 . S
C453 C458 1.399 . S
C454 C453 1.399 . S
C454 C455 1.376 . S
C455 H442 0.930 . S
C455 C454 1.376 . S
C455 C456 1.388 . S
C456 H443 0.930 . S
C456 C455 1.388 . S
C456 C457 1.390 . S
C457 C456 1.390 . S
C457 C458 1.394 . S
C457 C463 1.465 . S
C458 C453 1.399 . S
C458 C457 1.394 . S
C458 C459 1.516 . S
C459 C458 1.516 . S
C459 C460 1.502 . S
C459 C461 1.561 . S
C459 C462 1.526 . S
C460 H444 0.959 . S
C460 H445 0.959 . S
C460 H446 0.961 . S
C460 C459 1.502 . S
C461 H447 0.960 . S
C461 H448 0.961 . S
C461 H449 0.959 . S
C461 C459 1.561 . S
C462 C459 1.526 . S
C462 C463 1.396 . S
C462 C467 1.390 . S
C463 C457 1.465 . S
C463 C462 1.396 . S
C463 C464 1.399 . S
C464 H450 0.929 . S
C464 C463 1.399 . S
C464 C465 1.385 . S
C465 H451 0.931 . S
C465 C464 1.385 . S
C465 C466 1.389 . S
C466 C465 1.389 . S
C466 C467 1.387 . S
C467 H452 0.930 . S
C467 C462 1.390 . S
C467 C466 1.387 . S
H468 C480 0.930 . S
H469 C482 0.930 . S
H470 C483 0.930 . S
H471 C487 0.959 . S
H472 C487 0.959 . S
H473 C487 0.961 . S
H474 C488 0.960 . S
H475 C488 0.961 . S
H476 C488 0.959 . S
H477 C491 0.929 . S
H478 C492 0.931 . S
H479 C494 0.930 . S
C480 H468 0.930 . S
C480 C481 1.399 . S
C480 C485 1.399 . S
C481 C480 1.399 . S
C481 C482 1.376 . S
C482 H469 0.930 . S
C482 C481 1.376 . S
C482 C483 1.388 . S
C483 H470 0.930 . S
C483 C482 1.388 . S
C483 C484 1.390 . S
C484 C483 1.390 . S
C484 C485 1.394 . S
C484 C490 1.465 . S
C485 C480 1.399 . S
C485 C484 1.394 . S
C485 C486 1.516 . S
C486 C485 1.516 . S
C486 C487 1.502 . S
C486 C488 1.561 . S
C486 C489 1.526 . S
C487 H471 0.959 . S
C487 H472 0.959 . S
C487 H473 0.961 . S
C487 C486 1.502 . S
C488 H474 0.960 . S
C488 H475 0.961 . S
C488 H476 0.959 . S
C488 C486 1.561 . S
C489 C486 1.526 . S
C489 C490 1.396 . S
C489 C494 1.390 . S
C490 C484 1.465 . S
C490 C489 1.396 . S
C490 C491 1.399 . S
C491 H477 0.929 . S
C491 C490 1.399 . S
C491 C492 1.385 . S
C492 H478 0.931 . S
C492 C491 1.385 . S
C492 C493 1.389 . S
C493 C492 1.389 . S
C493 C494 1.387 . S
C494 H479 0.930 . S
C494 C489 1.390 . S
C494 C493 1.387 . S
H495 C507 0.930 . S
H496 C509 0.930 . S
H497 C510 0.930 . S
H498 C514 0.959 . S
H499 C514 0.959 . S
H500 C514 0.961 . S
H501 C515 0.960 . S
H502 C515 0.961 . S
H503 C515 0.959 . S
H504 C518 0.929 . S
H505 C519 0.931 . S
H506 C521 0.930 . S
C507 H495 0.930 . S
C507 C508 1.399 . S
C507 C512 1.399 . S
C508 C507 1.399 . S
C508 C509 1.376 . S
C509 H496 0.930 . S
C509 C508 1.376 . S
C509 C510 1.388 . S
C510 H497 0.930 . S
C510 C509 1.388 . S
C510 C511 1.390 . S
C511 C510 1.390 . S
C511 C512 1.394 . S
C511 C517 1.465 . S
C512 C507 1.399 . S
C512 C511 1.394 . S
C512 C513 1.516 . S
C513 C512 1.516 . S
C513 C514 1.502 1_455 S
C513 C515 1.561 . S
C513 C516 1.526 . S
C514 H498 0.959 . S
C514 H499 0.959 . S
C514 H500 0.961 . S
C514 C513 1.502 1_655 S
C515 H501 0.960 . S
C515 H502 0.961 . S
C515 H503 0.959 . S
C515 C513 1.561 . S
C516 C513 1.526 . S
C516 C517 1.396 . S
C516 C521 1.390 1_455 S
C517 C511 1.465 . S
C517 C516 1.396 . S
C517 C518 1.399 . S
C518 H504 0.929 . S
C518 C517 1.399 . S
C518 C519 1.385 . S
C519 H505 0.931 . S
C519 C518 1.385 . S
C519 C520 1.389 1_455 S
C520 C519 1.389 1_655 S
C520 C521 1.387 . S
C521 H506 0.930 . S
C521 C516 1.390 1_655 S
C521 C520 1.387 . S
H522 C534 0.930 . S
H523 C536 0.930 . S
H524 C537 0.930 . S
H525 C541 0.959 . S
H526 C541 0.959 . S
H527 C541 0.961 . S
H528 C542 0.960 . S
H529 C542 0.961 . S
H530 C542 0.959 1_455 S
H531 C545 0.929 1_455 S
H532 C546 0.931 . S
H533 C548 0.930 . S
C534 H522 0.930 . S
C534 C535 1.399 1_655 S
C534 C539 1.399 . S
C535 C534 1.399 1_455 S
C535 C536 1.376 . S
C536 H523 0.930 . S
C536 C535 1.376 . S
C536 C537 1.388 . S
C537 H524 0.930 . S
C537 C536 1.388 . S
C537 C538 1.390 . S
C538 C537 1.390 . S
C538 C539 1.394 1_455 S
C538 C544 1.465 1_455 S
C539 C534 1.399 . S
C539 C538 1.394 1_655 S
C539 C540 1.516 . S
C540 C539 1.516 . S
C540 C541 1.502 . S
C540 C542 1.561 . S
C540 C543 1.526 . S
C541 H525 0.959 . S
C541 H526 0.959 . S
C541 H527 0.961 . S
C541 C540 1.502 . S
C542 H528 0.960 . S
C542 H529 0.961 . S
C542 H530 0.959 1_655 S
C542 C540 1.561 . S
C543 C540 1.526 . S
C543 C544 1.396 . S
C543 C548 1.390 . S
C544 C538 1.465 1_655 S
C544 C543 1.396 . S
C544 C545 1.399 . S
C545 H531 0.929 1_655 S
C545 C544 1.399 . S
C545 C546 1.385 . S
C546 H532 0.931 . S
C546 C545 1.385 . S
C546 C547 1.389 . S
C547 C546 1.389 . S
C547 C548 1.387 . S
C548 H533 0.930 . S
C548 C543 1.390 . S
C548 C547 1.387 . S
H549 C561 0.930 . S
H550 C563 0.930 . S
H551 C564 0.930 . S
H552 C568 0.959 . S
H553 C568 0.959 . S
H554 C568 0.961 . S
H555 C569 0.960 . S
H556 C569 0.961 . S
H557 C569 0.959 . S
H558 C572 0.929 . S
H559 C573 0.931 . S
H560 C575 0.930 . S
C561 H549 0.930 . S
C561 C562 1.399 . S
C561 C566 1.399 . S
C562 C561 1.399 . S
C562 C563 1.376 . S
C563 H550 0.930 . S
C563 C562 1.376 . S
C563 C564 1.388 . S
C564 H551 0.930 . S
C564 C563 1.388 . S
C564 C565 1.390 . S
C565 C564 1.390 . S
C565 C566 1.394 . S
C565 C571 1.465 . S
C566 C561 1.399 . S
C566 C565 1.394 . S
C566 C567 1.516 . S
C567 C566 1.516 . S
C567 C568 1.502 . S
C567 C569 1.561 . S
C567 C570 1.526 . S
C568 H552 0.959 . S
C568 H553 0.959 . S
C568 H554 0.961 . S
C568 C567 1.502 . S
C569 H555 0.960 . S
C569 H556 0.961 . S
C569 H557 0.959 . S
C569 C567 1.561 . S
C570 C567 1.526 . S
C570 C571 1.396 . S
C570 C575 1.390 . S
C571 C565 1.465 . S
C571 C570 1.396 . S
C571 C572 1.399 . S
C572 H558 0.929 . S
C572 C571 1.399 . S
C572 C573 1.385 . S
C573 H559 0.931 . S
C573 C572 1.385 . S
C573 C574 1.389 . S
C574 C573 1.389 . S
C574 C575 1.387 . S
C575 H560 0.930 . S
C575 C570 1.390 . S
C575 C574 1.387 . S
H576 C588 0.930 . S
H577 C590 0.930 . S
H578 C591 0.930 . S
H579 C595 0.959 . S
H580 C595 0.959 . S
H581 C595 0.961 . S
H582 C596 0.960 . S
H583 C596 0.961 . S
H584 C596 0.959 . S
H585 C599 0.929 . S
H586 C600 0.931 . S
H587 C602 0.930 . S
C588 H576 0.930 . S
C588 C589 1.399 . S
C588 C593 1.399 . S
C589 C588 1.399 . S
C589 C590 1.376 . S
C590 H577 0.930 . S
C590 C589 1.376 . S
C590 C591 1.388 . S
C591 H578 0.930 . S
C591 C590 1.388 . S
C591 C592 1.390 . S
C592 C591 1.390 . S
C592 C593 1.394 . S
C592 C598 1.465 . S
C593 C588 1.399 . S
C593 C592 1.394 . S
C593 C594 1.516 . S
C594 C593 1.516 . S
C594 C595 1.502 . S
C594 C596 1.561 . S
C594 C597 1.526 . S
C595 H579 0.959 . S
C595 H580 0.959 . S
C595 H581 0.961 . S
C595 C594 1.502 . S
C596 H582 0.960 . S
C596 H583 0.961 . S
C596 H584 0.959 . S
C596 C594 1.561 . S
C597 C594 1.526 . S
C597 C598 1.396 . S
C597 C602 1.390 . S
C598 C592 1.465 . S
C598 C597 1.396 . S
C598 C599 1.399 . S
C599 H585 0.929 . S
C599 C598 1.399 . S
C599 C600 1.385 . S
C600 H586 0.931 . S
C600 C599 1.385 . S
C600 C601 1.389 . S
C601 C600 1.389 . S
C601 C602 1.387 . S
C602 H587 0.930 . S
C602 C597 1.390 . S
C602 C601 1.387 . S
H603 C615 0.930 . S
H604 C617 0.930 . S
H605 C618 0.930 . S
H606 C622 0.959 . S
H607 C622 0.959 . S
H608 C622 0.961 . S
H609 C623 0.960 . S
H610 C623 0.961 . S
H611 C623 0.959 . S
H612 C626 0.929 . S
H613 C627 0.931 . S
H614 C629 0.930 . S
C615 H603 0.930 . S
C615 C616 1.399 . S
C615 C620 1.399 . S
C616 C615 1.399 . S
C616 C617 1.376 . S
C617 H604 0.930 . S
C617 C616 1.376 . S
C617 C618 1.388 . S
C618 H605 0.930 . S
C618 C617 1.388 . S
C618 C619 1.390 . S
C619 C618 1.390 . S
C619 C620 1.394 . S
C619 C625 1.465 . S
C620 C615 1.399 . S
C620 C619 1.394 . S
C620 C621 1.516 . S
C621 C620 1.516 . S
C621 C622 1.502 . S
C621 C623 1.561 . S
C621 C624 1.526 . S
C622 H606 0.959 . S
C622 H607 0.959 . S
C622 H608 0.961 . S
C622 C621 1.502 . S
C623 H609 0.960 . S
C623 H610 0.961 . S
C623 H611 0.959 . S
C623 C621 1.561 . S
C624 C621 1.526 . S
C624 C625 1.396 . S
C624 C629 1.390 . S
C625 C619 1.465 . S
C625 C624 1.396 . S
C625 C626 1.399 . S
C626 H612 0.929 . S
C626 C625 1.399 . S
C626 C627 1.385 . S
C627 H613 0.931 . S
C627 C626 1.385 . S
C627 C628 1.389 . S
C628 C627 1.389 . S
C628 C629 1.387 . S
C629 H614 0.930 . S
C629 C624 1.390 . S
C629 C628 1.387 . S
H630 C642 0.930 . S
H631 C644 0.930 . S
H632 C645 0.930 . S
H633 C649 0.959 . S
H634 C649 0.959 . S
H635 C649 0.961 . S
H636 C650 0.960 . S
H637 C650 0.961 . S
H638 C650 0.959 . S
H639 C653 0.929 . S
H640 C654 0.931 . S
H641 C656 0.930 . S
C642 H630 0.930 . S
C642 C643 1.399 . S
C642 C647 1.399 . S
C643 C642 1.399 . S
C643 C644 1.376 . S
C644 H631 0.930 . S
C644 C643 1.376 . S
C644 C645 1.388 . S
C645 H632 0.930 . S
C645 C644 1.388 . S
C645 C646 1.390 . S
C646 C645 1.390 . S
C646 C647 1.394 . S
C646 C652 1.465 . S
C647 C642 1.399 . S
C647 C646 1.394 . S
C647 C648 1.516 . S
C648 C647 1.516 . S
C648 C649 1.502 . S
C648 C650 1.561 . S
C648 C651 1.526 . S
C649 H633 0.959 . S
C649 H634 0.959 . S
C649 H635 0.961 . S
C649 C648 1.502 . S
C650 H636 0.960 . S
C650 H637 0.961 . S
C650 H638 0.959 . S
C650 C648 1.561 . S
C651 C648 1.526 . S
C651 C652 1.396 . S
C651 C656 1.390 . S
C652 C646 1.465 . S
C652 C651 1.396 . S
C652 C653 1.399 . S
C653 H639 0.929 . S
C653 C652 1.399 . S
C653 C654 1.385 . S
C654 H640 0.931 . S
C654 C653 1.385 . S
C654 C655 1.389 . S
C655 C654 1.389 . S
C655 C656 1.387 . S
C656 H641 0.930 . S
C656 C651 1.390 . S
C656 C655 1.387 . S
H657 C669 0.930 . S
H658 C671 0.930 . S
H659 C672 0.930 . S
H660 C676 0.959 . S
H661 C676 0.959 . S
H662 C676 0.961 1_554 S
H663 C677 0.960 . S
H664 C677 0.961 1_556 S
H665 C677 0.959 . S
H666 C680 0.929 . S
H667 C681 0.931 . S
H668 C683 0.930 . S
C669 H657 0.930 . S
C669 C670 1.399 . S
C669 C674 1.399 . S
C670 C669 1.399 . S
C670 C671 1.376 . S
C671 H658 0.930 . S
C671 C670 1.376 . S
C671 C672 1.388 . S
C672 H659 0.930 . S
C672 C671 1.388 . S
C672 C673 1.390 . S
C673 C672 1.390 . S
C673 C674 1.394 . S
C673 C679 1.465 . S
C674 C669 1.399 . S
C674 C673 1.394 . S
C674 C675 1.516 . S
C675 C674 1.516 . S
C675 C676 1.502 1_554 S
C675 C677 1.561 . S
C675 C678 1.526 . S
C676 H660 0.959 . S
C676 H661 0.959 . S
C676 H662 0.961 1_556 S
C676 C675 1.502 1_556 S
C677 H663 0.960 . S
C677 H664 0.961 1_554 S
C677 H665 0.959 . S
C677 C675 1.561 . S
C678 C675 1.526 . S
C678 C679 1.396 . S
C678 C683 1.390 1_554 S
C679 C673 1.465 . S
C679 C678 1.396 . S
C679 C680 1.399 . S
C680 H666 0.929 . S
C680 C679 1.399 . S
C680 C681 1.385 1_554 S
C681 H667 0.931 . S
C681 C680 1.385 1_556 S
C681 C682 1.389 . S
C682 C681 1.389 . S
C682 C683 1.387 . S
C683 H668 0.930 . S
C683 C678 1.390 1_556 S
C683 C682 1.387 . S
H684 C696 0.930 . S
H685 C698 0.930 . S
H686 C699 0.930 . S
H687 C703 0.959 . S
H688 C703 0.959 . S
H689 C703 0.961 . S
H690 C704 0.960 . S
H691 C704 0.961 . S
H692 C704 0.959 . S
H693 C707 0.929 . S
H694 C708 0.931 . S
H695 C710 0.930 . S
C696 H684 0.930 . S
C696 C697 1.399 . S
C696 C701 1.399 . S
C697 C696 1.399 . S
C697 C698 1.376 . S
C698 H685 0.930 . S
C698 C697 1.376 . S
C698 C699 1.388 . S
C699 H686 0.930 . S
C699 C698 1.388 . S
C699 C700 1.390 . S
C700 C699 1.390 . S
C700 C701 1.394 . S
C700 C706 1.465 . S
C701 C696 1.399 . S
C701 C700 1.394 . S
C701 C702 1.516 . S
C702 C701 1.516 . S
C702 C703 1.502 . S
C702 C704 1.561 . S
C702 C705 1.526 . S
C703 H687 0.959 . S
C703 H688 0.959 . S
C703 H689 0.961 . S
C703 C702 1.502 . S
C704 H690 0.960 . S
C704 H691 0.961 . S
C704 H692 0.959 . S
C704 C702 1.561 . S
C705 C702 1.526 . S
C705 C706 1.396 . S
C705 C710 1.390 . S
C706 C700 1.465 . S
C706 C705 1.396 . S
C706 C707 1.399 . S
C707 H693 0.929 . S
C707 C706 1.399 . S
C707 C708 1.385 . S
C708 H694 0.931 . S
C708 C707 1.385 . S
C708 C709 1.389 . S
C709 C708 1.389 . S
C709 C710 1.387 . S
C710 H695 0.930 . S
C710 C705 1.390 . S
C710 C709 1.387 . S
H711 C723 0.930 . S
H712 C725 0.930 . S
H713 C726 0.930 . S
H714 C730 0.959 . S
H715 C730 0.959 . S
H716 C730 0.961 . S
H717 C731 0.960 . S
H718 C731 0.961 . S
H719 C731 0.959 . S
H720 C734 0.929 . S
H721 C735 0.931 . S
H722 C737 0.930 . S
C723 H711 0.930 . S
C723 C724 1.399 . S
C723 C728 1.399 1_554 S
C724 C723 1.399 . S
C724 C725 1.376 . S
C725 H712 0.930 . S
C725 C724 1.376 . S
C725 C726 1.388 1_554 S
C726 H713 0.930 . S
C726 C725 1.388 1_556 S
C726 C727 1.390 . S
C727 C726 1.390 . S
C727 C728 1.394 . S
C727 C733 1.465 . S
C728 C723 1.399 1_556 S
C728 C727 1.394 . S
C728 C729 1.516 . S
C729 C728 1.516 . S
C729 C730 1.502 . S
C729 C731 1.561 . S
C729 C732 1.526 . S
C730 H714 0.959 . S
C730 H715 0.959 . S
C730 H716 0.961 . S
C730 C729 1.502 . S
C731 H717 0.960 . S
C731 H718 0.961 . S
C731 H719 0.959 . S
C731 C729 1.561 . S
C732 C729 1.526 . S
C732 C733 1.396 . S
C732 C737 1.390 . S
C733 C727 1.465 . S
C733 C732 1.396 . S
C733 C734 1.399 . S
C734 H720 0.929 . S
C734 C733 1.399 . S
C734 C735 1.385 . S
C735 H721 0.931 . S
C735 C734 1.385 . S
C735 C736 1.389 . S
C736 C735 1.389 . S
C736 C737 1.387 . S
C737 H722 0.930 . S
C737 C732 1.390 . S
C737 C736 1.387 . S
H738 C750 0.930 . S
H739 C752 0.930 . S
H740 C753 0.930 . S
H741 C757 0.959 . S
H742 C757 0.959 . S
H743 C757 0.961 . S
H744 C758 0.960 . S
H745 C758 0.961 . S
H746 C758 0.959 . S
H747 C761 0.929 . S
H748 C762 0.931 . S
H749 C764 0.930 . S
C750 H738 0.930 . S
C750 C751 1.399 . S
C750 C755 1.399 . S
C751 C750 1.399 . S
C751 C752 1.376 . S
C752 H739 0.930 . S
C752 C751 1.376 . S
C752 C753 1.388 . S
C753 H740 0.930 . S
C753 C752 1.388 . S
C753 C754 1.390 . S
C754 C753 1.390 . S
C754 C755 1.394 . S
C754 C760 1.465 . S
C755 C750 1.399 . S
C755 C754 1.394 . S
C755 C756 1.516 . S
C756 C755 1.516 . S
C756 C757 1.502 . S
C756 C758 1.561 . S
C756 C759 1.526 . S
C757 H741 0.959 . S
C757 H742 0.959 . S
C757 H743 0.961 . S
C757 C756 1.502 . S
C758 H744 0.960 . S
C758 H745 0.961 . S
C758 H746 0.959 . S
C758 C756 1.561 . S
C759 C756 1.526 . S
C759 C760 1.396 . S
C759 C764 1.390 . S
C760 C754 1.465 . S
C760 C759 1.396 . S
C760 C761 1.399 . S
C761 H747 0.929 . S
C761 C760 1.399 . S
C761 C762 1.385 . S
C762 H748 0.931 . S
C762 C761 1.385 . S
C762 C763 1.389 . S
C763 C762 1.389 . S
C763 C764 1.387 . S
C764 H749 0.930 . S
C764 C759 1.390 . S
C764 C763 1.387 . S
H765 C777 0.930 . S
H766 C779 0.930 . S
H767 C780 0.930 . S
H768 C784 0.959 . S
H769 C784 0.959 . S
H770 C784 0.961 . S
H771 C785 0.960 . S
H772 C785 0.961 . S
H773 C785 0.959 . S
H774 C788 0.929 . S
H775 C789 0.931 . S
H776 C791 0.930 . S
C777 H765 0.930 . S
C777 C778 1.399 . S
C777 C782 1.399 . S
C778 C777 1.399 . S
C778 C779 1.376 . S
C779 H766 0.930 . S
C779 C778 1.376 . S
C779 C780 1.388 . S
C780 H767 0.930 . S
C780 C779 1.388 . S
C780 C781 1.390 . S
C781 C780 1.390 . S
C781 C782 1.394 . S
C781 C787 1.465 . S
C782 C777 1.399 . S
C782 C781 1.394 . S
C782 C783 1.516 . S
C783 C782 1.516 . S
C783 C784 1.502 . S
C783 C785 1.561 . S
C783 C786 1.526 . S
C784 H768 0.959 . S
C784 H769 0.959 . S
C784 H770 0.961 . S
C784 C783 1.502 . S
C785 H771 0.960 . S
C785 H772 0.961 . S
C785 H773 0.959 . S
C785 C783 1.561 . S
C786 C783 1.526 . S
C786 C787 1.396 . S
C786 C791 1.390 . S
C787 C781 1.465 . S
C787 C786 1.396 . S
C787 C788 1.399 . S
C788 H774 0.929 . S
C788 C787 1.399 . S
C788 C789 1.385 . S
C789 H775 0.931 . S
C789 C788 1.385 . S
C789 C790 1.389 . S
C790 C789 1.389 . S
C790 C791 1.387 . S
C791 H776 0.930 . S
C791 C786 1.390 . S
C791 C790 1.387 . S
H792 C804 0.930 . S
H793 C806 0.930 . S
H794 C807 0.930 . S
H795 C811 0.959 . S
H796 C811 0.959 . S
H797 C811 0.961 . S
H798 C812 0.960 . S
H799 C812 0.961 . S
H800 C812 0.959 . S
H801 C815 0.929 . S
H802 C816 0.931 . S
H803 C818 0.930 . S
C804 H792 0.930 . S
C804 C805 1.399 . S
C804 C809 1.399 . S
C805 C804 1.399 . S
C805 C806 1.376 . S
C806 H793 0.930 . S
C806 C805 1.376 . S
C806 C807 1.388 . S
C807 H794 0.930 . S
C807 C806 1.388 . S
C807 C808 1.390 . S
C808 C807 1.390 . S
C808 C809 1.394 . S
C808 C814 1.465 . S
C809 C804 1.399 . S
C809 C808 1.394 . S
C809 C810 1.516 . S
C810 C809 1.516 . S
C810 C811 1.502 . S
C810 C812 1.561 . S
C810 C813 1.526 . S
C811 H795 0.959 . S
C811 H796 0.959 . S
C811 H797 0.961 . S
C811 C810 1.502 . S
C812 H798 0.960 . S
C812 H799 0.961 . S
C812 H800 0.959 . S
C812 C810 1.561 . S
C813 C810 1.526 . S
C813 C814 1.396 . S
C813 C818 1.390 . S
C814 C808 1.465 . S
C814 C813 1.396 . S
C814 C815 1.399 . S
C815 H801 0.929 . S
C815 C814 1.399 . S
C815 C816 1.385 . S
C816 H802 0.931 . S
C816 C815 1.385 . S
C816 C817 1.389 . S
C817 C816 1.389 . S
C817 C818 1.387 . S
C818 H803 0.930 . S
C818 C813 1.390 . S
C818 C817 1.387 . S
H819 C831 0.930 . S
H820 C833 0.930 . S
H821 C834 0.930 . S
H822 C838 0.959 . S
H823 C838 0.959 1_565 S
H824 C838 0.961 . S
H825 C839 0.960 1_545 S
H826 C839 0.961 . S
H827 C839 0.959 . S
H828 C842 0.929 . S
H829 C843 0.931 . S
H830 C845 0.930 . S
C831 H819 0.930 . S
C831 C832 1.399 . S
C831 C836 1.399 . S
C832 C831 1.399 . S
C832 C833 1.376 . S
C833 H820 0.930 . S
C833 C832 1.376 . S
C833 C834 1.388 . S
C834 H821 0.930 . S
C834 C833 1.388 . S
C834 C835 1.390 . S
C835 C834 1.390 . S
C835 C836 1.394 . S
C835 C841 1.465 . S
C836 C831 1.399 . S
C836 C835 1.394 . S
C836 C837 1.516 . S
C837 C836 1.516 . S
C837 C838 1.502 . S
C837 C839 1.561 1_545 S
C837 C840 1.526 . S
C838 H822 0.959 . S
C838 H823 0.959 1_545 S
C838 H824 0.961 . S
C838 C837 1.502 . S
C839 H825 0.960 1_565 S
C839 H826 0.961 . S
C839 H827 0.959 . S
C839 C837 1.561 1_565 S
C840 C837 1.526 . S
C840 C841 1.396 . S
C840 C845 1.390 1_545 S
C841 C835 1.465 . S
C841 C840 1.396 . S
C841 C842 1.399 . S
C842 H828 0.929 . S
C842 C841 1.399 . S
C842 C843 1.385 1_545 S
C843 H829 0.931 . S
C843 C842 1.385 1_565 S
C843 C844 1.389 . S
C844 C843 1.389 . S
C844 C845 1.387 . S
C845 H830 0.930 . S
C845 C840 1.390 1_565 S
C845 C844 1.387 . S
H846 C858 0.930 . S
H847 C860 0.930 . S
H848 C861 0.930 . S
H849 C865 0.959 . S
H850 C865 0.959 . S
H851 C865 0.961 . S
H852 C866 0.960 . S
H853 C866 0.961 . S
H854 C866 0.959 . S
H855 C869 0.929 . S
H856 C870 0.931 . S
H857 C872 0.930 . S
C858 H846 0.930 . S
C858 C859 1.399 . S
C858 C863 1.399 . S
C859 C858 1.399 . S
C859 C860 1.376 . S
C860 H847 0.930 . S
C860 C859 1.376 . S
C860 C861 1.388 . S
C861 H848 0.930 . S
C861 C860 1.388 . S
C861 C862 1.390 . S
C862 C861 1.390 . S
C862 C863 1.394 . S
C862 C868 1.465 . S
C863 C858 1.399 . S
C863 C862 1.394 . S
C863 C864 1.516 . S
C864 C863 1.516 . S
C864 C865 1.502 . S
C864 C866 1.561 . S
C864 C867 1.526 . S
C865 H849 0.959 . S
C865 H850 0.959 . S
C865 H851 0.961 . S
C865 C864 1.502 . S
C866 H852 0.960 . S
C866 H853 0.961 . S
C866 H854 0.959 . S
C866 C864 1.561 . S
C867 C864 1.526 . S
C867 C868 1.396 . S
C867 C872 1.390 . S
C868 C862 1.465 . S
C868 C867 1.396 . S
C868 C869 1.399 . S
C869 H855 0.929 . S
C869 C868 1.399 . S
C869 C870 1.385 . S
C870 H856 0.931 . S
C870 C869 1.385 . S
C870 C871 1.389 . S
C871 C870 1.389 . S
C871 C872 1.387 . S
C872 H857 0.930 . S
C872 C867 1.390 . S
C872 C871 1.387 . S
H873 C885 0.930 . S
H874 C887 0.930 . S
H875 C888 0.930 . S
H876 C892 0.959 . S
H877 C892 0.959 . S
H878 C892 0.961 1_545 S
H879 C893 0.960 . S
H880 C893 0.961 . S
H881 C893 0.959 . S
H882 C896 0.929 . S
H883 C897 0.931 . S
H884 C899 0.930 . S
C885 H873 0.930 . S
C885 C886 1.399 . S
C885 C890 1.399 1_545 S
C886 C885 1.399 . S
C886 C887 1.376 . S
C887 H874 0.930 . S
C887 C886 1.376 . S
C887 C888 1.388 1_545 S
C888 H875 0.930 . S
C888 C887 1.388 1_565 S
C888 C889 1.390 . S
C889 C888 1.390 . S
C889 C890 1.394 . S
C889 C895 1.465 . S
C890 C885 1.399 1_565 S
C890 C889 1.394 . S
C890 C891 1.516 . S
C891 C890 1.516 . S
C891 C892 1.502 . S
C891 C893 1.561 . S
C891 C894 1.526 . S
C892 H876 0.959 . S
C892 H877 0.959 . S
C892 H878 0.961 1_565 S
C892 C891 1.502 . S
C893 H879 0.960 . S
C893 H880 0.961 . S
C893 H881 0.959 . S
C893 C891 1.561 . S
C894 C891 1.526 . S
C894 C895 1.396 . S
C894 C899 1.390 . S
C895 C889 1.465 . S
C895 C894 1.396 . S
C895 C896 1.399 . S
C896 H882 0.929 . S
C896 C895 1.399 . S
C896 C897 1.385 . S
C897 H883 0.931 . S
C897 C896 1.385 . S
C897 C898 1.389 . S
C898 C897 1.389 . S
C898 C899 1.387 . S
C899 H884 0.930 . S
C899 C894 1.390 . S
C899 C898 1.387 . S
H900 C912 0.930 . S
H901 C914 0.930 . S
H902 C915 0.930 . S
H903 C919 0.959 . S
H904 C919 0.959 . S
H905 C919 0.961 . S
H906 C920 0.960 . S
H907 C920 0.961 . S
H908 C920 0.959 . S
H909 C923 0.929 . S
H910 C924 0.931 . S
H911 C926 0.930 . S
C912 H900 0.930 . S
C912 C913 1.399 . S
C912 C917 1.399 . S
C913 C912 1.399 . S
C913 C914 1.376 . S
C914 H901 0.930 . S
C914 C913 1.376 . S
C914 C915 1.388 . S
C915 H902 0.930 . S
C915 C914 1.388 . S
C915 C916 1.390 . S
C916 C915 1.390 . S
C916 C917 1.394 . S
C916 C922 1.465 . S
C917 C912 1.399 . S
C917 C916 1.394 . S
C917 C918 1.516 . S
C918 C917 1.516 . S
C918 C919 1.502 . S
C918 C920 1.561 . S
C918 C921 1.526 . S
C919 H903 0.959 . S
C919 H904 0.959 . S
C919 H905 0.961 . S
C919 C918 1.502 . S
C920 H906 0.960 . S
C920 H907 0.961 . S
C920 H908 0.959 . S
C920 C918 1.561 . S
C921 C918 1.526 . S
C921 C922 1.396 . S
C921 C926 1.390 . S
C922 C916 1.465 . S
C922 C921 1.396 . S
C922 C923 1.399 . S
C923 H909 0.929 . S
C923 C922 1.399 . S
C923 C924 1.385 . S
C924 H910 0.931 . S
C924 C923 1.385 . S
C924 C925 1.389 . S
C925 C924 1.389 . S
C925 C926 1.387 . S
C926 H911 0.930 . S
C926 C921 1.390 . S
C926 C925 1.387 . S
H927 C939 0.930 . S
H928 C941 0.930 . S
H929 C942 0.930 . S
H930 C946 0.959 . S
H931 C946 0.959 . S
H932 C946 0.961 . S
H933 C947 0.960 . S
H934 C947 0.961 . S
H935 C947 0.959 . S
H936 C950 0.929 . S
H937 C951 0.931 . S
H938 C953 0.930 . S
C939 H927 0.930 . S
C939 C940 1.399 . S
C939 C944 1.399 . S
C940 C939 1.399 . S
C940 C941 1.376 . S
C941 H928 0.930 . S
C941 C940 1.376 . S
C941 C942 1.388 . S
C942 H929 0.930 . S
C942 C941 1.388 . S
C942 C943 1.390 . S
C943 C942 1.390 . S
C943 C944 1.394 . S
C943 C949 1.465 . S
C944 C939 1.399 . S
C944 C943 1.394 . S
C944 C945 1.516 . S
C945 C944 1.516 . S
C945 C946 1.502 . S
C945 C947 1.561 . S
C945 C948 1.526 . S
C946 H930 0.959 . S
C946 H931 0.959 . S
C946 H932 0.961 . S
C946 C945 1.502 . S
C947 H933 0.960 . S
C947 H934 0.961 . S
C947 H935 0.959 . S
C947 C945 1.561 . S
C948 C945 1.526 . S
C948 C949 1.396 . S
C948 C953 1.390 . S
C949 C943 1.465 . S
C949 C948 1.396 . S
C949 C950 1.399 . S
C950 H936 0.929 . S
C950 C949 1.399 . S
C950 C951 1.385 . S
C951 H937 0.931 . S
C951 C950 1.385 . S
C951 C952 1.389 . S
C952 C951 1.389 . S
C952 C953 1.387 . S
C953 H938 0.930 . S
C953 C948 1.390 . S
C953 C952 1.387 . S
H954 C966 0.930 . S
H955 C968 0.930 . S
H956 C969 0.930 . S
H957 C973 0.959 . S
H958 C973 0.959 . S
H959 C973 0.961 . S
H960 C974 0.960 . S
H961 C974 0.961 . S
H962 C974 0.959 . S
H963 C977 0.929 . S
H964 C978 0.931 . S
H965 C980 0.930 . S
C966 H954 0.930 . S
C966 C967 1.399 . S
C966 C971 1.399 . S
C967 C966 1.399 . S
C967 C968 1.376 . S
C968 H955 0.930 . S
C968 C967 1.376 . S
C968 C969 1.388 . S
C969 H956 0.930 . S
C969 C968 1.388 . S
C969 C970 1.390 . S
C970 C969 1.390 . S
C970 C971 1.394 . S
C970 C976 1.465 . S
C971 C966 1.399 . S
C971 C970 1.394 . S
C971 C972 1.516 . S
C972 C971 1.516 . S
C972 C973 1.502 . S
C972 C974 1.561 . S
C972 C975 1.526 . S
C973 H957 0.959 . S
C973 H958 0.959 . S
C973 H959 0.961 . S
C973 C972 1.502 . S
C974 H960 0.960 . S
C974 H961 0.961 . S
C974 H962 0.959 . S
C974 C972 1.561 . S
C975 C972 1.526 . S
C975 C976 1.396 . S
C975 C980 1.390 . S
C976 C970 1.465 . S
C976 C975 1.396 . S
C976 C977 1.399 . S
C977 H963 0.929 . S
C977 C976 1.399 . S
C977 C978 1.385 . S
C978 H964 0.931 . S
C978 C977 1.385 . S
C978 C979 1.389 . S
C979 C978 1.389 . S
C979 C980 1.387 . S
C980 H965 0.930 . S
C980 C975 1.390 . S
C980 C979 1.387 . S
H981 C993 0.930 . S
H982 C995 0.930 . S
H983 C996 0.930 . S
H984 C1000 0.959 . S
H985 C1000 0.959 . S
H986 C1000 0.961 . S
H987 C1001 0.960 . S
H988 C1001 0.961 . S
H989 C1001 0.959 . S
H990 C1004 0.929 . S
H991 C1005 0.931 . S
H992 C1007 0.930 . S
C993 H981 0.930 . S
C993 C994 1.399 . S
C993 C998 1.399 . S
C994 C993 1.399 . S
C994 C995 1.376 . S
C995 H982 0.930 . S
C995 C994 1.376 . S
C995 C996 1.388 . S
C996 H983 0.930 . S
C996 C995 1.388 . S
C996 C997 1.390 . S
C997 C996 1.390 . S
C997 C998 1.394 . S
C997 C1003 1.465 . S
C998 C993 1.399 . S
C998 C997 1.394 . S
C998 C999 1.516 . S
C999 C998 1.516 . S
C999 C1000 1.502 . S
C999 C1001 1.561 . S
C999 C1002 1.526 . S
C1000 H984 0.959 . S
C1000 H985 0.959 . S
C1000 H986 0.961 . S
C1000 C999 1.502 . S
C1001 H987 0.960 . S
C1001 H988 0.961 . S
C1001 H989 0.959 . S
C1001 C999 1.561 . S
C1002 C999 1.526 . S
C1002 C1003 1.396 . S
C1002 C1007 1.390 . S
C1003 C997 1.465 . S
C1003 C1002 1.396 . S
C1003 C1004 1.399 . S
C1004 H990 0.929 . S
C1004 C1003 1.399 . S
C1004 C1005 1.385 . S
C1005 H991 0.931 . S
C1005 C1004 1.385 . S
C1005 C1006 1.389 . S
C1006 C1005 1.389 . S
C1006 C1007 1.387 . S
C1007 H992 0.930 . S
C1007 C1002 1.390 . S
C1007 C1006 1.387 . S
H1008 C1020 0.930 . S
H1009 C1022 0.930 . S
H1010 C1023 0.930 . S
H1011 C1027 0.959 . S
H1012 C1027 0.959 . S
H1013 C1027 0.961 . S
H1014 C1028 0.960 . S
H1015 C1028 0.961 . S
H1016 C1028 0.959 . S
H1017 C1031 0.929 . S
H1018 C1032 0.931 . S
H1019 C1034 0.930 . S
C1020 H1008 0.930 . S
C1020 C1021 1.399 . S
C1020 C1025 1.399 . S
C1021 C1020 1.399 . S
C1021 C1022 1.376 . S
C1022 H1009 0.930 . S
C1022 C1021 1.376 . S
C1022 C1023 1.388 . S
C1023 H1010 0.930 . S
C1023 C1022 1.388 . S
C1023 C1024 1.390 . S
C1024 C1023 1.390 . S
C1024 C1025 1.394 . S
C1024 C1030 1.465 . S
C1025 C1020 1.399 . S
C1025 C1024 1.394 . S
C1025 C1026 1.516 . S
C1026 C1025 1.516 . S
C1026 C1027 1.502 . S
C1026 C1028 1.561 . S
C1026 C1029 1.526 . S
C1027 H1011 0.959 . S
C1027 H1012 0.959 . S
C1027 H1013 0.961 . S
C1027 C1026 1.502 . S
C1028 H1014 0.960 . S
C1028 H1015 0.961 . S
C1028 H1016 0.959 . S
C1028 C1026 1.561 . S
C1029 C1026 1.526 . S
C1029 C1030 1.396 . S
C1029 C1034 1.390 . S
C1030 C1024 1.465 . S
C1030 C1029 1.396 . S
C1030 C1031 1.399 . S
C1031 H1017 0.929 . S
C1031 C1030 1.399 . S
C1031 C1032 1.385 . S
C1032 H1018 0.931 . S
C1032 C1031 1.385 . S
C1032 C1033 1.389 . S
C1033 C1032 1.389 . S
C1033 C1034 1.387 . S
C1034 H1019 0.930 . S
C1034 C1029 1.390 . S
C1034 C1033 1.387 . S
H1035 C1047 0.930 . S
H1036 C1049 0.930 . S
H1037 C1050 0.930 . S
H1038 C1054 0.959 . S
H1039 C1054 0.959 . S
H1040 C1054 0.961 . S
H1041 C1055 0.960 . S
H1042 C1055 0.961 . S
H1043 C1055 0.959 . S
H1044 C1058 0.929 . S
H1045 C1059 0.931 . S
H1046 C1061 0.930 . S
C1047 H1035 0.930 . S
C1047 C1048 1.399 . S
C1047 C1052 1.399 . S
C1048 C1047 1.399 . S
C1048 C1049 1.376 . S
C1049 H1036 0.930 . S
C1049 C1048 1.376 . S
C1049 C1050 1.388 . S
C1050 H1037 0.930 . S
C1050 C1049 1.388 . S
C1050 C1051 1.390 . S
C1051 C1050 1.390 . S
C1051 C1052 1.394 . S
C1051 C1057 1.465 . S
C1052 C1047 1.399 . S
C1052 C1051 1.394 . S
C1052 C1053 1.516 . S
C1053 C1052 1.516 . S
C1053 C1054 1.502 . S
C1053 C1055 1.561 . S
C1053 C1056 1.526 . S
C1054 H1038 0.959 . S
C1054 H1039 0.959 . S
C1054 H1040 0.961 . S
C1054 C1053 1.502 . S
C1055 H1041 0.960 . S
C1055 H1042 0.961 . S
C1055 H1043 0.959 . S
C1055 C1053 1.561 . S
C1056 C1053 1.526 . S
C1056 C1057 1.396 . S
C1056 C1061 1.390 . S
C1057 C1051 1.465 . S
C1057 C1056 1.396 . S
C1057 C1058 1.399 . S
C1058 H1044 0.929 . S
C1058 C1057 1.399 . S
C1058 C1059 1.385 . S
C1059 H1045 0.931 . S
C1059 C1058 1.385 . S
C1059 C1060 1.389 . S
C1060 C1059 1.389 . S
C1060 C1061 1.387 . S
C1061 H1046 0.930 . S
C1061 C1056 1.390 . S
C1061 C1060 1.387 . S
H1062 C1074 0.930 . S
H1063 C1076 0.930 . S
H1064 C1077 0.930 . S
H1065 C1081 0.959 . S
H1066 C1081 0.959 1_655 S
H1067 C1081 0.961 . S
H1068 C1082 0.960 . S
H1069 C1082 0.961 . S
H1070 C1082 0.959 . S
H1071 C1085 0.929 . S
H1072 C1086 0.931 . S
H1073 C1088 0.930 . S
C1074 H1062 0.930 . S
C1074 C1075 1.399 . S
C1074 C1079 1.399 . S
C1075 C1074 1.399 . S
C1075 C1076 1.376 . S
C1076 H1063 0.930 . S
C1076 C1075 1.376 . S
C1076 C1077 1.388 . S
C1077 H1064 0.930 . S
C1077 C1076 1.388 . S
C1077 C1078 1.390 . S
C1078 C1077 1.390 . S
C1078 C1079 1.394 . S
C1078 C1084 1.465 . S
C1079 C1074 1.399 . S
C1079 C1078 1.394 . S
C1079 C1080 1.516 . S
C1080 C1079 1.516 . S
C1080 C1081 1.502 . S
C1080 C1082 1.561 . S
C1080 C1083 1.526 . S
C1081 H1065 0.959 . S
C1081 H1066 0.959 1_455 S
C1081 H1067 0.961 . S
C1081 C1080 1.502 . S
C1082 H1068 0.960 . S
C1082 H1069 0.961 . S
C1082 H1070 0.959 . S
C1082 C1080 1.561 . S
C1083 C1080 1.526 . S
C1083 C1084 1.396 . S
C1083 C1088 1.390 1_455 S
C1084 C1078 1.465 . S
C1084 C1083 1.396 . S
C1084 C1085 1.399 . S
C1085 H1071 0.929 . S
C1085 C1084 1.399 . S
C1085 C1086 1.385 1_455 S
C1086 H1072 0.931 . S
C1086 C1085 1.385 1_655 S
C1086 C1087 1.389 . S
C1087 C1086 1.389 . S
C1087 C1088 1.387 . S
C1088 H1073 0.930 . S
C1088 C1083 1.390 1_655 S
C1088 C1087 1.387 . S
H1089 C1101 0.930 . S
H1090 C1103 0.930 . S
H1091 C1104 0.930 . S
H1092 C1108 0.959 . S
H1093 C1108 0.959 . S
H1094 C1108 0.961 . S
H1095 C1109 0.960 . S
H1096 C1109 0.961 . S
H1097 C1109 0.959 . S
H1098 C1112 0.929 . S
H1099 C1113 0.931 . S
H1100 C1115 0.930 . S
C1101 H1089 0.930 . S
C1101 C1102 1.399 . S
C1101 C1106 1.399 . S
C1102 C1101 1.399 . S
C1102 C1103 1.376 . S
C1103 H1090 0.930 . S
C1103 C1102 1.376 . S
C1103 C1104 1.388 . S
C1104 H1091 0.930 . S
C1104 C1103 1.388 . S
C1104 C1105 1.390 . S
C1105 C1104 1.390 . S
C1105 C1106 1.394 . S
C1105 C1111 1.465 . S
C1106 C1101 1.399 . S
C1106 C1105 1.394 . S
C1106 C1107 1.516 . S
C1107 C1106 1.516 . S
C1107 C1108 1.502 . S
C1107 C1109 1.561 . S
C1107 C1110 1.526 . S
C1108 H1092 0.959 . S
C1108 H1093 0.959 . S
C1108 H1094 0.961 . S
C1108 C1107 1.502 . S
C1109 H1095 0.960 . S
C1109 H1096 0.961 . S
C1109 H1097 0.959 . S
C1109 C1107 1.561 . S
C1110 C1107 1.526 . S
C1110 C1111 1.396 . S
C1110 C1115 1.390 . S
C1111 C1105 1.465 . S
C1111 C1110 1.396 . S
C1111 C1112 1.399 . S
C1112 H1098 0.929 . S
C1112 C1111 1.399 . S
C1112 C1113 1.385 . S
C1113 H1099 0.931 . S
C1113 C1112 1.385 . S
C1113 C1114 1.389 . S
C1114 C1113 1.389 . S
C1114 C1115 1.387 . S
C1115 H1100 0.930 . S
C1115 C1110 1.390 . S
C1115 C1114 1.387 . S
H1116 C1128 0.930 . S
H1117 C1130 0.930 . S
H1118 C1131 0.930 . S
H1119 C1135 0.959 . S
H1120 C1135 0.959 . S
H1121 C1135 0.961 . S
H1122 C1136 0.960 . S
H1123 C1136 0.961 . S
H1124 C1136 0.959 . S
H1125 C1139 0.929 . S
H1126 C1140 0.931 . S
H1127 C1142 0.930 . S
C1128 H1116 0.930 . S
C1128 C1129 1.399 . S
C1128 C1133 1.399 . S
C1129 C1128 1.399 . S
C1129 C1130 1.376 . S
C1130 H1117 0.930 . S
C1130 C1129 1.376 . S
C1130 C1131 1.388 . S
C1131 H1118 0.930 . S
C1131 C1130 1.388 . S
C1131 C1132 1.390 . S
C1132 C1131 1.390 . S
C1132 C1133 1.394 . S
C1132 C1138 1.465 . S
C1133 C1128 1.399 . S
C1133 C1132 1.394 . S
C1133 C1134 1.516 . S
C1134 C1133 1.516 . S
C1134 C1135 1.502 . S
C1134 C1136 1.561 . S
C1134 C1137 1.526 . S
C1135 H1119 0.959 . S
C1135 H1120 0.959 . S
C1135 H1121 0.961 . S
C1135 C1134 1.502 . S
C1136 H1122 0.960 . S
C1136 H1123 0.961 . S
C1136 H1124 0.959 . S
C1136 C1134 1.561 . S
C1137 C1134 1.526 . S
C1137 C1138 1.396 . S
C1137 C1142 1.390 . S
C1138 C1132 1.465 . S
C1138 C1137 1.396 . S
C1138 C1139 1.399 . S
C1139 H1125 0.929 . S
C1139 C1138 1.399 . S
C1139 C1140 1.385 . S
C1140 H1126 0.931 . S
C1140 C1139 1.385 . S
C1140 C1141 1.389 . S
C1141 C1140 1.389 . S
C1141 C1142 1.387 . S
C1142 H1127 0.930 . S
C1142 C1137 1.390 . S
C1142 C1141 1.387 . S
H1143 C1155 0.930 . S
H1144 C1157 0.930 . S
H1145 C1158 0.930 . S
H1146 C1162 0.959 . S
H1147 C1162 0.959 . S
H1148 C1162 0.961 . S
H1149 C1163 0.960 . S
H1150 C1163 0.961 . S
H1151 C1163 0.959 . S
H1152 C1166 0.929 . S
H1153 C1167 0.931 . S
H1154 C1169 0.930 . S
C1155 H1143 0.930 . S
C1155 C1156 1.399 . S
C1155 C1160 1.399 . S
C1156 C1155 1.399 . S
C1156 C1157 1.376 . S
C1157 H1144 0.930 . S
C1157 C1156 1.376 . S
C1157 C1158 1.388 . S
C1158 H1145 0.930 . S
C1158 C1157 1.388 . S
C1158 C1159 1.390 . S
C1159 C1158 1.390 . S
C1159 C1160 1.394 . S
C1159 C1165 1.465 . S
C1160 C1155 1.399 . S
C1160 C1159 1.394 . S
C1160 C1161 1.516 . S
C1161 C1160 1.516 . S
C1161 C1162 1.502 . S
C1161 C1163 1.561 . S
C1161 C1164 1.526 . S
C1162 H1146 0.959 . S
C1162 H1147 0.959 . S
C1162 H1148 0.961 . S
C1162 C1161 1.502 . S
C1163 H1149 0.960 . S
C1163 H1150 0.961 . S
C1163 H1151 0.959 . S
C1163 C1161 1.561 . S
C1164 C1161 1.526 . S
C1164 C1165 1.396 . S
C1164 C1169 1.390 . S
C1165 C1159 1.465 . S
C1165 C1164 1.396 . S
C1165 C1166 1.399 . S
C1166 H1152 0.929 . S
C1166 C1165 1.399 . S
C1166 C1167 1.385 . S
C1167 H1153 0.931 . S
C1167 C1166 1.385 . S
C1167 C1168 1.389 . S
C1168 C1167 1.389 . S
C1168 C1169 1.387 . S
C1169 H1154 0.930 . S
C1169 C1164 1.390 . S
C1169 C1168 1.387 . S
H1170 C1182 0.930 . S
H1171 C1184 0.930 . S
H1172 C1185 0.930 . S
H1173 C1189 0.959 . S
H1174 C1189 0.959 . S
H1175 C1189 0.961 . S
H1176 C1190 0.960 . S
H1177 C1190 0.961 . S
H1178 C1190 0.959 . S
H1179 C1193 0.929 . S
H1180 C1194 0.931 1_545 S
H1181 C1196 0.930 . S
C1182 H1170 0.930 . S
C1182 C1183 1.399 . S
C1182 C1187 1.399 . S
C1183 C1182 1.399 . S
C1183 C1184 1.376 . S
C1184 H1171 0.930 . S
C1184 C1183 1.376 . S
C1184 C1185 1.388 . S
C1185 H1172 0.930 . S
C1185 C1184 1.388 . S
C1185 C1186 1.390 . S
C1186 C1185 1.390 . S
C1186 C1187 1.394 . S
C1186 C1192 1.465 . S
C1187 C1182 1.399 . S
C1187 C1186 1.394 . S
C1187 C1188 1.516 . S
C1188 C1187 1.516 . S
C1188 C1189 1.502 . S
C1188 C1190 1.561 . S
C1188 C1191 1.526 . S
C1189 H1173 0.959 . S
C1189 H1174 0.959 . S
C1189 H1175 0.961 . S
C1189 C1188 1.502 . S
C1190 H1176 0.960 . S
C1190 H1177 0.961 . S
C1190 H1178 0.959 . S
C1190 C1188 1.561 . S
C1191 C1188 1.526 . S
C1191 C1192 1.396 . S
C1191 C1196 1.390 . S
C1192 C1186 1.465 . S
C1192 C1191 1.396 . S
C1192 C1193 1.399 . S
C1193 H1179 0.929 . S
C1193 C1192 1.399 . S
C1193 C1194 1.385 . S
C1194 H1180 0.931 1_565 S
C1194 C1193 1.385 . S
C1194 C1195 1.389 . S
C1195 C1194 1.389 . S
C1195 C1196 1.387 . S
C1196 H1181 0.930 . S
C1196 C1191 1.390 . S
C1196 C1195 1.387 . S
H1197 C1209 0.930 . S
H1198 C1211 0.930 . S
H1199 C1212 0.930 . S
H1200 C1216 0.959 . S
H1201 C1216 0.959 . S
H1202 C1216 0.961 . S
H1203 C1217 0.960 . S
H1204 C1217 0.961 . S
H1205 C1217 0.959 . S
H1206 C1220 0.929 . S
H1207 C1221 0.931 . S
H1208 C1223 0.930 . S
C1209 H1197 0.930 . S
C1209 C1210 1.399 . S
C1209 C1214 1.399 . S
C1210 C1209 1.399 . S
C1210 C1211 1.376 . S
C1211 H1198 0.930 . S
C1211 C1210 1.376 . S
C1211 C1212 1.388 . S
C1212 H1199 0.930 . S
C1212 C1211 1.388 . S
C1212 C1213 1.390 . S
C1213 C1212 1.390 . S
C1213 C1214 1.394 . S
C1213 C1219 1.465 . S
C1214 C1209 1.399 . S
C1214 C1213 1.394 . S
C1214 C1215 1.516 . S
C1215 C1214 1.516 . S
C1215 C1216 1.502 . S
C1215 C1217 1.561 . S
C1215 C1218 1.526 . S
C1216 H1200 0.959 . S
C1216 H1201 0.959 . S
C1216 H1202 0.961 . S
C1216 C1215 1.502 . S
C1217 H1203 0.960 . S
C1217 H1204 0.961 . S
C1217 H1205 0.959 . S
C1217 C1215 1.561 . S
C1218 C1215 1.526 . S
C1218 C1219 1.396 . S
C1218 C1223 1.390 1_655 S
C1219 C1213 1.465 . S
C1219 C1218 1.396 . S
C1219 C1220 1.399 1_655 S
C1220 H1206 0.929 . S
C1220 C1219 1.399 1_455 S
C1220 C1221 1.385 . S
C1221 H1207 0.931 . S
C1221 C1220 1.385 . S
C1221 C1222 1.389 . S
C1222 C1221 1.389 . S
C1222 C1223 1.387 . S
C1223 H1208 0.930 . S
C1223 C1218 1.390 1_455 S
C1223 C1222 1.387 . S
C265 C18 1.181 . S
C277 C248 1.202 . S
C292 C206 1.189 . S
C304 C38 1.263 . S
C319 C59 1.173 . S
C331 C186 1.121 . S
C346 C80 1.177 . S
C358 C228 1.123 . S
C373 C101 1.194 . S
C385 C227 1.205 . S
C400 C123 1.249 . S
C412 C249 1.212 . S
C427 C207 1.227 . S
C439 C144 1.175 1_554 S
C454 C165 1.165 . S
C466 C185 1.220 . S
C481 C81 1.189 . S
C493 C102 1.235 . S
C508 C17 1.205 . S
C520 C122 1.194 . S
C535 C39 1.227 . S
C547 C143 1.276 . S
C562 C164 1.166 . S
C574 C60 1.148 . S
C589 C14 1.194 . S
C601 C183 1.172 . S
C616 C37 1.199 . S
C628 C225 1.198 . S
C643 C244 1.192 . S
C655 C58 1.167 . S
C670 C79 1.144 . S
C682 C202 1.196 . S
C697 C100 1.117 . S
C709 C204 0.984 . S
C724 C181 1.237 . S
C736 C119 1.181 . S
C751 C223 1.263 . S
C763 C140 1.249 . S
C778 C246 1.106 . S
C790 C161 1.161 . S
C805 C13 1.234 . S
C817 C77 1.177 . S
C832 C16 1.214 . S
C844 C36 1.105 . S
C859 C35 1.211 . S
C871 C57 1.107 . S
C886 C78 1.122 . S
C898 C56 1.246 . S
C913 C121 1.087 . S
C925 C99 1.091 . S
C940 C118 1.180 . S
C952 C142 1.141 . S
C967 C139 1.151 . S
C979 C163 1.195 . S
C994 C98 1.128 . S
C1006 C160 1.181 . S
C1021 C184 1.166 . S
C1033 C76 1.192 . S
C1048 C120 1.074 . S
C1060 C205 1.118 . S
C1075 C182 1.238 . S
C1087 C141 1.223 . S
C1102 C224 1.195 . S
C1114 C162 1.120 . S
C1129 C97 1.201 . S
C1141 C247 1.163 . S
C1156 C245 1.265 . S
C1168 C34 1.275 . S
C1183 C55 1.195 . S
C1195 C203 1.112 . S
C1210 C226 1.254 . S
C1222 C15 1.054 . S
