# Generated by pormake.
# Topology rac, (4)-cn, num edge types: 1
# Building blocks:
#     Node 0, Type 0, BuildingBlock: ICAMEG_clean_sbu_1, # of connection points: 4
#     Node 1, Type 0, BuildingBlock: ICAMEG_clean_sbu_1, # of connection points: 4
#     Node 2, Type 0, BuildingBlock: ICAMEG_clean_sbu_1, # of connection points: 4
#     Node 3, Type 0, BuildingBlock: ICAMEG_clean_sbu_1, # of connection points: 4
#     Node 4, Type 0, BuildingBlock: ICAMEG_clean_sbu_1, # of connection points: 4
#     Node 5, Type 0, BuildingBlock: ICAMEG_clean_sbu_1, # of connection points: 4
#     Node 6, Type 0, BuildingBlock: ICAMEG_clean_sbu_1, # of connection points: 4
#     Node 7, Type 0, BuildingBlock: ICAMEG_clean_sbu_1, # of connection points: 4
#     Edge 8, Type (0, 0), BuildingBlock: UVAHIK_clean_linker_0, # of connection points: 2
#     Edge 9, Type (0, 0), BuildingBlock: UVAHIK_clean_linker_0, # of connection points: 2
#     Edge 10, Type (0, 0), BuildingBlock: UVAHIK_clean_linker_0, # of connection points: 2
#     Edge 11, Type (0, 0), BuildingBlock: UVAHIK_clean_linker_0, # of connection points: 2
#     Edge 12, Type (0, 0), BuildingBlock: UVAHIK_clean_linker_0, # of connection points: 2
#     Edge 13, Type (0, 0), BuildingBlock: UVAHIK_clean_linker_0, # of connection points: 2
#     Edge 14, Type (0, 0), BuildingBlock: UVAHIK_clean_linker_0, # of connection points: 2
#     Edge 15, Type (0, 0), BuildingBlock: UVAHIK_clean_linker_0, # of connection points: 2
#     Edge 16, Type (0, 0), BuildingBlock: UVAHIK_clean_linker_0, # of connection points: 2
#     Edge 17, Type (0, 0), BuildingBlock: UVAHIK_clean_linker_0, # of connection points: 2
#     Edge 18, Type (0, 0), BuildingBlock: UVAHIK_clean_linker_0, # of connection points: 2
#     Edge 19, Type (0, 0), BuildingBlock: UVAHIK_clean_linker_0, # of connection points: 2
#     Edge 20, Type (0, 0), BuildingBlock: UVAHIK_clean_linker_0, # of connection points: 2
#     Edge 21, Type (0, 0), BuildingBlock: UVAHIK_clean_linker_0, # of connection points: 2
#     Edge 22, Type (0, 0), BuildingBlock: UVAHIK_clean_linker_0, # of connection points: 2
#     Edge 23, Type (0, 0), BuildingBlock: UVAHIK_clean_linker_0, # of connection points: 2
# Relax obj value: 0.287
# Max RMSD: 0.137
# Mean RMSD: 0.137
data_MOF--net-rac--node1-ICAMEG_clean_sbu_1--edge1-UVAHIK_clean_linker_0
_symmetry_space_group_name_H-M    P1
_symmetry_Int_Tables_number       1
_symmetry_cell_setting            triclinic
loop_
_symmetry_equiv_pos_as_xyz
'x, y, z'
_cell_length_a     58.752381
_cell_length_b     26.324309
_cell_length_c     52.477977
_cell_angle_alpha  90.044773
_cell_angle_beta   89.989938
_cell_angle_gamma 89.979655
loop_
_atom_site_label
_atom_site_type_symbol
_atom_site_fract_x
_atom_site_fract_y
_atom_site_fract_z
_atom_type_partial_charge
Co0 Co 0.33773 0.3173 0.07145 0.0
Co1 Co 0.37065 0.26228 0.02462 0.0
O2 O 0.36705 0.29796 0.05708 0.0
C3 C 0.36043 0.26264 0.11389 0.0
O4 O 0.36624 0.22683 0.09772 0.0
C5 C 0.39827 0.35469 0.01954 0.0
O6 O 0.38002 0.37904 0.02723 0.0
O7 O 0.35055 0.31167 0.00674 0.0
O8 O 0.32561 0.33487 0.03712 0.0
H9 H 0.34433 0.18166 0.94297 0.0
H10 H 0.37998 0.36299 0.09214 0.0
O11 O 0.34908 0.30099 0.10636 0.0
H12 H 0.33432 0.5073 0.0609 0.0
H13 H 0.28645 0.39872 0.13665 0.0
H14 H 0.28963 0.2989 0.05716 0.0
H15 H 0.31956 0.41982 0.05803 0.0
H16 H 0.32338 0.37548 0.11756 0.0
O17 O 0.3977 0.30651 0.0169 0.0
H18 H 0.33949 0.22616 0.98401 0.0
H19 H 0.41097 0.22435 0.99594 0.0
H20 H 0.25231 0.32164 0.07549 0.0
H21 H 0.39529 0.44996 0.09562 0.0
H22 H 0.25057 0.37191 0.11552 0.0
H23 H 0.37244 0.52282 0.07982 0.0
O24 O 0.32638 0.24669 0.06758 0.0
H25 H 0.43467 0.21047 0.08255 0.0
H26 H 0.37299 0.1492 0.02672 0.0
H27 H 0.39713 0.08721 0.04933 0.0
H28 H 0.42825 0.11776 0.07745 0.0
H29 H 0.41 0.27115 0.05977 0.0
H30 H 0.41663 0.18025 0.95491 0.0
H31 H 0.38313 0.15842 0.92818 0.0
O32 O 0.34352 0.218 0.03198 0.0
C33 C 0.33248 0.33394 0.01413 0.0
C34 C 0.35905 0.1908 0.95449 0.0
C35 C 0.39963 0.19007 0.96117 0.0
N36 N 0.37491 0.22736 0.99244 0.0
C37 C 0.35641 0.21583 0.97778 0.0
C38 C 0.39633 0.21513 0.98435 0.0
C39 C 0.38083 0.17782 0.94619 0.0
C40 C 0.36982 0.39457 0.08552 0.0
N41 N 0.34886 0.38634 0.075 0.0
C42 C 0.37862 0.4437 0.08742 0.0
C43 C 0.36581 0.48456 0.07851 0.0
C44 C 0.34442 0.47587 0.06789 0.0
C45 C 0.33618 0.42623 0.06627 0.0
C46 C 0.28698 0.37687 0.11918 0.0
C47 C 0.289 0.32102 0.07451 0.0
C48 C 0.30785 0.3635 0.10832 0.0
N49 N 0.30865 0.33614 0.08619 0.0
C50 C 0.26783 0.33367 0.08484 0.0
C51 C 0.26686 0.36183 0.10731 0.0
C52 C 0.32876 0.214 0.0498 0.0
C53 C 0.42121 0.19669 0.0703 0.0
C54 C 0.38645 0.16279 0.03899 0.0
C55 C 0.4001 0.12751 0.05169 0.0
C56 C 0.41757 0.14468 0.06745 0.0
N57 N 0.39015 0.21374 0.04184 0.0
C58 C 0.40725 0.23086 0.05726 0.0
Co59 Co 0.1608 0.70405 0.07694 0.0
Co60 Co 0.12929 0.74043 0.02482 0.0
O61 O 0.13171 0.71303 0.05946 0.0
C62 C 0.12758 0.74028 0.11727 0.0
O63 O 0.11105 0.74503 0.10068 0.0
C64 C 0.1039 0.64405 0.02321 0.0
O65 O 0.12206 0.62328 0.03339 0.0
O66 O 0.15144 0.68963 0.01184 0.0
O67 O 0.17611 0.68421 0.04434 0.0
H68 H 0.15911 0.8034 0.94085 0.0
H69 H 0.11961 0.6485 0.09525 0.0
O70 O 0.14717 0.72427 0.11057 0.0
H71 H 0.17638 0.51599 0.07631 0.0
H72 H 0.21196 0.64923 0.14887 0.0
H73 H 0.20834 0.73358 0.0651 0.0
H74 H 0.18574 0.60639 0.07026 0.0
H75 H 0.17531 0.6585 0.12643 0.0
O76 O 0.10383 0.69133 0.01791 0.0
H77 H 0.16219 0.77021 0.98467 0.0
H78 H 0.09016 0.76584 0.99103 0.0
H79 H 0.24537 0.72472 0.08677 0.0
H80 H 0.10966 0.55875 0.10186 0.0
H81 H 0.24734 0.68228 0.12897 0.0
H82 H 0.13812 0.49161 0.09229 0.0
O83 O 0.16829 0.77621 0.07078 0.0
H84 H 0.05901 0.79759 0.07145 0.0
H85 H 0.1249 0.853 0.02036 0.0
H86 H 0.09761 0.91678 0.03617 0.0
H87 H 0.06433 0.8892 0.06186 0.0
H88 H 0.0869 0.73513 0.05559 0.0
H89 H 0.08628 0.79858 0.9472 0.0
H90 H 0.12092 0.81779 0.92185 0.0
O91 O 0.15492 0.78997 0.03124 0.0
C92 C 0.17037 0.67568 0.02131 0.0
C93 C 0.14388 0.79535 0.95174 0.0
C94 C 0.10301 0.79258 0.95529 0.0
N95 N 0.12639 0.76658 0.99046 0.0
C96 C 0.14553 0.77671 0.97658 0.0
C97 C 0.10531 0.77398 0.98008 0.0
C98 C 0.12245 0.80337 0.94108 0.0
C99 C 0.13227 0.61984 0.09151 0.0
N100 N 0.15338 0.63303 0.08282 0.0
C101 C 0.12646 0.5689 0.09509 0.0
C102 C 0.14241 0.53125 0.08965 0.0
C103 C 0.16387 0.54489 0.08068 0.0
C104 C 0.16906 0.59621 0.07729 0.0
C105 C 0.21133 0.66767 0.13046 0.0
C106 C 0.20908 0.71473 0.08337 0.0
C107 C 0.19062 0.67311 0.11768 0.0
N108 N 0.18972 0.69611 0.09435 0.0
C109 C 0.23009 0.70998 0.09559 0.0
C110 C 0.23118 0.68621 0.11928 0.0
C111 C 0.167 0.80267 0.05052 0.0
C112 C 0.07345 0.81009 0.06029 0.0
C113 C 0.11063 0.84069 0.03179 0.0
C114 C 0.09515 0.87699 0.04056 0.0
C115 C 0.07646 0.86149 0.05493 0.0
N116 N 0.10762 0.79035 0.03722 0.0
C117 C 0.08927 0.77486 0.05119 0.0
Co118 Co 0.33294 0.18611 0.42681 0.0
Co119 Co 0.36768 0.23338 0.47346 0.0
O120 O 0.36309 0.19848 0.44101 0.0
C121 C 0.35869 0.23033 0.38365 0.0
O122 O 0.36606 0.26571 0.39923 0.0
C123 C 0.39405 0.13862 0.47824 0.0
O124 O 0.37543 0.11506 0.47107 0.0
O125 O 0.34688 0.18503 0.49094 0.0
O126 O 0.31953 0.17571 0.46146 0.0
H127 H 0.34333 0.31382 0.55593 0.0
H128 H 0.37218 0.12663 0.40751 0.0
O129 O 0.34538 0.19575 0.3917 0.0
H130 H 0.31852 0.99992 0.4418 0.0
H131 H 0.27784 0.11372 0.36292 0.0
H132 H 0.28617 0.21953 0.43994 0.0
H133 H 0.30903 0.09113 0.44267 0.0
H134 H 0.31568 0.12819 0.38193 0.0
O135 O 0.39403 0.18684 0.48065 0.0
H136 H 0.33746 0.27098 0.51461 0.0
H137 H 0.40884 0.26711 0.50199 0.0
H138 H 0.24799 0.20574 0.42168 0.0
H139 H 0.38223 0.03569 0.40599 0.0
H140 H 0.24365 0.15248 0.38289 0.0
H141 H 0.35534 0.97165 0.42333 0.0
O142 O 0.32584 0.25956 0.42896 0.0
H143 H 0.43224 0.28077 0.41534 0.0
H144 H 0.3721 0.34627 0.47213 0.0
H145 H 0.39725 0.40654 0.44976 0.0
H146 H 0.42761 0.37386 0.42116 0.0
H147 H 0.40656 0.22185 0.43787 0.0
H148 H 0.41551 0.3095 0.54327 0.0
H149 H 0.3826 0.33335 0.57049 0.0
O150 O 0.34129 0.28068 0.4667 0.0
C151 C 0.32714 0.17058 0.48406 0.0
C152 C 0.35781 0.30378 0.5442 0.0
C153 C 0.39832 0.3013 0.53711 0.0
N154 N 0.37277 0.26703 0.50582 0.0
C155 C 0.35458 0.27967 0.52075 0.0
C156 C 0.39444 0.27722 0.51378 0.0
C157 C 0.37984 0.31468 0.55237 0.0
C158 C 0.36027 0.09893 0.4148 0.0
N159 N 0.34001 0.11418 0.42505 0.0
C160 C 0.3661 0.04752 0.41401 0.0
C161 C 0.35102 0.01162 0.42378 0.0
C162 C 0.33037 0.02745 0.43416 0.0
C163 C 0.32512 0.07918 0.43466 0.0
C164 C 0.27951 0.13692 0.37985 0.0
C165 C 0.28441 0.19609 0.42314 0.0
C166 C 0.3009 0.14534 0.39067 0.0
N167 N 0.30311 0.17438 0.41213 0.0
C168 C 0.26275 0.18851 0.41285 0.0
C169 C 0.26033 0.15867 0.39107 0.0
C170 C 0.32811 0.28972 0.44781 0.0
C171 C 0.41912 0.29547 0.42781 0.0
C172 C 0.38521 0.33175 0.45963 0.0
C173 C 0.39944 0.36606 0.44707 0.0
C174 C 0.41649 0.3477 0.43105 0.0
N175 N 0.38791 0.28058 0.45637 0.0
C176 C 0.40459 0.26229 0.4407 0.0
Co177 Co 0.16461 0.81446 0.43037 0.0
Co178 Co 0.1297 0.7624 0.47586 0.0
O179 O 0.13451 0.79918 0.44397 0.0
C180 C 0.14006 0.76874 0.38666 0.0
O181 O 0.13246 0.73338 0.40209 0.0
C182 C 0.10321 0.85666 0.48131 0.0
O183 O 0.12191 0.88025 0.47448 0.0
O184 O 0.15018 0.80972 0.49451 0.0
O185 O 0.17717 0.82599 0.46527 0.0
H186 H 0.15332 0.67704 0.55727 0.0
H187 H 0.12456 0.87023 0.41042 0.0
O188 O 0.15299 0.8038 0.39499 0.0
H189 H 0.17505 0.00172 0.44628 0.0
H190 H 0.21929 0.89252 0.36775 0.0
H191 H 0.21174 0.78552 0.44439 0.0
H192 H 0.18638 0.91155 0.44693 0.0
H193 H 0.18146 0.87433 0.38597 0.0
O194 O 0.10317 0.80837 0.48342 0.0
H195 H 0.15956 0.72248 0.51676 0.0
H196 H 0.08831 0.72663 0.50329 0.0
H197 H 0.24992 0.80305 0.42691 0.0
H198 H 0.11269 0.96008 0.40909 0.0
H199 H 0.25386 0.85693 0.38832 0.0
H200 H 0.13797 0.0265 0.42723 0.0
O201 O 0.1731 0.74177 0.43238 0.0
H202 H 0.06581 0.71787 0.41623 0.0
H203 H 0.12564 0.64963 0.47254 0.0
H204 H 0.10089 0.59047 0.44886 0.0
H205 H 0.07069 0.62453 0.42049 0.0
H206 H 0.09108 0.77567 0.44006 0.0
H207 H 0.08127 0.68164 0.54376 0.0
H208 H 0.11394 0.65634 0.571 0.0
O209 O 0.15629 0.71595 0.46867 0.0
C210 C 0.16948 0.8273 0.48795 0.0
C211 C 0.13895 0.68769 0.54552 0.0
C212 C 0.09851 0.69034 0.53796 0.0
N213 N 0.12433 0.72672 0.50759 0.0
C214 C 0.14239 0.71327 0.52253 0.0
C215 C 0.10259 0.71589 0.51509 0.0
C216 C 0.11685 0.67614 0.55323 0.0
C217 C 0.13579 0.89899 0.41804 0.0
N218 N 0.15617 0.88566 0.42863 0.0
C219 C 0.12892 0.94978 0.41736 0.0
C220 C 0.1431 0.98702 0.42758 0.0
C221 C 0.16389 0.97314 0.43828 0.0
C222 C 0.17019 0.92198 0.43865 0.0
C223 C 0.2178 0.86907 0.3846 0.0
C224 C 0.21334 0.80922 0.42767 0.0
C225 C 0.19642 0.85856 0.39497 0.0
N226 N 0.19442 0.82919 0.41632 0.0
C227 C 0.23499 0.81891 0.41782 0.0
C228 C 0.23719 0.8491 0.39616 0.0
C229 C 0.17035 0.70962 0.45028 0.0
C230 C 0.07886 0.70256 0.42859 0.0
C231 C 0.1126 0.66475 0.46016 0.0
C232 C 0.0986 0.63106 0.44685 0.0
C233 C 0.08164 0.6502 0.43096 0.0
N234 N 0.10976 0.71607 0.45775 0.0
C235 C 0.09316 0.73511 0.44222 0.0
Co236 Co 0.66606 0.68351 0.92557 0.0
Co237 Co 0.63131 0.73332 0.97195 0.0
O238 O 0.63602 0.6987 0.9394 0.0
C239 C 0.64212 0.73353 0.88259 0.0
O240 O 0.63516 0.76871 0.89854 0.0
C241 C 0.60456 0.63924 0.97594 0.0
O242 O 0.62313 0.61575 0.96854 0.0
O243 O 0.65161 0.68436 0.98977 0.0
O244 O 0.67843 0.6688 0.96021 0.0
H245 H 0.65515 0.81255 0.05489 0.0
H246 H 0.62566 0.63068 0.90452 0.0
O247 O 0.65456 0.69714 0.8904 0.0
H248 H 0.67535 0.49485 0.93757 0.0
H249 H 0.72043 0.60884 0.86149 0.0
H250 H 0.71332 0.70984 0.94028 0.0
H251 H 0.68723 0.58451 0.94006 0.0
H252 H 0.68267 0.62659 0.88003 0.0
O253 O 0.60465 0.6874 0.97871 0.0
H254 H 0.66127 0.76976 0.0136 0.0
H255 H 0.59003 0.76807 -5e-05 0.0
H256 H 0.75143 0.69269 0.92251 0.0
H257 H 0.61323 0.54139 0.90135 0.0
H258 H 0.75515 0.64185 0.88283 0.0
H259 H 0.63811 0.47279 0.91807 0.0
O260 O 0.67506 0.75574 0.92914 0.0
H261 H 0.56774 0.78315 0.913 0.0
H262 H 0.62764 0.84632 0.9707 0.0
H263 H 0.60314 0.90755 0.94806 0.0
H264 H 0.57291 0.87604 0.919 0.0
H265 H 0.59276 0.72326 0.93583 0.0
H266 H 0.58311 0.81042 0.04119 0.0
H267 H 0.61583 0.83315 0.06892 0.0
O268 O 0.65805 0.7796 0.96565 0.0
C269 C 0.67074 0.66636 0.98286 0.0
C270 C 0.64076 0.80301 0.04294 0.0
C271 C 0.60032 0.80175 0.03527 0.0
N272 N 0.62605 0.76691 0.0043 0.0
C273 C 0.64413 0.77894 0.01951 0.0
C274 C 0.60434 0.77769 0.01196 0.0
C275 C 0.61869 0.81451 0.05081 0.0
C276 C 0.63671 0.60098 0.91153 0.0
N277 N 0.65718 0.6128 0.92235 0.0
C278 C 0.62953 0.55051 0.9098 0.0
C279 C 0.64348 0.51204 0.91923 0.0
C280 C 0.66437 0.52439 0.93018 0.0
C281 C 0.67098 0.57526 0.93159 0.0
C282 C 0.71903 0.63097 0.87881 0.0
C283 C 0.71482 0.68745 0.92309 0.0
C284 C 0.69769 0.64123 0.88937 0.0
N285 N 0.69581 0.66894 0.91131 0.0
C286 C 0.73643 0.67797 0.91308 0.0
C287 C 0.73851 0.64948 0.8908 0.0
C288 C 0.67236 0.78669 0.94761 0.0
C289 C 0.58081 0.79734 0.92567 0.0
C290 C 0.61458 0.83231 0.95802 0.0
C291 C 0.60072 0.86716 0.9453 0.0
C292 C 0.58374 0.84946 0.92901 0.0
N293 N 0.61157 0.78125 0.95466 0.0
C294 C 0.59496 0.76361 0.93873 0.0
Co295 Co 0.84657 0.29006 0.92692 0.0
Co296 Co 0.87421 0.25184 0.98112 0.0
O297 O 0.8742 0.27868 0.94646 0.0
C298 C 0.8584 0.23678 0.87908 0.0
O299 O 0.84066 0.2076 0.88313 0.0
C300 C 0.90046 0.34673 0.98418 0.0
O301 O 0.88282 0.36824 0.97328 0.0
O302 O 0.85191 0.30421 0.99223 0.0
O303 O 0.82905 0.31011 0.95807 0.0
H304 H 0.83897 0.19236 0.06308 0.0
H305 H 0.88927 0.34104 0.91097 0.0
O306 O 0.86379 0.27083 0.89528 0.0
H307 H 0.83499 0.47969 0.92839 0.0
H308 H 0.8018 0.35258 0.85126 0.0
H309 H 0.79802 0.26248 0.93351 0.0
H310 H 0.82327 0.39026 0.93304 0.0
H311 H 0.83645 0.33975 0.87701 0.0
O312 O 0.89994 0.29944 0.98948 0.0
H313 H 0.83875 0.22476 0.01897 0.0
H314 H 0.91102 0.22494 0.01772 0.0
H315 H 0.76294 0.27464 0.90843 0.0
H316 H 0.90161 0.42996 0.9058 0.0
H317 H 0.7647 0.31997 0.86698 0.0
H318 H 0.8744 0.50002 0.91463 0.0
O319 O 0.83758 0.21838 0.9326 0.0
H320 H 0.94473 0.1891 0.93693 0.0
H321 H 0.87757 0.13955 0.98751 0.0
H322 H 0.90468 0.07373 0.97339 0.0
H323 H 0.93859 0.0984 0.94799 0.0
H324 H 0.91708 0.25364 0.95125 0.0
H325 H 0.91204 0.19297 0.0619 0.0
H326 H 0.87582 0.17626 0.08483 0.0
O327 O 0.84837 0.20389 0.97305 0.0
C328 C 0.83363 0.31876 0.98143 0.0
C329 C 0.85486 0.19931 0.05326 0.0
C330 C 0.89588 0.19972 0.05261 0.0
N331 N 0.87484 0.22623 0.01573 0.0
C332 C 0.85484 0.21749 0.02826 0.0
C333 C 0.8952 0.21791 0.02762 0.0
C334 C 0.87555 0.19034 0.06546 0.0
C335 C 0.87724 0.37128 0.91452 0.0
N336 N 0.85554 0.3604 0.92214 0.0
C337 C 0.88436 0.42158 0.91169 0.0
C338 C 0.8691 0.46087 0.91671 0.0
C339 C 0.84699 0.44949 0.92445 0.0
C340 C 0.84047 0.39875 0.92711 0.0
C341 C 0.8008 0.33285 0.86932 0.0
C342 C 0.7989 0.28242 0.91555 0.0
C343 C 0.82036 0.32547 0.88397 0.0
N344 N 0.81923 0.30063 0.90681 0.0
C345 C 0.77899 0.28912 0.90141 0.0
C346 C 0.77999 0.31454 0.87815 0.0
C347 C 0.83718 0.19205 0.95298 0.0
C348 C 0.93005 0.17789 0.94804 0.0
C349 C 0.89223 0.15056 0.97636 0.0
C350 C 0.90755 0.11313 0.96847 0.0
C351 C 0.92658 0.127 0.95423 0.0
N352 N 0.8958 0.20042 0.97031 0.0
C353 C 0.91437 0.21429 0.95626 0.0
Co354 Co 0.6634 0.81713 0.56932 0.0
Co355 Co 0.62944 0.76419 0.52304 0.0
O356 O 0.63364 0.79991 0.55538 0.0
C357 C 0.64005 0.76625 0.61245 0.0
O358 O 0.63363 0.73031 0.59664 0.0
C359 C 0.6019 0.85703 0.51825 0.0
O360 O 0.62027 0.88147 0.52548 0.0
O361 O 0.64947 0.81336 0.50495 0.0
O362 O 0.67572 0.832 0.53469 0.0
H363 H 0.65444 0.68338 0.4409 0.0
H364 H 0.62224 0.86776 0.58989 0.0
O365 O 0.65194 0.80339 0.60449 0.0
H366 H 0.67035 0.0061 0.55659 0.0
H367 H 0.71652 0.8963 0.63331 0.0
H368 H 0.71105 0.79351 0.55494 0.0
H369 H 0.68338 0.91717 0.55455 0.0
H370 H 0.67908 0.87583 0.61469 0.0
O371 O 0.60242 0.80883 0.51578 0.0
H372 H 0.65995 0.72765 0.4819 0.0
H373 H 0.58862 0.72701 0.49502 0.0
H374 H 0.74885 0.81341 0.5728 0.0
H375 H 0.60864 0.95628 0.59259 0.0
H376 H 0.75175 0.86517 0.61227 0.0
H377 H 0.63273 0.02614 0.57575 0.0
O378 O 0.67334 0.74538 0.56612 0.0
H379 H 0.56598 0.71356 0.582 0.0
H380 H 0.62668 0.65113 0.52509 0.0
H381 H 0.60259 0.5896 0.54805 0.0
H382 H 0.57195 0.62073 0.57671 0.0
H383 H 0.59061 0.77378 0.55887 0.0
H384 H 0.5823 0.68315 0.45405 0.0
H385 H 0.61538 0.66084 0.42675 0.0
O386 O 0.6565 0.7192 0.5299 0.0
C387 C 0.66827 0.83292 0.51192 0.0
C388 C 0.63989 0.69273 0.45267 0.0
C389 C 0.5994 0.69266 0.46004 0.0
N390 N 0.62465 0.72942 0.49092 0.0
C391 C 0.64292 0.71763 0.47594 0.0
C392 C 0.60308 0.71758 0.48318 0.0
C393 C 0.61797 0.68014 0.44473 0.0
C394 C 0.63293 0.89803 0.58282 0.0
N395 N 0.65361 0.88731 0.57218 0.0
C396 C 0.6251 0.94805 0.58428 0.0
C397 C 0.6386 0.98722 0.57479 0.0
C398 C 0.65971 0.976 0.56403 0.0
C399 C 0.66698 0.92554 0.56288 0.0
C400 C 0.71548 0.87379 0.61608 0.0
C401 C 0.71218 0.81628 0.57204 0.0
C402 C 0.69433 0.86198 0.60548 0.0
N403 N 0.69289 0.83378 0.58366 0.0
C404 C 0.73362 0.82732 0.5821 0.0
C405 C 0.73524 0.85632 0.60426 0.0
C406 C 0.67089 0.71353 0.54798 0.0
C407 C 0.57923 0.69953 0.56951 0.0
C408 C 0.61344 0.66498 0.5376 0.0
C409 C 0.59981 0.62995 0.5505 0.0
C410 C 0.58261 0.64745 0.56656 0.0
N411 N 0.60999 0.716 0.54056 0.0
C412 C 0.59317 0.73344 0.55628 0.0
Co413 Co 0.84007 0.20259 0.57315 0.0
Co414 Co 0.871 0.24202 0.52116 0.0
O415 O 0.86902 0.21344 0.5556 0.0
C416 C 0.87239 0.24266 0.61324 0.0
O417 O 0.8876 0.25495 0.59607 0.0
C418 C 0.89716 0.14665 0.51851 0.0
O419 O 0.87915 0.12478 0.52846 0.0
O420 O 0.8492 0.19073 0.5079 0.0
O421 O 0.82475 0.18346 0.5405 0.0
H422 H 0.84016 0.30667 0.43799 0.0
H423 H 0.88163 0.14939 0.59137 0.0
O424 O 0.85369 0.22168 0.6069 0.0
H425 H 0.827 0.0136 0.5704 0.0
H426 H 0.78976 0.14212 0.6447 0.0
H427 H 0.79223 0.23072 0.56198 0.0
H428 H 0.81636 0.1036 0.56525 0.0
H429 H 0.82621 0.154 0.62216 0.0
O430 O 0.89685 0.19414 0.51368 0.0
H431 H 0.83761 0.27189 0.48154 0.0
H432 H 0.90971 0.26996 0.48726 0.0
H433 H 0.7554 0.21929 0.58377 0.0
H434 H 0.89287 0.05996 0.59707 0.0
H435 H 0.754 0.17469 0.62544 0.0
H436 H 0.86549 0.99128 0.58647 0.0
O437 O 0.83193 0.2746 0.56773 0.0
H438 H 0.94131 0.30043 0.56732 0.0
H439 H 0.87436 0.35488 0.5177 0.0
H440 H 0.9013 0.41921 0.53364 0.0
H441 H 0.93512 0.39212 0.55858 0.0
H442 H 0.91372 0.23741 0.55142 0.0
H443 H 0.91305 0.30432 0.44369 0.0
H444 H 0.8781 0.32311 0.4188 0.0
O445 O 0.84498 0.29032 0.52822 0.0
C446 C 0.83043 0.17588 0.51738 0.0
C447 C 0.85551 0.29882 0.44868 0.0
C448 C 0.89643 0.29743 0.45187 0.0
N449 N 0.87348 0.26939 0.487 0.0
C450 C 0.85417 0.27928 0.47337 0.0
C451 C 0.89443 0.2779 0.47651 0.0
C452 C 0.8768 0.30798 0.43791 0.0
C453 C 0.86948 0.11986 0.58711 0.0
N454 N 0.84827 0.13186 0.57831 0.0
C455 C 0.876 0.06921 0.59021 0.0
C456 C 0.86065 0.03069 0.5842 0.0
C457 C 0.83906 0.04319 0.57517 0.0
C458 C 0.83315 0.09425 0.57227 0.0
C459 C 0.79014 0.16149 0.62652 0.0
C460 C 0.79175 0.21096 0.58002 0.0
C461 C 0.81073 0.1684 0.61368 0.0
N462 N 0.81132 0.1926 0.59065 0.0
C463 C 0.77085 0.20474 0.59231 0.0
C464 C 0.77008 0.17977 0.6157 0.0
C465 C 0.83287 0.30182 0.54769 0.0
C466 C 0.92663 0.31272 0.55648 0.0
C467 C 0.88886 0.34277 0.52882 0.0
C468 C 0.90414 0.37939 0.53766 0.0
C469 C 0.92313 0.36415 0.55161 0.0
N470 N 0.89235 0.29239 0.53377 0.0
C471 C 0.91099 0.27717 0.54733 0.0
C472 C 0.30014 0.15755 0.07105 0.0
C473 C 0.31281 0.17036 0.04927 0.0
C474 C 0.28407 0.11845 0.07023 0.0
C475 C 0.26496 0.00753 0.03132 0.0
H476 H 0.21026 0.02236 0.07204 0.0
C477 C 0.18819 0.86868 0.02534 0.0
C478 C 0.18131 0.84891 0.04901 0.0
C479 C 0.20343 0.90954 0.02418 0.0
C480 C 0.22547 0.01772 0.0606 0.0
H481 H 0.3186 0.15167 0.00953 0.0
H482 H 0.29009 0.08465 0.00784 0.0
H483 H 0.2387 0.08965 0.07219 0.0
H484 H 0.18439 0.85773 0.08999 0.0
H485 H 0.21047 0.92964 0.08789 0.0
H486 H 0.25125 0.9358 0.01941 0.0
C487 C 0.29291 0.10393 0.02579 0.0
C488 C 0.2419 0.05609 0.06081 0.0
C489 C 0.30924 0.1426 0.02672 0.0
C490 C 0.18939 0.87195 0.07144 0.0
C491 C 0.20425 0.91326 0.07027 0.0
C492 C 0.24832 0.96947 0.03083 0.0
C493 C 0.27995 0.09156 0.04749 0.0
C494 C 0.26206 0.05128 0.04646 0.0
C495 C 0.21169 0.93202 0.04666 0.0
C496 C 0.22855 0.97393 0.04571 0.0
H497 H 0.30259 0.17782 0.08882 0.0
H498 H 0.27492 0.10931 0.08754 0.0
H499 H 0.28033 0.00196 0.02029 0.0
H500 H 0.18236 0.85165 0.00772 0.0
H501 H 0.20881 0.92352 0.00573 0.0
C502 C 0.1957 0.64785 0.42765 0.0
C503 C 0.18518 0.66407 0.45029 0.0
C504 C 0.21101 0.60722 0.4278 0.0
C505 C 0.23187 0.49913 0.4677 0.0
H506 H 0.28299 0.50496 0.421 0.0
C507 C 0.30854 0.35996 0.4717 0.0
C508 C 0.31361 0.33581 0.44846 0.0
C509 C 0.29333 0.40089 0.47248 0.0
C510 C 0.26875 0.5028 0.43408 0.0
H511 H 0.18236 0.64994 0.49085 0.0
H512 H 0.20966 0.58028 0.49135 0.0
H513 H 0.25533 0.57389 0.42156 0.0
H514 H 0.30724 0.33678 0.40773 0.0
H515 H 0.28119 0.40906 0.40909 0.0
H516 H 0.24593 0.42846 0.48063 0.0
C517 C 0.20568 0.59797 0.47328 0.0
C518 C 0.25275 0.54211 0.43431 0.0
C519 C 0.19004 0.63813 0.47304 0.0
C520 C 0.30367 0.35446 0.42595 0.0
C521 C 0.28881 0.39593 0.42669 0.0
C522 C 0.24812 0.46022 0.46775 0.0
C523 C 0.21657 0.58223 0.45068 0.0
C524 C 0.23391 0.54065 0.45093 0.0
C525 C 0.28325 0.4191 0.44999 0.0
C526 C 0.2666 0.46147 0.45078 0.0
H527 H 0.19215 0.6667 0.40974 0.0
H528 H 0.21848 0.59551 0.40988 0.0
H529 H 0.21749 0.49604 0.4805 0.0
H530 H 0.31582 0.34641 0.48939 0.0
H531 H 0.28943 0.41833 0.49067 0.0
C532 C 0.6908 0.85808 0.97183 0.0
C533 C 0.68752 0.83168 0.9488 0.0
C534 C 0.7065 0.89799 0.97331 0.0
C535 C 0.73666 0.99242 0.93463 0.0
H536 H 0.78215 0.99048 0.98817 0.0
C537 C 0.8137 0.12606 0.93087 0.0
C538 C 0.8217 0.14758 0.95369 0.0
C539 C 0.79751 0.08727 0.93122 0.0
C540 C 0.76939 0.99214 0.97331 0.0
H541 H 0.69771 0.82762 0.90909 0.0
H542 H 0.72469 0.8978 0.91162 0.0
H543 H 0.7525 0.92544 0.98725 0.0
H544 H 0.81923 0.14429 0.99488 0.0
H545 H 0.79049 0.07739 0.99552 0.0
H546 H 0.75304 0.05937 0.92085 0.0
C547 C 0.71523 0.88737 0.92854 0.0
C548 C 0.75243 0.95477 0.97278 0.0
C549 C 0.69982 0.84704 0.92714 0.0
C550 C 0.81352 0.12837 0.97695 0.0
C551 C 0.79705 0.08987 0.9773 0.0
C552 C 0.75339 0.03009 0.93532 0.0
C553 C 0.71893 0.91288 0.9517 0.0
C554 C 0.73608 0.95419 0.95324 0.0
C555 C 0.78857 0.06932 0.9544 0.0
C556 C 0.77022 0.0301 0.95444 0.0
H557 H 0.68167 0.84716 0.9889 0.0
H558 H 0.7089 0.91727 0.99136 0.0
H559 H 0.72407 0.99333 0.91955 0.0
H560 H 0.8198 0.13942 0.91262 0.0
H561 H 0.79195 0.07151 0.9132 0.0
C562 C 0.69826 0.6542 0.56939 0.0
C563 C 0.68628 0.66887 0.54738 0.0
C564 C 0.71365 0.61374 0.56861 0.0
C565 C 0.75147 0.54429 0.5259 0.0
H566 H 0.7498 0.43985 0.57787 0.0
C567 C 0.81081 0.3676 0.52326 0.0
C568 C 0.818 0.34727 0.54667 0.0
C569 C 0.79486 0.40718 0.52256 0.0
C570 C 0.75082 0.46909 0.56342 0.0
H571 H 0.68109 0.65222 0.50729 0.0
H572 H 0.70834 0.58196 0.50592 0.0
H573 H 0.72147 0.50732 0.57827 0.0
H574 H 0.81498 0.35433 0.58771 0.0
H575 H 0.7881 0.42431 0.58656 0.0
H576 H 0.78122 0.50717 0.51144 0.0
C577 C 0.70566 0.60183 0.52375 0.0
C578 C 0.73444 0.50757 0.56359 0.0
C579 C 0.68996 0.64182 0.52461 0.0
C580 C 0.8096 0.3687 0.56933 0.0
C581 C 0.79397 0.40863 0.56865 0.0
C582 C 0.7681 0.50615 0.52592 0.0
C583 C 0.71769 0.58748 0.54574 0.0
C584 C 0.73464 0.54567 0.54491 0.0
C585 C 0.78597 0.42776 0.54527 0.0
C586 C 0.76809 0.46814 0.54479 0.0
H587 H 0.69582 0.67415 0.58725 0.0
H588 H 0.72279 0.60369 0.58581 0.0
H589 H 0.75213 0.57351 0.51139 0.0
H590 H 0.81686 0.35173 0.50545 0.0
H591 H 0.789 0.42047 0.50418 0.0
C592 C 0.35791 0.29492 0.15852 0.0
C593 C 0.36637 0.25872 0.14124 0.0
C594 C 0.36259 0.29109 0.18447 0.0
C595 C 0.38189 0.28916 0.23744 0.0
H596 H 0.37699 0.15617 0.2685 0.0
C597 C 0.38136 0.26507 0.34692 0.0
C598 C 0.36505 0.23088 0.35635 0.0
C599 C 0.38652 0.26624 0.32086 0.0
C600 C 0.37836 0.19365 0.26015 0.0
H601 H 0.38698 0.19074 0.13766 0.0
H602 H 0.39549 0.18438 0.1832 0.0
H603 H 0.37652 0.16372 0.22232 0.0
H604 H 0.34165 0.17055 0.34585 0.0
H605 H 0.35007 0.17363 0.30074 0.0
H606 H 0.38216 0.31942 0.27523 0.0
C607 C 0.38489 0.21535 0.17661 0.0
C608 C 0.37843 0.19791 0.2336 0.0
C609 C 0.38007 0.21905 0.15051 0.0
C610 C 0.35436 0.19733 0.33929 0.0
C611 C 0.35937 0.19875 0.31334 0.0
C612 C 0.38159 0.28495 0.26398 0.0
C613 C 0.37604 0.25118 0.19393 0.0
C614 C 0.37949 0.24587 0.22192 0.0
C615 C 0.37539 0.23345 0.30369 0.0
C616 C 0.37914 0.23725 0.27568 0.0
H617 H 0.34724 0.32595 0.15213 0.0
H618 H 0.35505 0.31877 0.1972 0.0
H619 H 0.38327 0.32665 0.22909 0.0
H620 H 0.39003 0.29112 0.35961 0.0
H621 H 0.39916 0.29303 0.31416 0.0
C622 C 0.14652 0.79827 0.34215 0.0
C623 C 0.13404 0.76828 0.3593 0.0
C624 C 0.14123 0.79841 0.31628 0.0
C625 C 0.1119 0.72371 0.26637 0.0
H626 H 0.12363 0.84561 0.22698 0.0
C627 C 0.1021 0.74103 0.15561 0.0
C628 C 0.12347 0.75032 0.14451 0.0
C629 C 0.09912 0.74632 0.18198 0.0
C630 C 0.12005 0.81151 0.23782 0.0
H631 H 0.10598 0.71532 0.36281 0.0
H632 H 0.09628 0.71648 0.31745 0.0
H633 H 0.1255 0.849 0.27337 0.0
H634 H 0.15817 0.77414 0.15189 0.0
H635 H 0.15268 0.78528 0.19769 0.0
H636 H 0.10643 0.68659 0.23042 0.0
C637 C 0.11049 0.73918 0.324 0.0
C638 C 0.12134 0.81318 0.26435 0.0
C639 C 0.11599 0.73859 0.35 0.0
C640 C 0.14153 0.76668 0.15999 0.0
C641 C 0.1384 0.7732 0.18611 0.0
C642 C 0.1102 0.72232 0.23977 0.0
C643 C 0.12308 0.76914 0.30681 0.0
C644 C 0.11813 0.76888 0.27895 0.0
C645 C 0.1173 0.76237 0.19737 0.0
C646 C 0.11498 0.76585 0.22532 0.0
H647 H 0.16069 0.82122 0.34861 0.0
H648 H 0.15176 0.82085 0.30364 0.0
H649 H 0.10947 0.68876 0.27688 0.0
H650 H 0.08797 0.728 0.14408 0.0
H651 H 0.08273 0.7377 0.19037 0.0
C652 C 0.64619 0.70173 0.838 0.0
C653 C 0.63611 0.73592 0.85522 0.0
C654 C 0.64132 0.70423 0.81204 0.0
C655 C 0.62086 0.79285 0.76282 0.0
H656 H 0.62274 0.67101 0.72127 0.0
C657 C 0.61978 0.7257 0.64948 0.0
C658 C 0.63423 0.76366 0.63987 0.0
C659 C 0.61512 0.72299 0.67564 0.0
C660 C 0.62174 0.70543 0.73252 0.0
H661 H 0.61245 0.79876 0.85871 0.0
H662 H 0.60359 0.80268 0.8132 0.0
H663 H 0.62246 0.66372 0.76744 0.0
H664 H 0.65483 0.82899 0.6502 0.0
H665 H 0.64731 0.82344 0.69542 0.0
H666 H 0.61987 0.83455 0.72789 0.0
C667 C 0.61562 0.77444 0.81981 0.0
C668 C 0.62191 0.70128 0.75906 0.0
C669 C 0.62064 0.77213 0.8459 0.0
C670 C 0.64357 0.79927 0.65688 0.0
C671 C 0.63906 0.79639 0.6829 0.0
C672 C 0.62045 0.79699 0.73627 0.0
C673 C 0.62605 0.74071 0.80253 0.0
C674 C 0.62226 0.74496 0.77455 0.0
C675 C 0.6249 0.75808 0.69271 0.0
C676 C 0.62167 0.7534 0.72077 0.0
H677 H 0.65826 0.67342 0.84445 0.0
H678 H 0.65009 0.67836 0.79934 0.0
H679 H 0.62115 0.82735 0.77405 0.0
H680 H 0.61217 0.69792 0.63685 0.0
H681 H 0.60394 0.6933 0.68249 0.0
C682 C 0.89929 0.24772 0.65029 0.0
C683 C 0.87703 0.25049 0.64057 0.0
C684 C 0.90309 0.25057 0.67662 0.0
C685 C 0.87909 0.2973 0.73615 0.0
H686 H 0.90414 0.17776 0.76904 0.0
C687 C 0.88137 0.27955 0.84514 0.0
C688 C 0.86936 0.23663 0.85372 0.0
C689 C 0.88834 0.28307 0.81973 0.0
C690 C 0.89741 0.21164 0.76007 0.0
H691 H 0.84147 0.26037 0.65044 0.0
H692 H 0.8482 0.26709 0.69619 0.0
H693 H 0.90473 0.18435 0.72239 0.0
H694 H 0.85673 0.16228 0.84295 0.0
H695 H 0.86924 0.16815 0.79867 0.0
H696 H 0.87106 0.324 0.7736 0.0
C697 C 0.86263 0.2621 0.68356 0.0
C698 C 0.89787 0.21552 0.73348 0.0
C699 C 0.85879 0.25803 0.65744 0.0
C700 C 0.86585 0.1959 0.83686 0.0
C701 C 0.87313 0.19913 0.81156 0.0
C702 C 0.87899 0.29385 0.76269 0.0
C703 C 0.88474 0.25765 0.69342 0.0
C704 C 0.88807 0.2577 0.72133 0.0
C705 C 0.88377 0.24341 0.80257 0.0
C706 C 0.88753 0.25033 0.77487 0.0
H707 H 0.91361 0.24158 0.63766 0.0
H708 H 0.92027 0.24694 0.68387 0.0
H709 H 0.87142 0.33014 0.72713 0.0
H710 H 0.88431 0.31163 0.85765 0.0
H711 H 0.89661 0.31751 0.81328 0.0
C712 C 0.43933 0.35824 0.00624 0.0
C713 C 0.41956 0.38324 0.01466 0.0
C714 C 0.45944 0.38545 0.00202 0.0
C715 C 0.4882 0.50603 0.01888 0.0
H716 H 0.52567 0.4763 0.9599 0.0
C717 C 0.56352 0.63406 0.989 0.0
C718 C 0.58348 0.6098 0.9806 0.0
C719 C 0.54362 0.60613 0.99321 0.0
C720 C 0.51553 0.48471 0.97662 0.0
H721 H 0.40544 0.45652 0.02522 0.0
H722 H 0.44036 0.50384 0.01761 0.0
H723 H 0.49088 0.42785 0.96713 0.0
H724 H 0.59814 0.5371 0.96999 0.0
H725 H 0.56354 0.48846 0.97758 0.0
H726 H 0.51281 0.56291 0.02836 0.0
C727 C 0.44044 0.46315 0.01455 0.0
C728 C 0.49559 0.4569 0.98077 0.0
C729 C 0.42035 0.43601 0.01873 0.0
C730 C 0.58307 0.55702 0.97647 0.0
C731 C 0.56318 0.52914 0.98065 0.0
C732 C 0.50813 0.53383 0.01473 0.0
C733 C 0.46025 0.43823 0.0062 0.0
C734 C 0.48164 0.4673 0.00192 0.0
C735 C 0.5432 0.55332 0.98908 0.0
C736 C 0.52202 0.52358 0.99353 0.0
H737 H 0.43932 0.31759 0.003 0.0
H738 H 0.47447 0.36499 0.99587 0.0
H739 H 0.47806 0.51448 0.0356 0.0
H740 H 0.56321 0.67469 0.99227 0.0
H741 H 0.52846 0.62606 0.99938 0.0
C742 C 0.08276 0.56149 0.02594 0.0
C743 C 0.08326 0.61292 0.01875 0.0
C744 C 0.06315 0.53232 0.02226 0.0
C745 C 0.00965 0.5277 0.98514 0.0
H746 H 0.99026 0.43425 0.03794 0.0
C747 C 0.92219 0.42846 0.98204 0.0
C748 C 0.92126 0.377 0.98913 0.0
C749 C 0.94198 0.45684 0.98588 0.0
C750 C 0.99557 0.45973 0.02288 0.0
H751 H 0.06348 0.67404 0.00206 0.0
H752 H 0.02924 0.62324 0.99579 0.0
H753 H 0.02475 0.48438 0.04397 0.0
H754 H 0.94044 0.31509 0.00595 0.0
H755 H 0.97507 0.36462 0.01249 0.0
H756 H 0.9805 0.5031 0.96405 0.0
C757 C 0.04411 0.60527 0.004 0.0
C758 C 0.01536 0.48848 0.02634 0.0
C759 C 0.06372 0.63447 0.00771 0.0
C760 C 0.94055 0.3547 0.00035 0.0
C761 C 0.96038 0.38315 0.00421 0.0
C762 C 0.98989 0.49895 0.98168 0.0
C763 C 0.04356 0.55386 0.01128 0.0
C764 C 0.02262 0.52291 0.00753 0.0
C765 C 0.96137 0.43452 0.9969 0.0
C766 C 0.98256 0.4647 0.00054 0.0
H767 H 0.09751 0.54367 0.03451 0.0
H768 H 0.06341 0.4927 0.02779 0.0
H769 H 0.01495 0.55322 0.97009 0.0
H770 H 0.90764 0.4469 0.97335 0.0
H771 H 0.94203 0.49648 0.98037 0.0
C772 C 0.56065 0.86016 0.50574 0.0
C773 C 0.58051 0.88545 0.51366 0.0
C774 C 0.54043 0.88714 0.50177 0.0
C775 C 0.51843 0.01678 0.48972 0.0
H776 H 0.4611 0.9601 0.51274 0.0
C777 C 0.43526 0.13396 0.49062 0.0
C778 C 0.41521 0.10934 0.48277 0.0
C779 C 0.45533 0.10639 0.49442 0.0
C780 C 0.47693 0.97623 0.50594 0.0
H781 H 0.59461 0.95896 0.52375 0.0
H782 H 0.55938 0.00577 0.51701 0.0
H783 H 0.49625 0.91238 0.51902 0.0
H784 H 0.4006 0.03633 0.47271 0.0
H785 H 0.43562 0.9884 0.47915 0.0
H786 H 0.49914 0.08063 0.47665 0.0
C787 C 0.55949 0.96522 0.51351 0.0
C788 C 0.49709 0.94884 0.50953 0.0
C789 C 0.57968 0.93829 0.51749 0.0
C790 C 0.41569 0.05649 0.47889 0.0
C791 C 0.43576 0.02893 0.4827 0.0
C792 C 0.49828 0.04415 0.48613 0.0
C793 C 0.5396 0.94001 0.50561 0.0
C794 C 0.5181 0.96882 0.50151 0.0
C795 C 0.45585 0.05354 0.49045 0.0
C796 C 0.47728 0.02428 0.49423 0.0
H797 H 0.5607 0.81949 0.50259 0.0
H798 H 0.52551 0.86662 0.4954 0.0
H799 H 0.53425 0.03295 0.48293 0.0
H800 H 0.43549 0.17461 0.49383 0.0
H801 H 0.4704 0.12646 0.50071 0.0
C802 C 0.9186 0.06427 0.51942 0.0
C803 C 0.91808 0.11652 0.51389 0.0
C804 C 0.93848 0.036 0.51572 0.0
C805 C 0.00083 0.04967 0.51017 0.0
H806 H 0.99782 0.91461 0.48081 0.0
C807 C 0.08155 0.93868 0.48096 0.0
C808 C 0.08204 0.88611 0.48563 0.0
C809 C 0.06153 0.96652 0.48451 0.0
C810 C 0.99895 0.952 0.48934 0.0
H811 H 0.93811 0.17997 0.5 0.0
H812 H 0.97276 0.13054 0.49341 0.0
H813 H 0.96296 0.96365 0.4865 0.0
H814 H 0.06185 0.82161 0.49785 0.0
H815 H 0.027 0.87033 0.50443 0.0
H816 H 0.03678 0.03802 0.51315 0.0
C817 C 0.95782 0.11154 0.50084 0.0
C818 C 0.97895 0.98016 0.49256 0.0
C819 C 0.93791 0.1398 0.50447 0.0
C820 C 0.06205 0.86204 0.49403 0.0
C821 C 0.04202 0.88994 0.49764 0.0
C822 C 0.02081 0.02148 0.50701 0.0
C823 C 0.95837 0.05932 0.50648 0.0
C824 C 0.97965 0.02937 0.50298 0.0
C825 C 0.0415 0.94254 0.49289 0.0
C826 C 0.02015 0.97231 0.49651 0.0
H827 H 0.90368 0.04515 0.52683 0.0
H828 H 0.93839 0.99601 0.52054 0.0
H829 H 0.00194 0.08712 0.51864 0.0
H830 H 0.09659 0.9584 0.47428 0.0
H831 H 0.06169 0.00677 0.48028 0.0
C832 C 0.17846 0.61016 0.98789 0.0
C833 C 0.18638 0.64626 0.00552 0.0
C834 C 0.19375 0.57686 0.97603 0.0
C835 C 0.25465 0.55288 0.96294 0.0
H836 H 0.24188 0.41461 0.98375 0.0
C837 C 0.32344 0.4176 0.99597 0.0
C838 C 0.31963 0.36515 0.99615 0.0
C839 C 0.3074 0.45027 0.98528 0.0
C840 C 0.24562 0.45249 0.97693 0.0
H841 H 0.21641 0.67851 0.0232 0.0
H842 H 0.24306 0.62139 0.00214 0.0
H843 H 0.21206 0.47823 0.98617 0.0
H844 H 0.29718 0.30473 0.98413 0.0
H845 H 0.26928 0.3617 0.9644 0.0
H846 H 0.28846 0.52771 0.95459 0.0
C847 C 0.22513 0.61844 0.99755 0.0
C848 C 0.22845 0.48907 0.97841 0.0
C849 C 0.20987 0.65084 0.00978 0.0
C850 C 0.30048 0.34522 0.98381 0.0
C851 C 0.28445 0.37791 0.97284 0.0
C852 C 0.27176 0.51614 0.96108 0.0
C853 C 0.21719 0.58015 0.98117 0.0
C854 C 0.23315 0.54005 0.97268 0.0
C855 C 0.28718 0.431 0.97456 0.0
C856 C 0.26781 0.4661 0.96942 0.0
H857 H 0.16039 0.60577 0.9844 0.0
H858 H 0.18724 0.54748 0.96354 0.0
H859 H 0.2586 0.59191 0.95813 0.0
H860 H 0.33796 0.43359 0.00588 0.0
H861 H 0.31005 0.49074 0.98741 0.0
C862 C 0.32183 0.10461 0.5177 0.0
C863 C 0.31261 0.14273 0.5021 0.0
C864 C 0.30744 0.06999 0.52997 0.0
C865 C 0.24735 0.04041 0.5459 0.0
H866 H 0.26073 0.9087 0.51652 0.0
C867 C 0.17822 0.907 0.51057 0.0
C868 C 0.18307 0.8556 0.50647 0.0
C869 C 0.19443 0.93861 0.52184 0.0
C870 C 0.25683 0.94446 0.52573 0.0
H871 H 0.28142 0.17775 0.48888 0.0
H872 H 0.25636 0.11834 0.51074 0.0
H873 H 0.28961 0.97415 0.51628 0.0
H874 H 0.20757 0.79549 0.51227 0.0
H875 H 0.23555 0.84991 0.5334 0.0
H876 H 0.21426 0.01131 0.55458 0.0
C877 C 0.27457 0.11478 0.51346 0.0
C878 C 0.27351 0.98218 0.52551 0.0
C879 C 0.2889 0.1486 0.50081 0.0
C880 C 0.2035 0.83511 0.51557 0.0
C881 C 0.21958 0.86649 0.52733 0.0
C882 C 0.23074 0.00237 0.54652 0.0
C883 C 0.28369 0.07382 0.52723 0.0
C884 C 0.26855 0.03121 0.53442 0.0
C885 C 0.21576 0.9192 0.52938 0.0
C886 C 0.23486 0.95473 0.53517 0.0
H887 H 0.34008 0.09914 0.51879 0.0
H888 H 0.31487 0.03865 0.54045 0.0
H889 H 0.2432 0.07785 0.55312 0.0
H890 H 0.16269 0.92358 0.50314 0.0
H891 H 0.19085 0.97891 0.52264 0.0
C892 C 0.70397 0.65515 0.01142 0.0
C893 C 0.68396 0.63567 0.00073 0.0
C894 C 0.71995 0.62233 0.02234 0.0
C895 C 0.7313 0.48403 0.03622 0.0
H896 H 0.79125 0.51842 0.0106 0.0
C897 C 0.79383 0.34526 0.99051 0.0
C898 C 0.81713 0.34928 0.996 0.0
C899 C 0.77827 0.37864 0.00159 0.0
C900 C 0.77477 0.50861 0.01846 0.0
H901 H 0.66421 0.56791 0.99369 0.0
H902 H 0.69216 0.51033 0.01173 0.0
H903 H 0.76182 0.58294 0.01171 0.0
H904 H 0.84247 0.38992 0.01802 0.0
H905 H 0.81516 0.44999 0.03675 0.0
H906 H 0.74404 0.40811 0.04048 0.0
C907 C 0.69549 0.5507 0.01283 0.0
C908 C 0.75781 0.54573 0.01922 0.0
C909 C 0.67939 0.58363 0.00239 0.0
C910 C 0.82454 0.38592 0.01362 0.0
C911 C 0.80899 0.42022 0.02427 0.0
C912 C 0.74819 0.44667 0.03497 0.0
C913 C 0.71644 0.56936 0.02198 0.0
C914 C 0.73555 0.53344 0.02709 0.0
C915 C 0.78579 0.41737 0.01795 0.0
C916 C 0.7698 0.45829 0.0252 0.0
H917 H 0.70783 0.6953 0.00998 0.0
H918 H 0.73561 0.63827 0.02969 0.0
H919 H 0.71458 0.47342 0.04306 0.0
H920 H 0.7877 0.31722 0.97703 0.0
H921 H 0.76052 0.37607 0.99614 0.0
C922 C 0.70124 0.84306 0.48291 0.0
C923 C 0.68145 0.86317 0.49384 0.0
C924 C 0.7174 0.8754 0.47195 0.0
C925 C 0.72964 0.01321 0.45811 0.0
H926 H 0.78904 0.97773 0.48492 0.0
C927 C 0.79103 0.15125 0.50547 0.0
C928 C 0.81455 0.1463 0.50153 0.0
C929 C 0.77584 0.11828 0.49353 0.0
C930 C 0.77274 0.98784 0.47669 0.0
H931 H 0.66222 0.93158 0.50117 0.0
H932 H 0.69042 0.98829 0.48289 0.0
H933 H 0.75942 0.91374 0.48318 0.0
H934 H 0.8407 0.10463 0.48125 0.0
H935 H 0.81398 0.04533 0.46091 0.0
H936 H 0.74269 0.08886 0.45404 0.0
C937 C 0.69346 0.9478 0.48173 0.0
C938 C 0.75567 0.95103 0.47559 0.0
C939 C 0.67722 0.91538 0.4923 0.0
C940 C 0.8226 0.10933 0.48445 0.0
C941 C 0.80738 0.07545 0.4729 0.0
C942 C 0.74664 0.05024 0.45963 0.0
C943 C 0.71424 0.92848 0.47242 0.0
C944 C 0.73357 0.96378 0.46737 0.0
C945 C 0.7839 0.07904 0.47779 0.0
C946 C 0.76804 0.03829 0.4699 0.0
H947 H 0.70486 0.80278 0.48428 0.0
H948 H 0.73295 0.85903 0.46452 0.0
H949 H 0.71303 0.02413 0.45103 0.0
H950 H 0.78441 0.17958 0.51851 0.0
H951 H 0.75787 0.12149 0.49791 0.0
loop_
_geom_bond_atom_site_label_1
_geom_bond_atom_site_label_2
_geom_bond_distance
_geom_bond_site_symmetry_2
_ccdc_geom_bond_type
Co0 O2 2.143 . S
Co0 O8 2.074 . S
Co0 O11 2.093 . S
Co0 O24 2.097 . S
Co0 N41 2.151 . S
Co0 N49 2.214 . S
Co1 O2 2.160 . S
Co1 O7 2.058 . S
Co1 O17 2.057 . S
Co1 O32 2.037 . S
Co1 N36 2.145 1_554 S
Co1 N57 2.257 . S
O2 Co0 2.143 . S
O2 Co1 2.160 . S
C3 O4 1.278 . S
C3 O11 1.224 . S
O4 C3 1.278 . S
C5 O6 1.245 . S
C5 O17 1.232 . S
O6 C5 1.245 . S
O7 Co1 2.058 . S
O7 C33 1.269 . S
O8 Co0 2.074 . S
O8 C33 1.257 . S
H9 C34 0.930 . S
H10 C40 0.930 . S
O11 Co0 2.093 . S
O11 C3 1.224 . S
H12 C44 0.929 . S
H13 C46 0.930 . S
H14 C47 0.930 . S
H15 C45 0.929 . S
H16 C48 0.928 . S
O17 Co1 2.057 . S
O17 C5 1.232 . S
H18 C37 0.929 . S
H19 C38 0.929 . S
H20 C50 0.931 . S
H21 C42 0.929 . S
H22 C51 0.930 . S
H23 C43 0.931 . S
O24 Co0 2.097 . S
O24 C52 1.214 . S
H25 C53 0.929 . S
H26 C54 0.929 . S
H27 C55 0.930 . S
H28 C56 0.929 . S
H29 C58 0.930 . S
H30 C35 0.930 . S
H31 C39 0.930 . S
O32 Co1 2.037 . S
O32 C52 1.234 . S
C33 O7 1.269 . S
C33 O8 1.257 . S
C34 H9 0.930 . S
C34 C37 1.388 . S
C34 C39 1.418 . S
C35 H30 0.930 . S
C35 C38 1.404 . S
C35 C39 1.353 . S
N36 Co1 2.145 1_556 S
N36 C37 1.397 . S
N36 C38 1.334 . S
C37 H18 0.929 . S
C37 C34 1.388 . S
C37 N36 1.397 . S
C38 H19 0.929 . S
C38 C35 1.404 . S
C38 N36 1.334 . S
C39 H31 0.930 . S
C39 C34 1.418 . S
C39 C35 1.353 . S
C40 H10 0.930 . S
C40 N41 1.330 . S
C40 C42 1.446 . S
N41 Co0 2.151 . S
N41 C40 1.330 . S
N41 C45 1.418 . S
C42 H21 0.929 . S
C42 C40 1.446 . S
C42 C43 1.332 . S
C43 H23 0.931 . S
C43 C42 1.332 . S
C43 C44 1.267 . S
C44 H12 0.929 . S
C44 C43 1.267 . S
C44 C45 1.251 . S
C45 H15 0.929 . S
C45 N41 1.418 . S
C45 C44 1.251 . S
C46 H13 0.930 . S
C46 C48 1.406 . S
C46 C51 1.261 . S
C47 H14 0.930 . S
C47 N49 1.325 . S
C47 C50 1.357 . S
C48 H16 0.928 . S
C48 C46 1.406 . S
C48 N49 1.261 . S
N49 Co0 2.214 . S
N49 C47 1.325 . S
N49 C48 1.261 . S
C50 H20 0.931 . S
C50 C47 1.357 . S
C50 C51 1.312 . S
C51 H22 0.930 . S
C51 C46 1.261 . S
C51 C50 1.312 . S
C52 O24 1.214 . S
C52 O32 1.234 . S
C53 H25 0.929 . S
C53 C56 1.391 . S
C53 C58 1.391 . S
C54 H26 0.929 . S
C54 C55 1.390 . S
C54 N57 1.391 . S
C55 H27 0.930 . S
C55 C54 1.390 . S
C55 C56 1.392 . S
C56 H28 0.929 . S
C56 C53 1.391 . S
C56 C55 1.392 . S
N57 Co1 2.257 . S
N57 C54 1.391 . S
N57 C58 1.388 . S
C58 H29 0.930 . S
C58 C53 1.391 . S
C58 N57 1.388 . S
Co59 O61 2.143 . S
Co59 O67 2.074 . S
Co59 O70 2.093 . S
Co59 O83 2.097 . S
Co59 N100 2.151 . S
Co59 N108 2.214 . S
Co60 O61 2.160 . S
Co60 O66 2.058 . S
Co60 O76 2.057 . S
Co60 O91 2.037 . S
Co60 N95 2.145 1_554 S
Co60 N116 2.257 . S
O61 Co59 2.143 . S
O61 Co60 2.160 . S
C62 O63 1.278 . S
C62 O70 1.224 . S
O63 C62 1.278 . S
C64 O65 1.245 . S
C64 O76 1.232 . S
O65 C64 1.245 . S
O66 Co60 2.058 . S
O66 C92 1.269 . S
O67 Co59 2.074 . S
O67 C92 1.257 . S
H68 C93 0.930 . S
H69 C99 0.930 . S
O70 Co59 2.093 . S
O70 C62 1.224 . S
H71 C103 0.929 . S
H72 C105 0.930 . S
H73 C106 0.930 . S
H74 C104 0.929 . S
H75 C107 0.928 . S
O76 Co60 2.057 . S
O76 C64 1.232 . S
H77 C96 0.929 . S
H78 C97 0.929 . S
H79 C109 0.931 . S
H80 C101 0.929 . S
H81 C110 0.930 . S
H82 C102 0.931 . S
O83 Co59 2.097 . S
O83 C111 1.214 . S
H84 C112 0.929 . S
H85 C113 0.929 . S
H86 C114 0.930 . S
H87 C115 0.929 . S
H88 C117 0.930 . S
H89 C94 0.930 . S
H90 C98 0.930 . S
O91 Co60 2.037 . S
O91 C111 1.234 . S
C92 O66 1.269 . S
C92 O67 1.257 . S
C93 H68 0.930 . S
C93 C96 1.388 . S
C93 C98 1.418 . S
C94 H89 0.930 . S
C94 C97 1.404 . S
C94 C98 1.353 . S
N95 Co60 2.145 1_556 S
N95 C96 1.397 . S
N95 C97 1.334 . S
C96 H77 0.929 . S
C96 C93 1.388 . S
C96 N95 1.397 . S
C97 H78 0.929 . S
C97 C94 1.404 . S
C97 N95 1.334 . S
C98 H90 0.930 . S
C98 C93 1.418 . S
C98 C94 1.353 . S
C99 H69 0.930 . S
C99 N100 1.330 . S
C99 C101 1.446 . S
N100 Co59 2.151 . S
N100 C99 1.330 . S
N100 C104 1.418 . S
C101 H80 0.929 . S
C101 C99 1.446 . S
C101 C102 1.332 . S
C102 H82 0.931 . S
C102 C101 1.332 . S
C102 C103 1.267 . S
C103 H71 0.929 . S
C103 C102 1.267 . S
C103 C104 1.251 . S
C104 H74 0.929 . S
C104 N100 1.418 . S
C104 C103 1.251 . S
C105 H72 0.930 . S
C105 C107 1.406 . S
C105 C110 1.261 . S
C106 H73 0.930 . S
C106 N108 1.325 . S
C106 C109 1.357 . S
C107 H75 0.928 . S
C107 C105 1.406 . S
C107 N108 1.261 . S
N108 Co59 2.214 . S
N108 C106 1.325 . S
N108 C107 1.261 . S
C109 H79 0.931 . S
C109 C106 1.357 . S
C109 C110 1.312 . S
C110 H81 0.930 . S
C110 C105 1.261 . S
C110 C109 1.312 . S
C111 O83 1.214 . S
C111 O91 1.234 . S
C112 H84 0.929 . S
C112 C115 1.391 . S
C112 C117 1.391 . S
C113 H85 0.929 . S
C113 C114 1.390 . S
C113 N116 1.391 . S
C114 H86 0.930 . S
C114 C113 1.390 . S
C114 C115 1.392 . S
C115 H87 0.929 . S
C115 C112 1.391 . S
C115 C114 1.392 . S
N116 Co60 2.257 . S
N116 C113 1.391 . S
N116 C117 1.388 . S
C117 H88 0.930 . S
C117 C112 1.391 . S
C117 N116 1.388 . S
Co118 O120 2.143 . S
Co118 O126 2.074 . S
Co118 O129 2.093 . S
Co118 O142 2.097 . S
Co118 N159 2.151 . S
Co118 N167 2.214 . S
Co119 O120 2.160 . S
Co119 O125 2.058 . S
Co119 O135 2.057 . S
Co119 O150 2.037 . S
Co119 N154 2.145 . S
Co119 N175 2.257 . S
O120 Co118 2.143 . S
O120 Co119 2.160 . S
C121 O122 1.278 . S
C121 O129 1.224 . S
O122 C121 1.278 . S
C123 O124 1.245 . S
C123 O135 1.232 . S
O124 C123 1.245 . S
O125 Co119 2.058 . S
O125 C151 1.269 . S
O126 Co118 2.074 . S
O126 C151 1.257 . S
H127 C152 0.930 . S
H128 C158 0.930 . S
O129 Co118 2.093 . S
O129 C121 1.224 . S
H130 C162 0.929 . S
H131 C164 0.930 . S
H132 C165 0.930 . S
H133 C163 0.929 . S
H134 C166 0.928 . S
O135 Co119 2.057 . S
O135 C123 1.232 . S
H136 C155 0.929 . S
H137 C156 0.929 . S
H138 C168 0.931 . S
H139 C160 0.929 . S
H140 C169 0.930 . S
H141 C161 0.931 . S
O142 Co118 2.097 . S
O142 C170 1.214 . S
H143 C171 0.929 . S
H144 C172 0.929 . S
H145 C173 0.930 . S
H146 C174 0.929 . S
H147 C176 0.930 . S
H148 C153 0.930 . S
H149 C157 0.930 . S
O150 Co119 2.037 . S
O150 C170 1.234 . S
C151 O125 1.269 . S
C151 O126 1.257 . S
C152 H127 0.930 . S
C152 C155 1.388 . S
C152 C157 1.418 . S
C153 H148 0.930 . S
C153 C156 1.404 . S
C153 C157 1.353 . S
N154 Co119 2.145 . S
N154 C155 1.397 . S
N154 C156 1.334 . S
C155 H136 0.929 . S
C155 C152 1.388 . S
C155 N154 1.397 . S
C156 H137 0.929 . S
C156 C153 1.404 . S
C156 N154 1.334 . S
C157 H149 0.930 . S
C157 C152 1.418 . S
C157 C153 1.353 . S
C158 H128 0.930 . S
C158 N159 1.330 . S
C158 C160 1.446 . S
N159 Co118 2.151 . S
N159 C158 1.330 . S
N159 C163 1.418 . S
C160 H139 0.929 . S
C160 C158 1.446 . S
C160 C161 1.332 . S
C161 H141 0.931 . S
C161 C160 1.332 . S
C161 C162 1.267 . S
C162 H130 0.929 . S
C162 C161 1.267 . S
C162 C163 1.251 . S
C163 H133 0.929 . S
C163 N159 1.418 . S
C163 C162 1.251 . S
C164 H131 0.930 . S
C164 C166 1.406 . S
C164 C169 1.261 . S
C165 H132 0.930 . S
C165 N167 1.325 . S
C165 C168 1.357 . S
C166 H134 0.928 . S
C166 C164 1.406 . S
C166 N167 1.261 . S
N167 Co118 2.214 . S
N167 C165 1.325 . S
N167 C166 1.261 . S
C168 H138 0.931 . S
C168 C165 1.357 . S
C168 C169 1.312 . S
C169 H140 0.930 . S
C169 C164 1.261 . S
C169 C168 1.312 . S
C170 O142 1.214 . S
C170 O150 1.234 . S
C171 H143 0.929 . S
C171 C174 1.391 . S
C171 C176 1.391 . S
C172 H144 0.929 . S
C172 C173 1.390 . S
C172 N175 1.391 . S
C173 H145 0.930 . S
C173 C172 1.390 . S
C173 C174 1.392 . S
C174 H146 0.929 . S
C174 C171 1.391 . S
C174 C173 1.392 . S
N175 Co119 2.257 . S
N175 C172 1.391 . S
N175 C176 1.388 . S
C176 H147 0.930 . S
C176 C171 1.391 . S
C176 N175 1.388 . S
Co177 O179 2.143 . S
Co177 O185 2.074 . S
Co177 O188 2.093 . S
Co177 O201 2.097 . S
Co177 N218 2.151 . S
Co177 N226 2.214 . S
Co178 O179 2.160 . S
Co178 O184 2.058 . S
Co178 O194 2.057 . S
Co178 O209 2.037 . S
Co178 N213 2.145 . S
Co178 N234 2.257 . S
O179 Co177 2.143 . S
O179 Co178 2.160 . S
C180 O181 1.278 . S
C180 O188 1.224 . S
O181 C180 1.278 . S
C182 O183 1.245 . S
C182 O194 1.232 . S
O183 C182 1.245 . S
O184 Co178 2.058 . S
O184 C210 1.269 . S
O185 Co177 2.074 . S
O185 C210 1.257 . S
H186 C211 0.930 . S
H187 C217 0.930 . S
O188 Co177 2.093 . S
O188 C180 1.224 . S
H189 C221 0.929 . S
H190 C223 0.930 . S
H191 C224 0.930 . S
H192 C222 0.929 . S
H193 C225 0.928 . S
O194 Co178 2.057 . S
O194 C182 1.232 . S
H195 C214 0.929 . S
H196 C215 0.929 . S
H197 C227 0.931 . S
H198 C219 0.929 . S
H199 C228 0.930 . S
H200 C220 0.931 . S
O201 Co177 2.097 . S
O201 C229 1.214 . S
H202 C230 0.929 . S
H203 C231 0.929 . S
H204 C232 0.930 . S
H205 C233 0.929 . S
H206 C235 0.930 . S
H207 C212 0.930 . S
H208 C216 0.930 . S
O209 Co178 2.037 . S
O209 C229 1.234 . S
C210 O184 1.269 . S
C210 O185 1.257 . S
C211 H186 0.930 . S
C211 C214 1.388 . S
C211 C216 1.418 . S
C212 H207 0.930 . S
C212 C215 1.404 . S
C212 C216 1.353 . S
N213 Co178 2.145 . S
N213 C214 1.397 . S
N213 C215 1.334 . S
C214 H195 0.929 . S
C214 C211 1.388 . S
C214 N213 1.397 . S
C215 H196 0.929 . S
C215 C212 1.404 . S
C215 N213 1.334 . S
C216 H208 0.930 . S
C216 C211 1.418 . S
C216 C212 1.353 . S
C217 H187 0.930 . S
C217 N218 1.330 . S
C217 C219 1.446 . S
N218 Co177 2.151 . S
N218 C217 1.330 . S
N218 C222 1.418 . S
C219 H198 0.929 . S
C219 C217 1.446 . S
C219 C220 1.332 . S
C220 H200 0.931 . S
C220 C219 1.332 . S
C220 C221 1.267 . S
C221 H189 0.929 . S
C221 C220 1.267 . S
C221 C222 1.251 . S
C222 H192 0.929 . S
C222 N218 1.418 . S
C222 C221 1.251 . S
C223 H190 0.930 . S
C223 C225 1.406 . S
C223 C228 1.261 . S
C224 H191 0.930 . S
C224 N226 1.325 . S
C224 C227 1.357 . S
C225 H193 0.928 . S
C225 C223 1.406 . S
C225 N226 1.261 . S
N226 Co177 2.214 . S
N226 C224 1.325 . S
N226 C225 1.261 . S
C227 H197 0.931 . S
C227 C224 1.357 . S
C227 C228 1.312 . S
C228 H199 0.930 . S
C228 C223 1.261 . S
C228 C227 1.312 . S
C229 O201 1.214 . S
C229 O209 1.234 . S
C230 H202 0.929 . S
C230 C233 1.391 . S
C230 C235 1.391 . S
C231 H203 0.929 . S
C231 C232 1.390 . S
C231 N234 1.391 . S
C232 H204 0.930 . S
C232 C231 1.390 . S
C232 C233 1.392 . S
C233 H205 0.929 . S
C233 C230 1.391 . S
C233 C232 1.392 . S
N234 Co178 2.257 . S
N234 C231 1.391 . S
N234 C235 1.388 . S
C235 H206 0.930 . S
C235 C230 1.391 . S
C235 N234 1.388 . S
Co236 O238 2.143 . S
Co236 O244 2.074 . S
Co236 O247 2.093 . S
Co236 O260 2.097 . S
Co236 N277 2.151 . S
Co236 N285 2.214 . S
Co237 O238 2.160 . S
Co237 O243 2.058 . S
Co237 O253 2.057 . S
Co237 O268 2.037 . S
Co237 N272 2.145 1_556 S
Co237 N293 2.257 . S
O238 Co236 2.143 . S
O238 Co237 2.160 . S
C239 O240 1.278 . S
C239 O247 1.224 . S
O240 C239 1.278 . S
C241 O242 1.245 . S
C241 O253 1.232 . S
O242 C241 1.245 . S
O243 Co237 2.058 . S
O243 C269 1.269 . S
O244 Co236 2.074 . S
O244 C269 1.257 . S
H245 C270 0.930 . S
H246 C276 0.930 . S
O247 Co236 2.093 . S
O247 C239 1.224 . S
H248 C280 0.929 . S
H249 C282 0.930 . S
H250 C283 0.930 . S
H251 C281 0.929 . S
H252 C284 0.928 . S
O253 Co237 2.057 . S
O253 C241 1.232 . S
H254 C273 0.929 . S
H255 C274 0.929 . S
H256 C286 0.931 . S
H257 C278 0.929 . S
H258 C287 0.930 . S
H259 C279 0.931 . S
O260 Co236 2.097 . S
O260 C288 1.214 . S
H261 C289 0.929 . S
H262 C290 0.929 . S
H263 C291 0.930 . S
H264 C292 0.929 . S
H265 C294 0.930 . S
H266 C271 0.930 . S
H267 C275 0.930 . S
O268 Co237 2.037 . S
O268 C288 1.234 . S
C269 O243 1.269 . S
C269 O244 1.257 . S
C270 H245 0.930 . S
C270 C273 1.388 . S
C270 C275 1.418 . S
C271 H266 0.930 . S
C271 C274 1.404 . S
C271 C275 1.353 . S
N272 Co237 2.145 1_554 S
N272 C273 1.397 . S
N272 C274 1.334 . S
C273 H254 0.929 . S
C273 C270 1.388 . S
C273 N272 1.397 . S
C274 H255 0.929 . S
C274 C271 1.404 . S
C274 N272 1.334 . S
C275 H267 0.930 . S
C275 C270 1.418 . S
C275 C271 1.353 . S
C276 H246 0.930 . S
C276 N277 1.330 . S
C276 C278 1.446 . S
N277 Co236 2.151 . S
N277 C276 1.330 . S
N277 C281 1.418 . S
C278 H257 0.929 . S
C278 C276 1.446 . S
C278 C279 1.332 . S
C279 H259 0.931 . S
C279 C278 1.332 . S
C279 C280 1.267 . S
C280 H248 0.929 . S
C280 C279 1.267 . S
C280 C281 1.251 . S
C281 H251 0.929 . S
C281 N277 1.418 . S
C281 C280 1.251 . S
C282 H249 0.930 . S
C282 C284 1.406 . S
C282 C287 1.261 . S
C283 H250 0.930 . S
C283 N285 1.325 . S
C283 C286 1.357 . S
C284 H252 0.928 . S
C284 C282 1.406 . S
C284 N285 1.261 . S
N285 Co236 2.214 . S
N285 C283 1.325 . S
N285 C284 1.261 . S
C286 H256 0.931 . S
C286 C283 1.357 . S
C286 C287 1.312 . S
C287 H258 0.930 . S
C287 C282 1.261 . S
C287 C286 1.312 . S
C288 O260 1.214 . S
C288 O268 1.234 . S
C289 H261 0.929 . S
C289 C292 1.391 . S
C289 C294 1.391 . S
C290 H262 0.929 . S
C290 C291 1.390 . S
C290 N293 1.391 . S
C291 H263 0.930 . S
C291 C290 1.390 . S
C291 C292 1.392 . S
C292 H264 0.929 . S
C292 C289 1.391 . S
C292 C291 1.392 . S
N293 Co237 2.257 . S
N293 C290 1.391 . S
N293 C294 1.388 . S
C294 H265 0.930 . S
C294 C289 1.391 . S
C294 N293 1.388 . S
Co295 O297 2.143 . S
Co295 O303 2.074 . S
Co295 O306 2.093 . S
Co295 O319 2.097 . S
Co295 N336 2.151 . S
Co295 N344 2.214 . S
Co296 O297 2.160 . S
Co296 O302 2.058 . S
Co296 O312 2.057 . S
Co296 O327 2.037 . S
Co296 N331 2.145 1_556 S
Co296 N352 2.257 . S
O297 Co295 2.143 . S
O297 Co296 2.160 . S
C298 O299 1.278 . S
C298 O306 1.224 . S
O299 C298 1.278 . S
C300 O301 1.245 . S
C300 O312 1.232 . S
O301 C300 1.245 . S
O302 Co296 2.058 . S
O302 C328 1.269 . S
O303 Co295 2.074 . S
O303 C328 1.257 . S
H304 C329 0.930 . S
H305 C335 0.930 . S
O306 Co295 2.093 . S
O306 C298 1.224 . S
H307 C339 0.929 . S
H308 C341 0.930 . S
H309 C342 0.930 . S
H310 C340 0.929 . S
H311 C343 0.928 . S
O312 Co296 2.057 . S
O312 C300 1.232 . S
H313 C332 0.929 . S
H314 C333 0.929 . S
H315 C345 0.931 . S
H316 C337 0.929 . S
H317 C346 0.930 . S
H318 C338 0.931 . S
O319 Co295 2.097 . S
O319 C347 1.214 . S
H320 C348 0.929 . S
H321 C349 0.929 . S
H322 C350 0.930 . S
H323 C351 0.929 . S
H324 C353 0.930 . S
H325 C330 0.930 . S
H326 C334 0.930 . S
O327 Co296 2.037 . S
O327 C347 1.234 . S
C328 O302 1.269 . S
C328 O303 1.257 . S
C329 H304 0.930 . S
C329 C332 1.388 . S
C329 C334 1.418 . S
C330 H325 0.930 . S
C330 C333 1.404 . S
C330 C334 1.353 . S
N331 Co296 2.145 1_554 S
N331 C332 1.397 . S
N331 C333 1.334 . S
C332 H313 0.929 . S
C332 C329 1.388 . S
C332 N331 1.397 . S
C333 H314 0.929 . S
C333 C330 1.404 . S
C333 N331 1.334 . S
C334 H326 0.930 . S
C334 C329 1.418 . S
C334 C330 1.353 . S
C335 H305 0.930 . S
C335 N336 1.330 . S
C335 C337 1.446 . S
N336 Co295 2.151 . S
N336 C335 1.330 . S
N336 C340 1.418 . S
C337 H316 0.929 . S
C337 C335 1.446 . S
C337 C338 1.332 . S
C338 H318 0.931 . S
C338 C337 1.332 . S
C338 C339 1.267 . S
C339 H307 0.929 . S
C339 C338 1.267 . S
C339 C340 1.251 . S
C340 H310 0.929 . S
C340 N336 1.418 . S
C340 C339 1.251 . S
C341 H308 0.930 . S
C341 C343 1.406 . S
C341 C346 1.261 . S
C342 H309 0.930 . S
C342 N344 1.325 . S
C342 C345 1.357 . S
C343 H311 0.928 . S
C343 C341 1.406 . S
C343 N344 1.261 . S
N344 Co295 2.214 . S
N344 C342 1.325 . S
N344 C343 1.261 . S
C345 H315 0.931 . S
C345 C342 1.357 . S
C345 C346 1.312 . S
C346 H317 0.930 . S
C346 C341 1.261 . S
C346 C345 1.312 . S
C347 O319 1.214 . S
C347 O327 1.234 . S
C348 H320 0.929 . S
C348 C351 1.391 . S
C348 C353 1.391 . S
C349 H321 0.929 . S
C349 C350 1.390 . S
C349 N352 1.391 . S
C350 H322 0.930 . S
C350 C349 1.390 . S
C350 C351 1.392 . S
C351 H323 0.929 . S
C351 C348 1.391 . S
C351 C350 1.392 . S
N352 Co296 2.257 . S
N352 C349 1.391 . S
N352 C353 1.388 . S
C353 H324 0.930 . S
C353 C348 1.391 . S
C353 N352 1.388 . S
Co354 O356 2.143 . S
Co354 O362 2.074 . S
Co354 O365 2.093 . S
Co354 O378 2.097 . S
Co354 N395 2.151 . S
Co354 N403 2.214 . S
Co355 O356 2.160 . S
Co355 O361 2.058 . S
Co355 O371 2.057 . S
Co355 O386 2.037 . S
Co355 N390 2.145 . S
Co355 N411 2.257 . S
O356 Co354 2.143 . S
O356 Co355 2.160 . S
C357 O358 1.278 . S
C357 O365 1.224 . S
O358 C357 1.278 . S
C359 O360 1.245 . S
C359 O371 1.232 . S
O360 C359 1.245 . S
O361 Co355 2.058 . S
O361 C387 1.269 . S
O362 Co354 2.074 . S
O362 C387 1.257 . S
H363 C388 0.930 . S
H364 C394 0.930 . S
O365 Co354 2.093 . S
O365 C357 1.224 . S
H366 C398 0.929 . S
H367 C400 0.930 . S
H368 C401 0.930 . S
H369 C399 0.929 . S
H370 C402 0.928 . S
O371 Co355 2.057 . S
O371 C359 1.232 . S
H372 C391 0.929 . S
H373 C392 0.929 . S
H374 C404 0.931 . S
H375 C396 0.929 . S
H376 C405 0.930 . S
H377 C397 0.931 . S
O378 Co354 2.097 . S
O378 C406 1.214 . S
H379 C407 0.929 . S
H380 C408 0.929 . S
H381 C409 0.930 . S
H382 C410 0.929 . S
H383 C412 0.930 . S
H384 C389 0.930 . S
H385 C393 0.930 . S
O386 Co355 2.037 . S
O386 C406 1.234 . S
C387 O361 1.269 . S
C387 O362 1.257 . S
C388 H363 0.930 . S
C388 C391 1.388 . S
C388 C393 1.418 . S
C389 H384 0.930 . S
C389 C392 1.404 . S
C389 C393 1.353 . S
N390 Co355 2.145 . S
N390 C391 1.397 . S
N390 C392 1.334 . S
C391 H372 0.929 . S
C391 C388 1.388 . S
C391 N390 1.397 . S
C392 H373 0.929 . S
C392 C389 1.404 . S
C392 N390 1.334 . S
C393 H385 0.930 . S
C393 C388 1.418 . S
C393 C389 1.353 . S
C394 H364 0.930 . S
C394 N395 1.330 . S
C394 C396 1.446 . S
N395 Co354 2.151 . S
N395 C394 1.330 . S
N395 C399 1.418 . S
C396 H375 0.929 . S
C396 C394 1.446 . S
C396 C397 1.332 . S
C397 H377 0.931 . S
C397 C396 1.332 . S
C397 C398 1.267 . S
C398 H366 0.929 . S
C398 C397 1.267 . S
C398 C399 1.251 . S
C399 H369 0.929 . S
C399 N395 1.418 . S
C399 C398 1.251 . S
C400 H367 0.930 . S
C400 C402 1.406 . S
C400 C405 1.261 . S
C401 H368 0.930 . S
C401 N403 1.325 . S
C401 C404 1.357 . S
C402 H370 0.928 . S
C402 C400 1.406 . S
C402 N403 1.261 . S
N403 Co354 2.214 . S
N403 C401 1.325 . S
N403 C402 1.261 . S
C404 H374 0.931 . S
C404 C401 1.357 . S
C404 C405 1.312 . S
C405 H376 0.930 . S
C405 C400 1.261 . S
C405 C404 1.312 . S
C406 O378 1.214 . S
C406 O386 1.234 . S
C407 H379 0.929 . S
C407 C410 1.391 . S
C407 C412 1.391 . S
C408 H380 0.929 . S
C408 C409 1.390 . S
C408 N411 1.391 . S
C409 H381 0.930 . S
C409 C408 1.390 . S
C409 C410 1.392 . S
C410 H382 0.929 . S
C410 C407 1.391 . S
C410 C409 1.392 . S
N411 Co355 2.257 . S
N411 C408 1.391 . S
N411 C412 1.388 . S
C412 H383 0.930 . S
C412 C407 1.391 . S
C412 N411 1.388 . S
Co413 O415 2.143 . S
Co413 O421 2.074 . S
Co413 O424 2.093 . S
Co413 O437 2.097 . S
Co413 N454 2.151 . S
Co413 N462 2.214 . S
Co414 O415 2.160 . S
Co414 O420 2.058 . S
Co414 O430 2.057 . S
Co414 O445 2.037 . S
Co414 N449 2.145 . S
Co414 N470 2.257 . S
O415 Co413 2.143 . S
O415 Co414 2.160 . S
C416 O417 1.278 . S
C416 O424 1.224 . S
O417 C416 1.278 . S
C418 O419 1.245 . S
C418 O430 1.232 . S
O419 C418 1.245 . S
O420 Co414 2.058 . S
O420 C446 1.269 . S
O421 Co413 2.074 . S
O421 C446 1.257 . S
H422 C447 0.930 . S
H423 C453 0.930 . S
O424 Co413 2.093 . S
O424 C416 1.224 . S
H425 C457 0.929 . S
H426 C459 0.930 . S
H427 C460 0.930 . S
H428 C458 0.929 . S
H429 C461 0.928 . S
O430 Co414 2.057 . S
O430 C418 1.232 . S
H431 C450 0.929 . S
H432 C451 0.929 . S
H433 C463 0.931 . S
H434 C455 0.929 . S
H435 C464 0.930 . S
H436 C456 0.931 . S
O437 Co413 2.097 . S
O437 C465 1.214 . S
H438 C466 0.929 . S
H439 C467 0.929 . S
H440 C468 0.930 . S
H441 C469 0.929 . S
H442 C471 0.930 . S
H443 C448 0.930 . S
H444 C452 0.930 . S
O445 Co414 2.037 . S
O445 C465 1.234 . S
C446 O420 1.269 . S
C446 O421 1.257 . S
C447 H422 0.930 . S
C447 C450 1.388 . S
C447 C452 1.418 . S
C448 H443 0.930 . S
C448 C451 1.404 . S
C448 C452 1.353 . S
N449 Co414 2.145 . S
N449 C450 1.397 . S
N449 C451 1.334 . S
C450 H431 0.929 . S
C450 C447 1.388 . S
C450 N449 1.397 . S
C451 H432 0.929 . S
C451 C448 1.404 . S
C451 N449 1.334 . S
C452 H444 0.930 . S
C452 C447 1.418 . S
C452 C448 1.353 . S
C453 H423 0.930 . S
C453 N454 1.330 . S
C453 C455 1.446 . S
N454 Co413 2.151 . S
N454 C453 1.330 . S
N454 C458 1.418 . S
C455 H434 0.929 . S
C455 C453 1.446 . S
C455 C456 1.332 . S
C456 H436 0.931 . S
C456 C455 1.332 . S
C456 C457 1.267 . S
C457 H425 0.929 . S
C457 C456 1.267 . S
C457 C458 1.251 . S
C458 H428 0.929 . S
C458 N454 1.418 . S
C458 C457 1.251 . S
C459 H426 0.930 . S
C459 C461 1.406 . S
C459 C464 1.261 . S
C460 H427 0.930 . S
C460 N462 1.325 . S
C460 C463 1.357 . S
C461 H429 0.928 . S
C461 C459 1.406 . S
C461 N462 1.261 . S
N462 Co413 2.214 . S
N462 C460 1.325 . S
N462 C461 1.261 . S
C463 H433 0.931 . S
C463 C460 1.357 . S
C463 C464 1.312 . S
C464 H435 0.930 . S
C464 C459 1.261 . S
C464 C463 1.312 . S
C465 O437 1.214 . S
C465 O445 1.234 . S
C466 H438 0.929 . S
C466 C469 1.391 . S
C466 C471 1.391 . S
C467 H439 0.929 . S
C467 C468 1.390 . S
C467 N470 1.391 . S
C468 H440 0.930 . S
C468 C467 1.390 . S
C468 C469 1.392 . S
C469 H441 0.929 . S
C469 C466 1.391 . S
C469 C468 1.392 . S
N470 Co414 2.257 . S
N470 C467 1.391 . S
N470 C471 1.388 . S
C471 H442 0.930 . S
C471 C466 1.391 . S
C471 N470 1.388 . S
C472 C473 1.349 . S
C472 C474 1.327 . S
C472 H497 0.950 . S
C473 C472 1.349 . S
C473 C489 1.349 . S
C474 C472 1.327 . S
C474 C493 1.429 . S
C474 H498 0.950 . S
C475 C492 1.585 . S
C475 C494 1.358 1_565 S
C475 H499 0.949 . S
H476 C480 0.949 . S
C477 C478 1.349 . S
C477 C479 1.327 . S
C477 H500 0.950 . S
C478 C477 1.349 . S
C478 C490 1.349 . S
C479 C477 1.327 . S
C479 C495 1.429 . S
C479 H501 0.950 . S
C480 H476 0.949 . S
C480 C488 1.584 . S
C480 C496 1.358 1_545 S
H481 C489 0.950 . S
H482 C487 0.950 . S
H483 C488 0.949 . S
H484 C490 0.950 . S
H485 C491 0.950 . S
H486 C492 0.949 . S
C487 H482 0.950 . S
C487 C489 1.327 . S
C487 C493 1.429 . S
C488 C480 1.584 . S
C488 H483 0.949 . S
C488 C494 1.368 . S
C489 C473 1.349 . S
C489 H481 0.950 . S
C489 C487 1.327 . S
C490 C478 1.349 . S
C490 H484 0.950 . S
C490 C491 1.327 . S
C491 H485 0.950 . S
C491 C490 1.327 . S
C491 C495 1.429 . S
C492 C475 1.585 . S
C492 H486 0.949 . S
C492 C496 1.368 . S
C493 C474 1.429 . S
C493 C487 1.429 . S
C493 C494 1.523 . S
C494 C475 1.358 1_545 S
C494 C488 1.368 . S
C494 C493 1.523 . S
C495 C479 1.429 . S
C495 C491 1.429 . S
C495 C496 1.523 . S
C496 C480 1.358 1_565 S
C496 C492 1.368 . S
C496 C495 1.523 . S
H497 C472 0.950 . S
H498 C474 0.950 . S
H499 C475 0.949 . S
H500 C477 0.950 . S
H501 C479 0.950 . S
C502 C503 1.349 . S
C502 C504 1.327 . S
C502 H527 0.950 . S
C503 C502 1.349 . S
C503 C519 1.349 . S
C504 C502 1.327 . S
C504 C523 1.429 . S
C504 H528 0.950 . S
C505 C522 1.574 . S
C505 C524 1.368 . S
C505 H529 0.949 . S
H506 C510 0.949 . S
C507 C508 1.349 . S
C507 C509 1.327 . S
C507 H530 0.950 . S
C508 C507 1.349 . S
C508 C520 1.349 . S
C509 C507 1.327 . S
C509 C525 1.429 . S
C509 H531 0.950 . S
C510 H506 0.949 . S
C510 C518 1.574 . S
C510 C526 1.368 . S
H511 C519 0.950 . S
H512 C517 0.950 . S
H513 C518 0.949 . S
H514 C520 0.950 . S
H515 C521 0.950 . S
H516 C522 0.949 . S
C517 H512 0.950 . S
C517 C519 1.327 . S
C517 C523 1.429 . S
C518 C510 1.574 . S
C518 H513 0.949 . S
C518 C524 1.368 . S
C519 C503 1.349 . S
C519 H511 0.950 . S
C519 C517 1.327 . S
C520 C508 1.349 . S
C520 H514 0.950 . S
C520 C521 1.327 . S
C521 H515 0.950 . S
C521 C520 1.327 . S
C521 C525 1.429 . S
C522 C505 1.574 . S
C522 H516 0.949 . S
C522 C526 1.368 . S
C523 C504 1.429 . S
C523 C517 1.429 . S
C523 C524 1.523 . S
C524 C505 1.368 . S
C524 C518 1.368 . S
C524 C523 1.523 . S
C525 C509 1.429 . S
C525 C521 1.429 . S
C525 C526 1.523 . S
C526 C510 1.368 . S
C526 C522 1.368 . S
C526 C525 1.523 . S
H527 C502 0.950 . S
H528 C504 0.950 . S
H529 C505 0.949 . S
H530 C507 0.950 . S
H531 C509 0.950 . S
C532 C533 1.349 . S
C532 C534 1.327 . S
C532 H557 0.950 . S
C533 C532 1.349 . S
C533 C549 1.349 . S
C534 C532 1.327 . S
C534 C553 1.429 . S
C534 H558 0.950 . S
C535 C552 1.583 . S
C535 C554 1.359 1_545 S
C535 H559 0.949 . S
H536 C540 0.949 . S
C537 C538 1.349 . S
C537 C539 1.327 . S
C537 H560 0.950 . S
C538 C537 1.349 . S
C538 C550 1.349 . S
C539 C537 1.327 . S
C539 C555 1.429 . S
C539 H561 0.950 . S
C540 H536 0.949 . S
C540 C548 1.583 . S
C540 C556 1.359 1_565 S
H541 C549 0.950 . S
H542 C547 0.950 . S
H543 C548 0.949 . S
H544 C550 0.950 . S
H545 C551 0.950 . S
H546 C552 0.949 . S
C547 H542 0.950 . S
C547 C549 1.327 . S
C547 C553 1.429 . S
C548 C540 1.583 . S
C548 H543 0.949 . S
C548 C554 1.368 . S
C549 C533 1.349 . S
C549 H541 0.950 . S
C549 C547 1.327 . S
C550 C538 1.349 . S
C550 H544 0.950 . S
C550 C551 1.327 . S
C551 H545 0.950 . S
C551 C550 1.327 . S
C551 C555 1.429 . S
C552 C535 1.583 . S
C552 H546 0.949 . S
C552 C556 1.368 . S
C553 C534 1.429 . S
C553 C547 1.429 . S
C553 C554 1.523 . S
C554 C535 1.359 1_565 S
C554 C548 1.368 . S
C554 C553 1.523 . S
C555 C539 1.429 . S
C555 C551 1.429 . S
C555 C556 1.523 . S
C556 C540 1.359 1_545 S
C556 C552 1.368 . S
C556 C555 1.523 . S
H557 C532 0.950 . S
H558 C534 0.950 . S
H559 C535 0.949 . S
H560 C537 0.950 . S
H561 C539 0.950 . S
C562 C563 1.349 . S
C562 C564 1.327 . S
C562 H587 0.950 . S
C563 C562 1.349 . S
C563 C579 1.349 . S
C564 C562 1.327 . S
C564 C583 1.429 . S
C564 H588 0.950 . S
C565 C582 1.574 . S
C565 C584 1.368 . S
C565 H589 0.949 . S
H566 C570 0.949 . S
C567 C568 1.349 . S
C567 C569 1.327 . S
C567 H590 0.950 . S
C568 C567 1.349 . S
C568 C580 1.349 . S
C569 C567 1.327 . S
C569 C585 1.429 . S
C569 H591 0.950 . S
C570 H566 0.949 . S
C570 C578 1.574 . S
C570 C586 1.368 . S
H571 C579 0.950 . S
H572 C577 0.950 . S
H573 C578 0.949 . S
H574 C580 0.950 . S
H575 C581 0.950 . S
H576 C582 0.949 . S
C577 H572 0.950 . S
C577 C579 1.327 . S
C577 C583 1.429 . S
C578 C570 1.574 . S
C578 H573 0.949 . S
C578 C584 1.368 . S
C579 C563 1.349 . S
C579 H571 0.950 . S
C579 C577 1.327 . S
C580 C568 1.349 . S
C580 H574 0.950 . S
C580 C581 1.327 . S
C581 H575 0.950 . S
C581 C580 1.327 . S
C581 C585 1.429 . S
C582 C565 1.574 . S
C582 H576 0.949 . S
C582 C586 1.368 . S
C583 C564 1.429 . S
C583 C577 1.429 . S
C583 C584 1.523 . S
C584 C565 1.368 . S
C584 C578 1.368 . S
C584 C583 1.523 . S
C585 C569 1.429 . S
C585 C581 1.429 . S
C585 C586 1.523 . S
C586 C570 1.368 . S
C586 C582 1.368 . S
C586 C585 1.523 . S
H587 C562 0.950 . S
H588 C564 0.950 . S
H589 C565 0.949 . S
H590 C567 0.950 . S
H591 C569 0.950 . S
C592 C593 1.349 . S
C592 C594 1.327 . S
C592 H617 0.950 . S
C593 C592 1.349 . S
C593 C609 1.349 . S
C594 C592 1.327 . S
C594 C613 1.429 . S
C594 H618 0.950 . S
C595 C612 1.574 . S
C595 C614 1.368 . S
C595 H619 0.949 . S
H596 C600 0.949 . S
C597 C598 1.349 . S
C597 C599 1.327 . S
C597 H620 0.950 . S
C598 C597 1.349 . S
C598 C610 1.349 . S
C599 C597 1.327 . S
C599 C615 1.429 . S
C599 H621 0.950 . S
C600 H596 0.949 . S
C600 C608 1.574 . S
C600 C616 1.368 . S
H601 C609 0.950 . S
H602 C607 0.950 . S
H603 C608 0.949 . S
H604 C610 0.950 . S
H605 C611 0.950 . S
H606 C612 0.949 . S
C607 H602 0.950 . S
C607 C609 1.327 . S
C607 C613 1.429 . S
C608 C600 1.574 . S
C608 H603 0.949 . S
C608 C614 1.368 . S
C609 C593 1.349 . S
C609 H601 0.950 . S
C609 C607 1.327 . S
C610 C598 1.349 . S
C610 H604 0.950 . S
C610 C611 1.327 . S
C611 H605 0.950 . S
C611 C610 1.327 . S
C611 C615 1.429 . S
C612 C595 1.574 . S
C612 H606 0.949 . S
C612 C616 1.368 . S
C613 C594 1.429 . S
C613 C607 1.429 . S
C613 C614 1.523 . S
C614 C595 1.368 . S
C614 C608 1.368 . S
C614 C613 1.523 . S
C615 C599 1.429 . S
C615 C611 1.429 . S
C615 C616 1.523 . S
C616 C600 1.368 . S
C616 C612 1.368 . S
C616 C615 1.523 . S
H617 C592 0.950 . S
H618 C594 0.950 . S
H619 C595 0.949 . S
H620 C597 0.950 . S
H621 C599 0.950 . S
C622 C623 1.349 . S
C622 C624 1.327 . S
C622 H647 0.950 . S
C623 C622 1.349 . S
C623 C639 1.349 . S
C624 C622 1.327 . S
C624 C643 1.429 . S
C624 H648 0.950 . S
C625 C642 1.574 . S
C625 C644 1.368 . S
C625 H649 0.949 . S
H626 C630 0.949 . S
C627 C628 1.349 . S
C627 C629 1.327 . S
C627 H650 0.950 . S
C628 C627 1.349 . S
C628 C640 1.349 . S
C629 C627 1.327 . S
C629 C645 1.429 . S
C629 H651 0.950 . S
C630 H626 0.949 . S
C630 C638 1.574 . S
C630 C646 1.368 . S
H631 C639 0.950 . S
H632 C637 0.950 . S
H633 C638 0.949 . S
H634 C640 0.950 . S
H635 C641 0.950 . S
H636 C642 0.949 . S
C637 H632 0.950 . S
C637 C639 1.327 . S
C637 C643 1.429 . S
C638 C630 1.574 . S
C638 H633 0.949 . S
C638 C644 1.368 . S
C639 C623 1.349 . S
C639 H631 0.950 . S
C639 C637 1.327 . S
C640 C628 1.349 . S
C640 H634 0.950 . S
C640 C641 1.327 . S
C641 H635 0.950 . S
C641 C640 1.327 . S
C641 C645 1.429 . S
C642 C625 1.574 . S
C642 H636 0.949 . S
C642 C646 1.368 . S
C643 C624 1.429 . S
C643 C637 1.429 . S
C643 C644 1.523 . S
C644 C625 1.368 . S
C644 C638 1.368 . S
C644 C643 1.523 . S
C645 C629 1.429 . S
C645 C641 1.429 . S
C645 C646 1.523 . S
C646 C630 1.368 . S
C646 C642 1.368 . S
C646 C645 1.523 . S
H647 C622 0.950 . S
H648 C624 0.950 . S
H649 C625 0.949 . S
H650 C627 0.950 . S
H651 C629 0.950 . S
C652 C653 1.349 . S
C652 C654 1.327 . S
C652 H677 0.950 . S
C653 C652 1.349 . S
C653 C669 1.349 . S
C654 C652 1.327 . S
C654 C673 1.429 . S
C654 H678 0.950 . S
C655 C672 1.574 . S
C655 C674 1.368 . S
C655 H679 0.949 . S
H656 C660 0.949 . S
C657 C658 1.349 . S
C657 C659 1.327 . S
C657 H680 0.950 . S
C658 C657 1.349 . S
C658 C670 1.349 . S
C659 C657 1.327 . S
C659 C675 1.429 . S
C659 H681 0.950 . S
C660 H656 0.949 . S
C660 C668 1.574 . S
C660 C676 1.368 . S
H661 C669 0.950 . S
H662 C667 0.950 . S
H663 C668 0.949 . S
H664 C670 0.950 . S
H665 C671 0.950 . S
H666 C672 0.949 . S
C667 H662 0.950 . S
C667 C669 1.327 . S
C667 C673 1.429 . S
C668 C660 1.574 . S
C668 H663 0.949 . S
C668 C674 1.368 . S
C669 C653 1.349 . S
C669 H661 0.950 . S
C669 C667 1.327 . S
C670 C658 1.349 . S
C670 H664 0.950 . S
C670 C671 1.327 . S
C671 H665 0.950 . S
C671 C670 1.327 . S
C671 C675 1.429 . S
C672 C655 1.574 . S
C672 H666 0.949 . S
C672 C676 1.368 . S
C673 C654 1.429 . S
C673 C667 1.429 . S
C673 C674 1.523 . S
C674 C655 1.368 . S
C674 C668 1.368 . S
C674 C673 1.523 . S
C675 C659 1.429 . S
C675 C671 1.429 . S
C675 C676 1.523 . S
C676 C660 1.368 . S
C676 C672 1.368 . S
C676 C675 1.523 . S
H677 C652 0.950 . S
H678 C654 0.950 . S
H679 C655 0.949 . S
H680 C657 0.950 . S
H681 C659 0.950 . S
C682 C683 1.349 . S
C682 C684 1.327 . S
C682 H707 0.950 . S
C683 C682 1.349 . S
C683 C699 1.349 . S
C684 C682 1.327 . S
C684 C703 1.429 . S
C684 H708 0.950 . S
C685 C702 1.574 . S
C685 C704 1.368 . S
C685 H709 0.949 . S
H686 C690 0.949 . S
C687 C688 1.349 . S
C687 C689 1.327 . S
C687 H710 0.950 . S
C688 C687 1.349 . S
C688 C700 1.349 . S
C689 C687 1.327 . S
C689 C705 1.429 . S
C689 H711 0.950 . S
C690 H686 0.949 . S
C690 C698 1.574 . S
C690 C706 1.368 . S
H691 C699 0.950 . S
H692 C697 0.950 . S
H693 C698 0.949 . S
H694 C700 0.950 . S
H695 C701 0.950 . S
H696 C702 0.949 . S
C697 H692 0.950 . S
C697 C699 1.327 . S
C697 C703 1.429 . S
C698 C690 1.574 . S
C698 H693 0.949 . S
C698 C704 1.368 . S
C699 C683 1.349 . S
C699 H691 0.950 . S
C699 C697 1.327 . S
C700 C688 1.349 . S
C700 H694 0.950 . S
C700 C701 1.327 . S
C701 H695 0.950 . S
C701 C700 1.327 . S
C701 C705 1.429 . S
C702 C685 1.574 . S
C702 H696 0.949 . S
C702 C706 1.368 . S
C703 C684 1.429 . S
C703 C697 1.429 . S
C703 C704 1.523 . S
C704 C685 1.368 . S
C704 C698 1.368 . S
C704 C703 1.523 . S
C705 C689 1.429 . S
C705 C701 1.429 . S
C705 C706 1.523 . S
C706 C690 1.368 . S
C706 C702 1.368 . S
C706 C705 1.523 . S
H707 C682 0.950 . S
H708 C684 0.950 . S
H709 C685 0.949 . S
H710 C687 0.950 . S
H711 C689 0.950 . S
C712 C713 1.349 1_556 S
C712 C714 1.327 . S
C712 H737 0.950 . S
C713 C712 1.349 1_554 S
C713 C729 1.349 . S
C714 C712 1.327 . S
C714 C733 1.429 1_556 S
C714 H738 0.950 . S
C715 C732 1.574 . S
C715 C734 1.368 . S
C715 H739 0.949 . S
H716 C720 0.949 . S
C717 C718 1.349 1_554 S
C717 C719 1.327 . S
C717 H740 0.950 . S
C718 C717 1.349 1_556 S
C718 C730 1.349 . S
C719 C717 1.327 . S
C719 C735 1.429 1_554 S
C719 H741 0.950 . S
C720 H716 0.949 . S
C720 C728 1.574 . S
C720 C736 1.368 . S
H721 C729 0.950 . S
H722 C727 0.950 . S
H723 C728 0.949 . S
H724 C730 0.950 . S
H725 C731 0.950 . S
H726 C732 0.949 . S
C727 H722 0.950 . S
C727 C729 1.327 . S
C727 C733 1.429 . S
C728 C720 1.574 . S
C728 H723 0.949 . S
C728 C734 1.368 1_556 S
C729 C713 1.349 . S
C729 H721 0.950 . S
C729 C727 1.327 . S
C730 C718 1.349 . S
C730 H724 0.950 . S
C730 C731 1.327 . S
C731 H725 0.950 . S
C731 C730 1.327 . S
C731 C735 1.429 . S
C732 C715 1.574 . S
C732 H726 0.949 . S
C732 C736 1.368 1_554 S
C733 C714 1.429 1_554 S
C733 C727 1.429 . S
C733 C734 1.523 . S
C734 C715 1.368 . S
C734 C728 1.368 1_554 S
C734 C733 1.523 . S
C735 C719 1.429 1_556 S
C735 C731 1.429 . S
C735 C736 1.523 . S
C736 C720 1.368 . S
C736 C732 1.368 1_556 S
C736 C735 1.523 . S
H737 C712 0.950 . S
H738 C714 0.950 . S
H739 C715 0.949 . S
H740 C717 0.950 . S
H741 C719 0.950 . S
C742 C743 1.349 . S
C742 C744 1.327 . S
C742 H767 0.950 . S
C743 C742 1.349 . S
C743 C759 1.349 1_554 S
C744 C742 1.327 . S
C744 C763 1.429 . S
C744 H768 0.950 . S
C745 C762 1.574 . S
C745 C764 1.368 1_556 S
C745 H769 0.949 . S
H746 C750 0.949 . S
C747 C748 1.349 . S
C747 C749 1.327 . S
C747 H770 0.950 . S
C748 C747 1.349 . S
C748 C760 1.349 1_556 S
C749 C747 1.327 . S
C749 C765 1.429 . S
C749 H771 0.950 . S
C750 H746 0.949 . S
C750 C758 1.574 . S
C750 C766 1.368 1_554 S
H751 C759 0.950 . S
H752 C757 0.950 . S
H753 C758 0.949 . S
H754 C760 0.950 . S
H755 C761 0.950 . S
H756 C762 0.949 . S
C757 H752 0.950 . S
C757 C759 1.327 . S
C757 C763 1.429 1_556 S
C758 C750 1.574 . S
C758 H753 0.949 . S
C758 C764 1.368 1_655 S
C759 C743 1.349 1_556 S
C759 H751 0.950 . S
C759 C757 1.327 . S
C760 C748 1.349 1_554 S
C760 H754 0.950 . S
C760 C761 1.327 . S
C761 H755 0.950 . S
C761 C760 1.327 . S
C761 C765 1.429 1_554 S
C762 C745 1.574 . S
C762 H756 0.949 . S
C762 C766 1.368 1_455 S
C763 C744 1.429 . S
C763 C757 1.429 1_554 S
C763 C764 1.523 . S
C764 C745 1.368 1_554 S
C764 C758 1.368 1_455 S
C764 C763 1.523 . S
C765 C749 1.429 . S
C765 C761 1.429 1_556 S
C765 C766 1.523 . S
C766 C750 1.368 1_556 S
C766 C762 1.368 1_655 S
C766 C765 1.523 . S
H767 C742 0.950 . S
H768 C744 0.950 . S
H769 C745 0.949 . S
H770 C747 0.950 . S
H771 C749 0.950 . S
C772 C773 1.349 . S
C772 C774 1.327 . S
C772 H797 0.950 . S
C773 C772 1.349 . S
C773 C789 1.349 . S
C774 C772 1.327 . S
C774 C793 1.429 . S
C774 H798 0.950 . S
C775 C792 1.574 . S
C775 C794 1.368 1_545 S
C775 H799 0.949 . S
H776 C780 0.949 . S
C777 C778 1.349 . S
C777 C779 1.327 . S
C777 H800 0.950 . S
C778 C777 1.349 . S
C778 C790 1.349 . S
C779 C777 1.327 . S
C779 C795 1.429 . S
C779 H801 0.950 . S
C780 H776 0.949 . S
C780 C788 1.574 . S
C780 C796 1.368 1_565 S
H781 C789 0.950 . S
H782 C787 0.950 . S
H783 C788 0.949 . S
H784 C790 0.950 . S
H785 C791 0.950 . S
H786 C792 0.949 . S
C787 H782 0.950 . S
C787 C789 1.327 . S
C787 C793 1.429 . S
C788 C780 1.574 . S
C788 H783 0.949 . S
C788 C794 1.368 . S
C789 C773 1.349 . S
C789 H781 0.950 . S
C789 C787 1.327 . S
C790 C778 1.349 . S
C790 H784 0.950 . S
C790 C791 1.327 . S
C791 H785 0.950 . S
C791 C790 1.327 . S
C791 C795 1.429 . S
C792 C775 1.574 . S
C792 H786 0.949 . S
C792 C796 1.368 . S
C793 C774 1.429 . S
C793 C787 1.429 . S
C793 C794 1.523 . S
C794 C775 1.368 1_565 S
C794 C788 1.368 . S
C794 C793 1.523 . S
C795 C779 1.429 . S
C795 C791 1.429 . S
C795 C796 1.523 . S
C796 C780 1.368 1_545 S
C796 C792 1.368 . S
C796 C795 1.523 . S
H797 C772 0.950 . S
H798 C774 0.950 . S
H799 C775 0.949 . S
H800 C777 0.950 . S
H801 C779 0.950 . S
C802 C803 1.349 . S
C802 C804 1.327 . S
C802 H827 0.950 . S
C803 C802 1.349 . S
C803 C819 1.349 . S
C804 C802 1.327 . S
C804 C823 1.429 . S
C804 H828 0.950 . S
C805 C822 1.539 1_655 S
C805 C824 1.400 . S
C805 H829 0.953 . S
H806 C810 0.953 . S
C807 C808 1.349 . S
C807 C809 1.327 . S
C807 H830 0.950 . S
C808 C807 1.349 . S
C808 C820 1.349 . S
C809 C807 1.327 . S
C809 C825 1.429 . S
C809 H831 0.950 . S
C810 H806 0.953 . S
C810 C818 1.539 1_455 S
C810 C826 1.400 . S
H811 C819 0.950 . S
H812 C817 0.950 . S
H813 C818 0.949 . S
H814 C820 0.950 . S
H815 C821 0.950 . S
H816 C822 0.949 . S
C817 H812 0.950 . S
C817 C819 1.327 . S
C817 C823 1.429 . S
C818 C810 1.539 1_655 S
C818 H813 0.949 . S
C818 C824 1.368 1_565 S
C819 C803 1.349 . S
C819 H811 0.950 . S
C819 C817 1.327 . S
C820 C808 1.349 . S
C820 H814 0.950 . S
C820 C821 1.327 . S
C821 H815 0.950 . S
C821 C820 1.327 . S
C821 C825 1.429 . S
C822 C805 1.539 1_455 S
C822 H816 0.949 . S
C822 C826 1.368 1_545 S
C823 C804 1.429 . S
C823 C817 1.429 . S
C823 C824 1.523 . S
C824 C805 1.400 . S
C824 C818 1.368 1_545 S
C824 C823 1.523 . S
C825 C809 1.429 . S
C825 C821 1.429 . S
C825 C826 1.523 . S
C826 C810 1.400 . S
C826 C822 1.368 1_565 S
C826 C825 1.523 . S
H827 C802 0.950 . S
H828 C804 0.950 . S
H829 C805 0.953 . S
H830 C807 0.950 . S
H831 C809 0.950 . S
C832 C833 1.349 . S
C832 C834 1.327 . S
C832 H857 0.950 . S
C833 C832 1.349 . S
C833 C849 1.349 . S
C834 C832 1.327 . S
C834 C853 1.429 . S
C834 H858 0.950 . S
C835 C852 1.574 . S
C835 C854 1.368 . S
C835 H859 0.949 1_554 S
H836 C840 0.949 . S
C837 C838 1.349 . S
C837 C839 1.327 . S
C837 H860 0.950 1_554 S
C838 C837 1.349 . S
C838 C850 1.349 . S
C839 C837 1.327 . S
C839 C855 1.429 . S
C839 H861 0.950 1_554 S
C840 H836 0.949 . S
C840 C848 1.574 . S
C840 C856 1.368 . S
H841 C849 0.950 1_556 S
H842 C847 0.950 1_556 S
H843 C848 0.949 . S
H844 C850 0.950 . S
H845 C851 0.950 . S
H846 C852 0.949 1_556 S
C847 H842 0.950 1_554 S
C847 C849 1.327 . S
C847 C853 1.429 . S
C848 C840 1.574 . S
C848 H843 0.949 . S
C848 C854 1.368 . S
C849 C833 1.349 . S
C849 H841 0.950 1_554 S
C849 C847 1.327 . S
C850 C838 1.349 . S
C850 H844 0.950 . S
C850 C851 1.327 . S
C851 H845 0.950 . S
C851 C850 1.327 . S
C851 C855 1.429 . S
C852 C835 1.574 . S
C852 H846 0.949 1_554 S
C852 C856 1.368 . S
C853 C834 1.429 . S
C853 C847 1.429 . S
C853 C854 1.523 . S
C854 C835 1.368 . S
C854 C848 1.368 . S
C854 C853 1.523 . S
C855 C839 1.429 . S
C855 C851 1.429 . S
C855 C856 1.523 . S
C856 C840 1.368 . S
C856 C852 1.368 . S
C856 C855 1.523 . S
H857 C832 0.950 . S
H858 C834 0.950 . S
H859 C835 0.949 1_556 S
H860 C837 0.950 1_556 S
H861 C839 0.950 1_556 S
C862 C863 1.349 . S
C862 C864 1.327 . S
C862 H887 0.950 . S
C863 C862 1.349 . S
C863 C879 1.349 . S
C864 C862 1.327 . S
C864 C883 1.429 . S
C864 H888 0.950 . S
C865 C882 1.583 . S
C865 C884 1.368 . S
C865 H889 0.949 . S
H866 C870 0.949 . S
C867 C868 1.349 . S
C867 C869 1.327 . S
C867 H890 0.950 . S
C868 C867 1.349 . S
C868 C880 1.349 . S
C869 C867 1.327 . S
C869 C885 1.429 . S
C869 H891 0.950 . S
C870 H866 0.949 . S
C870 C878 1.583 . S
C870 C886 1.368 . S
H871 C879 0.950 . S
H872 C877 0.950 . S
H873 C878 0.949 . S
H874 C880 0.950 . S
H875 C881 0.950 . S
H876 C882 0.949 . S
C877 H872 0.950 . S
C877 C879 1.327 . S
C877 C883 1.429 . S
C878 C870 1.583 . S
C878 H873 0.949 . S
C878 C884 1.359 1_565 S
C879 C863 1.349 . S
C879 H871 0.950 . S
C879 C877 1.327 . S
C880 C868 1.349 . S
C880 H874 0.950 . S
C880 C881 1.327 . S
C881 H875 0.950 . S
C881 C880 1.327 . S
C881 C885 1.429 . S
C882 C865 1.583 . S
C882 H876 0.949 . S
C882 C886 1.360 1_545 S
C883 C864 1.429 . S
C883 C877 1.429 . S
C883 C884 1.523 . S
C884 C865 1.368 . S
C884 C878 1.359 1_545 S
C884 C883 1.523 . S
C885 C869 1.429 . S
C885 C881 1.429 . S
C885 C886 1.523 . S
C886 C870 1.368 . S
C886 C882 1.360 1_565 S
C886 C885 1.523 . S
H887 C862 0.950 . S
H888 C864 0.950 . S
H889 C865 0.949 . S
H890 C867 0.950 . S
H891 C869 0.950 . S
C892 C893 1.349 . S
C892 C894 1.327 . S
C892 H917 0.950 . S
C893 C892 1.349 . S
C893 C909 1.349 . S
C894 C892 1.327 . S
C894 C913 1.429 . S
C894 H918 0.950 . S
C895 C912 1.574 . S
C895 C914 1.368 . S
C895 H919 0.949 1_556 S
H896 C900 0.949 . S
C897 C898 1.349 . S
C897 C899 1.327 . S
C897 H920 0.950 1_556 S
C898 C897 1.349 . S
C898 C910 1.349 . S
C899 C897 1.327 . S
C899 C915 1.429 . S
C899 H921 0.950 1_556 S
C900 H896 0.949 . S
C900 C908 1.574 . S
C900 C916 1.368 . S
H901 C909 0.950 1_554 S
H902 C907 0.950 1_554 S
H903 C908 0.949 . S
H904 C910 0.950 . S
H905 C911 0.950 . S
H906 C912 0.949 1_554 S
C907 H902 0.950 1_556 S
C907 C909 1.327 . S
C907 C913 1.429 . S
C908 C900 1.574 . S
C908 H903 0.949 . S
C908 C914 1.368 . S
C909 C893 1.349 . S
C909 H901 0.950 1_556 S
C909 C907 1.327 . S
C910 C898 1.349 . S
C910 H904 0.950 . S
C910 C911 1.327 . S
C911 H905 0.950 . S
C911 C910 1.327 . S
C911 C915 1.429 . S
C912 C895 1.574 . S
C912 H906 0.949 1_556 S
C912 C916 1.368 . S
C913 C894 1.429 . S
C913 C907 1.429 . S
C913 C914 1.523 . S
C914 C895 1.368 . S
C914 C908 1.368 . S
C914 C913 1.523 . S
C915 C899 1.429 . S
C915 C911 1.429 . S
C915 C916 1.523 . S
C916 C900 1.368 . S
C916 C912 1.368 . S
C916 C915 1.523 . S
H917 C892 0.950 . S
H918 C894 0.950 . S
H919 C895 0.949 1_554 S
H920 C897 0.950 1_554 S
H921 C899 0.950 1_554 S
C922 C923 1.349 . S
C922 C924 1.327 . S
C922 H947 0.950 . S
C923 C922 1.349 . S
C923 C939 1.349 . S
C924 C922 1.327 . S
C924 C943 1.429 . S
C924 H948 0.950 . S
C925 C942 1.581 . S
C925 C944 1.361 1_545 S
C925 H949 0.949 . S
H926 C930 0.949 . S
C927 C928 1.349 . S
C927 C929 1.327 . S
C927 H950 0.950 . S
C928 C927 1.349 . S
C928 C940 1.349 . S
C929 C927 1.327 . S
C929 C945 1.429 . S
C929 H951 0.950 . S
C930 H926 0.949 . S
C930 C938 1.580 . S
C930 C946 1.362 1_565 S
H931 C939 0.950 . S
H932 C937 0.950 . S
H933 C938 0.949 . S
H934 C940 0.950 . S
H935 C941 0.950 . S
H936 C942 0.949 . S
C937 H932 0.950 . S
C937 C939 1.327 . S
C937 C943 1.429 . S
C938 C930 1.580 . S
C938 H933 0.949 . S
C938 C944 1.368 . S
C939 C923 1.349 . S
C939 H931 0.950 . S
C939 C937 1.327 . S
C940 C928 1.349 . S
C940 H934 0.950 . S
C940 C941 1.327 . S
C941 H935 0.950 . S
C941 C940 1.327 . S
C941 C945 1.429 . S
C942 C925 1.581 . S
C942 H936 0.949 . S
C942 C946 1.368 . S
C943 C924 1.429 . S
C943 C937 1.429 . S
C943 C944 1.523 . S
C944 C925 1.361 1_565 S
C944 C938 1.368 . S
C944 C943 1.523 . S
C945 C929 1.429 . S
C945 C941 1.429 . S
C945 C946 1.523 . S
C946 C930 1.362 1_545 S
C946 C942 1.368 . S
C946 C945 1.523 . S
H947 C922 0.950 . S
H948 C924 0.950 . S
H949 C925 0.949 . S
H950 C927 0.950 . S
H951 C929 0.950 . S
C473 C52 1.698 . S
C478 C111 1.698 . S
C503 C229 1.697 . S
C508 C170 1.697 . S
C533 C288 1.698 . S
C538 C347 1.698 . S
C563 C406 1.698 . S
C568 C465 1.698 . S
C593 C3 1.818 . S
C598 C121 1.818 . S
C623 C180 1.818 . S
C628 C62 1.818 . S
C653 C239 1.818 . S
C658 C357 1.818 . S
C683 C416 1.818 . S
C688 C298 1.818 . S
C713 C5 1.194 . S
C718 C241 1.194 . S
C743 C64 1.195 . S
C748 C300 1.195 . S
C773 C359 1.195 . S
C778 C123 1.195 . S
C803 C418 1.194 . S
C808 C182 1.194 . S
C833 C92 1.277 . S
C838 C33 1.277 . S
C863 C151 1.277 . S
C868 C210 1.277 . S
C893 C269 1.277 . S
C898 C328 1.277 . S
C923 C387 1.277 . S
C928 C446 1.277 . S
