# Generated by pormake.
# Topology wna, (6)-cn, num edge types: 1
# Building blocks:
#     Node 0, Type 0, BuildingBlock: PAMTUU_clean_sbu_0, # of connection points: 6
#     Node 1, Type 0, BuildingBlock: PAMTUU_clean_sbu_0, # of connection points: 6
#     Node 2, Type 0, BuildingBlock: PAMTUU_clean_sbu_0, # of connection points: 6
#     Node 3, Type 0, BuildingBlock: PAMTUU_clean_sbu_0, # of connection points: 6
#     Node 4, Type 0, BuildingBlock: PAMTUU_clean_sbu_0, # of connection points: 6
#     Node 5, Type 0, BuildingBlock: PAMTUU_clean_sbu_0, # of connection points: 6
#     Node 6, Type 0, BuildingBlock: PAMTUU_clean_sbu_0, # of connection points: 6
#     Node 7, Type 0, BuildingBlock: PAMTUU_clean_sbu_0, # of connection points: 6
#     Node 8, Type 0, BuildingBlock: PAMTUU_clean_sbu_0, # of connection points: 6
#     Node 9, Type 0, BuildingBlock: PAMTUU_clean_sbu_0, # of connection points: 6
#     Node 10, Type 0, BuildingBlock: PAMTUU_clean_sbu_0, # of connection points: 6
#     Node 11, Type 0, BuildingBlock: PAMTUU_clean_sbu_0, # of connection points: 6
#     Node 12, Type 0, BuildingBlock: PAMTUU_clean_sbu_0, # of connection points: 6
#     Node 13, Type 0, BuildingBlock: PAMTUU_clean_sbu_0, # of connection points: 6
#     Node 14, Type 0, BuildingBlock: PAMTUU_clean_sbu_0, # of connection points: 6
#     Node 15, Type 0, BuildingBlock: PAMTUU_clean_sbu_0, # of connection points: 6
#     Node 16, Type 0, BuildingBlock: PAMTUU_clean_sbu_0, # of connection points: 6
#     Node 17, Type 0, BuildingBlock: PAMTUU_clean_sbu_0, # of connection points: 6
#     Node 18, Type 0, BuildingBlock: PAMTUU_clean_sbu_0, # of connection points: 6
#     Node 19, Type 0, BuildingBlock: PAMTUU_clean_sbu_0, # of connection points: 6
#     Node 20, Type 0, BuildingBlock: PAMTUU_clean_sbu_0, # of connection points: 6
#     Node 21, Type 0, BuildingBlock: PAMTUU_clean_sbu_0, # of connection points: 6
#     Node 22, Type 0, BuildingBlock: PAMTUU_clean_sbu_0, # of connection points: 6
#     Node 23, Type 0, BuildingBlock: PAMTUU_clean_sbu_0, # of connection points: 6
#     Node 24, Type 0, BuildingBlock: PAMTUU_clean_sbu_0, # of connection points: 6
#     Node 25, Type 0, BuildingBlock: PAMTUU_clean_sbu_0, # of connection points: 6
#     Node 26, Type 0, BuildingBlock: PAMTUU_clean_sbu_0, # of connection points: 6
#     Node 27, Type 0, BuildingBlock: PAMTUU_clean_sbu_0, # of connection points: 6
#     Node 28, Type 0, BuildingBlock: PAMTUU_clean_sbu_0, # of connection points: 6
#     Node 29, Type 0, BuildingBlock: PAMTUU_clean_sbu_0, # of connection points: 6
#     Node 30, Type 0, BuildingBlock: PAMTUU_clean_sbu_0, # of connection points: 6
#     Node 31, Type 0, BuildingBlock: PAMTUU_clean_sbu_0, # of connection points: 6
#     Node 32, Type 0, BuildingBlock: PAMTUU_clean_sbu_0, # of connection points: 6
#     Node 33, Type 0, BuildingBlock: PAMTUU_clean_sbu_0, # of connection points: 6
#     Node 34, Type 0, BuildingBlock: PAMTUU_clean_sbu_0, # of connection points: 6
#     Node 35, Type 0, BuildingBlock: PAMTUU_clean_sbu_0, # of connection points: 6
#     Edge 36, Type (0, 0), BuildingBlock: AJUNOK_clean_linker_0, # of connection points: 2
#     Edge 37, Type (0, 0), BuildingBlock: AJUNOK_clean_linker_0, # of connection points: 2
#     Edge 38, Type (0, 0), BuildingBlock: AJUNOK_clean_linker_0, # of connection points: 2
#     Edge 39, Type (0, 0), BuildingBlock: AJUNOK_clean_linker_0, # of connection points: 2
#     Edge 40, Type (0, 0), BuildingBlock: AJUNOK_clean_linker_0, # of connection points: 2
#     Edge 41, Type (0, 0), BuildingBlock: AJUNOK_clean_linker_0, # of connection points: 2
#     Edge 42, Type (0, 0), BuildingBlock: AJUNOK_clean_linker_0, # of connection points: 2
#     Edge 43, Type (0, 0), BuildingBlock: AJUNOK_clean_linker_0, # of connection points: 2
#     Edge 44, Type (0, 0), BuildingBlock: AJUNOK_clean_linker_0, # of connection points: 2
#     Edge 45, Type (0, 0), BuildingBlock: AJUNOK_clean_linker_0, # of connection points: 2
#     Edge 46, Type (0, 0), BuildingBlock: AJUNOK_clean_linker_0, # of connection points: 2
#     Edge 47, Type (0, 0), BuildingBlock: AJUNOK_clean_linker_0, # of connection points: 2
#     Edge 48, Type (0, 0), BuildingBlock: AJUNOK_clean_linker_0, # of connection points: 2
#     Edge 49, Type (0, 0), BuildingBlock: AJUNOK_clean_linker_0, # of connection points: 2
#     Edge 50, Type (0, 0), BuildingBlock: AJUNOK_clean_linker_0, # of connection points: 2
#     Edge 51, Type (0, 0), BuildingBlock: AJUNOK_clean_linker_0, # of connection points: 2
#     Edge 52, Type (0, 0), BuildingBlock: AJUNOK_clean_linker_0, # of connection points: 2
#     Edge 53, Type (0, 0), BuildingBlock: AJUNOK_clean_linker_0, # of connection points: 2
#     Edge 54, Type (0, 0), BuildingBlock: AJUNOK_clean_linker_0, # of connection points: 2
#     Edge 55, Type (0, 0), BuildingBlock: AJUNOK_clean_linker_0, # of connection points: 2
#     Edge 56, Type (0, 0), BuildingBlock: AJUNOK_clean_linker_0, # of connection points: 2
#     Edge 57, Type (0, 0), BuildingBlock: AJUNOK_clean_linker_0, # of connection points: 2
#     Edge 58, Type (0, 0), BuildingBlock: AJUNOK_clean_linker_0, # of connection points: 2
#     Edge 59, Type (0, 0), BuildingBlock: AJUNOK_clean_linker_0, # of connection points: 2
#     Edge 60, Type (0, 0), BuildingBlock: AJUNOK_clean_linker_0, # of connection points: 2
#     Edge 61, Type (0, 0), BuildingBlock: AJUNOK_clean_linker_0, # of connection points: 2
#     Edge 62, Type (0, 0), BuildingBlock: AJUNOK_clean_linker_0, # of connection points: 2
#     Edge 63, Type (0, 0), BuildingBlock: AJUNOK_clean_linker_0, # of connection points: 2
#     Edge 64, Type (0, 0), BuildingBlock: AJUNOK_clean_linker_0, # of connection points: 2
#     Edge 65, Type (0, 0), BuildingBlock: AJUNOK_clean_linker_0, # of connection points: 2
#     Edge 66, Type (0, 0), BuildingBlock: AJUNOK_clean_linker_0, # of connection points: 2
#     Edge 67, Type (0, 0), BuildingBlock: AJUNOK_clean_linker_0, # of connection points: 2
#     Edge 68, Type (0, 0), BuildingBlock: AJUNOK_clean_linker_0, # of connection points: 2
#     Edge 69, Type (0, 0), BuildingBlock: AJUNOK_clean_linker_0, # of connection points: 2
#     Edge 70, Type (0, 0), BuildingBlock: AJUNOK_clean_linker_0, # of connection points: 2
#     Edge 71, Type (0, 0), BuildingBlock: AJUNOK_clean_linker_0, # of connection points: 2
#     Edge 72, Type (0, 0), BuildingBlock: AJUNOK_clean_linker_0, # of connection points: 2
#     Edge 73, Type (0, 0), BuildingBlock: AJUNOK_clean_linker_0, # of connection points: 2
#     Edge 74, Type (0, 0), BuildingBlock: AJUNOK_clean_linker_0, # of connection points: 2
#     Edge 75, Type (0, 0), BuildingBlock: AJUNOK_clean_linker_0, # of connection points: 2
#     Edge 76, Type (0, 0), BuildingBlock: AJUNOK_clean_linker_0, # of connection points: 2
#     Edge 77, Type (0, 0), BuildingBlock: AJUNOK_clean_linker_0, # of connection points: 2
#     Edge 78, Type (0, 0), BuildingBlock: AJUNOK_clean_linker_0, # of connection points: 2
#     Edge 79, Type (0, 0), BuildingBlock: AJUNOK_clean_linker_0, # of connection points: 2
#     Edge 80, Type (0, 0), BuildingBlock: AJUNOK_clean_linker_0, # of connection points: 2
#     Edge 81, Type (0, 0), BuildingBlock: AJUNOK_clean_linker_0, # of connection points: 2
#     Edge 82, Type (0, 0), BuildingBlock: AJUNOK_clean_linker_0, # of connection points: 2
#     Edge 83, Type (0, 0), BuildingBlock: AJUNOK_clean_linker_0, # of connection points: 2
#     Edge 84, Type (0, 0), BuildingBlock: AJUNOK_clean_linker_0, # of connection points: 2
#     Edge 85, Type (0, 0), BuildingBlock: AJUNOK_clean_linker_0, # of connection points: 2
#     Edge 86, Type (0, 0), BuildingBlock: AJUNOK_clean_linker_0, # of connection points: 2
#     Edge 87, Type (0, 0), BuildingBlock: AJUNOK_clean_linker_0, # of connection points: 2
#     Edge 88, Type (0, 0), BuildingBlock: AJUNOK_clean_linker_0, # of connection points: 2
#     Edge 89, Type (0, 0), BuildingBlock: AJUNOK_clean_linker_0, # of connection points: 2
#     Edge 90, Type (0, 0), BuildingBlock: AJUNOK_clean_linker_0, # of connection points: 2
#     Edge 91, Type (0, 0), BuildingBlock: AJUNOK_clean_linker_0, # of connection points: 2
#     Edge 92, Type (0, 0), BuildingBlock: AJUNOK_clean_linker_0, # of connection points: 2
#     Edge 93, Type (0, 0), BuildingBlock: AJUNOK_clean_linker_0, # of connection points: 2
#     Edge 94, Type (0, 0), BuildingBlock: AJUNOK_clean_linker_0, # of connection points: 2
#     Edge 95, Type (0, 0), BuildingBlock: AJUNOK_clean_linker_0, # of connection points: 2
#     Edge 96, Type (0, 0), BuildingBlock: AJUNOK_clean_linker_0, # of connection points: 2
#     Edge 97, Type (0, 0), BuildingBlock: AJUNOK_clean_linker_0, # of connection points: 2
#     Edge 98, Type (0, 0), BuildingBlock: AJUNOK_clean_linker_0, # of connection points: 2
#     Edge 99, Type (0, 0), BuildingBlock: AJUNOK_clean_linker_0, # of connection points: 2
#     Edge 100, Type (0, 0), BuildingBlock: AJUNOK_clean_linker_0, # of connection points: 2
#     Edge 101, Type (0, 0), BuildingBlock: AJUNOK_clean_linker_0, # of connection points: 2
#     Edge 102, Type (0, 0), BuildingBlock: AJUNOK_clean_linker_0, # of connection points: 2
#     Edge 103, Type (0, 0), BuildingBlock: AJUNOK_clean_linker_0, # of connection points: 2
#     Edge 104, Type (0, 0), BuildingBlock: AJUNOK_clean_linker_0, # of connection points: 2
#     Edge 105, Type (0, 0), BuildingBlock: AJUNOK_clean_linker_0, # of connection points: 2
#     Edge 106, Type (0, 0), BuildingBlock: AJUNOK_clean_linker_0, # of connection points: 2
#     Edge 107, Type (0, 0), BuildingBlock: AJUNOK_clean_linker_0, # of connection points: 2
#     Edge 108, Type (0, 0), BuildingBlock: AJUNOK_clean_linker_0, # of connection points: 2
#     Edge 109, Type (0, 0), BuildingBlock: AJUNOK_clean_linker_0, # of connection points: 2
#     Edge 110, Type (0, 0), BuildingBlock: AJUNOK_clean_linker_0, # of connection points: 2
#     Edge 111, Type (0, 0), BuildingBlock: AJUNOK_clean_linker_0, # of connection points: 2
#     Edge 112, Type (0, 0), BuildingBlock: AJUNOK_clean_linker_0, # of connection points: 2
#     Edge 113, Type (0, 0), BuildingBlock: AJUNOK_clean_linker_0, # of connection points: 2
#     Edge 114, Type (0, 0), BuildingBlock: AJUNOK_clean_linker_0, # of connection points: 2
#     Edge 115, Type (0, 0), BuildingBlock: AJUNOK_clean_linker_0, # of connection points: 2
#     Edge 116, Type (0, 0), BuildingBlock: AJUNOK_clean_linker_0, # of connection points: 2
#     Edge 117, Type (0, 0), BuildingBlock: AJUNOK_clean_linker_0, # of connection points: 2
#     Edge 118, Type (0, 0), BuildingBlock: AJUNOK_clean_linker_0, # of connection points: 2
#     Edge 119, Type (0, 0), BuildingBlock: AJUNOK_clean_linker_0, # of connection points: 2
#     Edge 120, Type (0, 0), BuildingBlock: AJUNOK_clean_linker_0, # of connection points: 2
#     Edge 121, Type (0, 0), BuildingBlock: AJUNOK_clean_linker_0, # of connection points: 2
#     Edge 122, Type (0, 0), BuildingBlock: AJUNOK_clean_linker_0, # of connection points: 2
#     Edge 123, Type (0, 0), BuildingBlock: AJUNOK_clean_linker_0, # of connection points: 2
#     Edge 124, Type (0, 0), BuildingBlock: AJUNOK_clean_linker_0, # of connection points: 2
#     Edge 125, Type (0, 0), BuildingBlock: AJUNOK_clean_linker_0, # of connection points: 2
#     Edge 126, Type (0, 0), BuildingBlock: AJUNOK_clean_linker_0, # of connection points: 2
#     Edge 127, Type (0, 0), BuildingBlock: AJUNOK_clean_linker_0, # of connection points: 2
#     Edge 128, Type (0, 0), BuildingBlock: AJUNOK_clean_linker_0, # of connection points: 2
#     Edge 129, Type (0, 0), BuildingBlock: AJUNOK_clean_linker_0, # of connection points: 2
#     Edge 130, Type (0, 0), BuildingBlock: AJUNOK_clean_linker_0, # of connection points: 2
#     Edge 131, Type (0, 0), BuildingBlock: AJUNOK_clean_linker_0, # of connection points: 2
#     Edge 132, Type (0, 0), BuildingBlock: AJUNOK_clean_linker_0, # of connection points: 2
#     Edge 133, Type (0, 0), BuildingBlock: AJUNOK_clean_linker_0, # of connection points: 2
#     Edge 134, Type (0, 0), BuildingBlock: AJUNOK_clean_linker_0, # of connection points: 2
#     Edge 135, Type (0, 0), BuildingBlock: AJUNOK_clean_linker_0, # of connection points: 2
#     Edge 136, Type (0, 0), BuildingBlock: AJUNOK_clean_linker_0, # of connection points: 2
#     Edge 137, Type (0, 0), BuildingBlock: AJUNOK_clean_linker_0, # of connection points: 2
#     Edge 138, Type (0, 0), BuildingBlock: AJUNOK_clean_linker_0, # of connection points: 2
#     Edge 139, Type (0, 0), BuildingBlock: AJUNOK_clean_linker_0, # of connection points: 2
#     Edge 140, Type (0, 0), BuildingBlock: AJUNOK_clean_linker_0, # of connection points: 2
#     Edge 141, Type (0, 0), BuildingBlock: AJUNOK_clean_linker_0, # of connection points: 2
#     Edge 142, Type (0, 0), BuildingBlock: AJUNOK_clean_linker_0, # of connection points: 2
#     Edge 143, Type (0, 0), BuildingBlock: AJUNOK_clean_linker_0, # of connection points: 2
# Relax obj value: 0.283
# Max RMSD: 0.399
# Mean RMSD: 0.368
data_MOF--net-wna--node1-PAMTUU_clean_sbu_0--edge1-AJUNOK_clean_linker_0
_symmetry_space_group_name_H-M    P1
_symmetry_Int_Tables_number       1
_symmetry_cell_setting            triclinic
loop_
_symmetry_equiv_pos_as_xyz
'x, y, z'
_cell_length_a     42.621566
_cell_length_b     42.672586
_cell_length_c     38.959483
_cell_angle_alpha  89.618236
_cell_angle_beta   90.058814
_cell_angle_gamma 120.30384
loop_
_atom_site_label
_atom_site_type_symbol
_atom_site_fract_x
_atom_site_fract_y
_atom_site_fract_z
_atom_type_partial_charge
Tb0 Tb 0.14299 0.26996 0.19426 0.0
Tb1 Tb 0.05795 0.19437 0.17479 0.0
C2 C 0.12477 0.18926 0.20722 0.0
C3 C 0.2456 0.33773 0.18316 0.0
C4 C 0.31774 0.36443 0.15707 0.0
C5 C 0.2986 0.33064 0.17449 0.0
C6 C 0.26305 0.31741 0.1872 0.0
C7 C 0.26508 0.37194 0.16686 0.0
C8 C 0.30052 0.3851 0.15407 0.0
C9 C 0.20744 0.32455 0.19525 0.0
O10 O 0.13629 0.23554 0.15097 0.0
O11 O 0.08355 0.22049 0.1264 0.0
O12 O 0.05095 0.24143 0.17314 0.0
O13 O 0.10962 0.29129 0.17473 0.0
O14 O 0.02274 0.14247 0.15408 0.0
O15 O 1.00224 0.16996 0.18553 0.0
O16 O 0.07188 0.20261 0.22818 0.0
O17 O 0.10489 0.26416 0.23527 0.0
O18 O 0.1442 0.22373 0.21593 0.0
O19 O 0.09527 0.17523 0.18773 0.0
C20 C 0.11901 0.23684 0.12392 0.0
O21 O 0.18351 0.31832 0.17147 0.0
O22 O 0.19339 0.30045 0.22008 0.0
C23 C 0.07424 0.27652 0.17043 0.0
C24 C 0.96605 0.10572 0.1845 0.0
C25 C 0.90966 0.03929 0.21286 0.0
C26 C 0.90154 0.06241 0.1938 0.0
C27 C 0.92932 0.09513 0.17996 0.0
C28 C 0.97456 0.08314 0.20391 0.0
C29 C 0.94664 0.05021 0.21784 0.0
C30 C 0.9941 0.14053 0.16865 0.0
C31 C 0.07833 0.23171 0.2447 0.0
H32 H 0.31113 0.31425 0.17832 0.0
H33 H 0.24917 0.29118 0.19989 0.0
H34 H 0.25254 0.38839 0.16344 0.0
H35 H 0.31405 0.4111 0.14093 0.0
H36 H 0.87361 0.05472 0.18855 0.0
H37 H 0.922 0.11207 0.16514 0.0
H38 H 1.00265 0.09078 0.20808 0.0
H39 H 0.95399 0.03316 0.23239 0.0
Tb40 Tb 0.70497 0.83063 0.24552 0.0
Tb41 Tb 0.76844 0.82488 0.19969 0.0
C42 C 0.7884 0.89248 0.24202 0.0
C43 C 0.62974 0.84719 0.27305 0.0
C44 C 0.59524 0.90883 0.243 0.0
C45 C 0.63672 0.92255 0.26104 0.0
C46 C 0.65066 0.89364 0.27404 0.0
C47 C 0.5864 0.81569 0.26179 0.0
C48 C 0.55641 0.82652 0.24489 0.0
C49 C 0.65415 0.8321 0.27847 0.0
O50 O 0.70565 0.85417 0.19613 0.0
O51 O 0.75901 0.86292 0.171 0.0
O52 O 0.71844 0.79279 0.17189 0.0
O53 O 0.6806 0.77719 0.21877 0.0
O54 O 0.78975 0.79084 0.18956 0.0
O55 O 0.81495 0.84517 0.16872 0.0
O56 O 0.74181 0.78579 0.24033 0.0
O57 O 0.73608 0.81819 0.28135 0.0
O58 O 0.75429 0.88534 0.24163 0.0
O59 O 0.79546 0.86614 0.23824 0.0
C60 C 0.73109 0.86814 0.17223 0.0
O61 O 0.64939 0.8061 0.258 0.0
O62 O 0.68863 0.85489 0.28307 0.0
C63 C 0.68751 0.77058 0.18718 0.0
C64 C 0.85351 0.82241 0.18266 0.0
C65 C 0.92528 0.83924 0.19637 0.0
C66 C 0.90553 0.81586 0.16938 0.0
C67 C 0.86999 0.80764 0.16252 0.0
C68 C 0.87243 0.84437 0.21073 0.0
C69 C 0.90815 0.85282 0.21748 0.0
C70 C 0.8175 0.8162 0.17281 0.0
C71 C 0.74832 0.79716 0.27178 0.0
H72 H 0.65579 0.95112 0.26376 0.0
H73 H 0.67837 0.90751 0.28321 0.0
H74 H 0.57828 0.78725 0.26302 0.0
H75 H 0.53011 0.80611 0.23488 0.0
H76 H 0.91813 0.80515 0.15266 0.0
H77 H 0.85573 0.79055 0.14084 0.0
H78 H 0.85991 0.85562 0.22686 0.0
H79 H 0.92261 0.87048 0.23876 0.0
Tb80 Tb 0.14338 0.86755 0.20035 0.0
Tb81 Tb 0.15493 0.94198 0.15924 0.0
C82 C 0.07836 0.88446 0.19218 0.0
C83 C 0.10776 0.77013 0.22798 0.0
C84 C 0.06011 0.69446 0.22345 0.0
C85 C 0.047 0.71861 0.21905 0.0
C86 C 0.07072 0.75625 0.22107 0.0
C87 C 0.12053 0.746 0.23355 0.0
C88 C 0.09695 0.70856 0.2314 0.0
C89 C 0.13428 0.80936 0.22723 0.0
O90 O 0.1146 0.85776 0.15197 0.0
O91 O 0.14755 0.90608 0.118 0.0
O92 O 0.20859 0.94775 0.16661 0.0
O93 O 0.19507 0.88896 0.17353 0.0
O94 O 0.13938 0.97494 0.13239 0.0
O95 O 0.19457 0.99581 0.14943 0.0
O96 O 0.14616 0.94386 0.2133 0.0
O97 O 0.17454 0.91449 0.23347 0.0
O98 O 0.09184 0.86634 0.20807 0.0
O99 O 0.09702 0.91115 0.17013 0.0
C100 C 0.13188 0.87108 0.12294 0.0
O101 O 0.1501 0.82229 0.19775 0.0
O102 O 0.12562 0.8312 0.24239 0.0
C103 C 0.21818 0.92293 0.16561 0.0
C104 C 0.17077 0.03325 0.15596 0.0
C105 C 0.17022 0.0891 0.19223 0.0
C106 C 0.17814 0.09303 0.15688 0.0
C107 C 0.17844 0.06515 0.13879 0.0
C108 C 0.1644 0.02999 0.19153 0.0
C109 C 0.1642 0.0578 0.20963 0.0
C110 C 0.17099 1.00384 0.13753 0.0
C111 C 0.16515 0.93925 0.2368 0.0
H112 H 0.0187 0.70842 0.2129 0.0
H113 H 0.06038 0.77444 0.21643 0.0
H114 H 0.14903 0.75617 0.23886 0.0
H115 H 0.1076 0.6906 0.23561 0.0
H116 H 0.18233 0.11693 0.14296 0.0
H117 H 0.18394 0.06818 0.11145 0.0
H118 H 0.15914 0.00584 0.20528 0.0
H119 H 0.15806 0.05435 0.23686 0.0
Tb120 Tb 0.27613 0.14494 0.34019 0.0
Tb121 Tb 0.22897 0.07357 0.39593 0.0
C122 C 0.20596 0.13042 0.38145 0.0
C123 C 0.32558 0.2434 0.30446 0.0
C124 C 0.35417 0.3203 0.2958 0.0
C125 C 0.31896 0.29456 0.28433 0.0
C126 C 0.30497 0.25685 0.28851 0.0
C127 C 0.36062 0.2691 0.31611 0.0
C128 C 0.37463 0.30672 0.31187 0.0
C129 C 0.31302 0.20332 0.30531 0.0
O130 O 0.28594 0.15993 0.39339 0.0
O131 O 0.28265 0.10915 0.4163 0.0
O132 O 0.26882 0.06231 0.37361 0.0
O133 O 0.30672 0.11509 0.34236 0.0
O134 O 0.19822 0.01747 0.40506 0.0
O135 O 0.20386 0.05526 0.44444 0.0
O136 O 0.20217 0.06662 0.34711 0.0
O137 O 0.25032 0.09531 0.31043 0.0
O138 O 0.22331 0.14028 0.35171 0.0
O139 O 0.21473 0.11448 0.40522 0.0
C140 C 0.29884 0.14458 0.4135 0.0
O141 O 0.32645 0.19171 0.32904 0.0
O142 O 0.27883 0.17953 0.29951 0.0
C143 C 0.29826 0.08251 0.35498 0.0
C144 C 0.14787 0.99895 0.44206 0.0
C145 C 0.07325 0.94479 0.44744 0.0
C146 C 0.09806 0.94878 0.47336 0.0
C147 C 0.13503 0.97537 0.47052 0.0
C148 C 0.12261 0.99802 0.4184 0.0
C149 C 0.08572 0.97159 0.42131 0.0
C150 C 0.18749 0.02124 0.43534 0.0
C151 C 0.21846 0.06722 0.3184 0.0
H152 H 0.30215 0.30355 0.27181 0.0
H153 H 0.27819 0.23821 0.27856 0.0
H154 H 0.37786 0.26011 0.32772 0.0
H155 H 0.40216 0.32512 0.32017 0.0
H156 H 0.08991 0.92993 0.4945 0.0
H157 H 0.15394 0.97602 0.48952 0.0
H158 H 0.13167 0.01636 0.39653 0.0
H159 H 0.06739 0.97036 0.4014 0.0
Tb160 Tb 0.86632 0.13137 0.33343 0.0
Tb161 Tb 0.94028 0.15679 0.38739 0.0
C162 C 0.87983 0.07569 0.37741 0.0
C163 C 0.76545 0.08505 0.30444 0.0
C164 C 0.68762 0.04407 0.29841 0.0
C165 C 0.70986 0.03473 0.27952 0.0
C166 C 0.74812 0.05499 0.28234 0.0
C167 C 0.74298 0.09358 0.32415 0.0
C168 C 0.70481 0.07349 0.32114 0.0
C169 C 0.80608 0.1106 0.30281 0.0
O170 O 0.85619 0.12676 0.38781 0.0
O171 O 0.90612 0.17407 0.41081 0.0
O172 O 0.9498 0.20586 0.3618 0.0
O173 O 0.89529 0.19154 0.33498 0.0
O174 O 0.96616 0.15162 0.43148 0.0
O175 O 0.9965 0.19045 0.39129 0.0
O176 O 0.94052 0.13286 0.33911 0.0
O177 O 0.9155 0.15421 0.30161 0.0
O178 O 0.86933 0.08283 0.34772 0.0
O179 O 0.90088 0.10093 0.39933 0.0
C180 C 0.87091 0.1559 0.40655 0.0
O181 O 0.82047 0.13658 0.32542 0.0
O182 O 0.82789 0.09821 0.29569 0.0
C183 C 0.9289 0.21514 0.34501 0.0
C184 C 0.02741 0.1667 0.42074 0.0
C185 C 0.08538 0.15368 0.41169 0.0
C186 C 0.09225 0.18887 0.41835 0.0
C187 C 0.06349 0.19527 0.42294 0.0
C188 C 0.02033 0.13127 0.41517 0.0
C189 C 0.04916 0.12479 0.41082 0.0
C190 C 0.99835 0.17564 0.41996 0.0
C191 C 0.94345 0.15097 0.31102 0.0
H192 H 0.69782 0.01302 0.26108 0.0
H193 H 0.76421 0.04814 0.26592 0.0
H194 H 0.75491 0.11691 0.34088 0.0
H195 H 0.68868 0.08179 0.3358 0.0
H196 H 0.11988 0.21151 0.41945 0.0
H197 H 0.06943 0.22285 0.42695 0.0
H198 H 0.99268 0.10895 0.41275 0.0
H199 H 0.0431 0.09748 0.40517 0.0
Tb200 Tb 0.89298 0.75129 0.34574 0.0
Tb201 Tb 0.85957 0.79165 0.39678 0.0
C202 C 0.93862 0.80664 0.40708 0.0
C203 C 0.93783 0.69808 0.31974 0.0
C204 C 0.97786 0.66232 0.32809 0.0
C205 C 0.98863 0.69534 0.34489 0.0
C206 C 0.96864 0.71301 0.34092 0.0
C207 C 0.92667 0.66482 0.30359 0.0
C208 C 0.9464 0.64707 0.30775 0.0
C209 C 0.91668 0.71623 0.31368 0.0
O210 O 0.88556 0.73176 0.3975 0.0
O211 O 0.83614 0.73557 0.41296 0.0
O212 O 0.81279 0.75463 0.36732 0.0
O213 O 0.83317 0.7233 0.33442 0.0
O214 O 0.85815 0.81699 0.44233 0.0
O215 O 0.82634 0.81461 0.39859 0.0
O216 O 0.89278 0.82385 0.35404 0.0
O217 O 0.88852 0.78794 0.31086 0.0
O218 O 0.93803 0.79565 0.37503 0.0
O219 O 0.90873 0.80057 0.42261 0.0
C220 C 0.8539 0.71789 0.41215 0.0
O221 O 0.88503 0.70134 0.32872 0.0
O222 O 0.93367 0.75169 0.31489 0.0
C223 C 0.80692 0.72921 0.34516 0.0
C224 C 0.84854 0.86649 0.43193 0.0
C225 C 0.86146 0.93705 0.41981 0.0
C226 C 0.8288 0.91071 0.43513 0.0
C227 C 0.82237 0.87565 0.44101 0.0
C228 C 0.8825 0.89356 0.41955 0.0
C229 C 0.88894 0.92871 0.41356 0.0
C230 C 0.83732 0.82797 0.42904 0.0
C231 C 0.88317 0.8135 0.32228 0.0
H232 H 0.0128 0.70771 0.3607 0.0
H233 H 0.97753 0.73848 0.35394 0.0
H234 H 0.90292 0.65284 0.28719 0.0
H235 H 0.93784 0.62212 0.29388 0.0
H236 H 0.80732 0.91653 0.44049 0.0
H237 H 0.79607 0.85517 0.45074 0.0
H238 H 0.90299 0.88693 0.41232 0.0
H239 H 0.91468 0.94886 0.40248 0.0
Tb240 Tb 0.9414 0.77429 0.79542 0.0
Tb241 Tb 0.85747 0.70837 0.77972 0.0
C242 C 0.91679 0.69702 0.82276 0.0
C243 C 0.02981 0.85724 0.77649 0.0
C244 C 0.08026 0.92222 0.74338 0.0
C245 C 0.07953 0.88972 0.73592 0.0
C246 C 0.05447 0.85742 0.75239 0.0
C247 C 0.02943 0.8894 0.78252 0.0
C248 C 0.0544 0.92148 0.76625 0.0
C249 C 1.00648 0.82449 0.79712 0.0
O250 O 0.93524 0.73703 0.75556 0.0
O251 O 0.88476 0.72788 0.72987 0.0
O252 O 0.85541 0.75834 0.78322 0.0
O253 O 0.91413 0.79755 0.76703 0.0
O254 O 0.81707 0.65683 0.79672 0.0
O255 O 0.80708 0.6828 0.75374 0.0
O256 O 0.85557 0.73581 0.82531 0.0
O257 O 0.91419 0.76358 0.84469 0.0
O258 O 0.93687 0.73188 0.82825 0.0
O259 O 0.88975 0.68395 0.80012 0.0
C260 C 0.91904 0.73731 0.72742 0.0
O261 O 0.99588 0.79328 0.78252 0.0
O262 O 0.98043 0.8246 0.81474 0.0
C263 C 0.88107 0.79084 0.77321 0.0
C264 C 0.75688 0.64578 0.79197 0.0
C265 C 0.6878 0.62353 0.82232 0.0
C266 C 0.70505 0.65454 0.80092 0.0
C267 C 0.739 0.66539 0.78574 0.0
C268 C 0.7402 0.61555 0.8142 0.0
C269 C 0.70619 0.60451 0.82905 0.0
C270 C 0.79266 0.65597 0.77593 0.0
C271 C 0.87903 0.74773 0.85043 0.0
H272 H 0.09937 0.88963 0.71864 0.0
H273 H 0.05533 0.83294 0.74725 0.0
H274 H 0.01096 0.89032 0.80101 0.0
H275 H 0.05493 0.9462 0.77355 0.0
H276 H 0.69202 0.67015 0.79534 0.0
H277 H 0.75113 0.68907 0.76912 0.0
H278 H 0.75365 0.60043 0.82037 0.0
H279 H 0.69458 0.58131 0.84627 0.0
Tb280 Tb 0.20308 0.13185 0.80191 0.0
Tb281 Tb 0.27449 0.12935 0.7682 0.0
C282 C 0.28153 0.20238 0.79701 0.0
C283 C 0.12111 0.1375 0.80185 0.0
C284 C 0.06697 0.14039 0.76361 0.0
C285 C 0.07931 0.15949 0.79462 0.0
C286 C 0.10617 0.158 0.81361 0.0
C287 C 0.11052 0.12013 0.76992 0.0
C288 C 0.08325 0.12124 0.75102 0.0
C289 C 0.15004 0.13725 0.8216 0.0
O290 O 0.20063 0.13417 0.74687 0.0
O291 O 0.26095 0.15903 0.73092 0.0
O292 O 0.22843 0.08188 0.74638 0.0
O293 O 0.18165 0.07788 0.78051 0.0
O294 O 0.32697 0.14101 0.78082 0.0
O295 O 0.30219 0.11394 0.73343 0.0
O296 O 0.24693 0.09475 0.81215 0.0
O297 O 0.23034 0.12555 0.84557 0.0
O298 O 0.24615 0.18814 0.79618 0.0
O299 O 0.29696 0.18283 0.79148 0.0
C300 C 0.22743 0.15168 0.72508 0.0
O301 O 0.18201 0.16495 0.81529 0.0
O302 O 0.15032 0.10681 0.82262 0.0
C303 C 0.19439 0.06533 0.75668 0.0
C304 C 0.34257 0.09873 0.7618 0.0
C305 C 0.36877 0.05239 0.78312 0.0
C306 C 0.33132 0.03852 0.77735 0.0
C307 C 0.31838 0.06145 0.76672 0.0
C308 C 0.37971 0.11264 0.76764 0.0
C309 C 0.39254 0.08982 0.77834 0.0
C310 C 0.32975 0.12434 0.75419 0.0
C311 C 0.24894 0.1092 0.84203 0.0
H312 H 0.06654 0.17367 0.80538 0.0
H313 H 0.11479 0.17228 0.83779 0.0
H314 H 0.12279 0.10516 0.76 0.0
H315 H 0.07381 0.10596 0.72743 0.0
H316 H 0.31171 0.01025 0.7822 0.0
H317 H 0.28943 0.05025 0.76333 0.0
H318 H 0.39879 0.14143 0.76469 0.0
H319 H 0.42122 0.10151 0.78298 0.0
Tb320 Tb 0.87256 0.06277 0.84193 0.0
Tb321 Tb 0.8797 0.14157 0.80986 0.0
C322 C 0.8066 0.0784 0.84606 0.0
C323 C 0.86948 0.97398 0.84279 0.0
C324 C 0.86713 0.91433 0.80952 0.0
C325 C 0.85133 0.91016 0.84213 0.0
C326 C 0.85246 0.9397 0.85855 0.0
C327 C 0.88503 0.97834 0.81007 0.0
C328 C 0.8841 0.94876 0.79365 0.0
C329 C 0.86906 1.0042 0.86029 0.0
O330 O 0.85093 0.05241 0.79079 0.0
O331 O 0.84347 0.10107 0.77404 0.0
O332 O 0.91417 0.13332 0.77553 0.0
O333 O 0.92027 0.09098 0.80863 0.0
O334 O 0.86635 0.18039 0.82446 0.0
O335 O 0.89993 0.1893 0.77973 0.0
O336 O 0.91723 0.14438 0.84874 0.0
O337 O 0.88948 0.0989 0.88533 0.0
O338 O 0.82009 0.05748 0.85404 0.0
O339 O 0.82542 0.10989 0.83048 0.0
C340 C 0.83766 0.06788 0.77082 0.0
O341 O 0.89911 0.03562 0.85999 0.0
O342 O 0.84084 0.00738 0.85386 0.0
C343 C 0.92899 0.11341 0.78205 0.0
C344 C 0.90616 0.2413 0.80963 0.0
C345 C 0.944 0.31398 0.83217 0.0
C346 C 0.96266 0.29852 0.81625 0.0
C347 C 0.94392 0.26244 0.80513 0.0
C348 C 0.88742 0.25704 0.82454 0.0
C349 C 0.90612 0.29287 0.83594 0.0
C350 C 0.88514 0.20276 0.79978 0.0
C351 C 0.90575 0.13379 0.87993 0.0
H352 H 0.83885 0.8842 0.85534 0.0
H353 H 0.84009 0.93579 0.88368 0.0
H354 H 0.89785 1.00454 0.79728 0.0
H355 H 0.89662 0.95274 0.7686 0.0
H356 H 0.99184 0.31426 0.81271 0.0
H357 H 0.959 0.25102 0.79356 0.0
H358 H 0.85824 0.24121 0.82824 0.0
H359 H 0.89101 0.30358 0.84872 0.0
Tb360 Tb 0.77566 0.9463 0.58658 0.0
Tb361 Tb 0.73512 0.88178 0.64691 0.0
C362 C 0.70171 0.9297 0.61904 0.0
C363 C 0.8539 0.02741 0.54854 0.0
C364 C 0.92519 0.08599 0.56117 0.0
C365 C 0.89466 0.08952 0.56761 0.0
C366 C 0.85947 0.06066 0.56126 0.0
C367 C 0.88456 0.02438 0.54095 0.0
C368 C 0.91973 0.05331 0.54716 0.0
C369 C 0.8165 0.99557 0.54481 0.0
O370 O 0.78165 0.97491 0.63341 0.0
O371 O 0.77097 0.93096 0.67454 0.0
O372 O 0.77388 0.87572 0.61452 0.0
O373 O 0.812 0.93509 0.6152 0.0
O374 O 0.68938 0.84279 0.67456 0.0
O375 O 0.74166 0.84706 0.68119 0.0
O376 O 0.70206 0.86019 0.60311 0.0
O377 O 0.74265 0.89467 0.56018 0.0
O378 O 0.72112 0.93745 0.59063 0.0
O379 O 0.70702 0.9135 0.64585 0.0
C380 C 0.78127 0.96456 0.66521 0.0
O381 O 0.79076 0.9962 0.56243 0.0
O382 O 0.81342 0.96351 0.54602 0.0
C383 C 0.80707 0.90293 0.61039 0.0
C384 C 0.68884 0.78737 0.68358 0.0
C385 C 0.65417 0.71032 0.67973 0.0
C386 C 0.68788 0.73262 0.66351 0.0
C387 C 0.70506 0.77071 0.66542 0.0
C388 C 0.65463 0.76509 0.69871 0.0
C389 C 0.63746 0.72716 0.69669 0.0
C390 C 0.70678 0.82758 0.68732 0.0
C391 C 0.71213 0.86634 0.57116 0.0
H392 H 0.898 0.11466 0.5776 0.0
H393 H 0.83659 0.06424 0.56688 0.0
H394 H 0.88141 0.99936 0.53083 0.0
H395 H 0.94269 0.04978 0.54178 0.0
H396 H 0.70154 0.72058 0.6503 0.0
H397 H 0.73125 0.78705 0.65312 0.0
H398 H 0.64126 0.77707 0.71253 0.0
H399 H 0.61121 0.71091 0.70891 0.0
Tb400 Tb 0.05304 0.84786 0.55319 0.0
Tb401 Tb 0.11442 0.87527 0.61907 0.0
C402 C 0.05602 0.78989 0.60211 0.0
C403 C 0.9592 0.87164 0.49095 0.0
C404 C 0.90693 0.8921 0.5156 0.0
C405 C 0.89537 0.85703 0.50497 0.0
C406 C 0.91938 0.8478 0.49068 0.0
C407 C 0.96698 0.90939 0.49286 0.0
C408 C 0.94216 0.91888 0.50624 0.0
C409 C 0.01481 0.84435 0.50192 0.0
O410 O 0.0212 0.84181 0.59965 0.0
O411 O 0.06177 0.84965 0.64407 0.0
O412 O 0.10615 0.92075 0.61462 0.0
O413 O 0.076 0.90567 0.56246 0.0
O414 O 0.15922 0.86985 0.63188 0.0
O415 O 0.14625 0.90438 0.66198 0.0
O416 O 0.13452 0.89324 0.56786 0.0
O417 O 0.09927 0.84265 0.53961 0.0
O418 O 0.04128 0.79648 0.57526 0.0
O419 O 0.08381 0.8155 0.61959 0.0
C420 C 0.02862 0.83836 0.63212 0.0
O421 O 0.05032 0.86639 0.50413 0.0
O422 O 0.0073 0.81548 0.52118 0.0
C423 C 0.09285 0.92851 0.58764 0.0
C424 C 0.20943 0.92032 0.65953 0.0
C425 C 0.28612 0.96418 0.67003 0.0
C426 C 0.26115 0.96195 0.69504 0.0
C427 C 0.22343 0.94025 0.68991 0.0
C428 C 0.23432 0.92346 0.634 0.0
C429 C 0.27205 0.94514 0.63914 0.0
C430 C 0.16956 0.89343 0.65677 0.0
C431 C 0.13187 0.86874 0.54681 0.0
H432 H 0.86774 0.83535 0.50957 0.0
H433 H 0.90554 0.81926 0.48444 0.0
H434 H 0.99383 0.93241 0.48795 0.0
H435 H 0.95129 0.94724 0.5106 0.0
H436 H 0.27082 0.97614 0.71915 0.0
H437 H 0.20515 0.93821 0.71024 0.0
H438 H 0.22472 0.90853 0.61026 0.0
H439 H 0.29024 0.94684 0.61889 0.0
Tb440 Tb 0.15603 0.22343 0.57296 0.0
Tb441 Tb 0.13516 0.26656 0.6322 0.0
C442 C 0.21795 0.28709 0.61751 0.0
C443 C 0.15301 0.14632 0.53105 0.0
C444 C 0.13117 0.07411 0.54759 0.0
C445 C 0.16483 0.09642 0.5315 0.0
C446 C 0.17569 0.13238 0.52327 0.0
C447 C 0.11846 0.1234 0.54522 0.0
C448 C 0.10752 0.08744 0.55322 0.0
C449 C 0.1685 0.18564 0.53202 0.0
O450 O 0.13643 0.19229 0.61978 0.0
O451 O 0.15748 0.23759 0.65888 0.0
O452 O 0.08478 0.21616 0.62029 0.0
O453 O 0.09903 0.20655 0.566 0.0
O454 O 0.14485 0.31709 0.64934 0.0
O455 O 0.10427 0.26747 0.674 0.0
O456 O 0.12974 0.28232 0.58075 0.0
O457 O 0.17474 0.2775 0.5546 0.0
O458 O 0.20759 0.25873 0.59769 0.0
O459 O 0.19494 0.29626 0.63024 0.0
C460 C 0.15294 0.20633 0.64874 0.0
O461 O 0.1468 0.19806 0.52483 0.0
O462 O 0.18722 0.20016 0.5597 0.0
C463 C 0.07499 0.19992 0.59027 0.0
C464 C 0.09414 0.31767 0.67185 0.0
C465 C 0.0503 0.35 0.66975 0.0
C466 C 0.03844 0.316 0.65448 0.0
C467 C 0.06027 0.30005 0.65533 0.0
C468 C 0.10589 0.35145 0.6872 0.0
C469 C 0.08422 0.36745 0.68622 0.0
C470 C 0.11871 0.30271 0.67193 0.0
C471 C 0.15719 0.29486 0.55949 0.0
H472 H 0.18312 0.08636 0.52624 0.0
H473 H 0.20262 0.14987 0.51276 0.0
H474 H 0.10088 0.13389 0.55213 0.0
H475 H 0.08144 0.07065 0.56559 0.0
H476 H 0.01237 0.30187 0.64169 0.0
H477 H 0.0508 0.27414 0.64297 0.0
H478 H 0.13201 0.36558 0.69994 0.0
H479 H 0.09374 0.39321 0.6989 0.0
Tb480 Tb 0.81628 0.62365 0.54095 0.0
Tb481 Tb 0.72623 0.56094 0.5266 0.0
C482 C 0.78275 0.54017 0.55913 0.0
C483 C 0.92032 0.67831 0.52823 0.0
C484 C 0.99367 0.69929 0.51033 0.0
C485 C 0.97072 0.66615 0.52764 0.0
C486 C 0.93448 0.65567 0.53619 0.0
C487 C 0.94254 0.71051 0.5098 0.0
C488 C 0.97834 0.72067 0.50079 0.0
C489 C 0.88375 0.67089 0.54008 0.0
O490 O 0.80525 0.58375 0.50138 0.0
O491 O 0.75094 0.56464 0.47745 0.0
O492 O 0.73305 0.60831 0.49959 0.0
O493 O 0.78923 0.65304 0.52035 0.0
O494 O 0.68157 0.51806 0.50215 0.0
O495 O 0.67468 0.54205 0.54823 0.0
O496 O 0.74043 0.60422 0.56239 0.0
O497 O 0.7886 0.61156 0.59117 0.0
O498 O 0.81173 0.57138 0.55053 0.0
O499 O 0.74924 0.5337 0.55574 0.0
C500 C 0.7861 0.57998 0.47397 0.0
O501 O 0.86075 0.66745 0.51627 0.0
O502 O 0.86745 0.64871 0.56588 0.0
C503 C 0.7584 0.64258 0.50338 0.0
C504 C 0.63516 0.47914 0.54108 0.0
C505 C 0.58367 0.40957 0.56542 0.0
C506 C 0.58562 0.44063 0.57959 0.0
C507 C 0.61073 0.47505 0.56716 0.0
C508 C 0.63485 0.44823 0.52837 0.0
C509 C 0.60924 0.41373 0.54039 0.0
C510 C 0.65926 0.51548 0.5264 0.0
C511 C 0.75465 0.60378 0.59163 0.0
H512 H 0.9811 0.64902 0.53642 0.0
H513 H 0.91813 0.63062 0.55034 0.0
H514 H 0.93238 0.72841 0.50287 0.0
H515 H 0.99417 0.74578 0.48662 0.0
H516 H 0.56691 0.43819 0.59947 0.0
H517 H 0.61043 0.49846 0.57731 0.0
H518 H 0.6535 0.45048 0.50834 0.0
H519 H 0.60834 0.39023 0.52891 0.0
Tb520 Tb 0.38119 0.20702 0.55172 0.0
Tb521 Tb 0.44697 0.18439 0.54133 0.0
C522 C 0.46464 0.26192 0.57027 0.0
C523 C 0.32537 0.25139 0.53189 0.0
C524 C 0.30688 0.30068 0.50182 0.0
C525 C 0.33135 0.31137 0.52957 0.0
C526 C 0.34064 0.28699 0.54438 0.0
C527 C 0.30159 0.24114 0.50378 0.0
C528 C 0.29293 0.26554 0.48865 0.0
C529 C 0.33209 0.22365 0.54801 0.0
O530 O 0.4222 0.23863 0.51308 0.0
O531 O 0.44995 0.20994 0.49239 0.0
O532 O 0.40254 0.14569 0.51039 0.0
O533 O 0.35431 0.15166 0.52939 0.0
O534 O 0.47028 0.16127 0.5723 0.0
O535 O 0.48094 0.16863 0.51771 0.0
O536 O 0.39935 0.15219 0.57206 0.0
O537 O 0.38888 0.18936 0.60249 0.0
O538 O 0.43171 0.25604 0.56358 0.0
O539 O 0.47438 0.23731 0.56598 0.0
C540 C 0.43027 0.22513 0.48681 0.0
O541 O 0.33581 0.20238 0.52663 0.0
O542 O 0.35445 0.23245 0.57395 0.0
C543 C 0.36761 0.13411 0.51237 0.0
C544 C 0.5242 0.16516 0.55239 0.0
C545 C 0.59594 0.17963 0.55255 0.0
C546 C 0.56706 0.14366 0.55349 0.0
C547 C 0.53131 0.1365 0.55336 0.0
C548 C 0.55286 0.20107 0.55423 0.0
C549 C 0.58863 0.20826 0.55451 0.0
C550 C 0.487 0.1568 0.5465 0.0
C551 C 0.39579 0.16289 0.60194 0.0
H552 H 0.34267 0.3383 0.54029 0.0
H553 H 0.35934 0.29585 0.56577 0.0
H554 H 0.28932 0.21393 0.49353 0.0
H555 H 0.275 0.25669 0.46666 0.0
H556 H 0.57209 0.12122 0.55215 0.0
H557 H 0.50924 0.10859 0.5523 0.0
H558 H 0.54762 0.22342 0.5539 0.0
H559 H 0.61064 0.23623 0.55452 0.0
Tb560 Tb 0.81126 0.20219 0.52853 0.0
Tb561 Tb 0.8231 0.28371 0.51333 0.0
C562 C 0.74456 0.21655 0.52784 0.0
C563 C 0.79021 0.10554 0.51594 0.0
C564 C 0.76185 0.03739 0.48353 0.0
C565 C 0.74042 0.04409 0.50647 0.0
C566 C 0.75442 0.07775 0.52252 0.0
C567 C 0.81166 0.09879 0.49299 0.0
C568 C 0.79757 0.06517 0.47684 0.0
C569 C 0.80637 0.14066 0.5343 0.0
O570 O 0.78533 0.20418 0.48132 0.0
O571 O 0.82403 0.26184 0.46379 0.0
O572 O 0.87695 0.28976 0.51484 0.0
O573 O 0.86166 0.23228 0.49964 0.0
O574 O 0.81386 0.32298 0.49022 0.0
O575 O 0.85368 0.33692 0.53076 0.0
O576 O 0.80499 0.26354 0.56461 0.0
O577 O 0.83812 0.23674 0.57248 0.0
O578 O 0.75799 0.19646 0.53952 0.0
O579 O 0.7648 0.24873 0.5135 0.0
C580 C 0.8034 0.22726 0.45663 0.0
O581 O 0.83223 0.16835 0.51808 0.0
O582 O 0.78507 0.14944 0.55042 0.0
C583 C 0.88585 0.26681 0.50246 0.0
C584 C 0.82288 0.36977 0.52926 0.0
C585 C 0.80368 0.418 0.55839 0.0
C586 C 0.83294 0.4155 0.57168 0.0
C587 C 0.84254 0.39171 0.55716 0.0
C588 C 0.79259 0.37109 0.51701 0.0
C589 C 0.78311 0.39501 0.53143 0.0
C590 C 0.83591 0.34795 0.51165 0.0
C591 C 0.825 0.25632 0.58453 0.0
H592 H 0.71268 0.0232 0.51198 0.0
H593 H 0.73732 0.08184 0.54031 0.0
H594 H 0.83958 0.11943 0.48776 0.0
H595 H 0.81484 0.0607 0.45966 0.0
H596 H 0.84934 0.43307 0.59231 0.0
H597 H 0.86623 0.39151 0.56697 0.0
H598 H 0.77708 0.35477 0.49539 0.0
H599 H 0.76101 0.39706 0.52005 0.0
Tb600 Tb 0.92878 0.46822 0.66508 0.0
Tb601 Tb 0.88571 0.40111 0.72293 0.0
C602 C 0.8633 0.45878 0.71028 0.0
C603 C 0.97316 0.56135 0.62655 0.0
C604 C 0.99783 0.6364 0.62965 0.0
C605 C 0.9615 0.61068 0.63763 0.0
C606 C 0.94929 0.57342 0.63636 0.0
C607 C 0.00932 0.58705 0.61848 0.0
C608 C 0.02155 0.62415 0.62002 0.0
C609 C 0.96186 0.52246 0.62571 0.0
O610 O 0.94315 0.48973 0.71633 0.0
O611 O 0.9375 0.43974 0.74483 0.0
O612 O 0.92667 0.39119 0.70205 0.0
O613 O 0.9625 0.44266 0.66919 0.0
O614 O 0.86584 0.3462 0.73412 0.0
O615 O 0.85254 0.37851 0.76667 0.0
O616 O 0.85832 0.39292 0.67466 0.0
O617 O 0.9049 0.41769 0.6375 0.0
O618 O 0.87697 0.4643 0.67899 0.0
O619 O 0.8708 0.44143 0.73371 0.0
C620 C 0.95318 0.47503 0.74028 0.0
O621 O 0.97789 0.51246 0.64811 0.0
O622 O 0.92718 0.49868 0.62305 0.0
C623 C 0.95547 0.41132 0.68301 0.0
C624 C 0.80666 0.31824 0.75459 0.0
C625 C 0.73615 0.26224 0.7377 0.0
C626 C 0.75835 0.25539 0.75958 0.0
C627 C 0.7934 0.28317 0.76784 0.0
C628 C 0.7843 0.32541 0.73342 0.0
C629 C 0.74928 0.29769 0.72519 0.0
C630 C 0.84514 0.34578 0.75882 0.0
C631 C 0.87419 0.38977 0.6474 0.0
H632 H 0.94258 0.61941 0.64486 0.0
H633 H 0.92132 0.55416 0.64301 0.0
H634 H 0.02819 0.57836 0.61089 0.0
H635 H 0.04941 0.64329 0.61285 0.0
H636 H 0.74889 0.22834 0.76965 0.0
H637 H 0.81052 0.27703 0.78373 0.0
H638 H 0.79428 0.35224 0.72254 0.0
H639 H 0.7325 0.30401 0.709 0.0
Tb640 Tb 0.54535 0.46798 0.67292 0.0
Tb641 Tb 0.61089 0.49632 0.73199 0.0
C642 C 0.55009 0.41555 0.72937 0.0
C643 C 0.45247 0.41926 0.63145 0.0
C644 C 0.37565 0.37573 0.63231 0.0
C645 C 0.39722 0.36478 0.65036 0.0
C646 C 0.43533 0.3865 0.65017 0.0
C647 C 0.43096 0.42971 0.61289 0.0
C648 C 0.39305 0.40825 0.61327 0.0
C649 C 0.49235 0.44408 0.63166 0.0
O650 O 0.52178 0.46514 0.72208 0.0
O651 O 0.5715 0.51062 0.74982 0.0
O652 O 0.61841 0.54689 0.71155 0.0
O653 O 0.57095 0.52808 0.67265 0.0
O654 O 0.63363 0.48835 0.77659 0.0
O655 O 0.66545 0.53393 0.7432 0.0
O656 O 0.62289 0.47651 0.68595 0.0
O657 O 0.59667 0.49339 0.6458 0.0
O658 O 0.54675 0.42122 0.69633 0.0
O659 O 0.56891 0.443 0.74985 0.0
C660 C 0.5363 0.49136 0.74424 0.0
O661 O 0.50362 0.47313 0.65013 0.0
O662 O 0.51352 0.43028 0.63486 0.0
C663 C 0.59963 0.55382 0.6891 0.0
C664 C 0.6948 0.50467 0.76566 0.0
C665 C 0.75076 0.48989 0.75043 0.0
C666 C 0.75907 0.5248 0.76051 0.0
C667 C 0.73133 0.53209 0.7679 0.0
C668 C 0.68637 0.46953 0.75618 0.0
C669 C 0.71414 0.46223 0.74859 0.0
C670 C 0.6662 0.51431 0.76852 0.0
C671 C 0.62554 0.49331 0.65708 0.0
H672 H 0.38457 0.33972 0.66506 0.0
H673 H 0.4513 0.37787 0.6648 0.0
H674 H 0.44356 0.4548 0.59819 0.0
H675 H 0.37731 0.41697 0.59838 0.0
H676 H 0.78701 0.54681 0.76142 0.0
H677 H 0.73839 0.55957 0.77391 0.0
H678 H 0.65836 0.44799 0.75355 0.0
H679 H 0.70701 0.43511 0.74082 0.0
Tb680 Tb 0.5264 0.07981 0.67293 0.0
Tb681 Tb 0.50734 0.12211 0.73496 0.0
C682 C 0.58709 0.15046 0.70864 0.0
C683 C 0.56538 0.02723 0.63023 0.0
C684 C 0.60846 0.99382 0.62724 0.0
C685 C 0.61995 0.02574 0.64638 0.0
C686 C 0.59857 0.04229 0.64791 0.0
C687 C 0.5538 0.99532 0.61147 0.0
C688 C 0.57491 0.97873 0.6101 0.0
C689 C 0.54049 0.04181 0.63313 0.0
O690 O 0.54443 0.0739 0.72295 0.0
O691 O 0.49852 0.07084 0.75491 0.0
O692 O 0.45358 0.08103 0.71799 0.0
O693 O 0.46712 0.04619 0.68225 0.0
O694 O 0.52225 0.15117 0.78163 0.0
O695 O 0.4767 0.1445 0.75182 0.0
O696 O 0.51835 0.14983 0.6861 0.0
O697 O 0.49751 0.10347 0.64851 0.0
O698 O 0.57537 0.13325 0.67919 0.0
O699 O 0.56537 0.14362 0.73499 0.0
C700 C 0.52154 0.05982 0.74829 0.0
O701 O 0.51768 0.02884 0.65873 0.0
O702 O 0.55352 0.0767 0.6288 0.0
C703 C 0.44345 0.05255 0.69831 0.0
C704 C 0.5129 0.20179 0.77643 0.0
C705 C 0.54053 0.27689 0.76739 0.0
C706 C 0.50576 0.25148 0.75556 0.0
C707 C 0.49191 0.21457 0.7605 0.0
C708 C 0.5475 0.22721 0.78925 0.0
C709 C 0.56111 0.26468 0.78506 0.0
C710 C 0.49902 0.16218 0.7767 0.0
C711 C 0.49831 0.13283 0.65956 0.0
H712 H 0.64558 0.03803 0.65997 0.0
H713 H 0.60774 0.06654 0.66311 0.0
H714 H 0.52791 0.98275 0.59827 0.0
H715 H 0.56462 0.95366 0.59599 0.0
H716 H 0.48902 0.2603 0.74256 0.0
H717 H 0.46497 0.19597 0.75081 0.0
H718 H 0.56423 0.21817 0.80185 0.0
H719 H 0.58779 0.28393 0.79477 0.0
Tb720 Tb 0.60897 0.10002 0.14586 0.0
Tb721 Tb 0.53375 0.03823 0.10665 0.0
C722 C 0.57976 0.01763 0.15916 0.0
C723 C 0.69536 0.18601 0.16146 0.0
C724 C 0.74524 0.25965 0.15042 0.0
C725 C 0.75093 0.24042 0.17674 0.0
C726 C 0.72611 0.2038 0.18222 0.0
C727 C 0.68908 0.20519 0.13553 0.0
C728 C 0.71395 0.24195 0.13004 0.0
C729 C 0.67154 0.147 0.16565 0.0
O730 O 0.61589 0.06861 0.1067 0.0
O731 O 0.57611 0.06499 0.06765 0.0
O732 O 0.53146 0.08823 0.10906 0.0
O733 O 0.59255 0.12932 0.11103 0.0
O734 O 0.49223 0.98353 0.10365 0.0
O735 O 0.49188 0.02353 0.0702 0.0
O736 O 0.51817 0.04611 0.15693 0.0
O737 O 0.5666 0.09952 0.17734 0.0
O738 O 0.59548 0.05017 0.17271 0.0
O739 O 0.5594 0.00934 0.13108 0.0
C740 C 0.60916 0.07275 0.07505 0.0
O741 O 0.66505 0.12838 0.13759 0.0
O742 O 0.64223 0.13643 0.18383 0.0
C743 C 0.55879 0.12192 0.10723 0.0
C744 C 0.43435 0.97765 0.09255 0.0
C745 C 0.36251 0.95725 0.11432 0.0
C746 C 0.37774 0.97818 0.08429 0.0
C747 C 0.41312 0.98831 0.07365 0.0
C748 C 0.41838 0.95484 0.12134 0.0
C749 C 0.38297 0.94463 0.1319 0.0
C750 C 0.47291 0.9906 0.08245 0.0
C751 C 0.5321 0.07417 0.17771 0.0
H752 H 0.77475 0.25374 0.19297 0.0
H753 H 0.73125 0.1892 0.20223 0.0
H754 H 0.66547 0.19153 0.11911 0.0
H755 H 0.70923 0.25628 0.10948 0.0
H756 H 0.36244 0.98703 0.06895 0.0
H757 H 0.42408 1.00502 0.05083 0.0
H758 H 0.43349 0.94545 0.13632 0.0
H759 H 0.3724 0.92825 0.15494 0.0
Tb760 Tb 0.87777 0.48195 0.19616 0.0
Tb761 Tb 0.9404 0.46707 0.1584 0.0
C762 C 0.96003 0.54006 0.19971 0.0
C763 C 0.79813 0.48933 0.18812 0.0
C764 C 0.74235 0.47956 0.14329 0.0
C765 C 0.74677 0.49686 0.17503 0.0
C766 C 0.77456 0.5017 0.19738 0.0
C767 C 0.79452 0.47332 0.1559 0.0
C768 C 0.76684 0.46841 0.13365 0.0
C769 C 0.82757 0.49406 0.2109 0.0
O770 O 0.90171 0.51309 0.15025 0.0
O771 O 0.91357 0.47756 0.11645 0.0
O772 O 0.89147 0.41543 0.15359 0.0
O773 O 0.8494 0.43318 0.1647 0.0
O774 O 0.98948 0.46897 0.16904 0.0
O775 O 0.96551 0.45508 0.11828 0.0
O776 O 0.91314 0.43291 0.20292 0.0
O777 O 0.89602 0.46261 0.23861 0.0
O778 O 0.92891 0.52448 0.21644 0.0
O779 O 0.96618 0.52408 0.17383 0.0
C780 C 0.89961 0.49841 0.12059 0.0
O781 O 0.82711 0.4642 0.21963 0.0
O782 O 0.85973 0.51923 0.20087 0.0
C783 C 0.85797 0.40923 0.15394 0.0
C784 C 1.00024 0.42901 0.13668 0.0
C785 C 0.02135 0.3762 0.14054 0.0
C786 C 0.04472 0.41061 0.12609 0.0
C787 C 0.03429 0.43681 0.12432 0.0
C788 C 0.97606 0.39426 0.14961 0.0
C789 C 0.98665 0.36815 0.15184 0.0
C790 C 0.9916 0.4582 0.13822 0.0
C791 C 0.91368 0.4453 0.23359 0.0
H792 H 0.72792 0.50541 0.18303 0.0
H793 H 0.77735 0.5146 0.22194 0.0
H794 H 0.81308 0.46444 0.14797 0.0
H795 H 0.76414 0.45532 0.10921 0.0
H796 H 0.07144 0.41757 0.1168 0.0
H797 H 0.05323 0.46351 0.11411 0.0
H798 H 0.94969 0.3879 0.15943 0.0
H799 H 0.9683 0.34232 0.16392 0.0
Tb800 Tb 0.52279 0.38668 0.12061 0.0
Tb801 Tb 0.5485 0.46623 0.07835 0.0
C802 C 0.46513 0.41052 0.10436 0.0
C803 C 0.51736 0.29856 0.14148 0.0
C804 C 0.5313 0.2419 0.12601 0.0
C805 C 0.50747 0.23806 0.15283 0.0
C806 C 0.50057 0.26608 0.16044 0.0
C807 C 0.54169 0.30286 0.11506 0.0
C808 C 0.54884 0.2749 0.10758 0.0
C809 C 0.50724 0.32645 0.14791 0.0
O810 O 0.5322 0.38102 0.0669 0.0
O811 O 0.52467 0.42526 0.03929 0.0
O812 O 0.59019 0.45181 0.07009 0.0
O813 O 0.58131 0.41858 0.11956 0.0
O814 O 0.54359 0.50908 0.05512 0.0
O815 O 0.59559 0.5147 0.06448 0.0
O816 O 0.56566 0.47219 0.13106 0.0
O817 O 0.51854 0.42368 0.15638 0.0
O818 O 0.47213 0.38399 0.10764 0.0
O819 O 0.49109 0.44439 0.09698 0.0
C820 C 0.52514 0.39471 0.03961 0.0
O821 O 0.53261 0.35785 0.15928 0.0
O822 O 0.48828 0.33026 0.12372 0.0
C823 C 0.6018 0.43817 0.09387 0.0
C824 C 0.59155 0.56684 0.07607 0.0
C825 C 0.61393 0.63192 0.11397 0.0
C826 C 0.61872 0.60389 0.1273 0.0
C827 C 0.60784 0.572 0.10867 0.0
C828 C 0.58727 0.59502 0.06234 0.0
C829 C 0.59833 0.62713 0.08101 0.0
C830 C 0.57851 0.53186 0.05721 0.0
C831 C 0.54208 0.45867 0.15584 0.0
H832 H 0.49411 0.2133 0.16796 0.0
H833 H 0.48163 0.26214 0.18083 0.0
H834 H 0.55457 0.32754 0.09982 0.0
H835 H 0.56737 0.27871 0.08684 0.0
H836 H 0.63165 0.60685 0.15194 0.0
H837 H 0.61181 0.55106 0.12012 0.0
H838 H 0.57502 0.59207 0.03731 0.0
H839 H 0.59448 0.6482 0.06969 0.0
Tb840 Tb 0.45911 0.27416 0.85598 0.0
Tb841 Tb 0.41808 0.20412 0.91832 0.0
C842 C 0.39697 0.26727 0.90686 0.0
C843 C 0.57977 0.38843 0.8178 0.0
C844 C 0.64953 0.44205 0.84825 0.0
C845 C 0.62279 0.4506 0.84218 0.0
C846 C 0.59055 0.42631 0.82604 0.0
C847 C 0.61262 0.38516 0.81823 0.0
C848 C 0.64552 0.41057 0.83349 0.0
C849 C 0.49843 0.32423 0.81328 0.0
O850 O 0.48705 0.29478 0.90471 0.0
O851 O 0.44763 0.25379 0.94627 0.0
O852 O 0.47103 0.21013 0.91084 0.0
O853 O 0.49232 0.24889 0.86291 0.0
O854 O 0.36769 0.1567 0.92752 0.0
O855 O 0.4135 0.17144 0.96122 0.0
O856 O 0.42081 0.19236 0.86566 0.0
O857 O 0.4091 0.22955 0.83617 0.0
O858 O 0.42404 0.28736 0.88558 0.0
O859 O 0.38842 0.2342 0.91749 0.0
C860 C 0.47461 0.28577 0.93648 0.0
O861 O 0.48953 0.28976 0.81085 0.0
O862 O 0.47104 0.32367 0.83013 0.0
C863 C 0.49502 0.22784 0.88634 0.0
C864 C 0.36498 0.10869 0.96236 0.0
C865 C 0.33472 0.03347 0.97878 0.0
C866 C 0.36116 0.05026 0.95259 0.0
C867 C 0.37601 0.08741 0.94434 0.0
C868 C 0.33884 0.09204 0.98848 0.0
C869 C 0.32402 0.05513 -0.00336 0.0
C870 C 0.37933 0.14799 0.95496 0.0
C871 C 0.39898 0.19636 0.84564 0.0
H872 H 0.62559 0.47553 0.85207 0.0
H873 H 0.57243 0.43708 0.82479 0.0
H874 H 0.61257 0.36094 0.80999 0.0
H875 H 0.66715 0.40435 0.83555 0.0
H876 H 0.37018 0.03455 0.93828 0.0
H877 H 0.39601 0.09946 0.924 0.0
H878 H 0.3299 0.10778 0.00287 0.0
H879 H 0.30463 0.04373 0.01753 0.0
Tb880 Tb 0.74886 0.18847 0.9269 0.0
Tb881 Tb 0.82024 0.21229 0.9816 0.0
C882 C 0.76122 0.12826 0.96294 0.0
C883 C 0.67136 0.18592 0.88118 0.0
C884 C 0.617 0.2044 0.87671 0.0
C885 C 0.61614 0.17776 0.85508 0.0
C886 C 0.64325 0.1686 0.8573 0.0
C887 C 0.673 0.21336 0.902 0.0
C888 C 0.64596 0.22254 0.89979 0.0
C889 C 0.69682 0.17296 0.88653 0.0
O890 O 0.73546 0.19769 0.9781 0.0
O891 O 0.77092 0.18403 0.01211 0.0
O892 O 0.81557 0.26105 0.97668 0.0
O893 O 0.77981 0.24719 0.92768 0.0
O894 O 0.86633 0.20703 0.9864 0.0
O895 O 0.85638 0.2395 0.02249 0.0
O896 O 0.83325 0.22785 0.92878 0.0
O897 O 0.78908 0.17989 0.90226 0.0
O898 O 0.73984 0.13705 0.94637 0.0
O899 O 0.79365 0.15268 0.97485 0.0
C900 C 0.73952 0.18174 0.00534 0.0
O901 O 0.73077 0.19575 0.87893 0.0
O902 O 0.69344 0.15686 0.91598 0.0
C903 C 0.8012 0.27019 0.9511 0.0
C904 C 0.91834 0.2544 0.01318 0.0
C905 C 0.99515 0.30061 0.01299 0.0
C906 C 0.97277 0.30872 -0.00754 0.0
C907 C 0.93473 0.28578 -0.00751 0.0
C908 C 0.94062 0.24603 0.03314 0.0
C909 C 0.97849 0.26873 0.03299 0.0
C910 C 0.87861 0.22836 0.01293 0.0
C911 C 0.82378 0.2018 0.90702 0.0
H912 H 0.59408 0.1635 0.83706 0.0
H913 H 0.64164 0.14724 0.84118 0.0
H914 H 0.69444 0.22668 0.9208 0.0
H915 H 0.64685 0.24269 0.91716 0.0
H916 H 0.98469 0.33268 0.97621 0.0
H917 H 0.9182 0.29242 0.97627 0.0
H918 H 0.92867 0.22167 0.04889 0.0
H919 H 0.99475 0.26166 0.04911 0.0
Tb920 Tb 0.83427 0.5581 0.94327 0.0
Tb921 Tb 0.80041 0.58655 0.00476 0.0
C922 C 0.88581 0.61762 -0.00561 0.0
C923 C 0.84201 0.48626 0.90449 0.0
C924 C 0.83104 0.41678 0.92119 0.0
C925 C 0.86125 0.44138 0.90139 0.0
C926 C 0.86665 0.47583 0.89309 0.0
C927 C 0.8115 0.46135 0.92365 0.0
C928 C 0.80598 0.427 0.93172 0.0
C929 C 0.85033 0.52423 0.90098 0.0
O930 O 0.84138 0.53682 0.9906 0.0
O931 O 0.79895 0.53874 0.02595 0.0
O932 O 0.76293 0.56102 0.96161 0.0
O933 O 0.77957 0.51945 0.95798 0.0
O934 O 0.80463 0.62315 0.04272 0.0
O935 O 0.75259 0.5769 0.0302 0.0
O936 O 0.82386 0.63036 0.96916 0.0
O937 O 0.8288 0.60211 0.92035 0.0
O938 O 0.8809 0.60639 0.96247 0.0
O939 O 0.85864 0.60856 0.01625 0.0
C940 C 0.82176 0.52749 0.0186 0.0
O941 O 0.87286 0.54612 0.92395 0.0
O942 O 0.82253 0.52903 0.897 0.0
C943 C 0.75545 0.52865 0.95202 0.0
C944 C 0.75368 0.63177 0.04329 0.0
C945 C 0.72275 0.67686 0.038 0.0
C946 C 0.70271 0.64169 0.05209 0.0
C947 C 0.7181 0.61948 0.05489 0.0
C948 C 0.77359 0.66686 0.02886 0.0
C949 C 0.75834 0.68919 0.02641 0.0
C950 C 0.76951 0.60781 0.04628 0.0
C951 C 0.82913 0.62951 0.93636 0.0
H952 H 0.8806 0.43396 0.89227 0.0
H953 H 0.8904 0.49448 0.87834 0.0
H954 H 0.79234 0.46876 0.9333 0.0
H955 H 0.78247 0.4087 0.94701 0.0
H956 H 0.67521 0.63151 0.0612 0.0
H957 H 0.70214 0.5926 0.06606 0.0
H958 H 0.80094 0.67707 0.01932 0.0
H959 H 0.77416 0.71591 0.01492 0.0
Tb960 Tb 0.48477 0.94962 0.87431 0.0
Tb961 Tb 0.40869 0.8815 0.83834 0.0
C962 C 0.45891 0.86795 0.88959 0.0
C963 C 0.58236 0.01024 0.89341 0.0
C964 C 0.65571 0.03079 0.88249 0.0
C965 C 0.62772 0.99549 0.87453 0.0
C966 C 0.5913 0.98525 0.88005 0.0
C967 C 0.61013 0.04467 0.9032 0.0
C968 C 0.64647 0.05473 0.89812 0.0
C969 C 0.54446 1.00195 0.89429 0.0
O970 O 0.49591 0.92382 0.8322 0.0
O971 O 0.44804 0.8972 0.79732 0.0
O972 O 0.41688 0.92996 0.81313 0.0
O973 O 0.45205 0.97233 0.85358 0.0
O974 O 0.38083 0.82984 0.81606 0.0
O975 O 0.35331 0.85947 0.82811 0.0
O976 O 0.39588 0.90686 0.87946 0.0
O977 O 0.44504 0.92707 0.91504 0.0
O978 O 0.48701 0.90081 0.88518 0.0
O979 O 0.42617 0.85876 0.87889 0.0
C980 C 0.48246 0.92083 0.80153 0.0
O981 O 0.53015 1.00071 0.8643 0.0
O982 O 0.52224 0.97516 0.91425 0.0
C983 C 0.42943 0.96186 0.82724 0.0
C984 C 0.32033 0.79599 0.83494 0.0
C985 C 0.26501 0.73217 0.86541 0.0
C986 C 0.2828 0.76425 0.88455 0.0
C987 C 0.31058 0.79602 0.86944 0.0
C988 C 0.3024 0.76403 0.81592 0.0
C989 C 0.27503 0.73232 0.83106 0.0
C990 C 0.34966 0.8286 0.81846 0.0
C991 C 0.41011 0.91307 0.91016 0.0
H992 H 0.63383 0.97632 0.8626 0.0
H993 H 0.57009 0.95845 0.87243 0.0
H994 H 0.60372 0.06418 0.91385 0.0
H995 H 0.66733 0.08164 0.90576 0.0
H996 H 0.27559 0.76456 0.91116 0.0
H997 H 0.32449 0.82046 0.88467 0.0
H998 H 0.30971 0.76355 0.78938 0.0
H999 H 0.26145 0.70785 0.81584 0.0
Tb1000 Tb 0.06307 0.53666 0.91356 0.0
Tb1001 Tb 0.11367 0.51757 0.86404 0.0
C1002 C 0.1436 0.59135 0.898 0.0
C1003 C 1.00436 0.57482 0.92515 0.0
C1004 C 0.97277 0.61181 0.89146 0.0
C1005 C 0.95341 0.57384 0.89505 0.0
C1006 C 0.96875 0.5556 0.91199 0.0
C1007 C 0.02416 0.61272 0.92067 0.0
C1008 C 0.00876 0.63083 0.90382 0.0
C1009 C 0.02154 0.55519 0.94112 0.0
O1010 O 0.04817 0.53844 0.86094 0.0
O1011 O 0.09946 0.54975 0.83173 0.0
O1012 O 0.05772 0.47885 0.85239 0.0
O1013 O 0.03527 0.47767 0.90618 0.0
O1014 O 0.15905 0.53426 0.83211 0.0
O1015 O 0.12421 0.47777 0.84545 0.0
O1016 O 0.10384 0.48921 0.91223 0.0
O1017 O 0.09798 0.52743 0.94899 0.0
O1018 O 0.11069 0.58644 0.89621 0.0
O1019 O 0.14848 0.56352 0.89581 0.0
C1020 C 0.06775 0.54757 0.83282 0.0
O1021 O 0.01043 0.52255 0.92988 0.0
O1022 O 0.0568 0.57329 0.94481 0.0
C1023 C 0.0331 0.46233 0.87632 0.0
C1024 C 0.18671 0.50033 0.84461 0.0
C1025 C 0.25059 0.50364 0.86772 0.0
C1026 C 0.23949 0.49475 0.83344 0.0
C1027 C 0.20771 0.4932 0.82191 0.0
C1028 C 0.19684 0.50757 0.87924 0.0
C1029 C 0.22858 0.50917 0.89076 0.0
C1030 C 0.15521 0.50194 0.83219 0.0
C1031 C 0.10884 0.50406 0.94245 0.0
H1032 H 0.92626 0.55826 0.88492 0.0
H1033 H 0.95279 0.52633 0.91449 0.0
H1034 H 0.05186 0.62853 0.92979 0.0
H1035 H 0.02544 0.65989 0.90016 0.0
H1036 H 0.25626 0.49064 0.81523 0.0
H1037 H 0.20012 0.48752 0.79515 0.0
H1038 H 0.18072 0.51301 0.8971 0.0
H1039 H 0.23651 0.51576 0.91736 0.0
Tb1040 Tb 0.46046 0.51727 0.89338 0.0
Tb1041 Tb 0.48041 0.60154 0.87251 0.0
C1042 C 0.39867 0.53939 0.88617 0.0
C1043 C 0.41965 0.4174 0.88304 0.0
C1044 C 0.3734 0.35058 0.84913 0.0
C1045 C 0.35945 0.36493 0.87333 0.0
C1046 C 0.38213 0.39805 0.88971 0.0
C1047 C 0.43368 0.40328 0.85887 0.0
C1048 C 0.41092 0.37074 0.84188 0.0
C1049 C 0.44469 0.45202 0.90081 0.0
O1050 O 0.43806 0.52062 0.84456 0.0
O1051 O 0.48118 0.57599 0.82532 0.0
O1052 O 0.53203 0.60271 0.87802 0.0
O1053 O 0.5135 0.5431 0.86809 0.0
O1054 O 0.47713 0.64366 0.8475 0.0
O1055 O 0.51527 0.65431 0.88905 0.0
O1056 O 0.45861 0.58081 0.92254 0.0
O1057 O 0.48977 0.55404 0.93588 0.0
O1058 O 0.40861 0.5164 0.89779 0.0
O1059 O 0.42146 0.57163 0.87285 0.0
C1060 C 0.45868 0.54142 0.81969 0.0
O1061 O 0.47165 0.47599 0.88227 0.0
O1062 O 0.43089 0.46722 0.91994 0.0
C1063 C 0.53936 0.57733 0.8696 0.0
C1064 C 0.49559 0.69586 0.88194 0.0
C1065 C 0.4856 0.75121 0.90858 0.0
C1066 C 0.51563 0.75964 0.88751 0.0
C1067 C 0.52058 0.73219 0.87442 0.0
C1068 C 0.46638 0.68707 0.90415 0.0
C1069 C 0.46131 0.71466 0.91731 0.0
C1070 C 0.50208 0.66814 0.86749 0.0
C1071 C 0.47997 0.57763 0.9439 0.0
H1072 H 0.33123 0.35005 0.8809 0.0
H1073 H 0.37034 0.40786 0.90839 0.0
H1074 H 0.46247 0.4175 0.85297 0.0
H1075 H 0.42301 0.36145 0.82305 0.0
H1076 H 0.53425 0.78732 0.87948 0.0
H1077 H 0.54359 0.73933 0.85771 0.0
H1078 H 0.44732 0.65903 0.91076 0.0
H1079 H 0.43784 0.70741 0.93335 0.0
Tb1080 Tb 0.62141 0.80734 0.98938 0.0
Tb1081 Tb 0.5824 0.75861 0.0598 0.0
C1082 C 0.55215 0.79831 0.02163 0.0
C1083 C 0.66824 0.89494 0.94728 0.0
C1084 C 0.70209 0.9709 0.95933 0.0
C1085 C 0.66913 0.9463 0.97559 0.0
C1086 C 0.65261 0.90888 0.96988 0.0
C1087 C 0.70121 0.91931 0.9311 0.0
C1088 C 0.71799 0.95682 0.9371 0.0
C1089 C 0.65209 0.85504 0.94343 0.0
O1090 O 0.65606 0.83611 0.03131 0.0
O1091 O 0.61606 0.81461 0.07672 0.0
O1092 O 0.63589 0.7636 0.05656 0.0
O1093 O 0.64454 0.77225 -0.00226 0.0
O1094 O 0.54546 0.74903 0.09988 0.0
O1095 O 0.56795 0.71415 0.09308 0.0
O1096 O 0.57213 0.72037 0.0202 0.0
O1097 O 0.58051 0.75377 0.97031 0.0
O1098 O 0.58574 0.82283 0.01471 0.0
O1099 O 0.54479 0.76532 0.0278 0.0
C1100 C 0.64695 0.83908 0.06251 0.0
O1101 O 0.66849 0.84107 0.96046 0.0
O1102 O 0.61676 0.83513 0.94659 0.0
C1103 C 0.6515 0.76236 0.02772 0.0
C1104 C 0.50504 0.68518 0.10691 0.0
C1105 C 0.43491 0.62218 0.10354 0.0
C1106 C 0.46483 0.61999 0.11567 0.0
C1107 C 0.49944 0.65116 0.11755 0.0
C1108 C 0.47504 0.68719 0.09431 0.0
C1109 C 0.44038 0.65602 0.09272 0.0
C1110 C 0.54235 0.71773 0.10755 0.0
C1111 C 0.56852 0.72277 0.98718 0.0
H1112 H 0.65619 0.95597 -0.00691 0.0
H1113 H 0.62772 0.89081 0.9835 0.0
H1114 H 0.71419 0.9093 0.91403 0.0
H1115 H 0.74309 0.9748 0.9238 0.0
H1116 H 0.46152 0.59412 0.12356 0.0
H1117 H 0.52197 0.64861 0.12702 0.0
H1118 H 0.47829 0.71278 0.08545 0.0
H1119 H 0.41783 0.65831 0.08288 0.0
Tb1120 Tb 0.22023 0.79644 0.02833 0.0
Tb1121 Tb 0.30141 0.83349 0.07084 0.0
C1122 C 0.24602 0.74779 0.0687 0.0
C1123 C 0.11811 0.74831 0.00684 0.0
C1124 C 0.04165 0.70394 0.01219 0.0
C1125 C 0.06475 0.69709 0.03292 0.0
C1126 C 0.10278 0.71926 0.03038 0.0
C1127 C 0.09513 0.75505 0.9863 0.0
C1128 C 0.05744 0.73326 0.98898 0.0
C1129 C 0.15759 0.77366 0.00382 0.0
O1130 O 0.21879 0.79178 0.08318 0.0
O1131 O 0.2648 0.84593 0.09793 0.0
O1132 O 0.30565 0.87741 0.03915 0.0
O1133 O 0.24586 0.85634 0.02379 0.0
O1134 O 0.35696 0.8711 0.06813 0.0
O1135 O 0.33418 0.8365 0.1128 0.0
O1136 O 0.29854 0.8043 0.02487 0.0
O1137 O 0.26177 0.81373 0.98979 0.0
O1138 O 0.22667 0.75034 0.04322 0.0
O1139 O 0.27197 0.77627 0.08478 0.0
C1140 C 0.23036 0.82129 0.1005 0.0
O1141 O 0.17237 0.79882 0.02718 0.0
O1142 O 0.17879 0.7612 -0.00543 0.0
C1143 C 0.28037 0.88261 0.02565 0.0
C1144 C 0.39346 0.85134 0.09346 0.0
C1145 C 0.44697 0.83446 0.07415 0.0
C1146 C 0.45374 0.87018 0.07127 0.0
C1147 C 0.42728 0.8785 0.08088 0.0
C1148 C 0.3874 0.81608 0.09842 0.0
C1149 C 0.4141 0.8078 0.08914 0.0
C1150 C 0.36394 0.85963 0.09658 0.0
C1151 C 0.29261 0.81478 -0.00479 0.0
H1152 H 0.05343 0.67497 0.05137 0.0
H1153 H 0.1201 0.71394 0.04684 0.0
H1154 H 0.1064 0.77751 0.96818 0.0
H1155 H 0.0406 0.73921 0.97254 0.0
H1156 H 0.47875 0.89135 0.05987 0.0
H1157 H 0.43249 0.90583 0.07664 0.0
H1158 H 0.36163 0.79463 0.10819 0.0
H1159 H 0.4086 0.78031 0.09283 0.0
Tb1160 Tb 0.2375 0.4222 0.0285 0.0
Tb1161 Tb 0.20605 0.45969 0.08585 0.0
C1162 C 0.28927 0.48558 0.08131 0.0
C1163 C 0.28135 0.37369 0.97965 0.0
C1164 C 0.31917 0.33716 0.96127 0.0
C1165 C 0.33161 0.36241 0.9884 0.0
C1166 C 0.31269 0.38035 -0.00229 0.0
C1167 C 0.26941 0.34902 0.95239 0.0
C1168 C 0.28798 0.33107 0.94332 0.0
C1169 C 0.25905 0.39026 0.98847 0.0
O1170 O 0.23435 0.40296 0.08026 0.0
O1171 O 0.18598 0.40437 0.1022 0.0
O1172 O 0.15821 0.42118 0.05818 0.0
O1173 O 0.1774 0.39044 0.023 0.0
O1174 O 0.20541 0.48373 0.13265 0.0
O1175 O 0.16947 0.47828 0.09126 0.0
O1176 O 0.22929 0.49295 0.04039 0.0
O1177 O 0.21625 0.45085 -0.00053 0.0
O1178 O 0.28438 0.47202 0.04978 0.0
O1179 O 0.26149 0.4761 0.10206 0.0
C1180 C 0.2029 0.38656 0.09586 0.0
O1181 O 0.23346 0.37377 0.01138 0.0
O1182 O 0.27361 0.42557 0.98936 0.0
C1183 C 0.15163 0.39591 0.03562 0.0
C1184 C 0.19384 0.5316 0.12144 0.0
C1185 C 0.21069 0.60373 0.11319 0.0
C1186 C 0.17933 0.57895 0.13134 0.0
C1187 C 0.17109 0.54299 0.1357 0.0
C1188 C 0.22524 0.55654 0.10352 0.0
C1189 C 0.23401 0.59253 0.10005 0.0
C1190 C 0.18254 0.49305 0.1208 0.0
C1191 C 0.21579 0.4797 0.0102 0.0
H1192 H 0.35565 0.36788 0.00269 0.0
H1193 H 0.32235 0.39913 0.01897 0.0
H1194 H 0.24538 0.34345 0.93801 0.0
H1195 H 0.27809 0.3127 0.92174 0.0
H1196 H 0.16099 0.58725 0.14146 0.0
H1197 H 0.14632 0.52381 0.14894 0.0
H1198 H 0.24245 0.5479 0.09138 0.0
H1199 H 0.25804 0.6112 0.08556 0.0
Tb1200 Tb 0.28295 0.48213 0.44455 0.0
Tb1201 Tb 0.20121 0.41548 0.41898 0.0
C1202 C 0.26223 0.39947 0.44392 0.0
C1203 C 0.37513 0.56781 0.44476 0.0
C1204 C 0.43391 0.63447 0.42186 0.0
C1205 C 0.43441 0.62077 0.45462 0.0
C1206 C 0.40527 0.58778 0.46595 0.0
C1207 C 0.37397 0.58177 0.41228 0.0
C1208 C 0.40319 0.61495 0.40093 0.0
C1209 C 0.34782 0.53075 0.45538 0.0
O1210 O 0.26801 0.48983 0.39394 0.0
O1211 O 0.24125 0.43159 0.37765 0.0
O1212 O 0.196 0.46364 0.41937 0.0
O1213 O 0.2487 0.50603 0.44765 0.0
O1214 O 0.15967 0.36149 0.42559 0.0
O1215 O 0.15541 0.39529 0.38664 0.0
O1216 O 0.19903 0.43221 0.47094 0.0
O1217 O 0.25624 0.45031 0.48954 0.0
O1218 O 0.28713 0.43341 0.43731 0.0
O1219 O 0.22749 0.38852 0.4423 0.0
C1220 C 0.26219 0.46617 0.37043 0.0
O1221 O 0.32059 0.52635 0.47442 0.0
O1222 O 0.33776 0.50607 0.43164 0.0
C1223 C 0.21664 0.49543 0.43382 0.0
C1224 C 0.10139 0.35185 0.41529 0.0
C1225 C 0.03101 0.32352 0.44357 0.0
C1226 C 0.06014 0.35674 0.45511 0.0
C1227 C 0.09502 0.37071 0.44117 0.0
C1228 C 0.07236 0.31912 0.40323 0.0
C1229 C 0.03748 0.3051 0.41717 0.0
C1230 C 0.13861 0.36427 0.40306 0.0
C1231 C 0.22106 0.43329 0.495 0.0
H1232 H 0.45762 0.63545 0.47134 0.0
H1233 H 0.40679 0.57727 0.49092 0.0
H1234 H 0.35109 0.56649 0.39534 0.0
H1235 H 0.40227 0.62476 0.37545 0.0
H1236 H 0.05612 0.37154 0.47546 0.0
H1237 H 0.11718 0.39585 0.45109 0.0
H1238 H 0.07676 0.30406 0.38339 0.0
H1239 H 0.01556 0.27989 0.40718 0.0
Tb1240 Tb 0.5937 0.85038 0.41575 0.0
Tb1241 Tb 0.64734 0.82363 0.38091 0.0
C1242 C 0.67693 0.89597 0.42395 0.0
C1243 C 0.51282 0.86209 0.43127 0.0
C1244 C 0.44067 0.84865 0.43081 0.0
C1245 C 0.47003 0.88392 0.42517 0.0
C1246 C 0.50586 0.8906 0.42559 0.0
C1247 C 0.48314 0.82647 0.43442 0.0
C1248 C 0.44752 0.8199 0.43443 0.0
C1249 C 0.55044 0.87008 0.43819 0.0
O1250 O 0.6234 0.88074 0.36971 0.0
O1251 O 0.61964 0.83484 0.33987 0.0
O1252 O 0.59531 0.77569 0.39438 0.0
O1253 O 0.56029 0.80145 0.38663 0.0
O1254 O 0.70052 0.83353 0.3729 0.0
O1255 O 0.65425 0.78441 0.35479 0.0
O1256 O 0.64822 0.81486 0.43458 0.0
O1257 O 0.59824 0.81622 0.45465 0.0
O1258 O 0.64565 0.88237 0.43992 0.0
O1259 O 0.68066 0.88152 0.39533 0.0
C1260 C 0.61684 0.86402 0.34018 0.0
O1261 O 0.55365 0.84353 0.45077 0.0
O1262 O 0.57576 0.88886 0.41566 0.0
C1263 C 0.56324 0.77251 0.38971 0.0
C1264 C 0.69911 0.77842 0.3864 0.0
C1265 C 0.71722 0.73883 0.43416 0.0
C1266 C 0.68328 0.72234 0.41744 0.0
C1267 C 0.67436 0.74177 0.3941 0.0
C1268 C 0.73275 0.79525 0.4035 0.0
C1269 C 0.74132 0.77586 0.42734 0.0
C1270 C 0.68833 0.79997 0.3639 0.0
C1271 C 0.62474 0.80927 0.45876 0.0
H1272 H 0.46538 0.90654 0.4225 0.0
H1273 H 0.52816 0.91828 0.42313 0.0
H1274 H 0.48737 0.80376 0.43864 0.0
H1275 H 0.4253 0.79247 0.43874 0.0
H1276 H 0.66375 0.69386 0.42111 0.0
H1277 H 0.64781 0.7279 0.38221 0.0
H1278 H 0.7522 0.82369 0.39898 0.0
H1279 H 0.7667 0.78996 0.44094 0.0
Tb1280 Tb 0.22317 0.75683 0.49828 0.0
Tb1281 Tb 0.2227 0.82265 0.45342 0.0
C1282 C 0.15126 0.75857 0.48579 0.0
C1283 C 0.20213 0.66551 0.51406 0.0
C1284 C 0.18488 0.601 0.48077 0.0
C1285 C 0.19704 0.60657 0.51495 0.0
C1286 C 0.20591 0.63889 0.53147 0.0
C1287 C 0.18695 0.65861 0.48098 0.0
C1288 C 0.17864 0.62659 0.46426 0.0
C1289 C 0.2183 0.70213 0.52785 0.0
O1290 O 0.22616 0.74697 0.44454 0.0
O1291 O 0.19688 0.77482 0.42097 0.0
O1292 O 0.27403 0.82451 0.44159 0.0
O1293 O 0.27969 0.79812 0.49115 0.0
O1294 O 0.20006 0.8562 0.45073 0.0
O1295 O 0.24091 0.86264 0.41439 0.0
O1296 O 0.25396 0.84341 0.49987 0.0
O1297 O 0.22673 0.79539 0.53548 0.0
O1298 O 0.16632 0.73823 0.48477 0.0
O1299 O 0.17152 0.7939 0.48201 0.0
C1300 C 0.20772 0.75093 0.41974 0.0
O1301 O 0.24725 0.72607 0.51142 0.0
O1302 O 0.19574 0.71371 0.53329 0.0
C1303 C 0.29357 0.81672 0.4626 0.0
C1304 C 0.24156 0.91612 0.43391 0.0
C1305 C 0.27943 0.98906 0.45599 0.0
C1306 C 0.29733 0.97442 0.43747 0.0
C1307 C 0.27873 0.93835 0.42671 0.0
C1308 C 0.22303 0.93148 0.4502 0.0
C1309 C 0.24178 0.96756 0.46124 0.0
C1310 C 0.22224 0.87667 0.4267 0.0
C1311 C 0.23907 0.82989 0.52961 0.0
H1312 H 0.20237 0.58717 0.52789 0.0
H1313 H 0.21765 0.64395 0.55694 0.0
H1314 H 0.18366 0.67894 0.46731 0.0
H1315 H 0.16944 0.62277 0.43786 0.0
H1316 H 0.32612 0.99069 0.43213 0.0
H1317 H 0.29377 0.92769 0.41368 0.0
H1318 H 0.19422 0.9151 0.45567 0.0
H1319 H 0.22715 0.97805 0.47526 0.0
Tb1320 Tb 0.1277 0.60346 0.25869 0.0
Tb1321 Tb 0.09767 0.54309 0.32311 0.0
C1322 C 0.0702 0.59963 0.31039 0.0
C1323 C 0.18412 0.68858 0.2178 0.0
C1324 C 0.24735 0.75244 0.23649 0.0
C1325 C 0.24317 0.73955 0.20275 0.0
C1326 C 0.21167 0.70749 0.19347 0.0
C1327 C 0.18741 0.7031 0.25078 0.0
C1328 C 0.21896 0.73471 0.26014 0.0
C1329 C 0.15655 0.65057 0.21216 0.0
O1330 O 0.16269 0.62938 0.30281 0.0
O1331 O 0.1267 0.59485 0.3487 0.0
O1332 O 0.15417 0.55941 0.31122 0.0
O1333 O 0.14603 0.56522 0.25454 0.0
O1334 O 0.05436 0.50861 0.35554 0.0
O1335 O 0.10253 0.5044 0.35326 0.0
O1336 O 0.08179 0.51784 0.27365 0.0
O1337 O 0.07437 0.55993 0.24537 0.0
O1338 O 0.0991 0.62066 0.29191 0.0
O1339 O 0.06174 0.56632 0.31962 0.0
C1340 C 0.1534 0.62516 0.33554 0.0
O1341 O 0.16749 0.62799 0.22025 0.0
O1342 O 0.12442 0.64013 0.22475 0.0
C1343 C 0.16535 0.56291 0.2793 0.0
C1344 C 0.04597 0.44925 0.35847 0.0
C1345 C 1.0036 0.37305 0.34843 0.0
C1346 C 0.03317 0.38801 0.37136 0.0
C1347 C 0.05401 0.42556 0.37636 0.0
C1348 C 0.01629 0.43448 0.33567 0.0
C1349 C 0.99534 0.39682 0.33072 0.0
C1350 C 0.06888 0.48907 0.36364 0.0
C1351 C 0.06254 0.526 0.25363 0.0
H1352 H 0.2651 0.75303 0.18432 0.0
H1353 H 0.20982 0.69631 0.16817 0.0
H1354 H 0.16665 0.68868 0.2701 0.0
H1355 H 0.22196 0.74431 0.2863 0.0
H1356 H 0.04026 0.37061 0.3855 0.0
H1357 H 0.07661 0.43611 0.39412 0.0
H1358 H 0.00936 0.45203 0.32148 0.0
H1359 H 0.97322 0.38644 0.31249 0.0
Tb1360 Tb 0.41413 0.53671 0.21623 0.0
Tb1361 Tb 0.47474 0.56421 0.28219 0.0
C1362 C 0.41585 0.47778 0.26657 0.0
C1363 C 0.32842 0.57067 0.15582 0.0
C1364 C 0.28163 0.58515 0.19549 0.0
C1365 C 0.26701 0.55724 0.17176 0.0
C1366 C 0.28966 0.55306 0.14893 0.0
C1367 C 0.33951 0.60768 0.16733 0.0
C1368 C 0.31717 0.61333 0.18998 0.0
C1369 C 0.37295 0.53094 0.16734 0.0
O1370 O 0.39273 0.54981 0.26096 0.0
O1371 O 0.4218 0.53988 0.30634 0.0
O1372 O 0.46737 0.61064 0.26885 0.0
O1373 O 0.45199 0.59544 0.21265 0.0
O1374 O 0.51407 0.55458 0.3042 0.0
O1375 O 0.51173 0.60207 0.31823 0.0
O1376 O 0.49762 0.56898 0.23287 0.0
O1377 O 0.45274 0.5201 0.20636 0.0
O1378 O 0.40013 0.48526 0.24101 0.0
O1379 O 0.44414 0.50347 0.28393 0.0
C1380 C 0.39299 0.53866 0.29245 0.0
O1381 O 0.40892 0.54791 0.16502 0.0
O1382 O 0.3635 0.50448 0.19043 0.0
C1383 C 0.46184 0.61924 0.23761 0.0
C1384 C 0.57157 0.60779 0.31499 0.0
C1385 C 0.64966 0.64692 0.31397 0.0
C1386 C 0.62979 0.66355 0.3244 0.0
C1387 C 0.5915 0.64434 0.32508 0.0
C1388 C 0.59142 0.59159 0.30305 0.0
C1389 C 0.62981 0.61085 0.3025 0.0
C1390 C 0.53083 0.58581 0.31962 0.0
C1391 C 0.4862 0.53883 0.21673 0.0
H1392 H 0.23844 0.53721 0.17269 0.0
H1393 H 0.27613 0.53002 0.1324 0.0
H1394 H 0.36725 0.63005 0.16544 0.0
H1395 H 0.32845 0.63807 0.20476 0.0
H1396 H 0.64404 0.69138 0.33306 0.0
H1397 H 0.57754 0.65789 0.33448 0.0
H1398 H 0.57733 0.56347 0.29517 0.0
H1399 H 0.64389 0.59686 0.29473 0.0
Tb1400 Tb 0.46445 0.89859 0.2301 0.0
Tb1401 Tb 0.45994 0.92682 0.30133 0.0
C1402 C 0.53223 0.97521 0.26062 0.0
C1403 C 0.4626 0.82189 0.18881 0.0
C1404 C 0.46513 0.75703 0.20372 0.0
C1405 C 0.48245 0.7785 0.1743 0.0
C1406 C 0.48145 0.81062 0.16712 0.0
C1407 C 0.44396 0.79938 0.21721 0.0
C1408 C 0.44551 0.76789 0.2247 0.0
C1409 C 0.46287 0.85713 0.18317 0.0
O1410 O 0.4719 0.86402 0.26585 0.0
O1411 O 0.48833 0.89733 0.31522 0.0
O1412 O 0.40878 0.87603 0.29774 0.0
O1413 O 0.40773 0.87948 0.23948 0.0
O1414 O 0.48504 0.97828 0.32447 0.0
O1415 O 0.44101 0.93179 0.34999 0.0
O1416 O 0.43721 0.94732 0.26297 0.0
O1417 O 0.46822 0.94919 0.21448 0.0
O1418 O 0.5073 0.94052 0.26601 0.0
O1419 O 0.50752 0.94159 0.26783 0.0
C1420 C 0.49068 0.87423 0.29409 0.0
O1421 O 0.43412 0.85755 0.19423 0.0
O1422 O 0.49233 0.88732 0.1911 0.0
C1423 C 0.39117 0.86614 0.26862 0.0
C1424 C 0.43852 0.98675 0.34974 0.0
C1425 C 0.3952 0.02084 0.35023 0.0
C1426 C 0.39439 0.99891 0.378 0.0
C1427 C 0.41572 0.98214 0.37776 0.0
C1428 C 0.43926 0.00871 0.32226 0.0
C1429 C 0.41804 0.02534 0.32235 0.0
C1430 C 0.45974 0.96728 0.34809 0.0
C1431 C 0.45295 0.96307 0.23389 0.0
H1432 H 0.49762 0.77098 0.15729 0.0
H1433 H 0.49585 0.8269 0.14488 0.0
H1434 H 0.42812 0.80617 0.23406 0.0
H1435 H 0.43094 0.75176 0.24695 0.0
H1436 H 0.3772 0.99468 0.40001 0.0
H1437 H 0.41408 0.96522 0.39933 0.0
H1438 H 0.45582 0.01263 0.30017 0.0
H1439 H 0.41885 0.04096 0.3 0.0
C1440 C 0.17562 0.17743 0.20965 0.0
C1441 C 0.13887 0.1655 0.2161 0.0
C1442 C 0.18715 0.1523 0.2058 0.0
C1443 C 0.16224 0.11495 0.20888 0.0
H1444 H 0.19461 0.20573 0.20388 0.0
H1445 H 0.21473 0.1618 0.19728 0.0
S1446 S 0.06528 0.07153 0.2342 0.0
N1447 N 0.0794 0.11534 0.23191 0.0
N1448 N 0.10106 0.06782 0.22489 0.0
C1449 C 0.12669 0.10331 0.22006 0.0
C1450 C 0.11493 0.12881 0.2236 0.0
C1451 C 0.88242 0.97166 0.21905 0.0
C1452 C 0.87964 1.00269 0.22475 0.0
C1453 C 0.8534 0.93661 0.22626 0.0
C1454 C 0.81989 0.93062 0.2394 0.0
H1455 H 0.90677 0.97428 0.20756 0.0
H1456 H 0.857 0.91393 0.22003 0.0
S1457 S 0.80049 1.00281 0.26459 0.0
N1458 N 0.84208 0.02527 0.24858 0.0
N1459 N 0.78731 0.95931 0.26142 0.0
C1460 C 0.81729 0.96144 0.24691 0.0
C1461 C 0.84709 0.99736 0.23974 0.0
C1462 C 0.01314 0.83674 0.20118 0.0
C1463 C 0.03987 0.87362 0.198 0.0
C1464 C 0.97603 0.8258 0.20196 0.0
C1465 C 0.96445 0.8514 0.20035 0.0
H1466 H 0.02083 0.81611 0.20143 0.0
H1467 H 0.95619 0.79705 0.20301 0.0
S1468 S 0.02397 0.95147 0.19536 0.0
N1469 N 0.0524 0.93586 0.19572 0.0
N1470 N 0.98284 0.91534 0.19752 0.0
C1471 C 0.99104 0.88843 0.19901 0.0
C1472 C 0.0287 0.89953 0.19772 0.0
C1473 C 0.17128 0.16306 0.37175 0.0
C1474 C 0.17498 0.13602 0.3889 0.0
C1475 C 0.1424 0.16885 0.37948 0.0
C1476 C 0.11596 0.14749 0.40429 0.0
H1477 H 0.19101 0.18012 0.35254 0.0
H1478 H 0.14048 0.18994 0.36566 0.0
S1479 S 0.11216 0.07216 0.45546 0.0
N1480 N 0.14873 0.08685 0.43123 0.0
N1481 N 0.09506 0.09818 0.44565 0.0
C1482 C 0.1191 0.12018 0.42132 0.0
C1483 C 0.14845 0.11435 0.41367 0.0
C1484 C 0.8582 0.99304 0.43088 0.0
C1485 C 0.86535 0.97199 0.40809 0.0
C1486 C 0.86144 0.02597 0.42022 0.0
C1487 C 0.87081 0.03844 0.38616 0.0
H1488 H 0.85096 0.98445 0.45735 0.0
H1489 H 0.85724 0.04214 0.43896 0.0
S1490 S 0.89123 0.99303 0.31626 0.0
N1491 N 0.88191 0.96585 0.34979 0.0
N1492 N 0.88671 0.0272 0.32961 0.0
C1493 C 0.87691 0.0172 0.36285 0.0
C1494 C 0.87458 0.98413 0.37389 0.0
C1495 C 1.00044 0.86029 0.39957 0.0
C1496 C 0.97395 0.8347 0.42228 0.0
C1497 C 0.03059 0.89421 0.40897 0.0
C1498 C 0.03825 0.90947 0.44235 0.0
H1499 H 0.99739 0.85457 0.37232 0.0
H1500 H 0.04891 0.90941 0.38812 0.0
S1501 S 0.97492 0.84996 0.53884 0.0
N1502 N 0.95702 0.81896 0.4918 0.0
N1503 N 0.01522 0.89527 0.51046 0.0
C1504 C 0.0144 0.88757 0.46842 0.0
C1505 C 0.98 0.84295 0.45743 0.0
C1506 C 0.90514 0.85783 0.77403 0.0
C1507 C 0.87501 0.8222 0.77525 0.0
C1508 C 0.90188 0.88777 0.78314 0.0
C1509 C 0.86838 0.88336 0.79373 0.0
H1510 H 0.93202 0.86264 0.76794 0.0
H1511 H 0.92624 0.91429 0.78386 0.0
S1512 S 0.77981 0.79718 0.79448 0.0
N1513 N 0.8095 0.78512 0.78303 0.0
N1514 N 0.80349 0.84159 0.7999 0.0
C1515 C 0.83749 0.84843 0.79225 0.0
C1516 C 0.84076 0.81784 0.783 0.0
C1517 C 0.17532 1.00111 0.74503 0.0
C1518 C 0.16874 0.03006 0.74202 0.0
C1519 C 0.1469 0.96531 0.74086 0.0
C1520 C 0.11145 0.95784 0.73323 0.0
H1521 H 0.20145 0.00583 0.75393 0.0
H1522 H 0.15195 0.9435 0.74725 0.0
S1523 S 0.08381 0.02544 0.71291 0.0
N1524 N 0.12681 0.04988 0.72455 0.0
N1525 N 0.07381 0.98268 0.7148 0.0
C1526 C 0.10627 0.98703 0.72505 0.0
C1527 C 0.13485 0.02325 0.73015 0.0
C1528 C 0.96746 0.09089 0.75828 0.0
C1529 C 0.96069 0.11967 0.76187 0.0
C1530 C 1.0026 0.09771 0.75218 0.0
C1531 C 0.03182 0.13355 0.75013 0.0
H1532 H 0.9463 0.06326 0.76387 0.0
H1533 H 0.00745 0.07515 0.75406 0.0
S1534 S 0.02608 0.21719 0.74595 0.0
N1535 N 0.98402 0.18438 0.75384 0.0
N1536 N 0.05053 0.19718 0.74271 0.0
C1537 C 0.0243 0.16193 0.74744 0.0
C1538 C 0.98841 0.15498 0.7534 0.0
C1539 C 0.82013 0.87876 0.55748 0.0
C1540 C 0.83288 0.90008 0.5871 0.0
C1541 C 0.84433 0.87852 0.53329 0.0
C1542 C 0.88239 0.89885 0.53802 0.0
H1543 H 0.79122 0.86266 0.55255 0.0
H1544 H 0.83288 0.86157 0.51096 0.0
S1545 S 0.92924 0.96009 0.61141 0.0
N1546 N 0.8856 0.94365 0.61924 0.0
N1547 N 0.93126 0.94154 0.57503 0.0
C1548 C 0.89538 0.92093 0.56738 0.0
C1549 C 0.87061 0.9218 0.59161 0.0
C1550 C 0.08758 0.00758 0.55057 0.0
C1551 C 0.12117 0.03745 0.55987 0.0
C1552 C 0.07779 0.97253 0.5614 0.0
C1553 C 0.10108 0.96611 0.58211 0.0
H1554 H 0.06914 0.01125 0.53412 0.0
H1555 H 0.05204 0.95019 0.55295 0.0
S1556 S 0.19076 0.03585 0.61594 0.0
N1557 N 0.17686 0.05897 0.59262 0.0
N1558 N 0.15831 0.9929 0.61322 0.0
C1559 C 0.13407 0.99599 0.59286 0.0
C1560 C 0.14424 0.0317 0.5815 0.0
C1561 C 0.99032 0.1277 0.54414 0.0
C1562 C 0.96271 0.11613 0.56901 0.0
C1563 C 0.0261 0.15513 0.55113 0.0
C1564 C 0.03608 0.17221 0.58344 0.0
H1565 H 0.98421 0.11544 0.51893 0.0
H1566 H 0.04615 0.16267 0.53094 0.0
S1567 S 0.97386 0.15098 0.65792 0.0
N1568 N 0.94771 0.12336 0.62748 0.0
N1569 N 0.01478 0.17492 0.64075 0.0
C1570 C 0.00856 0.16097 0.60856 0.0
C1571 C 0.97201 0.13303 0.60132 0.0
C1572 C 0.8281 0.48401 0.56672 0.0
C1573 C 0.79832 0.4484 0.5682 0.0
C1574 C 0.82299 0.51387 0.56675 0.0
C1575 C 0.78788 0.50922 0.5681 0.0
H1576 H 0.85537 0.48885 0.56281 0.0
H1577 H 0.84668 0.54059 0.56333 0.0
S1578 S 0.70176 0.42154 0.5809 0.0
N1579 N 0.73336 0.41017 0.57752 0.0
N1580 N 0.72333 0.4662 0.57736 0.0
C1581 C 0.75819 0.47383 0.57344 0.0
C1582 C 0.76352 0.44343 0.57345 0.0
C1583 C 0.52991 0.30805 0.58117 0.0
C1584 C 0.49372 0.2999 0.5769 0.0
C1585 C 0.55891 0.34389 0.57953 0.0
C1586 C 0.55283 0.37293 0.57365 0.0
H1587 H 0.53619 0.28653 0.58401 0.0
H1588 H 0.58639 0.34879 0.58143 0.0
S1589 S 0.46323 0.36697 0.5646 0.0
N1590 N 0.45342 0.32466 0.57037 0.0
N1591 N 0.50796 0.3916 0.56589 0.0
C1592 C 0.51676 0.36551 0.57175 0.0
C1593 C 0.48719 0.3291 0.57379 0.0
C1594 C 0.64928 0.17167 0.56513 0.0
C1595 C 0.63313 0.18733 0.54522 0.0
C1596 C 0.68512 0.18006 0.5587 0.0
C1597 C 0.70555 0.20397 0.5319 0.0
H1598 H 0.63454 0.15378 0.58642 0.0
H1599 H 0.69723 0.16878 0.57552 0.0
S1600 S 0.6727 0.24626 0.46846 0.0
N1601 N 0.63828 0.22384 0.49513 0.0
N1602 N 0.70516 0.23929 0.48265 0.0
C1603 C 0.68867 0.21783 0.51053 0.0
C1604 C 0.65255 0.20957 0.51727 0.0
C1605 C 0.80695 0.46087 0.69794 0.0
C1606 C 0.83673 0.4698 0.71941 0.0
C1607 C 0.77885 0.46672 0.70851 0.0
C1608 C 0.78023 0.48287 0.74034 0.0
H1609 H 0.80463 0.44798 0.67345 0.0
H1610 H 0.75584 0.45843 0.69164 0.0
S1611 S 0.85281 0.51135 0.80569 0.0
N1612 N 0.86599 0.4951 0.77398 0.0
N1613 N 0.81392 0.5074 0.79324 0.0
C1614 C 0.81025 0.49242 0.76175 0.0
C1615 C 0.83834 0.4856 0.75139 0.0
C1616 C 0.55274 0.32734 0.7274 0.0
C1617 C 0.55308 0.31566 0.76139 0.0
C1618 C 0.5496 0.3579 0.71821 0.0
C1619 C 0.54239 0.37899 0.74138 0.0
H1620 H 0.55439 0.31154 0.70654 0.0
H1621 H 0.55305 0.3652 0.69121 0.0
S1622 S 0.53337 0.36151 0.8581 0.0
N1623 N 0.55013 0.32993 0.82995 0.0
N1624 N 0.52614 0.38313 0.81006 0.0
C1625 C 0.53723 0.36762 0.77601 0.0
C1626 C 0.55067 0.33618 0.78748 0.0
C1627 C 0.67558 0.2104 0.75499 0.0
C1628 C 0.69901 0.23263 0.7288 0.0
C1629 C 0.63987 0.18346 0.7478 0.0
C1630 C 0.62605 0.17734 0.71407 0.0
H1631 H 0.68459 0.21445 0.78145 0.0
H1632 H 0.62284 0.16748 0.7691 0.0
S1633 S 0.677 0.22717 0.63605 0.0
N1634 N 0.70657 0.24592 0.66755 0.0
N1635 N 0.63905 0.19522 0.65406 0.0
C1636 C 0.64946 0.19869 0.68744 0.0
C1637 C 0.68595 0.22641 0.69483 0.0
C1638 C 0.57995 0.18875 0.11032 0.0
C1639 C 0.55119 0.15258 0.10697 0.0
C1640 C 0.57338 0.21758 0.11535 0.0
C1641 C 0.53778 0.21151 0.11753 0.0
H1642 H 0.60788 0.19486 0.11021 0.0
H1643 H 0.59638 0.24466 0.11885 0.0
S1644 S 0.45281 0.12309 0.10613 0.0
N1645 N 0.4855 0.11323 0.10302 0.0
N1646 N 0.47345 0.16727 0.11268 0.0
C1647 C 0.50881 0.17589 0.11262 0.0
C1648 C 0.51543 0.14655 0.10723 0.0
C1649 C 0.8366 0.3444 0.14162 0.0
C1650 C 0.82831 0.37217 0.14587 0.0
C1651 C 0.80923 0.30802 0.14113 0.0
C1652 C 0.77258 0.29806 0.14454 0.0
H1653 H 0.86452 0.35046 0.14057 0.0
H1654 H 0.81687 0.28739 0.13953 0.0
S1655 S 0.73571 0.36003 0.15047 0.0
N1656 N 0.78021 0.38718 0.14895 0.0
N1657 N 0.72876 0.31837 0.14836 0.0
C1658 C 0.76353 0.32539 0.14586 0.0
C1659 C 0.79144 0.3626 0.14643 0.0
C1660 C 0.70084 0.49591 0.11281 0.0
C1661 C 0.7098 0.46953 0.12234 0.0
C1662 C 0.66652 0.48571 0.09925 0.0
C1663 C 0.64023 0.44888 0.09547 0.0
H1664 H 0.71971 0.52437 0.11763 0.0
H1665 H 0.65948 0.50649 0.09465 0.0
S1666 S 0.65166 0.36984 0.11286 0.0
N1667 N 0.69093 0.40539 0.12376 0.0
N1668 N 0.62632 0.38639 0.09885 0.0
C1669 C 0.64985 0.42256 0.10237 0.0
C1670 C 0.68476 0.43286 0.1157 0.0
C1671 C 0.55067 0.18171 0.88201 0.0
C1672 C 0.58622 0.21108 0.87737 0.0
C1673 C 0.52121 0.18738 0.88536 0.0
C1674 C 0.52636 0.22254 0.88366 0.0
H1675 H 0.5457 0.15422 0.88384 0.0
H1676 H 0.49423 0.16412 0.88899 0.0
S1677 S 0.61379 0.30841 0.87152 0.0
N1678 N 0.62481 0.27644 0.87086 0.0
N1679 N 0.56931 0.28706 0.87722 0.0
C1680 C 0.56161 0.25206 0.87866 0.0
C1681 C 0.59163 0.24635 0.87554 0.0
C1682 C 0.78286 0.31441 0.93204 0.0
C1683 C 0.80942 0.30818 0.94681 0.0
C1684 C 0.79018 0.3495 0.9241 0.0
C1685 C 0.82456 0.37999 0.93016 0.0
H1686 H 0.75608 0.29184 0.92622 0.0
H1687 H 0.76885 0.35271 0.91248 0.0
S1688 S 0.90363 0.3788 0.96877 0.0
N1689 N 0.87146 0.33559 0.96765 0.0
N1690 N 0.88541 0.40183 0.95251 0.0
C1691 C 0.85141 0.37434 0.94521 0.0
C1692 C 0.84376 0.33842 0.95373 0.0
C1693 C 0.69554 0.50238 0.8731 0.0
C1694 C 0.67886 0.46415 0.87318 0.0
C1695 C 0.71901 0.52331 0.89962 0.0
C1696 C 0.72692 0.50674 0.9269 0.0
H1697 H 0.69019 0.51621 0.8525 0.0
H1698 H 0.73177 0.5526 0.89824 0.0
S1699 S 0.69019 0.40805 0.93983 0.0
N1700 N 0.67144 0.41088 0.90373 0.0
N1701 N 0.71649 0.45027 0.95264 0.0
C1702 C 0.71081 0.46876 0.92714 0.0
C1703 C 0.68668 0.44746 0.90048 0.0
C1704 C 0.43583 0.80225 0.90024 0.0
C1705 C 0.46399 0.83857 0.90395 0.0
C1706 C 0.44201 0.77345 0.90565 0.0
C1707 C 0.47646 0.77981 0.91529 0.0
H1708 H 0.40945 0.79585 0.89049 0.0
H1709 H 0.42053 0.74636 0.89913 0.0
S1710 S 0.55565 0.86855 0.93929 0.0
N1711 N 0.5251 0.87861 0.92544 0.0
N1712 N 0.53643 0.82401 0.93627 0.0
C1713 C 0.50329 0.81544 0.92375 0.0
C1714 C 0.49714 0.84496 0.9179 0.0
C1715 C 0.20959 0.63265 0.88694 0.0
C1716 C 0.17569 0.62832 0.89621 0.0
C1717 C 0.23909 0.66685 0.87901 0.0
C1718 C 0.23598 0.69801 0.88054 0.0
H1719 H 0.21302 0.60933 0.88392 0.0
H1720 H 0.26413 0.66877 0.87021 0.0
S1721 S 0.15531 0.70244 0.90869 0.0
N1722 N 0.14211 0.6588 0.91041 0.0
N1723 N 0.19803 0.72333 0.89556 0.0
C1724 C 0.20333 0.69464 0.8924 0.0
C1725 C 0.17302 0.65968 0.90021 0.0
C1726 C 0.33348 0.49363 0.87702 0.0
C1727 C 0.3601 0.52861 0.88728 0.0
C1728 C 0.29742 0.48503 0.87214 0.0
C1729 C 0.28693 0.51092 0.87812 0.0
H1730 H 0.34094 0.47351 0.87087 0.0
H1731 H 0.27787 0.45839 0.86258 0.0
S1732 S 0.34588 0.60494 0.90919 0.0
N1733 N 0.37324 0.58821 0.90608 0.0
N1734 N 0.30541 0.57197 0.89729 0.0
C1735 C 0.31291 0.54521 0.89051 0.0
C1736 C 0.34959 0.55409 0.89498 0.0
C1737 C 0.53654 0.84 0.05178 0.0
C1738 C 0.52548 0.80869 0.03209 0.0
C1739 C 0.51097 0.84791 0.06559 0.0
C1740 C 0.47348 0.82502 0.05984 0.0
H1741 H 0.56503 0.85782 0.05761 0.0
H1742 H 0.52062 0.87182 0.0814 0.0
S1743 S 0.43133 0.74184 0.00648 0.0
N1744 N 0.4752 0.75583 0.00573 0.0
N1745 N 0.42708 0.77131 0.03039 0.0
C1746 C 0.46231 0.79426 0.03909 0.0
C1747 C 0.48833 0.78598 0.02551 0.0
C1748 C 0.20464 0.68026 0.07068 0.0
C1749 C 0.23685 0.71127 0.08149 0.0
C1750 C 0.19538 0.64552 0.08245 0.0
C1751 C 0.2181 0.64059 0.10521 0.0
H1752 H 0.18645 0.6827 0.05286 0.0
H1753 H 0.17089 0.62224 0.07282 0.0
S1754 S 0.3042 0.712 0.14298 0.0
N1755 N 0.29071 0.73422 0.11782 0.0
N1756 N 0.27301 0.66872 0.13932 0.0
C1757 C 0.24981 0.67105 0.11686 0.0
C1758 C 0.25926 0.70645 0.10517 0.0
C1759 C 0.35171 0.53735 0.06513 0.0
C1760 C 0.32621 0.51669 0.09142 0.0
C1761 C 0.38541 0.57049 0.06966 0.0
C1762 C 0.39846 0.58898 0.10108 0.0
H1763 H 0.34522 0.52785 0.03895 0.0
H1764 H 0.40206 0.58239 0.047 0.0
S1765 S 0.34329 0.54989 0.20491 0.0
N1766 N 0.31561 0.51406 0.16267 0.0
N1767 N 0.38455 0.58693 0.17027 0.0
C1768 C 0.3768 0.57319 0.12962 0.0
C1769 C 0.33647 0.53037 0.12501 0.0
C1770 C 0.17286 0.50978 0.46014 0.0
C1771 C 0.20212 0.51964 0.43764 0.0
C1772 C 0.16498 0.53593 0.47207 0.0
C1773 C 0.18569 0.57221 0.46108 0.0
H1774 H 0.15805 0.48254 0.47078 0.0
H1775 H 0.14428 0.52832 0.49163 0.0
S1776 S 0.26146 0.60983 0.39816 0.0
N1777 N 0.24931 0.56657 0.40204 0.0
N1778 N 0.23381 0.6157 0.4235 0.0
C1779 C 0.2127 0.58144 0.436 0.0
C1780 C 0.22117 0.55505 0.42452 0.0
C1781 C 0.53205 0.70608 0.40371 0.0
C1782 C 0.52962 0.73647 0.39338 0.0
C1783 C 0.50087 0.67296 0.41191 0.0
C1784 C 0.46598 0.66872 0.40975 0.0
H1785 H 0.55829 0.70812 0.40667 0.0
H1786 H 0.50413 0.6506 0.42061 0.0
S1787 S 0.44404 0.73854 0.38141 0.0
N1788 N 0.48881 0.75924 0.37953 0.0
N1789 N 0.43046 0.69681 0.39478 0.0
C1790 C 0.4629 0.6982 0.39799 0.0
C1791 C 0.49463 0.73211 0.38992 0.0
C1792 C 0.38837 0.82977 0.47054 0.0
C1793 C 0.40364 0.84225 0.43785 0.0
C1794 C 0.3533 0.82265 0.47839 0.0
C1795 C 0.33178 0.82752 0.45382 0.0
H1796 H 0.40373 0.82541 0.49027 0.0
H1797 H 0.34294 0.81284 0.50398 0.0
S1798 S 0.35898 0.85866 0.36389 0.0
N1799 N 0.39472 0.85868 0.38045 0.0
N1800 N 0.32858 0.84531 0.39502 0.0
C1801 C 0.34692 0.84028 0.42097 0.0
C1802 C 0.38286 0.84763 0.41304 0.0
C1803 C 0.2251 0.60637 0.25487 0.0
C1804 C 0.20238 0.57224 0.2703 0.0
C1805 C 0.25323 0.6118 0.23259 0.0
C1806 C 0.25933 0.58318 0.22537 0.0
H1807 H 0.21905 0.62801 0.25765 0.0
H1808 H 0.26805 0.63737 0.21884 0.0
S1809 S 0.21246 0.49137 0.26544 0.0
N1810 N 0.19124 0.51155 0.28118 0.0
N1811 N 0.24491 0.52173 0.24029 0.0
C1812 C 0.2396 0.55039 0.24402 0.0
C1813 C 0.21089 0.54491 0.26641 0.0
C1814 C 0.45811 0.66366 0.19619 0.0
C1815 C 0.46571 0.65598 0.22957 0.0
C1816 C 0.45882 0.69633 0.18789 0.0
C1817 C 0.46702 0.72332 0.21259 0.0
H1818 H 0.45088 0.64393 0.17615 0.0
H1819 H 0.45182 0.7 0.16204 0.0
S1820 S 0.49293 0.71951 0.30297 0.0
N1821 N 0.48445 0.68027 0.28696 0.0
N1822 N 0.48567 0.74122 0.27157 0.0
C1823 C 0.47579 0.7167 0.24587 0.0
C1824 C 0.47524 0.68338 0.25427 0.0
C1825 C 0.29416 0.81797 0.23944 0.0
C1826 C 0.28272 0.78186 0.24819 0.0
C1827 C 0.32887 0.84589 0.24856 0.0
C1828 C 0.35275 0.8384 0.26701 0.0
H1829 H 0.2766 0.82447 0.22468 0.0
H1830 H 0.33765 0.87333 0.24002 0.0
S1831 S 0.33637 0.74798 0.29345 0.0
N1832 N 0.29809 0.73972 0.27483 0.0
N1833 N 0.36333 0.7925 0.29236 0.0
C1834 C 0.34133 0.8025 0.27641 0.0
C1835 C 0.30621 0.77406 0.26684 0.0
C1836 C 0.38386 0.41352 0.14454 0.0
C1837 C 0.35479 0.37733 0.14111 0.0
C1838 C 0.41902 0.42504 0.13096 0.0
C1839 C 0.42671 0.40093 0.11318 0.0
H1840 H 0.37976 0.43286 0.15883 0.0
H1841 H 0.44065 0.45255 0.13577 0.0
S1842 S 0.3591 0.30484 0.09291 0.0
N1843 N 0.3357 0.31892 0.11514 0.0
N1844 N 0.40086 0.33985 0.09065 0.0
C1845 C 0.39737 0.36525 0.10833 0.0
C1846 C 0.36182 0.35368 0.12195 0.0
C1847 C 0.55516 0.96055 0.1933 0.0
C1848 C 0.5847 0.98939 0.17707 0.0
C1849 C 0.55959 0.937 0.21567 0.0
C1850 C 0.59248 0.93788 0.22059 0.0
H1851 H 0.52867 0.95793 0.19087 0.0
H1852 H 0.53705 0.91911 0.23104 0.0
S1853 S 0.67931 0.00755 0.17927 0.0
N1854 N 0.64944 0.01897 0.16654 0.0
N1855 N 0.65651 0.97086 0.20341 0.0
C1856 C 0.62263 0.96629 0.2026 0.0
C1857 C 0.61882 0.99244 0.18189 0.0
C1858 C 1.00279 0.63568 0.23624 0.0
C1859 C 0.03585 0.65477 0.21834 0.0
C1860 C 0.97926 0.59833 0.23127 0.0
C1861 C 0.98748 0.57865 0.20752 0.0
H1862 H 0.99498 0.64987 0.25406 0.0
H1863 H 0.95398 0.58509 0.24557 0.0
S1864 S 0.07083 0.61681 0.15338 0.0
N1865 N 0.07562 0.65172 0.17564 0.0
N1866 N 0.03188 0.58176 0.1661 0.0
C1867 C 0.02088 0.59758 0.18969 0.0
C1868 C 0.04485 0.63554 0.19504 0.0
C1869 C 0.36439 0.37359 0.25792 0.0
C1870 C 0.36997 0.36078 0.28954 0.0
C1871 C 0.37926 0.41101 0.25099 0.0
C1872 C 0.40081 0.438 0.27518 0.0
H1873 H 0.34878 0.35453 0.23793 0.0
H1874 H 0.37399 0.41878 0.22608 0.0
S1875 S 0.42171 0.41954 0.36304 0.0
N1876 N 0.39717 0.37879 0.34617 0.0
N1877 N 0.42551 0.44865 0.33289 0.0
C1878 C 0.40641 0.42568 0.30703 0.0
C1879 C 0.391 0.38742 0.31422 0.0
C1880 C 0.58504 0.97314 0.29133 0.0
C1881 C 0.57079 0.9925 0.27397 0.0
C1882 C 0.62261 0.98964 0.29939 0.0
C1883 C 0.64737 0.0264 0.2913 0.0
H1884 H 0.56743 0.94479 0.29767 0.0
H1885 H 0.63234 0.97349 0.31202 0.0
S1886 S 0.62353 0.08986 0.24972 0.0
N1887 N 0.58474 0.05094 0.25101 0.0
N1888 N 0.65407 0.08193 0.26735 0.0
C1889 C 0.63307 0.04621 0.27557 0.0
C1890 C 0.59526 0.02933 0.26675 0.0
C1891 C 0.03839 0.66756 0.32047 0.0
C1892 C 1.00136 0.64583 0.32858 0.0
C1893 C 0.06043 0.65231 0.31597 0.0
C1894 C 0.04653 0.61464 0.31961 0.0
H1895 H 0.05013 0.69642 0.31591 0.0
H1896 H 0.08852 0.67034 0.3087 0.0
S1897 S 0.95202 0.5464 0.3444 0.0
N1898 N 0.95214 0.58514 0.34262 0.0
N1899 N 0.9938 0.5564 0.3347 0.0
C1900 C 0.00995 0.5928 0.32954 0.0
C1901 C 0.9873 0.60838 0.33376 0.0
C1902 C 0.606 0.62454 0.86225 0.0
C1903 C 0.57763 0.58806 0.85992 0.0
C1904 C 0.64161 0.63559 0.8511 0.0
C1905 C 0.65054 0.61075 0.8369 0.0
H1906 H 0.60064 0.64499 0.87229 0.0
H1907 H 0.66219 0.664 0.85306 0.0
S1908 S 0.58704 0.51183 0.82715 0.0
N1909 N 0.56181 0.52688 0.84409 0.0
N1910 N 0.62802 0.54761 0.8225 0.0
C1911 C 0.62272 0.57405 0.83545 0.0
C1912 C 0.58656 0.56279 0.84699 0.0
C1913 C 0.41246 0.04131 0.81792 0.0
C1914 C 0.38354 0.02856 0.79419 0.0
C1915 C 0.42769 0.02011 0.8279 0.0
C1916 C 0.4147 0.98509 0.81469 0.0
H1917 H 0.42322 0.0678 0.82942 0.0
H1918 H 0.44959 0.03121 0.84642 0.0
S1919 S 0.33898 0.93829 0.75223 0.0
N1920 N 0.34255 0.9782 0.75793 0.0
N1921 N 0.37064 0.93844 0.77663 0.0
C1922 C 0.38579 0.97196 0.7909 0.0
C1923 C 0.37028 0.99353 0.78083 0.0
C1924 C 0.99615 0.36239 0.86533 0.0
C1925 C 0.96431 0.35147 0.8461 0.0
C1926 C 0.01703 0.39803 0.87726 0.0
C1927 C 1.00665 0.42389 0.87066 0.0
H1928 H 1.00536 0.3434 0.87074 0.0
H1929 H 0.04223 0.40581 0.89059 0.0
S1930 S 0.92542 0.4095 0.82298 0.0
N1931 N 0.92308 0.36967 0.82194 0.0
N1932 N 0.96256 0.43664 0.84476 0.0
C1933 C 0.9745 0.41334 0.85252 0.0
C1934 C 0.95317 0.37705 0.84026 0.0
C1935 C 0.61872 0.61108 0.65374 0.0
C1936 C 0.61015 0.59281 0.68564 0.0
C1937 C 0.63303 0.64906 0.65175 0.0
C1938 C 0.63788 0.66986 0.68144 0.0
H1939 H 0.61547 0.59627 0.63032 0.0
H1940 H 0.64022 0.66222 0.62681 0.0
S1941 S 0.61505 0.63398 0.77036 0.0
N1942 N 0.60608 0.59824 0.7472 0.0
N1943 N 0.63024 0.66841 0.74324 0.0
C1944 C 0.6278 0.65143 0.71314 0.0
C1945 C 0.61471 0.61333 0.71528 0.0
C1946 C 0.37946 0.04171 0.6981 0.0
C1947 C 0.40337 0.02853 0.69178 0.0
C1948 C 0.34206 0.02105 0.69073 0.0
C1949 C 0.32649 0.9861 0.67648 0.0
H1950 H 0.38982 0.0688 0.708 0.0
H1951 H 0.32525 0.03285 0.69588 0.0
S1952 S 0.37644 0.93804 0.65585 0.0
N1953 N 0.40817 0.97763 0.67077 0.0
N1954 N 0.33813 0.93886 0.65705 0.0
C1955 C 0.35002 0.97254 0.66983 0.0
C1956 C 0.38822 0.99362 0.67749 0.0
C1957 C 0.96772 0.35983 0.68477 0.0
C1958 C 0.98021 0.39667 0.67704 0.0
C1959 C 0.99025 0.34495 0.68144 0.0
C1960 C 0.02643 0.36618 0.67039 0.0
H1961 H 0.94021 0.3421 0.69379 0.0
H1962 H 0.97947 0.31673 0.6885 0.0
S1963 S 0.07212 0.46323 0.64434 0.0
N1964 N 0.03089 0.45351 0.65593 0.0
N1965 N 0.07334 0.42543 0.64973 0.0
C1966 C 0.03916 0.40277 0.66163 0.0
C1967 C 0.01604 0.41797 0.6648 0.0
C1968 C 0.05924 0.75054 0.50534 0.0
C1969 C 0.03372 0.71298 0.50373 0.0
C1970 C 0.09652 0.76465 0.49889 0.0
C1971 C 0.11093 0.74207 0.49164 0.0
H1972 H 0.05056 0.76959 0.51193 0.0
H1973 H 0.11428 0.79377 0.49999 0.0
S1974 S 0.05649 0.64192 0.48193 0.0
N1975 N 0.02607 0.65358 0.49162 0.0
N1976 N 0.09619 0.67995 0.48174 0.0
C1977 C 0.08598 0.70445 0.48984 0.0
C1978 C 0.04762 0.69001 0.49551 0.0
C1979 C 0.32081 0.36189 0.47877 0.0
C1980 C 0.29518 0.32553 0.48684 0.0
C1981 C 0.31017 0.38529 0.46395 0.0
C1982 C 0.2734 0.37337 0.45669 0.0
H1983 H 0.3494 0.37231 0.4837 0.0
H1984 H 0.33097 0.4131 0.45866 0.0
S1985 S 0.19542 0.28054 0.47366 0.0
N1986 N 0.23124 0.27898 0.48734 0.0
N1987 N 0.21131 0.32218 0.4589 0.0
C1988 C 0.24753 0.33689 0.46458 0.0
C1989 C 0.25837 0.31324 0.4798 0.0
C1990 C 0.70857 0.93532 0.47354 0.0
C1991 C 0.70642 0.93063 0.43771 0.0
C1992 C 0.72836 0.9698 0.48809 0.0
C1993 C 0.74666 1.00108 0.46742 0.0
H1994 H 0.69314 0.91226 0.4905 0.0
H1995 H 0.72807 0.97215 0.51574 0.0
S1996 S 0.75295 1.0033 0.3723 0.0
N1997 N 0.727 0.95976 0.38194 0.0
N1998 N 0.76422 0.02494 0.40931 0.0
C1999 C 0.74711 0.99662 0.43164 0.0
C2000 C 0.72697 0.96127 0.41676 0.0
C2001 C 1.00581 0.72495 0.60076 0.0
C2002 C 0.04004 0.75135 0.61336 0.0
C2003 C 0.99102 0.68809 0.60878 0.0
C2004 C 0.01051 0.67585 0.62814 0.0
H2005 H 0.99028 0.73264 0.58429 0.0
H2006 H 0.96471 0.66876 0.59864 0.0
S2007 S 0.09652 0.73388 0.67461 0.0
N2008 N 0.08903 0.76287 0.65296 0.0
N2009 N 0.06262 0.69311 0.66496 0.0
C2010 C 0.0433 0.70193 0.64319 0.0
C2011 C 0.05768 0.73975 0.63649 0.0
C2012 C 0.28041 0.29493 0.61971 0.0
C2013 C 0.25764 0.30963 0.62492 0.0
C2014 C 0.31826 0.31601 0.62367 0.0
C2015 C 0.33515 0.35294 0.63218 0.0
H2016 H 0.26901 0.26688 0.61213 0.0
H2017 H 0.33452 0.30354 0.61896 0.0
S2018 S 0.28817 0.40406 0.6517 0.0
N2019 N 0.25495 0.36299 0.64187 0.0
N2020 N 0.32611 0.40275 0.64831 0.0
C2021 C 0.31275 0.36773 0.6387 0.0
C2022 C 0.27406 0.34605 0.63539 0.0
C2023 C 0.66778 0.95354 0.6529 0.0
C2024 C 0.67525 0.9428 0.62127 0.0
C2025 C 0.64637 0.9701 0.65468 0.0
C2026 C 0.6312 0.97621 0.62496 0.0
H2027 H 0.67949 0.95018 0.67635 0.0
H2028 H 0.6416 0.97814 0.67955 0.0
S2029 S 0.6415 0.95191 0.53594 0.0
N2030 N 0.66466 0.93845 0.55967 0.0
N2031 N 0.62509 0.96974 0.56295 0.0
C2032 C 0.63795 0.96494 0.59329 0.0
C2033 C 0.65977 0.94824 0.59147 0.0
C2034 C 0.26777 0.9078 0.15607 0.0
C2035 C 0.25594 0.93326 0.15423 0.0
C2036 C 0.30194 0.91574 0.14328 0.0
C2037 C 0.32617 0.94957 0.12802 0.0
H2038 H 0.25022 0.88108 0.16696 0.0
H2039 H 0.30908 0.89476 0.14489 0.0
S2040 S 0.31047 0.02754 0.12032 0.0
N2041 N 0.27266 0.99489 0.13774 0.0
N2042 N 0.33693 0.01008 0.11495 0.0
C2043 C 0.31527 0.97582 0.1272 0.0
C2044 C 0.28034 0.96766 0.14004 0.0
C2045 C 0.0695 0.36264 0.15949 0.0
C2046 C 0.0344 0.3501 0.1463 0.0
C2047 C 0.0821 0.33873 0.1669 0.0
C2048 C 0.06005 0.3011 0.16178 0.0
H2049 H 0.08724 0.39118 0.16491 0.0
H2050 H 0.10923 0.34993 0.1773 0.0
S2051 S 0.9668 0.25457 0.12534 0.0
N2052 N 0.97858 0.29781 0.12628 0.0
N2053 N 1.00177 0.25263 0.14102 0.0
C2054 C 0.02505 0.2882 0.14801 0.0
C2055 C 0.01236 0.31269 0.14012 0.0
C2056 C 0.64862 0.70027 0.1159 0.0
C2057 C 0.62783 0.66701 0.13323 0.0
C2058 C 0.66592 0.73349 0.13344 0.0
C2059 C 0.66319 0.73532 0.16937 0.0
H2060 H 0.65287 0.70047 0.08862 0.0
H2061 H 0.68253 0.75802 0.11872 0.0
S2062 S 0.60778 0.65652 0.22682 0.0
N2063 N 0.60227 0.63835 0.18837 0.0
N2064 N 0.63504 0.70068 0.22142 0.0
C2065 C 0.64064 0.70248 0.18697 0.0
C2066 C 0.62306 0.66845 0.16898 0.0
C2067 C 0.32977 0.94421 0.00496 0.0
C2068 C 0.29251 0.92013 0.0119 0.0
C2069 C 0.34286 0.98011 -0.00652 0.0
C2070 C 0.31947 0.99409 0.98861 0.0
H2071 H 0.34936 0.93542 0.00865 0.0
H2072 H 0.37181 0.9974 0.98936 0.0
S2073 S 0.21924 0.94221 0.00109 0.0
N2074 N 0.23222 0.91289 0.01153 0.0
N2075 N 0.25663 0.98008 0.99007 0.0
C2076 C 0.28202 0.97016 -0.00526 0.0
C2077 C 0.26863 0.93338 0.00621 0.0
C2078 C 0.09771 0.33555 0.01777 0.0
C2079 C 0.11259 0.37257 0.02547 0.0
C2080 C 0.05991 0.31259 0.013 0.0
C2081 C 0.03552 0.32584 0.01505 0.0
H2082 H 0.11512 0.32388 0.01688 0.0
H2083 H 0.04961 0.28409 0.00811 0.0
S2084 S 0.06073 0.42103 0.03284 0.0
N2085 N 0.09967 0.42152 0.03369 0.0
N2086 N 0.02947 0.37871 0.02444 0.0
C2087 C 0.05028 0.36302 0.02154 0.0
C2088 C 0.08849 0.38621 0.02682 0.0
C2089 C 0.67248 0.68669 0.01777 0.0
C2090 C 0.7061 0.70015 0.03451 0.0
C2091 C 0.65584 0.70778 0.01457 0.0
C2092 C 0.67193 0.74289 0.0283 0.0
H2093 H 0.65884 0.65957 0.00721 0.0
H2094 H 0.62955 0.69602 0.00236 0.0
S2095 S 0.75902 0.79043 0.07546 0.0
N2096 N 0.75464 0.75085 0.06538 0.0
N2097 N 0.72294 0.79018 0.05955 0.0
C2098 C 0.70547 0.75679 0.04501 0.0
C2099 C 0.72269 0.7355 0.04801 0.0
C2100 C 0.74544 0.03237 0.87027 0.0
C2101 C 0.76829 0.06679 0.85554 0.0
C2102 C 0.70907 0.02073 0.87858 0.0
C2103 C 0.69419 0.04323 0.87307 0.0
H2104 H 0.75555 0.01405 0.87506 0.0
H2105 H 0.69255 0.99398 0.88976 0.0
S2106 S 0.74089 0.13432 0.83172 0.0
N2107 N 0.77213 0.12244 0.83376 0.0
N2108 N 0.70412 0.10023 0.84905 0.0
C2109 C 0.71639 0.07734 0.85761 0.0
C2110 C 0.75329 0.08919 0.849 0.0
C2111 C 0.91962 0.63895 0.82948 0.0
C2112 C 0.9276 0.67316 0.84184 0.0
C2113 C 0.93358 0.61878 0.8458 0.0
C2114 C 0.95559 0.63174 0.87547 0.0
H2115 H 0.90371 0.62829 0.80634 0.0
H2116 H 0.92796 0.59338 0.83444 0.0
S2117 S 0.97989 0.717 0.92124 0.0
N2118 N 0.95742 0.71771 0.8871 0.0
N2119 N 0.9801 0.67859 0.91896 0.0
C2120 C 0.96159 0.66467 0.88923 0.0
C2121 C 0.94857 0.68562 0.87216 0.0
C2122 C 0.34231 0.25641 0.81187 0.0
C2123 C 0.30477 0.2415 0.80667 0.0
C2124 C 0.36399 0.29133 0.8254 0.0
C2125 C 0.34968 0.31401 0.8329 0.0
H2126 H 0.35508 0.24059 0.80641 0.0
H2127 H 0.39214 0.30009 0.83065 0.0
S2128 S 0.25458 0.29132 0.81591 0.0
N2129 N 0.25505 0.25406 0.80588 0.0
N2130 N 0.29631 0.32064 0.82829 0.0
C2131 C 0.31272 0.30056 0.82497 0.0
C2132 C 0.29029 0.26435 0.81237 0.0
C2133 C 0.69558 0.02621 0.96251 0.0
C2134 C 0.71825 0.01108 0.96391 0.0
C2135 C 0.70983 0.06385 0.96376 0.0
C2136 C 0.74747 0.08843 0.9666 0.0
H2137 H 0.66656 0.00893 0.95897 0.0
H2138 H 0.69099 0.07377 0.9619 0.0
S2139 S 0.81815 0.06273 0.97719 0.0
N2140 N 0.78005 0.02359 0.97233 0.0
N2141 N 0.80673 0.09438 0.97513 0.0
C2142 C 0.77031 0.07367 0.97034 0.0
C2143 C 0.75578 0.03511 0.96869 0.0
C2144 C 0.94122 0.67575 0.0111 0.0
C2145 C 0.92392 0.63814 0.00606 0.0
C2146 C 0.97921 0.69661 0.01477 0.0
C2147 C 1.0012 0.68058 0.01359 0.0
H2148 H 0.92557 0.68937 0.01036 0.0
H2149 H 0.99162 0.72575 0.01738 0.0
S2150 S 0.96802 0.58238 0.00302 0.0
N2151 N 0.93085 0.58529 0.00169 0.0
N2152 N 1.00204 0.62423 0.0086 0.0
C2153 C 0.98378 0.64265 0.01012 0.0
C2154 C 0.94521 0.62155 0.00622 0.0
C2155 C 0.37675 0.33768 0.94457 0.0
C2156 C 0.33897 0.31803 0.95042 0.0
C2157 C 0.39491 0.32127 0.92953 0.0
C2158 C 0.37648 0.284 0.92149 0.0
H2159 H 0.39223 0.36637 0.95029 0.0
H2160 H 0.42383 0.33786 0.92474 0.0
S2161 S 0.27846 0.21919 0.9361 0.0
N2162 N 0.28427 0.25852 0.94914 0.0
N2163 N 0.3188 0.22741 0.92312 0.0
C2164 C 0.33916 0.26359 0.92908 0.0
C2165 C 0.32039 0.28058 0.94312 0.0
C2166 C 0.97924 0.33094 0.46419 0.0
C2167 C 0.99404 0.30837 0.45898 0.0
C2168 C 0.94461 0.31744 0.47881 0.0
C2169 C 0.92317 0.28071 0.48862 0.0
H2170 H 0.99436 0.35924 0.45649 0.0
H2171 H 0.93434 0.33588 0.48182 0.0
S2172 S 0.95044 0.21085 0.48293 0.0
N2173 N 0.98535 0.24789 0.46673 0.0
N2174 N 0.92009 0.22236 0.49343 0.0
C2175 C 0.93778 0.2579 0.48386 0.0
C2176 C 0.97317 0.27173 0.46921 0.0
C2177 C 0.76484 0.72452 0.45644 0.0
C2178 C 0.72845 0.71704 0.45648 0.0
C2179 C 0.77511 0.70184 0.47357 0.0
C2180 C 0.74926 0.67 0.49039 0.0
H2181 H 0.78543 0.74724 0.44185 0.0
H2182 H 0.80308 0.70824 0.47218 0.0
S2183 S 0.65288 0.64268 0.50633 0.0
N2184 N 0.66853 0.67933 0.48192 0.0
N2185 N 0.6872 0.63552 0.51145 0.0
C2186 C 0.71354 0.66362 0.49295 0.0
C2187 C 0.7033 0.68728 0.4766 0.0
C2188 C 0.28896 0.05111 0.47019 0.0
C2189 C 0.3007 0.02556 0.47192 0.0
C2190 C 0.30979 0.08598 0.48449 0.0
C2191 C 0.34335 0.09658 0.5002 0.0
H2192 H 0.26394 0.04435 0.45713 0.0
H2193 H 0.30023 0.10507 0.48229 0.0
S2194 S 0.38285 0.03766 0.51693 0.0
N2195 N 0.34535 0.0118 0.49522 0.0
N2196 N 0.38496 0.07715 0.52055 0.0
C2197 C 0.35433 0.0706 0.50357 0.0
C2198 C 0.33298 0.03521 0.48972 0.0
C2199 C 1.00186 0.31421 0.33865 0.0
C2200 C 0.98276 0.33288 0.34253 0.0
C2201 C 0.98374 0.27629 0.33693 0.0
C2202 C 0.94553 0.25498 0.33887 0.0
H2203 H 0.03129 0.329 0.33784 0.0
H2204 H 1.00012 0.26349 0.33536 0.0
S2205 S 0.88225 0.29044 0.34475 0.0
N2206 N 0.92303 0.32717 0.34542 0.0
N2207 N 0.88896 0.25569 0.3412 0.0
C2208 C 0.92582 0.27325 0.34015 0.0
C2209 C 0.94441 0.31218 0.34227 0.0
C2210 C 0.74085 0.7015 0.35911 0.0
C2211 C 0.76749 0.7054 0.33523 0.0
C2212 C 0.70359 0.68174 0.3519 0.0
C2213 C 0.69026 0.66587 0.31986 0.0
H2214 H 0.7488 0.71342 0.38427 0.0
H2215 H 0.68468 0.6783 0.37189 0.0
S2216 S 0.74755 0.6672 0.24735 0.0
N2217 N 0.77733 0.69008 0.27783 0.0
N2218 N 0.70696 0.65459 0.26352 0.0
C2219 C 0.71623 0.6688 0.29548 0.0
C2220 C 0.75474 0.68827 0.30326 0.0
C2221 C 0.31137 0.03116 0.36023 0.0
C2222 C 0.32337 0.06748 0.35039 0.0
C2223 C 0.33451 0.01656 0.35962 0.0
C2224 C 0.37115 0.03745 0.34964 0.0
H2225 H 0.28367 0.01353 0.36882 0.0
H2226 H 0.32341 0.98839 0.3669 0.0
S2227 S 0.41672 0.13375 0.3205 0.0
N2228 N 0.37462 0.12359 0.32886 0.0
N2229 N 0.41833 0.0966 0.3289 0.0
C2230 C 0.3835 0.07358 0.33892 0.0
C2231 C 0.35967 0.0884 0.33902 0.0
C2232 C 0.14318 0.32913 0.09588 0.0
C2233 C 0.18142 0.34661 0.0958 0.0
C2234 C 0.1219 0.29143 0.09845 0.0
C2235 C 0.13825 0.2703 0.10334 0.0
H2236 H 0.1294 0.3446 0.09517 0.0
H2237 H 0.09272 0.27947 0.10057 0.0
S2238 S 0.23633 0.30146 0.09479 0.0
N2239 N 0.23416 0.33895 0.09172 0.0
N2240 N 0.194 0.26803 0.09991 0.0
C2241 C 0.17602 0.28677 0.09865 0.0
C2242 C 0.19772 0.32509 0.09451 0.0
C2243 C 0.71009 0.86544 0.08153 0.0
C2244 C 0.67647 0.86387 0.08477 0.0
C2245 C 0.73325 0.8747 0.1096 0.0
C2246 C 0.72281 0.88219 0.14126 0.0
H2247 H 0.71636 0.85481 0.05903 0.0
H2248 H 0.75606 0.87023 0.10773 0.0
S2249 S 0.64909 0.90232 0.15514 0.0
N2250 N 0.64142 0.88454 0.11638 0.0
N2251 N 0.68599 0.90319 0.16946 0.0
C2252 C 0.69424 0.88956 0.14176 0.0
C2253 C 0.6703 0.87953 0.11337 0.0
C2254 C 0.18576 0.87704 0.09334 0.0
C2255 C 0.15143 0.85424 0.10834 0.0
C2256 C 0.21186 0.8668 0.09273 0.0
C2257 C 0.20387 0.83271 0.10515 0.0
H2258 H 0.19402 0.9044 0.08494 0.0
H2259 H 0.23854 0.88596 0.08271 0.0
S2260 S 0.11432 0.75848 0.13531 0.0
N2261 N 0.10817 0.79328 0.12854 0.0
N2262 N 0.15723 0.77308 0.12544 0.0
C2263 C 0.16826 0.80779 0.11573 0.0
C2264 C 0.14182 0.8186 0.11725 0.0
C2265 C 0.37826 0.22286 0.45642 0.0
C2266 C 0.40332 0.21065 0.45902 0.0
C2267 C 0.34462 0.20154 0.44081 0.0
C2268 C 0.33502 0.16737 0.42775 0.0
H2269 H 0.38344 0.24764 0.4689 0.0
H2270 H 0.3253 0.21097 0.44065 0.0
S2271 S 0.39483 0.12811 0.41885 0.0
N2272 N 0.4198 0.16675 0.43915 0.0
N2273 N 0.35529 0.12537 0.4121 0.0
C2274 C 0.36128 0.15681 0.42651 0.0
C2275 C 0.39607 0.17914 0.4412 0.0
C2276 C 0.86972 0.21279 0.41269 0.0
C2277 C 0.85076 0.1747 0.41175 0.0
C2278 C 0.85171 0.2315 0.41992 0.0
C2279 C 0.8147 0.21242 0.42871 0.0
H2280 H 0.89892 0.22836 0.40924 0.0
H2281 H 0.86805 0.26059 0.42342 0.0
S2282 S 0.75144 0.11337 0.42113 0.0
N2283 N 0.79191 0.11905 0.41241 0.0
N2284 N 0.75808 0.15445 0.42794 0.0
C2285 C 0.79456 0.17485 0.42272 0.0
C2286 C 0.81279 0.15577 0.41457 0.0
C2287 C 0.85765 0.66617 0.43586 0.0
C2288 C 0.83642 0.67996 0.42256 0.0
C2289 C 0.84128 0.63058 0.448 0.0
C2290 C 0.80327 0.60821 0.44746 0.0
H2291 H 0.88677 0.68355 0.43882 0.0
H2292 H 0.85813 0.62191 0.46103 0.0
S2293 S 0.73805 0.62779 0.40277 0.0
N2294 N 0.77738 0.66612 0.40085 0.0
N2295 N 0.74642 0.5987 0.42296 0.0
C2296 C 0.7827 0.61983 0.42878 0.0
C2297 C 0.79931 0.6562 0.41695 0.0
C2298 C 0.88887 0.72432 0.90454 0.0
C2299 C 0.86502 0.72965 0.88375 0.0
C2300 C 0.87688 0.691 0.92096 0.0
C2301 C 0.84049 0.66336 0.91846 0.0
H2302 H 0.91758 0.7442 0.90482 0.0
H2303 H 0.89627 0.68639 0.93482 0.0
S2304 S 0.76454 0.67262 0.88467 0.0
N2305 N 0.80151 0.71075 0.87333 0.0
N2306 N 0.77871 0.64828 0.90564 0.0
C2307 C 0.81519 0.67141 0.90441 0.0
C2308 C 0.82749 0.70512 0.88734 0.0
C2309 C 0.30114 0.16442 0.86423 0.0
C2310 C 0.28468 0.12702 0.85827 0.0
C2311 C 0.33832 0.18663 0.85999 0.0
C2312 C 0.36034 0.17197 0.85215 0.0
H2313 H 0.28513 0.17744 0.86742 0.0
H2314 H 0.34955 0.21554 0.86182 0.0
S2315 S 0.33188 0.07444 0.85461 0.0
N2316 N 0.29347 0.07508 0.8567 0.0
N2317 N 0.36485 0.1173 0.85229 0.0
C2318 C 0.34508 0.13416 0.85396 0.0
C2319 C 0.30676 0.11146 0.85665 0.0
C2320 C 0.85233 0.13206 0.90528 0.0
C2321 C 0.8893 0.15247 0.89693 0.0
C2322 C 0.83135 0.14832 0.90674 0.0
C2323 C 0.84724 0.18611 0.90417 0.0
H2324 H 0.8385 0.10281 0.9073 0.0
H2325 H 0.80233 0.13076 0.90951 0.0
S2326 S 0.9457 0.25267 0.89693 0.0
N2327 N 0.94272 0.21269 0.8931 0.0
N2328 N 0.90371 0.24429 0.90259 0.0
C2329 C 0.88525 0.20745 0.90187 0.0
C2330 C 0.90633 0.19045 0.89714 0.0
C2331 C 0.66869 0.80528 0.49648 0.0
C2332 C 0.63626 0.80647 0.49349 0.0
C2333 C 0.69358 0.82456 0.52223 0.0
C2334 C 0.6851 0.84271 0.54684 0.0
H2335 H 0.67729 0.79393 0.47623 0.0
H2336 H 0.71998 0.8266 0.52202 0.0
S2337 S 0.59788 0.84077 0.55859 0.0
N2338 N 0.59282 0.81832 0.52272 0.0
N2339 N 0.63891 0.85266 0.57268 0.0
C2340 C 0.65003 0.8379 0.54808 0.0
C2341 C 0.62521 0.81935 0.52127 0.0
C2342 C 0.22419 0.87902 0.53431 0.0
C2343 C 0.21814 0.84488 0.54539 0.0
C2344 C 0.19626 0.88718 0.53571 0.0
C2345 C 0.16147 0.86093 0.54696 0.0
H2346 H 0.24955 0.89829 0.52198 0.0
H2347 H 0.20125 0.91319 0.52612 0.0
S2348 S 0.13401 0.77082 0.58508 0.0
N2349 N 0.1773 0.78852 0.57571 0.0
N2350 N 0.1238 0.8017 0.5732 0.0
C2351 C 0.1562 0.82828 0.56089 0.0
C2352 C 0.18508 0.82105 0.56186 0.0
C2353 C 0.16782 0.38177 0.52358 0.0
C2354 C 0.20587 0.40363 0.52047 0.0
C2355 C 0.15197 0.34668 0.53726 0.0
C2356 C 0.17374 0.33239 0.5476 0.0
H2357 H 0.15009 0.39083 0.51325 0.0
H2358 H 0.12261 0.33002 0.53802 0.0
S2359 S 0.27445 0.381 0.55203 0.0
N2360 N 0.26477 0.41065 0.53519 0.0
N2361 N 0.23485 0.34403 0.55889 0.0
C2362 C 0.21168 0.35494 0.5475 0.0
C2363 C 0.22781 0.39094 0.5347 0.0
C2364 C 0.98844 0.52731 0.7786 0.0
C2365 C 0.98602 0.49866 0.75919 0.0
C2366 C 0.01849 0.54748 0.79971 0.0
C2367 C 0.04704 0.53995 0.80106 0.0
H2368 H 0.96601 0.53245 0.77923 0.0
H2369 H 0.01797 0.56685 0.81723 0.0
S2370 S 0.05583 0.47217 0.74906 0.0
N2371 N 0.01588 0.46677 0.73855 0.0
N2372 N 0.07331 0.50567 0.77697 0.0
C2373 C 0.04659 0.51419 0.77843 0.0
C2374 C 0.01555 0.49298 0.75793 0.0
C2375 C 0.48707 0.47923 0.78428 0.0
C2376 C 0.5123 0.50185 0.75971 0.0
C2377 C 0.465 0.48997 0.80051 0.0
C2378 C 0.46885 0.52416 0.79329 0.0
H2379 H 0.48542 0.45396 0.79187 0.0
H2380 H 0.44717 0.47274 0.82074 0.0
S2381 S 0.52096 0.58556 0.72151 0.0
N2382 N 0.53171 0.55339 0.72111 0.0
N2383 N 0.49247 0.57552 0.75395 0.0
C2384 C 0.49044 0.54442 0.7655 0.0
C2385 C 0.51198 0.53287 0.74826 0.0
C2386 C 0.48065 0.99415 0.75074 0.0
C2387 C 0.51382 0.02435 0.75994 0.0
C2388 C 0.47286 0.95935 0.75972 0.0
C2389 C 0.49696 0.95408 0.78046 0.0
H2390 H 0.46054 0.99742 0.73663 0.0
H2391 H 0.44639 0.93693 0.75288 0.0
S2392 S 0.59206 0.0239 0.80046 0.0
N2393 N 0.57474 0.04669 0.78185 0.0
N2394 N 0.559 0.98099 0.80157 0.0
C2395 C 0.53199 0.98378 0.78599 0.0
C2396 C 0.54049 0.01917 0.77544 0.0
C2397 C 0.5175 0.06308 0.23671 0.0
C2398 C 0.50808 0.07235 0.20557 0.0
C2399 C 0.4976 0.02692 0.24771 0.0
C2400 C 0.46562 1.00191 0.23046 0.0
H2401 H 0.54398 0.08071 0.24772 0.0
H2402 H 0.50819 0.01843 0.2686 0.0
S2403 S 0.41561 0.02715 0.1694 0.0
N2404 N 0.4558 0.06428 0.17332 0.0
N2405 N 0.41623 0.99602 0.19454 0.0
C2406 C 0.45003 0.01581 0.20792 0.0
C2407 C 0.47102 0.05267 0.19706 0.0
C2408 C 1.00143 0.51554 0.26465 0.0
C2409 C 0.02351 0.50162 0.25451 0.0
C2410 C 0.96398 0.49355 0.2657 0.0
C2411 C 0.94749 0.45817 0.25272 0.0
H2412 H 0.01296 0.54394 0.27075 0.0
H2413 H 0.94818 0.5061 0.27226 0.0
S2414 S 0.9935 0.40603 0.23456 0.0
N2415 N 0.02698 0.44784 0.24161 0.0
N2416 N 0.95543 0.40707 0.23882 0.0
C2417 C 0.96915 0.44247 0.24718 0.0
C2418 C 0.00761 0.46441 0.2484 0.0
C2419 C 0.52914 0.48256 0.20904 0.0
C2420 C 0.53373 0.48388 0.17334 0.0
C2421 C 0.51777 0.50465 0.2247 0.0
C2422 C 0.51109 0.52822 0.20473 0.0
H2423 H 0.53288 0.46352 0.22453 0.0
H2424 H 0.51148 0.50128 0.25189 0.0
S2425 S 0.51404 0.53849 0.11142 0.0
N2426 N 0.52832 0.50971 0.1194 0.0
N2427 N 0.5078 0.55097 0.14926 0.0
C2428 C 0.51701 0.53096 0.16986 0.0
C2429 C 0.52799 0.50857 0.15397 0.0
C2430 C 0.98749 0.20618 0.27661 0.0
C2431 C 0.98066 0.17662 0.29802 0.0
C2432 C 0.02256 0.22989 0.26365 0.0
C2433 C 0.05194 0.22496 0.27189 0.0
H2434 H 0.96541 0.21022 0.26867 0.0
H2435 H 0.02586 0.24974 0.24435 0.0
S2436 S 0.04966 0.15412 0.32865 0.0
N2437 N 0.00733 0.14555 0.32837 0.0
N2438 N 0.07284 0.19084 0.3048 0.0
C2439 C 0.04613 0.19784 0.29574 0.0
C2440 C 0.01056 0.1732 0.30826 0.0
C2441 C 0.82959 0.78645 0.28359 0.0
C2442 C 0.85097 0.81327 0.30776 0.0
C2443 C 0.79541 0.78003 0.2743 0.0
C2444 C 0.78153 0.80111 0.28744 0.0
H2445 H 0.83845 0.76898 0.27254 0.0
H2446 H 0.77996 0.75861 0.25606 0.0
S2447 S 0.82933 0.87946 0.3458 0.0
N2448 N 0.85784 0.86426 0.3411 0.0
N2449 N 0.7931 0.85243 0.32305 0.0
C2450 C 0.80315 0.82926 0.31027 0.0
C2451 C 0.83816 0.83561 0.32013 0.0
C2452 C 0.22873 0.02557 0.28147 0.0
C2453 C 0.20446 0.03311 0.29912 0.0
C2454 C 0.21625 0.99264 0.26422 0.0
C2455 C 0.17915 0.96641 0.26397 0.0
H2456 H 0.25753 0.04531 0.28077 0.0
H2457 H 0.23536 0.98868 0.24923 0.0
S2458 S 0.10474 0.97214 0.30698 0.0
N2459 N 0.1418 0.0108 0.31636 0.0
N2460 N 0.11842 0.94938 0.28318 0.0
C2461 C 0.15484 0.9731 0.2823 0.0
C2462 C 0.16747 0.00635 0.30009 0.0
C2463 C 0.97785 0.76358 0.6972 0.0
C2464 C 0.94289 0.75915 0.69849 0.0
C2465 C 1.00496 0.78978 0.67624 0.0
C2466 C 0.99844 0.8125 0.65473 0.0
H2467 H 0.98492 0.74748 0.71362 0.0
H2468 H 0.0314 0.79195 0.67692 0.0
S2469 S 0.91079 0.81042 0.64606 0.0
N2470 N 0.90256 0.77888 0.67529 0.0
N2471 N 0.95361 0.82734 0.63418 0.0
C2472 C 0.96309 0.80725 0.65413 0.0
C2473 C 0.9353 0.78075 0.67633 0.0
C2474 C 0.20616 0.21618 0.68362 0.0
C2475 C 0.17514 0.19256 0.66443 0.0
C2476 C 0.22755 0.20384 0.6992 0.0
C2477 C 0.21842 0.1675 0.69625 0.0
H2478 H 0.2135 0.24418 0.68751 0.0
H2479 H 0.24919 0.22192 0.71627 0.0
S2480 S 0.14287 0.09593 0.64578 0.0
N2481 N 0.13878 0.13212 0.64049 0.0
N2482 N 0.17879 0.10888 0.67052 0.0
C2483 C 0.18927 0.14439 0.6751 0.0
C2484 C 0.16756 0.15689 0.65909 0.0
C2485 C 0.83043 0.05494 0.70923 0.0
C2486 C 0.81631 0.04567 0.74252 0.0
C2487 C 0.81811 0.02845 0.68384 0.0
C2488 C 0.79183 0.99219 0.6915 0.0
H2489 H 0.85295 0.08187 0.70354 0.0
H2490 H 0.83063 0.03597 0.65865 0.0
S2491 S 0.74259 0.95662 0.77381 0.0
N2492 N 0.77199 0.99984 0.78112 0.0
N2493 N 0.74863 0.94971 0.7333 0.0
C2494 C 0.77564 0.98346 0.72408 0.0
C2495 C 0.78791 0.01045 0.74968 0.0
C2496 C 0.66346 0.55481 0.63163 0.0
C2497 C 0.66151 0.52339 0.64549 0.0
C2498 C 0.69602 0.58366 0.61933 0.0
C2499 C 0.72802 0.58183 0.61862 0.0
H2500 H 0.63932 0.55686 0.62912 0.0
H2501 H 0.69526 0.60617 0.60711 0.0
S2502 S 0.73917 0.50813 0.65629 0.0
N2503 N 0.69572 0.49434 0.66241 0.0
N2504 N 0.75702 0.54796 0.63669 0.0
C2505 C 0.72743 0.55193 0.63472 0.0
C2506 C 0.69409 0.52273 0.64849 0.0
C2507 C 0.47093 0.17299 0.65674 0.0
C2508 C 0.46841 0.13933 0.64999 0.0
C2509 C 0.44339 0.17992 0.6462 0.0
C2510 C 0.41197 0.1528 0.63001 0.0
H2511 H 0.49533 0.19484 0.66813 0.0
H2512 H 0.4484 0.20743 0.64752 0.0
S2513 S 0.3893 0.05882 0.61106 0.0
N2514 N 0.43042 0.07816 0.62772 0.0
N2515 N 0.37711 0.08978 0.61293 0.0
C2516 C 0.40697 0.11772 0.62785 0.0
C2517 C 0.43583 0.11144 0.63596 0.0
C2518 C 0.83044 0.32346 0.64502 0.0
C2519 C 0.86459 0.3531 0.63614 0.0
C2520 C 0.81959 0.28869 0.63309 0.0
C2521 C 0.84255 0.28246 0.61197 0.0
H2522 H 0.81109 0.32744 0.65958 0.0
H2523 H 0.79163 0.26744 0.63717 0.0
S2524 S 0.93751 0.3488 0.58782 0.0
N2525 N 0.92355 0.37259 0.60958 0.0
N2526 N 0.9029 0.30674 0.58782 0.0
C2527 C 0.87827 0.31069 0.6066 0.0
C2528 C 0.88923 0.34634 0.61813 0.0
C2529 C 0.67297 0.15282 0.01918 0.0
C2530 C 0.70639 0.15396 0.02367 0.0
C2531 C 0.6407 0.12497 0.03391 0.0
C2532 C 0.64067 0.09712 0.0534 0.0
H2533 H 0.67174 0.17378 0.00443 0.0
H2534 H 0.61599 0.12609 0.03114 0.0
S2535 S 0.71955 0.08494 0.07003 0.0
N2536 N 0.73644 0.12284 0.04734 0.0
N2537 N 0.6759 0.07077 0.07453 0.0
C2538 C 0.67346 0.09716 0.05706 0.0
C2539 C 0.70628 0.12552 0.04242 0.0
C2540 C 0.86233 0.52449 0.10151 0.0
C2541 C 0.87794 0.50304 0.09393 0.0
C2542 C 0.84018 0.52872 0.07809 0.0
C2543 C 0.83364 0.51249 0.04585 0.0
H2544 H 0.86741 0.53863 0.12568 0.0
H2545 H 0.83035 0.54698 0.08443 0.0
S2546 S 0.86501 0.45123 0.01398 0.0
N2547 N 0.88262 0.46281 0.05281 0.0
N2548 N 0.84184 0.47224 0.0078 0.0
C2549 C 0.84765 0.48977 0.0382 0.0
C2550 C 0.86982 0.48486 0.06241 0.0
C2551 C 0.53642 0.37074 0.98619 0.0
C2552 C 0.51205 0.37128 0.01001 0.0
C2553 C 0.52422 0.34305 0.96179 0.0
C2554 C 0.48777 0.3148 0.96179 0.0
H2555 H 0.56502 0.39111 0.9871 0.0
H2556 H 0.54349 0.34309 0.94366 0.0
S2557 S 0.41368 0.30593 0.01844 0.0
N2558 N 0.45027 0.34329 0.03127 0.0
N2559 N 0.42733 0.29031 0.9867 0.0
C2560 C 0.46326 0.31577 0.9853 0.0
C2561 C 0.47547 0.34434 0.00919 0.0
C2562 C 0.35068 0.89266 0.93596 0.0
C2563 C 0.38454 0.89488 0.93808 0.0
C2564 C 0.32092 0.86597 0.95388 0.0
C2565 C 0.32411 0.8408 0.97492 0.0
H2566 H 0.34667 0.91039 0.91872 0.0
H2567 H 0.29524 0.86515 0.95095 0.0
S2568 S 0.40784 0.83664 0.99038 0.0
N2569 N 0.42049 0.87113 0.9636 0.0
N2570 N 0.36428 0.82083 -0.00188 0.0
C2571 C 0.35836 0.84386 0.97858 0.0
C2572 C 0.38877 0.87117 0.96016 0.0
C2573 C 0.16084 0.46056 0.97435 0.0
C2574 C 0.18859 0.4875 -0.00545 0.0
C2575 C 0.13306 0.46503 0.96086 0.0
C2576 C 0.13208 0.49714 0.96586 0.0
H2577 H 0.16012 0.43535 0.96893 0.0
H2578 H 0.11287 0.44348 0.94501 0.0
S2579 S 0.19816 0.57643 0.01649 0.0
N2580 N 0.21283 0.54732 0.0198 0.0
N2581 N 0.16114 0.55647 -0.00737 0.0
C2582 C 0.15909 0.52419 0.98654 0.0
C2583 C 0.18729 0.51929 0.00109 0.0
C2584 C 0.54145 0.63043 0.95461 0.0
C2585 C 0.50397 0.61147 0.96179 0.0
C2586 C 0.56222 0.66813 0.95936 0.0
C2587 C 0.54603 0.68768 0.97129 0.0
H2588 H 0.55435 0.61654 0.94354 0.0
H2589 H 0.59111 0.68197 0.95411 0.0
S2590 S 0.45006 0.65008 -0.00272 0.0
N2591 N 0.45232 0.61463 0.98388 0.0
N2592 N 0.49152 0.68525 -0.00709 0.0
C2593 C 0.50907 0.66879 0.97978 0.0
C2594 C 0.48812 0.6307 0.97538 0.0
C2595 C 0.31307 0.4653 0.34134 0.0
C2596 C 0.28962 0.47934 0.3433 0.0
C2597 C 0.34704 0.48524 0.32536 0.0
C2598 C 0.35815 0.51941 0.31051 0.0
H2599 H 0.30633 0.44014 0.35436 0.0
H2600 H 0.36483 0.47397 0.32486 0.0
S2601 S 0.30603 0.56724 0.30786 0.0
N2602 N 0.27938 0.52893 0.32866 0.0
N2603 N 0.34274 0.56568 0.29732 0.0
C2604 C 0.33422 0.53284 0.31077 0.0
C2605 C 0.29998 0.5129 0.32747 0.0
C2606 C 0.52844 0.86135 0.3316 0.0
C2607 C 0.52024 0.86583 0.2985 0.0
C2608 C 0.55869 0.85916 0.34037 0.0
C2609 C 0.58793 0.86464 0.31888 0.0
H2610 H 0.51024 0.85899 0.35223 0.0
H2611 H 0.55865 0.85293 0.36697 0.0
S2612 S 0.57001 0.86621 0.19715 0.0
N2613 N 0.53511 0.86501 0.23214 0.0
N2614 N 0.60691 0.86885 0.2325 0.0
C2615 C 0.58418 0.86843 0.28188 0.0
C2616 C 0.54333 0.86662 0.27193 0.0
C2617 C 0.15738 0.69983 0.38939 0.0
C2618 C 0.19486 0.72335 0.39314 0.0
C2619 C 0.14424 0.66739 0.37136 0.0
C2620 C 0.16826 0.65803 0.35611 0.0
H2621 H 0.13818 0.7055 0.40211 0.0
H2622 H 0.11512 0.64951 0.36934 0.0
S2623 S 0.26857 0.7108 0.35839 0.0
N2624 N 0.25575 0.73535 0.38049 0.0
N2625 N 0.23082 0.6749 0.34499 0.0
C2626 C 0.20569 0.6819 0.35862 0.0
C2627 C 0.21907 0.71449 0.37762 0.0
loop_
_geom_bond_atom_site_label_1
_geom_bond_atom_site_label_2
_geom_bond_distance
_geom_bond_site_symmetry_2
_ccdc_geom_bond_type
Tb0 C9 2.764 . S
Tb0 O10 2.325 . S
Tb0 O13 2.303 . S
Tb0 O17 2.322 . S
Tb0 O18 2.349 . S
Tb0 O21 2.415 . S
Tb0 O22 2.399 . S
Tb1 O11 2.322 . S
Tb1 O12 2.349 . S
Tb1 O14 2.415 . S
Tb1 O15 2.399 . S
Tb1 O16 2.325 . S
Tb1 O19 2.303 . S
Tb1 C30 2.764 . S
C2 O18 1.261 . S
C2 O19 1.257 . S
C3 C6 1.358 . S
C3 C7 1.332 . S
C3 C9 1.504 . S
C4 C5 1.373 . S
C4 C8 1.308 . S
C5 C4 1.373 . S
C5 C6 1.429 . S
C5 H32 0.932 . S
C6 C3 1.358 . S
C6 C5 1.429 . S
C6 H33 0.930 . S
C7 C3 1.332 . S
C7 C8 1.394 . S
C7 H34 0.932 . S
C8 C4 1.308 . S
C8 C7 1.394 . S
C8 H35 0.929 . S
C9 Tb0 2.764 . S
C9 C3 1.504 . S
C9 O21 1.239 . S
C9 O22 1.263 . S
O10 Tb0 2.325 . S
O10 C20 1.236 . S
O11 Tb1 2.322 . S
O11 C20 1.257 . S
O12 Tb1 2.349 . S
O12 C23 1.261 . S
O13 Tb0 2.303 . S
O13 C23 1.257 . S
O14 Tb1 2.415 . S
O14 C30 1.239 . S
O15 Tb1 2.399 . S
O15 C30 1.263 . S
O16 Tb1 2.325 . S
O16 C31 1.236 . S
O17 Tb0 2.322 . S
O17 C31 1.257 . S
O18 Tb0 2.349 . S
O18 C2 1.261 . S
O19 Tb1 2.303 . S
O19 C2 1.257 . S
C20 O10 1.236 . S
C20 O11 1.257 . S
O21 Tb0 2.415 . S
O21 C9 1.239 . S
O22 Tb0 2.399 . S
O22 C9 1.263 . S
C23 O12 1.261 . S
C23 O13 1.257 . S
C24 C27 1.358 . S
C24 C28 1.332 . S
C24 C30 1.504 1_655 S
C25 C26 1.373 . S
C25 C29 1.308 . S
C26 C25 1.373 . S
C26 C27 1.429 . S
C26 H36 0.932 . S
C27 C24 1.358 . S
C27 C26 1.429 . S
C27 H37 0.930 . S
C28 C24 1.332 . S
C28 C29 1.394 . S
C28 H38 0.932 . S
C29 C25 1.308 . S
C29 C28 1.394 . S
C29 H39 0.929 . S
C30 Tb1 2.764 . S
C30 O14 1.239 . S
C30 O15 1.263 . S
C30 C24 1.504 1_455 S
C31 O16 1.236 . S
C31 O17 1.257 . S
H32 C5 0.932 . S
H33 C6 0.930 . S
H34 C7 0.932 . S
H35 C8 0.929 . S
H36 C26 0.932 . S
H37 C27 0.930 . S
H38 C28 0.932 . S
H39 C29 0.929 . S
Tb40 C49 2.764 . S
Tb40 O50 2.325 . S
Tb40 O53 2.303 . S
Tb40 O57 2.322 . S
Tb40 O58 2.349 . S
Tb40 O61 2.415 . S
Tb40 O62 2.399 . S
Tb41 O51 2.322 . S
Tb41 O52 2.349 . S
Tb41 O54 2.415 . S
Tb41 O55 2.399 . S
Tb41 O56 2.325 . S
Tb41 O59 2.303 . S
Tb41 C70 2.764 . S
C42 O58 1.261 . S
C42 O59 1.257 . S
C43 C46 1.358 . S
C43 C47 1.332 . S
C43 C49 1.504 . S
C44 C45 1.373 . S
C44 C48 1.308 . S
C45 C44 1.373 . S
C45 C46 1.429 . S
C45 H72 0.932 . S
C46 C43 1.358 . S
C46 C45 1.429 . S
C46 H73 0.930 . S
C47 C43 1.332 . S
C47 C48 1.394 . S
C47 H74 0.932 . S
C48 C44 1.308 . S
C48 C47 1.394 . S
C48 H75 0.929 . S
C49 Tb40 2.764 . S
C49 C43 1.504 . S
C49 O61 1.239 . S
C49 O62 1.263 . S
O50 Tb40 2.325 . S
O50 C60 1.236 . S
O51 Tb41 2.322 . S
O51 C60 1.257 . S
O52 Tb41 2.349 . S
O52 C63 1.261 . S
O53 Tb40 2.303 . S
O53 C63 1.257 . S
O54 Tb41 2.415 . S
O54 C70 1.239 . S
O55 Tb41 2.399 . S
O55 C70 1.263 . S
O56 Tb41 2.325 . S
O56 C71 1.236 . S
O57 Tb40 2.322 . S
O57 C71 1.257 . S
O58 Tb40 2.349 . S
O58 C42 1.261 . S
O59 Tb41 2.303 . S
O59 C42 1.257 . S
C60 O50 1.236 . S
C60 O51 1.257 . S
O61 Tb40 2.415 . S
O61 C49 1.239 . S
O62 Tb40 2.399 . S
O62 C49 1.263 . S
C63 O52 1.261 . S
C63 O53 1.257 . S
C64 C67 1.358 . S
C64 C68 1.332 . S
C64 C70 1.504 . S
C65 C66 1.373 . S
C65 C69 1.308 . S
C66 C65 1.373 . S
C66 C67 1.429 . S
C66 H76 0.932 . S
C67 C64 1.358 . S
C67 C66 1.429 . S
C67 H77 0.930 . S
C68 C64 1.332 . S
C68 C69 1.394 . S
C68 H78 0.932 . S
C69 C65 1.308 . S
C69 C68 1.394 . S
C69 H79 0.929 . S
C70 Tb41 2.764 . S
C70 O54 1.239 . S
C70 O55 1.263 . S
C70 C64 1.504 . S
C71 O56 1.236 . S
C71 O57 1.257 . S
H72 C45 0.932 . S
H73 C46 0.930 . S
H74 C47 0.932 . S
H75 C48 0.929 . S
H76 C66 0.932 . S
H77 C67 0.930 . S
H78 C68 0.932 . S
H79 C69 0.929 . S
Tb80 C89 2.764 . S
Tb80 O90 2.325 . S
Tb80 O93 2.303 . S
Tb80 O97 2.322 . S
Tb80 O98 2.349 . S
Tb80 O101 2.415 . S
Tb80 O102 2.399 . S
Tb81 O91 2.322 . S
Tb81 O92 2.349 . S
Tb81 O94 2.415 . S
Tb81 O95 2.399 . S
Tb81 O96 2.325 . S
Tb81 O99 2.303 . S
Tb81 C110 2.764 . S
C82 O98 1.261 . S
C82 O99 1.257 . S
C83 C86 1.358 . S
C83 C87 1.332 . S
C83 C89 1.504 . S
C84 C85 1.373 . S
C84 C88 1.308 . S
C85 C84 1.373 . S
C85 C86 1.429 . S
C85 H112 0.932 . S
C86 C83 1.358 . S
C86 C85 1.429 . S
C86 H113 0.930 . S
C87 C83 1.332 . S
C87 C88 1.394 . S
C87 H114 0.932 . S
C88 C84 1.308 . S
C88 C87 1.394 . S
C88 H115 0.929 . S
C89 Tb80 2.764 . S
C89 C83 1.504 . S
C89 O101 1.239 . S
C89 O102 1.263 . S
O90 Tb80 2.325 . S
O90 C100 1.236 . S
O91 Tb81 2.322 . S
O91 C100 1.257 . S
O92 Tb81 2.349 . S
O92 C103 1.261 . S
O93 Tb80 2.303 . S
O93 C103 1.257 . S
O94 Tb81 2.415 . S
O94 C110 1.239 . S
O95 Tb81 2.399 . S
O95 C110 1.263 . S
O96 Tb81 2.325 . S
O96 C111 1.236 . S
O97 Tb80 2.322 . S
O97 C111 1.257 . S
O98 Tb80 2.349 . S
O98 C82 1.261 . S
O99 Tb81 2.303 . S
O99 C82 1.257 . S
C100 O90 1.236 . S
C100 O91 1.257 . S
O101 Tb80 2.415 . S
O101 C89 1.239 . S
O102 Tb80 2.399 . S
O102 C89 1.263 . S
C103 O92 1.261 . S
C103 O93 1.257 . S
C104 C107 1.358 . S
C104 C108 1.332 . S
C104 C110 1.504 1_545 S
C105 C106 1.373 . S
C105 C109 1.308 . S
C106 C105 1.373 . S
C106 C107 1.429 . S
C106 H116 0.932 . S
C107 C104 1.358 . S
C107 C106 1.429 . S
C107 H117 0.930 . S
C108 C104 1.332 . S
C108 C109 1.394 . S
C108 H118 0.932 . S
C109 C105 1.308 . S
C109 C108 1.394 . S
C109 H119 0.929 . S
C110 Tb81 2.764 . S
C110 O94 1.239 . S
C110 O95 1.263 . S
C110 C104 1.504 1_565 S
C111 O96 1.236 . S
C111 O97 1.257 . S
H112 C85 0.932 . S
H113 C86 0.930 . S
H114 C87 0.932 . S
H115 C88 0.929 . S
H116 C106 0.932 . S
H117 C107 0.930 . S
H118 C108 0.932 . S
H119 C109 0.929 . S
Tb120 C129 2.764 . S
Tb120 O130 2.325 . S
Tb120 O133 2.303 . S
Tb120 O137 2.322 . S
Tb120 O138 2.349 . S
Tb120 O141 2.415 . S
Tb120 O142 2.399 . S
Tb121 O131 2.322 . S
Tb121 O132 2.349 . S
Tb121 O134 2.415 . S
Tb121 O135 2.399 . S
Tb121 O136 2.325 . S
Tb121 O139 2.303 . S
Tb121 C150 2.764 . S
C122 O138 1.261 . S
C122 O139 1.257 . S
C123 C126 1.358 . S
C123 C127 1.332 . S
C123 C129 1.504 . S
C124 C125 1.373 . S
C124 C128 1.308 . S
C125 C124 1.373 . S
C125 C126 1.429 . S
C125 H152 0.932 . S
C126 C123 1.358 . S
C126 C125 1.429 . S
C126 H153 0.930 . S
C127 C123 1.332 . S
C127 C128 1.394 . S
C127 H154 0.932 . S
C128 C124 1.308 . S
C128 C127 1.394 . S
C128 H155 0.929 . S
C129 Tb120 2.764 . S
C129 C123 1.504 . S
C129 O141 1.239 . S
C129 O142 1.263 . S
O130 Tb120 2.325 . S
O130 C140 1.236 . S
O131 Tb121 2.322 . S
O131 C140 1.257 . S
O132 Tb121 2.349 . S
O132 C143 1.261 . S
O133 Tb120 2.303 . S
O133 C143 1.257 . S
O134 Tb121 2.415 . S
O134 C150 1.239 . S
O135 Tb121 2.399 . S
O135 C150 1.263 . S
O136 Tb121 2.325 . S
O136 C151 1.236 . S
O137 Tb120 2.322 . S
O137 C151 1.257 . S
O138 Tb120 2.349 . S
O138 C122 1.261 . S
O139 Tb121 2.303 . S
O139 C122 1.257 . S
C140 O130 1.236 . S
C140 O131 1.257 . S
O141 Tb120 2.415 . S
O141 C129 1.239 . S
O142 Tb120 2.399 . S
O142 C129 1.263 . S
C143 O132 1.261 . S
C143 O133 1.257 . S
C144 C147 1.358 . S
C144 C148 1.332 . S
C144 C150 1.504 1_565 S
C145 C146 1.373 . S
C145 C149 1.308 . S
C146 C145 1.373 . S
C146 C147 1.429 . S
C146 H156 0.932 . S
C147 C144 1.358 . S
C147 C146 1.429 . S
C147 H157 0.930 . S
C148 C144 1.332 . S
C148 C149 1.394 . S
C148 H158 0.932 . S
C149 C145 1.308 . S
C149 C148 1.394 . S
C149 H159 0.929 . S
C150 Tb121 2.764 . S
C150 O134 1.239 . S
C150 O135 1.263 . S
C150 C144 1.504 1_545 S
C151 O136 1.236 . S
C151 O137 1.257 . S
H152 C125 0.932 . S
H153 C126 0.930 . S
H154 C127 0.932 . S
H155 C128 0.929 . S
H156 C146 0.932 . S
H157 C147 0.930 . S
H158 C148 0.932 . S
H159 C149 0.929 . S
Tb160 C169 2.764 . S
Tb160 O170 2.325 . S
Tb160 O173 2.303 . S
Tb160 O177 2.322 . S
Tb160 O178 2.349 . S
Tb160 O181 2.415 . S
Tb160 O182 2.399 . S
Tb161 O171 2.322 . S
Tb161 O172 2.349 . S
Tb161 O174 2.415 . S
Tb161 O175 2.399 . S
Tb161 O176 2.325 . S
Tb161 O179 2.303 . S
Tb161 C190 2.764 . S
C162 O178 1.261 . S
C162 O179 1.257 . S
C163 C166 1.358 . S
C163 C167 1.332 . S
C163 C169 1.504 . S
C164 C165 1.373 . S
C164 C168 1.308 . S
C165 C164 1.373 . S
C165 C166 1.429 . S
C165 H192 0.932 . S
C166 C163 1.358 . S
C166 C165 1.429 . S
C166 H193 0.930 . S
C167 C163 1.332 . S
C167 C168 1.394 . S
C167 H194 0.932 . S
C168 C164 1.308 . S
C168 C167 1.394 . S
C168 H195 0.929 . S
C169 Tb160 2.764 . S
C169 C163 1.504 . S
C169 O181 1.239 . S
C169 O182 1.263 . S
O170 Tb160 2.325 . S
O170 C180 1.236 . S
O171 Tb161 2.322 . S
O171 C180 1.257 . S
O172 Tb161 2.349 . S
O172 C183 1.261 . S
O173 Tb160 2.303 . S
O173 C183 1.257 . S
O174 Tb161 2.415 . S
O174 C190 1.239 . S
O175 Tb161 2.399 . S
O175 C190 1.263 . S
O176 Tb161 2.325 . S
O176 C191 1.236 . S
O177 Tb160 2.322 . S
O177 C191 1.257 . S
O178 Tb160 2.349 . S
O178 C162 1.261 . S
O179 Tb161 2.303 . S
O179 C162 1.257 . S
C180 O170 1.236 . S
C180 O171 1.257 . S
O181 Tb160 2.415 . S
O181 C169 1.239 . S
O182 Tb160 2.399 . S
O182 C169 1.263 . S
C183 O172 1.261 . S
C183 O173 1.257 . S
C184 C187 1.358 . S
C184 C188 1.332 . S
C184 C190 1.504 1_455 S
C185 C186 1.373 . S
C185 C189 1.308 . S
C186 C185 1.373 . S
C186 C187 1.429 . S
C186 H196 0.932 . S
C187 C184 1.358 . S
C187 C186 1.429 . S
C187 H197 0.930 . S
C188 C184 1.332 . S
C188 C189 1.394 . S
C188 H198 0.932 . S
C189 C185 1.308 . S
C189 C188 1.394 . S
C189 H199 0.929 . S
C190 Tb161 2.764 . S
C190 O174 1.239 . S
C190 O175 1.263 . S
C190 C184 1.504 1_655 S
C191 O176 1.236 . S
C191 O177 1.257 . S
H192 C165 0.932 . S
H193 C166 0.930 . S
H194 C167 0.932 . S
H195 C168 0.929 . S
H196 C186 0.932 . S
H197 C187 0.930 . S
H198 C188 0.932 . S
H199 C189 0.929 . S
Tb200 C209 2.764 . S
Tb200 O210 2.325 . S
Tb200 O213 2.303 . S
Tb200 O217 2.322 . S
Tb200 O218 2.349 . S
Tb200 O221 2.415 . S
Tb200 O222 2.399 . S
Tb201 O211 2.322 . S
Tb201 O212 2.349 . S
Tb201 O214 2.415 . S
Tb201 O215 2.399 . S
Tb201 O216 2.325 . S
Tb201 O219 2.303 . S
Tb201 C230 2.764 . S
C202 O218 1.261 . S
C202 O219 1.257 . S
C203 C206 1.358 . S
C203 C207 1.332 . S
C203 C209 1.504 . S
C204 C205 1.373 . S
C204 C208 1.308 . S
C205 C204 1.373 . S
C205 C206 1.429 . S
C205 H232 0.932 . S
C206 C203 1.358 . S
C206 C205 1.429 . S
C206 H233 0.930 . S
C207 C203 1.332 . S
C207 C208 1.394 . S
C207 H234 0.932 . S
C208 C204 1.308 . S
C208 C207 1.394 . S
C208 H235 0.929 . S
C209 Tb200 2.764 . S
C209 C203 1.504 . S
C209 O221 1.239 . S
C209 O222 1.263 . S
O210 Tb200 2.325 . S
O210 C220 1.236 . S
O211 Tb201 2.322 . S
O211 C220 1.257 . S
O212 Tb201 2.349 . S
O212 C223 1.261 . S
O213 Tb200 2.303 . S
O213 C223 1.257 . S
O214 Tb201 2.415 . S
O214 C230 1.239 . S
O215 Tb201 2.399 . S
O215 C230 1.263 . S
O216 Tb201 2.325 . S
O216 C231 1.236 . S
O217 Tb200 2.322 . S
O217 C231 1.257 . S
O218 Tb200 2.349 . S
O218 C202 1.261 . S
O219 Tb201 2.303 . S
O219 C202 1.257 . S
C220 O210 1.236 . S
C220 O211 1.257 . S
O221 Tb200 2.415 . S
O221 C209 1.239 . S
O222 Tb200 2.399 . S
O222 C209 1.263 . S
C223 O212 1.261 . S
C223 O213 1.257 . S
C224 C227 1.358 . S
C224 C228 1.332 . S
C224 C230 1.504 . S
C225 C226 1.373 . S
C225 C229 1.308 . S
C226 C225 1.373 . S
C226 C227 1.429 . S
C226 H236 0.932 . S
C227 C224 1.358 . S
C227 C226 1.429 . S
C227 H237 0.930 . S
C228 C224 1.332 . S
C228 C229 1.394 . S
C228 H238 0.932 . S
C229 C225 1.308 . S
C229 C228 1.394 . S
C229 H239 0.929 . S
C230 Tb201 2.764 . S
C230 O214 1.239 . S
C230 O215 1.263 . S
C230 C224 1.504 . S
C231 O216 1.236 . S
C231 O217 1.257 . S
H232 C205 0.932 . S
H233 C206 0.930 . S
H234 C207 0.932 . S
H235 C208 0.929 . S
H236 C226 0.932 . S
H237 C227 0.930 . S
H238 C228 0.932 . S
H239 C229 0.929 . S
Tb240 C249 2.764 . S
Tb240 O250 2.325 . S
Tb240 O253 2.303 . S
Tb240 O257 2.322 . S
Tb240 O258 2.349 . S
Tb240 O261 2.415 . S
Tb240 O262 2.399 . S
Tb241 O251 2.322 . S
Tb241 O252 2.349 . S
Tb241 O254 2.415 . S
Tb241 O255 2.399 . S
Tb241 O256 2.325 . S
Tb241 O259 2.303 . S
Tb241 C270 2.764 . S
C242 O258 1.261 . S
C242 O259 1.257 . S
C243 C246 1.358 . S
C243 C247 1.332 . S
C243 C249 1.504 1_455 S
C244 C245 1.373 . S
C244 C248 1.308 . S
C245 C244 1.373 . S
C245 C246 1.429 . S
C245 H272 0.932 . S
C246 C243 1.358 . S
C246 C245 1.429 . S
C246 H273 0.930 . S
C247 C243 1.332 . S
C247 C248 1.394 . S
C247 H274 0.932 . S
C248 C244 1.308 . S
C248 C247 1.394 . S
C248 H275 0.929 . S
C249 Tb240 2.764 . S
C249 C243 1.504 1_655 S
C249 O261 1.239 . S
C249 O262 1.263 . S
O250 Tb240 2.325 . S
O250 C260 1.236 . S
O251 Tb241 2.322 . S
O251 C260 1.257 . S
O252 Tb241 2.349 . S
O252 C263 1.261 . S
O253 Tb240 2.303 . S
O253 C263 1.257 . S
O254 Tb241 2.415 . S
O254 C270 1.239 . S
O255 Tb241 2.399 . S
O255 C270 1.263 . S
O256 Tb241 2.325 . S
O256 C271 1.236 . S
O257 Tb240 2.322 . S
O257 C271 1.257 . S
O258 Tb240 2.349 . S
O258 C242 1.261 . S
O259 Tb241 2.303 . S
O259 C242 1.257 . S
C260 O250 1.236 . S
C260 O251 1.257 . S
O261 Tb240 2.415 . S
O261 C249 1.239 . S
O262 Tb240 2.399 . S
O262 C249 1.263 . S
C263 O252 1.261 . S
C263 O253 1.257 . S
C264 C267 1.358 . S
C264 C268 1.332 . S
C264 C270 1.504 . S
C265 C266 1.373 . S
C265 C269 1.308 . S
C266 C265 1.373 . S
C266 C267 1.429 . S
C266 H276 0.932 . S
C267 C264 1.358 . S
C267 C266 1.429 . S
C267 H277 0.930 . S
C268 C264 1.332 . S
C268 C269 1.394 . S
C268 H278 0.932 . S
C269 C265 1.308 . S
C269 C268 1.394 . S
C269 H279 0.929 . S
C270 Tb241 2.764 . S
C270 O254 1.239 . S
C270 O255 1.263 . S
C270 C264 1.504 . S
C271 O256 1.236 . S
C271 O257 1.257 . S
H272 C245 0.932 . S
H273 C246 0.930 . S
H274 C247 0.932 . S
H275 C248 0.929 . S
H276 C266 0.932 . S
H277 C267 0.930 . S
H278 C268 0.932 . S
H279 C269 0.929 . S
Tb280 C289 2.764 . S
Tb280 O290 2.325 . S
Tb280 O293 2.303 . S
Tb280 O297 2.322 . S
Tb280 O298 2.349 . S
Tb280 O301 2.415 . S
Tb280 O302 2.399 . S
Tb281 O291 2.322 . S
Tb281 O292 2.349 . S
Tb281 O294 2.415 . S
Tb281 O295 2.399 . S
Tb281 O296 2.325 . S
Tb281 O299 2.303 . S
Tb281 C310 2.764 . S
C282 O298 1.261 . S
C282 O299 1.257 . S
C283 C286 1.358 . S
C283 C287 1.332 . S
C283 C289 1.504 . S
C284 C285 1.373 . S
C284 C288 1.308 . S
C285 C284 1.373 . S
C285 C286 1.429 . S
C285 H312 0.932 . S
C286 C283 1.358 . S
C286 C285 1.429 . S
C286 H313 0.930 . S
C287 C283 1.332 . S
C287 C288 1.394 . S
C287 H314 0.932 . S
C288 C284 1.308 . S
C288 C287 1.394 . S
C288 H315 0.929 . S
C289 Tb280 2.764 . S
C289 C283 1.504 . S
C289 O301 1.239 . S
C289 O302 1.263 . S
O290 Tb280 2.325 . S
O290 C300 1.236 . S
O291 Tb281 2.322 . S
O291 C300 1.257 . S
O292 Tb281 2.349 . S
O292 C303 1.261 . S
O293 Tb280 2.303 . S
O293 C303 1.257 . S
O294 Tb281 2.415 . S
O294 C310 1.239 . S
O295 Tb281 2.399 . S
O295 C310 1.263 . S
O296 Tb281 2.325 . S
O296 C311 1.236 . S
O297 Tb280 2.322 . S
O297 C311 1.257 . S
O298 Tb280 2.349 . S
O298 C282 1.261 . S
O299 Tb281 2.303 . S
O299 C282 1.257 . S
C300 O290 1.236 . S
C300 O291 1.257 . S
O301 Tb280 2.415 . S
O301 C289 1.239 . S
O302 Tb280 2.399 . S
O302 C289 1.263 . S
C303 O292 1.261 . S
C303 O293 1.257 . S
C304 C307 1.358 . S
C304 C308 1.332 . S
C304 C310 1.504 . S
C305 C306 1.373 . S
C305 C309 1.308 . S
C306 C305 1.373 . S
C306 C307 1.429 . S
C306 H316 0.932 . S
C307 C304 1.358 . S
C307 C306 1.429 . S
C307 H317 0.930 . S
C308 C304 1.332 . S
C308 C309 1.394 . S
C308 H318 0.932 . S
C309 C305 1.308 . S
C309 C308 1.394 . S
C309 H319 0.929 . S
C310 Tb281 2.764 . S
C310 O294 1.239 . S
C310 O295 1.263 . S
C310 C304 1.504 . S
C311 O296 1.236 . S
C311 O297 1.257 . S
H312 C285 0.932 . S
H313 C286 0.930 . S
H314 C287 0.932 . S
H315 C288 0.929 . S
H316 C306 0.932 . S
H317 C307 0.930 . S
H318 C308 0.932 . S
H319 C309 0.929 . S
Tb320 C329 2.764 . S
Tb320 O330 2.325 . S
Tb320 O333 2.303 . S
Tb320 O337 2.322 . S
Tb320 O338 2.349 . S
Tb320 O341 2.415 . S
Tb320 O342 2.399 . S
Tb321 O331 2.322 . S
Tb321 O332 2.349 . S
Tb321 O334 2.415 . S
Tb321 O335 2.399 . S
Tb321 O336 2.325 . S
Tb321 O339 2.303 . S
Tb321 C350 2.764 . S
C322 O338 1.261 . S
C322 O339 1.257 . S
C323 C326 1.358 . S
C323 C327 1.332 . S
C323 C329 1.504 1_565 S
C324 C325 1.373 . S
C324 C328 1.308 . S
C325 C324 1.373 . S
C325 C326 1.429 . S
C325 H352 0.932 . S
C326 C323 1.358 . S
C326 C325 1.429 . S
C326 H353 0.930 . S
C327 C323 1.332 . S
C327 C328 1.394 . S
C327 H354 0.932 . S
C328 C324 1.308 . S
C328 C327 1.394 . S
C328 H355 0.929 . S
C329 Tb320 2.764 . S
C329 C323 1.504 1_545 S
C329 O341 1.239 . S
C329 O342 1.263 . S
O330 Tb320 2.325 . S
O330 C340 1.236 . S
O331 Tb321 2.322 . S
O331 C340 1.257 . S
O332 Tb321 2.349 . S
O332 C343 1.261 . S
O333 Tb320 2.303 . S
O333 C343 1.257 . S
O334 Tb321 2.415 . S
O334 C350 1.239 . S
O335 Tb321 2.399 . S
O335 C350 1.263 . S
O336 Tb321 2.325 . S
O336 C351 1.236 . S
O337 Tb320 2.322 . S
O337 C351 1.257 . S
O338 Tb320 2.349 . S
O338 C322 1.261 . S
O339 Tb321 2.303 . S
O339 C322 1.257 . S
C340 O330 1.236 . S
C340 O331 1.257 . S
O341 Tb320 2.415 . S
O341 C329 1.239 . S
O342 Tb320 2.399 . S
O342 C329 1.263 . S
C343 O332 1.261 . S
C343 O333 1.257 . S
C344 C347 1.358 . S
C344 C348 1.332 . S
C344 C350 1.504 . S
C345 C346 1.373 . S
C345 C349 1.308 . S
C346 C345 1.373 . S
C346 C347 1.429 . S
C346 H356 0.932 . S
C347 C344 1.358 . S
C347 C346 1.429 . S
C347 H357 0.930 . S
C348 C344 1.332 . S
C348 C349 1.394 . S
C348 H358 0.932 . S
C349 C345 1.308 . S
C349 C348 1.394 . S
C349 H359 0.929 . S
C350 Tb321 2.764 . S
C350 O334 1.239 . S
C350 O335 1.263 . S
C350 C344 1.504 . S
C351 O336 1.236 . S
C351 O337 1.257 . S
H352 C325 0.932 . S
H353 C326 0.930 . S
H354 C327 0.932 . S
H355 C328 0.929 . S
H356 C346 0.932 . S
H357 C347 0.930 . S
H358 C348 0.932 . S
H359 C349 0.929 . S
Tb360 C369 2.764 . S
Tb360 O370 2.325 . S
Tb360 O373 2.303 . S
Tb360 O377 2.322 . S
Tb360 O378 2.349 . S
Tb360 O381 2.415 . S
Tb360 O382 2.399 . S
Tb361 O371 2.322 . S
Tb361 O372 2.349 . S
Tb361 O374 2.415 . S
Tb361 O375 2.399 . S
Tb361 O376 2.325 . S
Tb361 O379 2.303 . S
Tb361 C390 2.764 . S
C362 O378 1.261 . S
C362 O379 1.257 . S
C363 C366 1.358 . S
C363 C367 1.332 . S
C363 C369 1.504 1_545 S
C364 C365 1.373 . S
C364 C368 1.308 . S
C365 C364 1.373 . S
C365 C366 1.429 . S
C365 H392 0.932 . S
C366 C363 1.358 . S
C366 C365 1.429 . S
C366 H393 0.930 . S
C367 C363 1.332 . S
C367 C368 1.394 . S
C367 H394 0.932 . S
C368 C364 1.308 . S
C368 C367 1.394 . S
C368 H395 0.929 . S
C369 Tb360 2.764 . S
C369 C363 1.504 1_565 S
C369 O381 1.239 . S
C369 O382 1.263 . S
O370 Tb360 2.325 . S
O370 C380 1.236 . S
O371 Tb361 2.322 . S
O371 C380 1.257 . S
O372 Tb361 2.349 . S
O372 C383 1.261 . S
O373 Tb360 2.303 . S
O373 C383 1.257 . S
O374 Tb361 2.415 . S
O374 C390 1.239 . S
O375 Tb361 2.399 . S
O375 C390 1.263 . S
O376 Tb361 2.325 . S
O376 C391 1.236 . S
O377 Tb360 2.322 . S
O377 C391 1.257 . S
O378 Tb360 2.349 . S
O378 C362 1.261 . S
O379 Tb361 2.303 . S
O379 C362 1.257 . S
C380 O370 1.236 . S
C380 O371 1.257 . S
O381 Tb360 2.415 . S
O381 C369 1.239 . S
O382 Tb360 2.399 . S
O382 C369 1.263 . S
C383 O372 1.261 . S
C383 O373 1.257 . S
C384 C387 1.358 . S
C384 C388 1.332 . S
C384 C390 1.504 . S
C385 C386 1.373 . S
C385 C389 1.308 . S
C386 C385 1.373 . S
C386 C387 1.429 . S
C386 H396 0.932 . S
C387 C384 1.358 . S
C387 C386 1.429 . S
C387 H397 0.930 . S
C388 C384 1.332 . S
C388 C389 1.394 . S
C388 H398 0.932 . S
C389 C385 1.308 . S
C389 C388 1.394 . S
C389 H399 0.929 . S
C390 Tb361 2.764 . S
C390 O374 1.239 . S
C390 O375 1.263 . S
C390 C384 1.504 . S
C391 O376 1.236 . S
C391 O377 1.257 . S
H392 C365 0.932 . S
H393 C366 0.930 . S
H394 C367 0.932 . S
H395 C368 0.929 . S
H396 C386 0.932 . S
H397 C387 0.930 . S
H398 C388 0.932 . S
H399 C389 0.929 . S
Tb400 C409 2.764 . S
Tb400 O410 2.325 . S
Tb400 O413 2.303 . S
Tb400 O417 2.322 . S
Tb400 O418 2.349 . S
Tb400 O421 2.415 . S
Tb400 O422 2.399 . S
Tb401 O411 2.322 . S
Tb401 O412 2.349 . S
Tb401 O414 2.415 . S
Tb401 O415 2.399 . S
Tb401 O416 2.325 . S
Tb401 O419 2.303 . S
Tb401 C430 2.764 . S
C402 O418 1.261 . S
C402 O419 1.257 . S
C403 C406 1.358 . S
C403 C407 1.332 . S
C403 C409 1.504 1_655 S
C404 C405 1.373 . S
C404 C408 1.308 . S
C405 C404 1.373 . S
C405 C406 1.429 . S
C405 H432 0.932 . S
C406 C403 1.358 . S
C406 C405 1.429 . S
C406 H433 0.930 . S
C407 C403 1.332 . S
C407 C408 1.394 . S
C407 H434 0.932 . S
C408 C404 1.308 . S
C408 C407 1.394 . S
C408 H435 0.929 . S
C409 Tb400 2.764 . S
C409 C403 1.504 1_455 S
C409 O421 1.239 . S
C409 O422 1.263 . S
O410 Tb400 2.325 . S
O410 C420 1.236 . S
O411 Tb401 2.322 . S
O411 C420 1.257 . S
O412 Tb401 2.349 . S
O412 C423 1.261 . S
O413 Tb400 2.303 . S
O413 C423 1.257 . S
O414 Tb401 2.415 . S
O414 C430 1.239 . S
O415 Tb401 2.399 . S
O415 C430 1.263 . S
O416 Tb401 2.325 . S
O416 C431 1.236 . S
O417 Tb400 2.322 . S
O417 C431 1.257 . S
O418 Tb400 2.349 . S
O418 C402 1.261 . S
O419 Tb401 2.303 . S
O419 C402 1.257 . S
C420 O410 1.236 . S
C420 O411 1.257 . S
O421 Tb400 2.415 . S
O421 C409 1.239 . S
O422 Tb400 2.399 . S
O422 C409 1.263 . S
C423 O412 1.261 . S
C423 O413 1.257 . S
C424 C427 1.358 . S
C424 C428 1.332 . S
C424 C430 1.504 . S
C425 C426 1.373 . S
C425 C429 1.308 . S
C426 C425 1.373 . S
C426 C427 1.429 . S
C426 H436 0.932 . S
C427 C424 1.358 . S
C427 C426 1.429 . S
C427 H437 0.930 . S
C428 C424 1.332 . S
C428 C429 1.394 . S
C428 H438 0.932 . S
C429 C425 1.308 . S
C429 C428 1.394 . S
C429 H439 0.929 . S
C430 Tb401 2.764 . S
C430 O414 1.239 . S
C430 O415 1.263 . S
C430 C424 1.504 . S
C431 O416 1.236 . S
C431 O417 1.257 . S
H432 C405 0.932 . S
H433 C406 0.930 . S
H434 C407 0.932 . S
H435 C408 0.929 . S
H436 C426 0.932 . S
H437 C427 0.930 . S
H438 C428 0.932 . S
H439 C429 0.929 . S
Tb440 C449 2.764 . S
Tb440 O450 2.325 . S
Tb440 O453 2.303 . S
Tb440 O457 2.322 . S
Tb440 O458 2.349 . S
Tb440 O461 2.415 . S
Tb440 O462 2.399 . S
Tb441 O451 2.322 . S
Tb441 O452 2.349 . S
Tb441 O454 2.415 . S
Tb441 O455 2.399 . S
Tb441 O456 2.325 . S
Tb441 O459 2.303 . S
Tb441 C470 2.764 . S
C442 O458 1.261 . S
C442 O459 1.257 . S
C443 C446 1.358 . S
C443 C447 1.332 . S
C443 C449 1.504 . S
C444 C445 1.373 . S
C444 C448 1.308 . S
C445 C444 1.373 . S
C445 C446 1.429 . S
C445 H472 0.932 . S
C446 C443 1.358 . S
C446 C445 1.429 . S
C446 H473 0.930 . S
C447 C443 1.332 . S
C447 C448 1.394 . S
C447 H474 0.932 . S
C448 C444 1.308 . S
C448 C447 1.394 . S
C448 H475 0.929 . S
C449 Tb440 2.764 . S
C449 C443 1.504 . S
C449 O461 1.239 . S
C449 O462 1.263 . S
O450 Tb440 2.325 . S
O450 C460 1.236 . S
O451 Tb441 2.322 . S
O451 C460 1.257 . S
O452 Tb441 2.349 . S
O452 C463 1.261 . S
O453 Tb440 2.303 . S
O453 C463 1.257 . S
O454 Tb441 2.415 . S
O454 C470 1.239 . S
O455 Tb441 2.399 . S
O455 C470 1.263 . S
O456 Tb441 2.325 . S
O456 C471 1.236 . S
O457 Tb440 2.322 . S
O457 C471 1.257 . S
O458 Tb440 2.349 . S
O458 C442 1.261 . S
O459 Tb441 2.303 . S
O459 C442 1.257 . S
C460 O450 1.236 . S
C460 O451 1.257 . S
O461 Tb440 2.415 . S
O461 C449 1.239 . S
O462 Tb440 2.399 . S
O462 C449 1.263 . S
C463 O452 1.261 . S
C463 O453 1.257 . S
C464 C467 1.358 . S
C464 C468 1.332 . S
C464 C470 1.504 . S
C465 C466 1.373 . S
C465 C469 1.308 . S
C466 C465 1.373 . S
C466 C467 1.429 . S
C466 H476 0.932 . S
C467 C464 1.358 . S
C467 C466 1.429 . S
C467 H477 0.930 . S
C468 C464 1.332 . S
C468 C469 1.394 . S
C468 H478 0.932 . S
C469 C465 1.308 . S
C469 C468 1.394 . S
C469 H479 0.929 . S
C470 Tb441 2.764 . S
C470 O454 1.239 . S
C470 O455 1.263 . S
C470 C464 1.504 . S
C471 O456 1.236 . S
C471 O457 1.257 . S
H472 C445 0.932 . S
H473 C446 0.930 . S
H474 C447 0.932 . S
H475 C448 0.929 . S
H476 C466 0.932 . S
H477 C467 0.930 . S
H478 C468 0.932 . S
H479 C469 0.929 . S
Tb480 C489 2.764 . S
Tb480 O490 2.325 . S
Tb480 O493 2.303 . S
Tb480 O497 2.322 . S
Tb480 O498 2.349 . S
Tb480 O501 2.415 . S
Tb480 O502 2.399 . S
Tb481 O491 2.322 . S
Tb481 O492 2.349 . S
Tb481 O494 2.415 . S
Tb481 O495 2.399 . S
Tb481 O496 2.325 . S
Tb481 O499 2.303 . S
Tb481 C510 2.764 . S
C482 O498 1.261 . S
C482 O499 1.257 . S
C483 C486 1.358 . S
C483 C487 1.332 . S
C483 C489 1.504 . S
C484 C485 1.362 . S
C484 C488 1.308 1_455 S
C485 C484 1.362 . S
C485 C486 1.413 1_455 S
C485 H512 0.960 . S
C486 C483 1.358 . S
C486 C485 1.413 1_655 S
C486 H513 0.930 . S
C487 C483 1.332 . S
C487 C488 1.394 . S
C487 H514 0.932 . S
C488 C484 1.308 1_655 S
C488 C487 1.394 . S
C488 H515 0.929 . S
C489 Tb480 2.764 . S
C489 C483 1.504 . S
C489 O501 1.239 . S
C489 O502 1.263 . S
O490 Tb480 2.325 . S
O490 C500 1.236 . S
O491 Tb481 2.322 . S
O491 C500 1.257 . S
O492 Tb481 2.349 . S
O492 C503 1.261 . S
O493 Tb480 2.303 . S
O493 C503 1.257 . S
O494 Tb481 2.415 . S
O494 C510 1.239 . S
O495 Tb481 2.399 . S
O495 C510 1.263 . S
O496 Tb481 2.325 . S
O496 C511 1.236 . S
O497 Tb480 2.322 . S
O497 C511 1.257 . S
O498 Tb480 2.349 . S
O498 C482 1.261 . S
O499 Tb481 2.303 . S
O499 C482 1.257 . S
C500 O490 1.236 . S
C500 O491 1.257 . S
O501 Tb480 2.415 . S
O501 C489 1.239 . S
O502 Tb480 2.399 . S
O502 C489 1.263 . S
C503 O492 1.261 . S
C503 O493 1.257 . S
C504 C507 1.358 . S
C504 C508 1.332 . S
C504 C510 1.504 . S
C505 C506 1.373 . S
C505 C509 1.308 . S
C506 C505 1.373 . S
C506 C507 1.429 . S
C506 H516 0.932 . S
C507 C504 1.358 . S
C507 C506 1.429 . S
C507 H517 0.930 . S
C508 C504 1.332 . S
C508 C509 1.394 . S
C508 H518 0.932 . S
C509 C505 1.308 . S
C509 C508 1.394 . S
C509 H519 0.929 . S
C510 Tb481 2.764 . S
C510 O494 1.239 . S
C510 O495 1.263 . S
C510 C504 1.504 . S
C511 O496 1.236 . S
C511 O497 1.257 . S
H512 C485 0.960 . S
H513 C486 0.930 . S
H514 C487 0.932 . S
H515 C488 0.929 . S
H516 C506 0.932 . S
H517 C507 0.930 . S
H518 C508 0.932 . S
H519 C509 0.929 . S
Tb520 C529 2.764 . S
Tb520 O530 2.325 . S
Tb520 O533 2.303 . S
Tb520 O537 2.322 . S
Tb520 O538 2.349 . S
Tb520 O541 2.415 . S
Tb520 O542 2.399 . S
Tb521 O531 2.322 . S
Tb521 O532 2.349 . S
Tb521 O534 2.415 . S
Tb521 O535 2.399 . S
Tb521 O536 2.325 . S
Tb521 O539 2.303 . S
Tb521 C550 2.764 . S
C522 O538 1.261 . S
C522 O539 1.257 . S
C523 C526 1.358 . S
C523 C527 1.332 . S
C523 C529 1.504 . S
C524 C525 1.373 . S
C524 C528 1.308 . S
C525 C524 1.373 . S
C525 C526 1.429 . S
C525 H552 0.932 . S
C526 C523 1.358 . S
C526 C525 1.429 . S
C526 H553 0.930 . S
C527 C523 1.332 . S
C527 C528 1.394 . S
C527 H554 0.932 . S
C528 C524 1.308 . S
C528 C527 1.394 . S
C528 H555 0.929 . S
C529 Tb520 2.764 . S
C529 C523 1.504 . S
C529 O541 1.239 . S
C529 O542 1.263 . S
O530 Tb520 2.325 . S
O530 C540 1.236 . S
O531 Tb521 2.322 . S
O531 C540 1.257 . S
O532 Tb521 2.349 . S
O532 C543 1.261 . S
O533 Tb520 2.303 . S
O533 C543 1.257 . S
O534 Tb521 2.415 . S
O534 C550 1.239 . S
O535 Tb521 2.399 . S
O535 C550 1.263 . S
O536 Tb521 2.325 . S
O536 C551 1.236 . S
O537 Tb520 2.322 . S
O537 C551 1.257 . S
O538 Tb520 2.349 . S
O538 C522 1.261 . S
O539 Tb521 2.303 . S
O539 C522 1.257 . S
C540 O530 1.236 . S
C540 O531 1.257 . S
O541 Tb520 2.415 . S
O541 C529 1.239 . S
O542 Tb520 2.399 . S
O542 C529 1.263 . S
C543 O532 1.261 . S
C543 O533 1.257 . S
C544 C547 1.358 . S
C544 C548 1.332 . S
C544 C550 1.504 . S
C545 C546 1.373 . S
C545 C549 1.308 . S
C546 C545 1.373 . S
C546 C547 1.429 . S
C546 H556 0.932 . S
C547 C544 1.358 . S
C547 C546 1.429 . S
C547 H557 0.930 . S
C548 C544 1.332 . S
C548 C549 1.394 . S
C548 H558 0.932 . S
C549 C545 1.308 . S
C549 C548 1.394 . S
C549 H559 0.929 . S
C550 Tb521 2.764 . S
C550 O534 1.239 . S
C550 O535 1.263 . S
C550 C544 1.504 . S
C551 O536 1.236 . S
C551 O537 1.257 . S
H552 C525 0.932 . S
H553 C526 0.930 . S
H554 C527 0.932 . S
H555 C528 0.929 . S
H556 C546 0.932 . S
H557 C547 0.930 . S
H558 C548 0.932 . S
H559 C549 0.929 . S
Tb560 C569 2.764 . S
Tb560 O570 2.325 . S
Tb560 O573 2.303 . S
Tb560 O577 2.322 . S
Tb560 O578 2.349 . S
Tb560 O581 2.415 . S
Tb560 O582 2.399 . S
Tb561 O571 2.322 . S
Tb561 O572 2.349 . S
Tb561 O574 2.415 . S
Tb561 O575 2.399 . S
Tb561 O576 2.325 . S
Tb561 O579 2.303 . S
Tb561 C590 2.764 . S
C562 O578 1.261 . S
C562 O579 1.257 . S
C563 C566 1.358 . S
C563 C567 1.332 . S
C563 C569 1.504 . S
C564 C565 1.388 . S
C564 C568 1.308 1_565 S
C565 C564 1.388 . S
C565 C566 1.400 1_565 S
C565 H592 0.947 . S
C566 C563 1.358 . S
C566 C565 1.400 1_545 S
C566 H593 0.930 . S
C567 C563 1.332 . S
C567 C568 1.394 . S
C567 H594 0.932 . S
C568 C564 1.308 1_545 S
C568 C567 1.394 . S
C568 H595 0.929 . S
C569 Tb560 2.764 . S
C569 C563 1.504 . S
C569 O581 1.239 . S
C569 O582 1.263 . S
O570 Tb560 2.325 . S
O570 C580 1.236 . S
O571 Tb561 2.322 . S
O571 C580 1.257 . S
O572 Tb561 2.349 . S
O572 C583 1.261 . S
O573 Tb560 2.303 . S
O573 C583 1.257 . S
O574 Tb561 2.415 . S
O574 C590 1.239 . S
O575 Tb561 2.399 . S
O575 C590 1.263 . S
O576 Tb561 2.325 . S
O576 C591 1.236 . S
O577 Tb560 2.322 . S
O577 C591 1.257 . S
O578 Tb560 2.349 . S
O578 C562 1.261 . S
O579 Tb561 2.303 . S
O579 C562 1.257 . S
C580 O570 1.236 . S
C580 O571 1.257 . S
O581 Tb560 2.415 . S
O581 C569 1.239 . S
O582 Tb560 2.399 . S
O582 C569 1.263 . S
C583 O572 1.261 . S
C583 O573 1.257 . S
C584 C587 1.358 . S
C584 C588 1.332 . S
C584 C590 1.504 . S
C585 C586 1.373 . S
C585 C589 1.308 . S
C586 C585 1.373 . S
C586 C587 1.429 . S
C586 H596 0.932 . S
C587 C584 1.358 . S
C587 C586 1.429 . S
C587 H597 0.930 . S
C588 C584 1.332 . S
C588 C589 1.394 . S
C588 H598 0.932 . S
C589 C585 1.308 . S
C589 C588 1.394 . S
C589 H599 0.929 . S
C590 Tb561 2.764 . S
C590 O574 1.239 . S
C590 O575 1.263 . S
C590 C584 1.504 . S
C591 O576 1.236 . S
C591 O577 1.257 . S
H592 C565 0.947 . S
H593 C566 0.930 . S
H594 C567 0.932 . S
H595 C568 0.929 . S
H596 C586 0.932 . S
H597 C587 0.930 . S
H598 C588 0.932 . S
H599 C589 0.929 . S
Tb600 C609 2.751 1_655 S
Tb600 O610 2.325 . S
Tb600 O613 2.303 . S
Tb600 O617 2.322 . S
Tb600 O618 2.349 . S
Tb600 O621 2.415 1_655 S
Tb600 O622 2.399 . S
Tb601 O611 2.322 . S
Tb601 O612 2.349 . S
Tb601 O614 2.415 . S
Tb601 O615 2.399 . S
Tb601 O616 2.325 . S
Tb601 O619 2.303 . S
Tb601 C630 2.764 . S
C602 O618 1.261 . S
C602 O619 1.257 . S
C603 C606 1.358 . S
C603 C607 1.332 . S
C603 C609 1.518 . S
C604 C605 1.373 . S
C604 C608 1.308 . S
C605 C604 1.373 . S
C605 C606 1.429 . S
C605 H632 0.932 . S
C606 C603 1.358 . S
C606 C605 1.429 . S
C606 H633 0.930 . S
C607 C603 1.332 . S
C607 C608 1.394 . S
C607 H634 0.932 . S
C608 C604 1.308 . S
C608 C607 1.394 . S
C608 H635 0.929 . S
C609 Tb600 2.751 1_455 S
C609 C603 1.518 . S
C609 O621 1.263 . S
C609 O622 1.226 1_455 S
O610 Tb600 2.325 . S
O610 C620 1.236 . S
O611 Tb601 2.322 . S
O611 C620 1.257 . S
O612 Tb601 2.349 . S
O612 C623 1.261 . S
O613 Tb600 2.303 . S
O613 C623 1.257 . S
O614 Tb601 2.415 . S
O614 C630 1.239 . S
O615 Tb601 2.399 . S
O615 C630 1.263 . S
O616 Tb601 2.325 . S
O616 C631 1.236 . S
O617 Tb600 2.322 . S
O617 C631 1.257 . S
O618 Tb600 2.349 . S
O618 C602 1.261 . S
O619 Tb601 2.303 . S
O619 C602 1.257 . S
C620 O610 1.236 . S
C620 O611 1.257 . S
O621 Tb600 2.415 1_455 S
O621 C609 1.263 . S
O622 Tb600 2.399 . S
O622 C609 1.226 1_655 S
C623 O612 1.261 . S
C623 O613 1.257 . S
C624 C627 1.358 . S
C624 C628 1.332 . S
C624 C630 1.504 . S
C625 C626 1.373 . S
C625 C629 1.308 . S
C626 C625 1.373 . S
C626 C627 1.429 . S
C626 H636 0.932 . S
C627 C624 1.358 . S
C627 C626 1.429 . S
C627 H637 0.930 . S
C628 C624 1.332 . S
C628 C629 1.394 . S
C628 H638 0.932 . S
C629 C625 1.308 . S
C629 C628 1.394 . S
C629 H639 0.929 . S
C630 Tb601 2.764 . S
C630 O614 1.239 . S
C630 O615 1.263 . S
C630 C624 1.504 . S
C631 O616 1.236 . S
C631 O617 1.257 . S
H632 C605 0.932 . S
H633 C606 0.930 . S
H634 C607 0.932 . S
H635 C608 0.929 . S
H636 C626 0.932 . S
H637 C627 0.930 . S
H638 C628 0.932 . S
H639 C629 0.929 . S
Tb640 C649 2.764 . S
Tb640 O650 2.325 . S
Tb640 O653 2.303 . S
Tb640 O657 2.322 . S
Tb640 O658 2.349 . S
Tb640 O661 2.415 . S
Tb640 O662 2.399 . S
Tb641 O651 2.322 . S
Tb641 O652 2.349 . S
Tb641 O654 2.415 . S
Tb641 O655 2.399 . S
Tb641 O656 2.325 . S
Tb641 O659 2.303 . S
Tb641 C670 2.764 . S
C642 O658 1.261 . S
C642 O659 1.257 . S
C643 C646 1.358 . S
C643 C647 1.332 . S
C643 C649 1.504 . S
C644 C645 1.373 . S
C644 C648 1.308 . S
C645 C644 1.373 . S
C645 C646 1.429 . S
C645 H672 0.932 . S
C646 C643 1.358 . S
C646 C645 1.429 . S
C646 H673 0.930 . S
C647 C643 1.332 . S
C647 C648 1.394 . S
C647 H674 0.932 . S
C648 C644 1.308 . S
C648 C647 1.394 . S
C648 H675 0.929 . S
C649 Tb640 2.764 . S
C649 C643 1.504 . S
C649 O661 1.239 . S
C649 O662 1.263 . S
O650 Tb640 2.325 . S
O650 C660 1.236 . S
O651 Tb641 2.322 . S
O651 C660 1.257 . S
O652 Tb641 2.349 . S
O652 C663 1.261 . S
O653 Tb640 2.303 . S
O653 C663 1.257 . S
O654 Tb641 2.415 . S
O654 C670 1.239 . S
O655 Tb641 2.399 . S
O655 C670 1.263 . S
O656 Tb641 2.325 . S
O656 C671 1.236 . S
O657 Tb640 2.322 . S
O657 C671 1.257 . S
O658 Tb640 2.349 . S
O658 C642 1.261 . S
O659 Tb641 2.303 . S
O659 C642 1.257 . S
C660 O650 1.236 . S
C660 O651 1.257 . S
O661 Tb640 2.415 . S
O661 C649 1.239 . S
O662 Tb640 2.399 . S
O662 C649 1.263 . S
C663 O652 1.261 . S
C663 O653 1.257 . S
C664 C667 1.358 . S
C664 C668 1.332 . S
C664 C670 1.504 . S
C665 C666 1.373 . S
C665 C669 1.308 . S
C666 C665 1.373 . S
C666 C667 1.429 . S
C666 H676 0.932 . S
C667 C664 1.358 . S
C667 C666 1.429 . S
C667 H677 0.930 . S
C668 C664 1.332 . S
C668 C669 1.394 . S
C668 H678 0.932 . S
C669 C665 1.308 . S
C669 C668 1.394 . S
C669 H679 0.929 . S
C670 Tb641 2.764 . S
C670 O654 1.239 . S
C670 O655 1.263 . S
C670 C664 1.504 . S
C671 O656 1.236 . S
C671 O657 1.257 . S
H672 C645 0.932 . S
H673 C646 0.930 . S
H674 C647 0.932 . S
H675 C648 0.929 . S
H676 C666 0.932 . S
H677 C667 0.930 . S
H678 C668 0.932 . S
H679 C669 0.929 . S
Tb680 C689 2.727 1_545 S
Tb680 O690 2.325 . S
Tb680 O693 2.303 . S
Tb680 O697 2.322 . S
Tb680 O698 2.349 . S
Tb680 O701 2.415 1_545 S
Tb680 O702 2.399 . S
Tb681 O691 2.322 . S
Tb681 O692 2.349 . S
Tb681 O694 2.415 . S
Tb681 O695 2.399 . S
Tb681 O696 2.325 . S
Tb681 O699 2.303 . S
Tb681 C710 2.764 . S
C682 O698 1.261 . S
C682 O699 1.257 . S
C683 C686 1.358 . S
C683 C687 1.332 . S
C683 C689 1.540 . S
C684 C685 1.373 . S
C684 C688 1.308 . S
C685 C684 1.373 . S
C685 C686 1.429 . S
C685 H712 0.932 . S
C686 C683 1.358 . S
C686 C685 1.429 . S
C686 H713 0.930 . S
C687 C683 1.332 . S
C687 C688 1.394 . S
C687 H714 0.932 . S
C688 C684 1.308 . S
C688 C687 1.394 . S
C688 H715 0.929 . S
C689 Tb680 2.727 1_565 S
C689 C683 1.540 . S
C689 O701 1.227 . S
C689 O702 1.240 1_565 S
O690 Tb680 2.325 . S
O690 C700 1.236 . S
O691 Tb681 2.322 . S
O691 C700 1.257 . S
O692 Tb681 2.349 . S
O692 C703 1.261 . S
O693 Tb680 2.303 . S
O693 C703 1.257 . S
O694 Tb681 2.415 . S
O694 C710 1.239 . S
O695 Tb681 2.399 . S
O695 C710 1.263 . S
O696 Tb681 2.325 . S
O696 C711 1.236 . S
O697 Tb680 2.322 . S
O697 C711 1.257 . S
O698 Tb680 2.349 . S
O698 C682 1.261 . S
O699 Tb681 2.303 . S
O699 C682 1.257 . S
C700 O690 1.236 . S
C700 O691 1.257 . S
O701 Tb680 2.415 1_565 S
O701 C689 1.227 . S
O702 Tb680 2.399 . S
O702 C689 1.240 1_545 S
C703 O692 1.261 . S
C703 O693 1.257 . S
C704 C707 1.358 . S
C704 C708 1.332 . S
C704 C710 1.504 . S
C705 C706 1.373 . S
C705 C709 1.308 . S
C706 C705 1.373 . S
C706 C707 1.429 . S
C706 H716 0.932 . S
C707 C704 1.358 . S
C707 C706 1.429 . S
C707 H717 0.930 . S
C708 C704 1.332 . S
C708 C709 1.394 . S
C708 H718 0.932 . S
C709 C705 1.308 . S
C709 C708 1.394 . S
C709 H719 0.929 . S
C710 Tb681 2.764 . S
C710 O694 1.239 . S
C710 O695 1.263 . S
C710 C704 1.504 . S
C711 O696 1.236 . S
C711 O697 1.257 . S
H712 C685 0.932 . S
H713 C686 0.930 . S
H714 C687 0.932 . S
H715 C688 0.929 . S
H716 C706 0.932 . S
H717 C707 0.930 . S
H718 C708 0.932 . S
H719 C709 0.929 . S
Tb720 C729 2.764 . S
Tb720 O730 2.325 . S
Tb720 O733 2.303 . S
Tb720 O737 2.322 . S
Tb720 O738 2.349 . S
Tb720 O741 2.415 . S
Tb720 O742 2.399 . S
Tb721 O731 2.322 1_554 S
Tb721 O732 2.349 . S
Tb721 O734 2.415 1_545 S
Tb721 O735 2.399 . S
Tb721 O736 2.325 . S
Tb721 O739 2.303 . S
Tb721 C750 2.764 1_545 S
C722 O738 1.261 . S
C722 O739 1.257 . S
C723 C726 1.358 . S
C723 C727 1.332 . S
C723 C729 1.504 . S
C724 C725 1.373 . S
C724 C728 1.308 . S
C725 C724 1.373 . S
C725 C726 1.429 . S
C725 H752 0.932 . S
C726 C723 1.358 . S
C726 C725 1.429 . S
C726 H753 0.930 . S
C727 C723 1.332 . S
C727 C728 1.394 . S
C727 H754 0.932 . S
C728 C724 1.308 . S
C728 C727 1.394 . S
C728 H755 0.929 . S
C729 Tb720 2.764 . S
C729 C723 1.504 . S
C729 O741 1.239 . S
C729 O742 1.263 . S
O730 Tb720 2.325 . S
O730 C740 1.236 1_554 S
O731 Tb721 2.322 1_556 S
O731 C740 1.257 . S
O732 Tb721 2.349 . S
O732 C743 1.261 . S
O733 Tb720 2.303 . S
O733 C743 1.257 . S
O734 Tb721 2.415 1_565 S
O734 C750 1.239 . S
O735 Tb721 2.399 . S
O735 C750 1.263 1_545 S
O736 Tb721 2.325 . S
O736 C751 1.236 . S
O737 Tb720 2.322 . S
O737 C751 1.257 . S
O738 Tb720 2.349 . S
O738 C722 1.261 . S
O739 Tb721 2.303 . S
O739 C722 1.257 . S
C740 O730 1.236 1_556 S
C740 O731 1.257 . S
O741 Tb720 2.415 . S
O741 C729 1.239 . S
O742 Tb720 2.399 . S
O742 C729 1.263 . S
C743 O732 1.261 . S
C743 O733 1.257 . S
C744 C747 1.358 . S
C744 C748 1.332 . S
C744 C750 1.504 . S
C745 C746 1.373 . S
C745 C749 1.308 . S
C746 C745 1.373 . S
C746 C747 1.429 . S
C746 H756 0.932 . S
C747 C744 1.358 . S
C747 C746 1.429 . S
C747 H757 0.930 . S
C748 C744 1.332 . S
C748 C749 1.394 . S
C748 H758 0.932 . S
C749 C745 1.308 . S
C749 C748 1.394 . S
C749 H759 0.929 . S
C750 Tb721 2.764 1_565 S
C750 O734 1.239 . S
C750 O735 1.263 1_565 S
C750 C744 1.504 . S
C751 O736 1.236 . S
C751 O737 1.257 . S
H752 C725 0.932 . S
H753 C726 0.930 . S
H754 C727 0.932 . S
H755 C728 0.929 . S
H756 C746 0.932 . S
H757 C747 0.930 . S
H758 C748 0.932 . S
H759 C749 0.929 . S
Tb760 C769 2.764 . S
Tb760 O770 2.325 . S
Tb760 O773 2.303 . S
Tb760 O777 2.322 . S
Tb760 O778 2.349 . S
Tb760 O781 2.415 . S
Tb760 O782 2.399 . S
Tb761 O771 2.322 1_554 S
Tb761 O772 2.349 . S
Tb761 O774 2.415 1_655 S
Tb761 O775 2.399 . S
Tb761 O776 2.325 . S
Tb761 O779 2.303 . S
Tb761 C790 2.764 1_655 S
C762 O778 1.261 . S
C762 O779 1.257 . S
C763 C766 1.358 . S
C763 C767 1.332 . S
C763 C769 1.504 . S
C764 C765 1.373 . S
C764 C768 1.308 . S
C765 C764 1.373 . S
C765 C766 1.429 . S
C765 H792 0.932 . S
C766 C763 1.358 . S
C766 C765 1.429 . S
C766 H793 0.930 . S
C767 C763 1.332 . S
C767 C768 1.394 . S
C767 H794 0.932 . S
C768 C764 1.308 . S
C768 C767 1.394 . S
C768 H795 0.929 . S
C769 Tb760 2.764 . S
C769 C763 1.504 . S
C769 O781 1.239 . S
C769 O782 1.263 . S
O770 Tb760 2.325 . S
O770 C780 1.236 1_554 S
O771 Tb761 2.322 1_556 S
O771 C780 1.257 . S
O772 Tb761 2.349 . S
O772 C783 1.261 . S
O773 Tb760 2.303 . S
O773 C783 1.257 . S
O774 Tb761 2.415 1_455 S
O774 C790 1.239 . S
O775 Tb761 2.399 . S
O775 C790 1.263 1_655 S
O776 Tb761 2.325 . S
O776 C791 1.236 . S
O777 Tb760 2.322 . S
O777 C791 1.257 . S
O778 Tb760 2.349 . S
O778 C762 1.261 . S
O779 Tb761 2.303 . S
O779 C762 1.257 . S
C780 O770 1.236 1_556 S
C780 O771 1.257 . S
O781 Tb760 2.415 . S
O781 C769 1.239 . S
O782 Tb760 2.399 . S
O782 C769 1.263 . S
C783 O772 1.261 . S
C783 O773 1.257 . S
C784 C787 1.358 . S
C784 C788 1.332 . S
C784 C790 1.504 . S
C785 C786 1.373 . S
C785 C789 1.308 . S
C786 C785 1.373 . S
C786 C787 1.429 . S
C786 H796 0.932 . S
C787 C784 1.358 . S
C787 C786 1.429 . S
C787 H797 0.930 . S
C788 C784 1.332 . S
C788 C789 1.394 . S
C788 H798 0.932 . S
C789 C785 1.308 . S
C789 C788 1.394 . S
C789 H799 0.929 . S
C790 Tb761 2.764 1_455 S
C790 O774 1.239 . S
C790 O775 1.263 1_455 S
C790 C784 1.504 . S
C791 O776 1.236 . S
C791 O777 1.257 . S
H792 C765 0.932 . S
H793 C766 0.930 . S
H794 C767 0.932 . S
H795 C768 0.929 . S
H796 C786 0.932 . S
H797 C787 0.930 . S
H798 C788 0.932 . S
H799 C789 0.929 . S
Tb800 C809 2.764 . S
Tb800 O810 2.325 . S
Tb800 O813 2.303 . S
Tb800 O817 2.322 . S
Tb800 O818 2.349 . S
Tb800 O821 2.415 . S
Tb800 O822 2.399 . S
Tb801 O811 2.322 1_554 S
Tb801 O812 2.349 . S
Tb801 O814 2.415 . S
Tb801 O815 2.399 . S
Tb801 O816 2.325 . S
Tb801 O819 2.303 . S
Tb801 C830 2.764 . S
C802 O818 1.261 . S
C802 O819 1.257 . S
C803 C806 1.358 . S
C803 C807 1.332 . S
C803 C809 1.504 . S
C804 C805 1.373 . S
C804 C808 1.308 . S
C805 C804 1.373 . S
C805 C806 1.429 . S
C805 H832 0.932 . S
C806 C803 1.358 . S
C806 C805 1.429 . S
C806 H833 0.930 . S
C807 C803 1.332 . S
C807 C808 1.394 . S
C807 H834 0.932 . S
C808 C804 1.308 . S
C808 C807 1.394 . S
C808 H835 0.929 . S
C809 Tb800 2.764 . S
C809 C803 1.504 . S
C809 O821 1.239 . S
C809 O822 1.263 . S
O810 Tb800 2.325 . S
O810 C820 1.236 1_554 S
O811 Tb801 2.322 1_556 S
O811 C820 1.257 . S
O812 Tb801 2.349 . S
O812 C823 1.261 . S
O813 Tb800 2.303 . S
O813 C823 1.257 . S
O814 Tb801 2.415 . S
O814 C830 1.239 . S
O815 Tb801 2.399 . S
O815 C830 1.263 . S
O816 Tb801 2.325 . S
O816 C831 1.236 . S
O817 Tb800 2.322 . S
O817 C831 1.257 . S
O818 Tb800 2.349 . S
O818 C802 1.261 . S
O819 Tb801 2.303 . S
O819 C802 1.257 . S
C820 O810 1.236 1_556 S
C820 O811 1.257 . S
O821 Tb800 2.415 . S
O821 C809 1.239 . S
O822 Tb800 2.399 . S
O822 C809 1.263 . S
C823 O812 1.261 . S
C823 O813 1.257 . S
C824 C827 1.358 . S
C824 C828 1.332 . S
C824 C830 1.504 . S
C825 C826 1.373 . S
C825 C829 1.308 . S
C826 C825 1.373 . S
C826 C827 1.429 . S
C826 H836 0.932 . S
C827 C824 1.358 . S
C827 C826 1.429 . S
C827 H837 0.930 . S
C828 C824 1.332 . S
C828 C829 1.394 . S
C828 H838 0.932 . S
C829 C825 1.308 . S
C829 C828 1.394 . S
C829 H839 0.929 . S
C830 Tb801 2.764 . S
C830 O814 1.239 . S
C830 O815 1.263 . S
C830 C824 1.504 . S
C831 O816 1.236 . S
C831 O817 1.257 . S
H832 C805 0.932 . S
H833 C806 0.930 . S
H834 C807 0.932 . S
H835 C808 0.929 . S
H836 C826 0.932 . S
H837 C827 0.930 . S
H838 C828 0.932 . S
H839 C829 0.929 . S
Tb840 C849 2.764 . S
Tb840 O850 2.325 . S
Tb840 O853 2.303 . S
Tb840 O857 2.322 . S
Tb840 O858 2.349 . S
Tb840 O861 2.415 . S
Tb840 O862 2.399 . S
Tb841 O851 2.322 . S
Tb841 O852 2.349 . S
Tb841 O854 2.415 . S
Tb841 O855 2.399 . S
Tb841 O856 2.325 . S
Tb841 O859 2.303 . S
Tb841 C870 2.764 . S
C842 O858 1.261 . S
C842 O859 1.257 . S
C843 C846 1.358 . S
C843 C847 1.332 . S
C843 C849 1.504 . S
C844 C845 1.373 . S
C844 C848 1.308 . S
C845 C844 1.373 . S
C845 C846 1.429 . S
C845 H872 0.932 . S
C846 C843 1.358 . S
C846 C845 1.429 . S
C846 H873 0.930 . S
C847 C843 1.332 . S
C847 C848 1.394 . S
C847 H874 0.932 . S
C848 C844 1.308 . S
C848 C847 1.394 . S
C848 H875 0.929 . S
C849 Tb840 2.764 . S
C849 C843 1.504 . S
C849 O861 1.239 . S
C849 O862 1.263 . S
O850 Tb840 2.325 . S
O850 C860 1.236 . S
O851 Tb841 2.322 . S
O851 C860 1.257 . S
O852 Tb841 2.349 . S
O852 C863 1.261 . S
O853 Tb840 2.303 . S
O853 C863 1.257 . S
O854 Tb841 2.415 . S
O854 C870 1.239 . S
O855 Tb841 2.399 . S
O855 C870 1.263 . S
O856 Tb841 2.325 . S
O856 C871 1.236 . S
O857 Tb840 2.322 . S
O857 C871 1.257 . S
O858 Tb840 2.349 . S
O858 C842 1.261 . S
O859 Tb841 2.303 . S
O859 C842 1.257 . S
C860 O850 1.236 . S
C860 O851 1.257 . S
O861 Tb840 2.415 . S
O861 C849 1.239 . S
O862 Tb840 2.399 . S
O862 C849 1.263 . S
C863 O852 1.261 . S
C863 O853 1.257 . S
C864 C867 1.358 . S
C864 C868 1.332 . S
C864 C870 1.504 . S
C865 C866 1.373 . S
C865 C869 1.308 . S
C866 C865 1.373 . S
C866 C867 1.429 . S
C866 H876 0.932 1_545 S
C867 C864 1.358 . S
C867 C866 1.429 . S
C867 H877 0.930 . S
C868 C864 1.332 . S
C868 C869 1.394 . S
C868 H878 0.932 . S
C869 C865 1.308 . S
C869 C868 1.394 . S
C869 H879 0.929 . S
C870 Tb841 2.764 . S
C870 O854 1.239 . S
C870 O855 1.263 . S
C870 C864 1.504 . S
C871 O856 1.236 . S
C871 O857 1.257 . S
H872 C845 0.932 . S
H873 C846 0.930 . S
H874 C847 0.932 . S
H875 C848 0.929 . S
H876 C866 0.932 1_565 S
H877 C867 0.930 . S
H878 C868 0.932 . S
H879 C869 0.929 . S
Tb880 C889 2.764 . S
Tb880 O890 2.325 . S
Tb880 O893 2.303 . S
Tb880 O897 2.322 . S
Tb880 O898 2.349 . S
Tb880 O901 2.415 . S
Tb880 O902 2.399 . S
Tb881 O891 2.322 . S
Tb881 O892 2.349 . S
Tb881 O894 2.415 . S
Tb881 O895 2.399 . S
Tb881 O896 2.325 . S
Tb881 O899 2.303 . S
Tb881 C910 2.764 . S
C882 O898 1.261 . S
C882 O899 1.257 . S
C883 C886 1.358 . S
C883 C887 1.332 . S
C883 C889 1.504 . S
C884 C885 1.373 . S
C884 C888 1.308 . S
C885 C884 1.373 . S
C885 C886 1.429 . S
C885 H912 0.932 . S
C886 C883 1.358 . S
C886 C885 1.429 . S
C886 H913 0.930 . S
C887 C883 1.332 . S
C887 C888 1.394 . S
C887 H914 0.932 . S
C888 C884 1.308 . S
C888 C887 1.394 . S
C888 H915 0.929 . S
C889 Tb880 2.764 . S
C889 C883 1.504 . S
C889 O901 1.239 . S
C889 O902 1.263 . S
O890 Tb880 2.325 . S
O890 C900 1.236 . S
O891 Tb881 2.322 . S
O891 C900 1.257 . S
O892 Tb881 2.349 . S
O892 C903 1.261 . S
O893 Tb880 2.303 . S
O893 C903 1.257 . S
O894 Tb881 2.415 . S
O894 C910 1.239 . S
O895 Tb881 2.399 . S
O895 C910 1.263 . S
O896 Tb881 2.325 . S
O896 C911 1.236 . S
O897 Tb880 2.322 . S
O897 C911 1.257 . S
O898 Tb880 2.349 . S
O898 C882 1.261 . S
O899 Tb881 2.303 . S
O899 C882 1.257 . S
C900 O890 1.236 . S
C900 O891 1.257 . S
O901 Tb880 2.415 . S
O901 C889 1.239 . S
O902 Tb880 2.399 . S
O902 C889 1.263 . S
C903 O892 1.261 . S
C903 O893 1.257 . S
C904 C907 1.358 . S
C904 C908 1.332 . S
C904 C910 1.504 . S
C905 C906 1.373 . S
C905 C909 1.308 . S
C906 C905 1.373 . S
C906 C907 1.429 . S
C906 H916 0.932 1_655 S
C907 C904 1.358 . S
C907 C906 1.429 . S
C907 H917 0.930 . S
C908 C904 1.332 . S
C908 C909 1.394 . S
C908 H918 0.932 . S
C909 C905 1.308 . S
C909 C908 1.394 . S
C909 H919 0.929 . S
C910 Tb881 2.764 . S
C910 O894 1.239 . S
C910 O895 1.263 . S
C910 C904 1.504 . S
C911 O896 1.236 . S
C911 O897 1.257 . S
H912 C885 0.932 . S
H913 C886 0.930 . S
H914 C887 0.932 . S
H915 C888 0.929 . S
H916 C906 0.932 1_455 S
H917 C907 0.930 . S
H918 C908 0.932 . S
H919 C909 0.929 . S
Tb920 C929 2.764 . S
Tb920 O930 2.325 . S
Tb920 O933 2.303 . S
Tb920 O937 2.322 . S
Tb920 O938 2.349 . S
Tb920 O941 2.415 . S
Tb920 O942 2.399 . S
Tb921 O931 2.322 . S
Tb921 O932 2.349 . S
Tb921 O934 2.415 . S
Tb921 O935 2.399 . S
Tb921 O936 2.325 . S
Tb921 O939 2.303 . S
Tb921 C950 2.764 . S
C922 O938 1.261 . S
C922 O939 1.257 . S
C923 C926 1.358 . S
C923 C927 1.332 . S
C923 C929 1.504 . S
C924 C925 1.373 . S
C924 C928 1.308 . S
C925 C924 1.373 . S
C925 C926 1.429 . S
C925 H952 0.932 . S
C926 C923 1.358 . S
C926 C925 1.429 . S
C926 H953 0.930 . S
C927 C923 1.332 . S
C927 C928 1.394 . S
C927 H954 0.932 . S
C928 C924 1.308 . S
C928 C927 1.394 . S
C928 H955 0.929 . S
C929 Tb920 2.764 . S
C929 C923 1.504 . S
C929 O941 1.239 . S
C929 O942 1.263 . S
O930 Tb920 2.325 . S
O930 C940 1.236 . S
O931 Tb921 2.322 . S
O931 C940 1.257 . S
O932 Tb921 2.349 . S
O932 C943 1.261 . S
O933 Tb920 2.303 . S
O933 C943 1.257 . S
O934 Tb921 2.415 . S
O934 C950 1.239 . S
O935 Tb921 2.399 . S
O935 C950 1.263 . S
O936 Tb921 2.325 . S
O936 C951 1.236 . S
O937 Tb920 2.322 . S
O937 C951 1.257 . S
O938 Tb920 2.349 . S
O938 C922 1.261 . S
O939 Tb921 2.303 . S
O939 C922 1.257 . S
C940 O930 1.236 . S
C940 O931 1.257 . S
O941 Tb920 2.415 . S
O941 C929 1.239 . S
O942 Tb920 2.399 . S
O942 C929 1.263 . S
C943 O932 1.261 . S
C943 O933 1.257 . S
C944 C947 1.358 . S
C944 C948 1.332 . S
C944 C950 1.504 . S
C945 C946 1.373 . S
C945 C949 1.308 . S
C946 C945 1.373 . S
C946 C947 1.429 . S
C946 H956 0.932 . S
C947 C944 1.358 . S
C947 C946 1.429 . S
C947 H957 0.930 . S
C948 C944 1.332 . S
C948 C949 1.394 . S
C948 H958 0.932 . S
C949 C945 1.308 . S
C949 C948 1.394 . S
C949 H959 0.929 . S
C950 Tb921 2.764 . S
C950 O934 1.239 . S
C950 O935 1.263 . S
C950 C944 1.504 . S
C951 O936 1.236 . S
C951 O937 1.257 . S
H952 C925 0.932 . S
H953 C926 0.930 . S
H954 C927 0.932 . S
H955 C928 0.929 . S
H956 C946 0.932 . S
H957 C947 0.930 . S
H958 C948 0.932 . S
H959 C949 0.929 . S
Tb960 C969 2.764 1_565 S
Tb960 O970 2.325 . S
Tb960 O973 2.303 . S
Tb960 O977 2.322 1_556 S
Tb960 O978 2.349 . S
Tb960 O981 2.415 1_565 S
Tb960 O982 2.399 . S
Tb961 O971 2.322 . S
Tb961 O972 2.349 . S
Tb961 O974 2.415 . S
Tb961 O975 2.399 . S
Tb961 O976 2.325 . S
Tb961 O979 2.303 . S
Tb961 C990 2.764 . S
C962 O978 1.261 . S
C962 O979 1.257 . S
C963 C966 1.358 . S
C963 C967 1.332 . S
C963 C969 1.504 . S
C964 C965 1.373 . S
C964 C968 1.308 . S
C965 C964 1.373 . S
C965 C966 1.429 . S
C965 H992 0.932 . S
C966 C963 1.358 . S
C966 C965 1.429 . S
C966 H993 0.930 . S
C967 C963 1.332 . S
C967 C968 1.394 . S
C967 H994 0.932 . S
C968 C964 1.308 . S
C968 C967 1.394 . S
C968 H995 0.929 . S
C969 Tb960 2.764 1_545 S
C969 C963 1.504 . S
C969 O981 1.239 . S
C969 O982 1.263 1_545 S
O970 Tb960 2.325 . S
O970 C980 1.236 . S
O971 Tb961 2.322 . S
O971 C980 1.257 . S
O972 Tb961 2.349 . S
O972 C983 1.261 . S
O973 Tb960 2.303 . S
O973 C983 1.257 . S
O974 Tb961 2.415 . S
O974 C990 1.239 . S
O975 Tb961 2.399 . S
O975 C990 1.263 . S
O976 Tb961 2.325 . S
O976 C991 1.236 1_556 S
O977 Tb960 2.322 1_554 S
O977 C991 1.257 . S
O978 Tb960 2.349 . S
O978 C962 1.261 . S
O979 Tb961 2.303 . S
O979 C962 1.257 . S
C980 O970 1.236 . S
C980 O971 1.257 . S
O981 Tb960 2.415 1_545 S
O981 C969 1.239 . S
O982 Tb960 2.399 . S
O982 C969 1.263 1_565 S
C983 O972 1.261 . S
C983 O973 1.257 . S
C984 C987 1.358 . S
C984 C988 1.332 . S
C984 C990 1.504 . S
C985 C986 1.373 . S
C985 C989 1.308 . S
C986 C985 1.373 . S
C986 C987 1.429 . S
C986 H996 0.932 . S
C987 C984 1.358 . S
C987 C986 1.429 . S
C987 H997 0.930 . S
C988 C984 1.332 . S
C988 C989 1.394 . S
C988 H998 0.932 . S
C989 C985 1.308 . S
C989 C988 1.394 . S
C989 H999 0.929 . S
C990 Tb961 2.764 . S
C990 O974 1.239 . S
C990 O975 1.263 . S
C990 C984 1.504 . S
C991 O976 1.236 1_554 S
C991 O977 1.257 . S
H992 C965 0.932 . S
H993 C966 0.930 . S
H994 C967 0.932 . S
H995 C968 0.929 . S
H996 C986 0.932 . S
H997 C987 0.930 . S
H998 C988 0.932 . S
H999 C989 0.929 . S
Tb1000 C1009 2.764 1_455 S
Tb1000 O1010 2.325 . S
Tb1000 O1013 2.303 . S
Tb1000 O1017 2.322 1_556 S
Tb1000 O1018 2.349 . S
Tb1000 O1021 2.415 1_455 S
Tb1000 O1022 2.399 . S
Tb1001 O1011 2.322 . S
Tb1001 O1012 2.349 . S
Tb1001 O1014 2.415 . S
Tb1001 O1015 2.399 . S
Tb1001 O1016 2.325 . S
Tb1001 O1019 2.303 . S
Tb1001 C1030 2.764 . S
C1002 O1018 1.261 . S
C1002 O1019 1.257 . S
C1003 C1006 1.358 . S
C1003 C1007 1.332 . S
C1003 C1009 1.504 . S
C1004 C1005 1.373 . S
C1004 C1008 1.308 . S
C1005 C1004 1.373 . S
C1005 C1006 1.429 . S
C1005 H1032 0.932 . S
C1006 C1003 1.358 . S
C1006 C1005 1.429 . S
C1006 H1033 0.930 . S
C1007 C1003 1.332 . S
C1007 C1008 1.394 . S
C1007 H1034 0.932 . S
C1008 C1004 1.308 . S
C1008 C1007 1.394 . S
C1008 H1035 0.929 . S
C1009 Tb1000 2.764 1_655 S
C1009 C1003 1.504 . S
C1009 O1021 1.239 . S
C1009 O1022 1.263 1_655 S
O1010 Tb1000 2.325 . S
O1010 C1020 1.236 . S
O1011 Tb1001 2.322 . S
O1011 C1020 1.257 . S
O1012 Tb1001 2.349 . S
O1012 C1023 1.261 . S
O1013 Tb1000 2.303 . S
O1013 C1023 1.257 . S
O1014 Tb1001 2.415 . S
O1014 C1030 1.239 . S
O1015 Tb1001 2.399 . S
O1015 C1030 1.263 . S
O1016 Tb1001 2.325 . S
O1016 C1031 1.236 1_556 S
O1017 Tb1000 2.322 1_554 S
O1017 C1031 1.257 . S
O1018 Tb1000 2.349 . S
O1018 C1002 1.261 . S
O1019 Tb1001 2.303 . S
O1019 C1002 1.257 . S
C1020 O1010 1.236 . S
C1020 O1011 1.257 . S
O1021 Tb1000 2.415 1_655 S
O1021 C1009 1.239 . S
O1022 Tb1000 2.399 . S
O1022 C1009 1.263 1_455 S
C1023 O1012 1.261 . S
C1023 O1013 1.257 . S
C1024 C1027 1.358 . S
C1024 C1028 1.332 . S
C1024 C1030 1.504 . S
C1025 C1026 1.373 . S
C1025 C1029 1.308 . S
C1026 C1025 1.373 . S
C1026 C1027 1.429 . S
C1026 H1036 0.932 . S
C1027 C1024 1.358 . S
C1027 C1026 1.429 . S
C1027 H1037 0.930 . S
C1028 C1024 1.332 . S
C1028 C1029 1.394 . S
C1028 H1038 0.932 . S
C1029 C1025 1.308 . S
C1029 C1028 1.394 . S
C1029 H1039 0.929 . S
C1030 Tb1001 2.764 . S
C1030 O1014 1.239 . S
C1030 O1015 1.263 . S
C1030 C1024 1.504 . S
C1031 O1016 1.236 1_554 S
C1031 O1017 1.257 . S
H1032 C1005 0.932 . S
H1033 C1006 0.930 . S
H1034 C1007 0.932 . S
H1035 C1008 0.929 . S
H1036 C1026 0.932 . S
H1037 C1027 0.930 . S
H1038 C1028 0.932 . S
H1039 C1029 0.929 . S
Tb1040 C1049 2.764 . S
Tb1040 O1050 2.325 . S
Tb1040 O1053 2.303 . S
Tb1040 O1057 2.322 1_556 S
Tb1040 O1058 2.349 . S
Tb1040 O1061 2.415 . S
Tb1040 O1062 2.399 . S
Tb1041 O1051 2.322 . S
Tb1041 O1052 2.349 . S
Tb1041 O1054 2.415 . S
Tb1041 O1055 2.399 . S
Tb1041 O1056 2.325 . S
Tb1041 O1059 2.303 . S
Tb1041 C1070 2.764 . S
C1042 O1058 1.261 . S
C1042 O1059 1.257 . S
C1043 C1046 1.358 . S
C1043 C1047 1.332 . S
C1043 C1049 1.504 . S
C1044 C1045 1.373 . S
C1044 C1048 1.308 . S
C1045 C1044 1.373 . S
C1045 C1046 1.429 . S
C1045 H1072 0.932 . S
C1046 C1043 1.358 . S
C1046 C1045 1.429 . S
C1046 H1073 0.930 . S
C1047 C1043 1.332 . S
C1047 C1048 1.394 . S
C1047 H1074 0.932 . S
C1048 C1044 1.308 . S
C1048 C1047 1.394 . S
C1048 H1075 0.929 . S
C1049 Tb1040 2.764 . S
C1049 C1043 1.504 . S
C1049 O1061 1.239 . S
C1049 O1062 1.263 . S
O1050 Tb1040 2.325 . S
O1050 C1060 1.236 . S
O1051 Tb1041 2.322 . S
O1051 C1060 1.257 . S
O1052 Tb1041 2.349 . S
O1052 C1063 1.261 . S
O1053 Tb1040 2.303 . S
O1053 C1063 1.257 . S
O1054 Tb1041 2.415 . S
O1054 C1070 1.239 . S
O1055 Tb1041 2.399 . S
O1055 C1070 1.263 . S
O1056 Tb1041 2.325 . S
O1056 C1071 1.236 1_556 S
O1057 Tb1040 2.322 1_554 S
O1057 C1071 1.257 . S
O1058 Tb1040 2.349 . S
O1058 C1042 1.261 . S
O1059 Tb1041 2.303 . S
O1059 C1042 1.257 . S
C1060 O1050 1.236 . S
C1060 O1051 1.257 . S
O1061 Tb1040 2.415 . S
O1061 C1049 1.239 . S
O1062 Tb1040 2.399 . S
O1062 C1049 1.263 . S
C1063 O1052 1.261 . S
C1063 O1053 1.257 . S
C1064 C1067 1.358 . S
C1064 C1068 1.332 . S
C1064 C1070 1.504 . S
C1065 C1066 1.373 . S
C1065 C1069 1.308 . S
C1066 C1065 1.373 . S
C1066 C1067 1.429 . S
C1066 H1076 0.932 . S
C1067 C1064 1.358 . S
C1067 C1066 1.429 . S
C1067 H1077 0.930 . S
C1068 C1064 1.332 . S
C1068 C1069 1.394 . S
C1068 H1078 0.932 . S
C1069 C1065 1.308 . S
C1069 C1068 1.394 . S
C1069 H1079 0.929 . S
C1070 Tb1041 2.764 . S
C1070 O1054 1.239 . S
C1070 O1055 1.263 . S
C1070 C1064 1.504 . S
C1071 O1056 1.236 1_554 S
C1071 O1057 1.257 . S
H1072 C1045 0.932 . S
H1073 C1046 0.930 . S
H1074 C1047 0.932 . S
H1075 C1048 0.929 . S
H1076 C1066 0.932 . S
H1077 C1067 0.930 . S
H1078 C1068 0.932 . S
H1079 C1069 0.929 . S
Tb1080 C1089 2.764 . S
Tb1080 O1090 2.325 . S
Tb1080 O1093 2.303 . S
Tb1080 O1097 2.322 . S
Tb1080 O1098 2.349 . S
Tb1080 O1101 2.415 . S
Tb1080 O1102 2.399 . S
Tb1081 O1091 2.322 . S
Tb1081 O1092 2.349 . S
Tb1081 O1094 2.415 . S
Tb1081 O1095 2.399 . S
Tb1081 O1096 2.325 . S
Tb1081 O1099 2.303 . S
Tb1081 C1110 2.764 . S
C1082 O1098 1.261 . S
C1082 O1099 1.257 . S
C1083 C1086 1.358 . S
C1083 C1087 1.332 . S
C1083 C1089 1.504 . S
C1084 C1085 1.373 . S
C1084 C1088 1.308 . S
C1085 C1084 1.373 . S
C1085 C1086 1.429 . S
C1085 H1112 0.932 1_565 S
C1086 C1083 1.358 . S
C1086 C1085 1.429 . S
C1086 H1113 0.930 . S
C1087 C1083 1.332 . S
C1087 C1088 1.394 . S
C1087 H1114 0.932 . S
C1088 C1084 1.308 . S
C1088 C1087 1.394 . S
C1088 H1115 0.929 . S
C1089 Tb1080 2.764 . S
C1089 C1083 1.504 . S
C1089 O1101 1.239 . S
C1089 O1102 1.263 . S
O1090 Tb1080 2.325 . S
O1090 C1100 1.236 . S
O1091 Tb1081 2.322 . S
O1091 C1100 1.257 . S
O1092 Tb1081 2.349 . S
O1092 C1103 1.261 . S
O1093 Tb1080 2.303 . S
O1093 C1103 1.257 . S
O1094 Tb1081 2.415 . S
O1094 C1110 1.239 . S
O1095 Tb1081 2.399 . S
O1095 C1110 1.263 . S
O1096 Tb1081 2.325 . S
O1096 C1111 1.236 . S
O1097 Tb1080 2.322 . S
O1097 C1111 1.257 . S
O1098 Tb1080 2.349 . S
O1098 C1082 1.261 . S
O1099 Tb1081 2.303 . S
O1099 C1082 1.257 . S
C1100 O1090 1.236 . S
C1100 O1091 1.257 . S
O1101 Tb1080 2.415 . S
O1101 C1089 1.239 . S
O1102 Tb1080 2.399 . S
O1102 C1089 1.263 . S
C1103 O1092 1.261 . S
C1103 O1093 1.257 . S
C1104 C1107 1.358 . S
C1104 C1108 1.332 . S
C1104 C1110 1.504 . S
C1105 C1106 1.373 . S
C1105 C1109 1.308 . S
C1106 C1105 1.373 . S
C1106 C1107 1.429 . S
C1106 H1116 0.932 . S
C1107 C1104 1.358 . S
C1107 C1106 1.429 . S
C1107 H1117 0.930 . S
C1108 C1104 1.332 . S
C1108 C1109 1.394 . S
C1108 H1118 0.932 . S
C1109 C1105 1.308 . S
C1109 C1108 1.394 . S
C1109 H1119 0.929 . S
C1110 Tb1081 2.764 . S
C1110 O1094 1.239 . S
C1110 O1095 1.263 . S
C1110 C1104 1.504 . S
C1111 O1096 1.236 . S
C1111 O1097 1.257 . S
H1112 C1085 0.932 1_545 S
H1113 C1086 0.930 . S
H1114 C1087 0.932 . S
H1115 C1088 0.929 . S
H1116 C1106 0.932 . S
H1117 C1107 0.930 . S
H1118 C1108 0.932 . S
H1119 C1109 0.929 . S
Tb1120 C1129 2.764 . S
Tb1120 O1130 2.325 . S
Tb1120 O1133 2.303 . S
Tb1120 O1137 2.322 . S
Tb1120 O1138 2.349 . S
Tb1120 O1141 2.415 . S
Tb1120 O1142 2.399 . S
Tb1121 O1131 2.322 . S
Tb1121 O1132 2.349 . S
Tb1121 O1134 2.415 . S
Tb1121 O1135 2.399 . S
Tb1121 O1136 2.325 . S
Tb1121 O1139 2.303 . S
Tb1121 C1150 2.764 . S
C1122 O1138 1.261 . S
C1122 O1139 1.257 . S
C1123 C1126 1.358 . S
C1123 C1127 1.332 . S
C1123 C1129 1.504 . S
C1124 C1125 1.373 . S
C1124 C1128 1.308 . S
C1125 C1124 1.373 . S
C1125 C1126 1.429 . S
C1125 H1152 0.932 1_455 S
C1126 C1123 1.358 . S
C1126 C1125 1.429 . S
C1126 H1153 0.930 . S
C1127 C1123 1.332 . S
C1127 C1128 1.394 . S
C1127 H1154 0.932 . S
C1128 C1124 1.308 . S
C1128 C1127 1.394 . S
C1128 H1155 0.929 . S
C1129 Tb1120 2.764 . S
C1129 C1123 1.504 . S
C1129 O1141 1.239 . S
C1129 O1142 1.263 . S
O1130 Tb1120 2.325 . S
O1130 C1140 1.236 . S
O1131 Tb1121 2.322 . S
O1131 C1140 1.257 . S
O1132 Tb1121 2.349 . S
O1132 C1143 1.261 . S
O1133 Tb1120 2.303 . S
O1133 C1143 1.257 . S
O1134 Tb1121 2.415 . S
O1134 C1150 1.239 . S
O1135 Tb1121 2.399 . S
O1135 C1150 1.263 . S
O1136 Tb1121 2.325 . S
O1136 C1151 1.236 . S
O1137 Tb1120 2.322 . S
O1137 C1151 1.257 . S
O1138 Tb1120 2.349 . S
O1138 C1122 1.261 . S
O1139 Tb1121 2.303 . S
O1139 C1122 1.257 . S
C1140 O1130 1.236 . S
C1140 O1131 1.257 . S
O1141 Tb1120 2.415 . S
O1141 C1129 1.239 . S
O1142 Tb1120 2.399 . S
O1142 C1129 1.263 . S
C1143 O1132 1.261 . S
C1143 O1133 1.257 . S
C1144 C1147 1.358 . S
C1144 C1148 1.332 . S
C1144 C1150 1.504 . S
C1145 C1146 1.373 . S
C1145 C1149 1.308 . S
C1146 C1145 1.373 . S
C1146 C1147 1.429 . S
C1146 H1156 0.932 . S
C1147 C1144 1.358 . S
C1147 C1146 1.429 . S
C1147 H1157 0.930 . S
C1148 C1144 1.332 . S
C1148 C1149 1.394 . S
C1148 H1158 0.932 . S
C1149 C1145 1.308 . S
C1149 C1148 1.394 . S
C1149 H1159 0.929 . S
C1150 Tb1121 2.764 . S
C1150 O1134 1.239 . S
C1150 O1135 1.263 . S
C1150 C1144 1.504 . S
C1151 O1136 1.236 . S
C1151 O1137 1.257 . S
H1152 C1125 0.932 1_655 S
H1153 C1126 0.930 . S
H1154 C1127 0.932 . S
H1155 C1128 0.929 . S
H1156 C1146 0.932 . S
H1157 C1147 0.930 . S
H1158 C1148 0.932 . S
H1159 C1149 0.929 . S
Tb1160 C1169 2.764 . S
Tb1160 O1170 2.325 . S
Tb1160 O1173 2.303 . S
Tb1160 O1177 2.322 . S
Tb1160 O1178 2.349 . S
Tb1160 O1181 2.415 . S
Tb1160 O1182 2.399 . S
Tb1161 O1171 2.322 . S
Tb1161 O1172 2.349 . S
Tb1161 O1174 2.415 . S
Tb1161 O1175 2.399 . S
Tb1161 O1176 2.325 . S
Tb1161 O1179 2.303 . S
Tb1161 C1190 2.764 . S
C1162 O1178 1.261 . S
C1162 O1179 1.257 . S
C1163 C1166 1.358 . S
C1163 C1167 1.332 . S
C1163 C1169 1.504 . S
C1164 C1165 1.373 . S
C1164 C1168 1.308 . S
C1165 C1164 1.373 . S
C1165 C1166 1.429 . S
C1165 H1192 0.932 . S
C1166 C1163 1.358 . S
C1166 C1165 1.429 . S
C1166 H1193 0.930 . S
C1167 C1163 1.332 . S
C1167 C1168 1.394 . S
C1167 H1194 0.932 . S
C1168 C1164 1.308 . S
C1168 C1167 1.394 . S
C1168 H1195 0.929 . S
C1169 Tb1160 2.764 . S
C1169 C1163 1.504 . S
C1169 O1181 1.239 . S
C1169 O1182 1.263 . S
O1170 Tb1160 2.325 . S
O1170 C1180 1.236 . S
O1171 Tb1161 2.322 . S
O1171 C1180 1.257 . S
O1172 Tb1161 2.349 . S
O1172 C1183 1.261 . S
O1173 Tb1160 2.303 . S
O1173 C1183 1.257 . S
O1174 Tb1161 2.415 . S
O1174 C1190 1.239 . S
O1175 Tb1161 2.399 . S
O1175 C1190 1.263 . S
O1176 Tb1161 2.325 . S
O1176 C1191 1.236 . S
O1177 Tb1160 2.322 . S
O1177 C1191 1.257 . S
O1178 Tb1160 2.349 . S
O1178 C1162 1.261 . S
O1179 Tb1161 2.303 . S
O1179 C1162 1.257 . S
C1180 O1170 1.236 . S
C1180 O1171 1.257 . S
O1181 Tb1160 2.415 . S
O1181 C1169 1.239 . S
O1182 Tb1160 2.399 . S
O1182 C1169 1.263 . S
C1183 O1172 1.261 . S
C1183 O1173 1.257 . S
C1184 C1187 1.358 . S
C1184 C1188 1.332 . S
C1184 C1190 1.504 . S
C1185 C1186 1.373 . S
C1185 C1189 1.308 . S
C1186 C1185 1.373 . S
C1186 C1187 1.429 . S
C1186 H1196 0.932 . S
C1187 C1184 1.358 . S
C1187 C1186 1.429 . S
C1187 H1197 0.930 . S
C1188 C1184 1.332 . S
C1188 C1189 1.394 . S
C1188 H1198 0.932 . S
C1189 C1185 1.308 . S
C1189 C1188 1.394 . S
C1189 H1199 0.929 . S
C1190 Tb1161 2.764 . S
C1190 O1174 1.239 . S
C1190 O1175 1.263 . S
C1190 C1184 1.504 . S
C1191 O1176 1.236 . S
C1191 O1177 1.257 . S
H1192 C1165 0.932 . S
H1193 C1166 0.930 . S
H1194 C1167 0.932 . S
H1195 C1168 0.929 . S
H1196 C1186 0.932 . S
H1197 C1187 0.930 . S
H1198 C1188 0.932 . S
H1199 C1189 0.929 . S
Tb1200 C1209 2.764 . S
Tb1200 O1210 2.325 . S
Tb1200 O1213 2.303 . S
Tb1200 O1217 2.322 . S
Tb1200 O1218 2.349 . S
Tb1200 O1221 2.415 . S
Tb1200 O1222 2.399 . S
Tb1201 O1211 2.322 . S
Tb1201 O1212 2.349 . S
Tb1201 O1214 2.415 . S
Tb1201 O1215 2.399 . S
Tb1201 O1216 2.325 . S
Tb1201 O1219 2.303 . S
Tb1201 C1230 2.764 . S
C1202 O1218 1.261 . S
C1202 O1219 1.257 . S
C1203 C1206 1.358 . S
C1203 C1207 1.332 . S
C1203 C1209 1.504 . S
C1204 C1205 1.373 . S
C1204 C1208 1.308 . S
C1205 C1204 1.373 . S
C1205 C1206 1.429 . S
C1205 H1232 0.932 . S
C1206 C1203 1.358 . S
C1206 C1205 1.429 . S
C1206 H1233 0.930 . S
C1207 C1203 1.332 . S
C1207 C1208 1.394 . S
C1207 H1234 0.932 . S
C1208 C1204 1.308 . S
C1208 C1207 1.394 . S
C1208 H1235 0.929 . S
C1209 Tb1200 2.764 . S
C1209 C1203 1.504 . S
C1209 O1221 1.239 . S
C1209 O1222 1.263 . S
O1210 Tb1200 2.325 . S
O1210 C1220 1.236 . S
O1211 Tb1201 2.322 . S
O1211 C1220 1.257 . S
O1212 Tb1201 2.349 . S
O1212 C1223 1.261 . S
O1213 Tb1200 2.303 . S
O1213 C1223 1.257 . S
O1214 Tb1201 2.415 . S
O1214 C1230 1.239 . S
O1215 Tb1201 2.399 . S
O1215 C1230 1.263 . S
O1216 Tb1201 2.325 . S
O1216 C1231 1.236 . S
O1217 Tb1200 2.322 . S
O1217 C1231 1.257 . S
O1218 Tb1200 2.349 . S
O1218 C1202 1.261 . S
O1219 Tb1201 2.303 . S
O1219 C1202 1.257 . S
C1220 O1210 1.236 . S
C1220 O1211 1.257 . S
O1221 Tb1200 2.415 . S
O1221 C1209 1.239 . S
O1222 Tb1200 2.399 . S
O1222 C1209 1.263 . S
C1223 O1212 1.261 . S
C1223 O1213 1.257 . S
C1224 C1227 1.358 . S
C1224 C1228 1.332 . S
C1224 C1230 1.504 . S
C1225 C1226 1.362 . S
C1225 C1229 1.308 1_655 S
C1226 C1225 1.362 . S
C1226 C1227 1.413 1_655 S
C1226 H1236 0.960 . S
C1227 C1224 1.358 . S
C1227 C1226 1.413 1_455 S
C1227 H1237 0.930 . S
C1228 C1224 1.332 . S
C1228 C1229 1.394 . S
C1228 H1238 0.932 . S
C1229 C1225 1.308 1_455 S
C1229 C1228 1.394 . S
C1229 H1239 0.929 . S
C1230 Tb1201 2.764 . S
C1230 O1214 1.239 . S
C1230 O1215 1.263 . S
C1230 C1224 1.504 . S
C1231 O1216 1.236 . S
C1231 O1217 1.257 . S
H1232 C1205 0.932 . S
H1233 C1206 0.930 . S
H1234 C1207 0.932 . S
H1235 C1208 0.929 . S
H1236 C1226 0.960 . S
H1237 C1227 0.930 . S
H1238 C1228 0.932 . S
H1239 C1229 0.929 . S
Tb1240 C1249 2.764 . S
Tb1240 O1250 2.325 . S
Tb1240 O1253 2.303 . S
Tb1240 O1257 2.322 . S
Tb1240 O1258 2.349 . S
Tb1240 O1261 2.415 . S
Tb1240 O1262 2.399 . S
Tb1241 O1251 2.322 . S
Tb1241 O1252 2.349 . S
Tb1241 O1254 2.415 . S
Tb1241 O1255 2.399 . S
Tb1241 O1256 2.325 . S
Tb1241 O1259 2.303 . S
Tb1241 C1270 2.764 . S
C1242 O1258 1.261 . S
C1242 O1259 1.257 . S
C1243 C1246 1.358 . S
C1243 C1247 1.332 . S
C1243 C1249 1.504 . S
C1244 C1245 1.373 . S
C1244 C1248 1.308 . S
C1245 C1244 1.373 . S
C1245 C1246 1.429 . S
C1245 H1272 0.932 . S
C1246 C1243 1.358 . S
C1246 C1245 1.429 . S
C1246 H1273 0.930 . S
C1247 C1243 1.332 . S
C1247 C1248 1.394 . S
C1247 H1274 0.932 . S
C1248 C1244 1.308 . S
C1248 C1247 1.394 . S
C1248 H1275 0.929 . S
C1249 Tb1240 2.764 . S
C1249 C1243 1.504 . S
C1249 O1261 1.239 . S
C1249 O1262 1.263 . S
O1250 Tb1240 2.325 . S
O1250 C1260 1.236 . S
O1251 Tb1241 2.322 . S
O1251 C1260 1.257 . S
O1252 Tb1241 2.349 . S
O1252 C1263 1.261 . S
O1253 Tb1240 2.303 . S
O1253 C1263 1.257 . S
O1254 Tb1241 2.415 . S
O1254 C1270 1.239 . S
O1255 Tb1241 2.399 . S
O1255 C1270 1.263 . S
O1256 Tb1241 2.325 . S
O1256 C1271 1.236 . S
O1257 Tb1240 2.322 . S
O1257 C1271 1.257 . S
O1258 Tb1240 2.349 . S
O1258 C1242 1.261 . S
O1259 Tb1241 2.303 . S
O1259 C1242 1.257 . S
C1260 O1250 1.236 . S
C1260 O1251 1.257 . S
O1261 Tb1240 2.415 . S
O1261 C1249 1.239 . S
O1262 Tb1240 2.399 . S
O1262 C1249 1.263 . S
C1263 O1252 1.261 . S
C1263 O1253 1.257 . S
C1264 C1267 1.358 . S
C1264 C1268 1.332 . S
C1264 C1270 1.504 . S
C1265 C1266 1.373 . S
C1265 C1269 1.308 . S
C1266 C1265 1.373 . S
C1266 C1267 1.429 . S
C1266 H1276 0.932 . S
C1267 C1264 1.358 . S
C1267 C1266 1.429 . S
C1267 H1277 0.930 . S
C1268 C1264 1.332 . S
C1268 C1269 1.394 . S
C1268 H1278 0.932 . S
C1269 C1265 1.308 . S
C1269 C1268 1.394 . S
C1269 H1279 0.929 . S
C1270 Tb1241 2.764 . S
C1270 O1254 1.239 . S
C1270 O1255 1.263 . S
C1270 C1264 1.504 . S
C1271 O1256 1.236 . S
C1271 O1257 1.257 . S
H1272 C1245 0.932 . S
H1273 C1246 0.930 . S
H1274 C1247 0.932 . S
H1275 C1248 0.929 . S
H1276 C1266 0.932 . S
H1277 C1267 0.930 . S
H1278 C1268 0.932 . S
H1279 C1269 0.929 . S
Tb1280 C1289 2.764 . S
Tb1280 O1290 2.325 . S
Tb1280 O1293 2.303 . S
Tb1280 O1297 2.322 . S
Tb1280 O1298 2.349 . S
Tb1280 O1301 2.415 . S
Tb1280 O1302 2.399 . S
Tb1281 O1291 2.322 . S
Tb1281 O1292 2.349 . S
Tb1281 O1294 2.415 . S
Tb1281 O1295 2.399 . S
Tb1281 O1296 2.325 . S
Tb1281 O1299 2.303 . S
Tb1281 C1310 2.764 . S
C1282 O1298 1.261 . S
C1282 O1299 1.257 . S
C1283 C1286 1.358 . S
C1283 C1287 1.332 . S
C1283 C1289 1.504 . S
C1284 C1285 1.373 . S
C1284 C1288 1.308 . S
C1285 C1284 1.373 . S
C1285 C1286 1.429 . S
C1285 H1312 0.932 . S
C1286 C1283 1.358 . S
C1286 C1285 1.429 . S
C1286 H1313 0.930 . S
C1287 C1283 1.332 . S
C1287 C1288 1.394 . S
C1287 H1314 0.932 . S
C1288 C1284 1.308 . S
C1288 C1287 1.394 . S
C1288 H1315 0.929 . S
C1289 Tb1280 2.764 . S
C1289 C1283 1.504 . S
C1289 O1301 1.239 . S
C1289 O1302 1.263 . S
O1290 Tb1280 2.325 . S
O1290 C1300 1.236 . S
O1291 Tb1281 2.322 . S
O1291 C1300 1.257 . S
O1292 Tb1281 2.349 . S
O1292 C1303 1.261 . S
O1293 Tb1280 2.303 . S
O1293 C1303 1.257 . S
O1294 Tb1281 2.415 . S
O1294 C1310 1.239 . S
O1295 Tb1281 2.399 . S
O1295 C1310 1.263 . S
O1296 Tb1281 2.325 . S
O1296 C1311 1.236 . S
O1297 Tb1280 2.322 . S
O1297 C1311 1.257 . S
O1298 Tb1280 2.349 . S
O1298 C1282 1.261 . S
O1299 Tb1281 2.303 . S
O1299 C1282 1.257 . S
C1300 O1290 1.236 . S
C1300 O1291 1.257 . S
O1301 Tb1280 2.415 . S
O1301 C1289 1.239 . S
O1302 Tb1280 2.399 . S
O1302 C1289 1.263 . S
C1303 O1292 1.261 . S
C1303 O1293 1.257 . S
C1304 C1307 1.358 . S
C1304 C1308 1.332 . S
C1304 C1310 1.504 . S
C1305 C1306 1.388 . S
C1305 C1309 1.308 1_545 S
C1306 C1305 1.388 . S
C1306 C1307 1.400 1_545 S
C1306 H1316 0.947 . S
C1307 C1304 1.358 . S
C1307 C1306 1.400 1_565 S
C1307 H1317 0.930 . S
C1308 C1304 1.332 . S
C1308 C1309 1.394 . S
C1308 H1318 0.932 . S
C1309 C1305 1.308 1_565 S
C1309 C1308 1.394 . S
C1309 H1319 0.929 . S
C1310 Tb1281 2.764 . S
C1310 O1294 1.239 . S
C1310 O1295 1.263 . S
C1310 C1304 1.504 . S
C1311 O1296 1.236 . S
C1311 O1297 1.257 . S
H1312 C1285 0.932 . S
H1313 C1286 0.930 . S
H1314 C1287 0.932 . S
H1315 C1288 0.929 . S
H1316 C1306 0.947 . S
H1317 C1307 0.930 . S
H1318 C1308 0.932 . S
H1319 C1309 0.929 . S
Tb1320 C1329 2.764 . S
Tb1320 O1330 2.325 . S
Tb1320 O1333 2.303 . S
Tb1320 O1337 2.322 . S
Tb1320 O1338 2.349 . S
Tb1320 O1341 2.415 . S
Tb1320 O1342 2.399 . S
Tb1321 O1331 2.322 . S
Tb1321 O1332 2.349 . S
Tb1321 O1334 2.415 1_455 S
Tb1321 O1335 2.399 . S
Tb1321 O1336 2.325 . S
Tb1321 O1339 2.303 . S
Tb1321 C1350 2.751 1_455 S
C1322 O1338 1.261 . S
C1322 O1339 1.257 . S
C1323 C1326 1.358 . S
C1323 C1327 1.332 . S
C1323 C1329 1.504 . S
C1324 C1325 1.373 . S
C1324 C1328 1.308 . S
C1325 C1324 1.373 . S
C1325 C1326 1.429 . S
C1325 H1352 0.932 . S
C1326 C1323 1.358 . S
C1326 C1325 1.429 . S
C1326 H1353 0.930 . S
C1327 C1323 1.332 . S
C1327 C1328 1.394 . S
C1327 H1354 0.932 . S
C1328 C1324 1.308 . S
C1328 C1327 1.394 . S
C1328 H1355 0.929 . S
C1329 Tb1320 2.764 . S
C1329 C1323 1.504 . S
C1329 O1341 1.239 . S
C1329 O1342 1.263 . S
O1330 Tb1320 2.325 . S
O1330 C1340 1.236 . S
O1331 Tb1321 2.322 . S
O1331 C1340 1.257 . S
O1332 Tb1321 2.349 . S
O1332 C1343 1.261 . S
O1333 Tb1320 2.303 . S
O1333 C1343 1.257 . S
O1334 Tb1321 2.415 1_655 S
O1334 C1350 1.263 . S
O1335 Tb1321 2.399 . S
O1335 C1350 1.226 1_455 S
O1336 Tb1321 2.325 . S
O1336 C1351 1.236 . S
O1337 Tb1320 2.322 . S
O1337 C1351 1.257 . S
O1338 Tb1320 2.349 . S
O1338 C1322 1.261 . S
O1339 Tb1321 2.303 . S
O1339 C1322 1.257 . S
C1340 O1330 1.236 . S
C1340 O1331 1.257 . S
O1341 Tb1320 2.415 . S
O1341 C1329 1.239 . S
O1342 Tb1320 2.399 . S
O1342 C1329 1.263 . S
C1343 O1332 1.261 . S
C1343 O1333 1.257 . S
C1344 C1347 1.358 . S
C1344 C1348 1.332 . S
C1344 C1350 1.518 . S
C1345 C1346 1.373 . S
C1345 C1349 1.308 . S
C1346 C1345 1.373 . S
C1346 C1347 1.429 . S
C1346 H1356 0.932 . S
C1347 C1344 1.358 . S
C1347 C1346 1.429 . S
C1347 H1357 0.930 . S
C1348 C1344 1.332 . S
C1348 C1349 1.394 . S
C1348 H1358 0.932 . S
C1349 C1345 1.308 . S
C1349 C1348 1.394 . S
C1349 H1359 0.929 . S
C1350 Tb1321 2.751 1_655 S
C1350 O1334 1.263 . S
C1350 O1335 1.226 1_655 S
C1350 C1344 1.518 . S
C1351 O1336 1.236 . S
C1351 O1337 1.257 . S
H1352 C1325 0.932 . S
H1353 C1326 0.930 . S
H1354 C1327 0.932 . S
H1355 C1328 0.929 . S
H1356 C1346 0.932 . S
H1357 C1347 0.930 . S
H1358 C1348 0.932 . S
H1359 C1349 0.929 . S
Tb1360 C1369 2.764 . S
Tb1360 O1370 2.325 . S
Tb1360 O1373 2.303 . S
Tb1360 O1377 2.322 . S
Tb1360 O1378 2.349 . S
Tb1360 O1381 2.415 . S
Tb1360 O1382 2.399 . S
Tb1361 O1371 2.322 . S
Tb1361 O1372 2.349 . S
Tb1361 O1374 2.415 . S
Tb1361 O1375 2.399 . S
Tb1361 O1376 2.325 . S
Tb1361 O1379 2.303 . S
Tb1361 C1390 2.764 . S
C1362 O1378 1.261 . S
C1362 O1379 1.257 . S
C1363 C1366 1.358 . S
C1363 C1367 1.332 . S
C1363 C1369 1.504 . S
C1364 C1365 1.373 . S
C1364 C1368 1.308 . S
C1365 C1364 1.373 . S
C1365 C1366 1.429 . S
C1365 H1392 0.932 . S
C1366 C1363 1.358 . S
C1366 C1365 1.429 . S
C1366 H1393 0.930 . S
C1367 C1363 1.332 . S
C1367 C1368 1.394 . S
C1367 H1394 0.932 . S
C1368 C1364 1.308 . S
C1368 C1367 1.394 . S
C1368 H1395 0.929 . S
C1369 Tb1360 2.764 . S
C1369 C1363 1.504 . S
C1369 O1381 1.239 . S
C1369 O1382 1.263 . S
O1370 Tb1360 2.325 . S
O1370 C1380 1.236 . S
O1371 Tb1361 2.322 . S
O1371 C1380 1.257 . S
O1372 Tb1361 2.349 . S
O1372 C1383 1.261 . S
O1373 Tb1360 2.303 . S
O1373 C1383 1.257 . S
O1374 Tb1361 2.415 . S
O1374 C1390 1.239 . S
O1375 Tb1361 2.399 . S
O1375 C1390 1.263 . S
O1376 Tb1361 2.325 . S
O1376 C1391 1.236 . S
O1377 Tb1360 2.322 . S
O1377 C1391 1.257 . S
O1378 Tb1360 2.349 . S
O1378 C1362 1.261 . S
O1379 Tb1361 2.303 . S
O1379 C1362 1.257 . S
C1380 O1370 1.236 . S
C1380 O1371 1.257 . S
O1381 Tb1360 2.415 . S
O1381 C1369 1.239 . S
O1382 Tb1360 2.399 . S
O1382 C1369 1.263 . S
C1383 O1372 1.261 . S
C1383 O1373 1.257 . S
C1384 C1387 1.358 . S
C1384 C1388 1.332 . S
C1384 C1390 1.504 . S
C1385 C1386 1.373 . S
C1385 C1389 1.308 . S
C1386 C1385 1.373 . S
C1386 C1387 1.429 . S
C1386 H1396 0.932 . S
C1387 C1384 1.358 . S
C1387 C1386 1.429 . S
C1387 H1397 0.930 . S
C1388 C1384 1.332 . S
C1388 C1389 1.394 . S
C1388 H1398 0.932 . S
C1389 C1385 1.308 . S
C1389 C1388 1.394 . S
C1389 H1399 0.929 . S
C1390 Tb1361 2.764 . S
C1390 O1374 1.239 . S
C1390 O1375 1.263 . S
C1390 C1384 1.504 . S
C1391 O1376 1.236 . S
C1391 O1377 1.257 . S
H1392 C1365 0.932 . S
H1393 C1366 0.930 . S
H1394 C1367 0.932 . S
H1395 C1368 0.929 . S
H1396 C1386 0.932 . S
H1397 C1387 0.930 . S
H1398 C1388 0.932 . S
H1399 C1389 0.929 . S
Tb1400 C1409 2.764 . S
Tb1400 O1410 2.325 . S
Tb1400 O1413 2.303 . S
Tb1400 O1417 2.322 . S
Tb1400 O1418 2.349 . S
Tb1400 O1421 2.415 . S
Tb1400 O1422 2.399 . S
Tb1401 O1411 2.322 . S
Tb1401 O1412 2.349 . S
Tb1401 O1414 2.415 1_565 S
Tb1401 O1415 2.399 . S
Tb1401 O1416 2.325 . S
Tb1401 O1419 2.303 . S
Tb1401 C1430 2.727 1_565 S
C1402 O1418 1.261 . S
C1402 O1419 1.257 . S
C1403 C1406 1.358 . S
C1403 C1407 1.332 . S
C1403 C1409 1.504 . S
C1404 C1405 1.373 . S
C1404 C1408 1.308 . S
C1405 C1404 1.373 . S
C1405 C1406 1.429 . S
C1405 H1432 0.932 . S
C1406 C1403 1.358 . S
C1406 C1405 1.429 . S
C1406 H1433 0.930 . S
C1407 C1403 1.332 . S
C1407 C1408 1.394 . S
C1407 H1434 0.932 . S
C1408 C1404 1.308 . S
C1408 C1407 1.394 . S
C1408 H1435 0.929 . S
C1409 Tb1400 2.764 . S
C1409 C1403 1.504 . S
C1409 O1421 1.239 . S
C1409 O1422 1.263 . S
O1410 Tb1400 2.325 . S
O1410 C1420 1.236 . S
O1411 Tb1401 2.322 . S
O1411 C1420 1.257 . S
O1412 Tb1401 2.349 . S
O1412 C1423 1.261 . S
O1413 Tb1400 2.303 . S
O1413 C1423 1.257 . S
O1414 Tb1401 2.415 1_545 S
O1414 C1430 1.227 . S
O1415 Tb1401 2.399 . S
O1415 C1430 1.240 1_565 S
O1416 Tb1401 2.325 . S
O1416 C1431 1.236 . S
O1417 Tb1400 2.322 . S
O1417 C1431 1.257 . S
O1418 Tb1400 2.349 . S
O1418 C1402 1.261 . S
O1419 Tb1401 2.303 . S
O1419 C1402 1.257 . S
C1420 O1410 1.236 . S
C1420 O1411 1.257 . S
O1421 Tb1400 2.415 . S
O1421 C1409 1.239 . S
O1422 Tb1400 2.399 . S
O1422 C1409 1.263 . S
C1423 O1412 1.261 . S
C1423 O1413 1.257 . S
C1424 C1427 1.358 . S
C1424 C1428 1.332 . S
C1424 C1430 1.540 . S
C1425 C1426 1.373 . S
C1425 C1429 1.308 . S
C1426 C1425 1.373 . S
C1426 C1427 1.429 . S
C1426 H1436 0.932 . S
C1427 C1424 1.358 . S
C1427 C1426 1.429 . S
C1427 H1437 0.930 . S
C1428 C1424 1.332 . S
C1428 C1429 1.394 . S
C1428 H1438 0.932 . S
C1429 C1425 1.308 . S
C1429 C1428 1.394 . S
C1429 H1439 0.929 . S
C1430 Tb1401 2.727 1_545 S
C1430 O1414 1.227 . S
C1430 O1415 1.240 1_545 S
C1430 C1424 1.540 . S
C1431 O1416 1.236 . S
C1431 O1417 1.257 . S
H1432 C1405 0.932 . S
H1433 C1406 0.930 . S
H1434 C1407 0.932 . S
H1435 C1408 0.929 . S
H1436 C1426 0.932 . S
H1437 C1427 0.930 . S
H1438 C1428 0.932 . S
H1439 C1429 0.929 . S
C1440 C1441 1.369 . S
C1440 C1442 1.419 . S
C1440 H1444 0.930 . S
C1441 C1440 1.369 . S
C1441 C1450 1.429 . S
C1442 C1440 1.419 . S
C1442 C1443 1.363 . S
C1442 H1445 0.929 . S
C1443 C1442 1.363 . S
C1443 C1449 1.428 . S
H1444 C1440 0.930 . S
H1445 C1442 0.929 . S
S1446 N1447 1.613 . S
S1446 N1448 1.610 . S
N1447 S1446 1.613 . S
N1447 C1450 1.350 . S
N1448 S1446 1.610 . S
N1448 C1449 1.351 . S
C1449 C1443 1.428 . S
C1449 N1448 1.351 . S
C1449 C1450 1.434 . S
C1450 C1441 1.429 . S
C1450 N1447 1.350 . S
C1450 C1449 1.434 . S
C1451 C1452 1.369 . S
C1451 C1453 1.419 1_545 S
C1451 H1455 0.930 . S
C1452 C1451 1.369 . S
C1452 C1461 1.429 . S
C1453 C1451 1.419 1_565 S
C1453 C1454 1.363 . S
C1453 H1456 0.929 . S
C1454 C1453 1.363 . S
C1454 C1460 1.428 . S
H1455 C1451 0.930 . S
H1456 C1453 0.929 . S
S1457 N1458 1.613 . S
S1457 N1459 1.610 1_545 S
N1458 S1457 1.613 . S
N1458 C1461 1.350 . S
N1459 S1457 1.610 1_565 S
N1459 C1460 1.351 . S
C1460 C1454 1.428 . S
C1460 N1459 1.351 . S
C1460 C1461 1.434 1_565 S
C1461 C1452 1.429 . S
C1461 N1458 1.350 . S
C1461 C1460 1.434 1_545 S
C1462 C1463 1.369 . S
C1462 C1464 1.419 1_455 S
C1462 H1466 0.930 . S
C1463 C1462 1.369 . S
C1463 C1472 1.429 . S
C1464 C1462 1.419 1_655 S
C1464 C1465 1.363 . S
C1464 H1467 0.929 . S
C1465 C1464 1.363 . S
C1465 C1471 1.428 . S
H1466 C1462 0.930 . S
H1467 C1464 0.929 . S
S1468 N1469 1.613 . S
S1468 N1470 1.610 1_455 S
N1469 S1468 1.613 . S
N1469 C1472 1.350 . S
N1470 S1468 1.610 1_655 S
N1470 C1471 1.351 . S
C1471 C1465 1.428 . S
C1471 N1470 1.351 . S
C1471 C1472 1.434 1_655 S
C1472 C1463 1.429 . S
C1472 N1469 1.350 . S
C1472 C1471 1.434 1_455 S
C1473 C1474 1.369 . S
C1473 C1475 1.419 . S
C1473 H1477 0.930 . S
C1474 C1473 1.369 . S
C1474 C1483 1.429 . S
C1475 C1473 1.419 . S
C1475 C1476 1.363 . S
C1475 H1478 0.929 . S
C1476 C1475 1.363 . S
C1476 C1482 1.428 . S
H1477 C1473 0.930 . S
H1478 C1475 0.929 . S
S1479 N1480 1.613 . S
S1479 N1481 1.610 . S
N1480 S1479 1.613 . S
N1480 C1483 1.350 . S
N1481 S1479 1.610 . S
N1481 C1482 1.351 . S
C1482 C1476 1.428 . S
C1482 N1481 1.351 . S
C1482 C1483 1.434 . S
C1483 C1474 1.429 . S
C1483 N1480 1.350 . S
C1483 C1482 1.434 . S
C1484 C1485 1.369 . S
C1484 C1486 1.419 1_565 S
C1484 H1488 0.930 . S
C1485 C1484 1.369 . S
C1485 C1494 1.429 . S
C1486 C1484 1.419 1_545 S
C1486 C1487 1.363 . S
C1486 H1489 0.929 . S
C1487 C1486 1.363 . S
C1487 C1493 1.428 1_545 S
H1488 C1484 0.930 . S
H1489 C1486 0.929 . S
S1490 N1491 1.613 . S
S1490 N1492 1.610 . S
N1491 S1490 1.613 . S
N1491 C1494 1.350 . S
N1492 S1490 1.610 . S
N1492 C1493 1.351 . S
C1493 C1487 1.428 1_565 S
C1493 N1492 1.351 . S
C1493 C1494 1.434 . S
C1494 C1485 1.429 . S
C1494 N1491 1.350 . S
C1494 C1493 1.434 . S
C1495 C1496 1.369 1_455 S
C1495 C1497 1.419 . S
C1495 H1499 0.930 . S
C1496 C1495 1.369 1_655 S
C1496 C1505 1.429 . S
C1497 C1495 1.419 . S
C1497 C1498 1.363 . S
C1497 H1500 0.929 . S
C1498 C1497 1.363 . S
C1498 C1504 1.428 . S
H1499 C1495 0.930 . S
H1500 C1497 0.929 . S
S1501 N1502 1.613 . S
S1501 N1503 1.610 1_655 S
N1502 S1501 1.613 . S
N1502 C1505 1.350 . S
N1503 S1501 1.610 1_455 S
N1503 C1504 1.351 . S
C1504 C1498 1.428 . S
C1504 N1503 1.351 . S
C1504 C1505 1.434 1_455 S
C1505 C1496 1.429 . S
C1505 N1502 1.350 . S
C1505 C1504 1.434 1_655 S
C1506 C1507 1.369 . S
C1506 C1508 1.419 . S
C1506 H1510 0.930 . S
C1507 C1506 1.369 . S
C1507 C1516 1.429 . S
C1508 C1506 1.419 . S
C1508 C1509 1.363 . S
C1508 H1511 0.929 . S
C1509 C1508 1.363 . S
C1509 C1515 1.428 . S
H1510 C1506 0.930 . S
H1511 C1508 0.929 . S
S1512 N1513 1.613 . S
S1512 N1514 1.610 . S
N1513 S1512 1.613 . S
N1513 C1516 1.350 . S
N1514 S1512 1.610 . S
N1514 C1515 1.351 . S
C1515 C1509 1.428 . S
C1515 N1514 1.351 . S
C1515 C1516 1.434 . S
C1516 C1507 1.429 . S
C1516 N1513 1.350 . S
C1516 C1515 1.434 . S
C1517 C1518 1.369 . S
C1517 C1519 1.419 1_545 S
C1517 H1521 0.930 . S
C1518 C1517 1.369 . S
C1518 C1527 1.429 . S
C1519 C1517 1.419 1_565 S
C1519 C1520 1.363 . S
C1519 H1522 0.929 . S
C1520 C1519 1.363 . S
C1520 C1526 1.428 . S
H1521 C1517 0.930 . S
H1522 C1519 0.929 . S
S1523 N1524 1.613 . S
S1523 N1525 1.610 1_545 S
N1524 S1523 1.613 . S
N1524 C1527 1.350 . S
N1525 S1523 1.610 1_565 S
N1525 C1526 1.351 . S
C1526 C1520 1.428 . S
C1526 N1525 1.351 . S
C1526 C1527 1.434 1_565 S
C1527 C1518 1.429 . S
C1527 N1524 1.350 . S
C1527 C1526 1.434 1_545 S
C1528 C1529 1.369 . S
C1528 C1530 1.419 1_655 S
C1528 H1532 0.930 . S
C1529 C1528 1.369 . S
C1529 C1538 1.429 . S
C1530 C1528 1.419 1_455 S
C1530 C1531 1.363 . S
C1530 H1533 0.929 . S
C1531 C1530 1.363 . S
C1531 C1537 1.428 . S
H1532 C1528 0.930 . S
H1533 C1530 0.929 . S
S1534 N1535 1.613 1_455 S
S1534 N1536 1.610 . S
N1535 S1534 1.613 1_655 S
N1535 C1538 1.350 . S
N1536 S1534 1.610 . S
N1536 C1537 1.351 . S
C1537 C1531 1.428 . S
C1537 N1536 1.351 . S
C1537 C1538 1.434 1_455 S
C1538 C1529 1.429 . S
C1538 N1535 1.350 . S
C1538 C1537 1.434 1_655 S
C1539 C1540 1.369 . S
C1539 C1541 1.419 . S
C1539 H1543 0.930 . S
C1540 C1539 1.369 . S
C1540 C1549 1.429 . S
C1541 C1539 1.419 . S
C1541 C1542 1.363 . S
C1541 H1544 0.929 . S
C1542 C1541 1.363 . S
C1542 C1548 1.428 . S
H1543 C1539 0.930 . S
H1544 C1541 0.929 . S
S1545 N1546 1.613 . S
S1545 N1547 1.610 . S
N1546 S1545 1.613 . S
N1546 C1549 1.350 . S
N1547 S1545 1.610 . S
N1547 C1548 1.351 . S
C1548 C1542 1.428 . S
C1548 N1547 1.351 . S
C1548 C1549 1.434 . S
C1549 C1540 1.429 . S
C1549 N1546 1.350 . S
C1549 C1548 1.434 . S
C1550 C1551 1.369 . S
C1550 C1552 1.419 1_545 S
C1550 H1554 0.930 . S
C1551 C1550 1.369 . S
C1551 C1560 1.429 . S
C1552 C1550 1.419 1_565 S
C1552 C1553 1.363 . S
C1552 H1555 0.929 . S
C1553 C1552 1.363 . S
C1553 C1559 1.428 . S
H1554 C1550 0.930 . S
H1555 C1552 0.929 . S
S1556 N1557 1.613 . S
S1556 N1558 1.610 1_545 S
N1557 S1556 1.613 . S
N1557 C1560 1.350 . S
N1558 S1556 1.610 1_565 S
N1558 C1559 1.351 . S
C1559 C1553 1.428 . S
C1559 N1558 1.351 . S
C1559 C1560 1.434 1_565 S
C1560 C1551 1.429 . S
C1560 N1557 1.350 . S
C1560 C1559 1.434 1_545 S
C1561 C1562 1.369 . S
C1561 C1563 1.419 1_655 S
C1561 H1565 0.930 . S
C1562 C1561 1.369 . S
C1562 C1571 1.429 . S
C1563 C1561 1.419 1_455 S
C1563 C1564 1.363 . S
C1563 H1566 0.929 . S
C1564 C1563 1.363 . S
C1564 C1570 1.428 . S
H1565 C1561 0.930 . S
H1566 C1563 0.929 . S
S1567 N1568 1.613 . S
S1567 N1569 1.610 1_655 S
N1568 S1567 1.613 . S
N1568 C1571 1.350 . S
N1569 S1567 1.610 1_455 S
N1569 C1570 1.351 . S
C1570 C1564 1.428 . S
C1570 N1569 1.351 . S
C1570 C1571 1.434 1_455 S
C1571 C1562 1.429 . S
C1571 N1568 1.350 . S
C1571 C1570 1.434 1_655 S
C1572 C1573 1.369 . S
C1572 C1574 1.419 . S
C1572 H1576 0.930 . S
C1573 C1572 1.369 . S
C1573 C1582 1.429 . S
C1574 C1572 1.419 . S
C1574 C1575 1.363 . S
C1574 H1577 0.929 . S
C1575 C1574 1.363 . S
C1575 C1581 1.428 . S
H1576 C1572 0.930 . S
H1577 C1574 0.929 . S
S1578 N1579 1.613 . S
S1578 N1580 1.610 . S
N1579 S1578 1.613 . S
N1579 C1582 1.350 . S
N1580 S1578 1.610 . S
N1580 C1581 1.351 . S
C1581 C1575 1.428 . S
C1581 N1580 1.351 . S
C1581 C1582 1.434 . S
C1582 C1573 1.429 . S
C1582 N1579 1.350 . S
C1582 C1581 1.434 . S
C1583 C1584 1.369 . S
C1583 C1585 1.419 . S
C1583 H1587 0.930 . S
C1584 C1583 1.369 . S
C1584 C1593 1.429 . S
C1585 C1583 1.419 . S
C1585 C1586 1.363 . S
C1585 H1588 0.929 . S
C1586 C1585 1.363 . S
C1586 C1592 1.428 . S
H1587 C1583 0.930 . S
H1588 C1585 0.929 . S
S1589 N1590 1.613 . S
S1589 N1591 1.610 . S
N1590 S1589 1.613 . S
N1590 C1593 1.350 . S
N1591 S1589 1.610 . S
N1591 C1592 1.351 . S
C1592 C1586 1.428 . S
C1592 N1591 1.351 . S
C1592 C1593 1.434 . S
C1593 C1584 1.429 . S
C1593 N1590 1.350 . S
C1593 C1592 1.434 . S
C1594 C1595 1.369 . S
C1594 C1596 1.419 . S
C1594 H1598 0.930 . S
C1595 C1594 1.369 . S
C1595 C1604 1.429 . S
C1596 C1594 1.419 . S
C1596 C1597 1.363 . S
C1596 H1599 0.929 . S
C1597 C1596 1.363 . S
C1597 C1603 1.428 . S
H1598 C1594 0.930 . S
H1599 C1596 0.929 . S
S1600 N1601 1.613 . S
S1600 N1602 1.610 . S
N1601 S1600 1.613 . S
N1601 C1604 1.350 . S
N1602 S1600 1.610 . S
N1602 C1603 1.351 . S
C1603 C1597 1.428 . S
C1603 N1602 1.351 . S
C1603 C1604 1.434 . S
C1604 C1595 1.429 . S
C1604 N1601 1.350 . S
C1604 C1603 1.434 . S
C1605 C1606 1.369 . S
C1605 C1607 1.419 . S
C1605 H1609 0.930 . S
C1606 C1605 1.369 . S
C1606 C1615 1.429 . S
C1607 C1605 1.419 . S
C1607 C1608 1.363 . S
C1607 H1610 0.929 . S
C1608 C1607 1.363 . S
C1608 C1614 1.428 . S
H1609 C1605 0.930 . S
H1610 C1607 0.929 . S
S1611 N1612 1.613 . S
S1611 N1613 1.610 . S
N1612 S1611 1.613 . S
N1612 C1615 1.350 . S
N1613 S1611 1.610 . S
N1613 C1614 1.351 . S
C1614 C1608 1.428 . S
C1614 N1613 1.351 . S
C1614 C1615 1.434 . S
C1615 C1606 1.429 . S
C1615 N1612 1.350 . S
C1615 C1614 1.434 . S
C1616 C1617 1.369 . S
C1616 C1618 1.419 . S
C1616 H1620 0.930 . S
C1617 C1616 1.369 . S
C1617 C1626 1.429 . S
C1618 C1616 1.419 . S
C1618 C1619 1.363 . S
C1618 H1621 0.929 . S
C1619 C1618 1.363 . S
C1619 C1625 1.428 . S
H1620 C1616 0.930 . S
H1621 C1618 0.929 . S
S1622 N1623 1.613 . S
S1622 N1624 1.610 . S
N1623 S1622 1.613 . S
N1623 C1626 1.350 . S
N1624 S1622 1.610 . S
N1624 C1625 1.351 . S
C1625 C1619 1.428 . S
C1625 N1624 1.351 . S
C1625 C1626 1.434 . S
C1626 C1617 1.429 . S
C1626 N1623 1.350 . S
C1626 C1625 1.434 . S
C1627 C1628 1.369 . S
C1627 C1629 1.419 . S
C1627 H1631 0.930 . S
C1628 C1627 1.369 . S
C1628 C1637 1.429 . S
C1629 C1627 1.419 . S
C1629 C1630 1.363 . S
C1629 H1632 0.929 . S
C1630 C1629 1.363 . S
C1630 C1636 1.428 . S
H1631 C1627 0.930 . S
H1632 C1629 0.929 . S
S1633 N1634 1.613 . S
S1633 N1635 1.610 . S
N1634 S1633 1.613 . S
N1634 C1637 1.350 . S
N1635 S1633 1.610 . S
N1635 C1636 1.351 . S
C1636 C1630 1.428 . S
C1636 N1635 1.351 . S
C1636 C1637 1.434 . S
C1637 C1628 1.429 . S
C1637 N1634 1.350 . S
C1637 C1636 1.434 . S
C1638 C1639 1.369 . S
C1638 C1640 1.419 . S
C1638 H1642 0.930 . S
C1639 C1638 1.369 . S
C1639 C1648 1.429 . S
C1640 C1638 1.419 . S
C1640 C1641 1.363 . S
C1640 H1643 0.929 . S
C1641 C1640 1.363 . S
C1641 C1647 1.428 . S
H1642 C1638 0.930 . S
H1643 C1640 0.929 . S
S1644 N1645 1.613 . S
S1644 N1646 1.610 . S
N1645 S1644 1.613 . S
N1645 C1648 1.350 . S
N1646 S1644 1.610 . S
N1646 C1647 1.351 . S
C1647 C1641 1.428 . S
C1647 N1646 1.351 . S
C1647 C1648 1.434 . S
C1648 C1639 1.429 . S
C1648 N1645 1.350 . S
C1648 C1647 1.434 . S
C1649 C1650 1.369 . S
C1649 C1651 1.419 . S
C1649 H1653 0.930 . S
C1650 C1649 1.369 . S
C1650 C1659 1.429 . S
C1651 C1649 1.419 . S
C1651 C1652 1.363 . S
C1651 H1654 0.929 . S
C1652 C1651 1.363 . S
C1652 C1658 1.428 . S
H1653 C1649 0.930 . S
H1654 C1651 0.929 . S
S1655 N1656 1.613 . S
S1655 N1657 1.610 . S
N1656 S1655 1.613 . S
N1656 C1659 1.350 . S
N1657 S1655 1.610 . S
N1657 C1658 1.351 . S
C1658 C1652 1.428 . S
C1658 N1657 1.351 . S
C1658 C1659 1.434 . S
C1659 C1650 1.429 . S
C1659 N1656 1.350 . S
C1659 C1658 1.434 . S
C1660 C1661 1.369 . S
C1660 C1662 1.419 . S
C1660 H1664 0.930 . S
C1661 C1660 1.369 . S
C1661 C1670 1.429 . S
C1662 C1660 1.419 . S
C1662 C1663 1.363 . S
C1662 H1665 0.929 1_554 S
C1663 C1662 1.363 . S
C1663 C1669 1.428 . S
H1664 C1660 0.930 . S
H1665 C1662 0.929 1_556 S
S1666 N1667 1.613 . S
S1666 N1668 1.610 . S
N1667 S1666 1.613 . S
N1667 C1670 1.350 . S
N1668 S1666 1.610 . S
N1668 C1669 1.351 . S
C1669 C1663 1.428 . S
C1669 N1668 1.351 . S
C1669 C1670 1.434 . S
C1670 C1661 1.429 . S
C1670 N1667 1.350 . S
C1670 C1669 1.434 . S
C1671 C1672 1.369 . S
C1671 C1673 1.419 . S
C1671 H1675 0.930 . S
C1672 C1671 1.369 . S
C1672 C1681 1.429 . S
C1673 C1671 1.419 . S
C1673 C1674 1.363 . S
C1673 H1676 0.929 . S
C1674 C1673 1.363 . S
C1674 C1680 1.428 . S
H1675 C1671 0.930 . S
H1676 C1673 0.929 . S
S1677 N1678 1.613 . S
S1677 N1679 1.610 . S
N1678 S1677 1.613 . S
N1678 C1681 1.350 . S
N1679 S1677 1.610 . S
N1679 C1680 1.351 . S
C1680 C1674 1.428 . S
C1680 N1679 1.351 . S
C1680 C1681 1.434 . S
C1681 C1672 1.429 . S
C1681 N1678 1.350 . S
C1681 C1680 1.434 . S
C1682 C1683 1.369 . S
C1682 C1684 1.419 . S
C1682 H1686 0.930 . S
C1683 C1682 1.369 . S
C1683 C1692 1.429 . S
C1684 C1682 1.419 . S
C1684 C1685 1.363 . S
C1684 H1687 0.929 . S
C1685 C1684 1.363 . S
C1685 C1691 1.428 . S
H1686 C1682 0.930 . S
H1687 C1684 0.929 . S
S1688 N1689 1.613 . S
S1688 N1690 1.610 . S
N1689 S1688 1.613 . S
N1689 C1692 1.350 . S
N1690 S1688 1.610 . S
N1690 C1691 1.351 . S
C1691 C1685 1.428 . S
C1691 N1690 1.351 . S
C1691 C1692 1.434 . S
C1692 C1683 1.429 . S
C1692 N1689 1.350 . S
C1692 C1691 1.434 . S
C1693 C1694 1.369 . S
C1693 C1695 1.419 . S
C1693 H1697 0.930 . S
C1694 C1693 1.369 . S
C1694 C1703 1.429 . S
C1695 C1693 1.419 . S
C1695 C1696 1.363 . S
C1695 H1698 0.929 . S
C1696 C1695 1.363 . S
C1696 C1702 1.428 . S
H1697 C1693 0.930 . S
H1698 C1695 0.929 . S
S1699 N1700 1.613 . S
S1699 N1701 1.610 . S
N1700 S1699 1.613 . S
N1700 C1703 1.350 . S
N1701 S1699 1.610 . S
N1701 C1702 1.351 . S
C1702 C1696 1.428 . S
C1702 N1701 1.351 . S
C1702 C1703 1.434 . S
C1703 C1694 1.429 . S
C1703 N1700 1.350 . S
C1703 C1702 1.434 . S
C1704 C1705 1.369 . S
C1704 C1706 1.419 . S
C1704 H1708 0.930 . S
C1705 C1704 1.369 . S
C1705 C1714 1.429 . S
C1706 C1704 1.419 . S
C1706 C1707 1.363 . S
C1706 H1709 0.929 . S
C1707 C1706 1.363 . S
C1707 C1713 1.428 . S
H1708 C1704 0.930 . S
H1709 C1706 0.929 . S
S1710 N1711 1.613 . S
S1710 N1712 1.610 . S
N1711 S1710 1.613 . S
N1711 C1714 1.350 . S
N1712 S1710 1.610 . S
N1712 C1713 1.351 . S
C1713 C1707 1.428 . S
C1713 N1712 1.351 . S
C1713 C1714 1.434 . S
C1714 C1705 1.429 . S
C1714 N1711 1.350 . S
C1714 C1713 1.434 . S
C1715 C1716 1.369 . S
C1715 C1717 1.419 . S
C1715 H1719 0.930 . S
C1716 C1715 1.369 . S
C1716 C1725 1.429 . S
C1717 C1715 1.419 . S
C1717 C1718 1.363 . S
C1717 H1720 0.929 . S
C1718 C1717 1.363 . S
C1718 C1724 1.428 . S
H1719 C1715 0.930 . S
H1720 C1717 0.929 . S
S1721 N1722 1.613 . S
S1721 N1723 1.610 . S
N1722 S1721 1.613 . S
N1722 C1725 1.350 . S
N1723 S1721 1.610 . S
N1723 C1724 1.351 . S
C1724 C1718 1.428 . S
C1724 N1723 1.351 . S
C1724 C1725 1.434 . S
C1725 C1716 1.429 . S
C1725 N1722 1.350 . S
C1725 C1724 1.434 . S
C1726 C1727 1.369 . S
C1726 C1728 1.419 . S
C1726 H1730 0.930 . S
C1727 C1726 1.369 . S
C1727 C1736 1.429 . S
C1728 C1726 1.419 . S
C1728 C1729 1.363 . S
C1728 H1731 0.929 . S
C1729 C1728 1.363 . S
C1729 C1735 1.428 . S
H1730 C1726 0.930 . S
H1731 C1728 0.929 . S
S1732 N1733 1.613 . S
S1732 N1734 1.610 . S
N1733 S1732 1.613 . S
N1733 C1736 1.350 . S
N1734 S1732 1.610 . S
N1734 C1735 1.351 . S
C1735 C1729 1.428 . S
C1735 N1734 1.351 . S
C1735 C1736 1.434 . S
C1736 C1727 1.429 . S
C1736 N1733 1.350 . S
C1736 C1735 1.434 . S
C1737 C1738 1.369 . S
C1737 C1739 1.419 . S
C1737 H1741 0.930 . S
C1738 C1737 1.369 . S
C1738 C1747 1.429 . S
C1739 C1737 1.419 . S
C1739 C1740 1.363 . S
C1739 H1742 0.929 . S
C1740 C1739 1.363 . S
C1740 C1746 1.428 . S
H1741 C1737 0.930 . S
H1742 C1739 0.929 . S
S1743 N1744 1.613 . S
S1743 N1745 1.610 . S
N1744 S1743 1.613 . S
N1744 C1747 1.350 . S
N1745 S1743 1.610 . S
N1745 C1746 1.351 . S
C1746 C1740 1.428 . S
C1746 N1745 1.351 . S
C1746 C1747 1.434 . S
C1747 C1738 1.429 . S
C1747 N1744 1.350 . S
C1747 C1746 1.434 . S
C1748 C1749 1.369 . S
C1748 C1750 1.419 . S
C1748 H1752 0.930 . S
C1749 C1748 1.369 . S
C1749 C1758 1.429 . S
C1750 C1748 1.419 . S
C1750 C1751 1.363 . S
C1750 H1753 0.929 . S
C1751 C1750 1.363 . S
C1751 C1757 1.428 . S
H1752 C1748 0.930 . S
H1753 C1750 0.929 . S
S1754 N1755 1.613 . S
S1754 N1756 1.610 . S
N1755 S1754 1.613 . S
N1755 C1758 1.350 . S
N1756 S1754 1.610 . S
N1756 C1757 1.351 . S
C1757 C1751 1.428 . S
C1757 N1756 1.351 . S
C1757 C1758 1.434 . S
C1758 C1749 1.429 . S
C1758 N1755 1.350 . S
C1758 C1757 1.434 . S
C1759 C1760 1.369 . S
C1759 C1761 1.419 . S
C1759 H1763 0.930 . S
C1760 C1759 1.369 . S
C1760 C1769 1.429 . S
C1761 C1759 1.419 . S
C1761 C1762 1.363 . S
C1761 H1764 0.929 . S
C1762 C1761 1.363 . S
C1762 C1768 1.428 . S
H1763 C1759 0.930 . S
H1764 C1761 0.929 . S
S1765 N1766 1.613 . S
S1765 N1767 1.610 . S
N1766 S1765 1.613 . S
N1766 C1769 1.350 . S
N1767 S1765 1.610 . S
N1767 C1768 1.351 . S
C1768 C1762 1.428 . S
C1768 N1767 1.351 . S
C1768 C1769 1.434 . S
C1769 C1760 1.429 . S
C1769 N1766 1.350 . S
C1769 C1768 1.434 . S
C1770 C1771 1.369 . S
C1770 C1772 1.419 . S
C1770 H1774 0.930 . S
C1771 C1770 1.369 . S
C1771 C1780 1.429 . S
C1772 C1770 1.419 . S
C1772 C1773 1.363 . S
C1772 H1775 0.929 . S
C1773 C1772 1.363 . S
C1773 C1779 1.428 . S
H1774 C1770 0.930 . S
H1775 C1772 0.929 . S
S1776 N1777 1.613 . S
S1776 N1778 1.610 . S
N1777 S1776 1.613 . S
N1777 C1780 1.350 . S
N1778 S1776 1.610 . S
N1778 C1779 1.351 . S
C1779 C1773 1.428 . S
C1779 N1778 1.351 . S
C1779 C1780 1.434 . S
C1780 C1771 1.429 . S
C1780 N1777 1.350 . S
C1780 C1779 1.434 . S
C1781 C1782 1.369 . S
C1781 C1783 1.419 . S
C1781 H1785 0.930 . S
C1782 C1781 1.369 . S
C1782 C1791 1.429 . S
C1783 C1781 1.419 . S
C1783 C1784 1.363 . S
C1783 H1786 0.929 . S
C1784 C1783 1.363 . S
C1784 C1790 1.428 . S
H1785 C1781 0.930 . S
H1786 C1783 0.929 . S
S1787 N1788 1.613 . S
S1787 N1789 1.610 . S
N1788 S1787 1.613 . S
N1788 C1791 1.350 . S
N1789 S1787 1.610 . S
N1789 C1790 1.351 . S
C1790 C1784 1.428 . S
C1790 N1789 1.351 . S
C1790 C1791 1.434 . S
C1791 C1782 1.429 . S
C1791 N1788 1.350 . S
C1791 C1790 1.434 . S
C1792 C1793 1.369 . S
C1792 C1794 1.419 . S
C1792 H1796 0.930 . S
C1793 C1792 1.369 . S
C1793 C1802 1.429 . S
C1794 C1792 1.419 . S
C1794 C1795 1.363 . S
C1794 H1797 0.929 . S
C1795 C1794 1.363 . S
C1795 C1801 1.428 . S
H1796 C1792 0.930 . S
H1797 C1794 0.929 . S
S1798 N1799 1.613 . S
S1798 N1800 1.610 . S
N1799 S1798 1.613 . S
N1799 C1802 1.350 . S
N1800 S1798 1.610 . S
N1800 C1801 1.351 . S
C1801 C1795 1.428 . S
C1801 N1800 1.351 . S
C1801 C1802 1.434 . S
C1802 C1793 1.429 . S
C1802 N1799 1.350 . S
C1802 C1801 1.434 . S
C1803 C1804 1.369 . S
C1803 C1805 1.419 . S
C1803 H1807 0.930 . S
C1804 C1803 1.369 . S
C1804 C1813 1.429 . S
C1805 C1803 1.419 . S
C1805 C1806 1.363 . S
C1805 H1808 0.929 . S
C1806 C1805 1.363 . S
C1806 C1812 1.428 . S
H1807 C1803 0.930 . S
H1808 C1805 0.929 . S
S1809 N1810 1.613 . S
S1809 N1811 1.610 . S
N1810 S1809 1.613 . S
N1810 C1813 1.350 . S
N1811 S1809 1.610 . S
N1811 C1812 1.351 . S
C1812 C1806 1.428 . S
C1812 N1811 1.351 . S
C1812 C1813 1.434 . S
C1813 C1804 1.429 . S
C1813 N1810 1.350 . S
C1813 C1812 1.434 . S
C1814 C1815 1.369 . S
C1814 C1816 1.419 . S
C1814 H1818 0.930 . S
C1815 C1814 1.369 . S
C1815 C1824 1.429 . S
C1816 C1814 1.419 . S
C1816 C1817 1.363 . S
C1816 H1819 0.929 . S
C1817 C1816 1.363 . S
C1817 C1823 1.428 . S
H1818 C1814 0.930 . S
H1819 C1816 0.929 . S
S1820 N1821 1.613 . S
S1820 N1822 1.610 . S
N1821 S1820 1.613 . S
N1821 C1824 1.350 . S
N1822 S1820 1.610 . S
N1822 C1823 1.351 . S
C1823 C1817 1.428 . S
C1823 N1822 1.351 . S
C1823 C1824 1.434 . S
C1824 C1815 1.429 . S
C1824 N1821 1.350 . S
C1824 C1823 1.434 . S
C1825 C1826 1.369 . S
C1825 C1827 1.419 . S
C1825 H1829 0.930 . S
C1826 C1825 1.369 . S
C1826 C1835 1.429 . S
C1827 C1825 1.419 . S
C1827 C1828 1.363 . S
C1827 H1830 0.929 . S
C1828 C1827 1.363 . S
C1828 C1834 1.428 . S
H1829 C1825 0.930 . S
H1830 C1827 0.929 . S
S1831 N1832 1.613 . S
S1831 N1833 1.610 . S
N1832 S1831 1.613 . S
N1832 C1835 1.350 . S
N1833 S1831 1.610 . S
N1833 C1834 1.351 . S
C1834 C1828 1.428 . S
C1834 N1833 1.351 . S
C1834 C1835 1.434 . S
C1835 C1826 1.429 . S
C1835 N1832 1.350 . S
C1835 C1834 1.434 . S
C1836 C1837 1.369 . S
C1836 C1838 1.419 . S
C1836 H1840 0.930 . S
C1837 C1836 1.369 . S
C1837 C1846 1.429 . S
C1838 C1836 1.419 . S
C1838 C1839 1.363 . S
C1838 H1841 0.929 . S
C1839 C1838 1.363 . S
C1839 C1845 1.428 . S
H1840 C1836 0.930 . S
H1841 C1838 0.929 . S
S1842 N1843 1.613 . S
S1842 N1844 1.610 . S
N1843 S1842 1.613 . S
N1843 C1846 1.350 . S
N1844 S1842 1.610 . S
N1844 C1845 1.351 . S
C1845 C1839 1.428 . S
C1845 N1844 1.351 . S
C1845 C1846 1.434 . S
C1846 C1837 1.429 . S
C1846 N1843 1.350 . S
C1846 C1845 1.434 . S
C1847 C1848 1.369 . S
C1847 C1849 1.419 . S
C1847 H1851 0.930 . S
C1848 C1847 1.369 . S
C1848 C1857 1.429 . S
C1849 C1847 1.419 . S
C1849 C1850 1.363 . S
C1849 H1852 0.929 . S
C1850 C1849 1.363 . S
C1850 C1856 1.428 . S
H1851 C1847 0.930 . S
H1852 C1849 0.929 . S
S1853 N1854 1.613 . S
S1853 N1855 1.610 1_545 S
N1854 S1853 1.613 . S
N1854 C1857 1.350 1_545 S
N1855 S1853 1.610 1_565 S
N1855 C1856 1.351 . S
C1856 C1850 1.428 . S
C1856 N1855 1.351 . S
C1856 C1857 1.434 . S
C1857 C1848 1.429 . S
C1857 N1854 1.350 1_565 S
C1857 C1856 1.434 . S
C1858 C1859 1.369 . S
C1858 C1860 1.419 . S
C1858 H1862 0.930 . S
C1859 C1858 1.369 . S
C1859 C1868 1.429 . S
C1860 C1858 1.419 . S
C1860 C1861 1.363 . S
C1860 H1863 0.929 . S
C1861 C1860 1.363 . S
C1861 C1867 1.428 . S
H1862 C1858 0.930 . S
H1863 C1860 0.929 . S
S1864 N1865 1.613 . S
S1864 N1866 1.610 . S
N1865 S1864 1.613 . S
N1865 C1868 1.350 . S
N1866 S1864 1.610 . S
N1866 C1867 1.351 . S
C1867 C1861 1.428 . S
C1867 N1866 1.351 . S
C1867 C1868 1.434 . S
C1868 C1859 1.429 . S
C1868 N1865 1.350 . S
C1868 C1867 1.434 . S
C1869 C1870 1.369 . S
C1869 C1871 1.419 . S
C1869 H1873 0.930 . S
C1870 C1869 1.369 . S
C1870 C1879 1.429 . S
C1871 C1869 1.419 . S
C1871 C1872 1.363 . S
C1871 H1874 0.929 . S
C1872 C1871 1.363 . S
C1872 C1878 1.428 . S
H1873 C1869 0.930 . S
H1874 C1871 0.929 . S
S1875 N1876 1.613 . S
S1875 N1877 1.610 . S
N1876 S1875 1.613 . S
N1876 C1879 1.350 . S
N1877 S1875 1.610 . S
N1877 C1878 1.351 . S
C1878 C1872 1.428 . S
C1878 N1877 1.351 . S
C1878 C1879 1.434 . S
C1879 C1870 1.429 . S
C1879 N1876 1.350 . S
C1879 C1878 1.434 . S
C1880 C1881 1.369 . S
C1880 C1882 1.419 . S
C1880 H1884 0.930 1_545 S
C1881 C1880 1.369 . S
C1881 C1890 1.429 . S
C1882 C1880 1.419 . S
C1882 C1883 1.363 . S
C1882 H1885 0.929 . S
C1883 C1882 1.363 . S
C1883 C1889 1.428 . S
H1884 C1880 0.930 1_565 S
H1885 C1882 0.929 . S
S1886 N1887 1.613 . S
S1886 N1888 1.610 . S
N1887 S1886 1.613 . S
N1887 C1890 1.350 . S
N1888 S1886 1.610 . S
N1888 C1889 1.351 . S
C1889 C1883 1.428 . S
C1889 N1888 1.351 . S
C1889 C1890 1.434 . S
C1890 C1881 1.429 . S
C1890 N1887 1.350 . S
C1890 C1889 1.434 . S
C1891 C1892 1.369 . S
C1891 C1893 1.419 . S
C1891 H1895 0.930 . S
C1892 C1891 1.369 . S
C1892 C1901 1.429 . S
C1893 C1891 1.419 . S
C1893 C1894 1.363 . S
C1893 H1896 0.929 . S
C1894 C1893 1.363 . S
C1894 C1900 1.428 . S
H1895 C1891 0.930 . S
H1896 C1893 0.929 . S
S1897 N1898 1.613 . S
S1897 N1899 1.610 . S
N1898 S1897 1.613 . S
N1898 C1901 1.350 . S
N1899 S1897 1.610 . S
N1899 C1900 1.351 . S
C1900 C1894 1.428 . S
C1900 N1899 1.351 . S
C1900 C1901 1.434 . S
C1901 C1892 1.429 . S
C1901 N1898 1.350 . S
C1901 C1900 1.434 . S
C1902 C1903 1.369 . S
C1902 C1904 1.419 . S
C1902 H1906 0.930 . S
C1903 C1902 1.369 . S
C1903 C1912 1.429 . S
C1904 C1902 1.419 . S
C1904 C1905 1.363 . S
C1904 H1907 0.929 . S
C1905 C1904 1.363 . S
C1905 C1911 1.428 . S
H1906 C1902 0.930 . S
H1907 C1904 0.929 . S
S1908 N1909 1.613 . S
S1908 N1910 1.610 . S
N1909 S1908 1.613 . S
N1909 C1912 1.350 . S
N1910 S1908 1.610 . S
N1910 C1911 1.351 . S
C1911 C1905 1.428 . S
C1911 N1910 1.351 . S
C1911 C1912 1.434 . S
C1912 C1903 1.429 . S
C1912 N1909 1.350 . S
C1912 C1911 1.434 . S
C1913 C1914 1.369 . S
C1913 C1915 1.419 . S
C1913 H1917 0.930 . S
C1914 C1913 1.369 . S
C1914 C1923 1.429 . S
C1915 C1913 1.419 . S
C1915 C1916 1.363 . S
C1915 H1918 0.929 . S
C1916 C1915 1.363 . S
C1916 C1922 1.428 . S
H1917 C1913 0.930 . S
H1918 C1915 0.929 . S
S1919 N1920 1.613 1_565 S
S1919 N1921 1.610 . S
N1920 S1919 1.613 1_545 S
N1920 C1923 1.350 . S
N1921 S1919 1.610 . S
N1921 C1922 1.351 1_565 S
C1922 C1916 1.428 . S
C1922 N1921 1.351 1_545 S
C1922 C1923 1.434 . S
C1923 C1914 1.429 . S
C1923 N1920 1.350 . S
C1923 C1922 1.434 . S
C1924 C1925 1.369 . S
C1924 C1926 1.419 . S
C1924 H1928 0.930 . S
C1925 C1924 1.369 . S
C1925 C1934 1.429 . S
C1926 C1924 1.419 . S
C1926 C1927 1.363 . S
C1926 H1929 0.929 . S
C1927 C1926 1.363 . S
C1927 C1933 1.428 . S
H1928 C1924 0.930 . S
H1929 C1926 0.929 . S
S1930 N1931 1.613 . S
S1930 N1932 1.610 . S
N1931 S1930 1.613 . S
N1931 C1934 1.350 . S
N1932 S1930 1.610 . S
N1932 C1933 1.351 . S
C1933 C1927 1.428 . S
C1933 N1932 1.351 . S
C1933 C1934 1.434 . S
C1934 C1925 1.429 . S
C1934 N1931 1.350 . S
C1934 C1933 1.434 . S
C1935 C1936 1.369 . S
C1935 C1937 1.419 . S
C1935 H1939 0.930 . S
C1936 C1935 1.369 . S
C1936 C1945 1.429 . S
C1937 C1935 1.419 . S
C1937 C1938 1.363 . S
C1937 H1940 0.929 . S
C1938 C1937 1.363 . S
C1938 C1944 1.428 . S
H1939 C1935 0.930 . S
H1940 C1937 0.929 . S
S1941 N1942 1.613 . S
S1941 N1943 1.610 . S
N1942 S1941 1.613 . S
N1942 C1945 1.350 . S
N1943 S1941 1.610 . S
N1943 C1944 1.351 . S
C1944 C1938 1.428 . S
C1944 N1943 1.351 . S
C1944 C1945 1.434 . S
C1945 C1936 1.429 . S
C1945 N1942 1.350 . S
C1945 C1944 1.434 . S
C1946 C1947 1.369 . S
C1946 C1948 1.419 . S
C1946 H1950 0.930 1_565 S
C1947 C1946 1.369 . S
C1947 C1956 1.429 . S
C1948 C1946 1.419 . S
C1948 C1949 1.363 . S
C1948 H1951 0.929 . S
C1949 C1948 1.363 . S
C1949 C1955 1.428 . S
H1950 C1946 0.930 1_545 S
H1951 C1948 0.929 . S
S1952 N1953 1.613 . S
S1952 N1954 1.610 . S
N1953 S1952 1.613 . S
N1953 C1956 1.350 . S
N1954 S1952 1.610 . S
N1954 C1955 1.351 . S
C1955 C1949 1.428 . S
C1955 N1954 1.351 . S
C1955 C1956 1.434 . S
C1956 C1947 1.429 . S
C1956 N1953 1.350 . S
C1956 C1955 1.434 . S
C1957 C1958 1.369 . S
C1957 C1959 1.419 . S
C1957 H1961 0.930 . S
C1958 C1957 1.369 . S
C1958 C1967 1.429 . S
C1959 C1957 1.419 . S
C1959 C1960 1.363 . S
C1959 H1962 0.929 . S
C1960 C1959 1.363 . S
C1960 C1966 1.428 . S
H1961 C1957 0.930 . S
H1962 C1959 0.929 . S
S1963 N1964 1.613 . S
S1963 N1965 1.610 . S
N1964 S1963 1.613 . S
N1964 C1967 1.350 . S
N1965 S1963 1.610 . S
N1965 C1966 1.351 . S
C1966 C1960 1.428 . S
C1966 N1965 1.351 . S
C1966 C1967 1.434 . S
C1967 C1958 1.429 . S
C1967 N1964 1.350 . S
C1967 C1966 1.434 . S
C1968 C1969 1.369 . S
C1968 C1970 1.419 . S
C1968 H1972 0.930 . S
C1969 C1968 1.369 . S
C1969 C1978 1.429 . S
C1970 C1968 1.419 . S
C1970 C1971 1.363 . S
C1970 H1973 0.929 . S
C1971 C1970 1.363 . S
C1971 C1977 1.428 . S
H1972 C1968 0.930 . S
H1973 C1970 0.929 . S
S1974 N1975 1.613 1_655 S
S1974 N1976 1.610 1_655 S
N1975 S1974 1.613 1_455 S
N1975 C1978 1.350 . S
N1976 S1974 1.610 1_455 S
N1976 C1977 1.351 . S
C1977 C1971 1.428 . S
C1977 N1976 1.351 . S
C1977 C1978 1.434 . S
C1978 C1969 1.429 . S
C1978 N1975 1.350 . S
C1978 C1977 1.434 . S
C1979 C1980 1.369 . S
C1979 C1981 1.419 . S
C1979 H1983 0.930 . S
C1980 C1979 1.369 . S
C1980 C1989 1.429 . S
C1981 C1979 1.419 . S
C1981 C1982 1.363 . S
C1981 H1984 0.929 . S
C1982 C1981 1.363 . S
C1982 C1988 1.428 . S
H1983 C1979 0.930 . S
H1984 C1981 0.929 . S
S1985 N1986 1.613 . S
S1985 N1987 1.610 . S
N1986 S1985 1.613 . S
N1986 C1989 1.350 . S
N1987 S1985 1.610 . S
N1987 C1988 1.351 . S
C1988 C1982 1.428 . S
C1988 N1987 1.351 . S
C1988 C1989 1.434 . S
C1989 C1980 1.429 . S
C1989 N1986 1.350 . S
C1989 C1988 1.434 . S
C1990 C1991 1.369 . S
C1990 C1992 1.419 . S
C1990 H1994 0.930 . S
C1991 C1990 1.369 . S
C1991 C2000 1.429 . S
C1992 C1990 1.419 . S
C1992 C1993 1.363 . S
C1992 H1995 0.929 . S
C1993 C1992 1.363 . S
C1993 C1999 1.428 . S
H1994 C1990 0.930 . S
H1995 C1992 0.929 . S
S1996 N1997 1.613 . S
S1996 N1998 1.610 . S
N1997 S1996 1.613 . S
N1997 C2000 1.350 . S
N1998 S1996 1.610 . S
N1998 C1999 1.351 . S
C1999 C1993 1.428 . S
C1999 N1998 1.351 . S
C1999 C2000 1.434 . S
C2000 C1991 1.429 . S
C2000 N1997 1.350 . S
C2000 C1999 1.434 . S
C2001 C2002 1.369 . S
C2001 C2003 1.419 . S
C2001 H2005 0.930 . S
C2002 C2001 1.369 . S
C2002 C2011 1.429 . S
C2003 C2001 1.419 . S
C2003 C2004 1.363 . S
C2003 H2006 0.929 . S
C2004 C2003 1.363 . S
C2004 C2010 1.428 . S
H2005 C2001 0.930 . S
H2006 C2003 0.929 . S
S2007 N2008 1.613 . S
S2007 N2009 1.610 . S
N2008 S2007 1.613 . S
N2008 C2011 1.350 . S
N2009 S2007 1.610 . S
N2009 C2010 1.351 . S
C2010 C2004 1.428 . S
C2010 N2009 1.351 . S
C2010 C2011 1.434 . S
C2011 C2002 1.429 . S
C2011 N2008 1.350 . S
C2011 C2010 1.434 . S
C2012 C2013 1.369 . S
C2012 C2014 1.419 . S
C2012 H2016 0.930 . S
C2013 C2012 1.369 . S
C2013 C2022 1.429 . S
C2014 C2012 1.419 . S
C2014 C2015 1.363 . S
C2014 H2017 0.929 . S
C2015 C2014 1.363 . S
C2015 C2021 1.428 . S
H2016 C2012 0.930 . S
H2017 C2014 0.929 . S
S2018 N2019 1.613 . S
S2018 N2020 1.610 . S
N2019 S2018 1.613 . S
N2019 C2022 1.350 . S
N2020 S2018 1.610 . S
N2020 C2021 1.351 . S
C2021 C2015 1.428 . S
C2021 N2020 1.351 . S
C2021 C2022 1.434 . S
C2022 C2013 1.429 . S
C2022 N2019 1.350 . S
C2022 C2021 1.434 . S
C2023 C2024 1.369 . S
C2023 C2025 1.419 . S
C2023 H2027 0.930 . S
C2024 C2023 1.369 . S
C2024 C2033 1.429 . S
C2025 C2023 1.419 . S
C2025 C2026 1.363 . S
C2025 H2028 0.929 . S
C2026 C2025 1.363 . S
C2026 C2032 1.428 . S
H2027 C2023 0.930 . S
H2028 C2025 0.929 . S
S2029 N2030 1.613 . S
S2029 N2031 1.610 . S
N2030 S2029 1.613 . S
N2030 C2033 1.350 . S
N2031 S2029 1.610 . S
N2031 C2032 1.351 . S
C2032 C2026 1.428 . S
C2032 N2031 1.351 . S
C2032 C2033 1.434 . S
C2033 C2024 1.429 . S
C2033 N2030 1.350 . S
C2033 C2032 1.434 . S
C2034 C2035 1.369 . S
C2034 C2036 1.419 . S
C2034 H2038 0.930 . S
C2035 C2034 1.369 . S
C2035 C2044 1.429 . S
C2036 C2034 1.419 . S
C2036 C2037 1.363 . S
C2036 H2039 0.929 . S
C2037 C2036 1.363 . S
C2037 C2043 1.428 . S
H2038 C2034 0.930 . S
H2039 C2036 0.929 . S
S2040 N2041 1.613 . S
S2040 N2042 1.610 . S
N2041 S2040 1.613 . S
N2041 C2044 1.350 . S
N2042 S2040 1.610 . S
N2042 C2043 1.351 . S
C2043 C2037 1.428 . S
C2043 N2042 1.351 . S
C2043 C2044 1.434 . S
C2044 C2035 1.429 . S
C2044 N2041 1.350 . S
C2044 C2043 1.434 . S
C2045 C2046 1.369 . S
C2045 C2047 1.419 . S
C2045 H2049 0.930 . S
C2046 C2045 1.369 . S
C2046 C2055 1.429 . S
C2047 C2045 1.419 . S
C2047 C2048 1.363 . S
C2047 H2050 0.929 . S
C2048 C2047 1.363 . S
C2048 C2054 1.428 . S
H2049 C2045 0.930 . S
H2050 C2047 0.929 . S
S2051 N2052 1.613 . S
S2051 N2053 1.610 . S
N2052 S2051 1.613 . S
N2052 C2055 1.350 . S
N2053 S2051 1.610 . S
N2053 C2054 1.351 . S
C2054 C2048 1.428 . S
C2054 N2053 1.351 . S
C2054 C2055 1.434 . S
C2055 C2046 1.429 . S
C2055 N2052 1.350 . S
C2055 C2054 1.434 . S
C2056 C2057 1.369 . S
C2056 C2058 1.419 . S
C2056 H2060 0.930 . S
C2057 C2056 1.369 . S
C2057 C2066 1.429 . S
C2058 C2056 1.419 . S
C2058 C2059 1.363 . S
C2058 H2061 0.929 . S
C2059 C2058 1.363 . S
C2059 C2065 1.428 . S
H2060 C2056 0.930 . S
H2061 C2058 0.929 . S
S2062 N2063 1.613 . S
S2062 N2064 1.610 . S
N2063 S2062 1.613 . S
N2063 C2066 1.350 . S
N2064 S2062 1.610 . S
N2064 C2065 1.351 . S
C2065 C2059 1.428 . S
C2065 N2064 1.351 . S
C2065 C2066 1.434 . S
C2066 C2057 1.429 . S
C2066 N2063 1.350 . S
C2066 C2065 1.434 . S
C2067 C2068 1.369 . S
C2067 C2069 1.419 . S
C2067 H2071 0.930 . S
C2068 C2067 1.369 . S
C2068 C2077 1.429 . S
C2069 C2067 1.419 . S
C2069 C2070 1.363 . S
C2069 H2072 0.929 . S
C2070 C2069 1.363 . S
C2070 C2076 1.428 . S
H2071 C2067 0.930 . S
H2072 C2069 0.929 . S
S2073 N2074 1.613 . S
S2073 N2075 1.611 . S
N2074 S2073 1.613 . S
N2074 C2077 1.350 . S
N2075 S2073 1.611 . S
N2075 C2076 1.352 . S
C2076 C2070 1.428 . S
C2076 N2075 1.352 . S
C2076 C2077 1.434 . S
C2077 C2068 1.429 . S
C2077 N2074 1.350 . S
C2077 C2076 1.434 . S
C2078 C2079 1.369 . S
C2078 C2080 1.419 1_554 S
C2078 H2082 0.930 . S
C2079 C2078 1.369 . S
C2079 C2088 1.429 . S
C2080 C2078 1.419 1_556 S
C2080 C2081 1.363 1_556 S
C2080 H2083 0.929 . S
C2081 C2080 1.363 1_554 S
C2081 C2087 1.428 . S
H2082 C2078 0.930 . S
H2083 C2080 0.929 . S
S2084 N2085 1.613 1_655 S
S2084 N2086 1.610 . S
N2085 S2084 1.613 1_455 S
N2085 C2088 1.350 . S
N2086 S2084 1.610 . S
N2086 C2087 1.351 1_655 S
C2087 C2081 1.428 . S
C2087 N2086 1.351 1_455 S
C2087 C2088 1.434 . S
C2088 C2079 1.429 . S
C2088 N2085 1.350 . S
C2088 C2087 1.434 . S
C2089 C2090 1.369 . S
C2089 C2091 1.419 . S
C2089 H2093 0.930 1_554 S
C2090 C2089 1.369 . S
C2090 C2099 1.429 . S
C2091 C2089 1.419 . S
C2091 C2092 1.363 . S
C2091 H2094 0.929 . S
C2092 C2091 1.363 . S
C2092 C2098 1.428 . S
H2093 C2089 0.930 1_556 S
H2094 C2091 0.929 . S
S2095 N2096 1.613 . S
S2095 N2097 1.610 . S
N2096 S2095 1.613 . S
N2096 C2099 1.350 . S
N2097 S2095 1.610 . S
N2097 C2098 1.351 . S
C2098 C2092 1.428 . S
C2098 N2097 1.351 . S
C2098 C2099 1.434 . S
C2099 C2090 1.429 . S
C2099 N2096 1.350 . S
C2099 C2098 1.434 . S
C2100 C2101 1.369 . S
C2100 C2102 1.419 . S
C2100 H2104 0.930 . S
C2101 C2100 1.369 . S
C2101 C2110 1.429 . S
C2102 C2100 1.419 . S
C2102 C2103 1.363 . S
C2102 H2105 0.929 . S
C2103 C2102 1.363 . S
C2103 C2109 1.428 . S
H2104 C2100 0.930 . S
H2105 C2102 0.929 . S
S2106 N2107 1.613 . S
S2106 N2108 1.610 . S
N2107 S2106 1.613 . S
N2107 C2110 1.350 . S
N2108 S2106 1.610 . S
N2108 C2109 1.351 . S
C2109 C2103 1.428 . S
C2109 N2108 1.351 . S
C2109 C2110 1.434 . S
C2110 C2101 1.429 . S
C2110 N2107 1.350 . S
C2110 C2109 1.434 . S
C2111 C2112 1.369 . S
C2111 C2113 1.419 . S
C2111 H2115 0.930 . S
C2112 C2111 1.369 . S
C2112 C2121 1.429 . S
C2113 C2111 1.419 . S
C2113 C2114 1.363 . S
C2113 H2116 0.929 . S
C2114 C2113 1.363 . S
C2114 C2120 1.428 . S
H2115 C2111 0.930 . S
H2116 C2113 0.929 . S
S2117 N2118 1.613 . S
S2117 N2119 1.610 . S
N2118 S2117 1.613 . S
N2118 C2121 1.350 . S
N2119 S2117 1.610 . S
N2119 C2120 1.351 . S
C2120 C2114 1.428 . S
C2120 N2119 1.351 . S
C2120 C2121 1.434 . S
C2121 C2112 1.429 . S
C2121 N2118 1.350 . S
C2121 C2120 1.434 . S
C2122 C2123 1.369 . S
C2122 C2124 1.419 . S
C2122 H2126 0.930 . S
C2123 C2122 1.369 . S
C2123 C2132 1.429 . S
C2124 C2122 1.419 . S
C2124 C2125 1.363 . S
C2124 H2127 0.929 . S
C2125 C2124 1.363 . S
C2125 C2131 1.428 . S
H2126 C2122 0.930 . S
H2127 C2124 0.929 . S
S2128 N2129 1.613 . S
S2128 N2130 1.610 . S
N2129 S2128 1.613 . S
N2129 C2132 1.350 . S
N2130 S2128 1.610 . S
N2130 C2131 1.351 . S
C2131 C2125 1.428 . S
C2131 N2130 1.351 . S
C2131 C2132 1.434 . S
C2132 C2123 1.429 . S
C2132 N2129 1.350 . S
C2132 C2131 1.434 . S
C2133 C2134 1.369 . S
C2133 C2135 1.419 . S
C2133 H2137 0.930 . S
C2134 C2133 1.369 . S
C2134 C2143 1.429 . S
C2135 C2133 1.419 . S
C2135 C2136 1.363 . S
C2135 H2138 0.929 . S
C2136 C2135 1.363 . S
C2136 C2142 1.428 . S
H2137 C2133 0.930 . S
H2138 C2135 0.929 . S
S2139 N2140 1.613 . S
S2139 N2141 1.610 1_554 S
N2140 S2139 1.613 . S
N2140 C2143 1.350 1_554 S
N2141 S2139 1.610 1_556 S
N2141 C2142 1.351 . S
C2142 C2136 1.428 . S
C2142 N2141 1.351 . S
C2142 C2143 1.434 . S
C2143 C2134 1.429 . S
C2143 N2140 1.350 1_556 S
C2143 C2142 1.434 . S
C2144 C2145 1.369 . S
C2144 C2146 1.419 . S
C2144 H2148 0.930 . S
C2145 C2144 1.369 . S
C2145 C2154 1.429 . S
C2146 C2144 1.419 . S
C2146 C2147 1.363 . S
C2146 H2149 0.929 1_556 S
C2147 C2146 1.363 . S
C2147 C2153 1.428 . S
H2148 C2144 0.930 . S
H2149 C2146 0.929 1_554 S
S2150 N2151 1.613 1_455 S
S2150 N2152 1.610 . S
N2151 S2150 1.613 1_655 S
N2151 C2154 1.350 . S
N2152 S2150 1.610 . S
N2152 C2153 1.351 1_455 S
C2153 C2147 1.428 . S
C2153 N2152 1.351 1_655 S
C2153 C2154 1.434 . S
C2154 C2145 1.429 . S
C2154 N2151 1.350 . S
C2154 C2153 1.434 . S
C2155 C2156 1.369 . S
C2155 C2157 1.419 . S
C2155 H2159 0.930 . S
C2156 C2155 1.369 . S
C2156 C2165 1.429 1_556 S
C2157 C2155 1.419 . S
C2157 C2158 1.363 . S
C2157 H2160 0.929 . S
C2158 C2157 1.363 . S
C2158 C2164 1.428 . S
H2159 C2155 0.930 . S
H2160 C2157 0.929 . S
S2161 N2162 1.613 . S
S2161 N2163 1.610 1_554 S
N2162 S2161 1.613 . S
N2162 C2165 1.350 . S
N2163 S2161 1.610 1_556 S
N2163 C2164 1.351 . S
C2164 C2158 1.428 . S
C2164 N2163 1.351 . S
C2164 C2165 1.434 1_556 S
C2165 C2156 1.429 1_554 S
C2165 N2162 1.350 . S
C2165 C2164 1.434 1_554 S
C2166 C2167 1.369 . S
C2166 C2168 1.419 . S
C2166 H2170 0.930 . S
C2167 C2166 1.369 . S
C2167 C2176 1.429 . S
C2168 C2166 1.419 . S
C2168 C2169 1.363 . S
C2168 H2171 0.929 . S
C2169 C2168 1.363 . S
C2169 C2175 1.428 . S
H2170 C2166 0.930 . S
H2171 C2168 0.929 . S
S2172 N2173 1.613 . S
S2172 N2174 1.610 . S
N2173 S2172 1.613 . S
N2173 C2176 1.350 . S
N2174 S2172 1.610 . S
N2174 C2175 1.351 . S
C2175 C2169 1.428 . S
C2175 N2174 1.351 . S
C2175 C2176 1.434 . S
C2176 C2167 1.429 . S
C2176 N2173 1.350 . S
C2176 C2175 1.434 . S
C2177 C2178 1.369 . S
C2177 C2179 1.419 . S
C2177 H2181 0.930 . S
C2178 C2177 1.369 . S
C2178 C2187 1.429 . S
C2179 C2177 1.419 . S
C2179 C2180 1.363 . S
C2179 H2182 0.929 . S
C2180 C2179 1.363 . S
C2180 C2186 1.428 . S
H2181 C2177 0.930 . S
H2182 C2179 0.929 . S
S2183 N2184 1.613 . S
S2183 N2185 1.610 . S
N2184 S2183 1.613 . S
N2184 C2187 1.350 . S
N2185 S2183 1.610 . S
N2185 C2186 1.351 . S
C2186 C2180 1.428 . S
C2186 N2185 1.351 . S
C2186 C2187 1.434 . S
C2187 C2178 1.429 . S
C2187 N2184 1.350 . S
C2187 C2186 1.434 . S
C2188 C2189 1.369 . S
C2188 C2190 1.419 . S
C2188 H2192 0.930 . S
C2189 C2188 1.369 . S
C2189 C2198 1.429 . S
C2190 C2188 1.419 . S
C2190 C2191 1.363 . S
C2190 H2193 0.929 . S
C2191 C2190 1.363 . S
C2191 C2197 1.428 . S
H2192 C2188 0.930 . S
H2193 C2190 0.929 . S
S2194 N2195 1.613 . S
S2194 N2196 1.610 1_565 S
N2195 S2194 1.613 . S
N2195 C2198 1.350 1_565 S
N2196 S2194 1.610 1_545 S
N2196 C2197 1.351 . S
C2197 C2191 1.428 . S
C2197 N2196 1.351 . S
C2197 C2198 1.434 . S
C2198 C2189 1.429 . S
C2198 N2195 1.350 1_545 S
C2198 C2197 1.434 . S
C2199 C2200 1.369 . S
C2199 C2201 1.419 . S
C2199 H2203 0.930 . S
C2200 C2199 1.369 . S
C2200 C2209 1.429 . S
C2201 C2199 1.419 . S
C2201 C2202 1.363 . S
C2201 H2204 0.929 . S
C2202 C2201 1.363 . S
C2202 C2208 1.428 . S
H2203 C2199 0.930 . S
H2204 C2201 0.929 . S
S2205 N2206 1.613 . S
S2205 N2207 1.610 . S
N2206 S2205 1.613 . S
N2206 C2209 1.350 . S
N2207 S2205 1.610 . S
N2207 C2208 1.351 . S
C2208 C2202 1.428 . S
C2208 N2207 1.351 . S
C2208 C2209 1.434 . S
C2209 C2200 1.429 . S
C2209 N2206 1.350 . S
C2209 C2208 1.434 . S
C2210 C2211 1.369 . S
C2210 C2212 1.419 . S
C2210 H2214 0.930 . S
C2211 C2210 1.369 . S
C2211 C2220 1.429 . S
C2212 C2210 1.419 . S
C2212 C2213 1.363 . S
C2212 H2215 0.929 . S
C2213 C2212 1.363 . S
C2213 C2219 1.428 . S
H2214 C2210 0.930 . S
H2215 C2212 0.929 . S
S2216 N2217 1.613 . S
S2216 N2218 1.610 . S
N2217 S2216 1.613 . S
N2217 C2220 1.350 . S
N2218 S2216 1.610 . S
N2218 C2219 1.351 . S
C2219 C2213 1.428 . S
C2219 N2218 1.351 . S
C2219 C2220 1.434 . S
C2220 C2211 1.429 . S
C2220 N2217 1.350 . S
C2220 C2219 1.434 . S
C2221 C2222 1.369 . S
C2221 C2223 1.419 . S
C2221 H2225 0.930 . S
C2222 C2221 1.369 . S
C2222 C2231 1.429 . S
C2223 C2221 1.419 . S
C2223 C2224 1.363 . S
C2223 H2226 0.929 . S
C2224 C2223 1.363 . S
C2224 C2230 1.428 . S
H2225 C2221 0.930 . S
H2226 C2223 0.929 . S
S2227 N2228 1.613 . S
S2227 N2229 1.610 . S
N2228 S2227 1.613 . S
N2228 C2231 1.350 . S
N2229 S2227 1.610 . S
N2229 C2230 1.351 . S
C2230 C2224 1.428 . S
C2230 N2229 1.351 . S
C2230 C2231 1.434 . S
C2231 C2222 1.429 . S
C2231 N2228 1.350 . S
C2231 C2230 1.434 . S
C2232 C2233 1.369 . S
C2232 C2234 1.419 . S
C2232 H2236 0.930 . S
C2233 C2232 1.369 . S
C2233 C2242 1.429 . S
C2234 C2232 1.419 . S
C2234 C2235 1.363 . S
C2234 H2237 0.929 . S
C2235 C2234 1.363 . S
C2235 C2241 1.428 . S
H2236 C2232 0.930 . S
H2237 C2234 0.929 . S
S2238 N2239 1.613 . S
S2238 N2240 1.610 . S
N2239 S2238 1.613 . S
N2239 C2242 1.350 . S
N2240 S2238 1.610 . S
N2240 C2241 1.351 . S
C2241 C2235 1.428 . S
C2241 N2240 1.351 . S
C2241 C2242 1.434 . S
C2242 C2233 1.429 . S
C2242 N2239 1.350 . S
C2242 C2241 1.434 . S
C2243 C2244 1.369 . S
C2243 C2245 1.419 . S
C2243 H2247 0.930 . S
C2244 C2243 1.369 . S
C2244 C2253 1.429 . S
C2245 C2243 1.419 . S
C2245 C2246 1.363 . S
C2245 H2248 0.929 . S
C2246 C2245 1.363 . S
C2246 C2252 1.428 . S
H2247 C2243 0.930 . S
H2248 C2245 0.929 . S
S2249 N2250 1.613 . S
S2249 N2251 1.610 . S
N2250 S2249 1.613 . S
N2250 C2253 1.350 . S
N2251 S2249 1.610 . S
N2251 C2252 1.351 . S
C2252 C2246 1.428 . S
C2252 N2251 1.351 . S
C2252 C2253 1.434 . S
C2253 C2244 1.429 . S
C2253 N2250 1.350 . S
C2253 C2252 1.434 . S
C2254 C2255 1.369 . S
C2254 C2256 1.419 . S
C2254 H2258 0.930 . S
C2255 C2254 1.369 . S
C2255 C2264 1.429 . S
C2256 C2254 1.419 . S
C2256 C2257 1.363 . S
C2256 H2259 0.929 . S
C2257 C2256 1.363 . S
C2257 C2263 1.428 . S
H2258 C2254 0.930 . S
H2259 C2256 0.929 . S
S2260 N2261 1.613 . S
S2260 N2262 1.610 . S
N2261 S2260 1.613 . S
N2261 C2264 1.350 . S
N2262 S2260 1.610 . S
N2262 C2263 1.351 . S
C2263 C2257 1.428 . S
C2263 N2262 1.351 . S
C2263 C2264 1.434 . S
C2264 C2255 1.429 . S
C2264 N2261 1.350 . S
C2264 C2263 1.434 . S
C2265 C2266 1.369 . S
C2265 C2267 1.419 . S
C2265 H2269 0.930 . S
C2266 C2265 1.369 . S
C2266 C2275 1.429 . S
C2267 C2265 1.419 . S
C2267 C2268 1.363 . S
C2267 H2270 0.929 . S
C2268 C2267 1.363 . S
C2268 C2274 1.428 . S
H2269 C2265 0.930 . S
H2270 C2267 0.929 . S
S2271 N2272 1.613 . S
S2271 N2273 1.610 . S
N2272 S2271 1.613 . S
N2272 C2275 1.350 . S
N2273 S2271 1.610 . S
N2273 C2274 1.351 . S
C2274 C2268 1.428 . S
C2274 N2273 1.351 . S
C2274 C2275 1.434 . S
C2275 C2266 1.429 . S
C2275 N2272 1.350 . S
C2275 C2274 1.434 . S
C2276 C2277 1.369 . S
C2276 C2278 1.419 . S
C2276 H2280 0.930 . S
C2277 C2276 1.369 . S
C2277 C2286 1.429 . S
C2278 C2276 1.419 . S
C2278 C2279 1.363 . S
C2278 H2281 0.929 . S
C2279 C2278 1.363 . S
C2279 C2285 1.428 . S
H2280 C2276 0.930 . S
H2281 C2278 0.929 . S
S2282 N2283 1.613 . S
S2282 N2284 1.610 . S
N2283 S2282 1.613 . S
N2283 C2286 1.350 . S
N2284 S2282 1.610 . S
N2284 C2285 1.351 . S
C2285 C2279 1.428 . S
C2285 N2284 1.351 . S
C2285 C2286 1.434 . S
C2286 C2277 1.429 . S
C2286 N2283 1.350 . S
C2286 C2285 1.434 . S
C2287 C2288 1.369 . S
C2287 C2289 1.419 . S
C2287 H2291 0.930 . S
C2288 C2287 1.369 . S
C2288 C2297 1.429 . S
C2289 C2287 1.419 . S
C2289 C2290 1.363 . S
C2289 H2292 0.929 . S
C2290 C2289 1.363 . S
C2290 C2296 1.428 . S
H2291 C2287 0.930 . S
H2292 C2289 0.929 . S
S2293 N2294 1.613 . S
S2293 N2295 1.610 . S
N2294 S2293 1.613 . S
N2294 C2297 1.350 . S
N2295 S2293 1.610 . S
N2295 C2296 1.351 . S
C2296 C2290 1.428 . S
C2296 N2295 1.351 . S
C2296 C2297 1.434 . S
C2297 C2288 1.429 . S
C2297 N2294 1.350 . S
C2297 C2296 1.434 . S
C2298 C2299 1.369 . S
C2298 C2300 1.419 . S
C2298 H2302 0.930 . S
C2299 C2298 1.369 . S
C2299 C2308 1.429 . S
C2300 C2298 1.419 . S
C2300 C2301 1.363 . S
C2300 H2303 0.929 . S
C2301 C2300 1.363 . S
C2301 C2307 1.428 . S
H2302 C2298 0.930 . S
H2303 C2300 0.929 . S
S2304 N2305 1.613 . S
S2304 N2306 1.610 . S
N2305 S2304 1.613 . S
N2305 C2308 1.350 . S
N2306 S2304 1.610 . S
N2306 C2307 1.351 . S
C2307 C2301 1.428 . S
C2307 N2306 1.351 . S
C2307 C2308 1.434 . S
C2308 C2299 1.429 . S
C2308 N2305 1.350 . S
C2308 C2307 1.434 . S
C2309 C2310 1.369 . S
C2309 C2311 1.419 . S
C2309 H2313 0.930 . S
C2310 C2309 1.369 . S
C2310 C2319 1.429 . S
C2311 C2309 1.419 . S
C2311 C2312 1.363 . S
C2311 H2314 0.929 . S
C2312 C2311 1.363 . S
C2312 C2318 1.428 . S
H2313 C2309 0.930 . S
H2314 C2311 0.929 . S
S2315 N2316 1.613 . S
S2315 N2317 1.610 . S
N2316 S2315 1.613 . S
N2316 C2319 1.350 . S
N2317 S2315 1.610 . S
N2317 C2318 1.351 . S
C2318 C2312 1.428 . S
C2318 N2317 1.351 . S
C2318 C2319 1.434 . S
C2319 C2310 1.429 . S
C2319 N2316 1.350 . S
C2319 C2318 1.434 . S
C2320 C2321 1.369 . S
C2320 C2322 1.419 . S
C2320 H2324 0.930 . S
C2321 C2320 1.369 . S
C2321 C2330 1.429 . S
C2322 C2320 1.419 . S
C2322 C2323 1.363 . S
C2322 H2325 0.929 . S
C2323 C2322 1.363 . S
C2323 C2329 1.428 . S
H2324 C2320 0.930 . S
H2325 C2322 0.929 . S
S2326 N2327 1.613 . S
S2326 N2328 1.610 . S
N2327 S2326 1.613 . S
N2327 C2330 1.350 . S
N2328 S2326 1.610 . S
N2328 C2329 1.351 . S
C2329 C2323 1.428 . S
C2329 N2328 1.351 . S
C2329 C2330 1.434 . S
C2330 C2321 1.429 . S
C2330 N2327 1.350 . S
C2330 C2329 1.434 . S
C2331 C2332 1.369 . S
C2331 C2333 1.419 . S
C2331 H2335 0.930 . S
C2332 C2331 1.369 . S
C2332 C2341 1.429 . S
C2333 C2331 1.419 . S
C2333 C2334 1.363 . S
C2333 H2336 0.929 . S
C2334 C2333 1.363 . S
C2334 C2340 1.428 . S
H2335 C2331 0.930 . S
H2336 C2333 0.929 . S
S2337 N2338 1.613 . S
S2337 N2339 1.610 . S
N2338 S2337 1.613 . S
N2338 C2341 1.350 . S
N2339 S2337 1.610 . S
N2339 C2340 1.351 . S
C2340 C2334 1.428 . S
C2340 N2339 1.351 . S
C2340 C2341 1.434 . S
C2341 C2332 1.429 . S
C2341 N2338 1.350 . S
C2341 C2340 1.434 . S
C2342 C2343 1.369 . S
C2342 C2344 1.419 . S
C2342 H2346 0.930 . S
C2343 C2342 1.369 . S
C2343 C2352 1.429 . S
C2344 C2342 1.419 . S
C2344 C2345 1.363 . S
C2344 H2347 0.929 . S
C2345 C2344 1.363 . S
C2345 C2351 1.428 . S
H2346 C2342 0.930 . S
H2347 C2344 0.929 . S
S2348 N2349 1.613 . S
S2348 N2350 1.610 . S
N2349 S2348 1.613 . S
N2349 C2352 1.350 . S
N2350 S2348 1.610 . S
N2350 C2351 1.351 . S
C2351 C2345 1.428 . S
C2351 N2350 1.351 . S
C2351 C2352 1.434 . S
C2352 C2343 1.429 . S
C2352 N2349 1.350 . S
C2352 C2351 1.434 . S
C2353 C2354 1.369 . S
C2353 C2355 1.419 . S
C2353 H2357 0.930 . S
C2354 C2353 1.369 . S
C2354 C2363 1.429 . S
C2355 C2353 1.419 . S
C2355 C2356 1.363 . S
C2355 H2358 0.929 . S
C2356 C2355 1.363 . S
C2356 C2362 1.428 . S
H2357 C2353 0.930 . S
H2358 C2355 0.929 . S
S2359 N2360 1.613 . S
S2359 N2361 1.610 . S
N2360 S2359 1.613 . S
N2360 C2363 1.350 . S
N2361 S2359 1.610 . S
N2361 C2362 1.351 . S
C2362 C2356 1.428 . S
C2362 N2361 1.351 . S
C2362 C2363 1.434 . S
C2363 C2354 1.429 . S
C2363 N2360 1.350 . S
C2363 C2362 1.434 . S
C2364 C2365 1.369 . S
C2364 C2366 1.419 1_655 S
C2364 H2368 0.930 . S
C2365 C2364 1.369 . S
C2365 C2374 1.429 1_655 S
C2366 C2364 1.419 1_455 S
C2366 C2367 1.363 . S
C2366 H2369 0.929 . S
C2367 C2366 1.363 . S
C2367 C2373 1.428 . S
H2368 C2364 0.930 . S
H2369 C2366 0.929 . S
S2370 N2371 1.613 . S
S2370 N2372 1.610 . S
N2371 S2370 1.613 . S
N2371 C2374 1.350 . S
N2372 S2370 1.610 . S
N2372 C2373 1.351 . S
C2373 C2367 1.428 . S
C2373 N2372 1.351 . S
C2373 C2374 1.434 . S
C2374 C2365 1.429 1_455 S
C2374 N2371 1.350 . S
C2374 C2373 1.434 . S
C2375 C2376 1.369 . S
C2375 C2377 1.419 . S
C2375 H2379 0.930 . S
C2376 C2375 1.369 . S
C2376 C2385 1.429 . S
C2377 C2375 1.419 . S
C2377 C2378 1.363 . S
C2377 H2380 0.929 . S
C2378 C2377 1.363 . S
C2378 C2384 1.428 . S
H2379 C2375 0.930 . S
H2380 C2377 0.929 . S
S2381 N2382 1.613 . S
S2381 N2383 1.610 . S
N2382 S2381 1.613 . S
N2382 C2385 1.350 . S
N2383 S2381 1.610 . S
N2383 C2384 1.351 . S
C2384 C2378 1.428 . S
C2384 N2383 1.351 . S
C2384 C2385 1.434 . S
C2385 C2376 1.429 . S
C2385 N2382 1.350 . S
C2385 C2384 1.434 . S
C2386 C2387 1.369 1_565 S
C2386 C2388 1.419 . S
C2386 H2390 0.938 1_565 S
C2387 C2386 1.369 1_545 S
C2387 C2396 1.429 . S
C2388 C2386 1.419 . S
C2388 C2389 1.363 . S
C2388 H2391 0.929 . S
C2389 C2388 1.363 . S
C2389 C2395 1.428 . S
H2390 C2386 0.938 1_545 S
H2391 C2388 0.929 . S
S2392 N2393 1.613 . S
S2392 N2394 1.610 1_545 S
N2393 S2392 1.613 . S
N2393 C2396 1.350 . S
N2394 S2392 1.610 1_565 S
N2394 C2395 1.351 . S
C2395 C2389 1.428 . S
C2395 N2394 1.351 . S
C2395 C2396 1.434 1_565 S
C2396 C2387 1.429 . S
C2396 N2393 1.350 . S
C2396 C2395 1.434 1_545 S
C2397 C2398 1.369 . S
C2397 C2399 1.419 . S
C2397 H2401 0.930 . S
C2398 C2397 1.369 . S
C2398 C2407 1.429 . S
C2399 C2397 1.419 . S
C2399 C2400 1.363 1_545 S
C2399 H2402 0.929 . S
C2400 C2399 1.363 1_565 S
C2400 C2406 1.428 . S
H2401 C2397 0.930 . S
H2402 C2399 0.929 . S
S2403 N2404 1.613 1_565 S
S2403 N2405 1.610 . S
N2404 S2403 1.613 1_545 S
N2404 C2407 1.350 . S
N2405 S2403 1.610 . S
N2405 C2406 1.351 . S
C2406 C2400 1.428 . S
C2406 N2405 1.351 . S
C2406 C2407 1.434 1_565 S
C2407 C2398 1.429 . S
C2407 N2404 1.350 . S
C2407 C2406 1.434 1_545 S
C2408 C2409 1.369 1_655 S
C2408 C2410 1.419 . S
C2408 H2412 0.930 . S
C2409 C2408 1.369 1_455 S
C2409 C2418 1.429 . S
C2410 C2408 1.419 . S
C2410 C2411 1.363 . S
C2410 H2413 0.929 . S
C2411 C2410 1.363 . S
C2411 C2417 1.428 . S
H2412 C2408 0.930 . S
H2413 C2410 0.929 . S
S2414 N2415 1.613 . S
S2414 N2416 1.610 1_455 S
N2415 S2414 1.613 . S
N2415 C2418 1.350 . S
N2416 S2414 1.610 1_655 S
N2416 C2417 1.351 . S
C2417 C2411 1.428 . S
C2417 N2416 1.351 . S
C2417 C2418 1.434 1_655 S
C2418 C2409 1.429 . S
C2418 N2415 1.350 . S
C2418 C2417 1.434 1_455 S
C2419 C2420 1.369 . S
C2419 C2421 1.419 . S
C2419 H2423 0.930 . S
C2420 C2419 1.369 . S
C2420 C2429 1.429 . S
C2421 C2419 1.419 . S
C2421 C2422 1.363 . S
C2421 H2424 0.929 . S
C2422 C2421 1.363 . S
C2422 C2428 1.428 . S
H2423 C2419 0.930 . S
H2424 C2421 0.929 . S
S2425 N2426 1.613 . S
S2425 N2427 1.610 . S
N2426 S2425 1.613 . S
N2426 C2429 1.350 . S
N2427 S2425 1.610 . S
N2427 C2428 1.351 . S
C2428 C2422 1.428 . S
C2428 N2427 1.351 . S
C2428 C2429 1.434 . S
C2429 C2420 1.429 . S
C2429 N2426 1.350 . S
C2429 C2428 1.434 . S
C2430 C2431 1.369 . S
C2430 C2432 1.419 1_655 S
C2430 H2434 0.930 . S
C2431 C2430 1.369 . S
C2431 C2440 1.429 . S
C2432 C2430 1.419 1_455 S
C2432 C2433 1.363 . S
C2432 H2435 0.929 . S
C2433 C2432 1.363 . S
C2433 C2439 1.428 . S
H2434 C2430 0.930 . S
H2435 C2432 0.929 . S
S2436 N2437 1.613 1_455 S
S2436 N2438 1.610 . S
N2437 S2436 1.613 1_655 S
N2437 C2440 1.350 . S
N2438 S2436 1.610 . S
N2438 C2439 1.351 . S
C2439 C2433 1.428 . S
C2439 N2438 1.351 . S
C2439 C2440 1.434 1_455 S
C2440 C2431 1.429 . S
C2440 N2437 1.350 . S
C2440 C2439 1.434 1_655 S
C2441 C2442 1.369 . S
C2441 C2443 1.419 . S
C2441 H2445 0.930 . S
C2442 C2441 1.369 . S
C2442 C2451 1.429 . S
C2443 C2441 1.419 . S
C2443 C2444 1.363 . S
C2443 H2446 0.929 . S
C2444 C2443 1.363 . S
C2444 C2450 1.428 . S
H2445 C2441 0.930 . S
H2446 C2443 0.929 . S
S2447 N2448 1.613 . S
S2447 N2449 1.610 . S
N2448 S2447 1.613 . S
N2448 C2451 1.350 . S
N2449 S2447 1.610 . S
N2449 C2450 1.351 . S
C2450 C2444 1.428 . S
C2450 N2449 1.351 . S
C2450 C2451 1.434 . S
C2451 C2442 1.429 . S
C2451 N2448 1.350 . S
C2451 C2450 1.434 . S
C2452 C2453 1.369 . S
C2452 C2454 1.419 1_545 S
C2452 H2456 0.930 . S
C2453 C2452 1.369 . S
C2453 C2462 1.429 . S
C2454 C2452 1.419 1_565 S
C2454 C2455 1.363 . S
C2454 H2457 0.929 . S
C2455 C2454 1.363 . S
C2455 C2461 1.428 . S
H2456 C2452 0.930 . S
H2457 C2454 0.929 . S
S2458 N2459 1.613 1_565 S
S2458 N2460 1.610 . S
N2459 S2458 1.613 1_545 S
N2459 C2462 1.350 . S
N2460 S2458 1.610 . S
N2460 C2461 1.351 . S
C2461 C2455 1.428 . S
C2461 N2460 1.351 . S
C2461 C2462 1.434 1_565 S
C2462 C2453 1.429 . S
C2462 N2459 1.350 . S
C2462 C2461 1.434 1_545 S
C2463 C2464 1.369 . S
C2463 C2465 1.419 1_655 S
C2463 H2467 0.930 . S
C2464 C2463 1.369 . S
C2464 C2473 1.429 . S
C2465 C2463 1.419 1_455 S
C2465 C2466 1.363 . S
C2465 H2468 0.929 . S
C2466 C2465 1.363 . S
C2466 C2472 1.428 . S
H2467 C2463 0.930 . S
H2468 C2465 0.929 . S
S2469 N2470 1.613 . S
S2469 N2471 1.610 1_655 S
N2470 S2469 1.613 . S
N2470 C2473 1.350 . S
N2471 S2469 1.610 1_455 S
N2471 C2472 1.351 . S
C2472 C2466 1.428 . S
C2472 N2471 1.351 . S
C2472 C2473 1.434 1_455 S
C2473 C2464 1.429 . S
C2473 N2470 1.350 . S
C2473 C2472 1.434 1_655 S
C2474 C2475 1.369 . S
C2474 C2476 1.419 . S
C2474 H2478 0.930 . S
C2475 C2474 1.369 . S
C2475 C2484 1.429 . S
C2476 C2474 1.419 . S
C2476 C2477 1.363 . S
C2476 H2479 0.929 . S
C2477 C2476 1.363 . S
C2477 C2483 1.428 . S
H2478 C2474 0.930 . S
H2479 C2476 0.929 . S
S2480 N2481 1.613 . S
S2480 N2482 1.610 . S
N2481 S2480 1.613 . S
N2481 C2484 1.350 . S
N2482 S2480 1.610 . S
N2482 C2483 1.351 . S
C2483 C2477 1.428 . S
C2483 N2482 1.351 . S
C2483 C2484 1.434 . S
C2484 C2475 1.429 . S
C2484 N2481 1.350 . S
C2484 C2483 1.434 . S
C2485 C2486 1.369 . S
C2485 C2487 1.419 1_545 S
C2485 H2489 0.930 . S
C2486 C2485 1.369 . S
C2486 C2495 1.429 . S
C2487 C2485 1.419 1_565 S
C2487 C2488 1.363 . S
C2487 H2490 0.929 . S
C2488 C2487 1.363 . S
C2488 C2494 1.428 . S
H2489 C2485 0.930 . S
H2490 C2487 0.929 . S
S2491 N2492 1.607 1_565 S
S2491 N2493 1.619 . S
N2492 S2491 1.607 1_545 S
N2492 C2495 1.350 . S
N2493 S2491 1.619 . S
N2493 C2494 1.351 . S
C2494 C2488 1.428 . S
C2494 N2493 1.351 . S
C2494 C2495 1.434 1_565 S
C2495 C2486 1.429 . S
C2495 N2492 1.350 . S
C2495 C2494 1.434 1_545 S
C2496 C2497 1.369 . S
C2496 C2498 1.419 . S
C2496 H2500 0.930 . S
C2497 C2496 1.369 . S
C2497 C2506 1.429 . S
C2498 C2496 1.419 . S
C2498 C2499 1.363 . S
C2498 H2501 0.929 . S
C2499 C2498 1.363 . S
C2499 C2505 1.428 . S
H2500 C2496 0.930 . S
H2501 C2498 0.929 . S
S2502 N2503 1.613 . S
S2502 N2504 1.610 . S
N2503 S2502 1.613 . S
N2503 C2506 1.350 . S
N2504 S2502 1.610 . S
N2504 C2505 1.351 . S
C2505 C2499 1.428 . S
C2505 N2504 1.351 . S
C2505 C2506 1.434 . S
C2506 C2497 1.429 . S
C2506 N2503 1.350 . S
C2506 C2505 1.434 . S
C2507 C2508 1.369 . S
C2507 C2509 1.419 . S
C2507 H2511 0.930 . S
C2508 C2507 1.369 . S
C2508 C2517 1.429 . S
C2509 C2507 1.419 . S
C2509 C2510 1.363 . S
C2509 H2512 0.929 . S
C2510 C2509 1.363 . S
C2510 C2516 1.428 . S
H2511 C2507 0.930 . S
H2512 C2509 0.929 . S
S2513 N2514 1.613 . S
S2513 N2515 1.610 . S
N2514 S2513 1.613 . S
N2514 C2517 1.350 . S
N2515 S2513 1.610 . S
N2515 C2516 1.351 . S
C2516 C2510 1.428 . S
C2516 N2515 1.351 . S
C2516 C2517 1.434 . S
C2517 C2508 1.429 . S
C2517 N2514 1.350 . S
C2517 C2516 1.434 . S
C2518 C2519 1.369 . S
C2518 C2520 1.419 . S
C2518 H2522 0.930 . S
C2519 C2518 1.369 . S
C2519 C2528 1.429 . S
C2520 C2518 1.419 . S
C2520 C2521 1.363 . S
C2520 H2523 0.929 . S
C2521 C2520 1.363 . S
C2521 C2527 1.428 . S
H2522 C2518 0.930 . S
H2523 C2520 0.929 . S
S2524 N2525 1.613 . S
S2524 N2526 1.610 . S
N2525 S2524 1.613 . S
N2525 C2528 1.350 . S
N2526 S2524 1.610 . S
N2526 C2527 1.351 . S
C2527 C2521 1.428 . S
C2527 N2526 1.351 . S
C2527 C2528 1.434 . S
C2528 C2519 1.429 . S
C2528 N2525 1.350 . S
C2528 C2527 1.434 . S
C2529 C2530 1.369 . S
C2529 C2531 1.419 . S
C2529 H2533 0.930 . S
C2530 C2529 1.369 . S
C2530 C2539 1.427 1_556 S
C2531 C2529 1.419 . S
C2531 C2532 1.363 . S
C2531 H2534 0.929 . S
C2532 C2531 1.363 . S
C2532 C2538 1.428 1_556 S
H2533 C2529 0.930 . S
H2534 C2531 0.929 . S
S2535 N2536 1.613 . S
S2535 N2537 1.610 . S
N2536 S2535 1.613 . S
N2536 C2539 1.352 . S
N2537 S2535 1.610 . S
N2537 C2538 1.351 . S
C2538 C2532 1.428 1_554 S
C2538 N2537 1.351 . S
C2538 C2539 1.434 . S
C2539 C2530 1.427 1_554 S
C2539 N2536 1.352 . S
C2539 C2538 1.434 . S
C2540 C2541 1.369 . S
C2540 C2542 1.419 . S
C2540 H2544 0.930 . S
C2541 C2540 1.369 . S
C2541 C2550 1.429 . S
C2542 C2540 1.419 . S
C2542 C2543 1.363 . S
C2542 H2545 0.929 . S
C2543 C2542 1.363 . S
C2543 C2549 1.428 . S
H2544 C2540 0.930 . S
H2545 C2542 0.929 . S
S2546 N2547 1.613 . S
S2546 N2548 1.610 . S
N2547 S2546 1.613 . S
N2547 C2550 1.350 . S
N2548 S2546 1.610 . S
N2548 C2549 1.351 . S
C2549 C2543 1.428 . S
C2549 N2548 1.351 . S
C2549 C2550 1.434 . S
C2550 C2541 1.429 . S
C2550 N2547 1.350 . S
C2550 C2549 1.434 . S
C2551 C2552 1.369 . S
C2551 C2553 1.419 . S
C2551 H2555 0.930 . S
C2552 C2551 1.369 . S
C2552 C2561 1.450 . S
C2553 C2551 1.419 . S
C2553 C2554 1.363 . S
C2553 H2556 0.929 . S
C2554 C2553 1.363 . S
C2554 C2560 1.428 . S
H2555 C2551 0.930 . S
H2556 C2553 0.929 . S
S2557 N2558 1.613 . S
S2557 N2559 1.610 . S
N2558 S2557 1.613 . S
N2558 C2561 1.326 1_554 S
N2559 S2557 1.610 . S
N2559 C2560 1.351 1_554 S
C2560 C2554 1.428 . S
C2560 N2559 1.351 1_556 S
C2560 C2561 1.436 . S
C2561 C2552 1.450 . S
C2561 N2558 1.326 1_556 S
C2561 C2560 1.436 . S
C2562 C2563 1.369 . S
C2562 C2564 1.419 . S
C2562 H2566 0.930 . S
C2563 C2562 1.369 . S
C2563 C2572 1.429 . S
C2564 C2562 1.419 . S
C2564 C2565 1.363 . S
C2564 H2567 0.929 . S
C2565 C2564 1.363 . S
C2565 C2571 1.428 . S
H2566 C2562 0.930 . S
H2567 C2564 0.929 . S
S2568 N2569 1.613 . S
S2568 N2570 1.610 . S
N2569 S2568 1.613 . S
N2569 C2572 1.350 1_556 S
N2570 S2568 1.610 . S
N2570 C2571 1.351 1_556 S
C2571 C2565 1.428 . S
C2571 N2570 1.351 1_554 S
C2571 C2572 1.434 . S
C2572 C2563 1.429 . S
C2572 N2569 1.350 1_554 S
C2572 C2571 1.434 . S
C2573 C2574 1.369 . S
C2573 C2575 1.419 . S
C2573 H2577 0.930 1_554 S
C2574 C2573 1.369 . S
C2574 C2583 1.429 . S
C2575 C2573 1.419 . S
C2575 C2576 1.363 . S
C2575 H2578 0.929 1_554 S
C2576 C2575 1.363 . S
C2576 C2582 1.428 . S
H2577 C2573 0.930 1_556 S
H2578 C2575 0.929 1_556 S
S2579 N2580 1.613 . S
S2579 N2581 1.610 . S
N2580 S2579 1.613 . S
N2580 C2583 1.350 . S
N2581 S2579 1.610 . S
N2581 C2582 1.351 . S
C2582 C2576 1.428 . S
C2582 N2581 1.351 . S
C2582 C2583 1.434 . S
C2583 C2574 1.429 . S
C2583 N2580 1.350 . S
C2583 C2582 1.434 . S
C2584 C2585 1.369 . S
C2584 C2586 1.419 . S
C2584 H2588 0.930 1_554 S
C2585 C2584 1.369 . S
C2585 C2594 1.429 . S
C2586 C2584 1.419 . S
C2586 C2587 1.363 . S
C2586 H2589 0.929 1_554 S
C2587 C2586 1.363 . S
C2587 C2593 1.428 . S
H2588 C2584 0.930 1_556 S
H2589 C2586 0.929 1_556 S
S2590 N2591 1.613 . S
S2590 N2592 1.610 . S
N2591 S2590 1.613 . S
N2591 C2594 1.350 . S
N2592 S2590 1.610 . S
N2592 C2593 1.351 . S
C2593 C2587 1.428 . S
C2593 N2592 1.351 . S
C2593 C2594 1.434 . S
C2594 C2585 1.429 . S
C2594 N2591 1.350 . S
C2594 C2593 1.434 . S
C2595 C2596 1.369 . S
C2595 C2597 1.419 . S
C2595 H2599 0.930 . S
C2596 C2595 1.369 . S
C2596 C2605 1.429 . S
C2597 C2595 1.419 . S
C2597 C2598 1.363 . S
C2597 H2600 0.929 . S
C2598 C2597 1.363 . S
C2598 C2604 1.428 . S
H2599 C2595 0.930 . S
H2600 C2597 0.929 . S
S2601 N2602 1.613 . S
S2601 N2603 1.610 . S
N2602 S2601 1.613 . S
N2602 C2605 1.350 . S
N2603 S2601 1.610 . S
N2603 C2604 1.351 . S
C2604 C2598 1.428 . S
C2604 N2603 1.351 . S
C2604 C2605 1.434 . S
C2605 C2596 1.429 . S
C2605 N2602 1.350 . S
C2605 C2604 1.434 . S
C2606 C2607 1.369 . S
C2606 C2608 1.419 . S
C2606 H2610 0.930 . S
C2607 C2606 1.369 . S
C2607 C2616 1.429 . S
C2608 C2606 1.419 . S
C2608 C2609 1.363 . S
C2608 H2611 0.929 . S
C2609 C2608 1.363 . S
C2609 C2615 1.428 . S
H2610 C2606 0.930 . S
H2611 C2608 0.929 . S
S2612 N2613 1.613 . S
S2612 N2614 1.610 . S
N2613 S2612 1.613 . S
N2613 C2616 1.350 . S
N2614 S2612 1.610 . S
N2614 C2615 1.351 . S
C2615 C2609 1.428 . S
C2615 N2614 1.351 . S
C2615 C2616 1.434 . S
C2616 C2607 1.429 . S
C2616 N2613 1.350 . S
C2616 C2615 1.434 . S
C2617 C2618 1.369 . S
C2617 C2619 1.419 . S
C2617 H2621 0.930 . S
C2618 C2617 1.369 . S
C2618 C2627 1.429 . S
C2619 C2617 1.419 . S
C2619 C2620 1.363 . S
C2619 H2622 0.929 . S
C2620 C2619 1.363 . S
C2620 C2626 1.428 . S
H2621 C2617 0.930 . S
H2622 C2619 0.929 . S
S2623 N2624 1.613 . S
S2623 N2625 1.610 . S
N2624 S2623 1.613 . S
N2624 C2627 1.350 . S
N2625 S2623 1.610 . S
N2625 C2626 1.351 . S
C2626 C2620 1.428 . S
C2626 N2625 1.351 . S
C2626 C2627 1.434 . S
C2627 C2618 1.429 . S
C2627 N2624 1.350 . S
C2627 C2626 1.434 . S
C1441 C2 1.430 . S
C1443 C105 1.428 . S
C1452 C25 1.430 . S
C1454 C42 1.428 . S
C1463 C82 1.429 . S
C1465 C65 1.430 . S
C1474 C122 2.048 . S
C1476 C185 1.898 . S
C1485 C225 1.892 . S
C1487 C162 2.046 . S
C1496 C202 2.045 . S
C1498 C145 1.900 . S
C1507 C263 1.426 . S
C1509 C324 1.432 . S
C1518 C303 1.430 . S
C1520 C244 1.429 . S
C1529 C343 1.427 . S
C1531 C284 1.431 . S
C1540 C383 2.048 . S
C1542 C404 1.894 . S
C1551 C444 1.902 . S
C1553 C423 2.041 . S
C1562 C364 1.903 . S
C1564 C463 2.041 . S
C1573 C585 1.428 . S
C1575 C482 1.430 . S
C1584 C522 1.424 . S
C1586 C505 1.433 . S
C1595 C545 1.433 . S
C1597 C562 1.425 . S
C1606 C602 2.043 . S
C1608 C665 1.902 . S
C1617 C705 1.904 . S
C1619 C642 2.043 . S
C1628 C625 1.892 . S
C1630 C682 2.047 . S
C1639 C743 1.425 . S
C1641 C804 1.432 . S
C1650 C783 1.427 . S
C1652 C724 1.430 . S
C1661 C764 1.428 . S
C1663 C823 1.429 . S
C1672 C884 1.895 . S
C1674 C863 2.047 . S
C1683 C903 2.046 . S
C1685 C924 1.893 . S
C1694 C844 1.892 . S
C1696 C943 2.046 . S
C1705 C962 1.424 . S
C1707 C1065 1.433 . S
C1716 C1002 1.424 . S
C1718 C985 1.433 . S
C1727 C1042 1.431 . S
C1729 C1025 1.428 . S
C1738 C1082 2.045 . S
C1740 C1145 1.894 . S
C1749 C1122 2.048 . S
C1751 C1185 1.894 . S
C1760 C1162 2.045 . S
C1762 C1105 1.900 . S
C1771 C1223 1.429 . S
C1773 C1284 1.429 . S
C1782 C1263 1.429 . S
C1784 C1204 1.429 . S
C1793 C1244 1.433 . S
C1795 C1303 1.425 . S
C1804 C1343 2.043 . S
C1806 C1364 1.897 . S
C1815 C1383 2.044 . S
C1817 C1404 1.895 . S
C1826 C1324 1.894 . S
C1828 C1423 2.048 . S
C1837 C4 3.474 . S
C1839 C802 3.715 . S
C1848 C722 3.714 1_565 S
C1850 C44 3.475 . S
C1859 C84 3.474 . S
C1861 C762 3.717 1_455 S
C1870 C124 2.096 . S
C1872 C1362 2.198 . S
C1881 C1402 2.202 1_545 S
C1883 C164 2.095 . S
C1892 C204 2.101 . S
C1894 C1322 2.199 1_655 S
C1903 C1063 3.714 . S
C1905 C265 3.480 . S
C1914 C305 3.478 . S
C1916 C983 3.712 1_545 S
C1925 C345 3.481 . S
C1927 C1023 3.714 1_655 S
C1936 C663 2.202 . S
C1938 C385 2.096 . S
C1947 C703 2.202 1_565 S
C1949 C425 2.099 . S
C1958 C623 2.198 1_455 S
C1960 C465 2.100 . S
C1969 C484 3.475 . S
C1971 C1282 3.715 . S
C1980 C524 3.478 . S
C1982 C1202 3.717 . S
C1991 C1242 3.718 . S
C1993 C564 3.478 . S
C2002 C402 2.199 . S
C2004 C604 2.100 . S
C2013 C442 2.199 . S
C2015 C644 2.100 . S
C2024 C362 2.200 . S
C2026 C684 2.094 . S
C2035 C103 3.714 . S
C2037 C745 3.475 . S
C2046 C785 3.478 . S
C2048 C23 3.712 . S
C2057 C825 3.476 . S
C2059 C63 3.717 . S
C2068 C1143 2.199 . S
C2070 C865 2.100 1_564 S
C2079 C1183 2.202 . S
C2081 C905 2.095 1_454 S
C2090 C945 2.093 1_554 S
C2092 C1103 2.199 . S
C2101 C322 3.713 . S
C2103 C964 3.481 . S
C2112 C242 3.712 . S
C2114 C1004 3.477 . S
C2123 C282 3.717 . S
C2125 C1044 3.475 . S
C2134 C1084 2.100 1_546 S
C2136 C882 2.198 . S
C2145 C922 2.199 . S
C2147 C1124 2.093 1_656 S
C2156 C1164 2.099 1_556 S
C2158 C842 2.198 . S
C2167 C1225 3.478 . S
C2169 C583 3.718 . S
C2178 C1265 3.477 . S
C2180 C503 3.713 . S
C2189 C1305 3.474 . S
C2191 C543 3.717 . S
C2200 C1345 2.092 . S
C2202 C183 2.199 . S
C2211 C223 2.198 . S
C2213 C1385 2.094 . S
C2222 C143 2.201 . S
C2224 C1425 2.100 . S
C2233 C1180 0.806 . S
C2235 C20 0.795 . S
C2244 C1100 0.804 . S
C2246 C60 0.801 . S
C2255 C100 0.789 . S
C2257 C1140 0.803 . S
C2266 C540 0.798 . S
C2268 C140 0.798 . S
C2277 C180 0.802 . S
C2279 C580 0.802 . S
C2288 C220 0.799 . S
C2290 C500 0.800 . S
C2299 C271 0.802 . S
C2301 C951 0.804 . S
C2310 C311 0.803 . S
C2312 C871 0.804 . S
C2321 C351 0.802 . S
C2323 C911 0.805 . S
C2332 C1271 0.803 . S
C2334 C391 0.802 . S
C2343 C1311 0.788 . S
C2345 C431 0.798 . S
C2354 C1231 0.795 . S
C2356 C471 0.797 . S
C2365 C620 0.796 . S
C2367 C1020 0.791 . S
C2376 C660 0.803 . S
C2378 C1060 0.802 . S
C2387 C700 0.799 . S
C2389 C980 0.788 . S
C2398 C751 0.798 . S
C2400 C1431 0.804 . S
C2409 C1351 0.799 . S
C2411 C791 0.787 . S
C2420 C831 0.786 . S
C2422 C1391 0.800 . S
C2431 C191 1.621 . S
C2433 C31 1.596 . S
C2442 C231 1.631 . S
C2444 C71 1.591 . S
C2453 C151 1.624 . S
C2455 C111 1.597 . S
C2464 C260 1.594 . S
C2466 C420 1.630 . S
C2475 C460 1.634 . S
C2477 C300 1.589 . S
C2486 C340 1.584 . S
C2488 C380 1.630 . S
C2497 C671 1.629 . S
C2499 C511 1.594 . S
C2508 C711 1.625 . S
C2510 C551 1.588 . S
C2519 C631 1.629 . S
C2521 C591 1.587 . S
C2530 C900 1.631 . S
C2532 C740 1.586 . S
C2541 C780 1.592 . S
C2543 C940 1.630 . S
C2552 C820 1.584 . S
C2554 C860 1.631 . S
C2563 C991 1.585 . S
C2565 C1151 1.633 . S
C2574 C1191 1.623 . S
C2576 C1031 1.596 . S
C2585 C1071 1.595 . S
C2587 C1111 1.629 . S
C2596 C1220 1.595 . S
C2598 C1380 1.629 . S
C2607 C1420 1.621 . S
C2609 C1260 1.594 . S
C2618 C1300 1.593 . S
C2620 C1340 1.631 . S
