# Generated by pormake.
# Topology lcy-e, (6)-cn, num edge types: 1
# Building blocks:
#     Node 0, Type 0, BuildingBlock: BETDAH_clean_sbu_0, # of connection points: 6
#     Node 1, Type 0, BuildingBlock: BETDAH_clean_sbu_0, # of connection points: 6
#     Node 2, Type 0, BuildingBlock: BETDAH_clean_sbu_0, # of connection points: 6
#     Node 3, Type 0, BuildingBlock: BETDAH_clean_sbu_0, # of connection points: 6
#     Node 4, Type 0, BuildingBlock: BETDAH_clean_sbu_0, # of connection points: 6
#     Node 5, Type 0, BuildingBlock: BETDAH_clean_sbu_0, # of connection points: 6
#     Node 6, Type 0, BuildingBlock: BETDAH_clean_sbu_0, # of connection points: 6
#     Node 7, Type 0, BuildingBlock: BETDAH_clean_sbu_0, # of connection points: 6
#     Node 8, Type 0, BuildingBlock: BETDAH_clean_sbu_0, # of connection points: 6
#     Node 9, Type 0, BuildingBlock: BETDAH_clean_sbu_0, # of connection points: 6
#     Node 10, Type 0, BuildingBlock: BETDAH_clean_sbu_0, # of connection points: 6
#     Node 11, Type 0, BuildingBlock: BETDAH_clean_sbu_0, # of connection points: 6
#     Edge 12, Type (0, 0), BuildingBlock: XIVTED_clean_linker_0, # of connection points: 2
#     Edge 13, Type (0, 0), BuildingBlock: XIVTED_clean_linker_0, # of connection points: 2
#     Edge 14, Type (0, 0), BuildingBlock: XIVTED_clean_linker_0, # of connection points: 2
#     Edge 15, Type (0, 0), BuildingBlock: XIVTED_clean_linker_0, # of connection points: 2
#     Edge 16, Type (0, 0), BuildingBlock: XIVTED_clean_linker_0, # of connection points: 2
#     Edge 17, Type (0, 0), BuildingBlock: XIVTED_clean_linker_0, # of connection points: 2
#     Edge 18, Type (0, 0), BuildingBlock: XIVTED_clean_linker_0, # of connection points: 2
#     Edge 19, Type (0, 0), BuildingBlock: XIVTED_clean_linker_0, # of connection points: 2
#     Edge 20, Type (0, 0), BuildingBlock: XIVTED_clean_linker_0, # of connection points: 2
#     Edge 21, Type (0, 0), BuildingBlock: XIVTED_clean_linker_0, # of connection points: 2
#     Edge 22, Type (0, 0), BuildingBlock: XIVTED_clean_linker_0, # of connection points: 2
#     Edge 23, Type (0, 0), BuildingBlock: XIVTED_clean_linker_0, # of connection points: 2
#     Edge 24, Type (0, 0), BuildingBlock: XIVTED_clean_linker_0, # of connection points: 2
#     Edge 25, Type (0, 0), BuildingBlock: XIVTED_clean_linker_0, # of connection points: 2
#     Edge 26, Type (0, 0), BuildingBlock: XIVTED_clean_linker_0, # of connection points: 2
#     Edge 27, Type (0, 0), BuildingBlock: XIVTED_clean_linker_0, # of connection points: 2
#     Edge 28, Type (0, 0), BuildingBlock: XIVTED_clean_linker_0, # of connection points: 2
#     Edge 29, Type (0, 0), BuildingBlock: XIVTED_clean_linker_0, # of connection points: 2
#     Edge 30, Type (0, 0), BuildingBlock: XIVTED_clean_linker_0, # of connection points: 2
#     Edge 31, Type (0, 0), BuildingBlock: XIVTED_clean_linker_0, # of connection points: 2
#     Edge 32, Type (0, 0), BuildingBlock: XIVTED_clean_linker_0, # of connection points: 2
#     Edge 33, Type (0, 0), BuildingBlock: XIVTED_clean_linker_0, # of connection points: 2
#     Edge 34, Type (0, 0), BuildingBlock: XIVTED_clean_linker_0, # of connection points: 2
#     Edge 35, Type (0, 0), BuildingBlock: XIVTED_clean_linker_0, # of connection points: 2
#     Edge 36, Type (0, 0), BuildingBlock: XIVTED_clean_linker_0, # of connection points: 2
#     Edge 37, Type (0, 0), BuildingBlock: XIVTED_clean_linker_0, # of connection points: 2
#     Edge 38, Type (0, 0), BuildingBlock: XIVTED_clean_linker_0, # of connection points: 2
#     Edge 39, Type (0, 0), BuildingBlock: XIVTED_clean_linker_0, # of connection points: 2
#     Edge 40, Type (0, 0), BuildingBlock: XIVTED_clean_linker_0, # of connection points: 2
#     Edge 41, Type (0, 0), BuildingBlock: XIVTED_clean_linker_0, # of connection points: 2
#     Edge 42, Type (0, 0), BuildingBlock: XIVTED_clean_linker_0, # of connection points: 2
#     Edge 43, Type (0, 0), BuildingBlock: XIVTED_clean_linker_0, # of connection points: 2
#     Edge 44, Type (0, 0), BuildingBlock: XIVTED_clean_linker_0, # of connection points: 2
#     Edge 45, Type (0, 0), BuildingBlock: XIVTED_clean_linker_0, # of connection points: 2
#     Edge 46, Type (0, 0), BuildingBlock: XIVTED_clean_linker_0, # of connection points: 2
#     Edge 47, Type (0, 0), BuildingBlock: XIVTED_clean_linker_0, # of connection points: 2
# Relax obj value: 0.195
# Max RMSD: 0.313
# Mean RMSD: 0.289
data_MOF--net-lcy-e--node1-BETDAH_clean_sbu_0--edge1-XIVTED_clean_linker_0
_symmetry_space_group_name_H-M    P1
_symmetry_Int_Tables_number       1
_symmetry_cell_setting            triclinic
loop_
_symmetry_equiv_pos_as_xyz
'x, y, z'
_cell_length_a     45.689555
_cell_length_b     41.766309
_cell_length_c     45.598864
_cell_angle_alpha  89.62788
_cell_angle_beta   91.030825
_cell_angle_gamma 88.492874
loop_
_atom_site_label
_atom_site_type_symbol
_atom_site_fract_x
_atom_site_fract_y
_atom_site_fract_z
_atom_type_partial_charge
Ho0 Ho 0.13974 0.26841 0.47124 0.0
Ho1 Ho 0.15642 0.21081 0.51614 0.0
C2 C 0.19629 0.2198 0.4601 0.0
C3 C 0.14044 0.3214 0.44217 0.0
C4 C 0.14439 0.32927 0.41103 0.0
C5 C 0.15863 0.30748 0.39236 0.0
C6 C 0.1637 0.31578 0.36315 0.0
C7 C 0.15434 0.34588 0.35203 0.0
C8 C 0.13957 0.36735 0.37073 0.0
C9 C 0.1347 0.35912 0.39998 0.0
C10 C 0.11266 0.21363 0.45534 0.0
C11 C 0.10142 0.25722 0.52937 0.0
C12 C 0.15755 0.16057 0.54939 0.0
C13 C 0.13746 0.13963 0.56504 0.0
C14 C 0.11243 0.12719 0.55134 0.0
C15 C 0.09482 0.10591 0.56648 0.0
C16 C 0.10189 0.09682 0.59557 0.0
C17 C 0.12679 0.10969 0.6092 0.0
C18 C 0.14434 0.13084 0.59409 0.0
C19 C 0.18404 0.26737 0.52322 0.0
O20 O 0.18292 0.24791 0.45452 0.0
O21 O 0.18746 0.19968 0.48041 0.0
O22 O 0.11609 0.30716 0.4487 0.0
O23 O 0.1636 0.30866 0.45561 0.0
O24 O 0.11 0.24042 0.44093 0.0
O25 O 0.1303 0.21797 0.47629 0.0
O26 O 0.11166 0.22729 0.52983 0.0
O27 O 0.11128 0.27891 0.51063 0.0
O28 O 0.16013 0.18968 0.55954 0.0
O29 O 0.1571 0.15937 0.52064 0.0
O30 O 0.19613 0.23973 0.53007 0.0
O31 O 0.15805 0.26317 0.51544 0.0
H32 H 0.16614 0.2842 0.40048 0.0
H33 H 0.17487 0.29863 0.34927 0.0
H34 H 0.13241 0.39088 0.36295 0.0
H35 H 0.12374 0.37623 0.41408 0.0
H36 H 0.10667 0.13354 0.52889 0.0
H37 H 0.07569 0.09661 0.55544 0.0
H38 H 0.13323 0.10278 0.63137 0.0
H39 H 0.16366 0.13993 0.60499 0.0
Ho40 Ho 0.98702 0.85469 0.73189 0.0
Ho41 Ho 0.03796 0.87672 0.7721 0.0
C42 C 0.02576 0.91703 0.71385 0.0
C43 C 0.94005 0.85337 0.69948 0.0
C44 C 0.93061 0.86585 0.67021 0.0
C45 C 0.9063 0.88704 0.66786 0.0
C46 C 0.8967 0.89891 0.64047 0.0
C47 C 0.91108 0.88964 0.61474 0.0
C48 C 0.93556 0.86857 0.61713 0.0
C49 C 0.9453 0.85689 0.64456 0.0
C50 C 0.03673 0.8201 0.72741 0.0
C51 C 0.99912 0.8181 0.7927 0.0
C52 C 0.0863 0.88076 0.80226 0.0
C53 C 0.10878 0.86137 0.81889 0.0
C54 C 0.13634 0.85521 0.80653 0.0
C55 C 0.1594 0.84154 0.82338 0.0
C56 C 0.15554 0.83394 0.85311 0.0
C57 C 0.12753 0.83857 0.86504 0.0
C58 C 0.10444 0.8522 0.84818 0.0
C59 C 0.98487 0.90641 0.77936 0.0
O60 O 1.00342 0.89838 0.70776 0.0
O61 O 0.04331 0.91237 0.73677 0.0
O62 O 0.95991 0.83016 0.70034 0.0
O63 O 0.94433 0.87485 0.71978 0.0
O64 O 0.01082 0.80852 0.72393 0.0
O65 O 0.03526 0.85023 0.73046 0.0
O66 O 0.02588 0.82936 0.79155 0.0
O67 O 0.97824 0.82764 0.77368 0.0
O68 O 0.06031 0.88482 0.81359 0.0
O69 O 0.08523 0.87712 0.77377 0.0
O70 O 1.0095 0.92081 0.78337 0.0
O71 O 0.99026 0.87756 0.77421 0.0
H72 H 0.89455 0.89428 0.68727 0.0
H73 H 0.87757 0.91478 0.63939 0.0
H74 H 0.9473 0.86122 0.59777 0.0
H75 H 0.96425 0.84077 0.64561 0.0
H76 H 0.14049 0.86227 0.78411 0.0
H77 H 0.18069 0.83861 0.81352 0.0
H78 H 0.12364 0.83253 0.88775 0.0
H79 H 0.08355 0.85661 0.85846 0.0
Ho80 Ho 0.3769 0.78141 0.02345 0.0
Ho81 Ho 0.3881 0.73927 0.96515 0.0
C82 C 0.42223 0.8065 0.97443 0.0
C83 C 0.38029 0.80829 0.07423 0.0
C84 C 0.40153 0.82696 0.09118 0.0
C85 C 0.42682 0.83858 0.07818 0.0
C86 C 0.44403 0.8609 0.09289 0.0
C87 C 0.43624 0.87199 0.12088 0.0
C88 C 0.41149 0.85914 0.13418 0.0
C89 C 0.39436 0.8369 0.11946 0.0
C90 C 0.33282 0.79052 0.98263 0.0
C91 C 0.34734 0.71122 0.01414 0.0
C92 C 0.3909 0.71994 0.91135 0.0
C93 C 0.37948 0.69796 0.8887 0.0
C94 C 0.34993 0.69875 0.87934 0.0
C95 C 0.34082 0.68047 0.85522 0.0
C96 C 0.36107 0.66109 0.83998 0.0
C97 C 0.39049 0.66019 0.84978 0.0
C98 C 0.39952 0.67832 0.87377 0.0
C99 C 0.42127 0.72537 0.01385 0.0
O100 O 0.41196 0.80972 1.00136 0.0
O101 O 0.41477 0.78281 0.95685 0.0
O102 O 0.3698 0.82266 0.05055 0.0
O103 O 0.38619 0.77771 0.0703 0.0
O104 O 0.33377 0.80447 1.00784 0.0
O105 O 0.35553 0.77307 0.98123 0.0
O106 O 0.35201 0.71262 0.98552 0.0
O107 O 0.3573 0.73291 0.03303 0.0
O108 O 0.4074 0.70776 0.93265 0.0
O109 O 0.37381 0.74363 0.91988 0.0
O110 O 0.41359 0.70405 0.99463 0.0
O111 O 0.41262 0.75268 1.00498 0.0
H112 H 0.43262 0.83129 0.05625 0.0
H113 H 0.46311 0.86991 0.08213 0.0
H114 H 0.40446 0.86737 0.15545 0.0
H115 H 0.37472 0.82853 0.12969 0.0
H116 H 0.33396 0.71392 0.89022 0.0
H117 H 0.31796 0.68158 0.84851 0.0
H118 H 0.40692 0.64617 0.83835 0.0
H119 H 0.4225 0.67773 0.88011 0.0
Ho120 Ho 0.5458 0.12838 0.2411 0.0
Ho121 Ho 0.49931 0.10766 0.28499 0.0
C122 C 0.50785 0.06375 0.22896 0.0
C123 C 0.59096 0.13142 0.20766 0.0
C124 C 0.60038 0.12007 0.17869 0.0
C125 C 0.62736 0.12968 0.16808 0.0
C126 C 0.63692 0.1195 0.14064 0.0
C127 C 0.61966 0.09943 0.12311 0.0
C128 C 0.59267 0.0895 0.13401 0.0
C129 C 0.58307 0.09981 0.16155 0.0
C130 C 0.49522 0.16203 0.2369 0.0
C131 C 0.53717 0.16837 0.30003 0.0
C132 C 0.45426 0.10205 0.31822 0.0
C133 C 0.43109 0.12002 0.33375 0.0
C134 C 0.42133 0.15085 0.32495 0.0
C135 C 0.39727 0.16572 0.33864 0.0
C136 C 0.38259 0.14997 0.36132 0.0
C137 C 0.3929 0.11923 0.37009 0.0
C138 C 0.41685 0.10456 0.35654 0.0
C139 C 0.55417 0.08047 0.292 0.0
O140 O 0.52916 0.08257 0.22057 0.0
O141 O 0.49211 0.06963 0.2523 0.0
O142 O 0.56983 0.15318 0.20777 0.0
O143 O 0.58805 0.10947 0.22793 0.0
O144 O 0.52069 0.17366 0.23183 0.0
O145 O 0.49726 0.13205 0.24166 0.0
O146 O 0.51031 0.15734 0.29978 0.0
O147 O 0.55705 0.15688 0.28164 0.0
O148 O 0.48113 0.10337 0.32852 0.0
O149 O 0.45277 0.10261 0.28954 0.0
O150 O 0.53043 0.06551 0.2981 0.0
O151 O 0.54712 0.10856 0.28501 0.0
H152 H 0.64111 0.14512 0.18107 0.0
H153 H 0.65804 0.12716 0.13328 0.0
H154 H 0.57874 0.07425 0.12104 0.0
H155 H 0.56214 0.09213 0.16938 0.0
H156 H 0.43195 0.16316 0.30724 0.0
H157 H 0.39018 0.18947 0.33144 0.0
H158 H 0.38193 0.10593 0.38693 0.0
H159 H 0.42379 0.0806 0.36339 0.0
Ho160 Ho 0.64198 0.24057 0.55305 0.0
Ho161 Ho 0.64814 0.30031 0.50732 0.0
C162 C 0.69149 0.29483 0.56332 0.0
C163 C 0.6508 0.18771 0.5816 0.0
C164 C 0.65856 0.17869 0.61233 0.0
C165 C 0.68404 0.18991 0.62621 0.0
C166 C 0.69176 0.17995 0.65474 0.0
C167 C 0.67408 0.15881 0.67016 0.0
C168 C 0.64822 0.14826 0.65653 0.0
C169 C 0.64064 0.15799 0.62787 0.0
C170 C 0.61039 0.29345 0.56942 0.0
C171 C 0.59899 0.2484 0.49585 0.0
C172 C 0.64189 0.35195 0.47595 0.0
C173 C 0.62046 0.37457 0.46149 0.0
C174 C 0.61158 0.40294 0.47568 0.0
C175 C 0.59541 0.42693 0.46051 0.0
C176 C 0.5878 0.42322 0.43073 0.0
C177 C 0.59577 0.39432 0.41688 0.0
C178 C 0.61195 0.37036 0.43202 0.0
C179 C 0.68176 0.24634 0.49918 0.0
O180 O 0.683 0.26515 0.56856 0.0
O181 O 0.67902 0.31385 0.54314 0.0
O182 O 0.62452 0.20046 0.57685 0.0
O183 O 0.67117 0.20168 0.5665 0.0
O184 O 0.61105 0.26666 0.58403 0.0
O185 O 0.62708 0.28981 0.54819 0.0
O186 O 0.6048 0.27934 0.49504 0.0
O187 O 0.61281 0.22801 0.51434 0.0
O188 O 0.64568 0.32333 0.46465 0.0
O189 O 0.64341 0.35181 0.50471 0.0
O190 O 0.68991 0.27474 0.49139 0.0
O191 O 0.65623 0.24858 0.50833 0.0
H192 H 0.69824 0.20613 0.61498 0.0
H193 H 0.71165 0.18876 0.66473 0.0
H194 H 0.6343 0.13169 0.66769 0.0
H195 H 0.62093 0.14897 0.61768 0.0
H196 H 0.61803 0.40717 0.49827 0.0
H197 H 0.58937 0.44868 0.47198 0.0
H198 H 0.59072 0.39073 0.39386 0.0
H199 H 0.6188 0.3491 0.42023 0.0
Ho200 Ho 0.99182 0.38574 0.73194 0.0
Ho201 Ho 0.03524 0.36204 0.7791 0.0
C202 C 0.97676 0.32426 0.76989 0.0
C203 C 0.96117 0.40088 0.68566 0.0
C204 C 0.93063 0.39518 0.67716 0.0
C205 C 0.92026 0.4037 0.64904 0.0
C206 C 0.89243 0.39461 0.63954 0.0
C207 C 0.8746 0.37665 0.658 0.0
C208 C 0.88486 0.36893 0.68652 0.0
C209 C 0.91263 0.37812 0.69601 0.0
C210 C 0.9786 0.40459 0.78723 0.0
C211 C 0.05295 0.42257 0.74156 0.0
C212 C 0.06935 0.35176 0.8241 0.0
C213 C 0.0842 0.3693 0.84776 0.0
C214 C 0.06958 0.39337 0.86371 0.0
C215 C 0.08281 0.40636 0.88872 0.0
C216 C 0.11087 0.39553 0.89814 0.0
C217 C 0.12598 0.37275 0.88109 0.0
C218 C 0.11271 0.3597 0.85624 0.0
C219 C 0.0382 0.33236 0.72594 0.0
O220 O 0.97497 0.33676 0.74315 0.0
O221 O 0.99512 0.33539 0.78971 0.0
O222 O 0.96543 0.42083 0.70733 0.0
O223 O 0.97754 0.37476 0.68801 0.0
O224 O 0.95965 0.39603 0.76755 0.0
O225 O 1.00381 0.40325 0.77643 0.0
O226 O 0.05583 0.40822 0.76734 0.0
O227 O 0.03115 0.41615 0.72306 0.0
O228 O 0.07913 0.3552 0.79747 0.0
O229 O 0.04073 0.35111 0.82505 0.0
O230 O 0.04293 0.31742 0.75062 0.0
O231 O 0.03404 0.36127 0.73124 0.0
H232 H 0.93404 0.4165 0.63411 0.0
H233 H 0.88535 0.40061 0.61734 0.0
H234 H 0.87155 0.35547 0.70138 0.0
H235 H 0.92044 0.37111 0.71776 0.0
H236 H 0.04755 0.40132 0.85751 0.0
H237 H 0.07053 0.42379 0.90136 0.0
H238 H 0.14788 0.36442 0.88732 0.0
H239 H 0.12441 0.34129 0.84416 0.0
Ho240 Ho 0.89169 0.75279 0.04379 0.0
Ho241 Ho 0.86864 0.69977 1.00432 0.0
C242 C 0.83735 0.70871 0.06489 0.0
C243 C 0.89783 0.80147 0.07803 0.0
C244 C 0.8876 0.81157 0.10729 0.0
C245 C 0.8578 0.81812 0.11262 0.0
C246 C 0.84888 0.82916 0.14007 0.0
C247 C 0.86951 0.83382 0.16284 0.0
C248 C 0.89921 0.82649 0.15758 0.0
C249 C 0.90813 0.81569 0.13011 0.0
C250 C 0.9238 0.69832 0.04585 0.0
C251 C 0.9216 0.74166 0.98232 0.0
C252 C 0.86136 0.65028 0.97118 0.0
C253 C 0.87753 0.62721 0.95265 0.0
C254 C 0.90548 0.61481 0.96066 0.0
C255 C 0.91859 0.59013 0.9443 0.0
C256 C 0.90393 0.57737 0.91975 0.0
C257 C 0.87652 0.59091 0.91124 0.0
C258 C 0.86349 0.61547 0.92753 0.0
C259 C 0.84038 0.75797 0.99947 0.0
O260 O 0.85194 0.73552 0.06819 0.0
O261 O 0.84204 0.68901 0.04298 0.0
O262 O 0.91645 0.77719 0.07748 0.0
O263 O 0.87824 0.80053 0.05681 0.0
O264 O 0.93461 0.72657 0.04783 0.0
O265 O 0.89608 0.6998 0.04479 0.0
O266 O 0.91119 0.71252 0.98408 0.0
O267 O 0.91398 0.7642 1.00135 0.0
O268 O 0.85829 0.67977 0.96161 0.0
O269 O 0.86641 0.64854 0.99947 0.0
O270 O 0.82724 0.7309 0.99683 0.0
O271 O 0.86728 0.75238 1.00258 0.0
H272 H 0.84136 0.81519 0.0955 0.0
H273 H 0.82589 0.83488 0.14313 0.0
H274 H 0.91569 0.82917 0.17468 0.0
H275 H 0.93121 0.8108 0.12663 0.0
H276 H 0.9168 0.62355 0.97998 0.0
H277 H 0.93968 0.58026 0.95151 0.0
H278 H 0.86488 0.58223 0.8921 0.0
H279 H 0.84198 0.62474 0.92091 0.0
Ho280 Ho 0.5333 0.62425 0.23247 0.0
Ho281 Ho 0.48795 0.64566 0.27701 0.0
C282 C 0.5462 0.68558 0.27513 0.0
C283 C 0.56784 0.62078 0.18818 0.0
C284 C 0.59727 0.63096 0.18036 0.0
C285 C 0.61186 0.65445 0.19646 0.0
C286 C 0.63977 0.66394 0.18827 0.0
C287 C 0.65357 0.64986 0.16401 0.0
C288 C 0.63873 0.62634 0.14804 0.0
C289 C 0.61087 0.61702 0.15616 0.0
C290 C 0.53596 0.58999 0.28237 0.0
C291 C 0.4758 0.58416 0.23906 0.0
C292 C 0.45087 0.65125 0.31917 0.0
C293 C 0.43712 0.63239 0.34249 0.0
C294 C 0.45345 0.61081 0.36055 0.0
C295 C 0.44065 0.59685 0.3851 0.0
C296 C 0.41135 0.60426 0.39205 0.0
C297 C 0.39477 0.62455 0.37296 0.0
C298 C 0.40755 0.63849 0.34854 0.0
C299 C 0.48299 0.67331 0.22238 0.0
O300 O 0.55406 0.66854 0.25196 0.0
O301 O 0.52221 0.67981 0.2896 0.0
O302 O 0.5666 0.59841 0.20829 0.0
O303 O 0.54801 0.64362 0.19143 0.0
O304 O 0.54207 0.57858 0.25676 0.0
O305 O 0.531 0.62001 0.28096 0.0
O306 O 0.47547 0.59533 0.26607 0.0
O307 O 0.49376 0.59604 0.21949 0.0
O308 O 0.44302 0.64568 0.29201 0.0
O309 O 0.47887 0.65623 0.3222 0.0
O310 O 0.47669 0.68838 0.24636 0.0
O311 O 0.48943 0.64496 0.22903 0.0
H312 H 0.6017 0.6654 0.2153 0.0
H313 H 0.65069 0.68194 0.20113 0.0
H314 H 0.64848 0.6154 0.12896 0.0
H315 H 0.59987 0.59895 0.14342 0.0
H316 H 0.47633 0.60559 0.3563 0.0
H317 H 0.45408 0.58141 0.39933 0.0
H318 H 0.37199 0.63023 0.37723 0.0
H319 H 0.39453 0.65496 0.33488 0.0
Ho320 Ho 0.22386 0.5103 0.13953 0.0
Ho321 Ho 0.2644 0.45177 0.12922 0.0
C322 C 0.209 0.46017 0.0866 0.0
C323 C 0.19151 0.56172 0.13393 0.0
C324 C 0.16118 0.56889 0.12386 0.0
C325 C 0.15518 0.59649 0.10697 0.0
C326 C 0.12679 0.60339 0.09643 0.0
C327 C 0.10375 0.58283 0.10265 0.0
C328 C 0.10978 0.55521 0.11974 0.0
C329 C 0.1383 0.54817 0.13009 0.0
C330 C 0.21451 0.46049 0.17532 0.0
C331 C 0.28228 0.50224 0.17817 0.0
C332 C 0.29478 0.39845 0.13225 0.0
C333 C 0.31104 0.37595 0.15238 0.0
C334 C 0.29801 0.34743 0.16136 0.0
C335 C 0.31433 0.32371 0.1767 0.0
C336 C 0.34415 0.32783 0.18335 0.0
C337 C 0.35694 0.3568 0.17515 0.0
C338 C 0.34062 0.38052 0.15979 0.0
C339 C 0.27419 0.50498 0.09626 0.0
O340 O 0.20341 0.48819 0.09904 0.0
O341 O 0.23026 0.44056 0.09595 0.0
O342 O 0.19487 0.54582 0.15865 0.0
O343 O 0.20946 0.55166 0.11373 0.0
O344 O 0.21024 0.49021 0.18231 0.0
O345 O 0.2206 0.45827 0.14845 0.0
O346 O 0.2806 0.47128 0.17253 0.0
O347 O 0.26472 0.52341 0.16435 0.0
O348 O 0.30615 0.42618 0.12641 0.0
O349 O 0.26629 0.40032 0.13455 0.0
O350 O 0.27818 0.47603 0.08657 0.0
O351 O 0.26749 0.50349 0.12263 0.0
H352 H 0.17252 0.61271 0.10184 0.0
H353 H 0.12281 0.62509 0.08368 0.0
H354 H 0.09255 0.53881 0.12472 0.0
H355 H 0.14247 0.52648 0.14282 0.0
H356 H 0.27536 0.34296 0.15572 0.0
H357 H 0.30366 0.30191 0.18295 0.0
H358 H 0.37995 0.36068 0.17951 0.0
H359 H 0.35152 0.40193 0.15285 0.0
Ho360 Ho 0.72928 0.97835 0.88209 0.0
Ho361 Ho 0.77042 0.03255 0.8981 0.0
C362 C 0.71338 0.028 0.93598 0.0
C363 C 0.69484 0.93001 0.88299 0.0
C364 C 0.66466 0.92324 0.89256 0.0
C365 C 0.65978 0.91141 0.92098 0.0
C366 C 0.63164 0.90335 0.92958 0.0
C367 C 0.60763 0.90671 0.90995 0.0
C368 C 0.61247 0.91892 0.88164 0.0
C369 C 0.64063 0.92697 0.87303 0.0
C370 C 0.72357 0.03011 0.84729 0.0
C371 C 0.78867 0.98409 0.8473 0.0
C372 C 0.80343 0.08208 0.89751 0.0
C373 C 0.8207 0.1017 0.87711 0.0
C374 C 0.80781 0.12861 0.86273 0.0
C375 C 0.82492 0.14971 0.84681 0.0
C376 C 0.85537 0.14455 0.84507 0.0
C377 C 0.86803 0.11688 0.8584 0.0
C378 C 0.85094 0.0958 0.8743 0.0
C379 C 0.77794 0.97701 0.92939 0.0
O380 O 0.70785 1.0009 0.9221 0.0
O381 O 0.73539 0.04611 0.92893 0.0
O382 O 0.69757 0.94869 0.8601 0.0
O383 O 0.71421 0.93573 0.90364 0.0
O384 O 0.72045 1.00105 0.83831 0.0
O385 O 0.72762 0.03084 0.87482 0.0
O386 O 0.78693 0.01454 0.8549 0.0
O387 O 0.77068 0.96302 0.85875 0.0
O388 O 0.81321 0.05306 0.90383 0.0
O389 O 0.77489 0.08379 0.89458 0.0
O390 O 0.78214 1.00513 0.94051 0.0
O391 O 0.77229 0.98019 0.9026 0.0
H392 H 0.67782 0.90782 0.93649 0.0
H393 H 0.6289 0.89354 0.95137 0.0
H394 H 0.59449 0.92219 0.86602 0.0
H395 H 0.64357 0.93579 0.85092 0.0
H396 H 0.78462 0.13412 0.86464 0.0
H397 H 0.81445 0.17089 0.83711 0.0
H398 H 0.89135 0.11187 0.85714 0.0
H399 H 0.86164 0.07544 0.8852 0.0
Ho400 Ho 0.75937 0.96901 0.39473 0.0
Ho401 Ho 0.81201 0.00996 0.38279 0.0
C402 C 0.80331 0.94371 0.34633 0.0
C403 C 0.70894 0.94283 0.40054 0.0
C404 C 0.69304 0.91744 0.38515 0.0
C405 C 0.70791 0.89433 0.36834 0.0
C406 C 0.69257 0.86959 0.35489 0.0
C407 C 0.66205 0.86753 0.35797 0.0
C408 C 0.64725 0.89138 0.37416 0.0
C409 C 0.66261 0.916 0.38763 0.0
C410 C 0.80797 0.95417 0.42739 0.0
C411 C 0.76719 0.0385 0.42702 0.0
C412 C 0.86447 0.03131 0.37715 0.0
C413 C 0.8879 0.05011 0.39139 0.0
C414 C 0.9046 0.03794 0.41544 0.0
C415 C 0.92964 0.05371 0.42539 0.0
C416 C 0.93865 0.08182 0.41138 0.0
C417 C 0.92112 0.09464 0.38823 0.0
C418 C 0.89618 0.07894 0.37833 0.0
C419 C 0.76282 0.02431 0.35034 0.0
O420 O 0.77591 0.9429 0.35513 0.0
O421 O 0.82154 0.96525 0.35657 0.0
O422 O 0.73252 0.93368 0.41525 0.0
O423 O 0.71257 0.96927 0.38579 0.0
O424 O 0.79054 0.93335 0.41624 0.0
O425 O 0.79847 0.98209 0.42123 0.0
O426 O 0.79531 0.03673 0.42107 0.0
O427 O 0.74878 0.01663 0.41725 0.0
O428 O 0.84089 0.04671 0.36742 0.0
O429 O 0.85885 1.00319 0.38825 0.0
O430 O 0.78106 0.04557 0.3594 0.0
O431 O 0.77281 0.99695 0.3572 0.0
H432 H 0.73143 0.89513 0.36599 0.0
H433 H 0.70474 0.85161 0.34279 0.0
H434 H 0.62372 0.89103 0.37651 0.0
H435 H 0.65071 0.93379 0.40025 0.0
H436 H 0.89901 0.01563 0.42592 0.0
H437 H 0.94264 0.04307 0.44319 0.0
H438 H 0.92701 0.11657 0.37728 0.0
H439 H 0.88393 0.08881 0.35966 0.0
Ho440 Ho 0.30369 0.47749 0.6295 0.0
Ho441 Ho 0.25998 0.53811 0.61722 0.0
C442 C 0.31615 0.52888 0.57686 0.0
C443 C 0.33145 0.42353 0.62428 0.0
C444 C 0.36253 0.41478 0.62033 0.0
C445 C 0.37009 0.38986 0.60124 0.0
C446 C 0.39945 0.3831 0.59505 0.0
C447 C 0.42179 0.40112 0.60794 0.0
C448 C 0.41415 0.42591 0.62729 0.0
C449 C 0.38475 0.43284 0.63328 0.0
C450 C 0.3204 0.52922 0.66131 0.0
C451 C 0.24615 0.4891 0.66878 0.0
C452 C 0.22947 0.59103 0.61755 0.0
C453 C 0.21705 0.6156 0.63693 0.0
C454 C 0.2117 0.60955 0.66662 0.0
C455 C 0.19835 0.6333 0.68382 0.0
C456 C 0.19027 0.66341 0.67155 0.0
C457 C 0.19661 0.66944 0.64199 0.0
C458 C 0.20986 0.64578 0.62492 0.0
C459 C 0.2509 0.48327 0.58628 0.0
O460 O 0.32077 0.49964 0.58786 0.0
O461 O 0.29627 0.54918 0.58715 0.0
O462 O 0.32417 0.43549 0.64982 0.0
O463 O 0.31917 0.43905 0.60199 0.0
O464 O 0.33396 0.50153 0.66194 0.0
O465 O 0.29984 0.52741 0.64272 0.0
O466 O 0.24656 0.51983 0.66135 0.0
O467 O 0.26385 0.46729 0.65658 0.0
O468 O 0.21779 0.56268 0.618 0.0
O469 O 0.25806 0.5898 0.61576 0.0
O470 O 0.24375 0.51163 0.57613 0.0
O471 O 0.2597 0.48624 0.61211 0.0
H472 H 0.35322 0.37592 0.59078 0.0
H473 H 0.40469 0.36358 0.58036 0.0
H474 H 0.43087 0.44035 0.63737 0.0
H475 H 0.3794 0.45262 0.64764 0.0
H476 H 0.2174 0.58642 0.67632 0.0
H477 H 0.19402 0.62797 0.70658 0.0
H478 H 0.19027 0.69203 0.63162 0.0
H479 H 0.2139 0.65084 0.60202 0.0
H480 H 0.15842 0.3257 0.51085 0.0
H481 H 0.26501 0.42466 0.60898 0.0
H482 H 0.23692 0.28207 0.54892 0.0
H483 H 0.21982 0.46985 0.53525 0.0
H484 H 0.2521 0.3724 0.59016 0.0
H485 H 0.1773 0.37863 0.52196 0.0
C486 C 0.17988 0.32724 0.52112 0.0
C487 C 0.19631 0.29937 0.52862 0.0
C488 C 0.24535 0.39366 0.57782 0.0
C489 C 0.21754 0.35999 0.54233 0.0
C490 C 0.25284 0.42361 0.58845 0.0
C491 C 0.24404 0.45176 0.57334 0.0
C492 C 0.22799 0.39162 0.55231 0.0
C493 C 0.22734 0.44877 0.54741 0.0
C494 C 0.19057 0.35751 0.5275 0.0
C495 C 0.22361 0.30289 0.54261 0.0
N496 N 0.2195 0.4192 0.53789 0.0
N497 N 0.23321 0.33264 0.54937 0.0
H498 H 0.83105 0.02128 0.82406 0.0
H499 H 0.93506 0.87261 0.78145 0.0
H500 H 0.80669 0.92259 0.83349 0.0
H501 H 0.96652 0.96843 0.79168 0.0
H502 H 0.88598 0.89173 0.79337 0.0
H503 H 0.87807 1.00339 0.80468 0.0
C504 C 0.83532 0.9958 0.82166 0.0
C505 C 0.81479 0.97337 0.83068 0.0
C506 C 0.90351 0.90867 0.79294 0.0
C507 C 0.86898 0.95282 0.80852 0.0
C508 C 0.93163 0.8978 0.78606 0.0
C509 C 0.95502 0.91897 0.78564 0.0
C510 C 0.89848 0.94108 0.79943 0.0
C511 C 0.94914 0.95131 0.79186 0.0
C512 C 0.86235 0.98566 0.81072 0.0
C513 C 0.82175 0.94076 0.82688 0.0
N514 N 0.92142 0.9614 0.79855 0.0
N515 N 0.84831 0.93148 0.81627 0.0
H516 H 0.32984 0.69868 0.07043 0.0
H517 H 0.29426 0.51485 0.04012 0.0
H518 H 0.33225 0.65729 0.98393 0.0
H519 H 0.27249 0.56439 0.11985 0.0
H520 H 0.30965 0.56606 0.01897 0.0
H521 H 0.31003 0.64886 0.08913 0.0
C522 C 0.32599 0.6793 0.0553 0.0
C523 C 0.33275 0.68236 0.02554 0.0
C524 C 0.30134 0.56563 0.04105 0.0
C525 C 0.3104 0.62489 0.04692 0.0
C526 C 0.2926 0.53644 0.05308 0.0
C527 C 0.28224 0.53531 0.08181 0.0
C528 C 0.29992 0.59369 0.05803 0.0
C529 C 0.28048 0.56402 0.09767 0.0
C530 C 0.31468 0.65078 0.066 0.0
C531 C 0.32733 0.65621 1.00704 0.0
N532 N 0.28939 0.59186 0.08568 0.0
N533 N 0.31672 0.62855 0.01806 0.0
H534 H 0.60182 0.11759 0.29084 0.0
H535 H 0.72258 0.982 0.32946 0.0
H536 H 0.57706 0.02056 0.30878 0.0
H537 H 0.73428 0.08247 0.34564 0.0
H538 H 0.67126 0.99384 0.31499 0.0
H539 H 0.65224 0.10322 0.30352 0.0
C540 C 0.60694 0.09312 0.29741 0.0
C541 C 0.58496 0.0703 0.29891 0.0
C542 C 0.68509 0.01323 0.32172 0.0
C543 C 0.6434 0.05353 0.31337 0.0
C544 C 0.71435 0.00655 0.32995 0.0
C545 C 0.73259 0.03126 0.3392 0.0
C546 C 0.67426 0.04499 0.322 0.0
C547 C 0.721 0.06267 0.33881 0.0
C548 C 0.63589 0.08497 0.30474 0.0
C549 C 0.59325 0.03893 0.30745 0.0
N550 N 0.69266 0.06861 0.33034 0.0
N551 N 0.6219 0.03139 0.3143 0.0
H552 H 0.65919 0.1873 0.5054 0.0
H553 H 0.79773 0.09137 0.44288 0.0
H554 H 0.73671 0.23431 0.47672 0.0
H555 H 0.71116 0.05248 0.44547 0.0
H556 H 0.77835 0.14152 0.46276 0.0
H557 H 0.68067 0.13594 0.491 0.0
C558 C 0.68089 0.18682 0.49624 0.0
C559 C 0.69616 0.21523 0.49214 0.0
C560 C 0.76365 0.12195 0.45915 0.0
C561 C 0.72095 0.15614 0.47559 0.0
C562 C 0.77468 0.09314 0.44795 0.0
C563 C 0.75603 0.06749 0.44238 0.0
C564 C 0.73375 0.12523 0.46518 0.0
C565 C 0.72637 0.07149 0.44936 0.0
C566 C 0.69308 0.15741 0.48792 0.0
C567 C 0.72419 0.21301 0.48018 0.0
N568 N 0.71616 0.09981 0.46036 0.0
N569 N 0.73572 0.18392 0.47229 0.0
H570 H 0.09056 0.45963 0.77321 0.0
H571 H 0.21808 0.43285 0.66218 0.0
H572 H 0.07477 0.42241 0.68651 0.0
H573 H 0.21393 0.52184 0.70968 0.0
H574 H 0.16939 0.42037 0.67986 0.0
H575 H 0.13901 0.47696 0.75759 0.0
C576 C 0.09701 0.45583 0.75072 0.0
C577 C 0.07853 0.43992 0.731 0.0
C578 C 0.17937 0.44242 0.68668 0.0
C579 C 0.13413 0.45807 0.71366 0.0
C580 C 0.20732 0.44934 0.67702 0.0
C581 C 0.22016 0.47836 0.68463 0.0
C582 C 0.1644 0.46428 0.70461 0.0
C583 C 0.20483 0.49915 0.70342 0.0
C584 C 0.12464 0.46549 0.74195 0.0
C585 C 0.08811 0.43506 0.70227 0.0
N586 N 0.17773 0.49167 0.7129 0.0
N587 N 0.11549 0.44352 0.69462 0.0
H588 H 0.80341 0.96369 0.98366 0.0
H589 H 0.78499 0.77479 0.97863 0.0
H590 H 0.76787 0.91825 0.9067 0.0
H591 H 0.86766 0.8149 1.0038 0.0
H592 H 0.76687 0.82903 0.96448 0.0
H593 H 0.81616 0.91011 1.00416 0.0
C594 C 0.79777 0.94255 0.97137 0.0
C595 C 0.78418 0.94544 0.94361 0.0
C596 C 0.78877 0.82579 0.97371 0.0
C597 C 0.79788 0.88458 0.96713 0.0
C598 C 0.79908 0.79498 0.98177 0.0
C599 C 0.82773 0.79036 0.99285 0.0
C600 C 0.807 0.85211 0.97753 0.0
C601 C 0.8452 0.81738 0.99612 0.0
C602 C 0.80504 0.91212 0.98302 0.0
C603 C 0.77767 0.91721 0.92845 0.0
N604 N 0.83453 0.84708 0.9887 0.0
N605 N 0.78436 0.88801 0.94045 0.0
H606 H 0.45034 0.5831 0.18468 0.0
H607 H 0.31925 0.46989 0.2171 0.0
H608 H 0.44352 0.54324 0.27179 0.0
H609 H 0.30775 0.55966 0.17026 0.0
H610 H 0.36869 0.48604 0.23247 0.0
H611 H 0.40245 0.56167 0.17204 0.0
C612 C 0.43918 0.56904 0.20088 0.0
C613 C 0.45082 0.56498 0.22935 0.0
C614 C 0.35504 0.50218 0.21911 0.0
C615 C 0.39614 0.5407 0.21505 0.0
C616 C 0.32688 0.49316 0.21052 0.0
C617 C 0.30929 0.51356 0.19255 0.0
C618 C 0.36581 0.53122 0.2088 0.0
C619 C 0.32035 0.54329 0.18435 0.0
C620 C 0.41173 0.55722 0.19376 0.0
C621 C 0.43517 0.54693 0.24961 0.0
N622 N 0.34808 0.55097 0.19212 0.0
N623 N 0.40849 0.53543 0.2421 0.0
H624 H 0.5911 0.16677 0.32657 0.0
H625 H 0.55632 0.27794 0.46135 0.0
H626 H 0.50418 0.20842 0.33439 0.0
H627 H 0.60836 0.19055 0.47006 0.0
H628 H 0.54032 0.26095 0.41216 0.0
H629 H 0.6032 0.18582 0.37584 0.0
C630 C 0.57481 0.1807 0.33829 0.0
C631 C 0.5466 0.1861 0.32635 0.0
C632 C 0.55486 0.24538 0.42515 0.0
C633 C 0.56025 0.20759 0.38277 0.0
C634 C 0.5638 0.25487 0.45322 0.0
C635 C 0.58349 0.23549 0.46993 0.0
C636 C 0.56648 0.21688 0.41347 0.0
C637 C 0.59286 0.20606 0.45817 0.0
C638 C 0.5816 0.1911 0.36656 0.0
C639 C 0.5262 0.20382 0.34283 0.0
N640 N 0.58471 0.19794 0.43046 0.0
N641 N 0.53343 0.21402 0.37026 0.0
H642 H 0.0782 0.21938 0.57196 0.0
H643 H 0.03775 0.36711 0.67558 0.0
H644 H 0.08501 0.31843 0.54581 0.0
H645 H 0.04907 0.27014 0.70771 0.0
H646 H 0.04715 0.34862 0.62603 0.0
H647 H 0.05902 0.23667 0.61902 0.0
C648 C 0.07516 0.24481 0.5758 0.0
C649 C 0.08358 0.2675 0.55479 0.0
C650 C 0.04745 0.33127 0.64381 0.0
C651 C 0.06174 0.28738 0.60908 0.0
C652 C 0.04201 0.34178 0.67218 0.0
C653 C 0.04271 0.3201 0.69589 0.0
C654 C 0.05363 0.29873 0.63884 0.0
C655 C 0.04844 0.28764 0.69008 0.0
C656 C 0.06437 0.25461 0.60286 0.0
C657 C 0.07892 0.30004 0.56121 0.0
N658 N 0.05378 0.27792 0.66211 0.0
N659 N 0.06858 0.30898 0.58785 0.0
H660 H 0.95188 0.78003 0.80145 0.0
H661 H 0.95693 0.79301 0.9727 0.0
H662 H 0.02782 0.81783 0.84555 0.0
H663 H 0.92242 0.70914 0.93089 0.0
H664 H 0.97909 0.80794 0.92591 0.0
H665 H 0.93604 0.75828 0.84864 0.0
C666 C 0.96539 0.78333 0.82091 0.0
C667 C 0.99122 0.8006 0.81954 0.0
C668 C 0.9669 0.7861 0.92727 0.0
C669 C 0.97284 0.77689 0.87336 0.0
C670 C 0.95428 0.77763 0.95385 0.0
C671 C 0.9379 0.74981 0.95572 0.0
C672 C 0.96232 0.76707 0.90237 0.0
C673 C 0.93502 0.73073 0.93056 0.0
C674 C 0.95636 0.771 0.84774 0.0
C675 C 1.00785 0.80443 0.8455 0.0
N676 N 0.9467 0.73998 0.90482 0.0
N677 N 0.99812 0.79316 0.87145 0.0
H678 H 0.46564 0.7334 0.20081 0.0
H679 H 0.42669 0.667 0.04108 0.0
H680 H 0.48373 0.63619 0.17385 0.0
H681 H 0.44224 0.76714 0.05498 0.0
H682 H 0.44283 0.65571 0.09166 0.0
H683 H 0.4522 0.74723 0.14941 0.0
C684 C 0.46686 0.71505 0.18417 0.0
C685 C 0.47574 0.68358 0.19173 0.0
C686 C 0.44277 0.68019 0.08369 0.0
C687 C 0.46011 0.699 0.13325 0.0
C688 C 0.43361 0.68661 0.05477 0.0
C689 C 0.43277 0.7181 0.04392 0.0
C690 C 0.45097 0.70544 0.10212 0.0
C691 C 0.44207 0.74257 0.06268 0.0
C692 C 0.45926 0.72293 0.15489 0.0
C693 C 0.47695 0.66074 0.16922 0.0
N694 N 0.45049 0.73583 0.09097 0.0
N695 N 0.46903 0.66881 0.14124 0.0
H696 H 0.11776 0.37718 0.31258 0.0
H697 H 0.24294 0.40574 0.19521 0.0
H698 H 0.20522 0.33634 0.3216 0.0
H699 H 0.1606 0.45822 0.19783 0.0
H700 H 0.22624 0.37072 0.23497 0.0
H701 H 0.13 0.39784 0.26429 0.0
C702 C 0.13953 0.37246 0.30434 0.0
C703 C 0.16063 0.35547 0.32137 0.0
C704 C 0.21162 0.38947 0.22637 0.0
C705 C 0.17484 0.37901 0.26592 0.0
C706 C 0.22103 0.40916 0.20356 0.0
C707 C 0.203 0.43468 0.19343 0.0
C708 C 0.18402 0.3955 0.23877 0.0
C709 C 0.17507 0.43872 0.20519 0.0
C710 C 0.14648 0.38413 0.27669 0.0
C711 C 0.18828 0.34937 0.30922 0.0
N712 N 0.16651 0.4195 0.22734 0.0
N713 N 0.19472 0.36148 0.28238 0.0
H714 H 0.8917 0.95023 0.59856 0.0
H715 H 0.8306 0.89539 0.44227 0.0
H716 H 0.9048 0.85499 0.56428 0.0
H717 H 0.83154 0.99435 0.46855 0.0
H718 H 0.85929 0.88068 0.48625 0.0
H719 H 0.8706 0.9674 0.55106 0.0
C720 C 0.8902 0.93294 0.58103 0.0
C721 C 0.89992 0.90105 0.5855 0.0
C722 C 0.85352 0.90567 0.48233 0.0
C723 C 0.87582 0.92058 0.53102 0.0
C724 C 0.83716 0.91408 0.45719 0.0
C725 C 0.82852 0.94609 0.4519 0.0
C726 C 0.86106 0.92939 0.50262 0.0
C727 C 0.8377 0.96937 0.47188 0.0
C728 C 0.87833 0.94282 0.55386 0.0
C729 C 0.89781 0.87984 0.56183 0.0
N730 N 0.85318 0.96051 0.49657 0.0
N731 N 0.88578 0.8899 0.53576 0.0
H732 H 0.28427 0.58041 0.67847 0.0
H733 H 0.38027 0.60099 0.82465 0.0
H734 H 0.36781 0.53314 0.69635 0.0
H735 H 0.32123 0.6775 0.79532 0.0
H736 H 0.36963 0.57212 0.77983 0.0
H737 H 0.29222 0.61424 0.72222 0.0
C738 C 0.30441 0.57757 0.69122 0.0
C739 C 0.3254 0.55388 0.68389 0.0
C740 C 0.35898 0.59527 0.78308 0.0
C741 C 0.33418 0.59151 0.73388 0.0
C742 C 0.36513 0.61188 0.80874 0.0
C743 C 0.35214 0.64213 0.81371 0.0
C744 C 0.33938 0.60861 0.76199 0.0
C745 C 0.33181 0.65427 0.79251 0.0
C746 C 0.30885 0.59666 0.71621 0.0
C747 C 0.35096 0.55091 0.70127 0.0
N748 N 0.32611 0.63753 0.76749 0.0
N749 N 0.35446 0.56917 0.72546 0.0
H750 H 0.64666 0.13583 0.08201 0.0
H751 H 0.67444 0.99294 0.96808 0.0
H752 H 0.61595 0.04031 0.09656 0.0
H753 H 0.71109 0.08688 0.96145 0.0
H754 H 0.64856 0.01035 0.01232 0.0
H755 H 0.66624 0.1188 0.03518 0.0
C756 C 0.64409 0.11119 0.07541 0.0
C757 C 0.62993 0.08941 0.09356 0.0
C758 C 0.66214 0.02714 1.00101 0.0
C759 C 0.65221 0.06963 0.03938 0.0
C760 C 0.67681 0.01727 0.97568 0.0
C761 C 0.69517 0.03838 0.96107 0.0
C762 C 0.66573 0.05838 0.01163 0.0
C763 C 0.69745 0.06959 0.97203 0.0
C764 C 0.65517 0.10148 0.0485 0.0
C765 C 0.62663 0.05797 0.08331 0.0
N766 N 0.68305 0.07853 0.99657 0.0
N767 N 0.63787 0.04896 0.05701 0.0
H768 H 0.64055 0.15153 0.71919 0.0
H769 H 0.75838 0.04052 0.80142 0.0
H770 H 0.72866 0.13763 0.68836 0.0
H771 H 0.6836 0.08013 0.84599 0.0
H772 H 0.7488 0.07796 0.76076 0.0
H773 H 0.65574 0.12691 0.76623 0.0
C774 C 0.66312 0.14348 0.72238 0.0
C775 C 0.68332 0.14647 0.69971 0.0
C776 C 0.7348 0.07908 0.77965 0.0
C777 C 0.70082 0.11826 0.75344 0.0
C778 C 0.74039 0.05784 0.80291 0.0
C779 C 0.72195 0.05768 0.82709 0.0
C780 C 0.70994 0.09959 0.78011 0.0
C781 C 0.69855 0.08001 0.82783 0.0
C782 C 0.67182 0.12967 0.74931 0.0
C783 C 0.71237 0.13599 0.70522 0.0
N784 N 0.69284 0.09974 0.80436 0.0
N785 N 0.72013 0.12201 0.73132 0.0
H786 H 0.20753 0.40103 0.06179 0.0
H787 H 0.10938 0.45597 0.92241 0.0
H788 H 0.171 0.49699 0.05194 0.0
H789 H 0.141 0.35914 0.93911 0.0
H790 H 0.13072 0.47202 0.96968 0.0
H791 H 0.18219 0.38576 0.01698 0.0
C792 C 0.19405 0.41893 0.05027 0.0
C793 C 0.19156 0.45043 0.06062 0.0
C794 C 0.13294 0.44728 0.96293 0.0
C795 C 0.16243 0.43302 1.00882 0.0
C796 C 0.12072 0.43808 0.93599 0.0
C797 C 0.12367 0.4062 0.92656 0.0
C798 C 0.14815 0.42441 0.98054 0.0
C799 C 0.13872 0.38411 0.94505 0.0
C800 C 0.17953 0.41015 0.02459 0.0
C801 C 0.17355 0.47243 0.04476 0.0
N802 N 0.1504 0.39364 0.97101 0.0
N803 N 0.15981 0.46337 0.01949 0.0
H804 H 0.77159 0.90065 0.31387 0.0
H805 H 0.89879 0.87643 0.19738 0.0
H806 H 0.85782 0.9398 0.32283 0.0
H807 H 0.81919 0.82296 0.19379 0.0
H808 H 0.88352 0.89948 0.24362 0.0
H809 H 0.78796 0.87133 0.27039 0.0
C810 C 0.794 0.90285 0.30693 0.0
C811 C 0.81326 0.92297 0.32196 0.0
C812 C 0.86941 0.88256 0.23286 0.0
C813 C 0.832 0.88976 0.27213 0.0
C814 C 0.87823 0.86917 0.20643 0.0
C815 C 0.86038 0.84749 0.19154 0.0
C816 C 0.84233 0.87458 0.24463 0.0
C817 C 0.83356 0.83983 0.20422 0.0
C818 C 0.80331 0.88616 0.28207 0.0
C819 C 0.84206 0.92484 0.31192 0.0
N820 N 0.82531 0.85343 0.22996 0.0
N821 N 0.85042 0.9087 0.2876 0.0
H822 H 0.35517 0.49363 0.54347 0.0
H823 H 0.37604 0.63781 0.42933 0.0
H824 H 0.31526 0.58805 0.55086 0.0
H825 H 0.41774 0.54477 0.41886 0.0
H826 H 0.35466 0.61937 0.47462 0.0
H827 H 0.37976 0.51141 0.49899 0.0
C828 C 0.3517 0.5181 0.53593 0.0
C829 C 0.33295 0.53929 0.55099 0.0
C830 C 0.36845 0.60286 0.4625 0.0
C831 C 0.36092 0.55969 0.50004 0.0
C832 C 0.38052 0.61334 0.4364 0.0
C833 C 0.39849 0.59274 0.41993 0.0
C834 C 0.37426 0.57142 0.47252 0.0
C835 C 0.40409 0.56154 0.43083 0.0
C836 C 0.3657 0.52819 0.51048 0.0
C837 C 0.32932 0.5707 0.54006 0.0
N838 N 0.39193 0.55177 0.45637 0.0
N839 N 0.34305 0.57983 0.51534 0.0
H840 H 0.2367 0.1733 0.47554 0.0
H841 H 0.33771 0.18726 0.33607 0.0
H842 H 0.21862 0.24587 0.40932 0.0
H843 H 0.36694 0.14634 0.41908 0.0
H844 H 0.29259 0.20654 0.35945 0.0
H845 H 0.28222 0.15927 0.45155 0.0
C846 C 0.24215 0.18624 0.4558 0.0
C847 C 0.22359 0.21083 0.44446 0.0
C848 C 0.30904 0.19349 0.37248 0.0
C849 C 0.27628 0.19469 0.41671 0.0
C850 C 0.33491 0.1826 0.35922 0.0
C851 C 0.35619 0.16465 0.37545 0.0
C852 C 0.30426 0.18611 0.40208 0.0
C853 C 0.351 0.15922 0.40535 0.0
C854 C 0.26838 0.1783 0.44221 0.0
C855 C 0.23223 0.22679 0.41888 0.0
N856 N 0.32557 0.16957 0.41752 0.0
N857 N 0.2579 0.21831 0.40572 0.0
H858 H 0.08581 0.09842 0.65303 0.0
H859 H 0.01312 0.92595 0.65478 0.0
H860 H 0.0776 0.04146 0.5748 0.0
H861 H 0.05131 0.97196 0.73025 0.0
H862 H 0.02668 0.97216 0.62436 0.0
H863 H 0.06245 0.05642 0.68079 0.0
C864 C 0.079 0.07711 0.64164 0.0
C865 C 0.08422 0.07323 0.61163 0.0
C866 C 0.03186 0.97205 0.64763 0.0
C867 C 0.05714 0.02503 0.64335 0.0
C868 C 0.02408 0.94583 0.66495 0.0
C869 C 0.03148 0.94498 0.69496 0.0
C870 C 0.04651 0.99767 0.66068 0.0
C871 C 0.0456 0.97134 0.70711 0.0
C872 C 0.06557 0.05317 0.6575 0.0
C873 C 0.07407 0.04545 0.59791 0.0
N874 N 0.05263 0.9965 0.68997 0.0
N875 N 0.06125 0.02221 0.61394 0.0
H876 H 0.16771 0.85432 0.9086 0.0
H877 H 0.31956 0.75607 0.93212 0.0
H878 H 0.20229 0.79268 0.84121 0.0
H879 H 0.28942 0.83481 0.98533 0.0
H880 H 0.27617 0.76475 0.89959 0.0
H881 H 0.21075 0.84197 0.93896 0.0
C882 C 0.18417 0.83777 0.9003 0.0
C883 C 0.18116 0.82443 0.87229 0.0
C884 C 0.27929 0.78017 0.91833 0.0
C885 C 0.23134 0.81057 0.907 0.0
C886 C 0.30412 0.77535 0.93671 0.0
C887 C 0.30824 0.79493 0.96127 0.0
C888 C 0.25851 0.80446 0.92494 0.0
C889 C 0.28719 0.81911 0.96667 0.0
C890 C 0.20902 0.83097 0.91758 0.0
C891 C 0.20376 0.8037 0.86259 0.0
N892 N 0.26336 0.82308 0.9488 0.0
N893 N 0.22792 0.79737 0.87992 0.0
H894 H 0.48204 0.01068 0.24974 0.0
H895 H 0.45988 0.92568 0.09599 0.0
H896 H 0.51881 0.04916 0.17086 0.0
H897 H 0.44955 0.87839 0.17949 0.0
H898 H 0.4814 0.97112 0.12155 0.0
H899 H 0.46898 0.9628 0.22319 0.0
C900 C 0.48738 0.00909 0.22673 0.0
C901 C 0.50133 0.0342 0.21245 0.0
C902 C 0.47468 0.95062 0.13419 0.0
C903 C 0.48625 0.97894 0.18168 0.0
C904 C 0.46253 0.92454 0.11962 0.0
C905 C 0.45249 0.89816 0.13559 0.0
C906 C 0.4766 0.95047 0.16495 0.0
C907 C 0.45626 0.89839 0.16623 0.0
C908 C 0.48005 0.98154 0.21159 0.0
C909 C 0.50803 0.03041 0.1827 0.0
N910 N 0.46769 0.92418 0.17984 0.0
N911 N 0.50011 1.00341 0.16815 0.0
H912 H 0.85111 0.31752 0.66653 0.0
H913 H 0.71164 0.35583 0.56245 0.0
H914 H 0.83295 0.40888 0.62434 0.0
H915 H 0.72895 0.26306 0.60248 0.0
H916 H 0.75451 0.37613 0.58765 0.0
H917 H 0.80509 0.29787 0.64617 0.0
C918 C 0.8373 0.33358 0.65325 0.0
C919 C 0.84599 0.36491 0.64707 0.0
C920 C 0.74895 0.35135 0.59105 0.0
C921 C 0.79343 0.34239 0.62342 0.0
C922 C 0.72439 0.33965 0.57661 0.0
C923 C 0.71669 0.30752 0.58012 0.0
C924 C 0.7662 0.33087 0.60918 0.0
C925 C 0.73407 0.28795 0.59902 0.0
C926 C 0.81112 0.32226 0.64149 0.0
C927 C 0.82739 0.38444 0.62936 0.0
N928 N 0.75812 0.29989 0.61273 0.0
N929 N 0.80209 0.37284 0.61813 0.0
H930 H 0.01326 0.44459 0.8198 0.0
H931 H 0.8748 0.52563 0.89888 0.0
H932 H 0.92453 0.41294 0.81022 0.0
H933 H 0.96128 0.56456 0.9042 0.0
H934 H 0.89425 0.48099 0.87053 0.0
H935 H 0.99645 0.48482 0.85531 0.0
C936 C 0.99034 0.4458 0.8255 0.0
C937 C 0.97017 0.42562 0.81186 0.0
C938 C 0.90908 0.4992 0.8779 0.0
C939 C 0.95081 0.4716 0.8522 0.0
C940 C 0.89792 0.5249 0.89397 0.0
C941 C 0.9163 0.54928 0.90361 0.0
C942 C 0.93897 0.49759 0.87124 0.0
C943 C 0.94626 0.54637 0.89724 0.0
C944 C 0.98074 0.46886 0.84563 0.0
C945 C 0.94077 0.42818 0.82003 0.0
N946 N 0.95663 0.52115 0.88126 0.0
N947 N 0.93198 0.45085 0.83945 0.0
H948 H 0.81837 0.6493 0.07751 0.0
H949 H 0.67586 0.71048 0.16111 0.0
H950 H 0.80332 0.74876 0.099 0.0
H951 H 0.69902 0.6111 0.14653 0.0
H952 H 0.72356 0.72547 0.14209 0.0
H953 H 0.77628 0.6353 0.10624 0.0
C954 C 0.80628 0.66823 0.08851 0.0
C955 C 0.81418 0.70029 0.0856 0.0
C956 C 0.71826 0.70039 0.14332 0.0
C957 C 0.76542 0.68441 0.11846 0.0
C958 C 0.69109 0.6918 0.15426 0.0
C959 C 0.68324 0.65948 0.15504 0.0
C960 C 0.73767 0.67649 0.13311 0.0
C961 C 0.7038 0.63634 0.14573 0.0
C962 C 0.78219 0.6602 0.10499 0.0
C963 C 0.79791 0.72374 0.10067 0.0
N964 N 0.72988 0.6453 0.13501 0.0
N965 N 0.77398 0.71538 0.11616 0.0
H966 H 0.54485 0.4197 0.38804 0.0
H967 H 0.55111 0.60457 0.33973 0.0
H968 H 0.59791 0.4879 0.43395 0.0
H969 H 0.52108 0.52828 0.28455 0.0
H970 H 0.55851 0.5655 0.38031 0.0
H971 H 0.52616 0.46272 0.35584 0.0
C972 C 0.55249 0.44374 0.39148 0.0
C973 C 0.57338 0.44997 0.41351 0.0
C974 C 0.54989 0.55753 0.3594 0.0
C975 C 0.55181 0.49962 0.37669 0.0
C976 C 0.54552 0.5798 0.3364 0.0
C977 C 0.53585 0.56941 0.30879 0.0
C978 C 0.54405 0.52499 0.35464 0.0
C979 C 0.52897 0.53712 0.30545 0.0
C980 C 0.5417 0.46837 0.37314 0.0
C981 C 0.58181 0.48189 0.41733 0.0
N982 N 0.53332 0.51609 0.32798 0.0
N983 N 0.57125 0.50546 0.39891 0.0
H984 H 0.38753 0.33257 0.22543 0.0
H985 H 0.43875 0.14732 0.21958 0.0
H986 H 0.34235 0.26289 0.17321 0.0
H987 H 0.49127 0.22368 0.25291 0.0
H988 H 0.39781 0.18639 0.21127 0.0
H989 H 0.42044 0.29001 0.24425 0.0
C990 C 0.38444 0.30831 0.21796 0.0
C991 C 0.36233 0.3015 0.19735 0.0
C992 C 0.4182 0.19439 0.22081 0.0
C993 C 0.39997 0.25234 0.21907 0.0
C994 C 0.44139 0.1721 0.22572 0.0
C995 C 0.46839 0.1825 0.23659 0.0
C996 C 0.42216 0.22696 0.22726 0.0
C997 C 0.47087 0.21481 0.24411 0.0
C998 C 0.40318 0.28393 0.22884 0.0
C999 C 0.359 0.26934 0.18911 0.0
N1000 N 0.4482 0.23586 0.23917 0.0
N1001 N 0.3778 0.24601 0.19976 0.0
H1002 H 0.92965 0.29811 0.7402 0.0
H1003 H 0.90823 0.16516 0.86534 0.0
H1004 H 0.98237 0.28786 0.81942 0.0
H1005 H 0.84522 0.18083 0.79471 0.0
H1006 H 0.93781 0.20724 0.84528 0.0
H1007 H 0.90019 0.25298 0.75663 0.0
C1008 C 0.93509 0.28639 0.76092 0.0
C1009 C 0.9585 0.29694 0.77846 0.0
C1010 C 0.91758 0.20149 0.834 0.0
C1011 C 0.9251 0.24539 0.79724 0.0
C1012 C 0.90075 0.17715 0.84534 0.0
C1013 C 0.87417 0.16921 0.83168 0.0
C1014 C 0.90794 0.21833 0.80869 0.0
C1015 C 0.86542 0.18629 0.80613 0.0
C1016 C 0.91826 0.26071 0.7703 0.0
C1017 C 0.9645 0.28086 0.80514 0.0
N1018 N 0.88225 0.21006 0.79546 0.0
N1019 N 0.94801 0.25604 0.81361 0.0
H1020 H 0.05182 0.57926 0.13198 0.0
H1021 H 0.96471 0.67892 1.00783 0.0
H1022 H 0.08694 0.60421 0.04792 0.0
H1023 H 0.92694 0.65436 0.09054 0.0
H1024 H 1.00588 0.64205 0.01861 0.0
H1025 H 1.00319 0.59786 0.1145 0.0
C1026 C 0.04922 0.58819 0.10971 0.0
C1027 C 0.07358 0.59068 0.09154 0.0
C1028 C 0.98834 0.64401 0.03421 0.0
C1029 C 0.01806 0.61208 0.07144 0.0
C1030 C 0.9647 0.6648 0.02787 0.0
C1031 C 0.94245 0.66928 0.04822 0.0
C1032 C 0.99018 0.62831 0.06156 0.0
C1033 C 0.94359 0.65107 0.07414 0.0
C1034 C 0.02147 0.59887 0.09977 0.0
C1035 C 0.06893 0.60253 0.06292 0.0
N1036 N 0.96743 0.63177 0.08038 0.0
N1037 N 0.04184 0.61302 0.05389 0.0
H1038 H 0.61727 0.83501 0.38254 0.0
H1039 H 0.59537 0.71149 0.2503 0.0
H1040 H 0.66979 0.83701 0.30483 0.0
H1041 H 0.5395 0.71973 0.32541 0.0
H1042 H 0.62463 0.7554 0.2699 0.0
H1043 H 0.59018 0.79093 0.36193 0.0
C1044 C 0.62299 0.8264 0.36098 0.0
C1045 C 0.64574 0.84015 0.34534 0.0
C1046 C 0.60594 0.74749 0.282 0.0
C1047 C 0.61485 0.78881 0.32159 0.0
C1048 C 0.58927 0.72238 0.27086 0.0
C1049 C 0.56483 0.71179 0.28613 0.0
C1050 C 0.59818 0.76195 0.30865 0.0
C1051 C 0.55799 0.72696 0.31267 0.0
C1052 C 0.60758 0.80096 0.34926 0.0
C1053 C 0.65256 0.82712 0.3178 0.0
N1054 N 0.57451 0.75109 0.32298 0.0
N1055 N 0.63715 0.80225 0.30677 0.0
H1056 H 0.58314 0.33363 0.52883 0.0
H1057 H 0.46784 0.39648 0.64701 0.0
H1058 H 0.58822 0.31131 0.62124 0.0
H1059 H 0.4467 0.38833 0.55479 0.0
H1060 H 0.5182 0.37915 0.63709 0.0
H1061 H 0.53936 0.36773 0.53761 0.0
C1062 C 0.57552 0.33668 0.55102 0.0
C1063 C 0.58895 0.31959 0.57438 0.0
C1064 C 0.50261 0.3815 0.61898 0.0
C1065 C 0.53939 0.35811 0.58451 0.0
C1066 C 0.47391 0.3915 0.6246 0.0
C1067 C 0.45297 0.39344 0.60174 0.0
C1068 C 0.51053 0.37354 0.59026 0.0
C1069 C 0.46205 0.38653 0.57313 0.0
C1070 C 0.55049 0.35584 0.55598 0.0
C1071 C 0.57823 0.324 0.60268 0.0
N1072 N 0.49014 0.37668 0.5682 0.0
N1073 N 0.55398 0.34266 0.60694 0.0
H1074 H 0.14581 0.65279 0.7096 0.0
H1075 H 0.09352 0.8371 0.71603 0.0
H1076 H 0.1948 0.72912 0.67149 0.0
H1077 H 0.04059 0.75664 0.73775 0.0
H1078 H 0.13562 0.7998 0.70929 0.0
H1079 H 0.11249 0.69253 0.73055 0.0
C1080 C 0.14997 0.67792 0.70611 0.0
C1081 C 0.17296 0.68753 0.68835 0.0
C1082 C 0.11483 0.79047 0.71589 0.0
C1083 C 0.13428 0.73336 0.71179 0.0
C1084 C 0.09093 0.81171 0.7198 0.0
C1085 C 0.06356 0.79975 0.72693 0.0
C1086 C 0.11116 0.75731 0.71955 0.0
C1087 C 0.06124 0.76675 0.73172 0.0
C1088 C 0.13072 0.70067 0.71788 0.0
C1089 C 0.17696 0.72058 0.68446 0.0
N1090 N 0.08462 0.74672 0.72777 0.0
N1091 N 0.15759 0.74231 0.69575 0.0
H1092 H 0.45536 0.84826 1.00696 0.0
H1093 H 0.56708 0.8756 0.87624 0.0
H1094 H 0.44377 0.81209 0.91914 0.0
H1095 H 0.58048 0.9132 0.96327 0.0
H1096 H 0.51974 0.85615 0.891 0.0
H1097 H 0.49878 0.87633 0.99083 0.0
C1098 C 0.46162 0.84657 0.98422 0.0
C1099 C 0.44594 0.82749 0.96448 0.0
C1100 C 0.5329 0.86882 0.90688 0.0
C1101 C 0.49581 0.85933 0.94594 0.0
C1102 C 0.55996 0.88017 0.89838 0.0
C1103 C 0.57798 0.89611 0.9185 0.0
C1104 C 0.5236 0.87324 0.93582 0.0
C1105 C 0.5676 0.90065 0.94709 0.0
C1106 C 0.48654 0.86248 0.97506 0.0
C1107 C 0.45525 0.82619 0.93529 0.0
N1108 N 0.5412 0.88918 0.95492 0.0
N1109 N 0.47959 0.84164 0.92702 0.0
H1110 H 0.96339 0.091 0.46654 0.0
H1111 H 0.09451 0.19227 0.40285 0.0
H1112 H 0.97911 0.10636 0.37456 0.0
H1113 H 0.08555 0.175 0.4954 0.0
H1114 H 0.0548 0.15598 0.39277 0.0
H1115 H 0.00961 0.11737 0.47837 0.0
C1116 C 0.97658 0.09971 0.44883 0.0
C1117 C 0.967 0.09685 0.41948 0.0
C1118 C 0.06166 0.15955 0.41534 0.0
C1119 C 0.01994 0.12696 0.43289 0.0
C1120 C 0.08453 0.18013 0.42106 0.0
C1121 C 0.09348 0.1863 0.44995 0.0
C1122 C 0.04697 0.14541 0.43872 0.0
C1123 C 0.0796 0.17031 0.47279 0.0
C1124 C 1.00295 0.11479 0.45562 0.0
C1125 C 0.98506 0.10866 0.39751 0.0
N1126 N 0.05668 0.15088 0.46673 0.0
N1127 N 0.01042 0.12322 0.40467 0.0
loop_
_geom_bond_atom_site_label_1
_geom_bond_atom_site_label_2
_geom_bond_distance
_geom_bond_site_symmetry_2
_ccdc_geom_bond_type
Ho0 C3 2.811 . S
Ho0 O20 2.322 . S
Ho0 O22 2.378 . S
Ho0 O23 2.524 . S
Ho0 O24 2.381 . S
Ho0 O25 2.669 . S
Ho0 O27 2.346 . S
Ho0 O31 2.305 . S
Ho1 C12 2.811 . S
Ho1 O21 2.346 . S
Ho1 O25 2.305 . S
Ho1 O26 2.322 . S
Ho1 O28 2.378 . S
Ho1 O29 2.524 . S
Ho1 O30 2.381 . S
Ho1 O31 2.669 . S
C2 O20 1.259 . S
C2 O21 1.268 . S
C3 Ho0 2.811 . S
C3 C4 1.488 . S
C3 O22 1.215 . S
C3 O23 1.289 . S
C4 C3 1.488 . S
C4 C5 1.348 . S
C4 C9 1.413 . S
C5 C4 1.348 . S
C5 C6 1.442 . S
C5 H32 0.930 . S
C6 C5 1.442 . S
C6 C7 1.381 . S
C6 H33 0.931 . S
C7 C6 1.381 . S
C7 C8 1.321 . S
C8 C7 1.321 . S
C8 C9 1.403 . S
C8 H34 0.934 . S
C9 C4 1.413 . S
C9 C8 1.403 . S
C9 H35 0.930 . S
C10 O24 1.275 . S
C10 O25 1.256 . S
C11 O26 1.259 . S
C11 O27 1.268 . S
C12 Ho1 2.811 . S
C12 C13 1.488 . S
C12 O28 1.215 . S
C12 O29 1.289 . S
C13 C12 1.488 . S
C13 C14 1.348 . S
C13 C18 1.413 . S
C14 C13 1.348 . S
C14 C15 1.442 . S
C14 H36 0.930 . S
C15 C14 1.442 . S
C15 C16 1.381 . S
C15 H37 0.931 . S
C16 C15 1.381 . S
C16 C17 1.321 . S
C17 C16 1.321 . S
C17 C18 1.403 . S
C17 H38 0.934 . S
C18 C13 1.413 . S
C18 C17 1.403 . S
C18 H39 0.930 . S
C19 O30 1.275 . S
C19 O31 1.256 . S
O20 Ho0 2.322 . S
O20 C2 1.259 . S
O21 Ho1 2.346 . S
O21 C2 1.268 . S
O22 Ho0 2.378 . S
O22 C3 1.215 . S
O23 Ho0 2.524 . S
O23 C3 1.289 . S
O24 Ho0 2.381 . S
O24 C10 1.275 . S
O25 Ho0 2.669 . S
O25 Ho1 2.305 . S
O25 C10 1.256 . S
O26 Ho1 2.322 . S
O26 C11 1.259 . S
O27 Ho0 2.346 . S
O27 C11 1.268 . S
O28 Ho1 2.378 . S
O28 C12 1.215 . S
O29 Ho1 2.524 . S
O29 C12 1.289 . S
O30 Ho1 2.381 . S
O30 C19 1.275 . S
O31 Ho0 2.305 . S
O31 Ho1 2.669 . S
O31 C19 1.256 . S
H32 C5 0.930 . S
H33 C6 0.931 . S
H34 C8 0.934 . S
H35 C9 0.930 . S
H36 C14 0.930 . S
H37 C15 0.931 . S
H38 C17 0.934 . S
H39 C18 0.930 . S
Ho40 C43 2.811 . S
Ho40 O60 2.322 1_655 S
Ho40 O62 2.378 . S
Ho40 O63 2.524 . S
Ho40 O64 2.381 1_655 S
Ho40 O65 2.669 1_655 S
Ho40 O67 2.346 . S
Ho40 O71 2.305 . S
Ho41 C52 2.811 . S
Ho41 O61 2.346 . S
Ho41 O65 2.305 . S
Ho41 O66 2.322 . S
Ho41 O68 2.378 . S
Ho41 O69 2.524 . S
Ho41 O70 2.409 . S
Ho41 O71 2.669 1_455 S
C42 O60 1.259 . S
C42 O61 1.268 . S
C43 Ho40 2.811 . S
C43 C44 1.488 . S
C43 O62 1.215 . S
C43 O63 1.289 . S
C44 C43 1.488 . S
C44 C45 1.348 . S
C44 C49 1.413 . S
C45 C44 1.348 . S
C45 C46 1.442 . S
C45 H72 0.930 . S
C46 C45 1.442 . S
C46 C47 1.381 . S
C46 H73 0.931 . S
C47 C46 1.381 . S
C47 C48 1.321 . S
C48 C47 1.321 . S
C48 C49 1.403 . S
C48 H74 0.934 . S
C49 C44 1.413 . S
C49 C48 1.403 . S
C49 H75 0.930 . S
C50 O64 1.275 . S
C50 O65 1.256 . S
C51 O66 1.259 1_655 S
C51 O67 1.268 . S
C52 Ho41 2.811 . S
C52 C53 1.488 . S
C52 O68 1.215 . S
C52 O69 1.289 . S
C53 C52 1.488 . S
C53 C54 1.348 . S
C53 C58 1.413 . S
C54 C53 1.348 . S
C54 C55 1.442 . S
C54 H76 0.930 . S
C55 C54 1.442 . S
C55 C56 1.381 . S
C55 H77 0.931 . S
C56 C55 1.381 . S
C56 C57 1.321 . S
C57 C56 1.321 . S
C57 C58 1.403 . S
C57 H78 0.934 . S
C58 C53 1.413 . S
C58 C57 1.403 . S
C58 H79 0.930 . S
C59 O70 1.246 1_655 S
C59 O71 1.256 . S
O60 Ho40 2.322 1_455 S
O60 C42 1.259 . S
O61 Ho41 2.346 . S
O61 C42 1.268 . S
O62 Ho40 2.378 . S
O62 C43 1.215 . S
O63 Ho40 2.524 . S
O63 C43 1.289 . S
O64 Ho40 2.381 1_455 S
O64 C50 1.275 . S
O65 Ho40 2.669 1_455 S
O65 Ho41 2.305 . S
O65 C50 1.256 . S
O66 Ho41 2.322 . S
O66 C51 1.259 1_455 S
O67 Ho40 2.346 . S
O67 C51 1.268 . S
O68 Ho41 2.378 . S
O68 C52 1.215 . S
O69 Ho41 2.524 . S
O69 C52 1.289 . S
O70 Ho41 2.409 . S
O70 C59 1.246 1_455 S
O71 Ho40 2.305 . S
O71 Ho41 2.669 1_655 S
O71 C59 1.256 . S
H72 C45 0.930 . S
H73 C46 0.931 . S
H74 C48 0.934 . S
H75 C49 0.930 . S
H76 C54 0.930 . S
H77 C55 0.931 . S
H78 C57 0.934 . S
H79 C58 0.930 . S
Ho80 C83 2.811 . S
Ho80 O100 2.322 1_554 S
Ho80 O102 2.378 . S
Ho80 O103 2.524 . S
Ho80 O104 2.381 1_554 S
Ho80 O105 2.669 1_554 S
Ho80 O107 2.346 . S
Ho80 O111 2.305 . S
Ho81 C92 2.811 . S
Ho81 O101 2.346 . S
Ho81 O105 2.305 . S
Ho81 O106 2.322 . S
Ho81 O108 2.378 . S
Ho81 O109 2.524 . S
Ho81 O110 2.381 . S
Ho81 O111 2.669 1_556 S
C82 O100 1.259 . S
C82 O101 1.268 . S
C83 Ho80 2.811 . S
C83 C84 1.488 . S
C83 O102 1.215 . S
C83 O103 1.289 . S
C84 C83 1.488 . S
C84 C85 1.348 . S
C84 C89 1.413 . S
C85 C84 1.348 . S
C85 C86 1.442 . S
C85 H112 0.930 . S
C86 C85 1.442 . S
C86 C87 1.381 . S
C86 H113 0.931 . S
C87 C86 1.381 . S
C87 C88 1.321 . S
C88 C87 1.321 . S
C88 C89 1.403 . S
C88 H114 0.934 . S
C89 C84 1.413 . S
C89 C88 1.403 . S
C89 H115 0.930 . S
C90 O104 1.275 . S
C90 O105 1.256 . S
C91 O106 1.259 1_554 S
C91 O107 1.268 . S
C92 Ho81 2.811 . S
C92 C93 1.488 . S
C92 O108 1.215 . S
C92 O109 1.289 . S
C93 C92 1.488 . S
C93 C94 1.348 . S
C93 C98 1.413 . S
C94 C93 1.348 . S
C94 C95 1.442 . S
C94 H116 0.930 . S
C95 C94 1.442 . S
C95 C96 1.381 . S
C95 H117 0.931 . S
C96 C95 1.381 . S
C96 C97 1.321 . S
C97 C96 1.321 . S
C97 C98 1.403 . S
C97 H118 0.934 . S
C98 C93 1.413 . S
C98 C97 1.403 . S
C98 H119 0.930 . S
C99 O110 1.275 1_554 S
C99 O111 1.256 . S
O100 Ho80 2.322 1_556 S
O100 C82 1.259 . S
O101 Ho81 2.346 . S
O101 C82 1.268 . S
O102 Ho80 2.378 . S
O102 C83 1.215 . S
O103 Ho80 2.524 . S
O103 C83 1.289 . S
O104 Ho80 2.381 1_556 S
O104 C90 1.275 . S
O105 Ho80 2.669 1_556 S
O105 Ho81 2.305 . S
O105 C90 1.256 . S
O106 Ho81 2.322 . S
O106 C91 1.259 1_556 S
O107 Ho80 2.346 . S
O107 C91 1.268 . S
O108 Ho81 2.378 . S
O108 C92 1.215 . S
O109 Ho81 2.524 . S
O109 C92 1.289 . S
O110 Ho81 2.381 . S
O110 C99 1.275 1_556 S
O111 Ho80 2.305 . S
O111 Ho81 2.669 1_554 S
O111 C99 1.256 . S
H112 C85 0.930 . S
H113 C86 0.931 . S
H114 C88 0.934 . S
H115 C89 0.930 . S
H116 C94 0.930 . S
H117 C95 0.931 . S
H118 C97 0.934 . S
H119 C98 0.930 . S
Ho120 C123 2.811 . S
Ho120 O140 2.322 . S
Ho120 O142 2.378 . S
Ho120 O143 2.524 . S
Ho120 O144 2.381 . S
Ho120 O145 2.669 . S
Ho120 O147 2.346 . S
Ho120 O151 2.305 . S
Ho121 C132 2.811 . S
Ho121 O141 2.346 . S
Ho121 O145 2.305 . S
Ho121 O146 2.322 . S
Ho121 O148 2.378 . S
Ho121 O149 2.524 . S
Ho121 O150 2.381 . S
Ho121 O151 2.669 . S
C122 O140 1.259 . S
C122 O141 1.268 . S
C123 Ho120 2.811 . S
C123 C124 1.488 . S
C123 O142 1.215 . S
C123 O143 1.289 . S
C124 C123 1.488 . S
C124 C125 1.348 . S
C124 C129 1.413 . S
C125 C124 1.348 . S
C125 C126 1.442 . S
C125 H152 0.930 . S
C126 C125 1.442 . S
C126 C127 1.381 . S
C126 H153 0.931 . S
C127 C126 1.381 . S
C127 C128 1.321 . S
C128 C127 1.321 . S
C128 C129 1.403 . S
C128 H154 0.934 . S
C129 C124 1.413 . S
C129 C128 1.403 . S
C129 H155 0.930 . S
C130 O144 1.275 . S
C130 O145 1.256 . S
C131 O146 1.259 . S
C131 O147 1.268 . S
C132 Ho121 2.811 . S
C132 C133 1.488 . S
C132 O148 1.215 . S
C132 O149 1.289 . S
C133 C132 1.488 . S
C133 C134 1.348 . S
C133 C138 1.413 . S
C134 C133 1.348 . S
C134 C135 1.442 . S
C134 H156 0.930 . S
C135 C134 1.442 . S
C135 C136 1.381 . S
C135 H157 0.931 . S
C136 C135 1.381 . S
C136 C137 1.321 . S
C137 C136 1.321 . S
C137 C138 1.403 . S
C137 H158 0.934 . S
C138 C133 1.413 . S
C138 C137 1.403 . S
C138 H159 0.930 . S
C139 O150 1.275 . S
C139 O151 1.256 . S
O140 Ho120 2.322 . S
O140 C122 1.259 . S
O141 Ho121 2.346 . S
O141 C122 1.268 . S
O142 Ho120 2.378 . S
O142 C123 1.215 . S
O143 Ho120 2.524 . S
O143 C123 1.289 . S
O144 Ho120 2.381 . S
O144 C130 1.275 . S
O145 Ho120 2.669 . S
O145 Ho121 2.305 . S
O145 C130 1.256 . S
O146 Ho121 2.322 . S
O146 C131 1.259 . S
O147 Ho120 2.346 . S
O147 C131 1.268 . S
O148 Ho121 2.378 . S
O148 C132 1.215 . S
O149 Ho121 2.524 . S
O149 C132 1.289 . S
O150 Ho121 2.381 . S
O150 C139 1.275 . S
O151 Ho120 2.305 . S
O151 Ho121 2.669 . S
O151 C139 1.256 . S
H152 C125 0.930 . S
H153 C126 0.931 . S
H154 C128 0.934 . S
H155 C129 0.930 . S
H156 C134 0.930 . S
H157 C135 0.931 . S
H158 C137 0.934 . S
H159 C138 0.930 . S
Ho160 C163 2.811 . S
Ho160 O180 2.322 . S
Ho160 O182 2.378 . S
Ho160 O183 2.524 . S
Ho160 O184 2.381 . S
Ho160 O185 2.669 . S
Ho160 O187 2.346 . S
Ho160 O191 2.305 . S
Ho161 C172 2.811 . S
Ho161 O181 2.346 . S
Ho161 O185 2.305 . S
Ho161 O186 2.322 . S
Ho161 O188 2.378 . S
Ho161 O189 2.524 . S
Ho161 O190 2.381 . S
Ho161 O191 2.669 . S
C162 O180 1.259 . S
C162 O181 1.268 . S
C163 Ho160 2.811 . S
C163 C164 1.488 . S
C163 O182 1.215 . S
C163 O183 1.289 . S
C164 C163 1.488 . S
C164 C165 1.348 . S
C164 C169 1.413 . S
C165 C164 1.348 . S
C165 C166 1.442 . S
C165 H192 0.930 . S
C166 C165 1.442 . S
C166 C167 1.381 . S
C166 H193 0.931 . S
C167 C166 1.381 . S
C167 C168 1.321 . S
C168 C167 1.321 . S
C168 C169 1.403 . S
C168 H194 0.934 . S
C169 C164 1.413 . S
C169 C168 1.403 . S
C169 H195 0.930 . S
C170 O184 1.275 . S
C170 O185 1.256 . S
C171 O186 1.259 . S
C171 O187 1.268 . S
C172 Ho161 2.811 . S
C172 C173 1.488 . S
C172 O188 1.215 . S
C172 O189 1.289 . S
C173 C172 1.488 . S
C173 C174 1.348 . S
C173 C178 1.413 . S
C174 C173 1.348 . S
C174 C175 1.442 . S
C174 H196 0.930 . S
C175 C174 1.442 . S
C175 C176 1.381 . S
C175 H197 0.931 . S
C176 C175 1.381 . S
C176 C177 1.321 . S
C177 C176 1.321 . S
C177 C178 1.403 . S
C177 H198 0.934 . S
C178 C173 1.413 . S
C178 C177 1.403 . S
C178 H199 0.930 . S
C179 O190 1.275 . S
C179 O191 1.256 . S
O180 Ho160 2.322 . S
O180 C162 1.259 . S
O181 Ho161 2.346 . S
O181 C162 1.268 . S
O182 Ho160 2.378 . S
O182 C163 1.215 . S
O183 Ho160 2.524 . S
O183 C163 1.289 . S
O184 Ho160 2.381 . S
O184 C170 1.275 . S
O185 Ho160 2.669 . S
O185 Ho161 2.305 . S
O185 C170 1.256 . S
O186 Ho161 2.322 . S
O186 C171 1.259 . S
O187 Ho160 2.346 . S
O187 C171 1.268 . S
O188 Ho161 2.378 . S
O188 C172 1.215 . S
O189 Ho161 2.524 . S
O189 C172 1.289 . S
O190 Ho161 2.381 . S
O190 C179 1.275 . S
O191 Ho160 2.305 . S
O191 Ho161 2.669 . S
O191 C179 1.256 . S
H192 C165 0.930 . S
H193 C166 0.931 . S
H194 C168 0.934 . S
H195 C169 0.930 . S
H196 C174 0.930 . S
H197 C175 0.931 . S
H198 C177 0.934 . S
H199 C178 0.930 . S
Ho200 C203 2.811 . S
Ho200 O220 2.322 . S
Ho200 O222 2.378 . S
Ho200 O223 2.524 . S
Ho200 O224 2.381 . S
Ho200 O225 2.669 . S
Ho200 O227 2.346 1_655 S
Ho200 O231 2.305 1_655 S
Ho201 C212 2.811 . S
Ho201 O221 2.346 1_455 S
Ho201 O225 2.305 1_455 S
Ho201 O226 2.322 . S
Ho201 O228 2.378 . S
Ho201 O229 2.524 . S
Ho201 O230 2.381 . S
Ho201 O231 2.669 . S
C202 O220 1.259 . S
C202 O221 1.268 . S
C203 Ho200 2.811 . S
C203 C204 1.488 . S
C203 O222 1.215 . S
C203 O223 1.289 . S
C204 C203 1.488 . S
C204 C205 1.348 . S
C204 C209 1.413 . S
C205 C204 1.348 . S
C205 C206 1.442 . S
C205 H232 0.930 . S
C206 C205 1.442 . S
C206 C207 1.381 . S
C206 H233 0.931 . S
C207 C206 1.381 . S
C207 C208 1.321 . S
C208 C207 1.321 . S
C208 C209 1.403 . S
C208 H234 0.934 . S
C209 C204 1.413 . S
C209 C208 1.403 . S
C209 H235 0.930 . S
C210 O224 1.275 . S
C210 O225 1.256 . S
C211 O226 1.259 . S
C211 O227 1.268 . S
C212 Ho201 2.811 . S
C212 C213 1.488 . S
C212 O228 1.215 . S
C212 O229 1.289 . S
C213 C212 1.488 . S
C213 C214 1.348 . S
C213 C218 1.413 . S
C214 C213 1.348 . S
C214 C215 1.442 . S
C214 H236 0.930 . S
C215 C214 1.442 . S
C215 C216 1.381 . S
C215 H237 0.931 . S
C216 C215 1.381 . S
C216 C217 1.321 . S
C217 C216 1.321 . S
C217 C218 1.403 . S
C217 H238 0.934 . S
C218 C213 1.413 . S
C218 C217 1.403 . S
C218 H239 0.930 . S
C219 O230 1.275 . S
C219 O231 1.256 . S
O220 Ho200 2.322 . S
O220 C202 1.259 . S
O221 Ho201 2.346 1_655 S
O221 C202 1.268 . S
O222 Ho200 2.378 . S
O222 C203 1.215 . S
O223 Ho200 2.524 . S
O223 C203 1.289 . S
O224 Ho200 2.381 . S
O224 C210 1.275 . S
O225 Ho200 2.669 . S
O225 Ho201 2.305 1_655 S
O225 C210 1.256 . S
O226 Ho201 2.322 . S
O226 C211 1.259 . S
O227 Ho200 2.346 1_455 S
O227 C211 1.268 . S
O228 Ho201 2.378 . S
O228 C212 1.215 . S
O229 Ho201 2.524 . S
O229 C212 1.289 . S
O230 Ho201 2.381 . S
O230 C219 1.275 . S
O231 Ho200 2.305 1_455 S
O231 Ho201 2.669 . S
O231 C219 1.256 . S
H232 C205 0.930 . S
H233 C206 0.931 . S
H234 C208 0.934 . S
H235 C209 0.930 . S
H236 C214 0.930 . S
H237 C215 0.931 . S
H238 C217 0.934 . S
H239 C218 0.930 . S
Ho240 C243 2.811 . S
Ho240 O260 2.322 . S
Ho240 O262 2.378 . S
Ho240 O263 2.524 . S
Ho240 O264 2.381 . S
Ho240 O265 2.669 . S
Ho240 O267 2.346 1_554 S
Ho240 O271 2.305 . S
Ho241 C252 2.811 . S
Ho241 O261 2.346 1_556 S
Ho241 O265 2.305 1_556 S
Ho241 O266 2.322 . S
Ho241 O268 2.378 . S
Ho241 O269 2.524 . S
Ho241 O270 2.381 . S
Ho241 O271 2.669 1_556 S
C242 O260 1.259 . S
C242 O261 1.268 . S
C243 Ho240 2.811 . S
C243 C244 1.488 . S
C243 O262 1.215 . S
C243 O263 1.289 . S
C244 C243 1.488 . S
C244 C245 1.348 . S
C244 C249 1.413 . S
C245 C244 1.348 . S
C245 C246 1.442 . S
C245 H272 0.930 . S
C246 C245 1.442 . S
C246 C247 1.381 . S
C246 H273 0.931 . S
C247 C246 1.381 . S
C247 C248 1.321 . S
C248 C247 1.321 . S
C248 C249 1.403 . S
C248 H274 0.934 . S
C249 C244 1.413 . S
C249 C248 1.403 . S
C249 H275 0.930 . S
C250 O264 1.275 . S
C250 O265 1.256 . S
C251 O266 1.259 . S
C251 O267 1.268 . S
C252 Ho241 2.811 . S
C252 C253 1.488 . S
C252 O268 1.215 . S
C252 O269 1.289 . S
C253 C252 1.488 . S
C253 C254 1.348 . S
C253 C258 1.413 . S
C254 C253 1.348 . S
C254 C255 1.442 . S
C254 H276 0.930 . S
C255 C254 1.442 . S
C255 C256 1.381 . S
C255 H277 0.931 . S
C256 C255 1.381 . S
C256 C257 1.321 . S
C257 C256 1.321 . S
C257 C258 1.403 . S
C257 H278 0.934 . S
C258 C253 1.413 . S
C258 C257 1.403 . S
C258 H279 0.930 . S
C259 O270 1.275 . S
C259 O271 1.256 1_556 S
O260 Ho240 2.322 . S
O260 C242 1.259 . S
O261 Ho241 2.346 1_554 S
O261 C242 1.268 . S
O262 Ho240 2.378 . S
O262 C243 1.215 . S
O263 Ho240 2.524 . S
O263 C243 1.289 . S
O264 Ho240 2.381 . S
O264 C250 1.275 . S
O265 Ho240 2.669 . S
O265 Ho241 2.305 1_554 S
O265 C250 1.256 . S
O266 Ho241 2.322 . S
O266 C251 1.259 . S
O267 Ho240 2.346 1_556 S
O267 C251 1.268 . S
O268 Ho241 2.378 . S
O268 C252 1.215 . S
O269 Ho241 2.524 . S
O269 C252 1.289 . S
O270 Ho241 2.381 . S
O270 C259 1.275 . S
O271 Ho240 2.305 . S
O271 Ho241 2.669 1_554 S
O271 C259 1.256 1_554 S
H272 C245 0.930 . S
H273 C246 0.931 . S
H274 C248 0.934 . S
H275 C249 0.930 . S
H276 C254 0.930 . S
H277 C255 0.931 . S
H278 C257 0.934 . S
H279 C258 0.930 . S
Ho280 C283 2.811 . S
Ho280 O300 2.322 . S
Ho280 O302 2.378 . S
Ho280 O303 2.524 . S
Ho280 O304 2.381 . S
Ho280 O305 2.669 . S
Ho280 O307 2.346 . S
Ho280 O311 2.305 . S
Ho281 C292 2.811 . S
Ho281 O301 2.346 . S
Ho281 O305 2.305 . S
Ho281 O306 2.322 . S
Ho281 O308 2.378 . S
Ho281 O309 2.524 . S
Ho281 O310 2.381 . S
Ho281 O311 2.669 . S
C282 O300 1.259 . S
C282 O301 1.268 . S
C283 Ho280 2.811 . S
C283 C284 1.488 . S
C283 O302 1.215 . S
C283 O303 1.289 . S
C284 C283 1.488 . S
C284 C285 1.348 . S
C284 C289 1.413 . S
C285 C284 1.348 . S
C285 C286 1.442 . S
C285 H312 0.930 . S
C286 C285 1.442 . S
C286 C287 1.381 . S
C286 H313 0.931 . S
C287 C286 1.381 . S
C287 C288 1.321 . S
C288 C287 1.321 . S
C288 C289 1.403 . S
C288 H314 0.934 . S
C289 C284 1.413 . S
C289 C288 1.403 . S
C289 H315 0.930 . S
C290 O304 1.275 . S
C290 O305 1.256 . S
C291 O306 1.259 . S
C291 O307 1.268 . S
C292 Ho281 2.811 . S
C292 C293 1.488 . S
C292 O308 1.215 . S
C292 O309 1.289 . S
C293 C292 1.488 . S
C293 C294 1.348 . S
C293 C298 1.413 . S
C294 C293 1.348 . S
C294 C295 1.442 . S
C294 H316 0.930 . S
C295 C294 1.442 . S
C295 C296 1.381 . S
C295 H317 0.931 . S
C296 C295 1.381 . S
C296 C297 1.321 . S
C297 C296 1.321 . S
C297 C298 1.403 . S
C297 H318 0.934 . S
C298 C293 1.413 . S
C298 C297 1.403 . S
C298 H319 0.930 . S
C299 O310 1.275 . S
C299 O311 1.256 . S
O300 Ho280 2.322 . S
O300 C282 1.259 . S
O301 Ho281 2.346 . S
O301 C282 1.268 . S
O302 Ho280 2.378 . S
O302 C283 1.215 . S
O303 Ho280 2.524 . S
O303 C283 1.289 . S
O304 Ho280 2.381 . S
O304 C290 1.275 . S
O305 Ho280 2.669 . S
O305 Ho281 2.305 . S
O305 C290 1.256 . S
O306 Ho281 2.322 . S
O306 C291 1.259 . S
O307 Ho280 2.346 . S
O307 C291 1.268 . S
O308 Ho281 2.378 . S
O308 C292 1.215 . S
O309 Ho281 2.524 . S
O309 C292 1.289 . S
O310 Ho281 2.381 . S
O310 C299 1.275 . S
O311 Ho280 2.305 . S
O311 Ho281 2.669 . S
O311 C299 1.256 . S
H312 C285 0.930 . S
H313 C286 0.931 . S
H314 C288 0.934 . S
H315 C289 0.930 . S
H316 C294 0.930 . S
H317 C295 0.931 . S
H318 C297 0.934 . S
H319 C298 0.930 . S
Ho320 C323 2.811 . S
Ho320 O340 2.322 . S
Ho320 O342 2.378 . S
Ho320 O343 2.524 . S
Ho320 O344 2.381 . S
Ho320 O345 2.669 . S
Ho320 O347 2.346 . S
Ho320 O351 2.305 . S
Ho321 C332 2.811 . S
Ho321 O341 2.346 . S
Ho321 O345 2.305 . S
Ho321 O346 2.322 . S
Ho321 O348 2.378 . S
Ho321 O349 2.524 . S
Ho321 O350 2.381 . S
Ho321 O351 2.669 . S
C322 O340 1.259 . S
C322 O341 1.268 . S
C323 Ho320 2.811 . S
C323 C324 1.488 . S
C323 O342 1.215 . S
C323 O343 1.289 . S
C324 C323 1.488 . S
C324 C325 1.348 . S
C324 C329 1.413 . S
C325 C324 1.348 . S
C325 C326 1.442 . S
C325 H352 0.930 . S
C326 C325 1.442 . S
C326 C327 1.381 . S
C326 H353 0.931 . S
C327 C326 1.381 . S
C327 C328 1.321 . S
C328 C327 1.321 . S
C328 C329 1.403 . S
C328 H354 0.934 . S
C329 C324 1.413 . S
C329 C328 1.403 . S
C329 H355 0.930 . S
C330 O344 1.275 . S
C330 O345 1.256 . S
C331 O346 1.259 . S
C331 O347 1.268 . S
C332 Ho321 2.811 . S
C332 C333 1.488 . S
C332 O348 1.215 . S
C332 O349 1.289 . S
C333 C332 1.488 . S
C333 C334 1.348 . S
C333 C338 1.413 . S
C334 C333 1.348 . S
C334 C335 1.442 . S
C334 H356 0.930 . S
C335 C334 1.442 . S
C335 C336 1.381 . S
C335 H357 0.931 . S
C336 C335 1.381 . S
C336 C337 1.321 . S
C337 C336 1.321 . S
C337 C338 1.403 . S
C337 H358 0.934 . S
C338 C333 1.413 . S
C338 C337 1.403 . S
C338 H359 0.930 . S
C339 O350 1.275 . S
C339 O351 1.256 . S
O340 Ho320 2.322 . S
O340 C322 1.259 . S
O341 Ho321 2.346 . S
O341 C322 1.268 . S
O342 Ho320 2.378 . S
O342 C323 1.215 . S
O343 Ho320 2.524 . S
O343 C323 1.289 . S
O344 Ho320 2.381 . S
O344 C330 1.275 . S
O345 Ho320 2.669 . S
O345 Ho321 2.305 . S
O345 C330 1.256 . S
O346 Ho321 2.322 . S
O346 C331 1.259 . S
O347 Ho320 2.346 . S
O347 C331 1.268 . S
O348 Ho321 2.378 . S
O348 C332 1.215 . S
O349 Ho321 2.524 . S
O349 C332 1.289 . S
O350 Ho321 2.381 . S
O350 C339 1.275 . S
O351 Ho320 2.305 . S
O351 Ho321 2.669 . S
O351 C339 1.256 . S
H352 C325 0.930 . S
H353 C326 0.931 . S
H354 C328 0.934 . S
H355 C329 0.930 . S
H356 C334 0.930 . S
H357 C335 0.931 . S
H358 C337 0.934 . S
H359 C338 0.930 . S
Ho360 C363 2.811 . S
Ho360 O380 2.322 1_565 S
Ho360 O382 2.378 . S
Ho360 O383 2.524 . S
Ho360 O384 2.381 1_565 S
Ho360 O385 2.669 1_565 S
Ho360 O387 2.346 . S
Ho360 O391 2.305 . S
Ho361 C372 2.811 . S
Ho361 O381 2.346 . S
Ho361 O385 2.305 . S
Ho361 O386 2.322 1_545 S
Ho361 O388 2.378 . S
Ho361 O389 2.524 . S
Ho361 O390 2.381 1_545 S
Ho361 O391 2.669 1_545 S
C362 O380 1.259 . S
C362 O381 1.268 . S
C363 Ho360 2.811 . S
C363 C364 1.488 . S
C363 O382 1.215 . S
C363 O383 1.289 . S
C364 C363 1.488 . S
C364 C365 1.348 . S
C364 C369 1.413 . S
C365 C364 1.348 . S
C365 C366 1.442 . S
C365 H392 0.930 . S
C366 C365 1.442 . S
C366 C367 1.381 . S
C366 H393 0.931 . S
C367 C366 1.381 . S
C367 C368 1.321 . S
C368 C367 1.321 . S
C368 C369 1.403 . S
C368 H394 0.934 . S
C369 C364 1.413 . S
C369 C368 1.403 . S
C369 H395 0.930 . S
C370 O384 1.275 . S
C370 O385 1.256 . S
C371 O386 1.259 . S
C371 O387 1.268 . S
C372 Ho361 2.811 . S
C372 C373 1.488 . S
C372 O388 1.215 . S
C372 O389 1.289 . S
C373 C372 1.488 . S
C373 C374 1.348 . S
C373 C378 1.413 . S
C374 C373 1.348 . S
C374 C375 1.442 . S
C374 H396 0.930 . S
C375 C374 1.442 . S
C375 C376 1.381 . S
C375 H397 0.931 . S
C376 C375 1.381 . S
C376 C377 1.321 . S
C377 C376 1.321 . S
C377 C378 1.403 . S
C377 H398 0.934 . S
C378 C373 1.413 . S
C378 C377 1.403 . S
C378 H399 0.930 . S
C379 O390 1.275 . S
C379 O391 1.256 . S
O380 Ho360 2.322 1_545 S
O380 C362 1.259 . S
O381 Ho361 2.346 . S
O381 C362 1.268 . S
O382 Ho360 2.378 . S
O382 C363 1.215 . S
O383 Ho360 2.524 . S
O383 C363 1.289 . S
O384 Ho360 2.381 1_545 S
O384 C370 1.275 . S
O385 Ho360 2.669 1_545 S
O385 Ho361 2.305 . S
O385 C370 1.256 . S
O386 Ho361 2.322 1_565 S
O386 C371 1.259 . S
O387 Ho360 2.346 . S
O387 C371 1.268 . S
O388 Ho361 2.378 . S
O388 C372 1.215 . S
O389 Ho361 2.524 . S
O389 C372 1.289 . S
O390 Ho361 2.381 1_565 S
O390 C379 1.275 . S
O391 Ho360 2.305 . S
O391 Ho361 2.669 1_565 S
O391 C379 1.256 . S
H392 C365 0.930 . S
H393 C366 0.931 . S
H394 C368 0.934 . S
H395 C369 0.930 . S
H396 C374 0.930 . S
H397 C375 0.931 . S
H398 C377 0.934 . S
H399 C378 0.930 . S
Ho400 C403 2.811 . S
Ho400 O420 2.322 . S
Ho400 O422 2.378 . S
Ho400 O423 2.524 . S
Ho400 O424 2.381 . S
Ho400 O425 2.669 . S
Ho400 O427 2.346 1_565 S
Ho400 O431 2.305 1_565 S
Ho401 C412 2.811 . S
Ho401 O421 2.346 1_545 S
Ho401 O425 2.305 1_545 S
Ho401 O426 2.322 . S
Ho401 O428 2.378 . S
Ho401 O429 2.524 . S
Ho401 O430 2.381 . S
Ho401 O431 2.669 . S
C402 O420 1.259 . S
C402 O421 1.268 . S
C403 Ho400 2.811 . S
C403 C404 1.488 . S
C403 O422 1.215 . S
C403 O423 1.289 . S
C404 C403 1.488 . S
C404 C405 1.348 . S
C404 C409 1.413 . S
C405 C404 1.348 . S
C405 C406 1.442 . S
C405 H432 0.930 . S
C406 C405 1.442 . S
C406 C407 1.381 . S
C406 H433 0.931 . S
C407 C406 1.381 . S
C407 C408 1.321 . S
C408 C407 1.321 . S
C408 C409 1.403 . S
C408 H434 0.934 . S
C409 C404 1.413 . S
C409 C408 1.403 . S
C409 H435 0.930 . S
C410 O424 1.275 . S
C410 O425 1.256 . S
C411 O426 1.259 . S
C411 O427 1.268 . S
C412 Ho401 2.811 . S
C412 C413 1.488 . S
C412 O428 1.215 . S
C412 O429 1.289 . S
C413 C412 1.488 . S
C413 C414 1.348 . S
C413 C418 1.413 . S
C414 C413 1.348 . S
C414 C415 1.442 . S
C414 H436 0.930 . S
C415 C414 1.442 . S
C415 C416 1.381 . S
C415 H437 0.931 . S
C416 C415 1.381 . S
C416 C417 1.321 . S
C417 C416 1.321 . S
C417 C418 1.403 . S
C417 H438 0.934 . S
C418 C413 1.413 . S
C418 C417 1.403 . S
C418 H439 0.930 . S
C419 O430 1.275 . S
C419 O431 1.256 . S
O420 Ho400 2.322 . S
O420 C402 1.259 . S
O421 Ho401 2.346 1_565 S
O421 C402 1.268 . S
O422 Ho400 2.378 . S
O422 C403 1.215 . S
O423 Ho400 2.524 . S
O423 C403 1.289 . S
O424 Ho400 2.381 . S
O424 C410 1.275 . S
O425 Ho400 2.669 . S
O425 Ho401 2.305 1_565 S
O425 C410 1.256 . S
O426 Ho401 2.322 . S
O426 C411 1.259 . S
O427 Ho400 2.346 1_545 S
O427 C411 1.268 . S
O428 Ho401 2.378 . S
O428 C412 1.215 . S
O429 Ho401 2.524 . S
O429 C412 1.289 . S
O430 Ho401 2.381 . S
O430 C419 1.275 . S
O431 Ho400 2.305 1_545 S
O431 Ho401 2.669 . S
O431 C419 1.256 . S
H432 C405 0.930 . S
H433 C406 0.931 . S
H434 C408 0.934 . S
H435 C409 0.930 . S
H436 C414 0.930 . S
H437 C415 0.931 . S
H438 C417 0.934 . S
H439 C418 0.930 . S
Ho440 C443 2.811 . S
Ho440 O460 2.322 . S
Ho440 O462 2.378 . S
Ho440 O463 2.524 . S
Ho440 O464 2.381 . S
Ho440 O465 2.669 . S
Ho440 O467 2.346 . S
Ho440 O471 2.305 . S
Ho441 C452 2.811 . S
Ho441 O461 2.346 . S
Ho441 O465 2.305 . S
Ho441 O466 2.322 . S
Ho441 O468 2.378 . S
Ho441 O469 2.524 . S
Ho441 O470 2.381 . S
Ho441 O471 2.669 . S
C442 O460 1.259 . S
C442 O461 1.268 . S
C443 Ho440 2.811 . S
C443 C444 1.488 . S
C443 O462 1.215 . S
C443 O463 1.289 . S
C444 C443 1.488 . S
C444 C445 1.348 . S
C444 C449 1.413 . S
C445 C444 1.348 . S
C445 C446 1.442 . S
C445 H472 0.930 . S
C446 C445 1.442 . S
C446 C447 1.381 . S
C446 H473 0.931 . S
C447 C446 1.381 . S
C447 C448 1.321 . S
C448 C447 1.321 . S
C448 C449 1.403 . S
C448 H474 0.934 . S
C449 C444 1.413 . S
C449 C448 1.403 . S
C449 H475 0.930 . S
C450 O464 1.275 . S
C450 O465 1.256 . S
C451 O466 1.259 . S
C451 O467 1.268 . S
C452 Ho441 2.811 . S
C452 C453 1.488 . S
C452 O468 1.215 . S
C452 O469 1.289 . S
C453 C452 1.488 . S
C453 C454 1.348 . S
C453 C458 1.413 . S
C454 C453 1.348 . S
C454 C455 1.442 . S
C454 H476 0.930 . S
C455 C454 1.442 . S
C455 C456 1.381 . S
C455 H477 0.931 . S
C456 C455 1.381 . S
C456 C457 1.321 . S
C457 C456 1.321 . S
C457 C458 1.403 . S
C457 H478 0.934 . S
C458 C453 1.413 . S
C458 C457 1.403 . S
C458 H479 0.930 . S
C459 O470 1.275 . S
C459 O471 1.256 . S
O460 Ho440 2.322 . S
O460 C442 1.259 . S
O461 Ho441 2.346 . S
O461 C442 1.268 . S
O462 Ho440 2.378 . S
O462 C443 1.215 . S
O463 Ho440 2.524 . S
O463 C443 1.289 . S
O464 Ho440 2.381 . S
O464 C450 1.275 . S
O465 Ho440 2.669 . S
O465 Ho441 2.305 . S
O465 C450 1.256 . S
O466 Ho441 2.322 . S
O466 C451 1.259 . S
O467 Ho440 2.346 . S
O467 C451 1.268 . S
O468 Ho441 2.378 . S
O468 C452 1.215 . S
O469 Ho441 2.524 . S
O469 C452 1.289 . S
O470 Ho441 2.381 . S
O470 C459 1.275 . S
O471 Ho440 2.305 . S
O471 Ho441 2.669 . S
O471 C459 1.256 . S
H472 C445 0.930 . S
H473 C446 0.931 . S
H474 C448 0.934 . S
H475 C449 0.930 . S
H476 C454 0.930 . S
H477 C455 0.931 . S
H478 C457 0.934 . S
H479 C458 0.930 . S
H480 C486 0.930 . S
H481 C490 0.930 . S
H482 C495 0.929 . S
H483 C493 0.929 . S
H484 C488 0.929 . S
H485 C494 0.929 . S
C486 H480 0.930 . S
C486 C487 1.367 . S
C486 C494 1.378 . S
C487 C486 1.367 . S
C487 C495 1.433 . S
C488 H484 0.929 . S
C488 C490 1.378 . S
C488 C492 1.350 . S
C489 C492 1.463 . S
C489 C494 1.350 . S
C489 N497 1.427 . S
C490 H481 0.930 . S
C490 C488 1.378 . S
C490 C491 1.367 . S
C491 C490 1.367 . S
C491 C493 1.433 . S
C492 C488 1.350 . S
C492 C489 1.463 . S
C492 N496 1.427 . S
C493 H483 0.929 . S
C493 C491 1.433 . S
C493 N496 1.384 . S
C494 H485 0.929 . S
C494 C486 1.378 . S
C494 C489 1.350 . S
C495 H482 0.929 . S
C495 C487 1.433 . S
C495 N497 1.384 . S
N496 C492 1.427 . S
N496 C493 1.384 . S
N497 C489 1.427 . S
N497 C495 1.384 . S
H498 C504 0.930 1_545 S
H499 C508 0.930 . S
H500 C513 0.929 . S
H501 C511 0.929 . S
H502 C506 0.929 . S
H503 C512 0.929 1_545 S
C504 H498 0.930 1_565 S
C504 C505 1.367 . S
C504 C512 1.378 . S
C505 C504 1.367 . S
C505 C513 1.433 . S
C506 H502 0.929 . S
C506 C508 1.378 . S
C506 C510 1.350 . S
C507 C510 1.463 . S
C507 C512 1.350 . S
C507 N515 1.427 . S
C508 H499 0.930 . S
C508 C506 1.378 . S
C508 C509 1.367 . S
C509 C508 1.367 . S
C509 C511 1.433 . S
C510 C506 1.350 . S
C510 C507 1.463 . S
C510 N514 1.427 . S
C511 H501 0.929 . S
C511 C509 1.433 . S
C511 N514 1.384 . S
C512 H503 0.929 1_565 S
C512 C504 1.378 . S
C512 C507 1.350 . S
C513 H500 0.929 . S
C513 C505 1.433 . S
C513 N515 1.384 . S
N514 C510 1.427 . S
N514 C511 1.384 . S
N515 C507 1.427 . S
N515 C513 1.384 . S
H516 C522 0.930 . S
H517 C526 0.930 . S
H518 C531 0.929 . S
H519 C529 0.929 . S
H520 C524 0.929 . S
H521 C530 0.929 . S
C522 H516 0.930 . S
C522 C523 1.367 . S
C522 C530 1.378 . S
C523 C522 1.367 . S
C523 C531 1.433 . S
C524 H520 0.929 . S
C524 C526 1.378 . S
C524 C528 1.350 . S
C525 C528 1.463 . S
C525 C530 1.350 . S
C525 N533 1.427 . S
C526 H517 0.930 . S
C526 C524 1.378 . S
C526 C527 1.367 . S
C527 C526 1.367 . S
C527 C529 1.433 . S
C528 C524 1.350 . S
C528 C525 1.463 . S
C528 N532 1.427 . S
C529 H519 0.929 . S
C529 C527 1.433 . S
C529 N532 1.384 . S
C530 H521 0.929 . S
C530 C522 1.378 . S
C530 C525 1.350 . S
C531 H518 0.929 . S
C531 C523 1.433 . S
C531 N533 1.384 . S
N532 C528 1.427 . S
N532 C529 1.384 . S
N533 C525 1.427 . S
N533 C531 1.384 . S
H534 C540 0.930 . S
H535 C544 0.930 . S
H536 C549 0.929 . S
H537 C547 0.929 . S
H538 C542 0.929 . S
H539 C548 0.929 . S
C540 H534 0.930 . S
C540 C541 1.367 . S
C540 C548 1.378 . S
C541 C540 1.367 . S
C541 C549 1.433 . S
C542 H538 0.929 . S
C542 C544 1.378 . S
C542 C546 1.350 . S
C543 C546 1.463 . S
C543 C548 1.350 . S
C543 N551 1.427 . S
C544 H535 0.930 . S
C544 C542 1.378 . S
C544 C545 1.367 . S
C545 C544 1.367 . S
C545 C547 1.433 . S
C546 C542 1.350 . S
C546 C543 1.463 . S
C546 N550 1.427 . S
C547 H537 0.929 . S
C547 C545 1.433 . S
C547 N550 1.384 . S
C548 H539 0.929 . S
C548 C540 1.378 . S
C548 C543 1.350 . S
C549 H536 0.929 . S
C549 C541 1.433 . S
C549 N551 1.384 . S
N550 C546 1.427 . S
N550 C547 1.384 . S
N551 C543 1.427 . S
N551 C549 1.384 . S
H552 C558 0.930 . S
H553 C562 0.930 . S
H554 C567 0.929 . S
H555 C565 0.929 . S
H556 C560 0.929 . S
H557 C566 0.929 . S
C558 H552 0.930 . S
C558 C559 1.367 . S
C558 C566 1.378 . S
C559 C558 1.367 . S
C559 C567 1.433 . S
C560 H556 0.929 . S
C560 C562 1.378 . S
C560 C564 1.350 . S
C561 C564 1.463 . S
C561 C566 1.350 . S
C561 N569 1.427 . S
C562 H553 0.930 . S
C562 C560 1.378 . S
C562 C563 1.367 . S
C563 C562 1.367 . S
C563 C565 1.433 . S
C564 C560 1.350 . S
C564 C561 1.463 . S
C564 N568 1.427 . S
C565 H555 0.929 . S
C565 C563 1.433 . S
C565 N568 1.384 . S
C566 H557 0.929 . S
C566 C558 1.378 . S
C566 C561 1.350 . S
C567 H554 0.929 . S
C567 C559 1.433 . S
C567 N569 1.384 . S
N568 C564 1.427 . S
N568 C565 1.384 . S
N569 C561 1.427 . S
N569 C567 1.384 . S
H570 C576 0.930 . S
H571 C580 0.930 . S
H572 C585 0.929 . S
H573 C583 0.929 . S
H574 C578 0.929 . S
H575 C584 0.929 . S
C576 H570 0.930 . S
C576 C577 1.367 . S
C576 C584 1.378 . S
C577 C576 1.367 . S
C577 C585 1.433 . S
C578 H574 0.929 . S
C578 C580 1.378 . S
C578 C582 1.350 . S
C579 C582 1.463 . S
C579 C584 1.350 . S
C579 N587 1.427 . S
C580 H571 0.930 . S
C580 C578 1.378 . S
C580 C581 1.367 . S
C581 C580 1.367 . S
C581 C583 1.433 . S
C582 C578 1.350 . S
C582 C579 1.463 . S
C582 N586 1.427 . S
C583 H573 0.929 . S
C583 C581 1.433 . S
C583 N586 1.384 . S
C584 H575 0.929 . S
C584 C576 1.378 . S
C584 C579 1.350 . S
C585 H572 0.929 . S
C585 C577 1.433 . S
C585 N587 1.384 . S
N586 C582 1.427 . S
N586 C583 1.384 . S
N587 C579 1.427 . S
N587 C585 1.384 . S
H588 C594 0.930 . S
H589 C598 0.930 . S
H590 C603 0.929 . S
H591 C601 0.929 1_554 S
H592 C596 0.929 . S
H593 C602 0.929 . S
C594 H588 0.930 . S
C594 C595 1.367 . S
C594 C602 1.378 . S
C595 C594 1.367 . S
C595 C603 1.433 . S
C596 H592 0.929 . S
C596 C598 1.378 . S
C596 C600 1.350 . S
C597 C600 1.463 . S
C597 C602 1.350 . S
C597 N605 1.427 . S
C598 H589 0.930 . S
C598 C596 1.378 . S
C598 C599 1.367 . S
C599 C598 1.367 . S
C599 C601 1.433 . S
C600 C596 1.350 . S
C600 C597 1.463 . S
C600 N604 1.427 . S
C601 H591 0.929 1_556 S
C601 C599 1.433 . S
C601 N604 1.384 . S
C602 H593 0.929 . S
C602 C594 1.378 . S
C602 C597 1.350 . S
C603 H590 0.929 . S
C603 C595 1.433 . S
C603 N605 1.384 . S
N604 C600 1.427 . S
N604 C601 1.384 . S
N605 C597 1.427 . S
N605 C603 1.384 . S
H606 C612 0.930 . S
H607 C616 0.930 . S
H608 C621 0.929 . S
H609 C619 0.929 . S
H610 C614 0.929 . S
H611 C620 0.929 . S
C612 H606 0.930 . S
C612 C613 1.367 . S
C612 C620 1.378 . S
C613 C612 1.367 . S
C613 C621 1.433 . S
C614 H610 0.929 . S
C614 C616 1.378 . S
C614 C618 1.350 . S
C615 C618 1.463 . S
C615 C620 1.350 . S
C615 N623 1.427 . S
C616 H607 0.930 . S
C616 C614 1.378 . S
C616 C617 1.367 . S
C617 C616 1.367 . S
C617 C619 1.433 . S
C618 C614 1.350 . S
C618 C615 1.463 . S
C618 N622 1.427 . S
C619 H609 0.929 . S
C619 C617 1.433 . S
C619 N622 1.384 . S
C620 H611 0.929 . S
C620 C612 1.378 . S
C620 C615 1.350 . S
C621 H608 0.929 . S
C621 C613 1.433 . S
C621 N623 1.384 . S
N622 C618 1.427 . S
N622 C619 1.384 . S
N623 C615 1.427 . S
N623 C621 1.384 . S
H624 C630 0.930 . S
H625 C634 0.930 . S
H626 C639 0.929 . S
H627 C637 0.929 . S
H628 C632 0.929 . S
H629 C638 0.929 . S
C630 H624 0.930 . S
C630 C631 1.367 . S
C630 C638 1.378 . S
C631 C630 1.367 . S
C631 C639 1.433 . S
C632 H628 0.929 . S
C632 C634 1.378 . S
C632 C636 1.350 . S
C633 C636 1.463 . S
C633 C638 1.350 . S
C633 N641 1.427 . S
C634 H625 0.930 . S
C634 C632 1.378 . S
C634 C635 1.367 . S
C635 C634 1.367 . S
C635 C637 1.433 . S
C636 C632 1.350 . S
C636 C633 1.463 . S
C636 N640 1.427 . S
C637 H627 0.929 . S
C637 C635 1.433 . S
C637 N640 1.384 . S
C638 H629 0.929 . S
C638 C630 1.378 . S
C638 C633 1.350 . S
C639 H626 0.929 . S
C639 C631 1.433 . S
C639 N641 1.384 . S
N640 C636 1.427 . S
N640 C637 1.384 . S
N641 C633 1.427 . S
N641 C639 1.384 . S
H642 C648 0.930 . S
H643 C652 0.930 . S
H644 C657 0.929 . S
H645 C655 0.929 . S
H646 C650 0.929 . S
H647 C656 0.929 . S
C648 H642 0.930 . S
C648 C649 1.367 . S
C648 C656 1.378 . S
C649 C648 1.367 . S
C649 C657 1.433 . S
C650 H646 0.929 . S
C650 C652 1.378 . S
C650 C654 1.350 . S
C651 C654 1.463 . S
C651 C656 1.350 . S
C651 N659 1.427 . S
C652 H643 0.930 . S
C652 C650 1.378 . S
C652 C653 1.367 . S
C653 C652 1.367 . S
C653 C655 1.433 . S
C654 C650 1.350 . S
C654 C651 1.463 . S
C654 N658 1.427 . S
C655 H645 0.929 . S
C655 C653 1.433 . S
C655 N658 1.384 . S
C656 H647 0.929 . S
C656 C648 1.378 . S
C656 C651 1.350 . S
C657 H644 0.929 . S
C657 C649 1.433 . S
C657 N659 1.384 . S
N658 C654 1.427 . S
N658 C655 1.384 . S
N659 C651 1.427 . S
N659 C657 1.384 . S
H660 C666 0.930 . S
H661 C670 0.930 . S
H662 C675 0.929 . S
H663 C673 0.929 . S
H664 C668 0.929 . S
H665 C674 0.929 . S
C666 H660 0.930 . S
C666 C667 1.367 . S
C666 C674 1.378 . S
C667 C666 1.367 . S
C667 C675 1.433 1_655 S
C668 H664 0.929 . S
C668 C670 1.378 . S
C668 C672 1.350 . S
C669 C672 1.463 . S
C669 C674 1.350 . S
C669 N677 1.427 . S
C670 H661 0.930 . S
C670 C668 1.378 . S
C670 C671 1.367 . S
C671 C670 1.367 . S
C671 C673 1.433 . S
C672 C668 1.350 . S
C672 C669 1.463 . S
C672 N676 1.427 . S
C673 H663 0.929 . S
C673 C671 1.433 . S
C673 N676 1.384 . S
C674 H665 0.929 . S
C674 C666 1.378 . S
C674 C669 1.350 . S
C675 H662 0.929 . S
C675 C667 1.433 1_455 S
C675 N677 1.384 1_455 S
N676 C672 1.427 . S
N676 C673 1.384 . S
N677 C669 1.427 . S
N677 C675 1.384 1_655 S
H678 C684 0.930 . S
H679 C688 0.930 . S
H680 C693 0.929 . S
H681 C691 0.929 . S
H682 C686 0.929 . S
H683 C692 0.929 . S
C684 H678 0.930 . S
C684 C685 1.367 . S
C684 C692 1.378 . S
C685 C684 1.367 . S
C685 C693 1.433 . S
C686 H682 0.929 . S
C686 C688 1.378 . S
C686 C690 1.350 . S
C687 C690 1.463 . S
C687 C692 1.350 . S
C687 N695 1.427 . S
C688 H679 0.930 . S
C688 C686 1.378 . S
C688 C689 1.367 . S
C689 C688 1.367 . S
C689 C691 1.433 . S
C690 C686 1.350 . S
C690 C687 1.463 . S
C690 N694 1.427 . S
C691 H681 0.929 . S
C691 C689 1.433 . S
C691 N694 1.384 . S
C692 H683 0.929 . S
C692 C684 1.378 . S
C692 C687 1.350 . S
C693 H680 0.929 . S
C693 C685 1.433 . S
C693 N695 1.384 . S
N694 C690 1.427 . S
N694 C691 1.384 . S
N695 C687 1.427 . S
N695 C693 1.384 . S
H696 C702 0.930 . S
H697 C706 0.930 . S
H698 C711 0.929 . S
H699 C709 0.929 . S
H700 C704 0.929 . S
H701 C710 0.929 . S
C702 H696 0.930 . S
C702 C703 1.367 . S
C702 C710 1.378 . S
C703 C702 1.367 . S
C703 C711 1.433 . S
C704 H700 0.929 . S
C704 C706 1.378 . S
C704 C708 1.350 . S
C705 C708 1.463 . S
C705 C710 1.350 . S
C705 N713 1.427 . S
C706 H697 0.930 . S
C706 C704 1.378 . S
C706 C707 1.367 . S
C707 C706 1.367 . S
C707 C709 1.433 . S
C708 C704 1.350 . S
C708 C705 1.463 . S
C708 N712 1.427 . S
C709 H699 0.929 . S
C709 C707 1.433 . S
C709 N712 1.384 . S
C710 H701 0.929 . S
C710 C702 1.378 . S
C710 C705 1.350 . S
C711 H698 0.929 . S
C711 C703 1.433 . S
C711 N713 1.384 . S
N712 C708 1.427 . S
N712 C709 1.384 . S
N713 C705 1.427 . S
N713 C711 1.384 . S
H714 C720 0.930 . S
H715 C724 0.930 . S
H716 C729 0.929 . S
H717 C727 0.929 1_545 S
H718 C722 0.929 . S
H719 C728 0.929 . S
C720 H714 0.930 . S
C720 C721 1.367 . S
C720 C728 1.378 . S
C721 C720 1.367 . S
C721 C729 1.433 . S
C722 H718 0.929 . S
C722 C724 1.378 . S
C722 C726 1.350 . S
C723 C726 1.463 . S
C723 C728 1.350 . S
C723 N731 1.427 . S
C724 H715 0.930 . S
C724 C722 1.378 . S
C724 C725 1.367 . S
C725 C724 1.367 . S
C725 C727 1.433 . S
C726 C722 1.350 . S
C726 C723 1.463 . S
C726 N730 1.427 . S
C727 H717 0.929 1_565 S
C727 C725 1.433 . S
C727 N730 1.384 . S
C728 H719 0.929 . S
C728 C720 1.378 . S
C728 C723 1.350 . S
C729 H716 0.929 . S
C729 C721 1.433 . S
C729 N731 1.384 . S
N730 C726 1.427 . S
N730 C727 1.384 . S
N731 C723 1.427 . S
N731 C729 1.384 . S
H732 C738 0.930 . S
H733 C742 0.930 . S
H734 C747 0.929 . S
H735 C745 0.929 . S
H736 C740 0.929 . S
H737 C746 0.929 . S
C738 H732 0.930 . S
C738 C739 1.367 . S
C738 C746 1.378 . S
C739 C738 1.367 . S
C739 C747 1.433 . S
C740 H736 0.929 . S
C740 C742 1.378 . S
C740 C744 1.350 . S
C741 C744 1.463 . S
C741 C746 1.350 . S
C741 N749 1.427 . S
C742 H733 0.930 . S
C742 C740 1.378 . S
C742 C743 1.367 . S
C743 C742 1.367 . S
C743 C745 1.433 . S
C744 C740 1.350 . S
C744 C741 1.463 . S
C744 N748 1.427 . S
C745 H735 0.929 . S
C745 C743 1.433 . S
C745 N748 1.384 . S
C746 H737 0.929 . S
C746 C738 1.378 . S
C746 C741 1.350 . S
C747 H734 0.929 . S
C747 C739 1.433 . S
C747 N749 1.384 . S
N748 C744 1.427 . S
N748 C745 1.384 . S
N749 C741 1.427 . S
N749 C747 1.384 . S
H750 C756 0.930 . S
H751 C760 0.930 . S
H752 C765 0.929 . S
H753 C763 0.929 . S
H754 C758 0.929 . S
H755 C764 0.929 . S
C756 H750 0.930 . S
C756 C757 1.367 . S
C756 C764 1.378 . S
C757 C756 1.367 . S
C757 C765 1.433 . S
C758 H754 0.929 . S
C758 C760 1.378 . S
C758 C762 1.350 . S
C759 C762 1.463 1_554 S
C759 C764 1.350 . S
C759 N767 1.427 . S
C760 H751 0.930 . S
C760 C758 1.378 . S
C760 C761 1.367 . S
C761 C760 1.367 . S
C761 C763 1.433 . S
C762 C758 1.350 . S
C762 C759 1.463 1_556 S
C762 N766 1.427 . S
C763 H753 0.929 . S
C763 C761 1.433 . S
C763 N766 1.384 . S
C764 H755 0.929 . S
C764 C756 1.378 . S
C764 C759 1.350 . S
C765 H752 0.929 . S
C765 C757 1.433 . S
C765 N767 1.384 . S
N766 C762 1.427 . S
N766 C763 1.384 . S
N767 C759 1.427 . S
N767 C765 1.384 . S
H768 C774 0.930 . S
H769 C778 0.930 . S
H770 C783 0.929 . S
H771 C781 0.929 . S
H772 C776 0.929 . S
H773 C782 0.929 . S
C774 H768 0.930 . S
C774 C775 1.367 . S
C774 C782 1.378 . S
C775 C774 1.367 . S
C775 C783 1.433 . S
C776 H772 0.929 . S
C776 C778 1.378 . S
C776 C780 1.350 . S
C777 C780 1.463 . S
C777 C782 1.350 . S
C777 N785 1.427 . S
C778 H769 0.930 . S
C778 C776 1.378 . S
C778 C779 1.367 . S
C779 C778 1.367 . S
C779 C781 1.433 . S
C780 C776 1.350 . S
C780 C777 1.463 . S
C780 N784 1.427 . S
C781 H771 0.929 . S
C781 C779 1.433 . S
C781 N784 1.384 . S
C782 H773 0.929 . S
C782 C774 1.378 . S
C782 C777 1.350 . S
C783 H770 0.929 . S
C783 C775 1.433 . S
C783 N785 1.384 . S
N784 C780 1.427 . S
N784 C781 1.384 . S
N785 C777 1.427 . S
N785 C783 1.384 . S
H786 C792 0.930 . S
H787 C796 0.930 . S
H788 C801 0.929 . S
H789 C799 0.929 . S
H790 C794 0.929 . S
H791 C800 0.921 1_556 S
C792 H786 0.930 . S
C792 C793 1.367 . S
C792 C800 1.378 . S
C793 C792 1.367 . S
C793 C801 1.433 . S
C794 H790 0.929 . S
C794 C796 1.378 . S
C794 C798 1.350 . S
C795 C798 1.463 . S
C795 C800 1.350 1_556 S
C795 N803 1.427 . S
C796 H787 0.930 . S
C796 C794 1.378 . S
C796 C797 1.367 . S
C797 C796 1.367 . S
C797 C799 1.433 . S
C798 C794 1.350 . S
C798 C795 1.463 . S
C798 N802 1.427 . S
C799 H789 0.929 . S
C799 C797 1.433 . S
C799 N802 1.384 . S
C800 H791 0.921 1_554 S
C800 C792 1.378 . S
C800 C795 1.350 1_554 S
C801 H788 0.929 . S
C801 C793 1.433 . S
C801 N803 1.384 1_554 S
N802 C798 1.427 . S
N802 C799 1.384 . S
N803 C795 1.427 . S
N803 C801 1.384 1_556 S
H804 C810 0.930 . S
H805 C814 0.930 . S
H806 C819 0.929 . S
H807 C817 0.929 . S
H808 C812 0.929 . S
H809 C818 0.929 . S
C810 H804 0.930 . S
C810 C811 1.367 . S
C810 C818 1.378 . S
C811 C810 1.367 . S
C811 C819 1.433 . S
C812 H808 0.929 . S
C812 C814 1.378 . S
C812 C816 1.350 . S
C813 C816 1.463 . S
C813 C818 1.350 . S
C813 N821 1.427 . S
C814 H805 0.930 . S
C814 C812 1.378 . S
C814 C815 1.367 . S
C815 C814 1.367 . S
C815 C817 1.433 . S
C816 C812 1.350 . S
C816 C813 1.463 . S
C816 N820 1.427 . S
C817 H807 0.929 . S
C817 C815 1.433 . S
C817 N820 1.384 . S
C818 H809 0.929 . S
C818 C810 1.378 . S
C818 C813 1.350 . S
C819 H806 0.929 . S
C819 C811 1.433 . S
C819 N821 1.384 . S
N820 C816 1.427 . S
N820 C817 1.384 . S
N821 C813 1.427 . S
N821 C819 1.384 . S
H822 C828 0.930 . S
H823 C832 0.930 . S
H824 C837 0.929 . S
H825 C835 0.929 . S
H826 C830 0.929 . S
H827 C836 0.929 . S
C828 H822 0.930 . S
C828 C829 1.367 . S
C828 C836 1.378 . S
C829 C828 1.367 . S
C829 C837 1.433 . S
C830 H826 0.929 . S
C830 C832 1.378 . S
C830 C834 1.350 . S
C831 C834 1.463 . S
C831 C836 1.350 . S
C831 N839 1.427 . S
C832 H823 0.930 . S
C832 C830 1.378 . S
C832 C833 1.367 . S
C833 C832 1.367 . S
C833 C835 1.433 . S
C834 C830 1.350 . S
C834 C831 1.463 . S
C834 N838 1.427 . S
C835 H825 0.929 . S
C835 C833 1.433 . S
C835 N838 1.384 . S
C836 H827 0.929 . S
C836 C828 1.378 . S
C836 C831 1.350 . S
C837 H824 0.929 . S
C837 C829 1.433 . S
C837 N839 1.384 . S
N838 C834 1.427 . S
N838 C835 1.384 . S
N839 C831 1.427 . S
N839 C837 1.384 . S
H840 C846 0.930 . S
H841 C850 0.930 . S
H842 C855 0.929 . S
H843 C853 0.929 . S
H844 C848 0.929 . S
H845 C854 0.929 . S
C846 H840 0.930 . S
C846 C847 1.367 . S
C846 C854 1.378 . S
C847 C846 1.367 . S
C847 C855 1.433 . S
C848 H844 0.929 . S
C848 C850 1.378 . S
C848 C852 1.350 . S
C849 C852 1.463 . S
C849 C854 1.350 . S
C849 N857 1.427 . S
C850 H841 0.930 . S
C850 C848 1.378 . S
C850 C851 1.367 . S
C851 C850 1.367 . S
C851 C853 1.433 . S
C852 C848 1.350 . S
C852 C849 1.463 . S
C852 N856 1.427 . S
C853 H843 0.929 . S
C853 C851 1.433 . S
C853 N856 1.384 . S
C854 H845 0.929 . S
C854 C846 1.378 . S
C854 C849 1.350 . S
C855 H842 0.929 . S
C855 C847 1.433 . S
C855 N857 1.384 . S
N856 C852 1.427 . S
N856 C853 1.384 . S
N857 C849 1.427 . S
N857 C855 1.384 . S
H858 C864 0.930 . S
H859 C868 0.930 . S
H860 C873 0.929 . S
H861 C871 0.929 . S
H862 C866 0.929 . S
H863 C872 0.929 . S
C864 H858 0.930 . S
C864 C865 1.367 . S
C864 C872 1.378 . S
C865 C864 1.367 . S
C865 C873 1.433 . S
C866 H862 0.929 . S
C866 C868 1.378 . S
C866 C870 1.350 1_565 S
C867 C870 1.463 . S
C867 C872 1.350 . S
C867 N875 1.427 . S
C868 H859 0.930 . S
C868 C866 1.378 . S
C868 C869 1.367 . S
C869 C868 1.367 . S
C869 C871 1.433 . S
C870 C866 1.350 1_545 S
C870 C867 1.463 . S
C870 N874 1.427 . S
C871 H861 0.929 . S
C871 C869 1.433 . S
C871 N874 1.384 1_565 S
C872 H863 0.929 . S
C872 C864 1.378 . S
C872 C867 1.350 . S
C873 H860 0.929 . S
C873 C865 1.433 . S
C873 N875 1.384 . S
N874 C870 1.427 . S
N874 C871 1.384 1_545 S
N875 C867 1.427 . S
N875 C873 1.384 . S
H876 C882 0.930 . S
H877 C886 0.930 . S
H878 C891 0.929 . S
H879 C889 0.929 . S
H880 C884 0.929 . S
H881 C890 0.929 . S
C882 H876 0.930 . S
C882 C883 1.367 . S
C882 C890 1.378 . S
C883 C882 1.367 . S
C883 C891 1.433 . S
C884 H880 0.929 . S
C884 C886 1.378 . S
C884 C888 1.350 . S
C885 C888 1.463 . S
C885 C890 1.350 . S
C885 N893 1.427 . S
C886 H877 0.930 . S
C886 C884 1.378 . S
C886 C887 1.367 . S
C887 C886 1.367 . S
C887 C889 1.433 . S
C888 C884 1.350 . S
C888 C885 1.463 . S
C888 N892 1.427 . S
C889 H879 0.929 . S
C889 C887 1.433 . S
C889 N892 1.384 . S
C890 H881 0.929 . S
C890 C882 1.378 . S
C890 C885 1.350 . S
C891 H878 0.929 . S
C891 C883 1.433 . S
C891 N893 1.384 . S
N892 C888 1.427 . S
N892 C889 1.384 . S
N893 C885 1.427 . S
N893 C891 1.384 . S
H894 C900 0.930 . S
H895 C904 0.930 . S
H896 C909 0.929 . S
H897 C907 0.929 . S
H898 C902 0.929 . S
H899 C908 0.929 . S
C900 H894 0.930 . S
C900 C901 1.367 . S
C900 C908 1.378 . S
C901 C900 1.367 . S
C901 C909 1.433 . S
C902 H898 0.929 . S
C902 C904 1.378 . S
C902 C906 1.350 . S
C903 C906 1.463 1_545 S
C903 C908 1.350 . S
C903 N911 1.427 . S
C904 H895 0.930 . S
C904 C902 1.378 . S
C904 C905 1.367 . S
C905 C904 1.367 . S
C905 C907 1.433 . S
C906 C902 1.350 . S
C906 C903 1.463 1_565 S
C906 N910 1.427 . S
C907 H897 0.929 . S
C907 C905 1.433 . S
C907 N910 1.384 . S
C908 H899 0.929 . S
C908 C900 1.378 . S
C908 C903 1.350 . S
C909 H896 0.929 . S
C909 C901 1.433 . S
C909 N911 1.384 . S
N910 C906 1.427 . S
N910 C907 1.384 . S
N911 C903 1.427 . S
N911 C909 1.384 . S
H912 C918 0.930 . S
H913 C922 0.930 . S
H914 C927 0.929 . S
H915 C925 0.929 . S
H916 C920 0.929 . S
H917 C926 0.929 . S
C918 H912 0.930 . S
C918 C919 1.367 . S
C918 C926 1.378 . S
C919 C918 1.367 . S
C919 C927 1.433 . S
C920 H916 0.929 . S
C920 C922 1.378 . S
C920 C924 1.350 . S
C921 C924 1.463 . S
C921 C926 1.350 . S
C921 N929 1.427 . S
C922 H913 0.930 . S
C922 C920 1.378 . S
C922 C923 1.367 . S
C923 C922 1.367 . S
C923 C925 1.433 . S
C924 C920 1.350 . S
C924 C921 1.463 . S
C924 N928 1.427 . S
C925 H915 0.929 . S
C925 C923 1.433 . S
C925 N928 1.384 . S
C926 H917 0.929 . S
C926 C918 1.378 . S
C926 C921 1.350 . S
C927 H914 0.929 . S
C927 C919 1.433 . S
C927 N929 1.384 . S
N928 C924 1.427 . S
N928 C925 1.384 . S
N929 C921 1.427 . S
N929 C927 1.384 . S
H930 C936 0.930 . S
H931 C940 0.930 . S
H932 C945 0.929 . S
H933 C943 0.929 . S
H934 C938 0.929 . S
H935 C944 0.929 . S
C936 H930 0.930 . S
C936 C937 1.367 . S
C936 C944 1.378 . S
C937 C936 1.367 . S
C937 C945 1.433 . S
C938 H934 0.929 . S
C938 C940 1.378 . S
C938 C942 1.350 . S
C939 C942 1.463 . S
C939 C944 1.350 . S
C939 N947 1.427 . S
C940 H931 0.930 . S
C940 C938 1.378 . S
C940 C941 1.367 . S
C941 C940 1.367 . S
C941 C943 1.433 . S
C942 C938 1.350 . S
C942 C939 1.463 . S
C942 N946 1.427 . S
C943 H933 0.929 . S
C943 C941 1.433 . S
C943 N946 1.384 . S
C944 H935 0.929 . S
C944 C936 1.378 . S
C944 C939 1.350 . S
C945 H932 0.929 . S
C945 C937 1.433 . S
C945 N947 1.384 . S
N946 C942 1.427 . S
N946 C943 1.384 . S
N947 C939 1.427 . S
N947 C945 1.384 . S
H948 C954 0.930 . S
H949 C958 0.930 . S
H950 C963 0.929 . S
H951 C961 0.929 . S
H952 C956 0.929 . S
H953 C962 0.929 . S
C954 H948 0.930 . S
C954 C955 1.367 . S
C954 C962 1.378 . S
C955 C954 1.367 . S
C955 C963 1.433 . S
C956 H952 0.929 . S
C956 C958 1.378 . S
C956 C960 1.350 . S
C957 C960 1.463 . S
C957 C962 1.350 . S
C957 N965 1.427 . S
C958 H949 0.930 . S
C958 C956 1.378 . S
C958 C959 1.367 . S
C959 C958 1.367 . S
C959 C961 1.433 . S
C960 C956 1.350 . S
C960 C957 1.463 . S
C960 N964 1.427 . S
C961 H951 0.929 . S
C961 C959 1.433 . S
C961 N964 1.384 . S
C962 H953 0.929 . S
C962 C954 1.378 . S
C962 C957 1.350 . S
C963 H950 0.929 . S
C963 C955 1.433 . S
C963 N965 1.384 . S
N964 C960 1.427 . S
N964 C961 1.384 . S
N965 C957 1.427 . S
N965 C963 1.384 . S
H966 C972 0.930 . S
H967 C976 0.930 . S
H968 C981 0.929 . S
H969 C979 0.929 . S
H970 C974 0.929 . S
H971 C980 0.929 . S
C972 H966 0.930 . S
C972 C973 1.367 . S
C972 C980 1.378 . S
C973 C972 1.367 . S
C973 C981 1.433 . S
C974 H970 0.929 . S
C974 C976 1.378 . S
C974 C978 1.350 . S
C975 C978 1.463 . S
C975 C980 1.350 . S
C975 N983 1.427 . S
C976 H967 0.930 . S
C976 C974 1.378 . S
C976 C977 1.367 . S
C977 C976 1.367 . S
C977 C979 1.433 . S
C978 C974 1.350 . S
C978 C975 1.463 . S
C978 N982 1.427 . S
C979 H969 0.929 . S
C979 C977 1.433 . S
C979 N982 1.384 . S
C980 H971 0.929 . S
C980 C972 1.378 . S
C980 C975 1.350 . S
C981 H968 0.929 . S
C981 C973 1.433 . S
C981 N983 1.384 . S
N982 C978 1.427 . S
N982 C979 1.384 . S
N983 C975 1.427 . S
N983 C981 1.384 . S
H984 C990 0.930 . S
H985 C994 0.930 . S
H986 C999 0.929 . S
H987 C997 0.929 . S
H988 C992 0.929 . S
H989 C998 0.929 . S
C990 H984 0.930 . S
C990 C991 1.367 . S
C990 C998 1.378 . S
C991 C990 1.367 . S
C991 C999 1.433 . S
C992 H988 0.929 . S
C992 C994 1.378 . S
C992 C996 1.350 . S
C993 C996 1.463 . S
C993 C998 1.350 . S
C993 N1001 1.427 . S
C994 H985 0.930 . S
C994 C992 1.378 . S
C994 C995 1.367 . S
C995 C994 1.367 . S
C995 C997 1.433 . S
C996 C992 1.350 . S
C996 C993 1.463 . S
C996 N1000 1.427 . S
C997 H987 0.929 . S
C997 C995 1.433 . S
C997 N1000 1.384 . S
C998 H989 0.929 . S
C998 C990 1.378 . S
C998 C993 1.350 . S
C999 H986 0.929 . S
C999 C991 1.433 . S
C999 N1001 1.384 . S
N1000 C996 1.427 . S
N1000 C997 1.384 . S
N1001 C993 1.427 . S
N1001 C999 1.384 . S
H1002 C1008 0.930 . S
H1003 C1012 0.930 . S
H1004 C1017 0.929 . S
H1005 C1015 0.929 . S
H1006 C1010 0.929 . S
H1007 C1016 0.929 . S
C1008 H1002 0.930 . S
C1008 C1009 1.367 . S
C1008 C1016 1.378 . S
C1009 C1008 1.367 . S
C1009 C1017 1.433 . S
C1010 H1006 0.929 . S
C1010 C1012 1.378 . S
C1010 C1014 1.350 . S
C1011 C1014 1.463 . S
C1011 C1016 1.350 . S
C1011 N1019 1.427 . S
C1012 H1003 0.930 . S
C1012 C1010 1.378 . S
C1012 C1013 1.367 . S
C1013 C1012 1.367 . S
C1013 C1015 1.433 . S
C1014 C1010 1.350 . S
C1014 C1011 1.463 . S
C1014 N1018 1.427 . S
C1015 H1005 0.929 . S
C1015 C1013 1.433 . S
C1015 N1018 1.384 . S
C1016 H1007 0.929 . S
C1016 C1008 1.378 . S
C1016 C1011 1.350 . S
C1017 H1004 0.929 . S
C1017 C1009 1.433 . S
C1017 N1019 1.384 . S
N1018 C1014 1.427 . S
N1018 C1015 1.384 . S
N1019 C1011 1.427 . S
N1019 C1017 1.384 . S
H1020 C1026 0.930 . S
H1021 C1030 0.930 . S
H1022 C1035 0.929 . S
H1023 C1033 0.929 . S
H1024 C1028 0.929 . S
H1025 C1034 0.929 . S
C1026 H1020 0.930 . S
C1026 C1027 1.367 . S
C1026 C1034 1.378 . S
C1027 C1026 1.367 . S
C1027 C1035 1.433 . S
C1028 H1024 0.929 . S
C1028 C1030 1.378 . S
C1028 C1032 1.350 . S
C1029 C1032 1.463 1_455 S
C1029 C1034 1.350 . S
C1029 N1037 1.427 . S
C1030 H1021 0.930 . S
C1030 C1028 1.378 . S
C1030 C1031 1.367 . S
C1031 C1030 1.367 . S
C1031 C1033 1.433 . S
C1032 C1028 1.350 . S
C1032 C1029 1.463 1_655 S
C1032 N1036 1.427 . S
C1033 H1023 0.929 . S
C1033 C1031 1.433 . S
C1033 N1036 1.384 . S
C1034 H1025 0.929 . S
C1034 C1026 1.378 . S
C1034 C1029 1.350 . S
C1035 H1022 0.929 . S
C1035 C1027 1.433 . S
C1035 N1037 1.384 . S
N1036 C1032 1.427 . S
N1036 C1033 1.384 . S
N1037 C1029 1.427 . S
N1037 C1035 1.384 . S
H1038 C1044 0.930 . S
H1039 C1048 0.930 . S
H1040 C1053 0.929 . S
H1041 C1051 0.929 . S
H1042 C1046 0.929 . S
H1043 C1052 0.929 . S
C1044 H1038 0.930 . S
C1044 C1045 1.367 . S
C1044 C1052 1.378 . S
C1045 C1044 1.367 . S
C1045 C1053 1.433 . S
C1046 H1042 0.929 . S
C1046 C1048 1.378 . S
C1046 C1050 1.350 . S
C1047 C1050 1.463 . S
C1047 C1052 1.350 . S
C1047 N1055 1.427 . S
C1048 H1039 0.930 . S
C1048 C1046 1.378 . S
C1048 C1049 1.367 . S
C1049 C1048 1.367 . S
C1049 C1051 1.433 . S
C1050 C1046 1.350 . S
C1050 C1047 1.463 . S
C1050 N1054 1.427 . S
C1051 H1041 0.929 . S
C1051 C1049 1.433 . S
C1051 N1054 1.384 . S
C1052 H1043 0.929 . S
C1052 C1044 1.378 . S
C1052 C1047 1.350 . S
C1053 H1040 0.929 . S
C1053 C1045 1.433 . S
C1053 N1055 1.384 . S
N1054 C1050 1.427 . S
N1054 C1051 1.384 . S
N1055 C1047 1.427 . S
N1055 C1053 1.384 . S
H1056 C1062 0.930 . S
H1057 C1066 0.930 . S
H1058 C1071 0.929 . S
H1059 C1069 0.929 . S
H1060 C1064 0.929 . S
H1061 C1070 0.929 . S
C1062 H1056 0.930 . S
C1062 C1063 1.367 . S
C1062 C1070 1.378 . S
C1063 C1062 1.367 . S
C1063 C1071 1.433 . S
C1064 H1060 0.929 . S
C1064 C1066 1.378 . S
C1064 C1068 1.350 . S
C1065 C1068 1.463 . S
C1065 C1070 1.350 . S
C1065 N1073 1.427 . S
C1066 H1057 0.930 . S
C1066 C1064 1.378 . S
C1066 C1067 1.367 . S
C1067 C1066 1.367 . S
C1067 C1069 1.433 . S
C1068 C1064 1.350 . S
C1068 C1065 1.463 . S
C1068 N1072 1.427 . S
C1069 H1059 0.929 . S
C1069 C1067 1.433 . S
C1069 N1072 1.384 . S
C1070 H1061 0.929 . S
C1070 C1062 1.378 . S
C1070 C1065 1.350 . S
C1071 H1058 0.929 . S
C1071 C1063 1.433 . S
C1071 N1073 1.384 . S
N1072 C1068 1.427 . S
N1072 C1069 1.384 . S
N1073 C1065 1.427 . S
N1073 C1071 1.384 . S
H1074 C1080 0.930 . S
H1075 C1084 0.930 . S
H1076 C1089 0.929 . S
H1077 C1087 0.929 . S
H1078 C1082 0.929 . S
H1079 C1088 0.929 . S
C1080 H1074 0.930 . S
C1080 C1081 1.367 . S
C1080 C1088 1.378 . S
C1081 C1080 1.367 . S
C1081 C1089 1.433 . S
C1082 H1078 0.929 . S
C1082 C1084 1.378 . S
C1082 C1086 1.350 . S
C1083 C1086 1.463 . S
C1083 C1088 1.350 . S
C1083 N1091 1.427 . S
C1084 H1075 0.930 . S
C1084 C1082 1.378 . S
C1084 C1085 1.367 . S
C1085 C1084 1.367 . S
C1085 C1087 1.433 . S
C1086 C1082 1.350 . S
C1086 C1083 1.463 . S
C1086 N1090 1.427 . S
C1087 H1077 0.929 . S
C1087 C1085 1.433 . S
C1087 N1090 1.384 . S
C1088 H1079 0.929 . S
C1088 C1080 1.378 . S
C1088 C1083 1.350 . S
C1089 H1076 0.929 . S
C1089 C1081 1.433 . S
C1089 N1091 1.384 . S
N1090 C1086 1.427 . S
N1090 C1087 1.384 . S
N1091 C1083 1.427 . S
N1091 C1089 1.384 . S
H1092 C1098 0.930 1_554 S
H1093 C1102 0.930 . S
H1094 C1107 0.929 . S
H1095 C1105 0.929 . S
H1096 C1100 0.929 . S
H1097 C1106 0.929 . S
C1098 H1092 0.930 1_556 S
C1098 C1099 1.367 . S
C1098 C1106 1.378 . S
C1099 C1098 1.367 . S
C1099 C1107 1.433 . S
C1100 H1096 0.929 . S
C1100 C1102 1.378 . S
C1100 C1104 1.350 . S
C1101 C1104 1.463 . S
C1101 C1106 1.350 . S
C1101 N1109 1.427 . S
C1102 H1093 0.930 . S
C1102 C1100 1.378 . S
C1102 C1103 1.367 . S
C1103 C1102 1.367 . S
C1103 C1105 1.433 . S
C1104 C1100 1.350 . S
C1104 C1101 1.463 . S
C1104 N1108 1.427 . S
C1105 H1095 0.929 . S
C1105 C1103 1.433 . S
C1105 N1108 1.384 . S
C1106 H1097 0.929 . S
C1106 C1098 1.378 . S
C1106 C1101 1.350 . S
C1107 H1094 0.929 . S
C1107 C1099 1.433 . S
C1107 N1109 1.384 . S
N1108 C1104 1.427 . S
N1108 C1105 1.384 . S
N1109 C1101 1.427 . S
N1109 C1107 1.384 . S
H1110 C1116 0.930 . S
H1111 C1120 0.930 . S
H1112 C1125 0.929 . S
H1113 C1123 0.929 . S
H1114 C1118 0.929 . S
H1115 C1124 0.929 . S
C1116 H1110 0.930 . S
C1116 C1117 1.367 . S
C1116 C1124 1.378 . S
C1117 C1116 1.367 . S
C1117 C1125 1.433 . S
C1118 H1114 0.929 . S
C1118 C1120 1.378 . S
C1118 C1122 1.350 1_455 S
C1119 C1122 1.463 . S
C1119 C1124 1.350 . S
C1119 N1127 1.427 . S
C1120 H1111 0.930 . S
C1120 C1118 1.378 . S
C1120 C1121 1.367 . S
C1121 C1120 1.367 . S
C1121 C1123 1.433 . S
C1122 C1118 1.350 1_655 S
C1122 C1119 1.463 . S
C1122 N1126 1.434 . S
C1123 H1113 0.929 . S
C1123 C1121 1.433 . S
C1123 N1126 1.358 1_455 S
C1124 H1115 0.929 . S
C1124 C1116 1.378 . S
C1124 C1119 1.350 . S
C1125 H1112 0.929 . S
C1125 C1117 1.433 . S
C1125 N1127 1.384 . S
N1126 C1122 1.434 . S
N1126 C1123 1.358 1_655 S
N1127 C1119 1.427 . S
N1127 C1125 1.384 . S
C487 C19 1.064 . S
C491 C459 1.061 . S
C505 C371 1.669 . S
C509 C59 1.744 . S
C523 C91 1.268 . S
C527 C339 1.337 . S
C541 C139 2.025 . S
C545 C419 2.021 . S
C559 C179 1.673 . S
C563 C411 1.627 . S
C577 C211 1.463 . S
C581 C451 1.482 . S
C595 C379 1.813 . S
C599 C259 1.809 . S
C613 C291 1.675 . S
C617 C331 1.745 . S
C631 C131 1.737 . S
C635 C171 1.791 . S
C649 C11 1.555 . S
C653 C219 1.631 . S
C667 C51 1.624 . S
C671 C251 1.634 . S
C685 C299 1.884 . S
C689 C99 1.884 . S
C703 C7 1.596 . S
C707 C330 1.493 . S
C721 C47 1.826 . S
C725 C410 1.747 . S
C739 C450 1.961 . S
C743 C96 1.970 . S
C757 C127 1.567 . S
C761 C362 1.539 . S
C775 C167 1.244 . S
C779 C370 1.197 . S
C793 C322 1.948 . S
C797 C216 1.870 . S
C811 C402 1.379 . S
C815 C247 1.383 . S
C829 C442 2.660 . S
C833 C296 2.565 . S
C847 C2 2.743 . S
C851 C136 2.640 . S
C865 C16 2.001 . S
C869 C42 2.063 . S
C883 C56 2.278 . S
C887 C90 2.269 . S
C901 C122 1.692 . S
C905 C87 1.730 . S
C919 C207 1.479 . S
C923 C162 1.457 . S
C937 C210 1.303 . S
C941 C256 1.337 . S
C955 C242 1.483 . S
C959 C287 1.505 . S
C973 C176 0.893 . S
C977 C290 0.885 . S
C991 C336 0.843 . S
C995 C130 0.839 . S
C1009 C202 1.682 . S
C1013 C376 1.629 . S
C1027 C327 1.382 . S
C1031 C250 1.331 . S
C1045 C407 1.827 . S
C1049 C282 1.810 . S
C1063 C170 1.284 . S
C1067 C447 1.342 . S
C1081 C456 1.702 . S
C1085 C50 1.668 . S
C1099 C82 1.528 . S
C1103 C367 1.547 . S
C1117 C416 1.768 . S
C1121 C10 1.751 . S
