# Generated by pormake.
# Topology dft, (4)-cn, num edge types: 1
# Building blocks:
#     Node 0, Type 0, BuildingBlock: QUQFOY_clean_sbu_1, # of connection points: 4
#     Node 1, Type 0, BuildingBlock: QUQFOY_clean_sbu_1, # of connection points: 4
#     Node 2, Type 0, BuildingBlock: QUQFOY_clean_sbu_1, # of connection points: 4
#     Node 3, Type 0, BuildingBlock: QUQFOY_clean_sbu_1, # of connection points: 4
#     Node 4, Type 0, BuildingBlock: QUQFOY_clean_sbu_1, # of connection points: 4
#     Node 5, Type 0, BuildingBlock: QUQFOY_clean_sbu_1, # of connection points: 4
#     Node 6, Type 0, BuildingBlock: QUQFOY_clean_sbu_1, # of connection points: 4
#     Node 7, Type 0, BuildingBlock: QUQFOY_clean_sbu_1, # of connection points: 4
#     Edge 8, Type (0, 0), BuildingBlock: TEMPAE_clean_linker_10, # of connection points: 2
#     Edge 9, Type (0, 0), BuildingBlock: TEMPAE_clean_linker_10, # of connection points: 2
#     Edge 10, Type (0, 0), BuildingBlock: TEMPAE_clean_linker_10, # of connection points: 2
#     Edge 11, Type (0, 0), BuildingBlock: TEMPAE_clean_linker_10, # of connection points: 2
#     Edge 12, Type (0, 0), BuildingBlock: TEMPAE_clean_linker_10, # of connection points: 2
#     Edge 13, Type (0, 0), BuildingBlock: TEMPAE_clean_linker_10, # of connection points: 2
#     Edge 14, Type (0, 0), BuildingBlock: TEMPAE_clean_linker_10, # of connection points: 2
#     Edge 15, Type (0, 0), BuildingBlock: TEMPAE_clean_linker_10, # of connection points: 2
#     Edge 16, Type (0, 0), BuildingBlock: TEMPAE_clean_linker_10, # of connection points: 2
#     Edge 17, Type (0, 0), BuildingBlock: TEMPAE_clean_linker_10, # of connection points: 2
#     Edge 18, Type (0, 0), BuildingBlock: TEMPAE_clean_linker_10, # of connection points: 2
#     Edge 19, Type (0, 0), BuildingBlock: TEMPAE_clean_linker_10, # of connection points: 2
#     Edge 20, Type (0, 0), BuildingBlock: TEMPAE_clean_linker_10, # of connection points: 2
#     Edge 21, Type (0, 0), BuildingBlock: TEMPAE_clean_linker_10, # of connection points: 2
#     Edge 22, Type (0, 0), BuildingBlock: TEMPAE_clean_linker_10, # of connection points: 2
#     Edge 23, Type (0, 0), BuildingBlock: TEMPAE_clean_linker_10, # of connection points: 2
# Relax obj value: 0.211
# Max RMSD: 0.224
# Mean RMSD: 0.224
data_MOF--net-dft--node1-QUQFOY_clean_sbu_1--edge1-TEMPAE_clean_linker_10
_symmetry_space_group_name_H-M    P1
_symmetry_Int_Tables_number       1
_symmetry_cell_setting            triclinic
loop_
_symmetry_equiv_pos_as_xyz
'x, y, z'
_cell_length_a     37.370234
_cell_length_b     37.351434
_cell_length_c     40.482046
_cell_angle_alpha  89.984727
_cell_angle_beta   90.035121
_cell_angle_gamma 89.980771
loop_
_atom_site_label
_atom_site_type_symbol
_atom_site_fract_x
_atom_site_fract_y
_atom_site_fract_z
_atom_type_partial_charge
O0 O 0.35129 0.04923 0.12948 0.0
Cd1 Cd 0.34664 0.0618 0.17908 0.0
Cd2 Cd 0.28425 0.02008 0.17138 0.0
O3 O 0.30493 0.01312 0.12507 0.0
O4 O 0.39383 0.08368 0.18827 0.0
O5 O 0.3757 0.03346 0.21189 0.0
C6 C 0.40054 0.05704 0.20749 0.0
C7 C 0.25625 0.96988 0.19401 0.0
C8 C 0.33218 0.028 0.11247 0.0
C9 C 0.27632 0.09733 0.19286 0.0
O10 O 0.26143 0.06862 0.18322 0.0
O11 O 0.31018 0.0997 0.19449 0.0
O12 O 0.24195 0.98809 0.17047 0.0
O13 O 0.28706 0.98013 0.20495 0.0
O14 O 0.015 0.35015 0.63574 0.0
Cd15 Cd 0.00324 0.34882 0.68563 0.0
Cd16 Cd 0.04685 0.28574 0.68079 0.0
O17 O 0.05282 0.30492 0.63375 0.0
O18 O 0.98005 0.39599 0.69206 0.0
O19 O 0.03095 0.38101 0.71632 0.0
C20 C 0.0066 0.40479 0.71066 0.0
C21 C 0.09729 0.25624 0.70154 0.0
C22 C 0.0369 0.33078 0.61974 0.0
C23 C 0.96964 0.27875 0.70383 0.0
O24 O 0.99851 0.26378 0.69469 0.0
O25 O 0.96655 0.3126 0.70358 0.0
O26 O 0.07734 0.24231 0.67907 0.0
O27 O 0.08866 0.28749 0.71258 0.0
O28 O 0.7066 0.00984 0.14155 0.0
Cd29 Cd 0.71008 0.99797 0.19134 0.0
Cd30 Cd 0.7698 0.04553 0.18597 0.0
O31 O 0.74701 0.05274 0.14044 0.0
O32 O 0.66408 0.97327 0.19962 0.0
O33 O 0.67828 0.02502 0.22273 0.0
C34 C 0.65505 -0.0001 0.21803 0.0
C35 C 0.79965 0.09615 0.20607 0.0
C36 C 0.72278 0.03467 0.1262 0.0
C37 C 0.78227 0.96794 0.20628 0.0
O38 O 0.79504 0.99771 0.19672 0.0
O39 O 0.7487 0.96309 0.20794 0.0
O40 O 0.81185 0.07761 0.18182 0.0
O41 O 0.76989 0.08603 0.21929 0.0
O42 O 0.04795 0.71598 0.63752 0.0
Cd43 Cd 0.05909 0.71848 0.68749 0.0
Cd44 Cd 0.01457 0.78014 0.68128 0.0
O45 O 0.00853 0.75975 0.63467 0.0
O46 O 0.08326 0.67194 0.69484 0.0
O47 O 0.03173 0.68608 0.71825 0.0
C48 C 0.05664 0.66274 0.71313 0.0
C49 C 0.96392 0.80881 0.70253 0.0
C50 C 0.02544 0.73425 0.62111 0.0
C51 C 0.09159 0.78952 0.7038 0.0
O52 O 0.06258 0.8037 0.69394 0.0
O53 O 0.09505 0.75573 0.70487 0.0
O54 O 0.98272 0.82257 0.67917 0.0
O55 O 0.97374 0.7781 0.71407 0.0
O56 O 0.35928 0.98241 0.85053 0.0
Cd57 Cd 0.35652 0.98218 0.79951 0.0
Cd58 Cd 0.3032 0.03105 0.80854 0.0
O59 O 0.32741 0.03185 0.85393 0.0
O60 O 0.40395 0.96827 0.78176 0.0
O61 O 0.38134 0.02321 0.77785 0.0
C62 C 0.40763 0.0013 0.773 0.0
C63 C 0.27606 0.08505 0.79304 0.0
C64 C 0.34715 0.00838 0.86743 0.0
C65 C 0.28447 0.95818 0.78052 0.0
O66 O 0.27397 0.98657 0.79478 0.0
O67 O 0.31762 0.95218 0.77658 0.0
O68 O 0.26372 0.06553 0.81654 0.0
O69 O 0.30466 0.07422 0.77822 0.0
O70 O 0.07895 0.35201 0.3559 0.0
Cd71 Cd 0.07917 0.35176 0.3048 0.0
Cd72 Cd 0.03284 0.29452 0.31222 0.0
O73 O 0.03392 0.31413 0.35942 0.0
O74 O 0.09362 0.40011 0.28953 0.0
O75 O 0.03869 0.37818 0.28355 0.0
C76 C 0.06093 0.40442 0.28007 0.0
C77 C 0.9789 0.26706 0.29713 0.0
C78 C 0.05563 0.33567 0.37306 0.0
C79 C 0.10547 0.28162 0.28088 0.0
O80 O 0.0775 0.26874 0.29411 0.0
O81 O 0.11052 0.31521 0.28006 0.0
O82 O 0.00039 0.25296 0.31823 0.0
O83 O 0.98775 0.29754 0.2845 0.0
O84 O 0.70872 0.08029 0.86301 0.0
Cd85 Cd 0.71231 0.0821 0.81199 0.0
Cd86 Cd 0.76901 0.03682 0.82098 0.0
O87 O 0.74801 0.03657 0.86763 0.0
O88 O 0.66483 0.09585 0.79411 0.0
O89 O 0.68855 0.04162 0.78831 0.0
C90 C 0.66208 0.06335 0.78364 0.0
C91 C 0.79487 0.98296 0.80367 0.0
C92 C 0.72506 0.05729 0.88059 0.0
C93 C 0.78338 0.10998 0.79203 0.0
O94 O 0.79591 0.08178 0.80517 0.0
O95 O 0.74982 0.1147 0.78991 0.0
O96 O 0.80927 0.00262 0.82609 0.0
O97 O 0.76495 0.99359 0.79106 0.0
O98 O 0.98814 0.71298 0.35707 0.0
Cd99 Cd 0.98752 0.71435 0.30599 0.0
Cd100 Cd 0.03401 0.7704 0.31431 0.0
O101 O 0.03418 0.74954 0.36108 0.0
O102 O 0.97207 0.66655 0.2901 0.0
O103 O 0.02725 0.68767 0.28391 0.0
C104 C 0.00457 0.66183 0.28028 0.0
C105 C 0.08776 0.79668 0.29719 0.0
C106 C 0.01204 0.72824 0.37443 0.0
C107 C 0.96118 0.78538 0.28468 0.0
O108 O 0.98917 0.7976 0.29843 0.0
O109 O 0.95627 0.75185 0.28233 0.0
O110 O 0.06804 0.81075 0.31973 0.0
O111 O 0.0773 0.7668 0.28441 0.0
C112 C 0.31618 0.00336 0.05716 0.0
C113 C 0.34085 0.0213 0.07735 0.0
C114 C 0.32242 0.9991 0.0233 0.0
C115 C 0.35431 0.01276 0.0093 0.0
C116 C 0.38023 0.02921 0.02979 0.0
C117 C 0.37307 0.03354 0.0636 0.0
C118 C 0.29394 0.98167 0.00223 0.0
C119 C 0.41478 0.04357 0.01577 0.0
C120 C 0.36993 0.98279 0.92089 0.0
C121 C 0.35388 0.01094 0.90337 0.0
C122 C 0.3723 0.98381 0.95554 0.0
C123 C 0.35811 0.01355 0.97283 0.0
C124 C 0.34377 0.04287 0.95511 0.0
C125 C 0.34196 0.04124 0.92066 0.0
C126 C 0.38831 0.95234 0.97369 0.0
C127 C 0.32835 0.07513 0.9726 0.0
H128 H 0.29129 0.99365 0.06756 0.0
H129 H 0.39248 0.04704 0.07913 0.0
H130 H 0.28238 0.00179 0.9851 0.0
H131 H 0.30576 0.96006 0.98695 0.0
H132 H 0.27191 0.97015 0.01726 0.0
H133 H 0.4342 0.05079 0.03546 0.0
H134 H 0.42732 0.02358 -0.00087 0.0
H135 H 0.40918 0.06784 0.00083 0.0
H136 H 0.37948 0.95942 0.9077 0.0
H137 H 0.32998 0.0634 0.90734 0.0
H138 H 0.36669 0.93699 0.98601 0.0
H139 H 0.40696 0.96164 0.99321 0.0
H140 H 0.4029 0.93402 0.95679 0.0
H141 H 0.30423 0.06705 0.98674 0.0
H142 H 0.32065 0.09675 0.95514 0.0
H143 H 0.34795 0.08609 0.99051 0.0
C144 C 0.06674 0.31535 0.56644 0.0
C145 C 0.04326 0.33747 0.58417 0.0
C146 C 0.07102 0.31925 0.53227 0.0
C147 C 0.05142 0.34601 0.51538 0.0
C148 C 0.02905 0.36963 0.5333 0.0
C149 C 0.02517 0.36504 0.56753 0.0
C150 C 0.09508 0.29346 0.51401 0.0
C151 C 0.00791 0.39861 0.5161 0.0
C152 C 0.07793 0.36282 0.42606 0.0
C153 C 0.05368 0.34063 0.40931 0.0
C154 C 0.07688 0.3659 0.46066 0.0
C155 C 0.0511 0.3462 0.47873 0.0
C156 C 0.026 0.32458 0.46186 0.0
C157 C 0.02756 0.32212 0.42743 0.0
C158 C 0.10387 0.38941 0.47793 0.0
C159 C 0.9981 0.30308 0.48023 0.0
H160 H 0.08112 0.29418 0.57908 0.0
H161 H 0.00722 0.38248 0.58107 0.0
H162 H 0.07861 0.27576 0.49809 0.0
H163 H 0.11374 0.30824 0.49766 0.0
H164 H 0.11098 0.27642 0.53108 0.0
H165 H 0.99546 0.41752 0.53388 0.0
H166 H 0.02533 0.41393 0.499 0.0
H167 H 0.98638 0.38625 0.50107 0.0
H168 H 0.09806 0.37735 0.41223 0.0
H169 H 0.00852 0.30506 0.41478 0.0
H170 H 0.12215 0.37259 0.49297 0.0
H171 H 0.09014 0.40805 0.49509 0.0
H172 H 0.12014 0.40527 0.46024 0.0
H173 H 0.01142 0.28301 0.49629 0.0
H174 H 0.97957 0.2888 0.46329 0.0
H175 H 0.98211 0.32085 0.49647 0.0
C176 C 0.69136 0.07453 0.93198 0.0
C177 C 0.7185 0.05466 0.91657 0.0
C178 C 0.68624 0.0726 0.96635 0.0
C179 C 0.70904 0.05062 0.98558 0.0
C180 C 0.73593 0.02999 0.97004 0.0
C181 C 0.74021 0.03216 0.93581 0.0
C182 C 0.65702 0.09461 0.98215 0.0
C183 C 0.761 0.00637 0.98969 0.0
C184 C 0.73245 0.06974 0.0745 0.0
C185 C 0.7149 0.04172 0.09094 0.0
C186 C 0.72875 0.07446 0.04036 0.0
C187 C 0.70691 0.05063 0.02219 0.0
C188 C 0.68723 0.02377 0.03888 0.0
C189 C 0.6915 0.01957 0.07313 0.0
C190 C 0.7502 0.10345 0.02349 0.0
C191 C 0.66339 0.99808 0.02032 0.0
H192 H 0.67431 0.09177 0.91725 0.0
H193 H 0.76123 0.01661 0.92421 0.0
H194 H 0.64022 0.0775 -0.00169 0.0
H195 H 0.66909 0.11561 -0.00199 0.0
H196 H 0.63957 0.10777 0.96353 0.0
H197 H 0.77966 0.99108 0.97366 0.0
H198 H 0.77704 0.02301 0.00691 0.0
H199 H 0.74549 0.9871 0.00482 0.0
H200 H 0.75021 0.08734 0.08809 0.0
H201 H 0.67753 0.99809 0.08568 0.0
H202 H 0.73304 0.11901 0.00634 0.0
H203 H 0.77181 0.09103 0.00859 0.0
H204 H 0.76261 0.12221 0.04144 0.0
H205 H 0.6465 0.01264 0.00221 0.0
H206 H 0.64576 0.98263 0.03719 0.0
H207 H 0.68018 0.97889 0.00628 0.0
C208 C 0.03976 0.74089 0.42917 0.0
C209 C 0.01376 0.7227 0.41061 0.0
C210 C 0.04064 0.7384 0.46362 0.0
C211 C 0.01501 0.71701 0.48005 0.0
C212 C 0.98952 0.69742 0.46153 0.0
C213 C 0.98911 0.70058 0.42693 0.0
C214 C 0.06823 0.7598 0.48249 0.0
C215 C 0.96205 0.67406 0.47831 0.0
C216 C 0.03832 0.69914 0.56967 0.0
C217 C 0.01981 0.72693 0.58555 0.0
C218 C 0.03538 0.69412 0.5354 0.0
C219 C 0.01362 0.7176 0.51668 0.0
C220 C 0.99356 0.74456 0.53278 0.0
C221 C 0.99683 0.74884 0.56701 0.0
C222 C 0.05689 0.66486 0.51907 0.0
C223 C 0.97015 0.77023 0.51364 0.0
H224 H 0.05911 0.75788 0.41685 0.0
H225 H 0.96908 0.68627 0.41277 0.0
H226 H 0.05465 0.78015 0.49804 0.0
H227 H 0.0836 0.74205 0.49928 0.0
H228 H 0.08735 0.77375 0.46589 0.0
H229 H 0.94648 0.65783 0.46035 0.0
H230 H 0.97522 0.65576 0.49617 0.0
H231 H 0.94317 0.69104 0.49249 0.0
H232 H 0.05586 0.68185 0.58384 0.0
H233 H 0.98217 0.7702 0.57905 0.0
H234 H 0.07903 0.67694 0.50462 0.0
H235 H 0.03997 0.64951 0.50156 0.0
H236 H 0.06859 0.64601 0.53736 0.0
H237 H 0.98715 0.78763 0.49791 0.0
H238 H 0.95389 0.78758 0.53011 0.0
H239 H 0.95186 0.75533 0.49702 0.0
C240 C 0.46562 0.06955 0.2054 0.0
C241 C 0.43702 0.05187 0.22069 0.0
C242 C 0.50105 0.06069 0.21291 0.0
C243 C 0.50812 0.03428 0.23716 0.0
C244 C 0.47941 0.01875 0.25493 0.0
C245 C 0.44402 0.02721 0.246 0.0
C246 C 0.53074 0.07752 0.19285 0.0
C247 C 0.48586 0.99181 0.28205 0.0
C248 C 0.59102 0.98281 0.21438 0.0
C249 C 0.61769 0.0035 0.22948 0.0
C250 C 0.55478 0.99082 0.21881 0.0
C251 C 0.54494 0.01956 0.23971 0.0
C252 C 0.57157 0.03787 0.25798 0.0
C253 C 0.60783 0.03007 0.25218 0.0
C254 C 0.52736 0.9708 0.19851 0.0
C255 C 0.56195 0.06732 0.28187 0.0
H256 H 0.4604 0.08872 0.18588 0.0
H257 H 0.42195 0.01384 0.25822 0.0
H258 H 0.55106 0.08963 0.20936 0.0
H259 H 0.54437 0.05661 0.17797 0.0
H260 H 0.52074 0.09859 0.1758 0.0
H261 H 0.46286 0.99062 0.29939 0.0
H262 H 0.48932 0.96483 0.27107 0.0
H263 H 0.51048 0.99827 0.29619 0.0
H264 H 0.59842 0.962 0.19701 0.0
H265 H 0.62836 0.04573 0.2644 0.0
H266 H 0.51539 0.98919 0.18 0.0
H267 H 0.50538 0.96093 0.21445 0.0
H268 H 0.53916 0.94761 0.18523 0.0
H269 H 0.55686 0.09244 0.26804 0.0
H270 H 0.58392 0.0724 0.29977 0.0
H271 H 0.53722 0.06055 0.29571 0.0
C272 C 0.03529 0.45155 0.74648 0.0
C273 C 0.0106 0.4422 0.72186 0.0
C274 C 0.04242 0.4877 0.75362 0.0
C275 C 0.02543 0.51479 0.73481 0.0
C276 C -0.00093 0.50539 0.71123 0.0
C277 C 0.99162 0.46924 0.70544 0.0
C278 C 0.0695 0.49674 0.77998 0.0
C279 C 0.98074 0.53332 0.69012 0.0
C280 C 0.02684 0.61523 0.74729 0.0
C281 C 0.05308 0.62527 0.72434 0.0
C282 C 0.01978 0.5789 0.75362 0.0
C283 C 0.03856 0.55231 0.7357 0.0
C284 C 0.06665 0.56239 0.71419 0.0
C285 C 0.07389 0.59872 0.70918 0.0
C286 C 0.99078 0.5691 0.77789 0.0
C287 C 0.08702 0.535 0.69414 0.0
H288 H 0.04968 0.4307 0.75956 0.0
H289 H 0.97243 0.46221 0.68642 0.0
H290 H 0.09561 0.50284 0.76827 0.0
H291 H 0.06109 0.52074 0.79415 0.0
H292 H 0.07347 0.4741 0.79741 0.0
H293 H 0.95963 0.52164 0.67407 0.0
H294 H 0.96837 0.55419 0.70586 0.0
H295 H 0.0008 0.54672 0.67413 0.0
H296 H 0.01103 0.63568 0.75946 0.0
H297 H 0.09436 0.60625 0.69154 0.0
H298 H 0.9985 0.54516 0.7925 0.0
H299 H 0.96586 0.56253 0.7643 0.0
H300 H 0.98489 0.59151 0.7951 0.0
H301 H 0.09785 0.51371 0.71038 0.0
H302 H 0.10956 0.5471 0.68017 0.0
H303 H 0.0686 0.52204 0.67624 0.0
C304 C 0.6112 0.02137 0.78634 0.0
C305 C 0.62762 0.05053 0.77094 0.0
C306 C 0.57508 0.01357 0.78045 0.0
C307 C 0.55556 0.03454 0.75745 0.0
C308 C 0.57316 0.06192 0.73953 0.0
C309 C 0.60882 0.07033 0.74724 0.0
C310 C 0.55715 0.98488 0.8009 0.0
C311 C 0.5539 0.0835 0.71349 0.0
C312 C 0.46424 0.99434 0.74114 0.0
C313 C 0.44297 0.0144 0.76277 0.0
C314 C 0.50051 0.00283 0.73657 0.0
C315 C 0.51604 0.03059 0.75559 0.0
C316 C 0.4941 0.05191 0.7763 0.0
C317 C 0.45758 0.04401 0.77901 0.0
C318 C 0.52252 0.98085 0.7128 0.0
C319 C 0.50969 0.08105 0.79783 0.0
H320 H 0.6258 0.00645 0.80498 0.0
H321 H 0.62175 0.09288 0.73532 0.0
H322 H 0.53608 0.99715 0.81657 0.0
H323 H 0.54391 0.96501 0.78467 0.0
H324 H 0.57634 0.97055 0.81719 0.0
H325 H 0.57298 0.09744 0.69684 0.0
H326 H 0.53619 0.0661 0.69842 0.0
H327 H 0.53688 0.10402 0.72552 0.0
H328 H 0.45275 0.97146 0.72853 0.0
H329 H 0.44108 0.05916 0.79606 0.0
H330 H 0.53816 0.96059 0.72668 0.0
H331 H 0.54176 0.99803 0.6992 0.0
H332 H 0.50535 0.96658 0.69467 0.0
H333 H 0.5288 0.0691 0.81572 0.0
H334 H 0.48879 0.09575 0.81186 0.0
H335 H 0.52478 0.10055 0.78263 0.0
C336 C 0.0676 0.45966 0.2462 0.0
C337 C 0.04865 0.44007 0.26991 0.0
C338 C 0.05981 0.49595 0.24062 0.0
C339 C 0.03399 0.51324 0.26063 0.0
C340 C 0.01399 0.49306 0.28384 0.0
C341 C 0.02107 0.45644 0.28764 0.0
C342 C 0.08031 0.51605 0.21442 0.0
C343 C 0.98706 0.51061 0.30648 0.0
C344 C 0.04616 0.61053 0.28423 0.0
C345 C 0.01614 0.62614 0.26945 0.0
C346 C 0.05318 0.57389 0.28045 0.0
C347 C 0.03044 0.55288 0.26019 0.0
C348 C 0.00199 0.56938 0.2428 0.0
C349 C 0.99454 0.60573 0.24838 0.0
C350 C 0.08311 0.55722 0.30029 0.0
C351 C 0.97836 0.54834 0.21963 0.0
H352 H 0.08898 0.44677 0.23254 0.0
H353 H 0.00687 0.44121 0.3063 0.0
H354 H 0.06231 0.53432 0.20055 0.0
H355 H 0.10133 0.53266 0.22621 0.0
H356 H 0.09348 0.49757 0.19669 0.0
H357 H 0.97336 0.49097 0.32275 0.0
H358 H 0.00076 0.53069 0.32227 0.0
H359 H 0.96651 0.52502 0.29187 0.0
H360 H 0.06252 0.62637 0.30086 0.0
H361 H 0.97135 0.618 0.23691 0.0
H362 H 0.10144 0.54212 0.2839 0.0
H363 H 0.07178 0.53788 0.31829 0.0
H364 H 0.09896 0.57748 0.31405 0.0
H365 H 0.99457 0.52984 0.20427 0.0
H366 H 0.96268 0.56618 0.20309 0.0
H367 H 0.95929 0.5319 0.23412 0.0
C368 C 0.13504 0.22195 0.27927 0.0
C369 C 0.13251 0.25699 0.26709 0.0
C370 C 0.1603 0.19791 0.2666 0.0
C371 C 0.183 0.2089 0.24054 0.0
C372 C 0.1806 0.24425 0.22808 0.0
C373 C 0.15562 0.26808 0.24183 0.0
C374 C 0.16254 0.16066 0.28103 0.0
C375 C 0.20384 0.2566 0.1998 0.0
C376 C 0.26605 0.15237 0.22665 0.0
C377 C 0.25376 0.12784 0.20303 0.0
C378 C 0.2436 0.1796 0.23853 0.0
C379 C 0.20841 0.1828 0.22586 0.0
C380 C 0.19652 0.15914 0.20086 0.0
C381 C 0.21919 0.13164 0.19005 0.0
C382 C 0.25695 0.20387 0.2657 0.0
C383 C 0.15947 0.1622 0.1862 0.0
H384 H 0.11746 0.2134 0.29906 0.0
H385 H 0.15358 0.29513 0.23227 0.0
H386 H 0.15552 0.14059 0.26191 0.0
H387 H 0.19032 0.15494 0.28916 0.0
H388 H 0.14431 0.15702 0.30244 0.0
H389 H 0.19904 0.2851 0.19331 0.0
H390 H 0.23251 0.2532 0.20618 0.0
H391 H 0.19854 0.23988 0.17769 0.0
H392 H 0.29274 0.14939 0.23681 0.0
H393 H 0.20977 0.11295 0.17149 0.0
H394 H 0.24113 0.19914 0.28848 0.0
H395 H 0.25318 0.23234 0.25873 0.0
H396 H 0.28568 0.19934 0.2714 0.0
H397 H 0.13919 0.15541 0.20519 0.0
H398 H 0.15567 0.14409 0.16471 0.0
H399 H 0.15426 0.19013 0.17817 0.0
C400 C 0.91466 0.26962 0.73795 0.0
C401 C 0.93957 0.25629 0.71518 0.0
C402 C 0.88734 0.24765 0.75042 0.0
C403 C 0.88445 0.21187 0.73917 0.0
C404 C 0.90872 0.19876 0.71522 0.0
C405 C 0.93628 0.221 0.70384 0.0
C406 C 0.86242 0.26228 0.77648 0.0
C407 C 0.90603 0.16101 0.70209 0.0
C408 C 0.84265 0.14032 0.79302 0.0
C409 C 0.80832 0.13734 0.77935 0.0
C410 C 0.86721 0.16538 0.78087 0.0
C411 C 0.85751 0.18734 0.75382 0.0
C412 C 0.82277 0.18467 0.74003 0.0
C413 C 0.79837 0.15995 0.75328 0.0
C414 C 0.90373 0.16799 0.79672 0.0
C415 C 0.8118 0.20712 0.71071 0.0
H416 H 0.91726 0.29686 0.74687 0.0
H417 H 0.95528 0.21075 0.68595 0.0
H418 H 0.83417 0.25878 0.76874 0.0
H419 H 0.86605 0.24711 0.79982 0.0
H420 H 0.86724 0.29112 0.78151 0.0
H421 H 0.92512 0.15594 0.68159 0.0
H422 H 0.91163 0.14163 0.72221 0.0
H423 H 0.87848 0.15567 0.6931 0.0
H424 H 0.85027 0.12312 0.81343 0.0
H425 H 0.77187 0.15755 0.74258 0.0
H426 H 0.90937 0.1961 0.8039 0.0
H427 H 0.9246 0.15984 0.77875 0.0
H428 H 0.90614 0.15077 0.81899 0.0
H429 H 0.81555 0.23595 0.71624 0.0
H430 H 0.78345 0.20261 0.70355 0.0
H431 H 0.82912 0.20065 0.68927 0.0
C432 C 0.93126 0.84493 0.28597 0.0
C433 C 0.93387 0.81058 0.27224 0.0
C434 C 0.90538 0.86926 0.27488 0.0
C435 C 0.88213 0.85932 0.24884 0.0
C436 C 0.88479 0.82476 0.23467 0.0
C437 C 0.91039 0.80057 0.24686 0.0
C438 C 0.90288 0.90561 0.29108 0.0
C439 C 0.861 0.81356 0.20635 0.0
C440 C 0.79654 0.91306 0.23906 0.0
C441 C 0.80697 0.93887 0.21585 0.0
C442 C 0.8206 0.88661 0.24974 0.0
C443 C 0.85552 0.8855 0.2362 0.0
C444 C 0.8657 0.91071 0.21185 0.0
C445 C 0.84144 0.9374 0.20229 0.0
C446 C 0.80909 0.86068 0.2763 0.0
C447 C 0.90242 0.90986 0.19631 0.0
H448 H 0.94915 0.85263 0.30582 0.0
H449 H 0.9125 0.77409 0.23609 0.0
H450 H 0.90855 0.92689 0.27271 0.0
H451 H 0.87533 0.91012 0.30042 0.0
H452 H 0.92192 0.90856 0.31199 0.0
H453 H 0.86661 0.78581 0.19796 0.0
H454 H 0.83249 0.81533 0.21377 0.0
H455 H 0.8648 0.83205 0.18518 0.0
H456 H 0.76995 0.91427 0.24968 0.0
H457 H 0.84943 0.95711 0.18406 0.0
H458 H 0.82608 0.86433 0.29854 0.0
H459 H 0.81284 0.83272 0.26778 0.0
H460 H 0.78065 0.8644 0.2835 0.0
H461 H 0.92302 0.91593 0.21524 0.0
H462 H 0.9051 0.92952 0.17586 0.0
H463 H 0.90821 0.88271 0.18655 0.0
C464 C 0.12402 0.84782 0.70179 0.0
C465 C 0.12156 0.81279 0.71401 0.0
C466 C 0.15196 0.87051 0.71153 0.0
C467 C 0.17755 0.85813 0.73466 0.0
C468 C 0.1753 0.82272 0.747 0.0
C469 C 0.14753 0.8003 0.73621 0.0
C470 C 0.15389 0.90786 0.69733 0.0
C471 C 0.20165 0.80888 0.77226 0.0
C472 C 0.26535 0.90863 0.74287 0.0
C473 C 0.25771 0.93189 0.7691 0.0
C474 C 0.23949 0.88439 0.73133 0.0
C475 C 0.20566 0.88284 0.747 0.0
C476 C 0.19818 0.90567 0.77402 0.0
C477 C 0.22415 0.93023 0.78447 0.0
C478 C 0.24808 0.861 0.70197 0.0
C479 C 0.1627 0.90428 0.79183 0.0
H480 H 0.10418 0.85745 0.68436 0.0
H481 H 0.1456 0.77327 0.74582 0.0
H482 H 0.15005 0.92787 0.71726 0.0
H483 H 0.1807 0.91265 0.68644 0.0
H484 H 0.13329 0.91253 0.678 0.0
H485 H 0.19663 0.78046 0.77887 0.0
H486 H 0.22936 0.81131 0.76273 0.0
H487 H 0.2 0.82533 0.79504 0.0
H488 H 0.29123 0.91 0.73085 0.0
H489 H 0.2183 0.94793 0.80499 0.0
H490 H 0.22899 0.86667 0.68161 0.0
H491 H 0.24493 0.83237 0.70863 0.0
H492 H 0.27573 0.86529 0.69272 0.0
H493 H 0.1408 0.91185 0.77468 0.0
H494 H 0.16187 0.92251 0.81349 0.0
H495 H 0.15725 0.87658 0.80039 0.0
C496 C 0.79908 0.92915 0.76663 0.0
C497 C 0.81365 0.95059 0.79169 0.0
C498 C 0.81899 0.90095 0.75277 0.0
C499 C 0.85433 0.89455 0.76398 0.0
C500 C 0.86831 0.91486 0.7905 0.0
C501 C 0.84774 0.94244 0.80413 0.0
C502 C 0.80293 0.87933 0.725 0.0
C503 C 0.90598 0.90912 0.80306 0.0
C504 C 0.91156 0.81417 0.74117 0.0
C505 C 0.9331 0.82876 0.71621 0.0
C506 C 0.88413 0.83453 0.75577 0.0
C507 C 0.87863 0.87034 0.74542 0.0
C508 C 0.89935 0.88459 0.71931 0.0
C509 C 0.92614 0.86358 0.70494 0.0
C510 C 0.86206 0.81825 0.78312 0.0
C511 C 0.89459 0.92276 0.70767 0.0
H512 H 0.7726 0.93506 0.75713 0.0
H513 H 0.85912 0.95865 0.8237 0.0
H514 H 0.81539 0.88737 0.70127 0.0
H515 H 0.80837 0.85038 0.72857 0.0
H516 H 0.77356 0.88341 0.72299 0.0
H517 H 0.91171 0.92507 0.82561 0.0
H518 H 0.91058 0.88044 0.80872 0.0
H519 H 0.9254 0.91694 0.78361 0.0
H520 H 0.91658 0.78715 0.74978 0.0
H521 H 0.94248 0.87503 0.68551 0.0
H522 H 0.83322 0.82399 0.77928 0.0
H523 H 0.86987 0.83034 0.80709 0.0
H524 H 0.86586 0.7888 0.78482 0.0
H525 H 0.86619 0.92789 0.70128 0.0
H526 H 0.91136 0.92901 0.68577 0.0
H527 H 0.90193 0.94147 0.72786 0.0
C528 C 0.25296 0.91686 0.23212 0.0
C529 C 0.23691 0.93908 0.20842 0.0
C530 C 0.23356 0.88894 0.24703 0.0
C531 C 0.19721 0.88367 0.23836 0.0
C532 C 0.18133 0.90533 0.21369 0.0
C533 C 0.20142 0.93256 0.19892 0.0
C534 C 0.25153 0.86592 0.2728 0.0
C535 C 0.14253 0.90088 0.20393 0.0
C536 C 0.14019 0.80267 0.25879 0.0
C537 C 0.11982 0.81592 0.28518 0.0
C538 C 0.16761 0.82341 0.24468 0.0
C539 C 0.17435 0.85823 0.25706 0.0
C540 C 0.15534 0.87073 0.28498 0.0
C541 C 0.12848 0.84936 0.29878 0.0
C542 C 0.18787 0.80892 0.21535 0.0
C543 C 0.16151 0.90778 0.29887 0.0
H544 H 0.2805 0.92157 0.23934 0.0
H545 H 0.18882 0.9495 0.18054 0.0
H546 H 0.24053 0.87239 0.29753 0.0
H547 H 0.24604 0.83718 0.26807 0.0
H548 H 0.28095 0.87011 0.27342 0.0
H549 H 0.13479 0.91873 0.18317 0.0
H550 H 0.1372 0.87279 0.19657 0.0
H551 H 0.1251 0.90698 0.22539 0.0
H552 H 0.13389 0.77669 0.24837 0.0
H553 H 0.11315 0.85968 0.3194 0.0
H554 H 0.21691 0.81449 0.21784 0.0
H555 H 0.17845 0.82243 0.19254 0.0
H556 H 0.18395 0.77962 0.21235 0.0
H557 H 0.19043 0.91245 0.30315 0.0
H558 H 0.14699 0.91211 0.32248 0.0
H559 H 0.15223 0.9281 0.28077 0.0
C560 C 0.15311 0.25204 0.73599 0.0
C561 C 0.12838 0.23611 0.71446 0.0
C562 C 0.18177 0.23214 0.74909 0.0
C563 C 0.18526 0.19546 0.74082 0.0
C564 C 0.16083 0.17959 0.71848 0.0
C565 C 0.13289 0.20015 0.70545 0.0
C566 C 0.2077 0.25004 0.77242 0.0
C567 C 0.1633 0.14044 0.7093 0.0
C568 C 0.26695 0.13708 0.75462 0.0
C569 C 0.25626 0.11737 0.78239 0.0
C570 C 0.2453 0.16471 0.74206 0.0
C571 C 0.21217 0.1724 0.75751 0.0
C572 C 0.20244 0.1541 0.78675 0.0
C573 C 0.22467 0.12696 0.79889 0.0
C574 C 0.25683 0.18414 0.71117 0.0
C575 C 0.16727 0.1613 0.80391 0.0
H576 H 0.14993 0.27992 0.74281 0.0
H577 H 0.11395 0.18763 0.68878 0.0
H578 H 0.20402 0.23921 0.7977 0.0
H579 H 0.23567 0.24424 0.76496 0.0
H580 H 0.20387 0.27953 0.77326 0.0
H581 H 0.14306 0.13263 0.69052 0.0
H582 H 0.19027 0.13424 0.69944 0.0
H583 H 0.15927 0.12368 0.73162 0.0
H584 H 0.2915 0.13004 0.74193 0.0
H585 H 0.21638 0.11216 0.82061 0.0
H586 H 0.2522 0.21336 0.71367 0.0
H587 H 0.24064 0.17466 0.68993 0.0
H588 H 0.28553 0.17947 0.70546 0.0
H589 H 0.16352 0.19042 0.80792 0.0
H590 H 0.16539 0.14745 0.82814 0.0
H591 H 0.14491 0.15193 0.78806 0.0
C592 C 0.92234 0.26218 0.26382 0.0
C593 C 0.94636 0.24751 0.28676 0.0
C594 C 0.8935 0.24189 0.25166 0.0
C595 C 0.88907 0.20606 0.26238 0.0
C596 C 0.91222 0.19182 0.28673 0.0
C597 C 0.94039 0.21277 0.29873 0.0
C598 C 0.86888 0.25817 0.2262 0.0
C599 C 0.90867 0.15363 0.29863 0.0
C600 C 0.80788 0.1477 0.24526 0.0
C601 C 0.82028 0.12707 0.21868 0.0
C602 C 0.8291 0.1752 0.25867 0.0
C603 C 0.86355 0.18174 0.24539 0.0
C604 C 0.87545 0.16197 0.21769 0.0
C605 C 0.85363 0.13506 0.20461 0.0
C606 C 0.81531 0.19618 0.28786 0.0
C607 C 0.91211 0.16787 0.2029 0.0
H608 H 0.92658 0.28914 0.25471 0.0
H609 H 0.95864 0.20127 0.31665 0.0
H610 H 0.8746 0.24632 0.20164 0.0
H611 H 0.84054 0.25217 0.23217 0.0
H612 H 0.87227 0.28766 0.22441 0.0
H613 H 0.92704 0.14757 0.31949 0.0
H614 H 0.88084 0.14817 0.30667 0.0
H615 H 0.9148 0.135 0.27804 0.0
H616 H 0.78199 0.14188 0.25605 0.0
H617 H 0.86335 0.11945 0.1839 0.0
H618 H 0.81996 0.22525 0.2842 0.0
H619 H 0.83007 0.18808 0.31044 0.0
H620 H 0.7863 0.19162 0.29209 0.0
H621 H 0.91604 0.19657 0.19689 0.0
H622 H 0.91635 0.15189 0.18009 0.0
H623 H 0.93296 0.1603 0.22115 0.0
loop_
_geom_bond_atom_site_label_1
_geom_bond_atom_site_label_2
_geom_bond_distance
_geom_bond_site_symmetry_2
_ccdc_geom_bond_type
O0 Cd1 2.223 . S
O0 C8 1.315 . S
Cd1 O0 2.223 . S
Cd1 O4 2.297 . S
Cd1 O5 2.439 . S
Cd1 O11 2.240 . S
Cd2 O3 2.240 1_565 S
Cd2 O10 2.223 1_565 S
Cd2 O12 2.297 . S
Cd2 O13 2.439 . S
O3 Cd2 2.240 1_545 S
O3 C8 1.279 . S
O4 Cd1 2.297 . S
O4 C6 1.247 . S
O5 Cd1 2.439 . S
O5 C6 1.208 . S
C6 O4 1.247 . S
C6 O5 1.208 . S
C7 O12 1.247 . S
C7 O13 1.208 . S
C8 O0 1.315 . S
C8 O3 1.279 . S
C9 O10 1.315 . S
C9 O11 1.279 . S
O10 Cd2 2.223 1_545 S
O10 C9 1.315 . S
O11 Cd1 2.240 . S
O11 C9 1.279 . S
O12 Cd2 2.297 . S
O12 C7 1.247 . S
O13 Cd2 2.439 . S
O13 C7 1.208 . S
O14 Cd15 2.221 1_655 S
O14 C22 1.315 1_655 S
Cd15 O14 2.221 1_455 S
Cd15 O18 2.299 . S
Cd15 O19 2.445 . S
Cd15 O25 2.241 . S
Cd16 O17 2.240 . S
Cd16 O24 2.223 . S
Cd16 O26 2.297 . S
Cd16 O27 2.439 . S
O17 Cd16 2.240 . S
O17 C22 1.279 . S
O18 Cd15 2.299 . S
O18 C20 1.247 . S
O19 Cd15 2.445 . S
O19 C20 1.208 . S
C20 O18 1.247 . S
C20 O19 1.208 . S
C21 O26 1.247 . S
C21 O27 1.208 . S
C22 O14 1.315 1_455 S
C22 O17 1.279 . S
C23 O24 1.315 1_655 S
C23 O25 1.279 1_655 S
O24 Cd16 2.223 . S
O24 C23 1.315 1_455 S
O25 Cd15 2.241 . S
O25 C23 1.279 1_455 S
O26 Cd16 2.297 . S
O26 C21 1.247 . S
O27 Cd16 2.439 . S
O27 C21 1.208 . S
O28 Cd29 2.221 1_565 S
O28 C36 1.315 1_565 S
Cd29 O28 2.221 1_545 S
Cd29 O32 2.299 . S
Cd29 O33 2.446 . S
Cd29 O39 2.241 . S
Cd30 O31 2.240 . S
Cd30 O38 2.223 . S
Cd30 O40 2.297 . S
Cd30 O41 2.439 . S
O31 Cd30 2.240 . S
O31 C36 1.279 . S
O32 Cd29 2.299 . S
O32 C34 1.247 . S
O33 Cd29 2.446 . S
O33 C34 1.208 . S
C34 O32 1.247 . S
C34 O33 1.208 . S
C35 O40 1.247 . S
C35 O41 1.208 . S
C36 O28 1.315 1_545 S
C36 O31 1.279 . S
C37 O38 1.315 1_565 S
C37 O39 1.279 1_565 S
O38 Cd30 2.223 . S
O38 C37 1.315 1_545 S
O39 Cd29 2.241 . S
O39 C37 1.279 1_545 S
O40 Cd30 2.297 . S
O40 C35 1.247 . S
O41 Cd30 2.439 . S
O41 C35 1.208 . S
O42 Cd43 2.223 . S
O42 C50 1.315 . S
Cd43 O42 2.223 . S
Cd43 O46 2.297 . S
Cd43 O47 2.439 . S
Cd43 O53 2.240 . S
Cd44 O45 2.240 1_655 S
Cd44 O52 2.223 1_655 S
Cd44 O54 2.297 . S
Cd44 O55 2.439 . S
O45 Cd44 2.240 1_455 S
O45 C50 1.279 . S
O46 Cd43 2.297 . S
O46 C48 1.247 . S
O47 Cd43 2.439 . S
O47 C48 1.208 . S
C48 O46 1.247 . S
C48 O47 1.208 . S
C49 O54 1.247 . S
C49 O55 1.208 . S
C50 O42 1.315 . S
C50 O45 1.279 . S
C51 O52 1.315 . S
C51 O53 1.279 . S
O52 Cd44 2.223 1_455 S
O52 C51 1.315 . S
O53 Cd43 2.240 . S
O53 C51 1.279 . S
O54 Cd44 2.297 . S
O54 C49 1.247 . S
O55 Cd44 2.439 . S
O55 C49 1.208 . S
O56 Cd57 2.221 1_565 S
O56 C64 1.315 1_565 S
Cd57 O56 2.221 1_545 S
Cd57 O60 2.299 . S
Cd57 O61 2.445 . S
Cd57 O67 2.241 . S
Cd58 O59 2.240 . S
Cd58 O66 2.223 . S
Cd58 O68 2.297 . S
Cd58 O69 2.439 . S
O59 Cd58 2.240 . S
O59 C64 1.279 . S
O60 Cd57 2.299 . S
O60 C62 1.247 . S
O61 Cd57 2.445 . S
O61 C62 1.208 . S
C62 O60 1.247 . S
C62 O61 1.208 . S
C63 O68 1.247 . S
C63 O69 1.208 . S
C64 O56 1.315 1_545 S
C64 O59 1.279 . S
C65 O66 1.315 1_565 S
C65 O67 1.279 1_565 S
O66 Cd58 2.223 . S
O66 C65 1.315 1_545 S
O67 Cd57 2.241 . S
O67 C65 1.279 1_545 S
O68 Cd58 2.297 . S
O68 C63 1.247 . S
O69 Cd58 2.439 . S
O69 C63 1.208 . S
O70 Cd71 2.223 . S
O70 C78 1.315 . S
Cd71 O70 2.223 . S
Cd71 O74 2.297 . S
Cd71 O75 2.439 . S
Cd71 O81 2.240 . S
Cd72 O73 2.240 1_655 S
Cd72 O80 2.223 1_655 S
Cd72 O82 2.297 . S
Cd72 O83 2.439 . S
O73 Cd72 2.240 1_455 S
O73 C78 1.279 . S
O74 Cd71 2.297 . S
O74 C76 1.247 . S
O75 Cd71 2.439 . S
O75 C76 1.208 . S
C76 O74 1.247 . S
C76 O75 1.208 . S
C77 O82 1.247 . S
C77 O83 1.208 . S
C78 O70 1.315 . S
C78 O73 1.279 . S
C79 O80 1.315 . S
C79 O81 1.279 . S
O80 Cd72 2.223 1_455 S
O80 C79 1.315 . S
O81 Cd71 2.240 . S
O81 C79 1.279 . S
O82 Cd72 2.297 . S
O82 C77 1.247 . S
O83 Cd72 2.439 . S
O83 C77 1.208 . S
O84 Cd85 2.223 . S
O84 C92 1.315 . S
Cd85 O84 2.223 . S
Cd85 O88 2.297 . S
Cd85 O89 2.439 . S
Cd85 O95 2.240 . S
Cd86 O87 2.240 1_565 S
Cd86 O94 2.223 1_565 S
Cd86 O96 2.297 . S
Cd86 O97 2.439 . S
O87 Cd86 2.240 1_545 S
O87 C92 1.279 . S
O88 Cd85 2.297 . S
O88 C90 1.247 . S
O89 Cd85 2.439 . S
O89 C90 1.208 . S
C90 O88 1.247 . S
C90 O89 1.208 . S
C91 O96 1.247 . S
C91 O97 1.208 . S
C92 O84 1.315 . S
C92 O87 1.279 . S
C93 O94 1.315 . S
C93 O95 1.279 . S
O94 Cd86 2.223 1_545 S
O94 C93 1.315 . S
O95 Cd85 2.240 . S
O95 C93 1.279 . S
O96 Cd86 2.297 . S
O96 C91 1.247 . S
O97 Cd86 2.439 . S
O97 C91 1.208 . S
O98 Cd99 2.221 1_655 S
O98 C106 1.315 1_655 S
Cd99 O98 2.221 1_455 S
Cd99 O102 2.299 . S
Cd99 O103 2.446 . S
Cd99 O109 2.241 . S
Cd100 O101 2.240 . S
Cd100 O108 2.223 . S
Cd100 O110 2.297 . S
Cd100 O111 2.439 . S
O101 Cd100 2.240 . S
O101 C106 1.279 . S
O102 Cd99 2.299 . S
O102 C104 1.247 . S
O103 Cd99 2.446 . S
O103 C104 1.208 . S
C104 O102 1.247 . S
C104 O103 1.208 . S
C105 O110 1.247 . S
C105 O111 1.208 . S
C106 O98 1.315 1_455 S
C106 O101 1.279 . S
C107 O108 1.315 1_655 S
C107 O109 1.279 1_655 S
O108 Cd100 2.223 . S
O108 C107 1.315 1_455 S
O109 Cd99 2.241 . S
O109 C107 1.279 1_455 S
O110 Cd100 2.297 . S
O110 C105 1.247 . S
O111 Cd100 2.439 . S
O111 C105 1.208 . S
C112 C113 1.391 . S
C112 C114 1.394 . S
C112 H128 0.931 . S
C113 C112 1.391 . S
C113 C117 1.376 . S
C114 C112 1.394 . S
C114 C115 1.369 . S
C114 C118 1.531 . S
C115 C114 1.369 . S
C115 C116 1.410 . S
C115 C123 1.503 1_554 S
C116 C115 1.410 . S
C116 C117 1.392 . S
C116 C119 1.511 1_545 S
C117 C113 1.376 . S
C117 C116 1.392 . S
C117 H129 0.929 . S
C118 C114 1.531 . S
C118 H130 0.960 1_554 S
C118 H131 0.962 . S
C118 H132 0.960 . S
C119 C116 1.511 1_565 S
C119 H133 0.961 . S
C119 H134 0.961 . S
C119 H135 0.961 1_565 S
C120 C121 1.370 . S
C120 C122 1.363 . S
C120 H136 0.931 1_545 S
C121 C120 1.370 . S
C121 C125 1.408 . S
C122 C120 1.363 . S
C122 C123 1.370 . S
C122 C126 1.524 1_545 S
C123 C115 1.503 1_556 S
C123 C122 1.370 . S
C123 C124 1.403 . S
C124 C123 1.403 . S
C124 C125 1.404 . S
C124 C127 1.539 . S
C125 C121 1.408 . S
C125 C124 1.404 . S
C125 H137 0.930 . S
C126 C122 1.524 1_565 S
C126 H138 0.956 1_566 S
C126 H139 0.961 1_556 S
C126 H140 0.961 . S
C127 C124 1.539 . S
C127 H141 0.958 . S
C127 H142 0.961 . S
C127 H143 0.960 . S
H128 C112 0.931 . S
H129 C117 0.929 . S
H130 C118 0.960 1_556 S
H131 C118 0.962 . S
H132 C118 0.960 . S
H133 C119 0.961 . S
H134 C119 0.961 . S
H135 C119 0.961 1_545 S
H136 C120 0.931 1_565 S
H137 C125 0.930 . S
H138 C126 0.956 1_544 S
H139 C126 0.961 1_554 S
H140 C126 0.961 . S
H141 C127 0.958 . S
H142 C127 0.961 . S
H143 C127 0.960 . S
C144 C145 1.391 . S
C144 C146 1.394 . S
C144 H160 0.931 . S
C145 C144 1.391 . S
C145 C149 1.383 . S
C146 C144 1.394 . S
C146 C147 1.369 . S
C146 C150 1.531 . S
C147 C146 1.369 . S
C147 C148 1.410 . S
C147 C155 1.503 . S
C148 C147 1.410 . S
C148 C149 1.394 . S
C148 C151 1.511 1_455 S
C149 C145 1.383 . S
C149 C148 1.394 . S
C149 H161 0.920 1_455 S
C150 C146 1.531 . S
C150 H162 0.960 . S
C150 H163 0.962 . S
C150 H164 0.960 . S
C151 C148 1.511 1_655 S
C151 H165 0.961 . S
C151 H166 0.966 . S
C151 H167 0.961 . S
C152 C153 1.370 . S
C152 C154 1.363 . S
C152 H168 0.931 . S
C153 C152 1.370 . S
C153 C157 1.408 . S
C154 C152 1.363 . S
C154 C155 1.370 . S
C154 C158 1.524 . S
C155 C147 1.503 . S
C155 C154 1.370 . S
C155 C156 1.403 . S
C156 C155 1.403 . S
C156 C157 1.404 . S
C156 C159 1.539 1_455 S
C157 C153 1.408 . S
C157 C156 1.404 . S
C157 H169 0.935 . S
C158 C154 1.524 . S
C158 H170 0.956 . S
C158 H171 0.961 . S
C158 H172 0.961 . S
C159 C156 1.539 1_655 S
C159 H173 0.958 . S
C159 H174 0.961 . S
C159 H175 0.960 . S
H160 C144 0.931 . S
H161 C149 0.920 1_655 S
H162 C150 0.960 . S
H163 C150 0.962 . S
H164 C150 0.960 . S
H165 C151 0.961 . S
H166 C151 0.966 . S
H167 C151 0.961 . S
H168 C152 0.931 . S
H169 C157 0.935 . S
H170 C158 0.956 . S
H171 C158 0.961 . S
H172 C158 0.961 . S
H173 C159 0.958 . S
H174 C159 0.961 . S
H175 C159 0.960 . S
C176 C177 1.391 . S
C176 C178 1.394 . S
C176 H192 0.931 . S
C177 C176 1.391 . S
C177 C181 1.376 . S
C178 C176 1.394 . S
C178 C179 1.369 . S
C178 C182 1.531 1_545 S
C179 C178 1.369 . S
C179 C180 1.410 . S
C179 C187 1.503 1_556 S
C180 C179 1.410 . S
C180 C181 1.392 . S
C180 C183 1.511 . S
C181 C177 1.376 . S
C181 C180 1.392 . S
C181 H193 0.929 . S
C182 C178 1.531 1_565 S
C182 H194 0.960 . S
C182 H195 0.962 1_565 S
C182 H196 0.960 . S
C183 C180 1.511 . S
C183 H197 0.961 . S
C183 H198 0.961 1_556 S
C183 H199 0.961 . S
C184 C185 1.370 . S
C184 C186 1.363 . S
C184 H200 0.931 . S
C185 C184 1.370 . S
C185 C189 1.408 1_545 S
C186 C184 1.363 . S
C186 C187 1.370 . S
C186 C190 1.524 . S
C187 C179 1.503 1_554 S
C187 C186 1.370 . S
C187 C188 1.403 1_545 S
C188 C187 1.403 1_565 S
C188 C189 1.404 . S
C188 C191 1.539 . S
C189 C185 1.408 1_565 S
C189 C188 1.404 . S
C189 H201 0.930 . S
C190 C186 1.524 . S
C190 H202 0.956 . S
C190 H203 0.961 . S
C190 H204 0.961 . S
C191 C188 1.539 . S
C191 H205 0.958 . S
C191 H206 0.961 . S
C191 H207 0.960 1_554 S
H192 C176 0.931 . S
H193 C181 0.929 . S
H194 C182 0.960 . S
H195 C182 0.962 1_545 S
H196 C182 0.960 . S
H197 C183 0.961 . S
H198 C183 0.961 1_554 S
H199 C183 0.961 . S
H200 C184 0.931 . S
H201 C189 0.930 . S
H202 C190 0.956 . S
H203 C190 0.961 . S
H204 C190 0.961 . S
H205 C191 0.958 . S
H206 C191 0.961 . S
H207 C191 0.960 1_556 S
C208 C209 1.391 . S
C208 C210 1.394 . S
C208 H224 0.931 . S
C209 C208 1.391 . S
C209 C213 1.376 1_455 S
C210 C208 1.394 . S
C210 C211 1.369 . S
C210 C214 1.531 . S
C211 C210 1.369 . S
C211 C212 1.410 1_455 S
C211 C219 1.503 . S
C212 C211 1.410 1_655 S
C212 C213 1.392 . S
C212 C215 1.511 . S
C213 C209 1.376 1_655 S
C213 C212 1.392 . S
C213 H225 0.929 . S
C214 C210 1.531 . S
C214 H226 0.960 . S
C214 H227 0.962 . S
C214 H228 0.960 . S
C215 C212 1.511 . S
C215 H229 0.961 . S
C215 H230 0.961 . S
C215 H231 0.961 . S
C216 C217 1.370 . S
C216 C218 1.363 . S
C216 H232 0.931 . S
C217 C216 1.370 . S
C217 C221 1.408 . S
C218 C216 1.363 . S
C218 C219 1.370 . S
C218 C222 1.524 . S
C219 C211 1.503 . S
C219 C218 1.370 . S
C219 C220 1.403 . S
C220 C219 1.403 . S
C220 C221 1.404 . S
C220 C223 1.539 1_455 S
C221 C217 1.408 . S
C221 C220 1.404 . S
C221 H233 0.930 . S
C222 C218 1.524 . S
C222 H234 0.956 . S
C222 H235 0.961 . S
C222 H236 0.961 . S
C223 C220 1.539 1_655 S
C223 H237 0.958 1_655 S
C223 H238 0.961 . S
C223 H239 0.960 . S
H224 C208 0.931 . S
H225 C213 0.929 . S
H226 C214 0.960 . S
H227 C214 0.962 . S
H228 C214 0.960 . S
H229 C215 0.961 . S
H230 C215 0.961 . S
H231 C215 0.961 . S
H232 C216 0.931 . S
H233 C221 0.930 . S
H234 C222 0.956 . S
H235 C222 0.961 . S
H236 C222 0.961 . S
H237 C223 0.958 1_455 S
H238 C223 0.961 . S
H239 C223 0.960 . S
C240 C241 1.391 . S
C240 C242 1.394 . S
C240 H256 0.931 . S
C241 C240 1.391 . S
C241 C245 1.376 1_545 S
C242 C240 1.394 . S
C242 C243 1.369 . S
C242 C246 1.531 . S
C243 C242 1.369 . S
C243 C244 1.410 1_545 S
C243 C251 1.503 . S
C244 C243 1.410 1_565 S
C244 C245 1.392 . S
C244 C247 1.511 . S
C245 C241 1.376 1_565 S
C245 C244 1.392 . S
C245 H257 0.929 . S
C246 C242 1.531 . S
C246 H258 0.960 . S
C246 H259 0.962 . S
C246 H260 0.960 . S
C247 C244 1.511 . S
C247 H261 0.961 . S
C247 H262 0.961 . S
C247 H263 0.961 . S
C248 C249 1.370 . S
C248 C250 1.363 . S
C248 H264 0.931 . S
C249 C248 1.370 . S
C249 C253 1.408 . S
C250 C248 1.363 . S
C250 C251 1.370 . S
C250 C254 1.524 . S
C251 C243 1.503 . S
C251 C250 1.370 . S
C251 C252 1.403 . S
C252 C251 1.403 . S
C252 C253 1.404 . S
C252 C255 1.539 . S
C253 C249 1.408 . S
C253 C252 1.404 . S
C253 H265 0.930 . S
C254 C250 1.524 . S
C254 H266 0.956 . S
C254 H267 0.961 . S
C254 H268 0.961 . S
C255 C252 1.539 . S
C255 H269 0.958 . S
C255 H270 0.961 . S
C255 H271 0.960 . S
H256 C240 0.931 . S
H257 C245 0.929 . S
H258 C246 0.960 . S
H259 C246 0.962 . S
H260 C246 0.960 . S
H261 C247 0.961 . S
H262 C247 0.961 . S
H263 C247 0.961 . S
H264 C248 0.931 . S
H265 C253 0.930 . S
H266 C254 0.956 . S
H267 C254 0.961 . S
H268 C254 0.961 . S
H269 C255 0.958 . S
H270 C255 0.961 . S
H271 C255 0.960 . S
C272 C273 1.391 . S
C272 C274 1.394 . S
C272 H288 0.931 . S
C273 C272 1.391 . S
C273 C277 1.376 . S
C274 C272 1.394 . S
C274 C275 1.369 . S
C274 C278 1.531 . S
C275 C274 1.369 . S
C275 C276 1.410 . S
C275 C283 1.503 . S
C276 C275 1.410 . S
C276 C277 1.392 . S
C276 C279 1.511 . S
C277 C273 1.376 . S
C277 C276 1.392 . S
C277 H289 0.929 . S
C278 C274 1.531 . S
C278 H290 0.960 . S
C278 H291 0.962 . S
C278 H292 0.960 . S
C279 C276 1.511 . S
C279 H293 0.961 . S
C279 H294 0.961 . S
C279 H295 0.961 . S
C280 C281 1.370 1_655 S
C280 C282 1.363 1_655 S
C280 H296 0.931 . S
C281 C280 1.370 1_455 S
C281 C285 1.408 . S
C282 C280 1.363 1_455 S
C282 C283 1.370 . S
C282 C286 1.524 1_455 S
C283 C275 1.503 . S
C283 C282 1.370 . S
C283 C284 1.403 . S
C284 C283 1.403 . S
C284 C285 1.404 . S
C284 C287 1.539 . S
C285 C281 1.408 . S
C285 C284 1.404 . S
C285 H297 0.930 . S
C286 C282 1.524 1_655 S
C286 H298 0.956 . S
C286 H299 0.961 . S
C286 H300 0.961 . S
C287 C284 1.539 . S
C287 H301 0.958 . S
C287 H302 0.961 . S
C287 H303 0.960 . S
H288 C272 0.931 . S
H289 C277 0.929 . S
H290 C278 0.960 . S
H291 C278 0.962 . S
H292 C278 0.960 . S
H293 C279 0.961 . S
H294 C279 0.961 . S
H295 C279 0.961 . S
H296 C280 0.931 . S
H297 C285 0.930 . S
H298 C286 0.956 . S
H299 C286 0.961 . S
H300 C286 0.961 . S
H301 C287 0.958 . S
H302 C287 0.961 . S
H303 C287 0.960 . S
C304 C305 1.402 . S
C304 C306 1.398 . S
C304 H320 0.916 1_545 S
C305 C304 1.402 . S
C305 C309 1.376 . S
C306 C304 1.398 . S
C306 C307 1.369 . S
C306 C310 1.531 1_545 S
C307 C306 1.369 . S
C307 C308 1.410 . S
C307 C315 1.503 . S
C308 C307 1.410 . S
C308 C309 1.392 . S
C308 C311 1.511 . S
C309 C305 1.376 . S
C309 C308 1.392 . S
C309 H321 0.929 . S
C310 C306 1.531 1_565 S
C310 H322 0.960 1_565 S
C310 H323 0.962 . S
C310 H324 0.960 . S
C311 C308 1.511 . S
C311 H325 0.961 . S
C311 H326 0.961 . S
C311 H327 0.961 . S
C312 C313 1.370 . S
C312 C314 1.363 . S
C312 H328 0.931 . S
C313 C312 1.370 . S
C313 C317 1.408 . S
C314 C312 1.363 . S
C314 C315 1.370 . S
C314 C318 1.524 1_545 S
C315 C307 1.503 . S
C315 C314 1.370 . S
C315 C316 1.403 . S
C316 C315 1.403 . S
C316 C317 1.404 . S
C316 C319 1.539 . S
C317 C313 1.408 . S
C317 C316 1.404 . S
C317 H329 0.930 . S
C318 C314 1.524 1_565 S
C318 H330 0.956 . S
C318 H331 0.961 1_565 S
C318 H332 0.961 . S
C319 C316 1.539 . S
C319 H333 0.958 . S
C319 H334 0.961 . S
C319 H335 0.960 . S
H320 C304 0.916 1_565 S
H321 C309 0.929 . S
H322 C310 0.960 1_545 S
H323 C310 0.962 . S
H324 C310 0.960 . S
H325 C311 0.961 . S
H326 C311 0.961 . S
H327 C311 0.961 . S
H328 C312 0.931 . S
H329 C317 0.930 . S
H330 C318 0.956 . S
H331 C318 0.961 1_545 S
H332 C318 0.961 . S
H333 C319 0.958 . S
H334 C319 0.961 . S
H335 C319 0.960 . S
C336 C337 1.391 . S
C336 C338 1.394 . S
C336 H352 0.931 . S
C337 C336 1.391 . S
C337 C341 1.376 . S
C338 C336 1.394 . S
C338 C339 1.369 . S
C338 C342 1.531 . S
C339 C338 1.369 . S
C339 C340 1.410 . S
C339 C347 1.503 . S
C340 C339 1.410 . S
C340 C341 1.392 . S
C340 C343 1.511 1_455 S
C341 C337 1.376 . S
C341 C340 1.392 . S
C341 H353 0.929 1_455 S
C342 C338 1.531 . S
C342 H354 0.960 . S
C342 H355 0.962 . S
C342 H356 0.960 . S
C343 C340 1.511 1_655 S
C343 H357 0.961 . S
C343 H358 0.961 1_655 S
C343 H359 0.961 . S
C344 C345 1.370 . S
C344 C346 1.363 . S
C344 H360 0.931 . S
C345 C344 1.370 . S
C345 C349 1.408 . S
C346 C344 1.363 . S
C346 C347 1.370 . S
C346 C350 1.524 . S
C347 C339 1.503 . S
C347 C346 1.370 . S
C347 C348 1.403 . S
C348 C347 1.403 . S
C348 C349 1.404 . S
C348 C351 1.539 1_455 S
C349 C345 1.408 . S
C349 C348 1.404 . S
C349 H361 0.919 1_455 S
C350 C346 1.524 . S
C350 H362 0.956 . S
C350 H363 0.961 . S
C350 H364 0.961 . S
C351 C348 1.539 1_655 S
C351 H365 0.958 . S
C351 H366 0.961 . S
C351 H367 0.960 . S
H352 C336 0.931 . S
H353 C341 0.929 1_655 S
H354 C342 0.960 . S
H355 C342 0.962 . S
H356 C342 0.960 . S
H357 C343 0.961 . S
H358 C343 0.961 1_455 S
H359 C343 0.961 . S
H360 C344 0.931 . S
H361 C349 0.919 1_655 S
H362 C350 0.956 . S
H363 C350 0.961 . S
H364 C350 0.961 . S
H365 C351 0.958 . S
H366 C351 0.961 . S
H367 C351 0.960 . S
C368 C369 1.391 . S
C368 C370 1.394 . S
C368 H384 0.931 . S
C369 C368 1.391 . S
C369 C373 1.376 . S
C370 C368 1.394 . S
C370 C371 1.369 . S
C370 C374 1.531 . S
C371 C370 1.369 . S
C371 C372 1.410 . S
C371 C379 1.503 . S
C372 C371 1.410 . S
C372 C373 1.392 . S
C372 C375 1.511 . S
C373 C369 1.376 . S
C373 C372 1.392 . S
C373 H385 0.929 . S
C374 C370 1.531 . S
C374 H386 0.960 . S
C374 H387 0.962 . S
C374 H388 0.960 . S
C375 C372 1.511 . S
C375 H389 0.961 . S
C375 H390 0.961 . S
C375 H391 0.961 . S
C376 C377 1.370 . S
C376 C378 1.363 . S
C376 H392 0.931 . S
C377 C376 1.370 . S
C377 C381 1.408 . S
C378 C376 1.363 . S
C378 C379 1.370 . S
C378 C382 1.524 . S
C379 C371 1.503 . S
C379 C378 1.370 . S
C379 C380 1.403 . S
C380 C379 1.403 . S
C380 C381 1.404 . S
C380 C383 1.539 . S
C381 C377 1.408 . S
C381 C380 1.404 . S
C381 H393 0.930 . S
C382 C378 1.524 . S
C382 H394 0.956 . S
C382 H395 0.961 . S
C382 H396 0.961 . S
C383 C380 1.539 . S
C383 H397 0.958 . S
C383 H398 0.961 . S
C383 H399 0.960 . S
H384 C368 0.931 . S
H385 C373 0.929 . S
H386 C374 0.960 . S
H387 C374 0.962 . S
H388 C374 0.960 . S
H389 C375 0.961 . S
H390 C375 0.961 . S
H391 C375 0.961 . S
H392 C376 0.931 . S
H393 C381 0.930 . S
H394 C382 0.956 . S
H395 C382 0.961 . S
H396 C382 0.961 . S
H397 C383 0.958 . S
H398 C383 0.961 . S
H399 C383 0.960 . S
C400 C401 1.391 . S
C400 C402 1.394 . S
C400 H416 0.931 . S
C401 C400 1.391 . S
C401 C405 1.376 . S
C402 C400 1.394 . S
C402 C403 1.369 . S
C402 C406 1.531 . S
C403 C402 1.369 . S
C403 C404 1.410 . S
C403 C411 1.503 . S
C404 C403 1.410 . S
C404 C405 1.392 . S
C404 C407 1.511 . S
C405 C401 1.376 . S
C405 C404 1.392 . S
C405 H417 0.929 . S
C406 C402 1.531 . S
C406 H418 0.960 . S
C406 H419 0.962 . S
C406 H420 0.960 . S
C407 C404 1.511 . S
C407 H421 0.961 . S
C407 H422 0.961 . S
C407 H423 0.961 . S
C408 C409 1.370 . S
C408 C410 1.363 . S
C408 H424 0.931 . S
C409 C408 1.370 . S
C409 C413 1.408 . S
C410 C408 1.363 . S
C410 C411 1.370 . S
C410 C414 1.524 . S
C411 C403 1.503 . S
C411 C410 1.370 . S
C411 C412 1.403 . S
C412 C411 1.403 . S
C412 C413 1.404 . S
C412 C415 1.539 . S
C413 C409 1.408 . S
C413 C412 1.404 . S
C413 H425 0.930 . S
C414 C410 1.524 . S
C414 H426 0.956 . S
C414 H427 0.961 . S
C414 H428 0.961 . S
C415 C412 1.539 . S
C415 H429 0.958 . S
C415 H430 0.961 . S
C415 H431 0.960 . S
H416 C400 0.931 . S
H417 C405 0.929 . S
H418 C406 0.960 . S
H419 C406 0.962 . S
H420 C406 0.960 . S
H421 C407 0.961 . S
H422 C407 0.961 . S
H423 C407 0.961 . S
H424 C408 0.931 . S
H425 C413 0.930 . S
H426 C414 0.956 . S
H427 C414 0.961 . S
H428 C414 0.961 . S
H429 C415 0.958 . S
H430 C415 0.961 . S
H431 C415 0.960 . S
C432 C433 1.391 . S
C432 C434 1.394 . S
C432 H448 0.931 . S
C433 C432 1.391 . S
C433 C437 1.376 . S
C434 C432 1.394 . S
C434 C435 1.369 . S
C434 C438 1.531 . S
C435 C434 1.369 . S
C435 C436 1.410 . S
C435 C443 1.503 . S
C436 C435 1.410 . S
C436 C437 1.392 . S
C436 C439 1.511 . S
C437 C433 1.376 . S
C437 C436 1.392 . S
C437 H449 0.929 . S
C438 C434 1.531 . S
C438 H450 0.960 . S
C438 H451 0.962 . S
C438 H452 0.960 . S
C439 C436 1.511 . S
C439 H453 0.961 . S
C439 H454 0.961 . S
C439 H455 0.961 . S
C440 C441 1.370 . S
C440 C442 1.363 . S
C440 H456 0.931 . S
C441 C440 1.370 . S
C441 C445 1.408 . S
C442 C440 1.363 . S
C442 C443 1.370 . S
C442 C446 1.524 . S
C443 C435 1.503 . S
C443 C442 1.370 . S
C443 C444 1.403 . S
C444 C443 1.403 . S
C444 C445 1.404 . S
C444 C447 1.539 . S
C445 C441 1.408 . S
C445 C444 1.404 . S
C445 H457 0.930 . S
C446 C442 1.524 . S
C446 H458 0.956 . S
C446 H459 0.961 . S
C446 H460 0.961 . S
C447 C444 1.539 . S
C447 H461 0.958 . S
C447 H462 0.961 . S
C447 H463 0.960 . S
H448 C432 0.931 . S
H449 C437 0.929 . S
H450 C438 0.960 . S
H451 C438 0.962 . S
H452 C438 0.960 . S
H453 C439 0.961 . S
H454 C439 0.961 . S
H455 C439 0.961 . S
H456 C440 0.931 . S
H457 C445 0.930 . S
H458 C446 0.956 . S
H459 C446 0.961 . S
H460 C446 0.961 . S
H461 C447 0.958 . S
H462 C447 0.961 . S
H463 C447 0.960 . S
C464 C465 1.391 . S
C464 C466 1.394 . S
C464 H480 0.931 . S
C465 C464 1.391 . S
C465 C469 1.376 . S
C466 C464 1.394 . S
C466 C467 1.369 . S
C466 C470 1.531 . S
C467 C466 1.369 . S
C467 C468 1.410 . S
C467 C475 1.503 . S
C468 C467 1.410 . S
C468 C469 1.392 . S
C468 C471 1.511 . S
C469 C465 1.376 . S
C469 C468 1.392 . S
C469 H481 0.929 . S
C470 C466 1.531 . S
C470 H482 0.960 . S
C470 H483 0.962 . S
C470 H484 0.960 . S
C471 C468 1.511 . S
C471 H485 0.961 . S
C471 H486 0.961 . S
C471 H487 0.961 . S
C472 C473 1.370 . S
C472 C474 1.363 . S
C472 H488 0.931 . S
C473 C472 1.370 . S
C473 C477 1.408 . S
C474 C472 1.363 . S
C474 C475 1.370 . S
C474 C478 1.524 . S
C475 C467 1.503 . S
C475 C474 1.370 . S
C475 C476 1.403 . S
C476 C475 1.403 . S
C476 C477 1.404 . S
C476 C479 1.539 . S
C477 C473 1.408 . S
C477 C476 1.404 . S
C477 H489 0.930 . S
C478 C474 1.524 . S
C478 H490 0.956 . S
C478 H491 0.961 . S
C478 H492 0.961 . S
C479 C476 1.539 . S
C479 H493 0.958 . S
C479 H494 0.961 . S
C479 H495 0.960 . S
H480 C464 0.931 . S
H481 C469 0.929 . S
H482 C470 0.960 . S
H483 C470 0.962 . S
H484 C470 0.960 . S
H485 C471 0.961 . S
H486 C471 0.961 . S
H487 C471 0.961 . S
H488 C472 0.931 . S
H489 C477 0.930 . S
H490 C478 0.956 . S
H491 C478 0.961 . S
H492 C478 0.961 . S
H493 C479 0.958 . S
H494 C479 0.961 . S
H495 C479 0.960 . S
C496 C497 1.391 . S
C496 C498 1.394 . S
C496 H512 0.931 . S
C497 C496 1.391 . S
C497 C501 1.376 . S
C498 C496 1.394 . S
C498 C499 1.369 . S
C498 C502 1.531 . S
C499 C498 1.369 . S
C499 C500 1.410 . S
C499 C507 1.503 . S
C500 C499 1.410 . S
C500 C501 1.392 . S
C500 C503 1.511 . S
C501 C497 1.376 . S
C501 C500 1.392 . S
C501 H513 0.929 . S
C502 C498 1.531 . S
C502 H514 0.960 . S
C502 H515 0.962 . S
C502 H516 0.960 . S
C503 C500 1.511 . S
C503 H517 0.961 . S
C503 H518 0.961 . S
C503 H519 0.961 . S
C504 C505 1.370 . S
C504 C506 1.363 . S
C504 H520 0.931 . S
C505 C504 1.370 . S
C505 C509 1.408 . S
C506 C504 1.363 . S
C506 C507 1.370 . S
C506 C510 1.524 . S
C507 C499 1.503 . S
C507 C506 1.370 . S
C507 C508 1.403 . S
C508 C507 1.403 . S
C508 C509 1.404 . S
C508 C511 1.539 . S
C509 C505 1.408 . S
C509 C508 1.404 . S
C509 H521 0.930 . S
C510 C506 1.524 . S
C510 H522 0.956 . S
C510 H523 0.961 . S
C510 H524 0.961 . S
C511 C508 1.539 . S
C511 H525 0.958 . S
C511 H526 0.961 . S
C511 H527 0.960 . S
H512 C496 0.931 . S
H513 C501 0.929 . S
H514 C502 0.960 . S
H515 C502 0.962 . S
H516 C502 0.960 . S
H517 C503 0.961 . S
H518 C503 0.961 . S
H519 C503 0.961 . S
H520 C504 0.931 . S
H521 C509 0.930 . S
H522 C510 0.956 . S
H523 C510 0.961 . S
H524 C510 0.961 . S
H525 C511 0.958 . S
H526 C511 0.961 . S
H527 C511 0.960 . S
C528 C529 1.391 . S
C528 C530 1.394 . S
C528 H544 0.931 . S
C529 C528 1.391 . S
C529 C533 1.376 . S
C530 C528 1.394 . S
C530 C531 1.369 . S
C530 C534 1.531 . S
C531 C530 1.369 . S
C531 C532 1.410 . S
C531 C539 1.503 . S
C532 C531 1.410 . S
C532 C533 1.392 . S
C532 C535 1.511 . S
C533 C529 1.376 . S
C533 C532 1.392 . S
C533 H545 0.929 . S
C534 C530 1.531 . S
C534 H546 0.960 . S
C534 H547 0.962 . S
C534 H548 0.960 . S
C535 C532 1.511 . S
C535 H549 0.961 . S
C535 H550 0.961 . S
C535 H551 0.961 . S
C536 C537 1.370 . S
C536 C538 1.363 . S
C536 H552 0.931 . S
C537 C536 1.370 . S
C537 C541 1.408 . S
C538 C536 1.363 . S
C538 C539 1.370 . S
C538 C542 1.524 . S
C539 C531 1.503 . S
C539 C538 1.370 . S
C539 C540 1.403 . S
C540 C539 1.403 . S
C540 C541 1.404 . S
C540 C543 1.539 . S
C541 C537 1.408 . S
C541 C540 1.404 . S
C541 H553 0.930 . S
C542 C538 1.524 . S
C542 H554 0.956 . S
C542 H555 0.961 . S
C542 H556 0.961 . S
C543 C540 1.539 . S
C543 H557 0.958 . S
C543 H558 0.961 . S
C543 H559 0.960 . S
H544 C528 0.931 . S
H545 C533 0.929 . S
H546 C534 0.960 . S
H547 C534 0.962 . S
H548 C534 0.960 . S
H549 C535 0.961 . S
H550 C535 0.961 . S
H551 C535 0.961 . S
H552 C536 0.931 . S
H553 C541 0.930 . S
H554 C542 0.956 . S
H555 C542 0.961 . S
H556 C542 0.961 . S
H557 C543 0.958 . S
H558 C543 0.961 . S
H559 C543 0.960 . S
C560 C561 1.391 . S
C560 C562 1.394 . S
C560 H576 0.931 . S
C561 C560 1.391 . S
C561 C565 1.376 . S
C562 C560 1.394 . S
C562 C563 1.369 . S
C562 C566 1.531 . S
C563 C562 1.369 . S
C563 C564 1.410 . S
C563 C571 1.503 . S
C564 C563 1.410 . S
C564 C565 1.392 . S
C564 C567 1.511 . S
C565 C561 1.376 . S
C565 C564 1.392 . S
C565 H577 0.929 . S
C566 C562 1.531 . S
C566 H578 0.960 . S
C566 H579 0.962 . S
C566 H580 0.960 . S
C567 C564 1.511 . S
C567 H581 0.961 . S
C567 H582 0.961 . S
C567 H583 0.961 . S
C568 C569 1.370 . S
C568 C570 1.363 . S
C568 H584 0.931 . S
C569 C568 1.370 . S
C569 C573 1.408 . S
C570 C568 1.363 . S
C570 C571 1.370 . S
C570 C574 1.524 . S
C571 C563 1.503 . S
C571 C570 1.370 . S
C571 C572 1.403 . S
C572 C571 1.403 . S
C572 C573 1.404 . S
C572 C575 1.539 . S
C573 C569 1.408 . S
C573 C572 1.404 . S
C573 H585 0.930 . S
C574 C570 1.524 . S
C574 H586 0.956 . S
C574 H587 0.961 . S
C574 H588 0.961 . S
C575 C572 1.539 . S
C575 H589 0.958 . S
C575 H590 0.961 . S
C575 H591 0.960 . S
H576 C560 0.931 . S
H577 C565 0.929 . S
H578 C566 0.960 . S
H579 C566 0.962 . S
H580 C566 0.960 . S
H581 C567 0.961 . S
H582 C567 0.961 . S
H583 C567 0.961 . S
H584 C568 0.931 . S
H585 C573 0.930 . S
H586 C574 0.956 . S
H587 C574 0.961 . S
H588 C574 0.961 . S
H589 C575 0.958 . S
H590 C575 0.961 . S
H591 C575 0.960 . S
C592 C593 1.391 . S
C592 C594 1.394 . S
C592 H608 0.931 . S
C593 C592 1.391 . S
C593 C597 1.376 . S
C594 C592 1.394 . S
C594 C595 1.369 . S
C594 C598 1.531 . S
C595 C594 1.369 . S
C595 C596 1.410 . S
C595 C603 1.503 . S
C596 C595 1.410 . S
C596 C597 1.392 . S
C596 C599 1.511 . S
C597 C593 1.376 . S
C597 C596 1.392 . S
C597 H609 0.929 . S
C598 C594 1.531 . S
C598 H610 0.960 . S
C598 H611 0.962 . S
C598 H612 0.960 . S
C599 C596 1.511 . S
C599 H613 0.961 . S
C599 H614 0.961 . S
C599 H615 0.961 . S
C600 C601 1.370 . S
C600 C602 1.363 . S
C600 H616 0.931 . S
C601 C600 1.370 . S
C601 C605 1.408 . S
C602 C600 1.363 . S
C602 C603 1.370 . S
C602 C606 1.524 . S
C603 C595 1.503 . S
C603 C602 1.370 . S
C603 C604 1.403 . S
C604 C603 1.403 . S
C604 C605 1.404 . S
C604 C607 1.539 . S
C605 C601 1.408 . S
C605 C604 1.404 . S
C605 H617 0.930 . S
C606 C602 1.524 . S
C606 H618 0.956 . S
C606 H619 0.961 . S
C606 H620 0.961 . S
C607 C604 1.539 . S
C607 H621 0.958 . S
C607 H622 0.961 . S
C607 H623 0.960 . S
H608 C592 0.931 . S
H609 C597 0.929 . S
H610 C598 0.960 . S
H611 C598 0.962 . S
H612 C598 0.960 . S
H613 C599 0.961 . S
H614 C599 0.961 . S
H615 C599 0.961 . S
H616 C600 0.931 . S
H617 C605 0.930 . S
H618 C606 0.956 . S
H619 C606 0.961 . S
H620 C606 0.961 . S
H621 C607 0.958 . S
H622 C607 0.961 . S
H623 C607 0.960 . S
C113 C8 1.708 . S
C121 C64 1.707 . S
C145 C22 1.726 . S
C153 C78 1.713 . S
C177 C92 1.710 . S
C185 C36 1.721 . S
C209 C106 1.727 . S
C217 C50 1.716 . S
C241 C6 1.282 . S
C249 C34 1.283 . S
C273 C20 1.317 . S
C281 C48 1.266 . S
C305 C90 1.248 . S
C313 C62 1.294 . S
C337 C76 1.318 . S
C345 C104 1.267 . S
C369 C79 2.043 . S
C377 C9 2.063 . S
C401 C23 2.067 . S
C409 C93 2.060 . S
C433 C107 2.046 . S
C441 C37 2.067 . S
C465 C51 2.057 . S
C473 C65 2.072 . S
C497 C91 0.959 . S
C505 C49 0.873 . S
C529 C7 0.960 . S
C537 C105 0.873 . S
C561 C21 0.970 . S
C569 C63 0.873 . S
C593 C77 0.981 . S
C601 C35 0.879 . S
