# Generated by pormake.
# Topology ecf, (8)-cn, num edge types: 1
# Building blocks:
#     Node 0, Type 0, BuildingBlock: TAGTUT_clean_sbu_1, # of connection points: 8
#     Node 1, Type 0, BuildingBlock: TAGTUT_clean_sbu_1, # of connection points: 8
#     Node 2, Type 0, BuildingBlock: TAGTUT_clean_sbu_1, # of connection points: 8
#     Node 3, Type 0, BuildingBlock: TAGTUT_clean_sbu_1, # of connection points: 8
#     Node 4, Type 0, BuildingBlock: TAGTUT_clean_sbu_1, # of connection points: 8
#     Node 5, Type 0, BuildingBlock: TAGTUT_clean_sbu_1, # of connection points: 8
#     Edge 6, Type (0, 0), BuildingBlock: KIFKEQ_clean_linker_1, # of connection points: 2
#     Edge 7, Type (0, 0), BuildingBlock: KIFKEQ_clean_linker_1, # of connection points: 2
#     Edge 8, Type (0, 0), BuildingBlock: KIFKEQ_clean_linker_1, # of connection points: 2
#     Edge 9, Type (0, 0), BuildingBlock: KIFKEQ_clean_linker_1, # of connection points: 2
#     Edge 10, Type (0, 0), BuildingBlock: KIFKEQ_clean_linker_1, # of connection points: 2
#     Edge 11, Type (0, 0), BuildingBlock: KIFKEQ_clean_linker_1, # of connection points: 2
#     Edge 12, Type (0, 0), BuildingBlock: KIFKEQ_clean_linker_1, # of connection points: 2
#     Edge 13, Type (0, 0), BuildingBlock: KIFKEQ_clean_linker_1, # of connection points: 2
#     Edge 14, Type (0, 0), BuildingBlock: KIFKEQ_clean_linker_1, # of connection points: 2
#     Edge 15, Type (0, 0), BuildingBlock: KIFKEQ_clean_linker_1, # of connection points: 2
#     Edge 16, Type (0, 0), BuildingBlock: KIFKEQ_clean_linker_1, # of connection points: 2
#     Edge 17, Type (0, 0), BuildingBlock: KIFKEQ_clean_linker_1, # of connection points: 2
#     Edge 18, Type (0, 0), BuildingBlock: KIFKEQ_clean_linker_1, # of connection points: 2
#     Edge 19, Type (0, 0), BuildingBlock: KIFKEQ_clean_linker_1, # of connection points: 2
#     Edge 20, Type (0, 0), BuildingBlock: KIFKEQ_clean_linker_1, # of connection points: 2
#     Edge 21, Type (0, 0), BuildingBlock: KIFKEQ_clean_linker_1, # of connection points: 2
#     Edge 22, Type (0, 0), BuildingBlock: KIFKEQ_clean_linker_1, # of connection points: 2
#     Edge 23, Type (0, 0), BuildingBlock: KIFKEQ_clean_linker_1, # of connection points: 2
#     Edge 24, Type (0, 0), BuildingBlock: KIFKEQ_clean_linker_1, # of connection points: 2
#     Edge 25, Type (0, 0), BuildingBlock: KIFKEQ_clean_linker_1, # of connection points: 2
#     Edge 26, Type (0, 0), BuildingBlock: KIFKEQ_clean_linker_1, # of connection points: 2
#     Edge 27, Type (0, 0), BuildingBlock: KIFKEQ_clean_linker_1, # of connection points: 2
#     Edge 28, Type (0, 0), BuildingBlock: KIFKEQ_clean_linker_1, # of connection points: 2
#     Edge 29, Type (0, 0), BuildingBlock: KIFKEQ_clean_linker_1, # of connection points: 2
# Relax obj value: 0.207
# Max RMSD: 0.207
# Mean RMSD: 0.189
data_MOF--net-ecf--node1-TAGTUT_clean_sbu_1--edge1-KIFKEQ_clean_linker_1
_symmetry_space_group_name_H-M    P1
_symmetry_Int_Tables_number       1
_symmetry_cell_setting            triclinic
loop_
_symmetry_equiv_pos_as_xyz
'x, y, z'
_cell_length_a     34.252736
_cell_length_b     34.734215
_cell_length_c     27.886069
_cell_angle_alpha  96.80248
_cell_angle_beta   91.173332
_cell_angle_gamma 119.83396
loop_
_atom_site_label
_atom_site_type_symbol
_atom_site_fract_x
_atom_site_fract_y
_atom_site_fract_z
_atom_type_partial_charge
C0 C 0.04121 0.19231 0.17345 0.0
C1 C 0.12462 0.32098 0.13372 0.0
C2 C 0.26744 0.30963 0.17324 0.0
Mg3 Mg 0.09877 0.28806 0.23052 0.0
O4 O 0.14077 0.26881 0.23264 0.0
Mg5 Mg 0.15459 0.24892 0.16762 0.0
Mg6 Mg 0.20197 0.31841 0.25842 0.0
O7 O 0.2625 0.3691 0.28281 0.0
Mg8 Mg 0.3159 0.36718 0.2775 0.0
Mg9 Mg 0.24975 0.39029 0.34735 0.0
C10 C 0.1378 0.32618 0.34171 0.0
C11 C 0.19881 0.41095 0.26442 0.0
O12 O 0.07705 0.19348 0.15822 0.0
O13 O 0.04232 0.22486 0.20146 0.0
O14 O 0.13805 0.29268 0.12558 0.0
O15 O 0.11182 0.3282 0.17457 0.0
O16 O 0.10711 0.31468 0.30693 0.0
O17 O 0.17549 0.32711 0.33402 0.0
C18 C 0.19687 0.22429 0.25613 0.0
O19 O 0.2138 0.26382 0.27989 0.0
O20 O 0.17371 0.21175 0.21482 0.0
O21 O 0.32176 0.45392 0.34939 0.0
O22 O 0.36147 0.43793 0.29535 0.0
O23 O 0.27978 0.35409 0.38661 0.0
C24 C 0.35705 0.46578 0.32595 0.0
O25 O 0.32014 0.33543 0.33691 0.0
O26 O 0.30301 0.33179 0.20338 0.0
C27 C 0.30436 0.33623 0.37784 0.0
O28 O 0.22929 0.30603 0.18447 0.0
O29 O 0.18769 0.37337 0.23829 0.0
O30 O 0.22135 0.42329 0.30579 0.0
C31 C 0.88181 0.3424 0.68118 0.0
C32 C 0.95197 0.26998 0.62934 0.0
C33 C 0.79387 0.12617 0.68025 0.0
Mg34 Mg 0.9398 0.30919 0.72949 0.0
O35 O 0.8829 0.25895 0.72994 0.0
Mg36 Mg 0.84442 0.23091 0.66693 0.0
Mg37 Mg 0.87262 0.20447 0.75741 0.0
O38 O 0.86082 0.14953 0.78495 0.0
Mg39 Mg 0.80044 0.10772 0.78906 0.0
Mg40 Mg 0.90008 0.17635 0.84738 0.0
C41 C 0.95101 0.28497 0.83495 0.0
C42 C 0.96085 0.19373 0.75498 0.0
O43 O 0.85511 0.30194 0.66027 0.0
O44 O 0.9161 0.35271 0.71039 0.0
O45 O 0.9085 0.24639 0.62201 0.0
O46 O 0.97138 0.2945 0.66995 0.0
O47 O 0.96445 0.31162 0.80291 0.0
O48 O 0.91429 0.24649 0.82797 0.0
C49 C 0.77823 0.2053 0.75588 0.0
O50 O 0.80687 0.20033 0.78088 0.0
O51 O 0.78513 0.21633 0.71318 0.0
O52 O 0.88035 0.102 0.85591 0.0
O53 O 0.81253 0.05828 0.81271 0.0
O54 O 0.84138 0.16427 0.89554 0.0
C55 C 0.84567 0.06319 0.84007 0.0
O56 O 0.77505 0.12761 0.85094 0.0
O57 O 0.77654 0.10239 0.7143 0.0
C58 C 0.79814 0.14495 0.89208 0.0
O59 O 0.83242 0.16263 0.68675 0.0
O60 O 0.93668 0.20583 0.73244 0.0
O61 O 0.95374 0.1831 0.79768 0.0
C62 C 0.51961 0.88274 0.19092 0.0
C63 C 0.65843 0.95204 0.15137 0.0
C64 C 0.65445 0.79811 0.19071 0.0
Mg65 Mg 0.61443 0.93919 0.2476 0.0
O66 O 0.60906 0.88293 0.24454 0.0
Mg67 Mg 0.59394 0.84533 0.17946 0.0
Mg68 Mg 0.65859 0.87484 0.27122 0.0
O69 O 0.70679 0.8653 0.29894 0.0
Mg70 Mg 0.69024 0.80566 0.30075 0.0
Mg71 Mg 0.72442 0.9052 0.36304 0.0
C72 C 0.66114 0.95155 0.35303 0.0
C73 C 0.75631 0.96507 0.2743 0.0
O74 O 0.53193 0.85579 0.17043 0.0
O75 O 0.54563 0.91644 0.22296 0.0
O76 O 0.63815 0.90903 0.14029 0.0
O77 O 0.65621 0.97062 0.19264 0.0
O78 O 0.64329 0.96461 0.32246 0.0
O79 O 0.66387 0.91589 0.34316 0.0
C80 C 0.56401 0.77978 0.26337 0.0
O81 O 0.601 0.80826 0.28921 0.0
O82 O 0.55362 0.78629 0.22176 0.0
O83 O 0.78245 0.8885 0.37199 0.0
O84 O 0.75571 0.82034 0.32693 0.0
O85 O 0.68408 0.84776 0.40839 0.0
C86 C 0.78629 0.85436 0.35556 0.0
O87 O 0.65224 0.78131 0.36148 0.0
O88 O 0.6651 0.78124 0.22395 0.0
C89 C 0.66049 0.80486 0.40306 0.0
O90 O 0.65453 0.83528 0.19955 0.0
O91 O 0.71758 0.93956 0.25026 0.0
O92 O 0.76497 0.9588 0.31664 0.0
C93 C 0.929 0.75361 0.67028 0.0
C94 C 0.829 0.62462 0.61652 0.0
C95 C 0.70614 0.65979 0.67362 0.0
Mg96 Mg 0.87199 0.66963 0.71854 0.0
O97 O 0.84067 0.70085 0.72835 0.0
Mg98 Mg 0.81766 0.71128 0.66702 0.0
Mg99 Mg 0.78253 0.66129 0.75283 0.0
O100 O 0.7244 0.61823 0.77442 0.0
Mg101 Mg 0.67227 0.62289 0.77285 0.0
Mg102 Mg 0.74649 0.60564 0.83424 0.0
C103 C 0.85549 0.65883 0.82926 0.0
C104 C 0.77721 0.56362 0.74366 0.0
O105 O 0.89412 0.75654 0.65838 0.0
O106 O 0.92714 0.72297 0.69305 0.0
O107 O 0.81958 0.65575 0.61549 0.0
O108 O 0.84408 0.61932 0.65573 0.0
O109 O 0.87797 0.65841 0.79302 0.0
O110 O 0.81962 0.6619 0.82408 0.0
C111 C 0.80234 0.76343 0.76353 0.0
O112 O 0.78442 0.72752 0.7835 0.0
O113 O 0.81614 0.76414 0.72109 0.0
O114 O 0.67359 0.54734 0.83327 0.0
O115 O 0.6256 0.55598 0.78529 0.0
O116 O 0.72958 0.65457 0.88027 0.0
C117 C 0.63432 0.53304 0.8118 0.0
O118 O 0.68412 0.66901 0.83634 0.0
O119 O 0.67443 0.64441 0.70202 0.0
C120 C 0.70722 0.67476 0.87573 0.0
O121 O 0.74481 0.66328 0.68393 0.0
O122 O 0.78543 0.59775 0.72319 0.0
O123 O 0.76237 0.559 0.78547 0.0
C124 C 0.15101 0.9302 0.18755 0.0
C125 C 0.18562 0.83699 0.1212 0.0
C126 C 0.02669 0.70994 0.15342 0.0
Mg127 Mg 0.18558 0.87187 0.22562 0.0
O128 O 0.12274 0.83798 0.2274 0.0
Mg129 Mg 0.08649 0.81924 0.16279 0.0
Mg130 Mg 0.1055 0.77874 0.24439 0.0
O131 O 0.09091 0.71972 0.25884 0.0
Mg132 Mg 0.0336 0.66823 0.24642 0.0
Mg133 Mg 0.12782 0.73647 0.32212 0.0
C134 C 0.1833 0.84751 0.33336 0.0
C135 C 0.19841 0.77496 0.24098 0.0
O136 O 0.11398 0.89541 0.16819 0.0
O137 O 0.1829 0.92843 0.2099 0.0
O138 O 0.14427 0.8268 0.1172 0.0
O139 O 0.20852 0.85077 0.16241 0.0
O140 O 0.20442 0.8711 0.30039 0.0
O141 O 0.14392 0.81147 0.32307 0.0
C142 C 0.02092 0.79538 0.25059 0.0
O143 O 0.04179 0.77826 0.27032 0.0
O144 O 0.03167 0.81134 0.21071 0.0
O145 O 0.11464 0.66368 0.30791 0.0
O146 O 0.05534 0.62074 0.25181 0.0
O147 O 0.0619 0.71174 0.36237 0.0
C148 C 0.08851 0.62668 0.27988 0.0
O149 O 0.00063 0.67202 0.30866 0.0
O150 O 0.00973 0.6767 0.17738 0.0
C151 C 0.0189 0.68941 0.35175 0.0
O152 O 0.06446 0.74599 0.16875 0.0
O153 O 0.17085 0.78291 0.21846 0.0
O154 O 0.18972 0.75875 0.28074 0.0
C155 C 0.20368 0.14212 0.6748 0.0
C156 C 0.33831 0.19609 0.64796 0.0
C157 C 0.31942 0.03661 0.66521 0.0
Mg158 Mg 0.29212 0.18007 0.74206 0.0
O159 O 0.27352 0.11891 0.7332 0.0
Mg160 Mg 0.26431 0.09002 0.6634 0.0
Mg161 Mg 0.32064 0.10717 0.75845 0.0
O162 O 0.36856 0.09648 0.78218 0.0
Mg163 Mg 0.36472 0.04048 0.76838 0.0
Mg164 Mg 0.38041 0.12537 0.85152 0.0
C165 C 0.31546 0.17222 0.85204 0.0
C166 C 0.41356 0.20378 0.78461 0.0
O167 O 0.20852 0.10964 0.65449 0.0
O168 O 0.23109 0.17165 0.70955 0.0
O169 O 0.31285 0.15412 0.63393 0.0
O170 O 0.33962 0.21358 0.6912 0.0
O171 O 0.30816 0.19325 0.82114 0.0
O172 O 0.31778 0.13636 0.83842 0.0
C173 C 0.22729 0.01436 0.734 0.0
O174 O 0.26257 0.03712 0.76412 0.0
O175 O 0.22054 0.02822 0.69583 0.0
O176 O 0.44485 0.11705 0.85281 0.0
O177 O 0.43387 0.06392 0.79065 0.0
O178 O 0.33822 0.05657 0.87848 0.0
C179 C 0.45896 0.0944 0.826 0.0
O180 O 0.32429 0.00048 0.81977 0.0
O181 O 0.33566 0.02002 0.69305 0.0
C182 C 0.32054 0.01461 0.86274 0.0
O183 O 0.3205 0.07402 0.67966 0.0
O184 O 0.37918 0.17921 0.75346 0.0
O185 O 0.41999 0.19001 0.82279 0.0
H186 H 0.24847 0.50058 0.27131 0.0
H187 H 0.11386 0.38872 0.23008 0.0
H188 H 0.22048 0.55203 0.26958 0.0
H189 H 0.08606 0.44012 0.22269 0.0
H190 H 0.04185 0.53804 0.29036 0.0
H191 H 0.06831 0.48432 0.2758 0.0
H192 H 0.19257 0.58794 0.22993 0.0
H193 H 0.16741 0.64169 0.24888 0.0
C194 C 0.21317 0.48716 0.25942 0.0
C195 C 0.18355 0.44072 0.24947 0.0
C196 C 0.19698 0.51667 0.25813 0.0
C197 C 0.15077 0.50041 0.24613 0.0
C198 C 0.12171 0.45389 0.23281 0.0
C199 C 0.13786 0.42427 0.23528 0.0
C200 C 0.07497 0.54897 0.27775 0.0
C201 C 0.10329 0.59381 0.27196 0.0
C202 C 0.08995 0.51823 0.26857 0.0
C203 C 0.13287 0.53171 0.25187 0.0
C204 C 0.16002 0.57647 0.24412 0.0
C205 C 0.14568 0.60732 0.25488 0.0
H206 H 0.53017 0.17061 0.87848 0.0
H207 H 0.49809 0.04916 0.78289 0.0
H208 H 0.61085 0.19965 0.86951 0.0
H209 H 0.57805 0.07872 0.77362 0.0
H210 H 0.75471 0.19667 0.84958 0.0
H211 H 0.67876 0.16922 0.87706 0.0
H212 H 0.62625 0.15944 0.73151 0.0
H213 H 0.70132 0.18696 0.70399 0.0
C214 C 0.54023 0.14958 0.85677 0.0
C215 C 0.50751 0.1078 0.83081 0.0
C216 C 0.58637 0.16629 0.85164 0.0
C217 C 0.60024 0.14152 0.82042 0.0
C218 C 0.56796 0.0985 0.79759 0.0
C219 C 0.52217 0.08167 0.80297 0.0
C220 C 0.727 0.18906 0.8236 0.0
C221 C 0.73405 0.19374 0.7745 0.0
C222 C 0.68374 0.17358 0.83942 0.0
C223 C 0.64694 0.16202 0.8062 0.0
C224 C 0.65422 0.16795 0.75765 0.0
C225 C 0.69728 0.18393 0.74203 0.0
H226 H 0.34861 0.53829 0.3609 0.0
H227 H 0.44195 0.50256 0.29611 0.0
H228 H 0.3997 0.61677 0.35223 0.0
H229 H 0.49232 0.58041 0.28686 0.0
H230 H 0.58957 0.72745 0.30274 0.0
H231 H 0.54208 0.65519 0.32927 0.0
H232 H 0.42323 0.65907 0.28229 0.0
H233 H 0.4716 0.73314 0.25839 0.0
C234 C 0.38039 0.54725 0.34576 0.0
C235 C 0.39112 0.51408 0.32907 0.0
C236 C 0.40939 0.59213 0.34029 0.0
C237 C 0.44988 0.60479 0.31849 0.0
C238 C 0.46161 0.57195 0.30418 0.0
C239 C 0.43259 0.52719 0.30934 0.0
C240 C 0.55347 0.71382 0.3002 0.0
C241 C 0.53437 0.73656 0.28025 0.0
C242 C 0.52613 0.67191 0.31432 0.0
C243 C 0.47882 0.65136 0.30808 0.0
C244 C 0.45957 0.67432 0.28837 0.0
C245 C 0.48714 0.71645 0.27428 0.0
H246 H 0.92924 0.43103 0.72016 0.0
H247 H 0.80548 0.33252 0.63363 0.0
H248 H 0.90301 0.48435 0.72668 0.0
H249 H 0.77971 0.38686 0.63889 0.0
H250 H 0.72643 0.4723 0.72654 0.0
H251 H 0.7527 0.4197 0.70137 0.0
H252 H 0.88548 0.53144 0.68872 0.0
H253 H 0.85999 0.5832 0.71779 0.0
C254 C 0.89683 0.42101 0.70149 0.0
C255 C 0.86935 0.37721 0.67678 0.0
C256 C 0.88182 0.45185 0.70499 0.0
C257 C 0.83901 0.43991 0.68358 0.0
C258 C 0.81253 0.39693 0.65651 0.0
C259 C 0.82754 0.36591 0.6531 0.0
C260 C 0.76094 0.4853 0.71741 0.0
C261 C 0.79071 0.53173 0.72197 0.0
C262 C 0.77598 0.45528 0.70268 0.0
C263 C 0.82124 0.47126 0.69269 0.0
C264 C 0.8505 0.51784 0.69619 0.0
C265 C 0.83559 0.54765 0.7115 0.0
H266 H 0.22396 0.77858 0.14764 0.0
H267 H 0.27539 0.80528 0.2979 0.0
H268 H 0.30154 0.80807 0.12358 0.0
H269 H 0.35174 0.83456 0.27402 0.0
H270 H 0.44871 0.80693 0.13803 0.0
H271 H 0.36822 0.78198 0.14049 0.0
H272 H 0.40225 0.90752 0.22755 0.0
H273 H 0.4823 0.93292 0.22501 0.0
C274 C 0.25172 0.79075 0.17535 0.0
C275 C 0.24377 0.78981 0.22461 0.0
C276 C 0.29583 0.80738 0.16161 0.0
C277 C 0.33233 0.82395 0.19712 0.0
C278 C 0.32412 0.82244 0.24609 0.0
C279 C 0.28037 0.80529 0.25965 0.0
C280 C 0.43912 0.8298 0.15644 0.0
C281 C 0.47202 0.87157 0.18223 0.0
C282 C 0.39306 0.81551 0.15762 0.0
C283 C 0.3794 0.84274 0.18463 0.0
C284 C 0.41217 0.8859 0.20674 0.0
C285 C 0.458 0.9003 0.20535 0.0
H286 H 0.39765 0.26634 0.75166 0.0
H287 H 0.50284 0.24736 0.81137 0.0
H288 H 0.45129 0.34558 0.75313 0.0
H289 H 0.5552 0.32706 0.81914 0.0
H290 H 0.65234 0.46619 0.79654 0.0
H291 H 0.59931 0.38644 0.78153 0.0
H292 H 0.48913 0.41181 0.80644 0.0
H293 H 0.54285 0.49258 0.81708 0.0
C294 C 0.43254 0.27874 0.76325 0.0
C295 C 0.44641 0.25032 0.77927 0.0
C296 C 0.46311 0.32462 0.76597 0.0
C297 C 0.5078 0.34313 0.78643 0.0
C298 C 0.52157 0.31428 0.802 0.0
C299 C 0.4914 0.26845 0.79792 0.0
C300 C 0.61678 0.45459 0.79935 0.0
C301 C 0.60151 0.48517 0.80887 0.0
C302 C 0.58625 0.40878 0.79079 0.0
C303 C 0.53975 0.39229 0.79323 0.0
C304 C 0.52455 0.42315 0.80339 0.0
C305 C 0.5552 0.46933 0.8103 0.0
H306 H 0.12857 0.15796 0.29149 0.0
H307 H 0.26839 0.21144 0.26478 0.0
H308 H 0.11704 0.08316 0.28155 0.0
H309 H 0.25846 0.13628 0.25865 0.0
H310 H 0.20758 0.00737 0.15405 0.0
H311 H 0.22495 0.08203 0.19084 0.0
H312 H 0.12225 0.02204 0.28984 0.0
H313 H 0.10233 0.94808 0.2492 0.0
C314 C 0.15763 0.15371 0.2869 0.0
C315 C 0.19897 0.18953 0.27783 0.0
C316 C 0.1511 0.11067 0.28091 0.0
C317 C 0.18638 0.10342 0.26688 0.0
C318 C 0.23007 0.14069 0.26703 0.0
C319 C 0.23622 0.18379 0.27177 0.0
C320 C 0.18761 0.01069 0.18216 0.0
C321 C 0.15264 0.97274 0.19779 0.0
C322 C 0.19846 0.05322 0.20454 0.0
C323 C 0.17571 0.05821 0.24425 0.0
C324 C 0.14015 0.01971 0.2591 0.0
C325 C 0.12823 0.97735 0.23545 0.0
H326 H 0.98925 0.1372 0.77556 0.0
H327 H 0.00411 0.22831 0.67506 0.0
H328 H 0.04069 0.11952 0.73385 0.0
H329 H 0.05735 0.21092 0.63317 0.0
H330 H 0.20293 0.21838 0.66637 0.0
H331 H 0.137 0.22766 0.66726 0.0
H332 H 0.05002 0.08384 0.65182 0.0
H333 H 0.1164 0.07454 0.65081 0.0
C334 C 0.00366 0.15365 0.74451 0.0
C335 C -0.00665 0.18491 0.72912 0.0
C336 C 0.03247 0.14274 0.71998 0.0
C337 C 0.05231 0.16321 0.67977 0.0
C338 C 0.04193 0.19429 0.66379 0.0
C339 C 0.01201 0.20457 0.68794 0.0
C340 C 0.16959 0.18868 0.66132 0.0
C341 C 0.16448 0.14581 0.65978 0.0
C342 C 0.13189 0.194 0.66131 0.0
C343 C 0.08864 0.15652 0.66047 0.0
C344 C 0.08323 0.11325 0.65288 0.0
C345 C 0.12107 0.1079 0.65229 0.0
H346 H 0.02133 0.10699 0.17993 0.0
H347 H 0.96122 0.18574 0.14803 0.0
H348 H 0.94683 0.04599 0.19368 0.0
H349 H 0.8868 0.12465 0.16109 0.0
H350 H 0.84403 0.01634 0.31154 0.0
H351 H 0.90908 0.06246 0.27016 0.0
H352 H 0.8222 0.03606 0.1416 0.0
H353 H 0.75602 0.98782 0.18275 0.0
C354 C -0.00808 0.1103 0.17343 0.0
C355 C -0.00315 0.15101 0.16343 0.0
C356 C 0.94941 0.07564 0.18163 0.0
C357 C 0.91141 0.08112 0.17914 0.0
C358 C 0.91555 0.11963 0.16317 0.0
C359 C 0.95809 0.15452 0.15575 0.0
C360 C 0.83833 0.02023 0.27452 0.0
C361 C 0.79454 -0.00173 0.25053 0.0
C362 C 0.87583 0.04626 0.25063 0.0
C363 C 0.87067 0.05173 0.20236 0.0
C364 C 0.82697 0.03163 0.17865 0.0
C365 C 0.78917 0.00457 0.20239 0.0
H366 H 0.9153 0.04772 0.85944 0.0
H367 H 0.76977 0.98453 0.84674 0.0
H368 H 0.90858 0.9741 0.85924 0.0
H369 H 0.76302 0.91151 0.84543 0.0
H370 H 0.7594 0.7804 0.83936 0.0
H371 H 0.77466 0.85465 0.87799 0.0
H372 H 0.88367 0.9178 0.7874 0.0
H373 H 0.86891 0.84514 0.74982 0.0
C374 C 0.88201 0.01835 0.85799 0.0
C375 C 0.8431 0.02163 0.85173 0.0
C376 C 0.87808 0.97619 0.85769 0.0
C377 C 0.83521 0.93684 0.8513 0.0
C378 C 0.7965 0.94095 0.85044 0.0
C379 C 0.80042 0.98287 0.85056 0.0
C380 C 0.7869 0.81031 0.82838 0.0
C381 C 0.81218 0.80695 0.79076 0.0
C382 C 0.79574 0.85272 0.85048 0.0
C383 C 0.83051 0.89219 0.83585 0.0
C384 C 0.85718 0.88837 0.80024 0.0
C385 C 0.84808 0.84645 0.77797 0.0
H386 H 0.87252 0.92158 0.35156 0.0
H387 H 0.79368 0.78553 0.38113 0.0
H388 H 0.9371 0.9105 0.33946 0.0
H389 H 0.85818 0.77463 0.36961 0.0
H390 H -0.00231 0.78176 0.34366 0.0
H391 H 0.9481 0.80284 0.38808 0.0
H392 H 0.92327 0.85069 0.26148 0.0
H393 H 0.97024 0.82825 0.21691 0.0
C394 C 0.86981 0.89021 0.35795 0.0
C395 C 0.82825 0.85416 0.36646 0.0
C396 C 0.90657 0.88378 0.35088 0.0
C397 C 0.90209 0.84149 0.35294 0.0
C398 C 0.86241 0.80749 0.36795 0.0
C399 C 0.82554 0.81369 0.3743 0.0
C400 C 0.98081 0.7959 0.32521 0.0
C401 C 0.98759 0.80288 0.27666 0.0
C402 C 0.95321 0.80864 0.35081 0.0
C403 C 0.93321 0.82961 0.32848 0.0
C404 C 0.93949 0.83586 0.27993 0.0
C405 C 0.96599 0.82238 0.25425 0.0
H406 H 0.15948 -0.00838 0.79176 0.0
H407 H 0.21711 0.93851 0.68607 0.0
H408 H 0.08572 0.92371 0.77088 0.0
H409 H 0.14362 0.8718 0.66314 0.0
H410 H 0.00285 0.74624 0.65694 0.0
H411 H 0.08004 0.80575 0.6814 0.0
H412 H 0.03528 0.90275 0.69773 0.0
H413 H 0.95735 0.84247 0.67563 0.0
C414 C 0.15663 0.9643 0.76584 0.0
C415 C 0.19327 0.96954 0.74041 0.0
C416 C 0.11443 0.92615 0.75288 0.0
C417 C 0.1088 0.89352 0.71404 0.0
C418 C 0.14687 0.89654 0.69293 0.0
C419 C 0.18902 0.93438 0.70637 0.0
C420 C 0.00978 0.78051 0.6645 0.0
C421 C 0.97439 0.78996 0.66544 0.0
C422 C 0.05389 0.81448 0.67877 0.0
C423 C 0.06322 0.85845 0.69331 0.0
C424 C 0.02851 0.86866 0.68859 0.0
C425 C 0.98417 0.83449 0.67473 0.0
H426 H 0.34593 0.32968 0.1336 0.0
H427 H 0.20213 0.23849 0.10533 0.0
H428 H 0.35895 0.29371 0.06111 0.0
H429 H 0.21554 0.2022 0.03111 0.0
H430 H 0.26533 0.12414 0.92229 0.0
H431 H 0.25113 0.15509 0.99985 0.0
H432 H 0.34755 0.28885 0.97419 0.0
H433 H 0.36124 0.25806 0.89755 0.0
C434 C 0.31676 0.30192 0.11188 0.0
C435 C 0.27276 0.28738 0.12595 0.0
C436 C 0.32441 0.28126 0.06981 0.0
C437 C 0.28848 0.2449 0.03973 0.0
C438 C 0.24422 0.22987 0.05351 0.0
C439 C 0.23642 0.25103 0.09589 0.0
C440 C 0.28454 0.16002 0.93416 0.0
C441 C 0.31528 0.18853 0.90412 0.0
C442 C 0.27572 0.17788 0.97816 0.0
C443 C 0.29792 0.22467 0.99356 0.0
C444 C 0.32996 0.25274 0.96419 0.0
C445 C 0.33817 0.23503 0.9202 0.0
H446 H 0.04307 0.30012 0.63598 0.0
H447 H 0.92801 0.24943 0.53079 0.0
H448 H 0.09316 0.31689 0.57078 0.0
H449 H 0.97833 0.26673 0.46563 0.0
H450 H 0.15749 0.29922 0.42418 0.0
H451 H 0.11375 0.28297 0.49551 0.0
H452 H 0.03741 0.33912 0.44055 0.0
H453 H 0.08104 0.35577 0.37047 0.0
C454 C 0.02825 0.29187 0.5989 0.0
C455 C 0.98122 0.27341 0.58888 0.0
C456 C 0.05715 0.30155 0.56146 0.0
C457 C 0.04005 0.29388 0.5129 0.0
C458 C -0.00715 0.27381 0.50269 0.0
C459 C 0.96384 0.26342 0.54007 0.0
C460 C 0.13255 0.3096 0.42831 0.0
C461 C 0.1229 0.32884 0.39142 0.0
C462 C 0.10701 0.29974 0.46889 0.0
C463 C 0.07105 0.30851 0.47313 0.0
C464 C 0.06385 0.33067 0.43794 0.0
C465 C 0.08943 0.34084 0.398 0.0
H466 H 0.71832 0.04212 0.16814 0.0
H467 H 0.65124 0.93057 0.05191 0.0
H468 H 0.7493 0.09375 0.10933 0.0
H469 H 0.68305 0.98257 0.99268 0.0
H470 H 0.70763 0.08792 0.89821 0.0
H471 H 0.6748 0.04215 0.96206 0.0
H472 H 0.80302 0.11635 0.04902 0.0
H473 H 0.83585 0.16243 0.98561 0.0
C474 C 0.7105 0.02846 0.12994 0.0
C475 C 0.68202 0.98202 0.11485 0.0
C476 C 0.72843 0.05822 0.09616 0.0
C477 C 0.71824 0.04255 0.04617 0.0
C478 C 0.69085 -0.00405 0.03094 0.0
C479 C 0.6731 0.96601 0.06487 0.0
C480 C 0.7286 0.09551 0.93149 0.0
C481 C 0.77474 0.12871 0.93618 0.0
C482 C 0.70988 0.06863 0.96784 0.0
C483 C 0.73656 0.07459 0.01013 0.0
C484 C 0.78145 0.11052 0.01685 0.0
C485 C 0.80026 0.13728 0.98043 0.0
H486 H 0.62571 0.62962 0.62183 0.0
H487 H 0.76674 0.73098 0.62996 0.0
H488 H 0.60847 0.66363 0.55898 0.0
H489 H 0.74952 0.76491 0.5669 0.0
H490 H 0.69732 0.8436 0.49625 0.0
H491 H 0.70708 0.80658 0.56054 0.0
H492 H 0.62271 0.67757 0.47308 0.0
H493 H 0.61292 0.71447 0.40834 0.0
C494 C 0.6532 0.65884 0.60974 0.0
C495 C 0.69774 0.67736 0.63083 0.0
C496 C 0.64324 0.6783 0.5737 0.0
C497 C 0.67748 0.71726 0.55829 0.0
C498 C 0.72224 0.73523 0.57849 0.0
C499 C 0.73229 0.71536 0.61414 0.0
C500 C 0.67971 0.80727 0.49102 0.0
C501 C 0.65459 0.78215 0.44667 0.0
C502 C 0.68596 0.7861 0.52772 0.0
C503 C 0.66667 0.73923 0.52144 0.0
C504 C 0.63833 0.71378 0.47893 0.0
C505 C 0.63248 0.73498 0.4419 0.0
H506 H 0.93467 0.66111 0.85139 0.0
H507 H 0.82477 0.66649 0.91924 0.0
H508 H 0.97472 0.67694 0.93038 0.0
H509 H 0.8653 0.68181 0.99922 0.0
H510 H 0.93606 0.65557 0.12915 0.0
H511 H 0.89269 0.64357 0.0529 0.0
H512 H 0.01341 0.74275 0.99822 0.0
H513 H 0.05706 0.75512 0.07502 0.0
C514 C 0.91865 0.66522 0.88312 0.0
C515 C 0.87624 0.66255 0.87853 0.0
C516 C 0.94206 0.6748 0.92857 0.0
C517 C 0.92368 0.68142 0.97113 0.0
C518 C 0.8805 0.67706 0.96704 0.0
C519 C 0.85717 0.66807 0.92122 0.0
C520 C 0.95343 0.67518 0.10107 0.0
C521 C 0.00026 0.70614 0.10818 0.0
C522 C 0.92838 0.66843 0.05743 0.0
C523 C 0.94953 0.69193 0.01931 0.0
C524 C -0.00385 0.72377 0.02676 0.0
C525 C 0.02115 0.73109 0.07084 0.0
H526 H 0.28329 0.94619 0.64177 0.0
H527 H 0.29979 0.06143 0.5807 0.0
H528 H 0.24688 0.89839 0.56465 0.0
H529 H 0.26434 0.01313 0.50225 0.0
H530 H 0.2644 0.92331 0.363 0.0
H531 H 0.29141 0.96816 0.44245 0.0
H532 H 0.17453 0.86891 0.50202 0.0
H533 H 0.14567 0.82378 0.4208 0.0
C534 C 0.27902 0.9615 0.61193 0.0
C535 C 0.29487 0.00806 0.61776 0.0
C536 C 0.25776 0.93376 0.56767 0.0
C537 C 0.25265 0.95173 0.52715 0.0
C538 C 0.26784 -0.00182 0.53281 0.0
C539 C 0.28813 0.02591 0.57775 0.0
C540 C 0.24402 0.91044 0.39268 0.0
C541 C 0.20232 0.86953 0.38472 0.0
C542 C 0.25961 0.93672 0.43842 0.0
C543 C 0.23482 0.9228 0.4785 0.0
C544 C 0.19427 0.88086 0.47168 0.0
C545 C 0.17792 0.85473 0.42521 0.0
H546 H 0.74324 0.68731 0.96828 0.0
H547 H 0.66114 0.72059 0.88136 0.0
H548 H 0.72412 0.71722 0.04147 0.0
H549 H 0.64169 0.75004 0.95509 0.0
H550 H 0.66198 0.83675 0.10889 0.0
H551 H 0.67519 0.81034 0.02913 0.0
H552 H 0.64998 0.68744 0.07866 0.0
H553 H 0.63722 0.71373 0.15829 0.0
C554 C 0.72163 0.70152 0.96469 0.0
C555 C 0.70301 0.70075 0.91904 0.0
C556 C 0.71033 0.71822 0.00662 0.0
C557 C 0.68038 0.73462 1.00373 0.0
C558 C 0.66446 0.73709 0.95815 0.0
C559 C 0.67566 0.72023 0.91606 0.0
C560 C 0.65797 0.80355 0.10232 0.0
C561 C 0.64953 0.77764 0.14005 0.0
C562 C 0.66575 0.7886 0.05676 0.0
C563 C 0.66499 0.74758 0.04852 0.0
C564 C 0.65215 0.71987 0.08476 0.0
C565 C 0.64446 0.73475 0.13015 0.0
H566 H 0.95886 0.7153 0.37963 0.0
H567 H 0.00877 0.62716 0.40629 0.0
H568 H 0.90236 0.6831 0.43665 0.0
H569 H 0.9498 0.59145 0.45992 0.0
H570 H 0.88548 0.59109 0.60363 0.0
H571 H 0.92869 0.60024 0.53472 0.0
H572 H 0.83562 0.62392 0.45339 0.0
H573 H 0.79441 0.61852 0.52467 0.0
C574 C 0.9578 0.68924 0.39825 0.0
C575 C 0.98894 0.6748 0.39043 0.0
C576 C 0.92463 0.66972 0.42994 0.0
C577 C 0.92085 0.63406 0.45291 0.0
C578 C 0.95192 0.61928 0.44396 0.0
C579 C 0.98592 0.63984 0.41348 0.0
C580 C 0.8731 0.59662 0.57055 0.0
C581 C 0.83778 0.60618 0.57028 0.0
C582 C 0.89819 0.60204 0.53062 0.0
C583 C 0.88724 0.61536 0.48904 0.0
C584 C 0.84665 0.61631 0.4858 0.0
C585 C 0.82231 0.61218 0.52631 0.0
H586 H 0.27071 0.92291 0.84138 0.0
H587 H 0.32483 0.03188 0.96127 0.0
H588 H 0.24331 0.86879 0.89865 0.0
H589 H 0.29744 0.97791 0.01799 0.0
H590 H 0.27693 0.88219 0.11441 0.0
H591 H 0.31279 0.91944 0.0459 0.0
H592 H 0.18447 0.84674 0.95903 0.0
H593 H 0.14849 0.80918 0.02718 0.0
C594 C 0.27659 0.93533 0.87986 0.0
C595 C 0.29987 0.98175 0.89678 0.0
C596 C 0.26112 0.90432 0.91253 0.0
C597 C 0.26915 0.91919 0.96267 0.0
C598 C 0.29184 0.96551 0.9795 0.0
C599 C 0.30686 -0.00357 0.94696 0.0
C600 C 0.25663 0.87272 0.08018 0.0
C601 C 0.20955 0.844 0.07673 0.0
C602 C 0.27715 0.8944 0.04109 0.0
C603 C 0.251 0.88712 0.99791 0.0
C604 C 0.20531 0.85338 0.99213 0.0
C605 C 0.18473 0.83186 0.03127 0.0
H606 H 0.37112 0.28661 0.65645 0.0
H607 H 0.34594 0.17159 0.55353 0.0
H608 H 0.37313 0.32666 0.58963 0.0
H609 H 0.34711 0.21128 0.48708 0.0
H610 H 0.35775 0.29805 0.37389 0.0
H611 H 0.38274 0.27302 0.43998 0.0
H612 H 0.30645 0.31036 0.53704 0.0
H613 H 0.28209 0.33611 0.47146 0.0
C614 C 0.36763 0.2704 0.61968 0.0
C615 C 0.35698 0.22541 0.61027 0.0
C616 C 0.36826 0.2932 0.58141 0.0
C617 C 0.3587 0.27151 0.53323 0.0
C618 C 0.3542 0.22881 0.5238 0.0
C619 C 0.3535 0.206 0.56201 0.0
C620 C 0.34632 0.30098 0.40934 0.0
C621 C 0.31771 0.31894 0.4173 0.0
C622 C 0.36081 0.28677 0.44721 0.0
C623 C 0.3471 0.29027 0.49385 0.0
C624 C 0.31857 0.30825 0.50179 0.0
C625 C 0.30403 0.32241 0.46398 0.0
H626 H 0.07126 0.35843 0.13016 0.0
H627 H 0.1533 0.3204 0.04321 0.0
H628 H 0.03247 0.35942 0.05654 0.0
H629 H 0.11481 0.32227 0.96982 0.0
H630 H 0.04089 0.34535 0.84766 0.0
H631 H 0.09136 0.36997 0.92157 0.0
H632 H 0.97974 0.28198 0.99721 0.0
H633 H 0.92884 0.25675 0.92297 0.0
C634 C 0.08229 0.35202 0.09551 0.0
C635 C 0.1143 0.33791 0.09225 0.0
C636 C 0.05986 0.35237 0.05351 0.0
C637 C 0.07007 0.33978 0.00803 0.0
C638 C 0.10627 0.33175 1.00475 0.0
C639 C 0.12824 0.33069 0.04671 0.0
C640 C 0.02695 0.33143 0.88014 0.0
C641 C 0.98093 0.29905 0.87973 0.0
C642 C 0.05587 0.34568 0.92226 0.0
C643 C 0.0391 0.32832 0.9648 0.0
C644 C -0.00694 0.29639 0.96477 0.0
C645 C 0.96417 0.28156 0.92234 0.0
H646 H 0.82438 0.15662 0.59468 0.0
H647 H 0.70933 0.05466 0.65544 0.0
H648 H 0.7907 0.11645 0.51326 0.0
H649 H 0.67646 0.0148 0.57438 0.0
H650 H 0.67915 0.92777 0.4368 0.0
H651 H 0.70888 0.97515 0.51568 0.0
H652 H 0.71753 0.08711 0.45384 0.0
H653 H 0.68776 0.03998 0.37497 0.0
C654 C 0.79157 0.12632 0.59069 0.0
C655 C 0.76994 0.10828 0.63144 0.0
C656 C 0.77244 0.10339 0.5442 0.0
C657 C 0.73171 0.06223 0.53818 0.0
C658 C 0.70845 0.04607 0.57855 0.0
C659 C 0.72726 0.06903 0.62481 0.0
C660 C 0.68762 0.96251 0.44002 0.0
C661 C 0.68094 0.98016 0.40002 0.0
C662 C 0.70424 0.98942 0.48504 0.0
C663 C 0.71488 0.03441 0.49044 0.0
C664 C 0.70938 0.05244 0.45028 0.0
C665 C 0.69222 0.02541 0.40541 0.0
loop_
_geom_bond_atom_site_label_1
_geom_bond_atom_site_label_2
_geom_bond_distance
_geom_bond_site_symmetry_2
_ccdc_geom_bond_type
C0 O12 1.239 . S
C0 O13 1.281 1_455 S
C1 O14 1.277 . S
C1 O15 1.245 . S
C2 O26 1.247 . S
C2 O28 1.289 . S
Mg3 O4 1.926 . S
Mg3 O13 1.984 1_455 S
Mg3 O15 1.988 . S
Mg3 O16 2.061 . S
O4 Mg3 1.926 . S
O4 Mg5 1.986 . S
O4 Mg6 1.917 . S
Mg5 O4 1.986 . S
Mg5 O12 2.042 . S
Mg5 O14 2.041 . S
Mg5 O20 2.038 . S
Mg5 O28 2.238 . S
Mg6 O4 1.917 . S
Mg6 O7 1.917 . S
Mg6 O17 2.106 . S
Mg6 O19 2.079 . S
Mg6 O28 2.106 . S
Mg6 O29 2.079 . S
O7 Mg6 1.917 . S
O7 Mg8 1.926 . S
O7 Mg9 1.986 . S
Mg8 O7 1.926 . S
Mg8 O22 1.984 . S
Mg8 O25 1.988 . S
Mg8 O26 2.061 . S
Mg9 O7 1.986 . S
Mg9 O17 2.238 . S
Mg9 O21 2.042 . S
Mg9 O23 2.041 . S
Mg9 O30 2.038 . S
C10 O16 1.247 . S
C10 O17 1.289 . S
C11 O29 1.245 . S
C11 O30 1.274 . S
O12 C0 1.239 . S
O12 Mg5 2.042 . S
O13 C0 1.281 1_655 S
O13 Mg3 1.984 1_655 S
O14 C1 1.277 . S
O14 Mg5 2.041 . S
O15 C1 1.245 . S
O15 Mg3 1.988 . S
O16 Mg3 2.061 . S
O16 C10 1.247 . S
O17 Mg6 2.106 . S
O17 Mg9 2.238 . S
O17 C10 1.289 . S
C18 O19 1.245 . S
C18 O20 1.274 . S
O19 Mg6 2.079 . S
O19 C18 1.245 . S
O20 Mg5 2.038 . S
O20 C18 1.274 . S
O21 Mg9 2.042 . S
O21 C24 1.241 . S
O22 Mg8 1.984 . S
O22 C24 1.280 . S
O23 Mg9 2.041 . S
O23 C27 1.277 . S
C24 O21 1.241 . S
C24 O22 1.280 . S
O25 Mg8 1.988 . S
O25 C27 1.245 . S
O26 C2 1.247 . S
O26 Mg8 2.061 . S
C27 O23 1.277 . S
C27 O25 1.245 . S
O28 C2 1.289 . S
O28 Mg5 2.238 . S
O28 Mg6 2.106 . S
O29 Mg6 2.079 . S
O29 C11 1.245 . S
O30 Mg9 2.038 . S
O30 C11 1.274 . S
C31 O43 1.241 . S
C31 O44 1.280 . S
C32 O45 1.277 . S
C32 O46 1.245 . S
C33 O57 1.247 . S
C33 O59 1.289 . S
Mg34 O35 1.926 . S
Mg34 O44 1.984 . S
Mg34 O46 1.988 . S
Mg34 O47 2.061 . S
O35 Mg34 1.926 . S
O35 Mg36 1.986 . S
O35 Mg37 1.917 . S
Mg36 O35 1.986 . S
Mg36 O43 2.042 . S
Mg36 O45 2.041 . S
Mg36 O51 2.038 . S
Mg36 O59 2.238 . S
Mg37 O35 1.917 . S
Mg37 O38 1.917 . S
Mg37 O48 2.106 . S
Mg37 O50 2.079 . S
Mg37 O59 2.106 . S
Mg37 O60 2.079 . S
O38 Mg37 1.917 . S
O38 Mg39 1.926 . S
O38 Mg40 1.986 . S
Mg39 O38 1.926 . S
Mg39 O53 1.984 1_545 S
Mg39 O56 1.988 . S
Mg39 O57 2.061 . S
Mg40 O38 1.986 . S
Mg40 O48 2.238 . S
Mg40 O52 2.042 . S
Mg40 O54 2.041 . S
Mg40 O61 2.038 . S
C41 O47 1.247 . S
C41 O48 1.289 . S
C42 O60 1.245 . S
C42 O61 1.274 . S
O43 C31 1.241 . S
O43 Mg36 2.042 . S
O44 C31 1.280 . S
O44 Mg34 1.984 . S
O45 C32 1.277 . S
O45 Mg36 2.041 . S
O46 C32 1.245 . S
O46 Mg34 1.988 . S
O47 Mg34 2.061 . S
O47 C41 1.247 . S
O48 Mg37 2.106 . S
O48 Mg40 2.238 . S
O48 C41 1.289 . S
C49 O50 1.245 . S
C49 O51 1.274 . S
O50 Mg37 2.079 . S
O50 C49 1.245 . S
O51 Mg36 2.038 . S
O51 C49 1.274 . S
O52 Mg40 2.042 . S
O52 C55 1.241 . S
O53 Mg39 1.984 1_565 S
O53 C55 1.280 1_565 S
O54 Mg40 2.041 . S
O54 C58 1.277 . S
C55 O52 1.241 . S
C55 O53 1.280 1_545 S
O56 Mg39 1.988 . S
O56 C58 1.245 . S
O57 C33 1.247 . S
O57 Mg39 2.061 . S
C58 O54 1.277 . S
C58 O56 1.245 . S
O59 C33 1.289 . S
O59 Mg36 2.238 . S
O59 Mg37 2.106 . S
O60 Mg37 2.079 . S
O60 C42 1.245 . S
O61 Mg40 2.038 . S
O61 C42 1.274 . S
C62 O74 1.241 . S
C62 O75 1.280 . S
C63 O76 1.277 . S
C63 O77 1.245 . S
C64 O88 1.247 . S
C64 O90 1.289 . S
Mg65 O66 1.926 . S
Mg65 O75 1.984 . S
Mg65 O77 1.988 . S
Mg65 O78 2.061 . S
O66 Mg65 1.926 . S
O66 Mg67 1.986 . S
O66 Mg68 1.917 . S
Mg67 O66 1.986 . S
Mg67 O74 2.042 . S
Mg67 O76 2.041 . S
Mg67 O82 2.038 . S
Mg67 O90 2.238 . S
Mg68 O66 1.917 . S
Mg68 O69 1.917 . S
Mg68 O79 2.106 . S
Mg68 O81 2.079 . S
Mg68 O90 2.106 . S
Mg68 O91 2.079 . S
O69 Mg68 1.917 . S
O69 Mg70 1.926 . S
O69 Mg71 1.986 . S
Mg70 O69 1.926 . S
Mg70 O84 1.984 . S
Mg70 O87 1.988 . S
Mg70 O88 2.061 . S
Mg71 O69 1.986 . S
Mg71 O79 2.238 . S
Mg71 O83 2.042 . S
Mg71 O85 2.041 . S
Mg71 O92 2.038 . S
C72 O78 1.247 . S
C72 O79 1.289 . S
C73 O91 1.245 . S
C73 O92 1.274 . S
O74 C62 1.241 . S
O74 Mg67 2.042 . S
O75 C62 1.280 . S
O75 Mg65 1.984 . S
O76 C63 1.277 . S
O76 Mg67 2.041 . S
O77 C63 1.245 . S
O77 Mg65 1.988 . S
O78 Mg65 2.061 . S
O78 C72 1.247 . S
O79 Mg68 2.106 . S
O79 Mg71 2.238 . S
O79 C72 1.289 . S
C80 O81 1.245 . S
C80 O82 1.274 . S
O81 Mg68 2.079 . S
O81 C80 1.245 . S
O82 Mg67 2.038 . S
O82 C80 1.274 . S
O83 Mg71 2.042 . S
O83 C86 1.241 . S
O84 Mg70 1.984 . S
O84 C86 1.280 . S
O85 Mg71 2.041 . S
O85 C89 1.277 . S
C86 O83 1.241 . S
C86 O84 1.280 . S
O87 Mg70 1.988 . S
O87 C89 1.245 . S
O88 C64 1.247 . S
O88 Mg70 2.061 . S
C89 O85 1.277 . S
C89 O87 1.245 . S
O90 C64 1.289 . S
O90 Mg67 2.238 . S
O90 Mg68 2.106 . S
O91 Mg68 2.079 . S
O91 C73 1.245 . S
O92 Mg71 2.038 . S
O92 C73 1.274 . S
C93 O105 1.241 . S
C93 O106 1.280 1_655 S
C94 O107 1.277 . S
C94 O108 1.245 . S
C95 O119 1.247 . S
C95 O121 1.289 . S
Mg96 O97 1.926 . S
Mg96 O106 1.984 1_655 S
Mg96 O108 1.988 . S
Mg96 O109 2.061 . S
O97 Mg96 1.926 . S
O97 Mg98 1.986 . S
O97 Mg99 1.917 . S
Mg98 O97 1.986 . S
Mg98 O105 2.042 . S
Mg98 O107 2.041 . S
Mg98 O113 2.038 . S
Mg98 O121 2.238 . S
Mg99 O97 1.917 . S
Mg99 O100 1.917 . S
Mg99 O110 2.106 . S
Mg99 O112 2.079 . S
Mg99 O121 2.106 . S
Mg99 O122 2.079 . S
O100 Mg99 1.917 . S
O100 Mg101 1.926 . S
O100 Mg102 1.986 . S
Mg101 O100 1.926 . S
Mg101 O115 1.984 . S
Mg101 O118 1.988 . S
Mg101 O119 2.061 . S
Mg102 O100 1.986 . S
Mg102 O110 2.238 . S
Mg102 O114 2.042 . S
Mg102 O116 2.041 . S
Mg102 O123 2.038 . S
C103 O109 1.247 . S
C103 O110 1.289 . S
C104 O122 1.245 . S
C104 O123 1.274 . S
O105 C93 1.241 . S
O105 Mg98 2.042 . S
O106 C93 1.280 1_455 S
O106 Mg96 1.984 1_455 S
O107 C94 1.277 . S
O107 Mg98 2.041 . S
O108 C94 1.245 . S
O108 Mg96 1.988 . S
O109 Mg96 2.061 . S
O109 C103 1.247 . S
O110 Mg99 2.106 . S
O110 Mg102 2.238 . S
O110 C103 1.289 . S
C111 O112 1.245 . S
C111 O113 1.274 . S
O112 Mg99 2.079 . S
O112 C111 1.245 . S
O113 Mg98 2.038 . S
O113 C111 1.274 . S
O114 Mg102 2.042 . S
O114 C117 1.241 . S
O115 Mg101 1.984 . S
O115 C117 1.280 . S
O116 Mg102 2.041 . S
O116 C120 1.277 . S
C117 O114 1.241 . S
C117 O115 1.280 . S
O118 Mg101 1.988 . S
O118 C120 1.245 . S
O119 C95 1.247 . S
O119 Mg101 2.061 . S
C120 O116 1.277 . S
C120 O118 1.245 . S
O121 C95 1.289 . S
O121 Mg98 2.238 . S
O121 Mg99 2.106 . S
O122 Mg99 2.079 . S
O122 C104 1.245 . S
O123 Mg102 2.038 . S
O123 C104 1.274 . S
C124 O136 1.241 . S
C124 O137 1.280 1_565 S
C125 O138 1.277 . S
C125 O139 1.245 . S
C126 O150 1.247 . S
C126 O152 1.289 . S
Mg127 O128 1.926 . S
Mg127 O137 1.984 1_565 S
Mg127 O139 1.988 . S
Mg127 O140 2.061 . S
O128 Mg127 1.926 . S
O128 Mg129 1.986 . S
O128 Mg130 1.917 . S
Mg129 O128 1.986 . S
Mg129 O136 2.042 . S
Mg129 O138 2.041 . S
Mg129 O144 2.038 . S
Mg129 O152 2.238 . S
Mg130 O128 1.917 . S
Mg130 O131 1.917 . S
Mg130 O141 2.106 . S
Mg130 O143 2.079 . S
Mg130 O152 2.106 . S
Mg130 O153 2.079 . S
O131 Mg130 1.917 . S
O131 Mg132 1.926 . S
O131 Mg133 1.986 . S
Mg132 O131 1.926 . S
Mg132 O146 1.984 . S
Mg132 O149 1.988 . S
Mg132 O150 2.061 . S
Mg133 O131 1.986 . S
Mg133 O141 2.238 . S
Mg133 O145 2.042 . S
Mg133 O147 2.041 . S
Mg133 O154 2.038 . S
C134 O140 1.247 . S
C134 O141 1.289 . S
C135 O153 1.245 . S
C135 O154 1.274 . S
O136 C124 1.241 . S
O136 Mg129 2.042 . S
O137 C124 1.280 1_545 S
O137 Mg127 1.984 1_545 S
O138 C125 1.277 . S
O138 Mg129 2.041 . S
O139 C125 1.245 . S
O139 Mg127 1.988 . S
O140 Mg127 2.061 . S
O140 C134 1.247 . S
O141 Mg130 2.106 . S
O141 Mg133 2.238 . S
O141 C134 1.289 . S
C142 O143 1.245 . S
C142 O144 1.274 . S
O143 Mg130 2.079 . S
O143 C142 1.245 . S
O144 Mg129 2.038 . S
O144 C142 1.274 . S
O145 Mg133 2.042 . S
O145 C148 1.241 . S
O146 Mg132 1.984 . S
O146 C148 1.280 . S
O147 Mg133 2.041 . S
O147 C151 1.277 . S
C148 O145 1.241 . S
C148 O146 1.280 . S
O149 Mg132 1.988 . S
O149 C151 1.245 . S
O150 C126 1.247 . S
O150 Mg132 2.061 . S
C151 O147 1.277 . S
C151 O149 1.245 . S
O152 C126 1.289 . S
O152 Mg129 2.238 . S
O152 Mg130 2.106 . S
O153 Mg130 2.079 . S
O153 C135 1.245 . S
O154 Mg133 2.038 . S
O154 C135 1.274 . S
C155 O167 1.241 . S
C155 O168 1.280 . S
C156 O169 1.277 . S
C156 O170 1.245 . S
C157 O181 1.247 . S
C157 O183 1.289 . S
Mg158 O159 1.926 . S
Mg158 O168 1.984 . S
Mg158 O170 1.988 . S
Mg158 O171 2.061 . S
O159 Mg158 1.926 . S
O159 Mg160 1.986 . S
O159 Mg161 1.917 . S
Mg160 O159 1.986 . S
Mg160 O167 2.042 . S
Mg160 O169 2.041 . S
Mg160 O175 2.038 . S
Mg160 O183 2.238 . S
Mg161 O159 1.917 . S
Mg161 O162 1.917 . S
Mg161 O172 2.106 . S
Mg161 O174 2.079 . S
Mg161 O183 2.106 . S
Mg161 O184 2.079 . S
O162 Mg161 1.917 . S
O162 Mg163 1.926 . S
O162 Mg164 1.986 . S
Mg163 O162 1.926 . S
Mg163 O177 1.984 . S
Mg163 O180 1.988 . S
Mg163 O181 2.061 . S
Mg164 O162 1.986 . S
Mg164 O172 2.238 . S
Mg164 O176 2.042 . S
Mg164 O178 2.041 . S
Mg164 O185 2.038 . S
C165 O171 1.247 . S
C165 O172 1.289 . S
C166 O184 1.245 . S
C166 O185 1.274 . S
O167 C155 1.241 . S
O167 Mg160 2.042 . S
O168 C155 1.280 . S
O168 Mg158 1.984 . S
O169 C156 1.277 . S
O169 Mg160 2.041 . S
O170 C156 1.245 . S
O170 Mg158 1.988 . S
O171 Mg158 2.061 . S
O171 C165 1.247 . S
O172 Mg161 2.106 . S
O172 Mg164 2.238 . S
O172 C165 1.289 . S
C173 O174 1.245 . S
C173 O175 1.274 . S
O174 Mg161 2.079 . S
O174 C173 1.245 . S
O175 Mg160 2.038 . S
O175 C173 1.274 . S
O176 Mg164 2.042 . S
O176 C179 1.241 . S
O177 Mg163 1.984 . S
O177 C179 1.280 . S
O178 Mg164 2.041 . S
O178 C182 1.277 . S
C179 O176 1.241 . S
C179 O177 1.280 . S
O180 Mg163 1.988 . S
O180 C182 1.245 . S
O181 C157 1.247 . S
O181 Mg163 2.061 . S
C182 O178 1.277 . S
C182 O180 1.245 . S
O183 C157 1.289 . S
O183 Mg160 2.238 . S
O183 Mg161 2.106 . S
O184 Mg161 2.079 . S
O184 C166 1.245 . S
O185 Mg164 2.038 . S
O185 C166 1.274 . S
H186 C194 0.950 . S
H187 C199 0.950 . S
H188 C196 0.950 . S
H189 C198 0.950 . S
H190 C200 0.950 . S
H191 C202 0.950 . S
H192 C204 0.950 . S
H193 C205 0.950 . S
C194 H186 0.950 . S
C194 C195 1.386 . S
C194 C196 1.391 . S
C195 C194 1.386 . S
C195 C199 1.393 . S
C196 H188 0.950 . S
C196 C194 1.391 . S
C196 C197 1.400 . S
C197 C196 1.400 . S
C197 C198 1.398 . S
C197 C203 1.491 . S
C198 H189 0.950 . S
C198 C197 1.398 . S
C198 C199 1.391 . S
C199 H187 0.950 . S
C199 C195 1.393 . S
C199 C198 1.391 . S
C200 H190 0.950 . S
C200 C201 1.386 . S
C200 C202 1.391 . S
C201 C200 1.386 . S
C201 C205 1.393 . S
C202 H191 0.950 . S
C202 C200 1.391 . S
C202 C203 1.400 . S
C203 C197 1.491 . S
C203 C202 1.400 . S
C203 C204 1.398 . S
C204 H192 0.950 . S
C204 C203 1.398 . S
C204 C205 1.391 . S
C205 H193 0.950 . S
C205 C201 1.393 . S
C205 C204 1.391 . S
H206 C214 0.950 . S
H207 C219 0.950 . S
H208 C216 0.950 . S
H209 C218 0.950 . S
H210 C220 0.950 . S
H211 C222 0.950 . S
H212 C224 0.950 . S
H213 C225 0.950 . S
C214 H206 0.950 . S
C214 C215 1.386 . S
C214 C216 1.391 . S
C215 C214 1.386 . S
C215 C219 1.393 . S
C216 H208 0.950 . S
C216 C214 1.391 . S
C216 C217 1.400 . S
C217 C216 1.400 . S
C217 C218 1.398 . S
C217 C223 1.491 . S
C218 H209 0.950 . S
C218 C217 1.398 . S
C218 C219 1.391 . S
C219 H207 0.950 . S
C219 C215 1.393 . S
C219 C218 1.391 . S
C220 H210 0.950 . S
C220 C221 1.386 . S
C220 C222 1.391 . S
C221 C220 1.386 . S
C221 C225 1.393 . S
C222 H211 0.950 . S
C222 C220 1.391 . S
C222 C223 1.400 . S
C223 C217 1.491 . S
C223 C222 1.400 . S
C223 C224 1.398 . S
C224 H212 0.950 . S
C224 C223 1.398 . S
C224 C225 1.391 . S
C225 H213 0.950 . S
C225 C221 1.393 . S
C225 C224 1.391 . S
H226 C234 0.950 . S
H227 C239 0.950 . S
H228 C236 0.950 . S
H229 C238 0.950 . S
H230 C240 0.950 . S
H231 C242 0.950 . S
H232 C244 0.950 . S
H233 C245 0.950 . S
C234 H226 0.950 . S
C234 C235 1.386 . S
C234 C236 1.391 . S
C235 C234 1.386 . S
C235 C239 1.393 . S
C236 H228 0.950 . S
C236 C234 1.391 . S
C236 C237 1.400 . S
C237 C236 1.400 . S
C237 C238 1.398 . S
C237 C243 1.491 . S
C238 H229 0.950 . S
C238 C237 1.398 . S
C238 C239 1.391 . S
C239 H227 0.950 . S
C239 C235 1.393 . S
C239 C238 1.391 . S
C240 H230 0.950 . S
C240 C241 1.386 . S
C240 C242 1.391 . S
C241 C240 1.386 . S
C241 C245 1.393 . S
C242 H231 0.950 . S
C242 C240 1.391 . S
C242 C243 1.400 . S
C243 C237 1.491 . S
C243 C242 1.400 . S
C243 C244 1.398 . S
C244 H232 0.950 . S
C244 C243 1.398 . S
C244 C245 1.391 . S
C245 H233 0.950 . S
C245 C241 1.393 . S
C245 C244 1.391 . S
H246 C254 0.950 . S
H247 C259 0.950 . S
H248 C256 0.950 . S
H249 C258 0.950 . S
H250 C260 0.950 . S
H251 C262 0.950 . S
H252 C264 0.950 . S
H253 C265 0.950 . S
C254 H246 0.950 . S
C254 C255 1.386 . S
C254 C256 1.391 . S
C255 C254 1.386 . S
C255 C259 1.393 . S
C256 H248 0.950 . S
C256 C254 1.391 . S
C256 C257 1.400 . S
C257 C256 1.400 . S
C257 C258 1.398 . S
C257 C263 1.491 . S
C258 H249 0.950 . S
C258 C257 1.398 . S
C258 C259 1.391 . S
C259 H247 0.950 . S
C259 C255 1.393 . S
C259 C258 1.391 . S
C260 H250 0.950 . S
C260 C261 1.386 . S
C260 C262 1.391 . S
C261 C260 1.386 . S
C261 C265 1.393 . S
C262 H251 0.950 . S
C262 C260 1.391 . S
C262 C263 1.400 . S
C263 C257 1.491 . S
C263 C262 1.400 . S
C263 C264 1.398 . S
C264 H252 0.950 . S
C264 C263 1.398 . S
C264 C265 1.391 . S
C265 H253 0.950 . S
C265 C261 1.393 . S
C265 C264 1.391 . S
H266 C274 0.950 . S
H267 C279 0.950 . S
H268 C276 0.950 . S
H269 C278 0.950 . S
H270 C280 0.950 . S
H271 C282 0.950 . S
H272 C284 0.950 . S
H273 C285 0.950 . S
C274 H266 0.950 . S
C274 C275 1.386 . S
C274 C276 1.391 . S
C275 C274 1.386 . S
C275 C279 1.393 . S
C276 H268 0.950 . S
C276 C274 1.391 . S
C276 C277 1.400 . S
C277 C276 1.400 . S
C277 C278 1.398 . S
C277 C283 1.491 . S
C278 H269 0.950 . S
C278 C277 1.398 . S
C278 C279 1.391 . S
C279 H267 0.950 . S
C279 C275 1.393 . S
C279 C278 1.391 . S
C280 H270 0.950 . S
C280 C281 1.386 . S
C280 C282 1.391 . S
C281 C280 1.386 . S
C281 C285 1.393 . S
C282 H271 0.950 . S
C282 C280 1.391 . S
C282 C283 1.400 . S
C283 C277 1.491 . S
C283 C282 1.400 . S
C283 C284 1.398 . S
C284 H272 0.950 . S
C284 C283 1.398 . S
C284 C285 1.391 . S
C285 H273 0.950 . S
C285 C281 1.393 . S
C285 C284 1.391 . S
H286 C294 0.950 . S
H287 C299 0.950 . S
H288 C296 0.950 . S
H289 C298 0.950 . S
H290 C300 0.950 . S
H291 C302 0.950 . S
H292 C304 0.950 . S
H293 C305 0.950 . S
C294 H286 0.950 . S
C294 C295 1.386 . S
C294 C296 1.391 . S
C295 C294 1.386 . S
C295 C299 1.393 . S
C296 H288 0.950 . S
C296 C294 1.391 . S
C296 C297 1.400 . S
C297 C296 1.400 . S
C297 C298 1.398 . S
C297 C303 1.491 . S
C298 H289 0.950 . S
C298 C297 1.398 . S
C298 C299 1.391 . S
C299 H287 0.950 . S
C299 C295 1.393 . S
C299 C298 1.391 . S
C300 H290 0.950 . S
C300 C301 1.386 . S
C300 C302 1.391 . S
C301 C300 1.386 . S
C301 C305 1.393 . S
C302 H291 0.950 . S
C302 C300 1.391 . S
C302 C303 1.400 . S
C303 C297 1.491 . S
C303 C302 1.400 . S
C303 C304 1.398 . S
C304 H292 0.950 . S
C304 C303 1.398 . S
C304 C305 1.391 . S
C305 H293 0.950 . S
C305 C301 1.393 . S
C305 C304 1.391 . S
H306 C314 0.950 . S
H307 C319 0.950 . S
H308 C316 0.950 . S
H309 C318 0.950 . S
H310 C320 0.950 . S
H311 C322 0.950 . S
H312 C324 0.950 . S
H313 C325 0.950 . S
C314 H306 0.950 . S
C314 C315 1.386 . S
C314 C316 1.391 . S
C315 C314 1.386 . S
C315 C319 1.393 . S
C316 H308 0.950 . S
C316 C314 1.391 . S
C316 C317 1.400 . S
C317 C316 1.400 . S
C317 C318 1.398 . S
C317 C323 1.491 . S
C318 H309 0.950 . S
C318 C317 1.398 . S
C318 C319 1.391 . S
C319 H307 0.950 . S
C319 C315 1.393 . S
C319 C318 1.391 . S
C320 H310 0.950 . S
C320 C321 1.386 . S
C320 C322 1.391 . S
C321 C320 1.386 . S
C321 C325 1.393 . S
C322 H311 0.950 . S
C322 C320 1.391 . S
C322 C323 1.400 . S
C323 C317 1.491 . S
C323 C322 1.400 . S
C323 C324 1.398 . S
C324 H312 0.950 . S
C324 C323 1.398 . S
C324 C325 1.391 . S
C325 H313 0.950 . S
C325 C321 1.393 . S
C325 C324 1.391 . S
H326 C334 0.950 . S
H327 C339 0.950 . S
H328 C336 0.950 . S
H329 C338 0.950 . S
H330 C340 0.950 . S
H331 C342 0.950 . S
H332 C344 0.950 . S
H333 C345 0.950 . S
C334 H326 0.950 . S
C334 C335 1.386 . S
C334 C336 1.391 . S
C335 C334 1.386 . S
C335 C339 1.393 . S
C336 H328 0.950 . S
C336 C334 1.391 . S
C336 C337 1.400 1_655 S
C337 C336 1.400 1_455 S
C337 C338 1.398 . S
C337 C343 1.491 . S
C338 H329 0.950 . S
C338 C337 1.398 . S
C338 C339 1.391 1_455 S
C339 H327 0.950 . S
C339 C335 1.393 . S
C339 C338 1.391 1_655 S
C340 H330 0.950 . S
C340 C341 1.386 . S
C340 C342 1.391 . S
C341 C340 1.386 . S
C341 C345 1.393 . S
C342 H331 0.950 . S
C342 C340 1.391 . S
C342 C343 1.400 . S
C343 C337 1.491 . S
C343 C342 1.400 . S
C343 C344 1.398 . S
C344 H332 0.950 . S
C344 C343 1.398 . S
C344 C345 1.391 . S
C345 H333 0.950 . S
C345 C341 1.393 . S
C345 C344 1.391 . S
H346 C354 0.950 . S
H347 C359 0.950 1_455 S
H348 C356 0.950 . S
H349 C358 0.950 . S
H350 C360 0.950 . S
H351 C362 0.950 1_545 S
H352 C364 0.950 1_545 S
H353 C365 0.950 . S
C354 H346 0.950 . S
C354 C355 1.386 . S
C354 C356 1.391 . S
C355 C354 1.386 . S
C355 C359 1.393 . S
C356 H348 0.950 . S
C356 C354 1.391 . S
C356 C357 1.400 . S
C357 C356 1.400 . S
C357 C358 1.398 . S
C357 C363 1.491 . S
C358 H349 0.950 . S
C358 C357 1.398 . S
C358 C359 1.391 . S
C359 H347 0.950 1_655 S
C359 C355 1.393 . S
C359 C358 1.391 . S
C360 H350 0.950 . S
C360 C361 1.386 . S
C360 C362 1.407 . S
C361 C360 1.386 . S
C361 C365 1.393 . S
C362 H351 0.950 1_565 S
C362 C360 1.407 . S
C362 C363 1.384 1_565 S
C363 C357 1.491 . S
C363 C362 1.384 1_545 S
C363 C364 1.398 1_545 S
C364 H352 0.950 1_565 S
C364 C363 1.398 1_565 S
C364 C365 1.391 . S
C365 H353 0.950 . S
C365 C361 1.393 . S
C365 C364 1.391 . S
H366 C374 0.950 1_545 S
H367 C379 0.950 . S
H368 C376 0.950 . S
H369 C378 0.950 . S
H370 C380 0.950 . S
H371 C382 0.950 . S
H372 C384 0.950 . S
H373 C385 0.950 . S
C374 H366 0.950 1_565 S
C374 C375 1.386 . S
C374 C376 1.391 . S
C375 C374 1.386 . S
C375 C379 1.393 . S
C376 H368 0.950 . S
C376 C374 1.391 . S
C376 C377 1.400 . S
C377 C376 1.400 . S
C377 C378 1.398 . S
C377 C383 1.491 . S
C378 H369 0.950 . S
C378 C377 1.398 . S
C378 C379 1.391 . S
C379 H367 0.950 . S
C379 C375 1.393 . S
C379 C378 1.391 . S
C380 H370 0.950 . S
C380 C381 1.386 . S
C380 C382 1.391 . S
C381 C380 1.386 . S
C381 C385 1.393 . S
C382 H371 0.950 . S
C382 C380 1.391 . S
C382 C383 1.400 . S
C383 C377 1.491 . S
C383 C382 1.400 . S
C383 C384 1.398 . S
C384 H372 0.950 . S
C384 C383 1.398 . S
C384 C385 1.391 . S
C385 H373 0.950 . S
C385 C381 1.393 . S
C385 C384 1.391 . S
H386 C394 0.950 . S
H387 C399 0.950 . S
H388 C396 0.950 . S
H389 C398 0.950 . S
H390 C400 0.950 . S
H391 C402 0.950 1_655 S
H392 C404 0.950 . S
H393 C405 0.950 . S
C394 H386 0.950 . S
C394 C395 1.386 . S
C394 C396 1.391 . S
C395 C394 1.386 . S
C395 C399 1.393 . S
C396 H388 0.950 . S
C396 C394 1.391 . S
C396 C397 1.400 . S
C397 C396 1.400 . S
C397 C398 1.398 . S
C397 C403 1.491 . S
C398 H389 0.950 . S
C398 C397 1.398 . S
C398 C399 1.391 . S
C399 H387 0.950 . S
C399 C395 1.393 . S
C399 C398 1.391 . S
C400 H390 0.950 . S
C400 C401 1.386 . S
C400 C402 1.391 . S
C401 C400 1.386 . S
C401 C405 1.393 . S
C402 H391 0.950 1_455 S
C402 C400 1.391 . S
C402 C403 1.400 1_455 S
C403 C397 1.491 . S
C403 C402 1.400 1_655 S
C403 C404 1.398 . S
C404 H392 0.950 . S
C404 C403 1.398 . S
C404 C405 1.391 1_655 S
C405 H393 0.950 . S
C405 C401 1.393 . S
C405 C404 1.391 1_455 S
H406 C414 0.950 . S
H407 C419 0.950 . S
H408 C416 0.950 . S
H409 C418 0.950 . S
H410 C420 0.950 . S
H411 C422 0.950 . S
H412 C424 0.950 . S
H413 C425 0.950 1_655 S
C414 H406 0.950 . S
C414 C415 1.386 . S
C414 C416 1.391 . S
C415 C414 1.386 . S
C415 C419 1.393 . S
C416 H408 0.950 . S
C416 C414 1.391 . S
C416 C417 1.400 1_545 S
C417 C416 1.400 1_565 S
C417 C418 1.398 . S
C417 C423 1.491 . S
C418 H409 0.950 . S
C418 C417 1.398 . S
C418 C419 1.391 1_565 S
C419 H407 0.950 . S
C419 C415 1.393 . S
C419 C418 1.391 1_545 S
C420 H410 0.950 . S
C420 C421 1.386 . S
C420 C422 1.391 . S
C421 C420 1.386 . S
C421 C425 1.393 . S
C422 H411 0.950 . S
C422 C420 1.391 . S
C422 C423 1.400 . S
C423 C417 1.491 . S
C423 C422 1.400 . S
C423 C424 1.398 . S
C424 H412 0.950 . S
C424 C423 1.398 . S
C424 C425 1.391 . S
C425 H413 0.950 1_455 S
C425 C421 1.393 . S
C425 C424 1.391 . S
H426 C434 0.950 . S
H427 C439 0.950 . S
H428 C436 0.950 . S
H429 C438 0.950 1_556 S
H430 C440 0.950 . S
H431 C442 0.950 . S
H432 C444 0.950 1_554 S
H433 C445 0.950 . S
C434 H426 0.950 . S
C434 C435 1.386 . S
C434 C436 1.391 . S
C435 C434 1.386 . S
C435 C439 1.393 . S
C436 H428 0.950 . S
C436 C434 1.391 . S
C436 C437 1.400 . S
C437 C436 1.400 . S
C437 C438 1.398 . S
C437 C443 1.491 1_554 S
C438 H429 0.950 1_554 S
C438 C437 1.398 . S
C438 C439 1.391 . S
C439 H427 0.950 . S
C439 C435 1.393 . S
C439 C438 1.391 . S
C440 H430 0.950 . S
C440 C441 1.386 . S
C440 C442 1.391 . S
C441 C440 1.386 . S
C441 C445 1.393 . S
C442 H431 0.950 . S
C442 C440 1.391 . S
C442 C443 1.400 . S
C443 C437 1.491 1_556 S
C443 C442 1.400 . S
C443 C444 1.398 . S
C444 H432 0.950 1_556 S
C444 C443 1.398 . S
C444 C445 1.391 . S
C445 H433 0.950 . S
C445 C441 1.393 . S
C445 C444 1.391 . S
H446 C454 0.950 . S
H447 C459 0.950 . S
H448 C456 0.950 . S
H449 C458 0.950 . S
H450 C460 0.950 . S
H451 C462 0.950 . S
H452 C464 0.950 . S
H453 C465 0.950 . S
C454 H446 0.950 . S
C454 C455 1.386 . S
C454 C456 1.391 1_655 S
C455 C454 1.386 . S
C455 C459 1.393 . S
C456 H448 0.950 . S
C456 C454 1.391 1_455 S
C456 C457 1.400 1_455 S
C457 C456 1.400 1_655 S
C457 C458 1.398 . S
C457 C463 1.491 1_655 S
C458 H449 0.950 . S
C458 C457 1.398 . S
C458 C459 1.391 . S
C459 H447 0.950 . S
C459 C455 1.393 . S
C459 C458 1.391 . S
C460 H450 0.950 . S
C460 C461 1.386 . S
C460 C462 1.391 1_455 S
C461 C460 1.386 . S
C461 C465 1.393 . S
C462 H451 0.950 . S
C462 C460 1.391 1_655 S
C462 C463 1.400 1_655 S
C463 C457 1.491 1_455 S
C463 C462 1.400 1_455 S
C463 C464 1.398 . S
C464 H452 0.950 . S
C464 C463 1.398 . S
C464 C465 1.391 . S
C465 H453 0.950 . S
C465 C461 1.393 . S
C465 C464 1.391 . S
H466 C474 0.950 . S
H467 C479 0.950 . S
H468 C476 0.950 1_545 S
H469 C478 0.950 1_556 S
H470 C480 0.950 . S
H471 C482 0.950 . S
H472 C484 0.950 1_554 S
H473 C485 0.950 . S
C474 H466 0.950 . S
C474 C475 1.386 . S
C474 C476 1.391 . S
C475 C474 1.386 . S
C475 C479 1.393 . S
C476 H468 0.950 1_565 S
C476 C474 1.391 . S
C476 C477 1.400 . S
C477 C476 1.400 . S
C477 C478 1.398 . S
C477 C483 1.491 1_554 S
C478 H469 0.950 1_554 S
C478 C477 1.398 . S
C478 C479 1.391 . S
C479 H467 0.950 . S
C479 C475 1.393 . S
C479 C478 1.391 . S
C480 H470 0.950 . S
C480 C481 1.386 1_565 S
C480 C482 1.391 . S
C481 C480 1.386 1_545 S
C481 C485 1.393 . S
C482 H471 0.950 . S
C482 C480 1.391 . S
C482 C483 1.400 . S
C483 C477 1.491 1_556 S
C483 C482 1.400 . S
C483 C484 1.398 1_565 S
C484 H472 0.950 1_556 S
C484 C483 1.398 1_545 S
C484 C485 1.391 . S
C485 H473 0.950 . S
C485 C481 1.393 . S
C485 C484 1.391 . S
H486 C494 0.950 . S
H487 C499 0.950 . S
H488 C496 0.950 . S
H489 C498 0.950 . S
H490 C500 0.950 . S
H491 C502 0.950 . S
H492 C504 0.950 . S
H493 C505 0.950 . S
C494 H486 0.950 . S
C494 C495 1.386 . S
C494 C496 1.391 . S
C495 C494 1.386 . S
C495 C499 1.393 . S
C496 H488 0.950 . S
C496 C494 1.391 . S
C496 C497 1.400 . S
C497 C496 1.400 . S
C497 C498 1.398 . S
C497 C503 1.491 . S
C498 H489 0.950 . S
C498 C497 1.398 . S
C498 C499 1.391 . S
C499 H487 0.950 . S
C499 C495 1.393 . S
C499 C498 1.391 . S
C500 H490 0.950 . S
C500 C501 1.386 . S
C500 C502 1.391 . S
C501 C500 1.386 . S
C501 C505 1.393 . S
C502 H491 0.950 . S
C502 C500 1.391 . S
C502 C503 1.400 . S
C503 C497 1.491 . S
C503 C502 1.400 . S
C503 C504 1.398 . S
C504 H492 0.950 . S
C504 C503 1.398 . S
C504 C505 1.391 . S
C505 H493 0.950 . S
C505 C501 1.393 . S
C505 C504 1.391 . S
H506 C514 0.950 . S
H507 C519 0.950 . S
H508 C516 0.950 . S
H509 C518 0.950 1_554 S
H510 C520 0.950 . S
H511 C522 0.950 1_655 S
H512 C524 0.950 1_556 S
H513 C525 0.950 . S
C514 H506 0.950 . S
C514 C515 1.386 . S
C514 C516 1.391 1_655 S
C515 C514 1.386 . S
C515 C519 1.393 . S
C516 H508 0.950 . S
C516 C514 1.391 1_455 S
C516 C517 1.400 . S
C517 C516 1.400 . S
C517 C518 1.398 1_455 S
C517 C523 1.491 1_556 S
C518 H509 0.950 1_556 S
C518 C517 1.398 1_655 S
C518 C519 1.391 . S
C519 H507 0.950 . S
C519 C515 1.393 . S
C519 C518 1.391 . S
C520 H510 0.950 . S
C520 C521 1.386 . S
C520 C522 1.391 . S
C521 C520 1.386 . S
C521 C525 1.393 . S
C522 H511 0.950 1_455 S
C522 C520 1.391 . S
C522 C523 1.400 . S
C523 C517 1.491 1_554 S
C523 C522 1.400 . S
C523 C524 1.398 . S
C524 H512 0.950 1_554 S
C524 C523 1.398 . S
C524 C525 1.391 . S
C525 H513 0.950 . S
C525 C521 1.393 . S
C525 C524 1.391 . S
H526 C534 0.950 . S
H527 C539 0.950 . S
H528 C536 0.950 1_565 S
H529 C538 0.950 . S
H530 C540 0.950 . S
H531 C542 0.950 . S
H532 C544 0.950 . S
H533 C545 0.950 . S
C534 H526 0.950 . S
C534 C535 1.386 . S
C534 C536 1.391 . S
C535 C534 1.386 . S
C535 C539 1.393 . S
C536 H528 0.950 1_545 S
C536 C534 1.391 . S
C536 C537 1.400 . S
C537 C536 1.400 . S
C537 C538 1.398 . S
C537 C543 1.491 . S
C538 H529 0.950 . S
C538 C537 1.398 . S
C538 C539 1.391 . S
C539 H527 0.950 . S
C539 C535 1.393 . S
C539 C538 1.391 . S
C540 H530 0.950 . S
C540 C541 1.386 . S
C540 C542 1.391 1_565 S
C541 C540 1.386 . S
C541 C545 1.393 . S
C542 H531 0.950 . S
C542 C540 1.391 1_545 S
C542 C543 1.400 . S
C543 C537 1.491 . S
C543 C542 1.400 . S
C543 C544 1.398 1_545 S
C544 H532 0.950 . S
C544 C543 1.398 1_565 S
C544 C545 1.391 . S
C545 H533 0.950 . S
C545 C541 1.393 . S
C545 C544 1.391 . S
H546 C554 0.950 . S
H547 C559 0.950 . S
H548 C556 0.950 . S
H549 C558 0.950 . S
H550 C560 0.950 . S
H551 C562 0.950 . S
H552 C564 0.950 . S
H553 C565 0.950 . S
C554 H546 0.950 . S
C554 C555 1.386 . S
C554 C556 1.391 . S
C555 C554 1.386 . S
C555 C559 1.393 . S
C556 H548 0.950 . S
C556 C554 1.391 . S
C556 C557 1.400 . S
C557 C556 1.400 . S
C557 C558 1.398 . S
C557 C563 1.491 1_556 S
C558 H549 0.950 . S
C558 C557 1.398 . S
C558 C559 1.391 . S
C559 H547 0.950 . S
C559 C555 1.393 . S
C559 C558 1.391 . S
C560 H550 0.950 . S
C560 C561 1.386 . S
C560 C562 1.391 . S
C561 C560 1.386 . S
C561 C565 1.393 . S
C562 H551 0.950 . S
C562 C560 1.391 . S
C562 C563 1.400 . S
C563 C557 1.491 1_554 S
C563 C562 1.400 . S
C563 C564 1.398 . S
C564 H552 0.950 . S
C564 C563 1.398 . S
C564 C565 1.391 . S
C565 H553 0.950 . S
C565 C561 1.393 . S
C565 C564 1.391 . S
H566 C574 0.950 . S
H567 C579 0.950 . S
H568 C576 0.950 1_655 S
H569 C578 0.950 . S
H570 C580 0.949 1_455 S
H571 C582 0.950 . S
H572 C584 0.950 . S
H573 C585 0.950 . S
C574 H566 0.950 . S
C574 C575 1.386 . S
C574 C576 1.391 . S
C575 C574 1.386 . S
C575 C579 1.393 . S
C576 H568 0.950 1_455 S
C576 C574 1.391 . S
C576 C577 1.400 . S
C577 C576 1.400 . S
C577 C578 1.398 . S
C577 C583 1.491 . S
C578 H569 0.950 . S
C578 C577 1.398 . S
C578 C579 1.391 . S
C579 H567 0.950 . S
C579 C575 1.393 . S
C579 C578 1.391 . S
C580 H570 0.949 1_655 S
C580 C581 1.387 . S
C580 C582 1.391 1_655 S
C581 C580 1.387 . S
C581 C585 1.393 . S
C582 H571 0.950 . S
C582 C580 1.391 1_455 S
C582 C583 1.400 . S
C583 C577 1.491 . S
C583 C582 1.400 . S
C583 C584 1.398 1_455 S
C584 H572 0.950 . S
C584 C583 1.398 1_655 S
C584 C585 1.391 . S
C585 H573 0.950 . S
C585 C581 1.393 . S
C585 C584 1.391 . S
H586 C594 0.950 . S
H587 C599 0.950 . S
H588 C596 0.950 . S
H589 C598 0.950 1_554 S
H590 C600 0.950 . S
H591 C602 0.950 . S
H592 C604 0.950 . S
H593 C605 0.950 . S
C594 H586 0.950 . S
C594 C595 1.386 . S
C594 C596 1.391 . S
C595 C594 1.386 . S
C595 C599 1.393 . S
C596 H588 0.950 . S
C596 C594 1.391 . S
C596 C597 1.400 . S
C597 C596 1.400 . S
C597 C598 1.398 . S
C597 C603 1.491 1_556 S
C598 H589 0.950 1_556 S
C598 C597 1.398 . S
C598 C599 1.391 . S
C599 H587 0.950 . S
C599 C595 1.393 . S
C599 C598 1.391 . S
C600 H590 0.950 . S
C600 C601 1.386 . S
C600 C602 1.391 1_565 S
C601 C600 1.386 . S
C601 C605 1.393 . S
C602 H591 0.950 . S
C602 C600 1.391 1_545 S
C602 C603 1.400 . S
C603 C597 1.491 1_554 S
C603 C602 1.400 . S
C603 C604 1.398 1_545 S
C604 H592 0.950 . S
C604 C603 1.398 1_565 S
C604 C605 1.391 . S
C605 H593 0.950 . S
C605 C601 1.393 . S
C605 C604 1.391 . S
H606 C614 0.950 . S
H607 C619 0.950 . S
H608 C616 0.950 . S
H609 C618 0.950 . S
H610 C620 0.950 . S
H611 C622 0.950 . S
H612 C624 0.950 . S
H613 C625 0.950 . S
C614 H606 0.950 . S
C614 C615 1.386 . S
C614 C616 1.391 . S
C615 C614 1.386 . S
C615 C619 1.393 . S
C616 H608 0.950 . S
C616 C614 1.391 . S
C616 C617 1.400 . S
C617 C616 1.400 . S
C617 C618 1.398 . S
C617 C623 1.491 . S
C618 H609 0.950 . S
C618 C617 1.398 . S
C618 C619 1.391 . S
C619 H607 0.950 . S
C619 C615 1.393 . S
C619 C618 1.391 . S
C620 H610 0.950 . S
C620 C621 1.386 . S
C620 C622 1.391 . S
C621 C620 1.386 . S
C621 C625 1.393 . S
C622 H611 0.950 . S
C622 C620 1.391 . S
C622 C623 1.400 . S
C623 C617 1.491 . S
C623 C622 1.400 . S
C623 C624 1.398 . S
C624 H612 0.950 . S
C624 C623 1.398 . S
C624 C625 1.391 . S
C625 H613 0.950 . S
C625 C621 1.393 . S
C625 C624 1.391 . S
H626 C634 0.950 . S
H627 C639 0.950 . S
H628 C636 0.950 . S
H629 C638 0.950 1_556 S
H630 C640 0.950 . S
H631 C642 0.950 . S
H632 C644 0.950 . S
H633 C645 0.950 . S
C634 H626 0.950 . S
C634 C635 1.386 1_655 S
C634 C636 1.391 . S
C635 C634 1.386 1_455 S
C635 C639 1.393 . S
C636 H628 0.950 . S
C636 C634 1.391 . S
C636 C637 1.400 . S
C637 C636 1.400 . S
C637 C638 1.398 1_655 S
C637 C643 1.491 1_554 S
C638 H629 0.950 1_554 S
C638 C637 1.398 1_455 S
C638 C639 1.391 . S
C639 H627 0.950 . S
C639 C635 1.393 . S
C639 C638 1.391 . S
C640 H630 0.950 . S
C640 C641 1.386 . S
C640 C642 1.391 . S
C641 C640 1.386 . S
C641 C645 1.393 . S
C642 H631 0.950 . S
C642 C640 1.391 . S
C642 C643 1.400 . S
C643 C637 1.491 1_556 S
C643 C642 1.400 . S
C643 C644 1.398 . S
C644 H632 0.950 . S
C644 C643 1.398 . S
C644 C645 1.391 . S
C645 H633 0.950 . S
C645 C641 1.393 . S
C645 C644 1.391 . S
H646 C654 0.950 . S
H647 C659 0.950 . S
H648 C656 0.950 . S
H649 C658 0.950 . S
H650 C660 0.950 . S
H651 C662 0.950 . S
H652 C664 0.950 . S
H653 C665 0.950 . S
C654 H646 0.950 . S
C654 C655 1.386 . S
C654 C656 1.391 . S
C655 C654 1.386 . S
C655 C659 1.393 . S
C656 H648 0.950 . S
C656 C654 1.391 . S
C656 C657 1.400 1_545 S
C657 C656 1.400 1_565 S
C657 C658 1.398 . S
C657 C663 1.491 . S
C658 H649 0.950 . S
C658 C657 1.398 . S
C658 C659 1.391 1_565 S
C659 H647 0.950 . S
C659 C655 1.393 . S
C659 C658 1.391 1_545 S
C660 H650 0.950 . S
C660 C661 1.386 . S
C660 C662 1.391 . S
C661 C660 1.386 . S
C661 C665 1.393 . S
C662 H651 0.950 . S
C662 C660 1.391 . S
C662 C663 1.400 . S
C663 C657 1.491 . S
C663 C662 1.400 . S
C663 C664 1.398 . S
C664 H652 0.950 . S
C664 C663 1.398 . S
C664 C665 1.391 . S
C665 H653 0.950 . S
C665 C661 1.393 . S
C665 C664 1.391 . S
C195 C11 1.314 . S
C201 C148 1.343 . S
C215 C179 1.353 . S
C221 C49 1.337 . S
C235 C24 1.372 . S
C241 C80 1.357 . S
C255 C31 1.340 . S
C261 C104 1.301 . S
C275 C135 1.331 . S
C281 C62 1.354 . S
C295 C166 1.279 . S
C301 C117 1.314 . S
C315 C18 0.962 . S
C321 C124 1.011 1_545 S
C335 C42 0.980 . S
C341 C155 1.002 . S
C355 C0 1.061 1_655 S
C361 C73 1.035 . S
C375 C55 0.983 1_565 S
C381 C111 0.951 . S
C395 C86 1.005 . S
C401 C142 0.978 . S
C415 C173 0.950 . S
C421 C93 1.013 1_455 S
C435 C2 1.835 . S
C441 C165 1.890 . S
C455 C32 1.899 . S
C461 C10 1.837 . S
C475 C63 1.730 . S
C481 C58 1.649 . S
C495 C95 1.695 . S
C501 C89 1.696 . S
C515 C103 1.780 . S
C521 C126 1.721 . S
C535 C157 1.633 . S
C541 C134 1.682 . S
C555 C120 1.402 . S
C561 C64 1.370 . S
C575 C151 1.432 . S
C581 C94 1.323 . S
C595 C182 1.511 . S
C601 C125 1.427 . S
C615 C156 1.301 . S
C621 C27 1.347 . S
C635 C1 1.248 . S
C641 C41 1.226 . S
C655 C33 1.461 . S
C661 C72 1.411 . S
