# Generated by pormake.
# Topology wkj, (6)-cn, num edge types: 1
# Building blocks:
#     Node 0, Type 0, BuildingBlock: MIFKUJ_clean_sbu_0, # of connection points: 6
#     Node 1, Type 0, BuildingBlock: MIFKUJ_clean_sbu_0, # of connection points: 6
#     Node 2, Type 0, BuildingBlock: MIFKUJ_clean_sbu_0, # of connection points: 6
#     Node 3, Type 0, BuildingBlock: MIFKUJ_clean_sbu_0, # of connection points: 6
#     Node 4, Type 0, BuildingBlock: MIFKUJ_clean_sbu_0, # of connection points: 6
#     Node 5, Type 0, BuildingBlock: MIFKUJ_clean_sbu_0, # of connection points: 6
#     Node 6, Type 0, BuildingBlock: MIFKUJ_clean_sbu_0, # of connection points: 6
#     Node 7, Type 0, BuildingBlock: MIFKUJ_clean_sbu_0, # of connection points: 6
#     Node 8, Type 0, BuildingBlock: MIFKUJ_clean_sbu_0, # of connection points: 6
#     Node 9, Type 0, BuildingBlock: MIFKUJ_clean_sbu_0, # of connection points: 6
#     Node 10, Type 0, BuildingBlock: MIFKUJ_clean_sbu_0, # of connection points: 6
#     Node 11, Type 0, BuildingBlock: MIFKUJ_clean_sbu_0, # of connection points: 6
#     Edge 12, Type (0, 0), BuildingBlock: ZUJKAS_clean_linker_0, # of connection points: 2
#     Edge 13, Type (0, 0), BuildingBlock: ZUJKAS_clean_linker_0, # of connection points: 2
#     Edge 14, Type (0, 0), BuildingBlock: ZUJKAS_clean_linker_0, # of connection points: 2
#     Edge 15, Type (0, 0), BuildingBlock: ZUJKAS_clean_linker_0, # of connection points: 2
#     Edge 16, Type (0, 0), BuildingBlock: ZUJKAS_clean_linker_0, # of connection points: 2
#     Edge 17, Type (0, 0), BuildingBlock: ZUJKAS_clean_linker_0, # of connection points: 2
#     Edge 18, Type (0, 0), BuildingBlock: ZUJKAS_clean_linker_0, # of connection points: 2
#     Edge 19, Type (0, 0), BuildingBlock: ZUJKAS_clean_linker_0, # of connection points: 2
#     Edge 20, Type (0, 0), BuildingBlock: ZUJKAS_clean_linker_0, # of connection points: 2
#     Edge 21, Type (0, 0), BuildingBlock: ZUJKAS_clean_linker_0, # of connection points: 2
#     Edge 22, Type (0, 0), BuildingBlock: ZUJKAS_clean_linker_0, # of connection points: 2
#     Edge 23, Type (0, 0), BuildingBlock: ZUJKAS_clean_linker_0, # of connection points: 2
#     Edge 24, Type (0, 0), BuildingBlock: ZUJKAS_clean_linker_0, # of connection points: 2
#     Edge 25, Type (0, 0), BuildingBlock: ZUJKAS_clean_linker_0, # of connection points: 2
#     Edge 26, Type (0, 0), BuildingBlock: ZUJKAS_clean_linker_0, # of connection points: 2
#     Edge 27, Type (0, 0), BuildingBlock: ZUJKAS_clean_linker_0, # of connection points: 2
#     Edge 28, Type (0, 0), BuildingBlock: ZUJKAS_clean_linker_0, # of connection points: 2
#     Edge 29, Type (0, 0), BuildingBlock: ZUJKAS_clean_linker_0, # of connection points: 2
#     Edge 30, Type (0, 0), BuildingBlock: ZUJKAS_clean_linker_0, # of connection points: 2
#     Edge 31, Type (0, 0), BuildingBlock: ZUJKAS_clean_linker_0, # of connection points: 2
#     Edge 32, Type (0, 0), BuildingBlock: ZUJKAS_clean_linker_0, # of connection points: 2
#     Edge 33, Type (0, 0), BuildingBlock: ZUJKAS_clean_linker_0, # of connection points: 2
#     Edge 34, Type (0, 0), BuildingBlock: ZUJKAS_clean_linker_0, # of connection points: 2
#     Edge 35, Type (0, 0), BuildingBlock: ZUJKAS_clean_linker_0, # of connection points: 2
#     Edge 36, Type (0, 0), BuildingBlock: ZUJKAS_clean_linker_0, # of connection points: 2
#     Edge 37, Type (0, 0), BuildingBlock: ZUJKAS_clean_linker_0, # of connection points: 2
#     Edge 38, Type (0, 0), BuildingBlock: ZUJKAS_clean_linker_0, # of connection points: 2
#     Edge 39, Type (0, 0), BuildingBlock: ZUJKAS_clean_linker_0, # of connection points: 2
#     Edge 40, Type (0, 0), BuildingBlock: ZUJKAS_clean_linker_0, # of connection points: 2
#     Edge 41, Type (0, 0), BuildingBlock: ZUJKAS_clean_linker_0, # of connection points: 2
#     Edge 42, Type (0, 0), BuildingBlock: ZUJKAS_clean_linker_0, # of connection points: 2
#     Edge 43, Type (0, 0), BuildingBlock: ZUJKAS_clean_linker_0, # of connection points: 2
#     Edge 44, Type (0, 0), BuildingBlock: ZUJKAS_clean_linker_0, # of connection points: 2
#     Edge 45, Type (0, 0), BuildingBlock: ZUJKAS_clean_linker_0, # of connection points: 2
#     Edge 46, Type (0, 0), BuildingBlock: ZUJKAS_clean_linker_0, # of connection points: 2
#     Edge 47, Type (0, 0), BuildingBlock: ZUJKAS_clean_linker_0, # of connection points: 2
# Relax obj value: 0.315
# Max RMSD: 0.207
# Mean RMSD: 0.207
data_MOF--net-wkj--node1-MIFKUJ_clean_sbu_0--edge1-ZUJKAS_clean_linker_0
_symmetry_space_group_name_H-M    P1
_symmetry_Int_Tables_number       1
_symmetry_cell_setting            triclinic
loop_
_symmetry_equiv_pos_as_xyz
'x, y, z'
_cell_length_a     60.3428
_cell_length_b     60.286159
_cell_length_c     38.061094
_cell_angle_alpha  89.965446
_cell_angle_beta   90.087678
_cell_angle_gamma 119.87716
loop_
_atom_site_label
_atom_site_type_symbol
_atom_site_fract_x
_atom_site_fract_y
_atom_site_fract_z
_atom_type_partial_charge
Zn0 Zn 0.45516 0.1005 0.20657 0.0
Zn1 Zn 0.44359 0.10185 0.31711 0.0
C2 C 0.41065 0.05834 0.17105 0.0
O3 O 0.41147 0.04379 0.19615 0.0
C4 C 0.49409 0.13059 0.35264 0.0
O5 O 0.49764 0.15092 0.33521 0.0
O6 O 0.4866 0.1216 0.17676 0.0
O7 O 0.44862 0.122 0.24258 0.0
O8 O 0.44397 0.13252 0.29677 0.0
C9 C 0.48558 0.13278 0.14896 0.0
O10 O 0.46443 0.13308 0.14175 0.0
O11 O 0.42609 0.08229 0.17205 0.0
C12 C 0.39906 0.0593 0.34644 0.0
O13 O 0.40552 0.04635 0.32513 0.0
O14 O 0.41229 0.08351 0.34675 0.0
O15 O 0.44171 0.08229 0.27459 0.0
O16 O 0.46277 0.07617 0.23345 0.0
O17 O 0.47368 0.1094 0.3479 0.0
C18 C 0.44435 0.1359 0.26362 0.0
C19 C 0.457 0.0748 0.26568 0.0
Zn20 Zn 0.36501 0.45853 0.53014 0.0
Zn21 Zn 0.34291 0.44189 0.6352 0.0
C22 C 0.36598 0.41821 0.49231 0.0
O23 O 0.38794 0.4279 0.50895 0.0
C24 C 0.35052 0.48086 0.68347 0.0
O25 O 0.3257 0.46577 0.68654 0.0
O26 O 0.37927 0.4883 0.49659 0.0
O27 O 0.34129 0.45812 0.56822 0.0
O28 O 0.3126 0.43876 0.6088 0.0
C29 C 0.37417 0.50594 0.49001 0.0
O30 O 0.35663 0.50758 0.50837 0.0
O31 O 0.35104 0.42682 0.49933 0.0
C32 C 0.34659 0.41818 0.69683 0.0
O33 O 0.36675 0.44098 0.7002 0.0
O34 O 0.33202 0.41334 0.6704 0.0
O35 O 0.36367 0.4384 0.59641 0.0
O36 O 0.39452 0.46258 0.56067 0.0
O37 O 0.36239 0.47569 0.66029 0.0
C38 C 0.31795 0.44438 0.57651 0.0
C39 C 0.38724 0.45334 0.59132 0.0
Zn40 Zn 0.87835 0.35425 0.87818 0.0
Zn41 Zn 0.88551 0.33521 0.98086 0.0
C42 C 0.91288 0.36175 0.82671 0.0
O43 O 0.91263 0.38334 0.82979 0.0
C44 C 0.85604 0.35621 0.01755 0.0
O45 O 0.83622 0.34253 0.9972 0.0
O46 O 0.85748 0.36334 0.84512 0.0
O47 O 0.85863 0.33123 0.91942 0.0
O48 O 0.85558 0.30417 0.95969 0.0
C49 C 0.85053 0.35183 0.81567 0.0
O50 O 0.85407 0.33235 0.8098 0.0
O51 O 0.89927 0.34361 0.84783 0.0
C52 C 0.92844 0.32706 0.0002 0.0
O53 O 0.93814 0.33605 0.96906 0.0
O54 O 0.90705 0.3248 0.00859 0.0
O55 O 0.9036 0.35672 0.93879 0.0
O56 O 0.90302 0.38585 0.90552 0.0
O57 O 0.87624 0.35491 0.01393 0.0
C58 C 0.8523 0.3085 0.92792 0.0
C59 C 0.90841 0.37956 0.93491 0.0
Zn60 Zn 0.51782 0.88514 0.19673 0.0
Zn61 Zn 0.54625 0.89927 0.29888 0.0
C62 C 0.54082 0.9142 0.13932 0.0
O63 O 0.5191 0.91405 0.143 0.0
C64 C 0.49771 0.86903 0.33702 0.0
O65 O 0.4954 0.8491 0.31979 0.0
O66 O 0.48445 0.86325 0.17033 0.0
O67 O 0.52626 0.8709 0.24006 0.0
O68 O 0.54661 0.86736 0.28469 0.0
C69 C 0.48333 0.85002 0.1436 0.0
O70 O 0.5029 0.84701 0.13623 0.0
O71 O 0.54612 0.90142 0.16097 0.0
C72 C 0.5772 0.93923 0.34361 0.0
O73 O 0.5563 0.94085 0.34288 0.0
O74 O 0.57807 0.92192 0.32579 0.0
O75 O 0.54594 0.91616 0.25288 0.0
O76 O 0.51623 0.91512 0.219 0.0
O77 O 0.51644 0.89112 0.33048 0.0
C78 C 0.53953 0.86185 0.25291 0.0
C79 C 0.53076 0.92427 0.2457 0.0
Zn80 Zn 0.63059 0.52093 0.54236 0.0
Zn81 Zn 0.65099 0.55249 0.64027 0.0
C82 C 0.62752 0.54588 0.48503 0.0
O83 O 0.60522 0.5249 0.48802 0.0
C84 C 0.64581 0.51895 0.69679 0.0
O85 O 0.66972 0.53662 0.70215 0.0
O86 O 0.61791 0.48796 0.51484 0.0
O87 O 0.65339 0.5259 0.58482 0.0
O88 O 0.68233 0.55516 0.61902 0.0
C89 C 0.63118 0.48679 0.48973 0.0
O90 O 0.65448 0.50588 0.48496 0.0
O91 O 0.64474 0.55006 0.50759 0.0
C92 C 0.64048 0.58003 0.68879 0.0
O93 O 0.61964 0.55752 0.68956 0.0
O94 O 0.65836 0.58351 0.66805 0.0
O95 O 0.63054 0.54961 0.59713 0.0
O96 O 0.60006 0.52067 0.56527 0.0
O97 O 0.63389 0.52122 0.67078 0.0
C98 C 0.67652 0.54289 0.59015 0.0
C99 C 0.60691 0.53519 0.59203 0.0
Zn100 Zn 0.08583 0.62099 0.86277 0.0
Zn101 Zn 0.07999 0.63789 0.96823 0.0
C102 C 0.04597 0.61361 0.81615 0.0
O103 O 0.03687 0.59022 0.82811 0.0
C104 C 0.11148 0.62296 0.00947 0.0
O105 O 0.13073 0.64384 0.99645 0.0
O106 O 0.106 0.60978 0.83283 0.0
O107 O 0.10855 0.65049 0.89655 0.0
O108 O 0.11206 0.66646 0.95041 0.0
C109 C 0.12159 0.62431 0.80958 0.0
O110 O 0.12671 0.64815 0.80747 0.0
O111 O 0.067 0.63132 0.82836 0.0
C112 C 0.04508 0.63474 0.01789 0.0
O113 O 0.04244 0.61179 0.01902 0.0
O114 O 0.06044 0.65074 0.99577 0.0
O115 O 0.06323 0.62035 0.92439 0.0
O116 O 0.06089 0.59033 0.89087 0.0
O117 O 0.0888 0.61661 0.00031 0.0
C118 C 0.12096 0.66766 0.91971 0.0
C119 C 0.05536 0.59692 0.91957 0.0
Zn120 Zn 0.88106 0.51913 0.46029 0.0
Zn121 Zn 0.90181 0.54929 0.36188 0.0
C122 C 0.90456 0.54418 0.52036 0.0
O123 O 0.90341 0.52186 0.52204 0.0
C124 C 0.87229 0.50332 0.32079 0.0
O125 O 0.85301 0.50555 0.33238 0.0
O126 O 0.85786 0.48671 0.48786 0.0
O127 O 0.86724 0.52395 0.41356 0.0
O128 O 0.86942 0.54936 0.37141 0.0
C129 C 0.84493 0.48805 0.51336 0.0
O130 O 0.84378 0.5091 0.51736 0.0
O131 O 0.89508 0.54924 0.49372 0.0
C132 C 0.94355 0.58194 0.31943 0.0
O133 O 0.94564 0.56128 0.31851 0.0
O134 O 0.92581 0.58172 0.33749 0.0
O135 O 0.91417 0.54818 0.41062 0.0
O136 O 0.91323 0.51871 0.44453 0.0
O137 O 0.89478 0.51906 0.33131 0.0
C138 C 0.86045 0.53923 0.40108 0.0
C139 C 0.92368 0.53451 0.41944 0.0
Zn140 Zn 0.36811 0.91157 0.78648 0.0
Zn141 Zn 0.34454 0.89897 0.67884 0.0
C142 C 0.36912 0.93556 0.85083 0.0
O143 O 0.3856 0.92782 0.85677 0.0
C144 C 0.35464 0.86349 0.63785 0.0
O145 O 0.3311 0.84613 0.64584 0.0
O146 O 0.37964 0.89084 0.81529 0.0
O147 O 0.33947 0.88867 0.75355 0.0
O148 O 0.31617 0.87068 0.70668 0.0
C149 C 0.36504 0.87039 0.83191 0.0
O150 O 0.34022 0.85957 0.8276 0.0
O151 O 0.35903 0.93223 0.82047 0.0
C152 C 0.32159 0.90657 0.61777 0.0
O153 O 0.32143 0.88571 0.60743 0.0
O154 O 0.33034 0.9157 0.64795 0.0
O155 O 0.36709 0.92404 0.71514 0.0
O156 O 0.39722 0.93297 0.75346 0.0
O157 O 0.36374 0.88613 0.64957 0.0
C158 C 0.31881 0.87162 0.73995 0.0
C159 C 0.39001 0.93029 0.72155 0.0
Zn160 Zn 0.47087 0.36852 0.1205 0.0
Zn161 Zn 0.44651 0.34558 0.02118 0.0
C162 C 0.44657 0.37234 0.17789 0.0
O163 O 0.46682 0.39489 0.17256 0.0
C164 C 0.48106 0.35754 0.96653 0.0
O165 O 0.46289 0.33431 0.95848 0.0
O166 O 0.50403 0.38321 0.14839 0.0
O167 O 0.46822 0.34565 0.08033 0.0
O168 O 0.44633 0.31537 0.04303 0.0
C169 C 0.50464 0.3691 0.17285 0.0
O170 O 0.48544 0.34567 0.17596 0.0
O171 O 0.44216 0.35434 0.1565 0.0
C172 C 0.39535 0.32765 0.99369 0.0
O173 O 0.38895 0.32843 0.02646 0.0
O174 O 0.41819 0.33369 0.98646 0.0
O175 O 0.43985 0.36377 0.06142 0.0
O176 O 0.46704 0.39565 0.09412 0.0
O177 O 0.47931 0.36752 0.99507 0.0
C178 C 0.45489 0.32194 0.07396 0.0
C179 C 0.45263 0.38762 0.06709 0.0
Zn180 Zn 0.07364 0.44703 0.46207 0.0
Zn181 Zn 0.08778 0.44218 0.3528 0.0
C182 C 0.04102 0.42283 0.51697 0.0
O183 O 0.04033 0.44404 0.51185 0.0
C184 C 0.11769 0.4809 0.30388 0.0
O185 O 0.12986 0.46791 0.3041 0.0
O186 O 0.09154 0.47844 0.49278 0.0
O187 O 0.09981 0.44499 0.43047 0.0
O188 O 0.11682 0.44371 0.37957 0.0
C189 C 0.11344 0.48711 0.50681 0.0
O190 O 0.12707 0.47616 0.49976 0.0
O191 O 0.05405 0.41753 0.49582 0.0
C192 C 0.05217 0.39503 0.31669 0.0
O193 O 0.03582 0.39299 0.34098 0.0
O194 O 0.07494 0.41359 0.31794 0.0
O195 O 0.06242 0.43619 0.39005 0.0
O196 O 0.05042 0.45322 0.43051 0.0
O197 O 0.09896 0.47424 0.32465 0.0
C198 C 0.11705 0.44362 0.41304 0.0
C199 C 0.05416 0.45104 0.39823 0.0
Zn200 Zn 0.63482 0.10604 0.80536 0.0
Zn201 Zn 0.64686 0.09882 0.69988 0.0
C202 C 0.62261 0.0663 0.85332 0.0
O203 O 0.59991 0.06314 0.84618 0.0
C204 C 0.63735 0.12971 0.65162 0.0
O205 O 0.66245 0.14251 0.65104 0.0
O206 O 0.62861 0.12994 0.8361 0.0
O207 O 0.6646 0.12288 0.77053 0.0
O208 O 0.67982 0.1277 0.71646 0.0
C209 C 0.63994 0.13647 0.8657 0.0
O210 O 0.65791 0.13084 0.87262 0.0
O211 O 0.64204 0.08423 0.83825 0.0
C212 C 0.63385 0.06087 0.64931 0.0
O213 O 0.61225 0.06096 0.65262 0.0
O214 O 0.65275 0.0758 0.66834 0.0
O215 O 0.63093 0.08177 0.74448 0.0
O216 O 0.60239 0.08184 0.77879 0.0
O217 O 0.62609 0.111 0.67272 0.0
C218 C 0.68319 0.1334 0.74903 0.0
C219 C 0.60789 0.07454 0.75061 0.0
Zn220 Zn 0.54012 0.62074 0.12954 0.0
Zn221 Zn 0.54546 0.63765 0.02017 0.0
C222 C 0.56537 0.61576 0.1854 0.0
O223 O 0.54453 0.59343 0.18153 0.0
C224 C 0.49882 0.62122 0.98028 0.0
O225 O 0.50106 0.64289 0.9913 0.0
O226 O 0.50859 0.60753 0.15983 0.0
O227 O 0.54126 0.64658 0.09464 0.0
O228 O 0.54196 0.6651 0.04473 0.0
C229 C 0.49989 0.62116 0.17249 0.0
O230 O 0.51068 0.64541 0.16373 0.0
O231 O 0.56999 0.63318 0.16299 0.0
C232 C 0.59252 0.64863 0.98661 0.0
O233 O 0.5904 0.62983 0.00645 0.0
O234 O 0.57571 0.65533 0.98865 0.0
O235 O 0.55163 0.61854 0.05841 0.0
O236 O 0.53575 0.59081 0.10063 0.0
O237 O 0.51512 0.61501 0.99007 0.0
C238 C 0.54238 0.66538 0.07814 0.0
C239 C 0.53713 0.59566 0.06801 0.0
H240 H 0.41343 0.15038 0.29559 0.0
H241 H 0.39615 0.17591 0.27041 0.0
H242 H 0.43889 0.18539 0.17525 0.0
H243 H 0.45528 0.15895 0.1997 0.0
H244 H 0.42082 0.22343 0.25304 0.0
H245 H 0.37209 0.16987 0.13396 0.0
H246 H 0.38118 0.15561 0.16881 0.0
H247 H 0.40348 0.17379 0.13439 0.0
C248 C 0.41912 0.15795 0.26928 0.0
C249 C 0.43582 0.15296 0.24955 0.0
C250 C 0.40899 0.17221 0.25484 0.0
C251 C 0.41563 0.18186 0.22066 0.0
C252 C 0.43266 0.17721 0.20116 0.0
H253 H 0.4787 0.31234 0.12648 0.0
H254 H 0.45894 0.27844 0.17039 0.0
C255 C 0.44241 0.16255 0.21532 0.0
C256 C 0.40764 0.19955 0.20673 0.0
H257 H 0.39448 0.2174 0.12837 0.0
C258 C 0.41411 0.22173 0.22619 0.0
C259 C 0.39794 0.197 0.17226 0.0
C260 C 0.38801 0.17257 0.15145 0.0
C261 C 0.41483 0.24292 0.21016 0.0
C262 C 0.40948 0.24179 0.17394 0.0
C263 C 0.39922 0.21839 0.15605 0.0
C264 C 0.42012 0.26514 0.15263 0.0
C265 C 0.42346 0.267 0.2313 0.0
C266 C 0.40485 0.26868 0.12807 0.0
C267 C 0.41623 0.28789 0.10292 0.0
C268 C 0.44289 0.30364 0.10226 0.0
C269 C 0.45807 0.3007 0.12741 0.0
C270 C 0.44675 0.28151 0.1525 0.0
H271 H 0.41662 0.26231 0.25885 0.0
H272 H 0.44466 0.278 0.23201 0.0
H273 H 0.41641 0.27928 0.21974 0.0
H274 H 0.38436 0.25592 0.12747 0.0
H275 H 0.40431 0.29005 0.08346 0.0
H276 H 0.27299 0.40011 0.58359 0.0
H277 H 0.2352 0.38662 0.54713 0.0
H278 H 0.27972 0.44762 0.47412 0.0
H279 H 0.31781 0.4606 0.50993 0.0
H280 H 0.22499 0.42641 0.54743 0.0
H281 H 0.22379 0.39346 0.41122 0.0
H282 H 0.24303 0.39076 0.44562 0.0
H283 H 0.25375 0.42073 0.42337 0.0
C284 C 0.27491 0.41 0.55902 0.0
C285 C 0.29791 0.432 0.55001 0.0
C286 C 0.2534 0.40207 0.53807 0.0
C287 C 0.25471 0.4163 0.50828 0.0
C288 C 0.27844 0.43622 0.49686 0.0
H289 H 0.16692 0.46595 0.39544 0.0
H290 H 0.19906 0.45757 0.42167 0.0
C291 C 0.30011 0.44389 0.51757 0.0
C292 C 0.23138 0.41565 0.49599 0.0
H293 H 0.19824 0.41323 0.42249 0.0
C294 C 0.2187 0.42297 0.52025 0.0
C295 C 0.22375 0.41162 0.46053 0.0
C296 C 0.23667 0.40348 0.43373 0.0
C297 C 0.19941 0.42783 0.50958 0.0
C298 C 0.19215 0.42441 0.47385 0.0
C299 C 0.20403 0.41593 0.44987 0.0
C300 C 0.17322 0.43079 0.46031 0.0
C301 C 0.18821 0.43803 0.53628 0.0
C302 C 0.1484 0.41902 0.47413 0.0
C303 C 0.13039 0.42451 0.46003 0.0
C304 C 0.13684 0.44105 0.43121 0.0
C305 C 0.16171 0.45308 0.41769 0.0
C306 C 0.1799 0.44819 0.43244 0.0
H307 H 0.20085 0.44626 0.55957 0.0
H308 H 0.18486 0.45301 0.52468 0.0
H309 H 0.16965 0.42214 0.54564 0.0
H310 H 0.14276 0.40511 0.49511 0.0
H311 H 0.1111 0.41483 0.47039 0.0
H312 H 0.87075 0.27562 0.92974 0.0
H313 H 0.86078 0.24078 0.8885 0.0
H314 H 0.81694 0.26499 0.82565 0.0
H315 H 0.82765 0.3002 0.86609 0.0
H316 H 0.81404 0.20452 0.88415 0.0
H317 H 0.84312 0.23919 0.74985 0.0
H318 H 0.85837 0.25956 0.78744 0.0
H319 H 0.82995 0.2574 0.76819 0.0
C320 C 0.85951 0.27376 0.90655 0.0
C321 C 0.84945 0.29006 0.90105 0.0
C322 C 0.85415 0.25413 0.88288 0.0
C323 C 0.83845 0.25049 0.85379 0.0
C324 C 0.82983 0.26791 0.84723 0.0
H325 H 0.69885 0.1592 0.81062 0.0
H326 H 0.74172 0.17912 0.83558 0.0
C327 C 0.83556 0.28778 0.87057 0.0
C328 C 0.82591 0.22576 0.83541 0.0
H329 H 0.79741 0.20338 0.75647 0.0
C330 C 0.81119 0.20386 0.85593 0.0
C331 C 0.82273 0.22446 0.79862 0.0
C332 C 0.8397 0.24646 0.77489 0.0
C333 C 0.79033 0.18234 0.84134 0.0
C334 C 0.78421 0.18321 0.80576 0.0
C335 C 0.80167 0.20309 0.78411 0.0
C336 C 0.75788 0.16792 0.79282 0.0
C337 C 0.77368 0.16007 0.86493 0.0
C338 C 0.75305 0.15599 0.75995 0.0
C339 C 0.72885 0.14561 0.74502 0.0
C340 C 0.70915 0.1468 0.76302 0.0
C341 C 0.71386 0.15829 0.79619 0.0
C342 C 0.73816 0.16908 0.81079 0.0
H343 H 0.7856 0.15668 0.88407 0.0
H344 H 0.76083 0.16462 0.88031 0.0
H345 H 0.76188 0.14226 0.8497 0.0
H346 H 0.76813 0.15523 0.74555 0.0
H347 H 0.72547 0.13624 0.71971 0.0
H348 H 0.56497 0.68152 0.1416 0.0
H349 H 0.57608 0.72189 0.17055 0.0
H350 H 0.54036 0.7407 0.08622 0.0
H351 H 0.53014 0.70079 0.05635 0.0
H352 H 0.58687 0.78109 0.10479 0.0
H353 H 0.52596 0.73552 0.22211 0.0
H354 H 0.54943 0.72611 0.2144 0.0
H355 H 0.52402 0.71762 0.18321 0.0
C356 C 0.55925 0.69417 0.1295 0.0
C357 C 0.5465 0.68813 0.09705 0.0
C358 C 0.56566 0.71716 0.14595 0.0
C359 C 0.55881 0.73399 0.13054 0.0
C360 C 0.54586 0.72788 0.09829 0.0
H361 H 0.53033 0.84859 0.18431 0.0
H362 H 0.54607 0.8248 0.15047 0.0
C363 C 0.53987 0.7051 0.08148 0.0
C364 C 0.56455 0.75778 0.14836 0.0
H365 H 0.55027 0.78022 0.22166 0.0
C366 C 0.57911 0.78104 0.1305 0.0
C367 C 0.55433 0.7574 0.18184 0.0
C368 C 0.53738 0.73283 0.2014 0.0
C369 C 0.58302 0.80404 0.14495 0.0
C370 C 0.57225 0.80346 0.17794 0.0
C371 C 0.55878 0.78042 0.19647 0.0
C372 C 0.57091 0.8253 0.19198 0.0
C373 C 0.59789 0.8286 0.12463 0.0
C374 C 0.58039 0.83406 0.22575 0.0
C375 C 0.57095 0.84705 0.24512 0.0
C376 C 0.55199 0.85145 0.23078 0.0
C377 C 0.54455 0.84498 0.19576 0.0
C378 C 0.55391 0.83187 0.17635 0.0
H379 H 0.61027 0.827 0.10439 0.0
H380 H 0.58431 0.83314 0.11114 0.0
H381 H 0.60992 0.84473 0.14255 0.0
H382 H 0.59333 0.82886 0.23818 0.0
H383 H 0.57751 0.85238 0.27192 0.0
H384 H 0.68397 0.51463 0.54224 0.0
H385 H 0.71945 0.52989 0.50078 0.0
H386 H 0.74518 0.60783 0.53214 0.0
H387 H 0.70974 0.59248 0.5741 0.0
H388 H 0.74218 0.56729 0.44571 0.0
H389 H 0.80003 0.59162 0.5691 0.0
H390 H 0.76563 0.57314 0.57004 0.0
H391 H 0.78136 0.6068 0.56081 0.0
C392 C 0.69675 0.53503 0.53934 0.0
C393 C 0.69466 0.55243 0.56133 0.0
C394 C 0.71687 0.54375 0.5157 0.0
C395 C 0.73495 0.56992 0.51399 0.0
C396 C 0.73146 0.58757 0.53359 0.0
H397 H 0.86582 0.58639 0.39469 0.0
H398 H 0.83998 0.60196 0.42318 0.0
C399 C 0.71146 0.5788 0.55755 0.0
C400 C 0.75941 0.57742 0.49701 0.0
H401 H 0.81798 0.58581 0.51821 0.0
C402 C 0.75918 0.57228 0.46112 0.0
C403 C 0.78129 0.5837 0.51767 0.0
C404 C 0.78227 0.58907 0.55657 0.0
C405 C 0.77953 0.57095 0.4459 0.0
C406 C 0.80041 0.57517 0.46728 0.0
C407 C 0.8017 0.58258 0.5023 0.0
C408 C 0.81894 0.56811 0.455 0.0
C409 C 0.77763 0.56283 0.40799 0.0
C410 C 0.81602 0.54437 0.46484 0.0
C411 C 0.83064 0.53533 0.4486 0.0
C412 C 0.84813 0.55004 0.4225 0.0
C413 C 0.85212 0.57455 0.41448 0.0
C414 C 0.83758 0.58356 0.43072 0.0
H415 H 0.75965 0.55956 0.39532 0.0
H416 H 0.79404 0.57777 0.39298 0.0
H417 H 0.77856 0.54491 0.40629 0.0
H418 H 0.8015 0.5323 0.48361 0.0
H419 H 0.82719 0.51633 0.4548 0.0
H420 H 0.28476 0.82225 0.72489 0.0
H421 H 0.25206 0.79106 0.76434 0.0
H422 H 0.27479 0.84898 0.84464 0.0
H423 H 0.30772 0.88021 0.80542 0.0
H424 H 0.27018 0.80126 0.86682 0.0
H425 H 0.18547 0.78977 0.79357 0.0
H426 H 0.20814 0.78679 0.76639 0.0
H427 H 0.21714 0.81685 0.78735 0.0
C428 C 0.28252 0.82829 0.75082 0.0
C429 C 0.29853 0.85334 0.76245 0.0
C430 C 0.26398 0.8106 0.77319 0.0
C431 C 0.2611 0.81805 0.80697 0.0
C432 C 0.2769 0.84314 0.81851 0.0
H433 H 0.14312 0.71433 0.95098 0.0
H434 H 0.18051 0.75341 0.93006 0.0
C435 C 0.29554 0.8608 0.79622 0.0
C436 C 0.24182 0.79924 0.83038 0.0
H437 H 0.17824 0.75657 0.83454 0.0
C438 C 0.24999 0.79173 0.86032 0.0
C439 C 0.21567 0.78731 0.82164 0.0
C440 C 0.20602 0.79575 0.79066 0.0
C441 C 0.2325 0.77114 0.88068 0.0
C442 C 0.20666 0.7582 0.87043 0.0
C443 C 0.19832 0.76666 0.84177 0.0
C444 C 0.18797 0.73455 0.8872 0.0
C445 C 0.24164 0.76245 0.91186 0.0
C446 C 0.1805 0.71137 0.87 0.0
C447 C 0.15912 0.68919 0.88149 0.0
C448 C 0.14513 0.69014 0.91022 0.0
C449 C 0.15364 0.71318 0.92868 0.0
C450 C 0.17495 0.73541 0.917 0.0
H451 H 0.2624 0.77511 0.91689 0.0
H452 H 0.23084 0.76206 0.93567 0.0
H453 H 0.23783 0.74266 0.90731 0.0
H454 H 0.19051 0.71072 0.84675 0.0
H455 H 0.15314 0.67151 0.86736 0.0
H456 H 0.60679 0.15514 0.8607 0.0
H457 H 0.58532 0.16367 0.90909 0.0
H458 H 0.62665 0.14404 0.98379 0.0
H459 H 0.64888 0.13671 0.93592 0.0
H460 H 0.55368 0.12991 0.95324 0.0
H461 H 0.63213 0.20452 0.03244 0.0
H462 H 0.63722 0.19654 0.98863 0.0
H463 H 0.63679 0.17773 0.02576 0.0
C464 C 0.61177 0.15332 0.88748 0.0
C465 C 0.6296 0.14531 0.89441 0.0
C466 C 0.59945 0.15814 0.91515 0.0
C467 C 0.60455 0.15487 0.95028 0.0
C468 C 0.62288 0.14754 0.95714 0.0
H469 H 0.52706 0.12563 0.14874 0.0
H470 H 0.55698 0.13415 0.10043 0.0
C471 C 0.63549 0.14315 0.92958 0.0
C472 C 0.58877 0.15622 0.9794 0.0
H473 H 0.59181 0.17954 0.06229 0.0
C474 C 0.56206 0.14116 0.97678 0.0
C475 C 0.59961 0.17072 0.01038 0.0
C476 C 0.62801 0.18847 0.01431 0.0
C477 C 0.54599 0.13944 0.00456 0.0
C478 C 0.55687 0.15339 0.03582 0.0
C479 C 0.58352 0.16882 0.03833 0.0
C480 C 0.54077 0.15124 0.06656 0.0
C481 C 0.51753 0.12191 0.0007 0.0
C482 C 0.52232 0.15886 0.06406 0.0
C483 C 0.5051 0.15392 0.09155 0.0
C484 C 0.50615 0.14145 0.12224 0.0
C485 C 0.52566 0.13524 0.12549 0.0
C486 C 0.5428 0.14008 0.09789 0.0
H487 H 0.51276 0.10847 0.97828 0.0
H488 H 0.50927 0.11061 0.02504 0.0
H489 H 0.50824 0.13356 0.99595 0.0
H490 H 0.52074 0.16796 0.04038 0.0
H491 H 0.49047 0.15918 0.08828 0.0
H492 H 0.4749 0.57222 0.19781 0.0
H493 H 0.44872 0.55683 0.25081 0.0
H494 H 0.45564 0.63089 0.26556 0.0
H495 H 0.48175 0.64655 0.2123 0.0
H496 H 0.47447 0.60621 0.32321 0.0
H497 H 0.37377 0.54758 0.27769 0.0
H498 H 0.39824 0.54551 0.25322 0.0
H499 H 0.39747 0.57485 0.25324 0.0
C500 C 0.47043 0.58513 0.21182 0.0
C501 C 0.48066 0.61072 0.201 0.0
C502 C 0.45539 0.57625 0.24204 0.0
C503 C 0.45029 0.59275 0.26193 0.0
C504 C 0.45935 0.6179 0.25037 0.0
H505 H 0.36249 0.54012 0.45898 0.0
H506 H 0.38115 0.56496 0.40509 0.0
C507 C 0.47427 0.62678 0.21997 0.0
C508 C 0.4383 0.58452 0.29687 0.0
H509 H 0.38217 0.54368 0.33763 0.0
C510 C 0.45422 0.59286 0.32651 0.0
C511 C 0.41192 0.56721 0.3009 0.0
C512 C 0.39417 0.55825 0.26969 0.0
C513 C 0.44461 0.58342 0.36009 0.0
C514 C 0.41843 0.5651 0.364 0.0
C515 C 0.40225 0.55771 0.33454 0.0
C516 C 0.40808 0.55158 0.39771 0.0
C517 C 0.46271 0.5927 0.39099 0.0
C518 C 0.4171 0.53594 0.41132 0.0
C519 C 0.40656 0.52181 0.44186 0.0
C520 C 0.38662 0.52288 0.45945 0.0
C521 C 0.37789 0.53895 0.44615 0.0
C522 C 0.38844 0.55307 0.41534 0.0
H523 H 0.47972 0.61168 0.38568 0.0
H524 H 0.45307 0.59406 0.41505 0.0
H525 H 0.4695 0.57894 0.39611 0.0
H526 H 0.43194 0.53417 0.3978 0.0
H527 H 0.41375 0.50962 0.45127 0.0
H528 H 0.84483 0.33788 0.74668 0.0
H529 H 0.83786 0.35915 0.69696 0.0
H530 H 0.83138 0.4115 0.76769 0.0
H531 H 0.83935 0.39082 0.81776 0.0
H532 H 0.80031 0.3673 0.67631 0.0
H533 H 0.88703 0.46073 0.70388 0.0
H534 H 0.88023 0.43188 0.72688 0.0
H535 H 0.8644 0.44931 0.73923 0.0
C536 C 0.84172 0.35379 0.75182 0.0
C537 C 0.84288 0.36278 0.78626 0.0
C538 C 0.83772 0.36595 0.72326 0.0
C539 C 0.83465 0.38731 0.72841 0.0
C540 C 0.83443 0.39552 0.76292 0.0
H541 H 0.82411 0.48989 0.57623 0.0
H542 H 0.818 0.46365 0.62819 0.0
C543 C 0.83875 0.38353 0.79157 0.0
C544 C 0.83251 0.40124 0.69743 0.0
H545 H 0.86118 0.45945 0.65647 0.0
C546 C 0.81359 0.38747 0.67205 0.0
C547 C 0.84995 0.42756 0.69167 0.0
C548 C 0.8717 0.44321 0.71664 0.0
C549 C 0.8117 0.39924 0.64116 0.0
C550 C 0.82915 0.42545 0.63549 0.0
C551 C 0.84773 0.43935 0.66105 0.0
C552 C 0.82926 0.43878 0.60266 0.0
C553 C 0.79109 0.38365 0.61475 0.0
C554 C 0.83713 0.43315 0.57083 0.0
C555 C 0.8408 0.44823 0.541 0.0
C556 C 0.83667 0.46922 0.54252 0.0
C557 C 0.82748 0.4739 0.57403 0.0
C558 C 0.82401 0.45895 0.60384 0.0
H559 H 0.77613 0.36522 0.626 0.0
H560 H 0.78196 0.39455 0.605 0.0
H561 H 0.79977 0.3794 0.5919 0.0
H562 H 0.84157 0.41784 0.56949 0.0
H563 H 0.84795 0.44412 0.51725 0.0
H564 H 0.34025 0.82687 0.87175 0.0
H565 H 0.35646 0.81615 0.9243 0.0
H566 H 0.42944 0.88471 0.91084 0.0
H567 H 0.41377 0.89505 0.8578 0.0
H568 H 0.43567 0.84607 0.93157 0.0
H569 H 0.36398 0.85124 0.0171 0.0
H570 H 0.35023 0.82784 0.98275 0.0
H571 H 0.36857 0.86126 0.9718 0.0
C572 C 0.35987 0.83947 0.87973 0.0
C573 C 0.37563 0.86193 0.86075 0.0
C574 C 0.36902 0.83344 0.90997 0.0
C575 C 0.39395 0.84999 0.9221 0.0
C576 C 0.41008 0.87173 0.90218 0.0
H577 H 0.45807 0.87588 0.12894 0.0
H578 H 0.43405 0.87245 0.07557 0.0
C579 C 0.40107 0.87761 0.87178 0.0
C580 C 0.40318 0.84532 0.95602 0.0
H581 H 0.39181 0.83957 0.0444 0.0
C582 C 0.42602 0.84451 0.95625 0.0
C583 C 0.3908 0.84374 0.98828 0.0
C584 C 0.36719 0.84631 0.99017 0.0
C585 C 0.4371 0.84264 0.98778 0.0
C586 C 0.42444 0.84049 0.02005 0.0
C587 C 0.40134 0.84086 0.01972 0.0
C588 C 0.43592 0.84004 0.05452 0.0
C589 C 0.4629 0.84433 0.98614 0.0
C590 C 0.44393 0.82221 0.06144 0.0
C591 C 0.45814 0.82448 0.09167 0.0
C592 C 0.46382 0.84407 0.11612 0.0
C593 C 0.45383 0.86046 0.11072 0.0
C594 C 0.44017 0.85858 0.08009 0.0
H595 H 0.47292 0.85293 0.96106 0.0
H596 H 0.47536 0.85593 0.00817 0.0
H597 H 0.4603 0.8248 0.98788 0.0
H598 H 0.44007 0.80715 0.04281 0.0
H599 H 0.46545 0.81148 0.09532 0.0
H600 H 0.53203 0.4189 0.19439 0.0
H601 H 0.55709 0.43484 0.24832 0.0
H602 H 0.54541 0.35949 0.27005 0.0
H603 H 0.51934 0.34325 0.21692 0.0
H604 H 0.53487 0.37677 0.32565 0.0
H605 H 0.62752 0.45367 0.27678 0.0
H606 H 0.60215 0.45865 0.26195 0.0
H607 H 0.60336 0.43076 0.24765 0.0
C608 C 0.53537 0.4059 0.21019 0.0
C609 C 0.5238 0.37985 0.20139 0.0
C610 C 0.5498 0.41505 0.24104 0.0
C611 C 0.5535 0.39848 0.2632 0.0
C612 C 0.54288 0.37268 0.25349 0.0
H613 H 0.65414 0.46984 0.44387 0.0
H614 H 0.63526 0.44377 0.39125 0.0
C615 C 0.52808 0.36344 0.22302 0.0
C616 C 0.56635 0.40748 0.2979 0.0
H617 H 0.61848 0.45631 0.33786 0.0
C618 C 0.55336 0.39396 0.32825 0.0
C619 C 0.5907 0.42959 0.30152 0.0
C620 C 0.60683 0.4438 0.27017 0.0
C621 C 0.56351 0.40249 0.362 0.0
C622 C 0.58691 0.42574 0.36569 0.0
C623 C 0.60039 0.43865 0.33528 0.0
C624 C 0.59726 0.43782 0.40051 0.0
C625 C 0.54903 0.38631 0.3932 0.0
C626 C 0.58211 0.44257 0.42395 0.0
C627 C 0.59274 0.45689 0.45451 0.0
C628 C 0.61893 0.4674 0.46173 0.0
C629 C 0.6339 0.46195 0.43896 0.0
C630 C 0.62313 0.44715 0.40881 0.0
H631 H 0.53792 0.36574 0.38595 0.0
H632 H 0.56204 0.38851 0.41525 0.0
H633 H 0.53521 0.39211 0.40236 0.0
H634 H 0.56235 0.43636 0.41782 0.0
H635 H 0.58081 0.46112 0.47123 0.0
H636 H 0.1028 0.57384 0.79415 0.0
H637 H 0.11167 0.55597 0.74229 0.0
H638 H 0.16866 0.63172 0.70928 0.0
H639 H 0.1591 0.64989 0.76068 0.0
H640 H 0.13775 0.60811 0.65751 0.0
H641 H 0.16616 0.54144 0.71265 0.0
H642 H 0.13613 0.53479 0.73086 0.0
H643 H 0.16435 0.56521 0.73936 0.0
C644 C 0.11765 0.5867 0.77632 0.0
C645 C 0.13018 0.61332 0.78149 0.0
C646 C 0.12285 0.5764 0.7467 0.0
C647 C 0.14113 0.59241 0.722 0.0
C648 C 0.15453 0.61895 0.72797 0.0
H649 H 0.15903 0.51067 0.54259 0.0
H650 H 0.17072 0.54063 0.59186 0.0
C651 C 0.14907 0.62931 0.75739 0.0
C652 C 0.14399 0.58164 0.68826 0.0
H653 H 0.14797 0.53148 0.65381 0.0
C654 C 0.14052 0.59167 0.65671 0.0
C655 C 0.1481 0.56049 0.68689 0.0
C656 C 0.15418 0.55009 0.71929 0.0
C657 C 0.13942 0.58017 0.62421 0.0
C658 C 0.14109 0.55758 0.62326 0.0
C659 C 0.14624 0.54854 0.65449 0.0
C660 C 0.13549 0.54187 0.5909 0.0
C661 C 0.13615 0.59222 0.5913 0.0
C662 C 0.11192 0.53277 0.57373 0.0
C663 C 0.10529 0.51587 0.54548 0.0
C664 C 0.12192 0.5073 0.53407 0.0
C665 C 0.14578 0.51687 0.55073 0.0
C666 C 0.15248 0.53397 0.57892 0.0
H667 H 0.1447 0.61324 0.59454 0.0
H668 H 0.14506 0.58852 0.56821 0.0
H669 H 0.11546 0.58418 0.58595 0.0
H670 H 0.09816 0.53797 0.583 0.0
H671 H 0.08669 0.5088 0.53344 0.0
H672 H 0.36267 0.92006 0.91806 0.0
H673 H 0.35948 0.94238 0.96949 0.0
H674 H 0.35777 -0.00078 0.90251 0.0
H675 H 0.36047 0.97639 0.85029 0.0
H676 H 0.40184 -0.00291 0.97469 0.0
H677 H 0.30345 0.98257 0.98778 0.0
H678 H 0.30887 0.95859 0.96744 0.0
H679 H 0.31841 0.98815 0.94515 0.0
C680 C 0.36097 0.93697 0.91419 0.0
C681 C 0.3621 0.94671 0.88032 0.0
C682 C 0.35902 0.94962 0.94358 0.0
C683 C 0.35841 0.97242 0.93979 0.0
C684 C 0.35792 0.98145 0.9059 0.0
H685 H 0.409 0.08286 0.11136 0.0
H686 H 0.39219 0.06351 0.05397 0.0
C687 C 0.35951 0.96848 0.87617 0.0
C688 C 0.36271 0.98836 0.97141 0.0
H689 H 0.33273 0.00484 0.03373 0.0
C690 C 0.38684 -0.00088 0.98734 0.0
C691 C 0.34304 0.99083 0.98776 0.0
C692 C 0.31689 0.97946 0.97139 0.0
C693 C 0.39165 0.01157 0.01981 0.0
C694 C 0.37182 0.01336 0.03682 0.0
C695 C 0.34783 0.00335 0.0205 0.0
C696 C 0.37599 0.0246 0.07239 0.0
C697 C 0.4177 0.02203 0.03645 0.0
C698 C 0.37166 0.00901 0.1019 0.0
C699 C 0.38141 0.01997 0.13475 0.0
C700 C 0.39572 0.04671 0.13854 0.0
C701 C 0.39821 0.0622 0.10938 0.0
C702 C 0.3885 0.05121 0.07655 0.0
H703 H 0.43104 0.01896 0.01977 0.0
H704 H 0.42617 0.04286 0.04125 0.0
H705 H 0.41587 0.01268 0.06226 0.0
H706 H 0.36221 0.98841 0.09904 0.0
H707 H 0.37901 0.00748 0.15665 0.0
H708 H 0.39792 0.33245 0.19243 0.0
H709 H 0.37045 0.32974 0.24216 0.0
H710 H 0.43089 0.40157 0.28186 0.0
H711 H 0.4579 0.40457 0.2329 0.0
H712 H 0.37813 0.33046 0.31627 0.0
H713 H 0.37035 0.41409 0.27526 0.0
H714 H 0.38062 0.39758 0.24563 0.0
H715 H 0.40305 0.42152 0.27537 0.0
C716 C 0.40525 0.34759 0.21186 0.0
C717 C 0.42992 0.36892 0.2084 0.0
C718 C 0.38956 0.34605 0.24015 0.0
C719 C 0.3984 0.36584 0.26514 0.0
C720 C 0.42336 0.38649 0.26233 0.0
H721 H 0.39255 0.3945 0.47389 0.0
H722 H 0.39176 0.37501 0.41771 0.0
C723 C 0.43885 0.38809 0.23429 0.0
C724 C 0.38231 0.36542 0.29488 0.0
H725 H 0.36649 0.40516 0.33797 0.0
C726 C 0.37493 0.34641 0.3207 0.0
C727 C 0.37743 0.38582 0.30032 0.0
C728 C 0.38303 0.40574 0.27244 0.0
C729 C 0.36515 0.34868 0.3532 0.0
C730 C 0.3633 0.37078 0.36022 0.0
C731 C 0.36826 0.38839 0.33302 0.0
C732 C 0.36007 0.37805 0.39644 0.0
C733 C 0.35773 0.32778 0.38009 0.0
C734 C 0.34244 0.38627 0.40358 0.0
C735 C 0.34302 0.39777 0.43587 0.0
C736 C 0.36147 0.4015 0.46139 0.0
C737 C 0.37809 0.39194 0.45487 0.0
C738 C 0.37748 0.38049 0.42275 0.0
H739 H 0.35016 0.30887 0.36709 0.0
H740 H 0.37491 0.33141 0.39532 0.0
H741 H 0.34309 0.3269 0.39857 0.0
H742 H 0.32896 0.38481 0.38362 0.0
H743 H 0.33002 0.40502 0.43998 0.0
H744 H 0.03563 0.37608 0.53608 0.0
H745 H 0.01548 0.35157 0.59007 0.0
H746 H -0.00103 0.41018 0.62307 0.0
H747 H 0.01856 0.43441 0.56996 0.0
H748 H 0.02754 0.38653 0.67375 0.0
H749 H 0.93142 0.32333 0.6157 0.0
H750 H 0.96061 0.33164 0.59231 0.0
H751 H 0.95063 0.35492 0.59744 0.0
C752 C 0.02761 0.38363 0.55485 0.0
C753 C 0.02856 0.40712 0.54857 0.0
C754 C 0.01621 0.36967 0.58563 0.0
C755 C 0.00583 0.37918 0.61042 0.0
C756 C 0.0069 0.40257 0.6042 0.0
H757 H 0.93238 0.39283 0.77029 0.0
H758 H 0.95508 0.38866 0.72042 0.0
C759 C 0.01804 0.41634 0.57366 0.0
C760 C 0.99333 0.36521 0.64305 0.0
H761 H 0.93326 0.33129 0.67721 0.0
C762 C 0.00708 0.3735 0.67463 0.0
C763 C 0.96666 0.34836 0.64403 0.0
C764 C 0.95131 0.33883 0.61062 0.0
C765 C -0.00559 0.36728 0.70716 0.0
C766 C 0.96746 0.3527 0.7079 0.0
C767 C 0.95397 0.34235 0.67654 0.0
C768 C 0.95316 0.35383 0.73874 0.0
C769 C 0.00959 0.37839 0.74037 0.0
C770 C 0.94439 0.3354 0.76559 0.0
C771 C 0.93116 0.33767 0.79452 0.0
C772 C 0.9268 0.35851 0.79687 0.0
C773 C 0.93561 0.37671 0.76967 0.0
C774 C 0.94854 0.37433 0.74098 0.0
H775 H 0.03032 0.38566 0.73631 0.0
H776 H 0.00704 0.39449 0.74938 0.0
H777 H 0.00252 0.36375 0.76152 0.0
H778 H 0.94785 0.31943 0.76422 0.0
H779 H 0.92454 0.32333 0.81503 0.0
H780 H 0.58721 0.91874 0.12126 0.0
H781 H 0.6165 0.94611 0.07474 0.0
H782 H 0.56377 0.97217 0.04812 0.0
H783 H 0.5347 0.94521 0.09367 0.0
H784 H 0.60274 0.94577 0.99821 0.0
H785 H 0.63503 0.03865 0.0644 0.0
H786 H 0.62272 0.00883 0.08819 0.0
H787 H 0.60116 0.01744 0.06775 0.0
C788 C 0.58196 0.93036 0.10546 0.0
C789 C 0.55871 0.92992 0.11127 0.0
C790 C 0.59869 0.94596 0.07904 0.0
C791 C 0.59243 0.96145 0.0586 0.0
C792 C 0.56914 0.96071 0.06413 0.0
H793 H 0.586 0.01938 0.8745 0.0
H794 H 0.58802 0.99415 0.92302 0.0
C795 C 0.55247 0.94514 0.09012 0.0
C796 C 0.60923 0.97792 0.03022 0.0
H797 H 0.63425 0.03911 0.00063 0.0
C798 C 0.61051 0.96632 0.99897 0.0
C799 C 0.61967 0.00473 0.03144 0.0
C800 C 0.61983 0.01821 0.06489 0.0
C801 C 0.61937 0.98056 0.96784 0.0
C802 C 0.62679 0.00681 0.9682 0.0
C803 C 0.62833 0.01891 0.00031 0.0
C804 C 0.62766 0.02054 0.93558 0.0
C805 C 0.61906 0.96708 0.93435 0.0
C806 C 0.64931 0.04387 0.92659 0.0
C807 C 0.6482 0.0584 0.89861 0.0
C808 C 0.62524 0.04999 0.87993 0.0
C809 C 0.60391 0.02635 0.88849 0.0
C810 C 0.60513 0.01177 0.91597 0.0
H811 H 0.62191 0.95057 0.93984 0.0
H812 H 0.60019 0.95961 0.92136 0.0
H813 H 0.6341 0.98031 0.91588 0.0
H814 H 0.66673 0.05113 0.94182 0.0
H815 H 0.66487 0.07667 0.89265 0.0
H816 H 0.67007 0.59283 0.47112 0.0
H817 H 0.67494 0.6225 0.42313 0.0
H818 H 0.5991 0.56901 0.38638 0.0
H819 H 0.59409 0.5396 0.43328 0.0
H820 H 0.66197 0.605 0.34085 0.0
H821 H 0.60639 0.64413 0.40517 0.0
H822 H 0.62498 0.63325 0.42956 0.0
H823 H 0.59409 0.61051 0.4124 0.0
C824 C 0.65452 0.58747 0.4527 0.0
C825 C 0.63163 0.56395 0.45615 0.0
C826 C 0.65734 0.6044 0.42543 0.0
C827 C 0.63724 0.59796 0.40165 0.0
C828 C 0.61469 0.57439 0.4048 0.0
H829 H 0.55418 0.58486 0.242 0.0
H830 H 0.5798 0.59135 0.29424 0.0
C831 C 0.61189 0.55759 0.43168 0.0
C832 C 0.63889 0.61505 0.37275 0.0
H833 H 0.60351 0.6406 0.34166 0.0
C834 C 0.65025 0.614 0.34116 0.0
C835 C 0.62361 0.62673 0.3734 0.0
C836 C 0.61172 0.62898 0.40704 0.0
C837 C 0.64405 0.62147 0.30935 0.0
C838 C 0.6261 0.63004 0.30951 0.0
C839 C 0.61728 0.63402 0.34165 0.0
C840 C 0.61117 0.62783 0.27762 0.0
C841 C 0.65428 0.61737 0.27535 0.0
C842 C 0.62038 0.64635 0.25093 0.0
C843 C 0.6056 0.64272 0.22065 0.0
C844 C 0.58162 0.62041 0.21678 0.0
C845 C 0.57262 0.60214 0.24385 0.0
C846 C 0.58718 0.60586 0.2739 0.0
H847 H 0.6698 0.61284 0.27977 0.0
H848 H 0.63855 0.60132 0.26066 0.0
H849 H 0.6617 0.63475 0.2587 0.0
H850 H 0.63891 0.66344 0.25348 0.0
H851 H 0.61296 0.65717 0.20027 0.0
H852 H 0.06597 0.6537 0.76946 0.0
H853 H 0.04515 0.65811 0.71642 0.0
H854 H 0.97622 0.5883 0.74288 0.0
H855 H -0.00326 0.58371 0.79537 0.0
H856 H 0.02506 0.62068 0.6619 0.0
H857 H 0.94987 0.63735 0.71634 0.0
H858 H 0.97814 0.64381 0.74092 0.0
H859 H 0.95117 0.61184 0.73878 0.0
C860 C 0.0462 0.63962 0.76429 0.0
C861 C 0.03294 0.61837 0.78659 0.0
C862 C 0.03438 0.64215 0.734 0.0
C863 C 0.00902 0.62377 0.72607 0.0
C864 C -0.00439 0.60302 0.74891 0.0
H865 H 0.90334 0.53327 0.58903 0.0
H866 H 0.9305 0.56153 0.63562 0.0
C867 C 0.00744 0.60031 0.77879 0.0
C868 C -0.00305 0.62423 0.69236 0.0
H869 H 0.9399 0.61441 0.66042 0.0
C870 C 0.0069 0.6203 0.66118 0.0
C871 C 0.97338 0.62393 0.69147 0.0
C872 C 0.96265 0.62974 0.72366 0.0
C873 C 0.99251 0.61325 0.62999 0.0
C874 C 0.96773 0.61025 0.63018 0.0
C875 C 0.95889 0.61666 0.66041 0.0
C876 C 0.94899 0.59513 0.60257 0.0
C877 C 0.00276 0.60661 0.59798 0.0
C878 C 0.94983 0.60496 0.56881 0.0
C879 C 0.93395 0.58879 0.54208 0.0
C880 C 0.91751 0.56266 0.54891 0.0
C881 C 0.91593 0.55332 0.58312 0.0
C882 C 0.93139 0.56944 0.60973 0.0
H883 H 0.02259 0.61039 0.60194 0.0
H884 H 0.9903 0.58607 0.59145 0.0
H885 H 0.00255 0.61795 0.57512 0.0
H886 H 0.96336 0.62477 0.56289 0.0
H887 H 0.93562 0.59631 0.51576 0.0
H888 H 0.44394 0.03691 0.31307 0.0
H889 H 0.47355 0.02671 0.34247 0.0
H890 H 0.53709 0.09812 0.3067 0.0
H891 H 0.50724 0.10774 0.27594 0.0
H892 H 0.53369 0.05982 0.2717 0.0
H893 H 0.52715 0.03273 0.41021 0.0
H894 H 0.49532 0.02198 0.39487 0.0
H895 H 0.51837 0.05578 0.3951 0.0
C896 C 0.46414 0.0509 0.31292 0.0
C897 C 0.4736 0.07261 0.29163 0.0
C898 C 0.48114 0.04533 0.3303 0.0
C899 C 0.50766 0.0615 0.32637 0.0
C900 C 0.51674 0.08532 0.30987 0.0
H901 H 0.57256 0.96538 0.27142 0.0
H902 H 0.57456 0.00199 0.30224 0.0
C903 C 0.49978 0.09058 0.29182 0.0
C904 C 0.52373 0.04938 0.3261 0.0
H905 H 0.52631 0.00036 0.36689 0.0
C906 C 0.53327 0.04775 0.29313 0.0
C907 C 0.5233 0.03362 0.35386 0.0
C908 C 0.51572 0.0364 0.39057 0.0
C909 C 0.53862 0.02827 0.28574 0.0
C910 C 0.53491 0.01042 0.31228 0.0
C911 C 0.5286 0.01391 0.34649 0.0
C912 C 0.53362 0.98628 0.30266 0.0
C913 C 0.5453 0.0251 0.2485 0.0
C914 C 0.50985 0.9654 0.2932 0.0
C915 C 0.50865 0.94469 0.27516 0.0
C916 C 0.53123 0.94464 0.26697 0.0
C917 C 0.5549 0.96505 0.27782 0.0
C918 C 0.5561 0.98576 0.2957 0.0
H919 H 0.54748 0.04079 0.23095 0.0
H920 H 0.56344 0.02462 0.24828 0.0
H921 H 0.53011 0.00666 0.23756 0.0
H922 H 0.49238 0.96587 0.29785 0.0
H923 H 0.49026 0.92909 0.26693 0.0
H924 H 0.3886 0.42621 0.64664 0.0
H925 H 0.42243 0.44021 0.69072 0.0
H926 H 0.45931 0.51611 0.64614 0.0
H927 H 0.42512 0.50228 0.60279 0.0
H928 H 0.46364 0.45194 0.6514 0.0
H929 H 0.49019 0.53091 0.74504 0.0
H930 H 0.45742 0.50915 0.73223 0.0
H931 H 0.47773 0.53621 0.70506 0.0
C932 C 0.40338 0.44616 0.64738 0.0
C933 C 0.40478 0.46312 0.62117 0.0
C934 C 0.42241 0.45424 0.67293 0.0
C935 C 0.44338 0.47918 0.67178 0.0
C936 C 0.44313 0.49689 0.64799 0.0
H937 H 0.5833 0.56168 0.60831 0.0
H938 H 0.54652 0.54746 0.64742 0.0
C939 C 0.42402 0.48883 0.62257 0.0
C940 C 0.46852 0.4835 0.68334 0.0
H941 H 0.5259 0.53175 0.71195 0.0
C942 C 0.47717 0.46878 0.66595 0.0
C943 C 0.48599 0.50553 0.70206 0.0
C944 C 0.47726 0.5212 0.72245 0.0
C945 C 0.50316 0.47763 0.66172 0.0
C946 C 0.52104 0.50092 0.6781 0.0
C947 C 0.51221 0.51391 0.69954 0.0
C948 C 0.54795 0.5143 0.6666 0.0
C949 C 0.51084 0.4637 0.63563 0.0
C950 C 0.56194 0.50142 0.66628 0.0
C951 C 0.58164 0.50848 0.64207 0.0
C952 C 0.58891 0.5298 0.62051 0.0
C953 C 0.57754 0.54495 0.62462 0.0
C954 C 0.55692 0.5371 0.64741 0.0
H955 H 0.49427 0.44872 0.62078 0.0
H956 H 0.52465 0.47727 0.61618 0.0
H957 H 0.5199 0.45415 0.6497 0.0
H958 H 0.5557 0.48418 0.68163 0.0
H959 H 0.59024 0.49657 0.63884 0.0
H960 H 0.90176 0.42067 0.94472 0.0
H961 H 0.92692 0.45635 0.98427 0.0
H962 H 0.95864 0.41369 0.03279 0.0
H963 H 0.93362 0.37797 0.99324 0.0
H964 H 0.95478 0.47474 0.05844 0.0
H965 H 0.00526 0.45926 0.94601 0.0
H966 H 0.971 0.44244 0.94836 0.0
H967 H 0.98912 0.43397 0.97741 0.0
C968 C 0.91337 0.41854 0.96471 0.0
C969 C 0.91685 0.39722 0.9649 0.0
C970 C 0.92726 0.43869 0.98788 0.0
C971 C 0.94513 0.4378 0.0106 0.0
C972 C 0.94502 0.41469 0.01523 0.0
H973 H 0.07817 0.57293 0.95022 0.0
H974 H 0.0592 0.53863 0.99389 0.0
C975 C 0.93107 0.39448 0.99211 0.0
C976 C 0.96915 0.46192 0.01592 0.0
H977 H 0.02286 0.49947 0.96915 0.0
C978 C 0.97021 0.48013 0.0398 0.0
C979 C 0.98925 0.46872 0.99159 0.0
C980 C 0.98874 0.45021 0.96428 0.0
C981 C 0.99009 0.50569 0.03801 0.0
C982 C 0.00861 0.51293 0.01112 0.0
C983 C 0.00881 0.49404 0.98993 0.0
C984 C 0.02382 0.53949 0.99819 0.0
C985 C 0.99038 0.52483 0.06372 0.0
C986 C 0.01091 0.55242 0.98772 0.0
C987 C 0.02197 0.57227 0.96338 0.0
C988 C 0.0458 0.57908 0.94889 0.0
C989 C 0.05955 0.56756 0.96101 0.0
C990 C 0.04889 0.54831 0.98624 0.0
H991 H 0.98431 0.51603 0.09015 0.0
H992 H 0.00963 0.54209 0.06582 0.0
H993 H 0.9765 0.53072 0.0551 0.0
H994 H 0.99134 0.54566 0.99558 0.0
H995 H 0.01122 0.58115 0.95418 0.0
H996 H 0.02477 0.45117 0.34473 0.0
H997 H 0.02594 0.48909 0.3208 0.0
H998 H 0.09694 0.53697 0.37557 0.0
H999 H 0.0948 0.49868 0.40098 0.0
H1000 H 0.06298 0.54257 0.40391 0.0
H1001 H 0.04771 0.55174 0.26553 0.0
H1002 H 0.02991 0.518 0.27298 0.0
H1003 H 0.06417 0.53511 0.27968 0.0
C1004 C 0.04109 0.46979 0.35038 0.0
C1005 C 0.05922 0.47239 0.37529 0.0
C1006 C 0.04214 0.49159 0.33615 0.0
C1007 C 0.06138 0.51613 0.34681 0.0
C1008 C 0.0818 0.51834 0.36724 0.0
H1009 H 0.96315 0.57902 0.39688 0.0
H1010 H 0.00338 0.58606 0.37114 0.0
C1011 C 0.08041 0.49655 0.38208 0.0
C1012 C 0.0547 0.53665 0.34824 0.0
H1013 H 0.01067 0.54689 0.30653 0.0
C1014 C 0.05272 0.54487 0.38209 0.0
C1015 C 0.0419 0.54072 0.32002 0.0
C1016 C 0.04639 0.53613 0.2825 0.0
C1017 C 0.03404 0.55136 0.38956 0.0
C1018 C 0.01757 0.55008 0.36238 0.0
C1019 C 0.02284 0.54686 0.32751 0.0
C1020 C 0.99221 0.546 0.37134 0.0
C1021 C 0.02953 0.55581 0.42728 0.0
C1022 C 0.97283 0.5211 0.37971 0.0
C1023 C 0.95013 0.51704 0.39499 0.0
C1024 C 0.94652 0.53786 0.40143 0.0
C1025 C 0.96557 0.56266 0.39179 0.0
C1026 C 0.98839 0.56674 0.37691 0.0
H1027 H 0.04613 0.56002 0.44435 0.0
H1028 H 0.02564 0.57193 0.42904 0.0
H1029 H 0.01252 0.53842 0.43752 0.0
H1030 H 0.97582 0.50496 0.3759 0.0
H1031 H 0.93564 0.49782 0.40219 0.0
H1032 H 0.39882 0.94971 0.65539 0.0
H1033 H 0.43647 0.9589 0.62068 0.0
H1034 H 0.45249 0.91246 0.69055 0.0
H1035 H 0.41545 0.90385 0.72597 0.0
H1036 H 0.46116 0.97304 0.70224 0.0
H1037 H 0.51097 0.94838 0.59932 0.0
H1038 H 0.47872 0.94228 0.59224 0.0
H1039 H 0.48448 0.92377 0.62387 0.0
C1040 C 0.40981 0.94061 0.66239 0.0
C1041 C 0.4057 0.9277 0.69444 0.0
C1042 C 0.43088 0.94519 0.64193 0.0
C1043 C 0.44815 0.93788 0.65476 0.0
C1044 C 0.43989 0.91917 0.68114 0.0
H1045 H 0.59783 0.02705 0.73629 0.0
H1046 H 0.56188 0.99461 0.702 0.0
C1047 C 0.41923 0.91495 0.70208 0.0
C1048 C 0.47434 0.95901 0.65964 0.0
H1049 H 0.53657 0.98526 0.63455 0.0
C1050 C 0.4776 0.97589 0.68706 0.0
C1051 C 0.49559 0.96192 0.64061 0.0
C1052 C 0.49253 0.94318 0.6123 0.0
C1053 C 0.50159 0.99563 0.69633 0.0
C1054 C 0.52291 -0.0004 0.67624 0.0
C1055 C 0.51992 0.98256 0.64894 0.0
C1056 C 0.54839 0.02031 0.6861 0.0
C1057 C 0.50385 0.0113 0.7286 0.0
C1058 C 0.55305 0.04559 0.68728 0.0
C1059 C 0.57269 0.06368 0.70824 0.0
C1060 C 0.58839 0.0568 0.72667 0.0
C1061 C 0.58545 0.03236 0.72247 0.0
C1062 C 0.56535 0.01406 0.70244 0.0
H1063 H 0.48674 0.00147 0.74576 0.0
H1064 H 0.5209 0.01528 0.74446 0.0
H1065 H 0.50572 0.02981 0.72038 0.0
H1066 H 0.5401 0.05064 0.67454 0.0
H1067 H 0.57522 0.08271 0.71074 0.0
H1068 H 0.49178 0.59428 0.06765 0.0
H1069 H 0.45123 0.55897 0.04562 0.0
H1070 H 0.49203 0.52361 0.00169 0.0
H1071 H 0.53241 0.55928 0.02248 0.0
H1072 H 0.44465 0.50942 0.96629 0.0
H1073 H 0.43348 0.49974 0.11223 0.0
H1074 H 0.43482 0.52675 0.09019 0.0
H1075 H 0.46321 0.52427 0.0942 0.0
C1076 C 0.49197 0.57937 0.05196 0.0
C1077 C 0.51481 0.57895 0.04691 0.0
C1078 C 0.46891 0.55934 0.03937 0.0
C1079 C 0.46859 0.53842 0.02283 0.0
C1080 C 0.49186 0.5396 0.0144 0.0
H1081 H 0.4781 0.42692 0.02187 0.0
H1082 H 0.46468 0.45687 0.00126 0.0
C1083 C 0.5149 0.55979 0.0265 0.0
C1084 C 0.44537 0.51296 0.02269 0.0
H1085 H 0.42185 0.46299 0.07979 0.0
C1086 C 0.4385 0.49918 0.99102 0.0
C1087 C 0.43643 0.49957 0.0549 0.0
C1088 C 0.44222 0.51321 0.08989 0.0
C1089 C 0.42765 0.47251 0.99125 0.0
C1090 C 0.42398 0.45988 0.02374 0.0
C1091 C 0.42548 0.47295 0.05486 0.0
C1092 C 0.42777 0.43761 0.0272 0.0
C1093 C 0.42315 0.45849 0.95694 0.0
C1094 C 0.41145 0.41674 0.04834 0.0
C1095 C 0.41922 0.39972 0.0601 0.0
C1096 C 0.44356 0.40376 0.05142 0.0
C1097 C 0.45935 0.42375 0.02894 0.0
C1098 C 0.45142 0.44048 0.01669 0.0
H1099 H 0.41586 0.46665 0.93685 0.0
H1100 H 0.44152 0.46084 0.94718 0.0
H1101 H 0.40931 0.43774 0.95998 0.0
H1102 H 0.39344 0.41452 0.05741 0.0
H1103 H 0.40682 0.38423 0.07748 0.0
H1104 H 0.31978 0.90309 0.54653 0.0
H1105 H 0.31723 0.93262 0.50525 0.0
H1106 H 0.30582 0.97254 0.59115 0.0
H1107 H 0.30939 0.9435 0.63293 0.0
H1108 H 0.28321 0.94988 0.48872 0.0
H1109 H 0.3727 0.02727 0.54992 0.0
H1110 H 0.3605 0.99416 0.56122 0.0
H1111 H 0.3447 0.01081 0.57685 0.0
C1112 C 0.31624 0.91783 0.55665 0.0
C1113 C 0.31528 0.92134 0.59293 0.0
C1114 C 0.31467 0.93465 0.53302 0.0
C1115 C 0.31182 0.95506 0.54523 0.0
C1116 C 0.30861 0.95727 0.58129 0.0
H1117 H 0.38141 0.08033 0.395 0.0
H1118 H 0.35208 0.05823 0.44367 0.0
C1119 C 0.31061 0.94066 0.60506 0.0
C1120 C 0.31573 0.97544 0.5202 0.0
H1121 H 0.36308 0.03389 0.49321 0.0
C1122 C 0.30026 0.96859 0.49008 0.0
C1123 C 0.33772 4e-05 0.52232 0.0
C1124 C 0.35499 0.00864 0.55417 0.0
C1125 C 0.30771 0.98458 0.46056 0.0
C1126 C 0.33134 0.00768 0.46116 0.0
C1127 C 0.34511 0.01596 0.49272 0.0
C1128 C 0.34471 0.02059 0.42843 0.0
C1129 C 0.29102 0.97584 0.42824 0.0
C1130 C 0.3501 0.00671 0.40361 0.0
C1131 C 0.3668 0.0192 0.37592 0.0
C1132 C 0.37872 0.04589 0.37275 0.0
C1133 C 0.37252 0.05971 0.39678 0.0
C1134 C 0.3557 0.04714 0.42451 0.0
H1135 H 0.27051 0.96469 0.4356 0.0
H1136 H 0.29409 0.99226 0.41157 0.0
H1137 H 0.29553 0.96308 0.41257 0.0
H1138 H 0.34255 0.98633 0.40675 0.0
H1139 H 0.37127 0.00802 0.35803 0.0
H1140 H 0.40199 0.32149 0.92451 0.0
H1141 H 0.3779 0.32448 0.87528 0.0
H1142 H 0.32426 0.32761 0.94704 0.0
H1143 H 0.34878 0.32525 0.9969 0.0
H1144 H 0.32782 0.29984 0.84922 0.0
H1145 H 0.35922 0.39802 0.89976 0.0
H1146 H 0.37149 0.37854 0.9174 0.0
H1147 H 0.33984 0.37185 0.92862 0.0
C1148 C 0.3848 0.32232 0.92993 0.0
C1149 C 0.37761 0.32377 0.96459 0.0
C1150 C 0.37093 0.32382 0.90171 0.0
C1151 C 0.3496 0.32674 0.9076 0.0
C1152 C 0.34093 0.32576 0.94207 0.0
H1153 H 0.30041 0.3808 0.72198 0.0
H1154 H 0.29372 0.35291 0.77305 0.0
C1155 C 0.35491 0.32435 0.97048 0.0
C1156 C 0.33939 0.33473 0.87794 0.0
H1157 H 0.34251 0.38835 0.84316 0.0
C1158 C 0.33027 0.31892 0.84814 0.0
C1159 C 0.34307 0.35982 0.87656 0.0
C1160 C 0.35409 0.37819 0.9071 0.0
C1161 C 0.32622 0.32814 0.8163 0.0
C1162 C 0.33122 0.35357 0.81463 0.0
C1163 C 0.33851 0.36873 0.84496 0.0
C1164 C 0.334 0.36661 0.78091 0.0
C1165 C 0.31862 0.31152 0.78397 0.0
C1166 C 0.35875 0.383 0.76851 0.0
C1167 C 0.36259 0.39904 0.74015 0.0
C1168 C 0.34171 0.3987 0.72347 0.0
C1169 C 0.31675 0.3812 0.73448 0.0
C1170 C 0.31291 0.36534 0.76345 0.0
H1171 H 0.31343 0.29149 0.79018 0.0
H1172 H 0.30214 0.31149 0.7709 0.0
H1173 H 0.33475 0.31951 0.76504 0.0
H1174 H 0.3752 0.38417 0.7818 0.0
H1175 H 0.38198 0.4122 0.73184 0.0
H1176 H 0.91285 0.30705 0.06561 0.0
H1177 H 0.93984 0.31059 0.11532 0.0
H1178 H 0.00603 0.34343 0.04791 0.0
H1179 H 0.97912 0.34055 0.99783 0.0
H1180 H 0.97536 0.29535 0.1333 0.0
H1181 H 0.02037 0.40098 0.11731 0.0
H1182 H 0.9921 0.37886 0.09339 0.0
H1183 H 0.02286 0.38386 0.08033 0.0
C1184 C 0.93308 0.31463 0.0611 0.0
C1185 C 0.94395 0.32408 0.02792 0.0
C1186 C 0.94846 0.31649 0.08957 0.0
C1187 C 0.97497 0.32776 0.08541 0.0
C1188 C 0.98563 0.3351 0.05172 0.0
H1189 H 0.08083 0.39639 0.26036 0.0
H1190 H 0.06511 0.37573 0.20348 0.0
C1191 C 0.97022 0.33334 0.02312 0.0
C1192 C 0.9913 0.33463 0.11711 0.0
H1193 H 0.03152 0.38612 0.16708 0.0
C1194 C 0.98801 0.31518 0.14048 0.0
C1195 C 0.00758 0.36054 0.12651 0.0
C1196 C 0.01089 0.38233 0.1033 0.0
C1197 C 4e-05 0.32101 0.1735 0.0
C1198 C 0.01551 0.3469 0.1833 0.0
C1199 C 0.01973 0.36627 0.15931 0.0
C1200 C 0.02548 0.35472 0.21939 0.0
C1201 C -0.0043 0.2995 0.19788 0.0
C1202 C 0.00843 0.3492 0.24743 0.0
C1203 C 0.01732 0.36105 0.28 0.0
C1204 C 0.04337 0.37878 0.28491 0.0
C1205 C 0.0606 0.38295 0.25741 0.0
C1206 C 0.05169 0.37112 0.22489 0.0
H1207 H 0.9901 0.28155 0.18316 0.0
H1208 H 0.01311 0.30453 0.21358 0.0
H1209 H 0.97999 0.29579 0.2163 0.0
H1210 H 0.98806 0.33698 0.24354 0.0
H1211 H 0.00357 0.35741 0.30064 0.0
H1212 H 0.59625 0.0252 0.60808 0.0
H1213 H 0.60106 0.0033 0.55753 0.0
H1214 H 0.68227 0.03979 0.57625 0.0
H1215 H 0.67769 0.06226 0.62698 0.0
H1216 H 0.6701 0.04524 0.50805 0.0
H1217 H 0.61432 0.94394 0.54767 0.0
H1218 H 0.59653 0.95996 0.55559 0.0
H1219 H 0.62593 0.9698 0.57915 0.0
C1220 C 0.6151 0.0283 0.60186 0.0
C1221 C 0.63661 0.04549 0.62143 0.0
C1222 C 0.61779 0.01558 0.57313 0.0
C1223 C 0.64196 0.01958 0.5636 0.0
C1224 C 0.66343 0.03626 0.58353 0.0
H1225 H 0.61191 0.92859 0.37402 0.0
H1226 H 0.63893 0.95047 0.42501 0.0
C1227 C 0.66076 0.04903 0.61244 0.0
C1228 C 0.64463 0.00829 0.53063 0.0
H1229 H 0.61472 0.95251 0.48471 0.0
C1230 C 0.65869 0.02485 0.50311 0.0
C1231 C 0.63021 0.98169 0.5244 0.0
C1232 C 0.61614 0.96283 0.55345 0.0
C1233 C 0.65628 0.01574 0.46865 0.0
C1234 C 0.63926 0.9896 0.46181 0.0
C1235 C 0.6276 0.97265 0.48993 0.0
C1236 C 0.62901 0.98036 0.4263 0.0
C1237 C 0.67068 0.0344 0.43958 0.0
C1238 C 0.6151 0.99037 0.40972 0.0
C1239 C 0.59951 0.9778 0.38108 0.0
C1240 C 0.59761 0.95506 0.36854 0.0
C1241 C 0.61311 0.94615 0.38324 0.0
C1242 C 0.62855 0.95862 0.41226 0.0
H1243 H 0.6892 0.05025 0.44932 0.0
H1244 H 0.67435 0.02484 0.41722 0.0
H1245 H 0.65923 0.04294 0.42988 0.0
H1246 H 0.61472 0.00679 0.42057 0.0
H1247 H 0.58786 0.98513 0.37 0.0
H1248 H 0.60744 0.69207 0.94792 0.0
H1249 H 0.63103 0.70314 0.89239 0.0
H1250 H 0.64179 0.63787 0.90376 0.0
H1251 H 0.61953 0.62756 0.95972 0.0
H1252 H 0.68146 0.67631 0.86955 0.0
H1253 H 0.58937 0.65999 0.81168 0.0
H1254 H 0.60608 0.68656 0.84103 0.0
H1255 H 0.59186 0.65439 0.85757 0.0
C1256 C 0.61548 0.68053 0.93893 0.0
C1257 C 0.61117 0.65859 0.95766 0.0
C1258 C 0.62885 0.68683 0.90717 0.0
C1259 C 0.63745 0.67088 0.8934 0.0
C1260 C 0.63522 0.65042 0.91378 0.0
H1261 H 0.60944 0.57487 0.74316 0.0
H1262 H 0.61468 0.60701 0.78581 0.0
C1263 C 0.62235 0.64443 0.94576 0.0
C1264 C 0.645 0.67233 0.85613 0.0
H1265 H 0.61668 0.65387 0.77571 0.0
C1266 C 0.66772 0.67221 0.84862 0.0
C1267 C 0.62713 0.66737 0.8288 0.0
C1268 C 0.60219 0.66695 0.83496 0.0
C1269 C 0.67133 0.66363 0.81603 0.0
C1270 C 0.65199 0.65577 0.79024 0.0
C1271 C 0.63124 0.65967 0.79591 0.0
C1272 C 0.64916 0.6375 0.7624 0.0
C1273 C 0.69428 0.66028 0.81092 0.0
C1274 C 0.66684 0.64401 0.73498 0.0
C1275 C 0.66404 0.62539 0.71059 0.0
C1276 C 0.64339 0.60022 0.71325 0.0
C1277 C 0.6255 0.59407 0.74029 0.0
C1278 C 0.62844 0.61248 0.76465 0.0
H1279 H 0.707 0.66639 0.83431 0.0
H1280 H 0.688 0.63991 0.80534 0.0
H1281 H 0.70552 0.67178 0.78805 0.0
H1282 H 0.68278 0.66331 0.73259 0.0
H1283 H 0.67803 0.63065 0.68983 0.0
H1284 H 0.05481 0.6832 0.03441 0.0
H1285 H 0.0388 0.69551 0.08591 0.0
H1286 H 0.99288 0.61594 0.11439 0.0
H1287 H 0.00823 0.60359 0.06332 0.0
H1288 H 0.96833 0.64561 0.12382 0.0
H1289 H 0.06541 0.69036 0.18439 0.0
H1290 H 0.06072 0.70116 0.14235 0.0
H1291 H 0.0582 0.67032 0.14607 0.0
C1292 C 0.04087 0.66837 0.05131 0.0
C1293 C 0.03294 0.64244 0.04512 0.0
C1294 C 0.03187 0.67545 0.08072 0.0
C1295 C 0.01489 0.65664 0.10403 0.0
C1296 C 0.00593 0.63075 0.09662 0.0
H1297 H 0.98313 0.58832 0.27852 0.0
H1298 H 0.00299 0.61897 0.23106 0.0
C1299 C 0.01483 0.62371 0.06749 0.0
C1300 C 0.00795 0.66299 0.13821 0.0
H1301 H 0.03025 0.67234 0.22228 0.0
C1302 C 0.98185 0.65247 0.14546 0.0
C1303 C 0.02581 0.67227 0.16611 0.0
C1304 C 0.05414 0.68421 0.15963 0.0
C1305 C 0.97278 0.64717 0.18004 0.0
C1306 C 0.99051 0.65332 0.20785 0.0
C1307 C 0.01679 0.66749 0.20077 0.0
C1308 C 0.98244 0.63923 0.24142 0.0
C1309 C 0.94428 0.63205 0.18606 0.0
C1310 C 0.96515 0.64119 0.26395 0.0
C1311 C 0.95347 0.62338 0.29099 0.0
C1312 C 0.95909 0.60354 0.29578 0.0
C1313 C 0.9781 0.60312 0.27513 0.0
C1314 C 0.98963 0.62078 0.24816 0.0
H1315 H 0.93323 0.62764 0.16116 0.0
H1316 H 0.93906 0.61373 0.1995 0.0
H1317 H 0.9384 0.6431 0.20318 0.0
H1318 H 0.95969 0.65557 0.2595 0.0
H1319 H 0.93909 0.62436 0.30685 0.0
H1320 H 0.53783 0.17337 0.37488 0.0
H1321 H 0.56567 0.17642 0.42382 0.0
H1322 H 0.51887 0.0953 0.44201 0.0
H1323 H 0.49164 0.09195 0.39276 0.0
H1324 H 0.55329 0.16658 0.49186 0.0
H1325 H 0.58834 0.10272 0.44555 0.0
H1326 H 0.57208 0.1138 0.4168 0.0
H1327 H 0.55413 0.08664 0.44509 0.0
C1328 C 0.53374 0.15613 0.38895 0.0
C1329 C 0.51244 0.13245 0.37999 0.0
C1330 C 0.54962 0.15791 0.41698 0.0
C1331 C 0.54456 0.13605 0.43639 0.0
C1332 C 0.52357 0.11235 0.427 0.0
H1333 H 0.58695 0.0992 0.63409 0.0
H1334 H 0.56489 0.10328 0.58256 0.0
C1335 C 0.50784 0.11052 0.39895 0.0
C1336 C 0.56003 0.13808 0.46789 0.0
H1337 H 0.59177 0.11122 0.5078 0.0
C1338 C 0.56202 0.15475 0.49512 0.0
C1339 C 0.57151 0.12269 0.47215 0.0
C1340 C 0.57164 0.10568 0.44315 0.0
C1341 C 0.57431 0.15567 0.52693 0.0
C1342 C 0.58473 0.13948 0.53161 0.0
C1343 C 0.58339 0.12335 0.50417 0.0
C1344 C 0.59708 0.13883 0.56487 0.0
C1345 C 0.57556 0.17338 0.55579 0.0
C1346 C 0.62229 0.15777 0.57219 0.0
C1347 C 0.63502 0.15545 0.60148 0.0
C1348 C 0.6227 0.13417 0.62396 0.0
C1349 C 0.59698 0.11586 0.6174 0.0
C1350 C 0.58436 0.1181 0.58793 0.0
H1351 H 0.56499 0.1835 0.54895 0.0
H1352 H 0.56751 0.16239 0.58042 0.0
H1353 H 0.59582 0.18783 0.56103 0.0
H1354 H 0.6324 0.17384 0.55455 0.0
H1355 H 0.65478 0.1699 0.60584 0.0
H1356 H 0.33115 0.49545 0.73782 0.0
H1357 H 0.35438 0.52145 0.78868 0.0
H1358 H 0.42542 0.53428 0.74388 0.0
H1359 H 0.40242 0.50847 0.69277 0.0
H1360 H 0.38379 0.50915 0.83378 0.0
H1361 H 0.44165 0.60612 0.77625 0.0
H1362 H 0.414 0.58084 0.75437 0.0
H1363 H 0.444 0.5813 0.75341 0.0
C1364 C 0.35177 0.50421 0.73841 0.0
C1365 C 0.36492 0.49987 0.71123 0.0
C1366 C 0.36499 0.51899 0.76755 0.0
C1367 C 0.39159 0.52986 0.76995 0.0
C1368 C 0.40493 0.52639 0.74228 0.0
H1369 H 0.48911 0.57542 0.95254 0.0
H1370 H 0.46091 0.55245 0.90339 0.0
C1371 C 0.39172 0.51161 0.71308 0.0
C1372 C 0.4051 0.54313 0.80255 0.0
H1373 H 0.45241 0.60012 0.83428 0.0
C1374 C 0.39867 0.5291 0.834 0.0
C1375 C 0.42434 0.56916 0.80273 0.0
C1376 C 0.43132 0.58536 0.76997 0.0
C1377 C 0.41138 0.54028 0.86557 0.0
C1378 C 0.43121 0.5661 0.86551 0.0
C1379 C 0.43724 0.58029 0.83421 0.0
C1380 C 0.44646 0.57869 0.89736 0.0
C1381 C 0.40339 0.5244 0.89869 0.0
C1382 C 0.44768 0.60105 0.91035 0.0
C1383 C 0.46393 0.61434 0.93833 0.0
C1384 C 0.47941 0.60561 0.95361 0.0
C1385 C 0.47749 0.58271 0.94131 0.0
C1386 C 0.46125 0.56944 0.91333 0.0
H1387 H 0.38366 0.50789 0.89651 0.0
H1388 H 0.41648 0.51674 0.9034 0.0
H1389 H 0.40438 0.53608 0.92182 0.0
H1390 H 0.43643 0.60849 0.89834 0.0
H1391 H 0.46492 0.63188 0.94722 0.0
H1392 H 0.89575 0.39073 0.05721 0.0
H1393 H 0.89436 0.41486 0.10746 0.0
H1394 H 0.81319 0.38303 0.09292 0.0
H1395 H 0.81432 0.35829 0.04237 0.0
H1396 H 0.87826 0.45086 0.11283 0.0
H1397 H 0.8196 0.36497 0.19558 0.0
H1398 H 0.83491 0.36351 0.15564 0.0
H1399 H 0.8064 0.36581 0.15355 0.0
C1400 C 0.87755 0.38882 0.06451 0.0
C1401 C 0.85505 0.37231 0.04605 0.0
C1402 C 0.87683 0.40271 0.09324 0.0
C1403 C 0.85362 0.40036 0.10425 0.0
C1404 C 0.83121 0.38467 0.08518 0.0
H1405 H 0.82732 0.47034 0.28823 0.0
H1406 H 0.82157 0.44465 0.23575 0.0
C1407 C 0.83191 0.37071 0.05622 0.0
C1408 C 0.85326 0.41415 0.13614 0.0
H1409 H 0.83303 0.40522 0.22139 0.0
C1410 C 0.86823 0.44091 0.13651 0.0
C1411 C 0.84018 0.40105 0.16694 0.0
C1412 C 0.82449 0.37224 0.16823 0.0
C1413 C 0.87075 0.45497 0.16703 0.0
C1414 C 0.85828 0.44184 0.19811 0.0
C1415 C 0.84269 0.41514 0.19752 0.0
C1416 C 0.86148 0.45561 0.23153 0.0
C1417 C 0.88671 0.48377 0.16573 0.0
C1418 C 0.88568 0.46951 0.24719 0.0
C1419 C 0.88908 0.48424 0.27716 0.0
C1420 C 0.86826 0.48519 0.29205 0.0
C1421 C 0.84379 0.47015 0.27732 0.0
C1422 C 0.84044 0.45546 0.24732 0.0
H1423 H 0.8894 0.49108 0.13836 0.0
H1424 H 0.8778 0.4928 0.18139 0.0
H1425 H 0.90586 0.48982 0.17699 0.0
H1426 H 0.90205 0.46939 0.23577 0.0
H1427 H 0.90813 0.49544 0.28802 0.0
H1428 H 0.4521 0.82657 0.35432 0.0
H1429 H 0.42515 0.82113 0.40555 0.0
H1430 H 0.47892 0.89782 0.43936 0.0
H1431 H 0.50525 0.90371 0.38801 0.0
H1432 H 0.43516 0.82313 0.47572 0.0
H1433 H 0.41339 0.89947 0.44175 0.0
H1434 H 0.42766 0.88769 0.41072 0.0
H1435 H 0.44715 0.91138 0.44291 0.0
C1436 C 0.45796 0.84235 0.37248 0.0
C1437 C 0.48061 0.86568 0.36684 0.0
C1438 C 0.44262 0.83918 0.40179 0.0
C1439 C 0.44977 0.85925 0.42591 0.0
C1440 C 0.4726 0.88234 0.42057 0.0
H1441 H 0.40501 0.89282 0.62162 0.0
H1442 H 0.42756 0.88806 0.57167 0.0
C1443 C 0.4877 0.88565 0.39118 0.0
C1444 C 0.43377 0.85619 0.4571 0.0
H1445 H 0.40606 0.8852 0.50155 0.0
C1446 C 0.42848 0.83647 0.48119 0.0
C1447 C 0.4249 0.8735 0.46407 0.0
C1448 C 0.42834 0.89401 0.43828 0.0
C1449 C 0.41555 0.83437 0.51283 0.0
C1450 C 0.4078 0.85242 0.52036 0.0
C1451 C 0.41237 0.87159 0.49582 0.0
C1452 C 0.3954 0.85248 0.55381 0.0
C1453 C 0.41098 0.81348 0.53854 0.0
C1454 C 0.37006 0.83367 0.56086 0.0
C1455 C 0.35709 0.8364 0.58953 0.0
C1456 C 0.36925 0.85811 0.61129 0.0
C1457 C 0.39507 0.87608 0.60518 0.0
C1458 C 0.408 0.87334 0.57669 0.0
H1459 H 0.42123 0.80318 0.53098 0.0
H1460 H 0.41719 0.82158 0.56531 0.0
H1461 H 0.39022 0.79944 0.53969 0.0
H1462 H 0.35994 0.8176 0.54321 0.0
H1463 H 0.3372 0.82221 0.59351 0.0
H1464 H 0.66369 0.51242 0.75977 0.0
H1465 H 0.6389 0.4823 0.80654 0.0
H1466 H 0.57188 0.44974 0.74063 0.0
H1467 H 0.59642 0.47955 0.69365 0.0
H1468 H 0.58138 0.47831 0.82438 0.0
H1469 H 0.58852 0.39139 0.79602 0.0
H1470 H 0.61477 0.42307 0.78666 0.0
H1471 H 0.58631 0.41011 0.76056 0.0
C1472 C 0.64379 0.49858 0.75496 0.0
C1473 C 0.63193 0.49862 0.72313 0.0
C1474 C 0.62971 0.48142 0.7817 0.0
C1475 C 0.60368 0.46395 0.77685 0.0
C1476 C 0.59203 0.4631 0.74465 0.0
H1477 H 0.48205 0.3467 0.89743 0.0
H1478 H 0.51355 0.37299 0.85342 0.0
C1479 C 0.60607 0.48024 0.71792 0.0
C1480 C 0.58802 0.44832 0.8065 0.0
H1481 H 0.56282 0.38931 0.84395 0.0
C1482 C 0.5774 0.4589 0.82898 0.0
C1483 C 0.58279 0.42303 0.81179 0.0
C1484 C 0.59363 0.41102 0.78762 0.0
C1485 C 0.56112 0.44459 0.85651 0.0
C1486 C 0.55602 0.41925 0.86226 0.0
C1487 C 0.56694 0.4088 0.83979 0.0
C1488 C 0.53805 0.40273 0.88991 0.0
C1489 C 0.54874 0.45645 0.87812 0.0
C1490 C 0.54162 0.41038 0.92532 0.0
C1491 C 0.52333 0.39556 0.95055 0.0
C1492 C 0.5015 0.37254 0.94088 0.0
C1493 C 0.49865 0.36434 0.90575 0.0
C1494 C 0.51668 0.37934 0.88053 0.0
H1495 H 0.54913 0.47291 0.86437 0.0
H1496 H 0.52857 0.44224 0.88428 0.0
H1497 H 0.55934 0.46364 0.9032 0.0
H1498 H 0.55835 0.428 0.93336 0.0
H1499 H 0.52617 0.4022 0.9775 0.0
H1500 H 0.15428 0.49706 0.25285 0.0
H1501 H 0.15961 0.52468 0.20273 0.0
H1502 H 0.09884 0.5358 0.24179 0.0
H1503 H 0.09332 0.50824 0.29204 0.0
H1504 H 0.11976 0.51322 0.15392 0.0
H1505 H 0.15547 0.60871 0.21484 0.0
H1506 H 0.15751 0.5831 0.23649 0.0
H1507 H 0.12784 0.58333 0.23599 0.0
C1508 C 0.14233 0.50574 0.25116 0.0
C1509 C 0.12329 0.50037 0.2764 0.0
C1510 C 0.14541 0.52149 0.22248 0.0
C1511 C 0.12973 0.53238 0.21873 0.0
C1512 C 0.1114 0.5279 0.24456 0.0
H1513 H 0.07574 0.58056 0.04447 0.0
H1514 H 0.08286 0.55813 0.09275 0.0
C1515 C 0.10823 0.51207 0.2732 0.0
C1516 C 0.13085 0.54644 0.1863 0.0
H1517 H 0.13933 0.60349 0.15621 0.0
C1518 C 0.12434 0.53305 0.15432 0.0
C1519 C 0.13701 0.57233 0.18692 0.0
C1520 C 0.14508 0.58784 0.22033 0.0
C1521 C 0.1228 0.5446 0.12311 0.0
C1522 C 0.12782 0.57011 0.12406 0.0
C1523 C 0.13536 0.58385 0.15571 0.0
C1524 C 0.12397 0.58243 0.0929 0.0
C1525 C 0.1155 0.52941 0.08942 0.0
C1526 C 0.14478 0.60341 0.07696 0.0
C1527 C 0.14082 0.61611 0.04901 0.0
C1528 C 0.11592 0.60821 0.03693 0.0
C1529 C 0.09517 0.58693 0.05276 0.0
C1530 C 0.09918 0.57411 0.08041 0.0
H1531 H 0.11767 0.5122 0.0915 0.0
H1532 H 0.09522 0.52301 0.0832 0.0
H1533 H 0.12737 0.54141 0.06724 0.0
H1534 H 0.16403 0.61013 0.08642 0.0
H1535 H 0.15721 0.63246 0.03746 0.0
loop_
_geom_bond_atom_site_label_1
_geom_bond_atom_site_label_2
_geom_bond_distance
_geom_bond_site_symmetry_2
_ccdc_geom_bond_type
Zn0 O6 1.969 . S
Zn0 O7 1.965 . S
Zn0 O11 2.024 . S
Zn0 O16 1.969 . S
Zn1 O8 1.969 . S
Zn1 O14 1.969 . S
Zn1 O15 1.965 . S
Zn1 O17 2.024 . S
C2 O3 1.229 . S
C2 O11 1.058 . S
O3 C2 1.229 . S
C4 O5 1.229 . S
C4 O17 1.058 . S
O5 C4 1.229 . S
O6 Zn0 1.969 . S
O6 C9 1.267 . S
O7 Zn0 1.965 . S
O7 C18 1.260 . S
O8 Zn1 1.969 . S
O8 C18 1.258 . S
C9 O6 1.267 . S
C9 O10 1.228 . S
O10 C9 1.228 . S
O11 Zn0 2.024 . S
O11 C2 1.058 . S
C12 O13 1.228 . S
C12 O14 1.267 . S
O13 C12 1.228 . S
O14 Zn1 1.969 . S
O14 C12 1.267 . S
O15 Zn1 1.965 . S
O15 C19 1.260 . S
O16 Zn0 1.969 . S
O16 C19 1.258 . S
O17 Zn1 2.024 . S
O17 C4 1.058 . S
C18 O7 1.260 . S
C18 O8 1.258 . S
C19 O15 1.260 . S
C19 O16 1.258 . S
Zn20 O26 1.969 . S
Zn20 O27 1.965 . S
Zn20 O31 2.024 . S
Zn20 O36 1.969 . S
Zn21 O28 1.969 . S
Zn21 O34 1.969 . S
Zn21 O35 1.965 . S
Zn21 O37 2.024 . S
C22 O23 1.229 . S
C22 O31 1.058 . S
O23 C22 1.229 . S
C24 O25 1.229 . S
C24 O37 1.058 . S
O25 C24 1.229 . S
O26 Zn20 1.969 . S
O26 C29 1.267 . S
O27 Zn20 1.965 . S
O27 C38 1.260 . S
O28 Zn21 1.969 . S
O28 C38 1.258 . S
C29 O26 1.267 . S
C29 O30 1.228 . S
O30 C29 1.228 . S
O31 Zn20 2.024 . S
O31 C22 1.058 . S
C32 O33 1.228 . S
C32 O34 1.267 . S
O33 C32 1.228 . S
O34 Zn21 1.969 . S
O34 C32 1.267 . S
O35 Zn21 1.965 . S
O35 C39 1.260 . S
O36 Zn20 1.969 . S
O36 C39 1.258 . S
O37 Zn21 2.024 . S
O37 C24 1.058 . S
C38 O27 1.260 . S
C38 O28 1.258 . S
C39 O35 1.260 . S
C39 O36 1.258 . S
Zn40 O46 1.969 . S
Zn40 O47 1.965 . S
Zn40 O51 2.024 . S
Zn40 O56 1.969 . S
Zn41 O48 1.969 . S
Zn41 O54 1.969 . S
Zn41 O55 1.965 . S
Zn41 O57 2.024 . S
C42 O43 1.229 . S
C42 O51 1.058 . S
O43 C42 1.229 . S
C44 O45 1.229 . S
C44 O57 1.058 1_554 S
O45 C44 1.229 . S
O46 Zn40 1.969 . S
O46 C49 1.267 . S
O47 Zn40 1.965 . S
O47 C58 1.260 . S
O48 Zn41 1.969 . S
O48 C58 1.258 . S
C49 O46 1.267 . S
C49 O50 1.228 . S
O50 C49 1.228 . S
O51 Zn40 2.024 . S
O51 C42 1.058 . S
C52 O53 1.228 . S
C52 O54 1.267 1_554 S
O53 C52 1.228 . S
O54 Zn41 1.969 . S
O54 C52 1.267 1_556 S
O55 Zn41 1.965 . S
O55 C59 1.260 . S
O56 Zn40 1.969 . S
O56 C59 1.258 . S
O57 Zn41 2.024 . S
O57 C44 1.058 1_556 S
C58 O47 1.260 . S
C58 O48 1.258 . S
C59 O55 1.260 . S
C59 O56 1.258 . S
Zn60 O66 1.969 . S
Zn60 O67 1.965 . S
Zn60 O71 2.024 . S
Zn60 O76 1.969 . S
Zn61 O68 1.969 . S
Zn61 O74 1.969 . S
Zn61 O75 1.965 . S
Zn61 O77 2.024 . S
C62 O63 1.229 . S
C62 O71 1.058 . S
O63 C62 1.229 . S
C64 O65 1.229 . S
C64 O77 1.058 . S
O65 C64 1.229 . S
O66 Zn60 1.969 . S
O66 C69 1.267 . S
O67 Zn60 1.965 . S
O67 C78 1.260 . S
O68 Zn61 1.969 . S
O68 C78 1.258 . S
C69 O66 1.267 . S
C69 O70 1.228 . S
O70 C69 1.228 . S
O71 Zn60 2.024 . S
O71 C62 1.058 . S
C72 O73 1.228 . S
C72 O74 1.267 . S
O73 C72 1.228 . S
O74 Zn61 1.969 . S
O74 C72 1.267 . S
O75 Zn61 1.965 . S
O75 C79 1.260 . S
O76 Zn60 1.969 . S
O76 C79 1.258 . S
O77 Zn61 2.024 . S
O77 C64 1.058 . S
C78 O67 1.260 . S
C78 O68 1.258 . S
C79 O75 1.260 . S
C79 O76 1.258 . S
Zn80 O86 1.969 . S
Zn80 O87 1.965 . S
Zn80 O91 2.024 . S
Zn80 O96 1.969 . S
Zn81 O88 1.969 . S
Zn81 O94 1.969 . S
Zn81 O95 1.965 . S
Zn81 O97 2.024 . S
C82 O83 1.229 . S
C82 O91 1.058 . S
O83 C82 1.229 . S
C84 O85 1.229 . S
C84 O97 1.058 . S
O85 C84 1.229 . S
O86 Zn80 1.969 . S
O86 C89 1.267 . S
O87 Zn80 1.965 . S
O87 C98 1.260 . S
O88 Zn81 1.969 . S
O88 C98 1.258 . S
C89 O86 1.267 . S
C89 O90 1.228 . S
O90 C89 1.228 . S
O91 Zn80 2.024 . S
O91 C82 1.058 . S
C92 O93 1.228 . S
C92 O94 1.267 . S
O93 C92 1.228 . S
O94 Zn81 1.969 . S
O94 C92 1.267 . S
O95 Zn81 1.965 . S
O95 C99 1.260 . S
O96 Zn80 1.969 . S
O96 C99 1.258 . S
O97 Zn81 2.024 . S
O97 C84 1.058 . S
C98 O87 1.260 . S
C98 O88 1.258 . S
C99 O95 1.260 . S
C99 O96 1.258 . S
Zn100 O106 1.969 . S
Zn100 O107 1.965 . S
Zn100 O111 2.024 . S
Zn100 O116 1.969 . S
Zn101 O108 1.969 . S
Zn101 O114 1.969 . S
Zn101 O115 1.965 . S
Zn101 O117 2.024 . S
C102 O103 1.229 . S
C102 O111 1.058 . S
O103 C102 1.229 . S
C104 O105 1.229 . S
C104 O117 1.058 1_554 S
O105 C104 1.229 . S
O106 Zn100 1.969 . S
O106 C109 1.267 . S
O107 Zn100 1.965 . S
O107 C118 1.260 . S
O108 Zn101 1.969 . S
O108 C118 1.258 . S
C109 O106 1.267 . S
C109 O110 1.228 . S
O110 C109 1.228 . S
O111 Zn100 2.024 . S
O111 C102 1.058 . S
C112 O113 1.228 . S
C112 O114 1.267 1_554 S
O113 C112 1.228 . S
O114 Zn101 1.969 . S
O114 C112 1.267 1_556 S
O115 Zn101 1.965 . S
O115 C119 1.260 . S
O116 Zn100 1.969 . S
O116 C119 1.258 . S
O117 Zn101 2.024 . S
O117 C104 1.058 1_556 S
C118 O107 1.260 . S
C118 O108 1.258 . S
C119 O115 1.260 . S
C119 O116 1.258 . S
Zn120 O126 1.969 . S
Zn120 O127 1.965 . S
Zn120 O131 2.024 . S
Zn120 O136 1.969 . S
Zn121 O128 1.969 . S
Zn121 O134 1.969 . S
Zn121 O135 1.965 . S
Zn121 O137 2.024 . S
C122 O123 1.229 . S
C122 O131 1.058 . S
O123 C122 1.229 . S
C124 O125 1.229 . S
C124 O137 1.058 . S
O125 C124 1.229 . S
O126 Zn120 1.969 . S
O126 C129 1.267 . S
O127 Zn120 1.965 . S
O127 C138 1.260 . S
O128 Zn121 1.969 . S
O128 C138 1.258 . S
C129 O126 1.267 . S
C129 O130 1.228 . S
O130 C129 1.228 . S
O131 Zn120 2.024 . S
O131 C122 1.058 . S
C132 O133 1.228 . S
C132 O134 1.267 . S
O133 C132 1.228 . S
O134 Zn121 1.969 . S
O134 C132 1.267 . S
O135 Zn121 1.965 . S
O135 C139 1.260 . S
O136 Zn120 1.969 . S
O136 C139 1.258 . S
O137 Zn121 2.024 . S
O137 C124 1.058 . S
C138 O127 1.260 . S
C138 O128 1.258 . S
C139 O135 1.260 . S
C139 O136 1.258 . S
Zn140 O146 1.969 . S
Zn140 O147 1.965 . S
Zn140 O151 2.024 . S
Zn140 O156 1.969 . S
Zn141 O148 1.969 . S
Zn141 O154 1.969 . S
Zn141 O155 1.965 . S
Zn141 O157 2.024 . S
C142 O143 1.229 . S
C142 O151 1.058 . S
O143 C142 1.229 . S
C144 O145 1.229 . S
C144 O157 1.058 . S
O145 C144 1.229 . S
O146 Zn140 1.969 . S
O146 C149 1.267 . S
O147 Zn140 1.965 . S
O147 C158 1.260 . S
O148 Zn141 1.969 . S
O148 C158 1.258 . S
C149 O146 1.267 . S
C149 O150 1.228 . S
O150 C149 1.228 . S
O151 Zn140 2.024 . S
O151 C142 1.058 . S
C152 O153 1.228 . S
C152 O154 1.267 . S
O153 C152 1.228 . S
O154 Zn141 1.969 . S
O154 C152 1.267 . S
O155 Zn141 1.965 . S
O155 C159 1.260 . S
O156 Zn140 1.969 . S
O156 C159 1.258 . S
O157 Zn141 2.024 . S
O157 C144 1.058 . S
C158 O147 1.260 . S
C158 O148 1.258 . S
C159 O155 1.260 . S
C159 O156 1.258 . S
Zn160 O166 1.969 . S
Zn160 O167 1.965 . S
Zn160 O171 2.024 . S
Zn160 O176 1.969 . S
Zn161 O168 1.969 . S
Zn161 O174 1.969 . S
Zn161 O175 1.965 . S
Zn161 O177 2.024 . S
C162 O163 1.229 . S
C162 O171 1.058 . S
O163 C162 1.229 . S
C164 O165 1.229 . S
C164 O177 1.058 1_556 S
O165 C164 1.229 . S
O166 Zn160 1.969 . S
O166 C169 1.267 . S
O167 Zn160 1.965 . S
O167 C178 1.260 . S
O168 Zn161 1.969 . S
O168 C178 1.258 . S
C169 O166 1.267 . S
C169 O170 1.228 . S
O170 C169 1.228 . S
O171 Zn160 2.024 . S
O171 C162 1.058 . S
C172 O173 1.228 . S
C172 O174 1.267 1_556 S
O173 C172 1.228 . S
O174 Zn161 1.969 . S
O174 C172 1.267 1_554 S
O175 Zn161 1.965 . S
O175 C179 1.260 . S
O176 Zn160 1.969 . S
O176 C179 1.258 . S
O177 Zn161 2.024 . S
O177 C164 1.058 1_554 S
C178 O167 1.260 . S
C178 O168 1.258 . S
C179 O175 1.260 . S
C179 O176 1.258 . S
Zn180 O186 1.969 . S
Zn180 O187 1.965 . S
Zn180 O191 2.024 . S
Zn180 O196 1.969 . S
Zn181 O188 1.969 . S
Zn181 O194 1.969 . S
Zn181 O195 1.965 . S
Zn181 O197 2.024 . S
C182 O183 1.229 . S
C182 O191 1.058 . S
O183 C182 1.229 . S
C184 O185 1.229 . S
C184 O197 1.058 . S
O185 C184 1.229 . S
O186 Zn180 1.969 . S
O186 C189 1.267 . S
O187 Zn180 1.965 . S
O187 C198 1.260 . S
O188 Zn181 1.969 . S
O188 C198 1.258 . S
C189 O186 1.267 . S
C189 O190 1.228 . S
O190 C189 1.228 . S
O191 Zn180 2.024 . S
O191 C182 1.058 . S
C192 O193 1.228 . S
C192 O194 1.267 . S
O193 C192 1.228 . S
O194 Zn181 1.969 . S
O194 C192 1.267 . S
O195 Zn181 1.965 . S
O195 C199 1.260 . S
O196 Zn180 1.969 . S
O196 C199 1.258 . S
O197 Zn181 2.024 . S
O197 C184 1.058 . S
C198 O187 1.260 . S
C198 O188 1.258 . S
C199 O195 1.260 . S
C199 O196 1.258 . S
Zn200 O206 1.969 . S
Zn200 O207 1.965 . S
Zn200 O211 2.024 . S
Zn200 O216 1.969 . S
Zn201 O208 1.969 . S
Zn201 O214 1.969 . S
Zn201 O215 1.965 . S
Zn201 O217 2.024 . S
C202 O203 1.229 . S
C202 O211 1.058 . S
O203 C202 1.229 . S
C204 O205 1.229 . S
C204 O217 1.058 . S
O205 C204 1.229 . S
O206 Zn200 1.969 . S
O206 C209 1.267 . S
O207 Zn200 1.965 . S
O207 C218 1.260 . S
O208 Zn201 1.969 . S
O208 C218 1.258 . S
C209 O206 1.267 . S
C209 O210 1.228 . S
O210 C209 1.228 . S
O211 Zn200 2.024 . S
O211 C202 1.058 . S
C212 O213 1.228 . S
C212 O214 1.267 . S
O213 C212 1.228 . S
O214 Zn201 1.969 . S
O214 C212 1.267 . S
O215 Zn201 1.965 . S
O215 C219 1.260 . S
O216 Zn200 1.969 . S
O216 C219 1.258 . S
O217 Zn201 2.024 . S
O217 C204 1.058 . S
C218 O207 1.260 . S
C218 O208 1.258 . S
C219 O215 1.260 . S
C219 O216 1.258 . S
Zn220 O226 1.969 . S
Zn220 O227 1.965 . S
Zn220 O231 2.024 . S
Zn220 O236 1.969 . S
Zn221 O228 1.969 . S
Zn221 O234 1.969 . S
Zn221 O235 1.965 . S
Zn221 O237 2.024 . S
C222 O223 1.229 . S
C222 O231 1.058 . S
O223 C222 1.229 . S
C224 O225 1.229 . S
C224 O237 1.058 1_556 S
O225 C224 1.229 . S
O226 Zn220 1.969 . S
O226 C229 1.267 . S
O227 Zn220 1.965 . S
O227 C238 1.260 . S
O228 Zn221 1.969 . S
O228 C238 1.258 . S
C229 O226 1.267 . S
C229 O230 1.228 . S
O230 C229 1.228 . S
O231 Zn220 2.024 . S
O231 C222 1.058 . S
C232 O233 1.228 . S
C232 O234 1.267 1_556 S
O233 C232 1.228 . S
O234 Zn221 1.969 . S
O234 C232 1.267 1_554 S
O235 Zn221 1.965 . S
O235 C239 1.260 . S
O236 Zn220 1.969 . S
O236 C239 1.258 . S
O237 Zn221 2.024 . S
O237 C224 1.058 1_554 S
C238 O227 1.260 . S
C238 O228 1.258 . S
C239 O235 1.260 . S
C239 O236 1.258 . S
H240 C248 0.929 . S
H241 C250 0.930 . S
H242 C252 0.930 . S
H243 C255 0.929 . S
H244 C258 0.930 . S
H245 C260 0.960 . S
H246 C260 0.960 . S
H247 C260 0.960 . S
C248 H240 0.929 . S
C248 C249 1.377 . S
C248 C250 1.384 . S
C249 C248 1.377 . S
C249 C255 1.390 . S
C250 H241 0.930 . S
C250 C248 1.384 . S
C250 C251 1.372 . S
C251 C250 1.372 . S
C251 C252 1.400 . S
C251 C256 1.490 . S
C252 H242 0.930 . S
C252 C251 1.400 . S
C252 C255 1.386 . S
H253 C269 0.930 . S
H254 C270 0.931 . S
C255 H243 0.929 . S
C255 C249 1.390 . S
C255 C252 1.386 . S
C256 C251 1.490 . S
C256 C258 1.395 . S
C256 C259 1.403 . S
H257 C263 0.930 . S
C258 H244 0.930 . S
C258 C256 1.395 . S
C258 C261 1.403 . S
C259 C256 1.403 . S
C259 C260 1.524 . S
C259 C263 1.400 . S
C260 H245 0.960 . S
C260 H246 0.960 . S
C260 H247 0.960 . S
C260 C259 1.524 . S
C261 C258 1.403 . S
C261 C262 1.392 . S
C261 C265 1.495 . S
C262 C261 1.392 . S
C262 C263 1.385 . S
C262 C264 1.478 . S
C263 H257 0.930 . S
C263 C259 1.400 . S
C263 C262 1.385 . S
C264 C262 1.478 . S
C264 C266 1.381 . S
C264 C270 1.383 . S
C265 C261 1.495 . S
C265 H271 0.959 . S
C265 H272 0.961 . S
C265 H273 0.960 . S
C266 C264 1.381 . S
C266 C267 1.394 . S
C266 H274 0.930 . S
C267 C266 1.394 . S
C267 C268 1.383 . S
C267 H275 0.929 . S
C268 C267 1.383 . S
C268 C269 1.377 . S
C269 H253 0.930 . S
C269 C268 1.377 . S
C269 C270 1.379 . S
C270 H254 0.931 . S
C270 C264 1.383 . S
C270 C269 1.379 . S
H271 C265 0.959 . S
H272 C265 0.961 . S
H273 C265 0.960 . S
H274 C266 0.930 . S
H275 C267 0.929 . S
H276 C284 0.929 . S
H277 C286 0.930 . S
H278 C288 0.930 . S
H279 C291 0.929 . S
H280 C294 0.930 . S
H281 C296 0.960 . S
H282 C296 0.960 . S
H283 C296 0.960 . S
C284 H276 0.929 . S
C284 C285 1.377 . S
C284 C286 1.384 . S
C285 C284 1.377 . S
C285 C291 1.390 . S
C286 H277 0.930 . S
C286 C284 1.384 . S
C286 C287 1.372 . S
C287 C286 1.372 . S
C287 C288 1.400 . S
C287 C292 1.490 . S
C288 H278 0.930 . S
C288 C287 1.400 . S
C288 C291 1.386 . S
H289 C305 0.930 . S
H290 C306 0.931 . S
C291 H279 0.929 . S
C291 C285 1.390 . S
C291 C288 1.386 . S
C292 C287 1.490 . S
C292 C294 1.395 . S
C292 C295 1.403 . S
H293 C299 0.930 . S
C294 H280 0.930 . S
C294 C292 1.395 . S
C294 C297 1.403 . S
C295 C292 1.403 . S
C295 C296 1.524 . S
C295 C299 1.400 . S
C296 H281 0.960 . S
C296 H282 0.960 . S
C296 H283 0.960 . S
C296 C295 1.524 . S
C297 C294 1.403 . S
C297 C298 1.392 . S
C297 C301 1.495 . S
C298 C297 1.392 . S
C298 C299 1.385 . S
C298 C300 1.478 . S
C299 H293 0.930 . S
C299 C295 1.400 . S
C299 C298 1.385 . S
C300 C298 1.478 . S
C300 C302 1.381 . S
C300 C306 1.383 . S
C301 C297 1.495 . S
C301 H307 0.959 . S
C301 H308 0.961 . S
C301 H309 0.960 . S
C302 C300 1.381 . S
C302 C303 1.394 . S
C302 H310 0.930 . S
C303 C302 1.394 . S
C303 C304 1.383 . S
C303 H311 0.929 . S
C304 C303 1.383 . S
C304 C305 1.377 . S
C305 H289 0.930 . S
C305 C304 1.377 . S
C305 C306 1.379 . S
C306 H290 0.931 . S
C306 C300 1.383 . S
C306 C305 1.379 . S
H307 C301 0.959 . S
H308 C301 0.961 . S
H309 C301 0.960 . S
H310 C302 0.930 . S
H311 C303 0.929 . S
H312 C320 0.929 . S
H313 C322 0.930 . S
H314 C324 0.930 . S
H315 C327 0.929 . S
H316 C330 0.930 . S
H317 C332 0.960 . S
H318 C332 0.960 . S
H319 C332 0.960 . S
C320 H312 0.929 . S
C320 C321 1.377 . S
C320 C322 1.384 . S
C321 C320 1.377 . S
C321 C327 1.390 . S
C322 H313 0.930 . S
C322 C320 1.384 . S
C322 C323 1.372 . S
C323 C322 1.372 . S
C323 C324 1.400 . S
C323 C328 1.490 . S
C324 H314 0.930 . S
C324 C323 1.400 . S
C324 C327 1.386 . S
H325 C341 0.930 . S
H326 C342 0.931 . S
C327 H315 0.929 . S
C327 C321 1.390 . S
C327 C324 1.386 . S
C328 C323 1.490 . S
C328 C330 1.395 . S
C328 C331 1.403 . S
H329 C335 0.930 . S
C330 H316 0.930 . S
C330 C328 1.395 . S
C330 C333 1.403 . S
C331 C328 1.403 . S
C331 C332 1.524 . S
C331 C335 1.400 . S
C332 H317 0.960 . S
C332 H318 0.960 . S
C332 H319 0.960 . S
C332 C331 1.524 . S
C333 C330 1.403 . S
C333 C334 1.392 . S
C333 C337 1.495 . S
C334 C333 1.392 . S
C334 C335 1.385 . S
C334 C336 1.478 . S
C335 H329 0.930 . S
C335 C331 1.400 . S
C335 C334 1.385 . S
C336 C334 1.478 . S
C336 C338 1.381 . S
C336 C342 1.383 . S
C337 C333 1.495 . S
C337 H343 0.959 . S
C337 H344 0.961 . S
C337 H345 0.960 . S
C338 C336 1.381 . S
C338 C339 1.394 . S
C338 H346 0.930 . S
C339 C338 1.394 . S
C339 C340 1.383 . S
C339 H347 0.929 . S
C340 C339 1.383 . S
C340 C341 1.377 . S
C341 H325 0.930 . S
C341 C340 1.377 . S
C341 C342 1.379 . S
C342 H326 0.931 . S
C342 C336 1.383 . S
C342 C341 1.379 . S
H343 C337 0.959 . S
H344 C337 0.961 . S
H345 C337 0.960 . S
H346 C338 0.930 . S
H347 C339 0.929 . S
H348 C356 0.929 . S
H349 C358 0.930 . S
H350 C360 0.930 . S
H351 C363 0.929 . S
H352 C366 0.930 . S
H353 C368 0.960 . S
H354 C368 0.960 . S
H355 C368 0.960 . S
C356 H348 0.929 . S
C356 C357 1.377 . S
C356 C358 1.384 . S
C357 C356 1.377 . S
C357 C363 1.390 . S
C358 H349 0.930 . S
C358 C356 1.384 . S
C358 C359 1.372 . S
C359 C358 1.372 . S
C359 C360 1.400 . S
C359 C364 1.490 . S
C360 H350 0.930 . S
C360 C359 1.400 . S
C360 C363 1.386 . S
H361 C377 0.930 . S
H362 C378 0.931 . S
C363 H351 0.929 . S
C363 C357 1.390 . S
C363 C360 1.386 . S
C364 C359 1.490 . S
C364 C366 1.395 . S
C364 C367 1.403 . S
H365 C371 0.930 . S
C366 H352 0.930 . S
C366 C364 1.395 . S
C366 C369 1.403 . S
C367 C364 1.403 . S
C367 C368 1.524 . S
C367 C371 1.400 . S
C368 H353 0.960 . S
C368 H354 0.960 . S
C368 H355 0.960 . S
C368 C367 1.524 . S
C369 C366 1.403 . S
C369 C370 1.392 . S
C369 C373 1.495 . S
C370 C369 1.392 . S
C370 C371 1.385 . S
C370 C372 1.478 . S
C371 H365 0.930 . S
C371 C367 1.400 . S
C371 C370 1.385 . S
C372 C370 1.478 . S
C372 C374 1.381 . S
C372 C378 1.383 . S
C373 C369 1.495 . S
C373 H379 0.959 . S
C373 H380 0.961 . S
C373 H381 0.960 . S
C374 C372 1.381 . S
C374 C375 1.394 . S
C374 H382 0.930 . S
C375 C374 1.394 . S
C375 C376 1.383 . S
C375 H383 0.929 . S
C376 C375 1.383 . S
C376 C377 1.377 . S
C377 H361 0.930 . S
C377 C376 1.377 . S
C377 C378 1.379 . S
C378 H362 0.931 . S
C378 C372 1.383 . S
C378 C377 1.379 . S
H379 C373 0.959 . S
H380 C373 0.961 . S
H381 C373 0.960 . S
H382 C374 0.930 . S
H383 C375 0.929 . S
H384 C392 0.929 . S
H385 C394 0.930 . S
H386 C396 0.930 . S
H387 C399 0.929 . S
H388 C402 0.930 . S
H389 C404 0.960 . S
H390 C404 0.960 . S
H391 C404 0.960 . S
C392 H384 0.929 . S
C392 C393 1.377 . S
C392 C394 1.384 . S
C393 C392 1.377 . S
C393 C399 1.390 . S
C394 H385 0.930 . S
C394 C392 1.384 . S
C394 C395 1.372 . S
C395 C394 1.372 . S
C395 C396 1.400 . S
C395 C400 1.490 . S
C396 H386 0.930 . S
C396 C395 1.400 . S
C396 C399 1.386 . S
H397 C413 0.930 . S
H398 C414 0.931 . S
C399 H387 0.929 . S
C399 C393 1.390 . S
C399 C396 1.386 . S
C400 C395 1.490 . S
C400 C402 1.395 . S
C400 C403 1.403 . S
H401 C407 0.930 . S
C402 H388 0.930 . S
C402 C400 1.395 . S
C402 C405 1.403 . S
C403 C400 1.403 . S
C403 C404 1.524 . S
C403 C407 1.400 . S
C404 H389 0.960 . S
C404 H390 0.960 . S
C404 H391 0.960 . S
C404 C403 1.524 . S
C405 C402 1.403 . S
C405 C406 1.392 . S
C405 C409 1.495 . S
C406 C405 1.392 . S
C406 C407 1.385 . S
C406 C408 1.478 . S
C407 H401 0.930 . S
C407 C403 1.400 . S
C407 C406 1.385 . S
C408 C406 1.478 . S
C408 C410 1.381 . S
C408 C414 1.383 . S
C409 C405 1.495 . S
C409 H415 0.959 . S
C409 H416 0.961 . S
C409 H417 0.960 . S
C410 C408 1.381 . S
C410 C411 1.394 . S
C410 H418 0.930 . S
C411 C410 1.394 . S
C411 C412 1.383 . S
C411 H419 0.929 . S
C412 C411 1.383 . S
C412 C413 1.377 . S
C413 H397 0.930 . S
C413 C412 1.377 . S
C413 C414 1.379 . S
C414 H398 0.931 . S
C414 C408 1.383 . S
C414 C413 1.379 . S
H415 C409 0.959 . S
H416 C409 0.961 . S
H417 C409 0.960 . S
H418 C410 0.930 . S
H419 C411 0.929 . S
H420 C428 0.929 . S
H421 C430 0.930 . S
H422 C432 0.930 . S
H423 C435 0.929 . S
H424 C438 0.930 . S
H425 C440 0.960 . S
H426 C440 0.960 . S
H427 C440 0.960 . S
C428 H420 0.929 . S
C428 C429 1.377 . S
C428 C430 1.384 . S
C429 C428 1.377 . S
C429 C435 1.390 . S
C430 H421 0.930 . S
C430 C428 1.384 . S
C430 C431 1.372 . S
C431 C430 1.372 . S
C431 C432 1.400 . S
C431 C436 1.490 . S
C432 H422 0.930 . S
C432 C431 1.400 . S
C432 C435 1.386 . S
H433 C449 0.930 . S
H434 C450 0.931 . S
C435 H423 0.929 . S
C435 C429 1.390 . S
C435 C432 1.386 . S
C436 C431 1.490 . S
C436 C438 1.395 . S
C436 C439 1.403 . S
H437 C443 0.930 . S
C438 H424 0.930 . S
C438 C436 1.395 . S
C438 C441 1.403 . S
C439 C436 1.403 . S
C439 C440 1.524 . S
C439 C443 1.400 . S
C440 H425 0.960 . S
C440 H426 0.960 . S
C440 H427 0.960 . S
C440 C439 1.524 . S
C441 C438 1.403 . S
C441 C442 1.392 . S
C441 C445 1.495 . S
C442 C441 1.392 . S
C442 C443 1.385 . S
C442 C444 1.478 . S
C443 H437 0.930 . S
C443 C439 1.400 . S
C443 C442 1.385 . S
C444 C442 1.478 . S
C444 C446 1.381 . S
C444 C450 1.383 . S
C445 C441 1.495 . S
C445 H451 0.959 . S
C445 H452 0.961 . S
C445 H453 0.960 . S
C446 C444 1.381 . S
C446 C447 1.394 . S
C446 H454 0.930 . S
C447 C446 1.394 . S
C447 C448 1.383 . S
C447 H455 0.929 . S
C448 C447 1.383 . S
C448 C449 1.377 . S
C449 H433 0.930 . S
C449 C448 1.377 . S
C449 C450 1.379 . S
C450 H434 0.931 . S
C450 C444 1.383 . S
C450 C449 1.379 . S
H451 C445 0.959 . S
H452 C445 0.961 . S
H453 C445 0.960 . S
H454 C446 0.930 . S
H455 C447 0.929 . S
H456 C464 0.929 . S
H457 C466 0.930 . S
H458 C468 0.930 . S
H459 C471 0.929 . S
H460 C474 0.930 . S
H461 C476 0.960 . S
H462 C476 0.960 1_556 S
H463 C476 0.960 1_556 S
C464 H456 0.929 . S
C464 C465 1.377 . S
C464 C466 1.384 . S
C465 C464 1.377 . S
C465 C471 1.390 . S
C466 H457 0.930 . S
C466 C464 1.384 . S
C466 C467 1.372 . S
C467 C466 1.372 . S
C467 C468 1.400 . S
C467 C472 1.490 . S
C468 H458 0.930 . S
C468 C467 1.400 . S
C468 C471 1.386 . S
H469 C485 0.930 . S
H470 C486 0.931 . S
C471 H459 0.929 . S
C471 C465 1.390 . S
C471 C468 1.386 . S
C472 C467 1.490 . S
C472 C474 1.395 . S
C472 C475 1.418 . S
H473 C479 0.930 . S
C474 H460 0.930 . S
C474 C472 1.395 . S
C474 C477 1.403 . S
C475 C472 1.418 . S
C475 C476 1.522 1_556 S
C475 C479 1.386 1_556 S
C476 H461 0.960 . S
C476 H462 0.960 1_554 S
C476 H463 0.960 1_554 S
C476 C475 1.522 1_554 S
C477 C474 1.403 . S
C477 C478 1.392 1_556 S
C477 C481 1.495 . S
C478 C477 1.392 1_554 S
C478 C479 1.385 . S
C478 C480 1.478 . S
C479 H473 0.930 . S
C479 C475 1.386 1_554 S
C479 C478 1.385 . S
C480 C478 1.478 . S
C480 C482 1.381 . S
C480 C486 1.383 . S
C481 C477 1.495 . S
C481 H487 0.959 . S
C481 H488 0.961 1_556 S
C481 H489 0.960 1_556 S
C482 C480 1.381 . S
C482 C483 1.394 . S
C482 H490 0.930 . S
C483 C482 1.394 . S
C483 C484 1.383 . S
C483 H491 0.929 . S
C484 C483 1.383 . S
C484 C485 1.377 . S
C485 H469 0.930 . S
C485 C484 1.377 . S
C485 C486 1.379 . S
C486 H470 0.931 . S
C486 C480 1.383 . S
C486 C485 1.379 . S
H487 C481 0.959 . S
H488 C481 0.961 1_554 S
H489 C481 0.960 1_554 S
H490 C482 0.930 . S
H491 C483 0.929 . S
H492 C500 0.929 . S
H493 C502 0.930 . S
H494 C504 0.930 . S
H495 C507 0.929 . S
H496 C510 0.930 . S
H497 C512 0.960 . S
H498 C512 0.960 . S
H499 C512 0.960 . S
C500 H492 0.929 . S
C500 C501 1.377 . S
C500 C502 1.384 . S
C501 C500 1.377 . S
C501 C507 1.390 . S
C502 H493 0.930 . S
C502 C500 1.384 . S
C502 C503 1.372 . S
C503 C502 1.372 . S
C503 C504 1.400 . S
C503 C508 1.490 . S
C504 H494 0.930 . S
C504 C503 1.400 . S
C504 C507 1.386 . S
H505 C521 0.930 . S
H506 C522 0.931 . S
C507 H495 0.929 . S
C507 C501 1.390 . S
C507 C504 1.386 . S
C508 C503 1.490 . S
C508 C510 1.395 . S
C508 C511 1.403 . S
H509 C515 0.930 . S
C510 H496 0.930 . S
C510 C508 1.395 . S
C510 C513 1.403 . S
C511 C508 1.403 . S
C511 C512 1.524 . S
C511 C515 1.400 . S
C512 H497 0.960 . S
C512 H498 0.960 . S
C512 H499 0.960 . S
C512 C511 1.524 . S
C513 C510 1.403 . S
C513 C514 1.392 . S
C513 C517 1.495 . S
C514 C513 1.392 . S
C514 C515 1.385 . S
C514 C516 1.478 . S
C515 H509 0.930 . S
C515 C511 1.400 . S
C515 C514 1.385 . S
C516 C514 1.478 . S
C516 C518 1.381 . S
C516 C522 1.383 . S
C517 C513 1.495 . S
C517 H523 0.959 . S
C517 H524 0.961 . S
C517 H525 0.960 . S
C518 C516 1.381 . S
C518 C519 1.394 . S
C518 H526 0.930 . S
C519 C518 1.394 . S
C519 C520 1.383 . S
C519 H527 0.929 . S
C520 C519 1.383 . S
C520 C521 1.377 . S
C521 H505 0.930 . S
C521 C520 1.377 . S
C521 C522 1.379 . S
C522 H506 0.931 . S
C522 C516 1.383 . S
C522 C521 1.379 . S
H523 C517 0.959 . S
H524 C517 0.961 . S
H525 C517 0.960 . S
H526 C518 0.930 . S
H527 C519 0.929 . S
H528 C536 0.929 . S
H529 C538 0.930 . S
H530 C540 0.930 . S
H531 C543 0.929 . S
H532 C546 0.930 . S
H533 C548 0.960 . S
H534 C548 0.960 . S
H535 C548 0.960 . S
C536 H528 0.929 . S
C536 C537 1.377 . S
C536 C538 1.384 . S
C537 C536 1.377 . S
C537 C543 1.390 . S
C538 H529 0.930 . S
C538 C536 1.384 . S
C538 C539 1.372 . S
C539 C538 1.372 . S
C539 C540 1.400 . S
C539 C544 1.490 . S
C540 H530 0.930 . S
C540 C539 1.400 . S
C540 C543 1.386 . S
H541 C557 0.930 . S
H542 C558 0.931 . S
C543 H531 0.929 . S
C543 C537 1.390 . S
C543 C540 1.386 . S
C544 C539 1.490 . S
C544 C546 1.395 . S
C544 C547 1.403 . S
H545 C551 0.930 . S
C546 H532 0.930 . S
C546 C544 1.395 . S
C546 C549 1.403 . S
C547 C544 1.403 . S
C547 C548 1.524 . S
C547 C551 1.400 . S
C548 H533 0.960 . S
C548 H534 0.960 . S
C548 H535 0.960 . S
C548 C547 1.524 . S
C549 C546 1.403 . S
C549 C550 1.392 . S
C549 C553 1.495 . S
C550 C549 1.392 . S
C550 C551 1.385 . S
C550 C552 1.478 . S
C551 H545 0.930 . S
C551 C547 1.400 . S
C551 C550 1.385 . S
C552 C550 1.478 . S
C552 C554 1.381 . S
C552 C558 1.383 . S
C553 C549 1.495 . S
C553 H559 0.959 . S
C553 H560 0.961 . S
C553 H561 0.960 . S
C554 C552 1.381 . S
C554 C555 1.394 . S
C554 H562 0.930 . S
C555 C554 1.394 . S
C555 C556 1.383 . S
C555 H563 0.929 . S
C556 C555 1.383 . S
C556 C557 1.377 . S
C557 H541 0.930 . S
C557 C556 1.377 . S
C557 C558 1.379 . S
C558 H542 0.931 . S
C558 C552 1.383 . S
C558 C557 1.379 . S
H559 C553 0.959 . S
H560 C553 0.961 . S
H561 C553 0.960 . S
H562 C554 0.930 . S
H563 C555 0.929 . S
H564 C572 0.929 . S
H565 C574 0.930 . S
H566 C576 0.930 . S
H567 C579 0.929 . S
H568 C582 0.930 . S
H569 C584 0.960 . S
H570 C584 0.960 1_556 S
H571 C584 0.960 1_556 S
C572 H564 0.929 . S
C572 C573 1.377 . S
C572 C574 1.384 . S
C573 C572 1.377 . S
C573 C579 1.390 . S
C574 H565 0.930 . S
C574 C572 1.384 . S
C574 C575 1.372 . S
C575 C574 1.372 . S
C575 C576 1.400 . S
C575 C580 1.490 . S
C576 H566 0.930 . S
C576 C575 1.400 . S
C576 C579 1.386 . S
H577 C593 0.930 . S
H578 C594 0.931 . S
C579 H567 0.929 . S
C579 C573 1.390 . S
C579 C576 1.386 . S
C580 C575 1.490 . S
C580 C582 1.395 . S
C580 C583 1.431 . S
H581 C587 0.930 . S
C582 H568 0.930 . S
C582 C580 1.395 . S
C582 C585 1.403 . S
C583 C580 1.431 . S
C583 C584 1.522 1_556 S
C583 C587 1.372 1_556 S
C584 H569 0.960 . S
C584 H570 0.960 1_554 S
C584 H571 0.960 1_554 S
C584 C583 1.522 1_554 S
C585 C582 1.403 . S
C585 C586 1.392 1_556 S
C585 C589 1.495 . S
C586 C585 1.392 1_554 S
C586 C587 1.385 . S
C586 C588 1.478 . S
C587 H581 0.930 . S
C587 C583 1.372 1_554 S
C587 C586 1.385 . S
C588 C586 1.478 . S
C588 C590 1.381 . S
C588 C594 1.383 . S
C589 C585 1.495 . S
C589 H595 0.959 . S
C589 H596 0.961 1_556 S
C589 H597 0.960 1_556 S
C590 C588 1.381 . S
C590 C591 1.394 . S
C590 H598 0.930 . S
C591 C590 1.394 . S
C591 C592 1.383 . S
C591 H599 0.929 . S
C592 C591 1.383 . S
C592 C593 1.377 . S
C593 H577 0.930 . S
C593 C592 1.377 . S
C593 C594 1.379 . S
C594 H578 0.931 . S
C594 C588 1.383 . S
C594 C593 1.379 . S
H595 C589 0.959 . S
H596 C589 0.961 1_554 S
H597 C589 0.960 1_554 S
H598 C590 0.930 . S
H599 C591 0.929 . S
H600 C608 0.929 . S
H601 C610 0.930 . S
H602 C612 0.930 . S
H603 C615 0.929 . S
H604 C618 0.930 . S
H605 C620 0.960 . S
H606 C620 0.960 . S
H607 C620 0.960 . S
C608 H600 0.929 . S
C608 C609 1.377 . S
C608 C610 1.384 . S
C609 C608 1.377 . S
C609 C615 1.390 . S
C610 H601 0.930 . S
C610 C608 1.384 . S
C610 C611 1.372 . S
C611 C610 1.372 . S
C611 C612 1.400 . S
C611 C616 1.490 . S
C612 H602 0.930 . S
C612 C611 1.400 . S
C612 C615 1.386 . S
H613 C629 0.930 . S
H614 C630 0.931 . S
C615 H603 0.929 . S
C615 C609 1.390 . S
C615 C612 1.386 . S
C616 C611 1.490 . S
C616 C618 1.395 . S
C616 C619 1.403 . S
H617 C623 0.930 . S
C618 H604 0.930 . S
C618 C616 1.395 . S
C618 C621 1.403 . S
C619 C616 1.403 . S
C619 C620 1.524 . S
C619 C623 1.400 . S
C620 H605 0.960 . S
C620 H606 0.960 . S
C620 H607 0.960 . S
C620 C619 1.524 . S
C621 C618 1.403 . S
C621 C622 1.392 . S
C621 C625 1.495 . S
C622 C621 1.392 . S
C622 C623 1.385 . S
C622 C624 1.478 . S
C623 H617 0.930 . S
C623 C619 1.400 . S
C623 C622 1.385 . S
C624 C622 1.478 . S
C624 C626 1.381 . S
C624 C630 1.383 . S
C625 C621 1.495 . S
C625 H631 0.959 . S
C625 H632 0.961 . S
C625 H633 0.960 . S
C626 C624 1.381 . S
C626 C627 1.394 . S
C626 H634 0.930 . S
C627 C626 1.394 . S
C627 C628 1.383 . S
C627 H635 0.929 . S
C628 C627 1.383 . S
C628 C629 1.377 . S
C629 H613 0.930 . S
C629 C628 1.377 . S
C629 C630 1.379 . S
C630 H614 0.931 . S
C630 C624 1.383 . S
C630 C629 1.379 . S
H631 C625 0.959 . S
H632 C625 0.961 . S
H633 C625 0.960 . S
H634 C626 0.930 . S
H635 C627 0.929 . S
H636 C644 0.929 . S
H637 C646 0.930 . S
H638 C648 0.930 . S
H639 C651 0.929 . S
H640 C654 0.930 . S
H641 C656 0.960 . S
H642 C656 0.960 . S
H643 C656 0.960 . S
C644 H636 0.929 . S
C644 C645 1.377 . S
C644 C646 1.384 . S
C645 C644 1.377 . S
C645 C651 1.390 . S
C646 H637 0.930 . S
C646 C644 1.384 . S
C646 C647 1.372 . S
C647 C646 1.372 . S
C647 C648 1.400 . S
C647 C652 1.490 . S
C648 H638 0.930 . S
C648 C647 1.400 . S
C648 C651 1.386 . S
H649 C665 0.930 . S
H650 C666 0.931 . S
C651 H639 0.929 . S
C651 C645 1.390 . S
C651 C648 1.386 . S
C652 C647 1.490 . S
C652 C654 1.395 . S
C652 C655 1.403 . S
H653 C659 0.930 . S
C654 H640 0.930 . S
C654 C652 1.395 . S
C654 C657 1.403 . S
C655 C652 1.403 . S
C655 C656 1.524 . S
C655 C659 1.400 . S
C656 H641 0.960 . S
C656 H642 0.960 . S
C656 H643 0.960 . S
C656 C655 1.524 . S
C657 C654 1.403 . S
C657 C658 1.392 . S
C657 C661 1.495 . S
C658 C657 1.392 . S
C658 C659 1.385 . S
C658 C660 1.478 . S
C659 H653 0.930 . S
C659 C655 1.400 . S
C659 C658 1.385 . S
C660 C658 1.478 . S
C660 C662 1.381 . S
C660 C666 1.383 . S
C661 C657 1.495 . S
C661 H667 0.959 . S
C661 H668 0.961 . S
C661 H669 0.960 . S
C662 C660 1.381 . S
C662 C663 1.394 . S
C662 H670 0.930 . S
C663 C662 1.394 . S
C663 C664 1.383 . S
C663 H671 0.929 . S
C664 C663 1.383 . S
C664 C665 1.377 . S
C665 H649 0.930 . S
C665 C664 1.377 . S
C665 C666 1.379 . S
C666 H650 0.931 . S
C666 C660 1.383 . S
C666 C665 1.379 . S
H667 C661 0.959 . S
H668 C661 0.961 . S
H669 C661 0.960 . S
H670 C662 0.930 . S
H671 C663 0.929 . S
H672 C680 0.929 . S
H673 C682 0.930 . S
H674 C684 0.930 . S
H675 C687 0.929 . S
H676 C690 0.930 . S
H677 C692 0.976 . S
H678 C692 0.960 . S
H679 C692 0.960 . S
C680 H672 0.929 . S
C680 C681 1.377 . S
C680 C682 1.384 . S
C681 C680 1.377 . S
C681 C687 1.390 . S
C682 H673 0.930 . S
C682 C680 1.384 . S
C682 C683 1.372 . S
C683 C682 1.372 . S
C683 C684 1.400 . S
C683 C688 1.490 . S
C684 H674 0.930 . S
C684 C683 1.400 . S
C684 C687 1.386 . S
H685 C701 0.930 . S
H686 C702 0.931 . S
C687 H675 0.929 . S
C687 C681 1.390 . S
C687 C684 1.386 . S
C688 C683 1.490 . S
C688 C690 1.395 . S
C688 C691 1.403 . S
H689 C695 0.930 . S
C690 H676 0.930 . S
C690 C688 1.395 . S
C690 C693 1.403 1_566 S
C691 C688 1.403 . S
C691 C692 1.524 . S
C691 C695 1.400 1_566 S
C692 H677 0.976 . S
C692 H678 0.960 . S
C692 H679 0.960 . S
C692 C691 1.524 . S
C693 C690 1.403 1_544 S
C693 C694 1.392 . S
C693 C697 1.495 . S
C694 C693 1.392 . S
C694 C695 1.385 . S
C694 C696 1.478 . S
C695 H689 0.930 . S
C695 C691 1.400 1_544 S
C695 C694 1.385 . S
C696 C694 1.478 . S
C696 C698 1.381 . S
C696 C702 1.383 . S
C697 C693 1.495 . S
C697 H703 0.959 1_545 S
C697 H704 0.961 . S
C697 H705 0.954 1_545 S
C698 C696 1.381 . S
C698 C699 1.394 . S
C698 H706 0.930 . S
C699 C698 1.394 . S
C699 C700 1.383 . S
C699 H707 0.929 . S
C700 C699 1.383 . S
C700 C701 1.377 . S
C701 H685 0.930 . S
C701 C700 1.377 . S
C701 C702 1.379 . S
C702 H686 0.931 . S
C702 C696 1.383 . S
C702 C701 1.379 . S
H703 C697 0.959 1_565 S
H704 C697 0.961 . S
H705 C697 0.954 1_565 S
H706 C698 0.930 . S
H707 C699 0.929 . S
H708 C716 0.929 . S
H709 C718 0.930 . S
H710 C720 0.930 . S
H711 C723 0.929 . S
H712 C726 0.930 . S
H713 C728 0.960 . S
H714 C728 0.960 . S
H715 C728 0.960 . S
C716 H708 0.929 . S
C716 C717 1.377 . S
C716 C718 1.384 . S
C717 C716 1.377 . S
C717 C723 1.390 . S
C718 H709 0.930 . S
C718 C716 1.384 . S
C718 C719 1.372 . S
C719 C718 1.372 . S
C719 C720 1.400 . S
C719 C724 1.490 . S
C720 H710 0.930 . S
C720 C719 1.400 . S
C720 C723 1.386 . S
H721 C737 0.930 . S
H722 C738 0.931 . S
C723 H711 0.929 . S
C723 C717 1.390 . S
C723 C720 1.386 . S
C724 C719 1.490 . S
C724 C726 1.395 . S
C724 C727 1.403 . S
H725 C731 0.930 . S
C726 H712 0.930 . S
C726 C724 1.395 . S
C726 C729 1.403 . S
C727 C724 1.403 . S
C727 C728 1.524 . S
C727 C731 1.400 . S
C728 H713 0.960 . S
C728 H714 0.960 . S
C728 H715 0.960 . S
C728 C727 1.524 . S
C729 C726 1.403 . S
C729 C730 1.392 . S
C729 C733 1.495 . S
C730 C729 1.392 . S
C730 C731 1.385 . S
C730 C732 1.478 . S
C731 H725 0.930 . S
C731 C727 1.400 . S
C731 C730 1.385 . S
C732 C730 1.478 . S
C732 C734 1.381 . S
C732 C738 1.383 . S
C733 C729 1.495 . S
C733 H739 0.959 . S
C733 H740 0.961 . S
C733 H741 0.960 . S
C734 C732 1.381 . S
C734 C735 1.394 . S
C734 H742 0.930 . S
C735 C734 1.394 . S
C735 C736 1.383 . S
C735 H743 0.929 . S
C736 C735 1.383 . S
C736 C737 1.377 . S
C737 H721 0.930 . S
C737 C736 1.377 . S
C737 C738 1.379 . S
C738 H722 0.931 . S
C738 C732 1.383 . S
C738 C737 1.379 . S
H739 C733 0.959 . S
H740 C733 0.961 . S
H741 C733 0.960 . S
H742 C734 0.930 . S
H743 C735 0.929 . S
H744 C752 0.929 . S
H745 C754 0.930 . S
H746 C756 0.930 . S
H747 C759 0.929 . S
H748 C762 0.930 . S
H749 C764 0.960 . S
H750 C764 0.960 . S
H751 C764 0.960 . S
C752 H744 0.929 . S
C752 C753 1.377 . S
C752 C754 1.384 . S
C753 C752 1.377 . S
C753 C759 1.390 . S
C754 H745 0.930 . S
C754 C752 1.384 . S
C754 C755 1.372 . S
C755 C754 1.372 . S
C755 C756 1.400 . S
C755 C760 1.490 . S
C756 H746 0.930 . S
C756 C755 1.400 . S
C756 C759 1.386 . S
H757 C773 0.930 . S
H758 C774 0.931 . S
C759 H747 0.929 . S
C759 C753 1.390 . S
C759 C756 1.386 . S
C760 C755 1.490 . S
C760 C762 1.395 . S
C760 C763 1.403 1_455 S
H761 C767 0.930 . S
C762 H748 0.930 . S
C762 C760 1.395 . S
C762 C765 1.403 . S
C763 C760 1.403 1_655 S
C763 C764 1.524 . S
C763 C767 1.400 . S
C764 H749 0.960 . S
C764 H750 0.960 . S
C764 H751 0.960 . S
C764 C763 1.524 . S
C765 C762 1.403 . S
C765 C766 1.392 1_455 S
C765 C769 1.495 . S
C766 C765 1.392 1_655 S
C766 C767 1.385 . S
C766 C768 1.478 . S
C767 H761 0.930 . S
C767 C763 1.400 . S
C767 C766 1.385 . S
C768 C766 1.478 . S
C768 C770 1.381 . S
C768 C774 1.383 . S
C769 C765 1.495 . S
C769 H775 0.959 . S
C769 H776 0.961 . S
C769 H777 0.960 . S
C770 C768 1.381 . S
C770 C771 1.394 . S
C770 H778 0.930 . S
C771 C770 1.394 . S
C771 C772 1.383 . S
C771 H779 0.929 . S
C772 C771 1.383 . S
C772 C773 1.377 . S
C773 H757 0.930 . S
C773 C772 1.377 . S
C773 C774 1.379 . S
C774 H758 0.931 . S
C774 C768 1.383 . S
C774 C773 1.379 . S
H775 C769 0.959 . S
H776 C769 0.961 . S
H777 C769 0.960 . S
H778 C770 0.930 . S
H779 C771 0.929 . S
H780 C788 0.929 . S
H781 C790 0.930 . S
H782 C792 0.930 . S
H783 C795 0.929 . S
H784 C798 0.930 . S
H785 C800 0.960 . S
H786 C800 0.960 . S
H787 C800 0.960 . S
C788 H780 0.929 . S
C788 C789 1.377 . S
C788 C790 1.384 . S
C789 C788 1.377 . S
C789 C795 1.390 . S
C790 H781 0.930 . S
C790 C788 1.384 . S
C790 C791 1.372 . S
C791 C790 1.372 . S
C791 C792 1.400 . S
C791 C796 1.490 . S
C792 H782 0.930 . S
C792 C791 1.400 . S
C792 C795 1.386 . S
H793 C809 0.930 . S
H794 C810 0.931 . S
C795 H783 0.929 . S
C795 C789 1.390 . S
C795 C792 1.386 . S
C796 C791 1.490 . S
C796 C798 1.395 . S
C796 C799 1.403 1_565 S
H797 C803 0.930 . S
C798 H784 0.930 . S
C798 C796 1.395 . S
C798 C801 1.403 1_554 S
C799 C796 1.403 1_545 S
C799 C800 1.524 . S
C799 C803 1.400 1_554 S
C800 H785 0.960 . S
C800 H786 0.960 . S
C800 H787 0.960 . S
C800 C799 1.524 . S
C801 C798 1.403 1_556 S
C801 C802 1.392 1_565 S
C801 C805 1.495 . S
C802 C801 1.392 1_545 S
C802 C803 1.385 . S
C802 C804 1.478 . S
C803 H797 0.930 . S
C803 C799 1.400 1_556 S
C803 C802 1.385 . S
C804 C802 1.478 . S
C804 C806 1.381 . S
C804 C810 1.383 . S
C805 C801 1.495 . S
C805 H811 0.959 . S
C805 H812 0.961 . S
C805 H813 0.960 . S
C806 C804 1.381 . S
C806 C807 1.394 . S
C806 H814 0.930 . S
C807 C806 1.394 . S
C807 C808 1.383 . S
C807 H815 0.929 . S
C808 C807 1.383 . S
C808 C809 1.377 . S
C809 H793 0.930 . S
C809 C808 1.377 . S
C809 C810 1.379 . S
C810 H794 0.931 . S
C810 C804 1.383 . S
C810 C809 1.379 . S
H811 C805 0.959 . S
H812 C805 0.961 . S
H813 C805 0.960 . S
H814 C806 0.930 . S
H815 C807 0.929 . S
H816 C824 0.929 . S
H817 C826 0.930 . S
H818 C828 0.930 . S
H819 C831 0.929 . S
H820 C834 0.930 . S
H821 C836 0.960 . S
H822 C836 0.960 . S
H823 C836 0.960 . S
C824 H816 0.929 . S
C824 C825 1.377 . S
C824 C826 1.384 . S
C825 C824 1.377 . S
C825 C831 1.390 . S
C826 H817 0.930 . S
C826 C824 1.384 . S
C826 C827 1.372 . S
C827 C826 1.372 . S
C827 C828 1.400 . S
C827 C832 1.490 . S
C828 H818 0.930 . S
C828 C827 1.400 . S
C828 C831 1.386 . S
H829 C845 0.930 . S
H830 C846 0.931 . S
C831 H819 0.929 . S
C831 C825 1.390 . S
C831 C828 1.386 . S
C832 C827 1.490 . S
C832 C834 1.395 . S
C832 C835 1.403 . S
H833 C839 0.930 . S
C834 H820 0.930 . S
C834 C832 1.395 . S
C834 C837 1.403 . S
C835 C832 1.403 . S
C835 C836 1.524 . S
C835 C839 1.400 . S
C836 H821 0.960 . S
C836 H822 0.960 . S
C836 H823 0.960 . S
C836 C835 1.524 . S
C837 C834 1.403 . S
C837 C838 1.392 . S
C837 C841 1.495 . S
C838 C837 1.392 . S
C838 C839 1.385 . S
C838 C840 1.478 . S
C839 H833 0.930 . S
C839 C835 1.400 . S
C839 C838 1.385 . S
C840 C838 1.478 . S
C840 C842 1.381 . S
C840 C846 1.383 . S
C841 C837 1.495 . S
C841 H847 0.959 . S
C841 H848 0.961 . S
C841 H849 0.960 . S
C842 C840 1.381 . S
C842 C843 1.394 . S
C842 H850 0.930 . S
C843 C842 1.394 . S
C843 C844 1.383 . S
C843 H851 0.929 . S
C844 C843 1.383 . S
C844 C845 1.377 . S
C845 H829 0.930 . S
C845 C844 1.377 . S
C845 C846 1.379 . S
C846 H830 0.931 . S
C846 C840 1.383 . S
C846 C845 1.379 . S
H847 C841 0.959 . S
H848 C841 0.961 . S
H849 C841 0.960 . S
H850 C842 0.930 . S
H851 C843 0.929 . S
H852 C860 0.929 . S
H853 C862 0.930 . S
H854 C864 0.930 . S
H855 C867 0.929 . S
H856 C870 0.930 . S
H857 C872 0.960 . S
H858 C872 0.960 . S
H859 C872 0.960 . S
C860 H852 0.929 . S
C860 C861 1.377 . S
C860 C862 1.384 . S
C861 C860 1.377 . S
C861 C867 1.390 . S
C862 H853 0.930 . S
C862 C860 1.384 . S
C862 C863 1.372 . S
C863 C862 1.372 . S
C863 C864 1.400 . S
C863 C868 1.490 . S
C864 H854 0.930 . S
C864 C863 1.400 . S
C864 C867 1.386 . S
H865 C881 0.930 . S
H866 C882 0.931 . S
C867 H855 0.929 . S
C867 C861 1.390 . S
C867 C864 1.386 . S
C868 C863 1.490 . S
C868 C870 1.395 . S
C868 C871 1.403 1_455 S
H869 C875 0.930 . S
C870 H856 0.930 . S
C870 C868 1.395 . S
C870 C873 1.403 . S
C871 C868 1.403 1_655 S
C871 C872 1.524 . S
C871 C875 1.400 . S
C872 H857 0.960 . S
C872 H858 0.960 . S
C872 H859 0.960 . S
C872 C871 1.524 . S
C873 C870 1.403 . S
C873 C874 1.392 1_455 S
C873 C877 1.495 . S
C874 C873 1.392 1_655 S
C874 C875 1.385 . S
C874 C876 1.478 . S
C875 H869 0.930 . S
C875 C871 1.400 . S
C875 C874 1.385 . S
C876 C874 1.478 . S
C876 C878 1.381 . S
C876 C882 1.383 . S
C877 C873 1.495 . S
C877 H883 0.959 . S
C877 H884 0.961 . S
C877 H885 0.960 . S
C878 C876 1.381 . S
C878 C879 1.394 . S
C878 H886 0.930 . S
C879 C878 1.394 . S
C879 C880 1.383 . S
C879 H887 0.929 . S
C880 C879 1.383 . S
C880 C881 1.377 . S
C881 H865 0.930 . S
C881 C880 1.377 . S
C881 C882 1.379 . S
C882 H866 0.931 . S
C882 C876 1.383 . S
C882 C881 1.379 . S
H883 C877 0.959 . S
H884 C877 0.961 . S
H885 C877 0.960 . S
H886 C878 0.930 . S
H887 C879 0.929 . S
H888 C896 0.929 . S
H889 C898 0.930 . S
H890 C900 0.930 . S
H891 C903 0.929 . S
H892 C906 0.930 . S
H893 C908 0.960 . S
H894 C908 0.960 . S
H895 C908 0.960 . S
C896 H888 0.929 . S
C896 C897 1.377 . S
C896 C898 1.384 . S
C897 C896 1.377 . S
C897 C903 1.390 . S
C898 H889 0.930 . S
C898 C896 1.384 . S
C898 C899 1.372 . S
C899 C898 1.372 . S
C899 C900 1.400 . S
C899 C904 1.490 . S
C900 H890 0.930 . S
C900 C899 1.400 . S
C900 C903 1.386 . S
H901 C917 0.930 . S
H902 C918 0.931 . S
C903 H891 0.929 . S
C903 C897 1.390 . S
C903 C900 1.386 . S
C904 C899 1.490 . S
C904 C906 1.395 1_545 S
C904 C907 1.403 . S
H905 C911 0.918 . S
C906 H892 0.930 . S
C906 C904 1.395 1_565 S
C906 C909 1.403 . S
C907 C904 1.403 . S
C907 C908 1.524 . S
C907 C911 1.436 . S
C908 H893 0.960 . S
C908 H894 0.960 . S
C908 H895 0.960 . S
C908 C907 1.524 . S
C909 C906 1.403 . S
C909 C910 1.392 . S
C909 C913 1.495 . S
C910 C909 1.392 . S
C910 C911 1.362 1_565 S
C910 C912 1.478 . S
C911 H905 0.918 . S
C911 C907 1.436 . S
C911 C910 1.362 1_545 S
C912 C910 1.478 . S
C912 C914 1.381 . S
C912 C918 1.383 . S
C913 C909 1.495 . S
C913 H919 0.959 . S
C913 H920 0.961 . S
C913 H921 0.960 . S
C914 C912 1.381 . S
C914 C915 1.394 . S
C914 H922 0.930 . S
C915 C914 1.394 . S
C915 C916 1.383 . S
C915 H923 0.929 . S
C916 C915 1.383 . S
C916 C917 1.377 . S
C917 H901 0.930 . S
C917 C916 1.377 . S
C917 C918 1.379 . S
C918 H902 0.931 . S
C918 C912 1.383 . S
C918 C917 1.379 . S
H919 C913 0.959 . S
H920 C913 0.961 . S
H921 C913 0.960 . S
H922 C914 0.930 . S
H923 C915 0.929 . S
H924 C932 0.929 . S
H925 C934 0.930 . S
H926 C936 0.930 . S
H927 C939 0.929 . S
H928 C942 0.930 . S
H929 C944 0.960 . S
H930 C944 0.960 . S
H931 C944 0.960 . S
C932 H924 0.929 . S
C932 C933 1.377 . S
C932 C934 1.384 . S
C933 C932 1.377 . S
C933 C939 1.390 . S
C934 H925 0.930 . S
C934 C932 1.384 . S
C934 C935 1.372 . S
C935 C934 1.372 . S
C935 C936 1.400 . S
C935 C940 1.490 . S
C936 H926 0.930 . S
C936 C935 1.400 . S
C936 C939 1.386 . S
H937 C953 0.930 . S
H938 C954 0.931 . S
C939 H927 0.929 . S
C939 C933 1.390 . S
C939 C936 1.386 . S
C940 C935 1.490 . S
C940 C942 1.395 . S
C940 C943 1.403 . S
H941 C947 0.930 . S
C942 H928 0.930 . S
C942 C940 1.395 . S
C942 C945 1.403 . S
C943 C940 1.403 . S
C943 C944 1.524 . S
C943 C947 1.400 . S
C944 H929 0.960 . S
C944 H930 0.960 . S
C944 H931 0.960 . S
C944 C943 1.524 . S
C945 C942 1.403 . S
C945 C946 1.392 . S
C945 C949 1.495 . S
C946 C945 1.392 . S
C946 C947 1.385 . S
C946 C948 1.478 . S
C947 H941 0.930 . S
C947 C943 1.400 . S
C947 C946 1.385 . S
C948 C946 1.478 . S
C948 C950 1.381 . S
C948 C954 1.383 . S
C949 C945 1.495 . S
C949 H955 0.959 . S
C949 H956 0.961 . S
C949 H957 0.960 . S
C950 C948 1.381 . S
C950 C951 1.394 . S
C950 H958 0.930 . S
C951 C950 1.394 . S
C951 C952 1.383 . S
C951 H959 0.929 . S
C952 C951 1.383 . S
C952 C953 1.377 . S
C953 H937 0.930 . S
C953 C952 1.377 . S
C953 C954 1.379 . S
C954 H938 0.931 . S
C954 C948 1.383 . S
C954 C953 1.379 . S
H955 C949 0.959 . S
H956 C949 0.961 . S
H957 C949 0.960 . S
H958 C950 0.930 . S
H959 C951 0.929 . S
H960 C968 0.929 . S
H961 C970 0.930 . S
H962 C972 0.930 . S
H963 C975 0.929 . S
H964 C978 0.930 . S
H965 C980 0.960 1_455 S
H966 C980 0.960 . S
H967 C980 0.960 . S
C968 H960 0.929 . S
C968 C969 1.377 . S
C968 C970 1.384 . S
C969 C968 1.377 . S
C969 C975 1.390 . S
C970 H961 0.930 . S
C970 C968 1.384 . S
C970 C971 1.372 . S
C971 C970 1.372 . S
C971 C972 1.400 . S
C971 C976 1.490 . S
C972 H962 0.930 . S
C972 C971 1.400 . S
C972 C975 1.386 . S
H973 C989 0.930 . S
H974 C990 0.931 . S
C975 H963 0.929 . S
C975 C969 1.390 . S
C975 C972 1.386 . S
C976 C971 1.490 . S
C976 C978 1.395 . S
C976 C979 1.403 . S
H977 C983 0.930 . S
C978 H964 0.930 . S
C978 C976 1.395 . S
C978 C981 1.400 1_655 S
C979 C976 1.403 . S
C979 C980 1.524 . S
C979 C983 1.400 1_655 S
C980 H965 0.960 1_655 S
C980 H966 0.960 . S
C980 H967 0.960 . S
C980 C979 1.524 . S
C981 C978 1.400 1_455 S
C981 C982 1.399 . S
C981 C985 1.492 . S
C982 C981 1.399 . S
C982 C983 1.385 . S
C982 C984 1.478 . S
C983 H977 0.930 . S
C983 C979 1.400 1_455 S
C983 C982 1.385 . S
C984 C982 1.478 . S
C984 C986 1.381 . S
C984 C990 1.383 . S
C985 C981 1.492 . S
C985 H991 0.959 1_456 S
C985 H992 0.961 1_556 S
C985 H993 0.944 1_455 S
C986 C984 1.381 . S
C986 C987 1.394 . S
C986 H994 0.930 . S
C987 C986 1.394 . S
C987 C988 1.383 . S
C987 H995 0.929 . S
C988 C987 1.383 . S
C988 C989 1.377 . S
C989 H973 0.930 . S
C989 C988 1.377 . S
C989 C990 1.379 . S
C990 H974 0.931 . S
C990 C984 1.383 . S
C990 C989 1.379 . S
H991 C985 0.959 1_654 S
H992 C985 0.961 1_554 S
H993 C985 0.944 1_655 S
H994 C986 0.930 . S
H995 C987 0.929 . S
H996 C1004 0.929 . S
H997 C1006 0.930 . S
H998 C1008 0.930 . S
H999 C1011 0.929 . S
H1000 C1014 0.930 . S
H1001 C1016 0.960 . S
H1002 C1016 0.960 . S
H1003 C1016 0.960 . S
C1004 H996 0.929 . S
C1004 C1005 1.377 . S
C1004 C1006 1.384 . S
C1005 C1004 1.377 . S
C1005 C1011 1.390 . S
C1006 H997 0.930 . S
C1006 C1004 1.384 . S
C1006 C1007 1.372 . S
C1007 C1006 1.372 . S
C1007 C1008 1.400 . S
C1007 C1012 1.490 . S
C1008 H998 0.930 . S
C1008 C1007 1.400 . S
C1008 C1011 1.386 . S
H1009 C1025 0.930 . S
H1010 C1026 0.931 . S
C1011 H999 0.929 . S
C1011 C1005 1.390 . S
C1011 C1008 1.386 . S
C1012 C1007 1.490 . S
C1012 C1014 1.395 1_455 S
C1012 C1015 1.403 . S
H1013 C1019 0.930 . S
C1014 H1000 0.930 . S
C1014 C1012 1.395 1_655 S
C1014 C1017 1.403 . S
C1015 C1012 1.403 . S
C1015 C1016 1.524 . S
C1015 C1019 1.400 . S
C1016 H1001 0.960 . S
C1016 H1002 0.960 . S
C1016 H1003 0.960 . S
C1016 C1015 1.524 . S
C1017 C1014 1.403 . S
C1017 C1018 1.392 . S
C1017 C1021 1.495 . S
C1018 C1017 1.392 . S
C1018 C1019 1.385 1_655 S
C1018 C1020 1.478 . S
C1019 H1013 0.930 . S
C1019 C1015 1.400 . S
C1019 C1018 1.385 1_455 S
C1020 C1018 1.478 . S
C1020 C1022 1.381 . S
C1020 C1026 1.383 . S
C1021 C1017 1.495 . S
C1021 H1027 0.959 . S
C1021 H1028 0.961 . S
C1021 H1029 0.960 . S
C1022 C1020 1.381 . S
C1022 C1023 1.394 . S
C1022 H1030 0.930 . S
C1023 C1022 1.394 . S
C1023 C1024 1.383 . S
C1023 H1031 0.929 . S
C1024 C1023 1.383 . S
C1024 C1025 1.377 . S
C1025 H1009 0.930 . S
C1025 C1024 1.377 . S
C1025 C1026 1.379 . S
C1026 H1010 0.931 . S
C1026 C1020 1.383 . S
C1026 C1025 1.379 . S
H1027 C1021 0.959 . S
H1028 C1021 0.961 . S
H1029 C1021 0.960 . S
H1030 C1022 0.930 . S
H1031 C1023 0.929 . S
H1032 C1040 0.929 . S
H1033 C1042 0.930 . S
H1034 C1044 0.930 . S
H1035 C1047 0.929 . S
H1036 C1050 0.930 . S
H1037 C1052 0.960 . S
H1038 C1052 0.960 . S
H1039 C1052 0.960 . S
C1040 H1032 0.929 . S
C1040 C1041 1.377 . S
C1040 C1042 1.384 . S
C1041 C1040 1.377 . S
C1041 C1047 1.390 . S
C1042 H1033 0.930 . S
C1042 C1040 1.384 . S
C1042 C1043 1.372 . S
C1043 C1042 1.372 . S
C1043 C1044 1.400 . S
C1043 C1048 1.490 . S
C1044 H1034 0.930 . S
C1044 C1043 1.400 . S
C1044 C1047 1.386 . S
H1045 C1061 0.930 . S
H1046 C1062 0.931 . S
C1047 H1035 0.929 . S
C1047 C1041 1.390 . S
C1047 C1044 1.386 . S
C1048 C1043 1.490 . S
C1048 C1050 1.395 1_565 S
C1048 C1051 1.403 . S
H1049 C1055 0.930 . S
C1050 H1036 0.930 . S
C1050 C1048 1.395 1_545 S
C1050 C1053 1.403 . S
C1051 C1048 1.403 . S
C1051 C1052 1.524 . S
C1051 C1055 1.400 . S
C1052 H1037 0.960 . S
C1052 H1038 0.960 . S
C1052 H1039 0.960 . S
C1052 C1051 1.524 . S
C1053 C1050 1.403 . S
C1053 C1054 1.392 . S
C1053 C1057 1.495 . S
C1054 C1053 1.392 . S
C1054 C1055 1.385 1_545 S
C1054 C1056 1.478 . S
C1055 H1049 0.930 . S
C1055 C1051 1.400 . S
C1055 C1054 1.385 1_565 S
C1056 C1054 1.478 . S
C1056 C1058 1.381 . S
C1056 C1062 1.383 . S
C1057 C1053 1.495 . S
C1057 H1063 0.959 . S
C1057 H1064 0.961 . S
C1057 H1065 0.960 . S
C1058 C1056 1.381 . S
C1058 C1059 1.394 . S
C1058 H1066 0.930 . S
C1059 C1058 1.394 . S
C1059 C1060 1.383 . S
C1059 H1067 0.929 . S
C1060 C1059 1.383 . S
C1060 C1061 1.377 . S
C1061 H1045 0.930 . S
C1061 C1060 1.377 . S
C1061 C1062 1.379 . S
C1062 H1046 0.931 . S
C1062 C1056 1.383 . S
C1062 C1061 1.379 . S
H1063 C1057 0.959 . S
H1064 C1057 0.961 . S
H1065 C1057 0.960 . S
H1066 C1058 0.930 . S
H1067 C1059 0.929 . S
H1068 C1076 0.929 . S
H1069 C1078 0.930 . S
H1070 C1080 0.930 . S
H1071 C1083 0.929 . S
H1072 C1086 0.930 . S
H1073 C1088 0.960 . S
H1074 C1088 0.960 . S
H1075 C1088 0.960 . S
C1076 H1068 0.929 . S
C1076 C1077 1.377 . S
C1076 C1078 1.384 . S
C1077 C1076 1.377 . S
C1077 C1083 1.390 . S
C1078 H1069 0.930 . S
C1078 C1076 1.384 . S
C1078 C1079 1.372 . S
C1079 C1078 1.372 . S
C1079 C1080 1.400 . S
C1079 C1084 1.490 . S
C1080 H1070 0.930 . S
C1080 C1079 1.400 . S
C1080 C1083 1.386 . S
H1081 C1097 0.930 . S
H1082 C1098 0.931 . S
C1083 H1071 0.929 . S
C1083 C1077 1.390 . S
C1083 C1080 1.386 . S
C1084 C1079 1.490 . S
C1084 C1086 1.395 . S
C1084 C1087 1.403 . S
H1085 C1091 0.930 . S
C1086 H1072 0.930 . S
C1086 C1084 1.395 . S
C1086 C1089 1.403 . S
C1087 C1084 1.403 . S
C1087 C1088 1.524 . S
C1087 C1091 1.400 . S
C1088 H1073 0.960 . S
C1088 H1074 0.960 . S
C1088 H1075 0.960 . S
C1088 C1087 1.524 . S
C1089 C1086 1.403 . S
C1089 C1090 1.392 . S
C1089 C1093 1.495 . S
C1090 C1089 1.392 . S
C1090 C1091 1.385 . S
C1090 C1092 1.478 . S
C1091 H1085 0.930 . S
C1091 C1087 1.400 . S
C1091 C1090 1.385 . S
C1092 C1090 1.478 . S
C1092 C1094 1.381 . S
C1092 C1098 1.383 . S
C1093 C1089 1.495 . S
C1093 H1099 0.959 . S
C1093 H1100 0.961 . S
C1093 H1101 0.960 . S
C1094 C1092 1.381 . S
C1094 C1095 1.394 . S
C1094 H1102 0.930 . S
C1095 C1094 1.394 . S
C1095 C1096 1.383 . S
C1095 H1103 0.929 . S
C1096 C1095 1.383 . S
C1096 C1097 1.377 . S
C1097 H1081 0.930 . S
C1097 C1096 1.377 . S
C1097 C1098 1.379 . S
C1098 H1082 0.931 . S
C1098 C1092 1.383 . S
C1098 C1097 1.379 . S
H1099 C1093 0.959 . S
H1100 C1093 0.961 . S
H1101 C1093 0.960 . S
H1102 C1094 0.930 . S
H1103 C1095 0.929 . S
H1104 C1112 0.929 . S
H1105 C1114 0.930 . S
H1106 C1116 0.930 . S
H1107 C1119 0.929 . S
H1108 C1122 0.930 . S
H1109 C1124 0.960 . S
H1110 C1124 0.960 . S
H1111 C1124 0.960 . S
C1112 H1104 0.929 . S
C1112 C1113 1.377 . S
C1112 C1114 1.384 . S
C1113 C1112 1.377 . S
C1113 C1119 1.390 . S
C1114 H1105 0.930 . S
C1114 C1112 1.384 . S
C1114 C1115 1.372 . S
C1115 C1114 1.372 . S
C1115 C1116 1.400 . S
C1115 C1120 1.490 . S
C1116 H1106 0.930 . S
C1116 C1115 1.400 . S
C1116 C1119 1.386 . S
H1117 C1133 0.930 . S
H1118 C1134 0.931 . S
C1119 H1107 0.929 . S
C1119 C1113 1.390 . S
C1119 C1116 1.386 . S
C1120 C1115 1.490 . S
C1120 C1122 1.395 . S
C1120 C1123 1.403 1_565 S
H1121 C1127 0.930 . S
C1122 H1108 0.930 . S
C1122 C1120 1.395 . S
C1122 C1125 1.403 . S
C1123 C1120 1.403 1_545 S
C1123 C1124 1.524 . S
C1123 C1127 1.400 . S
C1124 H1109 0.960 . S
C1124 H1110 0.960 . S
C1124 H1111 0.960 . S
C1124 C1123 1.524 . S
C1125 C1122 1.403 . S
C1125 C1126 1.392 1_565 S
C1125 C1129 1.495 . S
C1126 C1125 1.392 1_545 S
C1126 C1127 1.385 . S
C1126 C1128 1.478 . S
C1127 H1121 0.930 . S
C1127 C1123 1.400 . S
C1127 C1126 1.385 . S
C1128 C1126 1.478 . S
C1128 C1130 1.381 . S
C1128 C1134 1.383 . S
C1129 C1125 1.495 . S
C1129 H1135 0.959 . S
C1129 H1136 0.961 . S
C1129 H1137 0.960 . S
C1130 C1128 1.381 . S
C1130 C1131 1.394 . S
C1130 H1138 0.930 . S
C1131 C1130 1.394 . S
C1131 C1132 1.383 . S
C1131 H1139 0.929 . S
C1132 C1131 1.383 . S
C1132 C1133 1.377 . S
C1133 H1117 0.930 . S
C1133 C1132 1.377 . S
C1133 C1134 1.379 . S
C1134 H1118 0.931 . S
C1134 C1128 1.383 . S
C1134 C1133 1.379 . S
H1135 C1129 0.959 . S
H1136 C1129 0.961 . S
H1137 C1129 0.960 . S
H1138 C1130 0.930 . S
H1139 C1131 0.929 . S
H1140 C1148 0.929 . S
H1141 C1150 0.930 . S
H1142 C1152 0.930 . S
H1143 C1155 0.929 . S
H1144 C1158 0.930 . S
H1145 C1160 0.960 . S
H1146 C1160 0.960 . S
H1147 C1160 0.960 . S
C1148 H1140 0.929 . S
C1148 C1149 1.377 . S
C1148 C1150 1.384 . S
C1149 C1148 1.377 . S
C1149 C1155 1.390 . S
C1150 H1141 0.930 . S
C1150 C1148 1.384 . S
C1150 C1151 1.372 . S
C1151 C1150 1.372 . S
C1151 C1152 1.400 . S
C1151 C1156 1.490 . S
C1152 H1142 0.930 . S
C1152 C1151 1.400 . S
C1152 C1155 1.386 . S
H1153 C1169 0.930 . S
H1154 C1170 0.931 . S
C1155 H1143 0.929 . S
C1155 C1149 1.390 . S
C1155 C1152 1.386 . S
C1156 C1151 1.490 . S
C1156 C1158 1.395 . S
C1156 C1159 1.403 . S
H1157 C1163 0.930 . S
C1158 H1144 0.930 . S
C1158 C1156 1.395 . S
C1158 C1161 1.403 . S
C1159 C1156 1.403 . S
C1159 C1160 1.524 . S
C1159 C1163 1.400 . S
C1160 H1145 0.960 . S
C1160 H1146 0.960 . S
C1160 H1147 0.960 . S
C1160 C1159 1.524 . S
C1161 C1158 1.403 . S
C1161 C1162 1.392 . S
C1161 C1165 1.495 . S
C1162 C1161 1.392 . S
C1162 C1163 1.385 . S
C1162 C1164 1.478 . S
C1163 H1157 0.930 . S
C1163 C1159 1.400 . S
C1163 C1162 1.385 . S
C1164 C1162 1.478 . S
C1164 C1166 1.381 . S
C1164 C1170 1.383 . S
C1165 C1161 1.495 . S
C1165 H1171 0.959 . S
C1165 H1172 0.961 . S
C1165 H1173 0.960 . S
C1166 C1164 1.381 . S
C1166 C1167 1.394 . S
C1166 H1174 0.930 . S
C1167 C1166 1.394 . S
C1167 C1168 1.383 . S
C1167 H1175 0.929 . S
C1168 C1167 1.383 . S
C1168 C1169 1.377 . S
C1169 H1153 0.930 . S
C1169 C1168 1.377 . S
C1169 C1170 1.379 . S
C1170 H1154 0.931 . S
C1170 C1164 1.383 . S
C1170 C1169 1.379 . S
H1171 C1165 0.959 . S
H1172 C1165 0.961 . S
H1173 C1165 0.960 . S
H1174 C1166 0.930 . S
H1175 C1167 0.929 . S
H1176 C1184 0.929 . S
H1177 C1186 0.930 . S
H1178 C1188 0.930 . S
H1179 C1191 0.929 . S
H1180 C1194 0.930 . S
H1181 C1196 0.960 . S
H1182 C1196 0.960 1_655 S
H1183 C1196 0.960 . S
C1184 H1176 0.929 . S
C1184 C1185 1.377 . S
C1184 C1186 1.384 . S
C1185 C1184 1.377 . S
C1185 C1191 1.390 . S
C1186 H1177 0.930 . S
C1186 C1184 1.384 . S
C1186 C1187 1.372 . S
C1187 C1186 1.372 . S
C1187 C1188 1.400 . S
C1187 C1192 1.490 . S
C1188 H1178 0.930 . S
C1188 C1187 1.400 . S
C1188 C1191 1.386 . S
H1189 C1205 0.930 . S
H1190 C1206 0.931 . S
C1191 H1179 0.929 . S
C1191 C1185 1.390 . S
C1191 C1188 1.386 . S
C1192 C1187 1.490 . S
C1192 C1194 1.395 . S
C1192 C1195 1.403 1_655 S
H1193 C1199 0.930 . S
C1194 H1180 0.930 . S
C1194 C1192 1.395 . S
C1194 C1197 1.403 . S
C1195 C1192 1.403 1_455 S
C1195 C1196 1.524 . S
C1195 C1199 1.400 . S
C1196 H1181 0.960 . S
C1196 H1182 0.960 1_455 S
C1196 H1183 0.960 . S
C1196 C1195 1.524 . S
C1197 C1194 1.403 . S
C1197 C1198 1.392 1_655 S
C1197 C1201 1.495 . S
C1198 C1197 1.392 1_455 S
C1198 C1199 1.385 . S
C1198 C1200 1.478 . S
C1199 H1193 0.930 . S
C1199 C1195 1.400 . S
C1199 C1198 1.385 . S
C1200 C1198 1.478 . S
C1200 C1202 1.381 . S
C1200 C1206 1.383 . S
C1201 C1197 1.495 . S
C1201 H1207 0.959 . S
C1201 H1208 0.961 1_655 S
C1201 H1209 0.960 . S
C1202 C1200 1.381 . S
C1202 C1203 1.394 . S
C1202 H1210 0.914 1_455 S
C1203 C1202 1.394 . S
C1203 C1204 1.383 . S
C1203 H1211 0.929 . S
C1204 C1203 1.383 . S
C1204 C1205 1.377 . S
C1205 H1189 0.930 . S
C1205 C1204 1.377 . S
C1205 C1206 1.379 . S
C1206 H1190 0.931 . S
C1206 C1200 1.383 . S
C1206 C1205 1.379 . S
H1207 C1201 0.959 . S
H1208 C1201 0.961 1_455 S
H1209 C1201 0.960 . S
H1210 C1202 0.914 1_655 S
H1211 C1203 0.929 . S
H1212 C1220 0.929 . S
H1213 C1222 0.930 . S
H1214 C1224 0.930 . S
H1215 C1227 0.929 . S
H1216 C1230 0.930 . S
H1217 C1232 0.960 . S
H1218 C1232 0.960 . S
H1219 C1232 0.960 . S
C1220 H1212 0.929 . S
C1220 C1221 1.377 . S
C1220 C1222 1.384 . S
C1221 C1220 1.377 . S
C1221 C1227 1.390 . S
C1222 H1213 0.930 . S
C1222 C1220 1.384 . S
C1222 C1223 1.372 . S
C1223 C1222 1.372 . S
C1223 C1224 1.400 . S
C1223 C1228 1.490 . S
C1224 H1214 0.930 . S
C1224 C1223 1.400 . S
C1224 C1227 1.386 . S
H1225 C1241 0.930 . S
H1226 C1242 0.931 . S
C1227 H1215 0.929 . S
C1227 C1221 1.390 . S
C1227 C1224 1.386 . S
C1228 C1223 1.490 . S
C1228 C1230 1.395 . S
C1228 C1231 1.403 1_545 S
H1229 C1235 0.930 . S
C1230 H1216 0.930 . S
C1230 C1228 1.395 . S
C1230 C1233 1.403 . S
C1231 C1228 1.403 1_565 S
C1231 C1232 1.524 . S
C1231 C1235 1.400 . S
C1232 H1217 0.960 . S
C1232 H1218 0.960 . S
C1232 H1219 0.960 . S
C1232 C1231 1.524 . S
C1233 C1230 1.403 . S
C1233 C1234 1.392 1_545 S
C1233 C1237 1.495 . S
C1234 C1233 1.392 1_565 S
C1234 C1235 1.385 . S
C1234 C1236 1.478 . S
C1235 H1229 0.930 . S
C1235 C1231 1.400 . S
C1235 C1234 1.385 . S
C1236 C1234 1.478 . S
C1236 C1238 1.381 . S
C1236 C1242 1.383 . S
C1237 C1233 1.495 . S
C1237 H1243 0.959 . S
C1237 H1244 0.961 . S
C1237 H1245 0.960 . S
C1238 C1236 1.381 . S
C1238 C1239 1.394 . S
C1238 H1246 0.930 . S
C1239 C1238 1.394 . S
C1239 C1240 1.383 . S
C1239 H1247 0.929 . S
C1240 C1239 1.383 . S
C1240 C1241 1.377 . S
C1241 H1225 0.930 . S
C1241 C1240 1.377 . S
C1241 C1242 1.379 . S
C1242 H1226 0.931 . S
C1242 C1236 1.383 . S
C1242 C1241 1.379 . S
H1243 C1237 0.959 . S
H1244 C1237 0.961 . S
H1245 C1237 0.960 . S
H1246 C1238 0.930 . S
H1247 C1239 0.929 . S
H1248 C1256 0.929 . S
H1249 C1258 0.930 . S
H1250 C1260 0.930 . S
H1251 C1263 0.929 . S
H1252 C1266 0.930 . S
H1253 C1268 0.960 . S
H1254 C1268 0.960 . S
H1255 C1268 0.960 . S
C1256 H1248 0.929 . S
C1256 C1257 1.377 . S
C1256 C1258 1.384 . S
C1257 C1256 1.377 . S
C1257 C1263 1.390 . S
C1258 H1249 0.930 . S
C1258 C1256 1.384 . S
C1258 C1259 1.372 . S
C1259 C1258 1.372 . S
C1259 C1260 1.400 . S
C1259 C1264 1.490 . S
C1260 H1250 0.930 . S
C1260 C1259 1.400 . S
C1260 C1263 1.386 . S
H1261 C1277 0.930 . S
H1262 C1278 0.931 . S
C1263 H1251 0.929 . S
C1263 C1257 1.390 . S
C1263 C1260 1.386 . S
C1264 C1259 1.490 . S
C1264 C1266 1.395 . S
C1264 C1267 1.403 . S
H1265 C1271 0.930 . S
C1266 H1252 0.930 . S
C1266 C1264 1.395 . S
C1266 C1269 1.403 . S
C1267 C1264 1.403 . S
C1267 C1268 1.524 . S
C1267 C1271 1.400 . S
C1268 H1253 0.960 . S
C1268 H1254 0.960 . S
C1268 H1255 0.960 . S
C1268 C1267 1.524 . S
C1269 C1266 1.403 . S
C1269 C1270 1.392 . S
C1269 C1273 1.495 . S
C1270 C1269 1.392 . S
C1270 C1271 1.385 . S
C1270 C1272 1.478 . S
C1271 H1265 0.930 . S
C1271 C1267 1.400 . S
C1271 C1270 1.385 . S
C1272 C1270 1.478 . S
C1272 C1274 1.381 . S
C1272 C1278 1.383 . S
C1273 C1269 1.495 . S
C1273 H1279 0.959 . S
C1273 H1280 0.961 . S
C1273 H1281 0.960 . S
C1274 C1272 1.381 . S
C1274 C1275 1.394 . S
C1274 H1282 0.930 . S
C1275 C1274 1.394 . S
C1275 C1276 1.383 . S
C1275 H1283 0.929 . S
C1276 C1275 1.383 . S
C1276 C1277 1.377 . S
C1277 H1261 0.930 . S
C1277 C1276 1.377 . S
C1277 C1278 1.379 . S
C1278 H1262 0.931 . S
C1278 C1272 1.383 . S
C1278 C1277 1.379 . S
H1279 C1273 0.959 . S
H1280 C1273 0.961 . S
H1281 C1273 0.960 . S
H1282 C1274 0.930 . S
H1283 C1275 0.929 . S
H1284 C1292 0.929 . S
H1285 C1294 0.930 . S
H1286 C1296 0.930 . S
H1287 C1299 0.929 . S
H1288 C1302 0.930 . S
H1289 C1304 0.960 . S
H1290 C1304 0.960 . S
H1291 C1304 0.960 . S
C1292 H1284 0.929 . S
C1292 C1293 1.377 . S
C1292 C1294 1.384 . S
C1293 C1292 1.377 . S
C1293 C1299 1.390 . S
C1294 H1285 0.930 . S
C1294 C1292 1.384 . S
C1294 C1295 1.372 . S
C1295 C1294 1.372 . S
C1295 C1296 1.400 . S
C1295 C1300 1.490 . S
C1296 H1286 0.930 . S
C1296 C1295 1.400 . S
C1296 C1299 1.386 . S
H1297 C1313 0.930 . S
H1298 C1314 0.931 . S
C1299 H1287 0.929 . S
C1299 C1293 1.390 . S
C1299 C1296 1.386 . S
C1300 C1295 1.490 . S
C1300 C1302 1.395 1_455 S
C1300 C1303 1.403 . S
H1301 C1307 0.930 . S
C1302 H1288 0.930 . S
C1302 C1300 1.395 1_655 S
C1302 C1305 1.403 . S
C1303 C1300 1.403 . S
C1303 C1304 1.524 . S
C1303 C1307 1.400 . S
C1304 H1289 0.960 . S
C1304 H1290 0.960 . S
C1304 H1291 0.960 . S
C1304 C1303 1.524 . S
C1305 C1302 1.403 . S
C1305 C1306 1.392 . S
C1305 C1309 1.495 . S
C1306 C1305 1.392 . S
C1306 C1307 1.385 1_655 S
C1306 C1308 1.478 . S
C1307 H1301 0.930 . S
C1307 C1303 1.400 . S
C1307 C1306 1.385 1_455 S
C1308 C1306 1.478 . S
C1308 C1310 1.381 . S
C1308 C1314 1.383 . S
C1309 C1305 1.495 . S
C1309 H1315 0.959 . S
C1309 H1316 0.961 . S
C1309 H1317 0.960 . S
C1310 C1308 1.381 . S
C1310 C1311 1.394 . S
C1310 H1318 0.930 . S
C1311 C1310 1.394 . S
C1311 C1312 1.383 . S
C1311 H1319 0.929 . S
C1312 C1311 1.383 . S
C1312 C1313 1.377 . S
C1313 H1297 0.930 . S
C1313 C1312 1.377 . S
C1313 C1314 1.379 . S
C1314 H1298 0.931 . S
C1314 C1308 1.383 . S
C1314 C1313 1.379 . S
H1315 C1309 0.959 . S
H1316 C1309 0.961 . S
H1317 C1309 0.960 . S
H1318 C1310 0.930 . S
H1319 C1311 0.929 . S
H1320 C1328 0.929 . S
H1321 C1330 0.930 . S
H1322 C1332 0.930 . S
H1323 C1335 0.929 . S
H1324 C1338 0.930 . S
H1325 C1340 0.960 . S
H1326 C1340 0.960 . S
H1327 C1340 0.960 . S
C1328 H1320 0.929 . S
C1328 C1329 1.377 . S
C1328 C1330 1.384 . S
C1329 C1328 1.377 . S
C1329 C1335 1.390 . S
C1330 H1321 0.930 . S
C1330 C1328 1.384 . S
C1330 C1331 1.372 . S
C1331 C1330 1.372 . S
C1331 C1332 1.400 . S
C1331 C1336 1.490 . S
C1332 H1322 0.930 . S
C1332 C1331 1.400 . S
C1332 C1335 1.386 . S
H1333 C1349 0.930 . S
H1334 C1350 0.931 . S
C1335 H1323 0.929 . S
C1335 C1329 1.390 . S
C1335 C1332 1.386 . S
C1336 C1331 1.490 . S
C1336 C1338 1.395 . S
C1336 C1339 1.403 . S
H1337 C1343 0.930 . S
C1338 H1324 0.930 . S
C1338 C1336 1.395 . S
C1338 C1341 1.403 . S
C1339 C1336 1.403 . S
C1339 C1340 1.524 . S
C1339 C1343 1.400 . S
C1340 H1325 0.960 . S
C1340 H1326 0.960 . S
C1340 H1327 0.960 . S
C1340 C1339 1.524 . S
C1341 C1338 1.403 . S
C1341 C1342 1.392 . S
C1341 C1345 1.495 . S
C1342 C1341 1.392 . S
C1342 C1343 1.385 . S
C1342 C1344 1.478 . S
C1343 H1337 0.930 . S
C1343 C1339 1.400 . S
C1343 C1342 1.385 . S
C1344 C1342 1.478 . S
C1344 C1346 1.381 . S
C1344 C1350 1.383 . S
C1345 C1341 1.495 . S
C1345 H1351 0.959 . S
C1345 H1352 0.961 . S
C1345 H1353 0.960 . S
C1346 C1344 1.381 . S
C1346 C1347 1.394 . S
C1346 H1354 0.930 . S
C1347 C1346 1.394 . S
C1347 C1348 1.383 . S
C1347 H1355 0.929 . S
C1348 C1347 1.383 . S
C1348 C1349 1.377 . S
C1349 H1333 0.930 . S
C1349 C1348 1.377 . S
C1349 C1350 1.379 . S
C1350 H1334 0.931 . S
C1350 C1344 1.383 . S
C1350 C1349 1.379 . S
H1351 C1345 0.959 . S
H1352 C1345 0.961 . S
H1353 C1345 0.960 . S
H1354 C1346 0.930 . S
H1355 C1347 0.929 . S
H1356 C1364 0.929 . S
H1357 C1366 0.930 . S
H1358 C1368 0.930 . S
H1359 C1371 0.929 . S
H1360 C1374 0.930 . S
H1361 C1376 0.960 . S
H1362 C1376 0.960 . S
H1363 C1376 0.960 . S
C1364 H1356 0.929 . S
C1364 C1365 1.377 . S
C1364 C1366 1.384 . S
C1365 C1364 1.377 . S
C1365 C1371 1.390 . S
C1366 H1357 0.930 . S
C1366 C1364 1.384 . S
C1366 C1367 1.372 . S
C1367 C1366 1.372 . S
C1367 C1368 1.400 . S
C1367 C1372 1.490 . S
C1368 H1358 0.930 . S
C1368 C1367 1.400 . S
C1368 C1371 1.386 . S
H1369 C1385 0.930 . S
H1370 C1386 0.931 . S
C1371 H1359 0.929 . S
C1371 C1365 1.390 . S
C1371 C1368 1.386 . S
C1372 C1367 1.490 . S
C1372 C1374 1.395 . S
C1372 C1375 1.403 . S
H1373 C1379 0.930 . S
C1374 H1360 0.930 . S
C1374 C1372 1.395 . S
C1374 C1377 1.403 . S
C1375 C1372 1.403 . S
C1375 C1376 1.524 . S
C1375 C1379 1.400 . S
C1376 H1361 0.960 . S
C1376 H1362 0.960 . S
C1376 H1363 0.960 . S
C1376 C1375 1.524 . S
C1377 C1374 1.403 . S
C1377 C1378 1.392 . S
C1377 C1381 1.495 . S
C1378 C1377 1.392 . S
C1378 C1379 1.385 . S
C1378 C1380 1.478 . S
C1379 H1373 0.930 . S
C1379 C1375 1.400 . S
C1379 C1378 1.385 . S
C1380 C1378 1.478 . S
C1380 C1382 1.381 . S
C1380 C1386 1.383 . S
C1381 C1377 1.495 . S
C1381 H1387 0.959 . S
C1381 H1388 0.961 . S
C1381 H1389 0.960 . S
C1382 C1380 1.381 . S
C1382 C1383 1.394 . S
C1382 H1390 0.930 . S
C1383 C1382 1.394 . S
C1383 C1384 1.383 . S
C1383 H1391 0.929 . S
C1384 C1383 1.383 . S
C1384 C1385 1.377 . S
C1385 H1369 0.930 . S
C1385 C1384 1.377 . S
C1385 C1386 1.379 . S
C1386 H1370 0.931 . S
C1386 C1380 1.383 . S
C1386 C1385 1.379 . S
H1387 C1381 0.959 . S
H1388 C1381 0.961 . S
H1389 C1381 0.960 . S
H1390 C1382 0.930 . S
H1391 C1383 0.929 . S
H1392 C1400 0.929 . S
H1393 C1402 0.930 . S
H1394 C1404 0.930 . S
H1395 C1407 0.929 . S
H1396 C1410 0.930 . S
H1397 C1412 0.960 . S
H1398 C1412 0.960 . S
H1399 C1412 0.960 . S
C1400 H1392 0.929 . S
C1400 C1401 1.377 . S
C1400 C1402 1.384 . S
C1401 C1400 1.377 . S
C1401 C1407 1.390 . S
C1402 H1393 0.930 . S
C1402 C1400 1.384 . S
C1402 C1403 1.372 . S
C1403 C1402 1.372 . S
C1403 C1404 1.400 . S
C1403 C1408 1.490 . S
C1404 H1394 0.930 . S
C1404 C1403 1.400 . S
C1404 C1407 1.386 . S
H1405 C1421 0.930 . S
H1406 C1422 0.931 . S
C1407 H1395 0.929 . S
C1407 C1401 1.390 . S
C1407 C1404 1.386 . S
C1408 C1403 1.490 . S
C1408 C1410 1.395 . S
C1408 C1411 1.403 . S
H1409 C1415 0.930 . S
C1410 H1396 0.930 . S
C1410 C1408 1.395 . S
C1410 C1413 1.403 . S
C1411 C1408 1.403 . S
C1411 C1412 1.524 . S
C1411 C1415 1.400 . S
C1412 H1397 0.960 . S
C1412 H1398 0.960 . S
C1412 H1399 0.960 . S
C1412 C1411 1.524 . S
C1413 C1410 1.403 . S
C1413 C1414 1.392 . S
C1413 C1417 1.495 . S
C1414 C1413 1.392 . S
C1414 C1415 1.385 . S
C1414 C1416 1.478 . S
C1415 H1409 0.930 . S
C1415 C1411 1.400 . S
C1415 C1414 1.385 . S
C1416 C1414 1.478 . S
C1416 C1418 1.381 . S
C1416 C1422 1.383 . S
C1417 C1413 1.495 . S
C1417 H1423 0.959 . S
C1417 H1424 0.961 . S
C1417 H1425 0.960 . S
C1418 C1416 1.381 . S
C1418 C1419 1.394 . S
C1418 H1426 0.930 . S
C1419 C1418 1.394 . S
C1419 C1420 1.383 . S
C1419 H1427 0.929 . S
C1420 C1419 1.383 . S
C1420 C1421 1.377 . S
C1421 H1405 0.930 . S
C1421 C1420 1.377 . S
C1421 C1422 1.379 . S
C1422 H1406 0.931 . S
C1422 C1416 1.383 . S
C1422 C1421 1.379 . S
H1423 C1417 0.959 . S
H1424 C1417 0.961 . S
H1425 C1417 0.960 . S
H1426 C1418 0.930 . S
H1427 C1419 0.929 . S
H1428 C1436 0.929 . S
H1429 C1438 0.930 . S
H1430 C1440 0.930 . S
H1431 C1443 0.929 . S
H1432 C1446 0.930 . S
H1433 C1448 0.960 . S
H1434 C1448 0.960 . S
H1435 C1448 0.960 . S
C1436 H1428 0.929 . S
C1436 C1437 1.377 . S
C1436 C1438 1.384 . S
C1437 C1436 1.377 . S
C1437 C1443 1.390 . S
C1438 H1429 0.930 . S
C1438 C1436 1.384 . S
C1438 C1439 1.372 . S
C1439 C1438 1.372 . S
C1439 C1440 1.400 . S
C1439 C1444 1.490 . S
C1440 H1430 0.930 . S
C1440 C1439 1.400 . S
C1440 C1443 1.386 . S
H1441 C1457 0.930 . S
H1442 C1458 0.931 . S
C1443 H1431 0.929 . S
C1443 C1437 1.390 . S
C1443 C1440 1.386 . S
C1444 C1439 1.490 . S
C1444 C1446 1.395 . S
C1444 C1447 1.403 . S
H1445 C1451 0.930 . S
C1446 H1432 0.930 . S
C1446 C1444 1.395 . S
C1446 C1449 1.403 . S
C1447 C1444 1.403 . S
C1447 C1448 1.524 . S
C1447 C1451 1.400 . S
C1448 H1433 0.960 . S
C1448 H1434 0.960 . S
C1448 H1435 0.960 . S
C1448 C1447 1.524 . S
C1449 C1446 1.403 . S
C1449 C1450 1.392 . S
C1449 C1453 1.495 . S
C1450 C1449 1.392 . S
C1450 C1451 1.385 . S
C1450 C1452 1.478 . S
C1451 H1445 0.930 . S
C1451 C1447 1.400 . S
C1451 C1450 1.385 . S
C1452 C1450 1.478 . S
C1452 C1454 1.381 . S
C1452 C1458 1.383 . S
C1453 C1449 1.495 . S
C1453 H1459 0.959 . S
C1453 H1460 0.961 . S
C1453 H1461 0.960 . S
C1454 C1452 1.381 . S
C1454 C1455 1.394 . S
C1454 H1462 0.930 . S
C1455 C1454 1.394 . S
C1455 C1456 1.383 . S
C1455 H1463 0.929 . S
C1456 C1455 1.383 . S
C1456 C1457 1.377 . S
C1457 H1441 0.930 . S
C1457 C1456 1.377 . S
C1457 C1458 1.379 . S
C1458 H1442 0.931 . S
C1458 C1452 1.383 . S
C1458 C1457 1.379 . S
H1459 C1453 0.959 . S
H1460 C1453 0.961 . S
H1461 C1453 0.960 . S
H1462 C1454 0.930 . S
H1463 C1455 0.929 . S
H1464 C1472 0.929 . S
H1465 C1474 0.930 . S
H1466 C1476 0.930 . S
H1467 C1479 0.929 . S
H1468 C1482 0.930 . S
H1469 C1484 0.960 . S
H1470 C1484 0.960 . S
H1471 C1484 0.960 . S
C1472 H1464 0.929 . S
C1472 C1473 1.377 . S
C1472 C1474 1.384 . S
C1473 C1472 1.377 . S
C1473 C1479 1.390 . S
C1474 H1465 0.930 . S
C1474 C1472 1.384 . S
C1474 C1475 1.372 . S
C1475 C1474 1.372 . S
C1475 C1476 1.400 . S
C1475 C1480 1.490 . S
C1476 H1466 0.930 . S
C1476 C1475 1.400 . S
C1476 C1479 1.386 . S
H1477 C1493 0.930 . S
H1478 C1494 0.931 . S
C1479 H1467 0.929 . S
C1479 C1473 1.390 . S
C1479 C1476 1.386 . S
C1480 C1475 1.490 . S
C1480 C1482 1.395 . S
C1480 C1483 1.403 . S
H1481 C1487 0.930 . S
C1482 H1468 0.930 . S
C1482 C1480 1.395 . S
C1482 C1485 1.403 . S
C1483 C1480 1.403 . S
C1483 C1484 1.524 . S
C1483 C1487 1.400 . S
C1484 H1469 0.960 . S
C1484 H1470 0.960 . S
C1484 H1471 0.960 . S
C1484 C1483 1.524 . S
C1485 C1482 1.403 . S
C1485 C1486 1.392 . S
C1485 C1489 1.495 . S
C1486 C1485 1.392 . S
C1486 C1487 1.385 . S
C1486 C1488 1.478 . S
C1487 H1481 0.930 . S
C1487 C1483 1.400 . S
C1487 C1486 1.385 . S
C1488 C1486 1.478 . S
C1488 C1490 1.381 . S
C1488 C1494 1.383 . S
C1489 C1485 1.495 . S
C1489 H1495 0.959 . S
C1489 H1496 0.961 . S
C1489 H1497 0.960 . S
C1490 C1488 1.381 . S
C1490 C1491 1.394 . S
C1490 H1498 0.930 . S
C1491 C1490 1.394 . S
C1491 C1492 1.383 . S
C1491 H1499 0.929 . S
C1492 C1491 1.383 . S
C1492 C1493 1.377 . S
C1493 H1477 0.930 . S
C1493 C1492 1.377 . S
C1493 C1494 1.379 . S
C1494 H1478 0.931 . S
C1494 C1488 1.383 . S
C1494 C1493 1.379 . S
H1495 C1489 0.959 . S
H1496 C1489 0.961 . S
H1497 C1489 0.960 . S
H1498 C1490 0.930 . S
H1499 C1491 0.929 . S
H1500 C1508 0.929 . S
H1501 C1510 0.930 . S
H1502 C1512 0.930 . S
H1503 C1515 0.929 . S
H1504 C1518 0.930 . S
H1505 C1520 0.960 . S
H1506 C1520 0.960 . S
H1507 C1520 0.960 . S
C1508 H1500 0.929 . S
C1508 C1509 1.377 . S
C1508 C1510 1.384 . S
C1509 C1508 1.377 . S
C1509 C1515 1.390 . S
C1510 H1501 0.930 . S
C1510 C1508 1.384 . S
C1510 C1511 1.372 . S
C1511 C1510 1.372 . S
C1511 C1512 1.400 . S
C1511 C1516 1.490 . S
C1512 H1502 0.930 . S
C1512 C1511 1.400 . S
C1512 C1515 1.386 . S
H1513 C1529 0.930 . S
H1514 C1530 0.931 . S
C1515 H1503 0.929 . S
C1515 C1509 1.390 . S
C1515 C1512 1.386 . S
C1516 C1511 1.490 . S
C1516 C1518 1.395 . S
C1516 C1519 1.403 . S
H1517 C1523 0.930 . S
C1518 H1504 0.930 . S
C1518 C1516 1.395 . S
C1518 C1521 1.403 . S
C1519 C1516 1.403 . S
C1519 C1520 1.524 . S
C1519 C1523 1.400 . S
C1520 H1505 0.960 . S
C1520 H1506 0.960 . S
C1520 H1507 0.960 . S
C1520 C1519 1.524 . S
C1521 C1518 1.403 . S
C1521 C1522 1.392 . S
C1521 C1525 1.495 . S
C1522 C1521 1.392 . S
C1522 C1523 1.385 . S
C1522 C1524 1.478 . S
C1523 H1517 0.930 . S
C1523 C1519 1.400 . S
C1523 C1522 1.385 . S
C1524 C1522 1.478 . S
C1524 C1526 1.381 . S
C1524 C1530 1.383 . S
C1525 C1521 1.495 . S
C1525 H1531 0.959 . S
C1525 H1532 0.961 . S
C1525 H1533 0.960 . S
C1526 C1524 1.381 . S
C1526 C1527 1.394 . S
C1526 H1534 0.930 . S
C1527 C1526 1.394 . S
C1527 C1528 1.383 . S
C1527 H1535 0.929 . S
C1528 C1527 1.383 . S
C1528 C1529 1.377 . S
C1529 H1513 0.930 . S
C1529 C1528 1.377 . S
C1529 C1530 1.379 . S
C1530 H1514 0.931 . S
C1530 C1524 1.383 . S
C1530 C1529 1.379 . S
H1531 C1525 0.959 . S
H1532 C1525 0.961 . S
H1533 C1525 0.960 . S
H1534 C1526 0.930 . S
H1535 C1527 0.929 . S
C249 C18 0.924 . S
C268 C178 0.910 . S
C285 C38 0.923 . S
C304 C198 0.919 . S
C321 C58 0.922 . S
C340 C218 0.924 . S
C357 C238 0.921 . S
C376 C78 0.933 . S
C393 C98 0.917 . S
C412 C138 0.915 . S
C429 C158 0.917 . S
C448 C118 0.914 . S
C465 C209 0.811 . S
C484 C9 0.758 . S
C501 C229 0.806 . S
C520 C29 0.808 . S
C537 C49 0.793 . S
C556 C129 0.858 . S
C573 C149 0.805 . S
C592 C69 0.785 . S
C609 C169 0.801 . S
C628 C89 0.831 . S
C645 C109 0.800 . S
C664 C189 0.835 . S
C681 C142 1.419 . S
C700 C2 1.374 . S
C717 C162 1.423 . S
C736 C22 1.453 . S
C753 C182 1.426 . S
C772 C42 1.433 . S
C789 C62 1.425 . S
C808 C202 1.446 . S
C825 C82 1.426 . S
C844 C222 1.440 . S
C861 C102 1.426 . S
C880 C122 1.405 . S
C897 C19 0.619 . S
C916 C79 0.605 . S
C933 C39 0.618 . S
C952 C99 0.593 . S
C969 C59 0.602 . S
C988 C119 0.663 . S
C1005 C199 0.619 . S
C1024 C139 0.617 . S
C1041 C159 0.618 . S
C1060 C219 0.614 . S
C1077 C239 0.598 . S
C1096 C179 0.637 . S
C1113 C152 1.309 . S
C1132 C12 1.344 . S
C1149 C172 1.309 . S
C1168 C32 1.349 . S
C1185 C52 1.310 . S
C1204 C192 1.355 . S
C1221 C212 1.310 . S
C1240 C72 1.333 . S
C1257 C232 1.319 . S
C1276 C92 1.343 . S
C1293 C112 1.325 . S
C1312 C132 1.312 . S
C1329 C4 1.509 . S
C1348 C204 1.537 . S
C1365 C24 1.508 . S
C1384 C224 1.508 . S
C1401 C44 1.494 . S
C1420 C124 1.462 . S
C1437 C64 1.506 . S
C1456 C144 1.533 . S
C1473 C84 1.505 . S
C1492 C164 1.493 . S
C1509 C184 1.508 . S
C1528 C104 1.508 . S
