# Generated by pormake.
# Topology sxg, (6)-cn, num edge types: 1
# Building blocks:
#     Node 0, Type 0, BuildingBlock: IZENUY_clean_sbu_0, # of connection points: 6
#     Node 1, Type 0, BuildingBlock: IZENUY_clean_sbu_0, # of connection points: 6
#     Node 2, Type 0, BuildingBlock: IZENUY_clean_sbu_0, # of connection points: 6
#     Node 3, Type 0, BuildingBlock: IZENUY_clean_sbu_0, # of connection points: 6
#     Node 4, Type 0, BuildingBlock: IZENUY_clean_sbu_0, # of connection points: 6
#     Node 5, Type 0, BuildingBlock: IZENUY_clean_sbu_0, # of connection points: 6
#     Node 6, Type 0, BuildingBlock: IZENUY_clean_sbu_0, # of connection points: 6
#     Node 7, Type 0, BuildingBlock: IZENUY_clean_sbu_0, # of connection points: 6
#     Node 8, Type 0, BuildingBlock: IZENUY_clean_sbu_0, # of connection points: 6
#     Node 9, Type 0, BuildingBlock: IZENUY_clean_sbu_0, # of connection points: 6
#     Node 10, Type 0, BuildingBlock: IZENUY_clean_sbu_0, # of connection points: 6
#     Node 11, Type 0, BuildingBlock: IZENUY_clean_sbu_0, # of connection points: 6
#     Node 12, Type 0, BuildingBlock: IZENUY_clean_sbu_0, # of connection points: 6
#     Node 13, Type 0, BuildingBlock: IZENUY_clean_sbu_0, # of connection points: 6
#     Node 14, Type 0, BuildingBlock: IZENUY_clean_sbu_0, # of connection points: 6
#     Node 15, Type 0, BuildingBlock: IZENUY_clean_sbu_0, # of connection points: 6
#     Node 16, Type 0, BuildingBlock: IZENUY_clean_sbu_0, # of connection points: 6
#     Node 17, Type 0, BuildingBlock: IZENUY_clean_sbu_0, # of connection points: 6
#     Node 18, Type 0, BuildingBlock: IZENUY_clean_sbu_0, # of connection points: 6
#     Node 19, Type 0, BuildingBlock: IZENUY_clean_sbu_0, # of connection points: 6
#     Node 20, Type 0, BuildingBlock: IZENUY_clean_sbu_0, # of connection points: 6
#     Node 21, Type 0, BuildingBlock: IZENUY_clean_sbu_0, # of connection points: 6
#     Node 22, Type 0, BuildingBlock: IZENUY_clean_sbu_0, # of connection points: 6
#     Node 23, Type 0, BuildingBlock: IZENUY_clean_sbu_0, # of connection points: 6
#     Edge 24, Type (0, 0), BuildingBlock: AJUNOK_clean_linker_0, # of connection points: 2
#     Edge 25, Type (0, 0), BuildingBlock: AJUNOK_clean_linker_0, # of connection points: 2
#     Edge 26, Type (0, 0), BuildingBlock: AJUNOK_clean_linker_0, # of connection points: 2
#     Edge 27, Type (0, 0), BuildingBlock: AJUNOK_clean_linker_0, # of connection points: 2
#     Edge 28, Type (0, 0), BuildingBlock: AJUNOK_clean_linker_0, # of connection points: 2
#     Edge 29, Type (0, 0), BuildingBlock: AJUNOK_clean_linker_0, # of connection points: 2
#     Edge 30, Type (0, 0), BuildingBlock: AJUNOK_clean_linker_0, # of connection points: 2
#     Edge 31, Type (0, 0), BuildingBlock: AJUNOK_clean_linker_0, # of connection points: 2
#     Edge 32, Type (0, 0), BuildingBlock: AJUNOK_clean_linker_0, # of connection points: 2
#     Edge 33, Type (0, 0), BuildingBlock: AJUNOK_clean_linker_0, # of connection points: 2
#     Edge 34, Type (0, 0), BuildingBlock: AJUNOK_clean_linker_0, # of connection points: 2
#     Edge 35, Type (0, 0), BuildingBlock: AJUNOK_clean_linker_0, # of connection points: 2
#     Edge 36, Type (0, 0), BuildingBlock: AJUNOK_clean_linker_0, # of connection points: 2
#     Edge 37, Type (0, 0), BuildingBlock: AJUNOK_clean_linker_0, # of connection points: 2
#     Edge 38, Type (0, 0), BuildingBlock: AJUNOK_clean_linker_0, # of connection points: 2
#     Edge 39, Type (0, 0), BuildingBlock: AJUNOK_clean_linker_0, # of connection points: 2
#     Edge 40, Type (0, 0), BuildingBlock: AJUNOK_clean_linker_0, # of connection points: 2
#     Edge 41, Type (0, 0), BuildingBlock: AJUNOK_clean_linker_0, # of connection points: 2
#     Edge 42, Type (0, 0), BuildingBlock: AJUNOK_clean_linker_0, # of connection points: 2
#     Edge 43, Type (0, 0), BuildingBlock: AJUNOK_clean_linker_0, # of connection points: 2
#     Edge 44, Type (0, 0), BuildingBlock: AJUNOK_clean_linker_0, # of connection points: 2
#     Edge 45, Type (0, 0), BuildingBlock: AJUNOK_clean_linker_0, # of connection points: 2
#     Edge 46, Type (0, 0), BuildingBlock: AJUNOK_clean_linker_0, # of connection points: 2
#     Edge 47, Type (0, 0), BuildingBlock: AJUNOK_clean_linker_0, # of connection points: 2
#     Edge 48, Type (0, 0), BuildingBlock: AJUNOK_clean_linker_0, # of connection points: 2
#     Edge 49, Type (0, 0), BuildingBlock: AJUNOK_clean_linker_0, # of connection points: 2
#     Edge 50, Type (0, 0), BuildingBlock: AJUNOK_clean_linker_0, # of connection points: 2
#     Edge 51, Type (0, 0), BuildingBlock: AJUNOK_clean_linker_0, # of connection points: 2
#     Edge 52, Type (0, 0), BuildingBlock: AJUNOK_clean_linker_0, # of connection points: 2
#     Edge 53, Type (0, 0), BuildingBlock: AJUNOK_clean_linker_0, # of connection points: 2
#     Edge 54, Type (0, 0), BuildingBlock: AJUNOK_clean_linker_0, # of connection points: 2
#     Edge 55, Type (0, 0), BuildingBlock: AJUNOK_clean_linker_0, # of connection points: 2
#     Edge 56, Type (0, 0), BuildingBlock: AJUNOK_clean_linker_0, # of connection points: 2
#     Edge 57, Type (0, 0), BuildingBlock: AJUNOK_clean_linker_0, # of connection points: 2
#     Edge 58, Type (0, 0), BuildingBlock: AJUNOK_clean_linker_0, # of connection points: 2
#     Edge 59, Type (0, 0), BuildingBlock: AJUNOK_clean_linker_0, # of connection points: 2
#     Edge 60, Type (0, 0), BuildingBlock: AJUNOK_clean_linker_0, # of connection points: 2
#     Edge 61, Type (0, 0), BuildingBlock: AJUNOK_clean_linker_0, # of connection points: 2
#     Edge 62, Type (0, 0), BuildingBlock: AJUNOK_clean_linker_0, # of connection points: 2
#     Edge 63, Type (0, 0), BuildingBlock: AJUNOK_clean_linker_0, # of connection points: 2
#     Edge 64, Type (0, 0), BuildingBlock: AJUNOK_clean_linker_0, # of connection points: 2
#     Edge 65, Type (0, 0), BuildingBlock: AJUNOK_clean_linker_0, # of connection points: 2
#     Edge 66, Type (0, 0), BuildingBlock: AJUNOK_clean_linker_0, # of connection points: 2
#     Edge 67, Type (0, 0), BuildingBlock: AJUNOK_clean_linker_0, # of connection points: 2
#     Edge 68, Type (0, 0), BuildingBlock: AJUNOK_clean_linker_0, # of connection points: 2
#     Edge 69, Type (0, 0), BuildingBlock: AJUNOK_clean_linker_0, # of connection points: 2
#     Edge 70, Type (0, 0), BuildingBlock: AJUNOK_clean_linker_0, # of connection points: 2
#     Edge 71, Type (0, 0), BuildingBlock: AJUNOK_clean_linker_0, # of connection points: 2
#     Edge 72, Type (0, 0), BuildingBlock: AJUNOK_clean_linker_0, # of connection points: 2
#     Edge 73, Type (0, 0), BuildingBlock: AJUNOK_clean_linker_0, # of connection points: 2
#     Edge 74, Type (0, 0), BuildingBlock: AJUNOK_clean_linker_0, # of connection points: 2
#     Edge 75, Type (0, 0), BuildingBlock: AJUNOK_clean_linker_0, # of connection points: 2
#     Edge 76, Type (0, 0), BuildingBlock: AJUNOK_clean_linker_0, # of connection points: 2
#     Edge 77, Type (0, 0), BuildingBlock: AJUNOK_clean_linker_0, # of connection points: 2
#     Edge 78, Type (0, 0), BuildingBlock: AJUNOK_clean_linker_0, # of connection points: 2
#     Edge 79, Type (0, 0), BuildingBlock: AJUNOK_clean_linker_0, # of connection points: 2
#     Edge 80, Type (0, 0), BuildingBlock: AJUNOK_clean_linker_0, # of connection points: 2
#     Edge 81, Type (0, 0), BuildingBlock: AJUNOK_clean_linker_0, # of connection points: 2
#     Edge 82, Type (0, 0), BuildingBlock: AJUNOK_clean_linker_0, # of connection points: 2
#     Edge 83, Type (0, 0), BuildingBlock: AJUNOK_clean_linker_0, # of connection points: 2
#     Edge 84, Type (0, 0), BuildingBlock: AJUNOK_clean_linker_0, # of connection points: 2
#     Edge 85, Type (0, 0), BuildingBlock: AJUNOK_clean_linker_0, # of connection points: 2
#     Edge 86, Type (0, 0), BuildingBlock: AJUNOK_clean_linker_0, # of connection points: 2
#     Edge 87, Type (0, 0), BuildingBlock: AJUNOK_clean_linker_0, # of connection points: 2
#     Edge 88, Type (0, 0), BuildingBlock: AJUNOK_clean_linker_0, # of connection points: 2
#     Edge 89, Type (0, 0), BuildingBlock: AJUNOK_clean_linker_0, # of connection points: 2
#     Edge 90, Type (0, 0), BuildingBlock: AJUNOK_clean_linker_0, # of connection points: 2
#     Edge 91, Type (0, 0), BuildingBlock: AJUNOK_clean_linker_0, # of connection points: 2
#     Edge 92, Type (0, 0), BuildingBlock: AJUNOK_clean_linker_0, # of connection points: 2
#     Edge 93, Type (0, 0), BuildingBlock: AJUNOK_clean_linker_0, # of connection points: 2
#     Edge 94, Type (0, 0), BuildingBlock: AJUNOK_clean_linker_0, # of connection points: 2
#     Edge 95, Type (0, 0), BuildingBlock: AJUNOK_clean_linker_0, # of connection points: 2
# Relax obj value: 0.224
# Max RMSD: 0.256
# Mean RMSD: 0.255
data_MOF--net-sxg--node1-IZENUY_clean_sbu_0--edge1-AJUNOK_clean_linker_0
_symmetry_space_group_name_H-M    P1
_symmetry_Int_Tables_number       1
_symmetry_cell_setting            triclinic
loop_
_symmetry_equiv_pos_as_xyz
'x, y, z'
_cell_length_a     33.213183
_cell_length_b     33.163677
_cell_length_c     33.224519
_cell_angle_alpha  90.121716
_cell_angle_beta   90.079
_cell_angle_gamma 90.064531
loop_
_atom_site_label
_atom_site_type_symbol
_atom_site_fract_x
_atom_site_fract_y
_atom_site_fract_z
_atom_type_partial_charge
Fe0 Fe 0.097 0.3991 0.17897 0.0
Fe1 Fe 0.07362 0.37831 0.26626 0.0
O2 O 0.08417 0.36319 0.21627 0.0
Fe3 Fe 0.0831 0.3116 0.20355 0.0
O4 O 0.04296 0.31933 0.16761 0.0
O5 O 0.07328 0.36999 0.13739 0.0
O6 O 0.0496 0.42379 0.18443 0.0
C7 C 0.03541 0.43783 0.21649 0.0
C8 C 0.15105 0.34089 0.16134 0.0
O9 O 0.04866 0.42639 0.25075 0.0
C10 C 0.12015 0.30594 0.27531 0.0
O11 O 0.12276 0.43421 0.21413 0.0
O12 O 0.12271 0.40149 0.27143 0.0
O13 O 0.1226 0.3154 0.16442 0.0
O14 O 0.14571 0.37694 0.17111 0.0
C15 C 0.01921 0.318 0.26197 0.0
O16 O 0.09611 0.33213 0.28995 0.0
O17 O 0.12333 0.30216 0.2379 0.0
C18 C 0.13836 0.42722 0.24837 0.0
O19 O 0.02406 0.35556 0.26481 0.0
O20 O 0.04434 0.29723 0.24179 0.0
C21 C 0.04626 0.34259 0.13777 0.0
Fe22 Fe 0.43823 0.63799 0.6791 0.0
Fe23 Fe 0.46324 0.65982 0.76585 0.0
O24 O 0.45216 0.67429 0.71588 0.0
Fe25 Fe 0.45384 0.7258 0.70273 0.0
O26 O 0.49359 0.71701 0.66677 0.0
O27 O 0.46263 0.66619 0.63698 0.0
O28 O 0.48512 0.61203 0.68446 0.0
C29 C 0.50029 0.59921 0.71661 0.0
C30 C 0.38533 0.6973 0.6614 0.0
O31 O 0.48739 0.61135 0.75073 0.0
C32 C 0.41696 0.7323 0.77456 0.0
O33 O 0.41144 0.60397 0.71493 0.0
O34 O 0.41419 0.63727 0.77195 0.0
O35 O 0.41434 0.72212 0.66373 0.0
O36 O 0.39005 0.66126 0.67132 0.0
C37 C 0.51808 0.71952 0.76054 0.0
O38 O 0.44128 0.70639 0.78918 0.0
O39 O 0.41395 0.73638 0.73715 0.0
C40 C 0.39722 0.61157 0.74976 0.0
O41 O 0.51301 0.68204 0.76358 0.0
O42 O 0.49283 0.74026 0.74063 0.0
C43 C 0.48958 0.69383 0.63683 0.0
Fe44 Fe 0.57141 0.15902 0.76804 0.0
Fe45 Fe 0.58252 0.22474 0.83155 0.0
O46 O 0.58308 0.17339 0.81819 0.0
Fe47 Fe 0.59732 0.13707 0.85449 0.0
O48 O 0.55004 0.11173 0.84945 0.0
O49 O 0.54799 0.11013 0.78316 0.0
O50 O 0.52155 0.18105 0.77127 0.0
C51 C 0.51686 0.21866 0.77477 0.0
C52 C 0.63785 0.11151 0.78362 0.0
O53 O 0.54227 0.239 0.7951 0.0
C54 C 0.65188 0.19587 0.87067 0.0
O55 O 0.59185 0.20608 0.74434 0.0
O56 O 0.62155 0.23378 0.79592 0.0
O57 O 0.62295 0.10315 0.81793 0.0
O58 O 0.62082 0.13706 0.76133 0.0
C59 C 0.54761 0.19322 0.89811 0.0
O60 O 0.62331 0.22113 0.86918 0.0
O61 O 0.64606 0.15969 0.8617 0.0
C62 C 0.61543 0.23268 0.75885 0.0
O63 O 0.5438 0.21697 0.86874 0.0
O64 O 0.57408 0.16524 0.89724 0.0
C65 C 0.53547 0.09793 0.81737 0.0
Fe66 Fe 0.96536 0.87614 0.2666 0.0
Fe67 Fe 0.95665 0.81158 0.33103 0.0
O68 O 0.95499 0.86257 0.31703 0.0
Fe69 Fe 0.94071 0.89906 0.35302 0.0
O70 O 0.98742 0.92524 0.34705 0.0
O71 O 0.98853 0.92565 0.28066 0.0
O72 O 1.01559 0.8551 0.26938 0.0
C73 C 0.02097 0.81767 0.27278 0.0
C74 C 0.89873 0.92302 0.28255 0.0
O75 O 0.996 0.79707 0.29337 0.0
C76 C 0.88819 0.83981 0.37252 0.0
O77 O 0.9449 0.82815 0.24428 0.0
O78 O 0.9161 0.80167 0.29689 0.0
O79 O 0.91396 0.932 0.3166 0.0
O80 O 0.91559 0.89725 0.26038 0.0
C81 C 0.99227 0.84419 0.39634 0.0
O82 O 0.91754 0.8155 0.37033 0.0
O83 O 0.89241 0.87547 0.36102 0.0
C84 C 0.92179 0.80165 0.25973 0.0
O85 O 0.99648 0.82066 0.36674 0.0
O86 O 0.96533 0.87178 0.39563 0.0
C87 C 1.00142 0.93858 0.31459 0.0
Fe88 Fe 0.2048 0.08239 0.31103 0.0
Fe89 Fe 0.18013 0.09632 0.39841 0.0
O90 O 0.21746 0.0834 0.36254 0.0
Fe91 Fe 0.26747 0.07276 0.37766 0.0
O92 O 0.26597 0.02308 0.35495 0.0
O93 O 0.24284 0.04336 0.29676 0.0
O94 O 0.16854 0.04239 0.31857 0.0
C95 C 0.13848 0.04598 0.34151 0.0
C96 C 0.27681 0.11908 0.30522 0.0
O97 O 0.13839 0.07269 0.36926 0.0
C98 C 0.24973 0.13764 0.42668 0.0
O99 O 0.16588 0.12216 0.31482 0.0
O100 O 0.17237 0.14514 0.37636 0.0
O101 O 0.29136 0.09512 0.33151 0.0
O102 O 0.23939 0.12249 0.30161 0.0
C103 C 0.21753 0.03466 0.43718 0.0
O104 O 0.21537 0.12211 0.43353 0.0
O105 O 0.27273 0.12199 0.40085 0.0
C106 C 0.16276 0.15058 0.34036 0.0
O107 O 0.18549 0.04881 0.42304 0.0
O108 O 0.25183 0.04787 0.42571 0.0
C109 C 0.26299 1.01817 0.31746 0.0
Fe110 Fe 0.26835 0.96563 0.87626 0.0
Fe111 Fe 0.33197 0.95497 0.81116 0.0
O112 O 0.31866 0.95456 0.86228 0.0
Fe113 Fe 0.35505 0.94097 0.89865 0.0
O114 O 0.34943 0.98835 0.92364 0.0
O115 O 0.28309 0.9893 0.92526 0.0
O116 O 0.27134 1.01559 0.8545 0.0
C117 C 0.27439 0.02036 0.81701 0.0
C118 C 0.28456 0.89983 0.92394 0.0
O119 O 0.29471 0.99489 0.7966 0.0
C120 C 0.37259 0.88649 0.84049 0.0
O121 O 0.24517 0.94483 0.82883 0.0
O122 O 0.29708 0.91472 0.80272 0.0
O123 O 0.31876 0.9151 0.93225 0.0
O124 O 0.26197 0.91616 0.89819 0.0
C125 C 0.39803 0.99099 0.84267 0.0
O126 O 0.37038 0.91494 0.81514 0.0
O127 O 0.36288 0.89216 0.87639 0.0
C128 C 0.2601 0.92113 0.80256 0.0
O129 O 0.36863 0.99445 0.81879 0.0
O130 O 0.39742 0.96459 0.87063 0.0
C131 C 0.3172 1.00233 0.93753 0.0
Fe132 Fe 0.76715 0.46184 0.65828 0.0
Fe133 Fe 0.70167 0.45435 0.72174 0.0
O134 O 0.71622 0.45301 0.67096 0.0
Fe135 Fe 0.67993 0.44072 0.63388 0.0
O136 O 0.6878 0.48746 0.60862 0.0
O137 O 0.7543 0.48709 0.60953 0.0
O138 O 0.76631 0.51163 0.68079 0.0
C139 C 0.76261 0.51622 0.71822 0.0
C140 C 0.74947 0.397 0.60903 0.0
O141 O 0.74094 0.49151 0.7379 0.0
C142 C 0.65849 0.38786 0.69187 0.0
O143 O 0.78801 0.43879 0.70584 0.0
O144 O 0.7336 0.41226 0.73133 0.0
O145 O 0.71562 0.41302 0.60069 0.0
O146 O 0.77187 0.41249 0.63551 0.0
C147 C 0.63844 0.49325 0.6895 0.0
O148 O 0.66065 0.41713 0.71637 0.0
O149 O 0.66999 0.39242 0.65637 0.0
C150 C 0.77108 0.41564 0.7315 0.0
O151 O 0.66821 0.49592 0.71294 0.0
O152 O 0.638 0.46679 0.66129 0.0
C153 C 0.72085 0.50116 0.59649 0.0
Fe154 Fe 0.83393 0.57924 0.22185 0.0
Fe155 Fe 0.85381 0.59554 0.13414 0.0
O156 O 0.81827 0.58202 0.17136 0.0
Fe157 Fe 0.76715 0.57322 0.15917 0.0
O158 O 0.76835 0.52303 0.18071 0.0
O159 O 0.79513 0.54194 0.23771 0.0
O160 O 0.86726 0.53789 0.21105 0.0
C161 C 0.89653 0.5415 0.18715 0.0
C162 C 0.76452 0.61794 0.23332 0.0
O163 O 0.89624 0.569 0.1601 0.0
C164 C 0.78369 0.63925 0.11121 0.0
O165 O 0.87481 0.61644 0.21693 0.0
O166 O 0.86407 0.6433 0.15817 0.0
O167 O 0.74724 0.59546 0.20723 0.0
O168 O 0.8021 0.62092 0.23358 0.0
C169 C 0.81237 0.53583 0.0956 0.0
O170 O 0.8176 0.62387 0.10218 0.0
O171 O 0.76186 0.62289 0.13749 0.0
C172 C 0.87683 0.64642 0.19351 0.0
O173 O 0.8456 0.54947 0.10751 0.0
O174 O 0.77909 0.54885 0.10986 0.0
C175 C 0.77287 0.51779 0.21798 0.0
Fe176 Fe 0.31333 0.20451 0.08251 0.0
Fe177 Fe 0.40093 0.18043 0.09619 0.0
O178 O 0.36476 0.21755 0.08347 0.0
Fe179 Fe 0.37941 0.26779 0.07301 0.0
O180 O 0.35676 0.26613 0.02339 0.0
O181 O 0.2987 0.24271 0.04379 0.0
O182 O 0.32108 0.16859 0.04236 0.0
C183 C 0.34436 0.13871 0.04562 0.0
C184 C 0.30697 0.27631 0.11944 0.0
O185 O 0.37217 0.13859 0.0722 0.0
C186 C 0.42827 0.25023 0.13783 0.0
O187 O 0.31739 0.16526 0.12186 0.0
O188 O 0.37881 0.17209 0.1449 0.0
O189 O 0.33297 0.29117 0.09538 0.0
O190 O 0.30386 0.23881 0.12283 0.0
C191 C 0.43971 0.21861 0.03494 0.0
O192 O 0.43554 0.21592 0.12227 0.0
O193 O 0.40242 0.27315 0.12213 0.0
C194 C 0.34286 0.16214 0.15026 0.0
O195 O 0.42573 0.18632 0.04881 0.0
O196 O 0.42773 0.25276 0.04822 0.0
C197 C 0.31927 0.2629 0.01855 0.0
Fe198 Fe 0.89681 0.35512 0.94117 0.0
Fe199 Fe 0.87642 0.26781 0.9653 0.0
O200 O 0.86126 0.3178 0.95478 0.0
Fe201 Fe 0.8098 0.33062 0.95661 0.0
O202 O 0.81838 0.36637 0.99675 0.0
O203 O 0.86809 0.39693 0.96531 0.0
O204 O 0.92265 0.34985 0.98817 0.0
C205 C 0.93662 0.31767 1.00241 0.0
C206 C 0.83736 0.37207 0.88803 0.0
O207 O 0.9246 0.28336 0.9897 0.0
C208 C 0.80492 0.25911 0.91821 0.0
O209 O 0.93132 0.31998 0.91483 0.0
O210 O 0.89914 0.26221 0.91622 0.0
O211 O 0.81317 0.37006 0.91753 0.0
O212 O 0.87347 0.36235 0.89273 0.0
C213 C 0.81674 0.2723 0.02008 0.0
O214 O 0.83034 0.2443 0.94286 0.0
O215 O 0.79948 0.29648 0.91644 0.0
C216 C 0.92433 0.28535 0.89991 0.0
O217 O 0.85417 0.26945 1.01499 0.0
O218 O 0.7958 0.29223 0.99504 0.0
C219 C 0.84079 0.3968 0.99239 0.0
Fe220 Fe 0.63654 0.68155 0.44011 0.0
Fe221 Fe 0.65804 0.76915 0.46294 0.0
O222 O 0.67241 0.71864 0.45366 0.0
Fe223 Fe 0.7236 0.70553 0.45593 0.0
O224 O 0.71485 0.67084 0.49637 0.0
O225 O 0.66449 0.63978 0.46608 0.0
O226 O 0.60999 0.68835 0.48644 0.0
C227 C 0.59617 0.72104 0.49962 0.0
C228 C 0.69642 0.66265 0.38815 0.0
O229 O 0.60869 0.75488 0.48609 0.0
C230 C 0.73279 0.77632 0.41976 0.0
O231 O 0.60314 0.71701 0.41204 0.0
O232 O 0.63702 0.7739 0.41291 0.0
O233 O 0.72039 0.6653 0.41774 0.0
O234 O 0.66038 0.67269 0.39228 0.0
C235 C 0.71607 0.76426 0.51937 0.0
O236 O 0.70585 0.79177 0.44241 0.0
O237 O 0.73366 0.73895 0.4149 0.0
C238 C 0.61154 0.75107 0.39631 0.0
O239 O 0.67878 0.76788 0.51338 0.0
O240 O 0.73716 0.7441 0.49461 0.0
C241 C 0.69242 0.64042 0.49281 0.0
Fe242 Fe 0.15714 0.76808 0.57274 0.0
Fe243 Fe 0.22179 0.8331 0.57973 0.0
O244 O 0.17078 0.81869 0.5825 0.0
Fe245 Fe 0.13447 0.85512 0.59653 0.0
O246 O 0.1075 0.8483 0.55054 0.0
O247 O 0.10836 0.78176 0.54823 0.0
O248 O 0.17912 0.76938 0.52281 0.0
C249 C 0.21648 0.77314 0.5176 0.0
C250 C 0.10955 0.7849 0.63916 0.0
O251 O 0.23686 0.79414 0.54225 0.0
C252 C 0.19446 0.87613 0.64735 0.0
O253 O 0.20428 0.74665 0.59526 0.0
O254 O 0.2332 0.80049 0.62075 0.0
O255 O 0.10155 0.81944 0.62456 0.0
O256 O 0.13487 0.76247 0.62207 0.0
C257 C 0.18829 0.89696 0.5427 0.0
O258 O 0.21786 0.87379 0.61738 0.0
O259 O 0.15885 0.86417 0.64419 0.0
C260 C 0.23026 0.76282 0.61868 0.0
O261 O 0.21161 0.86717 0.53883 0.0
O262 O 0.16146 0.89717 0.5704 0.0
C263 C 0.09482 0.81569 0.53608 0.0
Fe264 Fe 0.94003 0.63546 0.85628 0.0
Fe265 Fe 0.96267 0.65729 0.76893 0.0
O266 O 0.95256 0.67175 0.81929 0.0
Fe267 Fe 0.95302 0.72321 0.83215 0.0
O268 O 0.99301 0.71602 0.86804 0.0
O269 O 0.96453 0.66411 0.89815 0.0
O270 O 0.98741 0.61053 0.84991 0.0
C271 C 1.00089 0.59655 0.81747 0.0
C272 C 0.88541 0.69376 0.87408 0.0
O273 O 0.98699 0.60844 0.78358 0.0
C274 C 0.9182 0.7314 0.76071 0.0
O275 O 0.91364 0.60106 0.82064 0.0
O276 O 0.91311 0.63484 0.76381 0.0
O277 O 0.91367 0.71933 0.87117 0.0
O278 O 0.89125 0.65758 0.86497 0.0
C279 C 1.01762 0.71692 0.77414 0.0
O280 O 0.94138 0.70462 0.74572 0.0
O281 O 0.91236 0.73171 0.79779 0.0
C282 C 0.89769 0.60861 0.78658 0.0
O283 O 1.01258 0.67939 0.77065 0.0
O284 O 0.99233 0.73751 0.79432 0.0
C285 C 0.99045 0.69268 0.89783 0.0
Fe286 Fe 0.58049 0.31239 0.33483 0.0
Fe287 Fe 0.5963 0.39987 0.35782 0.0
O288 O 0.58317 0.36352 0.32095 0.0
Fe289 Fe 0.57415 0.37743 0.27048 0.0
O290 O 0.52431 0.35525 0.2709 0.0
O291 O 0.54324 0.29744 0.29557 0.0
O292 O 0.53931 0.32218 0.36865 0.0
C293 C 0.54328 0.34487 0.39892 0.0
C294 C 0.62023 0.30436 0.26498 0.0
O295 O 0.57071 0.37202 0.39947 0.0
C296 C 0.63915 0.42616 0.2885 0.0
O297 O 0.61808 0.31656 0.37553 0.0
O298 O 0.64432 0.37616 0.36668 0.0
O299 O 0.59707 0.33047 0.24879 0.0
O300 O 0.62176 0.30114 0.30253 0.0
C301 C 0.53567 0.43857 0.31823 0.0
O302 O 0.62371 0.43371 0.32271 0.0
O303 O 0.62346 0.40002 0.26587 0.0
C304 C 0.64794 0.34031 0.37788 0.0
O305 O 0.54978 0.42601 0.35098 0.0
O306 O 0.54931 0.42598 0.28449 0.0
C307 C 0.51922 0.31778 0.27391 0.0
Fe308 Fe 0.46426 0.8771 0.26742 0.0
Fe309 Fe 0.45368 0.81162 0.20338 0.0
O310 O 0.45312 0.863 0.21723 0.0
Fe311 Fe 0.43958 0.89972 0.18118 0.0
O312 O 0.48708 0.9247 0.18664 0.0
O313 O 0.48829 0.92597 0.25295 0.0
O314 O 0.51402 0.85491 0.26455 0.0
C315 C 0.51893 0.81738 0.26083 0.0
C316 C 0.39845 0.92531 0.25164 0.0
O317 O 0.49348 0.79685 0.2406 0.0
C318 C 0.38498 0.84155 0.16375 0.0
O319 O 0.4431 0.83006 0.29019 0.0
O320 O 0.41396 0.80174 0.23828 0.0
O321 O 0.41396 0.9338 0.21765 0.0
O322 O 0.41488 0.89932 0.27383 0.0
C323 C 0.48938 0.84364 0.13747 0.0
O324 O 0.41338 0.81602 0.16494 0.0
O325 O 0.39081 0.87738 0.17393 0.0
C326 C 0.41928 0.80371 0.27552 0.0
O327 O 0.49305 0.81983 0.16684 0.0
O328 O 0.46288 0.87161 0.13834 0.0
C329 C 0.50144 0.9382 0.21897 0.0
Fe330 Fe 0.09706 0.14125 0.68065 0.0
Fe331 Fe 0.07179 0.15883 0.76821 0.0
O332 O 0.0829 0.17574 0.71898 0.0
Fe333 Fe 0.08096 0.2278 0.70806 0.0
O334 O 0.04151 0.22013 0.67131 0.0
O335 O 0.07273 0.17085 0.63957 0.0
O336 O 0.05027 0.11471 0.6847 0.0
C337 C 0.03572 0.09974 0.7162 0.0
C338 C 0.15 0.20193 0.66704 0.0
O339 O 0.04812 0.11082 0.75088 0.0
C340 C 0.11754 0.23093 0.78069 0.0
O341 O 0.12367 0.10596 0.71497 0.0
O342 O 0.12121 0.13635 0.77364 0.0
O343 O 0.12055 0.22604 0.66938 0.0
O344 O 0.14527 0.16521 0.67431 0.0
C345 C 1.01657 0.2185 0.765 0.0
O346 O 0.09303 0.20441 0.79362 0.0
O347 O 0.12055 0.23769 0.74367 0.0
C348 C 0.1382 0.11203 0.74996 0.0
O349 O 0.02185 0.18089 0.7667 0.0
O350 O 0.04162 0.24007 0.74579 0.0
C351 C 0.04556 0.19811 0.64054 0.0
Fe352 Fe 0.85512 0.93989 0.63656 0.0
Fe353 Fe 0.76883 0.96557 0.65886 0.0
O354 O 0.81903 0.95476 0.67277 0.0
Fe355 Fe 0.83327 0.95742 0.72383 0.0
O356 O 0.86856 0.99743 0.71367 0.0
O357 O 0.8977 0.96487 0.66362 0.0
O358 O 0.84966 0.98624 0.60971 0.0
C359 C 0.81749 1.00112 0.59654 0.0
C360 C 0.87429 0.8882 0.69652 0.0
O361 O 0.7833 0.98942 0.60989 0.0
C362 C 0.76202 0.92003 0.73213 0.0
O363 O 0.81886 0.91288 0.60352 0.0
O364 O 0.76214 0.91615 0.63696 0.0
O365 O 0.8728 0.9183 0.72013 0.0
O366 O 0.86272 0.89187 0.66083 0.0
C367 C 0.77472 0.02105 0.71776 0.0
O368 O 0.74655 0.9438 0.7061 0.0
O369 O 0.79954 0.9173 0.73533 0.0
C370 C 0.78423 0.89872 0.61165 0.0
O371 O 0.77151 1.01566 0.68042 0.0
O372 O 0.79517 0.99619 0.73846 0.0
C373 C 0.89801 0.99295 0.69011 0.0
Fe374 Fe 0.68125 0.09637 0.13962 0.0
Fe375 Fe 0.76796 0.07007 0.15901 0.0
O376 O 0.71857 0.08193 0.17495 0.0
Fe377 Fe 0.70652 0.08024 0.22669 0.0
O378 O 0.66916 0.04131 0.21839 0.0
O379 O 0.63932 0.07302 0.16839 0.0
O380 O 0.68524 0.04921 0.11361 0.0
C381 C 0.71679 0.0343 0.09914 0.0
C382 C 0.66598 0.14981 0.19936 0.0
O383 O 0.75139 0.04662 0.11062 0.0
C384 C 0.77962 0.11577 0.23126 0.0
O385 O 0.71673 0.12227 0.10502 0.0
O386 O 0.77443 0.11946 0.13701 0.0
O387 O 0.66862 0.12089 0.2242 0.0
O388 O 0.67483 0.14479 0.16309 0.0
C389 C 0.76256 1.0147 0.21808 0.0
O390 O 0.79287 0.091 0.20507 0.0
O391 O 0.74247 0.11922 0.23726 0.0
C392 C 0.75143 0.13682 0.11237 0.0
O393 O 0.76506 0.02014 0.18068 0.0
O394 O 0.74357 0.04012 0.23957 0.0
C395 C 0.63918 0.0457 0.1954 0.0
Fe396 Fe 0.33347 0.58167 0.31222 0.0
Fe397 Fe 0.35526 0.59618 0.40005 0.0
O398 O 0.31895 0.58339 0.36314 0.0
Fe399 Fe 0.26828 0.57394 0.37614 0.0
O400 O 0.26946 0.52435 0.3534 0.0
O401 O 0.2944 0.54456 0.29623 0.0
O402 O 0.367 0.54035 0.32162 0.0
C403 C 0.39692 0.5435 0.34472 0.0
C404 C 0.26386 0.62201 0.30456 0.0
O405 O 0.39738 0.57042 0.37251 0.0
C406 C 0.28542 0.63918 0.42509 0.0
O407 O 0.37418 0.61942 0.31734 0.0
O408 O 0.36432 0.64434 0.37722 0.0
O409 O 0.24716 0.59766 0.32925 0.0
O410 O 0.3014 0.62305 0.30164 0.0
C411 C 0.31521 0.53566 0.43802 0.0
O412 O 0.31953 0.62374 0.43344 0.0
O413 O 0.26312 0.62292 0.39912 0.0
C414 C 0.37536 0.64897 0.3416 0.0
O415 O 0.34805 0.54956 0.4256 0.0
O416 O 0.28151 0.54855 0.42458 0.0
C417 C 0.27301 0.5198 0.31599 0.0
Fe418 Fe 0.26895 0.46337 0.87713 0.0
Fe419 Fe 0.18248 0.43964 0.90011 0.0
O420 O 0.21851 0.45291 0.8633 0.0
Fe421 Fe 0.20467 0.45372 0.81214 0.0
O422 O 0.23954 0.41384 0.80235 0.0
O423 O 0.29164 0.44311 0.8294 0.0
O424 O 0.27487 0.4135 0.89844 0.0
C425 C 0.25282 0.39749 0.92483 0.0
C426 C 0.26244 0.51903 0.81865 0.0
O427 O 0.21912 0.41358 0.93375 0.0
C428 C 0.13865 0.48951 0.84407 0.0
O429 O 0.25487 0.48677 0.92642 0.0
O430 O 0.1886 0.48725 0.92504 0.0
O431 O 0.24182 0.49402 0.79788 0.0
O432 O 0.26621 0.51347 0.85598 0.0
C433 C 0.16472 0.38491 0.84194 0.0
O434 O 0.1396 0.46331 0.87229 0.0
O435 O 0.16806 0.49306 0.82034 0.0
C436 C 0.22125 0.50132 0.93819 0.0
O437 O 0.1745 0.39086 0.87782 0.0
O438 O 0.16641 0.4132 0.81631 0.0
C439 C 0.27659 0.42007 0.80257 0.0
Fe440 Fe 0.63598 0.85544 0.93851 0.0
Fe441 Fe 0.65743 0.76837 0.96279 0.0
O442 O 0.6721 0.81856 0.95225 0.0
Fe443 Fe 0.72355 0.83186 0.95434 0.0
O444 O 0.71455 0.86785 0.99418 0.0
O445 O 0.66388 0.8975 0.96321 0.0
O446 O 0.60988 0.84971 0.98525 0.0
C447 C 0.59622 0.81749 0.99957 0.0
C448 C 0.69544 0.87363 0.88588 0.0
O449 O 0.6087 0.7833 0.98686 0.0
C450 C 0.73062 0.75987 0.9174 0.0
O451 O 0.60217 0.81971 0.91152 0.0
O452 O 0.63528 0.76258 0.91337 0.0
O453 O 0.7202 0.87093 0.91489 0.0
O454 O 0.65938 0.86365 0.89043 0.0
C455 C 0.71663 0.77373 0.01821 0.0
O456 O 0.7042 0.74513 0.94109 0.0
O457 O 0.73451 0.79738 0.91441 0.0
C458 C 0.61012 0.78532 0.89644 0.0
O459 O 0.67926 0.77038 1.01272 0.0
O460 O 0.73755 0.79394 0.99335 0.0
C461 C 0.69101 0.89749 0.99052 0.0
Fe462 Fe 0.14068 0.68091 0.09555 0.0
Fe463 Fe 0.15894 0.76841 0.07068 0.0
O464 O 0.1756 0.71901 0.0818 0.0
Fe465 Fe 0.22759 0.70797 0.08026 0.0
O466 O 0.22037 0.67041 0.04143 0.0
O467 O 0.17009 0.63944 0.07174 0.0
O468 O 0.11455 0.68525 0.04829 0.0
C469 C 0.10013 0.71719 0.03389 0.0
C470 C 0.20077 0.66724 0.1495 0.0
O471 O 0.11068 0.75149 0.04772 0.0
C472 C 0.23109 0.78127 0.11571 0.0
O473 O 0.10566 0.71583 0.12182 0.0
O474 O 0.13713 0.77405 0.12026 0.0
O475 O 0.22564 0.67002 0.1207 0.0
O476 O 0.16411 0.67422 0.144 0.0
C477 C 0.21787 0.76425 1.01501 0.0
O478 O 0.20471 0.79393 0.09104 0.0
O479 O 0.23743 0.74422 0.11935 0.0
C480 C 0.11242 0.75055 0.1369 0.0
O481 O 0.18038 0.76618 0.02064 0.0
O482 O 0.23966 0.74518 0.04009 0.0
C483 C 0.19811 0.63982 0.04545 0.0
Fe484 Fe 0.31355 0.33518 0.57942 0.0
Fe485 Fe 0.40109 0.35652 0.59536 0.0
O486 O 0.36422 0.32011 0.5827 0.0
Fe487 Fe 0.37701 0.26897 0.57502 0.0
O488 O 0.35502 0.26851 0.52513 0.0
O489 O 0.29781 0.29517 0.54313 0.0
O490 O 0.3242 0.36773 0.53753 0.0
C491 C 0.34722 0.39777 0.54115 0.0
C492 C 0.30443 0.26684 0.62166 0.0
O493 O 0.37422 0.39832 0.56872 0.0
C494 C 0.42577 0.28754 0.63981 0.0
O495 O 0.31832 0.37679 0.61628 0.0
O496 O 0.37741 0.36676 0.643 0.0
O497 O 0.32961 0.249 0.59864 0.0
O498 O 0.30178 0.30443 0.62127 0.0
C499 C 0.43954 0.31468 0.5363 0.0
O500 O 0.43403 0.32131 0.62372 0.0
O501 O 0.3994 0.26502 0.62442 0.0
C502 C 0.34188 0.37881 0.64631 0.0
O503 O 0.42726 0.34805 0.54929 0.0
O504 O 0.42583 0.28132 0.54989 0.0
C505 C 0.31776 0.27246 0.51967 0.0
Fe506 Fe 0.87841 0.26837 0.46334 0.0
Fe507 Fe 0.8139 0.20389 0.45241 0.0
O508 O 0.86501 0.2177 0.45251 0.0
Fe509 Fe 0.902 0.18162 0.43937 0.0
O510 O 0.92686 0.18795 0.48701 0.0
O511 O 0.92733 0.2544 0.48718 0.0
O512 O 0.85645 0.26551 0.51314 0.0
C513 C 0.81895 0.26167 0.51785 0.0
C514 C 0.92672 0.25232 0.3977 0.0
O515 O 0.79891 0.24089 0.49243 0.0
C516 C 0.84414 0.16366 0.38401 0.0
O517 O 0.83091 0.29118 0.44264 0.0
O518 O 0.80555 0.23891 0.41256 0.0
O519 O 0.93556 0.21841 0.41344 0.0
O520 O 0.90041 0.27445 0.41386 0.0
C521 C 0.84531 0.13791 0.4887 0.0
O522 O 0.81836 0.16563 0.41206 0.0
O523 O 0.88008 0.17316 0.39035 0.0
C524 C 0.80474 0.27588 0.41912 0.0
O525 O 0.82123 0.16717 0.49163 0.0
O526 O 0.87405 0.13882 0.46306 0.0
C527 C 0.93931 0.22076 0.50148 0.0
C528 C 0.19033 0.44166 0.30162 0.0
C529 C 0.17458 0.45006 0.26305 0.0
C530 C 0.2235 0.46274 0.3173 0.0
C531 C 0.24298 0.49322 0.29523 0.0
H532 H 0.17653 0.41893 0.32048 0.0
H533 H 0.23331 0.45572 0.3476 0.0
S534 S 0.21576 0.52568 0.19167 0.0
N535 N 0.18269 0.49003 0.20226 0.0
N536 N 0.24502 0.52963 0.23171 0.0
C537 C 0.2287 0.50102 0.25596 0.0
C538 C 0.19457 0.47958 0.23996 0.0
C539 C 0.30654 0.53924 0.75944 0.0
C540 C 0.29221 0.54678 0.7988 0.0
C541 C 0.34007 0.56025 0.7435 0.0
C542 C 0.36083 0.58976 0.76617 0.0
H543 H 0.29287 0.51574 0.74133 0.0
H544 H 0.3502 0.5527 0.71345 0.0
S545 S 0.33305 0.62342 0.86963 0.0
N546 N 0.29991 0.58796 0.85881 0.0
N547 N 0.36215 0.62694 0.82964 0.0
C548 C 0.3456 0.59858 0.80501 0.0
C549 C 0.31161 0.57734 0.82103 0.0
C550 C 0.69229 0.05788 0.78933 0.0
C551 C 0.67496 0.09047 0.76827 0.0
C552 C 0.72631 0.03718 0.77432 0.0
C553 C 0.74449 0.04809 0.73751 0.0
H554 H 0.67893 0.04754 0.81719 0.0
H555 H 0.73722 1.01122 0.79078 0.0
S556 S 0.71439 0.13401 0.6728 0.0
N557 N 0.68162 0.13474 0.71009 0.0
N558 N 0.74455 0.09565 0.68215 0.0
C559 C 0.72865 0.08165 0.71714 0.0
C560 C 0.69426 0.10281 0.73238 0.0
C561 C 0.84235 0.97405 0.29024 0.0
C562 C 0.86154 0.94383 0.26732 0.0
C563 C 0.80829 0.99476 0.27554 0.0
C564 C 0.79216 0.98653 0.23707 0.0
H565 H 0.85418 0.98246 0.31947 0.0
H566 H 0.79575 1.01876 0.29377 0.0
S567 S 0.82709 0.90647 0.16717 0.0
N568 N 0.85846 0.90387 0.20563 0.0
N569 N 0.79543 0.94313 0.17825 0.0
C570 C 0.80959 0.9549 0.21486 0.0
C571 C 0.84397 0.93361 0.22983 0.0
C572 C 0.31908 0.22261 0.46274 0.0
C573 C 0.29707 0.24211 0.49327 0.0
C574 C 0.30325 0.18951 0.44149 0.0
C575 C 0.26463 0.17375 0.44981 0.0
H576 H 0.34938 0.23245 0.45571 0.0
H577 H 0.32203 0.17579 0.41863 0.0
S578 S 0.1938 0.21438 0.5263 0.0
N579 N 0.23382 0.24374 0.53013 0.0
N580 N 0.20413 0.18157 0.49031 0.0
C581 C 0.24174 0.19359 0.47963 0.0
C582 C 0.25786 0.22767 0.5012 0.0
C583 C 0.22747 0.85593 0.94689 0.0
C584 C 0.26919 0.86355 0.94578 0.0
C585 C 0.21156 0.82242 0.96709 0.0
C586 C 0.23653 0.79449 0.98712 0.0
H587 H 0.20657 0.87663 0.93278 0.0
H588 H 0.17911 0.8193 0.96807 0.0
S589 S 0.34847 0.79698 0.98791 0.0
N590 N 0.33557 0.83806 0.96303 0.0
N591 N 0.30585 0.77449 1.00027 0.0
C592 C 0.27856 0.80033 0.98411 0.0
C593 C 0.29479 0.83499 0.96389 0.0
C594 C 0.82138 0.31492 0.57184 0.0
C595 C 0.7982 0.29166 0.54483 0.0
C596 C 0.80517 0.34828 0.59228 0.0
C597 C 0.76484 0.36058 0.58677 0.0
H598 H 0.85294 0.30808 0.57648 0.0
H599 H 0.82501 0.36508 0.61207 0.0
S600 S 0.68961 0.30803 0.52255 0.0
N601 N 0.73136 0.28178 0.51623 0.0
N602 N 0.70117 0.3447 0.55423 0.0
C603 C 0.7407 0.33675 0.56113 0.0
C604 C 0.7572 0.30231 0.54046 0.0
C605 C 0.78972 0.6941 0.05815 0.0
C606 C 0.76799 0.67604 0.08985 0.0
C607 C 0.77429 0.72751 0.03681 0.0
C608 C 0.73637 0.7443 0.04609 0.0
H609 H 0.81847 0.68176 0.049 0.0
H610 H 0.79141 0.73897 1.01156 0.0
S611 S 0.6694 0.71211 0.1294 0.0
N612 N 0.70782 0.68069 0.13168 0.0
N613 N 0.67921 0.74255 0.09143 0.0
C614 C 0.7153 0.72788 0.07889 0.0
C615 C 0.73095 0.69411 0.10072 0.0
C616 C 0.44385 0.30466 0.1884 0.0
C617 C 0.45089 0.26518 0.17409 0.0
C618 C 0.46445 0.32039 0.22187 0.0
C619 C 0.49307 0.29747 0.24312 0.0
H620 H 0.42256 0.32417 0.17327 0.0
H621 H 0.45848 0.35132 0.23055 0.0
S622 S 0.52132 0.19141 0.22008 0.0
N623 N 0.48753 0.20273 0.1854 0.0
N624 N 0.52623 0.23222 0.24824 0.0
C625 C 0.49954 0.25739 0.23015 0.0
C626 C 0.47861 0.24136 0.19572 0.0
C627 C 0.94526 0.22877 0.8541 0.0
C628 C 0.94673 0.27017 0.86382 0.0
C629 C 0.96586 0.21292 0.8208 0.0
C630 C 0.98888 0.23765 0.79514 0.0
H631 H 0.92867 0.20793 0.87294 0.0
H632 H 0.96465 0.18065 0.81597 0.0
S633 S 0.99884 0.34904 0.80416 0.0
N634 N 0.97076 0.33617 0.84305 0.0
N635 N 1.00863 0.30671 0.77983 0.0
C636 C 0.98881 0.27953 0.80312 0.0
C637 C 0.96821 0.29564 0.8376 0.0
C638 C 0.53586 0.76028 0.30866 0.0
C639 C 0.5466 0.79714 0.29028 0.0
C640 C 0.55718 0.74506 0.34226 0.0
C641 C 0.59028 0.76598 0.35901 0.0
H642 H 0.50957 0.74395 0.29828 0.0
H643 H 0.54688 0.71726 0.35587 0.0
S644 S 0.63388 0.8612 0.31846 0.0
N645 N 0.59474 0.85212 0.28916 0.0
N646 N 0.63498 0.82388 0.3512 0.0
C647 C 0.60256 0.80177 0.3393 0.0
C648 C 0.58076 0.8172 0.30537 0.0
C649 C 0.05568 0.79013 0.6935 0.0
C650 C 0.0883 0.7692 0.67607 0.0
C651 C 0.03456 0.77448 0.72697 0.0
C652 C 0.04502 0.73715 0.7445 0.0
H653 H 0.04564 0.81835 0.68061 0.0
H654 H 1.00867 0.79096 0.73794 0.0
S655 S 0.13092 0.67254 0.71409 0.0
N656 N 0.13217 0.71053 0.68212 0.0
N657 N 0.09231 0.68151 0.74397 0.0
C658 C 0.07865 0.71693 0.72864 0.0
C659 C 0.10024 0.73279 0.69482 0.0
C660 C 0.84476 0.59513 0.73372 0.0
C661 C 0.86143 0.58569 0.77169 0.0
C662 C 0.81161 0.574 0.71786 0.0
C663 C 0.79294 0.54248 0.7392 0.0
H664 H 0.85782 0.61878 0.71545 0.0
H665 H 0.80109 0.58189 0.68801 0.0
S666 S 0.82338 0.50614 0.84057 0.0
N667 N 0.85546 0.54293 0.83082 0.0
N668 N 0.79318 0.50342 0.80114 0.0
C669 C 0.80831 0.53342 0.7778 0.0
C670 C 0.84245 0.55485 0.79393 0.0
C671 C 0.69062 0.43954 0.23456 0.0
C672 C 0.67516 0.44883 0.27309 0.0
C673 C 0.72341 0.46052 0.21805 0.0
C674 C 0.7429 0.49168 0.23928 0.0
H675 H 0.67685 0.41616 0.21634 0.0
H676 H 0.73299 0.45281 0.18784 0.0
S677 S 0.7158 0.52744 0.34191 0.0
N678 N 0.68314 0.491 0.33256 0.0
N679 N 0.74486 0.53021 0.30172 0.0
C680 C 0.72878 0.50056 0.27842 0.0
C681 C 0.69498 0.47931 0.29519 0.0
C682 C 0.34493 0.97996 0.24592 0.0
C683 C 0.3615 0.94686 0.26682 0.0
C684 C 0.31127 1.00128 0.26094 0.0
C685 C 0.29273 0.99057 0.29762 0.0
H686 H 0.35865 0.99021 0.21821 0.0
H687 H 0.30098 0.02756 0.2446 0.0
S688 S 0.32038 0.9032 0.36151 0.0
N689 N 0.35336 0.9021 0.32442 0.0
N690 N 0.29123 0.94242 0.35245 0.0
C691 C 0.30768 0.95643 0.31773 0.0
C692 C 0.34165 0.93459 0.30244 0.0
C693 C 0.22137 0.07446 0.82047 0.0
C694 C 0.24404 0.04738 0.79684 0.0
C695 C 0.18785 0.09505 0.80486 0.0
C696 C 0.17479 0.08968 0.76473 0.0
H697 H 0.22885 0.07905 0.85187 0.0
H698 H 0.17159 0.11494 0.82499 0.0
S699 S 0.22531 0.02498 0.68866 0.0
N700 N 0.25232 1.01861 0.72992 0.0
N701 N 0.18922 0.05695 0.70082 0.0
C702 C 0.19801 0.06392 0.74017 0.0
C703 C 0.23254 0.04305 0.75608 0.0
C704 C 0.78955 0.84387 0.5586 0.0
C705 C 0.76812 0.86204 0.59043 0.0
C706 C 0.7738 0.81048 0.53741 0.0
C707 C 0.73587 0.79386 0.54701 0.0
H708 H 0.8183 0.85608 0.54925 0.0
H709 H 0.79074 0.79886 0.51212 0.0
S710 S 0.66966 0.82648 0.63074 0.0
N711 N 0.70826 0.85779 0.63277 0.0
N712 N 0.67899 0.79589 0.59266 0.0
C713 C 0.71506 0.81043 0.57989 0.0
C714 C 0.73105 0.8442 0.6016 0.0
C715 C 0.76015 0.22432 0.03719 0.0
C716 C 0.79715 0.24257 0.04762 0.0
C717 C 0.74518 0.19063 0.0584 0.0
C718 C 0.7665 0.17381 0.09106 0.0
H719 H 0.74348 0.23489 1.01124 0.0
H720 H 0.71722 0.17709 0.0484 0.0
S721 S 0.86217 0.21417 0.13387 0.0
N722 N 0.85274 0.24363 0.09503 0.0
N723 N 0.82483 0.18133 0.13517 0.0
C724 C 0.80247 0.19337 0.10306 0.0
C725 C 0.81767 0.22739 0.08135 0.0
C726 C 0.27378 0.72548 0.5018 0.0
C727 C 0.23701 0.74361 0.49046 0.0
C728 C 0.28977 0.69229 0.4804 0.0
C729 C 0.26976 0.67593 0.44663 0.0
H730 H 0.28942 0.73575 0.52856 0.0
H731 H 0.31742 0.67874 0.49111 0.0
S732 S 0.17518 0.71629 0.40152 0.0
N733 N 0.18305 0.74503 0.44136 0.0
N734 N 0.21284 0.68389 0.4007 0.0
C735 C 0.23403 0.69545 0.43383 0.0
C736 C 0.21777 0.72886 0.4558 0.0
C737 C 0.26248 0.3109 1.0014 0.0
C738 C 0.29924 0.29237 0.99082 0.0
C739 C 0.24728 0.34433 0.97982 0.0
C740 C 0.26807 0.36065 0.94657 0.0
H741 H 0.24621 0.30079 0.02776 0.0
H742 H 0.21953 0.35808 0.99 0.0
S743 S 0.36301 0.31944 0.90333 0.0
N744 N 0.35407 0.29061 0.94273 0.0
N745 N 0.32574 0.35229 0.90194 0.0
C746 C 0.30379 0.34079 0.93448 0.0
C747 C 0.31925 0.30707 0.95658 0.0
C748 C 0.53537 0.77655 0.80827 0.0
C749 C 0.54569 0.73939 0.79022 0.0
C750 C 0.55651 0.79162 0.84205 0.0
C751 C 0.58896 0.77025 0.85923 0.0
H752 H 0.50948 0.79321 0.79752 0.0
H753 H 0.54656 0.8197 0.85542 0.0
S754 S 0.63173 0.6744 0.81929 0.0
N755 N 0.59304 0.68378 0.78958 0.0
N756 N 0.63295 0.71181 0.85208 0.0
C757 C 0.60094 0.7342 0.8398 0.0
C758 C 0.57934 0.71891 0.80566 0.0
C759 C 0.07482 0.82131 0.21978 0.0
C760 C 0.04804 0.79755 0.24256 0.0
C761 C 0.09538 0.80566 0.1863 0.0
C762 C 0.09021 0.76537 0.17344 0.0
H763 H 0.07918 0.85285 0.22712 0.0
H764 H 0.11502 0.82587 0.16989 0.0
S765 S 0.02649 0.68891 0.22446 0.0
N766 N 0.01989 0.73035 0.25128 0.0
N767 N 0.05816 0.70116 0.18821 0.0
C768 C 0.06479 0.74068 0.1968 0.0
C769 C 0.04399 0.75663 0.2313 0.0
C770 C 0.46155 0.2166 0.7231 0.0
C771 C 0.49006 0.23937 0.74482 0.0
C772 C 0.44097 0.23269 0.68986 0.0
C773 C 0.44795 0.2724 0.6762 0.0
H774 H 0.45579 0.18547 0.73109 0.0
H775 H 0.4199 0.21321 0.67423 0.0
S776 S 0.51733 0.34619 0.72406 0.0
N777 N 0.5223 0.30507 0.75154 0.0
N778 N 0.48396 0.335 0.68888 0.0
C779 C 0.4753 0.29613 0.69845 0.0
C780 C 0.4961 0.2798 0.73273 0.0
C781 C 0.98073 0.24617 0.3436 0.0
C782 C 0.94823 0.26756 0.36076 0.0
C783 C 1.00193 0.26115 0.30988 0.0
C784 C 0.99169 0.29827 0.29182 0.0
H785 H 0.99058 0.21806 0.35688 0.0
H786 H 0.02775 0.24438 0.29913 0.0
S787 S 0.90616 0.36385 0.3213 0.0
N788 N 0.90473 0.32638 0.35387 0.0
N789 N 0.94468 0.35418 0.29152 0.0
C790 C 0.95817 0.31892 0.3074 0.0
C791 C 0.9365 0.30373 0.34147 0.0
C792 C 0.17074 0.20654 0.29247 0.0
C793 C 0.15224 0.19162 0.32706 0.0
C794 C 0.1639 0.2458 0.27949 0.0
C795 C 0.13588 0.27125 0.29879 0.0
H796 H 0.19068 0.18762 0.27515 0.0
H797 H 0.17911 0.25536 0.25245 0.0
S798 S 0.08145 0.24723 0.39318 0.0
N799 N 0.108 0.2062 0.38351 0.0
N800 N 0.09166 0.27935 0.35659 0.0
C801 C 0.11821 0.25733 0.33465 0.0
C802 C 0.1269 0.21755 0.34913 0.0
C803 C 0.36274 0.82955 0.79358 0.0
C804 C 0.38265 0.84537 0.82721 0.0
C805 C 0.37075 0.79055 0.78009 0.0
C806 C 0.4004 0.76628 0.79846 0.0
H807 H 0.34079 0.84747 0.77741 0.0
H808 H 0.35503 0.78018 0.75347 0.0
S809 S 0.4569 0.79218 0.89137 0.0
N810 N 0.42907 0.83245 0.88232 0.0
N811 N 0.44642 0.75958 0.85511 0.0
C812 C 0.41865 0.78078 0.83388 0.0
C813 C 0.4094 0.82035 0.84851 0.0
C814 C 0.62884 0.34448 0.74474 0.0
C815 C 0.64343 0.34808 0.7054 0.0
C816 C 0.61894 0.30703 0.76061 0.0
C817 C 0.62301 0.27121 0.73797 0.0
H818 H 0.62588 0.37068 0.76403 0.0
H819 H 0.60834 0.30624 0.79144 0.0
S820 S 0.65732 0.26392 0.6324 0.0
N821 N 0.65964 0.31259 0.64297 0.0
N822 N 0.6404 0.24169 0.67353 0.0
C823 C 0.6357 0.27421 0.69797 0.0
C824 C 0.64613 0.31273 0.68155 0.0
C825 C 0.88798 0.72107 0.18538 0.0
C826 C 0.8935 0.68532 0.20789 0.0
C827 C 0.89885 0.75901 0.20112 0.0
C828 C 0.91513 0.76224 0.23993 0.0
H829 H 0.87376 0.71996 0.15604 0.0
H830 H 0.8928 0.7859 0.18369 0.0
S831 S 0.94109 0.67751 0.30866 0.0
N832 N 0.92069 0.65564 0.26898 0.0
N833 N 0.94025 0.72618 0.2988 0.0
C834 C 0.92284 0.72648 0.26168 0.0
C835 C 0.91225 0.68821 0.24561 0.0
C836 C 0.28096 0.1624 0.24478 0.0
C837 C 0.30036 0.13469 0.27047 0.0
C838 C 0.29433 0.16944 0.20574 0.0
C839 C 0.32938 0.15144 0.19119 0.0
H840 H 0.25362 0.17731 0.25398 0.0
H841 H 0.27691 0.18916 0.1867 0.0
S842 S 0.39571 0.08131 0.24736 0.0
N843 N 0.35863 0.09109 0.27907 0.0
N844 N 0.38619 0.1078 0.20633 0.0
C845 C 0.35145 0.12632 0.21731 0.0
C846 C 0.3366 0.11742 0.25689 0.0
C847 C 0.20142 0.89898 0.75964 0.0
C848 C 0.24044 0.91471 0.7631 0.0
C849 C 0.18592 0.88795 0.72172 0.0
C850 C 0.20889 0.89271 0.68621 0.0
H851 H 0.18362 0.89344 0.78636 0.0
H852 H 0.15635 0.8742 0.72047 0.0
S853 S 0.31048 0.93867 0.67892 0.0
N854 N 0.3001 0.93853 0.7274 0.0
N855 N 0.27072 0.9186 0.65691 0.0
C856 C 0.24687 0.91089 0.68927 0.0
C857 C 0.26269 0.92168 0.72752 0.0
C858 C 0.76563 0.39647 0.8036 0.0
C859 C 0.7907 0.40378 0.76999 0.0
C860 C 0.78122 0.38755 0.8414 0.0
C861 C 0.82277 0.38485 0.84779 0.0
H862 H 0.73314 0.39808 0.80124 0.0
H863 H 0.76018 0.38203 0.86567 0.0
S864 S 0.90211 0.40099 0.77048 0.0
N865 N 0.85947 0.40813 0.74586 0.0
N866 N 0.88938 0.39015 0.81729 0.0
C867 C 0.8486 0.39196 0.81469 0.0
C868 C 0.83247 0.40173 0.77582 0.0
C869 C 0.7689 0.6333 0.30626 0.0
C870 C 0.74458 0.62946 0.27152 0.0
C871 C 0.75269 0.64263 0.34365 0.0
C872 C 0.71132 0.64903 0.3484 0.0
H873 H 0.80116 0.62864 0.30502 0.0
H874 H 0.77317 0.64548 0.36892 0.0
S875 S 0.63395 0.64214 0.26753 0.0
N876 N 0.67676 0.63184 0.24443 0.0
N877 N 0.64571 0.65044 0.31518 0.0
C878 C 0.68622 0.64494 0.31416 0.0
C879 C 0.70296 0.63486 0.27572 0.0
C880 C 0.24595 0.27952 0.16203 0.0
C881 C 0.27176 0.29937 0.13476 0.0
C882 C 0.20668 0.29245 0.16869 0.0
C883 C 0.19201 0.32748 0.15074 0.0
H884 H 0.25529 0.25219 0.1769 0.0
H885 H 0.18759 0.27477 0.18815 0.0
S886 S 0.2483 0.39481 0.0817 0.0
N887 N 0.28028 0.35797 0.09163 0.0
N888 N 0.20705 0.38472 0.10761 0.0
C889 C 0.21818 0.34995 0.12603 0.0
C890 C 0.25801 0.33556 0.11753 0.0
C891 C 0.75407 0.20353 0.92154 0.0
C892 C 0.77246 0.23494 0.89985 0.0
C893 C 0.71502 0.19034 0.91157 0.0
C894 C 0.69307 0.20899 0.88049 0.0
H895 H 0.76866 0.19107 0.9479 0.0
H896 H 0.70121 0.1668 0.92943 0.0
S897 S 0.73068 0.28732 0.81045 0.0
N898 N 0.76829 0.2796 0.842 0.0
N899 N 0.69449 0.25658 0.82509 0.0
C900 C 0.71226 0.23833 0.85704 0.0
C901 C 0.7522 0.25065 0.86614 0.0
C902 C 0.77507 0.83278 0.3914 0.0
C903 C 0.77191 0.79667 0.41306 0.0
C904 C 0.81307 0.84756 0.37962 0.0
C905 C 0.84894 0.82664 0.38919 0.0
H906 H 0.74814 0.84853 0.38188 0.0
H907 H 0.81422 0.87463 0.36146 0.0
S908 S 0.85682 0.73384 0.45065 0.0
N909 N 0.8081 0.74262 0.44714 0.0
N910 N 0.87869 0.77056 0.42541 0.0
C911 C 0.84605 0.79192 0.41292 0.0
C912 C 0.80776 0.77694 0.42477 0.0
C913 C 0.33151 0.74811 0.66674 0.0
C914 C 0.34471 0.71141 0.65082 0.0
C915 C 0.29256 0.76188 0.65966 0.0
C916 C 0.26563 0.74059 0.63441 0.0
H917 H 0.35148 0.76647 0.68488 0.0
H918 H 0.28436 0.79081 0.67247 0.0
S919 S 0.28557 0.64148 0.5865 0.0
N920 N 0.32752 0.65211 0.61116 0.0
N921 N 0.2547 0.67961 0.59498 0.0
C922 C 0.27803 0.703 0.61921 0.0
C923 C 0.31758 0.68818 0.62783 0.0
C924 C 0.88201 0.8129 0.68846 0.0
C925 C 0.89005 0.84865 0.71045 0.0
C926 C 0.89294 0.77465 0.70339 0.0
C927 C 0.9121 0.77099 0.74084 0.0
H928 H 0.86579 0.81429 0.66018 0.0
H929 H 0.88473 0.74789 0.68651 0.0
S930 S 0.94496 0.85539 0.80746 0.0
N931 N 0.92218 0.87771 0.76944 0.0
N932 N 0.94224 0.80672 0.79767 0.0
C933 C 0.92221 0.80673 0.76192 0.0
C934 C 0.91129 0.84529 0.74673 0.0
C935 C 0.67095 0.20429 0.24983 0.0
C936 C 0.65498 0.19047 0.21337 0.0
C937 C 0.66282 0.24311 0.2637 0.0
C938 C 0.63674 0.26931 0.24266 0.0
H939 H 0.69 0.18493 0.26788 0.0
H940 H 0.67554 0.2518 0.29251 0.0
S941 S 0.58845 0.24764 0.14423 0.0
N942 N 0.61431 0.20639 0.15458 0.0
N943 N 0.59645 0.2789 0.18222 0.0
C944 C 0.62156 0.25633 0.20528 0.0
C945 C 0.63108 0.21693 0.19041 0.0
C946 C 0.42334 0.72955 0.2778 0.0
C947 C 0.41165 0.76569 0.2969 0.0
C948 C 0.41253 0.69202 0.29314 0.0
C949 C 0.38968 0.689 0.32838 0.0
H950 H 0.44031 0.73027 0.24997 0.0
H951 H 0.42153 0.66522 0.27677 0.0
S952 S 0.35213 0.77466 0.39035 0.0
N953 N 0.37693 0.79644 0.35317 0.0
N954 N 0.35623 0.72557 0.38276 0.0
C955 C 0.37886 0.72494 0.34872 0.0
C956 C 0.39 0.7634 0.33283 0.0
C957 C 0.10319 0.29038 0.82348 0.0
C958 C 0.13174 0.26397 0.80667 0.0
C959 C 0.11385 0.32984 0.83478 0.0
C960 C 0.15349 0.34373 0.82991 0.0
H961 H 0.07199 0.28134 0.82548 0.0
H962 H 0.09085 0.34985 0.84642 0.0
S963 S 0.24109 0.28331 0.79642 0.0
N964 N 0.20218 0.25261 0.79111 0.0
N965 N 0.22265 0.32607 0.81412 0.0
C966 C 0.18294 0.31647 0.8167 0.0
C967 C 0.172 0.27667 0.80464 0.0
C968 C 0.74577 0.8687 0.83155 0.0
C969 C 0.7096 0.88506 0.84544 0.0
C970 C 0.75977 0.87692 0.79292 0.0
C971 C 0.73928 0.90371 0.76697 0.0
H972 H 0.76355 0.84932 0.85075 0.0
H973 H 0.78829 0.86367 0.78422 0.0
S974 S 0.64159 0.95316 0.78878 0.0
N975 N 0.65148 0.92673 0.82974 0.0
N976 N 0.67947 0.94496 0.75762 0.0
C977 C 0.70215 0.91933 0.77998 0.0
C978 C 0.68706 0.90959 0.81919 0.0
C979 C 0.83126 0.10665 0.28531 0.0
C980 C 0.80542 0.13226 0.26354 0.0
C981 C 0.84441 0.1171 0.32431 0.0
C982 C 0.83174 0.15322 0.34261 0.0
H983 H 0.83912 0.07733 0.27332 0.0
H984 H 0.86316 0.09614 0.34083 0.0
S985 S 0.77154 0.23407 0.29468 0.0
N986 N 0.77319 0.19782 0.26058 0.0
N987 N 0.79748 0.21719 0.33353 0.0
C988 C 0.80885 0.18036 0.31975 0.0
C989 C 0.79591 0.17 0.2802 0.0
C990 C 0.19213 0.63337 0.21656 0.0
C991 C 0.21495 0.65794 0.19055 0.0
C992 C 0.20597 0.62413 0.25556 0.0
C993 C 0.24229 0.6405 0.27011 0.0
H994 H 0.16437 0.61975 0.20605 0.0
H995 H 0.18941 0.60238 0.27333 0.0
S996 S 0.30942 0.71202 0.21585 0.0
N997 N 0.27364 0.70093 0.1832 0.0
N998 N 0.29753 0.68735 0.25718 0.0
C999 C 0.26308 0.66831 0.24548 0.0
C1000 C 0.25014 0.67588 0.20544 0.0
C1001 C 0.33427 0.39627 0.75948 0.0
C1002 C 0.29643 0.41454 0.76312 0.0
C1003 C 0.34965 0.38622 0.7213 0.0
C1004 C 0.32771 0.39434 0.68567 0.0
H1005 H 0.35113 0.38809 0.78617 0.0
H1006 H 0.37821 0.37054 0.71984 0.0
S1007 S 0.22966 0.44717 0.67916 0.0
N1008 N 0.23919 0.44402 0.72776 0.0
N1009 N 0.26828 0.42556 0.65674 0.0
C1010 C 0.291 0.41476 0.68906 0.0
C1011 C 0.27535 0.42476 0.72759 0.0
C1012 C 0.82853 0.74077 0.86414 0.0
C1013 C 0.84423 0.70713 0.88409 0.0
C1014 C 0.78958 0.75438 0.87201 0.0
C1015 C 0.76505 0.73609 0.90146 0.0
H1016 H 0.84652 0.75686 0.84222 0.0
H1017 H 0.77939 0.78098 0.85622 0.0
S1018 S 0.79082 0.64376 0.95883 0.0
N1019 N 0.83109 0.65254 0.93099 0.0
N1020 N 0.75832 0.67986 0.94792 0.0
C1021 C 0.77953 0.70084 0.92001 0.0
C1022 C 0.8191 0.68612 0.91097 0.0
C1023 C 0.29384 0.81762 0.09958 0.0
C1024 C 0.26477 0.80706 0.12847 0.0
C1025 C 0.33309 0.8285 0.11099 0.0
C1026 C 0.34409 0.82973 0.15174 0.0
H1027 H 0.28691 0.81495 0.06793 0.0
H1028 H 0.35507 0.83525 0.08789 0.0
S1029 S 0.27728 0.81181 0.23914 0.0
N1030 N 0.2486 0.80234 0.1995 0.0
N1031 N 0.32175 0.82504 0.22116 0.0
C1032 C 0.3145 0.8224 0.18097 0.0
C1033 C 0.2749 0.81047 0.16931 0.0
C1034 C 0.25716 0.20775 0.62718 0.0
C1035 C 0.2695 0.24618 0.64026 0.0
C1036 C 0.21849 0.19313 0.6364 0.0
C1037 C 0.19062 0.21709 0.65768 0.0
H1038 H 0.27654 0.18979 0.60806 0.0
H1039 H 0.20975 0.16363 0.62536 0.0
S1040 S 0.20922 0.3181 0.70201 0.0
N1041 N 0.25205 0.30559 0.68038 0.0
N1042 N 0.17879 0.27966 0.69377 0.0
C1043 C 0.20313 0.2547 0.67224 0.0
C1044 C 0.2428 0.26871 0.66474 0.0
C1045 C 0.72241 0.34962 0.38896 0.0
C1046 C 0.68724 0.3259 0.39332 0.0
C1047 C 0.76068 0.33437 0.39894 0.0
C1048 C 0.76488 0.29484 0.41316 0.0
H1049 H 0.72058 0.37969 0.37643 0.0
H1050 H 0.78708 0.35287 0.39389 0.0
S1051 S 0.6819 0.22248 0.4353 0.0
N1052 N 0.65913 0.26258 0.417 0.0
N1053 N 0.73023 0.23371 0.43502 0.0
C1054 C 0.72967 0.2717 0.41957 0.0
C1055 C 0.69107 0.28727 0.40985 0.0
C1056 C 0.9957 0.30071 0.09919 0.0
C1057 C 0.02058 0.33529 0.10153 0.0
C1058 C 0.97007 0.29386 0.06608 0.0
C1059 C 0.968 0.32151 0.03417 0.0
H1060 H 0.99551 0.27892 0.12341 0.0
H1061 H 0.95062 0.26761 0.06629 0.0
S1062 S 0.0285 0.41533 0.02387 0.0
N1063 N 0.04258 0.39638 0.06755 0.0
N1064 N 0.99474 0.38357 1.00572 0.0
C1065 C 0.99358 0.35548 0.03548 0.0
C1066 C 0.01972 0.36236 0.06899 0.0
C1067 C 0.56555 0.74327 0.56534 0.0
C1068 C 0.56465 0.71806 0.53135 0.0
C1069 C 0.54092 0.73542 0.59895 0.0
C1070 C 0.51412 0.70217 0.5999 0.0
H1071 H 0.58679 0.76806 0.56681 0.0
H1072 H 0.54361 0.75526 0.62474 0.0
S1073 S 0.4977 0.62936 0.51637 0.0
N1074 N 0.5328 0.66018 0.49937 0.0
N1075 N 0.48665 0.64563 0.56202 0.0
C1076 C 0.5118 0.67785 0.56522 0.0
C1077 C 0.53695 0.68574 0.53117 0.0
C1078 C 0.4732 0.24259 0.97123 0.0
C1079 C 0.47108 0.21488 1.00305 0.0
C1080 C 0.49837 0.23555 0.93784 0.0
C1081 C 0.52278 0.20068 0.93499 0.0
H1082 H 0.45404 0.26901 0.97125 0.0
H1083 H 0.49809 0.25746 0.91372 0.0
S1084 S 0.53069 0.12037 1.01232 0.0
N1085 N 0.49754 0.15239 0.03093 0.0
N1086 N 0.54447 0.13934 0.96856 0.0
C1087 C 0.52202 0.17358 0.96748 0.0
C1088 C 0.49634 0.18064 1.00132 0.0
C1089 C 0.06566 0.79388 0.46962 0.0
C1090 C 0.06412 0.819 0.50363 0.0
C1091 C 0.04211 0.80213 0.43536 0.0
C1092 C 1.01588 0.83573 0.43375 0.0
H1093 H 0.0866 0.76886 0.46868 0.0
H1094 H 0.04519 0.78229 0.40962 0.0
S1095 S 0.99825 0.90868 0.51681 0.0
N1096 N 0.03224 0.87723 0.53484 0.0
N1097 N 0.98828 0.89265 0.4708 0.0
C1098 C 1.01292 0.86004 0.46835 0.0
C1099 C 0.03689 0.85167 0.50312 0.0
C1100 C 0.10007 0.99522 0.2994 0.0
C1101 C 0.10168 0.02116 0.33326 0.0
C1102 C 0.06649 0.97031 0.29179 0.0
C1103 C 0.03325 0.97009 0.3179 0.0
H1104 H 0.12531 0.99349 0.27887 0.0
H1105 H 0.06739 0.94979 0.26639 0.0
S1106 S 0.02033 0.03438 0.40879 0.0
N1107 N 0.06534 0.04647 0.39161 0.0
N1108 N 1.0027 1.0 0.3774 0.0
C1109 C 0.03374 0.99695 0.3509 0.0
C1110 C 0.06775 0.02232 0.35857 0.0
C1111 C 0.47171 0.06455 0.7933 0.0
C1112 C 0.50337 0.06682 0.82125 0.0
C1113 C 0.43808 0.03966 0.80027 0.0
C1114 C 0.4349 1.01575 0.83534 0.0
H1115 H 0.47206 0.08336 0.76667 0.0
H1116 H 0.41409 0.03973 0.77817 0.0
S1117 S 0.51169 1.00835 0.91637 0.0
N1118 N 0.53077 0.041 0.88417 0.0
N1119 N 0.46792 0.9946 0.89719 0.0
C1120 C 0.46723 1.01664 0.86273 0.0
C1121 C 0.50131 0.04202 0.85571 0.0
C1122 C 0.57201 0.52325 0.66907 0.0
C1123 C 0.60217 0.51839 0.69831 0.0
C1124 C 0.53863 0.54823 0.67605 0.0
C1125 C 0.53355 0.56924 0.71278 0.0
H1126 H 0.57461 0.50842 0.6401 0.0
H1127 H 0.51687 0.55156 0.65197 0.0
S1128 S 0.60227 0.56463 0.80062 0.0
N1129 N 0.62355 0.53518 0.76666 0.0
N1130 N 0.56078 0.58191 0.77942 0.0
C1131 C 0.56266 0.56353 0.74287 0.0
C1132 C 0.59694 0.53831 0.73571 0.0
C1133 C 0.96959 0.46832 0.23807 0.0
C1134 C 1.00295 0.46836 0.21221 0.0
C1135 C 0.93553 0.49209 0.2297 0.0
C1136 C 0.93351 0.51713 0.19527 0.0
H1137 H 0.96903 0.44849 0.26394 0.0
H1138 H 0.91033 0.49029 0.25027 0.0
S1139 S 1.01476 0.53037 0.11982 0.0
N1140 N 0.03307 0.49733 0.15208 0.0
N1141 N 0.96938 0.54177 0.1365 0.0
C1142 C 0.96742 0.51846 0.17005 0.0
C1143 C 1.00197 0.49421 0.17849 0.0
C1144 C 0.30152 0.09988 0.99601 0.0
C1145 C 0.33631 0.10208 0.02057 0.0
C1146 C 0.29395 0.06645 0.9709 0.0
C1147 C 0.32103 0.03401 0.96909 0.0
H1148 H 0.28016 0.12451 0.99557 0.0
H1149 H 0.26771 0.06686 0.95151 0.0
S1150 S 0.41488 0.02294 0.02931 0.0
N1151 N 0.39679 0.06726 0.04281 0.0
N1152 N 0.38265 1.0048 0.99604 0.0
C1153 C 0.35508 0.03508 0.99458 0.0
C1154 C 0.36271 0.06895 0.02014 0.0
C1155 C 0.80034 0.4339 0.04502 0.0
C1156 C 0.83149 0.43409 1.01599 0.0
C1157 C 0.79182 0.46805 0.06877 0.0
C1158 C 0.8142 0.5037 0.06452 0.0
H1159 H 0.78293 0.40679 0.05029 0.0
H1160 H 0.76912 0.46577 0.09205 0.0
S1161 S 0.89578 0.52211 0.99041 0.0
N1162 N 0.88245 0.47479 0.98254 0.0
N1163 N 0.86653 0.53849 0.02707 0.0
C1164 C 0.84402 0.50502 0.03441 0.0
C1165 C 0.85268 0.47041 1.01024 0.0
C1166 C 0.67683 0.56998 0.51644 0.0
C1167 C 0.70229 0.60383 0.51729 0.0
C1168 C 0.68463 0.53608 0.54046 0.0
C1169 C 0.71846 0.53415 0.56624 0.0
H1170 H 0.65004 0.56995 0.49781 0.0
H1171 H 0.66321 0.51142 0.53959 0.0
S1172 S 0.79614 0.61338 0.57843 0.0
N1173 N 0.76432 0.63224 0.54522 0.0
N1174 N 0.77843 0.56837 0.59004 0.0
C1175 C 0.74511 0.56692 0.5663 0.0
C1176 C 0.73711 0.60175 0.54206 0.0
C1177 C 0.23093 0.93542 0.4929 0.0
C1178 C 0.19652 0.93374 0.51799 0.0
C1179 C 0.23919 0.96915 0.46858 0.0
C1180 C 0.21322 1.00249 0.46807 0.0
H1181 H 0.25155 0.91018 0.49149 0.0
H1182 H 0.26508 0.96831 0.44879 0.0
S1183 S 0.12079 1.01513 0.52993 0.0
N1184 N 0.13764 0.96995 0.54205 0.0
N1185 N 0.15298 0.03297 0.49659 0.0
C1186 C 0.17951 1.00187 0.49395 0.0
C1187 C 0.1712 0.96767 0.51878 0.0
C1188 C 0.0225 0.67063 0.96287 0.0
C1189 C 1.01646 0.70072 0.93374 0.0
C1190 C 0.04873 0.67672 0.99556 0.0
C1191 C 0.06971 0.7134 1.00099 0.0
H1192 H 1.00766 0.64166 0.95991 0.0
H1193 H 0.05291 0.65214 1.01657 0.0
S1194 S 0.06324 0.80283 0.93449 0.0
N1195 N 0.03286 0.76945 0.91343 0.0
N1196 N 0.08171 0.78067 0.97492 0.0
C1197 C 0.06307 0.74422 0.97282 0.0
C1198 C 0.03668 0.73792 0.93922 0.0
C1199 C 0.48954 0.30473 0.43448 0.0
C1200 C 0.51938 0.33524 0.43576 0.0
C1201 C 0.46574 0.29552 0.46825 0.0
C1202 C 0.47078 0.31652 0.50459 0.0
H1203 H 0.48368 0.28838 0.40683 0.0
H1204 H 0.44182 0.27347 0.46519 0.0
S1205 S 0.54704 0.39575 0.52584 0.0
N1206 N 0.5544 0.38392 0.47813 0.0
N1207 N 0.50963 0.3668 0.54115 0.0
C1208 C 0.50161 0.34565 0.50695 0.0
C1209 C 0.52586 0.355 0.47272 0.0
C1210 C 0.56333 0.79392 0.06388 0.0
C1211 C 0.56507 0.82137 0.03177 0.0
C1212 C 0.53852 0.80119 0.09754 0.0
C1213 C 0.51408 0.83604 0.10044 0.0
H1214 H 0.58252 0.76753 0.06386 0.0
H1215 H 0.53909 0.77945 0.12181 0.0
S1216 S 0.50527 0.91578 0.02259 0.0
N1217 N 0.53824 0.88365 1.00383 0.0
N1218 N 0.49199 0.8971 0.06663 0.0
C1219 C 0.51448 0.86289 0.06771 0.0
C1220 C 0.5398 0.85561 0.0336 0.0
C1221 C 0.99351 0.18386 0.53897 0.0
C1222 C 0.96913 0.21848 0.53505 0.0
C1223 C 1.0186 0.17803 0.57254 0.0
C1224 C 0.02013 0.20626 0.60417 0.0
H1225 H 0.99282 0.16057 0.51606 0.0
H1226 H 0.03618 0.15058 0.57407 0.0
S1227 S 0.96282 0.30264 0.60836 0.0
N1228 N 0.94886 0.28191 0.56532 0.0
N1229 N 0.99553 0.27114 0.6286 0.0
C1230 C 0.99644 0.24151 0.60029 0.0
C1231 C 0.97119 0.24761 0.56573 0.0
C1232 C 0.93907 0.04036 0.73307 0.0
C1233 C 0.93485 1.01786 0.69709 0.0
C1234 C 0.97272 0.06519 0.74011 0.0
C1235 C 1.00337 0.06897 0.71128 0.0
H1236 H 0.91596 0.03918 0.75599 0.0
H1237 H 0.97392 0.08271 0.76765 0.0
S1238 S 1.00841 1.0149 0.61315 0.0
N1239 N 0.96553 0.99981 0.63318 0.0
N1240 N 0.02847 0.04632 0.64616 0.0
C1241 C 1.00016 0.04576 0.67569 0.0
C1242 C 0.96605 0.0203 0.66867 0.0
C1243 C 0.59925 0.99593 0.23694 0.0
C1244 C 0.6023 0.02071 0.20246 0.0
C1245 C 0.56559 0.97089 0.24349 0.0
C1246 C 0.53374 0.96928 0.21564 0.0
H1247 H 0.62336 0.99535 0.25891 0.0
H1248 H 0.56532 0.95146 0.26967 0.0
S1249 S 0.52526 0.02972 0.12179 0.0
N1250 N 0.56907 0.0431 0.14116 0.0
N1251 N 0.50626 0.99641 0.15335 0.0
C1252 C 0.53578 0.99481 0.18173 0.0
C1253 C 0.56985 0.02036 0.17517 0.0
C1254 C 0.49972 0.49344 0.3555 0.0
C1255 C 0.50257 0.46867 0.32098 0.0
C1256 C 0.46601 0.51795 0.3626 0.0
C1257 C 0.43332 0.5185 0.33572 0.0
H1258 H 0.52351 0.49331 0.37785 0.0
H1259 H 0.46525 0.53586 0.3899 0.0
S1260 S 0.42642 0.46011 0.23989 0.0
N1261 N 0.47041 0.44715 0.25903 0.0
N1262 N 0.4069 0.49281 0.27191 0.0
C1263 C 0.43628 0.49459 0.3004 0.0
C1264 C 0.47092 0.46991 0.29309 0.0
C1265 C 0.09985 0.5402 0.80236 0.0
C1266 C 0.10158 0.51419 0.83611 0.0
C1267 C 0.06622 0.56502 0.7948 0.0
C1268 C 0.03293 0.56516 0.82083 0.0
H1269 H 0.12506 0.54208 0.78181 0.0
H1270 H 0.06712 0.58552 0.76947 0.0
S1271 S 0.02008 0.50058 0.91132 0.0
N1272 N 0.06514 0.48865 0.89416 0.0
N1273 N 1.00247 0.53507 0.88019 0.0
C1274 C 0.03354 0.53829 0.85377 0.0
C1275 C 0.06761 0.51293 0.86135 0.0
C1276 C 0.73393 0.93797 0.03866 0.0
C1277 C 0.698 0.93399 1.01609 0.0
C1278 C 0.74086 0.97137 0.06399 0.0
C1279 C 0.71197 1.00201 0.06817 0.0
H1280 H 0.7569 0.91486 0.03714 0.0
H1281 H 0.76839 0.97241 0.08149 0.0
S1282 S 0.61363 1.00734 1.01453 0.0
N1283 N 0.63387 0.96473 0.99878 0.0
N1284 N 0.64666 0.02714 0.04605 0.0
C1285 C 0.67635 0.99894 0.04501 0.0
C1286 C 0.66944 0.96511 0.01911 0.0
C1287 C 0.1816 0.54121 0.9887 0.0
C1288 C 0.21851 0.53453 0.96862 0.0
C1289 C 0.17572 0.57454 1.01413 0.0
C1290 C 0.20628 0.60319 0.02043 0.0
H1291 H 0.15649 0.5208 0.98426 0.0
H1292 H 0.14649 0.57844 0.02802 0.0
S1293 S 0.30973 0.59848 0.97786 0.0
N1294 N 0.28695 0.55839 0.95895 0.0
N1295 N 0.27602 0.62123 1.00646 0.0
C1296 C 0.24385 0.59631 1.00165 0.0
C1297 C 0.24996 0.56198 0.97597 0.0
C1298 C 0.30637 0.43355 0.4881 0.0
C1299 C 0.33766 0.4346 0.51711 0.0
C1300 C 0.29674 0.46741 0.46454 0.0
C1301 C 0.3181 0.50365 0.46895 0.0
H1302 H 0.28959 0.40602 0.48279 0.0
H1303 H 0.27396 0.46452 0.44134 0.0
S1304 S 0.3997 0.52428 0.54278 0.0
N1305 N 0.38773 0.4766 0.55051 0.0
N1306 N 0.36978 0.53985 0.50628 0.0
C1307 C 0.34816 0.50577 0.49889 0.0
C1308 C 0.35795 0.47141 0.52288 0.0
C1309 C 0.80274 0.09923 0.53859 0.0
C1310 C 0.83722 0.10107 0.51358 0.0
C1311 C 0.795 0.06587 0.56365 0.0
C1312 C 0.82152 0.03295 0.56504 0.0
H1313 H 0.78172 0.12415 0.53948 0.0
H1314 H 0.76902 0.06671 0.58332 0.0
S1315 S 0.91429 0.02066 0.50349 0.0
N1316 N 0.89671 0.06529 0.49043 0.0
N1317 N 0.88234 1.00298 0.53714 0.0
C1318 C 0.85527 0.03366 0.53914 0.0
C1319 C 0.86307 0.06751 0.51359 0.0
loop_
_geom_bond_atom_site_label_1
_geom_bond_atom_site_label_2
_geom_bond_distance
_geom_bond_site_symmetry_2
_ccdc_geom_bond_type
Fe0 O2 1.918 . S
Fe0 O5 1.997 . S
Fe0 O6 2.002 . S
Fe0 O11 1.976 . S
Fe0 O14 1.996 . S
Fe1 O2 1.918 . S
Fe1 O9 1.997 . S
Fe1 O12 1.996 . S
Fe1 O16 1.976 . S
Fe1 O19 2.001 1_455 S
O2 Fe0 1.918 . S
O2 Fe1 1.918 . S
O2 Fe3 1.918 . S
Fe3 O2 1.918 . S
Fe3 O4 2.002 . S
Fe3 O13 1.976 . S
Fe3 O17 1.996 . S
Fe3 O20 1.997 1_455 S
O4 Fe3 2.002 . S
O4 C21 1.295 1_455 S
O5 Fe0 1.997 . S
O5 C21 1.235 1_455 S
O6 Fe0 2.002 . S
O6 C7 1.295 . S
C7 O6 1.295 . S
C7 O9 1.235 . S
C8 O13 1.287 . S
C8 O14 1.255 . S
O9 Fe1 1.997 . S
O9 C7 1.235 . S
C10 O16 1.287 . S
C10 O17 1.255 . S
O11 Fe0 1.976 . S
O11 C18 1.287 . S
O12 Fe1 1.996 . S
O12 C18 1.255 . S
O13 Fe3 1.976 . S
O13 C8 1.287 . S
O14 Fe0 1.996 . S
O14 C8 1.255 . S
C15 O19 1.296 . S
C15 O20 1.235 . S
O16 Fe1 1.976 . S
O16 C10 1.287 . S
O17 Fe3 1.996 . S
O17 C10 1.255 . S
C18 O11 1.287 . S
C18 O12 1.255 . S
O19 Fe1 2.001 1_655 S
O19 C15 1.296 . S
O20 Fe3 1.997 1_655 S
O20 C15 1.235 . S
C21 O4 1.295 1_655 S
C21 O5 1.235 1_655 S
Fe22 O24 1.918 . S
Fe22 O27 1.997 . S
Fe22 O28 2.002 . S
Fe22 O33 1.976 . S
Fe22 O36 1.996 . S
Fe23 O24 1.918 . S
Fe23 O31 1.997 . S
Fe23 O34 1.996 . S
Fe23 O38 1.976 . S
Fe23 O41 2.002 . S
O24 Fe22 1.918 . S
O24 Fe23 1.918 . S
O24 Fe25 1.918 . S
Fe25 O24 1.918 . S
Fe25 O26 2.002 . S
Fe25 O35 1.976 . S
Fe25 O39 1.996 . S
Fe25 O42 1.997 . S
O26 Fe25 2.002 . S
O26 C43 1.295 . S
O27 Fe22 1.997 . S
O27 C43 1.235 . S
O28 Fe22 2.002 . S
O28 C29 1.295 . S
C29 O28 1.295 . S
C29 O31 1.235 . S
C30 O35 1.287 . S
C30 O36 1.255 . S
O31 Fe23 1.997 . S
O31 C29 1.235 . S
C32 O38 1.287 . S
C32 O39 1.255 . S
O33 Fe22 1.976 . S
O33 C40 1.287 . S
O34 Fe23 1.996 . S
O34 C40 1.255 . S
O35 Fe25 1.976 . S
O35 C30 1.287 . S
O36 Fe22 1.996 . S
O36 C30 1.255 . S
C37 O41 1.295 . S
C37 O42 1.235 . S
O38 Fe23 1.976 . S
O38 C32 1.287 . S
O39 Fe25 1.996 . S
O39 C32 1.255 . S
C40 O33 1.287 . S
C40 O34 1.255 . S
O41 Fe23 2.002 . S
O41 C37 1.295 . S
O42 Fe25 1.997 . S
O42 C37 1.235 . S
C43 O26 1.295 . S
C43 O27 1.235 . S
Fe44 O46 1.918 . S
Fe44 O49 1.997 . S
Fe44 O50 2.002 . S
Fe44 O55 1.976 . S
Fe44 O58 1.996 . S
Fe45 O46 1.918 . S
Fe45 O53 1.997 . S
Fe45 O56 1.996 . S
Fe45 O60 1.976 . S
Fe45 O63 2.002 . S
O46 Fe44 1.918 . S
O46 Fe45 1.918 . S
O46 Fe47 1.918 . S
Fe47 O46 1.918 . S
Fe47 O48 2.002 . S
Fe47 O57 1.976 . S
Fe47 O61 1.996 . S
Fe47 O64 1.997 . S
O48 Fe47 2.002 . S
O48 C65 1.295 . S
O49 Fe44 1.997 . S
O49 C65 1.235 . S
O50 Fe44 2.002 . S
O50 C51 1.295 . S
C51 O50 1.295 . S
C51 O53 1.235 . S
C52 O57 1.287 . S
C52 O58 1.255 . S
O53 Fe45 1.997 . S
O53 C51 1.235 . S
C54 O60 1.287 . S
C54 O61 1.255 . S
O55 Fe44 1.976 . S
O55 C62 1.287 . S
O56 Fe45 1.996 . S
O56 C62 1.255 . S
O57 Fe47 1.976 . S
O57 C52 1.287 . S
O58 Fe44 1.996 . S
O58 C52 1.255 . S
C59 O63 1.295 . S
C59 O64 1.235 . S
O60 Fe45 1.976 . S
O60 C54 1.287 . S
O61 Fe47 1.996 . S
O61 C54 1.255 . S
C62 O55 1.287 . S
C62 O56 1.255 . S
O63 Fe45 2.002 . S
O63 C59 1.295 . S
O64 Fe47 1.997 . S
O64 C59 1.235 . S
C65 O48 1.295 . S
C65 O49 1.235 . S
Fe66 O68 1.918 . S
Fe66 O71 1.997 . S
Fe66 O72 1.998 1_655 S
Fe66 O77 1.976 . S
Fe66 O80 1.996 . S
Fe67 O68 1.918 . S
Fe67 O75 1.997 1_655 S
Fe67 O78 1.996 . S
Fe67 O82 1.976 . S
Fe67 O85 2.002 . S
O68 Fe66 1.918 . S
O68 Fe67 1.918 . S
O68 Fe69 1.918 . S
Fe69 O68 1.918 . S
Fe69 O70 2.002 . S
Fe69 O79 1.976 . S
Fe69 O83 1.996 . S
Fe69 O86 1.997 . S
O70 Fe69 2.002 . S
O70 C87 1.295 . S
O71 Fe66 1.997 . S
O71 C87 1.235 . S
O72 Fe66 1.998 1_455 S
O72 C73 1.297 . S
C73 O72 1.297 . S
C73 O75 1.235 . S
C74 O79 1.287 . S
C74 O80 1.255 . S
O75 Fe67 1.997 1_455 S
O75 C73 1.235 . S
C76 O82 1.287 . S
C76 O83 1.255 . S
O77 Fe66 1.976 . S
O77 C84 1.287 . S
O78 Fe67 1.996 . S
O78 C84 1.255 . S
O79 Fe69 1.976 . S
O79 C74 1.287 . S
O80 Fe66 1.996 . S
O80 C74 1.255 . S
C81 O85 1.295 1_455 S
C81 O86 1.235 1_455 S
O82 Fe67 1.976 . S
O82 C76 1.287 . S
O83 Fe69 1.996 . S
O83 C76 1.255 . S
C84 O77 1.287 . S
C84 O78 1.255 . S
O85 Fe67 2.002 . S
O85 C81 1.295 1_655 S
O86 Fe69 1.997 . S
O86 C81 1.235 1_655 S
C87 O70 1.295 . S
C87 O71 1.235 . S
Fe88 O90 1.918 . S
Fe88 O93 1.997 1_545 S
Fe88 O94 2.002 . S
Fe88 O99 1.976 . S
Fe88 O102 1.996 . S
Fe89 O90 1.918 . S
Fe89 O97 1.997 . S
Fe89 O100 1.996 . S
Fe89 O104 1.976 . S
Fe89 O107 2.002 . S
O90 Fe88 1.918 . S
O90 Fe89 1.918 . S
O90 Fe91 1.918 . S
Fe91 O90 1.918 . S
Fe91 O92 2.002 1_545 S
Fe91 O101 1.976 . S
Fe91 O105 1.996 . S
Fe91 O108 1.997 . S
O92 Fe91 2.002 1_565 S
O92 C109 1.295 . S
O93 Fe88 1.997 1_565 S
O93 C109 1.235 . S
O94 Fe88 2.002 . S
O94 C95 1.295 1_545 S
C95 O94 1.295 1_565 S
C95 O97 1.235 1_565 S
C96 O101 1.287 . S
C96 O102 1.255 . S
O97 Fe89 1.997 . S
O97 C95 1.235 1_545 S
C98 O104 1.287 . S
C98 O105 1.255 . S
O99 Fe88 1.976 . S
O99 C106 1.287 . S
O100 Fe89 1.996 . S
O100 C106 1.255 . S
O101 Fe91 1.976 . S
O101 C96 1.287 . S
O102 Fe88 1.996 . S
O102 C96 1.255 . S
C103 O107 1.295 . S
C103 O108 1.235 . S
O104 Fe89 1.976 . S
O104 C98 1.287 . S
O105 Fe91 1.996 . S
O105 C98 1.255 . S
C106 O99 1.287 . S
C106 O100 1.255 . S
O107 Fe89 2.002 . S
O107 C103 1.295 . S
O108 Fe91 1.997 . S
O108 C103 1.235 . S
C109 O92 1.295 . S
C109 O93 1.235 . S
Fe110 O112 1.918 . S
Fe110 O115 1.997 . S
Fe110 O116 2.002 . S
Fe110 O121 1.976 . S
Fe110 O124 1.996 . S
Fe111 O112 1.918 . S
Fe111 O119 1.998 1_565 S
Fe111 O122 1.996 . S
Fe111 O126 1.976 . S
Fe111 O129 2.002 . S
O112 Fe110 1.918 . S
O112 Fe111 1.918 . S
O112 Fe113 1.918 . S
Fe113 O112 1.918 . S
Fe113 O114 2.002 . S
Fe113 O123 1.976 . S
Fe113 O127 1.996 . S
Fe113 O130 1.997 . S
O114 Fe113 2.002 . S
O114 C131 1.295 . S
O115 Fe110 1.997 . S
O115 C131 1.235 . S
O116 Fe110 2.002 . S
O116 C117 1.295 1_565 S
C117 O116 1.295 1_545 S
C117 O119 1.235 . S
C118 O123 1.287 . S
C118 O124 1.255 . S
O119 Fe111 1.998 1_545 S
O119 C117 1.235 . S
C120 O126 1.287 . S
C120 O127 1.255 . S
O121 Fe110 1.976 . S
O121 C128 1.287 . S
O122 Fe111 1.996 . S
O122 C128 1.255 . S
O123 Fe113 1.976 . S
O123 C118 1.287 . S
O124 Fe110 1.996 . S
O124 C118 1.255 . S
C125 O129 1.295 . S
C125 O130 1.235 . S
O126 Fe111 1.976 . S
O126 C120 1.287 . S
O127 Fe113 1.996 . S
O127 C120 1.255 . S
C128 O121 1.287 . S
C128 O122 1.255 . S
O129 Fe111 2.002 . S
O129 C125 1.295 . S
O130 Fe113 1.997 . S
O130 C125 1.235 . S
C131 O114 1.295 . S
C131 O115 1.235 . S
Fe132 O134 1.918 . S
Fe132 O137 1.997 . S
Fe132 O138 2.002 . S
Fe132 O143 1.976 . S
Fe132 O146 1.996 . S
Fe133 O134 1.918 . S
Fe133 O141 1.997 . S
Fe133 O144 1.996 . S
Fe133 O148 1.976 . S
Fe133 O151 2.002 . S
O134 Fe132 1.918 . S
O134 Fe133 1.918 . S
O134 Fe135 1.918 . S
Fe135 O134 1.918 . S
Fe135 O136 2.002 . S
Fe135 O145 1.976 . S
Fe135 O149 1.996 . S
Fe135 O152 1.997 . S
O136 Fe135 2.002 . S
O136 C153 1.295 . S
O137 Fe132 1.997 . S
O137 C153 1.235 . S
O138 Fe132 2.002 . S
O138 C139 1.295 . S
C139 O138 1.295 . S
C139 O141 1.235 . S
C140 O145 1.287 . S
C140 O146 1.255 . S
O141 Fe133 1.997 . S
O141 C139 1.235 . S
C142 O148 1.287 . S
C142 O149 1.255 . S
O143 Fe132 1.976 . S
O143 C150 1.287 . S
O144 Fe133 1.996 . S
O144 C150 1.255 . S
O145 Fe135 1.976 . S
O145 C140 1.287 . S
O146 Fe132 1.996 . S
O146 C140 1.255 . S
C147 O151 1.295 . S
C147 O152 1.235 . S
O148 Fe133 1.976 . S
O148 C142 1.287 . S
O149 Fe135 1.996 . S
O149 C142 1.255 . S
C150 O143 1.287 . S
C150 O144 1.255 . S
O151 Fe133 2.002 . S
O151 C147 1.295 . S
O152 Fe135 1.997 . S
O152 C147 1.235 . S
C153 O136 1.295 . S
C153 O137 1.235 . S
Fe154 O156 1.918 . S
Fe154 O159 1.997 . S
Fe154 O160 2.002 . S
Fe154 O165 1.976 . S
Fe154 O168 1.996 . S
Fe155 O156 1.918 . S
Fe155 O163 1.997 . S
Fe155 O166 1.996 . S
Fe155 O170 1.976 . S
Fe155 O173 2.002 . S
O156 Fe154 1.918 . S
O156 Fe155 1.918 . S
O156 Fe157 1.918 . S
Fe157 O156 1.918 . S
Fe157 O158 2.002 . S
Fe157 O167 1.976 . S
Fe157 O171 1.996 . S
Fe157 O174 1.997 . S
O158 Fe157 2.002 . S
O158 C175 1.295 . S
O159 Fe154 1.997 . S
O159 C175 1.235 . S
O160 Fe154 2.002 . S
O160 C161 1.295 . S
C161 O160 1.295 . S
C161 O163 1.235 . S
C162 O167 1.287 . S
C162 O168 1.255 . S
O163 Fe155 1.997 . S
O163 C161 1.235 . S
C164 O170 1.287 . S
C164 O171 1.255 . S
O165 Fe154 1.976 . S
O165 C172 1.287 . S
O166 Fe155 1.996 . S
O166 C172 1.255 . S
O167 Fe157 1.976 . S
O167 C162 1.287 . S
O168 Fe154 1.996 . S
O168 C162 1.255 . S
C169 O173 1.295 . S
C169 O174 1.235 . S
O170 Fe155 1.976 . S
O170 C164 1.287 . S
O171 Fe157 1.996 . S
O171 C164 1.255 . S
C172 O165 1.287 . S
C172 O166 1.255 . S
O173 Fe155 2.002 . S
O173 C169 1.295 . S
O174 Fe157 1.997 . S
O174 C169 1.235 . S
C175 O158 1.295 . S
C175 O159 1.235 . S
Fe176 O178 1.918 . S
Fe176 O181 1.997 1_554 S
Fe176 O182 2.002 . S
Fe176 O187 1.976 . S
Fe176 O190 1.996 . S
Fe177 O178 1.918 . S
Fe177 O185 1.997 . S
Fe177 O188 1.996 . S
Fe177 O192 1.976 . S
Fe177 O195 2.002 . S
O178 Fe176 1.918 . S
O178 Fe177 1.918 . S
O178 Fe179 1.918 . S
Fe179 O178 1.918 . S
Fe179 O180 1.986 1_554 S
Fe179 O189 1.976 . S
Fe179 O193 1.996 . S
Fe179 O196 1.997 . S
O180 Fe179 1.986 1_556 S
O180 C197 1.303 . S
O181 Fe176 1.997 1_556 S
O181 C197 1.235 . S
O182 Fe176 2.002 . S
O182 C183 1.295 1_554 S
C183 O182 1.295 1_556 S
C183 O185 1.235 1_556 S
C184 O189 1.287 . S
C184 O190 1.255 . S
O185 Fe177 1.997 . S
O185 C183 1.235 1_554 S
C186 O192 1.287 . S
C186 O193 1.255 . S
O187 Fe176 1.976 . S
O187 C194 1.287 . S
O188 Fe177 1.996 . S
O188 C194 1.255 . S
O189 Fe179 1.976 . S
O189 C184 1.287 . S
O190 Fe176 1.996 . S
O190 C184 1.255 . S
C191 O195 1.295 . S
C191 O196 1.235 . S
O192 Fe177 1.976 . S
O192 C186 1.287 . S
O193 Fe179 1.996 . S
O193 C186 1.255 . S
C194 O187 1.287 . S
C194 O188 1.255 . S
O195 Fe177 2.002 . S
O195 C191 1.295 . S
O196 Fe179 1.997 . S
O196 C191 1.235 . S
C197 O180 1.303 . S
C197 O181 1.235 . S
Fe198 O200 1.918 . S
Fe198 O203 1.997 . S
Fe198 O204 2.002 . S
Fe198 O209 1.976 . S
Fe198 O212 1.996 . S
Fe199 O200 1.918 . S
Fe199 O207 1.997 . S
Fe199 O210 1.996 . S
Fe199 O214 1.976 . S
Fe199 O217 1.980 1_556 S
O200 Fe198 1.918 . S
O200 Fe199 1.918 . S
O200 Fe201 1.918 . S
Fe201 O200 1.918 . S
Fe201 O202 2.002 . S
Fe201 O211 1.976 . S
Fe201 O215 1.996 . S
Fe201 O218 1.997 1_556 S
O202 Fe201 2.002 . S
O202 C219 1.295 1_556 S
O203 Fe198 1.997 . S
O203 C219 1.235 1_556 S
O204 Fe198 2.002 . S
O204 C205 1.295 . S
C205 O204 1.295 . S
C205 O207 1.235 . S
C206 O211 1.287 . S
C206 O212 1.255 . S
O207 Fe199 1.997 . S
O207 C205 1.235 . S
C208 O214 1.287 . S
C208 O215 1.255 . S
O209 Fe198 1.976 . S
O209 C216 1.287 . S
O210 Fe199 1.996 . S
O210 C216 1.255 . S
O211 Fe201 1.976 . S
O211 C206 1.287 . S
O212 Fe198 1.996 . S
O212 C206 1.255 . S
C213 O217 1.307 . S
C213 O218 1.235 . S
O214 Fe199 1.976 . S
O214 C208 1.287 . S
O215 Fe201 1.996 . S
O215 C208 1.255 . S
C216 O209 1.287 . S
C216 O210 1.255 . S
O217 Fe199 1.980 1_554 S
O217 C213 1.307 . S
O218 Fe201 1.997 1_554 S
O218 C213 1.235 . S
C219 O202 1.295 1_554 S
C219 O203 1.235 1_554 S
Fe220 O222 1.918 . S
Fe220 O225 1.997 . S
Fe220 O226 2.002 . S
Fe220 O231 1.976 . S
Fe220 O234 1.996 . S
Fe221 O222 1.918 . S
Fe221 O229 1.997 . S
Fe221 O232 1.996 . S
Fe221 O236 1.976 . S
Fe221 O239 2.002 . S
O222 Fe220 1.918 . S
O222 Fe221 1.918 . S
O222 Fe223 1.918 . S
Fe223 O222 1.918 . S
Fe223 O224 2.002 . S
Fe223 O233 1.976 . S
Fe223 O237 1.996 . S
Fe223 O240 1.997 . S
O224 Fe223 2.002 . S
O224 C241 1.295 . S
O225 Fe220 1.997 . S
O225 C241 1.235 . S
O226 Fe220 2.002 . S
O226 C227 1.295 . S
C227 O226 1.295 . S
C227 O229 1.235 . S
C228 O233 1.287 . S
C228 O234 1.255 . S
O229 Fe221 1.997 . S
O229 C227 1.235 . S
C230 O236 1.287 . S
C230 O237 1.255 . S
O231 Fe220 1.976 . S
O231 C238 1.287 . S
O232 Fe221 1.996 . S
O232 C238 1.255 . S
O233 Fe223 1.976 . S
O233 C228 1.287 . S
O234 Fe220 1.996 . S
O234 C228 1.255 . S
C235 O239 1.295 . S
C235 O240 1.235 . S
O236 Fe221 1.976 . S
O236 C230 1.287 . S
O237 Fe223 1.996 . S
O237 C230 1.255 . S
C238 O231 1.287 . S
C238 O232 1.255 . S
O239 Fe221 2.002 . S
O239 C235 1.295 . S
O240 Fe223 1.997 . S
O240 C235 1.235 . S
C241 O224 1.295 . S
C241 O225 1.235 . S
Fe242 O244 1.918 . S
Fe242 O247 1.997 . S
Fe242 O248 2.002 . S
Fe242 O253 1.976 . S
Fe242 O256 1.996 . S
Fe243 O244 1.918 . S
Fe243 O251 1.997 . S
Fe243 O254 1.996 . S
Fe243 O258 1.976 . S
Fe243 O261 2.002 . S
O244 Fe242 1.918 . S
O244 Fe243 1.918 . S
O244 Fe245 1.918 . S
Fe245 O244 1.918 . S
Fe245 O246 2.002 . S
Fe245 O255 1.976 . S
Fe245 O259 1.996 . S
Fe245 O262 1.997 . S
O246 Fe245 2.002 . S
O246 C263 1.295 . S
O247 Fe242 1.997 . S
O247 C263 1.235 . S
O248 Fe242 2.002 . S
O248 C249 1.295 . S
C249 O248 1.295 . S
C249 O251 1.235 . S
C250 O255 1.287 . S
C250 O256 1.255 . S
O251 Fe243 1.997 . S
O251 C249 1.235 . S
C252 O258 1.287 . S
C252 O259 1.255 . S
O253 Fe242 1.976 . S
O253 C260 1.287 . S
O254 Fe243 1.996 . S
O254 C260 1.255 . S
O255 Fe245 1.976 . S
O255 C250 1.287 . S
O256 Fe242 1.996 . S
O256 C250 1.255 . S
C257 O261 1.295 . S
C257 O262 1.235 . S
O258 Fe243 1.976 . S
O258 C252 1.287 . S
O259 Fe245 1.996 . S
O259 C252 1.255 . S
C260 O253 1.287 . S
C260 O254 1.255 . S
O261 Fe243 2.002 . S
O261 C257 1.295 . S
O262 Fe245 1.997 . S
O262 C257 1.235 . S
C263 O246 1.295 . S
C263 O247 1.235 . S
Fe264 O266 1.918 . S
Fe264 O269 1.997 . S
Fe264 O270 2.002 . S
Fe264 O275 1.976 . S
Fe264 O278 1.996 . S
Fe265 O266 1.918 . S
Fe265 O273 1.997 . S
Fe265 O276 1.996 . S
Fe265 O280 1.976 . S
Fe265 O283 2.010 . S
O266 Fe264 1.918 . S
O266 Fe265 1.918 . S
O266 Fe267 1.918 . S
Fe267 O266 1.918 . S
Fe267 O268 2.002 . S
Fe267 O277 1.976 . S
Fe267 O281 1.996 . S
Fe267 O284 1.978 1_655 S
O268 Fe267 2.002 . S
O268 C285 1.292 1_655 S
O269 Fe264 1.997 . S
O269 C285 1.227 1_655 S
O270 Fe264 2.002 . S
O270 C271 1.295 . S
C271 O270 1.295 . S
C271 O273 1.235 . S
C272 O277 1.287 . S
C272 O278 1.255 . S
O273 Fe265 1.997 . S
O273 C271 1.235 . S
C274 O280 1.287 . S
C274 O281 1.255 . S
O275 Fe264 1.976 . S
O275 C282 1.287 . S
O276 Fe265 1.996 . S
O276 C282 1.255 . S
O277 Fe267 1.976 . S
O277 C272 1.287 . S
O278 Fe264 1.996 . S
O278 C272 1.255 . S
C279 O283 1.291 1_455 S
C279 O284 1.245 . S
O280 Fe265 1.976 . S
O280 C274 1.287 . S
O281 Fe267 1.996 . S
O281 C274 1.255 . S
C282 O275 1.287 . S
C282 O276 1.255 . S
O283 Fe265 2.010 . S
O283 C279 1.291 1_655 S
O284 Fe267 1.978 1_455 S
O284 C279 1.245 . S
C285 O268 1.292 1_455 S
C285 O269 1.227 1_455 S
Fe286 O288 1.918 . S
Fe286 O291 1.997 . S
Fe286 O292 2.002 . S
Fe286 O297 1.976 . S
Fe286 O300 1.996 . S
Fe287 O288 1.918 . S
Fe287 O295 1.997 . S
Fe287 O298 1.996 . S
Fe287 O302 1.976 . S
Fe287 O305 2.002 . S
O288 Fe286 1.918 . S
O288 Fe287 1.918 . S
O288 Fe289 1.918 . S
Fe289 O288 1.918 . S
Fe289 O290 2.002 . S
Fe289 O299 1.976 . S
Fe289 O303 1.996 . S
Fe289 O306 1.997 . S
O290 Fe289 2.002 . S
O290 C307 1.295 . S
O291 Fe286 1.997 . S
O291 C307 1.235 . S
O292 Fe286 2.002 . S
O292 C293 1.295 . S
C293 O292 1.295 . S
C293 O295 1.235 . S
C294 O299 1.287 . S
C294 O300 1.255 . S
O295 Fe287 1.997 . S
O295 C293 1.235 . S
C296 O302 1.287 . S
C296 O303 1.255 . S
O297 Fe286 1.976 . S
O297 C304 1.287 . S
O298 Fe287 1.996 . S
O298 C304 1.255 . S
O299 Fe289 1.976 . S
O299 C294 1.287 . S
O300 Fe286 1.996 . S
O300 C294 1.255 . S
C301 O305 1.295 . S
C301 O306 1.235 . S
O302 Fe287 1.976 . S
O302 C296 1.287 . S
O303 Fe289 1.996 . S
O303 C296 1.255 . S
C304 O297 1.287 . S
C304 O298 1.255 . S
O305 Fe287 2.002 . S
O305 C301 1.295 . S
O306 Fe289 1.997 . S
O306 C301 1.235 . S
C307 O290 1.295 . S
C307 O291 1.235 . S
Fe308 O310 1.918 . S
Fe308 O313 1.997 . S
Fe308 O314 2.002 . S
Fe308 O319 1.976 . S
Fe308 O322 1.996 . S
Fe309 O310 1.918 . S
Fe309 O317 1.997 . S
Fe309 O320 1.996 . S
Fe309 O324 1.976 . S
Fe309 O327 2.002 . S
O310 Fe308 1.918 . S
O310 Fe309 1.918 . S
O310 Fe311 1.918 . S
Fe311 O310 1.918 . S
Fe311 O312 2.002 . S
Fe311 O321 1.976 . S
Fe311 O325 1.996 . S
Fe311 O328 1.997 . S
O312 Fe311 2.002 . S
O312 C329 1.295 . S
O313 Fe308 1.997 . S
O313 C329 1.235 . S
O314 Fe308 2.002 . S
O314 C315 1.295 . S
C315 O314 1.295 . S
C315 O317 1.235 . S
C316 O321 1.287 . S
C316 O322 1.255 . S
O317 Fe309 1.997 . S
O317 C315 1.235 . S
C318 O324 1.287 . S
C318 O325 1.255 . S
O319 Fe308 1.976 . S
O319 C326 1.287 . S
O320 Fe309 1.996 . S
O320 C326 1.255 . S
O321 Fe311 1.976 . S
O321 C316 1.287 . S
O322 Fe308 1.996 . S
O322 C316 1.255 . S
C323 O327 1.295 . S
C323 O328 1.235 . S
O324 Fe309 1.976 . S
O324 C318 1.287 . S
O325 Fe311 1.996 . S
O325 C318 1.255 . S
C326 O319 1.287 . S
C326 O320 1.255 . S
O327 Fe309 2.002 . S
O327 C323 1.295 . S
O328 Fe311 1.997 . S
O328 C323 1.235 . S
C329 O312 1.295 . S
C329 O313 1.235 . S
Fe330 O332 1.918 . S
Fe330 O335 1.997 . S
Fe330 O336 2.002 . S
Fe330 O341 1.976 . S
Fe330 O344 1.996 . S
Fe331 O332 1.918 . S
Fe331 O339 1.997 . S
Fe331 O342 1.996 . S
Fe331 O346 1.976 . S
Fe331 O349 2.011 . S
O332 Fe330 1.918 . S
O332 Fe331 1.918 . S
O332 Fe333 1.918 . S
Fe333 O332 1.918 . S
Fe333 O334 2.002 . S
Fe333 O343 1.976 . S
Fe333 O347 1.996 . S
Fe333 O350 1.980 1_455 S
O334 Fe333 2.002 . S
O334 C351 1.292 1_455 S
O335 Fe330 1.997 . S
O335 C351 1.227 1_455 S
O336 Fe330 2.002 . S
O336 C337 1.295 . S
C337 O336 1.295 . S
C337 O339 1.235 . S
C338 O343 1.287 . S
C338 O344 1.255 . S
O339 Fe331 1.997 . S
O339 C337 1.235 . S
C340 O346 1.287 . S
C340 O347 1.255 . S
O341 Fe330 1.976 . S
O341 C348 1.287 . S
O342 Fe331 1.996 . S
O342 C348 1.255 . S
O343 Fe333 1.976 . S
O343 C338 1.287 . S
O344 Fe330 1.996 . S
O344 C338 1.255 . S
C345 O349 1.291 1_655 S
C345 O350 1.244 . S
O346 Fe331 1.976 . S
O346 C340 1.287 . S
O347 Fe333 1.996 . S
O347 C340 1.255 . S
C348 O341 1.287 . S
C348 O342 1.255 . S
O349 Fe331 2.011 . S
O349 C345 1.291 1_455 S
O350 Fe333 1.980 1_655 S
O350 C345 1.244 . S
C351 O334 1.292 1_655 S
C351 O335 1.227 1_655 S
Fe352 O354 1.918 . S
Fe352 O357 1.997 . S
Fe352 O358 2.002 . S
Fe352 O363 1.976 . S
Fe352 O366 1.996 . S
Fe353 O354 1.918 . S
Fe353 O361 1.997 . S
Fe353 O364 1.996 . S
Fe353 O368 1.976 . S
Fe353 O371 2.016 . S
O354 Fe352 1.918 . S
O354 Fe353 1.918 . S
O354 Fe355 1.918 . S
Fe355 O354 1.918 . S
Fe355 O356 2.002 . S
Fe355 O365 1.976 . S
Fe355 O369 1.996 . S
Fe355 O372 1.985 1_565 S
O356 Fe355 2.002 . S
O356 C373 1.294 1_565 S
O357 Fe352 1.997 . S
O357 C373 1.232 1_565 S
O358 Fe352 2.002 . S
O358 C359 1.295 . S
C359 O358 1.295 . S
C359 O361 1.235 . S
C360 O365 1.287 . S
C360 O366 1.255 . S
O361 Fe353 1.997 . S
O361 C359 1.235 . S
C362 O368 1.287 . S
C362 O369 1.255 . S
O363 Fe352 1.976 . S
O363 C370 1.287 . S
O364 Fe353 1.996 . S
O364 C370 1.255 . S
O365 Fe355 1.976 . S
O365 C360 1.287 . S
O366 Fe352 1.996 . S
O366 C360 1.255 . S
C367 O371 1.288 1_545 S
C367 O372 1.241 . S
O368 Fe353 1.976 . S
O368 C362 1.287 . S
O369 Fe355 1.996 . S
O369 C362 1.255 . S
C370 O363 1.287 . S
C370 O364 1.255 . S
O371 Fe353 2.016 . S
O371 C367 1.288 1_565 S
O372 Fe355 1.985 1_545 S
O372 C367 1.241 . S
C373 O356 1.294 1_545 S
C373 O357 1.232 1_545 S
Fe374 O376 1.918 . S
Fe374 O379 1.997 . S
Fe374 O380 2.002 . S
Fe374 O385 1.976 . S
Fe374 O388 1.996 . S
Fe375 O376 1.918 . S
Fe375 O383 1.997 . S
Fe375 O386 1.996 . S
Fe375 O390 1.976 . S
Fe375 O393 2.002 1_545 S
O376 Fe374 1.918 . S
O376 Fe375 1.918 . S
O376 Fe377 1.918 . S
Fe377 O376 1.918 . S
Fe377 O378 2.002 . S
Fe377 O387 1.976 . S
Fe377 O391 1.996 . S
Fe377 O394 1.997 1_545 S
O378 Fe377 2.002 . S
O378 C395 1.295 1_545 S
O379 Fe374 1.997 . S
O379 C395 1.235 1_545 S
O380 Fe374 2.002 . S
O380 C381 1.295 . S
C381 O380 1.295 . S
C381 O383 1.235 . S
C382 O387 1.287 . S
C382 O388 1.255 . S
O383 Fe375 1.997 . S
O383 C381 1.235 . S
C384 O390 1.287 . S
C384 O391 1.255 . S
O385 Fe374 1.976 . S
O385 C392 1.287 . S
O386 Fe375 1.996 . S
O386 C392 1.255 . S
O387 Fe377 1.976 . S
O387 C382 1.287 . S
O388 Fe374 1.996 . S
O388 C382 1.255 . S
C389 O393 1.295 . S
C389 O394 1.235 . S
O390 Fe375 1.976 . S
O390 C384 1.287 . S
O391 Fe377 1.996 . S
O391 C384 1.255 . S
C392 O385 1.287 . S
C392 O386 1.255 . S
O393 Fe375 2.002 1_565 S
O393 C389 1.295 . S
O394 Fe377 1.997 1_565 S
O394 C389 1.235 . S
C395 O378 1.295 1_565 S
C395 O379 1.235 1_565 S
Fe396 O398 1.918 . S
Fe396 O401 1.997 . S
Fe396 O402 2.002 . S
Fe396 O407 1.976 . S
Fe396 O410 1.996 . S
Fe397 O398 1.918 . S
Fe397 O405 1.997 . S
Fe397 O408 1.996 . S
Fe397 O412 1.976 . S
Fe397 O415 2.002 . S
O398 Fe396 1.918 . S
O398 Fe397 1.918 . S
O398 Fe399 1.918 . S
Fe399 O398 1.918 . S
Fe399 O400 2.002 . S
Fe399 O409 1.976 . S
Fe399 O413 1.996 . S
Fe399 O416 1.997 . S
O400 Fe399 2.002 . S
O400 C417 1.295 . S
O401 Fe396 1.997 . S
O401 C417 1.235 . S
O402 Fe396 2.002 . S
O402 C403 1.295 . S
C403 O402 1.295 . S
C403 O405 1.235 . S
C404 O409 1.287 . S
C404 O410 1.255 . S
O405 Fe397 1.997 . S
O405 C403 1.235 . S
C406 O412 1.287 . S
C406 O413 1.255 . S
O407 Fe396 1.976 . S
O407 C414 1.287 . S
O408 Fe397 1.996 . S
O408 C414 1.255 . S
O409 Fe399 1.976 . S
O409 C404 1.287 . S
O410 Fe396 1.996 . S
O410 C404 1.255 . S
C411 O415 1.295 . S
C411 O416 1.235 . S
O412 Fe397 1.976 . S
O412 C406 1.287 . S
O413 Fe399 1.996 . S
O413 C406 1.255 . S
C414 O407 1.287 . S
C414 O408 1.255 . S
O415 Fe397 2.002 . S
O415 C411 1.295 . S
O416 Fe399 1.997 . S
O416 C411 1.235 . S
C417 O400 1.295 . S
C417 O401 1.235 . S
Fe418 O420 1.918 . S
Fe418 O423 1.997 . S
Fe418 O424 2.002 . S
Fe418 O429 1.976 . S
Fe418 O432 1.996 . S
Fe419 O420 1.918 . S
Fe419 O427 1.997 . S
Fe419 O430 1.996 . S
Fe419 O434 1.976 . S
Fe419 O437 2.002 . S
O420 Fe418 1.918 . S
O420 Fe419 1.918 . S
O420 Fe421 1.918 . S
Fe421 O420 1.918 . S
Fe421 O422 2.002 . S
Fe421 O431 1.976 . S
Fe421 O435 1.996 . S
Fe421 O438 1.997 . S
O422 Fe421 2.002 . S
O422 C439 1.295 . S
O423 Fe418 1.997 . S
O423 C439 1.235 . S
O424 Fe418 2.002 . S
O424 C425 1.295 . S
C425 O424 1.295 . S
C425 O427 1.235 . S
C426 O431 1.287 . S
C426 O432 1.255 . S
O427 Fe419 1.997 . S
O427 C425 1.235 . S
C428 O434 1.287 . S
C428 O435 1.255 . S
O429 Fe418 1.976 . S
O429 C436 1.287 . S
O430 Fe419 1.996 . S
O430 C436 1.255 . S
O431 Fe421 1.976 . S
O431 C426 1.287 . S
O432 Fe418 1.996 . S
O432 C426 1.255 . S
C433 O437 1.295 . S
C433 O438 1.235 . S
O434 Fe419 1.976 . S
O434 C428 1.287 . S
O435 Fe421 1.996 . S
O435 C428 1.255 . S
C436 O429 1.287 . S
C436 O430 1.255 . S
O437 Fe419 2.002 . S
O437 C433 1.295 . S
O438 Fe421 1.997 . S
O438 C433 1.235 . S
C439 O422 1.295 . S
C439 O423 1.235 . S
Fe440 O442 1.918 . S
Fe440 O445 1.997 . S
Fe440 O446 2.002 . S
Fe440 O451 1.976 . S
Fe440 O454 1.996 . S
Fe441 O442 1.918 . S
Fe441 O449 1.997 . S
Fe441 O452 1.996 . S
Fe441 O456 1.976 . S
Fe441 O459 1.983 1_556 S
O442 Fe440 1.918 . S
O442 Fe441 1.918 . S
O442 Fe443 1.918 . S
Fe443 O442 1.918 . S
Fe443 O444 2.002 . S
Fe443 O453 1.976 . S
Fe443 O457 1.996 . S
Fe443 O460 1.997 1_556 S
O444 Fe443 2.002 . S
O444 C461 1.295 1_556 S
O445 Fe440 1.997 . S
O445 C461 1.235 1_556 S
O446 Fe440 2.002 . S
O446 C447 1.295 . S
C447 O446 1.295 . S
C447 O449 1.235 . S
C448 O453 1.287 . S
C448 O454 1.255 . S
O449 Fe441 1.997 . S
O449 C447 1.235 . S
C450 O456 1.287 . S
C450 O457 1.255 . S
O451 Fe440 1.976 . S
O451 C458 1.287 . S
O452 Fe441 1.996 . S
O452 C458 1.255 . S
O453 Fe443 1.976 . S
O453 C448 1.287 . S
O454 Fe440 1.996 . S
O454 C448 1.255 . S
C455 O459 1.305 . S
C455 O460 1.235 . S
O456 Fe441 1.976 . S
O456 C450 1.287 . S
O457 Fe443 1.996 . S
O457 C450 1.255 . S
C458 O451 1.287 . S
C458 O452 1.255 . S
O459 Fe441 1.983 1_554 S
O459 C455 1.305 . S
O460 Fe443 1.997 1_554 S
O460 C455 1.235 . S
C461 O444 1.295 1_554 S
C461 O445 1.235 1_554 S
Fe462 O464 1.918 . S
Fe462 O467 1.997 . S
Fe462 O468 2.002 . S
Fe462 O473 1.976 . S
Fe462 O476 1.996 . S
Fe463 O464 1.918 . S
Fe463 O471 1.997 . S
Fe463 O474 1.996 . S
Fe463 O478 1.976 . S
Fe463 O481 2.025 . S
O464 Fe462 1.918 . S
O464 Fe463 1.918 . S
O464 Fe465 1.918 . S
Fe465 O464 1.918 . S
Fe465 O466 2.002 . S
Fe465 O475 1.976 . S
Fe465 O479 1.996 . S
Fe465 O482 1.993 1_554 S
O466 Fe465 2.002 . S
O466 C483 1.294 . S
O467 Fe462 1.997 . S
O467 C483 1.234 . S
O468 Fe462 2.002 . S
O468 C469 1.295 . S
C469 O468 1.295 . S
C469 O471 1.235 . S
C470 O475 1.287 . S
C470 O476 1.255 . S
O471 Fe463 1.997 . S
O471 C469 1.235 . S
C472 O478 1.287 . S
C472 O479 1.255 . S
O473 Fe462 1.976 . S
O473 C480 1.287 . S
O474 Fe463 1.996 . S
O474 C480 1.255 . S
O475 Fe465 1.976 . S
O475 C470 1.287 . S
O476 Fe462 1.996 . S
O476 C470 1.255 . S
C477 O481 1.284 1_556 S
C477 O482 1.237 . S
O478 Fe463 1.976 . S
O478 C472 1.287 . S
O479 Fe465 1.996 . S
O479 C472 1.255 . S
C480 O473 1.287 . S
C480 O474 1.255 . S
O481 Fe463 2.025 . S
O481 C477 1.284 1_554 S
O482 Fe465 1.993 1_556 S
O482 C477 1.237 . S
C483 O466 1.294 . S
C483 O467 1.234 . S
Fe484 O486 1.918 . S
Fe484 O489 1.997 . S
Fe484 O490 2.002 . S
Fe484 O495 1.976 . S
Fe484 O498 1.996 . S
Fe485 O486 1.918 . S
Fe485 O493 1.997 . S
Fe485 O496 1.996 . S
Fe485 O500 1.976 . S
Fe485 O503 2.002 . S
O486 Fe484 1.918 . S
O486 Fe485 1.918 . S
O486 Fe487 1.918 . S
Fe487 O486 1.918 . S
Fe487 O488 2.002 . S
Fe487 O497 1.976 . S
Fe487 O501 1.996 . S
Fe487 O504 1.997 . S
O488 Fe487 2.002 . S
O488 C505 1.295 . S
O489 Fe484 1.997 . S
O489 C505 1.235 . S
O490 Fe484 2.002 . S
O490 C491 1.295 . S
C491 O490 1.295 . S
C491 O493 1.235 . S
C492 O497 1.287 . S
C492 O498 1.255 . S
O493 Fe485 1.997 . S
O493 C491 1.235 . S
C494 O500 1.287 . S
C494 O501 1.255 . S
O495 Fe484 1.976 . S
O495 C502 1.287 . S
O496 Fe485 1.996 . S
O496 C502 1.255 . S
O497 Fe487 1.976 . S
O497 C492 1.287 . S
O498 Fe484 1.996 . S
O498 C492 1.255 . S
C499 O503 1.295 . S
C499 O504 1.235 . S
O500 Fe485 1.976 . S
O500 C494 1.287 . S
O501 Fe487 1.996 . S
O501 C494 1.255 . S
C502 O495 1.287 . S
C502 O496 1.255 . S
O503 Fe485 2.002 . S
O503 C499 1.295 . S
O504 Fe487 1.997 . S
O504 C499 1.235 . S
C505 O488 1.295 . S
C505 O489 1.235 . S
Fe506 O508 1.918 . S
Fe506 O511 1.997 . S
Fe506 O512 2.002 . S
Fe506 O517 1.976 . S
Fe506 O520 1.996 . S
Fe507 O508 1.918 . S
Fe507 O515 1.997 . S
Fe507 O518 1.996 . S
Fe507 O522 1.976 . S
Fe507 O525 2.002 . S
O508 Fe506 1.918 . S
O508 Fe507 1.918 . S
O508 Fe509 1.918 . S
Fe509 O508 1.918 . S
Fe509 O510 2.002 . S
Fe509 O519 1.976 . S
Fe509 O523 1.996 . S
Fe509 O526 1.997 . S
O510 Fe509 2.002 . S
O510 C527 1.295 . S
O511 Fe506 1.997 . S
O511 C527 1.235 . S
O512 Fe506 2.002 . S
O512 C513 1.295 . S
C513 O512 1.295 . S
C513 O515 1.235 . S
C514 O519 1.287 . S
C514 O520 1.255 . S
O515 Fe507 1.997 . S
O515 C513 1.235 . S
C516 O522 1.287 . S
C516 O523 1.255 . S
O517 Fe506 1.976 . S
O517 C524 1.287 . S
O518 Fe507 1.996 . S
O518 C524 1.255 . S
O519 Fe509 1.976 . S
O519 C514 1.287 . S
O520 Fe506 1.996 . S
O520 C514 1.255 . S
C521 O525 1.295 . S
C521 O526 1.235 . S
O522 Fe507 1.976 . S
O522 C516 1.287 . S
O523 Fe509 1.996 . S
O523 C516 1.255 . S
C524 O517 1.287 . S
C524 O518 1.255 . S
O525 Fe507 2.002 . S
O525 C521 1.295 . S
O526 Fe509 1.997 . S
O526 C521 1.235 . S
C527 O510 1.295 . S
C527 O511 1.235 . S
C528 C529 1.369 . S
C528 C530 1.419 . S
C528 H532 0.930 . S
C529 C528 1.369 . S
C529 C538 1.429 . S
C530 C528 1.419 . S
C530 C531 1.363 . S
C530 H533 0.929 . S
C531 C530 1.363 . S
C531 C537 1.428 . S
H532 C528 0.930 . S
H533 C530 0.929 . S
S534 N535 1.613 . S
S534 N536 1.610 . S
N535 S534 1.613 . S
N535 C538 1.350 . S
N536 S534 1.610 . S
N536 C537 1.351 . S
C537 C531 1.428 . S
C537 N536 1.351 . S
C537 C538 1.434 . S
C538 C529 1.429 . S
C538 N535 1.350 . S
C538 C537 1.434 . S
C539 C540 1.369 . S
C539 C541 1.419 . S
C539 H543 0.930 . S
C540 C539 1.369 . S
C540 C549 1.429 . S
C541 C539 1.419 . S
C541 C542 1.363 . S
C541 H544 0.929 . S
C542 C541 1.363 . S
C542 C548 1.428 . S
H543 C539 0.930 . S
H544 C541 0.929 . S
S545 N546 1.613 . S
S545 N547 1.610 . S
N546 S545 1.613 . S
N546 C549 1.350 . S
N547 S545 1.610 . S
N547 C548 1.351 . S
C548 C542 1.428 . S
C548 N547 1.351 . S
C548 C549 1.434 . S
C549 C540 1.429 . S
C549 N546 1.350 . S
C549 C548 1.434 . S
C550 C551 1.369 . S
C550 C552 1.419 . S
C550 H554 0.930 . S
C551 C550 1.369 . S
C551 C560 1.429 . S
C552 C550 1.419 . S
C552 C553 1.363 . S
C552 H555 0.929 . S
C553 C552 1.363 . S
C553 C559 1.428 . S
H554 C550 0.930 . S
H555 C552 0.929 . S
S556 N557 1.613 . S
S556 N558 1.610 . S
N557 S556 1.613 . S
N557 C560 1.350 . S
N558 S556 1.610 . S
N558 C559 1.351 . S
C559 C553 1.428 . S
C559 N558 1.351 . S
C559 C560 1.434 . S
C560 C551 1.429 . S
C560 N557 1.350 . S
C560 C559 1.434 . S
C561 C562 1.369 . S
C561 C563 1.419 . S
C561 H565 0.930 . S
C562 C561 1.369 . S
C562 C571 1.429 . S
C563 C561 1.419 . S
C563 C564 1.363 . S
C563 H566 0.929 . S
C564 C563 1.363 . S
C564 C570 1.428 . S
H565 C561 0.930 . S
H566 C563 0.929 . S
S567 N568 1.613 . S
S567 N569 1.610 . S
N568 S567 1.613 . S
N568 C571 1.350 . S
N569 S567 1.610 . S
N569 C570 1.351 . S
C570 C564 1.428 . S
C570 N569 1.351 . S
C570 C571 1.434 . S
C571 C562 1.429 . S
C571 N568 1.350 . S
C571 C570 1.434 . S
C572 C573 1.369 . S
C572 C574 1.419 . S
C572 H576 0.930 . S
C573 C572 1.369 . S
C573 C582 1.429 . S
C574 C572 1.419 . S
C574 C575 1.363 . S
C574 H577 0.929 . S
C575 C574 1.363 . S
C575 C581 1.428 . S
H576 C572 0.930 . S
H577 C574 0.929 . S
S578 N579 1.613 . S
S578 N580 1.610 . S
N579 S578 1.613 . S
N579 C582 1.350 . S
N580 S578 1.610 . S
N580 C581 1.351 . S
C581 C575 1.428 . S
C581 N580 1.351 . S
C581 C582 1.434 . S
C582 C573 1.429 . S
C582 N579 1.350 . S
C582 C581 1.434 . S
C583 C584 1.369 . S
C583 C585 1.419 . S
C583 H587 0.930 . S
C584 C583 1.369 . S
C584 C593 1.429 . S
C585 C583 1.419 . S
C585 C586 1.363 . S
C585 H588 0.929 . S
C586 C585 1.363 . S
C586 C592 1.428 . S
H587 C583 0.930 . S
H588 C585 0.929 . S
S589 N590 1.613 . S
S589 N591 1.610 . S
N590 S589 1.613 . S
N590 C593 1.350 . S
N591 S589 1.610 . S
N591 C592 1.351 . S
C592 C586 1.428 . S
C592 N591 1.351 . S
C592 C593 1.434 . S
C593 C584 1.429 . S
C593 N590 1.350 . S
C593 C592 1.434 . S
C594 C595 1.369 . S
C594 C596 1.419 . S
C594 H598 0.930 . S
C595 C594 1.369 . S
C595 C604 1.429 . S
C596 C594 1.419 . S
C596 C597 1.363 . S
C596 H599 0.929 . S
C597 C596 1.363 . S
C597 C603 1.428 . S
H598 C594 0.930 . S
H599 C596 0.929 . S
S600 N601 1.613 . S
S600 N602 1.610 . S
N601 S600 1.613 . S
N601 C604 1.350 . S
N602 S600 1.610 . S
N602 C603 1.351 . S
C603 C597 1.428 . S
C603 N602 1.351 . S
C603 C604 1.434 . S
C604 C595 1.429 . S
C604 N601 1.350 . S
C604 C603 1.434 . S
C605 C606 1.369 . S
C605 C607 1.419 . S
C605 H609 0.930 . S
C606 C605 1.369 . S
C606 C615 1.429 . S
C607 C605 1.419 . S
C607 C608 1.363 . S
C607 H610 0.929 . S
C608 C607 1.363 . S
C608 C614 1.428 . S
H609 C605 0.930 . S
H610 C607 0.929 . S
S611 N612 1.613 1_556 S
S611 N613 1.610 . S
N612 S611 1.613 1_554 S
N612 C615 1.350 . S
N613 S611 1.610 . S
N613 C614 1.351 1_556 S
C614 C608 1.428 . S
C614 N613 1.351 1_554 S
C614 C615 1.434 . S
C615 C606 1.429 . S
C615 N612 1.350 . S
C615 C614 1.434 . S
C616 C617 1.369 . S
C616 C618 1.419 . S
C616 H620 0.930 . S
C617 C616 1.369 . S
C617 C626 1.429 . S
C618 C616 1.419 . S
C618 C619 1.363 . S
C618 H621 0.929 . S
C619 C618 1.363 . S
C619 C625 1.428 . S
H620 C616 0.930 . S
H621 C618 0.929 . S
S622 N623 1.613 . S
S622 N624 1.610 . S
N623 S622 1.613 . S
N623 C626 1.350 . S
N624 S622 1.610 . S
N624 C625 1.351 . S
C625 C619 1.428 . S
C625 N624 1.351 . S
C625 C626 1.434 . S
C626 C617 1.429 . S
C626 N623 1.350 . S
C626 C625 1.434 . S
C627 C628 1.369 . S
C627 C629 1.419 . S
C627 H631 0.930 . S
C628 C627 1.369 . S
C628 C637 1.429 . S
C629 C627 1.419 . S
C629 C630 1.363 . S
C629 H632 0.929 . S
C630 C629 1.363 . S
C630 C636 1.428 . S
H631 C627 0.930 . S
H632 C629 0.929 . S
S633 N634 1.613 . S
S633 N635 1.610 . S
N634 S633 1.613 . S
N634 C637 1.350 . S
N635 S633 1.610 . S
N635 C636 1.351 . S
C636 C630 1.428 . S
C636 N635 1.351 . S
C636 C637 1.434 . S
C637 C628 1.429 . S
C637 N634 1.350 . S
C637 C636 1.434 . S
C638 C639 1.369 . S
C638 C640 1.419 . S
C638 H642 0.930 . S
C639 C638 1.369 . S
C639 C648 1.429 . S
C640 C638 1.419 . S
C640 C641 1.363 . S
C640 H643 0.929 . S
C641 C640 1.363 . S
C641 C647 1.428 . S
H642 C638 0.930 . S
H643 C640 0.929 . S
S644 N645 1.613 . S
S644 N646 1.610 . S
N645 S644 1.613 . S
N645 C648 1.350 . S
N646 S644 1.610 . S
N646 C647 1.351 . S
C647 C641 1.428 . S
C647 N646 1.351 . S
C647 C648 1.434 . S
C648 C639 1.429 . S
C648 N645 1.350 . S
C648 C647 1.434 . S
C649 C650 1.369 . S
C649 C651 1.419 . S
C649 H653 0.930 . S
C650 C649 1.369 . S
C650 C659 1.429 . S
C651 C649 1.419 . S
C651 C652 1.363 . S
C651 H654 0.929 . S
C652 C651 1.363 . S
C652 C658 1.428 . S
H653 C649 0.930 . S
H654 C651 0.929 . S
S655 N656 1.613 . S
S655 N657 1.610 . S
N656 S655 1.613 . S
N656 C659 1.350 . S
N657 S655 1.610 . S
N657 C658 1.351 . S
C658 C652 1.428 . S
C658 N657 1.351 . S
C658 C659 1.434 . S
C659 C650 1.429 . S
C659 N656 1.350 . S
C659 C658 1.434 . S
C660 C661 1.369 . S
C660 C662 1.419 . S
C660 H664 0.930 . S
C661 C660 1.369 . S
C661 C670 1.429 . S
C662 C660 1.419 . S
C662 C663 1.363 . S
C662 H665 0.929 . S
C663 C662 1.363 . S
C663 C669 1.428 . S
H664 C660 0.930 . S
H665 C662 0.929 . S
S666 N667 1.613 . S
S666 N668 1.610 . S
N667 S666 1.613 . S
N667 C670 1.350 . S
N668 S666 1.610 . S
N668 C669 1.351 . S
C669 C663 1.428 . S
C669 N668 1.351 . S
C669 C670 1.434 . S
C670 C661 1.429 . S
C670 N667 1.350 . S
C670 C669 1.434 . S
C671 C672 1.369 . S
C671 C673 1.419 . S
C671 H675 0.930 . S
C672 C671 1.369 . S
C672 C681 1.429 . S
C673 C671 1.419 . S
C673 C674 1.363 . S
C673 H676 0.929 . S
C674 C673 1.363 . S
C674 C680 1.428 . S
H675 C671 0.930 . S
H676 C673 0.929 . S
S677 N678 1.613 . S
S677 N679 1.610 . S
N678 S677 1.613 . S
N678 C681 1.350 . S
N679 S677 1.610 . S
N679 C680 1.351 . S
C680 C674 1.428 . S
C680 N679 1.351 . S
C680 C681 1.434 . S
C681 C672 1.429 . S
C681 N678 1.350 . S
C681 C680 1.434 . S
C682 C683 1.369 . S
C682 C684 1.419 . S
C682 H686 0.930 . S
C683 C682 1.369 . S
C683 C692 1.429 . S
C684 C682 1.419 . S
C684 C685 1.363 . S
C684 H687 0.929 . S
C685 C684 1.363 . S
C685 C691 1.428 . S
H686 C682 0.930 . S
H687 C684 0.929 . S
S688 N689 1.613 . S
S688 N690 1.610 . S
N689 S688 1.613 . S
N689 C692 1.350 . S
N690 S688 1.610 . S
N690 C691 1.351 . S
C691 C685 1.428 . S
C691 N690 1.351 . S
C691 C692 1.434 . S
C692 C683 1.429 . S
C692 N689 1.350 . S
C692 C691 1.434 . S
C693 C694 1.369 . S
C693 C695 1.419 . S
C693 H697 0.930 . S
C694 C693 1.369 . S
C694 C703 1.429 . S
C695 C693 1.419 . S
C695 C696 1.363 . S
C695 H698 0.929 . S
C696 C695 1.363 . S
C696 C702 1.428 . S
H697 C693 0.930 . S
H698 C695 0.929 . S
S699 N700 1.613 . S
S699 N701 1.610 1_565 S
N700 S699 1.613 . S
N700 C703 1.350 1_565 S
N701 S699 1.610 1_545 S
N701 C702 1.351 . S
C702 C696 1.428 . S
C702 N701 1.351 . S
C702 C703 1.434 . S
C703 C694 1.429 . S
C703 N700 1.350 1_545 S
C703 C702 1.434 . S
C704 C705 1.369 . S
C704 C706 1.419 . S
C704 H708 0.930 . S
C705 C704 1.369 . S
C705 C714 1.429 . S
C706 C704 1.419 . S
C706 C707 1.363 . S
C706 H709 0.929 . S
C707 C706 1.363 . S
C707 C713 1.428 . S
H708 C704 0.930 . S
H709 C706 0.929 . S
S710 N711 1.613 . S
S710 N712 1.610 . S
N711 S710 1.613 . S
N711 C714 1.350 . S
N712 S710 1.610 . S
N712 C713 1.351 . S
C713 C707 1.428 . S
C713 N712 1.351 . S
C713 C714 1.434 . S
C714 C705 1.429 . S
C714 N711 1.350 . S
C714 C713 1.434 . S
C715 C716 1.369 . S
C715 C717 1.419 . S
C715 H719 0.930 . S
C716 C715 1.369 . S
C716 C725 1.429 . S
C717 C715 1.419 . S
C717 C718 1.363 . S
C717 H720 0.929 . S
C718 C717 1.363 . S
C718 C724 1.428 . S
H719 C715 0.930 . S
H720 C717 0.929 . S
S721 N722 1.613 . S
S721 N723 1.610 . S
N722 S721 1.613 . S
N722 C725 1.350 . S
N723 S721 1.610 . S
N723 C724 1.351 . S
C724 C718 1.428 . S
C724 N723 1.351 . S
C724 C725 1.434 . S
C725 C716 1.429 . S
C725 N722 1.350 . S
C725 C724 1.434 . S
C726 C727 1.369 . S
C726 C728 1.419 . S
C726 H730 0.930 . S
C727 C726 1.369 . S
C727 C736 1.429 . S
C728 C726 1.419 . S
C728 C729 1.363 . S
C728 H731 0.929 . S
C729 C728 1.363 . S
C729 C735 1.428 . S
H730 C726 0.930 . S
H731 C728 0.929 . S
S732 N733 1.613 . S
S732 N734 1.610 . S
N733 S732 1.613 . S
N733 C736 1.350 . S
N734 S732 1.610 . S
N734 C735 1.351 . S
C735 C729 1.428 . S
C735 N734 1.351 . S
C735 C736 1.434 . S
C736 C727 1.429 . S
C736 N733 1.350 . S
C736 C735 1.434 . S
C737 C738 1.369 . S
C737 C739 1.419 . S
C737 H741 0.930 . S
C738 C737 1.369 . S
C738 C747 1.429 . S
C739 C737 1.419 . S
C739 C740 1.363 . S
C739 H742 0.929 . S
C740 C739 1.363 . S
C740 C746 1.428 . S
H741 C737 0.930 . S
H742 C739 0.929 . S
S743 N744 1.613 . S
S743 N745 1.610 . S
N744 S743 1.613 . S
N744 C747 1.350 . S
N745 S743 1.610 . S
N745 C746 1.351 . S
C746 C740 1.428 . S
C746 N745 1.351 . S
C746 C747 1.434 . S
C747 C738 1.429 . S
C747 N744 1.350 . S
C747 C746 1.434 . S
C748 C749 1.369 . S
C748 C750 1.419 . S
C748 H752 0.930 . S
C749 C748 1.369 . S
C749 C758 1.429 . S
C750 C748 1.419 . S
C750 C751 1.363 . S
C750 H753 0.929 . S
C751 C750 1.363 . S
C751 C757 1.428 . S
H752 C748 0.930 . S
H753 C750 0.929 . S
S754 N755 1.613 . S
S754 N756 1.610 . S
N755 S754 1.613 . S
N755 C758 1.350 . S
N756 S754 1.610 . S
N756 C757 1.351 . S
C757 C751 1.428 . S
C757 N756 1.351 . S
C757 C758 1.434 . S
C758 C749 1.429 . S
C758 N755 1.350 . S
C758 C757 1.434 . S
C759 C760 1.369 . S
C759 C761 1.419 . S
C759 H763 0.930 . S
C760 C759 1.369 . S
C760 C769 1.429 . S
C761 C759 1.419 . S
C761 C762 1.363 . S
C761 H764 0.929 . S
C762 C761 1.363 . S
C762 C768 1.428 . S
H763 C759 0.930 . S
H764 C761 0.929 . S
S765 N766 1.613 . S
S765 N767 1.610 . S
N766 S765 1.613 . S
N766 C769 1.350 . S
N767 S765 1.610 . S
N767 C768 1.351 . S
C768 C762 1.428 . S
C768 N767 1.351 . S
C768 C769 1.434 . S
C769 C760 1.429 . S
C769 N766 1.350 . S
C769 C768 1.434 . S
C770 C771 1.369 . S
C770 C772 1.419 . S
C770 H774 0.930 . S
C771 C770 1.369 . S
C771 C780 1.429 . S
C772 C770 1.419 . S
C772 C773 1.363 . S
C772 H775 0.929 . S
C773 C772 1.363 . S
C773 C779 1.428 . S
H774 C770 0.930 . S
H775 C772 0.929 . S
S776 N777 1.613 . S
S776 N778 1.610 . S
N777 S776 1.613 . S
N777 C780 1.350 . S
N778 S776 1.610 . S
N778 C779 1.351 . S
C779 C773 1.428 . S
C779 N778 1.351 . S
C779 C780 1.434 . S
C780 C771 1.429 . S
C780 N777 1.350 . S
C780 C779 1.434 . S
C781 C782 1.369 . S
C781 C783 1.419 . S
C781 H785 0.930 . S
C782 C781 1.369 . S
C782 C791 1.429 . S
C783 C781 1.419 . S
C783 C784 1.363 . S
C783 H786 0.929 . S
C784 C783 1.363 . S
C784 C790 1.428 . S
H785 C781 0.930 . S
H786 C783 0.929 . S
S787 N788 1.613 . S
S787 N789 1.610 . S
N788 S787 1.613 . S
N788 C791 1.350 . S
N789 S787 1.610 . S
N789 C790 1.351 . S
C790 C784 1.428 . S
C790 N789 1.351 . S
C790 C791 1.434 . S
C791 C782 1.429 . S
C791 N788 1.350 . S
C791 C790 1.434 . S
C792 C793 1.369 . S
C792 C794 1.419 . S
C792 H796 0.930 . S
C793 C792 1.369 . S
C793 C802 1.429 . S
C794 C792 1.419 . S
C794 C795 1.363 . S
C794 H797 0.929 . S
C795 C794 1.363 . S
C795 C801 1.428 . S
H796 C792 0.930 . S
H797 C794 0.929 . S
S798 N799 1.613 . S
S798 N800 1.610 . S
N799 S798 1.613 . S
N799 C802 1.350 . S
N800 S798 1.610 . S
N800 C801 1.351 . S
C801 C795 1.428 . S
C801 N800 1.351 . S
C801 C802 1.434 . S
C802 C793 1.429 . S
C802 N799 1.350 . S
C802 C801 1.434 . S
C803 C804 1.369 . S
C803 C805 1.419 . S
C803 H807 0.930 . S
C804 C803 1.369 . S
C804 C813 1.429 . S
C805 C803 1.419 . S
C805 C806 1.363 . S
C805 H808 0.929 . S
C806 C805 1.363 . S
C806 C812 1.428 . S
H807 C803 0.930 . S
H808 C805 0.929 . S
S809 N810 1.613 . S
S809 N811 1.610 . S
N810 S809 1.613 . S
N810 C813 1.350 . S
N811 S809 1.610 . S
N811 C812 1.351 . S
C812 C806 1.428 . S
C812 N811 1.351 . S
C812 C813 1.434 . S
C813 C804 1.429 . S
C813 N810 1.350 . S
C813 C812 1.434 . S
C814 C815 1.369 . S
C814 C816 1.419 . S
C814 H818 0.930 . S
C815 C814 1.369 . S
C815 C824 1.429 . S
C816 C814 1.419 . S
C816 C817 1.363 . S
C816 H819 0.929 . S
C817 C816 1.363 . S
C817 C823 1.428 . S
H818 C814 0.930 . S
H819 C816 0.929 . S
S820 N821 1.613 . S
S820 N822 1.610 . S
N821 S820 1.613 . S
N821 C824 1.350 . S
N822 S820 1.610 . S
N822 C823 1.351 . S
C823 C817 1.428 . S
C823 N822 1.351 . S
C823 C824 1.434 . S
C824 C815 1.429 . S
C824 N821 1.350 . S
C824 C823 1.434 . S
C825 C826 1.369 . S
C825 C827 1.419 . S
C825 H829 0.930 . S
C826 C825 1.369 . S
C826 C835 1.429 . S
C827 C825 1.419 . S
C827 C828 1.363 . S
C827 H830 0.929 . S
C828 C827 1.363 . S
C828 C834 1.428 . S
H829 C825 0.930 . S
H830 C827 0.929 . S
S831 N832 1.613 . S
S831 N833 1.610 . S
N832 S831 1.613 . S
N832 C835 1.350 . S
N833 S831 1.610 . S
N833 C834 1.351 . S
C834 C828 1.428 . S
C834 N833 1.351 . S
C834 C835 1.434 . S
C835 C826 1.429 . S
C835 N832 1.350 . S
C835 C834 1.434 . S
C836 C837 1.369 . S
C836 C838 1.419 . S
C836 H840 0.930 . S
C837 C836 1.369 . S
C837 C846 1.429 . S
C838 C836 1.419 . S
C838 C839 1.363 . S
C838 H841 0.929 . S
C839 C838 1.363 . S
C839 C845 1.428 . S
H840 C836 0.930 . S
H841 C838 0.929 . S
S842 N843 1.613 . S
S842 N844 1.610 . S
N843 S842 1.613 . S
N843 C846 1.350 . S
N844 S842 1.610 . S
N844 C845 1.351 . S
C845 C839 1.428 . S
C845 N844 1.351 . S
C845 C846 1.434 . S
C846 C837 1.429 . S
C846 N843 1.350 . S
C846 C845 1.434 . S
C847 C848 1.369 . S
C847 C849 1.419 . S
C847 H851 0.930 . S
C848 C847 1.369 . S
C848 C857 1.429 . S
C849 C847 1.419 . S
C849 C850 1.363 . S
C849 H852 0.929 . S
C850 C849 1.363 . S
C850 C856 1.428 . S
H851 C847 0.930 . S
H852 C849 0.929 . S
S853 N854 1.613 . S
S853 N855 1.610 . S
N854 S853 1.613 . S
N854 C857 1.350 . S
N855 S853 1.610 . S
N855 C856 1.351 . S
C856 C850 1.428 . S
C856 N855 1.351 . S
C856 C857 1.434 . S
C857 C848 1.429 . S
C857 N854 1.350 . S
C857 C856 1.434 . S
C858 C859 1.369 . S
C858 C860 1.419 . S
C858 H862 0.930 . S
C859 C858 1.369 . S
C859 C868 1.429 . S
C860 C858 1.419 . S
C860 C861 1.363 . S
C860 H863 0.929 . S
C861 C860 1.363 . S
C861 C867 1.428 . S
H862 C858 0.930 . S
H863 C860 0.929 . S
S864 N865 1.613 . S
S864 N866 1.610 . S
N865 S864 1.613 . S
N865 C868 1.350 . S
N866 S864 1.610 . S
N866 C867 1.351 . S
C867 C861 1.428 . S
C867 N866 1.351 . S
C867 C868 1.434 . S
C868 C859 1.429 . S
C868 N865 1.350 . S
C868 C867 1.434 . S
C869 C870 1.369 . S
C869 C871 1.419 . S
C869 H873 0.930 . S
C870 C869 1.369 . S
C870 C879 1.429 . S
C871 C869 1.419 . S
C871 C872 1.363 . S
C871 H874 0.929 . S
C872 C871 1.363 . S
C872 C878 1.428 . S
H873 C869 0.930 . S
H874 C871 0.929 . S
S875 N876 1.613 . S
S875 N877 1.610 . S
N876 S875 1.613 . S
N876 C879 1.350 . S
N877 S875 1.610 . S
N877 C878 1.351 . S
C878 C872 1.428 . S
C878 N877 1.351 . S
C878 C879 1.434 . S
C879 C870 1.429 . S
C879 N876 1.350 . S
C879 C878 1.434 . S
C880 C881 1.369 . S
C880 C882 1.419 . S
C880 H884 0.930 . S
C881 C880 1.369 . S
C881 C890 1.429 . S
C882 C880 1.419 . S
C882 C883 1.363 . S
C882 H885 0.929 . S
C883 C882 1.363 . S
C883 C889 1.428 . S
H884 C880 0.930 . S
H885 C882 0.929 . S
S886 N887 1.613 . S
S886 N888 1.610 . S
N887 S886 1.613 . S
N887 C890 1.350 . S
N888 S886 1.610 . S
N888 C889 1.351 . S
C889 C883 1.428 . S
C889 N888 1.351 . S
C889 C890 1.434 . S
C890 C881 1.429 . S
C890 N887 1.350 . S
C890 C889 1.434 . S
C891 C892 1.369 . S
C891 C893 1.419 . S
C891 H895 0.930 . S
C892 C891 1.369 . S
C892 C901 1.429 . S
C893 C891 1.419 . S
C893 C894 1.363 . S
C893 H896 0.929 . S
C894 C893 1.363 . S
C894 C900 1.428 . S
H895 C891 0.930 . S
H896 C893 0.929 . S
S897 N898 1.613 . S
S897 N899 1.610 . S
N898 S897 1.613 . S
N898 C901 1.350 . S
N899 S897 1.610 . S
N899 C900 1.351 . S
C900 C894 1.428 . S
C900 N899 1.351 . S
C900 C901 1.434 . S
C901 C892 1.429 . S
C901 N898 1.350 . S
C901 C900 1.434 . S
C902 C903 1.369 . S
C902 C904 1.419 . S
C902 H906 0.930 . S
C903 C902 1.369 . S
C903 C912 1.429 . S
C904 C902 1.419 . S
C904 C905 1.363 . S
C904 H907 0.929 . S
C905 C904 1.363 . S
C905 C911 1.428 . S
H906 C902 0.930 . S
H907 C904 0.929 . S
S908 N909 1.613 . S
S908 N910 1.610 . S
N909 S908 1.613 . S
N909 C912 1.350 . S
N910 S908 1.610 . S
N910 C911 1.351 . S
C911 C905 1.428 . S
C911 N910 1.351 . S
C911 C912 1.434 . S
C912 C903 1.429 . S
C912 N909 1.350 . S
C912 C911 1.434 . S
C913 C914 1.369 . S
C913 C915 1.419 . S
C913 H917 0.930 . S
C914 C913 1.369 . S
C914 C923 1.429 . S
C915 C913 1.419 . S
C915 C916 1.363 . S
C915 H918 0.929 . S
C916 C915 1.363 . S
C916 C922 1.428 . S
H917 C913 0.930 . S
H918 C915 0.929 . S
S919 N920 1.613 . S
S919 N921 1.610 . S
N920 S919 1.613 . S
N920 C923 1.350 . S
N921 S919 1.610 . S
N921 C922 1.351 . S
C922 C916 1.428 . S
C922 N921 1.351 . S
C922 C923 1.434 . S
C923 C914 1.429 . S
C923 N920 1.350 . S
C923 C922 1.434 . S
C924 C925 1.369 . S
C924 C926 1.419 . S
C924 H928 0.930 . S
C925 C924 1.369 . S
C925 C934 1.429 . S
C926 C924 1.419 . S
C926 C927 1.363 . S
C926 H929 0.929 . S
C927 C926 1.363 . S
C927 C933 1.428 . S
H928 C924 0.930 . S
H929 C926 0.929 . S
S930 N931 1.613 . S
S930 N932 1.610 . S
N931 S930 1.613 . S
N931 C934 1.350 . S
N932 S930 1.610 . S
N932 C933 1.351 . S
C933 C927 1.428 . S
C933 N932 1.351 . S
C933 C934 1.434 . S
C934 C925 1.429 . S
C934 N931 1.350 . S
C934 C933 1.434 . S
C935 C936 1.369 . S
C935 C937 1.419 . S
C935 H939 0.930 . S
C936 C935 1.369 . S
C936 C945 1.429 . S
C937 C935 1.419 . S
C937 C938 1.363 . S
C937 H940 0.929 . S
C938 C937 1.363 . S
C938 C944 1.428 . S
H939 C935 0.930 . S
H940 C937 0.929 . S
S941 N942 1.613 . S
S941 N943 1.610 . S
N942 S941 1.613 . S
N942 C945 1.350 . S
N943 S941 1.610 . S
N943 C944 1.351 . S
C944 C938 1.428 . S
C944 N943 1.351 . S
C944 C945 1.434 . S
C945 C936 1.429 . S
C945 N942 1.350 . S
C945 C944 1.434 . S
C946 C947 1.369 . S
C946 C948 1.419 . S
C946 H950 0.930 . S
C947 C946 1.369 . S
C947 C956 1.429 . S
C948 C946 1.419 . S
C948 C949 1.363 . S
C948 H951 0.929 . S
C949 C948 1.363 . S
C949 C955 1.428 . S
H950 C946 0.930 . S
H951 C948 0.929 . S
S952 N953 1.613 . S
S952 N954 1.610 . S
N953 S952 1.613 . S
N953 C956 1.350 . S
N954 S952 1.610 . S
N954 C955 1.351 . S
C955 C949 1.428 . S
C955 N954 1.351 . S
C955 C956 1.434 . S
C956 C947 1.429 . S
C956 N953 1.350 . S
C956 C955 1.434 . S
C957 C958 1.369 . S
C957 C959 1.419 . S
C957 H961 0.930 . S
C958 C957 1.369 . S
C958 C967 1.429 . S
C959 C957 1.419 . S
C959 C960 1.363 . S
C959 H962 0.929 . S
C960 C959 1.363 . S
C960 C966 1.428 . S
H961 C957 0.930 . S
H962 C959 0.929 . S
S963 N964 1.613 . S
S963 N965 1.610 . S
N964 S963 1.613 . S
N964 C967 1.350 . S
N965 S963 1.610 . S
N965 C966 1.351 . S
C966 C960 1.428 . S
C966 N965 1.351 . S
C966 C967 1.434 . S
C967 C958 1.429 . S
C967 N964 1.350 . S
C967 C966 1.434 . S
C968 C969 1.369 . S
C968 C970 1.419 . S
C968 H972 0.930 . S
C969 C968 1.369 . S
C969 C978 1.429 . S
C970 C968 1.419 . S
C970 C971 1.363 . S
C970 H973 0.929 . S
C971 C970 1.363 . S
C971 C977 1.428 . S
H972 C968 0.930 . S
H973 C970 0.929 . S
S974 N975 1.613 . S
S974 N976 1.610 . S
N975 S974 1.613 . S
N975 C978 1.350 . S
N976 S974 1.610 . S
N976 C977 1.351 . S
C977 C971 1.428 . S
C977 N976 1.351 . S
C977 C978 1.434 . S
C978 C969 1.429 . S
C978 N975 1.350 . S
C978 C977 1.434 . S
C979 C980 1.369 . S
C979 C981 1.419 . S
C979 H983 0.930 . S
C980 C979 1.369 . S
C980 C989 1.429 . S
C981 C979 1.419 . S
C981 C982 1.363 . S
C981 H984 0.929 . S
C982 C981 1.363 . S
C982 C988 1.428 . S
H983 C979 0.930 . S
H984 C981 0.929 . S
S985 N986 1.613 . S
S985 N987 1.610 . S
N986 S985 1.613 . S
N986 C989 1.350 . S
N987 S985 1.610 . S
N987 C988 1.351 . S
C988 C982 1.428 . S
C988 N987 1.351 . S
C988 C989 1.434 . S
C989 C980 1.429 . S
C989 N986 1.350 . S
C989 C988 1.434 . S
C990 C991 1.369 . S
C990 C992 1.419 . S
C990 H994 0.930 . S
C991 C990 1.369 . S
C991 C1000 1.429 . S
C992 C990 1.419 . S
C992 C993 1.363 . S
C992 H995 0.929 . S
C993 C992 1.363 . S
C993 C999 1.428 . S
H994 C990 0.930 . S
H995 C992 0.929 . S
S996 N997 1.613 . S
S996 N998 1.610 . S
N997 S996 1.613 . S
N997 C1000 1.350 . S
N998 S996 1.610 . S
N998 C999 1.351 . S
C999 C993 1.428 . S
C999 N998 1.351 . S
C999 C1000 1.434 . S
C1000 C991 1.429 . S
C1000 N997 1.350 . S
C1000 C999 1.434 . S
C1001 C1002 1.369 . S
C1001 C1003 1.419 . S
C1001 H1005 0.930 . S
C1002 C1001 1.369 . S
C1002 C1011 1.429 . S
C1003 C1001 1.419 . S
C1003 C1004 1.363 . S
C1003 H1006 0.929 . S
C1004 C1003 1.363 . S
C1004 C1010 1.428 . S
H1005 C1001 0.930 . S
H1006 C1003 0.929 . S
S1007 N1008 1.613 . S
S1007 N1009 1.610 . S
N1008 S1007 1.613 . S
N1008 C1011 1.350 . S
N1009 S1007 1.610 . S
N1009 C1010 1.351 . S
C1010 C1004 1.428 . S
C1010 N1009 1.351 . S
C1010 C1011 1.434 . S
C1011 C1002 1.429 . S
C1011 N1008 1.350 . S
C1011 C1010 1.434 . S
C1012 C1013 1.369 . S
C1012 C1014 1.419 . S
C1012 H1016 0.930 . S
C1013 C1012 1.369 . S
C1013 C1022 1.429 . S
C1014 C1012 1.419 . S
C1014 C1015 1.363 . S
C1014 H1017 0.929 . S
C1015 C1014 1.363 . S
C1015 C1021 1.428 . S
H1016 C1012 0.930 . S
H1017 C1014 0.929 . S
S1018 N1019 1.613 . S
S1018 N1020 1.610 . S
N1019 S1018 1.613 . S
N1019 C1022 1.350 . S
N1020 S1018 1.610 . S
N1020 C1021 1.351 . S
C1021 C1015 1.428 . S
C1021 N1020 1.351 . S
C1021 C1022 1.434 . S
C1022 C1013 1.429 . S
C1022 N1019 1.350 . S
C1022 C1021 1.434 . S
C1023 C1024 1.369 . S
C1023 C1025 1.419 . S
C1023 H1027 0.930 . S
C1024 C1023 1.369 . S
C1024 C1033 1.429 . S
C1025 C1023 1.419 . S
C1025 C1026 1.363 . S
C1025 H1028 0.929 . S
C1026 C1025 1.363 . S
C1026 C1032 1.428 . S
H1027 C1023 0.930 . S
H1028 C1025 0.929 . S
S1029 N1030 1.613 . S
S1029 N1031 1.610 . S
N1030 S1029 1.613 . S
N1030 C1033 1.350 . S
N1031 S1029 1.610 . S
N1031 C1032 1.351 . S
C1032 C1026 1.428 . S
C1032 N1031 1.351 . S
C1032 C1033 1.434 . S
C1033 C1024 1.429 . S
C1033 N1030 1.350 . S
C1033 C1032 1.434 . S
C1034 C1035 1.369 . S
C1034 C1036 1.419 . S
C1034 H1038 0.930 . S
C1035 C1034 1.369 . S
C1035 C1044 1.429 . S
C1036 C1034 1.419 . S
C1036 C1037 1.363 . S
C1036 H1039 0.929 . S
C1037 C1036 1.363 . S
C1037 C1043 1.428 . S
H1038 C1034 0.930 . S
H1039 C1036 0.929 . S
S1040 N1041 1.613 . S
S1040 N1042 1.610 . S
N1041 S1040 1.613 . S
N1041 C1044 1.350 . S
N1042 S1040 1.610 . S
N1042 C1043 1.351 . S
C1043 C1037 1.428 . S
C1043 N1042 1.351 . S
C1043 C1044 1.434 . S
C1044 C1035 1.429 . S
C1044 N1041 1.350 . S
C1044 C1043 1.434 . S
C1045 C1046 1.369 . S
C1045 C1047 1.419 . S
C1045 H1049 0.930 . S
C1046 C1045 1.369 . S
C1046 C1055 1.429 . S
C1047 C1045 1.419 . S
C1047 C1048 1.363 . S
C1047 H1050 0.929 . S
C1048 C1047 1.363 . S
C1048 C1054 1.428 . S
H1049 C1045 0.930 . S
H1050 C1047 0.929 . S
S1051 N1052 1.613 . S
S1051 N1053 1.610 . S
N1052 S1051 1.613 . S
N1052 C1055 1.350 . S
N1053 S1051 1.610 . S
N1053 C1054 1.351 . S
C1054 C1048 1.428 . S
C1054 N1053 1.351 . S
C1054 C1055 1.434 . S
C1055 C1046 1.429 . S
C1055 N1052 1.350 . S
C1055 C1054 1.434 . S
C1056 C1057 1.369 . S
C1056 C1058 1.419 . S
C1056 H1060 0.930 . S
C1057 C1056 1.369 . S
C1057 C1066 1.429 . S
C1058 C1056 1.419 . S
C1058 C1059 1.363 . S
C1058 H1061 0.929 . S
C1059 C1058 1.363 . S
C1059 C1065 1.428 . S
H1060 C1056 0.930 . S
H1061 C1058 0.929 . S
S1062 N1063 1.613 . S
S1062 N1064 1.610 . S
N1063 S1062 1.613 . S
N1063 C1066 1.350 . S
N1064 S1062 1.610 . S
N1064 C1065 1.351 . S
C1065 C1059 1.428 . S
C1065 N1064 1.351 . S
C1065 C1066 1.434 . S
C1066 C1057 1.429 . S
C1066 N1063 1.350 . S
C1066 C1065 1.434 . S
C1067 C1068 1.369 . S
C1067 C1069 1.419 . S
C1067 H1071 0.930 . S
C1068 C1067 1.369 . S
C1068 C1077 1.429 . S
C1069 C1067 1.419 . S
C1069 C1070 1.363 . S
C1069 H1072 0.929 . S
C1070 C1069 1.363 . S
C1070 C1076 1.428 . S
H1071 C1067 0.930 . S
H1072 C1069 0.929 . S
S1073 N1074 1.613 . S
S1073 N1075 1.610 . S
N1074 S1073 1.613 . S
N1074 C1077 1.350 . S
N1075 S1073 1.610 . S
N1075 C1076 1.351 . S
C1076 C1070 1.428 . S
C1076 N1075 1.351 . S
C1076 C1077 1.434 . S
C1077 C1068 1.429 . S
C1077 N1074 1.350 . S
C1077 C1076 1.434 . S
C1078 C1079 1.369 . S
C1078 C1080 1.419 . S
C1078 H1082 0.930 . S
C1079 C1078 1.369 . S
C1079 C1088 1.429 . S
C1080 C1078 1.419 . S
C1080 C1081 1.363 . S
C1080 H1083 0.929 . S
C1081 C1080 1.363 . S
C1081 C1087 1.428 . S
H1082 C1078 0.930 . S
H1083 C1080 0.929 . S
S1084 N1085 1.613 . S
S1084 N1086 1.610 . S
N1085 S1084 1.613 . S
N1085 C1088 1.350 . S
N1086 S1084 1.610 . S
N1086 C1087 1.351 . S
C1087 C1081 1.428 . S
C1087 N1086 1.351 . S
C1087 C1088 1.434 . S
C1088 C1079 1.429 . S
C1088 N1085 1.350 . S
C1088 C1087 1.434 . S
C1089 C1090 1.369 . S
C1089 C1091 1.419 . S
C1089 H1093 0.930 . S
C1090 C1089 1.369 . S
C1090 C1099 1.429 . S
C1091 C1089 1.419 . S
C1091 C1092 1.363 . S
C1091 H1094 0.929 . S
C1092 C1091 1.363 . S
C1092 C1098 1.428 . S
H1093 C1089 0.930 . S
H1094 C1091 0.929 . S
S1095 N1096 1.613 1_655 S
S1095 N1097 1.610 . S
N1096 S1095 1.613 1_455 S
N1096 C1099 1.350 . S
N1097 S1095 1.610 . S
N1097 C1098 1.351 1_655 S
C1098 C1092 1.428 . S
C1098 N1097 1.351 1_455 S
C1098 C1099 1.434 . S
C1099 C1090 1.429 . S
C1099 N1096 1.350 . S
C1099 C1098 1.434 . S
C1100 C1101 1.369 . S
C1100 C1102 1.419 . S
C1100 H1104 0.930 . S
C1101 C1100 1.369 . S
C1101 C1110 1.429 . S
C1102 C1100 1.419 . S
C1102 C1103 1.363 . S
C1102 H1105 0.929 . S
C1103 C1102 1.363 . S
C1103 C1109 1.428 . S
H1104 C1100 0.930 . S
H1105 C1102 0.929 . S
S1106 N1107 1.613 . S
S1106 N1108 1.610 . S
N1107 S1106 1.613 . S
N1107 C1110 1.350 . S
N1108 S1106 1.610 . S
N1108 C1109 1.351 . S
C1109 C1103 1.428 . S
C1109 N1108 1.351 . S
C1109 C1110 1.434 . S
C1110 C1101 1.429 . S
C1110 N1107 1.350 . S
C1110 C1109 1.434 . S
C1111 C1112 1.369 . S
C1111 C1113 1.419 . S
C1111 H1115 0.930 . S
C1112 C1111 1.369 . S
C1112 C1121 1.429 . S
C1113 C1111 1.419 . S
C1113 C1114 1.363 . S
C1113 H1116 0.929 . S
C1114 C1113 1.363 . S
C1114 C1120 1.428 . S
H1115 C1111 0.930 . S
H1116 C1113 0.929 . S
S1117 N1118 1.613 . S
S1117 N1119 1.610 . S
N1118 S1117 1.613 . S
N1118 C1121 1.350 . S
N1119 S1117 1.610 . S
N1119 C1120 1.351 . S
C1120 C1114 1.428 . S
C1120 N1119 1.351 . S
C1120 C1121 1.434 . S
C1121 C1112 1.429 . S
C1121 N1118 1.350 . S
C1121 C1120 1.434 . S
C1122 C1123 1.369 . S
C1122 C1124 1.419 . S
C1122 H1126 0.930 . S
C1123 C1122 1.369 . S
C1123 C1132 1.429 . S
C1124 C1122 1.419 . S
C1124 C1125 1.363 . S
C1124 H1127 0.929 . S
C1125 C1124 1.363 . S
C1125 C1131 1.428 . S
H1126 C1122 0.930 . S
H1127 C1124 0.929 . S
S1128 N1129 1.613 . S
S1128 N1130 1.610 . S
N1129 S1128 1.613 . S
N1129 C1132 1.350 . S
N1130 S1128 1.610 . S
N1130 C1131 1.351 . S
C1131 C1125 1.428 . S
C1131 N1130 1.351 . S
C1131 C1132 1.434 . S
C1132 C1123 1.429 . S
C1132 N1129 1.350 . S
C1132 C1131 1.434 . S
C1133 C1134 1.369 . S
C1133 C1135 1.419 . S
C1133 H1137 0.930 . S
C1134 C1133 1.369 . S
C1134 C1143 1.429 . S
C1135 C1133 1.419 . S
C1135 C1136 1.363 . S
C1135 H1138 0.929 . S
C1136 C1135 1.363 . S
C1136 C1142 1.428 . S
H1137 C1133 0.930 . S
H1138 C1135 0.929 . S
S1139 N1140 1.613 . S
S1139 N1141 1.610 . S
N1140 S1139 1.613 . S
N1140 C1143 1.350 . S
N1141 S1139 1.610 . S
N1141 C1142 1.351 . S
C1142 C1136 1.428 . S
C1142 N1141 1.351 . S
C1142 C1143 1.434 . S
C1143 C1134 1.429 . S
C1143 N1140 1.350 . S
C1143 C1142 1.434 . S
C1144 C1145 1.369 . S
C1144 C1146 1.419 . S
C1144 H1148 0.951 . S
C1145 C1144 1.369 . S
C1145 C1154 1.429 . S
C1146 C1144 1.419 . S
C1146 C1147 1.363 . S
C1146 H1149 0.929 . S
C1147 C1146 1.363 . S
C1147 C1153 1.428 . S
H1148 C1144 0.951 . S
H1149 C1146 0.929 . S
S1150 N1151 1.613 . S
S1150 N1152 1.610 . S
N1151 S1150 1.613 . S
N1151 C1154 1.350 . S
N1152 S1150 1.610 . S
N1152 C1153 1.351 . S
C1153 C1147 1.428 . S
C1153 N1152 1.351 . S
C1153 C1154 1.434 . S
C1154 C1145 1.429 . S
C1154 N1151 1.350 . S
C1154 C1153 1.434 . S
C1155 C1156 1.369 . S
C1155 C1157 1.419 . S
C1155 H1159 0.930 . S
C1156 C1155 1.369 . S
C1156 C1165 1.429 . S
C1157 C1155 1.419 . S
C1157 C1158 1.363 . S
C1157 H1160 0.929 . S
C1158 C1157 1.363 . S
C1158 C1164 1.428 . S
H1159 C1155 0.930 . S
H1160 C1157 0.929 . S
S1161 N1162 1.613 . S
S1161 N1163 1.610 1_556 S
N1162 S1161 1.613 . S
N1162 C1165 1.350 1_556 S
N1163 S1161 1.610 1_554 S
N1163 C1164 1.351 . S
C1164 C1158 1.428 . S
C1164 N1163 1.351 . S
C1164 C1165 1.434 . S
C1165 C1156 1.429 . S
C1165 N1162 1.350 1_554 S
C1165 C1164 1.434 . S
C1166 C1167 1.369 . S
C1166 C1168 1.419 . S
C1166 H1170 0.930 . S
C1167 C1166 1.369 . S
C1167 C1176 1.429 . S
C1168 C1166 1.419 . S
C1168 C1169 1.363 . S
C1168 H1171 0.929 . S
C1169 C1168 1.363 . S
C1169 C1175 1.428 . S
H1170 C1166 0.930 . S
H1171 C1168 0.929 . S
S1172 N1173 1.613 . S
S1172 N1174 1.610 . S
N1173 S1172 1.613 . S
N1173 C1176 1.350 . S
N1174 S1172 1.610 . S
N1174 C1175 1.351 . S
C1175 C1169 1.428 . S
C1175 N1174 1.351 . S
C1175 C1176 1.434 . S
C1176 C1167 1.429 . S
C1176 N1173 1.350 . S
C1176 C1175 1.434 . S
C1177 C1178 1.369 . S
C1177 C1179 1.419 . S
C1177 H1181 0.930 . S
C1178 C1177 1.369 . S
C1178 C1187 1.429 . S
C1179 C1177 1.419 . S
C1179 C1180 1.363 . S
C1179 H1182 0.929 . S
C1180 C1179 1.363 . S
C1180 C1186 1.428 . S
H1181 C1177 0.930 . S
H1182 C1179 0.929 . S
S1183 N1184 1.613 . S
S1183 N1185 1.610 . S
N1184 S1183 1.613 . S
N1184 C1187 1.350 . S
N1185 S1183 1.610 . S
N1185 C1186 1.351 . S
C1186 C1180 1.428 . S
C1186 N1185 1.351 . S
C1186 C1187 1.434 . S
C1187 C1178 1.429 . S
C1187 N1184 1.350 . S
C1187 C1186 1.434 . S
C1188 C1189 1.369 . S
C1188 C1190 1.419 . S
C1188 H1192 0.930 . S
C1189 C1188 1.369 . S
C1189 C1198 1.429 . S
C1190 C1188 1.419 . S
C1190 C1191 1.363 . S
C1190 H1193 0.929 . S
C1191 C1190 1.363 . S
C1191 C1197 1.428 . S
H1192 C1188 0.930 . S
H1193 C1190 0.929 . S
S1194 N1195 1.613 . S
S1194 N1196 1.610 1_656 S
N1195 S1194 1.613 . S
N1195 C1198 1.350 1_655 S
N1196 S1194 1.610 1_454 S
N1196 C1197 1.351 1_554 S
C1197 C1191 1.428 . S
C1197 N1196 1.351 1_556 S
C1197 C1198 1.434 . S
C1198 C1189 1.429 . S
C1198 N1195 1.350 1_455 S
C1198 C1197 1.434 . S
C1199 C1200 1.369 . S
C1199 C1201 1.419 . S
C1199 H1203 0.930 . S
C1200 C1199 1.369 . S
C1200 C1209 1.429 . S
C1201 C1199 1.419 . S
C1201 C1202 1.363 . S
C1201 H1204 0.929 . S
C1202 C1201 1.363 . S
C1202 C1208 1.428 . S
H1203 C1199 0.930 . S
H1204 C1201 0.929 . S
S1205 N1206 1.613 . S
S1205 N1207 1.610 . S
N1206 S1205 1.613 . S
N1206 C1209 1.350 . S
N1207 S1205 1.610 . S
N1207 C1208 1.351 . S
C1208 C1202 1.428 . S
C1208 N1207 1.351 . S
C1208 C1209 1.434 . S
C1209 C1200 1.429 . S
C1209 N1206 1.350 . S
C1209 C1208 1.434 . S
C1210 C1211 1.369 . S
C1210 C1212 1.419 . S
C1210 H1214 0.930 . S
C1211 C1210 1.369 . S
C1211 C1220 1.429 . S
C1212 C1210 1.419 . S
C1212 C1213 1.363 . S
C1212 H1215 0.929 . S
C1213 C1212 1.363 . S
C1213 C1219 1.428 . S
H1214 C1210 0.930 . S
H1215 C1212 0.929 . S
S1216 N1217 1.613 1_554 S
S1216 N1218 1.610 . S
N1217 S1216 1.613 1_556 S
N1217 C1220 1.350 1_556 S
N1218 S1216 1.610 . S
N1218 C1219 1.351 . S
C1219 C1213 1.428 . S
C1219 N1218 1.351 . S
C1219 C1220 1.434 . S
C1220 C1211 1.429 . S
C1220 N1217 1.350 1_554 S
C1220 C1219 1.434 . S
C1221 C1222 1.369 . S
C1221 C1223 1.419 . S
C1221 H1225 0.930 . S
C1222 C1221 1.369 . S
C1222 C1231 1.429 . S
C1223 C1221 1.419 . S
C1223 C1224 1.363 . S
C1223 H1226 0.929 . S
C1224 C1223 1.363 . S
C1224 C1230 1.428 . S
H1225 C1221 0.930 . S
H1226 C1223 0.929 . S
S1227 N1228 1.613 1_455 S
S1227 N1229 1.610 . S
N1228 S1227 1.613 1_655 S
N1228 C1231 1.350 . S
N1229 S1227 1.610 . S
N1229 C1230 1.351 1_455 S
C1230 C1224 1.428 . S
C1230 N1229 1.351 1_655 S
C1230 C1231 1.434 . S
C1231 C1222 1.429 . S
C1231 N1228 1.350 . S
C1231 C1230 1.434 . S
C1232 C1233 1.369 . S
C1232 C1234 1.419 . S
C1232 H1236 0.930 . S
C1233 C1232 1.369 . S
C1233 C1242 1.429 . S
C1234 C1232 1.419 . S
C1234 C1235 1.363 . S
C1234 H1237 0.929 . S
C1235 C1234 1.363 . S
C1235 C1241 1.428 . S
H1236 C1232 0.930 . S
H1237 C1234 0.929 . S
S1238 N1239 1.639 . S
S1238 N1240 1.604 1_665 S
N1239 S1238 1.639 . S
N1239 C1242 1.350 1_565 S
N1240 S1238 1.604 1_445 S
N1240 C1241 1.351 1_455 S
C1241 C1235 1.428 . S
C1241 N1240 1.351 1_655 S
C1241 C1242 1.434 . S
C1242 C1233 1.429 . S
C1242 N1239 1.350 1_545 S
C1242 C1241 1.434 . S
C1243 C1244 1.369 . S
C1243 C1245 1.419 . S
C1243 H1247 0.930 . S
C1244 C1243 1.369 . S
C1244 C1253 1.429 . S
C1245 C1243 1.419 . S
C1245 C1246 1.363 . S
C1245 H1248 0.929 . S
C1246 C1245 1.363 . S
C1246 C1252 1.428 . S
H1247 C1243 0.930 . S
H1248 C1245 0.929 . S
S1249 N1250 1.613 1_565 S
S1249 N1251 1.610 . S
N1250 S1249 1.613 1_545 S
N1250 C1253 1.350 1_545 S
N1251 S1249 1.610 . S
N1251 C1252 1.351 . S
C1252 C1246 1.428 . S
C1252 N1251 1.351 . S
C1252 C1253 1.434 . S
C1253 C1244 1.429 . S
C1253 N1250 1.350 1_565 S
C1253 C1252 1.434 . S
C1254 C1255 1.369 . S
C1254 C1256 1.419 . S
C1254 H1258 0.930 . S
C1255 C1254 1.369 . S
C1255 C1264 1.429 . S
C1256 C1254 1.419 . S
C1256 C1257 1.363 . S
C1256 H1259 0.929 . S
C1257 C1256 1.363 . S
C1257 C1263 1.428 . S
H1258 C1254 0.930 . S
H1259 C1256 0.929 . S
S1260 N1261 1.613 . S
S1260 N1262 1.610 . S
N1261 S1260 1.613 . S
N1261 C1264 1.350 . S
N1262 S1260 1.610 . S
N1262 C1263 1.351 . S
C1263 C1257 1.428 . S
C1263 N1262 1.351 . S
C1263 C1264 1.434 . S
C1264 C1255 1.429 . S
C1264 N1261 1.350 . S
C1264 C1263 1.434 . S
C1265 C1266 1.369 . S
C1265 C1267 1.419 . S
C1265 H1269 0.930 . S
C1266 C1265 1.369 . S
C1266 C1275 1.429 . S
C1267 C1265 1.419 . S
C1267 C1268 1.363 . S
C1267 H1270 0.929 . S
C1268 C1267 1.363 . S
C1268 C1274 1.428 . S
H1269 C1265 0.930 . S
H1270 C1267 0.929 . S
S1271 N1272 1.613 . S
S1271 N1273 1.610 1_455 S
N1272 S1271 1.613 . S
N1272 C1275 1.350 . S
N1273 S1271 1.610 1_655 S
N1273 C1274 1.351 1_655 S
C1274 C1268 1.428 . S
C1274 N1273 1.351 1_455 S
C1274 C1275 1.434 . S
C1275 C1266 1.429 . S
C1275 N1272 1.350 . S
C1275 C1274 1.434 . S
C1276 C1277 1.369 . S
C1276 C1278 1.419 . S
C1276 H1280 0.930 . S
C1277 C1276 1.369 . S
C1277 C1286 1.429 . S
C1278 C1276 1.419 . S
C1278 C1279 1.363 . S
C1278 H1281 0.929 . S
C1279 C1278 1.363 . S
C1279 C1285 1.428 . S
H1280 C1276 0.930 . S
H1281 C1278 0.929 . S
S1282 N1283 1.611 1_554 S
S1282 N1284 1.606 1_565 S
N1283 S1282 1.611 1_556 S
N1283 C1286 1.341 1_556 S
N1284 S1282 1.606 1_545 S
N1284 C1285 1.340 1_545 S
C1285 C1279 1.428 . S
C1285 N1284 1.340 1_565 S
C1285 C1286 1.434 . S
C1286 C1277 1.429 . S
C1286 N1283 1.341 1_554 S
C1286 C1285 1.434 . S
C1287 C1288 1.369 . S
C1287 C1289 1.419 . S
C1287 H1291 0.930 . S
C1288 C1287 1.369 . S
C1288 C1297 1.429 . S
C1289 C1287 1.419 . S
C1289 C1290 1.363 . S
C1289 H1292 0.929 1_556 S
C1290 C1289 1.363 . S
C1290 C1296 1.428 . S
H1291 C1287 0.930 . S
H1292 C1289 0.929 1_554 S
S1293 N1294 1.613 . S
S1293 N1295 1.610 . S
N1294 S1293 1.613 . S
N1294 C1297 1.350 . S
N1295 S1293 1.610 . S
N1295 C1296 1.351 . S
C1296 C1290 1.428 . S
C1296 N1295 1.351 . S
C1296 C1297 1.434 . S
C1297 C1288 1.429 . S
C1297 N1294 1.350 . S
C1297 C1296 1.434 . S
C1298 C1299 1.369 . S
C1298 C1300 1.419 . S
C1298 H1302 0.930 . S
C1299 C1298 1.369 . S
C1299 C1308 1.429 . S
C1300 C1298 1.419 . S
C1300 C1301 1.363 . S
C1300 H1303 0.929 . S
C1301 C1300 1.363 . S
C1301 C1307 1.428 . S
H1302 C1298 0.930 . S
H1303 C1300 0.929 . S
S1304 N1305 1.613 . S
S1304 N1306 1.610 . S
N1305 S1304 1.613 . S
N1305 C1308 1.350 . S
N1306 S1304 1.610 . S
N1306 C1307 1.351 . S
C1307 C1301 1.428 . S
C1307 N1306 1.351 . S
C1307 C1308 1.434 . S
C1308 C1299 1.429 . S
C1308 N1305 1.350 . S
C1308 C1307 1.434 . S
C1309 C1310 1.369 . S
C1309 C1311 1.419 . S
C1309 H1313 0.930 . S
C1310 C1309 1.369 . S
C1310 C1319 1.429 . S
C1311 C1309 1.419 . S
C1311 C1312 1.363 . S
C1311 H1314 0.929 . S
C1312 C1311 1.363 . S
C1312 C1318 1.428 . S
H1313 C1309 0.930 . S
H1314 C1311 0.929 . S
S1315 N1316 1.613 . S
S1315 N1317 1.610 . S
N1316 S1315 1.613 . S
N1316 C1319 1.350 . S
N1317 S1315 1.610 . S
N1317 C1318 1.351 . S
C1318 C1312 1.428 . S
C1318 N1317 1.351 . S
C1318 C1319 1.434 . S
C1319 C1310 1.429 . S
C1319 N1316 1.350 . S
C1319 C1318 1.434 . S
C529 C18 1.675 . S
C531 C417 1.594 . S
C540 C426 1.582 . S
C542 C40 1.630 . S
C551 C52 1.674 . S
C553 C367 1.601 . S
C562 C74 1.674 . S
C564 C389 1.601 . S
C573 C505 1.601 . S
C575 C98 1.675 . S
C584 C118 1.679 . S
C586 C477 1.602 . S
C595 C513 1.593 . S
C597 C140 1.672 . S
C606 C164 1.675 . S
C608 C455 1.594 . S
C617 C186 1.688 . S
C619 C307 1.608 . S
C628 C216 1.677 . S
C630 C345 1.600 . S
C639 C315 1.594 . S
C641 C238 1.673 . S
C650 C250 1.679 . S
C652 C279 1.605 . S
C661 C282 1.666 . S
C663 C139 1.590 . S
C672 C296 1.679 . S
C674 C175 1.597 . S
C683 C316 1.676 . S
C685 C109 1.604 . S
C694 C117 1.590 . S
C696 C348 1.671 . S
C705 C370 1.675 . S
C707 C235 1.596 . S
C716 C213 1.593 . S
C718 C392 1.674 . S
C727 C249 1.601 . S
C729 C406 1.673 . S
C738 C197 1.627 . S
C740 C425 1.707 . S
C749 C37 1.599 . S
C751 C458 1.672 . S
C760 C73 1.594 . S
C762 C480 1.668 . S
C771 C51 1.591 . S
C773 C494 1.664 . S
C782 C514 1.674 . S
C784 C15 1.594 . S
C793 C106 1.318 . S
C795 C10 1.260 . S
C804 C120 1.311 . S
C806 C32 1.272 . S
C815 C142 1.311 . S
C817 C62 1.270 . S
C826 C172 1.320 . S
C828 C84 1.262 . S
C837 C96 1.283 . S
C839 C194 1.319 . S
C848 C128 1.258 . S
C850 C252 1.315 . S
C859 C150 1.267 . S
C861 C206 1.307 . S
C870 C162 1.269 . S
C872 C228 1.306 . S
C881 C184 1.273 . S
C883 C8 1.309 . S
C892 C208 1.266 . S
C894 C54 1.312 . S
C903 C230 1.259 . S
C905 C76 1.313 . S
C914 C30 1.325 . S
C916 C260 1.276 . S
C925 C360 1.319 . S
C927 C274 1.261 . S
C936 C382 1.309 . S
C938 C294 1.273 . S
C947 C326 1.277 . S
C949 C414 1.312 . S
C958 C340 1.283 . S
C960 C433 1.349 . S
C969 C448 1.305 . S
C971 C362 1.270 . S
C980 C384 1.269 . S
C982 C516 1.308 . S
C991 C470 1.307 . S
C993 C404 1.253 . S
C1002 C439 1.273 . S
C1004 C502 1.353 . S
C1013 C272 1.305 . S
C1015 C450 1.262 . S
C1024 C472 1.271 . S
C1026 C318 1.310 . S
C1035 C492 1.252 . S
C1037 C338 1.304 . S
C1046 C304 1.322 . S
C1048 C524 1.267 . S
C1057 C21 1.392 . S
C1059 C205 1.385 1_554 S
C1068 C227 1.382 . S
C1070 C43 1.383 . S
C1079 C191 1.388 1_556 S
C1081 C59 1.389 . S
C1090 C263 1.391 . S
C1092 C81 1.392 . S
C1101 C95 1.395 . S
C1103 C87 1.388 1_455 S
C1112 C65 1.391 . S
C1114 C125 1.397 1_545 S
C1123 C147 1.387 . S
C1125 C29 1.383 . S
C1134 C7 1.392 1_655 S
C1136 C161 1.398 . S
C1145 C183 1.390 . S
C1147 C131 1.382 1_545 S
C1156 C219 1.395 . S
C1158 C169 1.392 . S
C1167 C241 1.399 . S
C1169 C153 1.391 . S
C1178 C257 1.399 . S
C1180 C103 1.391 1_565 S
C1189 C285 1.416 . S
C1191 C469 1.404 1_556 S
C1200 C293 1.404 . S
C1202 C499 1.401 . S
C1211 C447 1.395 1_554 S
C1213 C323 1.398 . S
C1222 C527 1.400 . S
C1224 C351 1.413 . S
C1233 C373 1.403 . S
C1235 C337 1.397 1_655 S
C1244 C395 1.395 . S
C1246 C329 1.391 . S
C1255 C301 1.391 . S
C1257 C403 1.393 . S
C1266 C428 1.363 . S
C1268 C271 1.353 1_455 S
C1277 C461 1.394 . S
C1279 C381 1.390 1_565 S
C1288 C436 1.354 . S
C1290 C483 1.380 1_556 S
C1299 C491 1.401 . S
C1301 C411 1.393 . S
C1310 C521 1.393 . S
C1312 C359 1.387 1_545 S
